# generated using pymatgen
data_MgV8Zn4O16
_symmetry_space_group_name_H-M   'P 1'
_cell_length_a   3.12995138
_cell_length_b   10.83027136
_cell_length_c   10.04575331
_cell_angle_alpha   95.69303040
_cell_angle_beta   83.27940035
_cell_angle_gamma   90.81393090
_symmetry_Int_Tables_number   1
_chemical_formula_structural   MgV8Zn4O16
_chemical_formula_sum   'Mg1 V8 Zn4 O16'
_cell_volume   336.52400657
_cell_formula_units_Z   1
loop_
 _symmetry_equiv_pos_site_id
 _symmetry_equiv_pos_as_xyz
  1  'x, y, z'
loop_
 _atom_site_type_symbol
 _atom_site_label
 _atom_site_symmetry_multiplicity
 _atom_site_fract_x
 _atom_site_fract_y
 _atom_site_fract_z
 _atom_site_occupancy
  Mg  Mg0  1  0.89503184  0.18957510  0.98778931  1
  V  V0  1  0.63971821  0.57625812  0.37227653  1
  V  V1  1  0.79864426  0.03356911  0.17259449  1
  V  V2  1  0.06583210  0.08352976  0.62903935  1
  V  V3  1  0.84228330  0.43068872  0.09691100  1
  V  V4  1  0.05670451  0.44370892  0.58932414  1
  V  V5  1  0.65129502  0.91538949  0.41244827  1
  V  V6  1  0.42825353  0.93294913  0.90691531  1
  V  V7  1  0.50416349  0.61946609  0.88120498  1
  Zn  Zn0  1  0.17995625  0.77555147  0.17202796  1
  Zn  Zn1  1  0.28561855  0.30698748  0.30723164  1
  Zn  Zn2  1  0.04459174  0.75516751  0.64783155  1
  Zn  Zn3  1  0.49476988  0.32737253  0.78738187  1
  O  O0  1  0.10374703  0.89294642  0.53975814  1
  O  O1  1  0.61185718  0.08710007  0.51870494  1
  O  O2  1  0.23076425  0.95510975  0.28108883  1
  O  O3  1  0.91118322  0.86631861  0.02446032  1
  O  O4  1  0.96239764  0.59173598  0.98740904  1
  O  O5  1  0.82383484  0.24523374  0.20527137  1
  O  O6  1  0.36650743  0.07912651  0.04131231  1
  O  O7  1  0.03431520  0.27588396  0.67875461  1
  O  O8  1  0.25852214  0.49721837  0.24146107  1
  O  O9  1  0.94407280  0.03000270  0.81348155  1
  O  O10  1  0.07527765  0.60983229  0.50795909  1
  O  O11  1  0.49302370  0.76651803  0.77905758  1
  O  O12  1  0.65226523  0.73653944  0.29124704  1
  O  O13  1  0.53051566  0.50013387  0.72148980  1
  O  O14  1  0.39535920  0.32396644  0.97705769  1
  O  O15  1  0.57366213  0.40211542  0.45975822  1
loop_
_geom_bond_atom_site_label_1
_geom_bond_atom_site_label_2
_geom_bond_distance
_geom_bond_site_symmetry_2
Mg0 O6 2.064245 1_656
Mg0 O6 2.078395 1_556
Mg0 O14 2.123512 1_655
Mg0 O14 2.170552 1_555
Mg0 O5 2.194272 1_556
Mg0 O9 2.328240 1_555
O0 Zn2 1.925124 1_555
O0 V5 2.041731 1_555
O0 V5 2.048311 1_455
O0 V2 2.166484 1_565
O1 V2 1.904659 1_655
O1 V2 1.927194 1_555
O1 V5 2.048138 1_545
O2 V5 2.047962 1_555
O2 V1 2.073804 1_465
O2 Zn0 2.148637 1_555
O2 V5 2.178585 1_455
O2 V1 2.180973 1_565
O3 V6 2.054974 1_654
O3 Zn0 2.115690 1_655
O3 V6 2.194922 1_554
O3 V1 2.231655 1_565
O4 V7 1.928602 1_555
O4 V7 1.931200 1_655
O4 V3 2.158430 1_556
O5 Zn1 1.941296 1_655
O5 Zn1 1.956149 1_555
O5 V1 2.284870 1_555
O5 V3 2.374501 1_555
O6 V6 1.972325 1_544
O6 V1 2.092309 1_555
O6 V1 2.167346 1_455
O7 Zn3 1.950222 1_555
O7 Zn3 1.956616 1_455
O7 V2 2.094510 1_555
O7 V4 2.102682 1_555
O8 V0 1.999517 1_555
O8 V3 2.129238 1_455
O8 Zn1 2.230812 1_555
O8 V3 2.274880 1_555
O8 V0 2.332214 1_455
O9 V2 1.988958 1_655
O9 V6 2.094100 1_545
O9 V6 2.203721 1_645
O10 Zn2 1.998762 1_555
O10 V0 2.042331 1_455
O10 V4 2.046003 1_555
O10 V0 2.113649 1_555
O11 V7 1.981109 1_555
O11 Zn2 2.029521 1_555
O11 Zn2 2.043167 1_655
O11 V6 2.104744 1_555
O12 V0 1.987052 1_555
O12 Zn0 1.989571 1_655
O12 Zn0 2.081053 1_555
O12 V5 2.183072 1_555
O13 V7 1.952447 1_555
O13 Zn3 2.043025 1_555
O13 V4 2.050485 1_655
O13 V4 2.147016 1_555
O14 Zn3 1.898346 1_555
O14 V3 2.194210 1_556
O14 V3 2.252826 1_456
O15 V4 1.981564 1_555
O15 Zn1 2.050798 1_555
O15 V4 2.123160 1_655
O15 V0 2.155770 1_555
