# generated using pymatgen
data_Cu6Sn5
_symmetry_space_group_name_H-M   'P 1'
_cell_length_a   6.58308505
_cell_length_b   6.58308520
_cell_length_c   9.83697001
_cell_angle_alpha   82.71633713
_cell_angle_beta   82.71634172
_cell_angle_gamma   67.33136046
_symmetry_Int_Tables_number   1
_chemical_formula_structural   Cu6Sn5
_chemical_formula_sum   'Cu12 Sn10'
_cell_volume   388.78171472
_cell_formula_units_Z   2
loop_
 _symmetry_equiv_pos_site_id
 _symmetry_equiv_pos_as_xyz
  1  'x, y, z'
loop_
 _atom_site_type_symbol
 _atom_site_label
 _atom_site_symmetry_multiplicity
 _atom_site_fract_x
 _atom_site_fract_y
 _atom_site_fract_z
 _atom_site_occupancy
  Cu  Cu0  1  0.57540692  0.62821983  0.79554821  1
  Cu  Cu1  1  0.37178017  0.42459308  0.70445179  1
  Cu  Cu2  1  0.42459308  0.37178017  0.20445179  1
  Cu  Cu3  1  0.62821983  0.57540692  0.29554821  1
  Cu  Cu4  1  0.81111157  0.80065462  0.39085433  1
  Cu  Cu5  1  0.19934538  0.18888843  0.10914567  1
  Cu  Cu6  1  0.18888843  0.19934538  0.60914567  1
  Cu  Cu7  1  0.80065462  0.81111157  0.89085433  1
  Cu  Cu8  1  0.00000000  0.00000000  -0.00000000  1
  Cu  Cu9  1  0.00000000  0.00000000  0.50000000  1
  Cu  Cu10  1  0.16181527  0.83818473  0.75000000  1
  Cu  Cu11  1  0.83818473  0.16181527  0.25000000  1
  Sn  Sn0  1  0.55483206  0.22896516  0.47103856  1
  Sn  Sn1  1  0.77103484  0.44516794  0.02896144  1
  Sn  Sn2  1  0.44516794  0.77103484  0.52896144  1
  Sn  Sn3  1  0.22896516  0.55483206  0.97103856  1
  Sn  Sn4  1  0.94194791  0.63040451  0.64282507  1
  Sn  Sn5  1  0.36959549  0.05805209  0.85717493  1
  Sn  Sn6  1  0.05805209  0.36959549  0.35717493  1
  Sn  Sn7  1  0.63040451  0.94194791  0.14282507  1
  Sn  Sn8  1  0.80080923  0.19919077  0.75000000  1
  Sn  Sn9  1  0.19919077  0.80080923  0.25000000  1
loop_
_geom_bond_atom_site_label_1
_geom_bond_atom_site_label_2
_geom_bond_distance
_geom_bond_site_symmetry_2
Cu0 Cu1 2.528063 1_555
Cu0 Cu7 2.557763 1_555
Cu0 Cu10 2.603056 1_555
Cu0 Sn4 2.679873 1_555
Cu0 Sn1 2.689726 1_556
Cu0 Sn8 2.702106 1_555
Cu0 Sn5 2.735243 1_565
Cu0 Sn2 2.796362 1_555
Cu0 Sn3 2.838027 1_555
Cu1 Cu6 2.557763 1_555
Cu1 Cu10 2.603056 1_555
Cu1 Sn5 2.679873 1_555
Cu1 Sn0 2.689726 1_555
Cu1 Sn8 2.702106 1_555
Cu1 Sn4 2.735243 1_455
Cu1 Sn3 2.796362 1_555
Cu1 Sn2 2.838027 1_555
Cu2 Cu3 2.528063 1_555
Cu2 Cu5 2.557763 1_555
Cu2 Sn6 2.679873 1_555
Cu2 Sn3 2.689726 1_554
Cu2 Sn9 2.702106 1_555
Cu2 Sn7 2.735243 1_545
Cu2 Sn0 2.796362 1_555
Cu2 Sn1 2.838027 1_555
Cu3 Cu4 2.557763 1_555
Cu3 Sn7 2.679873 1_555
Cu3 Sn2 2.689726 1_555
Cu3 Sn9 2.702106 1_555
Cu3 Sn6 2.735243 1_655
Cu3 Sn1 2.796362 1_555
Cu3 Sn0 2.838027 1_555
Cu4 Cu9 2.524819 1_665
Cu4 Sn2 2.674359 1_555
Cu4 Sn4 2.689689 1_555
Cu4 Sn6 2.711281 1_655
Cu4 Sn7 2.746063 1_555
Cu4 Sn9 2.747854 1_655
Cu4 Sn0 2.824620 1_565
Cu5 Cu8 2.524819 1_555
Cu5 Sn3 2.674359 1_554
Cu5 Sn5 2.689690 1_554
Cu5 Sn7 2.711281 1_545
Cu5 Sn6 2.746063 1_555
Cu5 Sn9 2.747854 1_545
Cu5 Sn1 2.824620 1_455
Cu6 Cu9 2.524819 1_555
Cu6 Sn0 2.674359 1_555
Cu6 Sn6 2.689689 1_555
Cu6 Sn4 2.711281 1_455
Cu6 Sn5 2.746063 1_555
Cu6 Sn8 2.747854 1_455
Cu6 Sn2 2.824620 1_545
Cu7 Cu8 2.524819 1_666
Cu7 Sn1 2.674359 1_556
Cu7 Sn7 2.689690 1_556
Cu7 Sn5 2.711281 1_565
Cu7 Sn4 2.746063 1_555
Cu7 Sn8 2.747854 1_565
Cu7 Sn3 2.824620 1_655
Cu8 Sn1 2.763944 1_455
Cu8 Sn3 2.763944 1_544
Cu8 Sn5 2.784536 1_554
Cu8 Sn7 2.784536 1_445
Cu8 Sn8 2.856826 1_454
Cu8 Sn9 2.856826 1_545
Cu9 Sn2 2.763944 1_545
Cu9 Sn0 2.763944 1_455
Cu9 Sn4 2.784536 1_445
Cu9 Sn6 2.784536 1_555
Cu9 Sn9 2.856826 1_545
Cu9 Sn8 2.856826 1_455
Cu10 Sn8 2.634844 1_465
Cu10 Sn3 2.642421 1_555
Cu10 Sn2 2.642421 1_555
Cu10 Cu6 2.651987 1_565
Cu10 Cu7 2.651987 1_455
Cu10 Sn4 2.712210 1_455
Cu10 Sn5 2.712210 1_565
Cu10 Cu9 2.728131 1_565
Cu10 Cu8 2.728131 1_566
Cu11 Cu2 2.603056 1_555
Cu11 Cu3 2.603056 1_555
Cu11 Sn9 2.634844 1_645
Cu11 Sn1 2.642421 1_555
Cu11 Sn0 2.642421 1_555
Cu11 Cu4 2.651987 1_545
Cu11 Cu5 2.651987 1_655
Cu11 Sn6 2.712210 1_655
Cu11 Sn7 2.712210 1_545
Cu11 Cu9 2.728131 1_655
Cu11 Cu8 2.728131 1_655
