# generated using pymatgen
data_Li7Mn2(CoO4)3
_symmetry_space_group_name_H-M   'P 1'
_cell_length_a   5.12394800
_cell_length_b   5.80816723
_cell_length_c   7.75185482
_cell_angle_alpha   79.26371978
_cell_angle_beta   77.67322369
_cell_angle_gamma   73.55094766
_symmetry_Int_Tables_number   1
_chemical_formula_structural   Li7Mn2(CoO4)3
_chemical_formula_sum   'Li7 Mn2 Co3 O12'
_cell_volume   214.19957652
_cell_formula_units_Z   1
loop_
 _symmetry_equiv_pos_site_id
 _symmetry_equiv_pos_as_xyz
  1  'x, y, z'
loop_
 _atom_site_type_symbol
 _atom_site_label
 _atom_site_symmetry_multiplicity
 _atom_site_fract_x
 _atom_site_fract_y
 _atom_site_fract_z
 _atom_site_occupancy
  Li  Li0  1  0.49322000  0.67573500  0.81781300  1
  Li  Li1  1  0.48942500  0.50564500  0.50504900  1
  Li  Li2  1  0.50263300  0.33048700  0.17609500  1
  Li  Li3  1  0.50051700  0.16603800  0.82237000  1
  Li  Li4  1  0.49520200  0.99153800  0.50813000  1
  Li  Li5  1  0.50990700  0.83087300  0.17078700  1
  Li  Li6  1  0.00094300  0.83113400  0.66635300  1
  Mn  Mn0  1  0.00182300  0.99932000  0.99680900  1
  Mn  Mn1  1  0.00386000  0.50172000  0.99714500  1
  Co  Co0  1  0.00072600  0.67151400  0.34482000  1
  Co  Co1  1  0.00302600  0.33954400  0.66096700  1
  Co  Co2  1  0.98806700  0.16217200  0.35050700  1
  O  O0  1  0.22724700  0.49369600  0.76636600  1
  O  O1  1  0.24005100  0.33281500  0.41971400  1
  O  O2  1  0.21682900  0.17661200  0.08096400  1
  O  O3  1  0.22216400  0.01436200  0.76405500  1
  O  O4  1  0.23803600  0.83164000  0.40130100  1
  O  O5  1  0.22490100  0.67671100  0.07124500  1
  O  O6  1  0.77939000  0.82262900  0.92853600  1
  O  O7  1  0.76051900  0.64937100  0.58076700  1
  O  O8  1  0.78675900  0.50141100  0.23787200  1
  O  O9  1  0.77831000  0.32364100  0.92574300  1
  O  O10  1  0.76127700  0.17345100  0.57101500  1
  O  O11  1  0.77516900  0.99794100  0.23557800  1
loop_
_geom_bond_atom_site_label_1
_geom_bond_atom_site_label_2
_geom_bond_distance
_geom_bond_site_symmetry_2
Li0 O7 2.046307 1_555
Li0 O0 2.083142 1_555
Li0 O3 2.089426 1_565
Li0 O5 2.143889 1_556
Li0 O6 2.265705 1_555
Li0 O9 2.282227 1_555
Li1 O7 2.039185 1_555
Li1 O10 2.083030 1_555
Li1 O4 2.094001 1_555
Li1 O1 2.100640 1_555
Li1 O0 2.179778 1_555
Li1 O8 2.293849 1_555
Li2 O1 2.071517 1_555
Li2 O11 2.075799 1_545
Li2 O9 2.142345 1_554
Li2 O8 2.151210 1_555
Li2 O2 2.221499 1_555
Li2 O5 2.234693 1_555
Li3 O3 2.037134 1_555
Li3 O0 2.052673 1_555
Li3 O10 2.115028 1_555
Li3 O2 2.210487 1_556
Li3 O6 2.230229 1_545
Li3 O9 2.237035 1_555
Li4 O7 2.120062 1_555
Li4 O10 2.122307 1_565
Li4 O1 2.125298 1_565
Li4 O3 2.172228 1_565
Li4 O4 2.174895 1_555
Li4 O11 2.286913 1_555
Li5 O4 2.017491 1_555
Li5 O11 2.064274 1_555
Li5 O6 2.079504 1_554
Li5 O8 2.086013 1_555
Li5 O2 2.233870 1_565
Li5 O5 2.238055 1_555
Li6 O0 2.077869 1_555
Li6 O3 2.083526 1_565
Li6 O7 2.102090 1_455
Li6 O6 2.105010 1_455
Li6 O10 2.112967 1_465
Li6 O4 2.152079 1_555
Mn0 O3 1.914440 1_565
Mn0 O6 1.937679 1_455
Mn0 O5 1.953542 1_556
Mn0 O9 1.955628 1_465
Mn0 O11 1.963824 1_456
Mn0 O2 1.974651 1_566
Mn1 O0 1.907688 1_555
Mn1 O6 1.938457 1_455
Mn1 O5 1.947559 1_556
Mn1 O8 1.957875 1_456
Mn1 O2 1.963991 1_556
Mn1 O9 1.968555 1_455
Co0 O4 1.885397 1_555
Co0 O7 1.979287 1_455
Co0 O8 2.042578 1_455
Co0 O1 2.055010 1_555
Co0 O11 2.055775 1_455
Co0 O5 2.184822 1_555
Co1 O7 1.953334 1_455
Co1 O1 2.001149 1_555
Co1 O0 2.011231 1_555
Co1 O3 2.021480 1_555
Co1 O10 2.060929 1_455
Co1 O9 2.127822 1_455
Co2 O10 1.851222 1_555
Co2 O4 2.005563 1_645
Co2 O1 2.038578 1_655
Co2 O11 2.052930 1_545
Co2 O8 2.073934 1_555
Co2 O2 2.165983 1_655
