# generated using pymatgen
data_K3Ca2Mg10Si16(HO12)4
_symmetry_space_group_name_H-M   'P 1'
_cell_length_a   16.55170896
_cell_length_b   9.02645635
_cell_length_c   8.54062136
_cell_angle_alpha   121.43239087
_cell_angle_beta   95.43811811
_cell_angle_gamma   106.78382337
_symmetry_Int_Tables_number   1
_chemical_formula_structural   K3Ca2Mg10Si16(HO12)4
_chemical_formula_sum   'K3 Ca2 Mg10 Si16 H4 O48'
_cell_volume   994.24549010
_cell_formula_units_Z   1
loop_
 _symmetry_equiv_pos_site_id
 _symmetry_equiv_pos_as_xyz
  1  'x, y, z'
loop_
 _atom_site_type_symbol
 _atom_site_label
 _atom_site_symmetry_multiplicity
 _atom_site_fract_x
 _atom_site_fract_y
 _atom_site_fract_z
 _atom_site_occupancy
  K  K0  1  0.35128600  0.38984800  0.10752500  1
  K  K1  1  0.75000000  0.50000000  0.00000000  1
  K  K2  1  0.14871400  0.61015200  0.89247500  1
  Ca  Ca0  1  0.93044200  0.16541200  0.97033700  1
  Ca  Ca1  1  0.56955800  0.83458800  0.02966300  1
  Mg  Mg0  1  0.12068300  0.16483100  0.06633800  1
  Mg  Mg1  1  0.22786900  0.96234500  0.69493300  1
  Mg  Mg2  1  0.03671300  0.25910600  0.42254000  1
  Mg  Mg3  1  0.46328700  0.74089400  0.57746000  1
  Mg  Mg4  1  0.27213100  0.03765500  0.30506700  1
  Mg  Mg5  1  0.37931700  0.83516900  0.93366200  1
  Mg  Mg6  1  0.68577000  0.87070400  0.62218900  1
  Mg  Mg7  1  0.39415300  0.83621500  0.29704000  1
  Mg  Mg8  1  0.10584700  0.16378500  0.70296000  1
  Mg  Mg9  1  0.81423000  0.12929600  0.37781100  1
  Si  Si0  1  0.05245900  0.82716700  0.14970700  1
  Si  Si1  1  0.85287400  0.83060100  0.46878900  1
  Si  Si2  1  0.25111900  0.61820600  0.32423800  1
  Si  Si3  1  0.62081800  0.10813000  0.87617400  1
  Si  Si4  1  0.87918200  0.89187000  0.12382600  1
  Si  Si5  1  0.24888100  0.38179400  0.67576200  1
  Si  Si6  1  0.64712600  0.16939900  0.53121100  1
  Si  Si7  1  0.44754100  0.17283300  0.85029300  1
  Si  Si8  1  0.56419900  0.57707600  0.23640700  1
  Si  Si9  1  0.06821600  0.57052500  0.31961900  1
  Si  Si10  1  0.69710400  0.45277100  0.35113000  1
  Si  Si11  1  0.99880500  0.81869000  0.66391800  1
  Si  Si12  1  0.50119500  0.18131000  0.33608200  1
  Si  Si13  1  0.80289600  0.54722900  0.64887000  1
  Si  Si14  1  0.43178400  0.42947500  0.68038100  1
  Si  Si15  1  0.93580100  0.42292400  0.76359300  1
  H  H0  1  0.00064000  0.95155900  0.89110200  1
  H  H1  1  0.49936000  0.04844100  0.10889800  1
  H  H2  1  0.66077000  0.80764400  0.24308300  1
  H  H3  1  0.83923000  0.19235600  0.75691700  1
  O  O0  1  0.48525700  0.36774400  0.50842300  1
  O  O1  1  0.51254300  0.04684700  0.79462600  1
  O  O2  1  0.06035800  0.46298900  0.06195800  1
  O  O3  1  0.44664200  0.25632500  0.72130100  1
  O  O4  1  0.11309000  0.97507100  0.76806100  1
  O  O5  1  0.98122700  0.29470000  0.62385200  1
  O  O6  1  0.66981500  0.29173400  0.09535700  1
  O  O7  1  0.25853800  0.69847800  0.18946800  1
  O  O8  1  0.68891200  0.03931600  0.36818100  1
  O  O9  1  0.29194300  0.00091100  0.51946800  1
  O  O10  1  0.22315500  0.39562900  0.23063800  1
  O  O11  1  0.78932900  0.60710400  0.33300700  1
  O  O12  1  0.71067100  0.39289600  0.66699300  1
  O  O13  1  0.27684500  0.60437100  0.76936200  1
  O  O14  1  0.20805700  0.99908900  0.48053200  1
  O  O15  1  0.81108800  0.96068400  0.63181900  1
  O  O16  1  0.24146200  0.30152200  0.81053200  1
  O  O17  1  0.83018500  0.70826600  0.90464300  1
  O  O18  1  0.51877300  0.70530000  0.37614800  1
  O  O19  1  0.05335800  0.74367500  0.27869900  1
  O  O20  1  0.43964200  0.53701100  0.93804200  1
  O  O21  1  0.03891900  0.34577800  0.26156500  1
  O  O22  1  0.98745700  0.95315300  0.20537400  1
  O  O23  1  0.38691000  0.02492900  0.23193900  1
  O  O24  1  0.06459400  0.27294200  0.94009700  1
  O  O25  1  0.01474300  0.63225600  0.49157700  1
  O  O26  1  0.62211000  0.67128300  0.13564600  1
  O  O27  1  0.99520800  0.64639600  0.92166500  1
  O  O28  1  0.86307800  0.07462300  0.15900200  1
  O  O29  1  0.53692400  0.07977100  0.43860200  1
  O  O30  1  0.32244000  0.31986100  0.55116600  1
  O  O31  1  0.84077200  0.88210700  0.29737900  1
  O  O32  1  0.14272400  0.95783600  0.14310200  1
  O  O33  1  0.85555700  0.39546400  0.60479700  1
  O  O34  1  0.60972200  0.29617000  0.35543000  1
  O  O35  1  0.35737200  0.73197000  0.45558900  1
  O  O36  1  0.14262800  0.26803000  0.54441100  1
  O  O37  1  0.89027800  0.70383000  0.64457000  1
  O  O38  1  0.64444300  0.60453600  0.39520300  1
  O  O39  1  0.35727600  0.04216400  0.85689800  1
  O  O40  1  0.65922800  0.11789300  0.70262100  1
  O  O41  1  0.17756000  0.68013900  0.44883400  1
  O  O42  1  0.96307600  0.92022900  0.56139800  1
  O  O43  1  0.50479200  0.35360400  0.07833500  1
  O  O44  1  0.87789000  0.32871700  0.86435400  1
  O  O45  1  0.43540600  0.72705800  0.05990300  1
  O  O46  1  0.63692200  0.92537700  0.84099800  1
  O  O47  1  0.46108100  0.65422200  0.73843500  1
loop_
_geom_bond_atom_site_label_1
_geom_bond_atom_site_label_2
_geom_bond_distance
_geom_bond_site_symmetry_2
K0 O10 2.456701 1_555
K0 O16 2.560015 1_554
K0 O43 2.672045 1_555
K0 O20 2.698751 1_554
K0 O39 2.766653 1_554
K0 O18 2.911814 1_555
K0 O35 2.927893 1_555
K1 O12 2.421795 1_554
K1 O11 2.421795 1_555
K1 O17 2.513866 1_554
K1 O6 2.513866 1_555
K1 O31 2.784153 1_555
K1 O40 2.784153 1_554
K1 O26 2.949591 1_555
K1 O44 2.949591 1_554
K2 O13 2.456701 1_555
K2 O7 2.560015 1_556
K2 O27 2.672045 1_455
K2 O2 2.698751 1_556
K2 O32 2.766653 1_556
K2 O5 2.911814 1_455
K2 O36 2.927893 1_555
Ca0 O24 2.250477 1_655
Ca0 O21 2.302759 1_656
Ca0 H0 2.369817 1_645
Ca0 O28 2.387717 1_556
Ca0 O44 2.394088 1_555
Ca0 H3 2.411141 1_555
Ca0 O2 2.569889 1_656
Ca0 O15 2.629272 1_545
Ca1 O45 2.250477 1_555
Ca1 O47 2.302759 1_554
Ca1 H1 2.369817 1_565
Ca1 O46 2.387717 1_554
Ca1 O26 2.394088 1_555
Ca1 H2 2.411141 1_555
Ca1 O20 2.569889 1_554
Ca1 O8 2.629272 1_565
Mg0 O10 1.909218 1_555
Mg0 O24 2.099405 1_554
Mg0 O4 2.168702 1_544
Mg0 O32 2.383254 1_545
Mg0 O21 2.478546 1_555
Mg1 O9 2.030710 1_565
Mg1 O14 2.037881 1_555
Mg1 O4 2.070886 1_555
Mg1 O41 2.111637 1_555
Mg1 O39 2.127919 1_565
Mg1 O16 2.608844 1_565
Mg2 O21 1.902202 1_555
Mg2 O36 1.910047 1_555
Mg2 O5 1.948412 1_455
Mg2 O22 2.191412 1_445
Mg3 O47 1.902202 1_555
Mg3 O35 1.910047 1_555
Mg3 O18 1.948412 1_555
Mg3 O1 2.191412 1_565
Mg4 O14 2.030710 1_545
Mg4 O9 2.037881 1_555
Mg4 O23 2.070886 1_555
Mg4 O30 2.111637 1_555
Mg4 O32 2.127919 1_545
Mg4 O7 2.608844 1_545
Mg5 O13 1.909218 1_555
Mg5 O45 2.099405 1_556
Mg5 O23 2.168702 1_566
Mg5 O39 2.383254 1_565
Mg5 O47 2.478546 1_555
Mg6 O15 1.973296 1_555
Mg6 O38 1.984964 1_555
Mg6 O46 1.986067 1_555
Mg6 O40 2.160557 1_565
Mg7 O45 2.026876 1_555
Mg7 O7 2.057760 1_555
Mg7 O35 2.060095 1_555
Mg7 O23 2.078044 1_565
Mg7 O29 2.359044 1_565
Mg8 O24 2.026876 1_555
Mg8 O16 2.057760 1_555
Mg8 O36 2.060095 1_555
Mg8 O4 2.078044 1_545
Mg8 O42 2.359044 1_445
Mg9 O8 1.973296 1_555
Mg9 O33 1.984964 1_555
Mg9 O28 1.986067 1_555
Mg9 O31 2.160557 1_545
H0 Si11 1.656734 1_455
H0 Mg0 2.028808 1_566
H1 Si12 1.656734 1_555
H1 Mg5 2.028808 1_544
H2 O26 1.011093 1_555
H2 O8 1.656606 1_565
H3 O44 1.011093 1_555
H3 O15 1.656606 1_545
O0 Si12 1.677666 1_555
O0 Si14 1.711251 1_555
O1 Si3 1.670893 1_555
O1 Si7 1.707771 1_555
O2 O24 1.500683 1_554
O2 Si9 1.856522 1_555
O3 Si7 1.628247 1_555
O3 Si14 1.844113 1_555
O4 Si11 1.786445 1_455
O5 Si15 1.600389 1_555
O6 Si3 1.615193 1_554
O6 Si10 1.791875 1_555
O7 Si2 1.646262 1_555
O8 Si6 1.655939 1_555
O10 Si2 1.614748 1_555
O11 Si1 1.619955 1_555
O11 Si10 1.826565 1_555
O12 Si6 1.619955 1_555
O12 Si13 1.826565 1_555
O13 Si5 1.614748 1_555
O14 O9 1.390057 1_565
O15 Si1 1.655939 1_555
O16 Si5 1.646262 1_555
O17 Si4 1.615193 1_556
O17 Si13 1.791875 1_555
O18 Si8 1.600389 1_555
O19 Si0 1.628247 1_555
O19 Si9 1.844113 1_555
O20 O45 1.500683 1_556
O20 Si14 1.856522 1_555
O21 Si9 1.712802 1_555
O22 Si4 1.670893 1_555
O22 Si0 1.707771 1_655
O23 Si12 1.786445 1_555
O25 Si11 1.677666 1_455
O25 Si9 1.711251 1_555
O26 Si8 1.682646 1_555
O27 Si15 1.618948 1_555
O27 Si0 1.672221 1_656
O28 Si4 1.623192 1_545
O29 Si6 1.677530 1_555
O29 Si12 1.734445 1_555
O30 Si14 1.709021 1_555
O30 Si5 1.716234 1_555
O31 Si4 1.700443 1_555
O31 Si1 1.762806 1_555
O32 Si0 1.641393 1_555
O33 Si15 1.668129 1_555
O33 Si13 1.729744 1_555
O34 Si10 1.724766 1_555
O34 Si12 1.737362 1_555
O35 Si2 1.669570 1_555
O36 Si5 1.669570 1_555
O37 Si13 1.724766 1_555
O37 Si11 1.737362 1_555
O38 Si8 1.668129 1_555
O38 Si10 1.729744 1_555
O39 Si7 1.641393 1_555
O40 Si3 1.700443 1_555
O40 Si6 1.762806 1_555
O41 Si9 1.709021 1_555
O41 Si2 1.716234 1_555
O42 Si1 1.677530 1_555
O42 Si11 1.734445 1_555
O43 Si8 1.618948 1_555
O43 Si7 1.672221 1_554
O44 Si15 1.682646 1_555
O46 Si3 1.623192 1_565
O47 Si14 1.712802 1_555
