# generated using pymatgen
data_Eu3IrO7
_symmetry_space_group_name_H-M   'P 1'
_cell_length_a   6.54835656
_cell_length_b   6.54835656
_cell_length_c   7.47651981
_cell_angle_alpha   90.00000000
_cell_angle_beta   90.00000000
_cell_angle_gamma   111.75233763
_symmetry_Int_Tables_number   1
_chemical_formula_structural   Eu3IrO7
_chemical_formula_sum   'Eu6 Ir2 O14'
_cell_volume   297.77191269
_cell_formula_units_Z   2
loop_
 _symmetry_equiv_pos_site_id
 _symmetry_equiv_pos_as_xyz
  1  'x, y, z'
loop_
 _atom_site_type_symbol
 _atom_site_label
 _atom_site_symmetry_multiplicity
 _atom_site_fract_x
 _atom_site_fract_y
 _atom_site_fract_z
 _atom_site_occupancy
  Eu  Eu0  1  0.00000000  0.00000000  -0.00000000  1
  Eu  Eu1  1  0.00000000  0.00000000  0.50000000  1
  Eu  Eu2  1  0.47206522  0.92459884  0.75000000  1
  Eu  Eu3  1  0.52793478  0.07540116  0.25000000  1
  Eu  Eu4  1  0.92459884  0.47206522  0.75000000  1
  Eu  Eu5  1  0.07540116  0.52793478  0.25000000  1
  Ir  Ir0  1  0.50000000  0.50000000  -0.00000000  1
  Ir  Ir1  1  0.50000000  0.50000000  0.50000000  1
  O  O0  1  0.59340114  0.59340114  0.75000000  1
  O  O1  1  0.40659886  0.40659886  0.25000000  1
  O  O2  1  0.83934998  0.10388995  0.75000000  1
  O  O3  1  0.16065002  0.89611005  0.25000000  1
  O  O4  1  0.10388995  0.83934998  0.75000000  1
  O  O5  1  0.89611005  0.16065002  0.25000000  1
  O  O6  1  0.44193641  0.19054743  0.95756233  1
  O  O7  1  0.55806359  0.80945257  0.45756233  1
  O  O8  1  0.19054743  0.44193641  0.95756233  1
  O  O9  1  0.80945257  0.55806359  0.45756233  1
  O  O10  1  0.44193641  0.19054743  0.54243767  1
  O  O11  1  0.55806359  0.80945257  0.04243767  1
  O  O12  1  0.80945257  0.55806359  0.04243767  1
  O  O13  1  0.19054743  0.44193641  0.54243767  1
loop_
_geom_bond_atom_site_label_1
_geom_bond_atom_site_label_2
_geom_bond_distance
_geom_bond_site_symmetry_2
Eu0 O2 2.365082 1_454
Eu0 O4 2.365082 1_544
Eu0 O3 2.365082 1_545
Eu0 O5 2.365082 1_455
Eu0 O12 2.712223 1_445
Eu0 O8 2.712223 1_554
Eu0 O11 2.712223 1_445
Eu0 O6 2.712223 1_554
Eu1 O4 2.365082 1_545
Eu1 O2 2.365082 1_455
Eu1 O3 2.365082 1_545
Eu1 O5 2.365082 1_455
Eu1 O13 2.712223 1_555
Eu1 O9 2.712223 1_445
Eu1 O7 2.712223 1_445
Eu1 O10 2.712223 1_555
Eu2 O2 2.251676 1_565
Eu2 O4 2.264226 1_555
Eu2 O6 2.394729 1_565
Eu2 O10 2.394729 1_565
Eu2 O7 2.445572 1_555
Eu2 O11 2.445572 1_556
Eu2 O0 2.571428 1_555
Eu3 O3 2.251676 1_545
Eu3 O5 2.264226 1_555
Eu3 O7 2.394729 1_545
Eu3 O11 2.394729 1_545
Eu3 O6 2.445572 1_554
Eu3 O10 2.445572 1_555
Eu3 O1 2.571428 1_555
Eu4 O4 2.251676 1_655
Eu4 O2 2.264226 1_555
Eu4 O8 2.394729 1_655
Eu4 O13 2.394729 1_655
Eu4 O9 2.445572 1_555
Eu4 O12 2.445572 1_556
Eu4 O0 2.571428 1_555
Eu5 O5 2.251676 1_455
Eu5 O3 2.264226 1_555
Eu5 O12 2.394729 1_455
Eu5 O9 2.394729 1_455
Eu5 O13 2.445572 1_555
Eu5 O8 2.445572 1_554
Eu5 O1 2.571428 1_555
Ir0 O6 1.944347 1_554
Ir0 O8 1.944347 1_554
Ir0 O11 1.944347 1_555
Ir0 O12 1.944347 1_555
Ir0 O1 1.991117 1_555
Ir0 O0 1.991117 1_554
Ir1 O10 1.944347 1_555
Ir1 O13 1.944347 1_555
Ir1 O9 1.944347 1_555
Ir1 O7 1.944347 1_555
Ir1 O0 1.991117 1_555
Ir1 O1 1.991117 1_555
