# generated using pymatgen
data_Li2(BH)5
_symmetry_space_group_name_H-M   'P 1'
_cell_length_a   5.57157209
_cell_length_b   5.57157209
_cell_length_c   6.49426908
_cell_angle_alpha   64.59837685
_cell_angle_beta   64.59837685
_cell_angle_gamma   59.99999888
_symmetry_Int_Tables_number   1
_chemical_formula_structural   Li2(BH)5
_chemical_formula_sum   'Li2 B5 H5'
_cell_volume   151.66703539
_cell_formula_units_Z   1
loop_
 _symmetry_equiv_pos_site_id
 _symmetry_equiv_pos_as_xyz
  1  'x, y, z'
loop_
 _atom_site_type_symbol
 _atom_site_label
 _atom_site_symmetry_multiplicity
 _atom_site_fract_x
 _atom_site_fract_y
 _atom_site_fract_z
 _atom_site_occupancy
  Li  Li0  1  0.49358300  0.49358300  0.51925200  1
  Li  Li1  1  0.00923600  0.00923600  0.97229300  1
  B  B0  1  0.82701500  0.82701500  0.51895500  1
  B  B1  1  0.64310700  0.96214300  0.75164200  1
  B  B2  1  0.64310700  0.64310700  0.75164200  1
  B  B3  1  0.96214300  0.64310700  0.75164200  1
  B  B4  1  0.67183200  0.67183200  0.98450500  1
  H  H0  1  0.50766200  0.18669500  0.79798000  1
  H  H1  1  0.50766200  0.50766200  0.79798000  1
  H  H2  1  0.18669500  0.50766200  0.79798000  1
  H  H3  1  0.89781800  0.89781800  0.30654600  1
  H  H4  1  0.60194000  0.60194000  0.19418000  1
loop_
_geom_bond_atom_site_label_1
_geom_bond_atom_site_label_2
_geom_bond_distance
_geom_bond_site_symmetry_2
B0 H3 1.198334 1_555
B1 H0 1.187161 1_565
B2 H1 1.187161 1_555
B3 H2 1.187161 1_655
B4 H4 1.182910 1_556
H0 Li0 1.881143 1_555
H1 Li0 1.881138 1_555
H2 Li0 1.881143 1_555
H3 Li1 1.885734 1_664
H4 Li0 1.833938 1_555
