# generated using pymatgen
data_KNa7V6Cr2O20
_symmetry_space_group_name_H-M   'P 1'
_cell_length_a   10.86506290
_cell_length_b   11.16794919
_cell_length_c   16.51320224
_cell_angle_alpha   109.78590489
_cell_angle_beta   108.80238753
_cell_angle_gamma   89.99232103
_symmetry_Int_Tables_number   1
_chemical_formula_structural   KNa7V6Cr2O20
_chemical_formula_sum   'K4 Na28 V24 Cr8 O80'
_cell_volume   1771.40837567
_cell_formula_units_Z   4
loop_
 _symmetry_equiv_pos_site_id
 _symmetry_equiv_pos_as_xyz
  1  'x, y, z'
loop_
 _atom_site_type_symbol
 _atom_site_label
 _atom_site_symmetry_multiplicity
 _atom_site_fract_x
 _atom_site_fract_y
 _atom_site_fract_z
 _atom_site_occupancy
  K  K0  1  0.30517400  0.06505200  0.11169100  1
  K  K1  1  0.80560700  0.06377100  0.11206200  1
  K  K2  1  0.05587900  0.79647900  0.11237100  1
  K  K3  1  0.55587800  0.79659300  0.11220900  1
  Na  Na0  1  0.30336500  0.06735000  0.60732800  1
  Na  Na1  1  0.30328600  0.56418100  0.10426700  1
  Na  Na2  1  0.30312600  0.56729100  0.60778700  1
  Na  Na3  1  0.80496700  0.06729100  0.60837100  1
  Na  Na4  1  0.80278600  0.56552200  0.10353900  1
  Na  Na5  1  0.80244800  0.56814300  0.60820700  1
  Na  Na6  1  0.19614800  0.43352000  0.39378500  1
  Na  Na7  1  0.19901800  0.43379200  0.89420400  1
  Na  Na8  1  0.19758100  0.93390900  0.39536500  1
  Na  Na9  1  0.19785500  0.93436900  0.89355400  1
  Na  Na10  1  0.69598600  0.43482100  0.39380600  1
  Na  Na11  1  0.69879700  0.43546900  0.89387200  1
  Na  Na12  1  0.69722500  0.93103900  0.39447100  1
  Na  Na13  1  0.69837100  0.93296200  0.89351200  1
  Na  Na14  1  0.05518200  0.29018000  0.10402000  1
  Na  Na15  1  0.05478400  0.28902000  0.60807200  1
  Na  Na16  1  0.05369000  0.79095700  0.60738600  1
  Na  Na17  1  0.55045800  0.28971500  0.10431700  1
  Na  Na18  1  0.55231700  0.29075600  0.60801100  1
  Na  Na19  1  0.55397600  0.78971900  0.60821700  1
  Na  Na20  1  0.44471400  0.21291100  0.39424800  1
  Na  Na21  1  0.44658700  0.21079200  0.89368900  1
  Na  Na22  1  0.44739900  0.70947100  0.39374300  1
  Na  Na23  1  0.44825300  0.70873500  0.89345100  1
  Na  Na24  1  0.94827500  0.21095700  0.39556500  1
  Na  Na25  1  0.95114300  0.21094500  0.89424700  1
  Na  Na26  1  0.94745300  0.71003100  0.39360500  1
  Na  Na27  1  0.94795600  0.70902000  0.89357600  1
  V  V0  1  0.00384500  0.00044900  0.50019800  1
  V  V1  1  0.00272400  0.49882600  0.50086300  1
  V  V2  1  0.50262600  0.50195100  0.49906100  1
  V  V3  1  0.25557400  0.24811900  0.50072300  1
  V  V4  1  0.25320600  0.75366500  0.50046700  1
  V  V5  1  0.75380400  0.25059200  0.99717200  1
  V  V6  1  0.74590500  0.24626800  0.49975800  1
  V  V7  1  0.75445100  0.74892500  0.50022000  1
  V  V8  1  0.11095000  0.09553800  0.25433000  1
  V  V9  1  0.10413800  0.09002600  0.75035400  1
  V  V10  1  0.10391500  0.58663700  0.25031300  1
  V  V11  1  0.10347900  0.58806000  0.74873900  1
  V  V12  1  0.61165100  0.09690800  0.25531100  1
  V  V13  1  0.60370400  0.08962600  0.74893500  1
  V  V14  1  0.60434400  0.58654500  0.25027800  1
  V  V15  1  0.60291300  0.58764300  0.74874900  1
  V  V16  1  0.35417800  0.41363500  0.25065100  1
  V  V17  1  0.35449500  0.40996500  0.75070200  1
  V  V18  1  0.36174100  0.90979300  0.25559500  1
  V  V19  1  0.35340100  0.91113900  0.74914800  1
  V  V20  1  0.85423100  0.41386700  0.25097100  1
  V  V21  1  0.85437800  0.41030100  0.74985400  1
  V  V22  1  0.86073800  0.90952500  0.25472600  1
  V  V23  1  0.85350300  0.91098700  0.74920900  1
  Cr  Cr0  1  0.00296600  0.99783200  0.99457200  1
  Cr  Cr1  1  0.00655400  0.49805600  0.99740900  1
  Cr  Cr2  1  0.49978400  0.99541500  0.99358800  1
  Cr  Cr3  1  0.50457500  0.99748200  0.50068100  1
  Cr  Cr4  1  0.50299500  0.49854200  0.99743000  1
  Cr  Cr5  1  0.25516800  0.25016800  0.99677900  1
  Cr  Cr6  1  0.25140200  0.74693300  0.99337800  1
  Cr  Cr7  1  0.75143300  0.74625800  0.99333900  1
  O  O0  1  0.12160300  0.11421500  0.48957900  1
  O  O1  1  0.12244500  0.12378100  0.98305400  1
  O  O2  1  0.12960600  0.62233800  0.49017300  1
  O  O3  1  0.12319300  0.61473000  0.98308900  1
  O  O4  1  0.63065600  0.12416000  0.48907200  1
  O  O5  1  0.62807800  0.12831400  0.98734400  1
  O  O6  1  0.62334400  0.61302200  0.48929800  1
  O  O7  1  0.62570500  0.61753400  0.98376700  1
  O  O8  1  0.13648600  0.38012400  0.01165700  1
  O  O9  1  0.14508700  0.37453600  0.51134000  1
  O  O10  1  0.13231400  0.87147200  0.00252500  1
  O  O11  1  0.13311500  0.88388700  0.51224100  1
  O  O12  1  0.63954900  0.37289600  0.00755300  1
  O  O13  1  0.64036000  0.38336900  0.51159700  1
  O  O14  1  0.63130000  0.87415600  0.00231300  1
  O  O15  1  0.64238600  0.87202700  0.51160600  1
  O  O16  1  0.37164200  0.12533300  0.48962200  1
  O  O17  1  0.37345100  0.11985900  0.98325200  1
  O  O18  1  0.38163200  0.61212700  0.48922000  1
  O  O19  1  0.36820100  0.61610700  0.98338900  1
  O  O20  1  0.88138700  0.11549700  0.49003000  1
  O  O21  1  0.86962800  0.12685700  0.98656300  1
  O  O22  1  0.87386700  0.62637200  0.48937100  1
  O  O23  1  0.87054100  0.61286200  0.98395700  1
  O  O24  1  0.38496100  0.37861900  0.01167600  1
  O  O25  1  0.39699200  0.38774500  0.51187200  1
  O  O26  1  0.37925600  0.87552300  0.00292200  1
  O  O27  1  0.38137900  0.87300000  0.51140100  1
  O  O28  1  0.88078000  0.37516200  0.00766600  1
  O  O29  1  0.89568200  0.38759000  0.51150400  1
  O  O30  1  0.87798500  0.87355500  0.00240200  1
  O  O31  1  0.89147100  0.88904000  0.51147800  1
  O  O32  1  0.07490100  0.09645500  0.14165900  1
  O  O33  1  0.08143700  0.09821000  0.64013800  1
  O  O34  1  0.08145300  0.58585800  0.13982500  1
  O  O35  1  0.08140500  0.59751400  0.63865600  1
  O  O36  1  0.57631000  0.09658800  0.14280700  1
  O  O37  1  0.58213700  0.09752900  0.63888300  1
  O  O38  1  0.58364900  0.58594500  0.14002800  1
  O  O39  1  0.58169800  0.59795300  0.63917200  1
  O  O40  1  0.44343200  0.40280300  0.36077800  1
  O  O41  1  0.44179500  0.39824600  0.85754800  1
  O  O42  1  0.44719600  0.89726500  0.36420500  1
  O  O43  1  0.44166100  0.90038600  0.85600600  1
  O  O44  1  0.94406700  0.40468300  0.36090600  1
  O  O45  1  0.94022300  0.39766100  0.85653800  1
  O  O46  1  0.94602700  0.89793200  0.36385600  1
  O  O47  1  0.93993900  0.90090400  0.85627400  1
  O  O48  1  0.33320000  0.30292700  0.14113200  1
  O  O49  1  0.33191700  0.29126400  0.64114000  1
  O  O50  1  0.32646500  0.79621700  0.14375700  1
  O  O51  1  0.33128700  0.79069700  0.64002400  1
  O  O52  1  0.83218800  0.30308700  0.14019100  1
  O  O53  1  0.83265200  0.29348700  0.63829800  1
  O  O54  1  0.82613000  0.79621600  0.14297600  1
  O  O55  1  0.83191200  0.79108200  0.64020700  1
  O  O56  1  0.19719500  0.21617300  0.36201100  1
  O  O57  1  0.19139000  0.20962000  0.85678000  1
  O  O58  1  0.19052500  0.70739500  0.35972900  1
  O  O59  1  0.19016200  0.70666700  0.85513900  1
  O  O60  1  0.69838100  0.21744500  0.36500400  1
  O  O61  1  0.69040700  0.20837600  0.85680100  1
  O  O62  1  0.69297900  0.70727400  0.35890600  1
  O  O63  1  0.69058600  0.70599000  0.85507400  1
  O  O64  1  0.44961200  0.05979500  0.26369200  1
  O  O65  1  0.43276200  0.06021200  0.74885900  1
  O  O66  1  0.43309400  0.56387300  0.25231000  1
  O  O67  1  0.43232000  0.55925500  0.74922000  1
  O  O68  1  0.94887500  0.05895900  0.26350300  1
  O  O69  1  0.93245700  0.06052100  0.74921700  1
  O  O70  1  0.93243500  0.56332100  0.25143100  1
  O  O71  1  0.93277500  0.55958800  0.74965300  1
  O  O72  1  0.18328700  0.43808200  0.25251200  1
  O  O73  1  0.18242500  0.43932300  0.74942300  1
  O  O74  1  0.19919500  0.95476600  0.26358100  1
  O  O75  1  0.18243500  0.94012200  0.74946500  1
  O  O76  1  0.68330200  0.43734100  0.25222600  1
  O  O77  1  0.68283000  0.43883800  0.74886200  1
  O  O78  1  0.69893700  0.95542900  0.26362800  1
  O  O79  1  0.68201900  0.94047900  0.74938700  1
loop_
_geom_bond_atom_site_label_1
_geom_bond_atom_site_label_2
_geom_bond_distance
_geom_bond_site_symmetry_2
K0 O64 2.515362 1_555
K0 O48 2.533156 1_555
K0 O10 2.575076 1_545
K0 O26 2.590707 1_545
K0 O1 2.666170 1_554
K0 O32 2.703317 1_555
K0 O17 2.704917 1_554
K0 O36 2.822847 1_555
K1 O68 2.502295 1_555
K1 O52 2.552563 1_555
K1 O14 2.558481 1_545
K1 O30 2.592962 1_545
K1 O5 2.631645 1_554
K1 O21 2.681956 1_554
K1 O36 2.699611 1_555
K1 O32 2.809036 1_655
K2 O74 2.508087 1_555
K2 O34 2.540901 1_555
K2 O30 2.563143 1_455
K2 O10 2.584786 1_555
K2 O23 2.657317 1_454
K2 O3 2.699051 1_554
K2 O54 2.702008 1_455
K2 O50 2.816142 1_555
K3 O78 2.511434 1_555
K3 O38 2.545283 1_555
K3 O26 2.561368 1_555
K3 O14 2.595796 1_555
K3 O19 2.654830 1_554
K3 O7 2.690438 1_554
K3 O50 2.706092 1_555
K3 O54 2.814219 1_555
Na0 O65 2.335199 1_555
Na0 O49 2.367399 1_555
Na0 O11 2.456800 1_545
Na0 O0 2.483581 1_555
Na0 O27 2.544813 1_545
Na0 O16 2.555257 1_555
Na0 O33 2.634767 1_555
Na0 O37 2.902276 1_555
Na1 O66 2.397643 1_555
Na1 O8 2.436107 1_555
Na1 O50 2.440105 1_555
Na1 O24 2.479685 1_555
Na1 O3 2.528267 1_554
Na1 O19 2.551350 1_554
Na1 O34 2.651126 1_555
Na1 O38 2.903510 1_555
Na2 O67 2.337017 1_555
Na2 O51 2.366005 1_555
Na2 O9 2.456834 1_555
Na2 O2 2.480344 1_555
Na2 O25 2.541650 1_555
Na2 O18 2.559711 1_555
Na2 O35 2.617629 1_555
Na2 O39 2.900992 1_555
Na3 O69 2.318659 1_555
Na3 O53 2.403189 1_555
Na3 O31 2.493745 1_545
Na3 O15 2.500311 1_545
Na3 O4 2.512539 1_555
Na3 O20 2.560549 1_555
Na3 O37 2.626854 1_555
Na3 O33 2.877414 1_655
Na4 O70 2.402531 1_555
Na4 O54 2.425687 1_555
Na4 O12 2.483179 1_555
Na4 O7 2.505090 1_554
Na4 O28 2.515911 1_555
Na4 O23 2.522852 1_554
Na4 O38 2.629742 1_555
Na4 O34 2.883815 1_655
Na5 O71 2.342837 1_555
Na5 O55 2.362442 1_555
Na5 O13 2.421970 1_555
Na5 O6 2.469122 1_555
Na5 O29 2.550354 1_555
Na5 O22 2.592595 1_555
Na5 O39 2.607683 1_555
Na5 O35 2.907391 1_655
Na6 O56 2.304108 1_555
Na6 O72 2.309704 1_555
Na6 O2 2.443738 1_555
Na6 O9 2.463743 1_555
Na6 O18 2.519792 1_555
Na6 O25 2.599491 1_555
Na6 O44 2.612133 1_455
Na6 O40 2.906986 1_555
Na7 O73 2.361010 1_555
Na7 O57 2.361375 1_555
Na7 O3 2.384824 1_555
Na7 O19 2.432971 1_555
Na7 O8 2.493821 1_556
Na7 O24 2.550846 1_556
Na7 O45 2.675642 1_455
Na7 O41 2.889322 1_555
Na8 O74 2.271141 1_555
Na8 O58 2.390539 1_555
Na8 O0 2.421398 1_565
Na8 O11 2.475685 1_555
Na8 O16 2.533838 1_565
Na8 O27 2.556883 1_555
Na8 O46 2.616168 1_455
Na8 O42 2.923069 1_555
Na9 O75 2.353748 1_555
Na9 O59 2.397878 1_555
Na9 O10 2.433197 1_556
Na9 O1 2.448226 1_565
Na9 O26 2.467154 1_556
Na9 O17 2.495455 1_565
Na9 O47 2.665311 1_455
Na9 O43 2.905972 1_555
Na10 O76 2.307075 1_555
Na10 O60 2.312274 1_555
Na10 O6 2.397366 1_555
Na10 O13 2.448156 1_555
Na10 O22 2.559592 1_555
Na10 O29 2.595916 1_555
Na10 O40 2.618866 1_555
Na10 O44 2.914382 1_555
Na11 O77 2.357697 1_555
Na11 O7 2.384238 1_555
Na11 O61 2.393361 1_555
Na11 O23 2.415816 1_555
Na11 O12 2.468598 1_556
Na11 O28 2.521034 1_556
Na11 O41 2.661129 1_555
Na11 O45 2.881834 1_555
Na12 O78 2.273157 1_555
Na12 O62 2.362409 1_555
Na12 O4 2.462119 1_565
Na12 O15 2.477260 1_555
Na12 O31 2.528264 1_555
Na12 O20 2.549995 1_565
Na12 O42 2.601792 1_555
Na12 O46 2.907572 1_555
Na13 O79 2.359140 1_555
Na13 O63 2.389873 1_555
Na13 O14 2.415213 1_556
Na13 O30 2.455029 1_556
Na13 O5 2.493521 1_565
Na13 O21 2.533328 1_565
Na13 O43 2.651340 1_555
Na13 O47 2.878570 1_555
Na14 O72 2.395165 1_555
Na14 O32 2.436682 1_555
Na14 O8 2.453889 1_555
Na14 O28 2.470094 1_455
Na14 O21 2.497726 1_454
Na14 O1 2.530846 1_554
Na14 O52 2.668743 1_455
Na14 O48 2.875433 1_555
Na15 O73 2.334651 1_555
Na15 O33 2.360112 1_555
Na15 O29 2.480719 1_455
Na15 O20 2.486109 1_455
Na15 O9 2.543543 1_555
Na15 O0 2.548740 1_555
Na15 O53 2.614598 1_455
Na15 O49 2.880314 1_555
Na16 O75 2.339959 1_555
Na16 O35 2.383129 1_555
Na16 O22 2.472880 1_455
Na16 O31 2.487815 1_455
Na16 O11 2.503691 1_555
Na16 O2 2.556165 1_555
Na16 O55 2.634654 1_455
Na16 O51 2.888010 1_555
Na17 O76 2.401866 1_555
Na17 O24 2.411230 1_555
Na17 O36 2.438781 1_555
Na17 O17 2.499777 1_554
Na17 O12 2.520991 1_555
Na17 O5 2.526630 1_554
Na17 O48 2.612975 1_555
Na17 O52 2.917941 1_555
Na18 O77 2.329384 1_555
Na18 O37 2.379021 1_555
Na18 O25 2.445060 1_555
Na18 O16 2.484047 1_555
Na18 O13 2.572252 1_555
Na18 O4 2.578149 1_555
Na18 O49 2.622226 1_555
Na18 O53 2.921652 1_555
Na19 O79 2.336108 1_555
Na19 O39 2.362273 1_555
Na19 O27 2.451797 1_555
Na19 O18 2.508365 1_555
Na19 O15 2.508731 1_555
Na19 O6 2.578473 1_555
Na19 O51 2.635415 1_555
Na19 O55 2.892179 1_555
Na20 O64 2.269995 1_555
Na20 O40 2.364660 1_555
Na20 O16 2.432371 1_555
Na20 O25 2.436250 1_555
Na20 O4 2.554761 1_555
Na20 O56 2.570479 1_555
Na20 O13 2.597308 1_555
Na21 O41 2.359518 1_555
Na21 O65 2.369807 1_555
Na21 O17 2.371650 1_555
Na21 O24 2.474998 1_556
Na21 O5 2.475234 1_555
Na21 O12 2.522641 1_556
Na21 O57 2.639117 1_555
Na21 O61 2.901493 1_555
Na22 O66 2.306034 1_555
Na22 O42 2.308323 1_555
Na22 O18 2.462733 1_555
Na22 O27 2.473969 1_555
Na22 O6 2.551504 1_555
Na22 O15 2.554022 1_555
Na22 O58 2.661979 1_555
Na22 O62 2.903607 1_555
Na23 O67 2.351995 1_555
Na23 O43 2.415775 1_555
Na23 O26 2.427539 1_556
Na23 O19 2.430098 1_555
Na23 O14 2.459248 1_556
Na23 O7 2.480586 1_555
Na23 O59 2.666594 1_555
Na23 O63 2.897836 1_555
Na24 O68 2.267215 1_555
Na24 O44 2.414932 1_555
Na24 O20 2.440270 1_555
Na24 O29 2.455863 1_555
Na24 O0 2.524752 1_655
Na24 O9 2.562475 1_655
Na24 O60 2.602543 1_555
Na25 O69 2.358352 1_555
Na25 O45 2.362503 1_555
Na25 O1 2.401838 1_655
Na25 O21 2.414524 1_555
Na25 O28 2.460253 1_556
Na25 O8 2.527501 1_656
Na25 O61 2.695812 1_555
Na25 O57 2.869059 1_655
Na26 O46 2.310442 1_555
Na26 O70 2.317747 1_555
Na26 O22 2.414226 1_555
Na26 O31 2.506735 1_555
Na26 O2 2.537970 1_655
Na26 O11 2.560361 1_655
Na26 O62 2.634513 1_555
Na26 O58 2.868763 1_655
Na27 O71 2.350068 1_555
Na27 O30 2.414246 1_556
Na27 O47 2.416252 1_555
Na27 O23 2.445967 1_555
Na27 O10 2.451272 1_656
Na27 O3 2.481522 1_655
Na27 O63 2.657878 1_555
Na27 O59 2.897271 1_655
Cr0 O10 1.997429 1_556
Cr0 O30 2.005537 1_456
Cr0 O1 2.010133 1_565
Cr0 O47 2.043194 1_455
Cr0 O21 2.048797 1_465
Cr0 O32 2.165366 1_566
Cr1 O3 1.939586 1_555
Cr1 O8 1.943743 1_556
Cr1 O23 1.964132 1_455
Cr1 O28 2.021607 1_456
Cr1 O45 2.083652 1_455
Cr1 O34 2.088010 1_556
Cr2 O26 1.949807 1_556
Cr2 O17 1.963102 1_565
Cr2 O14 1.973666 1_556
Cr2 O43 2.032165 1_555
Cr2 O5 2.086465 1_565
Cr2 O36 2.198720 1_566
Cr3 O27 2.018795 1_555
Cr3 O42 2.026608 1_555
Cr3 O16 2.040610 1_565
Cr3 O37 2.049642 1_565
Cr3 O15 2.057663 1_555
Cr3 O4 2.065961 1_565
Cr4 O24 1.975337 1_556
Cr4 O19 1.977172 1_555
Cr4 O7 1.997948 1_555
Cr4 O12 2.048555 1_556
Cr4 O41 2.071442 1_555
Cr4 O38 2.092732 1_556
Cr5 O24 1.909215 1_556
Cr5 O1 1.922611 1_555
Cr5 O17 1.945208 1_555
Cr5 O8 1.947266 1_556
Cr5 O57 2.070865 1_555
Cr5 O48 2.120060 1_556
Cr6 O10 1.901239 1_556
Cr6 O26 1.929528 1_556
Cr6 O19 1.934841 1_555
Cr6 O3 1.956357 1_555
Cr6 O59 2.044989 1_555
Cr6 O50 2.214467 1_556
Cr7 O30 1.912569 1_556
Cr7 O7 1.914472 1_555
Cr7 O14 1.935648 1_556
Cr7 O23 1.972457 1_555
Cr7 O63 2.045540 1_555
Cr7 O54 2.202223 1_556
O0 V0 1.891529 1_555
O0 V3 2.007628 1_555
O2 V4 1.915201 1_555
O2 V1 2.038763 1_555
O4 V6 1.775919 1_555
O5 V5 1.861384 1_555
O6 V2 1.886033 1_555
O6 V7 2.003727 1_555
O9 V3 1.852750 1_555
O9 V1 2.082954 1_555
O11 V0 1.923939 1_565
O11 V4 1.956249 1_555
O12 V5 1.847775 1_554
O13 V6 1.907625 1_555
O13 V2 2.005374 1_555
O15 V7 1.838498 1_555
O16 V3 1.866196 1_555
O18 V2 1.807156 1_555
O18 V4 2.108981 1_555
O20 V0 1.857657 1_655
O20 V6 2.078116 1_555
O21 V5 1.871271 1_555
O22 V7 1.890002 1_555
O22 V1 2.009060 1_655
O25 V2 1.824378 1_555
O25 V3 2.109559 1_555
O27 V4 1.850303 1_555
O28 V5 1.884659 1_554
O29 V1 1.790712 1_655
O29 V6 2.183294 1_555
O31 V0 1.837767 1_665
O31 V7 2.079602 1_555
O32 V8 1.777173 1_555
O33 V9 1.790224 1_555
O33 V0 2.068611 1_555
O34 V10 1.758039 1_555
O35 V11 1.795005 1_555
O35 V1 2.042433 1_555
O36 V12 1.770465 1_555
O37 V13 1.788686 1_555
O38 V14 1.758687 1_555
O39 V15 1.792414 1_555
O39 V2 2.068874 1_555
O40 V16 1.809498 1_555
O40 V2 2.048354 1_555
O41 V17 1.762764 1_555
O42 V18 1.787375 1_555
O43 V19 1.760787 1_555
O44 V20 1.800738 1_555
O44 V1 2.063635 1_655
O45 V21 1.761414 1_555
O46 V22 1.790100 1_555
O46 V0 2.029235 1_665
O47 V23 1.756385 1_555
O48 V16 1.752670 1_555
O49 V17 1.783549 1_555
O49 V3 2.073797 1_555
O50 V18 1.767596 1_555
O51 V19 1.787227 1_555
O51 V4 2.072729 1_555
O52 V20 1.766317 1_555
O52 V5 2.100683 1_554
O53 V21 1.801084 1_555
O53 V6 2.047832 1_555
O54 V22 1.766332 1_555
O55 V23 1.784425 1_555
O55 V7 2.069498 1_555
O56 V8 1.777469 1_555
O56 V3 2.070413 1_555
O57 V9 1.763071 1_555
O58 V10 1.795417 1_555
O58 V4 2.073347 1_555
O59 V11 1.756890 1_555
O60 V12 1.797340 1_555
O60 V6 2.023931 1_555
O61 V13 1.771547 1_555
O61 V5 2.073825 1_555
O62 V14 1.792324 1_555
O62 V7 2.090081 1_555
O63 V15 1.757313 1_555
O64 V12 1.867250 1_555
O64 V18 1.871422 1_545
O65 V19 1.877133 1_545
O65 V13 1.885693 1_555
O66 V16 1.872228 1_555
O66 V14 1.890330 1_555
O67 V17 1.880612 1_555
O67 V15 1.883393 1_555
O68 V22 1.862892 1_545
O68 V8 1.872117 1_655
O69 V23 1.877475 1_545
O69 V9 1.887264 1_655
O70 V20 1.869638 1_555
O70 V10 1.888120 1_655
O71 V21 1.873809 1_555
O71 V11 1.887521 1_655
O72 V10 1.875553 1_555
O72 V16 1.885190 1_555
O73 V11 1.871137 1_555
O73 V17 1.892680 1_555
O74 V8 1.866010 1_565
O74 V18 1.869148 1_555
O75 V9 1.875531 1_565
O75 V19 1.886868 1_555
O76 V14 1.879277 1_555
O76 V20 1.881270 1_555
O77 V15 1.875195 1_555
O77 V21 1.886685 1_555
O78 V12 1.864755 1_565
O78 V22 1.868216 1_555
O79 V13 1.871488 1_565
O79 V23 1.892791 1_555
