# generated using pymatgen
data_FePO6
_symmetry_space_group_name_H-M   'P 1'
_cell_length_a   9.59962200
_cell_length_b   5.46313200
_cell_length_c   10.84067499
_cell_angle_alpha   61.69689170
_cell_angle_beta   90.00000000
_cell_angle_gamma   90.00000000
_symmetry_Int_Tables_number   1
_chemical_formula_structural   FePO6
_chemical_formula_sum   'Fe4 P4 O24'
_cell_volume   500.56174275
_cell_formula_units_Z   4
loop_
 _symmetry_equiv_pos_site_id
 _symmetry_equiv_pos_as_xyz
  1  'x, y, z'
loop_
 _atom_site_type_symbol
 _atom_site_label
 _atom_site_symmetry_multiplicity
 _atom_site_fract_x
 _atom_site_fract_y
 _atom_site_fract_z
 _atom_site_occupancy
  Fe  Fe0  1  0.19419100  0.19595500  0.84124400  1
  Fe  Fe1  1  0.30580900  0.19595500  0.34124400  1
  Fe  Fe2  1  0.80580900  0.80404500  0.15875600  1
  Fe  Fe3  1  0.69419100  0.80404500  0.65875600  1
  P  P0  1  0.84307600  0.15462200  0.80904700  1
  P  P1  1  0.65692400  0.15462200  0.30904700  1
  P  P2  1  0.15692400  0.84537800  0.19095300  1
  P  P3  1  0.34307600  0.84537800  0.69095300  1
  O  O0  1  0.01850100  0.78258600  0.62554500  1
  O  O1  1  0.48149900  0.78258600  0.12554500  1
  O  O2  1  0.98149900  0.21741400  0.37445500  1
  O  O3  1  0.51850100  0.21741400  0.87445500  1
  O  O4  1  0.04465400  0.66920200  0.55320700  1
  O  O5  1  0.45534600  0.66920200  0.05320700  1
  O  O6  1  0.95534600  0.33079800  0.44679300  1
  O  O7  1  0.54465400  0.33079800  0.94679300  1
  O  O8  1  0.27699700  0.55388500  0.74740000  1
  O  O9  1  0.22300300  0.55388500  0.24740000  1
  O  O10  1  0.72300300  0.44611500  0.25260000  1
  O  O11  1  0.77699700  0.44611500  0.75260000  1
  O  O12  1  0.00349300  0.17909000  0.80327400  1
  O  O13  1  0.49650700  0.17909000  0.30327400  1
  O  O14  1  0.99650700  0.82091000  0.19672600  1
  O  O15  1  0.50349300  0.82091000  0.69672600  1
  O  O16  1  0.29463400  0.97272700  0.78377500  1
  O  O17  1  0.20536600  0.97272700  0.28377500  1
  O  O18  1  0.70536600  0.02727300  0.21622500  1
  O  O19  1  0.79463400  0.02727300  0.71622500  1
  O  O20  1  0.20372200  0.03849900  0.03835000  1
  O  O21  1  0.29627800  0.03849900  0.53835000  1
  O  O22  1  0.79627800  0.96150100  0.96165000  1
  O  O23  1  0.70372200  0.96150100  0.46165000  1
loop_
_geom_bond_atom_site_label_1
_geom_bond_atom_site_label_2
_geom_bond_distance
_geom_bond_site_symmetry_2
Fe0 O16 1.877644 1_545
Fe0 O12 1.888143 1_555
Fe0 O20 1.889736 1_556
Fe0 O8 1.898446 1_555
Fe1 O17 1.877644 1_545
Fe1 O13 1.888143 1_555
Fe1 O21 1.889736 1_555
Fe1 O9 1.898446 1_555
Fe2 O18 1.877644 1_565
Fe2 O14 1.888143 1_555
Fe2 O22 1.889736 1_554
Fe2 O10 1.898446 1_555
Fe3 O19 1.877644 1_565
Fe3 O15 1.888143 1_555
Fe3 O23 1.889736 1_555
Fe3 O11 1.898446 1_555
O0 O4 1.233820 1_555
O1 O5 1.233820 1_555
O2 O6 1.233820 1_555
O3 O7 1.233820 1_555
O8 P3 1.545546 1_555
O9 P2 1.545546 1_555
O10 P1 1.545546 1_555
O11 P0 1.545546 1_555
O12 P0 1.544434 1_455
O13 P1 1.544434 1_555
O14 P2 1.544434 1_655
O15 P3 1.544434 1_555
O16 P3 1.541651 1_555
O17 P2 1.541651 1_555
O18 P1 1.541651 1_555
O19 P0 1.541651 1_555
O20 P2 1.548101 1_545
O21 P3 1.548101 1_545
O22 P0 1.548101 1_565
O23 P1 1.548101 1_565
