# generated using pymatgen
data_MnZnAsO5
_symmetry_space_group_name_H-M   'P 1'
_cell_length_a   6.20788300
_cell_length_b   8.24928400
_cell_length_c   8.39338100
_cell_angle_alpha   90.00000000
_cell_angle_beta   90.00000000
_cell_angle_gamma   90.00000000
_symmetry_Int_Tables_number   1
_chemical_formula_structural   MnZnAsO5
_chemical_formula_sum   'Mn4 Zn4 As4 O20'
_cell_volume   429.82999231
_cell_formula_units_Z   4
loop_
 _symmetry_equiv_pos_site_id
 _symmetry_equiv_pos_as_xyz
  1  'x, y, z'
loop_
 _atom_site_type_symbol
 _atom_site_label
 _atom_site_symmetry_multiplicity
 _atom_site_fract_x
 _atom_site_fract_y
 _atom_site_fract_z
 _atom_site_occupancy
  Mn  Mn0  1  0.25705000  0.75025800  0.99965700  1
  Mn  Mn1  1  0.24295000  0.24974200  0.49965700  1
  Mn  Mn2  1  0.74295000  0.25025800  0.50034300  1
  Mn  Mn3  1  0.75705000  0.74974200  0.00034300  1
  Zn  Zn0  1  0.00454000  0.75091700  0.69412600  1
  Zn  Zn1  1  0.49546000  0.24908300  0.19412600  1
  Zn  Zn2  1  0.99546000  0.25091700  0.80587400  1
  Zn  Zn3  1  0.50454000  0.74908300  0.30587400  1
  As  As0  1  0.49155000  0.10464900  0.83037300  1
  As  As1  1  0.00845000  0.89535100  0.33037300  1
  As  As2  1  0.50845000  0.60464900  0.66962700  1
  As  As3  1  0.99155000  0.39535100  0.16962700  1
  O  O0  1  0.50422200  0.91421900  0.90980400  1
  O  O1  1  0.99577800  0.08578100  0.40980400  1
  O  O2  1  0.49577800  0.41421900  0.59019600  1
  O  O3  1  0.00422200  0.58578100  0.09019600  1
  O  O4  1  0.47215500  0.25381000  0.97050200  1
  O  O5  1  0.02784500  0.74619000  0.47050200  1
  O  O6  1  0.52784500  0.75381000  0.52949800  1
  O  O7  1  0.97215500  0.24619000  0.02949800  1
  O  O8  1  0.72211300  0.13071400  0.71567500  1
  O  O9  1  0.77788700  0.86928600  0.21567500  1
  O  O10  1  0.27788700  0.63071400  0.78432500  1
  O  O11  1  0.22211300  0.36928600  0.28432500  1
  O  O12  1  0.26121700  0.12348400  0.71295700  1
  O  O13  1  0.23878300  0.87651600  0.21295700  1
  O  O14  1  0.73878300  0.62348400  0.78704300  1
  O  O15  1  0.76121700  0.37651600  0.28704300  1
  O  O16  1  0.00641600  0.85085400  0.90833300  1
  O  O17  1  0.49358400  0.14914600  0.40833300  1
  O  O18  1  0.99358400  0.35085400  0.59166700  1
  O  O19  1  0.50641600  0.64914600  0.09166700  1
loop_
_geom_bond_atom_site_label_1
_geom_bond_atom_site_label_2
_geom_bond_distance
_geom_bond_site_symmetry_2
Mn0 O19 1.920559 1_556
Mn0 O16 1.922768 1_555
Mn0 O10 2.062957 1_555
Mn0 O13 2.074335 1_556
Mn0 O0 2.180051 1_555
Mn0 O3 2.209493 1_556
Mn1 O18 1.920559 1_455
Mn1 O17 1.922768 1_555
Mn1 O11 2.062957 1_555
Mn1 O12 2.074335 1_555
Mn1 O1 2.180051 1_455
Mn1 O2 2.209493 1_555
Mn2 O17 1.920559 1_555
Mn2 O18 1.922768 1_555
Mn2 O8 2.062957 1_555
Mn2 O15 2.074335 1_555
Mn2 O2 2.180051 1_555
Mn2 O1 2.209493 1_555
Mn3 O16 1.920559 1_654
Mn3 O19 1.922768 1_555
Mn3 O9 2.062957 1_555
Mn3 O14 2.074335 1_554
Mn3 O3 2.180051 1_655
Mn3 O0 2.209493 1_554
As0 O4 1.706429 1_555
As0 O0 1.708342 1_545
As0 O8 1.738296 1_555
As0 O12 1.743543 1_555
As1 O5 1.706429 1_555
As1 O1 1.708342 1_465
As1 O9 1.738296 1_455
As1 O13 1.743543 1_555
As2 O6 1.706429 1_555
As2 O2 1.708342 1_555
As2 O10 1.738296 1_555
As2 O14 1.743543 1_555
As3 O7 1.706429 1_555
As3 O3 1.708342 1_655
As3 O11 1.738296 1_655
As3 O15 1.743543 1_555
O4 Zn1 1.882933 1_556
O5 Zn0 1.882933 1_555
O6 Zn3 1.882933 1_555
O7 Zn2 1.882933 1_554
O8 Zn2 2.106158 1_555
O9 Zn3 2.106158 1_555
O10 Zn0 2.106158 1_555
O11 Zn1 2.106158 1_555
O12 Zn2 2.105971 1_455
O13 Zn3 2.105971 1_555
O14 Zn0 2.105971 1_655
O15 Zn1 2.105971 1_555
O16 Zn0 1.977955 1_555
O17 Zn1 1.977955 1_555
O18 Zn2 1.977955 1_555
O19 Zn3 1.977955 1_555
