# generated using pymatgen
data_Ba10Y5(Fe5O12)3
_symmetry_space_group_name_H-M   'P 1'
_cell_length_a   8.86665300
_cell_length_b   8.93424485
_cell_length_c   12.55786254
_cell_angle_alpha   106.43775115
_cell_angle_beta   98.30495516
_cell_angle_gamma   89.23860720
_symmetry_Int_Tables_number   1
_chemical_formula_structural   Ba10Y5(Fe5O12)3
_chemical_formula_sum   'Ba10 Y5 Fe15 O36'
_cell_volume   943.73020642
_cell_formula_units_Z   1
loop_
 _symmetry_equiv_pos_site_id
 _symmetry_equiv_pos_as_xyz
  1  'x, y, z'
loop_
 _atom_site_type_symbol
 _atom_site_label
 _atom_site_symmetry_multiplicity
 _atom_site_fract_x
 _atom_site_fract_y
 _atom_site_fract_z
 _atom_site_occupancy
  Ba  Ba0  1  0.93334000  0.37965700  0.17492800  1
  Ba  Ba1  1  0.12816300  0.75967300  0.17379400  1
  Ba  Ba2  1  0.34039000  0.17214300  0.17903100  1
  Ba  Ba3  1  0.54002800  0.56887900  0.17902200  1
  Ba  Ba4  1  0.73510200  0.97486300  0.18100900  1
  Ba  Ba5  1  0.06666000  0.62034300  0.82507200  1
  Ba  Ba6  1  0.26489800  0.02513700  0.81899100  1
  Ba  Ba7  1  0.45997200  0.43112100  0.82097800  1
  Ba  Ba8  1  0.65961000  0.82785700  0.82096900  1
  Ba  Ba9  1  0.87183700  0.24032700  0.82620600  1
  Y  Y0  1  0.80038900  0.10157700  0.49968600  1
  Y  Y1  1  0.60071300  0.70174200  0.49991900  1
  Y  Y2  1  0.39928700  0.29825800  0.50008100  1
  Y  Y3  1  0.19961100  0.89842300  0.50031400  1
  Y  Y4  1  0.00000000  0.50000000  0.50000000  1
  Fe  Fe0  1  0.06910100  0.13570700  0.34067600  1
  Fe  Fe1  1  0.86997600  0.74156800  0.35024800  1
  Fe  Fe2  1  0.67048200  0.34380600  0.35033200  1
  Fe  Fe3  1  0.46711100  0.93600400  0.34038500  1
  Fe  Fe4  1  0.27011200  0.53493400  0.34161000  1
  Fe  Fe5  1  0.13002400  0.25843200  0.64975200  1
  Fe  Fe6  1  0.93089900  0.86429300  0.65932400  1
  Fe  Fe7  1  0.72988800  0.46506600  0.65839000  1
  Fe  Fe8  1  0.53288900  0.06399600  0.65961500  1
  Fe  Fe9  1  0.32951800  0.65619400  0.64966800  1
  Fe  Fe10  1  0.00000000  0.00000000  0.00000000  1
  Fe  Fe11  1  0.80408800  0.59957500  0.00237700  1
  Fe  Fe12  1  0.59784700  0.20153200  0.00139500  1
  Fe  Fe13  1  0.40215300  0.79846800  0.99860500  1
  Fe  Fe14  1  0.19591200  0.40042500  0.99762300  1
  O  O0  1  0.97981900  0.95637400  0.38150300  1
  O  O1  1  0.77828400  0.55520800  0.38668400  1
  O  O2  1  0.57117300  0.14597600  0.38153400  1
  O  O3  1  0.37485300  0.75244300  0.37977500  1
  O  O4  1  0.17612800  0.34947200  0.37718600  1
  O  O5  1  0.02018100  0.04362600  0.61849700  1
  O  O6  1  0.82387200  0.65052800  0.62281400  1
  O  O7  1  0.62514700  0.24755700  0.62022500  1
  O  O8  1  0.42882700  0.85402400  0.61846600  1
  O  O9  1  0.22171600  0.44479200  0.61331600  1
  O  O10  1  0.03591600  0.06969300  0.17869900  1
  O  O11  1  0.82004300  0.67632700  0.17063300  1
  O  O12  1  0.63815300  0.26553700  0.17001000  1
  O  O13  1  0.43271400  0.87252600  0.17896300  1
  O  O14  1  0.24547000  0.46689000  0.18222500  1
  O  O15  1  0.17995700  0.32367300  0.82936700  1
  O  O16  1  0.96408400  0.93030700  0.82130100  1
  O  O17  1  0.75453000  0.53311000  0.81777500  1
  O  O18  1  0.56728600  0.12747400  0.82103700  1
  O  O19  1  0.36184700  0.73446300  0.82999000  1
  O  O20  1  0.88179000  0.81404200  0.99784200  1
  O  O21  1  0.67989700  0.40519100  0.99536100  1
  O  O22  1  0.50000000  0.00000000  0.00000000  1
  O  O23  1  0.32010300  0.59480900  0.00463900  1
  O  O24  1  0.11821000  0.18595800  0.00215800  1
  O  O25  1  0.88412500  0.24992500  0.38386000  1
  O  O26  1  0.66851200  0.85691100  0.38221500  1
  O  O27  1  0.47202100  0.45548400  0.38399100  1
  O  O28  1  0.27565400  0.05233800  0.38082400  1
  O  O29  1  0.08085900  0.64804900  0.37674100  1
  O  O30  1  0.91914100  0.35195100  0.62325900  1
  O  O31  1  0.72434600  0.94766200  0.61917600  1
  O  O32  1  0.52797900  0.54451600  0.61600900  1
  O  O33  1  0.33148800  0.14308900  0.61778500  1
  O  O34  1  0.11587500  0.75007500  0.61614000  1
  O  O35  1  0.00000000  0.50000000  0.00000000  1
loop_
_geom_bond_atom_site_label_1
_geom_bond_atom_site_label_2
_geom_bond_distance
_geom_bond_site_symmetry_2
Ba0 O12 2.807544 1_555
Ba0 O11 2.834047 1_555
Ba0 O35 2.838940 1_655
Ba0 O14 2.866840 1_655
Ba0 O10 2.914322 1_655
Ba0 O21 3.000078 1_554
Ba0 O24 3.035794 1_655
Ba0 O29 3.093545 1_655
Ba0 O4 3.154495 1_655
Ba0 O1 3.171728 1_555
Ba0 O25 3.237764 1_555
Ba1 O35 2.815124 1_555
Ba1 O14 2.826316 1_555
Ba1 O11 2.832993 1_455
Ba1 O10 2.863973 1_565
Ba1 O13 2.880513 1_555
Ba1 O23 2.963982 1_555
Ba1 O20 3.012489 1_454
Ba1 O29 3.069869 1_555
Ba1 O3 3.152106 1_555
Ba1 O0 3.155552 1_455
Ba1 O28 3.250805 1_565
Ba2 O14 2.745087 1_555
Ba2 O24 2.777452 1_555
Ba2 O13 2.788605 1_545
Ba2 O12 2.806771 1_555
Ba2 O10 2.861166 1_555
Ba2 O22 2.885685 1_555
Ba2 O2 3.086948 1_555
Ba2 O4 3.094818 1_555
Ba2 O28 3.141394 1_555
Ba2 O27 3.149343 1_555
Ba3 O11 2.700564 1_555
Ba3 O23 2.773667 1_555
Ba3 O14 2.787012 1_555
Ba3 O21 2.804523 1_554
Ba3 O12 2.811901 1_555
Ba3 O13 2.863094 1_555
Ba3 O3 3.138945 1_555
Ba3 O1 3.140099 1_555
Ba3 O26 3.154825 1_555
Ba3 O27 3.155270 1_555
Ba4 O11 2.734301 1_555
Ba4 O12 2.758904 1_565
Ba4 O10 2.815847 1_665
Ba4 O20 2.826853 1_554
Ba4 O13 2.838527 1_555
Ba4 O22 2.910395 1_565
Ba4 O2 3.100086 1_565
Ba4 O0 3.118052 1_555
Ba4 O26 3.130156 1_555
Ba4 O25 3.137716 1_565
Ba5 O19 2.807544 1_555
Ba5 O15 2.834047 1_555
Ba5 O35 2.838940 1_556
Ba5 O17 2.866840 1_455
Ba5 O16 2.914322 1_455
Ba5 O23 3.000078 1_556
Ba5 O20 3.035794 1_455
Ba5 O30 3.093545 1_455
Ba5 O6 3.154495 1_455
Ba5 O9 3.171728 1_555
Ba5 O34 3.237764 1_555
Ba6 O15 2.734301 1_555
Ba6 O19 2.758904 1_545
Ba6 O16 2.815847 1_445
Ba6 O24 2.826853 1_556
Ba6 O18 2.838527 1_555
Ba6 O22 2.910395 1_556
Ba6 O8 3.100086 1_545
Ba6 O5 3.118052 1_555
Ba6 O33 3.130156 1_555
Ba6 O34 3.137716 1_545
Ba7 O15 2.700564 1_555
Ba7 O21 2.773667 1_555
Ba7 O17 2.787012 1_555
Ba7 O23 2.804523 1_556
Ba7 O19 2.811901 1_555
Ba7 O18 2.863094 1_555
Ba7 O7 3.138945 1_555
Ba7 O9 3.140099 1_555
Ba7 O33 3.154825 1_555
Ba7 O32 3.155270 1_555
Ba8 O17 2.745087 1_555
Ba8 O20 2.777452 1_555
Ba8 O18 2.788605 1_565
Ba8 O19 2.806771 1_555
Ba8 O16 2.861166 1_555
Ba8 O22 2.885685 1_566
Ba8 O8 3.086948 1_555
Ba8 O6 3.094818 1_555
Ba8 O31 3.141394 1_555
Ba8 O32 3.149343 1_555
Ba9 O35 2.815124 1_656
Ba9 O17 2.826316 1_555
Ba9 O15 2.832993 1_655
Ba9 O16 2.863973 1_545
Ba9 O18 2.880513 1_555
Ba9 O21 2.963982 1_555
Ba9 O24 3.012489 1_656
Ba9 O30 3.069869 1_555
Ba9 O7 3.152106 1_555
Ba9 O5 3.155552 1_655
Ba9 O31 3.250805 1_545
Fe0 O10 1.929945 1_555
Fe0 O25 1.981078 1_455
Fe0 O0 2.018033 1_445
Fe0 O28 2.018082 1_555
Fe0 O4 2.045756 1_555
Fe1 O1 2.053558 1_555
Fe1 O29 2.059398 1_655
Fe1 O0 2.073310 1_555
Fe1 O26 2.082812 1_555
Fe1 O11 2.144227 1_555
Fe2 O1 2.030578 1_555
Fe2 O27 2.049439 1_555
Fe2 O25 2.096755 1_555
Fe2 O2 2.141443 1_555
Fe2 O12 2.149552 1_555
Fe3 O13 1.923334 1_555
Fe3 O26 1.967164 1_555
Fe3 O2 1.999292 1_565
Fe3 O28 2.030609 1_565
Fe3 O3 2.053053 1_555
Fe4 O14 1.900530 1_555
Fe4 O27 1.974059 1_555
Fe4 O29 1.987014 1_555
Fe4 O4 2.050059 1_555
Fe4 O3 2.064171 1_555
Fe5 O9 2.053558 1_555
Fe5 O30 2.059398 1_455
Fe5 O5 2.073310 1_555
Fe5 O33 2.082812 1_555
Fe5 O15 2.144227 1_555
Fe6 O16 1.929945 1_555
Fe6 O34 1.981078 1_655
Fe6 O5 2.018033 1_665
Fe6 O31 2.018082 1_555
Fe6 O6 2.045756 1_555
Fe7 O17 1.900530 1_555
Fe7 O32 1.974059 1_555
Fe7 O30 1.987014 1_555
Fe7 O6 2.050059 1_555
Fe7 O7 2.064171 1_555
Fe8 O18 1.923334 1_555
Fe8 O33 1.967164 1_555
Fe8 O8 1.999292 1_545
Fe8 O31 2.030609 1_545
Fe8 O7 2.053053 1_555
Fe9 O9 2.030578 1_555
Fe9 O32 2.049439 1_555
Fe9 O34 2.096755 1_555
Fe9 O8 2.141443 1_555
Fe9 O19 2.149552 1_555
Fe10 O24 1.967773 1_555
Fe10 O20 1.967773 1_444
Fe10 O10 2.129091 1_555
Fe10 O16 2.129091 1_444
Fe11 O35 1.941306 1_655
Fe11 O11 2.012700 1_555
Fe11 O21 2.042682 1_554
Fe11 O20 2.063376 1_554
Fe11 O17 2.203037 1_554
Fe12 O21 1.993707 1_554
Fe12 O22 2.003547 1_555
Fe12 O12 2.009936 1_555
Fe12 O18 2.149507 1_554
Fe13 O23 1.993707 1_556
Fe13 O22 2.003547 1_566
Fe13 O19 2.009936 1_555
Fe13 O13 2.149507 1_556
Fe14 O35 1.941306 1_556
Fe14 O15 2.012700 1_555
Fe14 O23 2.042682 1_556
Fe14 O24 2.063376 1_556
Fe14 O14 2.203037 1_556
O0 Y3 2.421251 1_655
O0 Y0 2.440139 1_565
O1 Y4 2.386679 1_655
O1 Y1 2.398607 1_555
O2 Y2 2.417445 1_555
O2 Y0 2.435142 1_555
O3 Y3 2.432066 1_555
O3 Y1 2.445780 1_555
O4 Y2 2.449429 1_555
O4 Y4 2.468233 1_555
O5 Y0 2.421251 1_455
O5 Y3 2.440139 1_545
O6 Y1 2.449429 1_555
O6 Y4 2.468233 1_655
O7 Y0 2.432066 1_555
O7 Y2 2.445780 1_555
O8 Y1 2.417445 1_555
O8 Y3 2.435142 1_555
O9 Y4 2.386679 1_555
O9 Y2 2.398607 1_555
O25 Y0 2.419230 1_555
O25 Y4 2.440999 1_655
O26 Y1 2.430352 1_555
O26 Y0 2.462985 1_565
O27 Y2 2.443157 1_555
O27 Y1 2.456849 1_555
O28 Y2 2.449359 1_555
O28 Y3 2.466143 1_545
O29 Y3 2.479224 1_555
O29 Y4 2.482733 1_555
O30 Y0 2.479224 1_555
O30 Y4 2.482733 1_655
O31 Y1 2.449359 1_555
O31 Y0 2.466143 1_565
O32 Y1 2.443157 1_555
O32 Y2 2.456849 1_555
O33 Y2 2.430352 1_555
O33 Y3 2.462985 1_545
O34 Y3 2.419230 1_555
O34 Y4 2.440999 1_555
