# generated using pymatgen
data_Sr4CaMn2(GaO5)2
_symmetry_space_group_name_H-M   'P 1'
_cell_length_a   5.93459826
_cell_length_b   5.88412252
_cell_length_c   9.43700068
_cell_angle_alpha   70.29593282
_cell_angle_beta   70.15307792
_cell_angle_gamma   85.34519691
_symmetry_Int_Tables_number   1
_chemical_formula_structural   Sr4CaMn2(GaO5)2
_chemical_formula_sum   'Sr4 Ca1 Mn2 Ga2 O10'
_cell_volume   291.60938260
_cell_formula_units_Z   1
loop_
 _symmetry_equiv_pos_site_id
 _symmetry_equiv_pos_as_xyz
  1  'x, y, z'
loop_
 _atom_site_type_symbol
 _atom_site_label
 _atom_site_symmetry_multiplicity
 _atom_site_fract_x
 _atom_site_fract_y
 _atom_site_fract_z
 _atom_site_occupancy
  Sr  Sr0  1  0.14158300  0.64687700  0.81965200  1
  Sr  Sr1  1  0.93329800  0.39215700  0.21571000  1
  Sr  Sr2  1  0.53806100  0.03346900  0.81965700  1
  Sr  Sr3  1  0.35115600  0.89197600  0.21568800  1
  Ca  Ca0  1  0.92974800  0.42931200  0.64053600  1
  Mn  Mn0  1  0.51389400  0.46728700  0.02780300  1
  Mn  Mn1  1  0.95784800  0.00458600  0.02801400  1
  Ga  Ga0  1  0.61656300  0.72250400  0.48104800  1
  Ga  Ga1  1  0.40234600  0.29627800  0.48084100  1
  O  O0  1  0.24423600  0.24430000  0.01120200  1
  O  O1  1  0.23657000  0.73676900  0.02646800  1
  O  O2  1  0.79841700  0.29831100  0.90287900  1
  O  O3  1  0.73905900  0.73905600  0.02156300  1
  O  O4  1  0.62775900  0.71987700  0.67281000  1
  O  O5  1  0.38428600  0.29421500  0.29121800  1
  O  O6  1  0.19970500  0.10695000  0.67259500  1
  O  O7  1  0.82372100  0.91445500  0.29135100  1
  O  O8  1  0.30006800  0.63021100  0.49766000  1
  O  O9  1  0.70215700  0.37188700  0.49759200  1
loop_
_geom_bond_atom_site_label_1
_geom_bond_atom_site_label_2
_geom_bond_distance
_geom_bond_site_symmetry_2
Ca0 O2 2.198026 1_555
Ca0 O9 2.318784 1_555
Ca0 O8 2.319495 1_655
Ca0 O6 2.388525 1_655
Ca0 O4 2.389771 1_555
Mn0 O2 2.096617 1_554
Mn0 O3 2.139194 1_555
Mn0 O1 2.190939 1_555
Mn0 O5 2.220340 1_555
Mn0 O0 2.226376 1_555
Mn1 O2 2.096140 1_554
Mn1 O3 2.139583 1_545
Mn1 O1 2.189903 1_645
Mn1 O7 2.219740 1_545
Mn1 O0 2.226752 1_655
Ga0 O4 1.828150 1_555
Ga0 O7 1.832853 1_555
Ga0 O8 1.937938 1_555
Ga0 O9 2.050668 1_555
Ga1 O6 1.828186 1_555
Ga1 O5 1.832740 1_555
Ga1 O9 1.937927 1_555
Ga1 O8 2.050798 1_555
O0 Sr1 2.517971 1_455
O0 Sr3 2.518843 1_545
O0 Sr2 2.620653 1_554
O0 Sr0 2.622233 1_554
O1 Sr2 2.428275 1_564
O1 Sr0 2.428650 1_554
O1 Sr1 2.551128 1_455
O1 Sr3 2.551485 1_555
O2 Sr2 2.733628 1_555
O2 Sr0 2.734340 1_655
O3 Sr0 2.650893 1_654
O3 Sr2 2.652645 1_564
O3 Sr3 2.716046 1_555
O3 Sr1 2.717065 1_555
O4 Sr2 2.583135 1_565
O4 Sr0 2.741244 1_555
O5 Sr3 2.730722 1_545
O5 Sr1 2.961569 1_455
O5 Sr1 3.147525 1_555
O6 Sr0 2.581974 1_545
O6 Sr2 2.737116 1_555
O7 Sr1 2.731633 1_565
O7 Sr3 2.967127 1_655
O7 Sr3 3.142623 1_555
O8 Sr3 2.511830 1_555
O8 Sr0 2.893600 1_555
O9 Sr1 2.511376 1_555
O9 Sr2 2.893952 1_555
