# generated using pymatgen
data_SrMg6Ni
_symmetry_space_group_name_H-M   'P 1'
_cell_length_a   7.77578059
_cell_length_b   7.77578059
_cell_length_c   4.48524800
_cell_angle_alpha   90.00000000
_cell_angle_beta   90.00000000
_cell_angle_gamma   132.55626351
_symmetry_Int_Tables_number   1
_chemical_formula_structural   SrMg6Ni
_chemical_formula_sum   'Sr1 Mg6 Ni1'
_cell_volume   199.76259337
_cell_formula_units_Z   1
loop_
 _symmetry_equiv_pos_site_id
 _symmetry_equiv_pos_as_xyz
  1  'x, y, z'
loop_
 _atom_site_type_symbol
 _atom_site_label
 _atom_site_symmetry_multiplicity
 _atom_site_fract_x
 _atom_site_fract_y
 _atom_site_fract_z
 _atom_site_occupancy
  Sr  Sr0  1  0.28175700  0.71824300  0.50000000  1
  Mg  Mg0  1  0.20229600  0.30494400  0.00000000  1
  Mg  Mg1  1  0.69505600  0.79770400  0.00000000  1
  Mg  Mg2  1  0.69480800  0.30519200  0.00000000  1
  Mg  Mg3  1  0.32065100  0.16521300  0.50000000  1
  Mg  Mg4  1  0.83478700  0.67934900  0.50000000  1
  Mg  Mg5  1  0.86644300  0.13355700  0.50000000  1
  Ni  Ni0  1  0.10420100  0.89579900  0.00000000  1
loop_
_geom_bond_atom_site_label_1
_geom_bond_atom_site_label_2
_geom_bond_distance
_geom_bond_site_symmetry_2
Mg0 Ni0 2.724126 1_545
Mg0 Mg3 2.899891 1_555
Mg0 Mg3 2.899891 1_554
Mg0 Mg5 2.986279 1_454
Mg0 Mg5 2.986279 1_455
Mg0 Mg1 3.082879 1_555
Mg0 Mg1 3.173471 1_445
Mg0 Sr0 3.612931 1_555
Mg0 Sr0 3.612931 1_554
Mg1 Ni0 2.724126 1_655
Mg1 Mg4 2.899891 1_555
Mg1 Mg4 2.899891 1_554
Mg1 Mg5 2.986279 1_565
Mg1 Mg5 2.986279 1_564
Mg1 Sr0 3.612931 1_555
Mg1 Sr0 3.612931 1_554
Mg2 Mg4 3.224147 1_554
Mg2 Mg4 3.224147 1_555
Mg2 Mg3 3.224147 1_554
Mg2 Mg3 3.224147 1_555
Mg2 Mg5 3.316758 1_555
Mg2 Mg5 3.316758 1_554
Mg3 Ni0 2.735237 1_545
Mg3 Ni0 2.735237 1_546
Mg3 Mg4 3.039735 1_445
Mg3 Mg4 3.216615 1_555
Mg3 Sr0 3.278580 1_545
Mg3 Mg5 3.370228 1_455
Mg4 Ni0 2.735237 1_655
Mg4 Ni0 2.735237 1_656
Mg4 Sr0 3.278580 1_655
Mg4 Mg5 3.370228 1_565
Mg5 Sr0 3.352499 1_545
Mg5 Sr0 3.352499 1_655
Ni0 Sr0 3.379349 1_555
Ni0 Sr0 3.379349 1_554
