# generated using pymatgen
data_Tm2Te3
_symmetry_space_group_name_H-M   'P 1'
_cell_length_a   7.45905092
_cell_length_b   7.45905031
_cell_length_c   13.62132871
_cell_angle_alpha   100.56698450
_cell_angle_beta   100.56698628
_cell_angle_gamma   109.36226297
_symmetry_Int_Tables_number   1
_chemical_formula_structural   Tm2Te3
_chemical_formula_sum   'Tm8 Te12'
_cell_volume   678.06790131
_cell_formula_units_Z   4
loop_
 _symmetry_equiv_pos_site_id
 _symmetry_equiv_pos_as_xyz
  1  'x, y, z'
loop_
 _atom_site_type_symbol
 _atom_site_label
 _atom_site_symmetry_multiplicity
 _atom_site_fract_x
 _atom_site_fract_y
 _atom_site_fract_z
 _atom_site_occupancy
  Tm  Tm0  1  0.70758770  0.95778008  0.91578868  1
  Tm  Tm1  1  0.54221992  0.79241230  0.58421132  1
  Tm  Tm2  1  0.29243014  0.04222399  0.08420907  1
  Tm  Tm3  1  0.45777601  0.20756886  0.41579193  1
  Tm  Tm4  1  0.37454028  0.62447252  0.24870949  1
  Tm  Tm5  1  0.87552848  0.12545972  0.25129051  1
  Tm  Tm6  1  0.62547454  0.37551503  0.75130169  1
  Tm  Tm7  1  0.12448497  0.87452546  0.74869831  1
  Te  Te0  1  0.87510846  0.12529486  0.75025449  1
  Te  Te1  1  0.37470514  0.62489154  0.74974551  1
  Te  Te2  1  0.12484320  0.87466955  0.24971522  1
  Te  Te3  1  0.62533045  0.37515680  0.25028478  1
  Te  Te4  1  0.54341280  0.79476065  0.08458644  1
  Te  Te5  1  0.70523935  0.95658720  0.41541356  1
  Te  Te6  1  0.21098251  0.45908076  0.41497513  1
  Te  Te7  1  0.04091924  0.28901749  0.08502487  1
  Te  Te8  1  0.45655394  0.20522241  0.91540815  1
  Te  Te9  1  0.29477759  0.04344606  0.58459185  1
  Te  Te10  1  0.78903673  0.54095146  0.58502614  1
  Te  Te11  1  0.95904954  0.71096327  0.91497386  1
loop_
_geom_bond_atom_site_label_1
_geom_bond_atom_site_label_2
_geom_bond_distance
_geom_bond_site_symmetry_2
Te0 Tm0 3.039431 1_545
Te0 Tm1 3.039490 1_545
Te0 Tm6 3.042239 1_555
Te0 Tm7 3.044050 1_645
Te1 Tm1 3.039431 1_555
Te1 Tm0 3.039490 1_555
Te1 Tm7 3.042239 1_555
Te1 Tm6 3.044050 1_555
Te2 Tm2 3.039414 1_565
Te2 Tm3 3.039880 1_565
Te2 Tm4 3.042480 1_555
Te2 Tm5 3.043802 1_465
Te3 Tm3 3.039429 1_555
Te3 Tm2 3.039877 1_555
Te3 Tm5 3.042486 1_555
Te3 Tm4 3.043808 1_555
Te4 Tm2 3.033672 1_565
Te4 Tm5 3.034519 1_565
Te4 Tm4 3.035001 1_555
Te4 Tm0 3.055404 1_554
Te5 Tm3 3.033666 1_565
Te5 Tm4 3.034516 1_555
Te5 Tm5 3.035004 1_565
Te5 Tm1 3.055404 1_555
Te6 Tm4 3.029781 1_555
Te6 Tm3 3.032895 1_555
Te6 Tm5 3.035574 1_455
Te6 Tm1 3.055474 1_555
Te7 Tm5 3.029778 1_455
Te7 Tm2 3.032888 1_555
Te7 Tm4 3.035577 1_555
Te7 Tm0 3.055474 1_444
Te8 Tm0 3.033857 1_545
Te8 Tm7 3.034406 1_545
Te8 Tm6 3.034961 1_555
Te8 Tm2 3.055225 1_556
Te9 Tm1 3.033857 1_545
Te9 Tm6 3.034406 1_555
Te9 Tm7 3.034961 1_545
Te9 Tm3 3.055210 1_555
Te10 Tm6 3.030052 1_555
Te10 Tm1 3.032723 1_555
Te10 Tm7 3.035338 1_655
Te10 Tm3 3.055686 1_555
Te11 Tm7 3.030049 1_655
Te11 Tm0 3.032729 1_555
Te11 Tm6 3.035341 1_555
Te11 Tm2 3.055686 1_666
