# generated using pymatgen
data_Li4MnCo2O7
_symmetry_space_group_name_H-M   'P 1'
_cell_length_a   5.05232400
_cell_length_b   6.55243881
_cell_length_c   7.84203521
_cell_angle_alpha   86.15930829
_cell_angle_beta   77.93300401
_cell_angle_gamma   83.39389669
_symmetry_Int_Tables_number   1
_chemical_formula_structural   Li4MnCo2O7
_chemical_formula_sum   'Li8 Mn2 Co4 O14'
_cell_volume   251.94249899
_cell_formula_units_Z   2
loop_
 _symmetry_equiv_pos_site_id
 _symmetry_equiv_pos_as_xyz
  1  'x, y, z'
loop_
 _atom_site_type_symbol
 _atom_site_label
 _atom_site_symmetry_multiplicity
 _atom_site_fract_x
 _atom_site_fract_y
 _atom_site_fract_z
 _atom_site_occupancy
  Li  Li0  1  0.71243200  0.58024300  0.07014700  1
  Li  Li1  1  0.42641900  0.14049600  0.65357500  1
  Li  Li2  1  0.15157900  0.71940900  0.20861100  1
  Li  Li3  1  0.57358100  0.85950400  0.34642500  1
  Li  Li4  1  0.28756800  0.41975700  0.92985300  1
  Li  Li5  1  0.00000000  0.00000000  0.50000000  1
  Li  Li6  1  0.84842100  0.28059100  0.79138900  1
  Li  Li7  1  0.50000000  0.00000000  0.00000000  1
  Mn  Mn0  1  0.64241400  0.71523900  0.71757500  1
  Mn  Mn1  1  0.35758600  0.28476100  0.28242500  1
  Co  Co0  1  0.06812300  0.86400700  0.86604600  1
  Co  Co1  1  0.78612000  0.42738200  0.42591200  1
  Co  Co2  1  0.21388000  0.57261800  0.57408800  1
  Co  Co3  1  0.93187700  0.13599300  0.13395400  1
  O  O0  1  0.94611300  0.58289700  0.80965500  1
  O  O1  1  0.66310800  0.16520400  0.38799900  1
  O  O2  1  0.39423200  0.71710200  0.93856900  1
  O  O3  1  0.84499200  0.86049900  0.10521600  1
  O  O4  1  0.54064600  0.44424200  0.67286200  1
  O  O5  1  0.23988900  0.02521100  0.25310500  1
  O  O6  1  0.12137900  0.30134500  0.51858000  1
  O  O7  1  0.45935400  0.55575800  0.32713800  1
  O  O8  1  0.15500800  0.13950100  0.89478400  1
  O  O9  1  0.87862100  0.69865500  0.48142000  1
  O  O10  1  0.33689200  0.83479600  0.61200100  1
  O  O11  1  0.05388700  0.41710300  0.19034500  1
  O  O12  1  0.76011100  0.97478900  0.74689500  1
  O  O13  1  0.60576800  0.28289800  0.06143100  1
loop_
_geom_bond_atom_site_label_1
_geom_bond_atom_site_label_2
_geom_bond_distance
_geom_bond_site_symmetry_2
Li0 O3 2.079433 1_555
Li0 O13 2.089478 1_555
Li0 O0 2.135123 1_554
Li0 O7 2.156078 1_555
Li0 O2 2.165945 1_554
Li0 O11 2.264485 1_655
Li1 O8 2.091487 1_555
Li1 O12 2.131911 1_545
Li1 O4 2.158296 1_555
Li1 O10 2.163522 1_545
Li1 O1 2.179850 1_555
Li1 O6 2.183039 1_555
Li2 O3 2.001665 1_455
Li2 O11 2.116693 1_555
Li2 O7 2.125773 1_555
Li2 O5 2.168013 1_565
Li2 O2 2.214114 1_554
Li2 O9 2.295184 1_455
Li3 O3 2.091487 1_555
Li3 O5 2.131911 1_565
Li3 O7 2.158296 1_555
Li3 O1 2.163522 1_565
Li3 O10 2.179850 1_555
Li3 O9 2.183039 1_555
Li4 O8 2.079433 1_555
Li4 O2 2.089478 1_555
Li4 O11 2.135123 1_556
Li4 O4 2.156078 1_555
Li4 O13 2.165945 1_556
Li4 O0 2.264485 1_455
Li5 O12 2.065674 1_445
Li5 O5 2.065674 1_555
Li5 O6 2.156533 1_555
Li5 O9 2.156533 1_445
Li5 O10 2.216774 1_545
Li5 O1 2.216774 1_455
Li6 O8 2.001665 1_655
Li6 O0 2.116693 1_555
Li6 O4 2.125773 1_555
Li6 O12 2.168013 1_545
Li6 O13 2.214114 1_556
Li6 O6 2.295184 1_655
Li7 O13 2.099740 1_555
Li7 O2 2.099740 1_544
Li7 O5 2.144142 1_555
Li7 O12 2.144142 1_544
Li7 O3 2.165205 1_545
Li7 O8 2.165205 1_554
Mn0 O12 1.908150 1_555
Mn0 O2 1.914831 1_555
Mn0 O0 1.923787 1_555
Mn0 O10 1.962409 1_555
Mn0 O4 1.977183 1_555
Mn0 O9 1.984622 1_555
Mn1 O5 1.908150 1_555
Mn1 O13 1.914831 1_555
Mn1 O11 1.923787 1_555
Mn1 O1 1.962409 1_555
Mn1 O7 1.977183 1_555
Mn1 O6 1.984622 1_555
Co0 O8 1.944290 1_565
Co0 O3 1.976192 1_456
Co0 O2 1.979438 1_555
Co0 O12 2.019622 1_455
Co0 O0 2.110142 1_455
Co0 O10 2.170187 1_555
Co1 O1 1.953763 1_555
Co1 O9 1.986767 1_555
Co1 O7 2.039851 1_555
Co1 O6 2.047344 1_655
Co1 O11 2.048932 1_655
Co1 O4 2.072111 1_555
Co2 O10 1.953763 1_555
Co2 O6 1.986767 1_555
Co2 O4 2.039851 1_555
Co2 O9 2.047344 1_455
Co2 O0 2.048932 1_455
Co2 O7 2.072111 1_555
Co3 O3 1.944290 1_545
Co3 O8 1.976192 1_654
Co3 O13 1.979438 1_555
Co3 O5 2.019622 1_655
Co3 O11 2.110142 1_655
Co3 O1 2.170187 1_555
