# generated using pymatgen
data_PbCN2
_symmetry_space_group_name_H-M   'P 1'
_cell_length_a   3.86141608
_cell_length_b   5.54373710
_cell_length_c   12.01411331
_cell_angle_alpha   90.00000000
_cell_angle_beta   90.00000000
_cell_angle_gamma   90.00000000
_symmetry_Int_Tables_number   1
_chemical_formula_structural   PbCN2
_chemical_formula_sum   'Pb4 C4 N8'
_cell_volume   257.18222602
_cell_formula_units_Z   4
loop_
 _symmetry_equiv_pos_site_id
 _symmetry_equiv_pos_as_xyz
  1  'x, y, z'
loop_
 _atom_site_type_symbol
 _atom_site_label
 _atom_site_symmetry_multiplicity
 _atom_site_fract_x
 _atom_site_fract_y
 _atom_site_fract_z
 _atom_site_occupancy
  Pb  Pb0  1  0.25000000  0.38654034  0.63418703  1
  Pb  Pb1  1  0.75000000  0.61345966  0.36581297  1
  Pb  Pb2  1  0.25000000  0.88654034  0.86581297  1
  Pb  Pb3  1  0.75000000  0.11345966  0.13418703  1
  C  C0  1  0.25000000  0.11863247  0.40054484  1
  C  C1  1  0.75000000  0.88136753  0.59945516  1
  C  C2  1  0.25000000  0.61863247  0.09945516  1
  C  C3  1  0.75000000  0.38136753  0.90054484  1
  N  N0  1  0.75000000  0.17376675  0.93987265  1
  N  N1  1  0.25000000  0.82623325  0.06012735  1
  N  N2  1  0.75000000  0.67376675  0.56012735  1
  N  N3  1  0.25000000  0.32623325  0.43987265  1
  N  N4  1  0.75000000  0.58021774  0.85734314  1
  N  N5  1  0.25000000  0.41978226  0.14265686  1
  N  N6  1  0.75000000  0.08021774  0.64265686  1
  N  N7  1  0.25000000  0.91978226  0.35734314  1
loop_
_geom_bond_atom_site_label_1
_geom_bond_atom_site_label_2
_geom_bond_distance
_geom_bond_site_symmetry_2
C0 N7 1.218449 1_545
C0 N3 1.244098 1_555
C1 N6 1.218449 1_565
C1 N2 1.244098 1_555
C2 N5 1.218449 1_555
C2 N1 1.244098 1_555
C3 N4 1.218449 1_555
C3 N0 1.244098 1_555
N0 Pb3 2.358333 1_556
N0 Pb2 2.656078 1_645
N0 Pb2 2.656078 1_545
N1 Pb2 2.358333 1_554
N1 Pb3 2.656078 1_565
N1 Pb3 2.656078 1_465
N2 Pb1 2.358333 1_555
N2 Pb0 2.656078 1_555
N2 Pb0 2.656078 1_655
N3 Pb0 2.358333 1_555
N3 Pb1 2.656078 1_555
N3 Pb1 2.656078 1_455
N4 Pb2 2.573281 1_555
N4 Pb2 2.573281 1_655
N5 Pb3 2.573281 1_455
N5 Pb3 2.573281 1_555
N6 Pb0 2.573281 1_555
N6 Pb0 2.573281 1_655
N7 Pb1 2.573281 1_555
N7 Pb1 2.573281 1_455
