# generated using pymatgen
data_Hg3Pb
_symmetry_space_group_name_H-M   'P 1'
_cell_length_a   6.86967899
_cell_length_b   6.86967899
_cell_length_c   5.14779307
_cell_angle_alpha   90.00000000
_cell_angle_beta   90.00000000
_cell_angle_gamma   119.99999723
_symmetry_Int_Tables_number   1
_chemical_formula_structural   Hg3Pb
_chemical_formula_sum   'Hg6 Pb2'
_cell_volume   210.38976677
_cell_formula_units_Z   2
loop_
 _symmetry_equiv_pos_site_id
 _symmetry_equiv_pos_as_xyz
  1  'x, y, z'
loop_
 _atom_site_type_symbol
 _atom_site_label
 _atom_site_symmetry_multiplicity
 _atom_site_fract_x
 _atom_site_fract_y
 _atom_site_fract_z
 _atom_site_occupancy
  Hg  Hg0  1  0.16183906  0.32367812  0.25000000  1
  Hg  Hg1  1  0.67632188  0.83816094  0.25000000  1
  Hg  Hg2  1  0.16183906  0.83816094  0.25000000  1
  Hg  Hg3  1  0.83816094  0.67632188  0.75000000  1
  Hg  Hg4  1  0.32367812  0.16183906  0.75000000  1
  Hg  Hg5  1  0.83816094  0.16183906  0.75000000  1
  Pb  Pb0  1  0.33333300  0.66666700  0.75000000  1
  Pb  Pb1  1  0.66666700  0.33333300  0.25000000  1
loop_
_geom_bond_atom_site_label_1
_geom_bond_atom_site_label_2
_geom_bond_distance
_geom_bond_site_symmetry_2
Hg0 Hg4 3.214518 1_554
Hg0 Hg4 3.214518 1_555
Hg0 Hg5 3.214518 1_455
Hg0 Hg5 3.214518 1_454
Hg0 Pb0 3.284629 1_555
Hg0 Pb0 3.284629 1_554
Hg0 Hg2 3.335347 1_545
Hg0 Hg1 3.335347 1_445
Hg0 Pb1 3.435316 1_455
Hg0 Pb1 3.435323 1_555
Hg1 Hg3 3.214518 1_554
Hg1 Hg3 3.214518 1_555
Hg1 Hg5 3.214518 1_564
Hg1 Hg5 3.214518 1_565
Hg1 Pb0 3.284629 1_554
Hg1 Pb0 3.284629 1_555
Hg1 Hg2 3.335347 1_655
Hg1 Pb1 3.435316 1_565
Hg1 Pb1 3.435323 1_555
Hg2 Hg4 3.214518 1_565
Hg2 Hg4 3.214518 1_564
Hg2 Hg3 3.214518 1_455
Hg2 Hg3 3.214518 1_454
Hg2 Pb0 3.284625 1_554
Hg2 Pb0 3.284625 1_555
Hg2 Pb1 3.435320 1_565
Hg2 Pb1 3.435320 1_455
Hg3 Pb1 3.284629 1_555
Hg3 Pb1 3.284629 1_556
Hg3 Hg5 3.335347 1_565
Hg3 Hg4 3.335347 1_665
Hg3 Pb0 3.435316 1_655
Hg3 Pb0 3.435323 1_555
Hg4 Pb1 3.284629 1_556
Hg4 Pb1 3.284629 1_555
Hg4 Hg5 3.335347 1_455
Hg4 Pb0 3.435316 1_545
Hg4 Pb0 3.435323 1_555
Hg5 Pb1 3.284625 1_555
Hg5 Pb1 3.284625 1_556
Hg5 Pb0 3.435320 1_655
Hg5 Pb0 3.435320 1_545
