# generated using pymatgen
data_Li5Mn3O8
_symmetry_space_group_name_H-M   'P 1'
_cell_length_a   2.90421000
_cell_length_b   5.20436100
_cell_length_c   9.88568574
_cell_angle_alpha   79.01617598
_cell_angle_beta   90.00000000
_cell_angle_gamma   90.00000000
_symmetry_Int_Tables_number   1
_chemical_formula_structural   Li5Mn3O8
_chemical_formula_sum   'Li5 Mn3 O8'
_cell_volume   146.68058124
_cell_formula_units_Z   1
loop_
 _symmetry_equiv_pos_site_id
 _symmetry_equiv_pos_as_xyz
  1  'x, y, z'
loop_
 _atom_site_type_symbol
 _atom_site_label
 _atom_site_symmetry_multiplicity
 _atom_site_fract_x
 _atom_site_fract_y
 _atom_site_fract_z
 _atom_site_occupancy
  Li  Li0  1  0.00000000  0.22581100  0.27624200  1
  Li  Li1  1  0.50000000  0.26166700  0.73127100  1
  Li  Li2  1  0.00000000  0.77418900  0.72375800  1
  Li  Li3  1  0.50000000  0.73833300  0.26872900  1
  Li  Li4  1  0.50000000  0.00000000  0.50000000  1
  Mn  Mn0  1  0.00000000  0.00000000  0.00000000  1
  Mn  Mn1  1  0.00000000  0.50000000  0.50000000  1
  Mn  Mn2  1  0.50000000  0.50000000  0.00000000  1
  O  O0  1  0.00000000  0.40601900  0.88540300  1
  O  O1  1  0.50000000  0.38590800  0.38990700  1
  O  O2  1  0.00000000  0.84195300  0.38187800  1
  O  O3  1  0.50000000  0.87965200  0.89160500  1
  O  O4  1  0.00000000  0.15804700  0.61812200  1
  O  O5  1  0.50000000  0.12034800  0.10839500  1
  O  O6  1  0.00000000  0.59398100  0.11459700  1
  O  O7  1  0.50000000  0.61409200  0.61009300  1
loop_
_geom_bond_atom_site_label_1
_geom_bond_atom_site_label_2
_geom_bond_distance
_geom_bond_site_symmetry_2
Li0 O2 2.070387 1_545
Li0 O1 2.102904 1_555
Li0 O1 2.102904 1_455
Li0 O6 2.249033 1_555
Li0 O5 2.347366 1_455
Li0 O5 2.347366 1_555
Li1 O4 1.969887 1_555
Li1 O4 1.969887 1_655
Li1 O7 1.990443 1_555
Li1 O3 2.294375 1_545
Li1 O0 2.330422 1_555
Li1 O0 2.330422 1_655
Li2 O4 2.070387 1_565
Li2 O7 2.102904 1_455
Li2 O7 2.102904 1_555
Li2 O0 2.249033 1_555
Li2 O3 2.347366 1_555
Li2 O3 2.347366 1_455
Li3 O2 1.969887 1_555
Li3 O2 1.969887 1_655
Li3 O1 1.990443 1_555
Li3 O5 2.294375 1_565
Li3 O6 2.330422 1_555
Li3 O6 2.330422 1_655
Li4 O1 2.094097 1_555
Li4 O7 2.094097 1_545
Li4 O4 2.124792 1_555
Li4 O4 2.124792 1_655
Li4 O2 2.124792 1_645
Li4 O2 2.124792 1_545
Mn0 O5 1.976081 1_555
Mn0 O5 1.976081 1_455
Mn0 O3 1.976081 1_444
Mn0 O3 1.976081 1_544
Mn0 O6 2.199148 1_545
Mn0 O0 2.199148 1_554
Mn1 O4 1.933600 1_555
Mn1 O2 1.933600 1_555
Mn1 O7 1.972797 1_455
Mn1 O7 1.972797 1_555
Mn1 O1 1.972797 1_455
Mn1 O1 1.972797 1_555
Mn2 O6 1.960199 1_655
Mn2 O6 1.960199 1_555
Mn2 O0 1.960199 1_654
Mn2 O0 1.960199 1_554
Mn2 O5 2.060438 1_555
Mn2 O3 2.060438 1_554
