# generated using pymatgen
data_CsRbMg14
_symmetry_space_group_name_H-M   'P 1'
_cell_length_a   7.06755880
_cell_length_b   7.06755810
_cell_length_c   10.52584607
_cell_angle_alpha   90.00000000
_cell_angle_beta   90.00000000
_cell_angle_gamma   120.00000330
_symmetry_Int_Tables_number   1
_chemical_formula_structural   CsRbMg14
_chemical_formula_sum   'Cs1 Rb1 Mg14'
_cell_volume   455.33019295
_cell_formula_units_Z   1
loop_
 _symmetry_equiv_pos_site_id
 _symmetry_equiv_pos_as_xyz
  1  'x, y, z'
loop_
 _atom_site_type_symbol
 _atom_site_label
 _atom_site_symmetry_multiplicity
 _atom_site_fract_x
 _atom_site_fract_y
 _atom_site_fract_z
 _atom_site_occupancy
  Cs  Cs0  1  0.16666700  0.33333300  0.62500000  1
  Rb  Rb0  1  0.16666700  0.33333300  0.12500000  1
  Mg  Mg0  1  0.17385677  0.83692789  0.12500000  1
  Mg  Mg1  1  0.17473444  0.83736672  0.62500000  1
  Mg  Mg2  1  0.66307211  0.32614323  0.12500000  1
  Mg  Mg3  1  0.66263328  0.32526556  0.62500000  1
  Mg  Mg4  1  0.66307211  0.83692789  0.12500000  1
  Mg  Mg5  1  0.66263328  0.83736672  0.62500000  1
  Mg  Mg6  1  0.35500688  0.14499312  0.37179440  1
  Mg  Mg7  1  0.35500688  0.14499312  0.87820560  1
  Mg  Mg8  1  0.35500688  0.71001475  0.37179440  1
  Mg  Mg9  1  0.35500688  0.71001475  0.87820560  1
  Mg  Mg10  1  0.78998525  0.14499312  0.37179440  1
  Mg  Mg11  1  0.78998525  0.14499312  0.87820560  1
  Mg  Mg12  1  0.83333300  0.66666700  0.37488304  1
  Mg  Mg13  1  0.83333300  0.66666700  0.87511696  1
loop_
_geom_bond_atom_site_label_1
_geom_bond_atom_site_label_2
_geom_bond_distance
_geom_bond_site_symmetry_2
Cs0 Mg6 3.524034 1_555
Cs0 Mg7 3.524034 1_555
Cs0 Mg8 3.524042 1_555
Cs0 Mg9 3.524042 1_555
Cs0 Mg10 3.524042 1_455
Cs0 Mg11 3.524042 1_455
Cs0 Mg1 3.534124 1_555
Cs0 Mg5 3.534124 1_555
Cs0 Mg1 3.534124 1_545
Cs0 Mg5 3.534124 1_445
Cs0 Mg3 3.534124 1_455
Cs0 Mg3 3.534124 1_555
Mg0 Mg9 3.215620 1_554
Mg0 Mg8 3.215620 1_555
Mg0 Mg7 3.215627 1_564
Mg0 Mg6 3.215627 1_565
Mg0 Mg13 3.355915 1_454
Mg0 Mg12 3.355915 1_455
Mg0 Mg2 3.457558 1_565
Mg0 Mg4 3.457558 1_555
Mg0 Rb0 3.534053 1_565
Mg0 Rb0 3.534053 1_555
Mg1 Mg8 3.268561 1_555
Mg1 Mg9 3.268561 1_555
Mg1 Mg6 3.268567 1_565
Mg1 Mg7 3.268567 1_565
Mg1 Mg13 3.361182 1_455
Mg1 Mg12 3.361182 1_455
Mg1 Mg3 3.448253 1_565
Mg1 Mg5 3.448254 1_555
Mg2 Mg7 3.215627 1_554
Mg2 Mg6 3.215627 1_555
Mg2 Mg4 3.457558 1_545
Mg2 Rb0 3.534053 1_555
Mg2 Rb0 3.534053 1_655
Mg3 Mg6 3.268567 1_555
Mg3 Mg7 3.268567 1_555
Mg3 Mg5 3.448253 1_545
Mg4 Mg9 3.215628 1_554
Mg4 Mg8 3.215628 1_555
Mg4 Rb0 3.534053 1_555
Mg4 Rb0 3.534053 1_665
Mg5 Mg8 3.268568 1_555
Mg5 Mg9 3.268568 1_555
Mg6 Mg8 3.074235 1_545
Mg6 Rb0 3.473277 1_555
Mg7 Mg9 3.074235 1_545
Mg7 Rb0 3.473277 1_556
Mg8 Rb0 3.473285 1_555
Mg9 Rb0 3.473285 1_556
Mg10 Mg8 3.074235 1_545
Mg10 Mg6 3.074235 1_555
Mg10 Mg2 3.215620 1_555
Mg10 Mg4 3.215627 1_545
Mg10 Mg3 3.268561 1_555
Mg10 Mg5 3.268568 1_545
Mg10 Rb0 3.473285 1_655
Mg10 Mg12 3.543874 1_545
Mg10 Mg12 3.543874 1_555
Mg11 Mg9 3.074235 1_545
Mg11 Mg7 3.074235 1_555
Mg11 Mg2 3.215620 1_556
Mg11 Mg4 3.215627 1_546
Mg11 Mg3 3.268561 1_555
Mg11 Mg5 3.268568 1_545
Mg11 Rb0 3.473285 1_656
Mg11 Mg13 3.543874 1_545
Mg11 Mg13 3.543874 1_555
Mg12 Mg4 3.355907 1_555
Mg12 Mg2 3.355915 1_555
Mg12 Mg5 3.361174 1_555
Mg12 Mg3 3.361182 1_555
Mg12 Mg6 3.543874 1_555
Mg12 Mg6 3.543874 1_665
Mg12 Mg8 3.543875 1_555
Mg12 Mg8 3.543875 1_655
Mg13 Mg4 3.355907 1_556
Mg13 Mg2 3.355915 1_556
Mg13 Mg5 3.361174 1_555
Mg13 Mg3 3.361182 1_555
Mg13 Mg7 3.543874 1_555
Mg13 Mg7 3.543874 1_665
Mg13 Mg9 3.543875 1_555
Mg13 Mg9 3.543875 1_655
