# generated using pymatgen
data_Ba2CaCuBi2F14
_symmetry_space_group_name_H-M   'P 1'
_cell_length_a   7.73391491
_cell_length_b   7.73391491
_cell_length_c   16.36709965
_cell_angle_alpha   89.82597920
_cell_angle_beta   89.82597920
_cell_angle_gamma   42.05415279
_symmetry_Int_Tables_number   1
_chemical_formula_structural   Ba2CaCuBi2F14
_chemical_formula_sum   'Ba4 Ca2 Cu2 Bi4 F28'
_cell_volume   655.74432858
_cell_formula_units_Z   2
loop_
 _symmetry_equiv_pos_site_id
 _symmetry_equiv_pos_as_xyz
  1  'x, y, z'
loop_
 _atom_site_type_symbol
 _atom_site_label
 _atom_site_symmetry_multiplicity
 _atom_site_fract_x
 _atom_site_fract_y
 _atom_site_fract_z
 _atom_site_occupancy
  Ba  Ba0  1  0.28427400  0.08764500  0.12583000  1
  Ba  Ba1  1  0.08764500  0.28427400  0.62583000  1
  Ba  Ba2  1  0.71572600  0.91235500  0.87417000  1
  Ba  Ba3  1  0.91235500  0.71572600  0.37417000  1
  Ca  Ca0  1  0.57105500  0.42894500  0.25000000  1
  Ca  Ca1  1  0.42894500  0.57105500  0.75000000  1
  Cu  Cu0  1  0.50000000  0.50000000  0.50000000  1
  Cu  Cu1  1  0.50000000  0.50000000  0.00000000  1
  Bi  Bi0  1  0.17253500  0.05005800  0.37918900  1
  Bi  Bi1  1  0.82746500  0.94994200  0.62081100  1
  Bi  Bi2  1  0.05005800  0.17253500  0.87918900  1
  Bi  Bi3  1  0.94994200  0.82746500  0.12081100  1
  F  F0  1  0.09244800  0.86269900  0.83200300  1
  F  F1  1  0.41619500  0.88418600  0.96107900  1
  F  F2  1  0.58380500  0.11581400  0.03892100  1
  F  F3  1  0.88148500  0.60033000  0.10501000  1
  F  F4  1  0.41361800  0.62903800  0.11219800  1
  F  F5  1  0.37096200  0.58638200  0.38780200  1
  F  F6  1  0.88418600  0.41619500  0.46107900  1
  F  F7  1  0.13730100  0.90755200  0.66799700  1
  F  F8  1  0.97302500  0.36314300  0.28713900  1
  F  F9  1  0.11851500  0.39967000  0.89499000  1
  F  F10  1  0.43300000  0.81046600  0.26530000  1
  F  F11  1  0.39967000  0.11851500  0.39499000  1
  F  F12  1  0.81046600  0.43300000  0.76530000  1
  F  F13  1  0.56700000  0.18953400  0.73470000  1
  F  F14  1  0.62903800  0.41361800  0.61219800  1
  F  F15  1  0.02697500  0.63685700  0.71286100  1
  F  F16  1  0.71584300  0.13866400  0.48697700  1
  F  F17  1  0.90755200  0.13730100  0.16799700  1
  F  F18  1  0.28415700  0.86133600  0.51302300  1
  F  F19  1  0.13866400  0.71584300  0.98697700  1
  F  F20  1  0.11581400  0.58380500  0.53892100  1
  F  F21  1  0.18953400  0.56700000  0.23470000  1
  F  F22  1  0.36314300  0.97302500  0.78713900  1
  F  F23  1  0.86133600  0.28415700  0.01302300  1
  F  F24  1  0.58638200  0.37096200  0.88780200  1
  F  F25  1  0.86269900  0.09244800  0.33200300  1
  F  F26  1  0.63685700  0.02697500  0.21286100  1
  F  F27  1  0.60033000  0.88148500  0.60501000  1
loop_
_geom_bond_atom_site_label_1
_geom_bond_atom_site_label_2
_geom_bond_distance
_geom_bond_site_symmetry_2
Ba0 F3 2.682828 1_455
Ba0 F17 2.727689 1_455
Ba0 F10 2.730157 1_545
Ba0 F26 2.793631 1_555
Ba0 F2 2.857406 1_555
Ba0 F4 2.892230 1_545
Ba0 F1 2.900520 1_544
Ba0 F23 3.009182 1_455
Ba0 F8 3.111869 1_455
Ba0 F3 3.130683 1_545
Ba1 F27 2.682828 1_545
Ba1 F7 2.727689 1_545
Ba1 F12 2.730157 1_455
Ba1 F15 2.793631 1_555
Ba1 F20 2.857406 1_555
Ba1 F14 2.892230 1_455
Ba1 F6 2.900520 1_455
Ba1 F18 3.009182 1_545
Ba1 F22 3.111869 1_545
Ba1 F27 3.130683 1_455
Ba2 F9 2.682828 1_655
Ba2 F0 2.727689 1_655
Ba2 F13 2.730157 1_565
Ba2 F22 2.793631 1_555
Ba2 F1 2.857406 1_555
Ba2 F24 2.892230 1_565
Ba2 F2 2.900520 1_566
Ba2 F19 3.009182 1_655
Ba2 F15 3.111869 1_655
Ba2 F9 3.130683 1_565
Ba3 F11 2.682828 1_565
Ba3 F25 2.727689 1_565
Ba3 F21 2.730157 1_655
Ba3 F8 2.793631 1_555
Ba3 F6 2.857406 1_555
Ba3 F5 2.892230 1_655
Ba3 F20 2.900520 1_655
Ba3 F16 3.009182 1_565
Ba3 F26 3.111869 1_565
Ba3 F11 3.130683 1_655
Ca0 F25 2.223004 1_555
Ca0 F17 2.223004 1_555
Ca0 F10 2.287673 1_555
Ca0 F21 2.287673 1_555
Ca0 F4 2.482251 1_555
Ca0 F5 2.482251 1_555
Ca0 F8 2.820156 1_555
Ca0 F26 2.820156 1_555
Ca1 F0 2.223004 1_555
Ca1 F7 2.223004 1_555
Ca1 F13 2.287673 1_555
Ca1 F12 2.287673 1_555
Ca1 F24 2.482251 1_555
Ca1 F14 2.482251 1_555
Ca1 F15 2.820156 1_555
Ca1 F22 2.820156 1_555
Cu0 F18 1.927531 1_555
Cu0 F16 1.927531 1_555
Cu0 F14 1.956542 1_555
Cu0 F5 1.956542 1_555
Cu0 F20 2.604888 1_555
Cu0 F6 2.604888 1_555
Cu1 F19 1.927531 1_554
Cu1 F23 1.927531 1_555
Cu1 F4 1.956542 1_555
Cu1 F24 1.956542 1_554
Cu1 F1 2.604888 1_554
Cu1 F2 2.604888 1_555
Bi0 F11 2.194927 1_555
Bi0 F8 2.226514 1_455
Bi0 F25 2.299783 1_455
Bi0 F6 2.327062 1_455
Bi0 F10 2.328323 1_545
Bi0 F18 2.407212 1_545
Bi0 F5 2.657145 1_545
Bi1 F27 2.194927 1_555
Bi1 F15 2.226514 1_655
Bi1 F7 2.299783 1_655
Bi1 F20 2.327062 1_655
Bi1 F13 2.328323 1_565
Bi1 F16 2.407212 1_565
Bi1 F14 2.657145 1_565
Bi2 F9 2.194927 1_555
Bi2 F22 2.226514 1_545
Bi2 F0 2.299783 1_545
Bi2 F1 2.327062 1_545
Bi2 F12 2.328323 1_455
Bi2 F23 2.407212 1_456
Bi2 F24 2.657145 1_455
Bi3 F3 2.194927 1_555
Bi3 F26 2.226514 1_565
Bi3 F17 2.299783 1_565
Bi3 F2 2.327062 1_565
Bi3 F21 2.328323 1_655
Bi3 F19 2.407212 1_654
Bi3 F4 2.657145 1_655
