# generated using pymatgen
data_Al2P2NO11
_symmetry_space_group_name_H-M   'P 1'
_cell_length_a   9.68307800
_cell_length_b   9.61369600
_cell_length_c   11.41802484
_cell_angle_alpha   59.45833085
_cell_angle_beta   90.00000000
_cell_angle_gamma   90.00000000
_symmetry_Int_Tables_number   1
_chemical_formula_structural   Al2P2NO11
_chemical_formula_sum   'Al8 P8 N4 O44'
_cell_volume   915.43810216
_cell_formula_units_Z   4
loop_
 _symmetry_equiv_pos_site_id
 _symmetry_equiv_pos_as_xyz
  1  'x, y, z'
loop_
 _atom_site_type_symbol
 _atom_site_label
 _atom_site_symmetry_multiplicity
 _atom_site_fract_x
 _atom_site_fract_y
 _atom_site_fract_z
 _atom_site_occupancy
  Al  Al0  1  0.78783600  0.26531100  0.91053300  1
  Al  Al1  1  0.71216400  0.26531100  0.41053300  1
  Al  Al2  1  0.21216400  0.73468900  0.08946700  1
  Al  Al3  1  0.28783600  0.73468900  0.58946700  1
  Al  Al4  1  0.98721200  0.02134400  0.86797400  1
  Al  Al5  1  0.51278800  0.02134400  0.36797400  1
  Al  Al6  1  0.01278800  0.97865600  0.13202600  1
  Al  Al7  1  0.48721200  0.97865600  0.63202600  1
  P  P0  1  0.21088400  0.85382200  0.78513200  1
  P  P1  1  0.28911600  0.85382200  0.28513200  1
  P  P2  1  0.78911600  0.14617800  0.21486800  1
  P  P3  1  0.71088400  0.14617800  0.71486800  1
  P  P4  1  0.04785300  0.39212600  0.74511600  1
  P  P5  1  0.45214700  0.39212600  0.24511600  1
  P  P6  1  0.95214700  0.60787400  0.25488400  1
  P  P7  1  0.54785300  0.60787400  0.75488400  1
  N  N0  1  0.25140800  0.36146700  0.98242500  1
  N  N1  1  0.24859200  0.36146700  0.48242500  1
  N  N2  1  0.74859200  0.63853300  0.01757500  1
  N  N3  1  0.75140800  0.63853300  0.51757500  1
  O  O0  1  0.05811800  0.23420400  0.74831800  1
  O  O1  1  0.44188200  0.23420400  0.24831800  1
  O  O2  1  0.94188200  0.76579600  0.25168200  1
  O  O3  1  0.55811800  0.76579600  0.75168200  1
  O  O4  1  0.92075700  0.42434100  0.80500200  1
  O  O5  1  0.57924300  0.42434100  0.30500200  1
  O  O6  1  0.07924300  0.57565900  0.19499800  1
  O  O7  1  0.42075700  0.57565900  0.69499800  1
  O  O8  1  0.07078700  0.93067500  0.77955100  1
  O  O9  1  0.42921300  0.93067500  0.27955100  1
  O  O10  1  0.92921300  0.06932500  0.22044900  1
  O  O11  1  0.57078700  0.06932500  0.72044900  1
  O  O12  1  0.90512000  0.09334700  0.97762300  1
  O  O13  1  0.59488000  0.09334700  0.47762300  1
  O  O14  1  0.09488000  0.90665300  0.02237700  1
  O  O15  1  0.40512000  0.90665300  0.52237700  1
  O  O16  1  0.51902200  0.12472300  0.00280800  1
  O  O17  1  0.98097800  0.12472300  0.50280800  1
  O  O18  1  0.48097800  0.87527700  0.99719200  1
  O  O19  1  0.01902200  0.87527700  0.49719200  1
  O  O20  1  0.15919500  0.29980600  0.96084700  1
  O  O21  1  0.34080500  0.29980600  0.46084700  1
  O  O22  1  0.84080500  0.70019400  0.03915300  1
  O  O23  1  0.65919400  0.70019400  0.53915300  1
  O  O24  1  0.14392600  0.52336300  0.65957700  1
  O  O25  1  0.35607400  0.52336300  0.15957700  1
  O  O26  1  0.85607400  0.47663700  0.34042300  1
  O  O27  1  0.64392600  0.47663700  0.84042300  1
  O  O28  1  0.19802400  0.74672100  0.71991800  1
  O  O29  1  0.30197600  0.74672100  0.21991800  1
  O  O30  1  0.80197600  0.25327900  0.28008200  1
  O  O31  1  0.69802400  0.25327900  0.78008200  1
  O  O32  1  0.25314800  0.73971000  0.93624300  1
  O  O33  1  0.24685200  0.73971000  0.43624300  1
  O  O34  1  0.74685200  0.26029000  0.06375700  1
  O  O35  1  0.75314800  0.26029000  0.56375700  1
  O  O36  1  0.32250200  0.98297500  0.70871800  1
  O  O37  1  0.17749800  0.98297500  0.20871800  1
  O  O38  1  0.67749800  0.01702500  0.29128200  1
  O  O39  1  0.82250200  0.01702500  0.79128200  1
  O  O40  1  0.07608300  0.11801100  0.43420600  1
  O  O41  1  0.42391700  0.11801100  0.93420600  1
  O  O42  1  0.92391700  0.88198900  0.56579400  1
  O  O43  1  0.57608300  0.88198900  0.06579400  1
loop_
_geom_bond_atom_site_label_1
_geom_bond_atom_site_label_2
_geom_bond_distance
_geom_bond_site_symmetry_2
Al0 O34 1.770536 1_556
Al0 O31 1.778589 1_555
Al0 O12 1.822790 1_555
Al0 O4 1.890407 1_555
Al0 O27 2.248830 1_555
Al1 O35 1.770536 1_555
Al1 O30 1.778589 1_555
Al1 O13 1.822790 1_555
Al1 O5 1.890407 1_555
Al1 O26 2.248830 1_555
Al2 O32 1.770536 1_554
Al2 O29 1.778589 1_555
Al2 O14 1.822790 1_555
Al2 O6 1.890407 1_555
Al2 O25 2.248830 1_555
Al3 O33 1.770536 1_555
Al3 O28 1.778589 1_555
Al3 O15 1.822790 1_555
Al3 O7 1.890407 1_555
Al3 O24 2.248830 1_555
Al4 O8 1.824403 1_645
Al4 O39 1.830077 1_555
Al4 O14 1.853414 1_646
Al4 O12 1.886601 1_555
Al4 O0 1.919416 1_655
Al5 O9 1.824403 1_545
Al5 O38 1.830077 1_555
Al5 O15 1.853414 1_545
Al5 O13 1.886601 1_555
Al5 O1 1.919416 1_555
Al6 O10 1.824403 1_465
Al6 O37 1.830077 1_555
Al6 O12 1.853414 1_464
Al6 O14 1.886601 1_555
Al6 O2 1.919416 1_455
Al7 O11 1.824403 1_565
Al7 O36 1.830077 1_555
Al7 O13 1.853414 1_565
Al7 O15 1.886601 1_555
Al7 O3 1.919416 1_555
N0 O20 1.165255 1_555
N1 O21 1.165255 1_555
N2 O22 1.165255 1_555
N3 O23 1.165262 1_555
O0 P4 1.503256 1_555
O1 P5 1.503256 1_555
O2 P6 1.503256 1_555
O3 P7 1.503256 1_555
O4 P4 1.514356 1_655
O5 P5 1.514356 1_555
O6 P6 1.514356 1_455
O7 P7 1.514356 1_555
O8 P0 1.530483 1_555
O9 P1 1.530483 1_555
O10 P2 1.530483 1_555
O11 P3 1.530483 1_555
O16 O41 1.231732 1_554
O17 O40 1.231732 1_655
O18 O43 1.231732 1_556
O19 O42 1.231732 1_455
O24 P4 1.469278 1_555
O25 P5 1.469278 1_555
O26 P6 1.469278 1_555
O27 P7 1.469278 1_555
O28 P0 1.552196 1_555
O29 P1 1.552196 1_555
O30 P2 1.552196 1_555
O31 P3 1.552196 1_555
O32 P0 1.556989 1_555
O33 P1 1.556989 1_555
O34 P2 1.556989 1_555
O35 P3 1.556989 1_555
O36 P0 1.539494 1_555
O37 P1 1.539494 1_555
O38 P2 1.539494 1_555
O39 P3 1.539494 1_555
