# generated using pymatgen
data_SrBe(HO)4
_symmetry_space_group_name_H-M   'P 1'
_cell_length_a   11.08530980
_cell_length_b   11.08530980
_cell_length_c   11.08530980
_cell_angle_alpha   126.30096135
_cell_angle_beta   126.30096135
_cell_angle_gamma   79.39405130
_symmetry_Int_Tables_number   1
_chemical_formula_structural   SrBe(HO)4
_chemical_formula_sum   'Sr8 Be8 H32 O32'
_cell_volume   855.21613688
_cell_formula_units_Z   8
loop_
 _symmetry_equiv_pos_site_id
 _symmetry_equiv_pos_as_xyz
  1  'x, y, z'
loop_
 _atom_site_type_symbol
 _atom_site_label
 _atom_site_symmetry_multiplicity
 _atom_site_fract_x
 _atom_site_fract_y
 _atom_site_fract_z
 _atom_site_occupancy
  Sr  Sr0  1  0.25000000  0.75000000  0.50000000  1
  Sr  Sr1  1  0.75000000  0.25000000  0.50000000  1
  Sr  Sr2  1  0.00000000  0.00000000  0.00000000  1
  Sr  Sr3  1  0.50000000  0.50000000  0.00000000  1
  Sr  Sr4  1  0.75000000  0.75000000  0.00000000  1
  Sr  Sr5  1  0.25000000  0.25000000  0.00000000  1
  Sr  Sr6  1  0.00000000  0.50000000  0.50000000  1
  Sr  Sr7  1  0.50000000  0.00000000  0.50000000  1
  Be  Be0  1  0.12500000  0.84383000  0.21883000  1
  Be  Be1  1  0.62500000  0.40617000  0.28117000  1
  Be  Be2  1  0.09383000  0.87500000  0.71883000  1
  Be  Be3  1  0.59383000  0.87500000  0.21883000  1
  Be  Be4  1  0.65617000  0.37500000  0.78117000  1
  Be  Be5  1  0.15617000  0.37500000  0.28117000  1
  Be  Be6  1  0.12500000  0.34383000  0.71883000  1
  Be  Be7  1  0.62500000  0.90617000  0.78117000  1
  H  H0  1  0.46868700  0.06689800  0.81495700  1
  H  H1  1  0.96868700  0.15373000  0.40178900  1
  H  H2  1  0.31689800  0.21868700  0.31495700  1
  H  H3  1  0.81689800  0.50194100  0.09821100  1
  H  H4  1  0.28131300  0.18310200  0.68504300  1
  H  H5  1  0.78131300  0.09627000  0.09821100  1
  H  H6  1  0.43310200  0.03131300  0.18504300  1
  H  H7  1  0.93310200  0.74805900  0.40178900  1
  H  H8  1  0.75194100  0.56689800  0.59821100  1
  H  H9  1  0.25194100  0.65373000  0.18504300  1
  H  H10  1  0.40373000  0.71868700  0.90178900  1
  H  H11  1  0.90373000  0.00194100  0.68504300  1
  H  H12  1  0.99805900  0.68310200  0.90178900  1
  H  H13  1  0.49805900  0.59627000  0.31495700  1
  H  H14  1  0.34627000  0.53131300  0.59821100  1
  H  H15  1  0.84627000  0.24805900  0.81495700  1
  H  H16  1  0.06316500  0.95972100  0.41388300  1
  H  H17  1  0.56316500  0.14928200  0.10344400  1
  H  H18  1  0.20972100  0.81316500  0.91388300  1
  H  H19  1  0.70972100  0.79583800  0.39655600  1
  H  H20  1  0.68683500  0.29027900  0.08611700  1
  H  H21  1  0.18683500  0.10071800  0.39655600  1
  H  H22  1  0.54027900  0.43683500  0.58611700  1
  H  H23  1  0.04027900  0.45416200  0.10344400  1
  H  H24  1  0.04583800  0.45972100  0.89655600  1
  H  H25  1  0.54583800  0.64928200  0.58611700  1
  H  H26  1  0.39928200  0.31316500  0.60344400  1
  H  H27  1  0.89928200  0.29583800  0.08611700  1
  H  H28  1  0.70416200  0.79027900  0.60344400  1
  H  H29  1  0.20416200  0.60071800  0.91388300  1
  H  H30  1  0.35071800  0.93683500  0.89655600  1
  H  H31  1  0.85071800  0.95416200  0.41388300  1
  O  O0  1  0.48926300  0.99567900  0.72551300  1
  O  O1  1  0.98926300  0.26375000  0.49358400  1
  O  O2  1  0.24567900  0.23926300  0.22551300  1
  O  O3  1  0.74567900  0.52016600  0.00641600  1
  O  O4  1  0.26073700  0.25432100  0.77448700  1
  O  O5  1  0.76073700  0.98625000  0.00641600  1
  O  O6  1  0.50432100  0.01073700  0.27448700  1
  O  O7  1  0.00432100  0.72983400  0.49358400  1
  O  O8  1  0.77016600  0.49567900  0.50641600  1
  O  O9  1  0.27016600  0.76375000  0.27448700  1
  O  O10  1  0.51375000  0.73926300  0.99358400  1
  O  O11  1  0.01375000  0.02016600  0.77448700  1
  O  O12  1  0.97983400  0.75432100  0.99358400  1
  O  O13  1  0.47983400  0.48625000  0.22551300  1
  O  O14  1  0.23625000  0.51073700  0.50641600  1
  O  O15  1  0.73625000  0.22983400  0.72551300  1
  O  O16  1  0.04835600  0.85417000  0.31349200  1
  O  O17  1  0.54835600  0.23486400  0.19418600  1
  O  O18  1  0.10417000  0.79835600  0.81349200  1
  O  O19  1  0.60417000  0.79067800  0.30581400  1
  O  O20  1  0.70164400  0.39583000  0.18650800  1
  O  O21  1  0.20164400  0.01513600  0.30581400  1
  O  O22  1  0.64583000  0.45164400  0.68650800  1
  O  O23  1  0.14583000  0.45932200  0.19418600  1
  O  O24  1  0.04067800  0.35417000  0.80581400  1
  O  O25  1  0.54067800  0.73486400  0.68650800  1
  O  O26  1  0.48486400  0.29835600  0.69418600  1
  O  O27  1  0.98486400  0.29067800  0.18650800  1
  O  O28  1  0.70932200  0.89583000  0.69418600  1
  O  O29  1  0.20932200  0.51513600  0.81349200  1
  O  O30  1  0.26513600  0.95164400  0.80581400  1
  O  O31  1  0.76513600  0.95932200  0.31349200  1
loop_
_geom_bond_atom_site_label_1
_geom_bond_atom_site_label_2
_geom_bond_distance
_geom_bond_site_symmetry_2
Be0 O9 1.644787 1_555
Be0 O12 1.644787 1_454
Be0 O16 1.647281 1_555
Be0 O21 1.647281 1_565
Be1 O8 1.644787 1_555
Be1 O13 1.644787 1_555
Be1 O17 1.647281 1_555
Be1 O20 1.647281 1_555
Be2 O11 1.644787 1_565
Be2 O7 1.644787 1_555
Be2 O30 1.647281 1_555
Be2 O18 1.647281 1_555
Be3 O6 1.644787 1_565
Be3 O10 1.644787 1_554
Be3 O19 1.647281 1_555
Be3 O31 1.647281 1_555
Be4 O3 1.644787 1_556
Be4 O15 1.644787 1_555
Be4 O26 1.647281 1_555
Be4 O22 1.647281 1_555
Be5 O2 1.644787 1_555
Be5 O14 1.644787 1_555
Be5 O23 1.647281 1_555
Be5 O27 1.647281 1_455
Be6 O1 1.644787 1_455
Be6 O4 1.644787 1_555
Be6 O29 1.647281 1_555
Be6 O24 1.647281 1_555
Be7 O5 1.644787 1_556
Be7 O0 1.644787 1_555
Be7 O25 1.647281 1_555
Be7 O28 1.647281 1_555
H0 O0 0.965943 1_545
H1 O1 0.965943 1_555
H2 O2 0.965943 1_555
H3 O3 0.965943 1_555
H4 O4 0.965943 1_555
H5 O5 0.965943 1_545
H6 O6 0.965943 1_555
H7 O7 0.965943 1_655
H8 O8 0.965943 1_555
H9 O9 0.965943 1_555
H10 O10 0.965943 1_555
H11 O11 0.965943 1_655
H12 O12 0.965943 1_555
H13 O13 0.965943 1_555
H14 O14 0.965943 1_555
H15 O15 0.965943 1_555
H16 O16 0.973179 1_555
H17 O17 0.973179 1_555
H18 O18 0.973179 1_555
H19 O19 0.973179 1_555
H20 O20 0.973179 1_555
H21 O21 0.973179 1_555
H22 O22 0.973179 1_555
H23 O23 0.973179 1_555
H24 O24 0.973179 1_555
H25 O25 0.973179 1_555
H26 O26 0.973179 1_555
H27 O27 0.973179 1_555
H28 O28 0.973179 1_555
H29 O29 0.973179 1_555
H30 O30 0.973179 1_555
H31 O31 0.973179 1_555
O0 Sr7 2.600395 1_565
O0 Sr0 2.729107 1_555
O1 Sr6 2.600395 1_655
O1 Sr1 2.729107 1_555
O2 Sr5 2.600395 1_555
O2 Sr2 2.729107 1_555
O3 Sr4 2.600395 1_555
O3 Sr3 2.729107 1_555
O4 Sr5 2.600395 1_556
O4 Sr3 2.729107 1_556
O5 Sr4 2.600395 1_555
O5 Sr2 2.729107 1_665
O6 Sr7 2.600395 1_555
O6 Sr1 2.729107 1_555
O7 Sr6 2.600395 1_555
O7 Sr0 2.729107 1_555
O8 Sr6 2.600395 1_655
O8 Sr1 2.729107 1_555
O9 Sr7 2.600395 1_565
O9 Sr0 2.729107 1_555
O10 Sr4 2.600395 1_556
O10 Sr3 2.729107 1_556
O11 Sr5 2.600395 1_556
O11 Sr2 2.729107 1_556
O12 Sr4 2.600395 1_556
O12 Sr2 2.729107 1_666
O13 Sr5 2.600395 1_555
O13 Sr3 2.729107 1_555
O14 Sr6 2.600395 1_555
O14 Sr0 2.729107 1_555
O15 Sr7 2.600395 1_555
O15 Sr1 2.729107 1_555
O16 Sr0 2.647488 1_555
O16 Sr4 2.719212 1_455
O17 Sr1 2.647488 1_555
O17 Sr5 2.719212 1_555
O18 Sr2 2.647488 1_566
O18 Sr6 2.719212 1_555
O19 Sr3 2.647488 1_555
O19 Sr7 2.719212 1_565
O20 Sr3 2.647488 1_555
O20 Sr6 2.719212 1_655
O21 Sr2 2.647488 1_555
O21 Sr7 2.719212 1_555
O22 Sr1 2.647488 1_555
O22 Sr4 2.719212 1_556
O23 Sr0 2.647488 1_555
O23 Sr5 2.719212 1_555
O24 Sr1 2.647488 1_455
O24 Sr5 2.719212 1_556
O25 Sr0 2.647488 1_555
O25 Sr4 2.719212 1_556
O26 Sr3 2.647488 1_556
O26 Sr7 2.719212 1_555
O27 Sr2 2.647488 1_655
O27 Sr6 2.719212 1_655
O28 Sr2 2.647488 1_666
O28 Sr7 2.719212 1_565
O29 Sr3 2.647488 1_556
O29 Sr6 2.719212 1_555
O30 Sr0 2.647488 1_555
O30 Sr5 2.719212 1_566
O31 Sr1 2.647488 1_565
O31 Sr4 2.719212 1_555
