# generated using pymatgen
data_YSb(PbO3)2
_symmetry_space_group_name_H-M   'P 1'
_cell_length_a   5.96689793
_cell_length_b   5.96689793
_cell_length_c   10.31160209
_cell_angle_alpha   73.72054611
_cell_angle_beta   73.72054611
_cell_angle_gamma   59.66777896
_symmetry_Int_Tables_number   1
_chemical_formula_structural   YSb(PbO3)2
_chemical_formula_sum   'Y2 Sb2 Pb4 O12'
_cell_volume   299.87569848
_cell_formula_units_Z   2
loop_
 _symmetry_equiv_pos_site_id
 _symmetry_equiv_pos_as_xyz
  1  'x, y, z'
loop_
 _atom_site_type_symbol
 _atom_site_label
 _atom_site_symmetry_multiplicity
 _atom_site_fract_x
 _atom_site_fract_y
 _atom_site_fract_z
 _atom_site_occupancy
  Y  Y0  1  0.25249100  0.74750900  0.25000000  1
  Y  Y1  1  0.74750900  0.25249100  0.75000000  1
  Sb  Sb0  1  0.00000000  0.50000000  0.00000000  1
  Sb  Sb1  1  0.50000000  0.00000000  0.50000000  1
  Pb  Pb0  1  0.65380500  0.08119600  0.12730000  1
  Pb  Pb1  1  0.91880400  0.34619500  0.37270000  1
  Pb  Pb2  1  0.34619500  0.91880400  0.87270000  1
  Pb  Pb3  1  0.08119600  0.65380500  0.62730000  1
  O  O0  1  0.10555300  0.69057700  0.08706500  1
  O  O1  1  0.30942300  0.89444700  0.41293500  1
  O  O2  1  0.89444700  0.30942300  0.91293500  1
  O  O3  1  0.69057700  0.10555300  0.58706500  1
  O  O4  1  0.88968600  0.81637400  0.85043400  1
  O  O5  1  0.18362600  0.11031400  0.64956600  1
  O  O6  1  0.11031400  0.18362600  0.14956600  1
  O  O7  1  0.81637400  0.88968600  0.35043400  1
  O  O8  1  0.67065600  0.64079700  0.61575600  1
  O  O9  1  0.35920300  0.32934400  0.88424400  1
  O  O10  1  0.32934400  0.35920300  0.38424400  1
  O  O11  1  0.64079700  0.67065600  0.11575600  1
loop_
_geom_bond_atom_site_label_1
_geom_bond_atom_site_label_2
_geom_bond_distance
_geom_bond_site_symmetry_2
O0 Sb0 2.026962 1_555
O0 Y0 2.270156 1_555
O0 Pb0 2.537725 1_465
O0 Pb2 2.703748 1_554
O1 Sb1 2.026962 1_565
O1 Y0 2.270156 1_555
O1 Pb1 2.537725 1_465
O1 Pb3 2.703748 1_555
O2 Sb0 2.026962 1_656
O2 Y1 2.270156 1_555
O2 Pb2 2.537725 1_645
O2 Pb0 2.703748 1_556
O3 Sb1 2.026962 1_555
O3 Y1 2.270156 1_555
O3 Pb3 2.537725 1_645
O3 Pb1 2.703748 1_555
O4 Sb0 2.014285 1_656
O4 Y1 2.305622 1_565
O4 Pb3 2.489663 1_655
O5 Sb1 2.014285 1_555
O5 Y1 2.305622 1_455
O5 Pb2 2.489663 1_545
O6 Sb0 2.014285 1_555
O6 Y0 2.305622 1_545
O6 Pb1 2.489663 1_455
O7 Sb1 2.014285 1_565
O7 Y0 2.305622 1_655
O7 Pb0 2.489663 1_565
O8 Sb1 2.024408 1_565
O8 Y1 2.231470 1_555
O8 Pb3 2.526200 1_655
O9 Sb0 2.024408 1_556
O9 Y1 2.231470 1_555
O9 Pb2 2.526200 1_545
O10 Sb1 2.024408 1_555
O10 Y0 2.231470 1_555
O10 Pb1 2.526200 1_455
O11 Sb0 2.024408 1_655
O11 Y0 2.231470 1_555
O11 Pb0 2.526200 1_565
