# generated using pymatgen
data_CaMgPO4F
_symmetry_space_group_name_H-M   'P 1'
_cell_length_a   5.50007279
_cell_length_b   5.50007279
_cell_length_c   7.05434980
_cell_angle_alpha   76.79441762
_cell_angle_beta   76.79441762
_cell_angle_gamma   106.16784512
_symmetry_Int_Tables_number   1
_chemical_formula_structural   CaMgPO4F
_chemical_formula_sum   'Ca2 Mg2 P2 O8 F2'
_cell_volume   189.55687825
_cell_formula_units_Z   2
loop_
 _symmetry_equiv_pos_site_id
 _symmetry_equiv_pos_as_xyz
  1  'x, y, z'
loop_
 _atom_site_type_symbol
 _atom_site_label
 _atom_site_symmetry_multiplicity
 _atom_site_fract_x
 _atom_site_fract_y
 _atom_site_fract_z
 _atom_site_occupancy
  Ca  Ca0  1  0.66276300  0.33723700  0.75000000  1
  Ca  Ca1  1  0.33723700  0.66276300  0.25000000  1
  Mg  Mg0  1  0.00000000  0.00000000  0.50000000  1
  Mg  Mg1  1  0.00000000  0.00000000  0.00000000  1
  P  P0  1  0.32085800  0.67914200  0.75000000  1
  P  P1  1  0.67914200  0.32085800  0.25000000  1
  O  O0  1  0.59782800  0.74132200  0.59346200  1
  O  O1  1  0.40217200  0.25867800  0.40653800  1
  O  O2  1  0.25867800  0.40217200  0.90653800  1
  O  O3  1  0.74132200  0.59782800  0.09346200  1
  O  O4  1  0.32720100  0.88848100  0.86756300  1
  O  O5  1  0.67279900  0.11151900  0.13243700  1
  O  O6  1  0.11151900  0.67279900  0.63243700  1
  O  O7  1  0.88848100  0.32720100  0.36756300  1
  F  F0  1  0.91655600  0.08344400  0.75000000  1
  F  F1  1  0.08344400  0.91655600  0.25000000  1
loop_
_geom_bond_atom_site_label_1
_geom_bond_atom_site_label_2
_geom_bond_distance
_geom_bond_site_symmetry_2
Ca0 F0 2.232057 1_555
Ca0 O0 2.405698 1_555
Ca0 O2 2.405698 1_555
Ca0 O4 2.452469 1_545
Ca0 O6 2.452469 1_655
Ca0 O5 2.720035 1_556
Ca0 O7 2.720035 1_555
Ca1 F1 2.232057 1_555
Ca1 O1 2.405698 1_555
Ca1 O3 2.405698 1_555
Ca1 O5 2.452469 1_565
Ca1 O7 2.452469 1_455
Ca1 O4 2.720035 1_554
Ca1 O6 2.720035 1_555
Mg0 O0 2.122313 1_445
Mg0 O1 2.122313 1_555
Mg0 O6 2.143846 1_545
Mg0 O7 2.143846 1_455
Mg1 O3 2.122313 1_445
Mg1 O2 2.122313 1_554
Mg1 O5 2.143846 1_455
Mg1 O4 2.143846 1_544
O0 P0 1.557474 1_555
O1 P1 1.557474 1_555
O2 P0 1.557474 1_555
O3 P1 1.557474 1_555
O4 P0 1.562628 1_555
O5 P1 1.562628 1_555
O6 P0 1.562628 1_555
O7 P1 1.562628 1_555
F0 Mg0 1.910186 1_655
F0 Mg1 1.910186 1_656
F1 Mg0 1.910186 1_565
F1 Mg1 1.910186 1_565
