# generated using pymatgen
data_CuMo2O7
_symmetry_space_group_name_H-M   'P 1'
_cell_length_a   9.24916600
_cell_length_b   11.63828864
_cell_length_c   10.62940214
_cell_angle_alpha   92.99377829
_cell_angle_beta   90.00000000
_cell_angle_gamma   90.00000000
_symmetry_Int_Tables_number   1
_chemical_formula_structural   CuMo2O7
_chemical_formula_sum   'Cu6 Mo12 O42'
_cell_volume   1142.63470621
_cell_formula_units_Z   6
loop_
 _symmetry_equiv_pos_site_id
 _symmetry_equiv_pos_as_xyz
  1  'x, y, z'
loop_
 _atom_site_type_symbol
 _atom_site_label
 _atom_site_symmetry_multiplicity
 _atom_site_fract_x
 _atom_site_fract_y
 _atom_site_fract_z
 _atom_site_occupancy
  Cu  Cu0  1  0.93281200  0.80566800  0.41172000  1
  Cu  Cu1  1  0.06718800  0.19433200  0.58828000  1
  Cu  Cu2  1  0.43151400  0.50000000  0.25000000  1
  Cu  Cu3  1  0.93281200  0.19433200  0.08828000  1
  Cu  Cu4  1  0.56848600  0.50000000  0.75000000  1
  Cu  Cu5  1  0.06718800  0.80566800  0.91172000  1
  Mo  Mo0  1  0.20703300  0.15921800  0.29169200  1
  Mo  Mo1  1  0.75221200  0.16783200  0.38008400  1
  Mo  Mo2  1  0.24778800  0.16783200  0.88008400  1
  Mo  Mo3  1  0.79296700  0.15921800  0.79169200  1
  Mo  Mo4  1  0.29410400  0.46912000  0.96013800  1
  Mo  Mo5  1  0.75221200  0.83216800  0.11991600  1
  Mo  Mo6  1  0.70589600  0.46912000  0.46013800  1
  Mo  Mo7  1  0.24778800  0.83216800  0.61991600  1
  Mo  Mo8  1  0.29410400  0.53088000  0.53986200  1
  Mo  Mo9  1  0.70589600  0.53088000  0.03986200  1
  Mo  Mo10  1  0.79296700  0.84078200  0.70830800  1
  Mo  Mo11  1  0.20703300  0.84078200  0.20830800  1
  O  O0  1  0.79004400  0.19423000  0.95850700  1
  O  O1  1  0.78975700  0.83413100  0.28561600  1
  O  O2  1  0.83001900  0.00000000  0.75000000  1
  O  O3  1  0.87257500  0.50327700  0.10222500  1
  O  O4  1  0.35929800  0.94518900  0.59016700  1
  O  O5  1  0.92854300  0.24129100  0.71465600  1
  O  O6  1  0.33685400  0.30948100  0.93666000  1
  O  O7  1  0.12742500  0.50327700  0.60222500  1
  O  O8  1  0.71247600  0.48573300  0.87552700  1
  O  O9  1  0.35929800  0.05481100  0.90983300  1
  O  O10  1  0.71247600  0.51426700  0.62447300  1
  O  O11  1  0.42937800  0.54736500  0.87573700  1
  O  O12  1  0.91749300  0.84805900  0.03268200  1
  O  O13  1  0.07145700  0.24129100  0.21465600  1
  O  O14  1  0.66314600  0.69051900  0.06334000  1
  O  O15  1  0.33685400  0.69051900  0.56334000  1
  O  O16  1  0.92854300  0.75870900  0.78534400  1
  O  O17  1  0.64070200  0.05481100  0.40983300  1
  O  O18  1  0.20995600  0.19423000  0.45850700  1
  O  O19  1  0.57062200  0.45263500  0.12426300  1
  O  O20  1  0.37256700  0.80258300  0.26653400  1
  O  O21  1  0.28752400  0.51426700  0.12447300  1
  O  O22  1  0.08250700  0.84805900  0.53268200  1
  O  O23  1  0.28752400  0.48573300  0.37552700  1
  O  O24  1  0.87257500  0.49672300  0.39777500  1
  O  O25  1  0.57062200  0.54736500  0.37573700  1
  O  O26  1  0.12742500  0.49672300  0.89777500  1
  O  O27  1  0.62743300  0.80258300  0.76653400  1
  O  O28  1  0.62743300  0.19741700  0.73346600  1
  O  O29  1  0.08250700  0.15194100  0.96731800  1
  O  O30  1  0.07145700  0.75870900  0.28534400  1
  O  O31  1  0.79004400  0.80577000  0.54149300  1
  O  O32  1  0.16998100  0.00000000  0.25000000  1
  O  O33  1  0.21024300  0.83413100  0.78561600  1
  O  O34  1  0.64070200  0.94518900  0.09016700  1
  O  O35  1  0.91749300  0.15194100  0.46731800  1
  O  O36  1  0.20995600  0.80577000  0.04149300  1
  O  O37  1  0.78975700  0.16586900  0.21438400  1
  O  O38  1  0.42937800  0.45263500  0.62426300  1
  O  O39  1  0.66314600  0.30948100  0.43665900  1
  O  O40  1  0.21024300  0.16586900  0.71438400  1
  O  O41  1  0.37256700  0.19741700  0.23346600  1
loop_
_geom_bond_atom_site_label_1
_geom_bond_atom_site_label_2
_geom_bond_distance
_geom_bond_site_symmetry_2
Cu0 O31 1.909524 1_555
Cu0 O30 1.915955 1_655
Cu0 O1 1.924451 1_555
Cu0 O22 1.935793 1_655
Cu1 O18 1.909524 1_555
Cu1 O5 1.915955 1_455
Cu1 O40 1.924451 1_555
Cu1 O35 1.935793 1_455
Cu2 O23 1.898596 1_555
Cu2 O21 1.898596 1_555
Cu2 O25 1.915358 1_555
Cu2 O19 1.915358 1_555
Cu3 O0 1.909524 1_554
Cu3 O13 1.915955 1_655
Cu3 O37 1.924451 1_555
Cu3 O29 1.935793 1_654
Cu4 O8 1.898596 1_555
Cu4 O10 1.898596 1_555
Cu4 O38 1.915358 1_555
Cu4 O11 1.915358 1_555
Cu5 O36 1.909524 1_556
Cu5 O16 1.915955 1_455
Cu5 O33 1.924451 1_555
Cu5 O12 1.935793 1_456
Mo0 O41 1.718589 1_555
Mo0 O18 1.798705 1_555
Mo0 O13 1.799173 1_555
Mo0 O32 1.913572 1_555
Mo1 O17 1.713876 1_555
Mo1 O37 1.794173 1_555
Mo1 O35 1.802459 1_555
Mo1 O39 1.911655 1_555
Mo2 O9 1.713876 1_555
Mo2 O40 1.794173 1_555
Mo2 O29 1.802459 1_555
Mo2 O6 1.911658 1_555
Mo3 O28 1.718589 1_555
Mo3 O0 1.798705 1_555
Mo3 O5 1.799173 1_555
Mo3 O2 1.913572 1_555
Mo4 O26 1.715085 1_555
Mo4 O21 1.798656 1_556
Mo4 O11 1.812422 1_555
Mo4 O6 1.903175 1_555
Mo5 O34 1.713876 1_555
Mo5 O1 1.794173 1_555
Mo5 O12 1.802459 1_555
Mo5 O14 1.911658 1_555
Mo6 O24 1.715085 1_555
Mo6 O10 1.798656 1_555
Mo6 O25 1.812422 1_555
Mo6 O39 1.903176 1_555
Mo7 O4 1.713876 1_555
Mo7 O33 1.794173 1_555
Mo7 O22 1.802459 1_555
Mo7 O15 1.911658 1_555
Mo8 O7 1.715085 1_555
Mo8 O23 1.798656 1_555
Mo8 O38 1.812422 1_555
Mo8 O15 1.903175 1_555
Mo9 O3 1.715085 1_555
Mo9 O8 1.798656 1_554
Mo9 O19 1.812422 1_555
Mo9 O14 1.903175 1_555
Mo10 O27 1.718589 1_555
Mo10 O31 1.798705 1_555
Mo10 O16 1.799173 1_555
Mo10 O2 1.913572 1_565
Mo11 O20 1.718589 1_555
Mo11 O36 1.798705 1_555
Mo11 O30 1.799173 1_555
Mo11 O32 1.913572 1_565
