# generated using pymatgen
data_Sr3Ni
_symmetry_space_group_name_H-M   'P 1'
_cell_length_a   5.24807400
_cell_length_b   5.24807400
_cell_length_c   5.24807400
_cell_angle_alpha   90.00000000
_cell_angle_beta   90.00000000
_cell_angle_gamma   90.00000000
_symmetry_Int_Tables_number   1
_chemical_formula_structural   Sr3Ni
_chemical_formula_sum   'Sr3 Ni1'
_cell_volume   144.54392729
_cell_formula_units_Z   1
loop_
 _symmetry_equiv_pos_site_id
 _symmetry_equiv_pos_as_xyz
  1  'x, y, z'
loop_
 _atom_site_type_symbol
 _atom_site_label
 _atom_site_symmetry_multiplicity
 _atom_site_fract_x
 _atom_site_fract_y
 _atom_site_fract_z
 _atom_site_occupancy
  Sr  Sr0  1  0.00000000  0.50000000  0.50000000  1
  Sr  Sr1  1  0.50000000  0.00000000  0.50000000  1
  Sr  Sr2  1  0.50000000  0.50000000  0.00000000  1
  Ni  Ni0  1  0.00000000  0.00000000  0.00000000  1
loop_
_geom_bond_atom_site_label_1
_geom_bond_atom_site_label_2
_geom_bond_distance
_geom_bond_site_symmetry_2
Sr0 Sr1 3.710949 1_565
Sr0 Sr2 3.710949 1_456
Sr0 Sr1 3.710949 1_465
Sr0 Sr2 3.710949 1_556
Sr0 Sr2 3.710949 1_555
Sr0 Sr1 3.710949 1_455
Sr0 Sr1 3.710949 1_555
Sr0 Sr2 3.710949 1_455
Sr1 Sr2 3.710949 1_545
Sr1 Sr2 3.710949 1_556
Sr1 Sr2 3.710949 1_555
Sr1 Sr2 3.710949 1_546
Ni0 Sr0 3.710949 1_545
Ni0 Sr2 3.710949 1_545
Ni0 Sr2 3.710949 1_555
Ni0 Sr1 3.710949 1_555
Ni0 Sr2 3.710949 1_445
Ni0 Sr1 3.710949 1_454
Ni0 Sr0 3.710949 1_555
Ni0 Sr0 3.710949 1_554
Ni0 Sr2 3.710949 1_455
Ni0 Sr1 3.710949 1_554
Ni0 Sr1 3.710949 1_455
Ni0 Sr0 3.710949 1_544
