# generated using pymatgen
data_Zn(SnO2)2
_symmetry_space_group_name_H-M   'P 1'
_cell_length_a   3.28839300
_cell_length_b   10.01130500
_cell_length_c   11.72779100
_cell_angle_alpha   90.00000000
_cell_angle_beta   90.00000000
_cell_angle_gamma   90.00000000
_symmetry_Int_Tables_number   1
_chemical_formula_structural   Zn(SnO2)2
_chemical_formula_sum   'Zn4 Sn8 O16'
_cell_volume   386.09184225
_cell_formula_units_Z   4
loop_
 _symmetry_equiv_pos_site_id
 _symmetry_equiv_pos_as_xyz
  1  'x, y, z'
loop_
 _atom_site_type_symbol
 _atom_site_label
 _atom_site_symmetry_multiplicity
 _atom_site_fract_x
 _atom_site_fract_y
 _atom_site_fract_z
 _atom_site_occupancy
  Zn  Zn0  1  0.75000000  0.74088900  0.34603400  1
  Zn  Zn1  1  0.25000000  0.25911100  0.65396600  1
  Zn  Zn2  1  0.75000000  0.24088900  0.15396600  1
  Zn  Zn3  1  0.25000000  0.75911100  0.84603400  1
  Sn  Sn0  1  0.25000000  0.91616000  0.10575900  1
  Sn  Sn1  1  0.75000000  0.58384000  0.60575900  1
  Sn  Sn2  1  0.25000000  0.41616000  0.39424100  1
  Sn  Sn3  1  0.75000000  0.08384000  0.89424100  1
  Sn  Sn4  1  0.75000000  0.06561200  0.38552700  1
  Sn  Sn5  1  0.25000000  0.93438800  0.61447300  1
  Sn  Sn6  1  0.75000000  0.56561200  0.11447300  1
  Sn  Sn7  1  0.25000000  0.43438800  0.88552700  1
  O  O0  1  0.25000000  0.43354600  0.07314300  1
  O  O1  1  0.75000000  0.56645400  0.92685700  1
  O  O2  1  0.25000000  0.93354600  0.42685700  1
  O  O3  1  0.75000000  0.06645400  0.57314300  1
  O  O4  1  0.25000000  0.53128500  0.71674400  1
  O  O5  1  0.75000000  0.46871500  0.28325600  1
  O  O6  1  0.25000000  0.03128500  0.78325600  1
  O  O7  1  0.75000000  0.96871500  0.21674400  1
  O  O8  1  0.25000000  0.10951300  0.00975700  1
  O  O9  1  0.75000000  0.89048700  0.99024300  1
  O  O10  1  0.25000000  0.60951300  0.49024300  1
  O  O11  1  0.75000000  0.39048700  0.50975700  1
  O  O12  1  0.75000000  0.29782900  0.86747900  1
  O  O13  1  0.25000000  0.70217100  0.13252100  1
  O  O14  1  0.25000000  0.20217100  0.36747900  1
  O  O15  1  0.75000000  0.79782900  0.63252100  1
loop_
_geom_bond_atom_site_label_1
_geom_bond_atom_site_label_2
_geom_bond_distance
_geom_bond_site_symmetry_2
O0 Sn6 2.164813 1_455
O0 Sn6 2.164813 1_555
O0 Sn7 2.200337 1_554
O1 Sn7 2.164813 1_555
O1 Sn7 2.164813 1_655
O1 Sn6 2.200337 1_556
O2 Sn4 2.164813 1_565
O2 Sn4 2.164813 1_465
O2 Sn5 2.200337 1_555
O3 Sn5 2.164813 1_545
O3 Sn5 2.164813 1_645
O3 Sn4 2.200337 1_555
O4 Sn1 2.162035 1_555
O4 Sn1 2.162035 1_455
O4 Sn7 2.204372 1_555
O5 Sn2 2.162035 1_555
O5 Sn2 2.162035 1_655
O5 Sn6 2.204372 1_555
O6 Sn3 2.162035 1_555
O6 Sn3 2.162035 1_455
O6 Sn5 2.204372 1_545
O7 Sn0 2.162035 1_555
O7 Sn0 2.162035 1_655
O7 Sn4 2.204372 1_565
O8 Sn3 2.145876 1_554
O8 Sn3 2.145876 1_454
O8 Sn0 2.239336 1_545
O9 Sn0 2.145876 1_656
O9 Sn0 2.145876 1_556
O9 Sn3 2.239336 1_565
O10 Sn1 2.145876 1_555
O10 Sn1 2.145876 1_455
O10 Sn2 2.239336 1_555
O11 Sn2 2.145876 1_555
O11 Sn2 2.145876 1_655
O11 Sn1 2.239336 1_555
O12 Sn7 2.148776 1_555
O12 Sn7 2.148776 1_655
O12 Sn3 2.165178 1_555
O13 Sn6 2.148776 1_455
O13 Sn6 2.148776 1_555
O13 Sn0 2.165178 1_555
O14 Sn4 2.148776 1_555
O14 Sn4 2.148776 1_455
O14 Sn2 2.165178 1_555
O15 Sn5 2.148776 1_655
O15 Sn5 2.148776 1_555
O15 Sn1 2.165178 1_555
