# generated using pymatgen
data_In2(PSe3)3
_symmetry_space_group_name_H-M   'P 1'
_cell_length_a   6.50605900
_cell_length_b   8.12126900
_cell_length_c   15.37178504
_cell_angle_alpha   90.74501166
_cell_angle_beta   102.01842940
_cell_angle_gamma   90.64022183
_symmetry_Int_Tables_number   1
_chemical_formula_structural   In2(PSe3)3
_chemical_formula_sum   'In4 P6 Se18'
_cell_volume   794.25582479
_cell_formula_units_Z   2
loop_
 _symmetry_equiv_pos_site_id
 _symmetry_equiv_pos_as_xyz
  1  'x, y, z'
loop_
 _atom_site_type_symbol
 _atom_site_label
 _atom_site_symmetry_multiplicity
 _atom_site_fract_x
 _atom_site_fract_y
 _atom_site_fract_z
 _atom_site_occupancy
  In  In0  1  0.55905100  0.62410200  0.11780500  1
  In  In1  1  0.21464100  0.93779700  0.43017400  1
  In  In2  1  0.44094900  0.37589800  0.88219500  1
  In  In3  1  0.78535900  0.06220300  0.56982600  1
  P  P0  1  0.32337600  0.28780200  0.63290800  1
  P  P1  1  0.97135200  0.62263400  0.96496600  1
  P  P2  1  0.65012500  0.95922000  0.29671000  1
  P  P3  1  0.34987500  0.04078000  0.70329000  1
  P  P4  1  0.02864800  0.37736600  0.03503400  1
  P  P5  1  0.67662400  0.71219800  0.36709200  1
  Se  Se0  1  0.12805400  0.20038800  0.94270100  1
  Se  Se1  1  0.80394300  0.53740100  0.28439800  1
  Se  Se2  1  0.46366600  0.86613500  0.60898000  1
  Se  Se3  1  0.70594000  0.31033000  0.05617400  1
  Se  Se4  1  0.36330200  0.64186900  0.38753300  1
  Se  Se5  1  0.03782800  0.96975500  0.72554200  1
  Se  Se6  1  0.24634200  0.42369800  0.16348000  1
  Se  Se7  1  0.91111300  0.75797400  0.49646500  1
  Se  Se8  1  0.58297400  0.07423300  0.82700500  1
  Se  Se9  1  0.87194600  0.79961200  0.05729900  1
  Se  Se10  1  0.53633400  0.13386500  0.39102000  1
  Se  Se11  1  0.19605700  0.46259900  0.71560200  1
  Se  Se12  1  0.29406000  0.68967000  0.94382600  1
  Se  Se13  1  0.96217200  0.03024500  0.27445800  1
  Se  Se14  1  0.63669800  0.35813100  0.61246700  1
  Se  Se15  1  0.75365800  0.57630200  0.83652000  1
  Se  Se16  1  0.41702600  0.92576700  0.17299500  1
  Se  Se17  1  0.08888700  0.24202600  0.50353500  1
loop_
_geom_bond_atom_site_label_1
_geom_bond_atom_site_label_2
_geom_bond_distance
_geom_bond_site_symmetry_2
In0 Se9 2.792667 1_555
In0 Se6 2.798503 1_555
In0 Se16 2.810440 1_555
In0 Se1 2.822229 1_555
In0 Se12 2.923274 1_554
In0 Se3 2.944992 1_555
In1 Se4 2.723235 1_555
In1 Se13 2.725463 1_465
In1 Se10 2.784462 1_565
In1 Se7 2.807691 1_455
In1 Se17 2.898709 1_565
In1 Se2 2.954053 1_555
In2 Se0 2.792667 1_555
In2 Se15 2.798503 1_555
In2 Se8 2.810440 1_555
In2 Se11 2.822229 1_555
In2 Se3 2.923274 1_556
In2 Se12 2.944992 1_555
In3 Se14 2.723235 1_555
In3 Se5 2.725463 1_645
In3 Se2 2.784462 1_545
In3 Se17 2.807691 1_655
In3 Se7 2.898709 1_545
In3 Se10 2.954053 1_555
P0 Se11 2.176014 1_555
P0 Se14 2.196770 1_555
P0 Se17 2.263883 1_555
P0 P3 2.282824 1_555
P1 Se9 2.201941 1_556
P1 Se15 2.202312 1_555
P1 Se12 2.252403 1_655
P1 P4 2.274166 1_656
P2 Se16 2.183248 1_555
P2 Se13 2.199902 1_565
P2 Se10 2.253531 1_565
P2 P5 2.282824 1_555
P3 Se8 2.183248 1_555
P3 Se5 2.199902 1_545
P3 Se2 2.253531 1_545
P4 Se0 2.201941 1_554
P4 Se6 2.202312 1_555
P4 Se3 2.252403 1_455
P5 Se1 2.176014 1_555
P5 Se4 2.196770 1_555
P5 Se7 2.263883 1_555
