# generated using pymatgen
data_CaNiO3
_symmetry_space_group_name_H-M   'P 1'
_cell_length_a   5.36655800
_cell_length_b   5.41036400
_cell_length_c   7.55330900
_cell_angle_alpha   90.00000000
_cell_angle_beta   90.00000000
_cell_angle_gamma   90.00000000
_symmetry_Int_Tables_number   1
_chemical_formula_structural   CaNiO3
_chemical_formula_sum   'Ca4 Ni4 O12'
_cell_volume   219.31057009
_cell_formula_units_Z   4
loop_
 _symmetry_equiv_pos_site_id
 _symmetry_equiv_pos_as_xyz
  1  'x, y, z'
loop_
 _atom_site_type_symbol
 _atom_site_label
 _atom_site_symmetry_multiplicity
 _atom_site_fract_x
 _atom_site_fract_y
 _atom_site_fract_z
 _atom_site_occupancy
  Ca  Ca0  1  0.99028800  0.54849600  0.75000000  1
  Ca  Ca1  1  0.49028800  0.95150400  0.25000000  1
  Ca  Ca2  1  0.50971200  0.04849600  0.75000000  1
  Ca  Ca3  1  0.00971200  0.45150400  0.25000000  1
  Ni  Ni0  1  0.50000000  0.50000000  0.50000000  1
  Ni  Ni1  1  0.00000000  0.00000000  0.50000000  1
  Ni  Ni2  1  0.00000000  0.00000000  0.00000000  1
  Ni  Ni3  1  0.50000000  0.50000000  0.00000000  1
  O  O0  1  0.91942100  0.01997700  0.25000000  1
  O  O1  1  0.41942100  0.48002300  0.75000000  1
  O  O2  1  0.58057900  0.51997700  0.25000000  1
  O  O3  1  0.08057900  0.98002300  0.75000000  1
  O  O4  1  0.70539800  0.79193300  0.95916400  1
  O  O5  1  0.20539800  0.70806700  0.04083600  1
  O  O6  1  0.79460200  0.29193300  0.54083600  1
  O  O7  1  0.29460200  0.20806700  0.45916400  1
  O  O8  1  0.70539800  0.79193300  0.54083600  1
  O  O9  1  0.20539800  0.70806700  0.45916400  1
  O  O10  1  0.29460200  0.20806700  0.04083600  1
  O  O11  1  0.79460200  0.29193300  0.95916400  1
loop_
_geom_bond_atom_site_label_1
_geom_bond_atom_site_label_2
_geom_bond_distance
_geom_bond_site_symmetry_2
Ca0 O1 2.332574 1_655
Ca0 O11 2.350676 1_555
Ca0 O6 2.350676 1_555
Ca0 O3 2.384470 1_655
Ca0 O4 2.562850 1_555
Ca0 O8 2.562850 1_555
Ca0 O5 2.627510 1_656
Ca0 O9 2.627510 1_655
Ca1 O0 2.332574 1_565
Ca1 O7 2.350676 1_565
Ca1 O10 2.350676 1_565
Ca1 O2 2.384470 1_555
Ca1 O9 2.562850 1_555
Ca1 O5 2.562850 1_555
Ca1 O8 2.627510 1_555
Ca1 O4 2.627510 1_554
Ca2 O3 2.332574 1_545
Ca2 O4 2.350676 1_545
Ca2 O8 2.350676 1_545
Ca2 O1 2.384470 1_555
Ca2 O11 2.562850 1_555
Ca2 O6 2.562850 1_555
Ca2 O10 2.627510 1_556
Ca2 O7 2.627510 1_555
Ca3 O2 2.332574 1_455
Ca3 O9 2.350676 1_555
Ca3 O5 2.350676 1_555
Ca3 O0 2.384470 1_455
Ca3 O7 2.562850 1_555
Ca3 O10 2.562850 1_555
Ca3 O6 2.627510 1_455
Ca3 O11 2.627510 1_454
Ni0 O2 1.940221 1_555
Ni0 O1 1.940221 1_555
Ni0 O8 1.950607 1_555
Ni0 O7 1.950607 1_555
Ni0 O6 1.965181 1_555
Ni0 O9 1.965181 1_555
Ni1 O3 1.940221 1_545
Ni1 O0 1.940221 1_455
Ni1 O9 1.950607 1_545
Ni1 O6 1.950607 1_455
Ni1 O8 1.965181 1_445
Ni1 O7 1.965181 1_555
Ni2 O3 1.940221 1_544
Ni2 O0 1.940221 1_455
Ni2 O5 1.950607 1_545
Ni2 O11 1.950607 1_454
Ni2 O10 1.965181 1_555
Ni2 O4 1.965181 1_444
Ni3 O2 1.940221 1_555
Ni3 O1 1.940221 1_554
Ni3 O10 1.950607 1_555
Ni3 O4 1.950607 1_554
Ni3 O11 1.965181 1_554
Ni3 O5 1.965181 1_555
