# generated using pymatgen
data_Sr2Mg
_symmetry_space_group_name_H-M   'P 1'
_cell_length_a   6.87622292
_cell_length_b   6.87622292
_cell_length_c   6.29138300
_cell_angle_alpha   90.00000000
_cell_angle_beta   90.00000000
_cell_angle_gamma   120.00000888
_symmetry_Int_Tables_number   1
_chemical_formula_structural   Sr2Mg
_chemical_formula_sum   'Sr4 Mg2'
_cell_volume   257.61824242
_cell_formula_units_Z   2
loop_
 _symmetry_equiv_pos_site_id
 _symmetry_equiv_pos_as_xyz
  1  'x, y, z'
loop_
 _atom_site_type_symbol
 _atom_site_label
 _atom_site_symmetry_multiplicity
 _atom_site_fract_x
 _atom_site_fract_y
 _atom_site_fract_z
 _atom_site_occupancy
  Sr  Sr0  1  0.64541400  0.00000000  0.50000000  1
  Sr  Sr1  1  0.35458600  0.35458600  0.50000000  1
  Sr  Sr2  1  0.00000000  0.64541400  0.50000000  1
  Sr  Sr3  1  0.00000000  0.00000000  0.00000000  1
  Mg  Mg0  1  0.66666700  0.33333300  0.00000000  1
  Mg  Mg1  1  0.33333300  0.66666700  0.00000000  1
loop_
_geom_bond_atom_site_label_1
_geom_bond_atom_site_label_2
_geom_bond_distance
_geom_bond_site_symmetry_2
Sr0 Sr2 3.849676 1_545
Sr0 Sr2 3.849676 1_655
Sr0 Sr1 3.849676 1_545
Sr0 Sr1 3.849676 1_555
Sr0 Sr3 3.979982 1_656
Sr0 Sr3 3.979982 1_655
Sr0 Sr1 4.223107 1_655
Sr0 Sr2 4.223108 1_645
Sr1 Sr2 3.849676 1_655
Sr1 Sr2 3.849676 1_555
Sr1 Sr3 3.979982 1_555
Sr1 Sr3 3.979982 1_556
Sr1 Sr2 4.223107 1_545
Sr2 Sr3 3.979982 1_566
Sr2 Sr3 3.979982 1_565
Mg0 Sr0 3.851670 1_555
Mg0 Sr0 3.851670 1_554
Mg0 Sr2 3.851672 1_655
Mg0 Sr2 3.851672 1_654
Mg0 Sr1 3.851674 1_554
Mg0 Sr1 3.851674 1_555
Mg0 Sr3 3.969985 1_655
Mg0 Sr3 3.969991 1_555
Mg0 Sr3 3.969991 1_665
Mg1 Sr2 3.851670 1_555
Mg1 Sr2 3.851670 1_554
Mg1 Sr0 3.851672 1_565
Mg1 Sr0 3.851672 1_564
Mg1 Sr1 3.851674 1_554
Mg1 Sr1 3.851674 1_555
Mg1 Sr3 3.969985 1_565
Mg1 Sr3 3.969991 1_555
Mg1 Sr3 3.969991 1_665
