# generated using pymatgen
data_Sr3MnRuO7
_symmetry_space_group_name_H-M   'P 1'
_cell_length_a   10.60733932
_cell_length_b   10.60733932
_cell_length_c   10.60733932
_cell_angle_alpha   158.52854216
_cell_angle_beta   158.52854216
_cell_angle_gamma   30.54840697
_symmetry_Int_Tables_number   1
_chemical_formula_structural   Sr3MnRuO7
_chemical_formula_sum   'Sr3 Mn1 Ru1 O7'
_cell_volume   159.80494523
_cell_formula_units_Z   1
loop_
 _symmetry_equiv_pos_site_id
 _symmetry_equiv_pos_as_xyz
  1  'x, y, z'
loop_
 _atom_site_type_symbol
 _atom_site_label
 _atom_site_symmetry_multiplicity
 _atom_site_fract_x
 _atom_site_fract_y
 _atom_site_fract_z
 _atom_site_occupancy
  Sr  Sr0  1  0.68615200  0.68615200  0.00000000  1
  Sr  Sr1  1  0.31897200  0.31897200  0.00000000  1
  Sr  Sr2  1  0.49318400  0.49318400  0.00000000  1
  Mn  Mn0  1  0.89996300  0.89996300  0.00000000  1
  Ru  Ru0  1  0.09684900  0.09684900  0.00000000  1
  O  O0  1  0.80598800  0.80598800  0.00000000  1
  O  O1  1  0.19538100  0.19538100  0.00000000  1
  O  O2  1  0.90420300  0.40420300  0.50000000  1
  O  O3  1  0.40420300  0.90420300  0.50000000  1
  O  O4  1  0.09763600  0.59763600  0.50000000  1
  O  O5  1  0.59763600  0.09763600  0.50000000  1
  O  O6  1  0.99983200  0.99983200  0.00000000  1
loop_
_geom_bond_atom_site_label_1
_geom_bond_atom_site_label_2
_geom_bond_distance
_geom_bond_site_symmetry_2
Mn0 O0 1.923226 1_555
Mn0 O2 1.977832 1_565
Mn0 O3 1.977832 1_655
Mn0 O2 1.977832 1_554
Mn0 O3 1.977832 1_554
Mn0 O6 2.043848 1_555
O0 Sr0 2.452479 1_555
O0 Sr1 2.806990 1_554
O0 Sr1 2.806990 1_655
O0 Sr1 2.806990 1_565
O0 Sr1 2.806990 1_666
O1 Ru0 2.016486 1_555
O1 Sr1 2.529326 1_555
O1 Sr0 2.800760 1_444
O1 Sr0 2.800760 1_545
O1 Sr0 2.800760 1_455
O1 Sr0 2.800760 1_556
O2 Sr1 2.635677 1_656
O2 Sr1 2.635677 1_555
O2 Sr2 2.687083 1_555
O2 Sr2 2.687083 1_656
O3 Sr1 2.635677 1_566
O3 Sr1 2.635677 1_555
O3 Sr2 2.687083 1_555
O3 Sr2 2.687083 1_566
O4 Ru0 1.975994 1_566
O4 Ru0 1.975994 1_555
O4 Sr0 2.680643 1_556
O4 Sr0 2.680643 1_455
O4 Sr2 2.910979 1_556
O4 Sr2 2.910979 1_455
O5 Ru0 1.975994 1_656
O5 Ru0 1.975994 1_555
O5 Sr0 2.680643 1_545
O5 Sr0 2.680643 1_556
O5 Sr2 2.910979 1_545
O5 Sr2 2.910979 1_556
O6 Ru0 1.985481 1_665
O6 Sr2 2.797694 1_554
O6 Sr2 2.797694 1_565
O6 Sr2 2.797694 1_655
O6 Sr2 2.797694 1_666
