# generated using pymatgen
data_ZnFeF5
_symmetry_space_group_name_H-M   'P 1'
_cell_length_a   9.88342400
_cell_length_b   5.24291500
_cell_length_c   7.57700372
_cell_angle_alpha   69.84768225
_cell_angle_beta   90.00000000
_cell_angle_gamma   90.00000000
_symmetry_Int_Tables_number   1
_chemical_formula_structural   ZnFeF5
_chemical_formula_sum   'Zn4 Fe4 F20'
_cell_volume   368.58834667
_cell_formula_units_Z   4
loop_
 _symmetry_equiv_pos_site_id
 _symmetry_equiv_pos_as_xyz
  1  'x, y, z'
loop_
 _atom_site_type_symbol
 _atom_site_label
 _atom_site_symmetry_multiplicity
 _atom_site_fract_x
 _atom_site_fract_y
 _atom_site_fract_z
 _atom_site_occupancy
  Zn  Zn0  1  0.00419900  0.51057000  0.75337400  1
  Zn  Zn1  1  0.50419900  0.48943000  0.74662600  1
  Zn  Zn2  1  0.99580100  0.48943000  0.24662600  1
  Zn  Zn3  1  0.49580100  0.51057000  0.25337400  1
  Fe  Fe0  1  0.75464000  0.09578500  0.60386400  1
  Fe  Fe1  1  0.25464000  0.90421500  0.89613600  1
  Fe  Fe2  1  0.24536000  0.90421500  0.39613600  1
  Fe  Fe3  1  0.74536000  0.09578500  0.10386400  1
  F  F0  1  0.88580900  0.38850200  0.57636100  1
  F  F1  1  0.38580900  0.61149800  0.92363900  1
  F  F2  1  0.11419100  0.61149800  0.42363900  1
  F  F3  1  0.61419100  0.38850200  0.07636100  1
  F  F4  1  0.60757700  0.34852000  0.49546500  1
  F  F5  1  0.10757700  0.65148000  0.00453500  1
  F  F6  1  0.39242300  0.65148000  0.50453500  1
  F  F7  1  0.89242300  0.34852000  0.99546500  1
  F  F8  1  0.40497700  0.14673800  0.80535800  1
  F  F9  1  0.90497700  0.85326200  0.69464200  1
  F  F10  1  0.59502300  0.85326200  0.19464200  1
  F  F11  1  0.09502300  0.14673800  0.30535800  1
  F  F12  1  0.13685700  0.21633200  0.84201200  1
  F  F13  1  0.63685700  0.78366800  0.65798800  1
  F  F14  1  0.86314300  0.78366800  0.15798800  1
  F  F15  1  0.36314300  0.21633200  0.34201200  1
  F  F16  1  0.69171200  0.15074700  0.83930500  1
  F  F17  1  0.19171200  0.84925300  0.66069500  1
  F  F18  1  0.30828800  0.84925300  0.16069500  1
  F  F19  1  0.80828800  0.15074700  0.33930500  1
loop_
_geom_bond_atom_site_label_1
_geom_bond_atom_site_label_2
_geom_bond_distance
_geom_bond_site_symmetry_2
F0 Fe0 1.964431 1_555
F0 Zn0 2.041828 1_655
F1 Fe1 1.964431 1_555
F1 Zn1 2.041828 1_555
F2 Fe2 1.964431 1_555
F2 Zn2 2.041828 1_455
F3 Fe3 1.964431 1_555
F3 Zn3 2.041828 1_555
F4 Fe0 1.947596 1_555
F4 Zn3 2.057469 1_555
F5 Fe1 1.947596 1_554
F5 Zn2 2.057469 1_455
F6 Fe2 1.947596 1_555
F6 Zn1 2.057469 1_555
F7 Fe3 1.947596 1_556
F7 Zn0 2.057469 1_655
F8 Fe1 1.922238 1_545
F8 Zn1 1.958812 1_555
F9 Fe0 1.922238 1_565
F9 Zn0 1.958812 1_655
F10 Fe3 1.922238 1_565
F10 Zn3 1.958812 1_555
F11 Fe2 1.922238 1_545
F11 Zn2 1.958812 1_455
F12 Fe1 1.933577 1_545
F12 Zn0 1.958574 1_555
F13 Fe0 1.933577 1_565
F13 Zn1 1.958574 1_555
F14 Fe3 1.933577 1_565
F14 Zn2 1.958574 1_555
F15 Fe2 1.933577 1_545
F15 Zn3 1.958574 1_555
F16 Fe3 1.996107 1_556
F16 Fe0 2.001622 1_555
F17 Fe2 1.996107 1_555
F17 Fe1 2.001622 1_555
F18 Fe1 1.996107 1_554
F18 Fe2 2.001622 1_555
F19 Fe0 1.996107 1_555
F19 Fe3 2.001622 1_555
