# generated using pymatgen
data_Ho2Pa2O5
_symmetry_space_group_name_H-M   'P 1'
_cell_length_a   4.34992200
_cell_length_b   4.34992200
_cell_length_c   7.50751200
_cell_angle_alpha   90.00000000
_cell_angle_beta   90.00000000
_cell_angle_gamma   90.00000000
_symmetry_Int_Tables_number   1
_chemical_formula_structural   Ho2Pa2O5
_chemical_formula_sum   'Ho2 Pa2 O5'
_cell_volume   142.05580127
_cell_formula_units_Z   1
loop_
 _symmetry_equiv_pos_site_id
 _symmetry_equiv_pos_as_xyz
  1  'x, y, z'
loop_
 _atom_site_type_symbol
 _atom_site_label
 _atom_site_symmetry_multiplicity
 _atom_site_fract_x
 _atom_site_fract_y
 _atom_site_fract_z
 _atom_site_occupancy
  Ho  Ho0  1  0.50000000  0.50000000  0.22300200  1
  Ho  Ho1  1  0.50000000  0.50000000  0.77699800  1
  Pa  Pa0  1  0.00000000  0.00000000  0.00000000  1
  Pa  Pa1  1  0.00000000  0.00000000  0.50000000  1
  O  O0  1  0.50000000  0.00000000  0.24471900  1
  O  O1  1  0.50000000  0.00000000  0.75528100  1
  O  O2  1  0.50000000  0.50000000  0.50000000  1
  O  O3  1  0.00000000  0.50000000  0.24471900  1
  O  O4  1  0.00000000  0.50000000  0.75528100  1
loop_
_geom_bond_atom_site_label_1
_geom_bond_atom_site_label_2
_geom_bond_distance
_geom_bond_site_symmetry_2
Ho0 O2 2.079566 1_555
Ho0 O3 2.181063 1_555
Ho0 O0 2.181063 1_555
Ho0 O3 2.181063 1_655
Ho0 O0 2.181063 1_565
Ho1 O2 2.079566 1_555
Ho1 O1 2.181063 1_565
Ho1 O1 2.181063 1_555
Ho1 O4 2.181063 1_555
Ho1 O4 2.181063 1_655
O0 Pa0 2.847081 1_555
O0 Pa0 2.847081 1_655
O0 Pa1 2.898883 1_655
O0 Pa1 2.898883 1_555
O1 Pa0 2.847081 1_556
O1 Pa0 2.847081 1_656
O1 Pa1 2.898883 1_655
O1 Pa1 2.898883 1_555
O2 Pa1 3.075859 1_565
O2 Pa1 3.075859 1_655
O2 Pa1 3.075859 1_665
O2 Pa1 3.075859 1_555
O3 Pa0 2.847081 1_555
O3 Pa0 2.847081 1_565
O3 Pa1 2.898883 1_565
O3 Pa1 2.898883 1_555
O4 Pa0 2.847081 1_556
O4 Pa0 2.847081 1_566
O4 Pa1 2.898883 1_565
O4 Pa1 2.898883 1_555
