# generated using pymatgen
data_Eu3Cr
_symmetry_space_group_name_H-M   'P 1'
_cell_length_a   7.49149750
_cell_length_b   7.49149750
_cell_length_c   5.88622200
_cell_angle_alpha   90.00000000
_cell_angle_beta   90.00000000
_cell_angle_gamma   119.99999556
_symmetry_Int_Tables_number   1
_chemical_formula_structural   Eu3Cr
_chemical_formula_sum   'Eu6 Cr2'
_cell_volume   286.09124405
_cell_formula_units_Z   2
loop_
 _symmetry_equiv_pos_site_id
 _symmetry_equiv_pos_as_xyz
  1  'x, y, z'
loop_
 _atom_site_type_symbol
 _atom_site_label
 _atom_site_symmetry_multiplicity
 _atom_site_fract_x
 _atom_site_fract_y
 _atom_site_fract_z
 _atom_site_occupancy
  Eu  Eu0  1  0.17251200  0.34502400  0.25000000  1
  Eu  Eu1  1  0.65497600  0.82748800  0.25000000  1
  Eu  Eu2  1  0.17251200  0.82748800  0.25000000  1
  Eu  Eu3  1  0.82748800  0.65497600  0.75000000  1
  Eu  Eu4  1  0.34502400  0.17251200  0.75000000  1
  Eu  Eu5  1  0.82748800  0.17251200  0.75000000  1
  Cr  Cr0  1  0.33333300  0.66666700  0.75000000  1
  Cr  Cr1  1  0.66666700  0.33333300  0.25000000  1
loop_
_geom_bond_atom_site_label_1
_geom_bond_atom_site_label_2
_geom_bond_distance
_geom_bond_site_symmetry_2
Eu0 Eu2 3.614378 1_555
Eu0 Eu1 3.614378 1_555
Eu0 Eu4 3.697646 1_555
Eu0 Eu4 3.697646 1_554
Eu0 Eu5 3.697646 1_455
Eu0 Eu5 3.697646 1_454
Eu0 Eu2 3.877120 1_545
Eu0 Eu1 3.877120 1_445
Eu1 Eu2 3.614378 1_555
Eu1 Eu3 3.697646 1_554
Eu1 Eu3 3.697646 1_555
Eu1 Eu5 3.697646 1_565
Eu1 Eu5 3.697646 1_564
Eu1 Eu2 3.877120 1_655
Eu2 Eu4 3.697646 1_565
Eu2 Eu4 3.697646 1_564
Eu2 Eu3 3.697646 1_455
Eu2 Eu3 3.697646 1_454
Eu3 Eu5 3.614378 1_555
Eu3 Eu4 3.614378 1_555
Eu3 Eu5 3.877120 1_565
Eu3 Eu4 3.877120 1_665
Eu4 Eu5 3.614378 1_555
Eu4 Eu5 3.877120 1_455
Cr0 Eu2 3.607833 1_556
Cr0 Eu2 3.607833 1_555
Cr0 Eu0 3.607837 1_556
Cr0 Eu1 3.607837 1_555
Cr0 Eu1 3.607837 1_556
Cr0 Eu0 3.607837 1_555
Cr0 Eu4 3.746513 1_565
Cr0 Eu3 3.746513 1_455
Cr0 Eu5 3.746517 1_455
Cr0 Eu5 3.746517 1_565
Cr0 Eu4 3.746520 1_555
Cr0 Eu3 3.746520 1_555
Cr1 Eu5 3.607833 1_555
Cr1 Eu5 3.607833 1_554
Cr1 Eu3 3.607837 1_554
Cr1 Eu4 3.607837 1_555
Cr1 Eu4 3.607837 1_554
Cr1 Eu3 3.607837 1_555
Cr1 Eu0 3.746513 1_655
Cr1 Eu1 3.746513 1_545
Cr1 Eu2 3.746517 1_655
Cr1 Eu2 3.746517 1_545
Cr1 Eu1 3.746520 1_555
Cr1 Eu0 3.746520 1_555
