# generated using pymatgen
data_Sm2Sc3Si4
_symmetry_space_group_name_H-M   'P 1'
_cell_length_a   7.16747631
_cell_length_b   7.48108705
_cell_length_c   14.12366386
_cell_angle_alpha   90.00000000
_cell_angle_beta   90.00000000
_cell_angle_gamma   90.00000000
_symmetry_Int_Tables_number   1
_chemical_formula_structural   Sm2Sc3Si4
_chemical_formula_sum   'Sm8 Sc12 Si16'
_cell_volume   757.31811862
_cell_formula_units_Z   4
loop_
 _symmetry_equiv_pos_site_id
 _symmetry_equiv_pos_as_xyz
  1  'x, y, z'
loop_
 _atom_site_type_symbol
 _atom_site_label
 _atom_site_symmetry_multiplicity
 _atom_site_fract_x
 _atom_site_fract_y
 _atom_site_fract_z
 _atom_site_occupancy
  Sm  Sm0  1  0.01190297  0.17420364  0.09777526  1
  Sm  Sm1  1  0.98809703  0.82579636  0.90222474  1
  Sm  Sm2  1  0.48809703  0.67420364  0.90222474  1
  Sm  Sm3  1  0.98809703  0.82579636  0.59777526  1
  Sm  Sm4  1  0.51190297  0.32579636  0.09777526  1
  Sm  Sm5  1  0.01190297  0.17420364  0.40222474  1
  Sm  Sm6  1  0.51190297  0.32579636  0.40222474  1
  Sm  Sm7  1  0.48809703  0.67420364  0.59777526  1
  Sc  Sc0  1  0.16209211  0.50159637  0.75000000  1
  Sc  Sc1  1  0.83790789  0.49840363  0.25000000  1
  Sc  Sc2  1  0.33790789  0.00159637  0.25000000  1
  Sc  Sc3  1  0.66209211  0.99840363  0.75000000  1
  Sc  Sc4  1  0.32939365  0.17635375  0.62544309  1
  Sc  Sc5  1  0.67060635  0.82364625  0.37455691  1
  Sc  Sc6  1  0.17060635  0.67635375  0.37455691  1
  Sc  Sc7  1  0.67060635  0.82364625  0.12544309  1
  Sc  Sc8  1  0.82939365  0.32364625  0.62544309  1
  Sc  Sc9  1  0.32939365  0.17635375  0.87455691  1
  Sc  Sc10  1  0.82939365  0.32364625  0.87455691  1
  Sc  Sc11  1  0.17060635  0.67635375  0.12544309  1
  Si  Si0  1  0.03399739  0.12075776  0.75000000  1
  Si  Si1  1  0.96600261  0.87924224  0.25000000  1
  Si  Si2  1  0.46600261  0.62075776  0.25000000  1
  Si  Si3  1  0.53399739  0.37924224  0.75000000  1
  Si  Si4  1  0.28646588  0.87783138  0.75000000  1
  Si  Si5  1  0.71353412  0.12216862  0.25000000  1
  Si  Si6  1  0.21353412  0.37783138  0.25000000  1
  Si  Si7  1  0.78646588  0.62216862  0.75000000  1
  Si  Si8  1  0.15431063  0.46423040  0.53910552  1
  Si  Si9  1  0.84568937  0.53576960  0.46089448  1
  Si  Si10  1  0.34568937  0.96423040  0.46089448  1
  Si  Si11  1  0.84568937  0.53576960  0.03910552  1
  Si  Si12  1  0.65431063  0.03576960  0.53910552  1
  Si  Si13  1  0.15431063  0.46423040  0.96089448  1
  Si  Si14  1  0.65431063  0.03576960  0.96089448  1
  Si  Si15  1  0.34568937  0.96423040  0.03910552  1
loop_
_geom_bond_atom_site_label_1
_geom_bond_atom_site_label_2
_geom_bond_distance
_geom_bond_site_symmetry_2
Sc0 Si3 2.818403 1_555
Sc0 Si7 2.839377 1_455
Sc0 Si4 2.952442 1_555
Sc0 Si13 2.992211 1_555
Sc0 Si8 2.992211 1_555
Sc0 Si0 2.993365 1_555
Sc1 Si2 2.818403 1_555
Sc1 Si6 2.839377 1_655
Sc1 Si5 2.952442 1_555
Sc1 Si9 2.992211 1_555
Sc1 Si11 2.992211 1_555
Sc1 Si1 2.993365 1_555
Sc2 Si1 2.818403 1_445
Sc2 Si5 2.839377 1_555
Sc2 Si6 2.952442 1_555
Sc2 Si15 2.992211 1_545
Sc2 Si10 2.992211 1_545
Sc2 Si2 2.993365 1_545
Sc3 Si0 2.818403 1_665
Sc3 Si4 2.839377 1_555
Sc3 Si7 2.952442 1_555
Sc3 Si12 2.992211 1_565
Sc3 Si14 2.992211 1_565
Sc3 Si3 2.993365 1_565
Sc4 Si3 2.747577 1_555
Sc4 Si8 2.774860 1_555
Sc4 Si0 2.783972 1_555
Sc4 Si10 2.816567 1_545
Sc4 Si12 2.831348 1_555
Sc4 Si4 2.859538 1_545
Sc5 Si2 2.747577 1_555
Sc5 Si9 2.774860 1_555
Sc5 Si1 2.783972 1_555
Sc5 Si12 2.816567 1_565
Sc5 Si10 2.831348 1_555
Sc5 Si5 2.859538 1_565
Sc6 Si1 2.747577 1_455
Sc6 Si10 2.774860 1_555
Sc6 Si2 2.783972 1_555
Sc6 Si8 2.816567 1_555
Sc6 Si9 2.831348 1_455
Sc6 Si6 2.859538 1_555
Sc7 Si2 2.747577 1_555
Sc7 Si11 2.774860 1_555
Sc7 Si1 2.783972 1_555
Sc7 Si14 2.816567 1_564
Sc7 Si15 2.831348 1_555
Sc7 Si5 2.859538 1_565
Sc8 Si0 2.747577 1_655
Sc8 Si12 2.774860 1_555
Sc8 Si3 2.783972 1_555
Sc8 Si9 2.816567 1_555
Sc8 Si8 2.831348 1_655
Sc8 Si7 2.859538 1_555
Sc9 Si3 2.747577 1_555
Sc9 Si13 2.774860 1_555
Sc9 Si0 2.783972 1_555
Sc9 Si15 2.816567 1_546
Sc9 Si14 2.831348 1_555
Sc9 Si4 2.859538 1_545
Sc10 Si0 2.747577 1_655
Sc10 Si14 2.774860 1_555
Sc10 Si3 2.783972 1_555
Sc10 Si11 2.816567 1_556
Sc10 Si13 2.831348 1_655
Sc10 Si7 2.859538 1_555
Sc11 Si1 2.747577 1_455
Sc11 Si15 2.774860 1_555
Sc11 Si2 2.783972 1_555
Sc11 Si13 2.816567 1_554
Sc11 Si11 2.831348 1_455
Sc11 Si6 2.859538 1_555
Si0 Si4 2.564622 1_545
Si0 Sm3 3.098360 1_445
Si0 Sm1 3.098360 1_445
Si1 Si5 2.564622 1_565
Si1 Sm5 3.098360 1_665
Si1 Sm0 3.098360 1_665
Si2 Si6 2.564622 1_555
Si2 Sm6 3.098360 1_555
Si2 Sm4 3.098360 1_555
Si3 Si7 2.564622 1_555
Si3 Sm7 3.098360 1_555
Si3 Sm2 3.098360 1_555
Si4 Sm7 3.005255 1_555
Si4 Sm2 3.005255 1_555
Si4 Sm3 3.057338 1_455
Si4 Sm1 3.057338 1_455
Si5 Sm4 3.005255 1_555
Si5 Sm6 3.005255 1_555
Si5 Sm0 3.057338 1_655
Si5 Sm5 3.057338 1_655
Si6 Sm0 3.005255 1_555
Si6 Sm5 3.005255 1_555
Si6 Sm6 3.057338 1_555
Si6 Sm4 3.057338 1_555
Si7 Sm1 3.005255 1_555
Si7 Sm3 3.005255 1_555
Si7 Sm7 3.057338 1_555
Si7 Sm2 3.057338 1_555
Si8 Si9 2.529769 1_455
Si8 Sm7 2.979553 1_555
Si8 Sm3 3.069596 1_455
Si8 Sm5 3.080095 1_555
Si8 Sm6 3.373304 1_555
Si9 Sm6 2.979553 1_555
Si9 Sm5 3.069596 1_655
Si9 Sm3 3.080095 1_555
Si9 Sm7 3.373304 1_555
Si10 Si12 2.529769 1_565
Si10 Sm5 2.979553 1_565
Si10 Sm6 3.069596 1_565
Si10 Sm7 3.080095 1_555
Si10 Sm3 3.373304 1_455
Si11 Si13 2.529769 1_654
Si11 Sm4 2.979553 1_555
Si11 Sm0 3.069596 1_655
Si11 Sm1 3.080095 1_554
Si11 Sm2 3.373304 1_554
Si12 Sm3 2.979553 1_545
Si12 Sm7 3.069596 1_545
Si12 Sm6 3.080095 1_555
Si12 Sm5 3.373304 1_655
Si13 Sm2 2.979553 1_555
Si13 Sm1 3.069596 1_455
Si13 Sm0 3.080095 1_556
Si13 Sm4 3.373304 1_556
Si14 Si15 2.529769 1_546
Si14 Sm1 2.979553 1_545
Si14 Sm2 3.069596 1_545
Si14 Sm4 3.080095 1_556
Si14 Sm0 3.373304 1_656
Si15 Sm0 2.979553 1_565
Si15 Sm4 3.069596 1_565
Si15 Sm2 3.080095 1_554
Si15 Sm1 3.373304 1_454
