# generated using pymatgen
data_Mg6AlSn
_symmetry_space_group_name_H-M   'P 1'
_cell_length_a   5.20439100
_cell_length_b   6.35799600
_cell_length_c   10.75487400
_cell_angle_alpha   90.00000000
_cell_angle_beta   90.00000000
_cell_angle_gamma   90.00000000
_symmetry_Int_Tables_number   1
_chemical_formula_structural   Mg6AlSn
_chemical_formula_sum   'Mg12 Al2 Sn2'
_cell_volume   355.87337268
_cell_formula_units_Z   2
loop_
 _symmetry_equiv_pos_site_id
 _symmetry_equiv_pos_as_xyz
  1  'x, y, z'
loop_
 _atom_site_type_symbol
 _atom_site_label
 _atom_site_symmetry_multiplicity
 _atom_site_fract_x
 _atom_site_fract_y
 _atom_site_fract_z
 _atom_site_occupancy
  Mg  Mg0  1  0.50000000  0.24974900  0.58348700  1
  Mg  Mg1  1  0.50000000  0.75025100  0.58348700  1
  Mg  Mg2  1  0.00000000  0.25535900  0.41619900  1
  Mg  Mg3  1  0.00000000  0.74464100  0.41619900  1
  Mg  Mg4  1  0.00000000  0.00000000  0.66881900  1
  Mg  Mg5  1  0.00000000  0.00000000  0.16575100  1
  Mg  Mg6  1  0.50000000  0.74974900  0.08348700  1
  Mg  Mg7  1  0.50000000  0.25025100  0.08348700  1
  Mg  Mg8  1  0.00000000  0.75535900  0.91619900  1
  Mg  Mg9  1  0.00000000  0.24464100  0.91619900  1
  Mg  Mg10  1  0.00000000  0.50000000  0.16881900  1
  Mg  Mg11  1  0.00000000  0.50000000  0.66575100  1
  Al  Al0  1  0.50000000  0.00000000  0.83272700  1
  Al  Al1  1  0.50000000  0.50000000  0.33272700  1
  Sn  Sn0  1  0.50000000  0.00000000  0.33333500  1
  Sn  Sn1  1  0.50000000  0.50000000  0.83333500  1
loop_
_geom_bond_atom_site_label_1
_geom_bond_atom_site_label_2
_geom_bond_distance
_geom_bond_site_symmetry_2
Mg0 Sn1 3.122820 1_555
Mg0 Sn0 3.124010 1_555
Mg0 Mg2 3.163807 1_655
Mg0 Mg2 3.163807 1_555
Mg0 Mg1 3.175806 1_545
Mg0 Mg11 3.175810 1_655
Mg0 Mg11 3.175810 1_555
Mg0 Mg1 3.182190 1_555
Mg0 Mg4 3.183566 1_555
Mg0 Mg4 3.183566 1_655
Mg1 Sn1 3.122820 1_555
Mg1 Sn0 3.124010 1_565
Mg1 Mg3 3.163807 1_555
Mg1 Mg3 3.163807 1_655
Mg1 Mg11 3.175810 1_655
Mg1 Mg11 3.175810 1_555
Mg1 Mg4 3.183566 1_665
Mg1 Mg4 3.183566 1_565
Mg2 Mg3 3.110853 1_555
Mg2 Mg5 3.145016 1_555
Mg2 Mg4 3.165045 1_555
Mg2 Sn0 3.193999 1_455
Mg2 Sn0 3.193999 1_555
Mg2 Mg3 3.247143 1_545
Mg3 Mg5 3.145016 1_565
Mg3 Mg4 3.165045 1_565
Mg3 Sn0 3.193999 1_465
Mg3 Sn0 3.193999 1_565
Mg4 Mg8 3.081855 1_545
Mg4 Mg9 3.081855 1_555
Mg5 Mg8 3.102043 1_544
Mg5 Mg9 3.102043 1_554
Mg5 Sn0 3.165418 1_555
Mg5 Sn0 3.165418 1_455
Mg5 Mg6 3.175810 1_545
Mg5 Mg7 3.175810 1_555
Mg5 Mg7 3.175810 1_455
Mg5 Mg6 3.175810 1_445
Mg6 Sn0 3.122820 1_565
Mg6 Sn1 3.124010 1_554
Mg6 Mg8 3.163807 1_654
Mg6 Mg8 3.163807 1_554
Mg6 Mg7 3.175806 1_555
Mg6 Mg7 3.182190 1_565
Mg7 Sn0 3.122820 1_555
Mg7 Sn1 3.124010 1_554
Mg7 Mg9 3.163807 1_554
Mg7 Mg9 3.163807 1_654
Mg8 Mg9 3.110853 1_565
Mg8 Sn1 3.193999 1_455
Mg8 Sn1 3.193999 1_555
Mg8 Mg9 3.247143 1_555
Mg9 Sn1 3.193999 1_455
Mg9 Sn1 3.193999 1_555
Mg10 Mg3 3.081855 1_555
Mg10 Mg2 3.081855 1_555
Mg10 Mg8 3.165045 1_554
Mg10 Mg9 3.165045 1_554
Mg10 Mg5 3.179169 1_555
Mg10 Mg5 3.179169 1_565
Mg10 Mg6 3.183566 1_455
Mg10 Mg7 3.183566 1_455
Mg10 Mg6 3.183566 1_555
Mg10 Mg7 3.183566 1_555
Mg11 Mg2 3.102043 1_555
Mg11 Mg3 3.102043 1_555
Mg11 Mg9 3.145016 1_555
Mg11 Mg8 3.145016 1_555
Mg11 Sn1 3.165418 1_555
Mg11 Sn1 3.165418 1_455
Mg11 Mg4 3.179169 1_555
Mg11 Mg4 3.179169 1_565
Al0 Mg1 3.115567 1_545
Al0 Mg0 3.115567 1_555
Al0 Mg7 3.131263 1_556
Al0 Mg6 3.131263 1_546
Al0 Mg4 3.143075 1_655
Al0 Mg4 3.143075 1_555
Al0 Mg8 3.161755 1_645
Al0 Mg8 3.161755 1_545
Al0 Mg9 3.161755 1_555
Al0 Mg9 3.161755 1_655
Al0 Sn1 3.179005 1_545
Al0 Sn1 3.179005 1_555
Al1 Mg6 3.115567 1_555
Al1 Mg7 3.115567 1_555
Al1 Mg0 3.131263 1_555
Al1 Mg1 3.131263 1_555
Al1 Mg10 3.143075 1_555
Al1 Mg10 3.143075 1_655
Al1 Mg2 3.161755 1_555
Al1 Mg2 3.161755 1_655
Al1 Mg3 3.161755 1_555
Al1 Mg3 3.161755 1_655
Al1 Sn0 3.179005 1_555
Al1 Sn0 3.179005 1_565
