# generated using pymatgen
data_La2Ir7
_symmetry_space_group_name_H-M   'P 1'
_cell_length_a   13.54396936
_cell_length_b   13.54396936
_cell_length_c   13.54396938
_cell_angle_alpha   23.12503359
_cell_angle_beta   23.12503359
_cell_angle_gamma   23.12503308
_symmetry_Int_Tables_number   1
_chemical_formula_structural   La2Ir7
_chemical_formula_sum   'La4 Ir14'
_cell_volume   336.37945037
_cell_formula_units_Z   2
loop_
 _symmetry_equiv_pos_site_id
 _symmetry_equiv_pos_as_xyz
  1  'x, y, z'
loop_
 _atom_site_type_symbol
 _atom_site_label
 _atom_site_symmetry_multiplicity
 _atom_site_fract_x
 _atom_site_fract_y
 _atom_site_fract_z
 _atom_site_occupancy
  La  La0  1  0.94933300  0.94933300  0.94933300  1
  La  La1  1  0.05066700  0.05066700  0.05066700  1
  La  La2  1  0.85252200  0.85252200  0.85252200  1
  La  La3  1  0.14747800  0.14747800  0.14747800  1
  Ir  Ir0  1  0.50000000  0.50000000  0.50000000  1
  Ir  Ir1  1  0.72203800  0.72203800  0.72203800  1
  Ir  Ir2  1  0.27796200  0.27796200  0.27796200  1
  Ir  Ir3  1  0.61204600  0.61204600  0.61204600  1
  Ir  Ir4  1  0.38795400  0.38795400  0.38795400  1
  Ir  Ir5  1  0.50000000  0.50000000  0.00000000  1
  Ir  Ir6  1  0.00000000  0.50000000  0.50000000  1
  Ir  Ir7  1  0.50000000  0.00000000  0.50000000  1
  Ir  Ir8  1  0.39272600  0.88867200  0.39272600  1
  Ir  Ir9  1  0.39272600  0.39272600  0.88867200  1
  Ir  Ir10  1  0.88867200  0.39272600  0.39272600  1
  Ir  Ir11  1  0.60727400  0.11132800  0.60727400  1
  Ir  Ir12  1  0.60727400  0.60727400  0.11132800  1
  Ir  Ir13  1  0.11132800  0.60727400  0.60727400  1
loop_
_geom_bond_atom_site_label_1
_geom_bond_atom_site_label_2
_geom_bond_distance
_geom_bond_site_symmetry_2
La0 La2 3.826810 1_555
La0 La1 4.005599 1_666
La1 La3 3.826810 1_555
La2 La3 3.482460 1_566
La2 La3 3.482460 1_656
La2 La3 3.482460 1_665
Ir0 Ir10 2.771404 1_555
Ir0 Ir8 2.771404 1_555
Ir0 Ir13 2.771404 1_555
Ir0 Ir11 2.771404 1_555
Ir0 Ir9 2.771404 1_555
Ir0 Ir12 2.771404 1_555
Ir0 La2 3.225143 1_455
Ir0 La2 3.225143 1_545
Ir0 La3 3.225143 1_565
Ir0 La3 3.225143 1_655
Ir0 La3 3.225143 1_556
Ir0 La2 3.225143 1_554
Ir1 Ir13 2.632077 1_655
Ir1 Ir11 2.632077 1_565
Ir1 Ir12 2.632077 1_556
Ir1 Ir6 2.692063 1_655
Ir1 Ir7 2.692063 1_565
Ir1 Ir5 2.692063 1_556
Ir1 Ir4 3.134821 1_565
Ir1 Ir4 3.134821 1_655
Ir1 Ir4 3.134821 1_556
Ir1 La1 3.140191 1_566
Ir1 La1 3.140191 1_656
Ir1 La1 3.140191 1_665
Ir2 Ir8 2.632077 1_545
Ir2 Ir9 2.632077 1_554
Ir2 Ir6 2.692063 1_555
Ir2 Ir7 2.692063 1_555
Ir2 Ir5 2.692063 1_555
Ir2 Ir3 3.134821 1_455
Ir2 Ir3 3.134821 1_545
Ir2 Ir3 3.134821 1_554
Ir2 La0 3.140191 1_544
Ir2 La0 3.140191 1_454
Ir2 La0 3.140191 1_445
Ir3 Ir8 2.640827 1_555
Ir3 Ir9 2.640827 1_555
Ir3 Ir6 2.667994 1_655
Ir3 Ir7 2.667994 1_565
Ir3 Ir5 2.667994 1_556
Ir3 La0 3.138574 1_545
Ir3 La0 3.138574 1_455
Ir3 La0 3.138574 1_554
Ir4 Ir6 2.667994 1_555
Ir4 Ir7 2.667994 1_555
Ir4 Ir5 2.667994 1_555
Ir4 La1 3.138574 1_565
Ir4 La1 3.138574 1_655
Ir4 La1 3.138574 1_556
Ir5 Ir6 2.714713 1_555
Ir5 Ir7 2.714713 1_564
Ir5 Ir6 2.714713 1_654
Ir5 Ir7 2.714713 1_555
Ir5 La1 3.373555 1_655
Ir5 La1 3.373555 1_565
Ir5 La0 3.373555 1_544
Ir5 La0 3.373555 1_454
Ir6 Ir7 2.714713 1_465
Ir6 Ir7 2.714713 1_555
Ir6 La1 3.373555 1_565
Ir6 La0 3.373555 1_445
Ir6 La1 3.373555 1_556
Ir6 La0 3.373555 1_454
Ir7 La0 3.373555 1_445
Ir7 La1 3.373555 1_655
Ir7 La1 3.373555 1_556
Ir7 La0 3.373555 1_544
Ir8 Ir9 2.692702 1_555
Ir8 Ir9 2.736724 1_564
Ir8 La2 3.119053 1_455
Ir8 La2 3.119053 1_554
Ir8 La3 3.437461 1_565
Ir8 La0 3.552264 1_554
Ir8 La0 3.552264 1_455
Ir9 La2 3.119053 1_545
Ir9 La2 3.119053 1_455
Ir9 La3 3.437461 1_556
Ir9 La0 3.552264 1_455
Ir9 La0 3.552264 1_545
Ir10 Ir2 2.632077 1_655
Ir10 Ir3 2.640827 1_555
Ir10 Ir8 2.692702 1_555
Ir10 Ir9 2.692702 1_555
Ir10 Ir8 2.736724 1_645
Ir10 Ir9 2.736724 1_654
Ir10 La2 3.119053 1_545
Ir10 La2 3.119053 1_554
Ir10 La3 3.437461 1_655
Ir10 La0 3.552264 1_554
Ir10 La0 3.552264 1_545
Ir11 Ir4 2.640827 1_555
Ir11 Ir13 2.692702 1_555
Ir11 Ir12 2.692702 1_555
Ir11 Ir13 2.736724 1_645
Ir11 Ir12 2.736724 1_546
Ir11 La3 3.119053 1_655
Ir11 La3 3.119053 1_556
Ir11 La2 3.437461 1_545
Ir11 La1 3.552264 1_556
Ir11 La1 3.552264 1_655
Ir12 Ir4 2.640827 1_555
Ir12 Ir13 2.692702 1_555
Ir12 Ir13 2.736724 1_654
Ir12 La3 3.119053 1_565
Ir12 La3 3.119053 1_655
Ir12 La2 3.437461 1_554
Ir12 La1 3.552264 1_565
Ir12 La1 3.552264 1_655
Ir13 Ir4 2.640827 1_555
Ir13 La3 3.119053 1_565
Ir13 La3 3.119053 1_556
Ir13 La2 3.437461 1_455
Ir13 La1 3.552264 1_556
Ir13 La1 3.552264 1_565
