# generated using pymatgen
data_Be46Os7
_symmetry_space_group_name_H-M   'P 1'
_cell_length_a   4.19097189
_cell_length_b   4.19097189
_cell_length_c   32.84571500
_cell_angle_alpha   89.99944710
_cell_angle_beta   90.00055290
_cell_angle_gamma   119.99873540
_symmetry_Int_Tables_number   1
_chemical_formula_structural   Be46Os7
_chemical_formula_sum   'Be46 Os7'
_cell_volume   499.62525424
_cell_formula_units_Z   1
loop_
 _symmetry_equiv_pos_site_id
 _symmetry_equiv_pos_as_xyz
  1  'x, y, z'
loop_
 _atom_site_type_symbol
 _atom_site_label
 _atom_site_symmetry_multiplicity
 _atom_site_fract_x
 _atom_site_fract_y
 _atom_site_fract_z
 _atom_site_occupancy
  Be  Be0  1  0.99999800  0.00000200  0.12359500  1
  Be  Be1  1  0.99999800  0.00000200  0.45795000  1
  Be  Be2  1  0.00000500  0.99999500  0.79237800  1
  Be  Be3  1  0.99999500  0.00000500  0.20995600  1
  Be  Be4  1  0.99999400  0.00000600  0.54072000  1
  Be  Be5  1  0.00000100  0.99999900  0.87517400  1
  Be  Be6  1  0.66666600  0.33333400  0.11489200  1
  Be  Be7  1  0.66666500  0.33333500  0.44780500  1
  Be  Be8  1  0.66665700  0.33334300  0.78160300  1
  Be  Be9  1  0.66667400  0.33332600  0.21875700  1
  Be  Be10  1  0.66666700  0.33333300  0.55163600  1
  Be  Be11  1  0.66666200  0.33333800  0.88537300  1
  Be  Be12  1  0.83369400  0.16630600  0.06122500  1
  Be  Be13  1  0.83688000  0.16312000  0.39585700  1
  Be  Be14  1  0.83829700  0.16170300  0.73055800  1
  Be  Be15  1  0.33260100  0.16630900  0.06122600  1
  Be  Be16  1  0.32622700  0.16311800  0.39585800  1
  Be  Be17  1  0.32339000  0.16170500  0.73055800  1
  Be  Be18  1  0.83369100  0.66739900  0.06122600  1
  Be  Be19  1  0.83688200  0.67377300  0.39585800  1
  Be  Be20  1  0.83829500  0.67661000  0.73055800  1
  Be  Be21  1  0.83722200  0.16277800  0.27092500  1
  Be  Be22  1  0.83812500  0.16187500  0.60278200  1
  Be  Be23  1  0.83352600  0.16647400  0.93862400  1
  Be  Be24  1  0.32553800  0.16278600  0.27092200  1
  Be  Be25  1  0.32373300  0.16187900  0.60278000  1
  Be  Be26  1  0.33292900  0.16648400  0.93862400  1
  Be  Be27  1  0.83721400  0.67446200  0.27092200  1
  Be  Be28  1  0.83812100  0.67626700  0.60278000  1
  Be  Be29  1  0.83351600  0.66707100  0.93862400  1
  Be  Be30  1  0.33331600  0.66668400  0.03249300  1
  Be  Be31  1  0.33332500  0.66667500  0.36521400  1
  Be  Be32  1  0.33332600  0.66667400  0.69716300  1
  Be  Be33  1  0.33332700  0.66667300  0.30116100  1
  Be  Be34  1  0.33332400  0.66667600  0.63589200  1
  Be  Be35  1  0.33331500  0.66668500  0.96809500  1
  Be  Be36  1  0.49525700  0.50474300  0.16728600  1
  Be  Be37  1  0.49555400  0.50444600  0.49947200  1
  Be  Be38  1  0.49547800  0.50452200  0.83331600  1
  Be  Be39  1  0.00950200  0.50474200  0.16728500  1
  Be  Be40  1  0.00889100  0.50444700  0.49947200  1
  Be  Be41  1  0.00904900  0.50452600  0.83331700  1
  Be  Be42  1  0.49525800  0.99049800  0.16728500  1
  Be  Be43  1  0.49555300  0.99110900  0.49947200  1
  Be  Be44  1  0.49547400  0.99095100  0.83331700  1
  Be  Be45  1  0.66671000  0.33329000  0.00010200  1
  Os  Os0  1  0.33333200  0.66666800  0.10316700  1
  Os  Os1  1  0.33333100  0.66666900  0.43387700  1
  Os  Os2  1  0.33332800  0.66667200  0.76878600  1
  Os  Os3  1  0.33333100  0.66666900  0.23241800  1
  Os  Os4  1  0.33332600  0.66667400  0.56393300  1
  Os  Os5  1  0.33332900  0.66667100  0.89795100  1
  Os  Os6  1  0.99999900  0.00000100  0.66644600  1
loop_
_geom_bond_atom_site_label_1
_geom_bond_atom_site_label_2
_geom_bond_distance
_geom_bond_site_symmetry_2
Be0 Be18 2.377797 1_545
Be0 Be15 2.377797 1_655
Be0 Be12 2.377806 1_555
Be0 Be6 2.436458 1_555
Be0 Be6 2.436523 1_545
Be0 Be6 2.436523 1_655
Be0 Os0 2.510963 1_645
Be0 Os0 2.510990 1_655
Be0 Os0 2.510990 1_545
Be0 Be42 2.539963 1_545
Be0 Be39 2.539963 1_655
Be0 Be39 2.540022 1_645
Be0 Be42 2.540022 1_645
Be0 Be36 2.540043 1_545
Be0 Be36 2.540043 1_655
Be1 Be19 2.358263 1_545
Be1 Be16 2.358263 1_655
Be1 Be13 2.358276 1_555
Be1 Be7 2.442474 1_555
Be1 Be7 2.442529 1_545
Be1 Be7 2.442529 1_655
Be1 Be40 2.500415 1_645
Be1 Be43 2.500415 1_645
Be1 Be40 2.500428 1_655
Be1 Be43 2.500428 1_545
Be1 Be37 2.500455 1_545
Be1 Be37 2.500455 1_655
Be1 Os1 2.545565 1_645
Be1 Os1 2.545600 1_545
Be1 Os1 2.545600 1_655
Be2 Be20 2.345358 1_455
Be2 Be8 2.445384 1_565
Be2 Be8 2.445384 1_455
Be2 Be8 2.445491 1_465
Be2 Be44 2.489992 1_555
Be2 Be41 2.489992 1_555
Be2 Be38 2.490052 1_455
Be2 Be38 2.490052 1_565
Be2 Be41 2.490079 1_565
Be2 Be44 2.490079 1_455
Be2 Os2 2.540633 1_555
Be2 Os2 2.540772 1_565
Be2 Os2 2.540772 1_455
Be3 Be9 2.436764 1_555
Be3 Be9 2.436939 1_655
Be3 Be9 2.436939 1_545
Be3 Be39 2.521166 1_655
Be3 Be42 2.521166 1_545
Be3 Be36 2.521247 1_655
Be3 Be36 2.521247 1_545
Be3 Be39 2.521302 1_645
Be3 Be42 2.521302 1_645
Be3 Os3 2.529634 1_645
Be3 Os3 2.529662 1_545
Be3 Os3 2.529662 1_655
Be4 Be40 2.495488 1_655
Be4 Be43 2.495488 1_545
Be4 Be43 2.495561 1_645
Be4 Be40 2.495561 1_645
Be4 Os4 2.536910 1_645
Be4 Os4 2.536980 1_545
Be4 Os4 2.536980 1_655
Be5 Os5 2.532615 1_555
Be5 Os5 2.532727 1_455
Be5 Os5 2.532727 1_565
Be6 Os0 2.450100 1_555
Be6 Os0 2.450145 1_655
Be6 Os0 2.450145 1_545
Be7 Os1 2.462510 1_555
Be7 Os1 2.462556 1_545
Be7 Os1 2.462556 1_655
Be8 Os2 2.455957 1_555
Be8 Os2 2.456056 1_655
Be8 Os2 2.456056 1_545
Be9 Os3 2.460905 1_545
Be9 Os3 2.460905 1_655
Be9 Os3 2.460970 1_555
Be10 Be22 2.090727 1_555
Be10 Be25 2.090744 1_555
Be10 Be28 2.090744 1_555
Be10 Be37 2.116217 1_555
Be10 Be40 2.116243 1_655
Be10 Be43 2.116243 1_545
Be10 Be4 2.446022 1_555
Be10 Be4 2.446130 1_565
Be10 Be4 2.446130 1_455
Be10 Os4 2.453139 1_655
Be10 Os4 2.453139 1_545
Be10 Os4 2.453182 1_555
Be11 Be38 2.113675 1_555
Be11 Be41 2.113720 1_655
Be11 Be44 2.113720 1_545
Be11 Be23 2.127516 1_555
Be11 Be26 2.127556 1_555
Be11 Be29 2.127556 1_555
Be11 Be5 2.442746 1_545
Be11 Be5 2.442746 1_655
Be11 Be5 2.442767 1_645
Be11 Os5 2.454662 1_555
Be11 Os5 2.454704 1_545
Be11 Os5 2.454704 1_655
Be12 Be18 2.090899 1_545
Be12 Be15 2.090899 1_655
Be12 Be15 2.100073 1_555
Be12 Be18 2.100073 1_555
Be12 Be6 2.139460 1_555
Be12 Be30 2.298228 1_545
Be12 Be30 2.298228 1_655
Be12 Be45 2.345158 1_555
Be12 Os0 2.507800 1_545
Be12 Os0 2.507800 1_655
Be13 Be19 2.050844 1_545
Be13 Be16 2.050844 1_655
Be13 Be7 2.106670 1_555
Be13 Be16 2.140128 1_555
Be13 Be19 2.140128 1_555
Be13 Be31 2.324848 1_655
Be13 Be31 2.324848 1_545
Be13 Os1 2.439545 1_655
Be13 Os1 2.439545 1_545
Be14 Be20 2.033007 1_545
Be14 Be17 2.033007 1_655
Be14 Be8 2.088873 1_555
Be14 Be17 2.157965 1_555
Be14 Be20 2.157965 1_555
Be14 Be2 2.345386 1_645
Be14 Be32 2.365519 1_545
Be14 Be32 2.365519 1_655
Be14 Os6 2.410858 1_555
Be14 Os2 2.443180 1_655
Be14 Os2 2.443180 1_545
Be15 Be18 2.090958 1_445
Be15 Be18 2.100094 1_555
Be15 Be6 2.139448 1_555
Be15 Be30 2.298146 1_545
Be15 Be30 2.298263 1_555
Be15 Be45 2.345480 1_555
Be15 Os0 2.507737 1_555
Be15 Os0 2.507760 1_545
Be16 Be19 2.050870 1_445
Be16 Be7 2.106657 1_555
Be16 Be19 2.140182 1_555
Be16 Be31 2.324804 1_545
Be16 Be31 2.324848 1_555
Be16 Os1 2.439487 1_545
Be16 Os1 2.439501 1_555
Be17 Be20 2.033058 1_445
Be17 Be8 2.088842 1_555
Be17 Be20 2.157994 1_555
Be17 Be2 2.345358 1_545
Be17 Be32 2.365479 1_555
Be17 Be32 2.365489 1_545
Be17 Os6 2.410829 1_455
Be17 Os2 2.443141 1_545
Be17 Os2 2.443149 1_555
Be18 Be6 2.139448 1_555
Be18 Be30 2.298146 1_655
Be18 Be30 2.298263 1_555
Be18 Be45 2.345480 1_555
Be18 Os0 2.507737 1_555
Be18 Os0 2.507760 1_655
Be19 Be7 2.106657 1_555
Be19 Be31 2.324804 1_655
Be19 Be31 2.324848 1_555
Be19 Os1 2.439487 1_655
Be19 Os1 2.439501 1_555
Be20 Be8 2.088842 1_555
Be20 Be32 2.365479 1_555
Be20 Be32 2.365489 1_655
Be20 Os6 2.410829 1_565
Be20 Os2 2.443141 1_655
Be20 Os2 2.443149 1_555
Be21 Be27 2.046502 1_545
Be21 Be24 2.046502 1_655
Be21 Be9 2.113919 1_555
Be21 Be24 2.144470 1_555
Be21 Be27 2.144470 1_555
Be21 Be33 2.319121 1_545
Be21 Be33 2.319121 1_655
Be21 Be3 2.325171 1_555
Be21 Os3 2.447799 1_545
Be21 Os3 2.447799 1_655
Be22 Be28 2.035161 1_545
Be22 Be25 2.035161 1_655
Be22 Be25 2.155811 1_555
Be22 Be28 2.155811 1_555
Be22 Be4 2.352877 1_555
Be22 Be34 2.361175 1_655
Be22 Be34 2.361175 1_545
Be22 Os6 2.398604 1_555
Be22 Os4 2.453707 1_545
Be22 Os4 2.453707 1_655
Be23 Be29 2.092963 1_545
Be23 Be26 2.092963 1_655
Be23 Be26 2.098009 1_555
Be23 Be29 2.098009 1_555
Be23 Be35 2.308300 1_545
Be23 Be35 2.308300 1_655
Be23 Be45 2.354543 1_556
Be23 Be5 2.409080 1_645
Be23 Os5 2.485146 1_545
Be23 Os5 2.485146 1_655
Be24 Be27 2.046591 1_445
Be24 Be9 2.113955 1_555
Be24 Be27 2.144461 1_555
Be24 Be33 2.319108 1_555
Be24 Be33 2.319146 1_545
Be24 Be3 2.325075 1_455
Be24 Os3 2.447656 1_555
Be24 Os3 2.447773 1_545
Be25 Be28 2.035225 1_445
Be25 Be28 2.155827 1_555
Be25 Be4 2.352816 1_455
Be25 Be34 2.361153 1_545
Be25 Be34 2.361185 1_555
Be25 Os6 2.398665 1_455
Be25 Os4 2.453623 1_555
Be25 Os4 2.453654 1_545
Be26 Be29 2.093066 1_445
Be26 Be29 2.097986 1_555
Be26 Be35 2.308224 1_545
Be26 Be35 2.308302 1_555
Be26 Be45 2.354816 1_556
Be26 Be5 2.409035 1_545
Be26 Os5 2.485055 1_555
Be26 Os5 2.485169 1_545
Be27 Be9 2.113955 1_555
Be27 Be33 2.319108 1_555
Be27 Be33 2.319146 1_655
Be27 Be3 2.325075 1_565
Be27 Os3 2.447656 1_555
Be27 Os3 2.447773 1_655
Be28 Be4 2.352816 1_565
Be28 Be34 2.361153 1_655
Be28 Be34 2.361185 1_555
Be28 Os6 2.398665 1_565
Be28 Os4 2.453623 1_555
Be28 Os4 2.453654 1_655
Be29 Be35 2.308224 1_655
Be29 Be35 2.308302 1_555
Be29 Be45 2.354816 1_556
Be29 Be5 2.409035 1_655
Be29 Os5 2.485055 1_555
Be29 Os5 2.485169 1_655
Be30 Be35 2.115198 1_554
Be30 Os0 2.321338 1_555
Be31 Be33 2.103867 1_555
Be31 Os1 2.255285 1_555
Be32 Be34 2.012490 1_555
Be32 Os2 2.352509 1_555
Be32 Os6 2.621511 1_465
Be32 Os6 2.621633 1_565
Be32 Os6 2.621633 1_455
Be33 Os3 2.257913 1_555
Be34 Os4 2.363545 1_555
Be34 Os6 2.619463 1_465
Be34 Os6 2.619574 1_455
Be34 Os6 2.619574 1_565
Be35 Os5 2.303930 1_555
Be36 Be39 2.035783 1_555
Be36 Be42 2.035783 1_555
Be36 Be9 2.099138 1_555
Be36 Be6 2.123619 1_555
Be36 Be42 2.155188 1_545
Be36 Be39 2.155188 1_655
Be36 Os0 2.411824 1_555
Be36 Os3 2.440959 1_555
Be37 Be43 2.039593 1_555
Be37 Be40 2.039593 1_555
Be37 Be7 2.103036 1_555
Be37 Be40 2.151379 1_655
Be37 Be43 2.151379 1_545
Be37 Os4 2.422731 1_555
Be37 Os1 2.455308 1_555
Be37 Be4 2.495557 1_565
Be37 Be4 2.495557 1_455
Be38 Be44 2.038619 1_555
Be38 Be41 2.038619 1_555
Be38 Be8 2.104547 1_555
Be38 Be41 2.152353 1_655
Be38 Be44 2.152353 1_545
Be38 Os2 2.424414 1_555
Be38 Os5 2.427449 1_555
Be38 Be5 2.506499 1_655
Be38 Be5 2.506499 1_545
Be39 Be42 2.035829 1_555
Be39 Be9 2.099182 1_455
Be39 Be6 2.123627 1_455
Be39 Be42 2.155223 1_445
Be39 Os0 2.411788 1_555
Be39 Os3 2.440941 1_555
Be40 Be43 2.039626 1_555
Be40 Be7 2.103042 1_455
Be40 Be43 2.151426 1_445
Be40 Os4 2.422687 1_555
Be40 Os1 2.455326 1_555
Be41 Be44 2.038632 1_555
Be41 Be8 2.104643 1_455
Be41 Be44 2.152420 1_445
Be41 Os2 2.424433 1_555
Be41 Os5 2.427382 1_555
Be41 Be5 2.506447 1_555
Be41 Be5 2.506447 1_545
Be42 Be9 2.099182 1_565
Be42 Be6 2.123627 1_565
Be42 Os0 2.411788 1_555
Be42 Os3 2.440941 1_555
Be43 Be7 2.103042 1_565
Be43 Os4 2.422687 1_555
Be43 Os1 2.455326 1_555
Be44 Be8 2.104643 1_565
Be44 Os2 2.424433 1_555
Be44 Os5 2.427382 1_555
Be44 Be5 2.506447 1_555
Be44 Be5 2.506447 1_655
