# generated using pymatgen
data_Pr6CdFe13
_symmetry_space_group_name_H-M   'P 1'
_cell_length_a   8.11746100
_cell_length_b   8.11746100
_cell_length_c   13.13292948
_cell_angle_alpha   108.00198449
_cell_angle_beta   108.00198449
_cell_angle_gamma   90.00000000
_symmetry_Int_Tables_number   1
_chemical_formula_structural   Pr6CdFe13
_chemical_formula_sum   'Pr12 Cd2 Fe26'
_cell_volume   778.34103287
_cell_formula_units_Z   2
loop_
 _symmetry_equiv_pos_site_id
 _symmetry_equiv_pos_as_xyz
  1  'x, y, z'
loop_
 _atom_site_type_symbol
 _atom_site_label
 _atom_site_symmetry_multiplicity
 _atom_site_fract_x
 _atom_site_fract_y
 _atom_site_fract_z
 _atom_site_occupancy
  Pr  Pr0  1  0.97828600  0.47828600  0.63089900  1
  Pr  Pr1  1  0.65261200  0.15261200  0.63089900  1
  Pr  Pr2  1  0.15261200  0.97828600  0.63089900  1
  Pr  Pr3  1  0.47828600  0.65261200  0.63089900  1
  Pr  Pr4  1  0.02171400  0.52171400  0.36910100  1
  Pr  Pr5  1  0.34738800  0.84738800  0.36910100  1
  Pr  Pr6  1  0.84738800  0.02171400  0.36910100  1
  Pr  Pr7  1  0.52171400  0.34738800  0.36910100  1
  Pr  Pr8  1  0.60472100  0.60472100  0.20944200  1
  Pr  Pr9  1  0.10472100  0.10472100  0.20944200  1
  Pr  Pr10  1  0.39527900  0.39527900  0.79055800  1
  Pr  Pr11  1  0.89527900  0.89527900  0.79055800  1
  Cd  Cd0  1  0.25000000  0.25000000  0.50000000  1
  Cd  Cd1  1  0.75000000  0.75000000  0.50000000  1
  Fe  Fe0  1  0.12050800  0.62050800  0.88369200  1
  Fe  Fe1  1  0.76318400  0.26318400  0.88369200  1
  Fe  Fe2  1  0.26318400  0.12050800  0.88369200  1
  Fe  Fe3  1  0.62050800  0.76318400  0.88369200  1
  Fe  Fe4  1  0.87949200  0.37949200  0.11630800  1
  Fe  Fe5  1  0.23681600  0.73681600  0.11630800  1
  Fe  Fe6  1  0.73681600  0.87949200  0.11630800  1
  Fe  Fe7  1  0.37949200  0.23681600  0.11630800  1
  Fe  Fe8  1  0.71102900  0.56631200  0.00000000  1
  Fe  Fe9  1  0.28897100  0.43368800  0.00000000  1
  Fe  Fe10  1  0.78897100  0.06631200  0.00000000  1
  Fe  Fe11  1  0.21102900  0.93368800  0.00000000  1
  Fe  Fe12  1  0.56631200  0.28897100  0.00000000  1
  Fe  Fe13  1  0.43368800  0.71102900  0.00000000  1
  Fe  Fe14  1  0.06631200  0.21102900  0.00000000  1
  Fe  Fe15  1  0.93368800  0.78897100  0.00000000  1
  Fe  Fe16  1  0.29351300  0.79351300  0.81337000  1
  Fe  Fe17  1  0.51985700  0.01985700  0.81337000  1
  Fe  Fe18  1  0.01985700  0.29351300  0.81337000  1
  Fe  Fe19  1  0.79351300  0.51985700  0.81337000  1
  Fe  Fe20  1  0.70648700  0.20648700  0.18663000  1
  Fe  Fe21  1  0.48014300  0.98014300  0.18663000  1
  Fe  Fe22  1  0.98014300  0.70648700  0.18663000  1
  Fe  Fe23  1  0.20648700  0.48014300  0.18663000  1
  Fe  Fe24  1  0.00000000  0.50000000  0.00000000  1
  Fe  Fe25  1  0.50000000  0.00000000  0.00000000  1
loop_
_geom_bond_atom_site_label_1
_geom_bond_atom_site_label_2
_geom_bond_distance
_geom_bond_site_symmetry_2
Cd0 Pr6 3.410071 1_455
Cd0 Pr3 3.410071 1_555
Cd0 Pr5 3.410074 1_545
Cd0 Pr1 3.410074 1_555
Cd0 Pr0 3.410077 1_455
Cd0 Pr4 3.410077 1_555
Cd0 Pr2 3.410080 1_545
Cd0 Pr7 3.410080 1_555
Cd0 Pr9 3.432119 1_555
Cd0 Pr10 3.432119 1_555
Cd1 Pr2 3.410071 1_655
Cd1 Pr7 3.410071 1_555
Cd1 Pr1 3.410074 1_565
Cd1 Pr5 3.410074 1_555
Cd1 Pr4 3.410077 1_655
Cd1 Pr0 3.410077 1_555
Cd1 Pr3 3.410080 1_555
Cd1 Pr6 3.410080 1_565
Cd1 Pr8 3.432119 1_555
Cd1 Pr11 3.432119 1_555
Fe0 Fe24 2.468622 1_556
Fe0 Fe13 2.498414 1_556
Fe0 Fe11 2.498414 1_556
Fe0 Fe16 2.529960 1_555
Fe0 Fe18 2.566034 1_555
Fe0 Fe19 2.566034 1_455
Fe0 Fe9 2.577529 1_556
Fe0 Fe15 2.577529 1_456
Fe0 Fe5 2.747699 1_556
Fe0 Pr0 2.991554 1_455
Fe0 Pr10 3.180813 1_555
Fe0 Pr11 3.180813 1_455
Fe1 Fe24 2.468622 1_656
Fe1 Fe12 2.498414 1_556
Fe1 Fe10 2.498414 1_556
Fe1 Fe17 2.529960 1_555
Fe1 Fe18 2.566034 1_655
Fe1 Fe19 2.566034 1_555
Fe1 Fe14 2.577528 1_656
Fe1 Fe8 2.577528 1_556
Fe1 Fe4 2.747699 1_556
Fe1 Pr1 2.991553 1_555
Fe1 Pr10 3.180813 1_555
Fe1 Pr11 3.180813 1_545
Fe2 Fe25 2.468622 1_556
Fe2 Fe9 2.498414 1_556
Fe2 Fe7 2.747699 1_556
Fe2 Pr2 2.991554 1_545
Fe2 Pr11 3.180813 1_445
Fe2 Pr10 3.180813 1_555
Fe3 Fe8 2.498414 1_556
Fe3 Fe6 2.747699 1_556
Fe3 Pr3 2.991554 1_555
Fe3 Pr10 3.180813 1_555
Fe3 Pr11 3.180813 1_555
Fe4 Fe8 2.577529 1_555
Fe4 Pr4 2.991554 1_655
Fe4 Pr9 3.180813 1_655
Fe4 Pr8 3.180813 1_555
Fe5 Fe9 2.577528 1_555
Fe5 Pr5 2.991553 1_555
Fe5 Pr8 3.180813 1_555
Fe5 Pr9 3.180813 1_565
Fe6 Fe8 2.498414 1_555
Fe6 Pr6 2.991554 1_565
Fe6 Pr9 3.180813 1_665
Fe6 Pr8 3.180813 1_555
Fe7 Fe9 2.498414 1_555
Fe7 Pr7 2.991554 1_555
Fe7 Pr8 3.180813 1_555
Fe7 Pr9 3.180813 1_555
Fe8 Pr10 3.056907 1_554
Fe8 Pr8 3.056907 1_555
Fe9 Pr8 3.056907 1_555
Fe9 Pr10 3.056907 1_554
Fe10 Fe25 2.406680 1_555
Fe10 Fe4 2.498414 1_555
Fe10 Fe14 2.539365 1_655
Fe10 Fe15 2.539365 1_545
Fe10 Fe12 2.556086 1_555
Fe10 Fe3 2.577528 1_544
Fe10 Fe6 2.577529 1_545
Fe10 Fe17 2.653484 1_554
Fe10 Fe20 2.653484 1_555
Fe10 Pr9 3.056907 1_655
Fe10 Pr11 3.056907 1_544
Fe11 Fe25 2.406680 1_565
Fe11 Fe5 2.498414 1_555
Fe11 Fe14 2.539365 1_565
Fe11 Fe15 2.539365 1_455
Fe11 Fe13 2.556086 1_555
Fe11 Fe7 2.577528 1_565
Fe11 Fe2 2.577529 1_564
Fe11 Fe21 2.653484 1_555
Fe11 Fe16 2.653484 1_554
Fe11 Pr11 3.056907 1_454
Fe11 Pr9 3.056907 1_565
Fe12 Fe25 2.406680 1_555
Fe12 Fe4 2.498414 1_555
Fe12 Fe8 2.539365 1_555
Fe12 Fe9 2.539365 1_555
Fe12 Fe2 2.577528 1_554
Fe12 Fe7 2.577529 1_555
Fe12 Fe17 2.653484 1_554
Fe12 Fe20 2.653484 1_555
Fe12 Pr8 3.056907 1_555
Fe12 Pr10 3.056907 1_554
Fe13 Fe25 2.406680 1_565
Fe13 Fe5 2.498414 1_555
Fe13 Fe8 2.539365 1_555
Fe13 Fe9 2.539365 1_555
Fe13 Fe6 2.577528 1_555
Fe13 Fe3 2.577529 1_554
Fe13 Fe21 2.653484 1_555
Fe13 Fe16 2.653484 1_554
Fe13 Pr10 3.056907 1_554
Fe13 Pr8 3.056907 1_555
Fe14 Fe24 2.406680 1_555
Fe14 Fe7 2.498414 1_555
Fe14 Fe2 2.498414 1_554
Fe14 Fe9 2.556086 1_555
Fe14 Fe4 2.577529 1_455
Fe14 Fe23 2.653484 1_555
Fe14 Fe18 2.653484 1_554
Fe14 Pr11 3.056907 1_444
Fe14 Pr9 3.056907 1_555
Fe15 Fe24 2.406680 1_655
Fe15 Fe3 2.498414 1_554
Fe15 Fe6 2.498414 1_555
Fe15 Fe8 2.556086 1_555
Fe15 Fe5 2.577528 1_655
Fe15 Fe19 2.653484 1_554
Fe15 Fe22 2.653484 1_555
Fe15 Pr9 3.056907 1_665
Fe15 Pr11 3.056907 1_554
Fe16 Fe25 2.558856 1_566
Fe16 Fe3 2.566034 1_555
Fe16 Fe2 2.566034 1_565
Fe16 Fe17 2.598389 1_565
Fe16 Pr2 3.134960 1_555
Fe16 Pr3 3.134960 1_555
Fe16 Pr11 3.282765 1_455
Fe16 Pr10 3.282765 1_555
Fe16 Pr0 3.355244 1_455
Fe17 Fe25 2.558856 1_556
Fe17 Fe3 2.566034 1_545
Fe17 Fe2 2.566034 1_555
Fe17 Pr3 3.134965 1_545
Fe17 Pr2 3.134965 1_545
Fe17 Pr10 3.282765 1_555
Fe17 Pr11 3.282765 1_545
Fe17 Pr1 3.355235 1_555
Fe18 Fe2 2.529960 1_555
Fe18 Fe24 2.558856 1_556
Fe18 Fe19 2.598389 1_455
Fe18 Fe9 2.653484 1_556
Fe18 Pr0 3.134959 1_455
Fe18 Pr1 3.134966 1_455
Fe18 Pr11 3.282765 1_445
Fe18 Pr10 3.282765 1_555
Fe18 Pr2 3.355240 1_545
Fe19 Fe3 2.529960 1_555
Fe19 Fe24 2.558856 1_656
Fe19 Fe8 2.653484 1_556
Fe19 Pr0 3.134959 1_555
Fe19 Pr1 3.134966 1_555
Fe19 Pr10 3.282765 1_555
Fe19 Pr11 3.282765 1_555
Fe19 Pr3 3.355240 1_555
Fe20 Fe4 2.529960 1_555
Fe20 Fe25 2.558856 1_555
Fe20 Fe6 2.566034 1_545
Fe20 Fe7 2.566034 1_555
Fe20 Fe21 2.598389 1_545
Fe20 Pr7 3.134960 1_555
Fe20 Pr6 3.134960 1_555
Fe20 Pr8 3.282765 1_555
Fe20 Pr9 3.282765 1_655
Fe20 Pr4 3.355244 1_655
Fe21 Fe5 2.529960 1_555
Fe21 Fe25 2.558856 1_565
Fe21 Fe7 2.566034 1_565
Fe21 Fe6 2.566034 1_555
Fe21 Pr7 3.134965 1_565
Fe21 Pr6 3.134965 1_565
Fe21 Pr9 3.282765 1_565
Fe21 Pr8 3.282765 1_555
Fe21 Pr5 3.355235 1_555
Fe22 Fe6 2.529960 1_555
Fe22 Fe24 2.558856 1_655
Fe22 Fe4 2.566034 1_555
Fe22 Fe5 2.566034 1_655
Fe22 Fe23 2.598389 1_655
Fe22 Fe8 2.653484 1_555
Fe22 Pr4 3.134959 1_655
Fe22 Pr5 3.134966 1_655
Fe22 Pr9 3.282765 1_665
Fe22 Pr8 3.282765 1_555
Fe22 Pr6 3.355240 1_565
Fe23 Fe7 2.529960 1_555
Fe23 Fe24 2.558856 1_555
Fe23 Fe4 2.566034 1_455
Fe23 Fe5 2.566034 1_555
Fe23 Fe9 2.653484 1_555
Fe23 Pr4 3.134959 1_555
Fe23 Pr5 3.134966 1_555
Fe23 Pr8 3.282765 1_555
Fe23 Pr9 3.282765 1_555
Fe23 Pr7 3.355240 1_555
Fe24 Fe9 2.406680 1_555
Fe24 Fe8 2.406680 1_455
Fe24 Fe5 2.468622 1_555
Fe24 Fe4 2.468622 1_455
Fe25 Fe6 2.468622 1_545
Fe25 Fe3 2.468622 1_544
Fe25 Fe7 2.468622 1_555
