# generated using pymatgen
data_Ca2Gd2MnNiO8
_symmetry_space_group_name_H-M   'P 1'
_cell_length_a   5.32730200
_cell_length_b   5.59230784
_cell_length_c   6.43928214
_cell_angle_alpha   90.44193686
_cell_angle_beta   65.56526080
_cell_angle_gamma   90.00000000
_symmetry_Int_Tables_number   1
_chemical_formula_structural   Ca2Gd2MnNiO8
_chemical_formula_sum   'Ca2 Gd2 Mn1 Ni1 O8'
_cell_volume   174.64986621
_cell_formula_units_Z   1
loop_
 _symmetry_equiv_pos_site_id
 _symmetry_equiv_pos_as_xyz
  1  'x, y, z'
loop_
 _atom_site_type_symbol
 _atom_site_label
 _atom_site_symmetry_multiplicity
 _atom_site_fract_x
 _atom_site_fract_y
 _atom_site_fract_z
 _atom_site_occupancy
  Ca  Ca0  1  0.35490200  0.01441400  0.29019700  1
  Ca  Ca1  1  0.14478200  0.52616200  0.71043600  1
  Gd  Gd0  1  0.86195600  0.47329200  0.27608900  1
  Gd  Gd1  1  0.63880500  0.98173300  0.72239000  1
  Mn  Mn0  1  0.49900000  0.49800700  0.00200000  1
  Ni  Ni0  1  0.00036700  0.99732000  0.99926700  1
  O  O0  1  0.76824200  0.25804500  0.95647200  1
  O  O1  1  0.72543900  0.73774100  0.04394100  1
  O  O2  1  0.23062000  0.73774100  0.04394100  1
  O  O3  1  0.27528600  0.25804500  0.95647200  1
  O  O4  1  0.17226300  0.93534400  0.65547300  1
  O  O5  1  0.67232600  0.56818600  0.65534800  1
  O  O6  1  0.33638200  0.43898200  0.32723500  1
  O  O7  1  0.81963000  0.07498900  0.36074000  1
loop_
_geom_bond_atom_site_label_1
_geom_bond_atom_site_label_2
_geom_bond_distance
_geom_bond_site_symmetry_2
Ca0 O4 2.190286 1_545
Ca0 O6 2.382390 1_555
Ca0 O1 2.485460 1_545
Ca0 O2 2.485463 1_545
Ca0 O7 2.716328 1_555
Ca0 O7 2.716333 1_455
Ca0 O0 2.730088 1_554
Ca0 O3 2.730091 1_554
Ca1 O6 2.294783 1_555
Ca1 O4 2.313549 1_555
Ca1 O0 2.487853 1_455
Ca1 O3 2.487853 1_555
Ca1 O2 2.644666 1_556
Ca1 O1 2.644666 1_456
Ca1 O5 2.693669 1_455
Ca1 O5 2.693669 1_555
Gd0 O5 2.281495 1_555
Gd0 O7 2.286148 1_555
Gd0 O2 2.425726 1_655
Gd0 O1 2.425729 1_555
Gd0 O3 2.597272 1_654
Gd0 O0 2.597275 1_554
Gd0 O6 2.687509 1_655
Gd0 O6 2.687520 1_555
Gd1 O7 2.187671 1_565
Gd1 O5 2.342557 1_555
Gd1 O3 2.441139 1_565
Gd1 O0 2.441139 1_565
Gd1 O1 2.682572 1_556
Gd1 O2 2.682572 1_556
Gd1 O4 2.704533 1_655
Gd1 O4 2.704538 1_555
Mn0 O1 1.894584 1_555
Mn0 O2 1.894584 1_555
Mn0 O0 1.894759 1_554
Mn0 O3 1.894759 1_554
Mn0 O6 1.937816 1_555
Mn0 O5 2.073070 1_554
Ni0 O2 1.998252 1_556
Ni0 O1 1.998256 1_456
Ni0 O3 2.004781 1_565
Ni0 O0 2.004785 1_465
Ni0 O4 2.042191 1_555
Ni0 O7 2.159595 1_466
