# generated using pymatgen
data_BaSrHf2O6
_symmetry_space_group_name_H-M   'P 1'
_cell_length_a   5.90410325
_cell_length_b   5.90410325
_cell_length_c   5.90410325
_cell_angle_alpha   120.20340491
_cell_angle_beta   120.20340491
_cell_angle_gamma   89.64805194
_symmetry_Int_Tables_number   1
_chemical_formula_structural   BaSrHf2O6
_chemical_formula_sum   'Ba1 Sr1 Hf2 O6'
_cell_volume   145.07770398
_cell_formula_units_Z   1
loop_
 _symmetry_equiv_pos_site_id
 _symmetry_equiv_pos_as_xyz
  1  'x, y, z'
loop_
 _atom_site_type_symbol
 _atom_site_label
 _atom_site_symmetry_multiplicity
 _atom_site_fract_x
 _atom_site_fract_y
 _atom_site_fract_z
 _atom_site_occupancy
  Ba  Ba0  1  0.50000000  0.50000000  0.00000000  1
  Sr  Sr0  1  0.00000000  0.00000000  0.00000000  1
  Hf  Hf0  1  0.25000000  0.75000000  0.50000000  1
  Hf  Hf1  1  0.75000000  0.25000000  0.50000000  1
  O  O0  1  0.02630500  0.02630500  0.55717300  1
  O  O1  1  0.46913200  0.46913200  0.44282700  1
  O  O2  1  0.97369500  0.53086800  0.00000000  1
  O  O3  1  0.53086800  0.97369500  0.00000000  1
  O  O4  1  0.50000000  0.00000000  0.50000000  1
  O  O5  1  0.00000000  0.50000000  0.50000000  1
loop_
_geom_bond_atom_site_label_1
_geom_bond_atom_site_label_2
_geom_bond_distance
_geom_bond_site_symmetry_2
Ba0 O1 2.803793 1_555
Ba0 O3 2.803793 1_555
Ba0 O0 2.803793 1_554
Ba0 O2 2.803793 1_555
Ba0 O5 2.942971 1_655
Ba0 O4 2.942971 1_554
Ba0 O5 2.942971 1_554
Ba0 O4 2.942971 1_565
Ba0 O0 3.111581 1_665
Ba0 O3 3.111581 1_545
Ba0 O2 3.111581 1_455
Ba0 O1 3.111581 1_554
Hf0 O5 2.093817 1_555
Hf0 O4 2.093817 1_565
Hf0 O3 2.094642 1_556
Hf0 O2 2.094642 1_455
Hf0 O0 2.094642 1_565
Hf0 O1 2.094642 1_555
Hf1 O5 2.093817 1_655
Hf1 O4 2.093817 1_555
Hf1 O3 2.094642 1_545
Hf1 O2 2.094642 1_556
Hf1 O0 2.094642 1_655
Hf1 O1 2.094642 1_555
O0 Sr0 2.775107 1_556
O0 Sr0 3.137192 1_555
O1 Sr0 2.775107 1_555
O1 Sr0 3.137192 1_666
O2 Sr0 2.775107 1_665
O2 Sr0 3.137192 1_655
O3 Sr0 2.775107 1_665
O3 Sr0 3.137192 1_565
O4 Sr0 2.942971 1_555
O4 Sr0 2.942971 1_656
O5 Sr0 2.942971 1_566
O5 Sr0 2.942971 1_555
