# generated using pymatgen
data_HoAl2Ni
_symmetry_space_group_name_H-M   'P 1'
_cell_length_a   4.01476555
_cell_length_b   5.45139570
_cell_length_c   6.83437356
_cell_angle_alpha   90.00000000
_cell_angle_beta   90.00000000
_cell_angle_gamma   111.60668313
_symmetry_Int_Tables_number   1
_chemical_formula_structural   HoAl2Ni
_chemical_formula_sum   'Ho2 Al4 Ni2'
_cell_volume   139.06732725
_cell_formula_units_Z   2
loop_
 _symmetry_equiv_pos_site_id
 _symmetry_equiv_pos_as_xyz
  1  'x, y, z'
loop_
 _atom_site_type_symbol
 _atom_site_label
 _atom_site_symmetry_multiplicity
 _atom_site_fract_x
 _atom_site_fract_y
 _atom_site_fract_z
 _atom_site_occupancy
  Ho  Ho0  1  0.93986237  0.87972475  0.25000000  1
  Ho  Ho1  1  0.06013763  0.12027525  0.75000000  1
  Al  Al0  1  0.34086627  0.68173254  0.94536666  1
  Al  Al1  1  0.65913373  0.31826746  0.05463334  1
  Al  Al2  1  0.65913373  0.31826746  0.44536666  1
  Al  Al3  1  0.34086627  0.68173254  0.55463334  1
  Ni  Ni0  1  0.21555658  0.43111517  0.25000000  1
  Ni  Ni1  1  0.78444342  0.56888483  0.75000000  1
loop_
_geom_bond_atom_site_label_1
_geom_bond_atom_site_label_2
_geom_bond_distance
_geom_bond_site_symmetry_2
Ho0 Ni0 2.794637 1_665
Ho0 Ni0 3.033038 1_655
Ho0 Ni0 3.033043 1_555
Ho0 Ho1 3.628167 1_665
Ho0 Ho1 3.628167 1_664
Ho1 Ni1 2.794637 1_445
Ho1 Ni1 3.033038 1_455
Ho1 Ni1 3.033043 1_555
Al0 Ni0 2.438869 1_556
Al0 Ni1 2.477797 1_455
Al0 Ni1 2.477804 1_555
Al0 Al3 2.670417 1_555
Al0 Al1 2.825036 1_456
Al0 Al1 2.825036 1_556
Al0 Ho0 3.061244 1_556
Al0 Ho0 3.061244 1_456
Al0 Ho1 3.143336 1_555
Al0 Ho1 3.279131 1_665
Al0 Ho1 3.279131 1_565
Al1 Ni1 2.438869 1_554
Al1 Ni0 2.477797 1_655
Al1 Ni0 2.477804 1_555
Al1 Al2 2.670417 1_555
Al1 Ho1 3.061244 1_554
Al1 Ho1 3.061244 1_654
Al1 Ho0 3.143336 1_555
Al1 Ho0 3.279131 1_445
Al1 Ho0 3.279131 1_545
Al2 Ni1 2.438869 1_555
Al2 Ni0 2.477797 1_655
Al2 Ni0 2.477804 1_555
Al2 Al3 2.825036 1_655
Al2 Al3 2.825036 1_555
Al2 Ho1 3.061244 1_555
Al2 Ho1 3.061244 1_655
Al2 Ho0 3.143336 1_555
Al2 Ho0 3.279131 1_445
Al2 Ho0 3.279131 1_545
Al3 Ni0 2.438869 1_555
Al3 Ni1 2.477797 1_455
Al3 Ni1 2.477804 1_555
Al3 Ho0 3.061244 1_555
Al3 Ho0 3.061244 1_455
Al3 Ho1 3.143336 1_555
Al3 Ho1 3.279131 1_665
Al3 Ho1 3.279131 1_565
