# generated using pymatgen
data_Y2O3
_symmetry_space_group_name_H-M   'P 1'
_cell_length_a   12.31494606
_cell_length_b   11.18125823
_cell_length_c   11.65439086
_cell_angle_alpha   95.07478751
_cell_angle_beta   91.29994316
_cell_angle_gamma   93.95222724
_symmetry_Int_Tables_number   1
_chemical_formula_structural   Y2O3
_chemical_formula_sum   'Y40 O60'
_cell_volume   1594.00884595
_cell_formula_units_Z   20
loop_
 _symmetry_equiv_pos_site_id
 _symmetry_equiv_pos_as_xyz
  1  'x, y, z'
loop_
 _atom_site_type_symbol
 _atom_site_label
 _atom_site_symmetry_multiplicity
 _atom_site_fract_x
 _atom_site_fract_y
 _atom_site_fract_z
 _atom_site_occupancy
  Y  Y0  1  0.78993570  0.29289060  0.15707199  1
  Y  Y1  1  0.97739441  0.28052680  0.63554913  1
  Y  Y2  1  0.92912361  0.13180033  0.86499946  1
  Y  Y3  1  0.30290738  0.13970589  0.23969461  1
  Y  Y4  1  0.27950058  0.57061089  0.14913996  1
  Y  Y5  1  0.54450847  0.03253525  0.33463899  1
  Y  Y6  1  0.56801679  0.85545553  0.58782911  1
  Y  Y7  1  0.52274625  0.49456306  0.63729484  1
  Y  Y8  1  0.06619307  0.38072116  0.29808505  1
  Y  Y9  1  0.15038113  0.54343575  0.61330343  1
  Y  Y10  1  0.75147883  0.96726911  0.09562387  1
  Y  Y11  1  0.27972810  0.89639221  0.03705062  1
  Y  Y12  1  0.35988770  0.58079845  0.84257757  1
  Y  Y13  1  0.62283865  0.34924803  0.87318011  1
  Y  Y14  1  0.58096181  0.03196167  0.82843732  1
  Y  Y15  1  0.71924490  0.56407887  0.09305743  1
  Y  Y16  1  0.06483317  0.93390029  0.55385271  1
  Y  Y17  1  0.80455142  0.44829318  0.47818324  1
  Y  Y18  1  0.51832755  0.78149913  0.12356719  1
  Y  Y19  1  0.40544792  0.09824070  0.59798982  1
  Y  Y20  1  0.17917947  0.06283748  0.79591392  1
  Y  Y21  1  0.88192059  0.11125837  0.36259118  1
  Y  Y22  1  0.09036316  0.39083973  0.94267080  1
  Y  Y23  1  0.18997311  0.18256700  0.51055005  1
  Y  Y24  1  0.35939432  0.27484190  0.91696512  1
  Y  Y25  1  0.32300955  0.42397094  0.43470907  1
  Y  Y26  1  0.72524585  0.13927761  0.59412734  1
  Y  Y27  1  0.67537390  0.72224501  0.85243149  1
  Y  Y28  1  0.54440353  0.39843566  0.25512782  1
  Y  Y29  1  0.78641884  0.81497289  0.36833615  1
  Y  Y30  1  0.00210048  0.61201496  0.10712238  1
  Y  Y31  1  0.51472514  0.67065710  0.37041098  1
  Y  Y32  1  0.84886421  0.86813797  0.67480991  1
  Y  Y33  1  0.29949548  0.80848231  0.66678881  1
  Y  Y34  1  0.04601270  0.67166523  0.39970117  1
  Y  Y35  1  0.51711060  0.11174573  0.08791818  1
  Y  Y36  1  0.28941488  0.85295473  0.34785234  1
  Y  Y37  1  0.04161894  0.88428965  0.21539815  1
  Y  Y38  1  0.86350914  0.51686529  0.78810732  1
  Y  Y39  1  0.07004229  0.75936013  0.84908119  1
  O  O0  1  0.58726680  0.94979111  0.99255151  1
  O  O1  1  0.47884331  0.20571640  0.25575926  1
  O  O2  1  0.01115447  0.92308416  0.76468968  1
  O  O3  1  0.20341667  0.26515559  0.33861993  1
  O  O4  1  0.36509052  0.26710690  0.53002733  1
  O  O5  1  0.87210480  0.95076281  0.23539356  1
  O  O6  1  0.01216764  0.56988344  0.91140318  1
  O  O7  1  0.23146781  0.88922958  0.85152614  1
  O  O8  1  0.40992126  0.78959752  0.49780754  1
  O  O9  1  0.07289858  0.80945404  0.03304990  1
  O  O10  1  0.70392158  0.45983230  0.64959456  1
  O  O11  1  0.69378103  0.75675195  0.04424421  1
  O  O12  1  0.36497090  0.44408346  0.24234771  1
  O  O13  1  0.51780474  0.19531958  0.92914827  1
  O  O14  1  0.81439928  0.11790345  0.00235751  1
  O  O15  1  0.58004088  0.59668175  0.20441265  1
  O  O16  1  0.83803449  0.25951505  0.50626301  1
  O  O17  1  0.71436587  0.38166151  0.31643425  1
  O  O18  1  0.52038363  0.66646360  0.75268616  1
  O  O19  1  0.38416359  0.71904443  0.25032083  1
  O  O20  1  0.93443194  0.24416071  0.24719944  1
  O  O21  1  0.36215071  0.03845678  0.39410668  1
  O  O22  1  0.13021058  0.34862499  0.56699033  1
  O  O23  1  0.67696902  0.10365795  0.20797340  1
  O  O24  1  0.14591632  0.68747592  0.22203439  1
  O  O25  1  0.94616603  0.49896785  0.37903093  1
  O  O26  1  0.36738596  0.70916665  0.00947180  1
  O  O27  1  0.24396554  0.98146838  0.60215047  1
  O  O28  1  0.47164596  0.41789475  0.81896608  1
  O  O29  1  0.68199348  0.88833334  0.74299927  1
  O  O30  1  0.45277315  0.94369669  0.71351357  1
  O  O31  1  0.43408141  0.95174555  0.16728738  1
  O  O32  1  0.91730118  0.79794877  0.50874819  1
  O  O33  1  0.60807478  0.85151557  0.29195729  1
  O  O34  1  0.17467134  0.53074963  0.41571583  1
  O  O35  1  0.63450849  0.36994592  0.07710126  1
  O  O36  1  0.08262295  0.13184900  0.66119792  1
  O  O37  1  0.10210645  0.19273929  0.92098958  1
  O  O38  1  0.71111953  0.53579038  0.90138127  1
  O  O39  1  0.33770758  0.53121198  0.62337322  1
  O  O40  1  0.93384711  0.32353685  0.82194436  1
  O  O41  1  0.86533496  0.46526568  0.10001513  1
  O  O42  1  0.21000200  0.96407800  0.19973593  1
  O  O43  1  0.50566701  0.49024118  0.44122404  1
  O  O44  1  0.32295892  0.17438471  0.76096500  1
  O  O45  1  0.66356004  0.72563178  0.48588142  1
  O  O46  1  0.13734143  0.74047191  0.57976225  1
  O  O47  1  0.56522230  0.04519233  0.52689885  1
  O  O48  1  0.33071583  0.11974453  0.04252646  1
  O  O49  1  0.26909656  0.44690739  0.95001951  1
  O  O50  1  0.03496640  0.08200007  0.43449897  1
  O  O51  1  0.95837167  0.48596766  0.63458986  1
  O  O52  1  0.11626131  0.86184198  0.38502711  1
  O  O53  1  0.21045006  0.65173016  0.77997697  1
  O  O54  1  0.85450367  0.07827827  0.69698565  1
  O  O55  1  0.64463749  0.19363670  0.74989181  1
  O  O56  1  0.91786930  0.71846384  0.24799062  1
  O  O57  1  0.77321702  0.98818656  0.46900977  1
  O  O58  1  0.10645212  0.45200729  0.12655150  1
  O  O59  1  0.84768793  0.71844480  0.78972345  1
loop_
_geom_bond_atom_site_label_1
_geom_bond_atom_site_label_2
_geom_bond_distance
_geom_bond_site_symmetry_2
O0 Y14 2.195992 1_565
O0 Y35 2.272470 1_566
O0 Y10 2.316138 1_556
O0 Y18 2.634384 1_556
O1 Y35 2.213330 1_555
O1 Y3 2.238494 1_555
O1 Y28 2.249112 1_555
O1 Y5 2.397012 1_555
O2 Y32 2.256319 1_455
O2 Y39 2.305139 1_555
O2 Y20 2.505071 1_565
O2 Y16 2.569938 1_555
O2 Y2 2.780163 1_465
O3 Y3 2.193812 1_555
O3 Y8 2.263055 1_555
O3 Y23 2.283957 1_555
O3 Y25 2.406100 1_555
O4 Y19 2.194425 1_555
O4 Y25 2.241154 1_555
O4 Y23 2.292297 1_555
O5 Y10 2.208027 1_555
O5 Y21 2.218980 1_565
O5 Y37 2.273751 1_655
O5 Y29 2.467540 1_555
O6 Y30 2.295861 1_556
O6 Y38 2.312595 1_455
O6 Y22 2.333824 1_555
O6 Y39 2.368862 1_555
O7 Y11 2.222416 1_556
O7 Y20 2.231309 1_565
O7 Y39 2.377715 1_555
O7 Y33 2.448390 1_555
O8 Y6 2.237529 1_555
O8 Y31 2.369196 1_555
O8 Y33 2.420711 1_555
O8 Y36 2.450449 1_555
O9 Y39 2.166401 1_554
O9 Y37 2.265353 1_555
O9 Y30 2.546557 1_555
O9 Y11 2.660842 1_555
O10 Y7 2.294389 1_555
O10 Y17 2.373171 1_555
O10 Y38 2.525112 1_555
O11 Y27 2.238280 1_554
O11 Y15 2.316236 1_555
O11 Y18 2.393243 1_555
O11 Y10 2.429982 1_555
O12 Y4 2.171322 1_555
O12 Y28 2.306397 1_555
O12 Y25 2.338643 1_555
O13 Y35 2.145381 1_556
O13 Y24 2.205748 1_555
O13 Y13 2.234012 1_555
O13 Y14 2.275262 1_555
O14 Y2 2.167768 1_554
O14 Y10 2.191094 1_545
O14 Y0 2.579129 1_555
O15 Y15 2.204382 1_555
O15 Y31 2.225554 1_555
O15 Y28 2.359004 1_555
O15 Y18 2.502837 1_555
O16 Y26 2.199083 1_555
O16 Y17 2.229027 1_555
O16 Y1 2.243955 1_555
O16 Y21 2.348873 1_555
O17 Y17 2.210112 1_555
O17 Y28 2.221849 1_555
O17 Y0 2.276041 1_555
O18 Y27 2.233926 1_555
O18 Y7 2.248534 1_555
O18 Y12 2.435579 1_555
O18 Y6 3.016544 1_555
O19 Y36 2.212529 1_555
O19 Y31 2.233498 1_555
O19 Y4 2.257491 1_555
O19 Y18 2.352427 1_555
O20 Y21 2.166912 1_555
O20 Y0 2.171810 1_555
O20 Y8 2.184195 1_655
O21 Y36 2.217927 1_545
O21 Y3 2.338185 1_555
O21 Y5 2.368755 1_555
O21 Y19 2.447353 1_555
O21 Y23 3.024674 1_555
O22 Y23 2.101445 1_555
O22 Y1 2.176728 1_455
O22 Y9 2.192955 1_555
O23 Y10 2.185446 1_545
O23 Y5 2.368689 1_555
O23 Y35 2.400704 1_555
O23 Y0 2.572526 1_555
O23 Y21 3.059695 1_555
O24 Y30 2.264656 1_555
O24 Y4 2.301917 1_555
O24 Y34 2.445945 1_555
O24 Y37 2.629391 1_555
O24 Y36 2.765543 1_555
O25 Y17 2.183774 1_555
O25 Y34 2.208074 1_655
O25 Y8 2.221462 1_655
O26 Y12 2.309019 1_554
O26 Y18 2.316867 1_555
O26 Y11 2.420589 1_555
O26 Y4 2.552641 1_555
O27 Y33 2.278818 1_555
O27 Y16 2.279285 1_555
O27 Y19 2.306397 1_565
O27 Y20 2.526278 1_565
O27 Y23 2.690024 1_565
O28 Y13 2.164385 1_555
O28 Y12 2.358335 1_555
O28 Y24 2.421538 1_555
O28 Y7 2.433290 1_555
O29 Y32 2.238729 1_555
O29 Y6 2.252050 1_555
O29 Y14 2.273174 1_565
O29 Y27 2.341963 1_555
O30 Y14 2.171507 1_565
O30 Y6 2.272641 1_555
O30 Y33 2.357891 1_555
O30 Y19 2.377631 1_565
O31 Y18 2.254820 1_555
O31 Y35 2.277098 1_565
O31 Y11 2.416782 1_555
O31 Y5 2.422386 1_565
O32 Y32 2.228963 1_555
O32 Y29 2.299945 1_555
O32 Y16 2.307072 1_655
O32 Y34 2.490747 1_655
O33 Y5 2.239395 1_565
O33 Y18 2.279535 1_555
O33 Y29 2.425362 1_555
O33 Y31 2.510239 1_555
O34 Y25 2.267293 1_555
O34 Y9 2.321990 1_555
O34 Y34 2.326055 1_555
O34 Y8 2.383110 1_555
O35 Y15 2.332978 1_555
O35 Y0 2.358622 1_555
O35 Y13 2.367477 1_554
O35 Y28 2.381972 1_555
O36 Y20 2.174962 1_555
O36 Y1 2.213495 1_455
O36 Y23 2.308664 1_555
O36 Y16 2.437772 1_545
O37 Y22 2.222125 1_555
O37 Y20 2.239113 1_555
O37 Y2 2.255286 1_455
O38 Y15 2.227268 1_556
O38 Y13 2.278237 1_555
O38 Y27 2.278405 1_555
O38 Y38 2.329628 1_555
O39 Y9 2.321277 1_555
O39 Y7 2.347470 1_555
O39 Y25 2.406396 1_555
O39 Y12 2.570087 1_555
O40 Y2 2.241814 1_555
O40 Y1 2.267476 1_555
O40 Y22 2.398087 1_655
O40 Y38 2.443769 1_555
O41 Y15 2.178818 1_555
O41 Y0 2.242134 1_555
O41 Y30 2.263762 1_655
O42 Y11 2.194195 1_555
O42 Y3 2.210541 1_565
O42 Y37 2.218135 1_555
O42 Y36 2.439335 1_555
O43 Y31 2.242906 1_555
O43 Y7 2.285924 1_555
O43 Y25 2.316729 1_555
O43 Y28 2.388663 1_555
O44 Y24 2.073804 1_555
O44 Y20 2.162134 1_555
O44 Y19 2.298939 1_555
O45 Y6 2.212907 1_555
O45 Y31 2.266006 1_555
O45 Y29 2.300333 1_555
O46 Y33 2.270896 1_555
O46 Y9 2.287044 1_555
O46 Y34 2.397621 1_555
O46 Y16 2.436312 1_555
O47 Y5 2.240245 1_555
O47 Y19 2.248929 1_555
O47 Y26 2.258871 1_555
O47 Y6 2.298184 1_545
O48 Y3 2.324399 1_555
O48 Y35 2.353397 1_555
O48 Y24 2.379383 1_554
O48 Y11 2.527642 1_545
O49 Y22 2.244301 1_555
O49 Y12 2.285540 1_555
O49 Y24 2.295568 1_555
O49 Y4 2.590191 1_556
O50 Y21 2.103201 1_455
O50 Y23 2.268241 1_555
O50 Y16 2.297943 1_545
O51 Y38 2.174004 1_555
O51 Y1 2.325988 1_555
O51 Y9 2.431269 1_655
O51 Y17 2.585721 1_555
O52 Y16 2.183573 1_555
O52 Y36 2.192743 1_555
O52 Y37 2.203024 1_555
O52 Y34 2.262026 1_555
O53 Y12 2.188768 1_555
O53 Y9 2.276370 1_555
O53 Y39 2.294621 1_555
O53 Y33 2.494847 1_555
O54 Y26 2.154938 1_555
O54 Y2 2.161476 1_555
O54 Y32 2.337018 1_545
O54 Y1 2.789402 1_555
O55 Y26 2.149430 1_555
O55 Y13 2.191704 1_555
O55 Y14 2.202424 1_555
O56 Y30 2.256038 1_655
O56 Y37 2.380326 1_655
O56 Y29 2.414165 1_555
O56 Y34 2.457887 1_655
O57 Y29 2.191821 1_555
O57 Y26 2.251698 1_565
O57 Y21 2.312409 1_565
O58 Y22 2.191415 1_554
O58 Y8 2.269360 1_555
O58 Y30 2.297596 1_555
O58 Y4 2.427481 1_555
O59 Y32 2.233687 1_555
O59 Y27 2.261914 1_555
O59 Y38 2.274122 1_555
O59 Y39 2.805604 1_655
