# generated using pymatgen
data_PuSb3
_symmetry_space_group_name_H-M   'P 1'
_cell_length_a   6.09525184
_cell_length_b   6.09525184
_cell_length_c   6.09525184
_cell_angle_alpha   137.70358516
_cell_angle_beta   137.70358516
_cell_angle_gamma   61.35727616
_symmetry_Int_Tables_number   1
_chemical_formula_structural   PuSb3
_chemical_formula_sum   'Pu1 Sb3'
_cell_volume   101.40135821
_cell_formula_units_Z   1
loop_
 _symmetry_equiv_pos_site_id
 _symmetry_equiv_pos_as_xyz
  1  'x, y, z'
loop_
 _atom_site_type_symbol
 _atom_site_label
 _atom_site_symmetry_multiplicity
 _atom_site_fract_x
 _atom_site_fract_y
 _atom_site_fract_z
 _atom_site_occupancy
  Pu  Pu0  1  0.00000000  0.00000000  0.00000000  1
  Sb  Sb0  1  0.75000000  0.25000000  0.50000000  1
  Sb  Sb1  1  0.25000000  0.75000000  0.50000000  1
  Sb  Sb2  1  0.50000000  0.50000000  0.00000000  1
loop_
_geom_bond_atom_site_label_1
_geom_bond_atom_site_label_2
_geom_bond_distance
_geom_bond_site_symmetry_2
Pu0 Sb2 3.109933 1_444
Pu0 Sb2 3.109933 1_545
Pu0 Sb2 3.109933 1_556
Pu0 Sb2 3.109933 1_455
Pu0 Sb0 3.421395 1_444
Pu0 Sb1 3.421395 1_544
Pu0 Sb0 3.421395 1_454
Pu0 Sb0 3.421395 1_455
Pu0 Sb1 3.421395 1_545
Pu0 Sb1 3.421395 1_555
Pu0 Sb0 3.421395 1_555
Pu0 Sb1 3.421395 1_444
Sb0 Sb1 3.109933 1_645
Sb0 Sb1 3.109933 1_555
Sb0 Sb1 3.109933 1_544
Sb0 Sb1 3.109933 1_656
Sb0 Sb2 3.421395 1_545
Sb0 Sb2 3.421395 1_555
Sb0 Sb2 3.421395 1_556
Sb0 Sb2 3.421395 1_656
Sb1 Sb2 3.421395 1_555
Sb1 Sb2 3.421395 1_556
Sb1 Sb2 3.421395 1_566
Sb1 Sb2 3.421395 1_455
