# generated using pymatgen
data_Mg(MnS2)2
_symmetry_space_group_name_H-M   'P 1'
_cell_length_a   7.28987493
_cell_length_b   7.28987493
_cell_length_c   7.28987493
_cell_angle_alpha   60.00000000
_cell_angle_beta   60.00000000
_cell_angle_gamma   60.00000000
_symmetry_Int_Tables_number   1
_chemical_formula_structural   Mg(MnS2)2
_chemical_formula_sum   'Mg2 Mn4 S8'
_cell_volume   273.93355581
_cell_formula_units_Z   2
loop_
 _symmetry_equiv_pos_site_id
 _symmetry_equiv_pos_as_xyz
  1  'x, y, z'
loop_
 _atom_site_type_symbol
 _atom_site_label
 _atom_site_symmetry_multiplicity
 _atom_site_fract_x
 _atom_site_fract_y
 _atom_site_fract_z
 _atom_site_occupancy
  Mg  Mg0  1  0.00000000  0.00000000  0.00000000  1
  Mg  Mg1  1  0.25000000  0.25000000  0.25000000  1
  Mn  Mn0  1  0.62500000  0.62500000  0.62500000  1
  Mn  Mn1  1  0.12500000  0.62500000  0.62500000  1
  Mn  Mn2  1  0.62500000  0.12500000  0.62500000  1
  Mn  Mn3  1  0.62500000  0.62500000  0.12500000  1
  S  S0  1  0.86298900  0.86298900  0.86298900  1
  S  S1  1  0.83896700  0.38701100  0.38701100  1
  S  S2  1  0.38701100  0.38701100  0.83896700  1
  S  S3  1  0.38701100  0.83896700  0.38701100  1
  S  S4  1  0.86298900  0.86298900  0.41103300  1
  S  S5  1  0.86298900  0.41103300  0.86298900  1
  S  S6  1  0.38701100  0.38701100  0.38701100  1
  S  S7  1  0.41103300  0.86298900  0.86298900  1
loop_
_geom_bond_atom_site_label_1
_geom_bond_atom_site_label_2
_geom_bond_distance
_geom_bond_site_symmetry_2
Mg0 S5 2.446533 1_454
Mg0 S4 2.446533 1_445
Mg0 S7 2.446533 1_544
Mg0 S0 2.446533 1_444
Mg1 S6 2.446533 1_555
Mg1 S1 2.446533 1_455
Mg1 S3 2.446533 1_545
Mg1 S2 2.446533 1_554
Mn0 S5 2.459775 1_555
Mn0 S7 2.459775 1_555
Mn0 S4 2.459775 1_555
Mn0 S1 2.459775 1_555
Mn0 S3 2.459775 1_555
Mn0 S2 2.459775 1_555
Mn1 S2 2.459775 1_555
Mn1 S3 2.459775 1_555
Mn1 S5 2.459775 1_455
Mn1 S0 2.459775 1_455
Mn1 S6 2.459775 1_555
Mn1 S4 2.459775 1_455
Mn2 S2 2.459775 1_555
Mn2 S1 2.459775 1_555
Mn2 S0 2.459775 1_545
Mn2 S7 2.459775 1_545
Mn2 S4 2.459775 1_545
Mn2 S6 2.459775 1_555
Mn3 S3 2.459775 1_555
Mn3 S1 2.459775 1_555
Mn3 S5 2.459775 1_554
Mn3 S0 2.459775 1_554
Mn3 S6 2.459775 1_555
Mn3 S7 2.459775 1_554
