# generated using pymatgen
data_Cs3Ge9(H3N)2
_symmetry_space_group_name_H-M   'P 1'
_cell_length_a   9.75379626
_cell_length_b   14.95071796
_cell_length_c   15.89180401
_cell_angle_alpha   90.00000000
_cell_angle_beta   92.85461917
_cell_angle_gamma   90.00000000
_symmetry_Int_Tables_number   1
_chemical_formula_structural   Cs3Ge9(H3N)2
_chemical_formula_sum   'Cs12 Ge36 H24 N8'
_cell_volume   2314.56661708
_cell_formula_units_Z   4
loop_
 _symmetry_equiv_pos_site_id
 _symmetry_equiv_pos_as_xyz
  1  'x, y, z'
loop_
 _atom_site_type_symbol
 _atom_site_label
 _atom_site_symmetry_multiplicity
 _atom_site_fract_x
 _atom_site_fract_y
 _atom_site_fract_z
 _atom_site_occupancy
  Cs  Cs0  1  0.44366493  0.89418054  0.10976023  1
  Cs  Cs1  1  0.94366493  0.60581946  0.60976023  1
  Cs  Cs2  1  0.55633507  0.10581946  0.89023977  1
  Cs  Cs3  1  0.05633507  0.39418054  0.39023977  1
  Cs  Cs4  1  0.93842380  0.76735690  0.15324398  1
  Cs  Cs5  1  0.43842380  0.73264310  0.65324398  1
  Cs  Cs6  1  0.06157620  0.23264310  0.84675602  1
  Cs  Cs7  1  0.56157620  0.26735690  0.34675602  1
  Cs  Cs8  1  0.27494255  0.55084098  0.01400587  1
  Cs  Cs9  1  0.77494255  0.94915902  0.51400587  1
  Cs  Cs10  1  0.72505745  0.44915902  0.98599413  1
  Cs  Cs11  1  0.22505745  0.05084098  0.48599413  1
  Ge  Ge0  1  0.24281770  0.14434713  0.09730084  1
  Ge  Ge1  1  0.74281770  0.35565287  0.59730084  1
  Ge  Ge2  1  0.75718230  0.85565287  0.90269916  1
  Ge  Ge3  1  0.25718230  0.64434713  0.40269916  1
  Ge  Ge4  1  0.61491246  0.75902306  0.30197070  1
  Ge  Ge5  1  0.11491246  0.74097694  0.80197070  1
  Ge  Ge6  1  0.38508754  0.24097694  0.69802930  1
  Ge  Ge7  1  0.88508754  0.25902306  0.19802930  1
  Ge  Ge8  1  0.33329646  0.71269135  0.26275269  1
  Ge  Ge9  1  0.83329646  0.78730865  0.76275269  1
  Ge  Ge10  1  0.66670354  0.28730865  0.73724731  1
  Ge  Ge11  1  0.16670354  0.21269135  0.23724731  1
  Ge  Ge12  1  0.15119591  0.79510680  0.95517243  1
  Ge  Ge13  1  0.65119591  0.70489320  0.45517243  1
  Ge  Ge14  1  0.84880409  0.20489320  0.04482757  1
  Ge  Ge15  1  0.34880409  0.29510680  0.54482757  1
  Ge  Ge16  1  0.82948141  0.07418878  0.15873199  1
  Ge  Ge17  1  0.32948141  0.42581122  0.65873199  1
  Ge  Ge18  1  0.17051859  0.92581122  0.84126801  1
  Ge  Ge19  1  0.67051859  0.57418878  0.34126801  1
  Ge  Ge20  1  0.98283756  0.92634069  0.95893340  1
  Ge  Ge21  1  0.48283756  0.57365931  0.45893340  1
  Ge  Ge22  1  0.01716244  0.07365931  0.04106660  1
  Ge  Ge23  1  0.51716244  0.42634069  0.54106660  1
  Ge  Ge24  1  0.10603913  0.03315117  0.19761246  1
  Ge  Ge25  1  0.60603913  0.46684883  0.69761246  1
  Ge  Ge26  1  0.89396087  0.96684883  0.80238754  1
  Ge  Ge27  1  0.39396087  0.53315117  0.30238754  1
  Ge  Ge28  1  0.91854419  0.70994427  0.90543495  1
  Ge  Ge29  1  0.41854419  0.79005573  0.40543495  1
  Ge  Ge30  1  0.08145581  0.29005573  0.09456505  1
  Ge  Ge31  1  0.58145581  0.20994427  0.59456505  1
  Ge  Ge32  1  0.54232742  0.62750637  0.20182090  1
  Ge  Ge33  1  0.04232742  0.87249363  0.70182090  1
  Ge  Ge34  1  0.45767258  0.37249363  0.79817910  1
  Ge  Ge35  1  0.95767258  0.12750637  0.29817910  1
  H  H0  1  0.90990368  0.53243955  0.20409433  1
  H  H1  1  0.40990368  0.96756045  0.70409433  1
  H  H2  1  0.09009632  0.46756045  0.79590567  1
  H  H3  1  0.59009632  0.03243955  0.29590567  1
  H  H4  1  0.07652635  0.54687444  0.20967560  1
  H  H5  1  0.57652635  0.95312556  0.70967560  1
  H  H6  1  0.92347365  0.45312556  0.79032440  1
  H  H7  1  0.42347365  0.04687444  0.29032440  1
  H  H8  1  0.00511627  0.48516807  0.13548926  1
  H  H9  1  0.50511627  0.01483193  0.63548926  1
  H  H10  1  0.99488373  0.51483193  0.86451074  1
  H  H11  1  0.49488373  0.98516807  0.36451074  1
  H  H12  1  0.61289790  0.64937144  0.90965781  1
  H  H13  1  0.11289790  0.85062856  0.40965781  1
  H  H14  1  0.38710210  0.35062856  0.09034219  1
  H  H15  1  0.88710210  0.14937144  0.59034219  1
  H  H16  1  0.45776591  0.68753392  0.89385061  1
  H  H17  1  0.95776591  0.81246608  0.39385061  1
  H  H18  1  0.54223409  0.31246608  0.10614939  1
  H  H19  1  0.04223409  0.18753392  0.60614939  1
  H  H20  1  0.50533736  0.59662320  0.84491393  1
  H  H21  1  0.00533736  0.90337680  0.34491393  1
  H  H22  1  0.49466264  0.40337680  0.15508607  1
  H  H23  1  0.99466264  0.09662320  0.65508607  1
  N  N0  1  0.99264818  0.54385870  0.16798817  1
  N  N1  1  0.49264818  0.95614130  0.66798817  1
  N  N2  1  0.00735182  0.45614130  0.83201183  1
  N  N3  1  0.50735182  0.04385870  0.33201183  1
  N  N4  1  0.51241593  0.62920027  0.90184625  1
  N  N5  1  0.01241593  0.87079973  0.40184625  1
  N  N6  1  0.48758407  0.37079973  0.09815375  1
  N  N7  1  0.98758407  0.12920027  0.59815375  1
loop_
_geom_bond_atom_site_label_1
_geom_bond_atom_site_label_2
_geom_bond_distance
_geom_bond_site_symmetry_2
Cs0 Ge8 3.833201 1_555
Cs0 Ge12 3.958416 1_554
Cs0 Ge4 3.961742 1_555
Cs0 Ge24 4.191507 1_565
Cs0 Ge0 4.222228 1_565
Cs1 Ge9 3.833201 1_555
Cs1 Ge13 3.958416 1_555
Cs1 Ge5 3.961742 1_655
Cs1 Ge25 4.191507 1_555
Cs1 Ge1 4.222228 1_555
Cs2 Ge10 3.833201 1_555
Cs2 Ge14 3.958416 1_556
Cs2 Ge6 3.961742 1_555
Cs2 Ge26 4.191507 1_545
Cs2 Ge2 4.222228 1_545
Cs3 Ge11 3.833201 1_555
Cs3 Ge15 3.958416 1_555
Cs3 Ge7 3.961742 1_455
Cs3 Ge27 4.191507 1_555
Cs3 Ge3 4.222228 1_555
Cs4 N0 3.389341 1_555
Cs4 Ge12 3.877875 1_654
Cs4 Ge20 3.937775 1_554
Cs4 Ge28 4.025818 1_554
Cs4 Ge4 4.037527 1_555
Cs4 Ge8 4.226472 1_655
Cs4 Ge24 4.341244 1_665
Cs5 N1 3.389341 1_555
Cs5 Ge13 3.877875 1_555
Cs5 Ge21 3.937775 1_555
Cs5 Ge29 4.025818 1_555
Cs5 Ge5 4.037527 1_555
Cs5 Ge9 4.226472 1_555
Cs5 Ge25 4.341244 1_555
Cs6 N2 3.389341 1_555
Cs6 Ge14 3.877875 1_456
Cs6 Ge22 3.937775 1_556
Cs6 Ge30 4.025818 1_556
Cs6 Ge6 4.037527 1_555
Cs6 Ge10 4.226472 1_455
Cs6 Ge26 4.341244 1_445
Cs7 N3 3.389341 1_555
Cs7 Ge15 3.877875 1_555
Cs7 Ge23 3.937775 1_555
Cs7 Ge31 4.025818 1_555
Cs7 Ge7 4.037527 1_555
Cs7 Ge11 4.226472 1_555
Cs7 Ge27 4.341244 1_555
Cs8 N4 3.213379 1_554
Cs8 Ge12 3.944027 1_554
Cs8 Ge32 4.030974 1_555
Cs9 N5 3.213379 1_655
Cs9 Ge13 3.944027 1_555
Cs9 Ge33 4.030974 1_655
Cs10 N6 3.213379 1_556
Cs10 Ge14 3.944027 1_556
Cs10 Ge34 4.030974 1_555
Cs11 N7 3.213379 1_455
Cs11 Ge15 3.944027 1_555
Cs11 Ge35 4.030974 1_455
Ge0 Ge22 2.562030 1_555
Ge0 Ge11 2.589569 1_555
Ge0 Ge30 2.686605 1_555
Ge0 Ge24 2.701243 1_555
Ge1 Ge23 2.562030 1_555
Ge1 Ge10 2.589569 1_555
Ge1 Ge31 2.686605 1_555
Ge1 Ge25 2.701243 1_555
Ge2 Ge20 2.562030 1_555
Ge2 Ge9 2.589569 1_555
Ge2 Ge28 2.686605 1_555
Ge2 Ge26 2.701243 1_555
Ge3 Ge8 2.589569 1_555
Ge4 Ge8 2.871026 1_555
Ge5 Ge9 2.871026 1_455
Ge10 Ge34 2.629290 1_555
Ge10 Ge31 2.642515 1_555
Ge10 Ge25 2.813353 1_555
Ge10 Ge6 2.871026 1_555
Ge11 Ge35 2.629290 1_455
Ge11 Ge30 2.642515 1_555
Ge11 Ge24 2.813353 1_555
Ge11 Ge7 2.871026 1_455
Ge12 Ge20 2.561163 1_455
Ge12 Ge5 2.573303 1_555
Ge12 Ge18 2.676703 1_555
Ge12 Ge28 2.686389 1_455
Ge13 Ge21 2.561163 1_555
Ge13 Ge4 2.573303 1_555
Ge13 Ge19 2.676703 1_555
Ge13 Ge29 2.686389 1_555
Ge14 Ge22 2.561163 1_655
Ge14 Ge7 2.573303 1_555
Ge14 Ge16 2.676703 1_555
Ge14 Ge30 2.686389 1_655
Ge15 Ge23 2.561163 1_555
Ge15 Ge6 2.573303 1_555
Ge15 Ge17 2.676703 1_555
Ge15 Ge31 2.686389 1_555
Ge16 Ge35 2.614147 1_555
Ge16 Ge22 2.681176 1_655
Ge16 Ge24 2.805109 1_655
Ge16 Ge7 2.878688 1_555
Ge17 Ge34 2.614147 1_555
Ge17 Ge23 2.681176 1_555
Ge17 Ge25 2.805109 1_555
Ge17 Ge6 2.878688 1_555
Ge18 Ge33 2.614147 1_555
Ge18 Ge20 2.681176 1_455
Ge18 Ge26 2.805109 1_455
Ge18 Ge5 2.878688 1_555
Ge19 Ge32 2.614147 1_555
Ge19 Ge21 2.681176 1_555
Ge19 Ge27 2.805109 1_555
Ge19 Ge4 2.878688 1_555
Ge20 Ge22 2.573581 1_666
Ge20 Ge26 2.663192 1_555
Ge21 Ge3 2.562030 1_555
Ge21 Ge23 2.573581 1_555
Ge21 Ge27 2.663192 1_555
Ge22 Ge24 2.663192 1_555
Ge23 Ge25 2.663192 1_555
Ge24 Ge35 2.620835 1_455
Ge25 Ge34 2.620835 1_555
Ge26 Ge33 2.620835 1_655
Ge26 Ge9 2.813353 1_555
Ge27 Ge32 2.620835 1_555
Ge27 Ge3 2.701243 1_555
Ge27 Ge8 2.813353 1_555
Ge28 Ge5 2.626967 1_655
Ge28 Ge9 2.642515 1_555
Ge29 Ge4 2.626967 1_555
Ge29 Ge8 2.642515 1_555
Ge29 Ge3 2.686605 1_555
Ge30 Ge7 2.626967 1_455
Ge31 Ge6 2.626967 1_555
Ge32 Ge4 2.605433 1_555
Ge32 Ge8 2.629290 1_555
Ge33 Ge5 2.605433 1_555
Ge33 Ge9 2.629290 1_455
Ge34 Ge6 2.605433 1_555
Ge35 Ge7 2.605433 1_555
H0 N0 1.027559 1_555
H1 N1 1.027559 1_555
H2 N2 1.027559 1_555
H3 N3 1.027559 1_555
H4 N0 1.027753 1_455
H5 N1 1.027753 1_555
H6 N2 1.027753 1_655
H7 N3 1.027753 1_555
H8 N0 1.028461 1_455
H9 N1 1.028461 1_545
H10 N2 1.028461 1_655
H11 N3 1.028461 1_565
H12 N4 1.027033 1_555
H13 N5 1.027033 1_555
H14 N6 1.027033 1_555
H15 N7 1.027033 1_555
H16 N4 1.026717 1_555
H17 N5 1.026717 1_655
H18 N6 1.026717 1_555
H19 N7 1.026717 1_455
H20 N4 1.026815 1_555
H21 N5 1.026815 1_555
H22 N6 1.026815 1_555
H23 N7 1.026815 1_555
