# generated using pymatgen
data_Re3Pt
_symmetry_space_group_name_H-M   'P 1'
_cell_length_a   5.57625656
_cell_length_b   5.57625656
_cell_length_c   18.00778400
_cell_angle_alpha   90.00000000
_cell_angle_beta   90.00000000
_cell_angle_gamma   120.00000664
_symmetry_Int_Tables_number   1
_chemical_formula_structural   Re3Pt
_chemical_formula_sum   'Re24 Pt8'
_cell_volume   484.92700444
_cell_formula_units_Z   8
loop_
 _symmetry_equiv_pos_site_id
 _symmetry_equiv_pos_as_xyz
  1  'x, y, z'
loop_
 _atom_site_type_symbol
 _atom_site_label
 _atom_site_symmetry_multiplicity
 _atom_site_fract_x
 _atom_site_fract_y
 _atom_site_fract_z
 _atom_site_occupancy
  Re  Re0_0  1  0.16666650  0.33333350  0.25000000  1
  Re  Re0_1  1  0.16666650  0.33333350  0.75000000  1
  Re  Re0_2  1  0.16666650  0.83333350  0.25000000  1
  Re  Re0_3  1  0.16666650  0.83333350  0.75000000  1
  Re  Re0_4  1  0.66666650  0.33333350  0.25000000  1
  Re  Re0_5  1  0.66666650  0.33333350  0.75000000  1
  Re  Re0_6  1  0.66666650  0.83333350  0.25000000  1
  Re  Re0_7  1  0.66666650  0.83333350  0.75000000  1
  Re  Re1_0  1  0.00000000  0.00000000  0.12704900  1
  Re  Re1_1  1  0.00000000  0.00000000  0.62704900  1
  Re  Re1_2  1  0.00000000  0.50000000  0.12704900  1
  Re  Re1_3  1  0.00000000  0.50000000  0.62704900  1
  Re  Re1_4  1  0.50000000  0.00000000  0.12704900  1
  Re  Re1_5  1  0.50000000  0.00000000  0.62704900  1
  Re  Re1_6  1  0.50000000  0.50000000  0.12704900  1
  Re  Re1_7  1  0.50000000  0.50000000  0.62704900  1
  Re  Re2_0  1  0.00000000  0.00000000  0.37295100  1
  Re  Re2_1  1  0.00000000  0.00000000  0.87295100  1
  Re  Re2_2  1  0.00000000  0.50000000  0.37295100  1
  Re  Re2_3  1  0.00000000  0.50000000  0.87295100  1
  Re  Re2_4  1  0.50000000  0.00000000  0.37295100  1
  Re  Re2_5  1  0.50000000  0.00000000  0.87295100  1
  Re  Re2_6  1  0.50000000  0.50000000  0.37295100  1
  Re  Re2_7  1  0.50000000  0.50000000  0.87295100  1
  Pt  Pt0_0  1  0.16666650  0.33333350  0.00000000  1
  Pt  Pt0_1  1  0.16666650  0.33333350  0.50000000  1
  Pt  Pt0_2  1  0.16666650  0.83333350  0.00000000  1
  Pt  Pt0_3  1  0.16666650  0.83333350  0.50000000  1
  Pt  Pt0_4  1  0.66666650  0.33333350  0.00000000  1
  Pt  Pt0_5  1  0.66666650  0.33333350  0.50000000  1
  Pt  Pt0_6  1  0.66666650  0.83333350  0.00000000  1
  Pt  Pt0_7  1  0.66666650  0.83333350  0.50000000  1
loop_
_geom_bond_atom_site_label_1
_geom_bond_atom_site_label_2
_geom_bond_distance
_geom_bond_site_symmetry_2
Re0_0 Re2_2 2.737397 1_555
Re0_0 Re1_2 2.737397 1_555
Re0_0 Re2_6 2.737398 1_555
Re0_0 Re2_0 2.737398 1_555
Re0_0 Re1_0 2.737398 1_555
Re0_0 Re1_6 2.737398 1_555
Re0_0 Re0_6 2.788128 1_555
Re0_0 Re0_6 2.788128 1_445
Re0_0 Re0_2 2.788128 1_555
Re0_0 Re0_4 2.788128 1_555
Re0_0 Re0_4 2.788128 1_455
Re0_0 Re0_2 2.788128 1_545
Re0_1 Re1_3 2.737397 1_555
Re0_1 Re2_3 2.737397 1_555
Re0_1 Re2_1 2.737398 1_555
Re0_1 Re1_7 2.737398 1_555
Re0_1 Re1_1 2.737398 1_555
Re0_1 Re2_7 2.737398 1_555
Re0_1 Re0_7 2.788128 1_555
Re0_1 Re0_7 2.788128 1_445
Re0_1 Re0_5 2.788128 1_455
Re0_1 Re0_5 2.788128 1_555
Re0_1 Re0_3 2.788128 1_555
Re0_1 Re0_3 2.788128 1_545
Re0_2 Re1_0 2.737397 1_565
Re0_2 Re2_0 2.737397 1_565
Re0_2 Re2_4 2.737398 1_565
Re0_2 Re2_2 2.737398 1_555
Re0_2 Re1_4 2.737398 1_565
Re0_2 Re1_2 2.737398 1_555
Re0_2 Re0_4 2.788128 1_565
Re0_2 Re0_4 2.788128 1_455
Re0_2 Re0_6 2.788128 1_555
Re0_2 Re0_6 2.788128 1_455
Re0_3 Re2_1 2.737397 1_565
Re0_3 Re1_1 2.737397 1_565
Re0_3 Re1_5 2.737398 1_565
Re0_3 Re2_5 2.737398 1_565
Re0_3 Re2_3 2.737398 1_555
Re0_3 Re1_3 2.737398 1_555
Re0_3 Re0_5 2.788128 1_565
Re0_3 Re0_5 2.788128 1_455
Re0_3 Re0_7 2.788128 1_555
Re0_3 Re0_7 2.788128 1_455
Re0_4 Re2_6 2.737397 1_555
Re0_4 Re1_6 2.737397 1_555
Re0_4 Re2_4 2.737398 1_555
Re0_4 Re2_2 2.737398 1_655
Re0_4 Re1_4 2.737398 1_555
Re0_4 Re1_2 2.737398 1_655
Re0_4 Re0_6 2.788128 1_545
Re0_4 Re0_6 2.788128 1_555
Re0_5 Re1_7 2.737397 1_555
Re0_5 Re2_7 2.737397 1_555
Re0_5 Re2_5 2.737398 1_555
Re0_5 Re1_5 2.737398 1_555
Re0_5 Re1_3 2.737398 1_655
Re0_5 Re2_3 2.737398 1_655
Re0_5 Re0_7 2.788128 1_555
Re0_5 Re0_7 2.788128 1_545
Re0_6 Re2_4 2.737397 1_565
Re0_6 Re1_4 2.737397 1_565
Re0_6 Re2_6 2.737398 1_555
Re0_6 Re1_0 2.737398 1_665
Re0_6 Re2_0 2.737398 1_665
Re0_6 Re1_6 2.737398 1_555
Re0_7 Re2_5 2.737397 1_565
Re0_7 Re1_5 2.737397 1_565
Re0_7 Re1_7 2.737398 1_555
Re0_7 Re2_7 2.737398 1_555
Re0_7 Re2_1 2.737398 1_665
Re0_7 Re1_1 2.737398 1_665
Re1_0 Re1_6 2.788128 1_445
Re1_0 Re1_6 2.788128 1_555
Re1_0 Re1_2 2.788128 1_555
Re1_0 Re1_2 2.788128 1_545
Re1_0 Re1_4 2.788128 1_455
Re1_0 Re1_4 2.788128 1_555
Re1_1 Re1_7 2.788128 1_445
Re1_1 Re1_7 2.788128 1_555
Re1_1 Re1_3 2.788128 1_555
Re1_1 Re1_3 2.788128 1_545
Re1_1 Re1_5 2.788128 1_555
Re1_1 Re1_5 2.788128 1_455
Re1_2 Re1_4 2.788128 1_565
Re1_2 Re1_4 2.788128 1_455
Re1_2 Re1_6 2.788128 1_455
Re1_2 Re1_6 2.788128 1_555
Re1_3 Re1_5 2.788128 1_455
Re1_3 Re1_5 2.788128 1_565
Re1_3 Re1_7 2.788128 1_455
Re1_3 Re1_7 2.788128 1_555
Re1_4 Re1_6 2.788128 1_555
Re1_4 Re1_6 2.788128 1_545
Re1_5 Re1_7 2.788128 1_555
Re1_5 Re1_7 2.788128 1_545
Re2_0 Re2_6 2.788128 1_555
Re2_0 Re2_6 2.788128 1_445
Re2_0 Re2_2 2.788128 1_555
Re2_0 Re2_2 2.788128 1_545
Re2_0 Re2_4 2.788128 1_455
Re2_0 Re2_4 2.788128 1_555
Re2_1 Re2_7 2.788128 1_555
Re2_1 Re2_7 2.788128 1_445
Re2_1 Re2_3 2.788128 1_555
Re2_1 Re2_5 2.788128 1_455
Re2_1 Re2_3 2.788128 1_545
Re2_1 Re2_5 2.788128 1_555
Re2_2 Re2_4 2.788128 1_455
Re2_2 Re2_4 2.788128 1_565
Re2_2 Re2_6 2.788128 1_555
Re2_2 Re2_6 2.788128 1_455
Re2_3 Re2_5 2.788128 1_565
Re2_3 Re2_5 2.788128 1_455
Re2_3 Re2_7 2.788128 1_455
Re2_3 Re2_7 2.788128 1_555
Re2_4 Re2_6 2.788128 1_555
Re2_4 Re2_6 2.788128 1_545
Re2_5 Re2_7 2.788128 1_555
Re2_5 Re2_7 2.788128 1_545
Pt0_0 Pt0_6 2.788128 1_555
Pt0_0 Pt0_6 2.788128 1_445
Pt0_0 Pt0_4 2.788128 1_455
Pt0_0 Pt0_4 2.788128 1_555
Pt0_0 Pt0_2 2.788128 1_555
Pt0_0 Pt0_2 2.788128 1_545
Pt0_0 Re2_3 2.797422 1_554
Pt0_0 Re1_2 2.797422 1_555
Pt0_0 Re2_7 2.797423 1_554
Pt0_0 Re2_1 2.797423 1_554
Pt0_0 Re1_6 2.797423 1_555
Pt0_0 Re1_0 2.797423 1_555
Pt0_1 Pt0_7 2.788128 1_555
Pt0_1 Pt0_7 2.788128 1_445
Pt0_1 Pt0_3 2.788128 1_555
Pt0_1 Pt0_5 2.788128 1_455
Pt0_1 Pt0_5 2.788128 1_555
Pt0_1 Pt0_3 2.788128 1_545
Pt0_1 Re1_3 2.797422 1_555
Pt0_1 Re2_2 2.797422 1_555
Pt0_1 Re1_7 2.797423 1_555
Pt0_1 Re1_1 2.797423 1_555
Pt0_1 Re2_0 2.797423 1_555
Pt0_1 Re2_6 2.797423 1_555
Pt0_2 Pt0_4 2.788128 1_565
Pt0_2 Pt0_4 2.788128 1_455
Pt0_2 Pt0_6 2.788128 1_555
Pt0_2 Pt0_6 2.788128 1_455
Pt0_2 Re2_1 2.797422 1_564
Pt0_2 Re1_0 2.797422 1_565
Pt0_2 Re2_5 2.797423 1_564
Pt0_2 Re2_3 2.797423 1_554
Pt0_2 Re1_2 2.797423 1_555
Pt0_2 Re1_4 2.797423 1_565
Pt0_3 Pt0_5 2.788128 1_565
Pt0_3 Pt0_5 2.788128 1_455
Pt0_3 Pt0_7 2.788128 1_555
Pt0_3 Pt0_7 2.788128 1_455
Pt0_3 Re1_1 2.797422 1_565
Pt0_3 Re2_0 2.797422 1_565
Pt0_3 Re1_5 2.797423 1_565
Pt0_3 Re1_3 2.797423 1_555
Pt0_3 Re2_4 2.797423 1_565
Pt0_3 Re2_2 2.797423 1_555
Pt0_4 Pt0_6 2.788128 1_555
Pt0_4 Pt0_6 2.788128 1_545
Pt0_4 Re2_7 2.797422 1_554
Pt0_4 Re1_6 2.797422 1_555
Pt0_4 Re2_5 2.797423 1_554
Pt0_4 Re2_3 2.797423 1_654
Pt0_4 Re1_2 2.797423 1_655
Pt0_4 Re1_4 2.797423 1_555
Pt0_5 Pt0_7 2.788128 1_555
Pt0_5 Pt0_7 2.788128 1_545
Pt0_5 Re1_7 2.797422 1_555
Pt0_5 Re2_6 2.797422 1_555
Pt0_5 Re1_5 2.797423 1_555
Pt0_5 Re1_3 2.797423 1_655
Pt0_5 Re2_4 2.797423 1_555
Pt0_5 Re2_2 2.797423 1_655
Pt0_6 Re2_5 2.797422 1_564
Pt0_6 Re1_4 2.797422 1_565
Pt0_6 Re2_7 2.797423 1_554
Pt0_6 Re2_1 2.797423 1_664
Pt0_6 Re1_0 2.797423 1_665
Pt0_6 Re1_6 2.797423 1_555
Pt0_7 Re1_5 2.797422 1_565
Pt0_7 Re2_4 2.797422 1_565
Pt0_7 Re1_1 2.797423 1_665
Pt0_7 Re1_7 2.797423 1_555
Pt0_7 Re2_0 2.797423 1_665
Pt0_7 Re2_6 2.797423 1_555
