# generated using pymatgen
data_Ba8Ca4Cu8Hg4O25
_symmetry_space_group_name_H-M   'P 1'
_cell_length_a   8.66233544
_cell_length_b   8.66233544
_cell_length_c   13.50480947
_cell_angle_alpha   75.16059234
_cell_angle_beta   75.16059234
_cell_angle_gamma   53.04079941
_symmetry_Int_Tables_number   1
_chemical_formula_structural   Ba8Ca4Cu8Hg4O25
_chemical_formula_sum   'Ba8 Ca4 Cu8 Hg4 O25'
_cell_volume   775.85138266
_cell_formula_units_Z   1
loop_
 _symmetry_equiv_pos_site_id
 _symmetry_equiv_pos_as_xyz
  1  'x, y, z'
loop_
 _atom_site_type_symbol
 _atom_site_label
 _atom_site_symmetry_multiplicity
 _atom_site_fract_x
 _atom_site_fract_y
 _atom_site_fract_z
 _atom_site_occupancy
  Ba  Ba0  1  0.44462900  0.44462900  0.22143700  1
  Ba  Ba1  1  0.94818300  0.94818300  0.20721200  1
  Ba  Ba2  1  0.69499500  0.69499500  0.21910600  1
  Ba  Ba3  1  0.19541500  0.19541500  0.21935600  1
  Ba  Ba4  1  0.30500500  0.30500500  0.78089400  1
  Ba  Ba5  1  0.80458500  0.80458500  0.78064400  1
  Ba  Ba6  1  0.55537100  0.55537100  0.77856300  1
  Ba  Ba7  1  0.05181700  0.05181700  0.79278800  1
  Ca  Ca0  1  0.37506900  0.37506900  0.50042400  1
  Ca  Ca1  1  0.87535800  0.87535800  0.49787800  1
  Ca  Ca2  1  0.62493100  0.62493100  0.49957600  1
  Ca  Ca3  1  0.12464200  0.12464200  0.50212200  1
  Cu  Cu0  1  0.27935100  0.78139000  0.37781400  1
  Cu  Cu1  1  0.78139000  0.27935100  0.37781400  1
  Cu  Cu2  1  0.53157600  0.03017500  0.37783700  1
  Cu  Cu3  1  0.03017500  0.53157600  0.37783700  1
  Cu  Cu4  1  0.21861000  0.72064900  0.62218600  1
  Cu  Cu5  1  0.72064900  0.21861000  0.62218600  1
  Cu  Cu6  1  0.46842400  0.96982500  0.62216300  1
  Cu  Cu7  1  0.96982500  0.46842400  0.62216300  1
  Hg  Hg0  1  0.12057800  0.63898000  0.00001200  1
  Hg  Hg1  1  0.63898000  0.12057800  0.00001200  1
  Hg  Hg2  1  0.36102000  0.87942200  0.99998800  1
  Hg  Hg3  1  0.87942200  0.36102000  0.99998800  1
  O  O0  1  0.15765200  0.65319000  0.37848100  1
  O  O1  1  0.65319000  0.15765200  0.37848100  1
  O  O2  1  0.40528300  0.90568100  0.37808600  1
  O  O3  1  0.90568100  0.40528300  0.37808600  1
  O  O4  1  0.53080900  0.53080900  0.37806200  1
  O  O5  1  0.03119800  0.03119800  0.37893600  1
  O  O6  1  0.77935400  0.77935400  0.37893500  1
  O  O7  1  0.28020200  0.28020200  0.37795800  1
  O  O8  1  0.09431900  0.59471700  0.62191400  1
  O  O9  1  0.59471700  0.09431900  0.62191400  1
  O  O10  1  0.34681000  0.84234800  0.62151900  1
  O  O11  1  0.84234800  0.34681000  0.62151900  1
  O  O12  1  0.46919100  0.46919100  0.62193800  1
  O  O13  1  0.96880200  0.96880200  0.62106400  1
  O  O14  1  0.71979800  0.71979800  0.62204200  1
  O  O15  1  0.22064600  0.22064600  0.62106500  1
  O  O16  1  0.34277400  0.83231000  0.15825500  1
  O  O17  1  0.83231000  0.34277400  0.15825500  1
  O  O18  1  0.57829900  0.08859100  0.15823700  1
  O  O19  1  0.08859100  0.57829900  0.15823700  1
  O  O20  1  0.16769000  0.65722600  0.84174500  1
  O  O21  1  0.65722600  0.16769000  0.84174500  1
  O  O22  1  0.42170100  0.91140900  0.84176300  1
  O  O23  1  0.91140900  0.42170100  0.84176300  1
  O  O24  1  0.00000000  0.00000000  0.00000000  1
loop_
_geom_bond_atom_site_label_1
_geom_bond_atom_site_label_2
_geom_bond_distance
_geom_bond_site_symmetry_2
Ba0 O0 2.793412 1_555
Ba0 O1 2.793412 1_555
Ba0 O4 2.806490 1_555
Ba0 O7 2.807252 1_555
Ba0 O18 2.851122 1_555
Ba0 O19 2.851122 1_555
Ba0 O17 2.852912 1_555
Ba0 O16 2.852912 1_555
Ba1 O24 2.681280 1_665
Ba1 O18 2.858336 1_565
Ba1 O19 2.858336 1_655
Ba1 O16 2.860888 1_655
Ba1 O17 2.860888 1_565
Ba1 O0 2.952734 1_655
Ba1 O1 2.952734 1_565
Ba1 O5 2.956806 1_665
Ba1 O6 2.958564 1_555
Ba2 O16 2.796194 1_555
Ba2 O17 2.796194 1_555
Ba2 O4 2.821053 1_555
Ba2 O3 2.824537 1_555
Ba2 O2 2.824537 1_555
Ba2 O6 2.825754 1_555
Ba2 O18 2.857911 1_565
Ba2 O19 2.857911 1_655
Ba3 O18 2.799339 1_555
Ba3 O19 2.799339 1_555
Ba3 O7 2.815449 1_555
Ba3 O3 2.820076 1_455
Ba3 O2 2.820076 1_545
Ba3 O5 2.825627 1_555
Ba3 O16 2.857513 1_545
Ba3 O17 2.857513 1_455
Ba4 O21 2.796194 1_555
Ba4 O20 2.796194 1_555
Ba4 O12 2.821053 1_555
Ba4 O8 2.824537 1_555
Ba4 O9 2.824537 1_555
Ba4 O15 2.825754 1_555
Ba4 O23 2.857911 1_455
Ba4 O22 2.857911 1_545
Ba5 O22 2.799339 1_555
Ba5 O23 2.799339 1_555
Ba5 O14 2.815449 1_555
Ba5 O8 2.820076 1_655
Ba5 O9 2.820076 1_565
Ba5 O13 2.825627 1_555
Ba5 O20 2.857513 1_655
Ba5 O21 2.857513 1_565
Ba6 O10 2.793412 1_555
Ba6 O11 2.793412 1_555
Ba6 O12 2.806490 1_555
Ba6 O14 2.807252 1_555
Ba6 O22 2.851122 1_555
Ba6 O23 2.851122 1_555
Ba6 O20 2.852912 1_555
Ba6 O21 2.852912 1_555
Ba7 O24 2.681280 1_556
Ba7 O22 2.858336 1_545
Ba7 O23 2.858336 1_455
Ba7 O20 2.860888 1_545
Ba7 O21 2.860888 1_455
Ba7 O10 2.952734 1_545
Ba7 O11 2.952734 1_455
Ba7 O13 2.956806 1_445
Ba7 O15 2.958564 1_555
Ca0 O15 2.480348 1_555
Ca0 O0 2.482635 1_555
Ca0 O1 2.482635 1_555
Ca0 O12 2.488462 1_555
Ca0 O8 2.493480 1_555
Ca0 O9 2.493480 1_555
Ca0 O4 2.505075 1_555
Ca0 O7 2.508049 1_555
Ca1 O6 2.482640 1_555
Ca1 O0 2.488799 1_655
Ca1 O1 2.488799 1_565
Ca1 O5 2.488932 1_665
Ca1 O13 2.499070 1_555
Ca1 O8 2.512008 1_655
Ca1 O9 2.512008 1_565
Ca1 O14 2.512369 1_555
Ca2 O6 2.480348 1_555
Ca2 O10 2.482635 1_555
Ca2 O11 2.482635 1_555
Ca2 O4 2.488462 1_555
Ca2 O2 2.493480 1_555
Ca2 O3 2.493480 1_555
Ca2 O12 2.505075 1_555
Ca2 O14 2.508049 1_555
Ca3 O15 2.482640 1_555
Ca3 O10 2.488799 1_545
Ca3 O11 2.488799 1_455
Ca3 O13 2.488932 1_445
Ca3 O5 2.499070 1_555
Ca3 O3 2.512008 1_455
Ca3 O2 2.512008 1_545
Ca3 O7 2.512369 1_555
Cu0 O5 1.926182 1_565
Cu0 O0 1.934533 1_555
Cu0 O2 1.940505 1_555
Cu0 O4 1.941842 1_555
Cu1 O5 1.926182 1_655
Cu1 O1 1.934533 1_555
Cu1 O3 1.940505 1_555
Cu1 O4 1.941842 1_555
Cu2 O6 1.928668 1_545
Cu2 O1 1.933306 1_555
Cu2 O7 1.939383 1_555
Cu2 O2 1.942864 1_545
Cu3 O6 1.928668 1_455
Cu3 O0 1.933306 1_555
Cu3 O7 1.939383 1_555
Cu3 O3 1.942864 1_455
Cu4 O13 1.926182 1_455
Cu4 O10 1.934533 1_555
Cu4 O8 1.940505 1_555
Cu4 O12 1.941842 1_555
Cu5 O13 1.926182 1_545
Cu5 O11 1.934533 1_555
Cu5 O9 1.940505 1_555
Cu5 O12 1.941842 1_555
Cu6 O15 1.928668 1_565
Cu6 O10 1.933306 1_555
Cu6 O14 1.939383 1_555
Cu6 O9 1.942864 1_565
Cu7 O15 1.928668 1_655
Cu7 O11 1.933306 1_555
Cu7 O14 1.939383 1_555
Cu7 O8 1.942864 1_655
Hg0 O19 2.053175 1_555
Hg0 O20 2.053678 1_554
Hg0 O24 2.634923 1_565
Hg1 O18 2.053175 1_555
Hg1 O21 2.053678 1_554
Hg1 O24 2.634923 1_655
Hg2 O22 2.053175 1_555
Hg2 O16 2.053678 1_556
Hg2 O24 2.634923 1_566
Hg3 O23 2.053175 1_555
Hg3 O17 2.053678 1_556
Hg3 O24 2.634923 1_656
