# generated using pymatgen
data_Cd2AsO2
_symmetry_space_group_name_H-M   'P 1'
_cell_length_a   7.51020851
_cell_length_b   7.51020851
_cell_length_c   9.67732381
_cell_angle_alpha   110.02940702
_cell_angle_beta   110.02940702
_cell_angle_gamma   96.73820774
_symmetry_Int_Tables_number   1
_chemical_formula_structural   Cd2AsO2
_chemical_formula_sum   'Cd8 As4 O8'
_cell_volume   464.46740329
_cell_formula_units_Z   4
loop_
 _symmetry_equiv_pos_site_id
 _symmetry_equiv_pos_as_xyz
  1  'x, y, z'
loop_
 _atom_site_type_symbol
 _atom_site_label
 _atom_site_symmetry_multiplicity
 _atom_site_fract_x
 _atom_site_fract_y
 _atom_site_fract_z
 _atom_site_occupancy
  Cd  Cd0  1  0.30713500  0.16765100  0.69526300  1
  Cd  Cd1  1  0.38812900  0.52761300  0.69526300  1
  Cd  Cd2  1  0.83234900  0.69286500  0.30473700  1
  Cd  Cd3  1  0.94286500  0.58234900  0.80473700  1
  Cd  Cd4  1  0.47238700  0.61187100  0.30473700  1
  Cd  Cd5  1  0.86187100  0.22238700  0.80473700  1
  Cd  Cd6  1  0.41765100  0.05713500  0.19526300  1
  Cd  Cd7  1  0.77761300  0.13812900  0.19526300  1
  As  As0  1  0.62500000  0.87500000  0.75000000  1
  As  As1  1  0.12500000  0.87500000  0.75000000  1
  As  As2  1  0.12500000  0.37500000  0.25000000  1
  As  As3  1  0.12500000  0.87500000  0.25000000  1
  O  O0  1  0.73132000  0.73773600  0.91030900  1
  O  O1  1  0.17899000  0.17257400  0.91030900  1
  O  O2  1  0.26226400  0.26868000  0.08969100  1
  O  O3  1  0.51868000  0.01226400  0.58969100  1
  O  O4  1  0.82742600  0.82101000  0.08969100  1
  O  O5  1  0.07101000  0.57742600  0.58969100  1
  O  O6  1  0.98773600  0.48132000  0.41030900  1
  O  O7  1  0.42257400  0.92899000  0.41030900  1
loop_
_geom_bond_atom_site_label_1
_geom_bond_atom_site_label_2
_geom_bond_distance
_geom_bond_site_symmetry_2
Cd0 O3 2.379076 1_555
Cd0 O1 2.566321 1_555
Cd1 O5 2.379083 1_555
Cd1 O0 2.566321 1_555
Cd2 O6 2.379076 1_555
Cd2 O4 2.566321 1_555
Cd3 O0 2.379076 1_555
Cd3 O5 2.566321 1_655
Cd4 O7 2.379083 1_555
Cd4 O2 2.566321 1_555
Cd5 O1 2.379083 1_655
Cd5 O3 2.566321 1_555
Cd6 O2 2.379076 1_555
Cd6 O7 2.566321 1_545
Cd7 O4 2.379083 1_545
Cd7 O6 2.566321 1_555
As0 O3 2.132404 1_565
As0 O0 2.132404 1_555
As1 O1 2.132409 1_565
As1 O5 2.132409 1_555
As2 O6 2.132404 1_455
As2 O2 2.132404 1_555
As3 O4 2.132409 1_455
As3 O7 2.132409 1_555
O0 O4 1.489186 1_556
O1 O2 1.489186 1_556
O3 O7 1.489186 1_545
O5 O6 1.489186 1_455
