# generated using pymatgen
data_TeC4S4(N4Cl)2
_symmetry_space_group_name_H-M   'P 1'
_cell_length_a   11.71522157
_cell_length_b   11.71522157
_cell_length_c   9.23985785
_cell_angle_alpha   73.24084480
_cell_angle_beta   73.24084480
_cell_angle_gamma   56.74339726
_symmetry_Int_Tables_number   1
_chemical_formula_structural   TeC4S4(N4Cl)2
_chemical_formula_sum   'Te2 C8 S8 N16 Cl4'
_cell_volume   1001.88493511
_cell_formula_units_Z   2
loop_
 _symmetry_equiv_pos_site_id
 _symmetry_equiv_pos_as_xyz
  1  'x, y, z'
loop_
 _atom_site_type_symbol
 _atom_site_label
 _atom_site_symmetry_multiplicity
 _atom_site_fract_x
 _atom_site_fract_y
 _atom_site_fract_z
 _atom_site_occupancy
  Te  Te0  1  0.20168200  0.79831800  0.75000000  1
  Te  Te1  1  0.79831800  0.20168200  0.25000000  1
  C  C0  1  0.16842100  0.60042200  0.46130800  1
  C  C1  1  0.39957800  0.83157900  0.03869200  1
  C  C2  1  0.83157900  0.39957800  0.53869200  1
  C  C3  1  0.60042200  0.16842100  0.96130800  1
  C  C4  1  0.79772300  0.74352800  0.79617600  1
  C  C5  1  0.25647200  0.20227700  0.70382400  1
  C  C6  1  0.20227700  0.25647200  0.20382400  1
  C  C7  1  0.74352800  0.79772300  0.29617600  1
  S  S0  1  0.28849600  0.40456600  0.67315000  1
  S  S1  1  0.59543400  0.71150400  0.82685000  1
  S  S2  1  0.71150400  0.59543400  0.32685000  1
  S  S3  1  0.40456600  0.28849600  0.17315000  1
  S  S4  1  0.97646800  0.97197000  0.61042100  1
  S  S5  1  0.02803000  0.02353200  0.88957900  1
  S  S6  1  0.02353200  0.02803000  0.38957900  1
  S  S7  1  0.97197000  0.97646800  0.11042100  1
  N  N0  1  0.10422800  0.65349800  0.36003100  1
  N  N1  1  0.34650200  0.89577200  0.13996900  1
  N  N2  1  0.89577200  0.34650200  0.63996900  1
  N  N3  1  0.65349800  0.10422800  0.86003100  1
  N  N4  1  0.24242400  0.54886000  0.57139900  1
  N  N5  1  0.45114000  0.75757600  0.92860100  1
  N  N6  1  0.75757600  0.45114000  0.42860100  1
  N  N7  1  0.54886000  0.24242400  0.07139900  1
  N  N8  1  0.67236000  0.77132900  0.86713200  1
  N  N9  1  0.22867100  0.32764000  0.63286800  1
  N  N10  1  0.32764000  0.22867100  0.13286800  1
  N  N11  1  0.77132900  0.67236000  0.36713200  1
  N  N12  1  0.90989900  0.72381800  0.74230100  1
  N  N13  1  0.27618200  0.09010100  0.75769900  1
  N  N14  1  0.09010100  0.27618200  0.25769900  1
  N  N15  1  0.72381800  0.90989900  0.24230100  1
  Cl  Cl0  1  0.25715400  0.58834100  0.94827900  1
  Cl  Cl1  1  0.41165900  0.74284600  0.55172100  1
  Cl  Cl2  1  0.74284600  0.41165900  0.05172100  1
  Cl  Cl3  1  0.58834100  0.25715400  0.44827900  1
loop_
_geom_bond_atom_site_label_1
_geom_bond_atom_site_label_2
_geom_bond_distance
_geom_bond_site_symmetry_2
C0 N0 1.176987 1_555
C0 N4 1.315714 1_555
C1 N1 1.176987 1_555
C1 N5 1.315714 1_554
C2 N2 1.176987 1_555
C2 N6 1.315714 1_555
C3 N3 1.176987 1_555
C3 N7 1.315714 1_556
C4 N12 1.176586 1_555
C4 N8 1.317608 1_555
C5 N13 1.176586 1_555
C5 N9 1.317608 1_555
C6 N14 1.176586 1_555
C6 N10 1.317608 1_555
C7 N15 1.176586 1_555
C7 N11 1.317608 1_555
S4 S6 1.968409 1_665
S4 Te0 2.706575 1_655
S5 S7 1.968409 1_446
S5 Te0 2.706575 1_545
S6 Te1 2.706575 1_455
S7 Te1 2.706575 1_565
N4 S0 1.551840 1_555
N5 S1 1.551840 1_555
N6 S2 1.551840 1_555
N7 S3 1.551840 1_555
N8 S1 1.574338 1_555
N9 S0 1.574338 1_555
N10 S3 1.574338 1_555
N11 S2 1.574338 1_555
Cl0 Te0 2.482798 1_555
Cl1 Te0 2.482798 1_555
Cl2 Te1 2.482798 1_555
Cl3 Te1 2.482798 1_555
