# generated using pymatgen
data_Er(CoB)4
_symmetry_space_group_name_H-M   'P 1'
_cell_length_a   5.00148600
_cell_length_b   5.00148600
_cell_length_c   6.96696200
_cell_angle_alpha   90.00000000
_cell_angle_beta   90.00000000
_cell_angle_gamma   90.00000000
_symmetry_Int_Tables_number   1
_chemical_formula_structural   Er(CoB)4
_chemical_formula_sum   'Er2 Co8 B8'
_cell_volume   174.27759444
_cell_formula_units_Z   2
loop_
 _symmetry_equiv_pos_site_id
 _symmetry_equiv_pos_as_xyz
  1  'x, y, z'
loop_
 _atom_site_type_symbol
 _atom_site_label
 _atom_site_symmetry_multiplicity
 _atom_site_fract_x
 _atom_site_fract_y
 _atom_site_fract_z
 _atom_site_occupancy
  Er  Er0  1  0.75000000  0.25000000  0.25000000  1
  Er  Er1  1  0.25000000  0.75000000  0.75000000  1
  Co  Co0  1  0.00360500  0.75000000  0.11192900  1
  Co  Co1  1  0.49639500  0.75000000  0.11192900  1
  Co  Co2  1  0.75000000  0.00360500  0.61192900  1
  Co  Co3  1  0.75000000  0.49639500  0.61192900  1
  Co  Co4  1  0.99639500  0.25000000  0.88807100  1
  Co  Co5  1  0.50360500  0.25000000  0.88807100  1
  Co  Co6  1  0.25000000  0.99639500  0.38807100  1
  Co  Co7  1  0.25000000  0.50360500  0.38807100  1
  B  B0  1  0.57521800  0.75000000  0.40711100  1
  B  B1  1  0.92478200  0.75000000  0.40711100  1
  B  B2  1  0.75000000  0.57521800  0.90711100  1
  B  B3  1  0.75000000  0.92478200  0.90711100  1
  B  B4  1  0.42478200  0.25000000  0.59288900  1
  B  B5  1  0.07521800  0.25000000  0.59288900  1
  B  B6  1  0.25000000  0.42478200  0.09288900  1
  B  B7  1  0.25000000  0.07521800  0.09288900  1
loop_
_geom_bond_atom_site_label_1
_geom_bond_atom_site_label_2
_geom_bond_distance
_geom_bond_site_symmetry_2
Co0 Er1 2.806574 1_554
Co0 Er0 2.964436 1_465
Co0 Er0 2.964436 1_455
Co1 Er1 2.806574 1_554
Co1 Er0 2.964436 1_565
Co1 Er0 2.964436 1_555
Co2 Er0 2.806574 1_555
Co2 Er1 2.964436 1_645
Co2 Er1 2.964436 1_545
Co3 Er0 2.806574 1_555
Co3 Er1 2.964436 1_655
Co3 Er1 2.964436 1_555
Co4 Er0 2.806574 1_556
Co4 Er1 2.964436 1_655
Co4 Er1 2.964436 1_645
Co5 Er0 2.806574 1_556
Co5 Er1 2.964436 1_555
Co5 Er1 2.964436 1_545
Co6 Er1 2.806574 1_555
Co6 Er0 2.964436 1_465
Co6 Er0 2.964436 1_565
Co7 Er1 2.806574 1_555
Co7 Er0 2.964436 1_455
Co7 Er0 2.964436 1_555
B0 B1 1.748339 1_555
B0 Co6 2.044994 1_555
B0 Co7 2.044994 1_555
B0 Co1 2.093968 1_555
B0 Co2 2.099816 1_565
B0 Co3 2.099816 1_555
B0 Er0 2.866358 1_555
B0 Er0 2.866358 1_565
B0 Er1 2.890079 1_555
B1 Co6 2.044994 1_655
B1 Co7 2.044994 1_655
B1 Co0 2.093968 1_655
B1 Co2 2.099816 1_565
B1 Co3 2.099816 1_555
B1 Er0 2.866358 1_555
B1 Er0 2.866358 1_565
B1 Er1 2.890079 1_655
B2 B3 1.748339 1_555
B2 Co4 2.044994 1_555
B2 Co5 2.044994 1_555
B2 Co3 2.093968 1_555
B2 Co0 2.099816 1_656
B2 Co1 2.099816 1_556
B2 Er1 2.866358 1_555
B2 Er1 2.866358 1_655
B2 Er0 2.890079 1_556
B3 Co4 2.044994 1_565
B3 Co5 2.044994 1_565
B3 Co2 2.093968 1_565
B3 Co0 2.099816 1_656
B3 Co1 2.099816 1_556
B3 Er1 2.866358 1_555
B3 Er1 2.866358 1_655
B3 Er0 2.890079 1_566
B4 B5 1.748339 1_555
B4 Co3 2.044994 1_555
B4 Co2 2.044994 1_555
B4 Co5 2.093968 1_555
B4 Co7 2.099816 1_555
B4 Co6 2.099816 1_545
B4 Er1 2.866358 1_555
B4 Er1 2.866358 1_545
B4 Er0 2.890079 1_555
B5 Co3 2.044994 1_455
B5 Co2 2.044994 1_455
B5 Co4 2.093968 1_455
B5 Co7 2.099816 1_555
B5 Co6 2.099816 1_545
B5 Er1 2.866358 1_555
B5 Er1 2.866358 1_545
B5 Er0 2.890079 1_455
B6 B7 1.748339 1_555
B6 Co1 2.044994 1_555
B6 Co0 2.044994 1_555
B6 Co7 2.093968 1_555
B6 Co5 2.099816 1_554
B6 Co4 2.099816 1_454
B6 Er0 2.866358 1_555
B6 Er0 2.866358 1_455
B6 Er1 2.890079 1_554
B7 Co1 2.044994 1_545
B7 Co0 2.044994 1_545
B7 Co6 2.093968 1_545
B7 Co5 2.099816 1_554
B7 Co4 2.099816 1_454
B7 Er0 2.866358 1_555
B7 Er0 2.866358 1_455
B7 Er1 2.890079 1_544
