# generated using pymatgen
data_Pr6Fe13Bi
_symmetry_space_group_name_H-M   'P 1'
_cell_length_a   8.13928300
_cell_length_b   8.13928300
_cell_length_c   13.23385719
_cell_angle_alpha   107.90968394
_cell_angle_beta   107.90968394
_cell_angle_gamma   90.00000000
_symmetry_Int_Tables_number   1
_chemical_formula_structural   Pr6Fe13Bi
_chemical_formula_sum   'Pr12 Fe26 Bi2'
_cell_volume   789.46575663
_cell_formula_units_Z   2
loop_
 _symmetry_equiv_pos_site_id
 _symmetry_equiv_pos_as_xyz
  1  'x, y, z'
loop_
 _atom_site_type_symbol
 _atom_site_label
 _atom_site_symmetry_multiplicity
 _atom_site_fract_x
 _atom_site_fract_y
 _atom_site_fract_z
 _atom_site_occupancy
  Pr  Pr0  1  0.60268900  0.60268900  0.20537800  1
  Pr  Pr1  1  0.10268900  0.10268900  0.20537800  1
  Pr  Pr2  1  0.39731100  0.39731100  0.79462200  1
  Pr  Pr3  1  0.89731100  0.89731100  0.79462200  1
  Pr  Pr4  1  0.97700400  0.47700400  0.63261600  1
  Pr  Pr5  1  0.65561200  0.15561200  0.63261600  1
  Pr  Pr6  1  0.15561200  0.97700400  0.63261600  1
  Pr  Pr7  1  0.47700400  0.65561200  0.63261600  1
  Pr  Pr8  1  0.02299600  0.52299600  0.36738400  1
  Pr  Pr9  1  0.34438800  0.84438800  0.36738400  1
  Pr  Pr10  1  0.84438800  0.02299600  0.36738400  1
  Pr  Pr11  1  0.52299600  0.34438800  0.36738400  1
  Fe  Fe0  1  0.00000000  0.50000000  0.00000000  1
  Fe  Fe1  1  0.50000000  0.00000000  0.00000000  1
  Fe  Fe2  1  0.71056100  0.56721100  0.00000000  1
  Fe  Fe3  1  0.28943900  0.43278900  0.00000000  1
  Fe  Fe4  1  0.78943900  0.06721100  0.00000000  1
  Fe  Fe5  1  0.21056100  0.93278900  0.00000000  1
  Fe  Fe6  1  0.56721100  0.28943900  0.00000000  1
  Fe  Fe7  1  0.43278900  0.71056100  0.00000000  1
  Fe  Fe8  1  0.06721100  0.21056100  0.00000000  1
  Fe  Fe9  1  0.93278900  0.78943900  0.00000000  1
  Fe  Fe10  1  0.12049800  0.62049800  0.88454900  1
  Fe  Fe11  1  0.76405100  0.26405100  0.88454900  1
  Fe  Fe12  1  0.26405100  0.12049800  0.88454900  1
  Fe  Fe13  1  0.62049800  0.76405100  0.88454900  1
  Fe  Fe14  1  0.87950200  0.37950200  0.11545100  1
  Fe  Fe15  1  0.23594900  0.73594900  0.11545100  1
  Fe  Fe16  1  0.73594900  0.87950200  0.11545100  1
  Fe  Fe17  1  0.37950200  0.23594900  0.11545100  1
  Fe  Fe18  1  0.29411000  0.79411000  0.81522100  1
  Fe  Fe19  1  0.52111200  0.02111200  0.81522100  1
  Fe  Fe20  1  0.02111200  0.29411000  0.81522100  1
  Fe  Fe21  1  0.79411000  0.52111200  0.81522100  1
  Fe  Fe22  1  0.70589000  0.20589000  0.18477900  1
  Fe  Fe23  1  0.47888800  0.97888800  0.18477900  1
  Fe  Fe24  1  0.97888800  0.70589000  0.18477900  1
  Fe  Fe25  1  0.20589000  0.47888800  0.18477900  1
  Bi  Bi0  1  0.25000000  0.25000000  0.50000000  1
  Bi  Bi1  1  0.75000000  0.75000000  0.50000000  1
loop_
_geom_bond_atom_site_label_1
_geom_bond_atom_site_label_2
_geom_bond_distance
_geom_bond_site_symmetry_2
Fe0 Fe8 2.418508 1_555
Fe0 Fe2 2.418508 1_455
Fe0 Fe9 2.418508 1_455
Fe0 Fe3 2.418508 1_555
Fe0 Fe15 2.470102 1_555
Fe0 Fe11 2.470102 1_454
Fe0 Fe14 2.470102 1_455
Fe0 Fe10 2.470102 1_554
Fe0 Fe25 2.560390 1_555
Fe0 Fe24 2.560390 1_455
Fe0 Fe20 2.560390 1_554
Fe0 Fe21 2.560390 1_454
Fe1 Fe4 2.418508 1_555
Fe1 Fe5 2.418508 1_545
Fe1 Fe7 2.418508 1_545
Fe1 Fe6 2.418508 1_555
Fe1 Fe17 2.470102 1_555
Fe1 Fe16 2.470102 1_545
Fe1 Fe12 2.470102 1_554
Fe1 Fe13 2.470102 1_544
Fe1 Fe18 2.560387 1_544
Fe1 Fe22 2.560387 1_555
Fe1 Fe23 2.560393 1_545
Fe1 Fe19 2.560393 1_554
Fe2 Fe6 2.544180 1_555
Fe2 Fe7 2.544180 1_555
Fe2 Fe9 2.557996 1_555
Fe2 Fe24 2.653547 1_555
Fe2 Fe21 2.653552 1_554
Fe2 Pr2 3.037510 1_554
Fe2 Pr0 3.037510 1_555
Fe3 Fe6 2.544180 1_555
Fe3 Fe7 2.544180 1_555
Fe3 Fe8 2.557996 1_555
Fe3 Pr0 3.037510 1_555
Fe3 Pr2 3.037510 1_554
Fe4 Fe9 2.544180 1_545
Fe4 Fe8 2.544180 1_655
Fe4 Fe6 2.557996 1_555
Fe4 Pr1 3.037510 1_655
Fe4 Pr3 3.037510 1_544
Fe5 Fe9 2.544180 1_455
Fe5 Fe8 2.544180 1_565
Fe5 Fe7 2.557996 1_555
Fe5 Pr3 3.037510 1_454
Fe5 Pr1 3.037510 1_565
Fe6 Pr0 3.037510 1_555
Fe6 Pr2 3.037510 1_554
Fe7 Pr2 3.037510 1_554
Fe7 Pr0 3.037510 1_555
Fe8 Pr3 3.037510 1_444
Fe8 Pr1 3.037510 1_555
Fe9 Pr1 3.037510 1_665
Fe9 Pr3 3.037510 1_554
Fe10 Fe5 2.501047 1_556
Fe10 Fe7 2.501047 1_556
Fe10 Fe18 2.535761 1_555
Fe10 Fe21 2.568649 1_455
Fe10 Fe20 2.568649 1_555
Fe10 Fe9 2.588999 1_456
Fe10 Fe3 2.588999 1_556
Fe10 Fe15 2.751621 1_556
Fe10 Pr4 3.009016 1_455
Fe10 Pr2 3.179940 1_555
Fe10 Pr3 3.179940 1_455
Fe11 Fe6 2.501047 1_556
Fe11 Fe4 2.501047 1_556
Fe11 Fe19 2.535750 1_555
Fe11 Fe21 2.568658 1_555
Fe11 Fe20 2.568658 1_655
Fe11 Fe2 2.588999 1_556
Fe11 Fe8 2.588999 1_656
Fe11 Fe14 2.751621 1_556
Fe11 Pr5 3.009016 1_555
Fe11 Pr2 3.179940 1_555
Fe11 Pr3 3.179940 1_545
Fe12 Fe3 2.501047 1_556
Fe12 Fe8 2.501047 1_556
Fe12 Fe20 2.535755 1_555
Fe12 Fe18 2.568650 1_545
Fe12 Fe19 2.568656 1_555
Fe12 Fe6 2.588999 1_556
Fe12 Fe5 2.588999 1_546
Fe12 Fe17 2.751621 1_556
Fe12 Pr6 3.009016 1_545
Fe12 Pr3 3.179940 1_445
Fe12 Pr2 3.179940 1_555
Fe13 Fe9 2.501047 1_556
Fe13 Fe2 2.501047 1_556
Fe13 Fe21 2.535755 1_555
Fe13 Fe18 2.568650 1_555
Fe13 Fe19 2.568656 1_565
Fe13 Fe4 2.588999 1_566
Fe13 Fe7 2.588999 1_556
Fe13 Fe16 2.751621 1_556
Fe13 Pr7 3.009016 1_555
Fe13 Pr2 3.179940 1_555
Fe13 Pr3 3.179940 1_555
Fe14 Fe6 2.501047 1_555
Fe14 Fe4 2.501047 1_555
Fe14 Fe22 2.535761 1_555
Fe14 Fe24 2.568649 1_555
Fe14 Fe25 2.568649 1_655
Fe14 Fe8 2.588999 1_655
Fe14 Fe2 2.588999 1_555
Fe14 Pr8 3.009016 1_655
Fe14 Pr1 3.179940 1_655
Fe14 Pr0 3.179940 1_555
Fe15 Fe7 2.501047 1_555
Fe15 Fe5 2.501047 1_555
Fe15 Fe23 2.535750 1_555
Fe15 Fe24 2.568658 1_455
Fe15 Fe25 2.568658 1_555
Fe15 Fe3 2.588999 1_555
Fe15 Fe9 2.588999 1_455
Fe15 Pr9 3.009016 1_555
Fe15 Pr1 3.179940 1_565
Fe15 Pr0 3.179940 1_555
Fe16 Fe2 2.501047 1_555
Fe16 Fe9 2.501047 1_555
Fe16 Fe24 2.535755 1_555
Fe16 Fe22 2.568650 1_565
Fe16 Fe23 2.568656 1_555
Fe16 Fe7 2.588999 1_555
Fe16 Fe4 2.588999 1_565
Fe16 Pr10 3.009016 1_565
Fe16 Pr1 3.179940 1_665
Fe16 Pr0 3.179940 1_555
Fe17 Fe8 2.501047 1_555
Fe17 Fe3 2.501047 1_555
Fe17 Fe25 2.535755 1_555
Fe17 Fe22 2.568650 1_555
Fe17 Fe23 2.568656 1_545
Fe17 Fe5 2.588999 1_545
Fe17 Fe6 2.588999 1_555
Fe17 Pr11 3.009016 1_555
Fe17 Pr0 3.179940 1_555
Fe17 Pr1 3.179940 1_555
Fe18 Fe19 2.612948 1_565
Fe18 Fe5 2.653551 1_556
Fe18 Fe7 2.653551 1_556
Fe18 Pr7 3.140641 1_555
Fe18 Pr6 3.140641 1_555
Fe18 Pr3 3.287845 1_455
Fe18 Pr2 3.287845 1_555
Fe18 Pr4 3.389822 1_455
Fe19 Fe6 2.653548 1_556
Fe19 Fe4 2.653548 1_556
Fe19 Pr7 3.140646 1_545
Fe19 Pr6 3.140646 1_545
Fe19 Pr2 3.287840 1_555
Fe19 Pr3 3.287840 1_545
Fe19 Pr5 3.389813 1_555
Fe20 Fe21 2.612948 1_455
Fe20 Fe3 2.653547 1_556
Fe20 Fe8 2.653552 1_556
Fe20 Pr4 3.140640 1_455
Fe20 Pr5 3.140647 1_455
Fe20 Pr2 3.287838 1_555
Fe20 Pr3 3.287848 1_445
Fe20 Pr6 3.389818 1_545
Fe21 Fe9 2.653547 1_556
Fe21 Pr4 3.140640 1_555
Fe21 Pr5 3.140647 1_555
Fe21 Pr3 3.287838 1_555
Fe21 Pr2 3.287848 1_555
Fe21 Pr7 3.389818 1_555
Fe22 Fe23 2.612948 1_545
Fe22 Fe6 2.653551 1_555
Fe22 Fe4 2.653551 1_555
Fe22 Pr11 3.140641 1_555
Fe22 Pr10 3.140641 1_555
Fe22 Pr1 3.287845 1_655
Fe22 Pr0 3.287845 1_555
Fe22 Pr8 3.389822 1_655
Fe23 Fe5 2.653548 1_555
Fe23 Fe7 2.653548 1_555
Fe23 Pr10 3.140646 1_565
Fe23 Pr11 3.140646 1_565
Fe23 Pr1 3.287840 1_565
Fe23 Pr0 3.287840 1_555
Fe23 Pr9 3.389813 1_555
Fe24 Fe25 2.612948 1_655
Fe24 Fe9 2.653552 1_555
Fe24 Pr8 3.140640 1_655
Fe24 Pr9 3.140647 1_655
Fe24 Pr0 3.287838 1_555
Fe24 Pr1 3.287848 1_665
Fe24 Pr10 3.389818 1_565
Fe25 Fe8 2.653547 1_555
Fe25 Fe3 2.653552 1_555
Fe25 Pr8 3.140640 1_555
Fe25 Pr9 3.140647 1_555
Fe25 Pr1 3.287838 1_555
Fe25 Pr0 3.287848 1_555
Fe25 Pr11 3.389818 1_555
Bi0 Pr7 3.440235 1_555
Bi0 Pr10 3.440235 1_455
Bi0 Pr5 3.440236 1_555
Bi0 Pr9 3.440236 1_545
Bi0 Pr4 3.440236 1_455
Bi0 Pr8 3.440236 1_555
Bi0 Pr11 3.440236 1_555
Bi0 Pr6 3.440236 1_545
Bi0 Pr2 3.510962 1_555
Bi0 Pr1 3.510962 1_555
Bi1 Pr6 3.440235 1_655
Bi1 Pr11 3.440235 1_555
Bi1 Pr5 3.440236 1_565
Bi1 Pr9 3.440236 1_555
Bi1 Pr8 3.440236 1_655
Bi1 Pr4 3.440236 1_555
Bi1 Pr10 3.440236 1_565
Bi1 Pr7 3.440236 1_555
Bi1 Pr3 3.510962 1_555
Bi1 Pr0 3.510962 1_555
