# generated using pymatgen
data_Sr3PrMn4O12
_symmetry_space_group_name_H-M   'P 1'
_cell_length_a   5.52096042
_cell_length_b   5.52096042
_cell_length_c   7.71504800
_cell_angle_alpha   90.00000000
_cell_angle_beta   90.00000000
_cell_angle_gamma   91.28263694
_symmetry_Int_Tables_number   1
_chemical_formula_structural   Sr3PrMn4O12
_chemical_formula_sum   'Sr3 Pr1 Mn4 O12'
_cell_volume   235.10348580
_cell_formula_units_Z   1
loop_
 _symmetry_equiv_pos_site_id
 _symmetry_equiv_pos_as_xyz
  1  'x, y, z'
loop_
 _atom_site_type_symbol
 _atom_site_label
 _atom_site_symmetry_multiplicity
 _atom_site_fract_x
 _atom_site_fract_y
 _atom_site_fract_z
 _atom_site_occupancy
  Sr  Sr0  1  0.49525300  0.50474700  0.00000000  1
  Sr  Sr1  1  0.49953600  0.50046400  0.50000000  1
  Sr  Sr2  1  0.00139100  0.99860900  0.00000000  1
  Pr  Pr0  1  0.00611500  0.99388500  0.50000000  1
  Mn  Mn0  1  0.50083100  0.00054900  0.74995900  1
  Mn  Mn1  1  0.99945100  0.49916900  0.25004100  1
  Mn  Mn2  1  0.99945100  0.49916900  0.74995900  1
  Mn  Mn3  1  0.50083100  0.00054900  0.25004100  1
  O  O0  1  0.75473400  0.75511500  0.25991100  1
  O  O1  1  0.24488500  0.24526600  0.74008900  1
  O  O2  1  0.75473400  0.75511500  0.74008900  1
  O  O3  1  0.24488500  0.24526600  0.25991100  1
  O  O4  1  0.96389400  0.46882900  0.00000000  1
  O  O5  1  0.45434500  0.96713600  0.50000000  1
  O  O6  1  0.03286400  0.54565500  0.50000000  1
  O  O7  1  0.53117100  0.03610600  0.00000000  1
  O  O8  1  0.75725700  0.24274300  0.70689900  1
  O  O9  1  0.25055700  0.74944300  0.22049400  1
  O  O10  1  0.75725700  0.24274300  0.29310100  1
  O  O11  1  0.25055700  0.74944300  0.77950600  1
loop_
_geom_bond_atom_site_label_1
_geom_bond_atom_site_label_2
_geom_bond_distance
_geom_bond_site_symmetry_2
Mn0 O7 1.945884 1_556
Mn0 O11 1.948693 1_545
Mn0 O5 1.953633 1_545
Mn0 O8 1.953926 1_555
Mn0 O2 1.972804 1_545
Mn0 O1 1.978238 1_555
Mn1 O4 1.945884 1_555
Mn1 O9 1.948693 1_655
Mn1 O6 1.953633 1_655
Mn1 O10 1.953926 1_555
Mn1 O3 1.972804 1_655
Mn1 O0 1.978238 1_555
Mn2 O4 1.945884 1_556
Mn2 O11 1.948693 1_655
Mn2 O6 1.953633 1_655
Mn2 O8 1.953926 1_555
Mn2 O1 1.972804 1_655
Mn2 O2 1.978238 1_555
Mn3 O7 1.945884 1_555
Mn3 O9 1.948693 1_545
Mn3 O5 1.953633 1_545
Mn3 O10 1.953926 1_555
Mn3 O0 1.972804 1_545
Mn3 O3 1.978238 1_555
O0 Pr0 2.648212 1_655
O0 Sr1 2.702599 1_555
O0 Sr2 2.756923 1_655
O0 Sr0 2.809849 1_555
O1 Pr0 2.648212 1_545
O1 Sr1 2.702599 1_555
O1 Sr2 2.756923 1_546
O1 Sr0 2.809849 1_556
O2 Pr0 2.648212 1_655
O2 Sr1 2.702599 1_555
O2 Sr2 2.756923 1_656
O2 Sr0 2.809849 1_556
O3 Pr0 2.648212 1_545
O3 Sr1 2.702599 1_555
O3 Sr2 2.756923 1_545
O3 Sr0 2.809849 1_555
O4 Sr0 2.599359 1_555
O4 Sr2 2.608922 1_645
O4 Sr2 2.927585 1_655
O4 Sr0 2.935875 1_655
O5 Pr0 2.482360 1_555
O5 Sr1 2.594083 1_555
O5 Sr1 2.949464 1_565
O5 Pr0 3.046574 1_655
O6 Pr0 2.482360 1_555
O6 Sr1 2.594083 1_555
O6 Sr1 2.949464 1_455
O6 Pr0 3.046574 1_545
O7 Sr0 2.599359 1_555
O7 Sr2 2.608922 1_645
O7 Sr2 2.927585 1_545
O7 Sr0 2.935875 1_545
O8 Pr0 2.531378 1_645
O8 Sr1 2.586060 1_555
O8 Sr2 2.971225 1_646
O8 Sr0 3.064621 1_556
O9 Sr0 2.574042 1_555
O9 Sr2 2.600631 1_555
O9 Pr0 2.893822 1_555
O9 Sr1 2.917830 1_555
O10 Pr0 2.531378 1_645
O10 Sr1 2.586060 1_555
O10 Sr2 2.971225 1_645
O10 Sr0 3.064621 1_555
O11 Sr0 2.574042 1_556
O11 Sr2 2.600631 1_556
O11 Pr0 2.893822 1_555
O11 Sr1 2.917830 1_555
