# generated using pymatgen
data_TmMg3
_symmetry_space_group_name_H-M   'P 1'
_cell_length_a   5.11990873
_cell_length_b   5.11990873
_cell_length_c   5.11990873
_cell_angle_alpha   60.00000000
_cell_angle_beta   60.00000000
_cell_angle_gamma   60.00000000
_symmetry_Int_Tables_number   1
_chemical_formula_structural   TmMg3
_chemical_formula_sum   'Tm1 Mg3'
_cell_volume   94.90119011
_cell_formula_units_Z   1
loop_
 _symmetry_equiv_pos_site_id
 _symmetry_equiv_pos_as_xyz
  1  'x, y, z'
loop_
 _atom_site_type_symbol
 _atom_site_label
 _atom_site_symmetry_multiplicity
 _atom_site_fract_x
 _atom_site_fract_y
 _atom_site_fract_z
 _atom_site_occupancy
  Tm  Tm0  1  0.75000000  0.75000000  0.75000000  1
  Mg  Mg0  1  0.00000000  0.00000000  0.00000000  1
  Mg  Mg1  1  0.25000000  0.25000000  0.25000000  1
  Mg  Mg2  1  0.49999900  0.49999900  0.49999900  1
loop_
_geom_bond_atom_site_label_1
_geom_bond_atom_site_label_2
_geom_bond_distance
_geom_bond_site_symmetry_2
Mg0 Tm0 3.135291 1_544
Mg0 Mg1 3.135291 1_455
Mg0 Mg1 3.135291 1_545
Mg0 Mg1 3.135291 1_554
Mg0 Tm0 3.135291 1_454
Mg0 Tm0 3.135291 1_444
Mg0 Tm0 3.135291 1_445
Mg0 Mg1 3.135291 1_555
Mg1 Mg2 3.135278 1_555
Mg1 Mg2 3.135295 1_554
Mg1 Mg2 3.135295 1_455
Mg1 Mg2 3.135295 1_545
Mg1 Tm0 3.620322 1_454
Mg1 Tm0 3.620322 1_544
Mg1 Tm0 3.620322 1_545
Mg1 Tm0 3.620322 1_445
Mg1 Tm0 3.620322 1_455
Mg1 Tm0 3.620322 1_554
Mg2 Tm0 3.135287 1_554
Mg2 Tm0 3.135287 1_455
Mg2 Tm0 3.135287 1_545
Mg2 Tm0 3.135304 1_555
