# generated using pymatgen
data_NaPu
_symmetry_space_group_name_H-M   'P 1'
_cell_length_a   5.49478625
_cell_length_b   9.13729090
_cell_length_c   9.04519711
_cell_angle_alpha   77.65069796
_cell_angle_beta   131.44487289
_cell_angle_gamma   101.20571588
_symmetry_Int_Tables_number   1
_chemical_formula_structural   NaPu
_chemical_formula_sum   'Na6 Pu6'
_cell_volume   331.67611721
_cell_formula_units_Z   6
loop_
 _symmetry_equiv_pos_site_id
 _symmetry_equiv_pos_as_xyz
  1  'x, y, z'
loop_
 _atom_site_type_symbol
 _atom_site_label
 _atom_site_symmetry_multiplicity
 _atom_site_fract_x
 _atom_site_fract_y
 _atom_site_fract_z
 _atom_site_occupancy
  Na  Na0  1  0.34418600  0.87231700  0.19652600  1
  Na  Na1  1  0.38809200  0.26653100  0.96770300  1
  Na  Na2  1  0.94063600  0.93518200  0.67110200  1
  Na  Na3  1  0.65581400  0.12768300  0.80347400  1
  Na  Na4  1  0.61190800  0.73346900  0.03229700  1
  Na  Na5  1  0.05936400  0.06481800  0.32889800  1
  Pu  Pu0  1  0.24477000  0.46491100  0.17937300  1
  Pu  Pu1  1  0.72971300  0.34331700  0.45047600  1
  Pu  Pu2  1  0.07878500  0.43719300  0.37014500  1
  Pu  Pu3  1  0.75523000  0.53508900  0.82062700  1
  Pu  Pu4  1  0.27028700  0.65668300  0.54952400  1
  Pu  Pu5  1  0.92121500  0.56280700  0.62985500  1
loop_
_geom_bond_atom_site_label_1
_geom_bond_atom_site_label_2
_geom_bond_distance
_geom_bond_site_symmetry_2
Na0 Na4 3.225626 1_555
Na0 Na4 3.303938 1_455
Na0 Na2 3.346178 1_555
Na0 Na5 3.380558 1_565
Na0 Na5 3.457740 1_665
Na0 Pu4 3.599482 1_555
Na0 Na2 3.634604 1_454
Na0 Pu0 3.677584 1_555
Na0 Na1 3.801463 1_564
Na0 Na3 3.804116 1_464
Na0 Pu5 3.963088 1_555
Na1 Na3 3.225626 1_555
Na1 Na3 3.303938 1_455
Na1 Pu0 3.406891 1_556
Na1 Na5 3.433637 1_656
Na1 Pu2 3.453324 1_656
Na1 Pu5 3.468583 1_455
Na1 Pu3 3.477556 1_555
Na1 Pu1 3.555925 1_455
Na1 Pu1 3.609995 1_556
Na1 Na2 3.776016 1_445
Na1 Pu0 3.917540 1_656
Na1 Pu3 3.959810 1_455
Na2 Na3 3.380558 1_565
Na2 Na4 3.433637 1_656
Na2 Na3 3.457740 1_665
Na2 Pu5 3.475160 1_555
Na2 Na5 3.494873 1_665
Na2 Pu4 3.666643 1_555
Na2 Pu3 3.807006 1_555
Na2 Pu1 3.829850 1_565
Na2 Na5 3.905366 1_565
Na2 Pu4 4.073261 1_655
Na3 Na5 3.346178 1_555
Na3 Pu1 3.599482 1_555
Na3 Na5 3.634604 1_656
Na3 Pu3 3.677584 1_555
Na3 Na4 3.801463 1_546
Na3 Pu2 3.963088 1_555
Na4 Pu3 3.406891 1_554
Na4 Pu5 3.453324 1_454
Na4 Pu2 3.468583 1_655
Na4 Pu0 3.477556 1_555
Na4 Pu4 3.555925 1_655
Na4 Pu4 3.609995 1_554
Na4 Na5 3.776016 1_665
Na4 Pu3 3.917540 1_454
Na4 Pu0 3.959810 1_655
Na5 Pu2 3.475160 1_555
Na5 Pu1 3.666643 1_555
Na5 Pu0 3.807006 1_555
Na5 Pu4 3.829850 1_545
Na5 Pu1 4.073261 1_455
Pu0 Pu2 2.383331 1_555
Pu0 Pu1 2.383966 1_555
Pu0 Pu3 2.530193 1_454
Pu1 Pu2 2.425214 1_655
Pu1 Pu5 2.464458 1_555
Pu2 Pu4 2.464458 1_555
Pu3 Pu5 2.383331 1_555
Pu3 Pu4 2.383966 1_555
Pu4 Pu5 2.425214 1_455
