# generated using pymatgen
data_Yb(TmSe2)2
_symmetry_space_group_name_H-M   'P 1'
_cell_length_a   4.00311300
_cell_length_b   13.39547700
_cell_length_c   13.69015500
_cell_angle_alpha   90.00000000
_cell_angle_beta   90.00000000
_cell_angle_gamma   90.00000000
_symmetry_Int_Tables_number   1
_chemical_formula_structural   Yb(TmSe2)2
_chemical_formula_sum   'Yb4 Tm8 Se16'
_cell_volume   734.11550682
_cell_formula_units_Z   4
loop_
 _symmetry_equiv_pos_site_id
 _symmetry_equiv_pos_as_xyz
  1  'x, y, z'
loop_
 _atom_site_type_symbol
 _atom_site_label
 _atom_site_symmetry_multiplicity
 _atom_site_fract_x
 _atom_site_fract_y
 _atom_site_fract_z
 _atom_site_occupancy
  Yb  Yb0  1  0.25000000  0.37056800  0.58211000  1
  Yb  Yb1  1  0.25000000  0.87056800  0.91789000  1
  Yb  Yb2  1  0.75000000  0.62943200  0.41789000  1
  Yb  Yb3  1  0.75000000  0.12943200  0.08211000  1
  Tm  Tm0  1  0.25000000  0.10798200  0.41780600  1
  Tm  Tm1  1  0.25000000  0.60798200  0.08219400  1
  Tm  Tm2  1  0.75000000  0.89201800  0.58219400  1
  Tm  Tm3  1  0.75000000  0.39201800  0.91780600  1
  Tm  Tm4  1  0.25000000  0.14842400  0.79623700  1
  Tm  Tm5  1  0.25000000  0.64842400  0.70376300  1
  Tm  Tm6  1  0.75000000  0.85157600  0.20376300  1
  Tm  Tm7  1  0.75000000  0.35157600  0.29623700  1
  Se  Se0  1  0.25000000  0.21454700  0.23620200  1
  Se  Se1  1  0.25000000  0.71454700  0.26379800  1
  Se  Se2  1  0.75000000  0.78545300  0.76379800  1
  Se  Se3  1  0.75000000  0.28545300  0.73620200  1
  Se  Se4  1  0.25000000  0.25594600  0.97437800  1
  Se  Se5  1  0.25000000  0.75594600  0.52562200  1
  Se  Se6  1  0.75000000  0.74405400  0.02562200  1
  Se  Se7  1  0.75000000  0.24405400  0.47437800  1
  Se  Se8  1  0.25000000  0.46957300  0.38230900  1
  Se  Se9  1  0.25000000  0.96957300  0.11769100  1
  Se  Se10  1  0.75000000  0.53042700  0.61769100  1
  Se  Se11  1  0.75000000  0.03042700  0.88230900  1
  Se  Se12  1  0.25000000  0.03477500  0.61816700  1
  Se  Se13  1  0.25000000  0.53477500  0.88183300  1
  Se  Se14  1  0.75000000  0.96522500  0.38183300  1
  Se  Se15  1  0.75000000  0.46522500  0.11816700  1
loop_
_geom_bond_atom_site_label_1
_geom_bond_atom_site_label_2
_geom_bond_distance
_geom_bond_site_symmetry_2
Se0 Tm7 2.837436 1_555
Se0 Tm7 2.837436 1_455
Se0 Tm0 2.866854 1_555
Se0 Yb3 3.123517 1_555
Se0 Yb3 3.123517 1_455
Se1 Tm6 2.837436 1_555
Se1 Tm6 2.837436 1_455
Se1 Tm1 2.866854 1_555
Se1 Yb2 3.123517 1_455
Se1 Yb2 3.123517 1_555
Se2 Tm5 2.837436 1_555
Se2 Tm5 2.837436 1_655
Se2 Tm2 2.866854 1_555
Se2 Yb1 3.123517 1_655
Se2 Yb1 3.123517 1_555
Se3 Tm4 2.837436 1_555
Se3 Tm4 2.837436 1_655
Se3 Tm3 2.866854 1_555
Se3 Yb0 3.123517 1_555
Se3 Yb0 3.123517 1_655
Se4 Tm3 2.815752 1_555
Se4 Tm3 2.815752 1_455
Se4 Tm4 2.832336 1_555
Se4 Yb3 3.008907 1_456
Se4 Yb3 3.008907 1_556
Se5 Tm2 2.815752 1_555
Se5 Tm2 2.815752 1_455
Se5 Tm5 2.832336 1_555
Se5 Yb2 3.008907 1_455
Se5 Yb2 3.008907 1_555
Se6 Tm1 2.815752 1_555
Se6 Tm1 2.815752 1_655
Se6 Tm6 2.832336 1_555
Se6 Yb1 3.008907 1_554
Se6 Yb1 3.008907 1_654
Se7 Tm0 2.815752 1_555
Se7 Tm0 2.815752 1_655
Se7 Tm7 2.832336 1_555
Se7 Yb0 3.008907 1_555
Se7 Yb0 3.008907 1_655
Se8 Tm7 2.809464 1_555
Se8 Tm7 2.809464 1_455
Se8 Yb2 2.971371 1_555
Se8 Yb2 2.971371 1_455
Se8 Yb0 3.039862 1_555
Se9 Tm6 2.809464 1_455
Se9 Tm6 2.809464 1_555
Se9 Yb3 2.971371 1_565
Se9 Yb3 2.971371 1_465
Se9 Yb1 3.039862 1_554
Se10 Tm5 2.809464 1_555
Se10 Tm5 2.809464 1_655
Se10 Yb0 2.971371 1_555
Se10 Yb0 2.971371 1_655
Se10 Yb2 3.039862 1_555
Se11 Tm4 2.809464 1_655
Se11 Tm4 2.809464 1_555
Se11 Yb1 2.971371 1_645
Se11 Yb1 2.971371 1_545
Se11 Yb3 3.039862 1_556
Se12 Tm2 2.811698 1_545
Se12 Tm2 2.811698 1_445
Se12 Tm4 2.874117 1_555
Se12 Tm0 2.912999 1_555
Se13 Tm3 2.811698 1_555
Se13 Tm3 2.811698 1_455
Se13 Tm5 2.874117 1_555
Se13 Tm1 2.912999 1_556
Se14 Tm0 2.811698 1_665
Se14 Tm0 2.811698 1_565
Se14 Tm6 2.874117 1_555
Se14 Tm2 2.912999 1_555
Se15 Tm1 2.811698 1_555
Se15 Tm1 2.811698 1_655
Se15 Tm7 2.874117 1_555
Se15 Tm3 2.912999 1_554
