# generated using pymatgen
data_KBCNF3
_symmetry_space_group_name_H-M   'P 1'
_cell_length_a   6.61699200
_cell_length_b   10.27516100
_cell_length_c   13.67203300
_cell_angle_alpha   90.00000000
_cell_angle_beta   90.00000000
_cell_angle_gamma   90.00000000
_symmetry_Int_Tables_number   1
_chemical_formula_structural   KBCNF3
_chemical_formula_sum   'K8 B8 C8 N8 F24'
_cell_volume   929.57052172
_cell_formula_units_Z   8
loop_
 _symmetry_equiv_pos_site_id
 _symmetry_equiv_pos_as_xyz
  1  'x, y, z'
loop_
 _atom_site_type_symbol
 _atom_site_label
 _atom_site_symmetry_multiplicity
 _atom_site_fract_x
 _atom_site_fract_y
 _atom_site_fract_z
 _atom_site_occupancy
  K  K0  1  0.00249600  0.61999000  0.12455100  1
  K  K1  1  0.49750400  0.11999000  0.37544900  1
  K  K2  1  0.49750400  0.38001000  0.62455100  1
  K  K3  1  0.00249600  0.88001000  0.87544900  1
  K  K4  1  0.99750400  0.38001000  0.87544900  1
  K  K5  1  0.50249600  0.88001000  0.62455100  1
  K  K6  1  0.50249600  0.61999000  0.37544900  1
  K  K7  1  0.99750400  0.11999000  0.12455100  1
  B  B0  1  0.62810400  0.36998300  0.15058500  1
  B  B1  1  0.87189600  0.86998300  0.34941500  1
  B  B2  1  0.87189600  0.63001700  0.65058500  1
  B  B3  1  0.62810400  0.13001700  0.84941500  1
  B  B4  1  0.37189600  0.63001700  0.84941500  1
  B  B5  1  0.12810400  0.13001700  0.65058500  1
  B  B6  1  0.12810400  0.36998300  0.34941500  1
  B  B7  1  0.37189600  0.86998300  0.15058500  1
  C  C0  1  0.58449800  0.88308600  0.09359000  1
  C  C1  1  0.91550200  0.38308600  0.40641000  1
  C  C2  1  0.91550200  0.11691400  0.59359000  1
  C  C3  1  0.58449800  0.61691400  0.90641000  1
  C  C4  1  0.41550200  0.11691400  0.90641000  1
  C  C5  1  0.08449800  0.61691400  0.59359000  1
  C  C6  1  0.08449800  0.88308600  0.40641000  1
  C  C7  1  0.41550200  0.38308600  0.09359000  1
  N  N0  1  0.73871300  0.89381800  0.05298600  1
  N  N1  1  0.76128700  0.39381800  0.44701400  1
  N  N2  1  0.76128700  0.10618200  0.55298600  1
  N  N3  1  0.73871300  0.60618200  0.94701400  1
  N  N4  1  0.26128700  0.10618200  0.94701400  1
  N  N5  1  0.23871300  0.60618200  0.55298600  1
  N  N6  1  0.23871300  0.89381800  0.44701400  1
  N  N7  1  0.26128700  0.39381800  0.05298600  1
  F  F0  1  0.87437600  0.75776500  0.28902600  1
  F  F1  1  0.62562400  0.25776500  0.21097400  1
  F  F2  1  0.62562400  0.24223500  0.78902600  1
  F  F3  1  0.87437600  0.74223500  0.71097400  1
  F  F4  1  0.12562400  0.24223500  0.71097400  1
  F  F5  1  0.37437600  0.74223500  0.78902600  1
  F  F6  1  0.37437600  0.75776500  0.21097400  1
  F  F7  1  0.12562400  0.25776500  0.28902600  1
  F  F8  1  0.65945600  0.48366300  0.20774400  1
  F  F9  1  0.84054400  0.98366300  0.29225600  1
  F  F10  1  0.84054400  0.51633700  0.70774400  1
  F  F11  1  0.65945600  0.01633700  0.79225600  1
  F  F12  1  0.34054400  0.51633700  0.79225600  1
  F  F13  1  0.15945600  0.01633700  0.70774400  1
  F  F14  1  0.15945600  0.48366300  0.29225600  1
  F  F15  1  0.34054400  0.98366300  0.20774400  1
  F  F16  1  0.78938400  0.35762900  0.08244400  1
  F  F17  1  0.71061600  0.85762900  0.41755600  1
  F  F18  1  0.71061600  0.64237100  0.58244400  1
  F  F19  1  0.78938400  0.14237100  0.91755600  1
  F  F20  1  0.21061600  0.64237100  0.91755600  1
  F  F21  1  0.28938400  0.14237100  0.58244400  1
  F  F22  1  0.28938400  0.35762900  0.41755600  1
  F  F23  1  0.21061600  0.85762900  0.08244400  1
loop_
_geom_bond_atom_site_label_1
_geom_bond_atom_site_label_2
_geom_bond_distance
_geom_bond_site_symmetry_2
K0 N3 2.993070 1_454
K0 N7 3.048029 1_555
K1 N2 2.993070 1_555
K1 N6 3.048029 1_545
K2 N1 2.993070 1_555
K2 N5 3.048029 1_555
K3 N0 2.993070 1_456
K3 N4 3.048029 1_565
K4 N7 2.993070 1_656
K4 N3 3.048029 1_555
K5 N6 2.993070 1_555
K5 N2 3.048029 1_565
K6 N5 2.993070 1_555
K6 N1 3.048029 1_555
K7 N4 2.993070 1_654
K7 N0 3.048029 1_545
B0 F1 1.418272 1_555
B0 F8 1.420620 1_555
B0 F16 1.422298 1_555
B0 C7 1.613810 1_555
B1 F0 1.418272 1_555
B1 F9 1.420620 1_555
B1 F17 1.422298 1_555
B1 C6 1.613810 1_655
B2 F3 1.418272 1_555
B2 F10 1.420620 1_555
B2 F18 1.422298 1_555
B2 C5 1.613810 1_655
B3 F2 1.418272 1_555
B3 F11 1.420620 1_555
B3 F19 1.422298 1_555
B3 C4 1.613810 1_555
B4 F5 1.418272 1_555
B4 F12 1.420620 1_555
B4 F20 1.422298 1_555
B4 C3 1.613810 1_555
B5 F4 1.418272 1_555
B5 F13 1.420620 1_555
B5 F21 1.422298 1_555
B5 C2 1.613810 1_455
B6 F7 1.418272 1_555
B6 F14 1.420620 1_555
B6 F22 1.422298 1_555
B6 C1 1.613810 1_455
B7 F6 1.418272 1_555
B7 F15 1.420620 1_555
B7 F23 1.422298 1_555
B7 C0 1.613810 1_555
C0 N0 1.166892 1_555
C1 N1 1.166892 1_555
C2 N2 1.166892 1_555
C3 N3 1.166892 1_555
C4 N4 1.166892 1_555
C5 N5 1.166892 1_555
C6 N6 1.166892 1_555
C7 N7 1.166892 1_555
F0 K0 2.789174 1_655
F0 K6 3.074963 1_555
F1 K1 2.789174 1_555
F1 K7 3.074963 1_555
F2 K2 2.789174 1_555
F2 K4 3.074963 1_555
F3 K3 2.789174 1_655
F3 K5 3.074963 1_555
F4 K4 2.789174 1_455
F4 K2 3.074963 1_555
F5 K5 2.789174 1_555
F5 K3 3.074963 1_555
F6 K6 2.789174 1_555
F6 K0 3.074963 1_555
F7 K7 2.789174 1_455
F7 K1 3.074963 1_555
F8 K6 2.880648 1_555
F8 K0 2.899711 1_655
F9 K7 2.880648 1_565
F9 K1 2.899711 1_565
F10 K4 2.880648 1_555
F10 K2 2.899711 1_555
F11 K5 2.880648 1_545
F11 K3 2.899711 1_645
F12 K2 2.880648 1_555
F12 K4 2.899711 1_455
F13 K3 2.880648 1_545
F13 K5 2.899711 1_545
F14 K0 2.880648 1_555
F14 K6 2.899711 1_555
F15 K1 2.880648 1_565
F15 K7 2.899711 1_465
F16 K7 2.861850 1_555
F16 K0 3.096339 1_655
F16 K4 3.155710 1_554
F17 K6 2.861850 1_555
F17 K1 3.096339 1_565
F17 K5 3.155710 1_555
F18 K5 2.861850 1_555
F18 K2 3.096339 1_555
F18 K6 3.155710 1_555
F19 K4 2.861850 1_555
F19 K3 3.096339 1_645
F19 K7 3.155710 1_556
F20 K3 2.861850 1_555
F20 K4 3.096339 1_455
F20 K0 3.155710 1_556
F21 K2 2.861850 1_555
F21 K5 3.096339 1_545
F21 K1 3.155710 1_555
F22 K1 2.861850 1_555
F22 K6 3.096339 1_555
F22 K2 3.155710 1_555
F23 K0 2.861850 1_555
F23 K7 3.096339 1_465
F23 K3 3.155710 1_554
