# generated using pymatgen
data_K2Al2Si3O10
_symmetry_space_group_name_H-M   'P 1'
_cell_length_a   12.68126007
_cell_length_b   9.85403590
_cell_length_c   9.26554718
_cell_angle_alpha   83.03668492
_cell_angle_beta   50.47287593
_cell_angle_gamma   46.49043916
_symmetry_Int_Tables_number   1
_chemical_formula_structural   K2Al2Si3O10
_chemical_formula_sum   'K4 Al4 Si6 O20'
_cell_volume   533.72026738
_cell_formula_units_Z   2
loop_
 _symmetry_equiv_pos_site_id
 _symmetry_equiv_pos_as_xyz
  1  'x, y, z'
loop_
 _atom_site_type_symbol
 _atom_site_label
 _atom_site_symmetry_multiplicity
 _atom_site_fract_x
 _atom_site_fract_y
 _atom_site_fract_z
 _atom_site_occupancy
  K  K0  1  0.96750600  0.15763300  0.61481000  1
  K  K1  1  0.26005200  0.61481000  0.15763300  1
  K  K2  1  0.63519000  0.98994800  0.28249400  1
  K  K3  1  0.09236700  0.28249400  0.98994800  1
  Al  Al0  1  0.57384900  0.73052600  0.99657500  1
  Al  Al1  1  0.69905000  0.99657500  0.73052600  1
  Al  Al2  1  0.25342500  0.55095000  0.67615100  1
  Al  Al3  1  0.51947400  0.67615100  0.55095000  1
  Si  Si0  1  0.25518900  0.24481100  0.24481100  1
  Si  Si1  1  0.00518900  0.99481100  0.99481100  1
  Si  Si2  1  0.55179700  0.50483100  0.23679400  1
  Si  Si3  1  0.70657900  0.23679400  0.50483100  1
  Si  Si4  1  0.01320600  0.54342100  0.69820300  1
  Si  Si5  1  0.74516900  0.69820300  0.54342100  1
  O  O0  1  0.34380300  0.01765900  0.21305500  1
  O  O1  1  0.42548300  0.21305500  0.01765900  1
  O  O2  1  0.03694500  0.82451700  0.90619700  1
  O  O3  1  0.23234100  0.90619700  0.82451700  1
  O  O4  1  0.50773600  0.60857900  0.10239000  1
  O  O5  1  0.78129500  0.10239000  0.60857900  1
  O  O6  1  0.14761000  0.46870500  0.74226400  1
  O  O7  1  0.64142100  0.74226400  0.46870500  1
  O  O8  1  0.83586500  0.55937300  0.87581500  1
  O  O9  1  0.72894600  0.87581500  0.55937300  1
  O  O10  1  0.37418500  0.52105400  0.41413500  1
  O  O11  1  0.69062700  0.41413500  0.52105400  1
  O  O12  1  0.52997300  0.64016700  0.36004200  1
  O  O13  1  0.46981800  0.36004200  0.64016700  1
  O  O14  1  0.88995800  0.78018200  0.72002700  1
  O  O15  1  0.60983300  0.72002700  0.78018200  1
  O  O16  1  0.81663300  0.23427000  0.03597100  1
  O  O17  1  0.91312700  0.03597100  0.23427000  1
  O  O18  1  0.21402900  0.33687300  0.43336700  1
  O  O19  1  0.01573000  0.43336700  0.33687300  1
loop_
_geom_bond_atom_site_label_1
_geom_bond_atom_site_label_2
_geom_bond_distance
_geom_bond_site_symmetry_2
K0 O5 2.797678 1_555
K0 O0 2.846351 1_655
K0 O16 2.946228 1_556
K0 O4 3.132805 1_556
K0 O11 3.256015 1_555
K1 O4 2.797666 1_555
K1 O1 2.846357 1_555
K1 O17 2.946228 1_465
K1 O5 3.132805 1_465
K1 O10 3.256015 1_555
K2 O7 2.797671 1_555
K2 O2 2.846356 1_654
K2 O18 2.946228 1_565
K2 O6 3.132808 1_565
K2 O9 3.256015 1_555
K3 O6 2.797673 1_555
K3 O3 2.846348 1_545
K3 O19 2.946228 1_556
K3 O7 3.132809 1_456
K3 O8 3.256015 1_455
Al0 O15 1.749185 1_555
Al0 O0 1.761116 1_566
Al0 O8 1.773599 1_555
Al0 O4 1.778608 1_556
Al1 O14 1.749185 1_555
Al1 O1 1.761116 1_566
Al1 O9 1.773609 1_555
Al1 O5 1.778608 1_565
Al2 O13 1.749185 1_555
Al2 O2 1.761116 1_555
Al2 O10 1.773602 1_555
Al2 O6 1.778608 1_555
Al3 O12 1.749185 1_555
Al3 O3 1.761116 1_555
Al3 O11 1.773603 1_555
Al3 O7 1.778608 1_555
O0 Si0 1.623256 1_555
O1 Si0 1.623256 1_555
O2 Si1 1.623256 1_555
O3 Si1 1.623256 1_555
O4 Si2 1.642762 1_555
O5 Si3 1.642757 1_555
O6 Si4 1.642765 1_555
O7 Si5 1.642753 1_555
O8 Si4 1.629595 1_655
O9 Si5 1.629595 1_555
O10 Si2 1.629595 1_555
O11 Si3 1.629595 1_555
O12 Si2 1.618003 1_555
O13 Si3 1.618014 1_555
O14 Si4 1.618011 1_655
O15 Si5 1.618009 1_555
O16 Si1 1.649012 1_644
O16 Si2 1.663976 1_555
O17 Si1 1.649016 1_644
O17 Si3 1.663976 1_555
O18 Si0 1.649008 1_555
O18 Si4 1.663976 1_555
O19 Si0 1.649017 1_555
O19 Si5 1.663976 1_455
