# generated using pymatgen
data_SrTiCuO4
_symmetry_space_group_name_H-M   'P 1'
_cell_length_a   3.95467600
_cell_length_b   3.95467600
_cell_length_c   11.09341100
_cell_angle_alpha   90.00000000
_cell_angle_beta   90.00000000
_cell_angle_gamma   90.00000000
_symmetry_Int_Tables_number   1
_chemical_formula_structural   SrTiCuO4
_chemical_formula_sum   'Sr2 Ti2 Cu2 O8'
_cell_volume   173.49498272
_cell_formula_units_Z   2
loop_
 _symmetry_equiv_pos_site_id
 _symmetry_equiv_pos_as_xyz
  1  'x, y, z'
loop_
 _atom_site_type_symbol
 _atom_site_label
 _atom_site_symmetry_multiplicity
 _atom_site_fract_x
 _atom_site_fract_y
 _atom_site_fract_z
 _atom_site_occupancy
  Sr  Sr0  1  0.75000000  0.75000000  0.12677600  1
  Sr  Sr1  1  0.25000000  0.25000000  0.87322400  1
  Ti  Ti0  1  0.75000000  0.75000000  0.72889000  1
  Ti  Ti1  1  0.25000000  0.25000000  0.27111000  1
  Cu  Cu0  1  0.25000000  0.75000000  0.50000000  1
  Cu  Cu1  1  0.75000000  0.25000000  0.50000000  1
  O  O0  1  0.75000000  0.75000000  0.89877400  1
  O  O1  1  0.25000000  0.25000000  0.10122600  1
  O  O2  1  0.75000000  0.75000000  0.52625900  1
  O  O3  1  0.25000000  0.25000000  0.47374100  1
  O  O4  1  0.75000000  0.25000000  0.72246500  1
  O  O5  1  0.25000000  0.75000000  0.72246500  1
  O  O6  1  0.25000000  0.75000000  0.27753500  1
  O  O7  1  0.75000000  0.25000000  0.27753500  1
loop_
_geom_bond_atom_site_label_1
_geom_bond_atom_site_label_2
_geom_bond_distance
_geom_bond_site_symmetry_2
Cu0 O2 1.998680 1_555
Cu0 O2 1.998680 1_455
Cu0 O3 1.998680 1_555
Cu0 O3 1.998680 1_565
Cu0 O5 2.467896 1_555
Cu0 O6 2.467896 1_555
Cu1 O2 1.998680 1_555
Cu1 O2 1.998680 1_545
Cu1 O3 1.998680 1_555
Cu1 O3 1.998680 1_655
Cu1 O4 2.467896 1_555
Cu1 O7 2.467896 1_555
O0 Ti0 1.884593 1_555
O0 Sr0 2.529320 1_556
O0 Sr1 2.810706 1_655
O0 Sr1 2.810706 1_565
O0 Sr1 2.810706 1_665
O0 Sr1 2.810706 1_555
O1 Ti1 1.884593 1_555
O1 Sr1 2.529320 1_554
O1 Sr0 2.810706 1_545
O1 Sr0 2.810706 1_455
O1 Sr0 2.810706 1_555
O1 Sr0 2.810706 1_445
O2 Ti0 2.247869 1_555
O3 Ti1 2.247869 1_555
O4 Ti0 1.978622 1_545
O4 Ti0 1.978622 1_555
O4 Sr1 2.589767 1_555
O4 Sr1 2.589767 1_655
O5 Ti0 1.978622 1_455
O5 Ti0 1.978622 1_555
O5 Sr1 2.589767 1_555
O5 Sr1 2.589767 1_565
O6 Ti1 1.978622 1_555
O6 Ti1 1.978622 1_565
O6 Sr0 2.589767 1_555
O6 Sr0 2.589767 1_455
O7 Ti1 1.978622 1_555
O7 Ti1 1.978622 1_655
O7 Sr0 2.589767 1_555
O7 Sr0 2.589767 1_545
