# generated using pymatgen
data_K6Al4Si6BH4ClO24
_symmetry_space_group_name_H-M   'P 1'
_cell_length_a   9.98342500
_cell_length_b   9.98342500
_cell_length_c   13.23788400
_cell_angle_alpha   90.00000000
_cell_angle_beta   90.00000000
_cell_angle_gamma   90.00000000
_symmetry_Int_Tables_number   1
_chemical_formula_structural   K6Al4Si6BH4ClO24
_chemical_formula_sum   'K12 Al8 Si12 B2 H8 Cl2 O48'
_cell_volume   1319.40367831
_cell_formula_units_Z   2
loop_
 _symmetry_equiv_pos_site_id
 _symmetry_equiv_pos_as_xyz
  1  'x, y, z'
loop_
 _atom_site_type_symbol
 _atom_site_label
 _atom_site_symmetry_multiplicity
 _atom_site_fract_x
 _atom_site_fract_y
 _atom_site_fract_z
 _atom_site_occupancy
  K  K0  1  0.50000000  0.50000000  0.74746400  1
  K  K1  1  0.00000000  0.00000000  0.75253600  1
  K  K2  1  0.50000000  0.50000000  0.25253600  1
  K  K3  1  0.00000000  0.00000000  0.24746400  1
  K  K4  1  0.70791800  0.72413700  0.55773900  1
  K  K5  1  0.20791800  0.77586300  0.94226100  1
  K  K6  1  0.29208200  0.27586300  0.55773900  1
  K  K7  1  0.79208200  0.22413700  0.94226100  1
  K  K8  1  0.72413700  0.29208200  0.44226100  1
  K  K9  1  0.77586300  0.79208200  0.05773900  1
  K  K10  1  0.27586300  0.70791800  0.44226100  1
  K  K11  1  0.22413700  0.20791800  0.05773900  1
  Al  Al0  1  0.88828800  0.65449200  0.81441600  1
  Al  Al1  1  0.38828800  0.84550800  0.68558400  1
  Al  Al2  1  0.11171200  0.34550800  0.81441600  1
  Al  Al3  1  0.61171200  0.15449200  0.68558400  1
  Al  Al4  1  0.65449200  0.11171200  0.18558400  1
  Al  Al5  1  0.84550800  0.61171200  0.31441600  1
  Al  Al6  1  0.34550800  0.88828800  0.18558400  1
  Al  Al7  1  0.15449200  0.38828800  0.31441600  1
  Si  Si0  1  0.65469700  0.88513300  0.80547100  1
  Si  Si1  1  0.15469700  0.61486700  0.69452900  1
  Si  Si2  1  0.34530300  0.11486700  0.80547100  1
  Si  Si3  1  0.84530300  0.38513300  0.69452900  1
  Si  Si4  1  0.88513300  0.34530300  0.19452900  1
  Si  Si5  1  0.61486700  0.84530300  0.30547100  1
  Si  Si6  1  0.11486700  0.65469700  0.19452900  1
  Si  Si7  1  0.38513300  0.15469700  0.30547100  1
  Si  Si8  1  0.00000000  0.50000000  0.50789300  1
  Si  Si9  1  0.50000000  0.00000000  0.99210700  1
  Si  Si10  1  0.50000000  0.00000000  0.49210700  1
  Si  Si11  1  0.00000000  0.50000000  0.00789300  1
  B  B0  1  0.50000000  0.50000000  0.00000000  1
  B  B1  1  0.00000000  0.00000000  0.50000000  1
  H  H0  1  0.67841100  0.52395100  0.06855300  1
  H  H1  1  0.17841100  0.97604900  0.43144700  1
  H  H2  1  0.32158900  0.47604900  0.06855300  1
  H  H3  1  0.82158900  0.02395100  0.43144700  1
  H  H4  1  0.52395100  0.32158900  0.93144700  1
  H  H5  1  0.97604900  0.82158900  0.56855300  1
  H  H6  1  0.47604900  0.67841100  0.93144700  1
  H  H7  1  0.02395100  0.17841100  0.56855300  1
  Cl  Cl0  1  0.50000000  0.50000000  0.50000000  1
  Cl  Cl1  1  0.00000000  0.00000000  0.00000000  1
  O  O0  1  0.79244900  0.80113600  0.81724600  1
  O  O1  1  0.29244900  0.69886400  0.68275400  1
  O  O2  1  0.20755100  0.19886400  0.81724600  1
  O  O3  1  0.70755100  0.30113600  0.68275400  1
  O  O4  1  0.80113600  0.20755100  0.18275400  1
  O  O5  1  0.69886400  0.70755100  0.31724600  1
  O  O6  1  0.19886400  0.79244900  0.18275400  1
  O  O7  1  0.30113600  0.29244900  0.31724600  1
  O  O8  1  0.91075200  0.60223100  0.94055500  1
  O  O9  1  0.41075200  0.89776900  0.55944500  1
  O  O10  1  0.08924800  0.39776900  0.94055500  1
  O  O11  1  0.58924800  0.10223100  0.55944500  1
  O  O12  1  0.60223100  0.08924800  0.05944500  1
  O  O13  1  0.89776900  0.58924800  0.44055500  1
  O  O14  1  0.39776900  0.91075200  0.05944500  1
  O  O15  1  0.10223100  0.41075200  0.44055500  1
  O  O16  1  0.58646000  0.89559000  0.92054700  1
  O  O17  1  0.08646000  0.60441000  0.57945300  1
  O  O18  1  0.41354000  0.10441000  0.92054700  1
  O  O19  1  0.91354000  0.39559000  0.57945300  1
  O  O20  1  0.89559000  0.41354000  0.07945300  1
  O  O21  1  0.60441000  0.91354000  0.42054700  1
  O  O22  1  0.10441000  0.58646000  0.07945300  1
  O  O23  1  0.39559000  0.08646000  0.42054700  1
  O  O24  1  0.55012100  0.80551000  0.73186400  1
  O  O25  1  0.05012100  0.69449000  0.76813600  1
  O  O26  1  0.44987900  0.19449000  0.73186400  1
  O  O27  1  0.94987900  0.30551000  0.76813600  1
  O  O28  1  0.80551000  0.44987900  0.26813600  1
  O  O29  1  0.69449000  0.94987900  0.23186400  1
  O  O30  1  0.19449000  0.55012100  0.26813600  1
  O  O31  1  0.30551000  0.05012100  0.23186400  1
  O  O32  1  0.81147600  0.53641000  0.73402200  1
  O  O33  1  0.31147600  0.96359000  0.76597800  1
  O  O34  1  0.18852400  0.46359000  0.73402200  1
  O  O35  1  0.68852400  0.03641000  0.76597800  1
  O  O36  1  0.53641000  0.18852400  0.26597800  1
  O  O37  1  0.96359000  0.68852400  0.23402200  1
  O  O38  1  0.46359000  0.81147600  0.26597800  1
  O  O39  1  0.03641000  0.31147600  0.23402200  1
  O  O40  1  0.92224900  0.90244900  0.56236400  1
  O  O41  1  0.42224900  0.59755100  0.93763600  1
  O  O42  1  0.07775100  0.09755100  0.56236400  1
  O  O43  1  0.57775100  0.40244900  0.93763600  1
  O  O44  1  0.90244900  0.07775100  0.43763600  1
  O  O45  1  0.59755100  0.57775100  0.06236400  1
  O  O46  1  0.09755100  0.92224900  0.43763600  1
  O  O47  1  0.40244900  0.42224900  0.06236400  1
loop_
_geom_bond_atom_site_label_1
_geom_bond_atom_site_label_2
_geom_bond_distance
_geom_bond_site_symmetry_2
K0 O41 2.808677 1_555
K0 O43 2.808677 1_555
K0 O1 2.994807 1_555
K0 O3 2.994807 1_555
K0 O26 3.097700 1_555
K0 O24 3.097700 1_555
K0 O32 3.135823 1_555
K0 O34 3.135823 1_555
K1 O42 2.808677 1_555
K1 O40 2.808677 1_445
K1 O2 2.994807 1_555
K1 O0 2.994807 1_445
K1 O25 3.097700 1_545
K1 O27 3.097700 1_455
K1 O33 3.135823 1_545
K1 O35 3.135823 1_455
K2 O45 2.808677 1_555
K2 O47 2.808677 1_555
K2 O5 2.994807 1_555
K2 O7 2.994807 1_555
K2 O30 3.097700 1_555
K2 O28 3.097700 1_555
K2 O36 3.135823 1_555
K2 O38 3.135823 1_555
K3 O44 2.808677 1_455
K3 O46 2.808677 1_545
K3 O4 2.994807 1_455
K3 O6 2.994807 1_545
K3 O31 3.097700 1_555
K3 O29 3.097700 1_445
K3 O39 3.135823 1_555
K3 O37 3.135823 1_445
K4 O40 2.784115 1_555
K4 O13 2.795051 1_555
K4 O21 2.818092 1_555
K4 O24 2.907739 1_555
K4 O32 3.166559 1_555
K4 O5 3.189203 1_555
K5 O41 2.784115 1_555
K5 O14 2.795051 1_556
K5 O22 2.818092 1_556
K5 O25 2.907739 1_555
K5 O33 3.166559 1_555
K5 O6 3.189203 1_556
K6 O42 2.784115 1_555
K6 O15 2.795051 1_555
K6 O23 2.818092 1_555
K6 O26 2.907739 1_555
K6 O34 3.166559 1_555
K6 O7 3.189203 1_555
K7 O43 2.784115 1_555
K7 O12 2.795051 1_556
K7 O20 2.818092 1_556
K7 O27 2.907739 1_555
K7 O35 3.166559 1_555
K7 O4 3.189203 1_556
K8 O44 2.784115 1_555
K8 O11 2.795051 1_555
K8 O19 2.818092 1_555
K8 O28 2.907739 1_555
K8 O36 3.166559 1_555
K8 O3 3.189203 1_555
K9 O45 2.784115 1_555
K9 O8 2.795051 1_554
K9 O16 2.818092 1_554
K9 O29 2.907739 1_555
K9 O37 3.166559 1_555
K9 O0 3.189203 1_554
K10 O46 2.784115 1_555
K10 O9 2.795051 1_555
K10 O17 2.818092 1_555
K10 O30 2.907739 1_555
K10 O38 3.166559 1_555
K10 O1 3.189203 1_555
K11 O47 2.784115 1_555
K11 O10 2.795051 1_554
K11 O18 2.818092 1_554
K11 O31 2.907739 1_555
K11 O39 3.166559 1_555
K11 O2 3.189203 1_554
Al0 O0 1.749342 1_555
Al0 O32 1.763630 1_555
Al0 O8 1.763743 1_555
Al0 O25 1.773446 1_655
Al1 O1 1.749342 1_555
Al1 O33 1.763630 1_555
Al1 O9 1.763743 1_555
Al1 O24 1.773446 1_555
Al2 O2 1.749342 1_555
Al2 O34 1.763630 1_555
Al2 O10 1.763743 1_555
Al2 O27 1.773446 1_455
Al3 O3 1.749342 1_555
Al3 O35 1.763630 1_555
Al3 O11 1.763743 1_555
Al3 O26 1.773446 1_555
Al4 O4 1.749342 1_555
Al4 O36 1.763630 1_555
Al4 O12 1.763743 1_555
Al4 O29 1.773446 1_545
Al5 O5 1.749342 1_555
Al5 O37 1.763630 1_555
Al5 O13 1.763743 1_555
Al5 O28 1.773446 1_555
Al6 O6 1.749342 1_555
Al6 O38 1.763630 1_555
Al6 O14 1.763743 1_555
Al6 O31 1.773446 1_565
Al7 O7 1.749342 1_555
Al7 O39 1.763630 1_555
Al7 O15 1.763743 1_555
Al7 O30 1.773446 1_555
B0 O45 1.494172 1_555
B0 O47 1.494172 1_555
B0 O41 1.494172 1_554
B0 O43 1.494172 1_554
B1 O42 1.494172 1_555
B1 O40 1.494172 1_445
B1 O46 1.494172 1_545
B1 O44 1.494172 1_455
H0 O45 0.973070 1_555
H0 K9 2.851780 1_555
H1 O46 0.973070 1_555
H1 K10 2.851780 1_555
H2 O47 0.973070 1_555
H2 K11 2.851780 1_555
H3 O44 0.973070 1_555
H3 K8 2.851780 1_555
H4 O43 0.973070 1_555
H4 K7 2.851780 1_555
H5 O40 0.973070 1_555
H5 K4 2.851780 1_555
H6 O41 0.973070 1_555
H6 K5 2.851780 1_555
H7 O42 0.973070 1_555
H7 K6 2.851780 1_555
Cl0 K4 3.146425 1_555
Cl0 K8 3.146425 1_555
Cl0 K10 3.146425 1_555
Cl0 K6 3.146425 1_555
Cl0 K0 3.275900 1_555
Cl0 K2 3.275900 1_555
Cl1 K11 3.146425 1_555
Cl1 K9 3.146425 1_445
Cl1 K5 3.146425 1_544
Cl1 K7 3.146425 1_454
Cl1 K3 3.275900 1_555
Cl1 K1 3.275900 1_554
O0 Si0 1.618266 1_555
O1 Si1 1.618266 1_555
O2 Si2 1.618266 1_555
O3 Si3 1.618266 1_555
O4 Si4 1.618266 1_555
O5 Si5 1.618266 1_555
O6 Si6 1.618266 1_555
O7 Si7 1.618266 1_555
O8 Si11 1.621775 1_656
O9 Si10 1.621775 1_565
O10 Si11 1.621775 1_556
O11 Si10 1.621775 1_555
O12 Si9 1.621775 1_554
O13 Si8 1.621775 1_655
O14 Si9 1.621775 1_564
O15 Si8 1.621775 1_555
O16 Si9 1.651961 1_565
O16 Si0 1.672011 1_555
O17 Si8 1.651961 1_555
O17 Si1 1.672011 1_555
O18 Si9 1.651961 1_555
O18 Si2 1.672011 1_555
O19 Si8 1.651961 1_655
O19 Si3 1.672011 1_555
O20 Si11 1.651961 1_655
O20 Si4 1.672011 1_555
O21 Si10 1.651961 1_565
O21 Si5 1.672011 1_555
O22 Si11 1.651961 1_555
O22 Si6 1.672011 1_555
O23 Si10 1.651961 1_555
O23 Si7 1.672011 1_555
O24 Si0 1.634421 1_555
O25 Si1 1.634421 1_555
O26 Si2 1.634421 1_555
O27 Si3 1.634421 1_555
O28 Si4 1.634421 1_555
O29 Si5 1.634421 1_555
O30 Si6 1.634421 1_555
O31 Si7 1.634421 1_555
O32 Si3 1.633482 1_555
O33 Si2 1.633482 1_565
O34 Si1 1.633482 1_555
O35 Si0 1.633482 1_545
O36 Si7 1.633482 1_555
O37 Si6 1.633482 1_655
O38 Si5 1.633482 1_555
O39 Si4 1.633482 1_455
