# generated using pymatgen
data_Rb3NaH4
_symmetry_space_group_name_H-M   'P 1'
_cell_length_a   5.84403100
_cell_length_b   5.84403100
_cell_length_c   5.84403100
_cell_angle_alpha   90.00000000
_cell_angle_beta   90.00000000
_cell_angle_gamma   90.00000000
_symmetry_Int_Tables_number   1
_chemical_formula_structural   Rb3NaH4
_chemical_formula_sum   'Rb3 Na1 H4'
_cell_volume   199.58942777
_cell_formula_units_Z   1
loop_
 _symmetry_equiv_pos_site_id
 _symmetry_equiv_pos_as_xyz
  1  'x, y, z'
loop_
 _atom_site_type_symbol
 _atom_site_label
 _atom_site_symmetry_multiplicity
 _atom_site_fract_x
 _atom_site_fract_y
 _atom_site_fract_z
 _atom_site_occupancy
  Rb  Rb0  1  0.00000000  0.00000000  0.50000000  1
  Rb  Rb1  1  0.00000000  0.50000000  0.00000000  1
  Rb  Rb2  1  0.50000000  0.00000000  0.00000000  1
  Na  Na0  1  0.50000000  0.50000000  0.50000000  1
  H  H0  1  0.50000000  0.50000000  0.00000000  1
  H  H1  1  0.50000000  0.00000000  0.50000000  1
  H  H2  1  0.00000000  0.50000000  0.50000000  1
  H  H3  1  0.00000000  0.00000000  0.00000000  1
loop_
_geom_bond_atom_site_label_1
_geom_bond_atom_site_label_2
_geom_bond_distance
_geom_bond_site_symmetry_2
H0 Rb2 2.922016 1_555
H0 Rb2 2.922016 1_565
H0 Rb1 2.922016 1_655
H0 Rb1 2.922016 1_555
H1 Rb2 2.922016 1_556
H1 Rb0 2.922016 1_655
H1 Rb2 2.922016 1_555
H1 Rb0 2.922016 1_555
H2 Rb1 2.922016 1_555
H2 Rb0 2.922016 1_555
H2 Rb1 2.922016 1_556
H2 Rb0 2.922016 1_565
H3 Rb0 2.922016 1_555
H3 Rb0 2.922016 1_554
H3 Rb1 2.922016 1_555
H3 Rb2 2.922016 1_555
H3 Rb2 2.922016 1_455
H3 Rb1 2.922016 1_545
