# generated using pymatgen
data_Li2FeP2O7
_symmetry_space_group_name_H-M   'P 1'
_cell_length_a   5.04096512
_cell_length_b   5.13932877
_cell_length_c   13.31935447
_cell_angle_alpha   88.47579979
_cell_angle_beta   100.79740161
_cell_angle_gamma   60.61345660
_symmetry_Int_Tables_number   1
_chemical_formula_structural   Li2FeP2O7
_chemical_formula_sum   'Li4 Fe2 P4 O14'
_cell_volume   292.49816618
_cell_formula_units_Z   2
loop_
 _symmetry_equiv_pos_site_id
 _symmetry_equiv_pos_as_xyz
  1  'x, y, z'
loop_
 _atom_site_type_symbol
 _atom_site_label
 _atom_site_symmetry_multiplicity
 _atom_site_fract_x
 _atom_site_fract_y
 _atom_site_fract_z
 _atom_site_occupancy
  Li  Li0  1  0.20770100  0.87242900  0.40762900  1
  Li  Li1  1  0.66946600  0.62744500  0.09207500  1
  Li  Li2  1  0.33056700  0.37257000  0.90795700  1
  Li  Li3  1  0.79236800  0.12750400  0.59232700  1
  Fe  Fe0  1  0.00009800  0.49971300  0.50003000  1
  Fe  Fe1  1  0.99994500  0.99991100  0.00008100  1
  P  P0  1  0.46721200  0.77952100  0.63163600  1
  P  P1  1  0.61758100  0.72088700  0.86845200  1
  P  P2  1  0.38236000  0.27917300  0.13154500  1
  P  P3  1  0.53279300  0.22052900  0.36835200  1
  O  O0  1  0.66918900  0.99065700  0.88007700  1
  O  O1  1  0.37694300  0.73460900  0.92705000  1
  O  O2  1  0.56203600  0.91560900  0.39747800  1
  O  O3  1  0.44674500  0.74940100  0.75029400  1
  O  O4  1  0.18085700  0.76670200  0.57411000  1
  O  O5  1  0.77565700  0.50961100  0.61883900  1
  O  O6  1  0.07776200  0.58424800  0.10252600  1
  O  O7  1  0.92216800  0.41581100  0.89746500  1
  O  O8  1  0.22440000  0.49037900  0.38115600  1
  O  O9  1  0.81918500  0.23332500  0.42582300  1
  O  O10  1  0.55315300  0.25073000  0.24968400  1
  O  O11  1  0.43801900  0.08437600  0.60251700  1
  O  O12  1  0.62298900  0.26547800  0.07295200  1
  O  O13  1  0.33080300  0.00938300  0.11994500  1
loop_
_geom_bond_atom_site_label_1
_geom_bond_atom_site_label_2
_geom_bond_distance
_geom_bond_site_symmetry_2
Li0 O2 1.932848 1_555
Li0 O8 1.967845 1_555
Li0 O9 1.992821 1_465
Li0 O4 2.313222 1_555
Li1 O6 1.935835 1_655
Li1 O13 1.973012 1_565
Li1 O12 2.002734 1_555
Li1 O1 2.287633 1_554
Li2 O7 1.936187 1_455
Li2 O0 1.972903 1_545
Li2 O1 2.002768 1_555
Li2 O12 2.287161 1_556
Li3 O11 1.932892 1_555
Li3 O5 1.968218 1_555
Li3 O4 1.992630 1_645
Li3 O9 2.313584 1_555
Fe0 O5 2.098914 1_455
Fe0 O8 2.099827 1_555
Fe0 O9 2.154648 1_455
Fe0 O4 2.156117 1_555
Fe0 O11 2.320438 1_555
Fe0 O2 2.322306 1_455
Fe1 O13 2.102161 1_665
Fe1 O0 2.102477 1_554
Fe1 O12 2.152191 1_565
Fe1 O1 2.153391 1_654
Fe1 O6 2.324049 1_655
Fe1 O7 2.326338 1_564
O0 P1 1.537585 1_555
O1 P1 1.536008 1_555
O2 P3 1.532156 1_565
O3 P1 1.611208 1_555
O3 P0 1.611265 1_555
O4 P0 1.535168 1_555
O5 P0 1.538183 1_555
O6 P2 1.532337 1_555
O7 P1 1.532312 1_555
O8 P3 1.537933 1_555
O9 P3 1.535032 1_555
O10 P2 1.610992 1_555
O10 P3 1.611280 1_555
O11 P0 1.531927 1_545
O12 P2 1.535971 1_555
O13 P2 1.537503 1_555
