# generated using pymatgen
data_MgSiO3
_symmetry_space_group_name_H-M   'P 1'
_cell_length_a   8.98205500
_cell_length_b   5.25606000
_cell_length_c   18.53142194
_cell_angle_alpha   89.77495837
_cell_angle_beta   90.00000000
_cell_angle_gamma   90.00000000
_symmetry_Int_Tables_number   1
_chemical_formula_structural   MgSiO3
_chemical_formula_sum   'Mg16 Si16 O48'
_cell_volume   874.86575853
_cell_formula_units_Z   16
loop_
 _symmetry_equiv_pos_site_id
 _symmetry_equiv_pos_as_xyz
  1  'x, y, z'
loop_
 _atom_site_type_symbol
 _atom_site_label
 _atom_site_symmetry_multiplicity
 _atom_site_fract_x
 _atom_site_fract_y
 _atom_site_fract_z
 _atom_site_occupancy
  Mg  Mg0  1  0.34876000  0.57075800  0.87426400  1
  Mg  Mg1  1  0.84876000  0.92924200  0.12573600  1
  Mg  Mg2  1  0.65124000  0.42924200  0.12573600  1
  Mg  Mg3  1  0.15124000  0.07075800  0.87426400  1
  Mg  Mg4  1  0.99096700  0.56949600  0.87423800  1
  Mg  Mg5  1  0.49096700  0.93050400  0.12576200  1
  Mg  Mg6  1  0.00903300  0.43050400  0.12576200  1
  Mg  Mg7  1  0.50903300  0.06949600  0.87423800  1
  Mg  Mg8  1  0.34872200  0.86680000  0.37461300  1
  Mg  Mg9  1  0.84872200  0.63320000  0.62538700  1
  Mg  Mg10  1  0.65127800  0.13320000  0.62538700  1
  Mg  Mg11  1  0.15127800  0.36680000  0.37461300  1
  Mg  Mg12  1  0.99097800  0.86448500  0.37940600  1
  Mg  Mg13  1  0.49097800  0.63551500  0.62059400  1
  Mg  Mg14  1  0.00902200  0.13551500  0.62059400  1
  Mg  Mg15  1  0.50902200  0.36448500  0.37940600  1
  Si  Si0  1  0.83962300  0.26767600  0.97716700  1
  Si  Si1  1  0.33962300  0.23232400  0.02283300  1
  Si  Si2  1  0.16037700  0.73232400  0.02283300  1
  Si  Si3  1  0.66037700  0.76767600  0.97716700  1
  Si  Si4  1  0.66131300  0.08376700  0.27374500  1
  Si  Si5  1  0.16131300  0.41623300  0.72625500  1
  Si  Si6  1  0.33868700  0.91623300  0.72625500  1
  Si  Si7  1  0.83868700  0.58376700  0.27374500  1
  Si  Si8  1  0.33874800  0.52338000  0.22755100  1
  Si  Si9  1  0.83874800  0.97662000  0.77244900  1
  Si  Si10  1  0.66125200  0.47662000  0.77244900  1
  Si  Si11  1  0.16125200  0.02338000  0.22755100  1
  Si  Si12  1  0.83640800  0.30240300  0.47394600  1
  Si  Si13  1  0.33640800  0.19759700  0.52605400  1
  Si  Si14  1  0.16359200  0.69759700  0.52605400  1
  Si  Si15  1  0.66359200  0.80240300  0.47394600  1
  O  O0  1  0.83993700  0.26013900  0.06519600  1
  O  O1  1  0.33993700  0.23986100  0.93480400  1
  O  O2  1  0.16006300  0.73986100  0.93480400  1
  O  O3  1  0.66006300  0.76013900  0.06519600  1
  O  O4  1  0.99714200  0.24851800  0.93658200  1
  O  O5  1  0.49714200  0.25148200  0.06341800  1
  O  O6  1  0.00285800  0.75148200  0.06341800  1
  O  O7  1  0.50285800  0.74851800  0.93658200  1
  O  O8  1  0.71801300  0.05316700  0.94690600  1
  O  O9  1  0.21801300  0.44683300  0.05309400  1
  O  O10  1  0.28198700  0.94683300  0.05309400  1
  O  O11  1  0.78198700  0.55316700  0.94690600  1
  O  O12  1  0.66200700  0.08930200  0.18550100  1
  O  O13  1  0.16200700  0.41069800  0.81449900  1
  O  O14  1  0.33799300  0.91069800  0.81449900  1
  O  O15  1  0.83799300  0.58930200  0.18550100  1
  O  O16  1  0.50534100  0.05221000  0.31443400  1
  O  O17  1  0.00534100  0.44779000  0.68556600  1
  O  O18  1  0.49465900  0.94779000  0.68556600  1
  O  O19  1  0.99465900  0.55221000  0.31443400  1
  O  O20  1  0.71341600  0.37316500  0.30306900  1
  O  O21  1  0.21341600  0.12683500  0.69693100  1
  O  O22  1  0.28658400  0.62683500  0.69693100  1
  O  O23  1  0.78658400  0.87316500  0.30306900  1
  O  O24  1  0.34170700  0.53129100  0.31608800  1
  O  O25  1  0.84170700  0.96870900  0.68391200  1
  O  O26  1  0.65829300  0.46870900  0.68391200  1
  O  O27  1  0.15829300  0.03129100  0.31608800  1
  O  O28  1  0.48799300  0.61152000  0.18551400  1
  O  O29  1  0.98799300  0.88848000  0.81448600  1
  O  O30  1  0.51200700  0.38848000  0.81448600  1
  O  O31  1  0.01200700  0.11152000  0.18551400  1
  O  O32  1  0.29297900  0.23000200  0.20052000  1
  O  O33  1  0.79297900  0.26999800  0.79948000  1
  O  O34  1  0.70702100  0.76999800  0.79948000  1
  O  O35  1  0.20702100  0.73000200  0.20052000  1
  O  O36  1  0.83881600  0.30186600  0.56241600  1
  O  O37  1  0.33881600  0.19813400  0.43758400  1
  O  O38  1  0.16118400  0.69813400  0.43758400  1
  O  O39  1  0.66118400  0.80186600  0.56241600  1
  O  O40  1  0.98162200  0.19440700  0.43335400  1
  O  O41  1  0.48162200  0.30559300  0.56664600  1
  O  O42  1  0.01837800  0.80559300  0.56664600  1
  O  O43  1  0.51837800  0.69440700  0.43335400  1
  O  O44  1  0.69627000  0.10696000  0.44825300  1
  O  O45  1  0.19627000  0.39304000  0.55174700  1
  O  O46  1  0.30373000  0.89304000  0.55174700  1
  O  O47  1  0.80373000  0.60696000  0.44825300  1
loop_
_geom_bond_atom_site_label_1
_geom_bond_atom_site_label_2
_geom_bond_distance
_geom_bond_site_symmetry_2
Mg0 O7 2.032452 1_555
Mg0 O1 2.067477 1_555
Mg0 O30 2.074463 1_555
Mg0 O14 2.100688 1_555
Mg0 O13 2.180702 1_555
Mg0 O2 2.220160 1_555
Mg1 O6 2.032452 1_655
Mg1 O0 2.067477 1_565
Mg1 O31 2.074463 1_665
Mg1 O15 2.100688 1_555
Mg1 O12 2.180702 1_565
Mg1 O3 2.220160 1_555
Mg2 O5 2.032452 1_555
Mg2 O3 2.067477 1_555
Mg2 O28 2.074463 1_555
Mg2 O12 2.100688 1_555
Mg2 O15 2.180702 1_555
Mg2 O0 2.220160 1_555
Mg3 O4 2.032452 1_455
Mg3 O2 2.067477 1_545
Mg3 O29 2.074463 1_445
Mg3 O13 2.100688 1_555
Mg3 O14 2.180702 1_545
Mg3 O1 2.220160 1_555
Mg4 O29 2.005793 1_555
Mg4 O4 2.041758 1_555
Mg4 O13 2.071146 1_655
Mg4 O2 2.091958 1_655
Mg4 O11 2.311556 1_555
Mg5 O28 2.005793 1_555
Mg5 O5 2.041758 1_565
Mg5 O12 2.071146 1_565
Mg5 O3 2.091958 1_555
Mg5 O10 2.311556 1_555
Mg6 O31 2.005793 1_555
Mg6 O6 2.041758 1_555
Mg6 O15 2.071146 1_455
Mg6 O0 2.091958 1_455
Mg6 O9 2.311556 1_555
Mg7 O30 2.005793 1_555
Mg7 O7 2.041758 1_545
Mg7 O14 2.071146 1_545
Mg7 O1 2.091958 1_555
Mg7 O8 2.311556 1_555
Mg8 O16 2.040543 1_565
Mg8 O24 2.074854 1_555
Mg8 O43 2.078553 1_555
Mg8 O37 2.102022 1_565
Mg8 O27 2.200453 1_565
Mg8 O38 2.230920 1_555
Mg9 O17 2.040543 1_655
Mg9 O25 2.074854 1_555
Mg9 O42 2.078553 1_655
Mg9 O36 2.102022 1_555
Mg9 O26 2.200453 1_555
Mg9 O39 2.230920 1_555
Mg10 O18 2.040543 1_545
Mg10 O26 2.074854 1_555
Mg10 O41 2.078553 1_555
Mg10 O39 2.102022 1_545
Mg10 O25 2.200453 1_545
Mg10 O36 2.230920 1_555
Mg11 O19 2.040543 1_455
Mg11 O27 2.074854 1_555
Mg11 O40 2.078553 1_455
Mg11 O38 2.102022 1_555
Mg11 O24 2.200453 1_555
Mg11 O37 2.230920 1_555
Mg12 O40 2.006792 1_565
Mg12 O19 2.039675 1_555
Mg12 O38 2.063167 1_655
Mg12 O27 2.096641 1_665
Mg12 O23 2.318019 1_555
Mg12 O47 2.504999 1_555
Mg13 O41 2.006792 1_555
Mg13 O18 2.039675 1_555
Mg13 O39 2.063167 1_555
Mg13 O26 2.096641 1_555
Mg13 O22 2.318019 1_555
Mg13 O46 2.504999 1_555
Mg14 O42 2.006792 1_545
Mg14 O17 2.039675 1_555
Mg14 O36 2.063167 1_455
Mg14 O25 2.096641 1_445
Mg14 O21 2.318019 1_555
Mg14 O45 2.504999 1_555
Mg15 O43 2.006792 1_555
Mg15 O16 2.039675 1_555
Mg15 O37 2.063167 1_555
Mg15 O24 2.096641 1_555
Mg15 O20 2.318019 1_555
Mg15 O44 2.504999 1_555
O0 Si0 1.631630 1_554
O1 Si1 1.631630 1_556
O2 Si2 1.631630 1_556
O3 Si3 1.631630 1_554
O4 Si0 1.605668 1_555
O5 Si1 1.605668 1_555
O6 Si2 1.605668 1_555
O7 Si3 1.605668 1_555
O8 Si0 1.668463 1_555
O8 Si3 1.681529 1_545
O9 Si1 1.668463 1_555
O9 Si2 1.681529 1_555
O10 Si2 1.668463 1_555
O10 Si1 1.681529 1_565
O11 Si3 1.668463 1_555
O11 Si0 1.681529 1_555
O12 Si4 1.635443 1_555
O13 Si5 1.635443 1_555
O14 Si6 1.635443 1_555
O15 Si7 1.635443 1_555
O16 Si4 1.599294 1_555
O17 Si5 1.599294 1_555
O18 Si6 1.599294 1_555
O19 Si7 1.599294 1_555
O20 Si7 1.667915 1_555
O20 Si4 1.683608 1_555
O21 Si6 1.667915 1_545
O21 Si5 1.683608 1_555
O22 Si5 1.667915 1_555
O22 Si6 1.683608 1_555
O23 Si4 1.667915 1_565
O23 Si7 1.683608 1_555
O24 Si8 1.641622 1_555
O25 Si9 1.641622 1_555
O26 Si10 1.641622 1_555
O27 Si11 1.641622 1_555
O28 Si8 1.617296 1_555
O29 Si9 1.617296 1_555
O30 Si10 1.617296 1_555
O31 Si11 1.617296 1_555
O32 Si8 1.674454 1_555
O32 Si11 1.681070 1_555
O33 Si9 1.674454 1_545
O33 Si10 1.681070 1_555
O34 Si10 1.674454 1_555
O34 Si9 1.681070 1_555
O35 Si11 1.674454 1_565
O35 Si8 1.681070 1_555
O36 Si12 1.639609 1_555
O37 Si13 1.639609 1_555
O38 Si14 1.639609 1_555
O39 Si15 1.639609 1_555
O40 Si12 1.610174 1_555
O41 Si13 1.610174 1_555
O42 Si14 1.610174 1_555
O43 Si15 1.610174 1_555
O44 Si15 1.693909 1_545
O44 Si12 1.694166 1_555
O45 Si14 1.693909 1_555
O45 Si13 1.694166 1_555
O46 Si13 1.693909 1_565
O46 Si14 1.694166 1_555
O47 Si12 1.693909 1_555
O47 Si15 1.694166 1_555
