# generated using pymatgen
data_Sb3O7
_symmetry_space_group_name_H-M   'P 1'
_cell_length_a   7.39253401
_cell_length_b   7.39253401
_cell_length_c   7.39253401
_cell_angle_alpha   121.02514459
_cell_angle_beta   120.72300671
_cell_angle_gamma   88.49281297
_symmetry_Int_Tables_number   1
_chemical_formula_structural   Sb3O7
_chemical_formula_sum   'Sb6 O14'
_cell_volume   281.78773718
_cell_formula_units_Z   2
loop_
 _symmetry_equiv_pos_site_id
 _symmetry_equiv_pos_as_xyz
  1  'x, y, z'
loop_
 _atom_site_type_symbol
 _atom_site_label
 _atom_site_symmetry_multiplicity
 _atom_site_fract_x
 _atom_site_fract_y
 _atom_site_fract_z
 _atom_site_occupancy
  Sb  Sb0  1  0.50000000  0.50000000  0.00000000  1
  Sb  Sb1  1  0.00000000  0.50000000  0.50000000  1
  Sb  Sb2  1  0.00000000  0.50000000  0.00000000  1
  Sb  Sb3  1  0.00000000  0.00000000  0.50000000  1
  Sb  Sb4  1  0.00000000  0.00000000  0.00000000  1
  Sb  Sb5  1  0.50000000  0.00000000  0.50000000  1
  O  O0  1  0.06245900  0.33529300  0.16273700  1
  O  O1  1  0.06245900  0.89972300  0.72716600  1
  O  O2  1  0.31801100  0.06801100  0.25000000  1
  O  O3  1  0.67255700  0.89972300  0.33726300  1
  O  O4  1  0.67255700  0.33529300  0.77283400  1
  O  O5  1  0.67498200  0.42498200  0.25000000  1
  O  O6  1  0.93754100  0.66470700  0.83726300  1
  O  O7  1  0.93754100  0.10027700  0.27283400  1
  O  O8  1  0.68198900  0.93198900  0.75000000  1
  O  O9  1  0.32744300  0.10027700  0.66273700  1
  O  O10  1  0.32744300  0.66470700  0.22716600  1
  O  O11  1  0.32501800  0.57501800  0.75000000  1
  O  O12  1  0.93442600  0.68442600  0.25000000  1
  O  O13  1  0.06557400  0.31557400  0.75000000  1
loop_
_geom_bond_atom_site_label_1
_geom_bond_atom_site_label_2
_geom_bond_distance
_geom_bond_site_symmetry_2
O0 Sb2 2.013922 1_555
O0 Sb4 2.055006 1_555
O0 Sb1 2.435012 1_555
O1 Sb3 2.013916 1_565
O1 Sb4 2.055007 1_566
O1 Sb1 2.435018 1_555
O2 Sb4 1.964708 1_555
O2 Sb5 1.964708 1_555
O3 Sb3 2.013915 1_665
O3 Sb5 2.055012 1_565
O3 Sb0 2.435017 1_555
O4 Sb2 2.013916 1_656
O4 Sb5 2.055007 1_555
O4 Sb0 2.435018 1_556
O5 Sb1 1.993113 1_655
O5 Sb0 1.993113 1_555
O6 Sb2 2.013922 1_656
O6 Sb4 2.055006 1_666
O6 Sb1 2.435012 1_655
O7 Sb3 2.013916 1_655
O7 Sb4 2.055007 1_655
O7 Sb1 2.435018 1_655
O8 Sb5 1.964708 1_565
O8 Sb4 1.964708 1_666
O9 Sb3 2.013915 1_555
O9 Sb5 2.055012 1_555
O9 Sb0 2.435017 1_556
O10 Sb2 2.013916 1_555
O10 Sb5 2.055007 1_565
O10 Sb0 2.435018 1_555
O11 Sb1 1.993113 1_555
O11 Sb0 1.993113 1_556
O12 Sb3 1.947471 1_665
O12 Sb2 1.947471 1_655
O12 Sb1 2.675179 1_655
O12 Sb0 2.675179 1_555
O13 Sb3 1.947471 1_555
O13 Sb2 1.947471 1_556
O13 Sb0 2.675179 1_556
O13 Sb1 2.675179 1_555
