# generated using pymatgen
data_YEr3V4O16
_symmetry_space_group_name_H-M   'P 1'
_cell_length_a   5.98130662
_cell_length_b   5.98130662
_cell_length_c   10.15116500
_cell_angle_alpha   90.00000000
_cell_angle_beta   90.00000000
_cell_angle_gamma   116.06641924
_symmetry_Int_Tables_number   1
_chemical_formula_structural   YEr3V4O16
_chemical_formula_sum   'Y1 Er3 V4 O16'
_cell_volume   326.22879845
_cell_formula_units_Z   1
loop_
 _symmetry_equiv_pos_site_id
 _symmetry_equiv_pos_as_xyz
  1  'x, y, z'
loop_
 _atom_site_type_symbol
 _atom_site_label
 _atom_site_symmetry_multiplicity
 _atom_site_fract_x
 _atom_site_fract_y
 _atom_site_fract_z
 _atom_site_occupancy
  Y  Y0  1  0.00000000  0.00000000  0.50000000  1
  Er  Er0  1  0.50000000  0.50000000  0.00000000  1
  Er  Er1  1  0.00000000  0.50000000  0.75089500  1
  Er  Er2  1  0.50000000  0.00000000  0.24910500  1
  V  V0  1  0.50000000  0.50000000  0.50000000  1
  V  V1  1  0.00000000  0.00000000  0.00000000  1
  V  V2  1  0.50000000  0.00000000  0.75155700  1
  V  V3  1  0.00000000  0.50000000  0.24844300  1
  O  O0  1  0.76833400  0.58144300  0.59342600  1
  O  O1  1  0.26919000  0.08318600  0.09301900  1
  O  O2  1  0.58144300  0.76833400  0.40657400  1
  O  O3  1  0.08318600  0.26919000  0.90698100  1
  O  O4  1  0.91467600  0.23064600  0.34134500  1
  O  O5  1  0.41713500  0.73048500  0.84398700  1
  O  O6  1  0.23064600  0.91467600  0.65865500  1
  O  O7  1  0.73048500  0.41713500  0.15601300  1
  O  O8  1  0.41855700  0.23166600  0.40657400  1
  O  O9  1  0.91681400  0.73081000  0.90698100  1
  O  O10  1  0.23166600  0.41855700  0.59342600  1
  O  O11  1  0.73081000  0.91681400  0.09301900  1
  O  O12  1  0.76935400  0.08532400  0.65865500  1
  O  O13  1  0.26951500  0.58286500  0.15601300  1
  O  O14  1  0.08532400  0.76935400  0.34134500  1
  O  O15  1  0.58286500  0.26951500  0.84398700  1
loop_
_geom_bond_atom_site_label_1
_geom_bond_atom_site_label_2
_geom_bond_distance
_geom_bond_site_symmetry_2
Er0 O15 2.292345 1_554
Er0 O5 2.292345 1_554
Er0 O7 2.292345 1_555
Er0 O13 2.292345 1_555
Er0 O9 2.447092 1_554
Er0 O11 2.447092 1_555
Er0 O3 2.447092 1_554
Er0 O1 2.447092 1_555
Er1 O3 2.295134 1_555
Er1 O9 2.295134 1_455
Er1 O10 2.303425 1_555
Er1 O0 2.303425 1_455
Er1 O12 2.434078 1_455
Er1 O6 2.434078 1_555
Er1 O5 2.448634 1_555
Er1 O15 2.448634 1_455
Er2 O11 2.295134 1_545
Er2 O1 2.295134 1_555
Er2 O8 2.303425 1_555
Er2 O2 2.303425 1_545
Er2 O14 2.434078 1_545
Er2 O4 2.434078 1_555
Er2 O13 2.448634 1_545
Er2 O7 2.448634 1_555
O0 V0 1.739428 1_555
O0 Y0 2.457320 1_665
O1 V1 1.739993 1_555
O2 V0 1.739428 1_555
O2 Y0 2.457320 1_665
O3 V1 1.739993 1_556
O4 V3 1.738633 1_655
O4 Y0 2.318667 1_655
O5 V2 1.738547 1_565
O6 V2 1.738633 1_565
O6 Y0 2.318667 1_565
O7 V3 1.738547 1_655
O8 V0 1.739428 1_555
O8 Y0 2.457320 1_555
O9 V1 1.739993 1_666
O10 V0 1.739428 1_555
O10 Y0 2.457320 1_555
O11 V1 1.739993 1_665
O12 V2 1.738633 1_555
O12 Y0 2.318667 1_655
O13 V3 1.738547 1_555
O14 V3 1.738633 1_555
O14 Y0 2.318667 1_565
O15 V2 1.738547 1_555
