# generated using pymatgen
data_ZnCu3P3O13
_symmetry_space_group_name_H-M   'P 1'
_cell_length_a   6.12522900
_cell_length_b   7.59059500
_cell_length_c   10.07667161
_cell_angle_alpha   79.28685554
_cell_angle_beta   90.00000000
_cell_angle_gamma   90.00000000
_symmetry_Int_Tables_number   1
_chemical_formula_structural   ZnCu3P3O13
_chemical_formula_sum   'Zn2 Cu6 P6 O26'
_cell_volume   460.34012737
_cell_formula_units_Z   2
loop_
 _symmetry_equiv_pos_site_id
 _symmetry_equiv_pos_as_xyz
  1  'x, y, z'
loop_
 _atom_site_type_symbol
 _atom_site_label
 _atom_site_symmetry_multiplicity
 _atom_site_fract_x
 _atom_site_fract_y
 _atom_site_fract_z
 _atom_site_occupancy
  Zn  Zn0  1  0.75000000  0.35987200  0.17554600  1
  Zn  Zn1  1  0.25000000  0.64012800  0.82445400  1
  Cu  Cu0  1  0.25000000  0.64992000  0.20249300  1
  Cu  Cu1  1  0.75000000  0.35008000  0.79750700  1
  Cu  Cu2  1  0.25000000  0.23572800  0.43188300  1
  Cu  Cu3  1  0.50000000  0.00000000  0.00000000  1
  Cu  Cu4  1  0.75000000  0.76427200  0.56811700  1
  Cu  Cu5  1  0.00000000  0.00000000  0.00000000  1
  P  P0  1  0.25000000  0.79047400  0.48865600  1
  P  P1  1  0.75000000  0.20952600  0.51134400  1
  P  P2  1  0.25000000  0.26269600  0.75956400  1
  P  P3  1  0.75000000  0.73730400  0.24043600  1
  P  P4  1  0.75000000  0.67909200  0.88562300  1
  P  P5  1  0.25000000  0.32090800  0.11437700  1
  O  O0  1  0.75000000  0.62048500  0.74416100  1
  O  O1  1  0.56114300  0.24968400  0.40459100  1
  O  O2  1  0.25000000  0.20227500  0.62558900  1
  O  O3  1  0.53472400  0.78412600  0.89374600  1
  O  O4  1  0.75000000  0.35312800  0.60122800  1
  O  O5  1  0.75000000  0.11812500  0.90625000  1
  O  O6  1  0.25000000  0.64687200  0.39877200  1
  O  O7  1  0.03472400  0.21587400  0.10625400  1
  O  O8  1  0.25000000  0.97575500  0.40063200  1
  O  O9  1  0.75000000  0.02424500  0.59936800  1
  O  O10  1  0.06179500  0.38826200  0.78878700  1
  O  O11  1  0.25000000  0.88187500  0.09375000  1
  O  O12  1  0.56179500  0.61173800  0.21121300  1
  O  O13  1  0.75000000  0.49186600  0.97709200  1
  O  O14  1  0.75000000  0.79772500  0.37441100  1
  O  O15  1  0.46527600  0.21587400  0.10625400  1
  O  O16  1  0.93885700  0.24968400  0.40459100  1
  O  O17  1  0.43885700  0.75031600  0.59540900  1
  O  O18  1  0.43820500  0.38826200  0.78878700  1
  O  O19  1  0.25000000  0.37951500  0.25583900  1
  O  O20  1  0.75000000  0.91049300  0.12783300  1
  O  O21  1  0.25000000  0.08950700  0.87216700  1
  O  O22  1  0.93820500  0.61173800  0.21121300  1
  O  O23  1  0.96527600  0.78412600  0.89374600  1
  O  O24  1  0.06114300  0.75031600  0.59540900  1
  O  O25  1  0.25000000  0.50813400  0.02290800  1
loop_
_geom_bond_atom_site_label_1
_geom_bond_atom_site_label_2
_geom_bond_distance
_geom_bond_site_symmetry_2
Cu0 O11 1.892989 1_555
Cu0 O12 1.931229 1_555
Cu0 O22 1.931229 1_455
Cu0 O6 1.973669 1_555
Cu0 O19 2.022784 1_555
Cu0 O25 2.270924 1_555
Cu1 O5 1.892989 1_555
Cu1 O10 1.931229 1_655
Cu1 O18 1.931229 1_555
Cu1 O4 1.973669 1_555
Cu1 O0 2.022784 1_555
Cu1 O13 2.270924 1_555
Cu2 O19 1.902170 1_555
Cu2 O2 1.920980 1_555
Cu2 O1 1.925664 1_555
Cu2 O16 1.925664 1_455
Cu2 O8 2.055312 1_545
Cu3 O5 1.930384 1_554
Cu3 O11 1.930384 1_545
Cu3 O20 2.034799 1_545
Cu3 O21 2.034799 1_554
Cu3 O15 2.128128 1_555
Cu3 O3 2.128128 1_544
Cu4 O0 1.902170 1_555
Cu4 O14 1.920980 1_555
Cu4 O24 1.925664 1_655
Cu4 O17 1.925664 1_555
Cu4 O9 2.055312 1_565
Cu5 O5 1.930384 1_454
Cu5 O11 1.930384 1_545
Cu5 O20 2.034799 1_445
Cu5 O21 2.034799 1_554
Cu5 O7 2.128128 1_555
Cu5 O23 2.128128 1_444
O0 P4 1.570228 1_555
O1 P1 1.570458 1_555
O1 Zn0 2.578167 1_555
O2 P2 1.504359 1_555
O3 P4 1.550918 1_555
O3 Zn1 2.237749 1_555
O4 P1 1.541283 1_555
O6 P0 1.541283 1_555
O7 P5 1.550918 1_555
O7 Zn0 2.237749 1_455
O8 P0 1.516874 1_555
O9 P1 1.516874 1_555
O10 P2 1.558347 1_555
O10 Zn1 2.317025 1_555
O12 P3 1.558347 1_555
O12 Zn0 2.317025 1_555
O13 P4 1.543447 1_555
O13 Zn0 2.063481 1_556
O14 P3 1.504359 1_555
O15 P5 1.550918 1_555
O15 Zn0 2.237749 1_555
O16 P1 1.570458 1_555
O16 Zn0 2.578167 1_555
O17 P0 1.570458 1_555
O17 Zn1 2.578167 1_555
O18 P2 1.558347 1_555
O18 Zn1 2.317025 1_555
O19 P5 1.570228 1_555
O20 P3 1.568785 1_555
O21 P2 1.568785 1_555
O22 P3 1.558347 1_555
O22 Zn0 2.317025 1_555
O23 P4 1.550918 1_555
O23 Zn1 2.237749 1_655
O24 P0 1.570458 1_555
O24 Zn1 2.578167 1_555
O25 P5 1.543447 1_555
O25 Zn1 2.063481 1_554
