# generated using pymatgen
data_CaMg14Co
_symmetry_space_group_name_H-M   'P 1'
_cell_length_a   6.44490725
_cell_length_b   6.25767512
_cell_length_c   10.17358655
_cell_angle_alpha   90.00000000
_cell_angle_beta   90.00000000
_cell_angle_gamma   119.04356475
_symmetry_Int_Tables_number   1
_chemical_formula_structural   CaMg14Co
_chemical_formula_sum   'Ca1 Mg14 Co1'
_cell_volume   358.70697472
_cell_formula_units_Z   1
loop_
 _symmetry_equiv_pos_site_id
 _symmetry_equiv_pos_as_xyz
  1  'x, y, z'
loop_
 _atom_site_type_symbol
 _atom_site_label
 _atom_site_symmetry_multiplicity
 _atom_site_fract_x
 _atom_site_fract_y
 _atom_site_fract_z
 _atom_site_occupancy
  Ca  Ca0  1  0.14196336  0.32098118  0.12500000  1
  Mg  Mg0  1  0.17065984  0.33532942  0.62500000  1
  Mg  Mg1  1  0.16222424  0.83111162  0.62500000  1
  Mg  Mg2  1  0.63323364  0.30370299  0.12500000  1
  Mg  Mg3  1  0.66351568  0.33679000  0.62500000  1
  Mg  Mg4  1  0.63323364  0.82952964  0.12500000  1
  Mg  Mg5  1  0.66351568  0.82672468  0.62500000  1
  Mg  Mg6  1  0.33694676  0.16001211  0.37271753  1
  Mg  Mg7  1  0.33694676  0.16001211  0.87728247  1
  Mg  Mg8  1  0.33694676  0.67693565  0.37271753  1
  Mg  Mg9  1  0.33694676  0.67693565  0.87728247  1
  Mg  Mg10  1  0.83329488  0.16664794  0.38896353  1
  Mg  Mg11  1  0.83329488  0.16664794  0.86103647  1
  Mg  Mg12  1  0.86237505  0.68118803  0.34586817  1
  Mg  Mg13  1  0.86237505  0.68118803  0.90413183  1
  Co  Co0  1  0.19252702  0.84626301  0.12500000  1
loop_
_geom_bond_atom_site_label_1
_geom_bond_atom_site_label_2
_geom_bond_distance
_geom_bond_site_symmetry_2
Ca0 Co0 3.141782 1_555
Ca0 Co0 3.141782 1_545
Ca0 Mg7 3.189692 1_554
Ca0 Mg6 3.189692 1_555
Ca0 Mg8 3.189698 1_555
Ca0 Mg9 3.189698 1_554
Ca0 Mg11 3.199442 1_454
Ca0 Mg10 3.199442 1_455
Ca0 Mg4 3.220069 1_555
Ca0 Mg2 3.220069 1_555
Ca0 Mg4 3.227610 1_445
Ca0 Mg2 3.227610 1_455
Mg0 Mg10 3.062635 1_455
Mg0 Mg11 3.062635 1_455
Mg0 Mg1 3.129199 1_545
Mg0 Mg1 3.129199 1_555
Mg0 Mg5 3.171983 1_555
Mg0 Mg3 3.171983 1_555
Mg0 Mg6 3.175097 1_555
Mg0 Mg7 3.175097 1_555
Mg0 Mg8 3.175104 1_555
Mg0 Mg9 3.175104 1_555
Mg0 Mg5 3.272944 1_445
Mg0 Mg3 3.272944 1_455
Mg1 Mg8 3.137072 1_555
Mg1 Mg9 3.137072 1_555
Mg1 Mg6 3.137078 1_565
Mg1 Mg7 3.137078 1_565
Mg1 Mg3 3.200893 1_455
Mg1 Mg5 3.200893 1_455
Mg1 Mg3 3.244193 1_565
Mg1 Mg5 3.244193 1_555
Mg1 Mg12 3.304343 1_455
Mg1 Mg13 3.304343 1_455
Mg2 Mg7 3.023081 1_554
Mg2 Mg6 3.023081 1_555
Mg3 Mg5 3.065852 1_555
Mg3 Mg6 3.159178 1_555
Mg3 Mg7 3.159178 1_555
Mg3 Mg5 3.191823 1_545
Mg4 Mg9 3.023081 1_554
Mg4 Mg8 3.023081 1_555
Mg5 Mg8 3.159179 1_555
Mg5 Mg9 3.159179 1_555
Mg6 Mg8 3.022936 1_545
Mg6 Mg8 3.234740 1_555
Mg7 Mg9 3.022936 1_545
Mg7 Mg9 3.234740 1_555
Mg10 Mg3 3.037836 1_555
Mg10 Mg5 3.037843 1_545
Mg10 Mg12 3.163652 1_545
Mg10 Mg12 3.163652 1_555
Mg10 Mg8 3.183259 1_545
Mg10 Mg6 3.183259 1_555
Mg10 Mg2 3.268551 1_555
Mg10 Mg4 3.268556 1_545
Mg10 Mg8 3.270529 1_655
Mg10 Mg6 3.270530 1_655
Mg11 Mg3 3.037836 1_555
Mg11 Mg5 3.037843 1_545
Mg11 Mg13 3.163652 1_545
Mg11 Mg13 3.163652 1_555
Mg11 Mg9 3.183259 1_545
Mg11 Mg7 3.183259 1_555
Mg11 Mg2 3.268551 1_556
Mg11 Mg4 3.268556 1_546
Mg11 Mg9 3.270529 1_655
Mg11 Mg7 3.270530 1_655
Mg12 Mg6 3.083699 1_665
Mg12 Mg8 3.083699 1_655
Mg12 Mg6 3.384539 1_555
Mg12 Mg8 3.384539 1_555
Mg12 Mg5 3.416078 1_555
Mg12 Mg3 3.416084 1_555
Mg13 Mg7 3.083699 1_665
Mg13 Mg9 3.083699 1_655
Mg13 Mg7 3.384539 1_555
Mg13 Mg9 3.384539 1_555
Mg13 Mg5 3.416078 1_555
Mg13 Mg3 3.416084 1_555
Co0 Mg2 2.892597 1_565
Co0 Mg4 2.892597 1_555
Co0 Mg13 2.917115 1_454
Co0 Mg12 2.917115 1_455
Co0 Mg9 3.049255 1_554
Co0 Mg8 3.049255 1_555
Co0 Mg7 3.049261 1_564
Co0 Mg6 3.049261 1_565
