# generated using pymatgen
data_Na3CoBPO7
_symmetry_space_group_name_H-M   'P 1'
_cell_length_a   5.20094882
_cell_length_b   11.14537573
_cell_length_c   11.13978014
_cell_angle_alpha   105.14147669
_cell_angle_beta   91.40838073
_cell_angle_gamma   88.56734359
_symmetry_Int_Tables_number   1
_chemical_formula_structural   Na3CoBPO7
_chemical_formula_sum   'Na12 Co4 B4 P4 O28'
_cell_volume   623.01310123
_cell_formula_units_Z   4
loop_
 _symmetry_equiv_pos_site_id
 _symmetry_equiv_pos_as_xyz
  1  'x, y, z'
loop_
 _atom_site_type_symbol
 _atom_site_label
 _atom_site_symmetry_multiplicity
 _atom_site_fract_x
 _atom_site_fract_y
 _atom_site_fract_z
 _atom_site_occupancy
  Na  Na0  1  0.76360000  0.16316900  0.08685300  1
  Na  Na1  1  0.76160300  0.66429500  0.58635000  1
  Na  Na2  1  0.23528400  0.83446500  0.91505700  1
  Na  Na3  1  0.23534100  0.33512900  0.41446100  1
  Na  Na4  1  0.25468300  0.13620300  0.87289200  1
  Na  Na5  1  0.25457800  0.63530400  0.37221400  1
  Na  Na6  1  0.25479700  0.37769300  0.11337600  1
  Na  Na7  1  0.25455400  0.87703800  0.61452200  1
  Na  Na8  1  0.74627400  0.62139300  0.88366600  1
  Na  Na9  1  0.74570600  0.12094900  0.38336700  1
  Na  Na10  1  0.74553100  0.86604900  0.12888800  1
  Na  Na11  1  0.74385300  0.36687500  0.62841300  1
  Co  Co0  1  0.78252700  0.04401900  0.70661300  1
  Co  Co1  1  0.22716600  0.95332300  0.29494100  1
  Co  Co2  1  0.78251800  0.54358600  0.20585000  1
  Co  Co3  1  0.21956100  0.45034600  0.79206100  1
  B  B0  1  0.73035600  0.41032100  0.33994800  1
  B  B1  1  0.73024900  0.91019800  0.83987400  1
  B  B2  1  0.26666000  0.59158200  0.65943600  1
  B  B3  1  0.27233100  0.09120500  0.15888600  1
  P  P0  1  0.72001400  0.33406200  0.91559100  1
  P  P1  1  0.71771900  0.83477500  0.41538400  1
  P  P2  1  0.28187900  0.66350400  0.08539700  1
  P  P3  1  0.28263000  0.16368600  0.58642600  1
  O  O0  1  0.29074800  0.16679700  0.08334600  1
  O  O1  1  0.29728100  0.66560800  0.58285800  1
  O  O2  1  0.70334900  0.83541700  0.91486300  1
  O  O3  1  0.70344900  0.33550200  0.41514100  1
  O  O4  1  0.96520000  0.44695400  0.30336700  1
  O  O5  1  0.96515900  0.94671700  0.80312200  1
  O  O6  1  0.02850200  0.55736900  0.69470200  1
  O  O7  1  0.03732200  0.05361500  0.19642800  1
  O  O8  1  0.53122000  0.46506200  0.28444200  1
  O  O9  1  0.53112100  0.96549400  0.78481400  1
  O  O10  1  0.46973200  0.53914100  0.71526500  1
  O  O11  1  0.47918000  0.03914500  0.21085600  1
  O  O12  1  0.42534900  0.35742200  0.89339000  1
  O  O13  1  0.41949300  0.85808200  0.39251300  1
  O  O14  1  0.57671900  0.64135700  0.10827300  1
  O  O15  1  0.57715400  0.14215500  0.60879100  1
  O  O16  1  0.12533700  0.59106200  0.15900900  1
  O  O17  1  0.12566900  0.09102200  0.65919800  1
  O  O18  1  0.87269400  0.40750000  0.84116100  1
  O  O19  1  0.86898800  0.90822100  0.34199800  1
  O  O20  1  0.78197300  0.19287800  0.87378500  1
  O  O21  1  0.77561200  0.69339700  0.37379800  1
  O  O22  1  0.78249800  0.37585400  0.05673700  1
  O  O23  1  0.77587500  0.87637600  0.55687400  1
  O  O24  1  0.21939100  0.62263100  0.94368000  1
  O  O25  1  0.22004500  0.12394100  0.44465300  1
  O  O26  1  0.22066600  0.80583100  0.12737100  1
  O  O27  1  0.22085900  0.30628600  0.62909700  1
loop_
_geom_bond_atom_site_label_1
_geom_bond_atom_site_label_2
_geom_bond_distance
_geom_bond_site_symmetry_2
Na0 O7 2.369346 1_655
Na0 O0 2.458118 1_555
Na0 O22 2.483945 1_555
Na0 O20 2.485099 1_554
Na0 O11 2.684643 1_555
Na0 O0 2.744367 1_655
Na1 O6 2.321719 1_655
Na1 O1 2.414012 1_555
Na1 O23 2.473044 1_555
Na1 O21 2.475435 1_555
Na1 O10 2.751711 1_555
Na1 O1 2.787719 1_655
Na2 O5 2.394742 1_455
Na2 O2 2.434727 1_555
Na2 O24 2.467185 1_555
Na2 O26 2.471000 1_556
Na2 O2 2.766272 1_455
Na2 O9 2.816752 1_555
Na3 O4 2.385715 1_455
Na3 O3 2.434535 1_555
Na3 O25 2.466560 1_555
Na3 O27 2.497495 1_555
Na3 O3 2.766436 1_455
Na3 O8 2.807090 1_555
Na4 O0 2.282912 1_556
Na4 O9 2.367926 1_545
Na4 O17 2.383854 1_555
Na4 O20 2.522654 1_455
Na4 O5 2.564293 1_445
Na4 O12 2.593146 1_555
Na4 O20 2.828763 1_555
Na5 O1 2.287728 1_555
Na5 O8 2.364276 1_555
Na5 O16 2.379527 1_555
Na5 O4 2.553486 1_455
Na5 O21 2.557447 1_455
Na5 O13 2.599128 1_555
Na5 O21 2.800419 1_555
Na6 O0 2.289567 1_555
Na6 O8 2.369065 1_555
Na6 O16 2.381649 1_555
Na6 O22 2.520318 1_455
Na6 O4 2.566890 1_455
Na6 O12 2.578932 1_554
Na6 O22 2.829593 1_555
Na7 O1 2.295688 1_555
Na7 O9 2.366306 1_555
Na7 O17 2.387743 1_565
Na7 O5 2.554838 1_455
Na7 O23 2.555454 1_455
Na7 O13 2.592136 1_555
Na7 O23 2.801083 1_555
Na8 O2 2.324814 1_555
Na8 O10 2.337334 1_555
Na8 O18 2.384705 1_555
Na8 O6 2.531737 1_655
Na8 O24 2.533375 1_655
Na8 O14 2.625898 1_556
Na8 O24 2.835434 1_555
Na9 O3 2.329625 1_555
Na9 O11 2.337258 1_555
Na9 O19 2.369078 1_545
Na9 O25 2.542201 1_655
Na9 O7 2.545991 1_655
Na9 O15 2.630234 1_555
Na9 O25 2.831415 1_555
Na10 O2 2.324191 1_554
Na10 O11 2.341565 1_565
Na10 O19 2.371986 1_555
Na10 O26 2.543722 1_655
Na10 O7 2.553461 1_665
Na10 O14 2.625755 1_555
Na10 O26 2.825940 1_555
Na11 O3 2.314307 1_555
Na11 O10 2.369697 1_555
Na11 O18 2.376405 1_555
Na11 O27 2.555160 1_655
Na11 O6 2.555207 1_655
Na11 O15 2.624059 1_555
Na11 O27 2.819642 1_555
Co0 O5 1.934292 1_545
Co0 O9 1.935469 1_545
Co0 O17 1.994013 1_655
Co0 O15 2.007915 1_555
Co0 O20 2.146291 1_555
Co0 O23 2.155673 1_545
Co1 O13 1.950630 1_555
Co1 O7 1.990238 1_565
Co1 O11 2.025185 1_565
Co1 O19 2.056752 1_455
Co1 O26 2.141162 1_555
Co1 O25 2.177528 1_565
Co2 O4 1.937017 1_555
Co2 O8 1.937621 1_555
Co2 O16 1.992094 1_655
Co2 O14 2.004468 1_555
Co2 O22 2.152155 1_555
Co2 O21 2.158206 1_555
Co3 O10 1.991382 1_555
Co3 O12 1.997048 1_555
Co3 O18 2.002447 1_455
Co3 O6 2.037169 1_555
Co3 O27 2.085900 1_555
Co3 O24 2.201261 1_555
B0 O3 1.339057 1_555
B0 O4 1.400331 1_555
B0 O8 1.400437 1_555
B1 O2 1.336921 1_555
B1 O5 1.400882 1_555
B1 O9 1.401049 1_555
B2 O1 1.347111 1_555
B2 O6 1.399922 1_555
B2 O10 1.403789 1_555
B3 O0 1.343677 1_555
B3 O11 1.393863 1_555
B3 O7 1.409479 1_555
O12 P0 1.572474 1_555
O13 P1 1.591594 1_555
O14 P2 1.572277 1_555
O15 P3 1.568494 1_555
O16 P2 1.548790 1_555
O17 P3 1.545331 1_555
O18 P0 1.551564 1_555
O19 P1 1.539729 1_555
O20 P0 1.547894 1_555
O21 P1 1.545940 1_555
O22 P0 1.547469 1_554
O23 P1 1.546794 1_555
O24 P2 1.553033 1_556
O25 P3 1.553349 1_555
O26 P2 1.559129 1_555
O27 P3 1.562832 1_555
