# generated using pymatgen
data_Tm2Cu(GeO4)2
_symmetry_space_group_name_H-M   'P 1'
_cell_length_a   5.12247096
_cell_length_b   8.10939858
_cell_length_c   8.84956498
_cell_angle_alpha   116.95681832
_cell_angle_beta   106.36303693
_cell_angle_gamma   90.96253374
_symmetry_Int_Tables_number   1
_chemical_formula_structural   Tm2Cu(GeO4)2
_chemical_formula_sum   'Tm4 Cu2 Ge4 O16'
_cell_volume   309.87812872
_cell_formula_units_Z   2
loop_
 _symmetry_equiv_pos_site_id
 _symmetry_equiv_pos_as_xyz
  1  'x, y, z'
loop_
 _atom_site_type_symbol
 _atom_site_label
 _atom_site_symmetry_multiplicity
 _atom_site_fract_x
 _atom_site_fract_y
 _atom_site_fract_z
 _atom_site_occupancy
  Tm  Tm0  1  0.11389500  0.30083300  0.76009000  1
  Tm  Tm1  1  0.35380500  0.54074200  0.23991000  1
  Tm  Tm2  1  0.36595000  0.04468400  0.24112000  1
  Tm  Tm3  1  0.12483000  0.80356400  0.75888000  1
  Cu  Cu0  1  0.54693700  0.92593500  0.58521900  1
  Cu  Cu1  1  0.96171700  0.34071600  0.41478100  1
  Ge  Ge0  1  0.78937100  0.16246100  0.00000000  1
  Ge  Ge1  1  0.97121200  0.88836900  0.42111800  1
  Ge  Ge2  1  0.55009500  0.46725100  0.57888200  1
  Ge  Ge3  1  0.68518000  0.66661400  0.00000000  1
  O  O0  1  0.17376100  0.09731200  0.46881600  1
  O  O1  1  0.70494500  0.62849700  0.53118400  1
  O  O2  1  0.47791200  0.06296900  0.81246400  1
  O  O3  1  0.66544800  0.25050500  0.18753600  1
  O  O4  1  0.47576100  0.49011200  0.00000000  1
  O  O5  1  0.19495200  0.74250100  0.48256100  1
  O  O6  1  0.71239100  0.25994000  0.51743900  1
  O  O7  1  0.00487400  0.75675000  0.18380100  1
  O  O8  1  0.82107300  0.57294900  0.81619900  1
  O  O9  1  0.00394300  0.33861600  0.00000000  1
  O  O10  1  0.47616800  0.83800500  0.00000000  1
  O  O11  1  0.59366300  0.83811500  0.33706300  1
  O  O12  1  0.25660000  0.50105300  0.66293700  1
  O  O13  1  0.01259400  0.99513400  0.00000000  1
  O  O14  1  0.93624000  0.00556400  0.66035600  1
  O  O15  1  0.27588400  0.34520800  0.33964400  1
loop_
_geom_bond_atom_site_label_1
_geom_bond_atom_site_label_2
_geom_bond_distance
_geom_bond_site_symmetry_2
Cu0 O14 1.912131 1_565
Cu0 O2 1.947263 1_565
Cu0 O5 2.012651 1_555
Cu0 O11 2.066675 1_555
Cu0 O1 2.437145 1_555
Cu0 O0 2.631433 1_565
Cu1 O15 1.912136 1_655
Cu1 O3 1.947261 1_555
Cu1 O6 2.012647 1_555
Cu1 O12 2.066678 1_655
Cu1 O0 2.437154 1_655
Cu1 O1 2.631436 1_555
Ge0 O9 1.787735 1_655
Ge0 O13 1.789092 1_645
Ge0 O3 1.789290 1_555
Ge0 O2 1.789290 1_554
Ge1 O0 1.780846 1_665
Ge1 O5 1.812740 1_655
Ge1 O11 1.829699 1_555
Ge1 O7 1.938432 1_655
Ge1 O14 1.952645 1_565
Ge2 O1 1.780850 1_555
Ge2 O6 1.812737 1_555
Ge2 O12 1.829704 1_555
Ge2 O8 1.938430 1_555
Ge2 O15 1.952647 1_555
Ge3 O10 1.768633 1_555
Ge3 O4 1.774227 1_555
Ge3 O8 1.800778 1_554
Ge3 O7 1.800778 1_655
O0 Tm2 2.358767 1_555
O0 Tm0 2.463246 1_555
O1 Tm3 2.358765 1_655
O1 Tm1 2.463243 1_555
O2 Tm3 2.530975 1_545
O2 Tm0 2.803041 1_555
O3 Tm2 2.530975 1_555
O3 Tm1 2.803035 1_555
O4 Tm0 2.243213 1_554
O4 Tm1 2.243215 1_555
O5 Tm3 2.399331 1_555
O5 Tm1 2.407102 1_555
O6 Tm2 2.399331 1_555
O6 Tm0 2.407100 1_655
O7 Tm1 2.627443 1_555
O7 Tm2 2.717142 1_565
O8 Tm0 2.627437 1_655
O8 Tm3 2.717142 1_655
O9 Tm1 2.237950 1_555
O9 Tm0 2.237952 1_554
O10 Tm2 2.269172 1_565
O10 Tm3 2.269173 1_554
O11 Tm1 2.343014 1_555
O11 Tm2 2.384274 1_565
O12 Tm0 2.343014 1_555
O12 Tm3 2.384267 1_555
O13 Tm3 2.238951 1_554
O13 Tm2 2.238951 1_565
O14 Tm0 2.213311 1_655
O14 Tm3 2.291353 1_645
O15 Tm1 2.213304 1_555
O15 Tm2 2.291353 1_555
