# generated using pymatgen
data_La6Sm2V3Cr5O24
_symmetry_space_group_name_H-M   'P 1'
_cell_length_a   7.81597500
_cell_length_b   7.87447200
_cell_length_c   7.91822748
_cell_angle_alpha   89.96498531
_cell_angle_beta   90.00000000
_cell_angle_gamma   90.00000000
_symmetry_Int_Tables_number   1
_chemical_formula_structural   La6Sm2V3Cr5O24
_chemical_formula_sum   'La6 Sm2 V3 Cr5 O24'
_cell_volume   487.34049241
_cell_formula_units_Z   1
loop_
 _symmetry_equiv_pos_site_id
 _symmetry_equiv_pos_as_xyz
  1  'x, y, z'
loop_
 _atom_site_type_symbol
 _atom_site_label
 _atom_site_symmetry_multiplicity
 _atom_site_fract_x
 _atom_site_fract_y
 _atom_site_fract_z
 _atom_site_occupancy
  La  La0  1  0.75028700  0.74844500  0.74767700  1
  La  La1  1  0.24971300  0.74844500  0.74767700  1
  La  La2  1  0.74999000  0.74851800  0.25247000  1
  La  La3  1  0.25001000  0.74851800  0.25247000  1
  La  La4  1  0.75030200  0.25144900  0.25255000  1
  La  La5  1  0.24969800  0.25144900  0.25255000  1
  Sm  Sm0  1  0.75017000  0.25193600  0.74670100  1
  Sm  Sm1  1  0.24983000  0.25193600  0.74670100  1
  V  V0  1  0.00000000  0.00079600  0.99917600  1
  V  V1  1  0.50000000  0.00041200  0.99952800  1
  V  V2  1  0.00000000  0.49950400  0.99928400  1
  Cr  Cr0  1  0.00000000  0.00039900  0.50040000  1
  Cr  Cr1  1  0.50000000  0.00052600  0.50060000  1
  Cr  Cr2  1  0.50000000  0.49944300  0.99952400  1
  Cr  Cr3  1  0.00000000  0.49952800  0.50042700  1
  Cr  Cr4  1  0.50000000  0.49951300  0.50051600  1
  O  O0  1  0.00000000  0.74789500  0.00080100  1
  O  O1  1  0.50000000  0.74781900  0.99842200  1
  O  O2  1  0.00000000  0.75008000  0.50041200  1
  O  O3  1  0.50000000  0.74946900  0.50009800  1
  O  O4  1  0.00000000  0.25222200  0.99552700  1
  O  O5  1  0.50000000  0.25203400  0.99773500  1
  O  O6  1  0.00000000  0.24987600  0.50358900  1
  O  O7  1  0.50000000  0.25052400  0.50392500  1
  O  O8  1  0.00000000  0.00504500  0.74790800  1
  O  O9  1  0.50000000  0.00232000  0.74709900  1
  O  O10  1  0.00000000  0.99874800  0.25179700  1
  O  O11  1  0.50000000  0.00161600  0.25316500  1
  O  O12  1  0.00000000  0.49604600  0.74543700  1
  O  O13  1  0.50000000  0.49608300  0.74947200  1
  O  O14  1  0.00000000  0.49984000  0.25452500  1
  O  O15  1  0.50000000  0.49990800  0.25063900  1
  O  O16  1  0.75011900  0.00174200  0.99833200  1
  O  O17  1  0.24988100  0.00174200  0.99833200  1
  O  O18  1  0.75011500  0.00197800  0.50203800  1
  O  O19  1  0.24988500  0.00197800  0.50203800  1
  O  O20  1  0.74901600  0.49818400  0.99814900  1
  O  O21  1  0.25098400  0.49818400  0.99814900  1
  O  O22  1  0.74950800  0.49792600  0.50208000  1
  O  O23  1  0.25049200  0.49792600  0.50208000  1
loop_
_geom_bond_atom_site_label_1
_geom_bond_atom_site_label_2
_geom_bond_distance
_geom_bond_site_symmetry_2
La0 O2 2.764569 1_655
La0 O3 2.769481 1_555
La0 O22 2.770942 1_555
La0 O12 2.785656 1_655
La0 O18 2.786422 1_565
La0 O1 2.787277 1_555
La0 O13 2.788559 1_555
La0 O20 2.795055 1_555
La0 O9 2.797034 1_565
La0 O0 2.797594 1_656
La0 O8 2.809292 1_665
La0 O16 2.814675 1_565
La1 O2 2.764569 1_555
La1 O3 2.769481 1_555
La1 O23 2.770942 1_555
La1 O12 2.785656 1_555
La1 O19 2.786422 1_565
La1 O1 2.787277 1_555
La1 O13 2.788559 1_555
La1 O21 2.795055 1_555
La1 O9 2.797034 1_565
La1 O0 2.797594 1_556
La1 O8 2.809292 1_565
La1 O17 2.814675 1_565
La2 O15 2.765956 1_555
La2 O14 2.766442 1_655
La2 O3 2.768122 1_555
La2 O2 2.770013 1_655
La2 O10 2.775068 1_655
La2 O0 2.790981 1_655
La2 O11 2.791045 1_565
La2 O22 2.792044 1_555
La2 O1 2.804355 1_554
La2 O18 2.809521 1_565
La2 O20 2.818866 1_554
La2 O16 2.832066 1_564
La3 O15 2.765956 1_555
La3 O14 2.766442 1_555
La3 O3 2.768122 1_555
La3 O2 2.770013 1_555
La3 O10 2.775068 1_555
La3 O0 2.790981 1_555
La3 O11 2.791045 1_565
La3 O23 2.792044 1_555
La3 O1 2.804355 1_554
La3 O19 2.809521 1_565
La3 O21 2.818866 1_554
La3 O17 2.832066 1_564
La4 O14 2.763130 1_655
La4 O15 2.766829 1_555
La4 O22 2.770497 1_555
La4 O11 2.774458 1_555
La4 O18 2.785129 1_555
La4 O6 2.785728 1_655
La4 O10 2.787216 1_645
La4 O7 2.790918 1_555
La4 O20 2.797863 1_554
La4 O5 2.810405 1_554
La4 O16 2.814820 1_554
La4 O4 2.819716 1_654
La5 O14 2.763130 1_555
La5 O15 2.766829 1_555
La5 O23 2.770497 1_555
La5 O11 2.774458 1_555
La5 O19 2.785129 1_555
La5 O6 2.785728 1_555
La5 O10 2.787216 1_545
La5 O7 2.790918 1_555
La5 O21 2.797863 1_554
La5 O5 2.810405 1_554
La5 O17 2.814820 1_554
La5 O4 2.819716 1_554
Cr0 O19 1.953178 1_555
Cr0 O18 1.953178 1_455
Cr0 O8 1.960188 1_555
Cr0 O6 1.964677 1_555
Cr0 O10 1.968546 1_545
Cr0 O2 1.971130 1_545
Cr1 O9 1.951895 1_555
Cr1 O18 1.954959 1_555
Cr1 O19 1.954959 1_555
Cr1 O11 1.959260 1_555
Cr1 O7 1.968794 1_555
Cr1 O3 1.976948 1_545
Cr2 O21 1.946359 1_555
Cr2 O20 1.946359 1_555
Cr2 O5 1.948275 1_555
Cr2 O1 1.955844 1_555
Cr2 O13 1.980162 1_555
Cr2 O15 1.988391 1_556
Cr3 O12 1.940222 1_555
Cr3 O14 1.947108 1_555
Cr3 O23 1.957924 1_555
Cr3 O22 1.957924 1_455
Cr3 O6 1.966022 1_555
Cr3 O2 1.972965 1_555
Cr4 O22 1.950228 1_555
Cr4 O23 1.950228 1_555
Cr4 O7 1.960826 1_555
Cr4 O3 1.968272 1_555
Cr4 O13 1.971459 1_555
Cr4 O15 1.978583 1_555
O0 V2 1.955992 1_554
O0 V0 1.991496 1_564
O1 V1 1.989061 1_565
O4 V2 1.947461 1_555
O4 V0 1.980040 1_555
O4 Sm0 2.773957 1_455
O4 Sm1 2.773957 1_555
O5 V1 1.981433 1_555
O5 Sm0 2.788264 1_555
O5 Sm1 2.788264 1_555
O6 Sm0 2.742059 1_455
O6 Sm1 2.742059 1_555
O7 Sm0 2.742059 1_555
O7 Sm1 2.742059 1_555
O8 V0 1.989858 1_555
O8 Sm0 2.755474 1_455
O8 Sm1 2.755474 1_555
O9 V1 1.998838 1_555
O9 Sm1 2.772517 1_555
O9 Sm0 2.772517 1_555
O10 V0 2.000366 1_564
O11 V1 2.008384 1_554
O12 V2 2.010219 1_555
O12 Sm0 2.740068 1_455
O12 Sm1 2.740068 1_555
O13 Sm0 2.742250 1_555
O13 Sm1 2.742250 1_555
O14 V2 2.021060 1_554
O16 V0 1.953089 1_655
O16 V1 1.954975 1_555
O16 Sm0 2.801182 1_555
O17 V0 1.953089 1_555
O17 V1 1.954975 1_555
O17 Sm1 2.801182 1_555
O18 Sm0 2.762596 1_555
O19 Sm1 2.762596 1_555
O20 V2 1.961733 1_655
O20 Sm0 2.780103 1_555
O21 V2 1.961733 1_555
O21 Sm1 2.780103 1_555
O22 Sm0 2.738504 1_555
O23 Sm1 2.738504 1_555
