# generated using pymatgen
data_Ti15NbO32
_symmetry_space_group_name_H-M   'P 1'
_cell_length_a   7.64624200
_cell_length_b   7.64624200
_cell_length_c   9.69394600
_cell_angle_alpha   90.00000000
_cell_angle_beta   90.00000000
_cell_angle_gamma   90.00000000
_symmetry_Int_Tables_number   1
_chemical_formula_structural   Ti15NbO32
_chemical_formula_sum   'Ti15 Nb1 O32'
_cell_volume   566.75671500
_cell_formula_units_Z   1
loop_
 _symmetry_equiv_pos_site_id
 _symmetry_equiv_pos_as_xyz
  1  'x, y, z'
loop_
 _atom_site_type_symbol
 _atom_site_label
 _atom_site_symmetry_multiplicity
 _atom_site_fract_x
 _atom_site_fract_y
 _atom_site_fract_z
 _atom_site_occupancy
  Ti  Ti0  1  0.75163900  0.75163900  0.00000000  1
  Ti  Ti1  1  0.75163900  0.24836100  0.00000000  1
  Ti  Ti2  1  0.24836100  0.75163900  0.00000000  1
  Ti  Ti3  1  0.24836100  0.24836100  0.00000000  1
  Ti  Ti4  1  0.50000000  0.75482700  0.75635300  1
  Ti  Ti5  1  0.50000000  0.24517300  0.75635300  1
  Ti  Ti6  1  0.00000000  0.75080900  0.74973700  1
  Ti  Ti7  1  0.00000000  0.24919100  0.74973700  1
  Ti  Ti8  1  0.50000000  0.00000000  0.49732100  1
  Ti  Ti9  1  0.00000000  0.50000000  0.50267900  1
  Ti  Ti10  1  0.00000000  0.00000000  0.50000000  1
  Ti  Ti11  1  0.75482700  0.50000000  0.24364700  1
  Ti  Ti12  1  0.75080900  0.00000000  0.25026300  1
  Ti  Ti13  1  0.24517300  0.50000000  0.24364700  1
  Ti  Ti14  1  0.24919100  0.00000000  0.25026300  1
  Nb  Nb0  1  0.50000000  0.50000000  0.50000000  1
  O  O0  1  0.50000000  0.75011800  0.95705400  1
  O  O1  1  0.50000000  0.24988200  0.95705400  1
  O  O2  1  0.00000000  0.74977800  0.95708600  1
  O  O3  1  0.00000000  0.25022200  0.95708600  1
  O  O4  1  0.50000000  0.50000000  0.70977900  1
  O  O5  1  0.50000000  0.00000000  0.70775200  1
  O  O6  1  0.00000000  0.50000000  0.70673900  1
  O  O7  1  0.00000000  0.00000000  0.70711600  1
  O  O8  1  0.75011800  0.50000000  0.04294600  1
  O  O9  1  0.74977800  0.00000000  0.04291400  1
  O  O10  1  0.24988200  0.50000000  0.04294600  1
  O  O11  1  0.25022200  0.00000000  0.04291400  1
  O  O12  1  0.75010000  0.74976200  0.79299700  1
  O  O13  1  0.75010000  0.25023800  0.79299700  1
  O  O14  1  0.24990000  0.74976200  0.79299700  1
  O  O15  1  0.24990000  0.25023800  0.79299700  1
  O  O16  1  0.75257000  0.50000000  0.45608600  1
  O  O17  1  0.74977900  0.00000000  0.45704800  1
  O  O18  1  0.24743000  0.50000000  0.45608600  1
  O  O19  1  0.25022100  0.00000000  0.45704800  1
  O  O20  1  0.74976200  0.75010000  0.20700300  1
  O  O21  1  0.74976200  0.24990000  0.20700300  1
  O  O22  1  0.25023800  0.75010000  0.20700300  1
  O  O23  1  0.25023800  0.24990000  0.20700300  1
  O  O24  1  0.50000000  0.75257000  0.54391400  1
  O  O25  1  0.50000000  0.24743000  0.54391400  1
  O  O26  1  0.00000000  0.74977900  0.54295200  1
  O  O27  1  0.00000000  0.25022100  0.54295200  1
  O  O28  1  0.50000000  0.50000000  0.29022100  1
  O  O29  1  0.50000000  0.00000000  0.29326100  1
  O  O30  1  0.00000000  0.50000000  0.29224800  1
  O  O31  1  0.00000000  0.00000000  0.29288400  1
loop_
_geom_bond_atom_site_label_1
_geom_bond_atom_site_label_2
_geom_bond_distance
_geom_bond_site_symmetry_2
Nb0 O16 1.977574 1_555
Nb0 O25 1.977574 1_555
Nb0 O24 1.977574 1_555
Nb0 O18 1.977574 1_555
Nb0 O28 2.033586 1_555
Nb0 O4 2.033586 1_555
O0 Ti4 1.945918 1_555
O0 Ti0 1.968651 1_556
O0 Ti2 1.968651 1_556
O1 Ti5 1.945918 1_555
O1 Ti1 1.968651 1_556
O1 Ti3 1.968651 1_556
O2 Ti2 1.944112 1_556
O2 Ti0 1.944112 1_456
O2 Ti6 2.010045 1_555
O3 Ti3 1.944112 1_556
O3 Ti1 1.944112 1_456
O3 Ti7 2.010045 1_555
O4 Ti4 2.000093 1_555
O4 Ti5 2.000093 1_555
O5 Ti4 1.932948 1_545
O5 Ti5 1.932948 1_555
O5 Ti8 2.039907 1_555
O6 Ti6 1.962521 1_555
O6 Ti7 1.962521 1_555
O6 Ti9 1.978147 1_555
O7 Ti7 1.949656 1_555
O7 Ti6 1.949656 1_545
O7 Ti10 2.007771 1_555
O8 Ti11 1.945918 1_555
O8 Ti0 1.968651 1_555
O8 Ti1 1.968651 1_555
O9 Ti1 1.944112 1_555
O9 Ti0 1.944112 1_545
O9 Ti12 2.010045 1_555
O10 Ti13 1.945918 1_555
O10 Ti2 1.968651 1_555
O10 Ti3 1.968651 1_555
O11 Ti3 1.944112 1_555
O11 Ti2 1.944112 1_545
O11 Ti14 2.010045 1_555
O12 Ti4 1.945423 1_555
O12 Ti6 1.956289 1_655
O12 Ti0 2.006762 1_556
O13 Ti5 1.945423 1_555
O13 Ti7 1.956289 1_655
O13 Ti1 2.006762 1_556
O14 Ti4 1.945423 1_555
O14 Ti6 1.956289 1_555
O14 Ti2 2.006762 1_556
O15 Ti5 1.945423 1_555
O15 Ti7 1.956289 1_555
O15 Ti3 2.006762 1_556
O16 Ti9 1.945078 1_655
O16 Ti11 2.059445 1_555
O17 Ti8 1.949364 1_555
O17 Ti10 1.958033 1_655
O17 Ti12 2.004578 1_555
O18 Ti9 1.945078 1_555
O18 Ti13 2.059445 1_555
O19 Ti8 1.949364 1_555
O19 Ti10 1.958033 1_555
O19 Ti14 2.004578 1_555
O20 Ti11 1.945423 1_555
O20 Ti12 1.956289 1_565
O20 Ti0 2.006762 1_555
O21 Ti11 1.945423 1_555
O21 Ti12 1.956289 1_555
O21 Ti1 2.006762 1_555
O22 Ti13 1.945423 1_555
O22 Ti14 1.956289 1_565
O22 Ti2 2.006762 1_555
O23 Ti13 1.945423 1_555
O23 Ti14 1.956289 1_555
O23 Ti3 2.006762 1_555
O24 Ti8 1.945078 1_565
O24 Ti4 2.059445 1_555
O25 Ti8 1.945078 1_555
O25 Ti5 2.059445 1_555
O26 Ti9 1.949364 1_555
O26 Ti10 1.958033 1_565
O26 Ti6 2.004578 1_555
O27 Ti9 1.949364 1_555
O27 Ti10 1.958033 1_555
O27 Ti7 2.004578 1_555
O28 Ti13 2.000093 1_555
O28 Ti11 2.000093 1_555
O29 Ti12 1.962521 1_555
O29 Ti14 1.962521 1_555
O29 Ti8 1.978147 1_555
O30 Ti11 1.932948 1_455
O30 Ti13 1.932948 1_555
O30 Ti9 2.039907 1_555
O31 Ti14 1.949656 1_555
O31 Ti12 1.949656 1_455
O31 Ti10 2.007771 1_555
