# generated using pymatgen
data_Sc2TlCu3Se5
_symmetry_space_group_name_H-M   'P 1'
_cell_length_a   7.44609395
_cell_length_b   7.44609395
_cell_length_c   16.38487500
_cell_angle_alpha   90.00000000
_cell_angle_beta   90.00000000
_cell_angle_gamma   148.97807307
_symmetry_Int_Tables_number   1
_chemical_formula_structural   Sc2TlCu3Se5
_chemical_formula_sum   'Sc4 Tl2 Cu6 Se10'
_cell_volume   468.18336746
_cell_formula_units_Z   2
loop_
 _symmetry_equiv_pos_site_id
 _symmetry_equiv_pos_as_xyz
  1  'x, y, z'
loop_
 _atom_site_type_symbol
 _atom_site_label
 _atom_site_symmetry_multiplicity
 _atom_site_fract_x
 _atom_site_fract_y
 _atom_site_fract_z
 _atom_site_occupancy
  Sc  Sc0  1  0.69193500  0.30806500  0.59399200  1
  Sc  Sc1  1  0.30806500  0.69193500  0.40600800  1
  Sc  Sc2  1  0.30806500  0.69193500  0.09399200  1
  Sc  Sc3  1  0.69193500  0.30806500  0.90600800  1
  Tl  Tl0  1  0.56483500  0.43516500  0.25000000  1
  Tl  Tl1  1  0.43516500  0.56483500  0.75000000  1
  Cu  Cu0  1  0.91740600  0.08259400  0.53585000  1
  Cu  Cu1  1  0.08259400  0.91740600  0.46415000  1
  Cu  Cu2  1  0.08259400  0.91740600  0.03585000  1
  Cu  Cu3  1  0.91740600  0.08259400  0.96415000  1
  Cu  Cu4  1  0.84731300  0.15268700  0.25000000  1
  Cu  Cu5  1  0.15268700  0.84731300  0.75000000  1
  Se  Se0  1  0.24950300  0.75049700  0.25000000  1
  Se  Se1  1  0.75049700  0.24950300  0.75000000  1
  Se  Se2  1  0.93651700  0.06348300  0.11705300  1
  Se  Se3  1  0.06348300  0.93651700  0.88294700  1
  Se  Se4  1  0.06348300  0.93651700  0.61705300  1
  Se  Se5  1  0.93651700  0.06348300  0.38294700  1
  Se  Se6  1  0.67409800  0.32590200  0.07086700  1
  Se  Se7  1  0.32590200  0.67409800  0.92913300  1
  Se  Se8  1  0.32590200  0.67409800  0.57086700  1
  Se  Se9  1  0.67409800  0.32590200  0.42913300  1
loop_
_geom_bond_atom_site_label_1
_geom_bond_atom_site_label_2
_geom_bond_distance
_geom_bond_site_symmetry_2
Sc0 Se1 2.690763 1_555
Sc0 Se9 2.713294 1_555
Sc0 Se4 2.739613 1_655
Sc0 Se4 2.739613 1_545
Sc0 Se8 2.793615 1_545
Sc0 Se8 2.793615 1_655
Sc1 Se0 2.690763 1_555
Sc1 Se8 2.713294 1_555
Sc1 Se5 2.739613 1_455
Sc1 Se5 2.739613 1_565
Sc1 Se9 2.793615 1_455
Sc1 Se9 2.793615 1_565
Sc2 Se0 2.690763 1_555
Sc2 Se7 2.713294 1_554
Sc2 Se2 2.739613 1_455
Sc2 Se2 2.739613 1_565
Sc2 Se6 2.793615 1_455
Sc2 Se6 2.793615 1_565
Sc3 Se1 2.690763 1_555
Sc3 Se6 2.713294 1_556
Sc3 Se3 2.739613 1_655
Sc3 Se3 2.739613 1_545
Sc3 Se7 2.793615 1_545
Sc3 Se7 2.793615 1_655
Cu0 Se8 2.453247 1_545
Cu0 Se8 2.453247 1_655
Cu0 Se4 2.482778 1_645
Cu0 Se5 2.520261 1_555
Cu1 Se9 2.453247 1_455
Cu1 Se9 2.453247 1_565
Cu1 Se5 2.482778 1_465
Cu1 Se4 2.520261 1_555
Cu2 Se6 2.453247 1_565
Cu2 Se6 2.453247 1_455
Cu2 Se2 2.482778 1_465
Cu2 Se3 2.520261 1_554
Cu3 Se7 2.453247 1_655
Cu3 Se7 2.453247 1_545
Cu3 Se3 2.482778 1_645
Cu3 Se2 2.520261 1_556
Cu4 Se0 2.436198 1_655
Cu4 Se0 2.436198 1_545
Cu4 Se5 2.526585 1_555
Cu4 Se2 2.526585 1_555
Cu5 Se1 2.436198 1_455
Cu5 Se1 2.436198 1_565
Cu5 Se3 2.526585 1_555
Cu5 Se4 2.526585 1_555
Se0 Tl0 3.314714 1_565
Se0 Tl0 3.314714 1_455
Se1 Tl1 3.314714 1_545
Se1 Tl1 3.314714 1_655
Se6 Tl0 3.327607 1_555
Se7 Tl1 3.327607 1_555
Se8 Tl1 3.327607 1_555
Se9 Tl0 3.327607 1_555
