# generated using pymatgen
data_VOF
_symmetry_space_group_name_H-M   'P 1'
_cell_length_a   4.67885900
_cell_length_b   5.63778054
_cell_length_c   10.54278021
_cell_angle_alpha   96.53371392
_cell_angle_beta   90.80562972
_cell_angle_gamma   92.00847383
_symmetry_Int_Tables_number   1
_chemical_formula_structural   VOF
_chemical_formula_sum   'V8 O8 F8'
_cell_volume   276.07985280
_cell_formula_units_Z   8
loop_
 _symmetry_equiv_pos_site_id
 _symmetry_equiv_pos_as_xyz
  1  'x, y, z'
loop_
 _atom_site_type_symbol
 _atom_site_label
 _atom_site_symmetry_multiplicity
 _atom_site_fract_x
 _atom_site_fract_y
 _atom_site_fract_z
 _atom_site_occupancy
  V  V0  1  0.48653300  0.74883900  0.73853300  1
  V  V1  1  0.50000000  0.50000000  0.00000000  1
  V  V2  1  0.51346700  0.25116100  0.26146700  1
  V  V3  1  0.50000000  0.00000000  0.50000000  1
  V  V4  1  0.98256500  0.25495200  0.76248700  1
  V  V5  1  0.01743500  0.74504800  0.23751300  1
  V  V6  1  0.00000000  0.50000000  0.50000000  1
  V  V7  1  0.00000000  0.00000000  0.00000000  1
  O  O0  1  0.80540800  0.26521300  0.93066100  1
  O  O1  1  0.68985400  0.52125800  0.17680400  1
  O  O2  1  0.70452600  0.27410000  0.43255200  1
  O  O3  1  0.70118200  0.01755100  0.67291700  1
  O  O4  1  0.29547400  0.72590000  0.56744800  1
  O  O5  1  0.29881800  0.98244900  0.32708300  1
  O  O6  1  0.31014600  0.47874200  0.82319600  1
  O  O7  1  0.19459200  0.73478700  0.06933900  1
  F  F0  1  0.80642200  0.76915300  0.41637300  1
  F  F1  1  0.80141900  0.52800800  0.67549500  1
  F  F2  1  0.79748600  0.02456500  0.17287600  1
  F  F3  1  0.70051700  0.77612000  0.91849300  1
  F  F4  1  0.29948300  0.22388000  0.08150700  1
  F  F5  1  0.19858100  0.47199200  0.32450500  1
  F  F6  1  0.20251400  0.97543500  0.82712400  1
  F  F7  1  0.19357800  0.23084700  0.58362700  1
loop_
_geom_bond_atom_site_label_1
_geom_bond_atom_site_label_2
_geom_bond_distance
_geom_bond_site_symmetry_2
O0 V4 1.963507 1_555
O0 V7 1.981027 1_656
O0 V1 2.066445 1_556
O1 V5 2.000941 1_655
O1 V2 2.009605 1_555
O1 V1 2.042815 1_555
O2 V6 1.918785 1_655
O2 V2 1.990652 1_555
O2 V3 1.993728 1_555
O3 V0 1.983337 1_545
O3 V4 1.992559 1_555
O3 V3 2.030623 1_555
O4 V6 1.918785 1_555
O4 V0 1.990652 1_555
O4 V3 1.993728 1_565
O5 V2 1.983337 1_565
O5 V5 1.992559 1_555
O5 V3 2.030623 1_565
O6 V4 2.000941 1_455
O6 V0 2.009605 1_555
O6 V1 2.042815 1_556
O7 V5 1.963507 1_555
O7 V7 1.981027 1_565
O7 V1 2.066445 1_555
F0 V6 2.068474 1_655
F0 V3 2.105197 1_565
F0 V5 2.133651 1_655
F1 V0 2.032276 1_555
F1 V6 2.074517 1_655
F1 V4 2.078519 1_555
F2 V2 2.037804 1_555
F2 V7 2.058924 1_655
F2 V5 2.084492 1_645
F3 V7 1.972394 1_666
F3 V1 2.065592 1_556
F3 V0 2.120166 1_555
F4 V7 1.972394 1_555
F4 V1 2.065592 1_555
F4 V2 2.120166 1_555
F5 V2 2.032276 1_555
F5 V6 2.074517 1_555
F5 V5 2.078519 1_555
F6 V0 2.037804 1_555
F6 V7 2.058924 1_566
F6 V4 2.084492 1_465
F7 V6 2.068474 1_555
F7 V3 2.105197 1_555
F7 V4 2.133651 1_455
