# generated using pymatgen
data_Li9Mn2Co5O16
_symmetry_space_group_name_H-M   'P 1'
_cell_length_a   9.87487424
_cell_length_b   9.87487424
_cell_length_c   10.37344680
_cell_angle_alpha   83.25008744
_cell_angle_beta   83.25008744
_cell_angle_gamma   16.76420572
_symmetry_Int_Tables_number   1
_chemical_formula_structural   Li9Mn2Co5O16
_chemical_formula_sum   'Li9 Mn2 Co5 O16'
_cell_volume   289.69794147
_cell_formula_units_Z   1
loop_
 _symmetry_equiv_pos_site_id
 _symmetry_equiv_pos_as_xyz
  1  'x, y, z'
loop_
 _atom_site_type_symbol
 _atom_site_label
 _atom_site_symmetry_multiplicity
 _atom_site_fract_x
 _atom_site_fract_y
 _atom_site_fract_z
 _atom_site_occupancy
  Li  Li0  1  0.36816100  0.36816100  0.92916600  1
  Li  Li1  1  0.13186800  0.13186800  0.81808300  1
  Li  Li2  1  0.87450500  0.87450500  0.69390500  1
  Li  Li3  1  0.62615800  0.62615800  0.56910500  1
  Li  Li4  1  0.37419500  0.37419500  0.43902200  1
  Li  Li5  1  0.12587600  0.12587600  0.31148700  1
  Li  Li6  1  0.87279300  0.87279300  0.18241300  1
  Li  Li7  1  0.62651200  0.62651200  0.05783100  1
  Li  Li8  1  0.74987000  0.74987000  0.87484800  1
  Mn  Mn0  1  0.99826800  0.99826800  0.99943700  1
  Mn  Mn1  1  0.74990600  0.74990600  0.37510600  1
  Co  Co0  1  0.50061900  0.50061900  0.74607500  1
  Co  Co1  1  0.25381700  0.25381700  0.64473600  1
  Co  Co2  1  0.00161400  0.00161400  0.49969700  1
  Co  Co3  1  0.49951900  0.49951900  0.25370900  1
  Co  Co4  1  0.24620900  0.24620900  0.10515800  1
  O  O0  1  0.44287800  0.44287800  0.08404300  1
  O  O1  1  0.18838300  0.18838300  0.98201900  1
  O  O2  1  0.94269600  0.94269600  0.83662300  1
  O  O3  1  0.69125300  0.69125300  0.71001900  1
  O  O4  1  0.44668900  0.44668900  0.58574900  1
  O  O5  1  0.19243300  0.19243300  0.45324100  1
  O  O6  1  0.94433200  0.94433200  0.33527800  1
  O  O7  1  0.69828800  0.69828800  0.22503900  1
  O  O8  1  0.31142300  0.31142300  0.76786800  1
  O  O9  1  0.05838200  0.05838200  0.66220000  1
  O  O10  1  0.80165600  0.80165600  0.52485000  1
  O  O11  1  0.55554500  0.55554500  0.41512800  1
  O  O12  1  0.30778800  0.30778800  0.29635100  1
  O  O13  1  0.05357900  0.05357900  0.16674900  1
  O  O14  1  0.80893400  0.80893400  0.04082900  1
  O  O15  1  0.55585100  0.55585100  0.91423700  1
loop_
_geom_bond_atom_site_label_1
_geom_bond_atom_site_label_2
_geom_bond_distance
_geom_bond_site_symmetry_2
Li0 O14 2.105837 1_456
Li0 O14 2.105837 1_546
Li0 O8 2.114089 1_555
Li0 O2 2.186876 1_545
Li0 O2 2.186876 1_455
Li0 O0 2.295591 1_556
Li1 O3 2.089510 1_545
Li1 O3 2.089510 1_455
Li1 O1 2.134831 1_555
Li1 O15 2.218356 1_545
Li1 O15 2.218356 1_455
Li1 O9 2.286506 1_555
Li2 O8 1.988794 1_655
Li2 O8 1.988794 1_565
Li2 O2 2.106114 1_555
Li2 O4 2.223541 1_565
Li2 O4 2.223541 1_655
Li2 O10 2.386321 1_555
Li3 O3 2.048459 1_555
Li3 O9 2.110584 1_655
Li3 O9 2.110584 1_565
Li3 O5 2.196311 1_655
Li3 O5 2.196311 1_565
Li3 O11 2.231246 1_555
Li4 O12 2.080911 1_555
Li4 O10 2.138649 1_545
Li4 O10 2.138649 1_455
Li4 O6 2.181256 1_455
Li4 O6 2.181256 1_545
Li4 O4 2.198923 1_555
Li5 O5 2.075531 1_555
Li5 O7 2.139310 1_545
Li5 O7 2.139310 1_455
Li5 O13 2.180292 1_555
Li5 O11 2.182971 1_455
Li5 O11 2.182971 1_545
Li6 O14 2.037002 1_555
Li6 O0 2.157918 1_565
Li6 O0 2.157918 1_655
Li6 O12 2.173849 1_565
Li6 O12 2.173849 1_655
Li6 O6 2.234957 1_555
Li7 O1 1.981449 1_654
Li7 O1 1.981449 1_564
Li7 O15 2.147928 1_554
Li7 O13 2.235364 1_655
Li7 O13 2.235364 1_565
Li7 O7 2.356551 1_555
Li8 O8 2.105468 1_655
Li8 O8 2.105468 1_565
Li8 O1 2.105723 1_565
Li8 O1 2.105723 1_655
Li8 O3 2.168087 1_555
Li8 O14 2.183694 1_556
Mn0 O0 1.946283 1_656
Mn0 O0 1.946283 1_566
Mn0 O15 1.970500 1_565
Mn0 O15 1.970500 1_655
Mn0 O2 2.113588 1_555
Mn0 O13 2.150797 1_666
Mn1 O5 1.942645 1_655
Mn1 O5 1.942645 1_565
Mn1 O12 1.949123 1_565
Mn1 O12 1.949123 1_655
Mn1 O10 1.951544 1_555
Mn1 O7 1.952840 1_555
Co0 O9 1.967140 1_565
Co0 O9 1.967140 1_655
Co0 O2 1.995668 1_455
Co0 O2 1.995668 1_545
Co0 O4 2.071898 1_555
Co0 O15 2.157523 1_555
Co1 O8 1.799993 1_555
Co1 O3 1.956628 1_545
Co1 O3 1.956628 1_455
Co1 O10 2.053354 1_455
Co1 O10 2.053354 1_545
Co1 O5 2.439391 1_555
Co2 O11 1.931967 1_455
Co2 O11 1.931967 1_545
Co2 O4 1.947578 1_455
Co2 O4 1.947578 1_545
Co2 O9 2.125132 1_555
Co2 O6 2.148320 1_445
Co3 O6 1.932367 1_545
Co3 O6 1.932367 1_455
Co3 O13 1.942986 1_655
Co3 O13 1.942986 1_565
Co3 O11 2.106590 1_555
Co3 O0 2.187526 1_555
Co4 O1 1.803102 1_554
Co4 O14 1.955802 1_545
Co4 O14 1.955802 1_455
Co4 O7 2.053940 1_545
Co4 O7 2.053940 1_455
Co4 O12 2.438903 1_555
