# generated using pymatgen
data_MgCoPO5
_symmetry_space_group_name_H-M   'P 1'
_cell_length_a   5.28967400
_cell_length_b   5.34162801
_cell_length_c   6.81307388
_cell_angle_alpha   104.21338557
_cell_angle_beta   103.98050196
_cell_angle_gamma   102.46780102
_symmetry_Int_Tables_number   1
_chemical_formula_structural   MgCoPO5
_chemical_formula_sum   'Mg2 Co2 P2 O10'
_cell_volume   173.16232803
_cell_formula_units_Z   2
loop_
 _symmetry_equiv_pos_site_id
 _symmetry_equiv_pos_as_xyz
  1  'x, y, z'
loop_
 _atom_site_type_symbol
 _atom_site_label
 _atom_site_symmetry_multiplicity
 _atom_site_fract_x
 _atom_site_fract_y
 _atom_site_fract_z
 _atom_site_occupancy
  Mg  Mg0  1  0.32304500  0.66758800  0.74645900  1
  Mg  Mg1  1  0.67695500  0.33241200  0.25354100  1
  Co  Co0  1  0.00000000  0.00000000  0.50000000  1
  Co  Co1  1  0.00000000  0.00000000  0.00000000  1
  P  P0  1  0.66305900  0.33752600  0.74708500  1
  P  P1  1  0.33694100  0.66247400  0.25291500  1
  O  O0  1  0.66419800  0.12616100  0.86820500  1
  O  O1  1  0.87782600  0.33943800  0.62531800  1
  O  O2  1  0.33580200  0.87383900  0.13179500  1
  O  O3  1  0.12217400  0.66056200  0.37468200  1
  O  O4  1  0.61648600  0.70948800  0.40402200  1
  O  O5  1  0.28636400  0.37114300  0.09019800  1
  O  O6  1  0.38351400  0.29051200  0.59597800  1
  O  O7  1  0.71363600  0.62885700  0.90980200  1
  O  O8  1  0.90776100  0.08334500  0.24620200  1
  O  O9  1  0.09223900  0.91665500  0.75379800  1
loop_
_geom_bond_atom_site_label_1
_geom_bond_atom_site_label_2
_geom_bond_distance
_geom_bond_site_symmetry_2
Mg0 O9 1.990293 1_555
Mg0 O6 2.152438 1_555
Mg0 O7 2.176393 1_555
Mg0 O1 2.422390 1_455
Mg0 O3 2.486341 1_555
Mg0 O0 2.512984 1_565
Mg0 O2 2.563709 1_556
Mg1 O8 1.990293 1_555
Mg1 O4 2.152438 1_555
Mg1 O5 2.176393 1_555
Mg1 O3 2.422390 1_655
Mg1 O1 2.486341 1_555
Mg1 O2 2.512984 1_545
Mg1 O0 2.563709 1_554
Co0 O9 1.868254 1_545
Co0 O8 1.868254 1_455
Co0 O1 2.108672 1_455
Co0 O3 2.108672 1_545
Co0 O4 2.110121 1_445
Co0 O6 2.110121 1_555
Co1 O8 1.836418 1_455
Co1 O9 1.836418 1_544
Co1 O7 2.063445 1_444
Co1 O5 2.063445 1_555
Co1 O2 2.111624 1_545
Co1 O0 2.111624 1_454
O0 P0 1.553627 1_555
O1 P0 1.559966 1_555
O2 P1 1.553627 1_555
O3 P1 1.559966 1_555
O4 P1 1.512163 1_555
O5 P1 1.597504 1_555
O6 P0 1.512163 1_555
O7 P0 1.597504 1_555
