# generated using pymatgen
data_Er2MgSe4
_symmetry_space_group_name_H-M   'P 1'
_cell_length_a   13.16700003
_cell_length_b   7.85403656
_cell_length_c   13.40522308
_cell_angle_alpha   90.00000000
_cell_angle_beta   90.00000000
_cell_angle_gamma   90.00000000
_symmetry_Int_Tables_number   1
_chemical_formula_structural   Er2MgSe4
_chemical_formula_sum   'Er16 Mg8 Se32'
_cell_volume   1386.28907504
_cell_formula_units_Z   8
loop_
 _symmetry_equiv_pos_site_id
 _symmetry_equiv_pos_as_xyz
  1  'x, y, z'
loop_
 _atom_site_type_symbol
 _atom_site_label
 _atom_site_symmetry_multiplicity
 _atom_site_fract_x
 _atom_site_fract_y
 _atom_site_fract_z
 _atom_site_occupancy
  Er  Er0  1  0.10790198  0.88345848  0.68643813  1
  Er  Er1  1  0.89209802  0.11654152  0.18643813  1
  Er  Er2  1  0.39209802  0.88345848  0.18643813  1
  Er  Er3  1  0.60790198  0.11654152  0.68643813  1
  Er  Er4  1  0.12705941  0.38213009  0.32647083  1
  Er  Er5  1  0.87294059  0.61786991  0.82647083  1
  Er  Er6  1  0.37294059  0.38213009  0.82647083  1
  Er  Er7  1  0.62705941  0.61786991  0.32647083  1
  Er  Er8  1  0.13357398  0.62999519  0.99083835  1
  Er  Er9  1  0.86642602  0.37000481  0.49083835  1
  Er  Er10  1  0.36642602  0.62999519  0.49083835  1
  Er  Er11  1  0.63357398  0.37000481  0.99083835  1
  Er  Er12  1  0.13361097  0.12982533  0.99123443  1
  Er  Er13  1  0.86638903  0.87017467  0.49123443  1
  Er  Er14  1  0.36638903  0.12982533  0.49123443  1
  Er  Er15  1  0.63361097  0.87017467  0.99123443  1
  Mg  Mg0  1  0.11131166  0.38251179  0.69005506  1
  Mg  Mg1  1  0.88868834  0.61748821  0.19005506  1
  Mg  Mg2  1  0.38868834  0.38251179  0.19005506  1
  Mg  Mg3  1  0.61131166  0.61748821  0.69005506  1
  Mg  Mg4  1  0.12625291  0.87851685  0.32082087  1
  Mg  Mg5  1  0.87374709  0.12148315  0.82082087  1
  Mg  Mg6  1  0.37374709  0.87851685  0.82082087  1
  Mg  Mg7  1  0.62625291  0.12148315  0.32082087  1
  Se  Se0  1  0.01327148  0.87738190  0.87797944  1
  Se  Se1  1  0.98672852  0.12261810  0.37797944  1
  Se  Se2  1  0.48672852  0.87738190  0.37797944  1
  Se  Se3  1  0.51327148  0.12261810  0.87797944  1
  Se  Se4  1  0.03334254  0.37741093  0.13073390  1
  Se  Se5  1  0.96665746  0.62258907  0.63073390  1
  Se  Se6  1  0.46665746  0.37741093  0.63073390  1
  Se  Se7  1  0.53334254  0.62258907  0.13073390  1
  Se  Se8  1  0.02249174  0.37506462  0.87006939  1
  Se  Se9  1  0.97750826  0.62493538  0.37006939  1
  Se  Se10  1  0.47750826  0.37506462  0.37006939  1
  Se  Se11  1  0.52249174  0.62493538  0.87006939  1
  Se  Se12  1  0.04342379  0.87507726  0.13593442  1
  Se  Se13  1  0.95657621  0.12492274  0.63593442  1
  Se  Se14  1  0.45657621  0.87507726  0.63593442  1
  Se  Se15  1  0.54342379  0.12492274  0.13593442  1
  Se  Se16  1  0.21135709  0.88069974  0.50367475  1
  Se  Se17  1  0.78864291  0.11930026  0.00367475  1
  Se  Se18  1  0.28864291  0.88069974  0.00367475  1
  Se  Se19  1  0.71135709  0.11930026  0.50367475  1
  Se  Se20  1  0.21293841  0.38049895  0.51814016  1
  Se  Se21  1  0.78706159  0.61950105  0.01814016  1
  Se  Se22  1  0.28706159  0.38049895  0.01814016  1
  Se  Se23  1  0.71293841  0.61950105  0.51814016  1
  Se  Se24  1  0.23140523  0.13104591  0.77652886  1
  Se  Se25  1  0.76859477  0.86895409  0.27652886  1
  Se  Se26  1  0.26859477  0.13104591  0.27652886  1
  Se  Se27  1  0.73140523  0.86895409  0.77652886  1
  Se  Se28  1  0.23219433  0.63411837  0.77808244  1
  Se  Se29  1  0.76780567  0.36588163  0.27808244  1
  Se  Se30  1  0.26780567  0.63411837  0.27808244  1
  Se  Se31  1  0.73219433  0.36588163  0.77808244  1
loop_
_geom_bond_atom_site_label_1
_geom_bond_atom_site_label_2
_geom_bond_distance
_geom_bond_site_symmetry_2
Er0 Se16 2.803295 1_555
Er0 Se24 2.807889 1_565
Er0 Se28 2.832420 1_555
Er0 Se13 2.832847 1_465
Er0 Se0 2.854407 1_555
Er0 Se5 2.866049 1_455
Er1 Se17 2.803295 1_555
Er1 Se25 2.807889 1_545
Er1 Se29 2.832420 1_555
Er1 Se12 2.832847 1_645
Er1 Se1 2.854407 1_555
Er1 Se4 2.866049 1_655
Er2 Se18 2.803295 1_555
Er2 Se26 2.807889 1_565
Er2 Se30 2.832420 1_555
Er2 Se15 2.832847 1_565
Er2 Se2 2.854407 1_555
Er2 Se7 2.866049 1_555
Er3 Se19 2.803295 1_555
Er3 Se27 2.807889 1_545
Er3 Se31 2.832420 1_555
Er3 Se14 2.832847 1_545
Er3 Se3 2.854407 1_555
Er3 Se6 2.866049 1_555
Er4 Se30 2.787842 1_555
Er4 Se26 2.794652 1_555
Er4 Se9 2.802811 1_455
Er4 Se20 2.807217 1_555
Er4 Se1 2.836411 1_455
Er4 Se4 2.899809 1_555
Er5 Se31 2.787842 1_555
Er5 Se27 2.794652 1_555
Er5 Se8 2.802811 1_655
Er5 Se21 2.807217 1_556
Er5 Se0 2.836411 1_655
Er5 Se5 2.899809 1_555
Er6 Se28 2.787842 1_555
Er6 Se24 2.794652 1_555
Er6 Se11 2.802811 1_555
Er6 Se22 2.807217 1_556
Er6 Se3 2.836411 1_555
Er6 Se6 2.899809 1_555
Er7 Se29 2.787842 1_555
Er7 Se25 2.794652 1_555
Er7 Se10 2.802811 1_555
Er7 Se23 2.807217 1_555
Er7 Se2 2.836411 1_555
Er7 Se7 2.899809 1_555
Er8 Se22 2.838682 1_556
Er8 Se18 2.841770 1_556
Er8 Se0 2.927999 1_555
Er8 Se8 2.961275 1_555
Er8 Se12 2.982845 1_556
Er8 Se4 3.032175 1_556
Er8 Se28 3.133907 1_555
Er9 Se23 2.838682 1_555
Er9 Se19 2.841770 1_555
Er9 Se1 2.927999 1_555
Er9 Se9 2.961275 1_555
Er9 Se13 2.982845 1_555
Er9 Se5 3.032175 1_555
Er9 Se29 3.133907 1_555
Er10 Se20 2.838682 1_555
Er10 Se16 2.841770 1_555
Er10 Se2 2.927999 1_555
Er10 Se10 2.961275 1_555
Er10 Se14 2.982845 1_555
Er10 Se6 3.032175 1_555
Er10 Se30 3.133907 1_555
Er11 Se21 2.838682 1_556
Er11 Se17 2.841770 1_556
Er11 Se3 2.927999 1_555
Er11 Se11 2.961275 1_555
Er11 Se15 2.982845 1_556
Er11 Se7 3.032175 1_556
Er11 Se31 3.133907 1_555
Er12 Se18 2.832523 1_546
Er12 Se22 2.844050 1_556
Er12 Se8 2.913552 1_555
Er12 Se0 2.957487 1_545
Er12 Se4 3.003541 1_556
Er12 Se12 3.029178 1_546
Er12 Se24 3.153102 1_555
Er13 Se19 2.832523 1_565
Er13 Se23 2.844050 1_555
Er13 Se9 2.913552 1_555
Er13 Se1 2.957487 1_565
Er13 Se5 3.003541 1_555
Er13 Se13 3.029178 1_565
Er13 Se25 3.153102 1_555
Er14 Se16 2.832523 1_545
Er14 Se20 2.844050 1_555
Er14 Se10 2.913552 1_555
Er14 Se2 2.957487 1_545
Er14 Se6 3.003541 1_555
Er14 Se14 3.029178 1_545
Er14 Se26 3.153102 1_555
Er15 Se17 2.832523 1_566
Er15 Se21 2.844050 1_556
Er15 Se11 2.913552 1_555
Er15 Se3 2.957487 1_565
Er15 Se7 3.003541 1_556
Er15 Se15 3.029178 1_566
Er15 Se27 3.153102 1_555
Mg0 Se20 2.664920 1_555
Mg0 Se8 2.682227 1_555
Mg0 Se24 2.782962 1_555
Mg0 Se5 2.795621 1_455
Mg0 Se28 2.798380 1_555
Mg0 Se13 2.961477 1_455
Mg1 Se21 2.664920 1_555
Mg1 Se9 2.682227 1_555
Mg1 Se25 2.782962 1_555
Mg1 Se4 2.795621 1_655
Mg1 Se29 2.798380 1_555
Mg1 Se12 2.961477 1_655
Mg2 Se22 2.664920 1_555
Mg2 Se10 2.682227 1_555
Mg2 Se26 2.782962 1_555
Mg2 Se7 2.795621 1_555
Mg2 Se30 2.798380 1_555
Mg2 Se15 2.961477 1_555
Mg3 Se23 2.664920 1_555
Mg3 Se11 2.682227 1_555
Mg3 Se27 2.782962 1_555
Mg3 Se6 2.795621 1_555
Mg3 Se31 2.798380 1_555
Mg3 Se14 2.961477 1_555
Mg4 Se16 2.695242 1_555
Mg4 Se12 2.707923 1_555
Mg4 Se30 2.736168 1_555
Mg4 Se1 2.763635 1_465
Mg4 Se26 2.792666 1_565
Mg4 Se9 2.870239 1_455
Mg5 Se17 2.695242 1_556
Mg5 Se13 2.707923 1_555
Mg5 Se31 2.736168 1_555
Mg5 Se0 2.763635 1_645
Mg5 Se27 2.792666 1_545
Mg5 Se8 2.870239 1_655
Mg6 Se18 2.695242 1_556
Mg6 Se14 2.707923 1_555
Mg6 Se28 2.736168 1_555
Mg6 Se3 2.763635 1_565
Mg6 Se24 2.792666 1_565
Mg6 Se11 2.870239 1_555
Mg7 Se19 2.695242 1_555
Mg7 Se15 2.707923 1_555
Mg7 Se29 2.736168 1_555
Mg7 Se2 2.763635 1_545
Mg7 Se25 2.792666 1_545
Mg7 Se10 2.870239 1_555
