# generated using pymatgen
data_Yb3Cu11Si4
_symmetry_space_group_name_H-M   'P 1'
_cell_length_a   8.29137898
_cell_length_b   8.29137898
_cell_length_c   8.46512399
_cell_angle_alpha   90.00000000
_cell_angle_beta   90.00000000
_cell_angle_gamma   120.00000348
_symmetry_Int_Tables_number   1
_chemical_formula_structural   Yb3Cu11Si4
_chemical_formula_sum   'Yb6 Cu22 Si8'
_cell_volume   503.98483900
_cell_formula_units_Z   2
loop_
 _symmetry_equiv_pos_site_id
 _symmetry_equiv_pos_as_xyz
  1  'x, y, z'
loop_
 _atom_site_type_symbol
 _atom_site_label
 _atom_site_symmetry_multiplicity
 _atom_site_fract_x
 _atom_site_fract_y
 _atom_site_fract_z
 _atom_site_occupancy
  Yb  Yb0  1  0.80102441  0.19897459  0.75000000  1
  Yb  Yb1  1  0.19897459  0.80102441  0.25000000  1
  Yb  Yb2  1  0.39795018  0.19897459  0.75000000  1
  Yb  Yb3  1  0.60204982  0.80102441  0.25000000  1
  Yb  Yb4  1  0.80102441  0.60204982  0.75000000  1
  Yb  Yb5  1  0.19897459  0.39795018  0.25000000  1
  Cu  Cu0  1  0.85044901  0.14955099  0.40892047  1
  Cu  Cu1  1  0.14955099  0.85044901  0.59107953  1
  Cu  Cu2  1  0.29910098  0.14955099  0.40892047  1
  Cu  Cu3  1  0.14955099  0.85044901  0.90892047  1
  Cu  Cu4  1  0.70089902  0.85044901  0.59107953  1
  Cu  Cu5  1  0.85044901  0.14955099  0.09107953  1
  Cu  Cu6  1  0.85044901  0.70089902  0.40892047  1
  Cu  Cu7  1  0.70089902  0.85044901  0.90892047  1
  Cu  Cu8  1  0.14955099  0.29910098  0.59107953  1
  Cu  Cu9  1  0.29910098  0.14955099  0.09107953  1
  Cu  Cu10  1  0.14955099  0.29910098  0.90892047  1
  Cu  Cu11  1  0.85044901  0.70089902  0.09107953  1
  Cu  Cu12  1  0.43405237  0.56594763  0.75000000  1
  Cu  Cu13  1  0.56594763  0.43405237  0.25000000  1
  Cu  Cu14  1  0.13189525  0.56594763  0.75000000  1
  Cu  Cu15  1  0.86810475  0.43405237  0.25000000  1
  Cu  Cu16  1  0.43405237  0.86810475  0.75000000  1
  Cu  Cu17  1  0.56594763  0.13189525  0.25000000  1
  Cu  Cu18  1  0.66666700  0.33333300  0.00714441  1
  Cu  Cu19  1  0.33333300  0.66666700  0.99285559  1
  Cu  Cu20  1  0.33333300  0.66666700  0.50714441  1
  Cu  Cu21  1  0.66666700  0.33333300  0.49285559  1
  Si  Si0  1  0.50000000  0.50000000  0.00000000  1
  Si  Si1  1  0.00000000  0.50000000  0.00000000  1
  Si  Si2  1  0.50000000  0.50000000  0.50000000  1
  Si  Si3  1  0.50000000  0.00000000  0.00000000  1
  Si  Si4  1  0.00000000  0.50000000  0.50000000  1
  Si  Si5  1  0.50000000  0.00000000  0.50000000  1
  Si  Si6  1  0.00000000  0.00000000  0.75000000  1
  Si  Si7  1  0.00000000  0.00000000  0.25000000  1
loop_
_geom_bond_atom_site_label_1
_geom_bond_atom_site_label_2
_geom_bond_distance
_geom_bond_site_symmetry_2
Cu0 Si7 2.534258 1_655
Cu0 Si5 2.640473 1_555
Cu0 Si4 2.640473 1_655
Cu0 Cu8 2.643944 1_655
Cu0 Cu4 2.643944 1_545
Cu0 Cu15 2.655248 1_555
Cu0 Cu17 2.655248 1_555
Cu0 Cu5 2.690563 1_555
Cu0 Cu21 2.733276 1_555
Cu0 Yb5 2.907001 1_655
Cu0 Yb3 2.907006 1_545
Cu0 Yb0 2.973244 1_555
Cu1 Si6 2.534258 1_565
Cu1 Si4 2.640473 1_555
Cu1 Si5 2.640473 1_565
Cu1 Cu2 2.643944 1_565
Cu1 Cu6 2.643944 1_455
Cu1 Cu16 2.655248 1_555
Cu1 Cu14 2.655248 1_555
Cu1 Cu3 2.690563 1_555
Cu1 Cu20 2.733276 1_555
Cu1 Yb2 2.907001 1_565
Cu1 Yb4 2.907006 1_455
Cu1 Yb1 2.973244 1_555
Cu2 Si7 2.534252 1_555
Cu2 Si2 2.640473 1_555
Cu2 Si5 2.640480 1_555
Cu2 Cu8 2.643933 1_555
Cu2 Cu9 2.690563 1_555
Cu2 Cu21 2.733290 1_555
Cu2 Yb5 2.907001 1_555
Cu2 Yb1 2.907008 1_545
Cu2 Yb2 2.973246 1_555
Cu3 Si6 2.534258 1_565
Cu3 Si1 2.640473 1_556
Cu3 Si3 2.640473 1_566
Cu3 Cu9 2.643944 1_566
Cu3 Yb2 2.907001 1_565
Cu3 Yb4 2.907006 1_455
Cu3 Yb1 2.973244 1_556
Cu4 Si6 2.534252 1_665
Cu4 Si2 2.640473 1_555
Cu4 Si5 2.640480 1_565
Cu4 Cu6 2.643933 1_555
Cu4 Cu7 2.690563 1_555
Cu4 Yb4 2.906996 1_555
Cu4 Yb0 2.907003 1_565
Cu4 Yb3 2.973246 1_555
Cu5 Si7 2.534258 1_655
Cu5 Si3 2.640473 1_555
Cu5 Si1 2.640473 1_655
Cu5 Cu7 2.643944 1_544
Cu5 Yb5 2.907001 1_655
Cu5 Yb3 2.907006 1_545
Cu5 Yb0 2.973244 1_554
Cu6 Si7 2.534252 1_665
Cu6 Si2 2.640473 1_555
Cu6 Si4 2.640480 1_655
Cu6 Yb3 2.906996 1_555
Cu6 Yb1 2.907003 1_655
Cu6 Yb4 2.973246 1_555
Cu7 Si6 2.534252 1_665
Cu7 Si0 2.640473 1_556
Cu7 Si3 2.640480 1_566
Cu7 Yb4 2.906996 1_555
Cu7 Yb0 2.907003 1_565
Cu7 Yb3 2.973246 1_556
Cu8 Si6 2.534252 1_555
Cu8 Si2 2.640473 1_555
Cu8 Si4 2.640480 1_555
Cu8 Yb2 2.907001 1_555
Cu8 Yb0 2.907008 1_455
Cu8 Yb5 2.973246 1_555
Cu9 Si7 2.534252 1_555
Cu9 Si0 2.640473 1_555
Cu9 Si3 2.640480 1_555
Cu9 Yb5 2.907001 1_555
Cu9 Yb1 2.907008 1_545
Cu9 Yb2 2.973246 1_554
Cu10 Si6 2.534252 1_555
Cu10 Si0 2.640473 1_556
Cu10 Si1 2.640480 1_556
Cu10 Cu9 2.643933 1_556
Cu10 Cu5 2.643944 1_456
Cu10 Cu12 2.655251 1_555
Cu10 Cu14 2.655255 1_555
Cu10 Cu8 2.690563 1_555
Cu10 Cu19 2.733290 1_555
Cu10 Yb2 2.907001 1_555
Cu10 Yb0 2.907008 1_455
Cu10 Yb5 2.973246 1_556
Cu11 Si7 2.534252 1_665
Cu11 Si0 2.640473 1_555
Cu11 Si1 2.640480 1_655
Cu11 Cu7 2.643933 1_554
Cu11 Cu3 2.643944 1_654
Cu11 Cu13 2.655251 1_555
Cu11 Cu15 2.655255 1_555
Cu11 Cu6 2.690563 1_555
Cu11 Cu18 2.733290 1_555
Cu11 Yb3 2.906996 1_555
Cu11 Yb1 2.907003 1_655
Cu11 Yb4 2.973246 1_554
Cu12 Si0 2.318535 1_556
Cu12 Si2 2.318535 1_555
Cu12 Cu14 2.505299 1_555
Cu12 Cu16 2.505299 1_555
Cu12 Cu19 2.513665 1_555
Cu12 Cu20 2.513665 1_555
Cu12 Cu7 2.655251 1_555
Cu12 Cu4 2.655251 1_555
Cu12 Cu8 2.655251 1_555
Cu12 Yb4 2.904627 1_555
Cu12 Yb2 2.904635 1_555
Cu13 Si2 2.318535 1_555
Cu13 Si0 2.318535 1_555
Cu13 Cu15 2.505299 1_555
Cu13 Cu17 2.505299 1_555
Cu13 Cu21 2.513665 1_555
Cu13 Cu18 2.513665 1_555
Cu13 Cu6 2.655251 1_555
Cu13 Cu2 2.655251 1_555
Cu13 Cu9 2.655251 1_555
Cu13 Yb3 2.904627 1_555
Cu13 Yb5 2.904635 1_555
Cu14 Si4 2.318535 1_555
Cu14 Si1 2.318535 1_556
Cu14 Cu16 2.505299 1_555
Cu14 Cu20 2.513661 1_555
Cu14 Cu19 2.513661 1_555
Cu14 Cu3 2.655248 1_555
Cu14 Cu8 2.655255 1_555
Cu14 Yb0 2.904635 1_455
Cu14 Yb4 2.904635 1_455
Cu15 Si4 2.318535 1_655
Cu15 Si1 2.318535 1_655
Cu15 Cu17 2.505299 1_555
Cu15 Cu21 2.513661 1_555
Cu15 Cu18 2.513661 1_555
Cu15 Cu5 2.655248 1_555
Cu15 Cu6 2.655255 1_555
Cu15 Yb1 2.904627 1_655
Cu15 Yb5 2.904627 1_655
Cu16 Si3 2.318535 1_566
Cu16 Si5 2.318535 1_565
Cu16 Cu19 2.513661 1_555
Cu16 Cu20 2.513661 1_555
Cu16 Cu3 2.655248 1_555
Cu16 Cu7 2.655255 1_555
Cu16 Cu4 2.655255 1_555
Cu16 Yb0 2.904627 1_565
Cu16 Yb2 2.904627 1_565
Cu17 Si3 2.318535 1_555
Cu17 Si5 2.318535 1_555
Cu17 Cu21 2.513661 1_555
Cu17 Cu18 2.513661 1_555
Cu17 Cu5 2.655248 1_555
Cu17 Cu2 2.655255 1_555
Cu17 Cu9 2.655255 1_555
Cu17 Yb1 2.904635 1_545
Cu17 Yb3 2.904635 1_545
Cu18 Si3 2.394276 1_555
Cu18 Si1 2.394276 1_655
Cu18 Si0 2.394284 1_555
Cu18 Cu5 2.733276 1_555
Cu18 Cu9 2.733290 1_555
Cu18 Yb0 2.908840 1_554
Cu18 Yb2 2.908845 1_554
Cu18 Yb4 2.908845 1_554
Cu19 Si1 2.394276 1_556
Cu19 Si3 2.394276 1_566
Cu19 Si0 2.394284 1_556
Cu19 Cu3 2.733276 1_555
Cu19 Cu7 2.733290 1_555
Cu19 Yb1 2.908840 1_556
Cu19 Yb5 2.908845 1_556
Cu19 Yb3 2.908845 1_556
Cu20 Si4 2.394276 1_555
Cu20 Si5 2.394276 1_565
Cu20 Si2 2.394284 1_555
Cu20 Cu4 2.733290 1_555
Cu20 Cu8 2.733290 1_555
Cu20 Yb1 2.908840 1_555
Cu20 Yb5 2.908845 1_555
Cu20 Yb3 2.908845 1_555
Cu21 Si5 2.394276 1_555
Cu21 Si4 2.394276 1_655
Cu21 Si2 2.394284 1_555
Cu21 Cu6 2.733290 1_555
Cu21 Yb0 2.908840 1_555
Cu21 Yb2 2.908845 1_555
Cu21 Yb4 2.908845 1_555
Si0 Yb3 3.051601 1_555
Si0 Yb4 3.051601 1_554
Si0 Yb5 3.051607 1_555
Si0 Yb2 3.051607 1_554
Si1 Yb1 3.051601 1_555
Si1 Yb5 3.051601 1_555
Si1 Yb0 3.051607 1_454
Si1 Yb4 3.051607 1_454
Si2 Yb3 3.051601 1_555
Si2 Yb4 3.051601 1_555
Si2 Yb5 3.051607 1_555
Si2 Yb2 3.051607 1_555
Si3 Yb0 3.051601 1_554
Si3 Yb2 3.051601 1_554
Si3 Yb1 3.051607 1_545
Si3 Yb3 3.051607 1_545
Si4 Yb1 3.051601 1_555
Si4 Yb5 3.051601 1_555
Si4 Yb0 3.051607 1_455
Si4 Yb4 3.051607 1_455
Si5 Yb0 3.051601 1_555
Si5 Yb2 3.051601 1_555
Si5 Yb1 3.051607 1_545
Si5 Yb3 3.051607 1_545
Si6 Yb4 2.857499 1_445
Si6 Yb2 2.857499 1_555
Si6 Yb0 2.857499 1_455
Si7 Yb3 2.857499 1_445
Si7 Yb5 2.857499 1_555
Si7 Yb1 2.857499 1_545
