# generated using pymatgen
data_BH(PbO2)2
_symmetry_space_group_name_H-M   'P 1'
_cell_length_a   7.21102563
_cell_length_b   7.21102563
_cell_length_c   7.63110394
_cell_angle_alpha   65.84757341
_cell_angle_beta   65.84757341
_cell_angle_gamma   47.87034636
_symmetry_Int_Tables_number   1
_chemical_formula_structural   BH(PbO2)2
_chemical_formula_sum   'B2 H2 Pb4 O8'
_cell_volume   263.15038137
_cell_formula_units_Z   2
loop_
 _symmetry_equiv_pos_site_id
 _symmetry_equiv_pos_as_xyz
  1  'x, y, z'
loop_
 _atom_site_type_symbol
 _atom_site_label
 _atom_site_symmetry_multiplicity
 _atom_site_fract_x
 _atom_site_fract_y
 _atom_site_fract_z
 _atom_site_occupancy
  B  B0  1  0.32956700  0.32956700  0.66165600  1
  B  B1  1  0.67043300  0.67043300  0.33834400  1
  H  H0  1  0.45426500  0.45426500  0.39083900  1
  H  H1  1  0.54573500  0.54573500  0.60916100  1
  Pb  Pb0  1  0.05939900  0.05939900  0.73916000  1
  Pb  Pb1  1  0.94060100  0.94060100  0.26084000  1
  Pb  Pb2  1  0.65186900  0.65186900  0.93727100  1
  Pb  Pb3  1  0.34813100  0.34813100  0.06272900  1
  O  O0  1  0.40960000  0.40960000  0.73180300  1
  O  O1  1  0.59040000  0.59040000  0.26819700  1
  O  O2  1  0.36804200  0.36804200  0.45655300  1
  O  O3  1  0.63195800  0.63195800  0.54344700  1
  O  O4  1  0.21559800  0.21559800  0.78722600  1
  O  O5  1  0.78440200  0.78440200  0.21277400  1
  O  O6  1  0.74713400  0.25286600  0.00000000  1
  O  O7  1  0.25286600  0.74713400  0.00000000  1
loop_
_geom_bond_atom_site_label_1
_geom_bond_atom_site_label_2
_geom_bond_distance
_geom_bond_site_symmetry_2
B0 O4 1.373424 1_555
B0 O0 1.380271 1_555
B0 O2 1.412884 1_555
B1 O5 1.373424 1_555
B1 O1 1.380271 1_555
B1 O3 1.412884 1_555
H0 O2 1.016356 1_555
H0 O1 1.610120 1_555
H1 O3 1.016356 1_555
H1 O0 1.610120 1_555
O0 Pb3 2.280749 1_556
O1 Pb2 2.280749 1_554
O4 Pb0 2.247254 1_555
O5 Pb1 2.247254 1_555
O6 Pb0 2.317063 1_654
O6 Pb1 2.317063 1_545
O6 Pb3 2.338742 1_555
O6 Pb2 2.338742 1_554
O7 Pb0 2.317063 1_564
O7 Pb1 2.317063 1_455
O7 Pb3 2.338742 1_555
O7 Pb2 2.338742 1_554
