# generated using pymatgen
data_Mg30FeCoO32
_symmetry_space_group_name_H-M   'P 1'
_cell_length_a   8.53471600
_cell_length_b   8.53471600
_cell_length_c   8.49671900
_cell_angle_alpha   90.00000000
_cell_angle_beta   90.00000000
_cell_angle_gamma   90.00000000
_symmetry_Int_Tables_number   1
_chemical_formula_structural   Mg30FeCoO32
_chemical_formula_sum   'Mg30 Fe1 Co1 O32'
_cell_volume   618.91271365
_cell_formula_units_Z   1
loop_
 _symmetry_equiv_pos_site_id
 _symmetry_equiv_pos_as_xyz
  1  'x, y, z'
loop_
 _atom_site_type_symbol
 _atom_site_label
 _atom_site_symmetry_multiplicity
 _atom_site_fract_x
 _atom_site_fract_y
 _atom_site_fract_z
 _atom_site_occupancy
  Mg  Mg0  1  0.50000000  0.00000000  0.00000000  1
  Mg  Mg1  1  0.00000000  0.50000000  0.00000000  1
  Mg  Mg2  1  0.00000000  0.00000000  0.50000000  1
  Mg  Mg3  1  0.50000000  0.00000000  0.50000000  1
  Mg  Mg4  1  0.00000000  0.50000000  0.50000000  1
  Mg  Mg5  1  0.50000000  0.50000000  0.50000000  1
  Mg  Mg6  1  0.25051200  0.25051200  0.00000000  1
  Mg  Mg7  1  0.74948800  0.25051200  0.00000000  1
  Mg  Mg8  1  0.25051200  0.74948800  0.00000000  1
  Mg  Mg9  1  0.74948800  0.74948800  0.00000000  1
  Mg  Mg10  1  0.25003300  0.25003300  0.50000000  1
  Mg  Mg11  1  0.74996700  0.25003300  0.50000000  1
  Mg  Mg12  1  0.25003300  0.74996700  0.50000000  1
  Mg  Mg13  1  0.74996700  0.74996700  0.50000000  1
  Mg  Mg14  1  0.25131900  0.00000000  0.24995600  1
  Mg  Mg15  1  0.74868100  0.00000000  0.24995600  1
  Mg  Mg16  1  0.25016000  0.50000000  0.24912200  1
  Mg  Mg17  1  0.74984000  0.50000000  0.24912200  1
  Mg  Mg18  1  0.25131900  0.00000000  0.75004400  1
  Mg  Mg19  1  0.74868100  0.00000000  0.75004400  1
  Mg  Mg20  1  0.25016000  0.50000000  0.75087800  1
  Mg  Mg21  1  0.74984000  0.50000000  0.75087800  1
  Mg  Mg22  1  0.00000000  0.25131900  0.24995600  1
  Mg  Mg23  1  0.50000000  0.25016000  0.24912200  1
  Mg  Mg24  1  0.00000000  0.74868100  0.24995600  1
  Mg  Mg25  1  0.50000000  0.74984000  0.24912200  1
  Mg  Mg26  1  0.00000000  0.25131900  0.75004400  1
  Mg  Mg27  1  0.50000000  0.25016000  0.75087800  1
  Mg  Mg28  1  0.00000000  0.74868100  0.75004400  1
  Mg  Mg29  1  0.50000000  0.74984000  0.75087800  1
  Fe  Fe0  1  0.00000000  0.00000000  0.00000000  1
  Co  Co0  1  0.50000000  0.50000000  0.00000000  1
  O  O0  1  0.00000000  0.00000000  0.25074200  1
  O  O1  1  0.50000000  0.00000000  0.25120200  1
  O  O2  1  0.00000000  0.50000000  0.25120200  1
  O  O3  1  0.50000000  0.50000000  0.25064300  1
  O  O4  1  0.00000000  0.00000000  0.74925800  1
  O  O5  1  0.50000000  0.00000000  0.74879800  1
  O  O6  1  0.00000000  0.50000000  0.74879800  1
  O  O7  1  0.50000000  0.50000000  0.74935700  1
  O  O8  1  0.24993000  0.24993000  0.24998100  1
  O  O9  1  0.75007000  0.24993000  0.24998100  1
  O  O10  1  0.24993000  0.75007000  0.24998100  1
  O  O11  1  0.75007000  0.75007000  0.24998100  1
  O  O12  1  0.24993000  0.24993000  0.75001900  1
  O  O13  1  0.75007000  0.24993000  0.75001900  1
  O  O14  1  0.24993000  0.75007000  0.75001900  1
  O  O15  1  0.75007000  0.75007000  0.75001900  1
  O  O16  1  0.25612900  0.00000000  0.00000000  1
  O  O17  1  0.74387100  0.00000000  0.00000000  1
  O  O18  1  0.24754000  0.50000000  0.00000000  1
  O  O19  1  0.75246000  0.50000000  0.00000000  1
  O  O20  1  0.24962700  0.00000000  0.50000000  1
  O  O21  1  0.75037300  0.00000000  0.50000000  1
  O  O22  1  0.25024100  0.50000000  0.50000000  1
  O  O23  1  0.74975900  0.50000000  0.50000000  1
  O  O24  1  0.00000000  0.25612900  0.00000000  1
  O  O25  1  0.50000000  0.24754000  0.00000000  1
  O  O26  1  0.00000000  0.74387100  0.00000000  1
  O  O27  1  0.50000000  0.75246000  0.00000000  1
  O  O28  1  0.00000000  0.24962700  0.50000000  1
  O  O29  1  0.50000000  0.25024100  0.50000000  1
  O  O30  1  0.00000000  0.75037300  0.50000000  1
  O  O31  1  0.50000000  0.74975900  0.50000000  1
loop_
_geom_bond_atom_site_label_1
_geom_bond_atom_site_label_2
_geom_bond_distance
_geom_bond_site_symmetry_2
Mg0 O17 2.081370 1_555
Mg0 O16 2.081370 1_555
Mg0 O25 2.112684 1_555
Mg0 O27 2.112684 1_545
Mg0 O1 2.134393 1_555
Mg0 O5 2.134393 1_554
Mg1 O26 2.081370 1_555
Mg1 O24 2.081370 1_555
Mg1 O18 2.112684 1_555
Mg1 O19 2.112684 1_455
Mg1 O2 2.134393 1_555
Mg1 O6 2.134393 1_554
Mg2 O0 2.117875 1_555
Mg2 O4 2.117875 1_555
Mg2 O20 2.130496 1_555
Mg2 O28 2.130496 1_555
Mg2 O30 2.130496 1_545
Mg2 O21 2.130496 1_455
Mg3 O5 2.113967 1_555
Mg3 O1 2.113967 1_555
Mg3 O29 2.135736 1_555
Mg3 O31 2.135736 1_545
Mg3 O21 2.136862 1_555
Mg3 O20 2.136862 1_555
Mg4 O6 2.113967 1_555
Mg4 O2 2.113967 1_555
Mg4 O22 2.135736 1_555
Mg4 O23 2.135736 1_455
Mg4 O30 2.136862 1_555
Mg4 O28 2.136862 1_555
Mg5 O3 2.118716 1_555
Mg5 O7 2.118716 1_555
Mg5 O23 2.131622 1_555
Mg5 O31 2.131622 1_555
Mg5 O29 2.131622 1_555
Mg5 O22 2.131622 1_555
Mg6 O8 2.124030 1_555
Mg6 O12 2.124030 1_554
Mg6 O25 2.129460 1_555
Mg6 O18 2.129460 1_555
Mg6 O24 2.138586 1_555
Mg6 O16 2.138586 1_555
Mg7 O9 2.124030 1_555
Mg7 O13 2.124030 1_554
Mg7 O19 2.129460 1_555
Mg7 O25 2.129460 1_555
Mg7 O24 2.138586 1_655
Mg7 O17 2.138586 1_555
Mg8 O14 2.124030 1_554
Mg8 O10 2.124030 1_555
Mg8 O27 2.129460 1_555
Mg8 O18 2.129460 1_555
Mg8 O16 2.138586 1_565
Mg8 O26 2.138586 1_555
Mg9 O15 2.124030 1_554
Mg9 O11 2.124030 1_555
Mg9 O19 2.129460 1_555
Mg9 O27 2.129460 1_555
Mg9 O17 2.138586 1_565
Mg9 O26 2.138586 1_655
Mg10 O12 2.124342 1_555
Mg10 O8 2.124342 1_555
Mg10 O22 2.133398 1_555
Mg10 O29 2.133398 1_555
Mg10 O28 2.133963 1_555
Mg10 O20 2.133963 1_555
Mg11 O9 2.124342 1_555
Mg11 O13 2.124342 1_555
Mg11 O23 2.133398 1_555
Mg11 O29 2.133398 1_555
Mg11 O28 2.133963 1_655
Mg11 O21 2.133963 1_555
Mg12 O14 2.124342 1_555
Mg12 O10 2.124342 1_555
Mg12 O31 2.133398 1_555
Mg12 O22 2.133398 1_555
Mg12 O30 2.133963 1_555
Mg12 O20 2.133963 1_565
Mg13 O15 2.124342 1_555
Mg13 O11 2.124342 1_555
Mg13 O23 2.133398 1_555
Mg13 O31 2.133398 1_555
Mg13 O30 2.133963 1_655
Mg13 O21 2.133963 1_565
Mg14 O1 2.122448 1_555
Mg14 O16 2.124203 1_555
Mg14 O20 2.124603 1_555
Mg14 O8 2.133115 1_555
Mg14 O10 2.133115 1_545
Mg14 O0 2.144947 1_555
Mg15 O1 2.122448 1_555
Mg15 O17 2.124203 1_555
Mg15 O21 2.124603 1_555
Mg15 O9 2.133115 1_555
Mg15 O11 2.133115 1_545
Mg15 O0 2.144947 1_655
Mg16 O18 2.116838 1_555
Mg16 O22 2.131640 1_555
Mg16 O3 2.132353 1_555
Mg16 O8 2.134290 1_555
Mg16 O10 2.134290 1_555
Mg16 O2 2.135118 1_555
Mg17 O19 2.116838 1_555
Mg17 O23 2.131640 1_555
Mg17 O3 2.132353 1_555
Mg17 O11 2.134290 1_555
Mg17 O9 2.134290 1_555
Mg17 O2 2.135118 1_655
Mg18 O5 2.122448 1_555
Mg18 O16 2.124203 1_556
Mg18 O20 2.124603 1_555
Mg18 O14 2.133115 1_545
Mg18 O12 2.133115 1_555
Mg18 O4 2.144947 1_555
Mg19 O5 2.122448 1_555
Mg19 O17 2.124203 1_556
Mg19 O21 2.124603 1_555
Mg19 O15 2.133115 1_545
Mg19 O13 2.133115 1_555
Mg19 O4 2.144947 1_655
Mg20 O18 2.116838 1_556
Mg20 O22 2.131640 1_555
Mg20 O7 2.132353 1_555
Mg20 O14 2.134290 1_555
Mg20 O12 2.134290 1_555
Mg20 O6 2.135118 1_555
Mg21 O19 2.116838 1_556
Mg21 O23 2.131640 1_555
Mg21 O7 2.132353 1_555
Mg21 O15 2.134290 1_555
Mg21 O13 2.134290 1_555
Mg21 O6 2.135118 1_655
Mg22 O2 2.122448 1_555
Mg22 O24 2.124203 1_555
Mg22 O28 2.124603 1_555
Mg22 O9 2.133115 1_455
Mg22 O8 2.133115 1_555
Mg22 O0 2.144947 1_555
Mg23 O25 2.116838 1_555
Mg23 O29 2.131640 1_555
Mg23 O3 2.132353 1_555
Mg23 O8 2.134290 1_555
Mg23 O9 2.134290 1_555
Mg23 O1 2.135118 1_555
Mg24 O2 2.122448 1_555
Mg24 O26 2.124203 1_555
Mg24 O30 2.124603 1_555
Mg24 O10 2.133115 1_555
Mg24 O11 2.133115 1_455
Mg24 O0 2.144947 1_565
Mg25 O27 2.116838 1_555
Mg25 O31 2.131640 1_555
Mg25 O3 2.132353 1_555
Mg25 O11 2.134290 1_555
Mg25 O10 2.134290 1_555
Mg25 O1 2.135118 1_565
Mg26 O6 2.122448 1_555
Mg26 O24 2.124203 1_556
Mg26 O28 2.124603 1_555
Mg26 O13 2.133115 1_455
Mg26 O12 2.133115 1_555
Mg26 O4 2.144947 1_555
Mg27 O25 2.116838 1_556
Mg27 O29 2.131640 1_555
Mg27 O7 2.132353 1_555
Mg27 O12 2.134290 1_555
Mg27 O13 2.134290 1_555
Mg27 O5 2.135118 1_555
Mg28 O6 2.122448 1_555
Mg28 O26 2.124203 1_556
Mg28 O30 2.124603 1_555
Mg28 O14 2.133115 1_555
Mg28 O15 2.133115 1_455
Mg28 O4 2.144947 1_565
Mg29 O27 2.116838 1_556
Mg29 O31 2.131640 1_555
Mg29 O7 2.132353 1_555
Mg29 O14 2.134290 1_555
Mg29 O15 2.134290 1_555
Mg29 O5 2.135118 1_565
Fe0 O0 2.130484 1_555
Fe0 O4 2.130484 1_554
Fe0 O24 2.185988 1_555
Fe0 O16 2.185988 1_555
Fe0 O17 2.185988 1_455
Fe0 O26 2.185988 1_545
Co0 O7 2.129643 1_554
Co0 O3 2.129643 1_555
Co0 O27 2.154674 1_555
Co0 O25 2.154674 1_555
Co0 O18 2.154674 1_555
Co0 O19 2.154674 1_555
