# generated using pymatgen
data_La2TiCrO6
_symmetry_space_group_name_H-M   'P 1'
_cell_length_a   5.52328350
_cell_length_b   5.52338231
_cell_length_c   5.52335912
_cell_angle_alpha   61.71448680
_cell_angle_beta   61.71560652
_cell_angle_gamma   61.71647400
_symmetry_Int_Tables_number   1
_chemical_formula_structural   La2TiCrO6
_chemical_formula_sum   'La2 Ti1 Cr1 O6'
_cell_volume   123.73043377
_cell_formula_units_Z   1
loop_
 _symmetry_equiv_pos_site_id
 _symmetry_equiv_pos_as_xyz
  1  'x, y, z'
loop_
 _atom_site_type_symbol
 _atom_site_label
 _atom_site_symmetry_multiplicity
 _atom_site_fract_x
 _atom_site_fract_y
 _atom_site_fract_z
 _atom_site_occupancy
  La  La0  1  0.24890600  0.24889300  0.24889600  1
  La  La1  1  0.75111600  0.75110600  0.75110800  1
  Ti  Ti0  1  0.00000800  0.00000200  0.00000000  1
  Cr  Cr0  1  0.49991600  0.49999600  0.49999600  1
  O  O0  1  0.67831900  0.82002100  0.25276600  1
  O  O1  1  0.82002700  0.25276900  0.67831000  1
  O  O2  1  0.25278000  0.67831000  0.82001800  1
  O  O3  1  0.17999100  0.74723100  0.32169200  1
  O  O4  1  0.74723700  0.32169200  0.17998200  1
  O  O5  1  0.32169900  0.17998000  0.74723300  1
loop_
_geom_bond_atom_site_label_1
_geom_bond_atom_site_label_2
_geom_bond_distance
_geom_bond_site_symmetry_2
La0 O2 2.431607 1_554
La0 O1 2.431620 1_455
La0 O0 2.431632 1_545
La0 O4 2.789777 1_455
La0 O3 2.789779 1_545
La0 O5 2.789798 1_554
La0 O4 2.791647 1_555
La0 O5 2.791698 1_555
La0 O3 2.791742 1_555
La1 O4 2.431587 1_556
La1 O3 2.431615 1_655
La1 O5 2.431649 1_565
La1 O2 2.789744 1_655
La1 O1 2.789768 1_565
La1 O0 2.789768 1_556
La1 O2 2.791675 1_555
La1 O0 2.791733 1_555
La1 O1 2.791752 1_555
Cr0 O3 2.011223 1_555
Cr0 O5 2.011319 1_555
Cr0 O4 2.011665 1_555
Cr0 O2 2.011701 1_555
Cr0 O0 2.011958 1_555
Cr0 O1 2.012064 1_555
O0 Ti0 2.025343 1_665
O1 Ti0 2.025368 1_656
O2 Ti0 2.025437 1_566
O3 Ti0 2.025384 1_565
O4 Ti0 2.025428 1_655
O5 Ti0 2.025342 1_556
