# generated using pymatgen
data_Tb8Se15
_symmetry_space_group_name_H-M   'P 1'
_cell_length_a   11.59628920
_cell_length_b   11.59628920
_cell_length_c   12.15646132
_cell_angle_alpha   89.99443662
_cell_angle_beta   89.99443662
_cell_angle_gamma   91.57548016
_symmetry_Int_Tables_number   1
_chemical_formula_structural   Tb8Se15
_chemical_formula_sum   'Tb24 Se45'
_cell_volume   1634.10905840
_cell_formula_units_Z   3
loop_
 _symmetry_equiv_pos_site_id
 _symmetry_equiv_pos_as_xyz
  1  'x, y, z'
loop_
 _atom_site_type_symbol
 _atom_site_label
 _atom_site_symmetry_multiplicity
 _atom_site_fract_x
 _atom_site_fract_y
 _atom_site_fract_z
 _atom_site_occupancy
  Tb  Tb0  1  0.84074858  0.15925142  -0.00000000  1
  Tb  Tb1  1  0.49442784  0.24634762  0.16823543  1
  Tb  Tb2  1  0.75365238  0.50557216  0.83176457  1
  Tb  Tb3  1  0.49415805  0.24581469  0.83041613  1
  Tb  Tb4  1  0.75418531  0.50584195  0.16958387  1
  Tb  Tb5  1  0.01426158  0.74273113  0.16580017  1
  Tb  Tb6  1  0.25726887  0.98573842  0.83419983  1
  Tb  Tb7  1  0.01418074  0.74299314  0.83421964  1
  Tb  Tb8  1  0.25700686  0.98581926  0.16578036  1
  Tb  Tb9  1  0.60947349  0.88485463  0.66902854  1
  Tb  Tb10  1  0.11514537  0.39052651  0.33097146  1
  Tb  Tb11  1  0.61058423  0.88550499  0.33139802  1
  Tb  Tb12  1  0.11449501  0.38941577  0.66860198  1
  Tb  Tb13  1  0.37276459  0.62723541  -0.00000000  1
  Tb  Tb14  1  0.99533378  0.74908675  0.49974884  1
  Tb  Tb15  1  0.25091325  0.00466622  0.50025116  1
  Tb  Tb16  1  0.85962439  0.14073450  0.33277482  1
  Tb  Tb17  1  0.85926550  0.14037561  0.66722518  1
  Tb  Tb18  1  0.60657773  0.89429539  0.00017033  1
  Tb  Tb19  1  0.10570461  0.39342227  0.99982967  1
  Tb  Tb20  1  0.51507362  0.23561353  0.49913015  1
  Tb  Tb21  1  0.76438647  0.48492638  0.50086985  1
  Tb  Tb22  1  0.35273340  0.64832450  0.33434263  1
  Tb  Tb23  1  0.35167550  0.64726660  0.66565737  1
  Se  Se0  1  0.76621257  0.77838770  0.84158402  1
  Se  Se1  1  0.22161230  0.23378743  0.15841598  1
  Se  Se2  1  0.76605880  0.77843392  0.15861350  1
  Se  Se3  1  0.22156608  0.23394120  0.84138650  1
  Se  Se4  1  0.49558086  0.50587025  0.19226977  1
  Se  Se5  1  0.49412975  0.50441914  0.80773023  1
  Se  Se6  1  0.42909701  0.06822865  0.66649496  1
  Se  Se7  1  0.93177135  0.57090299  0.33350504  1
  Se  Se8  1  0.42921099  0.06831323  0.33308141  1
  Se  Se9  1  0.93168677  0.57078901  0.66691859  1
  Se  Se10  1  0.86918216  0.88393231  0.31310255  1
  Se  Se11  1  0.11606769  0.13081784  0.68689745  1
  Se  Se12  1  0.86825821  0.88313138  0.68625391  1
  Se  Se13  1  0.11686862  0.13174179  0.31374609  1
  Se  Se14  1  0.68844909  0.05693038  0.49999447  1
  Se  Se15  1  0.94306962  0.31155091  0.50000553  1
  Se  Se16  1  0.17560591  0.82459583  0.33395151  1
  Se  Se17  1  0.17540417  0.82439409  0.66604849  1
  Se  Se18  1  0.68117627  0.31953947  0.33550451  1
  Se  Se19  1  0.68046053  0.31882373  0.66449549  1
  Se  Se20  1  0.42357413  0.06879036  0.99991282  1
  Se  Se21  1  0.93120964  0.57642587  0.00008718  1
  Se  Se22  1  0.18365885  0.56972124  0.49965195  1
  Se  Se23  1  0.43027876  0.81634115  0.50034805  1
  Se  Se24  1  0.66714627  0.33285373  -0.00000000  1
  Se  Se25  1  0.26470418  0.27315962  0.49917040  1
  Se  Se26  1  0.72684038  0.73529582  0.50082960  1
  Se  Se27  1  0.68203389  0.06910296  0.16459154  1
  Se  Se28  1  0.93089704  0.31796611  0.83540846  1
  Se  Se29  1  0.68197645  0.06876030  0.83550256  1
  Se  Se30  1  0.93123970  0.31802355  0.16449744  1
  Se  Se31  1  0.35808443  0.36815492  0.99913466  1
  Se  Se32  1  0.63184508  0.64191557  0.00086534  1
  Se  Se33  1  0.18899440  0.56105488  0.16694020  1
  Se  Se34  1  0.43894512  0.81100560  0.83305980  1
  Se  Se35  1  0.18850502  0.56060538  0.83253528  1
  Se  Se36  1  0.43939462  0.81149498  0.16746472  1
  Se  Se37  1  0.99363976  0.00636024  0.50000000  1
  Se  Se38  1  0.19527365  0.80472635  -0.00000000  1
  Se  Se39  1  0.38217411  0.39121259  0.34631941  1
  Se  Se40  1  0.60878741  0.61782589  0.65368059  1
  Se  Se41  1  0.37945211  0.38882080  0.64964026  1
  Se  Se42  1  0.61117920  0.62054789  0.35035974  1
  Se  Se43  1  0.00721549  0.99449959  0.90026859  1
  Se  Se44  1  0.00550041  0.99278451  0.09973141  1
loop_
_geom_bond_atom_site_label_1
_geom_bond_atom_site_label_2
_geom_bond_distance
_geom_bond_site_symmetry_2
Se0 Se12 2.522160 1_555
Se0 Tb7 2.917173 1_655
Se0 Se32 2.923162 1_556
Se0 Tb18 3.014410 1_556
Se0 Tb9 3.058064 1_555
Se0 Tb2 3.165260 1_555
Se1 Se13 2.522160 1_555
Se1 Tb8 2.917173 1_545
Se1 Se31 2.923162 1_554
Se1 Tb19 3.014410 1_554
Se1 Tb10 3.058064 1_555
Se1 Tb1 3.165260 1_555
Se2 Se32 2.910610 1_555
Se2 Tb5 2.920416 1_655
Se2 Tb18 3.011995 1_555
Se2 Tb11 3.054003 1_555
Se2 Tb4 3.163067 1_555
Se3 Se31 2.910610 1_555
Se3 Tb6 2.920416 1_545
Se3 Tb19 3.011995 1_555
Se3 Tb12 3.054003 1_555
Se3 Tb3 3.163067 1_555
Se4 Se42 2.676150 1_555
Se4 Tb22 2.933642 1_555
Se4 Tb4 3.011488 1_555
Se4 Tb1 3.023341 1_555
Se4 Tb13 3.095546 1_555
Se5 Tb23 2.933642 1_555
Se5 Tb3 3.011488 1_555
Se5 Tb2 3.023341 1_555
Se5 Tb13 3.095546 1_556
Se6 Tb3 2.949002 1_555
Se6 Tb20 2.965393 1_555
Se6 Tb15 2.968890 1_555
Se6 Tb6 2.989262 1_545
Se6 Tb9 3.023665 1_545
Se7 Tb4 2.949002 1_555
Se7 Tb21 2.965393 1_555
Se7 Tb14 2.968890 1_555
Se7 Tb5 2.989262 1_655
Se7 Tb10 3.023665 1_655
Se8 Tb20 2.953773 1_555
Se8 Tb1 2.960254 1_555
Se8 Tb15 2.977326 1_555
Se8 Tb8 2.989193 1_545
Se8 Tb11 3.027085 1_545
Se9 Tb21 2.953773 1_555
Se9 Tb2 2.960254 1_555
Se9 Tb14 2.977326 1_555
Se9 Tb7 2.989193 1_655
Se9 Tb12 3.027085 1_655
Se10 Se2 2.524719 1_555
Se10 Tb5 2.978171 1_655
Se10 Tb16 2.992651 1_565
Se10 Tb11 3.007547 1_555
Se10 Tb14 3.139928 1_555
Se11 Se3 2.524719 1_555
Se11 Tb6 2.978171 1_545
Se11 Tb17 2.992651 1_455
Se11 Tb12 3.007547 1_555
Se11 Tb15 3.139928 1_555
Se12 Tb7 2.981778 1_655
Se12 Tb17 2.996685 1_565
Se12 Tb9 3.008874 1_555
Se12 Tb14 3.139126 1_555
Se13 Tb8 2.981778 1_545
Se13 Tb16 2.996685 1_455
Se13 Tb10 3.008874 1_555
Se13 Tb15 3.139126 1_555
Se14 Tb20 2.926565 1_555
Se14 Tb11 2.978271 1_545
Se14 Tb17 2.981385 1_555
Se14 Tb16 2.984908 1_555
Se14 Tb9 2.990200 1_545
Se15 Tb21 2.926565 1_555
Se15 Tb12 2.978271 1_655
Se15 Tb16 2.981385 1_555
Se15 Tb17 2.984908 1_555
Se15 Tb10 2.990200 1_655
Se16 Tb8 2.909930 1_555
Se16 Tb5 2.912687 1_555
Se16 Tb22 2.937383 1_555
Se16 Tb14 3.016176 1_455
Se16 Tb15 3.018412 1_565
Se17 Tb7 2.909930 1_555
Se17 Tb6 2.912687 1_555
Se17 Tb23 2.937383 1_555
Se17 Tb15 3.016176 1_565
Se17 Tb14 3.018412 1_455
Se18 Tb20 2.917135 1_555
Se18 Tb21 2.924009 1_555
Se18 Tb16 2.969593 1_555
Se18 Tb4 3.057901 1_555
Se18 Tb1 3.073271 1_555
Se19 Tb21 2.917135 1_555
Se19 Tb20 2.924009 1_555
Se19 Tb17 2.969593 1_555
Se19 Tb3 3.057901 1_555
Se19 Tb2 3.073271 1_555
Se20 Tb6 2.933240 1_545
Se20 Tb8 2.935825 1_546
Se20 Tb18 2.972245 1_546
Se20 Tb1 3.001613 1_556
Se20 Tb3 3.006009 1_555
Se21 Tb5 2.933240 1_655
Se21 Tb7 2.935825 1_654
Se21 Tb19 2.972245 1_654
Se21 Tb2 3.001613 1_554
Se21 Tb4 3.006009 1_555
Se22 Tb23 2.929510 1_555
Se22 Tb22 2.934953 1_555
Se22 Tb10 3.010721 1_555
Se22 Tb12 3.023227 1_555
Se22 Tb14 3.057019 1_455
Se23 Tb22 2.929510 1_555
Se23 Tb23 2.934953 1_555
Se23 Tb9 3.010721 1_555
Se23 Tb11 3.023227 1_555
Se23 Tb15 3.057019 1_565
Se24 Tb0 2.885886 1_555
Se24 Tb2 3.014771 1_554
Se24 Tb1 3.014771 1_555
Se24 Tb4 3.030295 1_555
Se24 Tb3 3.030295 1_554
Se25 Se41 2.611182 1_555
Se25 Se39 2.660608 1_555
Se25 Tb20 2.947636 1_555
Se25 Tb10 3.028370 1_555
Se25 Tb12 3.036919 1_555
Se25 Tb15 3.113264 1_555
Se26 Se42 2.611182 1_555
Se26 Se40 2.660608 1_555
Se26 Tb21 2.947636 1_555
Se26 Tb9 3.028370 1_555
Se26 Tb11 3.036919 1_555
Se26 Tb14 3.113264 1_555
Se27 Tb0 2.894264 1_555
Se27 Tb18 2.962021 1_545
Se27 Tb16 3.003033 1_555
Se27 Tb1 3.034037 1_555
Se27 Tb11 3.038599 1_545
Se28 Tb0 2.894264 1_556
Se28 Tb19 2.962021 1_655
Se28 Tb17 3.003033 1_555
Se28 Tb2 3.034037 1_555
Se28 Tb12 3.038599 1_655
Se29 Tb0 2.895646 1_556
Se29 Tb18 2.960796 1_546
Se29 Tb17 3.001012 1_555
Se29 Tb3 3.034619 1_555
Se29 Tb9 3.041882 1_545
Se30 Tb0 2.895646 1_555
Se30 Tb19 2.960796 1_654
Se30 Tb16 3.001012 1_555
Se30 Tb4 3.034619 1_555
Se30 Tb10 3.041882 1_655
Se31 Tb19 2.949317 1_555
Se31 Tb3 2.971924 1_555
Se31 Tb1 2.973825 1_556
Se31 Tb13 3.004534 1_556
Se32 Tb18 2.949317 1_555
Se32 Tb4 2.971924 1_555
Se32 Tb2 2.973825 1_554
Se32 Tb13 3.004534 1_555
Se33 Tb10 2.919905 1_555
Se33 Tb22 2.943851 1_555
Se33 Tb19 2.955752 1_554
Se33 Tb5 2.962956 1_555
Se33 Tb13 3.026179 1_555
Se34 Tb9 2.919905 1_555
Se34 Tb23 2.943851 1_555
Se34 Tb18 2.955752 1_556
Se34 Tb6 2.962956 1_555
Se34 Tb13 3.026179 1_556
Se35 Tb12 2.925118 1_555
Se35 Tb23 2.932564 1_555
Se35 Tb19 2.951775 1_555
Se35 Tb7 2.965697 1_555
Se35 Tb13 3.036012 1_556
Se36 Tb11 2.925118 1_555
Se36 Tb22 2.932564 1_555
Se36 Tb18 2.951775 1_555
Se36 Tb8 2.965697 1_555
Se36 Tb13 3.036012 1_555
Se37 Tb15 2.984024 1_655
Se37 Tb14 2.984024 1_545
Se37 Tb16 3.018111 1_555
Se37 Tb17 3.018111 1_555
Se38 Tb13 2.950529 1_555
Se38 Tb6 2.983498 1_554
Se38 Tb5 2.983498 1_555
Se38 Tb7 2.983686 1_554
Se38 Tb8 2.983686 1_555
Se39 Se4 2.628158 1_555
Se39 Tb22 3.013844 1_555
Se39 Tb20 3.038833 1_555
Se39 Tb1 3.053459 1_555
Se39 Tb10 3.101968 1_555
Se40 Se5 2.628158 1_555
Se40 Tb23 3.013844 1_555
Se40 Tb21 3.038833 1_555
Se40 Tb2 3.053459 1_555
Se40 Tb9 3.101968 1_555
Se41 Se5 2.676150 1_555
Se41 Tb20 3.021796 1_555
Se41 Tb23 3.029345 1_555
Se41 Tb3 3.077337 1_555
Se41 Tb12 3.081328 1_555
Se42 Tb21 3.021796 1_555
Se42 Tb22 3.029345 1_555
Se42 Tb4 3.077337 1_555
Se42 Tb11 3.081328 1_555
Se43 Se44 2.424917 1_556
Se43 Tb0 3.008180 1_466
Se43 Tb6 3.013198 1_555
Se43 Tb7 3.028336 1_555
Se44 Tb0 3.008180 1_465
Se44 Tb5 3.013198 1_555
Se44 Tb8 3.028336 1_555
