# generated using pymatgen
data_HfMg14SiO16
_symmetry_space_group_name_H-M   'P 1'
_cell_length_a   8.90931508
_cell_length_b   8.66610129
_cell_length_c   4.28545256
_cell_angle_alpha   90.00000000
_cell_angle_beta   90.00000000
_cell_angle_gamma   90.00000000
_symmetry_Int_Tables_number   1
_chemical_formula_structural   HfMg14SiO16
_chemical_formula_sum   'Hf1 Mg14 Si1 O16'
_cell_volume   330.87562202
_cell_formula_units_Z   1
loop_
 _symmetry_equiv_pos_site_id
 _symmetry_equiv_pos_as_xyz
  1  'x, y, z'
loop_
 _atom_site_type_symbol
 _atom_site_label
 _atom_site_symmetry_multiplicity
 _atom_site_fract_x
 _atom_site_fract_y
 _atom_site_fract_z
 _atom_site_occupancy
  Hf  Hf0  1  -0.00000000  0.50000000  0.00000000  1
  Mg  Mg0  1  0.50000000  -0.00000000  0.00000000  1
  Mg  Mg1  1  0.50000000  0.50000000  0.00000000  1
  Mg  Mg2  1  -0.00000000  0.24035035  0.50000000  1
  Mg  Mg3  1  -0.00000000  0.75964965  0.50000000  1
  Mg  Mg4  1  0.50000000  0.24827605  0.50000000  1
  Mg  Mg5  1  0.50000000  0.75172395  0.50000000  1
  Mg  Mg6  1  0.25863708  -0.00000000  0.50000000  1
  Mg  Mg7  1  0.26052048  0.50000000  0.50000000  1
  Mg  Mg8  1  0.74136292  -0.00000000  0.50000000  1
  Mg  Mg9  1  0.73947952  0.50000000  0.50000000  1
  Mg  Mg10  1  0.25864898  0.24152077  -0.00000000  1
  Mg  Mg11  1  0.25864898  0.75847923  0.00000000  1
  Mg  Mg12  1  0.74135102  0.24152077  -0.00000000  1
  Mg  Mg13  1  0.74135102  0.75847923  0.00000000  1
  Si  Si0  1  -0.00000000  -0.00000000  0.00000000  1
  O  O0  1  0.28089545  -0.00000000  0.00000000  1
  O  O1  1  0.24930118  0.50000000  0.00000000  1
  O  O2  1  0.71910455  -0.00000000  0.00000000  1
  O  O3  1  0.75069882  0.50000000  -0.00000000  1
  O  O4  1  0.24834646  0.25022537  0.50000000  1
  O  O5  1  0.24834646  0.74977463  0.50000000  1
  O  O6  1  0.75165354  0.25022537  0.50000000  1
  O  O7  1  0.75165354  0.74977463  0.50000000  1
  O  O8  1  -0.00000000  -0.00000000  0.50000000  1
  O  O9  1  -0.00000000  0.50000000  0.50000000  1
  O  O10  1  0.50000000  -0.00000000  0.50000000  1
  O  O11  1  0.50000000  0.50000000  0.50000000  1
  O  O12  1  -0.00000000  0.25678241  -0.00000000  1
  O  O13  1  -0.00000000  0.74321759  0.00000000  1
  O  O14  1  0.50000000  0.25785750  0.00000000  1
  O  O15  1  0.50000000  0.74214250  -0.00000000  1
loop_
_geom_bond_atom_site_label_1
_geom_bond_atom_site_label_2
_geom_bond_distance
_geom_bond_site_symmetry_2
Hf0 O13 2.107748 1_555
Hf0 O12 2.107748 1_555
Hf0 O9 2.142726 1_555
Hf0 O9 2.142726 1_554
Hf0 O3 2.221103 1_455
Hf0 O1 2.221103 1_555
Mg0 O2 1.952071 1_555
Mg0 O0 1.952071 1_555
Mg0 O10 2.142726 1_555
Mg0 O10 2.142726 1_554
Mg0 O15 2.234619 1_545
Mg0 O14 2.234619 1_555
Mg1 O14 2.098431 1_555
Mg1 O15 2.098431 1_555
Mg1 O11 2.142726 1_554
Mg1 O11 2.142726 1_555
Mg1 O1 2.233555 1_555
Mg1 O3 2.233555 1_555
Mg2 O8 2.082900 1_555
Mg2 O12 2.147453 1_556
Mg2 O12 2.147453 1_555
Mg2 O4 2.214251 1_555
Mg2 O6 2.214251 1_455
Mg2 O9 2.250150 1_555
Mg3 O8 2.082900 1_565
Mg3 O13 2.147453 1_555
Mg3 O13 2.147453 1_556
Mg3 O5 2.214251 1_555
Mg3 O7 2.214251 1_455
Mg3 O9 2.250150 1_555
Mg4 O14 2.144335 1_556
Mg4 O14 2.144335 1_555
Mg4 O10 2.151585 1_555
Mg4 O11 2.181465 1_555
Mg4 O6 2.242124 1_555
Mg4 O4 2.242124 1_555
Mg5 O15 2.144335 1_556
Mg5 O15 2.144335 1_555
Mg5 O10 2.151585 1_565
Mg5 O11 2.181465 1_555
Mg5 O7 2.242124 1_555
Mg5 O5 2.242124 1_555
Mg6 O10 2.150378 1_555
Mg6 O0 2.151883 1_555
Mg6 O0 2.151883 1_556
Mg6 O5 2.170416 1_545
Mg6 O4 2.170416 1_555
Mg6 O8 2.304279 1_555
Mg7 O11 2.133598 1_555
Mg7 O1 2.145056 1_556
Mg7 O1 2.145056 1_555
Mg7 O4 2.167288 1_555
Mg7 O5 2.167288 1_555
Mg7 O9 2.321059 1_555
Mg8 O10 2.150378 1_555
Mg8 O2 2.151883 1_556
Mg8 O2 2.151883 1_555
Mg8 O6 2.170416 1_555
Mg8 O7 2.170416 1_545
Mg8 O8 2.304279 1_655
Mg9 O11 2.133598 1_555
Mg9 O3 2.145056 1_556
Mg9 O3 2.145056 1_555
Mg9 O6 2.167288 1_555
Mg9 O7 2.167288 1_555
Mg9 O9 2.321059 1_655
Mg10 O0 2.102407 1_555
Mg10 O4 2.146018 1_554
Mg10 O4 2.146018 1_555
Mg10 O14 2.154928 1_555
Mg10 O1 2.241555 1_555
Mg10 O12 2.308178 1_555
Mg11 O0 2.102407 1_565
Mg11 O5 2.146018 1_554
Mg11 O5 2.146018 1_555
Mg11 O15 2.154928 1_555
Mg11 O1 2.241555 1_555
Mg11 O13 2.308178 1_555
Mg12 O2 2.102407 1_555
Mg12 O6 2.146018 1_554
Mg12 O6 2.146018 1_555
Mg12 O14 2.154928 1_555
Mg12 O3 2.241555 1_555
Mg12 O12 2.308178 1_655
Mg13 O2 2.102407 1_565
Mg13 O7 2.146018 1_555
Mg13 O7 2.146018 1_554
Mg13 O15 2.154928 1_555
Mg13 O3 2.241555 1_555
Mg13 O13 2.308178 1_655
O8 Si0 2.142726 1_555
O8 Si0 2.142726 1_556
O12 Si0 2.225302 1_555
O13 Si0 2.225302 1_565
