# generated using pymatgen
data_UAlRu
_symmetry_space_group_name_H-M   'P 1'
_cell_length_a   6.74238552
_cell_length_b   6.74238552
_cell_length_c   4.20666700
_cell_angle_alpha   90.00000000
_cell_angle_beta   90.00000000
_cell_angle_gamma   119.99999526
_symmetry_Int_Tables_number   1
_chemical_formula_structural   UAlRu
_chemical_formula_sum   'U3 Al3 Ru3'
_cell_volume   165.61358147
_cell_formula_units_Z   3
loop_
 _symmetry_equiv_pos_site_id
 _symmetry_equiv_pos_as_xyz
  1  'x, y, z'
loop_
 _atom_site_type_symbol
 _atom_site_label
 _atom_site_symmetry_multiplicity
 _atom_site_fract_x
 _atom_site_fract_y
 _atom_site_fract_z
 _atom_site_occupancy
  U  U0  1  0.42515500  0.00000000  0.50000000  1
  U  U1  1  0.00000000  0.42515500  0.50000000  1
  U  U2  1  0.57484500  0.57484500  0.50000000  1
  Al  Al0  1  0.76617100  0.00000000  0.00000000  1
  Al  Al1  1  0.00000000  0.76617100  0.00000000  1
  Al  Al2  1  0.23382900  0.23382900  0.00000000  1
  Ru  Ru0  1  0.33333300  0.66666700  0.00000000  1
  Ru  Ru1  1  0.66666700  0.33333300  0.00000000  1
  Ru  Ru2  1  0.00000000  0.00000000  0.50000000  1
loop_
_geom_bond_atom_site_label_1
_geom_bond_atom_site_label_2
_geom_bond_distance
_geom_bond_site_symmetry_2
U0 U2 3.482658 1_545
U0 U2 3.482658 1_555
U0 U1 3.482658 1_655
U0 U1 3.482658 1_545
U1 U2 3.482658 1_455
U1 U2 3.482658 1_555
Al0 Ru2 2.628606 1_654
Al0 Ru2 2.628606 1_655
Al0 Ru1 2.647448 1_555
Al0 Ru0 2.647453 1_545
Al0 Al1 2.730691 1_645
Al0 Al2 2.730691 1_655
Al0 U0 3.116186 1_554
Al0 U0 3.116186 1_555
Al0 U2 3.256902 1_545
Al0 U2 3.256902 1_544
Al0 U1 3.256902 1_655
Al0 U1 3.256902 1_654
Al1 Ru2 2.628606 1_564
Al1 Ru2 2.628606 1_565
Al1 Ru0 2.647448 1_555
Al1 Ru1 2.647453 1_455
Al1 Al2 2.730691 1_565
Al1 U1 3.116186 1_554
Al1 U1 3.116186 1_555
Al1 U2 3.256902 1_454
Al1 U2 3.256902 1_455
Al1 U0 3.256902 1_565
Al1 U0 3.256902 1_564
Al2 Ru2 2.628606 1_554
Al2 Ru2 2.628606 1_555
Al2 Ru0 2.647455 1_555
Al2 Ru1 2.647455 1_555
Al2 U2 3.116186 1_555
Al2 U2 3.116186 1_554
Al2 U0 3.256902 1_555
Al2 U0 3.256902 1_554
Al2 U1 3.256902 1_555
Al2 U1 3.256902 1_554
Ru0 U0 2.909806 1_565
Ru0 U0 2.909806 1_564
Ru0 U1 2.909807 1_555
Ru0 U1 2.909807 1_554
Ru0 U2 2.909810 1_554
Ru0 U2 2.909810 1_555
Ru1 U1 2.909806 1_654
Ru1 U1 2.909806 1_655
Ru1 U0 2.909807 1_555
Ru1 U0 2.909807 1_554
Ru1 U2 2.909810 1_554
Ru1 U2 2.909810 1_555
Ru2 U1 2.866559 1_555
Ru2 U0 2.866559 1_555
Ru2 U2 2.866559 1_445
