# generated using pymatgen
data_Sr(GeRu)2
_symmetry_space_group_name_H-M   'P 1'
_cell_length_a   4.32168011
_cell_length_b   4.32168027
_cell_length_c   6.00313412
_cell_angle_alpha   111.09724652
_cell_angle_beta   111.09724224
_cell_angle_gamma   89.99999863
_symmetry_Int_Tables_number   1
_chemical_formula_structural   Sr(GeRu)2
_chemical_formula_sum   'Sr1 Ge2 Ru2'
_cell_volume   96.50594568
_cell_formula_units_Z   1
loop_
 _symmetry_equiv_pos_site_id
 _symmetry_equiv_pos_as_xyz
  1  'x, y, z'
loop_
 _atom_site_type_symbol
 _atom_site_label
 _atom_site_symmetry_multiplicity
 _atom_site_fract_x
 _atom_site_fract_y
 _atom_site_fract_z
 _atom_site_occupancy
  Sr  Sr0  1  -0.00000000  0.00000000  0.00000000  1
  Ge  Ge0  1  0.64218495  0.64218495  0.28436791  1
  Ge  Ge1  1  0.35781505  0.35781505  0.71563109  1
  Ru  Ru0  1  0.25000000  0.75000000  0.50000000  1
  Ru  Ru1  1  0.75000000  0.25000000  0.50000000  1
loop_
_geom_bond_atom_site_label_1
_geom_bond_atom_site_label_2
_geom_bond_distance
_geom_bond_site_symmetry_2
Ge0 Ru0 2.431182 1_655
Ge0 Ru1 2.431182 1_565
Ge0 Ru0 2.431190 1_555
Ge0 Ru1 2.431190 1_555
Ge0 Sr0 3.390789 1_665
Ge0 Sr0 3.390795 1_655
Ge0 Sr0 3.390795 1_565
Ge0 Sr0 3.390801 1_555
Ge1 Ru1 2.431182 1_455
Ge1 Ru0 2.431182 1_545
Ge1 Ru1 2.431186 1_555
Ge1 Ru0 2.431186 1_555
Ge1 Sr0 3.390794 1_556
Ge1 Sr0 3.390797 1_566
Ge1 Sr0 3.390797 1_656
Ge1 Sr0 3.390800 1_666
Ru0 Sr0 3.368088 1_566
Ru0 Sr0 3.368089 1_565
Ru0 Sr0 3.368089 1_555
Ru0 Sr0 3.368089 1_666
Ru1 Sr0 3.368088 1_655
Ru1 Sr0 3.368089 1_656
Ru1 Sr0 3.368089 1_666
Ru1 Sr0 3.368089 1_555
