# generated using pymatgen
data_Li7Mn2(CoO4)3
_symmetry_space_group_name_H-M   'P 1'
_cell_length_a   5.07274200
_cell_length_b   5.11857655
_cell_length_c   8.73194831
_cell_angle_alpha   90.35941349
_cell_angle_beta   90.75234485
_cell_angle_gamma   109.28042919
_symmetry_Int_Tables_number   1
_chemical_formula_structural   Li7Mn2(CoO4)3
_chemical_formula_sum   'Li7 Mn2 Co3 O12'
_cell_volume   213.97872178
_cell_formula_units_Z   1
loop_
 _symmetry_equiv_pos_site_id
 _symmetry_equiv_pos_as_xyz
  1  'x, y, z'
loop_
 _atom_site_type_symbol
 _atom_site_label
 _atom_site_symmetry_multiplicity
 _atom_site_fract_x
 _atom_site_fract_y
 _atom_site_fract_z
 _atom_site_occupancy
  Li  Li0  1  0.00000000  0.50000000  0.00000000  1
  Li  Li1  1  0.50506000  0.49942900  0.16240700  1
  Li  Li2  1  0.00588700  0.50481600  0.33040300  1
  Li  Li3  1  0.50000000  0.50000000  0.50000000  1
  Li  Li4  1  0.99411300  0.49518400  0.66959700  1
  Li  Li5  1  0.49494000  0.50057100  0.83759300  1
  Li  Li6  1  0.50000000  0.00000000  0.00000000  1
  Mn  Mn0  1  0.99789700  0.99365900  0.83699400  1
  Mn  Mn1  1  0.00210300  0.00634100  0.16300600  1
  Co  Co0  1  0.50486400  0.00398700  0.32408600  1
  Co  Co1  1  0.00000000  0.00000000  0.50000000  1
  Co  Co2  1  0.49513600  0.99601300  0.67591400  1
  O  O0  1  0.23391400  0.76993700  0.83014500  1
  O  O1  1  0.78070200  0.77392700  0.00024200  1
  O  O2  1  0.25007000  0.78299800  0.17597300  1
  O  O3  1  0.76859900  0.77183800  0.31996900  1
  O  O4  1  0.25536400  0.77906400  0.50422100  1
  O  O5  1  0.76166500  0.76513500  0.67302500  1
  O  O6  1  0.76608600  0.23006300  0.16985500  1
  O  O7  1  0.23833500  0.23486500  0.32697500  1
  O  O8  1  0.74463600  0.22093600  0.49577900  1
  O  O9  1  0.23140100  0.22816200  0.68003100  1
  O  O10  1  0.74993000  0.21700200  0.82402700  1
  O  O11  1  0.21929800  0.22607300  0.99975800  1
loop_
_geom_bond_atom_site_label_1
_geom_bond_atom_site_label_2
_geom_bond_distance
_geom_bond_site_symmetry_2
Li0 O1 2.057556 1_455
Li0 O11 2.057556 1_554
Li0 O6 2.122750 1_455
Li0 O0 2.122750 1_554
Li0 O10 2.185403 1_454
Li0 O2 2.185403 1_555
Li1 O3 2.078687 1_555
Li1 O7 2.143586 1_555
Li1 O11 2.158178 1_554
Li1 O1 2.171158 1_555
Li1 O6 2.205226 1_555
Li1 O2 2.244027 1_555
Li2 O6 2.055140 1_455
Li2 O2 2.069635 1_555
Li2 O7 2.092113 1_555
Li2 O3 2.100095 1_455
Li2 O4 2.150672 1_555
Li2 O8 2.181258 1_455
Li3 O7 2.149024 1_555
Li3 O5 2.149024 1_555
Li3 O8 2.180112 1_555
Li3 O4 2.180112 1_555
Li3 O9 2.257322 1_555
Li3 O3 2.257322 1_555
Li4 O0 2.055140 1_655
Li4 O10 2.069635 1_555
Li4 O5 2.092113 1_555
Li4 O9 2.100095 1_655
Li4 O8 2.150672 1_555
Li4 O4 2.181258 1_655
Li5 O9 2.078687 1_555
Li5 O5 2.143586 1_555
Li5 O1 2.158178 1_556
Li5 O11 2.171158 1_555
Li5 O0 2.205226 1_555
Li5 O10 2.244027 1_555
Li6 O0 2.069846 1_544
Li6 O6 2.069846 1_555
Li6 O2 2.084428 1_545
Li6 O10 2.084428 1_554
Li6 O1 2.110619 1_545
Li6 O11 2.110619 1_554
Mn0 O0 1.911741 1_655
Mn0 O11 1.936770 1_665
Mn0 O1 1.937495 1_556
Mn0 O9 1.961300 1_665
Mn0 O10 1.962009 1_565
Mn0 O5 1.965321 1_555
Mn1 O6 1.911741 1_455
Mn1 O1 1.936770 1_445
Mn1 O11 1.937495 1_554
Mn1 O3 1.961300 1_445
Mn1 O2 1.962009 1_545
Mn1 O7 1.965321 1_555
Co0 O2 1.896045 1_545
Co0 O6 1.990600 1_555
Co0 O8 1.999861 1_555
Co0 O3 2.062455 1_545
Co0 O7 2.069028 1_555
Co0 O4 2.124658 1_545
Co1 O4 1.981157 1_545
Co1 O8 1.981157 1_455
Co1 O3 2.058216 1_445
Co1 O9 2.058216 1_555
Co1 O5 2.073768 1_445
Co1 O7 2.073768 1_555
Co2 O10 1.896045 1_565
Co2 O0 1.990600 1_555
Co2 O4 1.999861 1_555
Co2 O9 2.062455 1_565
Co2 O5 2.069028 1_555
Co2 O8 2.124658 1_565
