# generated using pymatgen
data_Sc2InCu2
_symmetry_space_group_name_H-M   'P 1'
_cell_length_a   7.17460601
_cell_length_b   7.17460601
_cell_length_c   3.49079964
_cell_angle_alpha   90.00000000
_cell_angle_beta   90.00000000
_cell_angle_gamma   90.00000000
_symmetry_Int_Tables_number   1
_chemical_formula_structural   Sc2InCu2
_chemical_formula_sum   'Sc4 In2 Cu4'
_cell_volume   179.68881163
_cell_formula_units_Z   2
loop_
 _symmetry_equiv_pos_site_id
 _symmetry_equiv_pos_as_xyz
  1  'x, y, z'
loop_
 _atom_site_type_symbol
 _atom_site_label
 _atom_site_symmetry_multiplicity
 _atom_site_fract_x
 _atom_site_fract_y
 _atom_site_fract_z
 _atom_site_occupancy
  Sc  Sc0  1  0.16734804  0.33265196  -0.00000000  1
  Sc  Sc1  1  0.83265196  0.66734804  0.00000000  1
  Sc  Sc2  1  0.66734804  0.16734804  0.00000000  1
  Sc  Sc3  1  0.33265196  0.83265196  -0.00000000  1
  In  In0  1  0.00000000  -0.00000000  0.50000000  1
  In  In1  1  0.50000000  0.50000000  0.50000000  1
  Cu  Cu0  1  0.37628508  0.12371492  0.50000000  1
  Cu  Cu1  1  0.62371492  0.87628508  0.50000000  1
  Cu  Cu2  1  0.87628508  0.37628508  0.50000000  1
  Cu  Cu3  1  0.12371492  0.62371492  0.50000000  1
loop_
_geom_bond_atom_site_label_1
_geom_bond_atom_site_label_2
_geom_bond_distance
_geom_bond_site_symmetry_2
In0 Sc0 3.191250 1_555
In0 Sc2 3.191250 1_455
In0 Sc0 3.191250 1_556
In0 Sc3 3.191250 1_545
In0 Sc2 3.191250 1_456
In0 Sc1 3.191250 1_445
In0 Sc3 3.191250 1_546
In0 Sc1 3.191250 1_446
In1 Sc3 3.191250 1_555
In1 Sc3 3.191250 1_556
In1 Sc0 3.191250 1_555
In1 Sc2 3.191250 1_555
In1 Sc0 3.191250 1_556
In1 Sc1 3.191250 1_555
In1 Sc1 3.191250 1_556
In1 Sc2 3.191250 1_556
Cu0 Cu1 2.510528 1_545
Cu0 Sc2 2.739573 1_555
Cu0 Sc3 2.739573 1_545
Cu0 Sc2 2.739573 1_556
Cu0 Sc3 2.739573 1_546
Cu0 Sc0 2.746028 1_555
Cu0 Sc0 2.746028 1_556
Cu0 In1 2.841867 1_555
Cu0 In0 2.841867 1_555
Cu1 Sc2 2.739573 1_566
Cu1 Sc2 2.739573 1_565
Cu1 Sc3 2.739573 1_555
Cu1 Sc3 2.739573 1_556
Cu1 Sc1 2.746028 1_555
Cu1 Sc1 2.746028 1_556
Cu1 In0 2.841867 1_665
Cu1 In1 2.841867 1_555
Cu2 Cu3 2.510528 1_655
Cu2 Sc0 2.739573 1_655
Cu2 Sc0 2.739573 1_656
Cu2 Sc1 2.739573 1_555
Cu2 Sc1 2.739573 1_556
Cu2 Sc2 2.746028 1_555
Cu2 Sc2 2.746028 1_556
Cu2 In0 2.841867 1_655
Cu2 In1 2.841867 1_555
Cu3 Sc1 2.739573 1_456
Cu3 Sc1 2.739573 1_455
Cu3 Sc0 2.739573 1_555
Cu3 Sc0 2.739573 1_556
Cu3 Sc3 2.746028 1_555
Cu3 Sc3 2.746028 1_556
Cu3 In0 2.841867 1_565
Cu3 In1 2.841867 1_555
