# generated using pymatgen
data_Li9Mn2Co5O16
_symmetry_space_group_name_H-M   'P 1'
_cell_length_a   5.76092700
_cell_length_b   5.19842900
_cell_length_c   9.72024540
_cell_angle_alpha   81.88495756
_cell_angle_beta   90.00000000
_cell_angle_gamma   90.00000000
_symmetry_Int_Tables_number   1
_chemical_formula_structural   Li9Mn2Co5O16
_chemical_formula_sum   'Li9 Mn2 Co5 O16'
_cell_volume   288.18478510
_cell_formula_units_Z   1
loop_
 _symmetry_equiv_pos_site_id
 _symmetry_equiv_pos_as_xyz
  1  'x, y, z'
loop_
 _atom_site_type_symbol
 _atom_site_label
 _atom_site_symmetry_multiplicity
 _atom_site_fract_x
 _atom_site_fract_y
 _atom_site_fract_z
 _atom_site_occupancy
  Li  Li0  1  0.00000000  0.49764200  0.99143400  1
  Li  Li1  1  0.75510300  0.24764900  0.26112800  1
  Li  Li2  1  0.50000000  0.99458900  0.50904600  1
  Li  Li3  1  0.75174400  0.76046800  0.73598200  1
  Li  Li4  1  0.50000000  0.49221000  0.99587600  1
  Li  Li5  1  0.24489700  0.24764900  0.26112800  1
  Li  Li6  1  0.24825600  0.76046800  0.73598200  1
  Li  Li7  1  0.00000000  0.00547100  0.50592300  1
  Li  Li8  1  0.00000000  0.25270900  0.74702500  1
  Mn  Mn0  1  0.24906600  0.00319100  0.99690100  1
  Mn  Mn1  1  0.75093400  0.00319100  0.99690100  1
  Co  Co0  1  0.00000000  0.74984900  0.25088800  1
  Co  Co1  1  0.75395000  0.48937900  0.50719200  1
  Co  Co2  1  0.50000000  0.24440500  0.74979600  1
  Co  Co3  1  0.50000000  0.75137900  0.25720000  1
  Co  Co4  1  0.24605000  0.48937900  0.50719200  1
  O  O0  1  0.00000000  0.87579600  0.89027200  1
  O  O1  1  0.75852900  0.66601200  0.12688300  1
  O  O2  1  0.50000000  0.40079000  0.37570200  1
  O  O3  1  0.73245800  0.14824800  0.62831100  1
  O  O4  1  0.50000000  0.86500800  0.89565800  1
  O  O5  1  0.24147100  0.66601200  0.12688300  1
  O  O6  1  0.26754200  0.14824800  0.62831100  1
  O  O7  1  0.00000000  0.37660500  0.37995400  1
  O  O8  1  0.00000000  0.13188300  0.10349800  1
  O  O9  1  0.75859200  0.86115800  0.36356500  1
  O  O10  1  0.50000000  0.62197500  0.62115700  1
  O  O11  1  0.73558600  0.32714400  0.87868600  1
  O  O12  1  0.50000000  0.11004200  0.11536100  1
  O  O13  1  0.24140800  0.86115800  0.36356500  1
  O  O14  1  0.26441400  0.32714400  0.87868600  1
  O  O15  1  0.00000000  0.62314500  0.61391200  1
loop_
_geom_bond_atom_site_label_1
_geom_bond_atom_site_label_2
_geom_bond_distance
_geom_bond_site_symmetry_2
Li0 O8 2.053543 1_556
Li0 O0 2.070164 1_555
Li0 O14 2.140381 1_555
Li0 O11 2.140381 1_455
Li0 O5 2.181742 1_556
Li0 O1 2.181742 1_456
Li1 O7 1.998127 1_655
Li1 O2 2.069826 1_555
Li1 O9 2.112752 1_545
Li1 O8 2.227237 1_655
Li1 O12 2.228285 1_555
Li1 O1 2.373145 1_555
Li2 O6 2.009184 1_565
Li2 O3 2.009184 1_565
Li2 O10 2.084132 1_555
Li2 O9 2.230931 1_555
Li2 O13 2.230931 1_555
Li2 O2 2.316497 1_565
Li3 O10 2.023421 1_555
Li3 O15 2.049895 1_655
Li3 O3 2.139088 1_565
Li3 O0 2.215381 1_655
Li3 O4 2.246276 1_555
Li3 O11 2.474840 1_555
Li4 O11 2.037603 1_555
Li4 O14 2.037603 1_555
Li4 O4 2.042468 1_555
Li4 O12 2.155076 1_556
Li4 O1 2.231802 1_556
Li4 O5 2.231802 1_556
Li5 O7 1.998127 1_555
Li5 O2 2.069826 1_555
Li5 O13 2.112752 1_545
Li5 O8 2.227237 1_555
Li5 O12 2.228285 1_555
Li5 O5 2.373145 1_555
Li6 O10 2.023421 1_555
Li6 O15 2.049895 1_555
Li6 O6 2.139088 1_565
Li6 O0 2.215381 1_555
Li6 O4 2.246276 1_555
Li6 O14 2.474840 1_555
Li7 O15 2.112575 1_545
Li7 O7 2.134147 1_555
Li7 O6 2.142659 1_555
Li7 O3 2.142659 1_455
Li7 O13 2.169054 1_545
Li7 O9 2.169054 1_445
Li8 O6 2.044241 1_555
Li8 O3 2.044241 1_455
Li8 O14 2.060998 1_555
Li8 O11 2.060998 1_455
Li8 O15 2.163094 1_555
Li8 O0 2.237769 1_545
Mn0 O14 1.902075 1_555
Mn0 O0 1.940467 1_545
Mn0 O4 1.942639 1_545
Mn0 O8 1.943105 1_556
Mn0 O12 1.976046 1_556
Mn0 O5 2.011299 1_546
Mn1 O11 1.902075 1_555
Mn1 O0 1.940467 1_645
Mn1 O4 1.942639 1_545
Mn1 O8 1.943105 1_656
Mn1 O12 1.976046 1_556
Mn1 O1 2.011299 1_546
Co0 O9 1.909828 1_455
Co0 O13 1.909828 1_555
Co0 O5 1.930360 1_555
Co0 O1 1.930360 1_455
Co0 O7 2.156704 1_555
Co0 O8 2.278895 1_565
Co1 O15 1.942297 1_655
Co1 O3 1.989148 1_555
Co1 O10 2.014492 1_555
Co1 O7 2.021698 1_655
Co1 O2 2.037687 1_555
Co1 O9 2.218835 1_555
Co2 O3 1.898509 1_555
Co2 O6 1.898509 1_555
Co2 O11 1.936161 1_555
Co2 O14 1.936161 1_555
Co2 O10 2.173266 1_555
Co2 O4 2.260659 1_545
Co3 O13 1.944346 1_555
Co3 O9 1.944346 1_555
Co3 O2 2.013870 1_555
Co3 O5 2.044117 1_555
Co3 O1 2.044117 1_555
Co3 O12 2.156713 1_565
Co4 O15 1.942297 1_555
Co4 O6 1.989148 1_555
Co4 O10 2.014492 1_555
Co4 O7 2.021698 1_555
Co4 O2 2.037687 1_555
Co4 O13 2.218835 1_555
