# generated using pymatgen
data_InH6(ClO)3
_symmetry_space_group_name_H-M   'P 1'
_cell_length_a   10.73935200
_cell_length_b   12.28096900
_cell_length_c   14.54789205
_cell_angle_alpha   54.51668297
_cell_angle_beta   90.00000000
_cell_angle_gamma   90.00000000
_symmetry_Int_Tables_number   1
_chemical_formula_structural   InH6(ClO)3
_chemical_formula_sum   'In8 H48 Cl24 O24'
_cell_volume   1562.38113628
_cell_formula_units_Z   8
loop_
 _symmetry_equiv_pos_site_id
 _symmetry_equiv_pos_as_xyz
  1  'x, y, z'
loop_
 _atom_site_type_symbol
 _atom_site_label
 _atom_site_symmetry_multiplicity
 _atom_site_fract_x
 _atom_site_fract_y
 _atom_site_fract_z
 _atom_site_occupancy
  In  In0  1  0.73683900  0.58603800  0.25870400  1
  In  In1  1  0.76316100  0.58603800  0.75870400  1
  In  In2  1  0.26316100  0.41396200  0.74129600  1
  In  In3  1  0.23683900  0.41396200  0.24129600  1
  In  In4  1  0.77018100  0.08072800  0.78982300  1
  In  In5  1  0.72981900  0.08072800  0.28982300  1
  In  In6  1  0.22981900  0.91927200  0.21017700  1
  In  In7  1  0.27018100  0.91927200  0.71017700  1
  H  H0  1  0.81596300  0.32141000  0.35539500  1
  H  H1  1  0.68403700  0.32141000  0.85539500  1
  H  H2  1  0.18403700  0.67859000  0.64460500  1
  H  H3  1  0.31596300  0.67859000  0.14460500  1
  H  H4  1  0.92332900  0.38991100  0.38266400  1
  H  H5  1  0.57667100  0.38991100  0.88266400  1
  H  H6  1  0.07667100  0.61008900  0.61733600  1
  H  H7  1  0.42332900  0.61008900  0.11733600  1
  H  H8  1  0.89784800  0.77008700  0.08140000  1
  H  H9  1  0.60215200  0.77008700  0.58140000  1
  H  H10  1  0.10215200  0.22991300  0.91860000  1
  H  H11  1  0.39784800  0.22991300  0.41860000  1
  H  H12  1  0.96831100  0.63294400  0.15132900  1
  H  H13  1  0.53168900  0.63294400  0.65132900  1
  H  H14  1  0.03168900  0.36705600  0.84867100  1
  H  H15  1  0.46831100  0.36705600  0.34867100  1
  H  H16  1  0.92574900  0.66981600  0.34866500  1
  H  H17  1  0.57425100  0.66981600  0.84866500  1
  H  H18  1  0.07425100  0.33018400  0.65133500  1
  H  H19  1  0.42574900  0.33018400  0.15133500  1
  H  H20  1  0.82249300  0.59836500  0.44496200  1
  H  H21  1  0.67750700  0.59836500  0.94496200  1
  H  H22  1  0.17750700  0.40163500  0.55503800  1
  H  H23  1  0.32249300  0.40163500  0.05503800  1
  H  H24  1  0.61348400  0.91367900  0.97759000  1
  H  H25  1  0.88651600  0.91367900  0.47759000  1
  H  H26  1  0.38651600  0.08632100  0.02241000  1
  H  H27  1  0.11348400  0.08632100  0.52241000  1
  H  H28  1  0.55081900  0.92065900  0.87467300  1
  H  H29  1  0.94918100  0.92065900  0.37467300  1
  H  H30  1  0.44918100  0.07934100  0.12532700  1
  H  H31  1  0.05081900  0.07934100  0.62532700  1
  H  H32  1  0.54092300  0.23038100  0.72441200  1
  H  H33  1  0.95907700  0.23038100  0.22441200  1
  H  H34  1  0.45907700  0.76961900  0.27558800  1
  H  H35  1  0.04092300  0.76961900  0.77558800  1
  H  H36  1  0.63012200  0.31889600  0.61689800  1
  H  H37  1  0.86987800  0.31889600  0.11689800  1
  H  H38  1  0.36987800  0.68110400  0.38310200  1
  H  H39  1  0.13012200  0.68110400  0.88310200  1
  H  H40  1  0.72957700  0.95889100  0.67236900  1
  H  H41  1  0.77042300  0.95889100  0.17236900  1
  H  H42  1  0.27042300  0.04110900  0.32763100  1
  H  H43  1  0.22957700  0.04110900  0.82763100  1
  H  H44  1  0.61039900  0.05191700  0.64443700  1
  H  H45  1  0.88960100  0.05191700  0.14443700  1
  H  H46  1  0.38960100  0.94808300  0.35556300  1
  H  H47  1  0.11039900  0.94808300  0.85556300  1
  Cl  Cl0  1  0.64983200  0.53981200  0.12764000  1
  Cl  Cl1  1  0.85016800  0.53981200  0.62764000  1
  Cl  Cl2  1  0.35016800  0.46018800  0.87236000  1
  Cl  Cl3  1  0.14983200  0.46018800  0.37236000  1
  Cl  Cl4  1  0.58813500  0.46067200  0.41570100  1
  Cl  Cl5  1  0.91186500  0.46067200  0.91570100  1
  Cl  Cl6  1  0.41186500  0.53932800  0.58429900  1
  Cl  Cl7  1  0.08813500  0.53932800  0.08429900  1
  Cl  Cl8  1  0.64196100  0.81479600  0.16147500  1
  Cl  Cl9  1  0.85803900  0.81479600  0.66147500  1
  Cl  Cl10  1  0.35803900  0.18520400  0.83852500  1
  Cl  Cl11  1  0.14196100  0.18520400  0.33852500  1
  Cl  Cl12  1  0.91227300  0.22125600  0.62783500  1
  Cl  Cl13  1  0.58772700  0.22125600  0.12783500  1
  Cl  Cl14  1  0.08772700  0.77874400  0.37216500  1
  Cl  Cl15  1  0.41227300  0.77874400  0.87216500  1
  Cl  Cl16  1  0.89672700  0.87376800  0.89183900  1
  Cl  Cl17  1  0.60327300  0.87376800  0.39183900  1
  Cl  Cl18  1  0.10327300  0.12623200  0.10816100  1
  Cl  Cl19  1  0.39672700  0.12623200  0.60816100  1
  Cl  Cl20  1  0.80686200  0.14897300  0.91591400  1
  Cl  Cl21  1  0.69313800  0.14897300  0.41591400  1
  Cl  Cl22  1  0.19313800  0.85102700  0.08408600  1
  Cl  Cl23  1  0.30686200  0.85102700  0.58408600  1
  O  O0  1  0.86101600  0.40615600  0.32654800  1
  O  O1  1  0.63898400  0.40615600  0.82654800  1
  O  O2  1  0.13898400  0.59384400  0.67345200  1
  O  O3  1  0.36101600  0.59384400  0.17345200  1
  O  O4  1  0.90999200  0.68942200  0.15920000  1
  O  O5  1  0.59000800  0.68942200  0.65920000  1
  O  O6  1  0.09000800  0.31057800  0.84080000  1
  O  O7  1  0.40999200  0.31057800  0.34080000  1
  O  O8  1  0.85155400  0.61232900  0.37465300  1
  O  O9  1  0.64844600  0.61232900  0.87465300  1
  O  O10  1  0.14844600  0.38767100  0.62534700  1
  O  O11  1  0.35155400  0.38767100  0.12534700  1
  O  O12  1  0.59958600  0.97184600  0.89501800  1
  O  O13  1  0.90041400  0.97184600  0.39501800  1
  O  O14  1  0.40041400  0.02815400  0.10498200  1
  O  O15  1  0.09958600  0.02815400  0.60498200  1
  O  O16  1  0.62755900  0.24519600  0.69734300  1
  O  O17  1  0.87244100  0.24519600  0.19734300  1
  O  O18  1  0.37244100  0.75480400  0.30265700  1
  O  O19  1  0.12755900  0.75480400  0.80265700  1
  O  O20  1  0.67611200  0.99900400  0.70039000  1
  O  O21  1  0.82388800  0.99900400  0.20039000  1
  O  O22  1  0.32388800  0.00099600  0.29961000  1
  O  O23  1  0.17611200  0.00099600  0.79961000  1
loop_
_geom_bond_atom_site_label_1
_geom_bond_atom_site_label_2
_geom_bond_distance
_geom_bond_site_symmetry_2
In0 O4 2.243151 1_555
In0 O8 2.258232 1_555
In0 O0 2.258660 1_555
In1 O5 2.243151 1_555
In1 O9 2.258232 1_555
In1 O1 2.258660 1_555
In2 O6 2.243151 1_555
In2 O10 2.258232 1_555
In2 O2 2.258660 1_555
In3 O7 2.243151 1_555
In3 O11 2.258232 1_555
In3 O3 2.258660 1_555
In4 O16 2.254107 1_555
In4 O12 2.260726 1_545
In4 O20 2.288365 1_545
In5 O17 2.254107 1_555
In5 O13 2.260726 1_545
In5 O21 2.288365 1_545
In6 O18 2.254107 1_555
In6 O14 2.260726 1_565
In6 O22 2.288365 1_565
In7 O19 2.254107 1_555
In7 O15 2.260726 1_565
In7 O23 2.288365 1_565
H0 O0 0.993150 1_555
H1 O1 0.993150 1_555
H2 O2 0.993150 1_555
H3 O3 0.993150 1_555
H4 O0 0.982350 1_555
H5 O1 0.982350 1_555
H6 O2 0.982350 1_555
H7 O3 0.982350 1_555
H8 O4 0.988805 1_555
H9 O5 0.988805 1_555
H10 O6 0.988805 1_555
H11 O7 0.988805 1_555
H12 O4 0.989275 1_555
H13 O5 0.989275 1_555
H14 O6 0.989275 1_555
H15 O7 0.989275 1_555
H16 O8 0.983055 1_555
H17 O9 0.983055 1_555
H18 O10 0.983055 1_555
H19 O11 0.983055 1_555
H20 O8 0.984577 1_555
H21 O9 0.984577 1_555
H22 O10 0.984577 1_555
H23 O11 0.984577 1_555
H24 O12 0.989627 1_555
H25 O13 0.989627 1_555
H26 O14 0.989627 1_555
H27 O15 0.989627 1_555
H28 O12 0.986440 1_555
H29 O13 0.986440 1_555
H30 O14 0.986440 1_555
H31 O15 0.986440 1_555
H32 O16 0.985227 1_555
H33 O17 0.985227 1_555
H34 O18 0.985227 1_555
H35 O19 0.985227 1_555
H36 O16 0.979731 1_555
H37 O17 0.979731 1_555
H38 O18 0.979731 1_555
H39 O19 0.979731 1_555
H40 O20 0.985735 1_555
H41 O21 0.985735 1_555
H42 O22 0.985735 1_555
H43 O23 0.985735 1_555
H44 O20 0.984285 1_545
H45 O21 0.984285 1_545
H46 O22 0.984285 1_565
H47 O23 0.984285 1_565
Cl0 In0 2.467295 1_555
Cl1 In1 2.467295 1_555
Cl2 In2 2.467295 1_555
Cl3 In3 2.467295 1_555
Cl4 In0 2.460684 1_555
Cl5 In1 2.460684 1_555
Cl6 In2 2.460684 1_555
Cl7 In3 2.460684 1_555
Cl8 In0 2.513607 1_555
Cl9 In1 2.513607 1_555
Cl10 In2 2.513607 1_555
Cl11 In3 2.513607 1_555
Cl12 In4 2.477698 1_555
Cl13 In5 2.477698 1_555
Cl14 In6 2.477698 1_555
Cl15 In7 2.477698 1_555
Cl16 In4 2.475972 1_565
Cl17 In5 2.475972 1_565
Cl18 In6 2.475972 1_545
Cl19 In7 2.475972 1_545
Cl20 In4 2.450981 1_555
Cl21 In5 2.450981 1_555
Cl22 In6 2.450981 1_555
Cl23 In7 2.450981 1_555
