# generated using pymatgen
data_Sr5Ca3Fe7CoO20
_symmetry_space_group_name_H-M   'P 1'
_cell_length_a   11.02607325
_cell_length_b   11.41206734
_cell_length_c   17.38203775
_cell_angle_alpha   109.09420016
_cell_angle_beta   108.63772028
_cell_angle_gamma   90.00159361
_symmetry_Int_Tables_number   1
_chemical_formula_structural   Sr5Ca3Fe7CoO20
_chemical_formula_sum   'Sr20 Ca12 Fe28 Co4 O80'
_cell_volume   1945.06196723
_cell_formula_units_Z   4
loop_
 _symmetry_equiv_pos_site_id
 _symmetry_equiv_pos_as_xyz
  1  'x, y, z'
loop_
 _atom_site_type_symbol
 _atom_site_label
 _atom_site_symmetry_multiplicity
 _atom_site_fract_x
 _atom_site_fract_y
 _atom_site_fract_z
 _atom_site_occupancy
  Sr  Sr0  1  0.30649800  0.06395800  0.60914700  1
  Sr  Sr1  1  0.30512600  0.56272100  0.61004300  1
  Sr  Sr2  1  0.80649900  0.06596500  0.61080600  1
  Sr  Sr3  1  0.80884600  0.56322300  0.61212700  1
  Sr  Sr4  1  0.19295800  0.43430300  0.38495900  1
  Sr  Sr5  1  0.19555200  0.44008400  0.89544600  1
  Sr  Sr6  1  0.69323000  0.43432600  0.38541600  1
  Sr  Sr7  1  0.69334600  0.93302000  0.38587700  1
  Sr  Sr8  1  0.70274600  0.93620300  0.89632800  1
  Sr  Sr9  1  0.05747200  0.29652300  0.61132400  1
  Sr  Sr10  1  0.05674600  0.79782800  0.61137600  1
  Sr  Sr11  1  0.55709000  0.29735400  0.61144300  1
  Sr  Sr12  1  0.55770400  0.79661800  0.61118100  1
  Sr  Sr13  1  0.44286600  0.20297700  0.38522300  1
  Sr  Sr14  1  0.45083200  0.20576400  0.89463900  1
  Sr  Sr15  1  0.44296000  0.70153300  0.38499200  1
  Sr  Sr16  1  0.45201100  0.70930000  0.89521500  1
  Sr  Sr17  1  0.94317900  0.20229900  0.38492300  1
  Sr  Sr18  1  0.94822300  0.20819200  0.89530900  1
  Sr  Sr19  1  0.94370800  0.70206400  0.38471700  1
  Ca  Ca0  1  0.29959300  0.06427500  0.10366100  1
  Ca  Ca1  1  0.29301100  0.56766900  0.10364000  1
  Ca  Ca2  1  0.80259500  0.06301200  0.10376200  1
  Ca  Ca3  1  0.80611500  0.56937300  0.10254700  1
  Ca  Ca4  1  0.19413800  0.92973900  0.38939200  1
  Ca  Ca5  1  0.19936000  0.93813900  0.90018100  1
  Ca  Ca6  1  0.70713300  0.43781100  0.89983700  1
  Ca  Ca7  1  0.05091600  0.28432400  0.10471200  1
  Ca  Ca8  1  0.04628600  0.78799900  0.10476100  1
  Ca  Ca9  1  0.54892100  0.28188300  0.10487800  1
  Ca  Ca10  1  0.55470000  0.78936700  0.10437000  1
  Ca  Ca11  1  0.94585900  0.71644000  0.90100800  1
  Fe  Fe0  1  0.00194100  0.99810000  0.49556700  1
  Fe  Fe1  1  0.00124600  0.49926100  0.49748400  1
  Fe  Fe2  1  0.50109300  0.99858700  0.49636100  1
  Fe  Fe3  1  0.51012000  0.50294100  0.00607500  1
  Fe  Fe4  1  0.50334400  0.49993800  0.49944900  1
  Fe  Fe5  1  0.25574100  0.25221800  0.00507800  1
  Fe  Fe6  1  0.25113000  0.24720500  0.49574200  1
  Fe  Fe7  1  0.25512100  0.75478200  0.00486500  1
  Fe  Fe8  1  0.25291200  0.74960700  0.49944400  1
  Fe  Fe9  1  0.76108000  0.25390900  0.00769200  1
  Fe  Fe10  1  0.75107500  0.24850800  0.49602900  1
  Fe  Fe11  1  0.75247800  0.74867600  0.49828400  1
  Fe  Fe12  1  0.10214300  0.08287600  0.24294400  1
  Fe  Fe13  1  0.11190600  0.09036000  0.75510900  1
  Fe  Fe14  1  0.10027300  0.58735200  0.24040300  1
  Fe  Fe15  1  0.10816200  0.59876800  0.75626700  1
  Fe  Fe16  1  0.60206200  0.08453000  0.24429900  1
  Fe  Fe17  1  0.60984800  0.09479400  0.75347600  1
  Fe  Fe18  1  0.60170400  0.58576800  0.24163700  1
  Fe  Fe19  1  0.61297800  0.58983400  0.75386000  1
  Fe  Fe20  1  0.35171600  0.40780900  0.24241200  1
  Fe  Fe21  1  0.36165100  0.41145100  0.75374200  1
  Fe  Fe22  1  0.34952900  0.90686100  0.24494400  1
  Fe  Fe23  1  0.35781800  0.90926700  0.75316300  1
  Fe  Fe24  1  0.85137800  0.40693500  0.24219300  1
  Fe  Fe25  1  0.85960600  0.41764400  0.75945900  1
  Fe  Fe26  1  0.85533700  0.90673400  0.24408800  1
  Fe  Fe27  1  0.86403800  0.90982700  0.75570400  1
  Co  Co0  1  0.00997400  0.00187400  0.00450500  1
  Co  Co1  1  0.00684000  0.50326800  0.00338900  1
  Co  Co2  1  0.50938800  0.00121100  0.00595300  1
  Co  Co3  1  0.75988300  0.75084400  0.00281700  1
  O  O0  1  0.12292300  0.11784500  0.48683000  1
  O  O1  1  0.12649900  0.11920900  0.99180700  1
  O  O2  1  0.12175100  0.62153200  0.48903000  1
  O  O3  1  0.12102500  0.62589800  0.99153000  1
  O  O4  1  0.62287000  0.12221000  0.49123300  1
  O  O5  1  0.62810900  0.12418400  0.99605600  1
  O  O6  1  0.62292700  0.62199400  0.49078200  1
  O  O7  1  0.62896400  0.61578600  0.99057300  1
  O  O8  1  0.13602600  0.38250500  0.01813300  1
  O  O9  1  0.12999000  0.37635300  0.50570600  1
  O  O10  1  0.13745900  0.88438800  0.01477100  1
  O  O11  1  0.13128200  0.87700100  0.50367000  1
  O  O12  1  0.63879900  0.38009900  0.01815600  1
  O  O13  1  0.63073500  0.37674000  0.50606600  1
  O  O14  1  0.63741100  0.88155900  0.01811400  1
  O  O15  1  0.63124800  0.87732600  0.50732200  1
  O  O16  1  0.36805200  0.11435200  0.48557900  1
  O  O17  1  0.37489900  0.11504500  0.99177200  1
  O  O18  1  0.37185700  0.61949000  0.48985800  1
  O  O19  1  0.37676400  0.62140600  0.99467800  1
  O  O20  1  0.87413400  0.11994100  0.49192300  1
  O  O21  1  0.88003000  0.11985000  0.99404500  1
  O  O22  1  0.87271900  0.61944500  0.49002400  1
  O  O23  1  0.87753800  0.61453500  0.98738800  1
  O  O24  1  0.38763900  0.38596000  0.01842000  1
  O  O25  1  0.38005300  0.37824600  0.50558900  1
  O  O26  1  0.38928300  0.88693600  0.01832700  1
  O  O27  1  0.37858700  0.87869600  0.50394800  1
  O  O28  1  0.88756500  0.38873200  0.01671000  1
  O  O29  1  0.88092600  0.37922500  0.50641600  1
  O  O30  1  0.89556900  0.88821700  0.01897200  1
  O  O31  1  0.88134500  0.87945800  0.50612800  1
  O  O32  1  0.09106000  0.09900400  0.13670700  1
  O  O33  1  0.08616400  0.09269000  0.64224000  1
  O  O34  1  0.08420900  0.60194100  0.13347300  1
  O  O35  1  0.07756500  0.59561600  0.64140100  1
  O  O36  1  0.59942400  0.11265600  0.14595900  1
  O  O37  1  0.57891300  0.09520400  0.63971100  1
  O  O38  1  0.59655400  0.61080900  0.14028100  1
  O  O39  1  0.58270800  0.59059500  0.63940900  1
  O  O40  1  0.43701900  0.40834100  0.35618300  1
  O  O41  1  0.44857700  0.40309800  0.86323900  1
  O  O42  1  0.44151100  0.90583200  0.35742600  1
  O  O43  1  0.45182900  0.89795900  0.85817000  1
  O  O44  1  0.93538700  0.40765400  0.35659300  1
  O  O45  1  0.94553800  0.40758400  0.86899000  1
  O  O46  1  0.94162800  0.90845000  0.35861700  1
  O  O47  1  0.94996600  0.90400800  0.86733500  1
  O  O48  1  0.33998800  0.28004000  0.13956000  1
  O  O49  1  0.32982200  0.29564000  0.63991100  1
  O  O50  1  0.33589500  0.78335600  0.13990900  1
  O  O51  1  0.32607100  0.79553500  0.63818300  1
  O  O52  1  0.84895700  0.28115800  0.14093300  1
  O  O53  1  0.83468900  0.30262400  0.64660400  1
  O  O54  1  0.85134300  0.78147500  0.14410000  1
  O  O55  1  0.83369500  0.79488500  0.64233400  1
  O  O56  1  0.18612200  0.20352700  0.35418300  1
  O  O57  1  0.19439800  0.21202400  0.86435600  1
  O  O58  1  0.18534800  0.70635900  0.35243600  1
  O  O59  1  0.19865900  0.71958700  0.86424000  1
  O  O60  1  0.68691100  0.19959800  0.35874900  1
  O  O61  1  0.69361200  0.21574500  0.86328600  1
  O  O62  1  0.68608600  0.69896000  0.35625400  1
  O  O63  1  0.70578600  0.71053700  0.85840600  1
  O  O64  1  0.42278400  0.05659800  0.23891200  1
  O  O65  1  0.43585500  0.06065400  0.75180400  1
  O  O66  1  0.42330100  0.55847800  0.23675800  1
  O  O67  1  0.43809100  0.56261900  0.75266400  1
  O  O68  1  0.92517100  0.05891100  0.23895900  1
  O  O69  1  0.93737800  0.06126200  0.75311300  1
  O  O70  1  0.92463700  0.55784100  0.23820800  1
  O  O71  1  0.93656800  0.57320900  0.76307900  1
  O  O72  1  0.17462100  0.43277800  0.23822000  1
  O  O73  1  0.18782700  0.44676100  0.75430300  1
  O  O74  1  0.17402900  0.92896700  0.24728600  1
  O  O75  1  0.18624500  0.93901300  0.76133500  1
  O  O76  1  0.67367500  0.42977400  0.23744900  1
  O  O77  1  0.68419500  0.43654900  0.76005400  1
  O  O78  1  0.67683600  0.92930900  0.23954800  1
  O  O79  1  0.69063900  0.94459900  0.75390200  1
loop_
_geom_bond_atom_site_label_1
_geom_bond_atom_site_label_2
_geom_bond_distance
_geom_bond_site_symmetry_2
Ca0 O48 2.338345 1_555
Ca0 O64 2.339509 1_555
Ca0 O10 2.440621 1_545
Ca0 O1 2.498286 1_554
Ca0 O26 2.499521 1_545
Ca0 O32 2.543438 1_555
Ca0 O17 2.564564 1_554
Ca1 O66 2.337285 1_555
Ca1 O50 2.339627 1_555
Ca1 O8 2.443571 1_555
Ca1 O3 2.514039 1_554
Ca1 O34 2.520464 1_555
Ca1 O24 2.561508 1_555
Ca1 O19 2.587241 1_554
Ca2 O68 2.322333 1_555
Ca2 O52 2.369145 1_555
Ca2 O14 2.464020 1_545
Ca2 O30 2.498910 1_545
Ca2 O5 2.499327 1_554
Ca2 O21 2.576199 1_554
Ca2 O36 2.579877 1_555
Ca3 O54 2.292424 1_555
Ca3 O70 2.349253 1_555
Ca3 O28 2.475203 1_555
Ca3 O7 2.475613 1_554
Ca3 O12 2.533365 1_555
Ca3 O23 2.564196 1_554
Ca3 O38 2.599742 1_555
Ca3 O34 2.940220 1_655
Ca4 O74 2.405473 1_555
Ca4 O58 2.410276 1_555
Ca4 O11 2.539749 1_555
Ca4 O16 2.560700 1_565
Ca4 O0 2.562180 1_565
Ca4 O27 2.571171 1_555
Ca4 O46 2.657048 1_455
Ca4 O42 2.948261 1_555
Ca5 O59 2.364007 1_555
Ca5 O75 2.374514 1_555
Ca5 O1 2.473183 1_565
Ca5 O17 2.506795 1_565
Ca5 O10 2.545125 1_556
Ca5 O47 2.624930 1_455
Ca5 O26 2.642063 1_556
Ca6 O77 2.356270 1_555
Ca6 O61 2.394631 1_555
Ca6 O23 2.465322 1_555
Ca6 O7 2.475632 1_555
Ca6 O28 2.561219 1_556
Ca6 O12 2.666040 1_556
Ca6 O41 2.713834 1_555
Ca6 O45 2.845402 1_555
Ca7 O72 2.349582 1_555
Ca7 O32 2.364352 1_555
Ca7 O21 2.468712 1_454
Ca7 O52 2.503474 1_455
Ca7 O8 2.531131 1_555
Ca7 O28 2.536761 1_455
Ca7 O1 2.592815 1_554
Ca8 O34 2.343567 1_555
Ca8 O30 2.413566 1_455
Ca8 O74 2.423101 1_555
Ca8 O54 2.462927 1_455
Ca8 O23 2.544451 1_454
Ca8 O3 2.574822 1_554
Ca8 O10 2.607308 1_555
Ca9 O36 2.279860 1_555
Ca9 O76 2.340954 1_555
Ca9 O24 2.508246 1_555
Ca9 O17 2.512303 1_554
Ca9 O5 2.531342 1_554
Ca9 O48 2.562596 1_555
Ca9 O12 2.563357 1_555
Ca10 O38 2.324433 1_555
Ca10 O78 2.325369 1_555
Ca10 O14 2.468290 1_555
Ca10 O26 2.479784 1_555
Ca10 O19 2.525155 1_554
Ca10 O7 2.641765 1_554
Ca10 O50 2.680866 1_555
Ca11 O71 2.389426 1_555
Ca11 O47 2.400658 1_555
Ca11 O23 2.457557 1_555
Ca11 O63 2.504857 1_555
Ca11 O3 2.528849 1_655
Ca11 O30 2.540026 1_556
Ca11 O10 2.626183 1_656
Fe0 O20 1.980892 1_465
Fe0 O0 1.983706 1_565
Fe0 O31 1.988344 1_455
Fe0 O11 1.990636 1_555
Fe0 O46 2.133157 1_455
Fe0 O33 2.283333 1_565
Fe1 O22 1.976177 1_455
Fe1 O29 1.982758 1_455
Fe1 O2 1.998228 1_555
Fe1 O9 2.001123 1_555
Fe1 O44 2.192254 1_455
Fe1 O35 2.242747 1_555
Fe2 O16 1.979572 1_565
Fe2 O27 1.986386 1_555
Fe2 O4 1.989938 1_565
Fe2 O15 2.002164 1_555
Fe2 O42 2.167398 1_555
Fe2 O37 2.235301 1_565
Fe3 O7 1.975029 1_554
Fe3 O19 2.004536 1_554
Fe3 O24 2.006142 1_555
Fe3 O12 2.006167 1_555
Fe3 O38 2.136735 1_555
Fe3 O41 2.235005 1_554
Fe4 O13 1.991361 1_555
Fe4 O6 1.991374 1_555
Fe4 O25 1.994404 1_555
Fe4 O18 1.996376 1_555
Fe4 O39 2.178795 1_555
Fe4 O40 2.227497 1_555
Fe5 O1 1.987124 1_554
Fe5 O8 1.993836 1_555
Fe5 O24 2.012724 1_555
Fe5 O17 2.046389 1_554
Fe5 O48 2.134116 1_555
Fe5 O57 2.204414 1_554
Fe6 O0 1.977872 1_555
Fe6 O16 1.990555 1_555
Fe6 O25 1.990797 1_555
Fe6 O9 1.991802 1_555
Fe6 O56 2.210647 1_555
Fe6 O49 2.245473 1_555
Fe7 O10 1.968930 1_555
Fe7 O3 1.990220 1_554
Fe7 O26 2.016256 1_555
Fe7 O19 2.030431 1_554
Fe7 O50 2.138342 1_555
Fe7 O59 2.215573 1_554
Fe8 O11 1.977567 1_555
Fe8 O2 1.979892 1_555
Fe8 O18 1.982583 1_555
Fe8 O27 1.987870 1_555
Fe8 O51 2.161183 1_555
Fe8 O58 2.299187 1_555
Fe9 O12 1.977443 1_555
Fe9 O5 1.999153 1_554
Fe9 O28 2.009789 1_555
Fe9 O21 2.019539 1_554
Fe9 O52 2.119874 1_555
Fe9 O61 2.266010 1_554
Fe10 O13 1.978281 1_555
Fe10 O4 1.982062 1_555
Fe10 O29 1.991549 1_555
Fe10 O20 1.998093 1_555
Fe10 O60 2.134388 1_555
Fe10 O53 2.341322 1_555
Fe11 O6 1.976105 1_555
Fe11 O22 1.984081 1_555
Fe11 O15 1.987550 1_555
Fe11 O31 2.001998 1_555
Fe11 O62 2.209314 1_555
Fe11 O55 2.247752 1_555
Fe12 O32 1.880672 1_555
Fe12 O56 1.898851 1_555
Fe12 O74 1.941011 1_545
Fe12 O68 1.946375 1_455
Fe13 O57 1.879370 1_555
Fe13 O33 1.899606 1_555
Fe13 O75 1.931941 1_545
Fe13 O69 1.940202 1_455
Fe14 O34 1.872365 1_555
Fe14 O58 1.902281 1_555
Fe14 O72 1.939421 1_555
Fe14 O70 1.951802 1_455
Fe15 O59 1.878571 1_555
Fe15 O35 1.903686 1_555
Fe15 O73 1.939711 1_555
Fe15 O71 1.960752 1_455
Fe16 O36 1.831100 1_555
Fe16 O60 1.912714 1_555
Fe16 O78 1.942237 1_545
Fe16 O64 1.969766 1_555
Fe17 O61 1.884395 1_555
Fe17 O37 1.897809 1_555
Fe17 O79 1.932791 1_545
Fe17 O65 1.946802 1_555
Fe18 O38 1.858543 1_555
Fe18 O62 1.906538 1_555
Fe18 O76 1.938146 1_555
Fe18 O66 1.962056 1_555
Fe19 O63 1.849470 1_555
Fe19 O39 1.912083 1_555
Fe19 O77 1.938428 1_555
Fe19 O67 1.945615 1_555
Fe20 O48 1.867005 1_555
Fe20 O40 1.897039 1_555
Fe20 O66 1.936287 1_555
Fe20 O72 1.955011 1_555
Fe21 O41 1.871612 1_555
Fe21 O49 1.905282 1_555
Fe21 O67 1.928208 1_555
Fe21 O73 1.960926 1_555
Fe22 O50 1.866394 1_555
Fe22 O42 1.897107 1_555
Fe22 O64 1.937704 1_565
Fe22 O74 1.963027 1_555
Fe23 O43 1.835057 1_555
Fe23 O51 1.912375 1_555
Fe23 O65 1.940428 1_565
Fe23 O75 1.963282 1_555
Fe24 O52 1.864420 1_555
Fe24 O44 1.903748 1_555
Fe24 O70 1.933081 1_555
Fe24 O76 1.955676 1_555
Fe25 O45 1.877675 1_555
Fe25 O53 1.901949 1_555
Fe25 O71 1.941268 1_555
Fe25 O77 1.949031 1_555
Fe26 O54 1.841631 1_555
Fe26 O46 1.905929 1_555
Fe26 O68 1.939563 1_565
Fe26 O78 1.964772 1_555
Fe27 O47 1.891132 1_555
Fe27 O55 1.898225 1_555
Fe27 O69 1.927874 1_565
Fe27 O79 1.945185 1_555
Co0 O30 1.937235 1_445
Co0 O10 1.949785 1_545
Co0 O1 1.966468 1_554
Co0 O21 1.972893 1_454
Co0 O32 2.080590 1_555
Co0 O47 2.149288 1_444
Co1 O23 1.923545 1_454
Co1 O28 1.970846 1_455
Co1 O3 1.985097 1_554
Co1 O8 1.997950 1_555
Co1 O34 2.051750 1_555
Co1 O45 2.104395 1_454
Co2 O26 1.966261 1_545
Co2 O14 1.974849 1_545
Co2 O17 1.980732 1_554
Co2 O5 2.003595 1_554
Co2 O36 2.226258 1_555
Co2 O43 2.316776 1_544
Co3 O14 2.022277 1_555
Co3 O7 2.023248 1_554
Co3 O23 2.030807 1_554
Co3 O30 2.053818 1_555
Co3 O54 2.241757 1_555
Co3 O63 2.270647 1_554
O0 Sr17 2.620609 1_455
O0 Sr0 2.664660 1_555
O0 Sr9 2.733639 1_555
O1 Sr18 2.591455 1_455
O2 Sr19 2.607924 1_455
O2 Sr4 2.614054 1_555
O2 Sr1 2.677387 1_555
O2 Sr10 2.694275 1_555
O3 Sr5 2.553718 1_555
O4 Sr7 2.634742 1_545
O4 Sr13 2.637782 1_555
O4 Sr2 2.648476 1_555
O4 Sr11 2.668974 1_555
O5 Sr14 2.581957 1_555
O5 Sr8 2.600623 1_545
O6 Sr6 2.623597 1_555
O6 Sr15 2.627303 1_555
O6 Sr12 2.664909 1_555
O6 Sr3 2.694986 1_555
O7 Sr16 2.604492 1_555
O8 Sr18 2.683022 1_454
O8 Sr5 2.687324 1_554
O9 Sr1 2.603713 1_555
O9 Sr9 2.621473 1_555
O9 Sr17 2.665206 1_455
O9 Sr4 2.676555 1_555
O11 Sr0 2.611993 1_565
O11 Sr10 2.662103 1_555
O11 Sr19 2.665351 1_455
O12 Sr14 2.687792 1_554
O13 Sr11 2.621338 1_555
O13 Sr3 2.627420 1_555
O13 Sr13 2.669997 1_555
O13 Sr6 2.670208 1_555
O14 Sr16 2.658564 1_554
O14 Sr8 2.688385 1_554
O15 Sr12 2.605457 1_555
O15 Sr2 2.616972 1_565
O15 Sr7 2.670307 1_555
O15 Sr15 2.691366 1_555
O16 Sr13 2.611559 1_555
O16 Sr0 2.672931 1_555
O16 Sr11 2.754679 1_555
O17 Sr14 2.582721 1_555
O18 Sr15 2.616049 1_555
O18 Sr4 2.619491 1_555
O18 Sr12 2.679759 1_555
O18 Sr1 2.682004 1_555
O19 Sr5 2.590569 1_555
O19 Sr16 2.595150 1_555
O20 Sr17 2.640209 1_555
O20 Sr7 2.645820 1_545
O20 Sr2 2.650174 1_555
O20 Sr9 2.652670 1_655
O21 Sr18 2.546365 1_555
O21 Sr8 2.578184 1_545
O22 Sr6 2.621541 1_555
O22 Sr19 2.626221 1_555
O22 Sr10 2.676839 1_655
O22 Sr3 2.694163 1_555
O24 Sr5 2.721501 1_554
O24 Sr14 2.721603 1_554
O25 Sr11 2.619875 1_555
O25 Sr1 2.620906 1_555
O25 Sr13 2.654447 1_555
O25 Sr4 2.678503 1_555
O26 Sr16 2.697249 1_554
O27 Sr0 2.616332 1_565
O27 Sr12 2.653586 1_555
O27 Sr15 2.658930 1_555
O28 Sr18 2.683826 1_554
O29 Sr3 2.612721 1_555
O29 Sr9 2.619638 1_655
O29 Sr17 2.672921 1_555
O29 Sr6 2.680527 1_555
O30 Sr8 2.689160 1_554
O31 Sr10 2.609324 1_655
O31 Sr2 2.635917 1_565
O31 Sr7 2.665722 1_555
O31 Sr19 2.675308 1_555
O33 Sr9 2.551289 1_555
O33 Sr0 2.666520 1_555
O33 Sr2 2.951985 1_455
O35 Sr10 2.522251 1_555
O35 Sr1 2.733853 1_555
O35 Sr3 2.843884 1_455
O37 Sr11 2.507472 1_555
O37 Sr2 2.712374 1_555
O37 Sr0 2.878796 1_555
O39 Sr12 2.552053 1_555
O39 Sr3 2.682995 1_555
O39 Sr1 2.936735 1_555
O39 Sr11 3.219153 1_555
O40 Sr13 2.550437 1_555
O40 Sr6 2.703818 1_555
O40 Sr4 2.888434 1_555
O41 Sr14 2.483031 1_555
O41 Sr5 3.019717 1_555
O42 Sr15 2.528162 1_555
O42 Sr7 2.659519 1_555
O43 Sr16 2.440529 1_555
O43 Sr8 2.631028 1_555
O44 Sr17 2.543613 1_555
O44 Sr4 2.721766 1_655
O44 Sr6 2.868459 1_555
O45 Sr18 2.461778 1_555
O45 Sr5 2.650731 1_655
O46 Sr19 2.538931 1_555
O46 Sr7 2.922273 1_555
O47 Sr8 2.928525 1_555
O49 Sr0 2.515896 1_555
O49 Sr11 2.706202 1_555
O49 Sr9 2.883446 1_555
O51 Sr1 2.535582 1_555
O51 Sr12 2.741048 1_555
O51 Sr10 2.856548 1_555
O53 Sr2 2.560235 1_555
O53 Sr9 2.711054 1_655
O53 Sr11 2.919943 1_555
O53 Sr3 3.215863 1_555
O55 Sr3 2.517929 1_555
O55 Sr10 2.682710 1_655
O55 Sr12 2.916816 1_555
O56 Sr4 2.506061 1_555
O56 Sr13 2.707580 1_555
O56 Sr17 2.894979 1_455
O57 Sr5 2.478172 1_555
O57 Sr14 2.711096 1_555
O57 Sr18 2.933916 1_455
O58 Sr15 2.717431 1_555
O58 Sr19 2.896461 1_455
O59 Sr16 2.680900 1_555
O60 Sr6 2.561701 1_555
O60 Sr17 2.713165 1_555
O60 Sr13 2.869462 1_555
O61 Sr18 2.689078 1_555
O61 Sr14 2.906695 1_555
O62 Sr7 2.545618 1_555
O62 Sr19 2.721227 1_555
O62 Sr15 2.878017 1_555
O63 Sr8 2.443641 1_555
O63 Sr16 3.064207 1_555
O64 Sr13 2.483530 1_555
O65 Sr14 2.445764 1_555
O65 Sr0 2.446449 1_555
O66 Sr15 2.498416 1_555
O67 Sr1 2.444157 1_555
O67 Sr16 2.451229 1_555
O68 Sr17 2.473054 1_555
O69 Sr2 2.451386 1_555
O69 Sr18 2.456538 1_555
O70 Sr19 2.480710 1_555
O71 Sr3 2.514637 1_555
O72 Sr4 2.487609 1_555
O73 Sr5 2.453720 1_555
O73 Sr9 2.472029 1_555
O75 Sr10 2.510465 1_555
O76 Sr6 2.494462 1_555
O77 Sr11 2.482244 1_555
O78 Sr7 2.477475 1_555
O79 Sr12 2.467677 1_555
O79 Sr8 2.469782 1_555
