# generated using pymatgen
data_GaNi3As
_symmetry_space_group_name_H-M   'P 1'
_cell_length_a   3.95418631
_cell_length_b   3.95418631
_cell_length_c   4.88162200
_cell_angle_alpha   90.00000000
_cell_angle_beta   90.00000000
_cell_angle_gamma   119.99746190
_symmetry_Int_Tables_number   1
_chemical_formula_structural   GaNi3As
_chemical_formula_sum   'Ga1 Ni3 As1'
_cell_volume   66.10284345
_cell_formula_units_Z   1
loop_
 _symmetry_equiv_pos_site_id
 _symmetry_equiv_pos_as_xyz
  1  'x, y, z'
loop_
 _atom_site_type_symbol
 _atom_site_label
 _atom_site_symmetry_multiplicity
 _atom_site_fract_x
 _atom_site_fract_y
 _atom_site_fract_z
 _atom_site_occupancy
  Ga  Ga0  1  0.33333500  0.66666500  0.75000000  1
  Ni  Ni0  1  0.00000100  0.99999900  0.49475300  1
  Ni  Ni1  1  0.00000100  0.99999900  0.00524700  1
  Ni  Ni2  1  0.66667800  0.33332200  0.75000000  1
  As  As0  1  0.66668600  0.33331400  0.25000000  1
loop_
_geom_bond_atom_site_label_1
_geom_bond_atom_site_label_2
_geom_bond_distance
_geom_bond_site_symmetry_2
Ga0 Ni2 2.282976 1_565
Ga0 Ni2 2.282976 1_455
Ga0 Ni2 2.282988 1_555
Ga0 Ni0 2.600830 1_555
Ga0 Ni1 2.600830 1_556
Ga0 Ni0 2.600901 1_545
Ga0 Ni1 2.600901 1_546
Ga0 Ni1 2.600901 1_656
Ga0 Ni0 2.600901 1_655
Ni0 Ni1 2.389583 1_555
Ni0 Ni1 2.492039 1_556
Ni0 Ni2 2.600764 1_465
Ni0 Ni2 2.600934 1_455
Ni0 Ni2 2.600934 1_565
Ni1 Ni2 2.600764 1_464
Ni1 Ni2 2.600934 1_454
Ni1 Ni2 2.600934 1_564
As0 Ni2 2.440811 1_555
As0 Ni2 2.440811 1_554
As0 Ni0 2.576564 1_645
As0 Ni1 2.576564 1_645
As0 Ni0 2.576809 1_545
As0 Ni0 2.576809 1_655
As0 Ni1 2.576809 1_545
As0 Ni1 2.576809 1_655
