# generated using pymatgen
data_Cr(InS2)2
_symmetry_space_group_name_H-M   'P 1'
_cell_length_a   7.60644381
_cell_length_b   7.60644381
_cell_length_c   7.60644381
_cell_angle_alpha   60.00000000
_cell_angle_beta   60.00000000
_cell_angle_gamma   60.00000000
_symmetry_Int_Tables_number   1
_chemical_formula_structural   Cr(InS2)2
_chemical_formula_sum   'Cr2 In4 S8'
_cell_volume   311.19311990
_cell_formula_units_Z   2
loop_
 _symmetry_equiv_pos_site_id
 _symmetry_equiv_pos_as_xyz
  1  'x, y, z'
loop_
 _atom_site_type_symbol
 _atom_site_label
 _atom_site_symmetry_multiplicity
 _atom_site_fract_x
 _atom_site_fract_y
 _atom_site_fract_z
 _atom_site_occupancy
  Cr  Cr0  1  0.25000000  0.25000000  0.25000000  1
  Cr  Cr1  1  0.00000000  0.00000000  0.00000000  1
  In  In0  1  0.12500000  0.62500000  0.62500000  1
  In  In1  1  0.62500000  0.12500000  0.62500000  1
  In  In2  1  0.62500000  0.62500000  0.12500000  1
  In  In3  1  0.62500000  0.62500000  0.62500000  1
  S  S0  1  0.86576900  0.37807700  0.37807700  1
  S  S1  1  0.37807700  0.86576900  0.37807700  1
  S  S2  1  0.37807700  0.37807700  0.86576900  1
  S  S3  1  0.37807700  0.37807700  0.37807700  1
  S  S4  1  0.38423100  0.87192300  0.87192300  1
  S  S5  1  0.87192300  0.38423100  0.87192300  1
  S  S6  1  0.87192300  0.87192300  0.38423100  1
  S  S7  1  0.87192300  0.87192300  0.87192300  1
loop_
_geom_bond_atom_site_label_1
_geom_bond_atom_site_label_2
_geom_bond_distance
_geom_bond_site_symmetry_2
Cr0 S3 2.386319 1_555
Cr0 S1 2.386319 1_545
Cr0 S0 2.386319 1_455
Cr0 S2 2.386319 1_554
Cr1 S4 2.386319 1_544
Cr1 S5 2.386319 1_454
Cr1 S7 2.386319 1_444
Cr1 S6 2.386319 1_445
In0 S6 2.656597 1_455
In0 S7 2.656597 1_455
In0 S1 2.656597 1_555
In0 S3 2.656597 1_555
In0 S5 2.656597 1_455
In0 S2 2.656597 1_555
In1 S7 2.656597 1_545
In1 S4 2.656597 1_545
In1 S0 2.656597 1_555
In1 S6 2.656597 1_545
In1 S3 2.656597 1_555
In1 S2 2.656597 1_555
In2 S5 2.656597 1_554
In2 S0 2.656597 1_555
In2 S7 2.656597 1_554
In2 S4 2.656597 1_554
In2 S1 2.656597 1_555
In2 S3 2.656597 1_555
In3 S5 2.656597 1_555
In3 S6 2.656597 1_555
In3 S0 2.656597 1_555
In3 S4 2.656597 1_555
In3 S1 2.656597 1_555
In3 S2 2.656597 1_555
