# generated using pymatgen
data_CaMnO2
_symmetry_space_group_name_H-M   'P 1'
_cell_length_a   5.66989637
_cell_length_b   5.73892988
_cell_length_c   6.61823472
_cell_angle_alpha   89.98028623
_cell_angle_beta   73.05454296
_cell_angle_gamma   99.75316747
_symmetry_Int_Tables_number   1
_chemical_formula_structural   CaMnO2
_chemical_formula_sum   'Ca4 Mn4 O8'
_cell_volume   202.74171971
_cell_formula_units_Z   4
loop_
 _symmetry_equiv_pos_site_id
 _symmetry_equiv_pos_as_xyz
  1  'x, y, z'
loop_
 _atom_site_type_symbol
 _atom_site_label
 _atom_site_symmetry_multiplicity
 _atom_site_fract_x
 _atom_site_fract_y
 _atom_site_fract_z
 _atom_site_occupancy
  Ca  Ca0  1  0.50000200  0.25001100  0.62500500  1
  Ca  Ca1  1  0.50000000  0.75001800  0.87499300  1
  Ca  Ca2  1  0.50000900  0.24999800  0.12499900  1
  Ca  Ca3  1  0.49998400  0.75000000  0.37500500  1
  Mn  Mn0  1  0.00000300  0.49999100  0.25087000  1
  Mn  Mn1  1  0.00000000  0.99999300  0.99914600  1
  Mn  Mn2  1  0.99999600  0.99998800  0.49913300  1
  Mn  Mn3  1  0.00001500  0.49998700  0.75085600  1
  O  O0  1  0.76185500  0.12715900  0.30948400  1
  O  O1  1  0.76186700  0.62716500  0.55985800  1
  O  O2  1  0.76186100  0.12715900  0.80948400  1
  O  O3  1  0.76187200  0.62716600  0.05985400  1
  O  O4  1  0.23814400  0.37284500  0.44051100  1
  O  O5  1  0.23812900  0.87284200  0.69015100  1
  O  O6  1  0.23814200  0.37285500  0.94051000  1
  O  O7  1  0.23813000  0.87284600  0.19015000  1
loop_
_geom_bond_atom_site_label_1
_geom_bond_atom_site_label_2
_geom_bond_distance
_geom_bond_site_symmetry_2
Ca0 O2 2.367035 1_555
Ca0 O4 2.367058 1_555
Ca0 O6 2.368538 1_555
Ca0 O0 2.368613 1_555
Ca0 O1 2.369100 1_555
Ca0 O5 2.369189 1_545
Ca1 O1 2.366864 1_555
Ca1 O7 2.366915 1_556
Ca1 O5 2.368705 1_555
Ca1 O3 2.368863 1_556
Ca1 O2 2.369029 1_565
Ca1 O6 2.369124 1_555
Ca2 O0 2.366972 1_555
Ca2 O6 2.367131 1_554
Ca2 O2 2.368553 1_554
Ca2 O4 2.368589 1_555
Ca2 O7 2.369124 1_545
Ca2 O3 2.369160 1_555
Ca3 O5 2.366861 1_555
Ca3 O3 2.366944 1_555
Ca3 O7 2.368737 1_555
Ca3 O1 2.368838 1_555
Ca3 O4 2.369044 1_555
Ca3 O0 2.369136 1_565
Mn0 O4 2.291692 1_555
Mn0 O1 2.294113 1_455
Mn0 O0 2.295014 1_455
Mn0 O7 2.295083 1_555
Mn0 O3 2.298270 1_455
Mn0 O6 2.300575 1_554
Mn1 O2 2.291831 1_465
Mn1 O5 2.294076 1_555
Mn1 O3 2.294951 1_456
Mn1 O6 2.295144 1_565
Mn1 O7 2.298141 1_556
Mn1 O0 2.300555 1_466
Mn2 O0 2.291790 1_565
Mn2 O7 2.294009 1_655
Mn2 O1 2.294934 1_555
Mn2 O4 2.295134 1_665
Mn2 O5 2.298220 1_655
Mn2 O2 2.300607 1_565
Mn3 O6 2.291657 1_555
Mn3 O3 2.294188 1_456
Mn3 O2 2.295008 1_455
Mn3 O5 2.295054 1_555
Mn3 O1 2.298269 1_455
Mn3 O4 2.300496 1_555
