# generated using pymatgen
data_Li6Mn3CoO10
_symmetry_space_group_name_H-M   'P 1'
_cell_length_a   2.99057100
_cell_length_b   6.02013436
_cell_length_c   10.35546853
_cell_angle_alpha   97.39219662
_cell_angle_beta   96.80851108
_cell_angle_gamma   94.03255943
_symmetry_Int_Tables_number   1
_chemical_formula_structural   Li6Mn3CoO10
_chemical_formula_sum   'Li6 Mn3 Co1 O10'
_cell_volume   182.88816702
_cell_formula_units_Z   1
loop_
 _symmetry_equiv_pos_site_id
 _symmetry_equiv_pos_as_xyz
  1  'x, y, z'
loop_
 _atom_site_type_symbol
 _atom_site_label
 _atom_site_symmetry_multiplicity
 _atom_site_fract_x
 _atom_site_fract_y
 _atom_site_fract_z
 _atom_site_occupancy
  Li  Li0  1  0.99663000  0.49747700  0.99503100  1
  Li  Li1  1  0.59810500  0.30343100  0.20007100  1
  Li  Li2  1  0.39329600  0.68939800  0.78932600  1
  Li  Li3  1  0.80859100  0.88951700  0.60674000  1
  Li  Li4  1  0.20657100  0.10921300  0.40858000  1
  Li  Li5  1  0.79368500  0.41295500  0.60560300  1
  Mn  Mn0  1  0.99587600  0.00302000  0.99614400  1
  Mn  Mn1  1  0.20864700  0.59386300  0.40848400  1
  Mn  Mn2  1  0.60754900  0.79620400  0.19874200  1
  Co  Co0  1  0.38670000  0.20848900  0.78904300  1
  O  O0  1  0.46169100  0.24033400  0.98378400  1
  O  O1  1  0.06429900  0.04252200  0.19415400  1
  O  O2  1  0.86885100  0.42894100  0.79971300  1
  O  O3  1  0.28916300  0.64813600  0.58680100  1
  O  O4  1  0.72505100  0.81877000  0.39497900  1
  O  O5  1  0.53425100  0.76049700  0.00657500  1
  O  O6  1  0.14220900  0.55930800  0.20977600  1
  O  O7  1  0.92803900  0.96485600  0.80562500  1
  O  O8  1  0.31121000  0.15206700  0.61883600  1
  O  O9  1  0.67958700  0.38100200  0.40199100  1
loop_
_geom_bond_atom_site_label_1
_geom_bond_atom_site_label_2
_geom_bond_distance
_geom_bond_site_symmetry_2
Li0 O2 1.996756 1_555
Li0 O0 2.128466 1_555
Li0 O0 2.153862 1_655
Li0 O5 2.157350 1_656
Li0 O5 2.175317 1_556
Li0 O6 2.192709 1_656
Li1 O9 2.064355 1_555
Li1 O6 2.128342 1_555
Li1 O6 2.144656 1_655
Li1 O1 2.149115 1_555
Li1 O1 2.172123 1_655
Li1 O0 2.206773 1_554
Li2 O3 2.063326 1_555
Li2 O2 2.160443 1_455
Li2 O2 2.193972 1_555
Li2 O7 2.197003 1_555
Li2 O5 2.219032 1_556
Li2 O7 2.241106 1_455
Li3 O3 2.023991 1_555
Li3 O7 2.034074 1_555
Li3 O8 2.084123 1_665
Li3 O3 2.122887 1_655
Li3 O4 2.160408 1_555
Li3 O8 2.247300 1_565
Li4 O9 2.099753 1_555
Li4 O8 2.141885 1_555
Li4 O4 2.164527 1_445
Li4 O1 2.189824 1_555
Li4 O9 2.351905 1_455
Li4 O4 2.418893 1_545
Li5 O2 1.985029 1_555
Li5 O3 2.020484 1_655
Li5 O9 2.077260 1_555
Li5 O8 2.085888 1_555
Li5 O3 2.149580 1_555
Li5 O8 2.286447 1_655
Mn0 O7 1.941195 1_545
Mn0 O0 1.951274 1_655
Mn0 O5 1.960006 1_546
Mn0 O1 2.017700 1_656
Mn0 O0 2.220156 1_555
Mn0 O5 2.250678 1_646
Mn1 O3 1.817351 1_555
Mn1 O9 1.953820 1_455
Mn1 O9 1.970860 1_555
Mn1 O4 2.010878 1_555
Mn1 O6 2.025843 1_555
Mn1 O4 2.054397 1_455
Mn2 O6 1.945272 1_555
Mn2 O1 1.953353 1_665
Mn2 O5 1.958098 1_555
Mn2 O4 2.006093 1_555
Mn2 O6 2.218758 1_655
Mn2 O1 2.275792 1_565
Co0 O8 1.736035 1_555
Co0 O2 1.872960 1_555
Co0 O7 1.974804 1_445
Co0 O0 1.985220 1_555
Co0 O2 2.112773 1_455
Co0 O7 2.265930 1_545
