# generated using pymatgen
data_Cu3SnAu
_symmetry_space_group_name_H-M   'P 1'
_cell_length_a   6.85832700
_cell_length_b   6.85832700
_cell_length_c   6.85832700
_cell_angle_alpha   90.00000000
_cell_angle_beta   90.00000000
_cell_angle_gamma   90.00000000
_symmetry_Int_Tables_number   1
_chemical_formula_structural   Cu3SnAu
_chemical_formula_sum   'Cu12 Sn4 Au4'
_cell_volume   322.59272146
_cell_formula_units_Z   4
loop_
 _symmetry_equiv_pos_site_id
 _symmetry_equiv_pos_as_xyz
  1  'x, y, z'
loop_
 _atom_site_type_symbol
 _atom_site_label
 _atom_site_symmetry_multiplicity
 _atom_site_fract_x
 _atom_site_fract_y
 _atom_site_fract_z
 _atom_site_occupancy
  Cu  Cu0  1  0.08231100  0.86945700  0.66367100  1
  Cu  Cu1  1  0.33632900  0.58231100  0.63054300  1
  Cu  Cu2  1  0.36945700  0.83632900  0.91768900  1
  Cu  Cu3  1  0.58231100  0.63054300  0.33632900  1
  Cu  Cu4  1  0.83632900  0.91768900  0.36945700  1
  Cu  Cu5  1  0.86945700  0.66367100  0.08231100  1
  Cu  Cu6  1  0.91768900  0.36945700  0.83632900  1
  Cu  Cu7  1  0.66367100  0.08231100  0.86945700  1
  Cu  Cu8  1  0.63054300  0.33632900  0.58231100  1
  Cu  Cu9  1  0.41768900  0.13054300  0.16367100  1
  Cu  Cu10  1  0.16367100  0.41768900  0.13054300  1
  Cu  Cu11  1  0.13054300  0.16367100  0.41768900  1
  Sn  Sn0  1  0.77956300  0.27956300  0.22043700  1
  Sn  Sn1  1  0.27956300  0.22043700  0.77956300  1
  Sn  Sn2  1  0.22043700  0.77956300  0.27956300  1
  Sn  Sn3  1  0.72043700  0.72043700  0.72043700  1
  Au  Au0  1  0.48070300  0.98070300  0.51929700  1
  Au  Au1  1  0.98070300  0.51929700  0.48070300  1
  Au  Au2  1  0.51929700  0.48070300  0.98070300  1
  Au  Au3  1  0.01929700  0.01929700  0.01929700  1
loop_
_geom_bond_atom_site_label_1
_geom_bond_atom_site_label_2
_geom_bond_distance
_geom_bond_site_symmetry_2
Cu0 Cu1 2.639123 1_555
Cu0 Cu2 2.639123 1_555
Cu0 Cu11 2.650860 1_565
Cu0 Cu4 2.650860 1_455
Cu0 Sn3 2.712138 1_455
Cu0 Sn2 2.866573 1_555
Cu0 Sn1 2.873355 1_565
Cu1 Cu2 2.639123 1_555
Cu1 Cu8 2.650860 1_555
Cu1 Cu3 2.650860 1_555
Cu1 Sn1 2.712138 1_555
Cu1 Sn3 2.866573 1_555
Cu1 Sn2 2.873355 1_555
Cu2 Cu9 2.650860 1_566
Cu2 Cu7 2.650860 1_565
Cu2 Sn2 2.712138 1_556
Cu2 Sn1 2.866573 1_565
Cu2 Sn3 2.873355 1_555
Cu3 Cu5 2.639123 1_555
Cu3 Cu4 2.639123 1_555
Cu3 Cu8 2.650860 1_555
Cu3 Sn2 2.712138 1_555
Cu3 Sn3 2.866573 1_555
Cu3 Sn0 2.873355 1_555
Cu4 Cu5 2.639123 1_555
Cu4 Sn0 2.712138 1_565
Cu4 Sn2 2.866573 1_655
Cu4 Sn3 2.873355 1_555
Cu5 Cu6 2.650860 1_554
Cu5 Sn3 2.712138 1_554
Cu5 Sn0 2.866573 1_555
Cu5 Sn2 2.873355 1_655
Cu6 Cu7 2.639123 1_555
Cu6 Cu8 2.639123 1_555
Cu6 Sn1 2.712138 1_655
Cu6 Sn0 2.866573 1_556
Cu6 Sn3 2.873355 1_555
Cu7 Cu8 2.639123 1_555
Cu7 Cu9 2.650860 1_556
Cu7 Sn3 2.712138 1_545
Cu7 Sn1 2.866573 1_555
Cu7 Sn0 2.873355 1_556
Cu8 Sn0 2.712138 1_555
Cu8 Sn3 2.866573 1_555
Cu8 Sn1 2.873355 1_555
Cu9 Sn0 2.712138 1_555
Cu9 Sn1 2.866573 1_554
Cu9 Sn2 2.873355 1_545
Cu10 Cu9 2.639123 1_555
Cu10 Cu11 2.639123 1_555
Cu10 Cu6 2.650860 1_454
Cu10 Cu5 2.650860 1_455
Cu10 Sn2 2.712138 1_555
Cu10 Sn0 2.866573 1_455
Cu10 Sn1 2.873355 1_554
Cu11 Cu9 2.639123 1_555
Cu11 Cu4 2.650860 1_445
Cu11 Sn1 2.712138 1_555
Cu11 Sn2 2.866573 1_545
Cu11 Sn0 2.873355 1_455
Au0 Cu4 2.681708 1_555
Au0 Cu8 2.681708 1_565
Au0 Cu9 2.681708 1_565
Au0 Sn1 2.791500 1_565
Au0 Sn2 2.791500 1_555
Au0 Sn3 2.791500 1_555
Au0 Cu7 2.797773 1_565
Au0 Cu11 2.797773 1_565
Au0 Cu3 2.797773 1_555
Au0 Cu2 3.004665 1_555
Au0 Cu1 3.004665 1_555
Au0 Cu0 3.004665 1_555
Au1 Cu1 2.681708 1_655
Au1 Cu6 2.681708 1_555
Au1 Cu11 2.681708 1_655
Au1 Sn0 2.791500 1_555
Au1 Sn2 2.791500 1_655
Au1 Sn3 2.791500 1_555
Au1 Cu0 2.797773 1_655
Au1 Cu10 2.797773 1_655
Au1 Cu8 2.797773 1_555
Au1 Cu3 3.004665 1_555
Au1 Cu4 3.004665 1_555
Au1 Cu5 3.004665 1_555
Au2 Cu2 2.681708 1_555
Au2 Cu3 2.681708 1_556
Au2 Cu10 2.681708 1_556
Au2 Sn3 2.791500 1_555
Au2 Sn1 2.791500 1_555
Au2 Sn0 2.791500 1_556
Au2 Cu5 2.797773 1_556
Au2 Cu9 2.797773 1_556
Au2 Cu1 2.797773 1_555
Au2 Cu6 3.004665 1_555
Au2 Cu8 3.004665 1_555
Au2 Cu7 3.004665 1_555
Au3 Cu0 2.681708 1_544
Au3 Cu7 2.681708 1_454
Au3 Cu5 2.681708 1_445
Au3 Sn2 2.791500 1_545
Au3 Sn0 2.791500 1_455
Au3 Sn1 2.791500 1_554
Au3 Cu4 2.797773 1_445
Au3 Cu2 2.797773 1_544
Au3 Cu6 2.797773 1_454
Au3 Cu9 3.004665 1_555
Au3 Cu11 3.004665 1_555
Au3 Cu10 3.004665 1_555
