# generated using pymatgen
data_Ba3V2H12(C5O14)2
_symmetry_space_group_name_H-M   'P 1'
_cell_length_a   9.34804833
_cell_length_b   9.34804833
_cell_length_c   18.29047170
_cell_angle_alpha   85.19044399
_cell_angle_beta   85.19044399
_cell_angle_gamma   111.67507619
_symmetry_Int_Tables_number   1
_chemical_formula_structural   Ba3V2H12(C5O14)2
_chemical_formula_sum   'Ba6 V4 H24 C20 O56'
_cell_volume   1468.66871106
_cell_formula_units_Z   2
loop_
 _symmetry_equiv_pos_site_id
 _symmetry_equiv_pos_as_xyz
  1  'x, y, z'
loop_
 _atom_site_type_symbol
 _atom_site_label
 _atom_site_symmetry_multiplicity
 _atom_site_fract_x
 _atom_site_fract_y
 _atom_site_fract_z
 _atom_site_occupancy
  Ba  Ba0  1  0.21718200  0.78281800  0.25000000  1
  Ba  Ba1  1  0.78281800  0.21718200  0.75000000  1
  Ba  Ba2  1  0.85075500  0.78174900  0.44745400  1
  Ba  Ba3  1  0.21825100  0.14924500  0.05254600  1
  Ba  Ba4  1  0.14924500  0.21825100  0.55254600  1
  Ba  Ba5  1  0.78174900  0.85075500  0.94745400  1
  V  V0  1  0.20594800  0.40514900  0.34360000  1
  V  V1  1  0.59485100  0.79405200  0.15640000  1
  V  V2  1  0.79405200  0.59485100  0.65640000  1
  V  V3  1  0.40514900  0.20594800  0.84360000  1
  H  H0  1  0.80563800  0.12287400  0.45983500  1
  H  H1  1  0.87712600  0.19436200  0.04016500  1
  H  H2  1  0.19436200  0.87712600  0.54016500  1
  H  H3  1  0.12287400  0.80563800  0.95983500  1
  H  H4  1  0.73893500  0.04019600  0.53982500  1
  H  H5  1  0.95980400  0.26106500  0.96017500  1
  H  H6  1  0.26106500  0.95980400  0.46017500  1
  H  H7  1  0.04019600  0.73893500  0.03982500  1
  H  H8  1  0.09436600  0.52783800  0.11370100  1
  H  H9  1  0.47216200  0.90563400  0.38629900  1
  H  H10  1  0.90563400  0.47216200  0.88629900  1
  H  H11  1  0.52783800  0.09436600  0.61370100  1
  H  H12  1  0.92135700  0.50256100  0.12552600  1
  H  H13  1  0.49743900  0.07864300  0.37447400  1
  H  H14  1  0.07864300  0.49743900  0.87447400  1
  H  H15  1  0.50256100  0.92135700  0.62552600  1
  H  H16  1  0.69393000  0.33031900  0.41196500  1
  H  H17  1  0.66968100  0.30607000  0.08803500  1
  H  H18  1  0.30607000  0.66968100  0.58803500  1
  H  H19  1  0.33031900  0.69393000  0.91196500  1
  H  H20  1  0.80792100  0.31194300  0.35025400  1
  H  H21  1  0.68805700  0.19207900  0.14974600  1
  H  H22  1  0.19207900  0.68805700  0.64974600  1
  H  H23  1  0.31194300  0.80792100  0.85025400  1
  C  C0  1  0.48544600  0.64176900  0.37910000  1
  C  C1  1  0.35823100  0.51455400  0.12090000  1
  C  C2  1  0.51455400  0.35823100  0.62090000  1
  C  C3  1  0.64176900  0.48544600  0.87910000  1
  C  C4  1  0.49944900  0.48867600  0.41082500  1
  C  C5  1  0.51132400  0.50055100  0.08917500  1
  C  C6  1  0.50055100  0.51132400  0.58917500  1
  C  C7  1  0.48867600  0.49944900  0.91082500  1
  C  C8  1  0.90731600  0.85459100  0.17095400  1
  C  C9  1  0.14540900  0.09268400  0.32904600  1
  C  C10  1  0.09268400  0.14540900  0.82904600  1
  C  C11  1  0.85459100  0.90731600  0.67095400  1
  C  C12  1  0.81290900  0.72545900  0.23501400  1
  C  C13  1  0.27454100  0.18709100  0.26498600  1
  C  C14  1  0.18709100  0.27454100  0.76498600  1
  C  C15  1  0.72545900  0.81290900  0.73501400  1
  C  C16  1  0.04303600  0.51709300  0.45987600  1
  C  C17  1  0.48290700  0.95696400  0.04012400  1
  C  C18  1  0.95696400  0.48290700  0.54012400  1
  C  C19  1  0.51709300  0.04303600  0.95987600  1
  O  O0  1  0.36877800  0.62322000  0.34282000  1
  O  O1  1  0.37678000  0.63122200  0.15718000  1
  O  O2  1  0.63122200  0.37678000  0.65718000  1
  O  O3  1  0.62322000  0.36877800  0.84282000  1
  O  O4  1  0.57890300  0.77046700  0.39194700  1
  O  O5  1  0.22953300  0.42109700  0.10805300  1
  O  O6  1  0.42109700  0.22953300  0.60805300  1
  O  O7  1  0.77046700  0.57890300  0.89194700  1
  O  O8  1  0.37531700  0.36810200  0.41268300  1
  O  O9  1  0.63189800  0.62468300  0.08731700  1
  O  O10  1  0.62468300  0.63189800  0.58731700  1
  O  O11  1  0.36810200  0.37531700  0.91268300  1
  O  O12  1  0.62416200  0.49235100  0.43300800  1
  O  O13  1  0.50764900  0.37583800  0.06699200  1
  O  O14  1  0.37583800  0.50764900  0.56699200  1
  O  O15  1  0.49235100  0.62416200  0.93300800  1
  O  O16  1  0.05159900  0.90873700  0.16388800  1
  O  O17  1  0.09126300  0.94840100  0.33611200  1
  O  O18  1  0.94840100  0.09126300  0.83611200  1
  O  O19  1  0.90873700  0.05159900  0.66388800  1
  O  O20  1  0.82632600  0.90201200  0.12800600  1
  O  O21  1  0.09798800  0.17367400  0.37199400  1
  O  O22  1  0.17367400  0.09798800  0.87199400  1
  O  O23  1  0.90201200  0.82632600  0.62800600  1
  O  O24  1  0.88141100  0.68281700  0.28222000  1
  O  O25  1  0.31718300  0.11858900  0.21778000  1
  O  O26  1  0.11858900  0.31718300  0.71778000  1
  O  O27  1  0.68281700  0.88141100  0.78222000  1
  O  O28  1  0.66477300  0.67517800  0.23358200  1
  O  O29  1  0.32482200  0.33522700  0.26641800  1
  O  O30  1  0.33522700  0.32482200  0.76641800  1
  O  O31  1  0.67517800  0.66477300  0.73358200  1
  O  O32  1  0.10789900  0.42070800  0.44540200  1
  O  O33  1  0.57929200  0.89210100  0.05459800  1
  O  O34  1  0.89210100  0.57929200  0.55459800  1
  O  O35  1  0.42070800  0.10789900  0.94540200  1
  O  O36  1  0.04393700  0.62818900  0.41720100  1
  O  O37  1  0.37181100  0.95606300  0.08279900  1
  O  O38  1  0.95606300  0.37181100  0.58279900  1
  O  O39  1  0.62818900  0.04393700  0.91720100  1
  O  O40  1  0.09505200  0.46210700  0.29192600  1
  O  O41  1  0.53789300  0.90494800  0.20807400  1
  O  O42  1  0.90494800  0.53789300  0.70807400  1
  O  O43  1  0.46210700  0.09505200  0.79192600  1
  O  O44  1  0.81988000  0.05070000  0.49854200  1
  O  O45  1  0.94930000  0.18012000  0.00145800  1
  O  O46  1  0.18012000  0.94930000  0.50145800  1
  O  O47  1  0.05070000  0.81988000  0.99854200  1
  O  O48  1  0.02469300  0.58575400  0.11717500  1
  O  O49  1  0.41424600  0.97530700  0.38282500  1
  O  O50  1  0.97530700  0.41424600  0.88282500  1
  O  O51  1  0.58575400  0.02469300  0.61717500  1
  O  O52  1  0.73279200  0.25364400  0.39301600  1
  O  O53  1  0.74635600  0.26720800  0.10698400  1
  O  O54  1  0.26720800  0.74635600  0.60698400  1
  O  O55  1  0.25364400  0.73279200  0.89301600  1
loop_
_geom_bond_atom_site_label_1
_geom_bond_atom_site_label_2
_geom_bond_distance
_geom_bond_site_symmetry_2
Ba0 O17 2.775971 1_555
Ba0 O16 2.775971 1_555
Ba0 O40 2.796236 1_555
Ba0 O41 2.796236 1_555
Ba0 O25 2.916034 1_565
Ba0 O24 2.916034 1_455
Ba0 O0 2.942250 1_555
Ba0 O1 2.942250 1_555
Ba0 O36 3.280804 1_555
Ba0 O37 3.280804 1_555
Ba0 O49 3.401246 1_555
Ba0 O48 3.401246 1_555
Ba1 O18 2.775971 1_555
Ba1 O19 2.775971 1_555
Ba1 O42 2.796236 1_555
Ba1 O43 2.796236 1_555
Ba1 O26 2.916034 1_655
Ba1 O27 2.916034 1_545
Ba1 O2 2.942250 1_555
Ba1 O3 2.942250 1_555
Ba1 O39 3.280804 1_555
Ba1 O38 3.280804 1_555
Ba1 O50 3.401246 1_555
Ba1 O51 3.401246 1_555
Ba2 O36 2.740168 1_655
Ba2 O34 2.759915 1_555
Ba2 O17 2.782444 1_655
Ba2 O4 2.784350 1_555
Ba2 O12 2.802864 1_555
Ba2 O44 2.856962 1_565
Ba2 O10 3.046042 1_555
Ba2 O46 3.180531 1_655
Ba2 O24 3.254288 1_555
Ba2 O23 3.414318 1_555
Ba3 O37 2.740168 1_545
Ba3 O35 2.759915 1_554
Ba3 O16 2.782444 1_545
Ba3 O5 2.784350 1_555
Ba3 O13 2.802864 1_555
Ba3 O45 2.856962 1_455
Ba3 O11 3.046042 1_554
Ba3 O47 3.180531 1_544
Ba3 O25 3.254288 1_555
Ba3 O22 3.414318 1_554
Ba4 O38 2.740168 1_455
Ba4 O32 2.759915 1_555
Ba4 O19 2.782444 1_455
Ba4 O6 2.784350 1_555
Ba4 O14 2.802864 1_555
Ba4 O46 2.856962 1_545
Ba4 O8 3.046042 1_555
Ba4 O44 3.180531 1_455
Ba4 O26 3.254288 1_555
Ba4 O21 3.414318 1_555
Ba5 O39 2.740168 1_565
Ba5 O33 2.759915 1_556
Ba5 O18 2.782444 1_565
Ba5 O7 2.784350 1_555
Ba5 O15 2.802864 1_555
Ba5 O47 2.856962 1_655
Ba5 O9 3.046042 1_556
Ba5 O45 3.180531 1_566
Ba5 O27 3.254288 1_555
Ba5 O20 3.414318 1_556
H0 O44 0.988032 1_555
H1 O45 0.988032 1_555
H2 O46 0.988032 1_555
H3 O47 0.988032 1_555
H4 O44 0.994601 1_555
H5 O45 0.994601 1_556
H6 O46 0.994601 1_555
H7 O47 0.994601 1_554
H8 O48 0.990281 1_555
H9 O49 0.990281 1_555
H10 O50 0.990281 1_555
H11 O51 0.990281 1_555
H12 O48 0.980652 1_655
H13 O49 0.980652 1_545
H14 O50 0.980652 1_455
H15 O51 0.980652 1_565
H16 O52 0.989309 1_555
H17 O53 0.989309 1_555
H18 O54 0.989309 1_555
H19 O55 0.989309 1_555
H20 O52 0.977581 1_555
H21 O53 0.977581 1_555
H22 O54 0.977581 1_555
H23 O55 0.977581 1_555
C0 O4 1.253508 1_555
C0 O0 1.288724 1_555
C1 O5 1.253508 1_555
C1 O1 1.288724 1_555
C2 O6 1.253508 1_555
C2 O2 1.288724 1_555
C3 O7 1.253508 1_555
C3 O3 1.288724 1_555
C4 O12 1.255794 1_555
C4 O8 1.280202 1_555
C5 O13 1.255794 1_555
C5 O9 1.280202 1_555
C6 O14 1.255794 1_555
C6 O10 1.280202 1_555
C7 O15 1.255794 1_555
C7 O11 1.280202 1_555
C8 O16 1.244015 1_655
C8 O20 1.294616 1_555
C9 O17 1.244015 1_545
C9 O21 1.294616 1_555
C10 O18 1.244015 1_455
C10 O22 1.294616 1_555
C11 O19 1.244015 1_565
C11 O23 1.294616 1_555
C12 O24 1.240165 1_555
C12 O28 1.290961 1_555
C13 O25 1.240165 1_555
C13 O29 1.290961 1_555
C14 O26 1.240165 1_555
C14 O30 1.290961 1_555
C15 O27 1.240165 1_555
C15 O31 1.290961 1_555
C16 O36 1.242728 1_555
C16 O32 1.290813 1_555
C17 O37 1.242728 1_555
C17 O33 1.290813 1_555
C18 O38 1.242728 1_555
C18 O34 1.290813 1_555
C19 O39 1.242728 1_555
C19 O35 1.290813 1_555
O0 V0 2.042582 1_555
O1 V1 2.042582 1_555
O2 V2 2.042582 1_555
O3 V3 2.042582 1_555
O8 V0 2.211422 1_555
O9 V1 2.211422 1_555
O10 V2 2.211422 1_555
O11 V3 2.211422 1_555
O20 V1 2.020142 1_555
O21 V0 2.020142 1_555
O22 V3 2.020142 1_555
O23 V2 2.020142 1_555
O28 V1 2.020690 1_555
O29 V0 2.020690 1_555
O30 V3 2.020690 1_555
O31 V2 2.020690 1_555
O32 V0 2.045977 1_555
O33 V1 2.045977 1_555
O34 V2 2.045977 1_555
O35 V3 2.045977 1_555
O40 V0 1.655023 1_555
O41 V1 1.655023 1_555
O42 V2 1.655023 1_555
O43 V3 1.655023 1_555
