# generated using pymatgen
data_Rb2TeMo2(PO7)2
_symmetry_space_group_name_H-M   'P 1'
_cell_length_a   9.24481500
_cell_length_b   11.52427400
_cell_length_c   12.68304400
_cell_angle_alpha   90.00000000
_cell_angle_beta   90.00000000
_cell_angle_gamma   90.00000000
_symmetry_Int_Tables_number   1
_chemical_formula_structural   Rb2TeMo2(PO7)2
_chemical_formula_sum   'Rb8 Te4 Mo8 P8 O56'
_cell_volume   1351.24873194
_cell_formula_units_Z   4
loop_
 _symmetry_equiv_pos_site_id
 _symmetry_equiv_pos_as_xyz
  1  'x, y, z'
loop_
 _atom_site_type_symbol
 _atom_site_label
 _atom_site_symmetry_multiplicity
 _atom_site_fract_x
 _atom_site_fract_y
 _atom_site_fract_z
 _atom_site_occupancy
  Rb  Rb0  1  0.03134700  0.21748400  0.68317500  1
  Rb  Rb1  1  0.46865300  0.78251600  0.18317500  1
  Rb  Rb2  1  0.46865300  0.71748400  0.81682500  1
  Rb  Rb3  1  0.96865300  0.71748400  0.68317500  1
  Rb  Rb4  1  0.96865300  0.78251600  0.31682500  1
  Rb  Rb5  1  0.53134700  0.21748400  0.81682500  1
  Rb  Rb6  1  0.53134700  0.28251600  0.18317500  1
  Rb  Rb7  1  0.03134700  0.28251600  0.31682500  1
  Te  Te0  1  0.12797300  0.25000000  0.00000000  1
  Te  Te1  1  0.37202700  0.75000000  0.50000000  1
  Te  Te2  1  0.87202700  0.75000000  0.00000000  1
  Te  Te3  1  0.62797300  0.25000000  0.50000000  1
  Mo  Mo0  1  0.25208100  0.98156100  0.87902600  1
  Mo  Mo1  1  0.75208100  0.51843900  0.37902600  1
  Mo  Mo2  1  0.75208100  0.98156100  0.62097400  1
  Mo  Mo3  1  0.74791900  0.01843900  0.12097400  1
  Mo  Mo4  1  0.25208100  0.51843900  0.12097400  1
  Mo  Mo5  1  0.24791900  0.01843900  0.37902600  1
  Mo  Mo6  1  0.74791900  0.48156100  0.87902600  1
  Mo  Mo7  1  0.24791900  0.48156100  0.62097400  1
  P  P0  1  0.63495200  0.99763900  0.36769100  1
  P  P1  1  0.63495200  0.50236100  0.63230900  1
  P  P2  1  0.86504800  0.49763900  0.13230900  1
  P  P3  1  0.86504800  0.00236100  0.86769100  1
  P  P4  1  0.36504800  0.00236100  0.63230900  1
  P  P5  1  0.36504800  0.49763900  0.36769100  1
  P  P6  1  0.13495200  0.50236100  0.86769100  1
  P  P7  1  0.13495200  0.99763900  0.13230900  1
  O  O0  1  0.64253700  0.13236600  0.36821700  1
  O  O1  1  0.64253700  0.36763400  0.63178300  1
  O  O2  1  0.85746300  0.63236600  0.13178300  1
  O  O3  1  0.85746300  0.86763400  0.86821700  1
  O  O4  1  0.35746300  0.86763400  0.63178300  1
  O  O5  1  0.35746300  0.63236600  0.36821700  1
  O  O6  1  0.14253700  0.36763400  0.86821700  1
  O  O7  1  0.14253700  0.13236600  0.13178300  1
  O  O8  1  0.52085200  0.45153300  0.36236200  1
  O  O9  1  0.52085200  0.04846700  0.63763800  1
  O  O10  1  0.97914800  0.95153300  0.13763800  1
  O  O11  1  0.97914800  0.54846700  0.86236200  1
  O  O12  1  0.47914800  0.54846700  0.63763800  1
  O  O13  1  0.47914800  0.95153300  0.36236200  1
  O  O14  1  0.02085200  0.04846700  0.86236200  1
  O  O15  1  0.02085200  0.45153300  0.13763800  1
  O  O16  1  0.70906000  0.55331900  0.53258400  1
  O  O17  1  0.70906000  0.94668100  0.46741600  1
  O  O18  1  0.79094000  0.05331900  0.96741600  1
  O  O19  1  0.79094000  0.44668100  0.03258400  1
  O  O20  1  0.31224700  0.34660000  0.66174900  1
  O  O21  1  0.29094000  0.44668100  0.46741600  1
  O  O22  1  0.20906000  0.94668100  0.03258400  1
  O  O23  1  0.20906000  0.55331900  0.96741600  1
  O  O24  1  0.68775300  0.65340000  0.33825100  1
  O  O25  1  0.68775300  0.84660000  0.66174900  1
  O  O26  1  0.81224700  0.15340000  0.16174900  1
  O  O27  1  0.81224700  0.34660000  0.83825100  1
  O  O28  1  0.26383100  0.34290100  0.07254300  1
  O  O29  1  0.26383100  0.15709900  0.92745700  1
  O  O30  1  0.23616900  0.84290100  0.42745700  1
  O  O31  1  0.23616900  0.65709900  0.57254300  1
  O  O32  1  0.73616900  0.65709900  0.92745700  1
  O  O33  1  0.73616900  0.84290100  0.07254300  1
  O  O34  1  0.76383100  0.15709900  0.57254300  1
  O  O35  1  0.76383100  0.34290100  0.42745700  1
  O  O36  1  0.27586700  0.45191000  0.27127200  1
  O  O37  1  0.27586700  0.04809000  0.72872800  1
  O  O38  1  0.22413300  0.95191000  0.22872800  1
  O  O39  1  0.22413300  0.54809000  0.77127200  1
  O  O40  1  0.72413300  0.54809000  0.72872800  1
  O  O41  1  0.72413300  0.95191000  0.27127200  1
  O  O42  1  0.77586700  0.04809000  0.77127200  1
  O  O43  1  0.77586700  0.45191000  0.22872800  1
  O  O44  1  0.43687000  0.54280300  0.11060600  1
  O  O45  1  0.43687000  0.95719700  0.88939400  1
  O  O46  1  0.06313000  0.04280300  0.38939400  1
  O  O47  1  0.06313000  0.45719700  0.61060600  1
  O  O48  1  0.56313000  0.45719700  0.88939400  1
  O  O49  1  0.56313000  0.04280300  0.11060600  1
  O  O50  1  0.93687000  0.95719700  0.61060600  1
  O  O51  1  0.93687000  0.54280300  0.38939400  1
  O  O52  1  0.18775300  0.65340000  0.16174900  1
  O  O53  1  0.18775300  0.84660000  0.83825100  1
  O  O54  1  0.31224700  0.15340000  0.33825100  1
  O  O55  1  0.29094000  0.05331900  0.53258400  1
loop_
_geom_bond_atom_site_label_1
_geom_bond_atom_site_label_2
_geom_bond_distance
_geom_bond_site_symmetry_2
Mo0 O45 1.736247 1_555
Mo0 O53 1.743605 1_555
Mo0 O22 2.028013 1_556
Mo0 O37 2.066378 1_565
Mo0 O29 2.116938 1_565
Mo0 O14 2.282281 1_565
Mo1 O51 1.736247 1_555
Mo1 O24 1.743605 1_555
Mo1 O16 2.028013 1_555
Mo1 O43 2.066378 1_555
Mo1 O35 2.116938 1_555
Mo1 O8 2.282281 1_555
Mo2 O50 1.736247 1_555
Mo2 O25 1.743605 1_555
Mo2 O17 2.028013 1_555
Mo2 O42 2.066378 1_565
Mo2 O34 2.116938 1_565
Mo2 O9 2.282281 1_565
Mo3 O49 1.736247 1_555
Mo3 O26 1.743605 1_555
Mo3 O18 2.028013 1_554
Mo3 O41 2.066378 1_545
Mo3 O33 2.116938 1_545
Mo3 O10 2.282281 1_545
Mo4 O44 1.736247 1_555
Mo4 O52 1.743605 1_555
Mo4 O23 2.028013 1_554
Mo4 O36 2.066378 1_555
Mo4 O28 2.116938 1_555
Mo4 O15 2.282281 1_555
Mo5 O46 1.736247 1_555
Mo5 O54 1.743605 1_555
Mo5 O55 2.028013 1_555
Mo5 O38 2.066378 1_545
Mo5 O30 2.116938 1_545
Mo5 O13 2.282281 1_545
Mo6 O48 1.736247 1_555
Mo6 O27 1.743605 1_555
Mo6 O19 2.028013 1_556
Mo6 O40 2.066378 1_555
Mo6 O32 2.116938 1_555
Mo6 O11 2.282281 1_555
Mo7 O47 1.736247 1_555
Mo7 O20 1.743605 1_555
Mo7 O21 2.028013 1_555
Mo7 O39 2.066378 1_555
Mo7 O31 2.116938 1_555
Mo7 O12 2.282281 1_555
O0 P0 1.554228 1_545
O0 Te3 2.156274 1_555
O0 Rb6 3.091721 1_555
O1 P1 1.554228 1_555
O1 Te3 2.156274 1_555
O1 Rb5 3.091721 1_555
O2 P2 1.554228 1_555
O2 Te2 2.156274 1_555
O2 Rb4 3.091721 1_555
O3 P3 1.554228 1_565
O3 Te2 2.156274 1_556
O3 Rb3 3.091721 1_555
O4 P4 1.554228 1_565
O4 Te1 2.156274 1_555
O4 Rb2 3.091721 1_555
O5 P5 1.554228 1_555
O5 Te1 2.156274 1_555
O5 Rb1 3.091721 1_555
O6 P6 1.554228 1_555
O6 Te0 2.156274 1_556
O6 Rb0 3.091721 1_555
O7 P7 1.554228 1_545
O7 Te0 2.156274 1_555
O7 Rb7 3.091721 1_555
O8 P5 1.536743 1_555
O8 Rb6 2.994697 1_555
O9 P4 1.536743 1_555
O9 Rb5 2.994697 1_555
O10 P7 1.536743 1_655
O10 Rb4 2.994697 1_555
O11 P6 1.536743 1_655
O11 Rb3 2.994697 1_555
O12 P1 1.536743 1_555
O12 Rb2 2.994697 1_555
O13 P0 1.536743 1_555
O13 Rb1 2.994697 1_555
O14 P3 1.536743 1_455
O14 Rb0 2.994697 1_555
O15 P2 1.536743 1_455
O15 Rb7 2.994697 1_555
O16 P1 1.553709 1_555
O17 P0 1.553709 1_555
O18 P3 1.553709 1_555
O19 P2 1.553709 1_555
O20 Rb0 3.005266 1_555
O20 Rb5 3.191442 1_555
O21 P5 1.553709 1_555
O22 P7 1.553709 1_555
O23 P6 1.553709 1_555
O24 Rb4 3.005266 1_555
O24 Rb1 3.191442 1_555
O25 Rb3 3.005266 1_555
O25 Rb2 3.191442 1_555
O26 Rb6 3.005266 1_555
O26 Rb7 3.191442 1_655
O27 Rb5 3.005266 1_555
O27 Rb0 3.191442 1_655
O28 Te0 1.889506 1_555
O28 Rb6 2.927371 1_555
O29 Te0 1.889506 1_556
O29 Rb5 2.927371 1_555
O30 Te1 1.889506 1_555
O30 Rb4 2.927371 1_455
O31 Te1 1.889506 1_555
O31 Rb3 2.927371 1_455
O32 Te2 1.889506 1_556
O32 Rb2 2.927371 1_555
O33 Te2 1.889506 1_555
O33 Rb1 2.927371 1_555
O34 Te3 1.889506 1_555
O34 Rb0 2.927371 1_655
O35 Te3 1.889506 1_555
O35 Rb7 2.927371 1_655
O36 P5 1.566177 1_555
O36 Rb7 3.042155 1_555
O36 Rb6 3.261551 1_555
O37 P4 1.566177 1_555
O37 Rb0 3.042155 1_555
O37 Rb5 3.261551 1_555
O38 P7 1.566177 1_555
O38 Rb1 3.042155 1_555
O38 Rb4 3.261551 1_455
O39 P6 1.566177 1_555
O39 Rb2 3.042155 1_555
O39 Rb3 3.261551 1_455
O40 P1 1.566177 1_555
O40 Rb3 3.042155 1_555
O40 Rb2 3.261551 1_555
O41 P0 1.566177 1_555
O41 Rb4 3.042155 1_555
O41 Rb1 3.261551 1_555
O42 P3 1.566177 1_555
O42 Rb5 3.042155 1_555
O42 Rb0 3.261551 1_655
O43 P2 1.566177 1_555
O43 Rb6 3.042155 1_555
O43 Rb7 3.261551 1_655
O44 Rb1 2.926597 1_555
O44 Rb6 3.256948 1_555
O45 Rb2 2.926597 1_555
O45 Rb5 3.256948 1_565
O46 Rb7 2.926597 1_555
O46 Rb4 3.256948 1_445
O47 Rb0 2.926597 1_555
O47 Rb3 3.256948 1_455
O48 Rb5 2.926597 1_555
O48 Rb2 3.256948 1_555
O49 Rb6 2.926597 1_555
O49 Rb1 3.256948 1_545
O50 Rb3 2.926597 1_555
O50 Rb0 3.256948 1_665
O51 Rb4 2.926597 1_555
O51 Rb7 3.256948 1_655
O52 Rb1 3.005266 1_555
O52 Rb4 3.191442 1_455
O53 Rb2 3.005266 1_555
O53 Rb3 3.191442 1_455
O54 Rb7 3.005266 1_555
O54 Rb6 3.191442 1_555
O55 P4 1.553709 1_555
