# generated using pymatgen
data_ZnCu3
_symmetry_space_group_name_H-M   'P 1'
_cell_length_a   17.01542161
_cell_length_b   17.01542161
_cell_length_c   17.01542059
_cell_angle_alpha   17.35305513
_cell_angle_beta   17.35305513
_cell_angle_gamma   17.35305670
_symmetry_Int_Tables_number   1
_chemical_formula_structural   ZnCu3
_chemical_formula_sum   'Zn8 Cu24'
_cell_volume   382.43010811
_cell_formula_units_Z   8
loop_
 _symmetry_equiv_pos_site_id
 _symmetry_equiv_pos_as_xyz
  1  'x, y, z'
loop_
 _atom_site_type_symbol
 _atom_site_label
 _atom_site_symmetry_multiplicity
 _atom_site_fract_x
 _atom_site_fract_y
 _atom_site_fract_z
 _atom_site_occupancy
  Zn  Zn0_0  1  0.00000000  0.00000000  0.00000000  1
  Zn  Zn0_1  1  0.00000000  0.00000000  0.50000000  1
  Zn  Zn0_2  1  0.00000000  0.50000000  0.00000000  1
  Zn  Zn0_3  1  1.00000000  0.50000000  0.50000000  1
  Zn  Zn0_4  1  0.50000000  0.00000000  0.00000000  1
  Zn  Zn0_5  1  0.50000000  0.00000000  0.50000000  1
  Zn  Zn0_6  1  0.50000000  0.50000000  0.00000000  1
  Zn  Zn0_7  1  0.50000000  0.50000000  0.50000000  1
  Cu  Cu0_0  1  0.12424826  0.12424826  0.12424826  1
  Cu  Cu0_1  1  0.12424826  0.12424826  0.62424826  1
  Cu  Cu0_2  1  0.12424826  0.62424826  0.12424826  1
  Cu  Cu0_3  1  0.12424826  0.62424826  0.62424826  1
  Cu  Cu0_4  1  0.62424826  0.12424826  0.12424826  1
  Cu  Cu0_5  1  0.62424826  0.12424826  0.62424826  1
  Cu  Cu0_6  1  0.62424826  0.62424826  0.12424826  1
  Cu  Cu0_7  1  0.62424826  0.62424826  0.62424826  1
  Cu  Cu1_0  1  0.25000000  0.25000000  0.25000000  1
  Cu  Cu1_1  1  0.25000000  0.25000000  0.75000000  1
  Cu  Cu1_2  1  0.25000000  0.75000000  0.25000000  1
  Cu  Cu1_3  1  0.25000000  0.75000000  0.75000000  1
  Cu  Cu1_4  1  0.75000000  0.25000000  0.25000000  1
  Cu  Cu1_5  1  0.75000000  0.25000000  0.75000000  1
  Cu  Cu1_6  1  0.75000000  0.75000000  0.25000000  1
  Cu  Cu1_7  1  0.75000000  0.75000000  0.75000000  1
  Cu  Cu2_0  1  0.37575174  0.37575174  0.37575174  1
  Cu  Cu2_1  1  0.37575174  0.37575174  0.87575174  1
  Cu  Cu2_2  1  0.37575174  0.87575174  0.37575174  1
  Cu  Cu2_3  1  0.37575174  0.87575174  0.87575174  1
  Cu  Cu2_4  1  0.87575174  0.37575174  0.37575174  1
  Cu  Cu2_5  1  0.87575174  0.37575174  0.87575174  1
  Cu  Cu2_6  1  0.87575174  0.87575174  0.37575174  1
  Cu  Cu2_7  1  0.87575174  0.87575174  0.87575174  1
loop_
_geom_bond_atom_site_label_1
_geom_bond_atom_site_label_2
_geom_bond_distance
_geom_bond_site_symmetry_2
Zn0_0 Zn0_5 2.566876 1_554
Zn0_0 Zn0_3 2.566876 1_454
Zn0_0 Zn0_3 2.566876 1_445
Zn0_0 Zn0_5 2.566876 1_455
Zn0_0 Zn0_6 2.566876 1_455
Zn0_0 Zn0_6 2.566876 1_545
Zn0_1 Zn0_4 2.566876 1_555
Zn0_1 Zn0_2 2.566876 1_555
Zn0_1 Zn0_2 2.566876 1_546
Zn0_1 Zn0_4 2.566876 1_456
Zn0_1 Zn0_7 2.566876 1_545
Zn0_1 Zn0_7 2.566876 1_455
Zn0_2 Zn0_7 2.566876 1_554
Zn0_2 Zn0_7 2.566876 1_455
Zn0_2 Zn0_4 2.566876 1_555
Zn0_2 Zn0_4 2.566876 1_465
Zn0_3 Zn0_6 2.566876 1_556
Zn0_3 Zn0_6 2.566876 1_655
Zn0_3 Zn0_5 2.566876 1_655
Zn0_3 Zn0_5 2.566876 1_565
Zn0_4 Zn0_7 2.566876 1_554
Zn0_4 Zn0_7 2.566876 1_545
Zn0_5 Zn0_6 2.566876 1_555
Zn0_5 Zn0_6 2.566876 1_546
Cu0_0 Cu1_1 2.534952 1_554
Cu0_0 Cu1_2 2.534952 1_545
Cu0_0 Cu1_4 2.534952 1_455
Cu0_0 Cu0_5 2.566876 1_554
Cu0_0 Cu0_3 2.566876 1_554
Cu0_0 Cu0_3 2.566876 1_545
Cu0_0 Cu0_5 2.566876 1_455
Cu0_0 Cu0_6 2.566876 1_545
Cu0_0 Cu0_6 2.566876 1_455
Cu0_0 Zn0_1 2.596641 1_555
Cu0_0 Zn0_4 2.596642 1_555
Cu0_0 Zn0_2 2.596642 1_555
Cu0_1 Cu1_0 2.534952 1_555
Cu0_1 Cu1_5 2.534952 1_455
Cu0_1 Cu1_3 2.534952 1_545
Cu0_1 Cu0_2 2.566876 1_546
Cu0_1 Cu0_4 2.566876 1_456
Cu0_1 Cu0_4 2.566876 1_555
Cu0_1 Cu0_2 2.566876 1_555
Cu0_1 Cu0_7 2.566876 1_455
Cu0_1 Cu0_7 2.566876 1_545
Cu0_1 Zn0_0 2.596641 1_556
Cu0_1 Zn0_3 2.596642 1_455
Cu0_1 Zn0_5 2.596642 1_555
Cu0_2 Cu1_3 2.534952 1_554
Cu0_2 Cu1_0 2.534952 1_555
Cu0_2 Cu1_6 2.534952 1_455
Cu0_2 Cu0_7 2.566876 1_554
Cu0_2 Cu0_7 2.566876 1_455
Cu0_2 Cu0_4 2.566876 1_465
Cu0_2 Cu0_4 2.566876 1_555
Cu0_2 Zn0_3 2.596641 1_455
Cu0_2 Zn0_6 2.596642 1_555
Cu0_2 Zn0_0 2.596642 1_565
Cu0_3 Cu1_2 2.534952 1_555
Cu0_3 Cu1_1 2.534952 1_555
Cu0_3 Cu1_7 2.534952 1_455
Cu0_3 Cu0_6 2.566876 1_456
Cu0_3 Cu0_6 2.566876 1_555
Cu0_3 Cu0_5 2.566876 1_555
Cu0_3 Cu0_5 2.566876 1_465
Cu0_3 Zn0_2 2.596641 1_556
Cu0_3 Zn0_7 2.596642 1_555
Cu0_3 Zn0_1 2.596642 1_565
Cu0_4 Cu1_5 2.534952 1_554
Cu0_4 Cu1_0 2.534952 1_555
Cu0_4 Cu1_6 2.534952 1_545
Cu0_4 Cu0_7 2.566876 1_545
Cu0_4 Cu0_7 2.566876 1_554
Cu0_4 Zn0_5 2.596641 1_555
Cu0_4 Zn0_6 2.596642 1_555
Cu0_4 Zn0_0 2.596642 1_655
Cu0_5 Cu1_4 2.534952 1_555
Cu0_5 Cu1_1 2.534952 1_555
Cu0_5 Cu1_7 2.534952 1_545
Cu0_5 Cu0_6 2.566876 1_546
Cu0_5 Cu0_6 2.566876 1_555
Cu0_5 Zn0_4 2.596641 1_556
Cu0_5 Zn0_7 2.596642 1_555
Cu0_5 Zn0_1 2.596642 1_655
Cu0_6 Cu1_7 2.534952 1_554
Cu0_6 Cu1_2 2.534952 1_555
Cu0_6 Cu1_4 2.534952 1_555
Cu0_6 Zn0_7 2.596641 1_555
Cu0_6 Zn0_4 2.596642 1_565
Cu0_6 Zn0_2 2.596642 1_655
Cu0_7 Cu1_6 2.534952 1_555
Cu0_7 Cu1_5 2.534952 1_555
Cu0_7 Cu1_3 2.534952 1_555
Cu0_7 Zn0_6 2.596641 1_556
Cu0_7 Zn0_3 2.596642 1_555
Cu0_7 Zn0_5 2.596642 1_565
Cu1_0 Cu2_1 2.534952 1_554
Cu1_0 Cu2_2 2.534952 1_545
Cu1_0 Cu2_4 2.534952 1_455
Cu1_0 Cu1_3 2.566876 1_554
Cu1_0 Cu1_5 2.566876 1_554
Cu1_0 Cu1_3 2.566876 1_545
Cu1_0 Cu1_5 2.566876 1_455
Cu1_0 Cu1_6 2.566876 1_545
Cu1_0 Cu1_6 2.566876 1_455
Cu1_1 Cu2_0 2.534952 1_555
Cu1_1 Cu2_3 2.534952 1_545
Cu1_1 Cu2_5 2.534952 1_455
Cu1_1 Cu1_4 2.566876 1_555
Cu1_1 Cu1_4 2.566876 1_456
Cu1_1 Cu1_2 2.566876 1_555
Cu1_1 Cu1_2 2.566876 1_546
Cu1_1 Cu1_7 2.566876 1_545
Cu1_1 Cu1_7 2.566876 1_455
Cu1_2 Cu2_3 2.534952 1_554
Cu1_2 Cu2_0 2.534952 1_555
Cu1_2 Cu2_6 2.534952 1_455
Cu1_2 Cu1_7 2.566876 1_554
Cu1_2 Cu1_7 2.566876 1_455
Cu1_2 Cu1_4 2.566876 1_555
Cu1_2 Cu1_4 2.566876 1_465
Cu1_3 Cu2_2 2.534952 1_555
Cu1_3 Cu2_7 2.534952 1_455
Cu1_3 Cu2_1 2.534952 1_555
Cu1_3 Cu1_6 2.566876 1_456
Cu1_3 Cu1_6 2.566876 1_555
Cu1_3 Cu1_5 2.566876 1_555
Cu1_3 Cu1_5 2.566876 1_465
Cu1_4 Cu2_5 2.534952 1_554
Cu1_4 Cu2_0 2.534952 1_555
Cu1_4 Cu2_6 2.534952 1_545
Cu1_4 Cu1_7 2.566876 1_554
Cu1_4 Cu1_7 2.566876 1_545
Cu1_5 Cu2_4 2.534952 1_555
Cu1_5 Cu2_7 2.534952 1_545
Cu1_5 Cu2_1 2.534952 1_555
Cu1_5 Cu1_6 2.566876 1_546
Cu1_5 Cu1_6 2.566876 1_555
Cu1_6 Cu2_7 2.534952 1_554
Cu1_6 Cu2_4 2.534952 1_555
Cu1_6 Cu2_2 2.534952 1_555
Cu1_7 Cu2_6 2.534952 1_555
Cu1_7 Cu2_3 2.534952 1_555
Cu1_7 Cu2_5 2.534952 1_555
Cu2_0 Cu2_3 2.566876 1_554
Cu2_0 Cu2_5 2.566876 1_554
Cu2_0 Cu2_3 2.566876 1_545
Cu2_0 Cu2_5 2.566876 1_455
Cu2_0 Cu2_6 2.566876 1_545
Cu2_0 Cu2_6 2.566876 1_455
Cu2_0 Zn0_6 2.596641 1_555
Cu2_0 Zn0_5 2.596642 1_555
Cu2_0 Zn0_3 2.596642 1_455
Cu2_1 Cu2_2 2.566876 1_546
Cu2_1 Cu2_4 2.566876 1_456
Cu2_1 Cu2_2 2.566876 1_555
Cu2_1 Cu2_4 2.566876 1_555
Cu2_1 Cu2_7 2.566876 1_545
Cu2_1 Cu2_7 2.566876 1_455
Cu2_1 Zn0_7 2.596641 1_555
Cu2_1 Zn0_2 2.596642 1_556
Cu2_1 Zn0_4 2.596642 1_556
Cu2_2 Cu2_7 2.566876 1_554
Cu2_2 Cu2_7 2.566876 1_455
Cu2_2 Cu2_4 2.566876 1_555
Cu2_2 Cu2_4 2.566876 1_465
Cu2_2 Zn0_4 2.596641 1_565
Cu2_2 Zn0_1 2.596642 1_565
Cu2_2 Zn0_7 2.596642 1_555
Cu2_3 Cu2_6 2.566876 1_555
Cu2_3 Cu2_6 2.566876 1_456
Cu2_3 Cu2_5 2.566876 1_465
Cu2_3 Cu2_5 2.566876 1_555
Cu2_3 Zn0_5 2.596641 1_565
Cu2_3 Zn0_0 2.596642 1_566
Cu2_3 Zn0_6 2.596642 1_556
Cu2_4 Cu2_7 2.566876 1_545
Cu2_4 Cu2_7 2.566876 1_554
Cu2_4 Zn0_2 2.596641 1_655
Cu2_4 Zn0_1 2.596642 1_655
Cu2_4 Zn0_7 2.596642 1_555
Cu2_5 Cu2_6 2.566876 1_555
Cu2_5 Cu2_6 2.566876 1_546
Cu2_5 Zn0_3 2.596641 1_555
Cu2_5 Zn0_0 2.596642 1_656
Cu2_5 Zn0_6 2.596642 1_556
Cu2_6 Zn0_0 2.596641 1_665
Cu2_6 Zn0_5 2.596642 1_565
Cu2_6 Zn0_3 2.596642 1_555
Cu2_7 Zn0_1 2.596641 1_665
Cu2_7 Zn0_4 2.596642 1_566
Cu2_7 Zn0_2 2.596642 1_656
