# generated using pymatgen
data_Sm3Pu
_symmetry_space_group_name_H-M   'P 1'
_cell_length_a   7.11951451
_cell_length_b   7.11951451
_cell_length_c   23.78024600
_cell_angle_alpha   90.00000000
_cell_angle_beta   90.00000000
_cell_angle_gamma   119.99998617
_symmetry_Int_Tables_number   1
_chemical_formula_structural   Sm3Pu
_chemical_formula_sum   'Sm24 Pu8'
_cell_volume   1043.87331181
_cell_formula_units_Z   8
loop_
 _symmetry_equiv_pos_site_id
 _symmetry_equiv_pos_as_xyz
  1  'x, y, z'
loop_
 _atom_site_type_symbol
 _atom_site_label
 _atom_site_symmetry_multiplicity
 _atom_site_fract_x
 _atom_site_fract_y
 _atom_site_fract_z
 _atom_site_occupancy
  Sm  Sm0_0  1  0.16666650  0.33333350  0.00000000  1
  Sm  Sm0_1  1  0.16666650  0.33333350  0.50000000  1
  Sm  Sm0_2  1  0.16666650  0.83333350  0.00000000  1
  Sm  Sm0_3  1  0.16666650  0.83333350  0.50000000  1
  Sm  Sm0_4  1  0.66666650  0.33333350  0.00000000  1
  Sm  Sm0_5  1  0.66666650  0.33333350  0.50000000  1
  Sm  Sm0_6  1  0.66666650  0.83333350  0.00000000  1
  Sm  Sm0_7  1  0.66666650  0.83333350  0.50000000  1
  Sm  Sm1_0  1  0.00000000  0.00000000  0.37018250  1
  Sm  Sm1_1  1  0.00000000  0.00000000  0.87018250  1
  Sm  Sm1_2  1  0.00000000  0.50000000  0.37018250  1
  Sm  Sm1_3  1  0.00000000  0.50000000  0.87018250  1
  Sm  Sm1_4  1  0.50000000  0.00000000  0.37018250  1
  Sm  Sm1_5  1  0.50000000  0.00000000  0.87018250  1
  Sm  Sm1_6  1  0.50000000  0.50000000  0.37018250  1
  Sm  Sm1_7  1  0.50000000  0.50000000  0.87018250  1
  Sm  Sm2_0  1  0.00000000  0.00000000  0.12981750  1
  Sm  Sm2_1  1  0.00000000  0.00000000  0.62981750  1
  Sm  Sm2_2  1  0.00000000  0.50000000  0.12981750  1
  Sm  Sm2_3  1  0.00000000  0.50000000  0.62981750  1
  Sm  Sm2_4  1  0.50000000  0.00000000  0.12981750  1
  Sm  Sm2_5  1  0.50000000  0.00000000  0.62981750  1
  Sm  Sm2_6  1  0.50000000  0.50000000  0.12981750  1
  Sm  Sm2_7  1  0.50000000  0.50000000  0.62981750  1
  Pu  Pu0_0  1  0.33333350  0.16666650  0.25000000  1
  Pu  Pu0_1  1  0.33333350  0.16666650  0.75000000  1
  Pu  Pu0_2  1  0.33333350  0.66666650  0.25000000  1
  Pu  Pu0_3  1  0.33333350  0.66666650  0.75000000  1
  Pu  Pu0_4  1  0.83333350  0.16666650  0.25000000  1
  Pu  Pu0_5  1  0.83333350  0.16666650  0.75000000  1
  Pu  Pu0_6  1  0.83333350  0.66666650  0.25000000  1
  Pu  Pu0_7  1  0.83333350  0.66666650  0.75000000  1
loop_
_geom_bond_atom_site_label_1
_geom_bond_atom_site_label_2
_geom_bond_distance
_geom_bond_site_symmetry_2
Sm0_0 Sm0_2 3.559757 1_545
Sm0_0 Sm0_4 3.559757 1_555
Sm0_0 Sm0_4 3.559757 1_455
Sm0_0 Sm0_2 3.559757 1_555
Sm0_0 Sm0_6 3.559758 1_555
Sm0_0 Sm0_6 3.559758 1_445
Sm0_0 Sm2_2 3.708650 1_555
Sm0_0 Sm1_3 3.708650 1_554
Sm0_0 Sm2_6 3.708652 1_555
Sm0_0 Sm2_0 3.708652 1_555
Sm0_0 Sm1_7 3.708652 1_554
Sm0_0 Sm1_1 3.708652 1_554
Sm0_1 Sm0_5 3.559757 1_555
Sm0_1 Sm0_3 3.559757 1_545
Sm0_1 Sm0_5 3.559757 1_455
Sm0_1 Sm0_3 3.559757 1_555
Sm0_1 Sm0_7 3.559758 1_555
Sm0_1 Sm0_7 3.559758 1_445
Sm0_1 Sm2_3 3.708650 1_555
Sm0_1 Sm1_2 3.708650 1_555
Sm0_1 Sm2_7 3.708652 1_555
Sm0_1 Sm2_1 3.708652 1_555
Sm0_1 Sm1_0 3.708652 1_555
Sm0_1 Sm1_6 3.708652 1_555
Sm0_2 Sm0_6 3.559757 1_555
Sm0_2 Sm0_6 3.559757 1_455
Sm0_2 Sm0_4 3.559758 1_565
Sm0_2 Sm0_4 3.559758 1_455
Sm0_2 Sm2_0 3.708650 1_565
Sm0_2 Sm1_1 3.708650 1_564
Sm0_2 Sm2_4 3.708652 1_565
Sm0_2 Sm2_2 3.708652 1_555
Sm0_2 Sm1_5 3.708652 1_564
Sm0_2 Sm1_3 3.708652 1_554
Sm0_3 Sm0_7 3.559757 1_555
Sm0_3 Sm0_7 3.559757 1_455
Sm0_3 Sm0_5 3.559758 1_565
Sm0_3 Sm0_5 3.559758 1_455
Sm0_3 Sm2_1 3.708650 1_565
Sm0_3 Sm1_0 3.708650 1_565
Sm0_3 Sm2_5 3.708652 1_565
Sm0_3 Sm2_3 3.708652 1_555
Sm0_3 Sm1_4 3.708652 1_565
Sm0_3 Sm1_2 3.708652 1_555
Sm0_4 Sm0_6 3.559757 1_545
Sm0_4 Sm0_6 3.559757 1_555
Sm0_4 Sm2_6 3.708650 1_555
Sm0_4 Sm1_7 3.708650 1_554
Sm0_4 Sm2_4 3.708652 1_555
Sm0_4 Sm2_2 3.708652 1_655
Sm0_4 Sm1_5 3.708652 1_554
Sm0_4 Sm1_3 3.708652 1_654
Sm0_5 Sm0_7 3.559757 1_545
Sm0_5 Sm0_7 3.559757 1_555
Sm0_5 Sm2_7 3.708650 1_555
Sm0_5 Sm1_6 3.708650 1_555
Sm0_5 Sm2_5 3.708652 1_555
Sm0_5 Sm2_3 3.708652 1_655
Sm0_5 Sm1_4 3.708652 1_555
Sm0_5 Sm1_2 3.708652 1_655
Sm0_6 Sm2_4 3.708650 1_565
Sm0_6 Sm1_5 3.708650 1_564
Sm0_6 Sm2_0 3.708652 1_665
Sm0_6 Sm2_6 3.708652 1_555
Sm0_6 Sm1_1 3.708652 1_664
Sm0_6 Sm1_7 3.708652 1_554
Sm0_7 Sm2_5 3.708650 1_565
Sm0_7 Sm1_4 3.708650 1_565
Sm0_7 Sm2_1 3.708652 1_665
Sm0_7 Sm2_7 3.708652 1_555
Sm0_7 Sm1_6 3.708652 1_555
Sm0_7 Sm1_0 3.708652 1_665
Sm1_0 Sm1_2 3.559757 1_555
Sm1_0 Sm1_4 3.559757 1_455
Sm1_0 Sm1_2 3.559757 1_545
Sm1_0 Sm1_4 3.559757 1_555
Sm1_0 Sm1_6 3.559758 1_445
Sm1_0 Sm1_6 3.559758 1_555
Sm1_1 Sm1_5 3.559757 1_555
Sm1_1 Sm1_3 3.559757 1_555
Sm1_1 Sm1_5 3.559757 1_455
Sm1_1 Sm1_3 3.559757 1_545
Sm1_1 Sm1_7 3.559758 1_555
Sm1_1 Sm1_7 3.559758 1_445
Sm1_2 Sm1_6 3.559757 1_555
Sm1_2 Sm1_6 3.559757 1_455
Sm1_2 Sm1_4 3.559758 1_565
Sm1_2 Sm1_4 3.559758 1_455
Sm1_3 Sm1_7 3.559757 1_455
Sm1_3 Sm1_7 3.559757 1_555
Sm1_3 Sm1_5 3.559758 1_565
Sm1_3 Sm1_5 3.559758 1_455
Sm1_4 Sm1_6 3.559757 1_555
Sm1_4 Sm1_6 3.559757 1_545
Sm1_5 Sm1_7 3.559757 1_545
Sm1_5 Sm1_7 3.559757 1_555
Sm2_0 Sm2_2 3.559757 1_545
Sm2_0 Sm2_4 3.559757 1_555
Sm2_0 Sm2_2 3.559757 1_555
Sm2_0 Sm2_4 3.559757 1_455
Sm2_0 Sm2_6 3.559758 1_445
Sm2_0 Sm2_6 3.559758 1_555
Sm2_1 Sm2_3 3.559757 1_545
Sm2_1 Sm2_5 3.559757 1_455
Sm2_1 Sm2_5 3.559757 1_555
Sm2_1 Sm2_3 3.559757 1_555
Sm2_1 Sm2_7 3.559758 1_555
Sm2_1 Sm2_7 3.559758 1_445
Sm2_2 Sm2_6 3.559757 1_455
Sm2_2 Sm2_6 3.559757 1_555
Sm2_2 Sm2_4 3.559758 1_455
Sm2_2 Sm2_4 3.559758 1_565
Sm2_3 Sm2_7 3.559757 1_555
Sm2_3 Sm2_7 3.559757 1_455
Sm2_3 Sm2_5 3.559758 1_565
Sm2_3 Sm2_5 3.559758 1_455
Sm2_4 Sm2_6 3.559757 1_545
Sm2_4 Sm2_6 3.559757 1_555
Sm2_5 Sm2_7 3.559757 1_555
Sm2_5 Sm2_7 3.559757 1_545
Pu0_0 Sm1_4 3.520218 1_555
Pu0_0 Sm2_4 3.520218 1_555
Pu0_0 Sm1_0 3.520220 1_555
Pu0_0 Sm1_6 3.520220 1_555
Pu0_0 Sm2_0 3.520220 1_555
Pu0_0 Sm2_6 3.520220 1_555
Pu0_0 Pu0_2 3.559757 1_555
Pu0_0 Pu0_4 3.559757 1_455
Pu0_0 Pu0_4 3.559757 1_555
Pu0_0 Pu0_2 3.559757 1_545
Pu0_0 Pu0_6 3.559758 1_445
Pu0_0 Pu0_6 3.559758 1_555
Pu0_1 Sm1_5 3.520218 1_555
Pu0_1 Sm2_5 3.520218 1_555
Pu0_1 Sm1_1 3.520220 1_555
Pu0_1 Sm1_7 3.520220 1_555
Pu0_1 Sm2_1 3.520220 1_555
Pu0_1 Sm2_7 3.520220 1_555
Pu0_1 Pu0_3 3.559757 1_555
Pu0_1 Pu0_5 3.559757 1_455
Pu0_1 Pu0_3 3.559757 1_545
Pu0_1 Pu0_5 3.559757 1_555
Pu0_1 Pu0_7 3.559758 1_445
Pu0_1 Pu0_7 3.559758 1_555
Pu0_2 Sm1_6 3.520218 1_555
Pu0_2 Sm2_6 3.520218 1_555
Pu0_2 Sm1_4 3.520220 1_565
Pu0_2 Sm1_2 3.520220 1_555
Pu0_2 Sm2_2 3.520220 1_555
Pu0_2 Sm2_4 3.520220 1_565
Pu0_2 Pu0_6 3.559757 1_455
Pu0_2 Pu0_6 3.559757 1_555
Pu0_2 Pu0_4 3.559758 1_455
Pu0_2 Pu0_4 3.559758 1_565
Pu0_3 Sm1_7 3.520218 1_555
Pu0_3 Sm2_7 3.520218 1_555
Pu0_3 Sm1_5 3.520220 1_565
Pu0_3 Sm1_3 3.520220 1_555
Pu0_3 Sm2_3 3.520220 1_555
Pu0_3 Sm2_5 3.520220 1_565
Pu0_3 Pu0_7 3.559757 1_455
Pu0_3 Pu0_7 3.559757 1_555
Pu0_3 Pu0_5 3.559758 1_455
Pu0_3 Pu0_5 3.559758 1_565
Pu0_4 Sm1_0 3.520218 1_655
Pu0_4 Sm2_0 3.520218 1_655
Pu0_4 Sm1_2 3.520220 1_655
Pu0_4 Sm1_4 3.520220 1_555
Pu0_4 Sm2_4 3.520220 1_555
Pu0_4 Sm2_2 3.520220 1_655
Pu0_4 Pu0_6 3.559757 1_555
Pu0_4 Pu0_6 3.559757 1_545
Pu0_5 Sm1_1 3.520218 1_655
Pu0_5 Sm2_1 3.520218 1_655
Pu0_5 Sm1_3 3.520220 1_655
Pu0_5 Sm1_5 3.520220 1_555
Pu0_5 Sm2_3 3.520220 1_655
Pu0_5 Sm2_5 3.520220 1_555
Pu0_5 Pu0_7 3.559757 1_555
Pu0_5 Pu0_7 3.559757 1_545
Pu0_6 Sm1_2 3.520218 1_655
Pu0_6 Sm2_2 3.520218 1_655
Pu0_6 Sm1_0 3.520220 1_665
Pu0_6 Sm1_6 3.520220 1_555
Pu0_6 Sm2_6 3.520220 1_555
Pu0_6 Sm2_0 3.520220 1_665
Pu0_7 Sm1_3 3.520218 1_655
Pu0_7 Sm2_3 3.520218 1_655
Pu0_7 Sm1_1 3.520220 1_665
Pu0_7 Sm1_7 3.520220 1_555
Pu0_7 Sm2_7 3.520220 1_555
Pu0_7 Sm2_1 3.520220 1_665
