# generated using pymatgen
data_Ba3MgIrRuO9
_symmetry_space_group_name_H-M   'P 1'
_cell_length_a   5.83254376
_cell_length_b   5.83254376
_cell_length_c   14.44697400
_cell_angle_alpha   90.00000000
_cell_angle_beta   90.00000000
_cell_angle_gamma   119.99999732
_symmetry_Int_Tables_number   1
_chemical_formula_structural   Ba3MgIrRuO9
_chemical_formula_sum   'Ba6 Mg2 Ir2 Ru2 O18'
_cell_volume   425.62148920
_cell_formula_units_Z   2
loop_
 _symmetry_equiv_pos_site_id
 _symmetry_equiv_pos_as_xyz
  1  'x, y, z'
loop_
 _atom_site_type_symbol
 _atom_site_label
 _atom_site_symmetry_multiplicity
 _atom_site_fract_x
 _atom_site_fract_y
 _atom_site_fract_z
 _atom_site_occupancy
  Ba  Ba0  1  0.66666700  0.33333300  0.58879700  1
  Ba  Ba1  1  0.33333300  0.66666700  0.41120300  1
  Ba  Ba2  1  0.33333300  0.66666700  0.08801600  1
  Ba  Ba3  1  0.66666700  0.33333300  0.91198400  1
  Ba  Ba4  1  0.00000000  0.00000000  0.24941200  1
  Ba  Ba5  1  0.00000000  0.00000000  0.75058800  1
  Mg  Mg0  1  0.00000000  0.00000000  0.50000000  1
  Mg  Mg1  1  0.00000000  0.00000000  0.00000000  1
  Ir  Ir0  1  0.33333300  0.66666700  0.84539900  1
  Ir  Ir1  1  0.66666700  0.33333300  0.15460100  1
  Ru  Ru0  1  0.66666700  0.33333300  0.34691800  1
  Ru  Ru1  1  0.33333300  0.66666700  0.65308200  1
  O  O0  1  0.33922100  0.16961000  0.08200200  1
  O  O1  1  0.83039000  0.16961000  0.08200200  1
  O  O2  1  0.83039000  0.66077900  0.08200200  1
  O  O3  1  0.66077900  0.83039000  0.91799800  1
  O  O4  1  0.16961000  0.83039000  0.91799800  1
  O  O5  1  0.16961000  0.33922100  0.91799800  1
  O  O6  1  0.65944000  0.82972000  0.58318100  1
  O  O7  1  0.17028000  0.82972000  0.58318100  1
  O  O8  1  0.17028000  0.34056000  0.58318100  1
  O  O9  1  0.34056000  0.17028000  0.41681900  1
  O  O10  1  0.82972000  0.17028000  0.41681900  1
  O  O11  1  0.82972000  0.65944000  0.41681900  1
  O  O12  1  0.96576000  0.48288000  0.24951500  1
  O  O13  1  0.51712000  0.48288000  0.24951500  1
  O  O14  1  0.51712000  0.03424000  0.24951500  1
  O  O15  1  0.03424000  0.51712000  0.75048500  1
  O  O16  1  0.48288000  0.51712000  0.75048500  1
  O  O17  1  0.48288000  0.96576000  0.75048500  1
loop_
_geom_bond_atom_site_label_1
_geom_bond_atom_site_label_2
_geom_bond_distance
_geom_bond_site_symmetry_2
Ba0 O8 2.917626 1_655
Ba0 O6 2.917626 1_545
Ba0 O7 2.917629 1_655
Ba0 O7 2.917629 1_545
Ba0 O6 2.917632 1_555
Ba0 O8 2.917632 1_555
Ba0 O10 2.980995 1_555
Ba0 O9 2.980997 1_555
Ba0 O11 2.980997 1_555
Ba0 O15 2.983894 1_655
Ba0 O17 2.983894 1_545
Ba0 O16 2.983897 1_555
Ba1 O9 2.917626 1_565
Ba1 O11 2.917626 1_455
Ba1 O10 2.917629 1_565
Ba1 O10 2.917629 1_455
Ba1 O9 2.917632 1_555
Ba1 O11 2.917632 1_555
Ba1 O7 2.980995 1_555
Ba1 O6 2.980997 1_555
Ba1 O8 2.980997 1_555
Ba1 O12 2.983894 1_455
Ba1 O14 2.983894 1_565
Ba1 O13 2.983897 1_555
Ba2 O2 2.917712 1_455
Ba2 O0 2.917712 1_565
Ba2 O1 2.917717 1_455
Ba2 O1 2.917717 1_565
Ba2 O2 2.917723 1_555
Ba2 O0 2.917723 1_555
Ba2 O4 2.961211 1_554
Ba2 O3 2.961211 1_554
Ba2 O5 2.961211 1_554
Ba2 O12 2.981757 1_455
Ba2 O14 2.981757 1_565
Ba2 O13 2.981760 1_555
Ba3 O3 2.917712 1_545
Ba3 O5 2.917712 1_655
Ba3 O4 2.917717 1_545
Ba3 O4 2.917717 1_655
Ba3 O5 2.917723 1_555
Ba3 O3 2.917723 1_555
Ba3 O1 2.961211 1_556
Ba3 O2 2.961211 1_556
Ba3 O0 2.961211 1_556
Ba3 O15 2.981757 1_655
Ba3 O17 2.981757 1_545
Ba3 O16 2.981760 1_555
Ba4 O14 2.921396 1_455
Ba4 O12 2.921396 1_455
Ba4 O14 2.921396 1_555
Ba4 O12 2.921396 1_445
Ba4 O13 2.921396 1_555
Ba4 O13 2.921396 1_445
Ba4 O1 2.964011 1_455
Ba4 O0 2.964014 1_555
Ba4 O2 2.964014 1_445
Ba4 O10 2.967894 1_455
Ba4 O11 2.967894 1_445
Ba4 O9 2.967894 1_555
Ba5 O17 2.921396 1_545
Ba5 O15 2.921396 1_545
Ba5 O17 2.921396 1_445
Ba5 O15 2.921396 1_555
Ba5 O16 2.921396 1_555
Ba5 O16 2.921396 1_445
Ba5 O4 2.964011 1_545
Ba5 O5 2.964014 1_555
Ba5 O3 2.964014 1_445
Ba5 O7 2.967894 1_545
Ba5 O6 2.967894 1_445
Ba5 O8 2.967894 1_555
Mg0 O7 2.098392 1_545
Mg0 O10 2.098392 1_455
Mg0 O6 2.098392 1_445
Mg0 O11 2.098392 1_445
Mg0 O8 2.098392 1_555
Mg0 O9 2.098392 1_555
Mg1 O1 2.083113 1_455
Mg1 O4 2.083113 1_544
Mg1 O2 2.083118 1_445
Mg1 O0 2.083118 1_555
Mg1 O3 2.083118 1_444
Mg1 O5 2.083118 1_554
Ir0 O4 1.958490 1_555
Ir0 O5 1.958490 1_555
Ir0 O3 1.958490 1_555
Ir0 O15 2.040253 1_555
Ir0 O17 2.040253 1_555
Ir0 O16 2.040257 1_555
Ir1 O1 1.958490 1_555
Ir1 O2 1.958490 1_555
Ir1 O0 1.958490 1_555
Ir1 O14 2.040253 1_555
Ir1 O12 2.040253 1_555
Ir1 O13 2.040257 1_555
O6 Ru1 1.932126 1_555
O7 Ru1 1.932122 1_555
O8 Ru1 1.932126 1_555
O9 Ru0 1.932126 1_555
O10 Ru0 1.932122 1_555
O11 Ru0 1.932126 1_555
O12 Ru0 2.064592 1_555
O13 Ru0 2.064596 1_555
O14 Ru0 2.064592 1_555
O15 Ru1 2.064592 1_555
O16 Ru1 2.064596 1_555
O17 Ru1 2.064592 1_555
