# generated using pymatgen
data_Li3Mn4O8
_symmetry_space_group_name_H-M   'P 1'
_cell_length_a   5.72432800
_cell_length_b   9.37672332
_cell_length_c   12.28182166
_cell_angle_alpha   88.59412342
_cell_angle_beta   89.96666794
_cell_angle_gamma   89.81990710
_symmetry_Int_Tables_number   1
_chemical_formula_structural   Li3Mn4O8
_chemical_formula_sum   'Li12 Mn16 O32'
_cell_volume   659.03039699
_cell_formula_units_Z   4
loop_
 _symmetry_equiv_pos_site_id
 _symmetry_equiv_pos_as_xyz
  1  'x, y, z'
loop_
 _atom_site_type_symbol
 _atom_site_label
 _atom_site_symmetry_multiplicity
 _atom_site_fract_x
 _atom_site_fract_y
 _atom_site_fract_z
 _atom_site_occupancy
  Li  Li0  1  0.73942100  0.63867200  0.55062400  1
  Li  Li1  1  0.50806600  0.54216400  0.31226600  1
  Li  Li2  1  0.97641500  0.53966800  0.31379000  1
  Li  Li3  1  0.72887800  0.11329300  0.06443800  1
  Li  Li4  1  0.23992000  0.06550200  0.79487200  1
  Li  Li5  1  0.74777900  0.03293000  0.82409200  1
  Li  Li6  1  0.24071000  0.36142100  0.44956400  1
  Li  Li7  1  0.00635800  0.45867300  0.68765000  1
  Li  Li8  1  0.47499400  0.45961700  0.68640600  1
  Li  Li9  1  0.24082200  0.96720100  0.17566100  1
  Li  Li10  1  0.73165400  0.93402100  0.20514300  1
  Li  Li11  1  0.25283000  0.88674500  0.93570600  1
  Mn  Mn0  1  0.48910400  0.80483500  0.39510300  1
  Mn  Mn1  1  0.99372700  0.80407900  0.39517000  1
  Mn  Mn2  1  0.49256400  0.65203200  0.83595600  1
  Mn  Mn3  1  0.99370600  0.65114900  0.83826900  1
  Mn  Mn4  1  0.99127300  0.34732400  0.16402500  1
  Mn  Mn5  1  0.49242100  0.34970300  0.16181100  1
  Mn  Mn6  1  0.98918900  0.19532100  0.60526000  1
  Mn  Mn7  1  0.49370600  0.19573100  0.60467800  1
  Mn  Mn8  1  0.24266100  0.30502700  0.89896100  1
  Mn  Mn9  1  0.74484100  0.30565300  0.88669300  1
  Mn  Mn10  1  0.24237300  0.14794100  0.32903500  1
  Mn  Mn11  1  0.74059200  0.15930400  0.33567400  1
  Mn  Mn12  1  0.24070400  0.84077100  0.66414900  1
  Mn  Mn13  1  0.74270700  0.85223600  0.67098300  1
  Mn  Mn14  1  0.24022100  0.69428900  0.11321200  1
  Mn  Mn15  1  0.73914200  0.69504100  0.10114800  1
  O  O0  1  0.24359300  0.06741100  0.63915800  1
  O  O1  1  0.74009800  0.06156000  0.65057400  1
  O  O2  1  0.24002600  0.31867200  0.06554900  1
  O  O3  1  0.75022800  0.31489800  0.06056600  1
  O  O4  1  0.25060500  0.68474300  0.93946600  1
  O  O5  1  0.74036700  0.68103400  0.93453200  1
  O  O6  1  0.23919000  0.93847300  0.34918500  1
  O  O7  1  0.74257100  0.93245500  0.36080300  1
  O  O8  1  0.99046400  0.56053300  0.14940500  1
  O  O9  1  0.49207600  0.57002500  0.14964400  1
  O  O10  1  0.97819000  0.80681500  0.56700800  1
  O  O11  1  0.50189400  0.80703600  0.56803900  1
  O  O12  1  0.47765200  0.19284600  0.43288100  1
  O  O13  1  0.00136300  0.19316700  0.43197300  1
  O  O14  1  0.49308600  0.43900600  0.85061100  1
  O  O15  1  0.99472300  0.43065200  0.85049000  1
  O  O16  1  0.49543200  0.16088600  0.88845100  1
  O  O17  1  0.99466500  0.16049800  0.88483200  1
  O  O18  1  0.98694700  0.13624000  0.21668600  1
  O  O19  1  0.50007700  0.12168800  0.22303500  1
  O  O20  1  0.98912800  0.83819000  0.11433800  1
  O  O21  1  0.48818400  0.84040300  0.11185900  1
  O  O22  1  0.48611500  0.86481800  0.78372300  1
  O  O23  1  0.99942400  0.87760200  0.77641000  1
  O  O24  1  0.24263000  0.66181600  0.38062700  1
  O  O25  1  0.74174500  0.65949800  0.39272500  1
  O  O26  1  0.24227300  0.62442900  0.73055700  1
  O  O27  1  0.73972400  0.64093200  0.71954100  1
  O  O28  1  0.24043800  0.34042700  0.60744900  1
  O  O29  1  0.74112100  0.33811400  0.61948700  1
  O  O30  1  0.23851700  0.35916600  0.28054900  1
  O  O31  1  0.74067900  0.37568500  0.26955000  1
loop_
_geom_bond_atom_site_label_1
_geom_bond_atom_site_label_2
_geom_bond_distance
_geom_bond_site_symmetry_2
Li0 O25 1.944364 1_555
Li0 O27 2.075238 1_555
Li0 O11 2.095119 1_555
Li0 O10 2.103286 1_555
Li1 O9 2.010042 1_555
Li1 O25 2.010081 1_555
Li1 O24 2.075189 1_555
Li1 O31 2.124002 1_555
Li1 O30 2.350975 1_555
Li2 O25 2.012299 1_555
Li2 O8 2.025196 1_555
Li2 O24 2.089619 1_655
Li2 O31 2.129640 1_555
Li2 O30 2.302085 1_655
Li3 O3 1.894155 1_555
Li3 O19 2.349396 1_555
Li3 O18 2.397925 1_555
Li3 O16 2.570801 1_554
Li4 O0 1.912200 1_555
Li4 O17 2.005941 1_455
Li4 O16 2.078651 1_555
Li4 O23 2.255242 1_445
Li4 O22 2.354069 1_545
Li5 O17 2.010042 1_555
Li5 O16 2.045797 1_555
Li5 O23 2.137047 1_545
Li5 O1 2.141874 1_555
Li5 O22 2.242383 1_545
Li6 O28 1.944271 1_555
Li6 O30 2.076484 1_555
Li6 O12 2.093387 1_555
Li6 O13 2.107975 1_555
Li7 O28 2.009424 1_555
Li7 O15 2.011847 1_455
Li7 O29 2.083918 1_455
Li7 O26 2.138068 1_555
Li7 O27 2.327963 1_455
Li8 O28 2.014038 1_555
Li8 O14 2.023930 1_555
Li8 O29 2.080343 1_555
Li8 O26 2.117619 1_555
Li8 O27 2.324521 1_555
Li9 O21 2.016552 1_555
Li9 O20 2.040439 1_455
Li9 O6 2.141599 1_555
Li9 O19 2.166850 1_565
Li9 O18 2.214054 1_465
Li10 O7 1.912541 1_555
Li10 O21 2.021018 1_555
Li10 O20 2.064570 1_555
Li10 O19 2.214968 1_565
Li10 O18 2.404574 1_565
Li11 O4 1.893629 1_555
Li11 O22 2.307395 1_555
Li11 O23 2.439574 1_455
Li11 O21 2.576453 1_556
Mn0 O7 1.923568 1_555
Mn0 O24 1.960751 1_555
Mn0 O6 1.972271 1_555
Mn0 O25 1.984703 1_555
Mn0 O11 2.125882 1_555
Mn1 O7 1.912861 1_555
Mn1 O24 1.959812 1_655
Mn1 O6 1.963833 1_655
Mn1 O25 1.983369 1_555
Mn1 O10 2.113086 1_555
Mn2 O5 1.890097 1_555
Mn2 O4 1.908676 1_555
Mn2 O26 1.953560 1_555
Mn2 O14 2.001169 1_555
Mn2 O27 2.015162 1_555
Mn2 O22 2.081016 1_555
Mn3 O5 1.895019 1_555
Mn3 O4 1.957249 1_655
Mn3 O26 1.961952 1_655
Mn3 O27 2.063848 1_555
Mn3 O15 2.069294 1_555
Mn3 O23 2.237923 1_555
Mn4 O2 1.890538 1_655
Mn4 O3 1.906456 1_555
Mn4 O31 1.954617 1_555
Mn4 O8 2.002848 1_555
Mn4 O30 2.018585 1_655
Mn4 O18 2.067350 1_555
Mn5 O2 1.895090 1_555
Mn5 O3 1.960966 1_555
Mn5 O31 1.962150 1_555
Mn5 O30 2.061577 1_555
Mn5 O9 2.067631 1_555
Mn5 O19 2.249241 1_555
Mn6 O0 1.922978 1_655
Mn6 O29 1.959329 1_555
Mn6 O1 1.972828 1_555
Mn6 O28 1.983597 1_655
Mn6 O13 2.129969 1_655
Mn7 O0 1.913647 1_555
Mn7 O1 1.960816 1_555
Mn7 O29 1.960995 1_555
Mn7 O28 1.983362 1_555
Mn7 O12 2.112874 1_555
Mn8 O15 1.926754 1_455
Mn8 O17 1.976339 1_455
Mn8 O16 1.983205 1_555
Mn8 O14 1.989866 1_555
Mn8 O2 2.053175 1_556
Mn9 O15 1.897832 1_555
Mn9 O14 1.949101 1_555
Mn9 O17 1.971655 1_555
Mn9 O16 1.972852 1_555
Mn9 O3 2.139604 1_556
Mn10 O12 1.910447 1_555
Mn10 O13 1.924099 1_555
Mn10 O6 1.973760 1_545
Mn10 O19 1.985659 1_555
Mn10 O18 2.016103 1_455
Mn10 O30 2.054200 1_555
Mn11 O13 1.936852 1_655
Mn11 O12 1.950158 1_555
Mn11 O19 1.990726 1_555
Mn11 O18 2.045076 1_555
Mn11 O7 2.141863 1_545
Mn11 O31 2.166867 1_555
Mn12 O11 1.934464 1_555
Mn12 O10 1.951071 1_455
Mn12 O23 1.986465 1_455
Mn12 O22 2.049812 1_555
Mn12 O0 2.139839 1_565
Mn12 O26 2.167751 1_555
Mn13 O10 1.910565 1_555
Mn13 O11 1.926246 1_555
Mn13 O1 1.972615 1_565
Mn13 O23 1.977933 1_555
Mn13 O22 2.023157 1_555
Mn13 O27 2.055209 1_555
Mn14 O9 1.897627 1_555
Mn14 O8 1.948791 1_455
Mn14 O20 1.968629 1_455
Mn14 O21 1.975654 1_555
Mn14 O4 2.138771 1_554
Mn15 O9 1.924655 1_555
Mn15 O20 1.974515 1_555
Mn15 O21 1.983713 1_555
Mn15 O8 1.991138 1_555
Mn15 O5 2.053778 1_554
