# generated using pymatgen
data_BaNb2Fe2O9
_symmetry_space_group_name_H-M   'P 1'
_cell_length_a   13.49208063
_cell_length_b   13.49208063
_cell_length_c   5.62494200
_cell_angle_alpha   90.00000000
_cell_angle_beta   90.00000000
_cell_angle_gamma   155.94510592
_symmetry_Int_Tables_number   1
_chemical_formula_structural   BaNb2Fe2O9
_chemical_formula_sum   'Ba2 Nb4 Fe4 O18'
_cell_volume   417.37127387
_cell_formula_units_Z   2
loop_
 _symmetry_equiv_pos_site_id
 _symmetry_equiv_pos_as_xyz
  1  'x, y, z'
loop_
 _atom_site_type_symbol
 _atom_site_label
 _atom_site_symmetry_multiplicity
 _atom_site_fract_x
 _atom_site_fract_y
 _atom_site_fract_z
 _atom_site_occupancy
  Ba  Ba0  1  0.75083100  0.75083100  0.53604000  1
  Ba  Ba1  1  0.24916900  0.24916900  0.03604000  1
  Nb  Nb0  1  0.66574400  0.83293100  0.04224900  1
  Nb  Nb1  1  0.83293100  0.66574400  0.04224900  1
  Nb  Nb2  1  0.33425600  0.16706900  0.54224900  1
  Nb  Nb3  1  0.16706900  0.33425600  0.54224900  1
  Fe  Fe0  1  0.52357000  0.97291800  0.00246300  1
  Fe  Fe1  1  0.97291800  0.52357000  0.00246300  1
  Fe  Fe2  1  0.47643000  0.02708200  0.50246300  1
  Fe  Fe3  1  0.02708200  0.47643000  0.50246300  1
  O  O0  1  0.75594800  0.75594800  0.02880300  1
  O  O1  1  0.24405200  0.24405200  0.52880300  1
  O  O2  1  0.58211800  0.89434800  0.01423200  1
  O  O3  1  0.89434800  0.58211800  0.01423200  1
  O  O4  1  0.41788200  0.10565200  0.51423200  1
  O  O5  1  0.10565200  0.41788200  0.51423200  1
  O  O6  1  0.25035900  0.75202700  0.75336300  1
  O  O7  1  0.75202700  0.25035900  0.75336300  1
  O  O8  1  0.74964100  0.24797300  0.25336300  1
  O  O9  1  0.24797300  0.74964100  0.25336300  1
  O  O10  1  0.07681700  0.92175000  0.77452700  1
  O  O11  1  0.92175000  0.07681700  0.77452700  1
  O  O12  1  0.92318300  0.07825000  0.27452700  1
  O  O13  1  0.07825000  0.92318300  0.27452700  1
  O  O14  1  0.57592200  0.42591100  0.77474400  1
  O  O15  1  0.42591100  0.57592200  0.77474400  1
  O  O16  1  0.42407800  0.57408900  0.27474400  1
  O  O17  1  0.57408900  0.42407800  0.27474400  1
loop_
_geom_bond_atom_site_label_1
_geom_bond_atom_site_label_2
_geom_bond_distance
_geom_bond_site_symmetry_2
Ba0 O0 2.771913 1_556
Ba0 O1 2.773664 1_665
Ba0 O14 2.774190 1_555
Ba0 O15 2.774190 1_555
Ba0 O11 2.817519 1_565
Ba0 O10 2.817519 1_655
Ba0 O17 2.842993 1_555
Ba0 O16 2.842993 1_555
Ba0 O1 2.849892 1_555
Ba0 O0 2.853324 1_555
Ba0 O12 2.885353 1_565
Ba0 O13 2.885353 1_655
Ba1 O1 2.771913 1_555
Ba1 O0 2.773664 1_445
Ba1 O17 2.774190 1_555
Ba1 O16 2.774190 1_555
Ba1 O13 2.817519 1_545
Ba1 O12 2.817519 1_455
Ba1 O14 2.842993 1_554
Ba1 O15 2.842993 1_554
Ba1 O0 2.849892 1_555
Ba1 O1 2.853324 1_554
Ba1 O10 2.885353 1_544
Ba1 O11 2.885353 1_454
Nb0 O2 1.921465 1_555
Nb0 O12 1.931482 1_565
Nb0 O16 1.934364 1_555
Nb0 O15 2.065604 1_554
Nb0 O11 2.066067 1_564
Nb0 O0 2.207792 1_555
Nb1 O3 1.921465 1_555
Nb1 O13 1.931482 1_655
Nb1 O17 1.934364 1_555
Nb1 O14 2.065604 1_554
Nb1 O10 2.066067 1_654
Nb1 O0 2.207792 1_555
Nb2 O4 1.921465 1_555
Nb2 O10 1.931482 1_545
Nb2 O14 1.934364 1_555
Nb2 O17 2.065604 1_555
Nb2 O13 2.066067 1_545
Nb2 O1 2.207792 1_555
Nb3 O5 1.921465 1_555
Nb3 O11 1.931482 1_455
Nb3 O15 1.934364 1_555
Nb3 O16 2.065604 1_555
Nb3 O12 2.066067 1_455
Nb3 O1 2.207792 1_555
Fe0 O2 1.811481 1_555
Fe0 O6 2.090386 1_554
Fe0 O8 2.096330 1_565
Fe0 O7 2.098597 1_564
Fe0 O9 2.106097 1_555
Fe1 O3 1.811481 1_555
Fe1 O7 2.090386 1_554
Fe1 O9 2.096330 1_655
Fe1 O6 2.098597 1_654
Fe1 O8 2.106097 1_555
Fe2 O4 1.811481 1_555
Fe2 O8 2.090386 1_555
Fe2 O6 2.096330 1_545
Fe2 O9 2.098597 1_545
Fe2 O7 2.106097 1_555
Fe3 O5 1.811481 1_555
Fe3 O9 2.090386 1_555
Fe3 O7 2.096330 1_455
Fe3 O8 2.098597 1_455
Fe3 O6 2.106097 1_555
