# generated using pymatgen
data_KMnO2
_symmetry_space_group_name_H-M   'P 1'
_cell_length_a   7.04404680
_cell_length_b   7.04404680
_cell_length_c   7.04404680
_cell_angle_alpha   125.90362039
_cell_angle_beta   125.90362039
_cell_angle_gamma   80.04660423
_symmetry_Int_Tables_number   1
_chemical_formula_structural   KMnO2
_chemical_formula_sum   'K4 Mn4 O8'
_cell_volume   221.39010311
_cell_formula_units_Z   4
loop_
 _symmetry_equiv_pos_site_id
 _symmetry_equiv_pos_as_xyz
  1  'x, y, z'
loop_
 _atom_site_type_symbol
 _atom_site_label
 _atom_site_symmetry_multiplicity
 _atom_site_fract_x
 _atom_site_fract_y
 _atom_site_fract_z
 _atom_site_occupancy
  K  K0  1  0.12621900  0.37800700  0.74821100  1
  K  K1  1  0.62979600  0.37800700  0.25178900  1
  K  K2  1  0.62199300  0.37020400  0.74821100  1
  K  K3  1  0.62199300  0.87378100  0.25178900  1
  Mn  Mn0  1  0.11861900  0.86872700  0.24989200  1
  Mn  Mn1  1  0.13127300  0.88138100  0.75010800  1
  Mn  Mn2  1  0.13127300  0.38116500  0.24989200  1
  Mn  Mn3  1  0.61883500  0.86872700  0.75010800  1
  O  O0  1  0.31618200  0.12495300  0.19122900  1
  O  O1  1  0.87504700  0.68381800  0.80877100  1
  O  O2  1  0.87504700  0.06627600  0.19122900  1
  O  O3  1  0.93372400  0.12495300  0.80877100  1
  O  O4  1  0.36687300  0.05950800  0.69263500  1
  O  O5  1  0.94049200  0.63312700  0.30736500  1
  O  O6  1  0.32576100  0.63312700  0.69263500  1
  O  O7  1  0.36687300  0.67423900  0.30736500  1
loop_
_geom_bond_atom_site_label_1
_geom_bond_atom_site_label_2
_geom_bond_distance
_geom_bond_site_symmetry_2
K0 O2 2.538211 1_455
K0 O1 2.538216 1_455
K0 O4 2.548288 1_555
K0 O7 2.548293 1_556
K0 O3 2.757488 1_455
K0 O6 2.775266 1_555
K1 O2 2.538211 1_555
K1 O1 2.538211 1_555
K1 O4 2.548292 1_554
K1 O7 2.548297 1_555
K1 O0 2.757483 1_555
K1 O5 2.775276 1_555
K2 O0 2.538211 1_555
K2 O3 2.538211 1_555
K2 O5 2.548292 1_556
K2 O6 2.548297 1_555
K2 O1 2.757483 1_555
K2 O4 2.775276 1_555
K3 O3 2.538211 1_565
K3 O0 2.538216 1_565
K3 O5 2.548288 1_555
K3 O6 2.548293 1_554
K3 O2 2.757488 1_565
K3 O7 2.775266 1_555
Mn0 O2 2.017033 1_465
Mn0 O1 2.017033 1_454
Mn0 O7 2.022557 1_555
Mn0 O4 2.022561 1_565
Mn0 O5 2.568282 1_455
Mn0 O0 2.789705 1_565
Mn1 O0 2.017033 1_566
Mn1 O3 2.017033 1_465
Mn1 O6 2.022557 1_555
Mn1 O5 2.022561 1_455
Mn1 O4 2.568282 1_565
Mn1 O1 2.789705 1_455
Mn2 O0 2.017033 1_555
Mn2 O3 2.017033 1_454
Mn2 O5 2.022561 1_455
Mn2 O6 2.022562 1_555
Mn2 O7 2.568288 1_555
Mn2 O2 2.789705 1_455
Mn3 O1 2.017033 1_555
Mn3 O2 2.017033 1_566
Mn3 O4 2.022561 1_565
Mn3 O7 2.022562 1_555
Mn3 O6 2.568288 1_555
Mn3 O3 2.789705 1_565
