# generated using pymatgen
data_BaEuSnBiO6
_symmetry_space_group_name_H-M   'P 1'
_cell_length_a   8.68164452
_cell_length_b   8.65252172
_cell_length_c   8.48530605
_cell_angle_alpha   90.00000000
_cell_angle_beta   90.00000000
_cell_angle_gamma   90.00000000
_symmetry_Int_Tables_number   1
_chemical_formula_structural   BaEuSnBiO6
_chemical_formula_sum   'Ba4 Eu4 Sn4 Bi4 O24'
_cell_volume   637.40021922
_cell_formula_units_Z   4
loop_
 _symmetry_equiv_pos_site_id
 _symmetry_equiv_pos_as_xyz
  1  'x, y, z'
loop_
 _atom_site_type_symbol
 _atom_site_label
 _atom_site_symmetry_multiplicity
 _atom_site_fract_x
 _atom_site_fract_y
 _atom_site_fract_z
 _atom_site_occupancy
  Ba  Ba0  1  -0.00000000  -0.00000000  -0.00000000  1
  Ba  Ba1  1  0.50000000  0.50000000  0.50000000  1
  Ba  Ba2  1  0.50000000  -0.00000000  0.50000000  1
  Ba  Ba3  1  -0.00000000  0.50000000  0.00000000  1
  Eu  Eu0  1  -0.00000000  0.50000000  0.50000000  1
  Eu  Eu1  1  0.50000000  0.50000000  0.00000000  1
  Eu  Eu2  1  0.50000000  -0.00000000  -0.00000000  1
  Eu  Eu3  1  -0.00000000  -0.00000000  0.50000000  1
  Sn  Sn0  1  0.25000000  0.25000000  0.25000000  1
  Sn  Sn1  1  0.75000000  0.75000000  0.25000000  1
  Sn  Sn2  1  0.75000000  0.25000000  0.75000000  1
  Sn  Sn3  1  0.25000000  0.75000000  0.75000000  1
  Bi  Bi0  1  0.75000000  0.75000000  0.75000000  1
  Bi  Bi1  1  0.25000000  0.25000000  0.75000000  1
  Bi  Bi2  1  0.25000000  0.75000000  0.25000000  1
  Bi  Bi3  1  0.75000000  0.25000000  0.25000000  1
  O  O0  1  0.01226518  0.19521403  0.29686252  1
  O  O1  1  0.98773482  0.80478597  0.29686252  1
  O  O2  1  0.98773482  0.19521403  0.70313748  1
  O  O3  1  0.01226518  0.80478597  0.70313748  1
  O  O4  1  0.29661660  0.01236920  0.19461658  1
  O  O5  1  0.29661660  0.98763080  0.80538342  1
  O  O6  1  0.70338340  0.98763080  0.19461658  1
  O  O7  1  0.70338340  0.01236920  0.80538342  1
  O  O8  1  0.20601757  0.28702633  0.01383477  1
  O  O9  1  0.79398243  0.28702633  0.98616523  1
  O  O10  1  0.20601757  0.71297367  0.98616523  1
  O  O11  1  0.79398243  0.71297367  0.01383477  1
  O  O12  1  0.48773482  0.30478597  0.20313748  1
  O  O13  1  0.51226518  0.69521403  0.20313748  1
  O  O14  1  0.51226518  0.30478597  0.79686252  1
  O  O15  1  0.48773482  0.69521403  0.79686252  1
  O  O16  1  0.20338340  0.48763080  0.30538342  1
  O  O17  1  0.20338340  0.51236920  0.69461658  1
  O  O18  1  0.79661660  0.51236920  0.30538342  1
  O  O19  1  0.79661660  0.48763080  0.69461658  1
  O  O20  1  0.29398243  0.21297367  0.48616523  1
  O  O21  1  0.70601757  0.21297367  0.51383477  1
  O  O22  1  0.29398243  0.78702633  0.51383477  1
  O  O23  1  0.70601757  0.78702633  0.48616523  1
loop_
_geom_bond_atom_site_label_1
_geom_bond_atom_site_label_2
_geom_bond_distance
_geom_bond_site_symmetry_2
Ba0 O1 3.034729 1_445
Ba0 O0 3.034729 1_555
Ba0 O2 3.034729 1_454
Ba0 O3 3.034729 1_544
Ba0 O7 3.061006 1_454
Ba0 O4 3.061006 1_555
Ba0 O6 3.061006 1_445
Ba0 O5 3.061006 1_544
Ba0 O9 3.062768 1_454
Ba0 O11 3.062768 1_445
Ba0 O10 3.062768 1_544
Ba0 O8 3.062768 1_555
Ba1 O15 3.034729 1_555
Ba1 O14 3.034729 1_555
Ba1 O13 3.034729 1_555
Ba1 O12 3.034729 1_555
Ba1 O18 3.061006 1_555
Ba1 O16 3.061006 1_555
Ba1 O19 3.061006 1_555
Ba1 O17 3.061006 1_555
Ba1 O21 3.062768 1_555
Ba1 O22 3.062768 1_555
Ba1 O20 3.062768 1_555
Ba1 O23 3.062768 1_555
Ba2 O20 2.570706 1_555
Ba2 O22 2.570706 1_545
Ba2 O21 2.570706 1_555
Ba2 O23 2.570706 1_545
Ba2 O4 3.137491 1_555
Ba2 O6 3.137491 1_545
Ba2 O7 3.137491 1_555
Ba2 O5 3.137491 1_545
Ba3 O10 2.570706 1_554
Ba3 O11 2.570706 1_455
Ba3 O9 2.570706 1_454
Ba3 O8 2.570706 1_555
Ba3 O17 3.137491 1_554
Ba3 O18 3.137491 1_455
Ba3 O19 3.137491 1_454
Ba3 O16 3.137491 1_555
Eu0 O18 2.419963 1_455
Eu0 O19 2.419963 1_455
Eu0 O16 2.419963 1_555
Eu0 O17 2.419963 1_555
Eu0 O3 3.152313 1_555
Eu0 O0 3.152313 1_555
Eu0 O1 3.152313 1_455
Eu0 O2 3.152313 1_455
Eu1 O12 2.415670 1_555
Eu1 O14 2.415670 1_554
Eu1 O15 2.415670 1_554
Eu1 O13 2.415670 1_555
Eu2 O7 2.419963 1_554
Eu2 O4 2.419963 1_555
Eu2 O5 2.419963 1_544
Eu2 O6 2.419963 1_545
Eu2 O14 3.152313 1_554
Eu2 O13 3.152313 1_545
Eu2 O15 3.152313 1_544
Eu2 O12 3.152313 1_555
Eu3 O0 2.415670 1_555
Eu3 O2 2.415670 1_455
Eu3 O3 2.415670 1_545
Eu3 O1 2.415670 1_445
Bi0 O23 2.293535 1_555
Bi0 O11 2.293535 1_556
Bi0 O7 2.353347 1_565
Bi0 O19 2.353347 1_555
Bi0 O3 2.359464 1_655
Bi0 O15 2.359464 1_555
Bi1 O20 2.293535 1_555
Bi1 O8 2.293535 1_556
Bi1 O17 2.353347 1_555
Bi1 O5 2.353347 1_545
Bi1 O2 2.359464 1_455
Bi1 O14 2.359464 1_555
Bi2 O22 2.293535 1_555
Bi2 O10 2.293535 1_554
Bi2 O4 2.353347 1_565
Bi2 O16 2.353347 1_555
Bi2 O13 2.359464 1_555
Bi2 O1 2.359464 1_455
Bi3 O21 2.293535 1_555
Bi3 O9 2.293535 1_554
Bi3 O18 2.353347 1_555
Bi3 O6 2.353347 1_545
Bi3 O12 2.359464 1_555
Bi3 O0 2.359464 1_655
O0 Sn0 2.154677 1_555
O1 Sn1 2.154677 1_555
O2 Sn2 2.154677 1_555
O3 Sn3 2.154677 1_555
O4 Sn0 2.147605 1_555
O5 Sn3 2.147605 1_555
O6 Sn1 2.147605 1_555
O7 Sn2 2.147605 1_555
O8 Sn0 2.064992 1_555
O9 Sn2 2.064992 1_555
O10 Sn3 2.064992 1_555
O11 Sn1 2.064992 1_555
O12 Sn0 2.154677 1_555
O13 Sn1 2.154677 1_555
O14 Sn2 2.154677 1_555
O15 Sn3 2.154677 1_555
O16 Sn0 2.147605 1_555
O17 Sn3 2.147605 1_555
O18 Sn1 2.147605 1_555
O19 Sn2 2.147605 1_555
O20 Sn0 2.064992 1_555
O21 Sn2 2.064992 1_555
O22 Sn3 2.064992 1_555
O23 Sn1 2.064992 1_555
