# generated using pymatgen
data_Ba2H8PtO8
_symmetry_space_group_name_H-M   'P 1'
_cell_length_a   8.70697800
_cell_length_b   8.92404800
_cell_length_c   10.46890200
_cell_angle_alpha   90.00000000
_cell_angle_beta   90.00000000
_cell_angle_gamma   90.00000000
_symmetry_Int_Tables_number   1
_chemical_formula_structural   Ba2H8PtO8
_chemical_formula_sum   'Ba8 H32 Pt4 O32'
_cell_volume   813.44927995
_cell_formula_units_Z   4
loop_
 _symmetry_equiv_pos_site_id
 _symmetry_equiv_pos_as_xyz
  1  'x, y, z'
loop_
 _atom_site_type_symbol
 _atom_site_label
 _atom_site_symmetry_multiplicity
 _atom_site_fract_x
 _atom_site_fract_y
 _atom_site_fract_z
 _atom_site_occupancy
  Ba  Ba0  1  0.78026700  0.28272600  0.22588600  1
  Ba  Ba1  1  0.28026700  0.21727400  0.77411400  1
  Ba  Ba2  1  0.21973300  0.78272600  0.27411400  1
  Ba  Ba3  1  0.71973300  0.71727400  0.72588600  1
  Ba  Ba4  1  0.21973300  0.71727400  0.77411400  1
  Ba  Ba5  1  0.71973300  0.78272600  0.22588600  1
  Ba  Ba6  1  0.78026700  0.21727400  0.72588600  1
  Ba  Ba7  1  0.28026700  0.28272600  0.27411400  1
  H  H0  1  0.52659200  0.51437000  0.40958800  1
  H  H1  1  0.02659200  0.98563000  0.59041200  1
  H  H2  1  0.47340800  0.01437000  0.09041200  1
  H  H3  1  0.97340800  0.48563000  0.90958800  1
  H  H4  1  0.47340800  0.48563000  0.59041200  1
  H  H5  1  0.97340800  0.01437000  0.40958800  1
  H  H6  1  0.52659200  0.98563000  0.90958800  1
  H  H7  1  0.02659200  0.51437000  0.09041200  1
  H  H8  1  0.51386700  0.01599200  0.26208500  1
  H  H9  1  0.01386700  0.48400800  0.73791500  1
  H  H10  1  0.48613300  0.51599200  0.23791500  1
  H  H11  1  0.98613300  0.98400800  0.76208500  1
  H  H12  1  0.48613300  0.98400800  0.73791500  1
  H  H13  1  0.98613300  0.51599200  0.26208500  1
  H  H14  1  0.51386700  0.48400800  0.76208500  1
  H  H15  1  0.01386700  0.01599200  0.23791500  1
  H  H16  1  0.71462900  0.04397500  0.99246700  1
  H  H17  1  0.21462900  0.45602500  0.00753300  1
  H  H18  1  0.28537100  0.54397500  0.50753300  1
  H  H19  1  0.78537100  0.95602500  0.49246700  1
  H  H20  1  0.28537100  0.95602500  0.00753300  1
  H  H21  1  0.78537100  0.54397500  0.99246700  1
  H  H22  1  0.71462900  0.45602500  0.49246700  1
  H  H23  1  0.21462900  0.04397500  0.50753300  1
  H  H24  1  0.02378800  0.21908000  0.50520700  1
  H  H25  1  0.52378800  0.28092000  0.49479300  1
  H  H26  1  0.97621200  0.71908000  0.99479300  1
  H  H27  1  0.47621200  0.78092000  0.00520700  1
  H  H28  1  0.97621200  0.78092000  0.49479300  1
  H  H29  1  0.47621200  0.71908000  0.50520700  1
  H  H30  1  0.02378800  0.28092000  0.00520700  1
  H  H31  1  0.52378800  0.21908000  0.99479300  1
  Pt  Pt0  1  0.50000000  0.00000000  0.50000000  1
  Pt  Pt1  1  0.00000000  0.50000000  0.50000000  1
  Pt  Pt2  1  0.50000000  0.50000000  0.00000000  1
  Pt  Pt3  1  0.00000000  0.00000000  0.00000000  1
  O  O0  1  0.55890900  0.41969300  0.37161600  1
  O  O1  1  0.05890900  0.08030700  0.62838400  1
  O  O2  1  0.44109100  0.91969300  0.12838400  1
  O  O3  1  0.94109100  0.58030700  0.87161600  1
  O  O4  1  0.44109100  0.58030700  0.62838400  1
  O  O5  1  0.94109100  0.91969300  0.37161600  1
  O  O6  1  0.55890900  0.08030700  0.87161600  1
  O  O7  1  0.05890900  0.41969300  0.12838400  1
  O  O8  1  0.57637900  0.07186100  0.32643000  1
  O  O9  1  0.07637900  0.42813900  0.67357000  1
  O  O10  1  0.42362100  0.57186100  0.17357000  1
  O  O11  1  0.92362100  0.92813900  0.82643000  1
  O  O12  1  0.42362100  0.92813900  0.67357000  1
  O  O13  1  0.92362100  0.57186100  0.32643000  1
  O  O14  1  0.57637900  0.42813900  0.82643000  1
  O  O15  1  0.07637900  0.07186100  0.17357000  1
  O  O16  1  0.78199800  0.02805500  0.06777600  1
  O  O17  1  0.28199800  0.47194500  0.93222400  1
  O  O18  1  0.21800200  0.52805500  0.43222400  1
  O  O19  1  0.71800200  0.97194500  0.56777600  1
  O  O20  1  0.21800200  0.97194500  0.93222400  1
  O  O21  1  0.71800200  0.52805500  0.06777600  1
  O  O22  1  0.78199800  0.47194500  0.56777600  1
  O  O23  1  0.28199800  0.02805500  0.43222400  1
  O  O24  1  0.00105700  0.28516300  0.43005600  1
  O  O25  1  0.50105700  0.21483700  0.56994400  1
  O  O26  1  0.99894300  0.78516300  0.06994400  1
  O  O27  1  0.49894300  0.71483700  0.93005600  1
  O  O28  1  0.99894300  0.71483700  0.56994400  1
  O  O29  1  0.49894300  0.78516300  0.43005600  1
  O  O30  1  0.00105700  0.21483700  0.93005600  1
  O  O31  1  0.50105700  0.28516300  0.06994400  1
loop_
_geom_bond_atom_site_label_1
_geom_bond_atom_site_label_2
_geom_bond_distance
_geom_bond_site_symmetry_2
Ba0 O0 2.745230 1_555
Ba0 H13 2.773075 1_555
Ba0 O8 2.792937 1_555
Ba0 O21 2.797657 1_555
Ba0 O16 2.811617 1_555
Ba0 O24 2.874853 1_655
Ba0 O7 2.902074 1_655
Ba0 O31 2.928445 1_555
Ba1 O1 2.745230 1_555
Ba1 H12 2.773075 1_545
Ba1 O9 2.792937 1_555
Ba1 O20 2.797657 1_545
Ba1 O17 2.811617 1_555
Ba1 O25 2.874853 1_555
Ba1 O6 2.902074 1_555
Ba1 O30 2.928445 1_555
Ba2 O2 2.745230 1_555
Ba2 H15 2.773075 1_565
Ba2 O10 2.792937 1_555
Ba2 O23 2.797657 1_565
Ba2 O18 2.811617 1_555
Ba2 O26 2.874853 1_455
Ba2 O5 2.902074 1_455
Ba2 O29 2.928445 1_555
Ba3 O3 2.745230 1_555
Ba3 H14 2.773075 1_555
Ba3 O11 2.792937 1_555
Ba3 O22 2.797657 1_555
Ba3 O19 2.811617 1_555
Ba3 O27 2.874853 1_555
Ba3 O4 2.902074 1_555
Ba3 O28 2.928445 1_555
Ba4 O4 2.745230 1_555
Ba4 H9 2.773075 1_555
Ba4 O12 2.792937 1_555
Ba4 O17 2.797657 1_555
Ba4 O20 2.811617 1_555
Ba4 O28 2.874853 1_455
Ba4 O3 2.902074 1_455
Ba4 O27 2.928445 1_555
Ba5 O5 2.745230 1_555
Ba5 H8 2.773075 1_565
Ba5 O13 2.792937 1_555
Ba5 O16 2.797657 1_565
Ba5 O21 2.811617 1_555
Ba5 O29 2.874853 1_555
Ba5 O2 2.902074 1_555
Ba5 O26 2.928445 1_555
Ba6 O6 2.745230 1_555
Ba6 H11 2.773075 1_545
Ba6 O14 2.792937 1_555
Ba6 O19 2.797657 1_545
Ba6 O22 2.811617 1_555
Ba6 O30 2.874853 1_655
Ba6 O1 2.902074 1_655
Ba6 O25 2.928445 1_555
Ba7 O7 2.745230 1_555
Ba7 H10 2.773075 1_555
Ba7 O15 2.792937 1_555
Ba7 O18 2.797657 1_555
Ba7 O23 2.811617 1_555
Ba7 O31 2.874853 1_555
Ba7 O0 2.902074 1_555
Ba7 O24 2.928445 1_555
H0 O0 0.975224 1_555
H1 O1 0.975224 1_565
H2 O2 0.975224 1_545
H3 O3 0.975224 1_555
H4 O4 0.975224 1_555
H5 O5 0.975224 1_545
H6 O6 0.975224 1_565
H7 O7 0.975224 1_555
H8 O8 0.999299 1_555
H9 O9 0.999299 1_555
H10 O10 0.999299 1_555
H11 O11 0.999299 1_555
H12 O12 0.999299 1_555
H13 O13 0.999299 1_555
H14 O14 0.999299 1_555
H15 O15 0.999299 1_555
H16 O16 0.992894 1_556
H17 O17 0.992894 1_554
H18 O18 0.992894 1_555
H19 O19 0.992894 1_555
H20 O20 0.992894 1_554
H21 O21 0.992894 1_556
H22 O22 0.992894 1_555
H23 O23 0.992894 1_555
H24 O24 1.002957 1_555
H25 O25 1.002957 1_555
H26 O26 1.002957 1_556
H27 O27 1.002957 1_554
H28 O28 1.002957 1_555
H29 O29 1.002957 1_555
H30 O30 1.002957 1_554
H31 O31 1.002957 1_556
O8 Pt0 2.038462 1_555
O9 Pt1 2.038462 1_555
O10 Pt2 2.038462 1_555
O11 Pt3 2.038462 1_666
O12 Pt0 2.038462 1_565
O13 Pt1 2.038462 1_655
O14 Pt2 2.038462 1_556
O15 Pt3 2.038462 1_555
O16 Pt3 2.041828 1_655
O17 Pt2 2.041828 1_556
O18 Pt1 2.041828 1_555
O19 Pt0 2.041828 1_565
O20 Pt3 2.041828 1_566
O21 Pt2 2.041828 1_555
O22 Pt1 2.041828 1_655
O23 Pt0 2.041828 1_555
O24 Pt1 2.052309 1_555
O25 Pt0 2.052309 1_555
O26 Pt3 2.052309 1_665
O27 Pt2 2.052309 1_556
O28 Pt1 2.052309 1_655
O29 Pt0 2.052309 1_565
O30 Pt3 2.052309 1_556
O31 Pt2 2.052309 1_555
