# generated using pymatgen
data_CeFeCo
_symmetry_space_group_name_H-M   'P 1'
_cell_length_a   5.05780530
_cell_length_b   5.05780530
_cell_length_c   5.05780530
_cell_angle_alpha   121.93897786
_cell_angle_beta   118.09310423
_cell_angle_gamma   90.00449936
_symmetry_Int_Tables_number   1
_chemical_formula_structural   CeFeCo
_chemical_formula_sum   'Ce2 Fe2 Co2'
_cell_volume   91.33852447
_cell_formula_units_Z   2
loop_
 _symmetry_equiv_pos_site_id
 _symmetry_equiv_pos_as_xyz
  1  'x, y, z'
loop_
 _atom_site_type_symbol
 _atom_site_label
 _atom_site_symmetry_multiplicity
 _atom_site_fract_x
 _atom_site_fract_y
 _atom_site_fract_z
 _atom_site_occupancy
  Ce  Ce0  1  0.12474800  0.87474800  0.25000000  1
  Ce  Ce1  1  0.87525200  0.12525200  0.75000000  1
  Fe  Fe0  1  0.50000000  0.00000000  0.00000000  1
  Fe  Fe1  1  0.50000000  0.50000000  0.50000000  1
  Co  Co0  1  0.00000000  0.50000000  0.50000000  1
  Co  Co1  1  0.50000000  0.50000000  0.00000000  1
loop_
_geom_bond_atom_site_label_1
_geom_bond_atom_site_label_2
_geom_bond_distance
_geom_bond_site_symmetry_2
Ce0 Co1 2.918676 1_566
Ce0 Co0 2.918676 1_554
Ce0 Co1 2.918676 1_555
Ce0 Co0 2.918676 1_565
Ce0 Fe1 2.951259 1_565
Ce0 Fe0 2.951259 1_565
Ce0 Co0 2.979330 1_555
Ce0 Co1 2.979330 1_455
Ce0 Fe0 3.011590 1_566
Ce0 Fe1 3.011590 1_555
Ce0 Fe1 3.011590 1_454
Ce0 Fe0 3.011590 1_465
Ce1 Co1 2.918676 1_556
Ce1 Co0 2.918676 1_656
Ce1 Co1 2.918676 1_545
Ce1 Co0 2.918676 1_645
Ce1 Fe0 2.951259 1_556
Ce1 Fe1 2.951259 1_545
Ce1 Co0 2.979330 1_655
Ce1 Co1 2.979330 1_656
Ce1 Fe1 3.011590 1_555
Ce1 Fe0 3.011590 1_555
Ce1 Fe1 3.011590 1_656
Ce1 Fe0 3.011590 1_656
Fe0 Fe1 2.454428 1_544
Fe0 Fe1 2.454428 1_555
Co0 Fe0 2.528903 1_455
Co0 Fe1 2.528903 1_455
Co0 Fe0 2.528903 1_566
Co0 Fe1 2.528903 1_555
Co0 Co1 2.601439 1_455
Co0 Co1 2.601439 1_556
Co1 Fe1 2.528903 1_554
Co1 Fe0 2.528903 1_555
Co1 Fe0 2.528903 1_565
Co1 Fe1 2.528903 1_555
