# generated using pymatgen
data_Pr2Ni7
_symmetry_space_group_name_H-M   'P 1'
_cell_length_a   5.06605900
_cell_length_b   5.06605806
_cell_length_c   24.67016300
_cell_angle_alpha   90.00000000
_cell_angle_beta   90.00000000
_cell_angle_gamma   119.99999958
_symmetry_Int_Tables_number   1
_chemical_formula_structural   Pr2Ni7
_chemical_formula_sum   'Pr8 Ni28'
_cell_volume   548.33132766
_cell_formula_units_Z   4
loop_
 _symmetry_equiv_pos_site_id
 _symmetry_equiv_pos_as_xyz
  1  'x, y, z'
loop_
 _atom_site_type_symbol
 _atom_site_label
 _atom_site_symmetry_multiplicity
 _atom_site_fract_x
 _atom_site_fract_y
 _atom_site_fract_z
 _atom_site_occupancy
  Pr  Pr0  1  0.33333300  0.66666700  0.47016400  1
  Pr  Pr1  1  0.66666700  0.33333300  0.52983600  1
  Pr  Pr2  1  0.66666700  0.33333300  0.97016400  1
  Pr  Pr3  1  0.33333300  0.66666700  0.02983600  1
  Pr  Pr4  1  0.33333300  0.66666700  0.32558000  1
  Pr  Pr5  1  0.66666700  0.33333300  0.67442000  1
  Pr  Pr6  1  0.66666700  0.33333300  0.82558000  1
  Pr  Pr7  1  0.33333300  0.66666700  0.17442000  1
  Ni  Ni0  1  0.00000000  0.00000000  0.50000000  1
  Ni  Ni1  1  0.00000000  0.00000000  0.00000000  1
  Ni  Ni2  1  0.83311800  0.16688200  0.25000000  1
  Ni  Ni3  1  0.83311800  0.66623500  0.25000000  1
  Ni  Ni4  1  0.33376500  0.16688200  0.25000000  1
  Ni  Ni5  1  0.16688200  0.83311800  0.75000000  1
  Ni  Ni6  1  0.16688200  0.33376500  0.75000000  1
  Ni  Ni7  1  0.66623500  0.83311800  0.75000000  1
  Ni  Ni8  1  0.83395100  0.16604900  0.41245400  1
  Ni  Ni9  1  0.83395100  0.66790100  0.41245400  1
  Ni  Ni10  1  0.33209900  0.16604900  0.41245400  1
  Ni  Ni11  1  0.16604900  0.83395100  0.58754600  1
  Ni  Ni12  1  0.16604900  0.33209900  0.58754600  1
  Ni  Ni13  1  0.66790100  0.83395100  0.58754600  1
  Ni  Ni14  1  0.16604900  0.83395100  0.91245400  1
  Ni  Ni15  1  0.16604900  0.33209900  0.91245400  1
  Ni  Ni16  1  0.66790100  0.83395100  0.91245400  1
  Ni  Ni17  1  0.83395100  0.16604900  0.08754600  1
  Ni  Ni18  1  0.83395100  0.66790100  0.08754600  1
  Ni  Ni19  1  0.33209900  0.16604900  0.08754600  1
  Ni  Ni20  1  0.00000000  0.00000000  0.33100200  1
  Ni  Ni21  1  0.00000000  0.00000000  0.66899800  1
  Ni  Ni22  1  0.00000000  0.00000000  0.83100200  1
  Ni  Ni23  1  0.00000000  0.00000000  0.16899800  1
  Ni  Ni24  1  0.33333300  0.66666700  0.66753600  1
  Ni  Ni25  1  0.66666700  0.33333300  0.33246400  1
  Ni  Ni26  1  0.66666700  0.33333300  0.16753600  1
  Ni  Ni27  1  0.33333300  0.66666700  0.83246400  1
loop_
_geom_bond_atom_site_label_1
_geom_bond_atom_site_label_2
_geom_bond_distance
_geom_bond_site_symmetry_2
Ni0 Ni8 2.605292 1_455
Ni0 Ni11 2.605292 1_545
Ni0 Ni12 2.605294 1_555
Ni0 Ni9 2.605294 1_445
Ni0 Ni10 2.605295 1_555
Ni0 Ni13 2.605295 1_445
Ni0 Pr0 3.016082 1_545
Ni0 Pr1 3.016082 1_455
Ni0 Pr1 3.016086 1_445
Ni0 Pr0 3.016086 1_555
Ni0 Pr0 3.016086 1_445
Ni0 Pr1 3.016086 1_555
Ni1 Ni17 2.605292 1_455
Ni1 Ni14 2.605292 1_544
Ni1 Ni15 2.605294 1_554
Ni1 Ni18 2.605294 1_445
Ni1 Ni19 2.605295 1_555
Ni1 Ni16 2.605295 1_444
Ni1 Pr3 3.016082 1_545
Ni1 Pr2 3.016082 1_454
Ni1 Pr2 3.016086 1_444
Ni1 Pr3 3.016086 1_555
Ni1 Pr2 3.016086 1_554
Ni1 Pr3 3.016086 1_445
Ni2 Ni23 2.477420 1_655
Ni2 Ni20 2.477420 1_655
Ni2 Ni25 2.504396 1_555
Ni2 Ni26 2.504396 1_555
Ni2 Ni3 2.529751 1_555
Ni2 Ni4 2.529752 1_555
Ni2 Ni3 2.536307 1_545
Ni2 Ni4 2.536307 1_655
Ni2 Pr4 3.145293 1_545
Ni2 Pr7 3.145293 1_545
Ni2 Pr4 3.145293 1_655
Ni2 Pr7 3.145293 1_655
Ni3 Ni4 2.529752 1_555
Ni3 Ni4 2.536307 1_665
Ni3 Pr4 3.145289 1_655
Ni3 Pr7 3.145289 1_655
Ni3 Pr4 3.145297 1_555
Ni3 Pr7 3.145297 1_555
Ni4 Pr4 3.145288 1_545
Ni4 Pr7 3.145288 1_545
Ni4 Pr4 3.145296 1_555
Ni4 Pr7 3.145296 1_555
Ni5 Ni6 2.529751 1_555
Ni5 Ni7 2.529752 1_555
Ni5 Ni6 2.536307 1_565
Ni5 Ni7 2.536307 1_455
Ni5 Pr6 3.145293 1_565
Ni5 Pr5 3.145293 1_565
Ni5 Pr5 3.145293 1_455
Ni5 Pr6 3.145293 1_455
Ni6 Ni7 2.529752 1_555
Ni6 Ni7 2.536307 1_445
Ni6 Pr6 3.145289 1_455
Ni6 Pr5 3.145289 1_455
Ni6 Pr6 3.145297 1_555
Ni6 Pr5 3.145297 1_555
Ni7 Pr5 3.145288 1_565
Ni7 Pr6 3.145288 1_565
Ni7 Pr5 3.145296 1_555
Ni7 Pr6 3.145296 1_555
Ni8 Ni9 2.523647 1_545
Ni8 Ni9 2.542411 1_555
Ni8 Pr0 2.905724 1_655
Ni8 Pr0 2.905724 1_545
Ni8 Pr1 3.246609 1_555
Ni8 Pr4 3.318065 1_655
Ni8 Pr4 3.318065 1_545
Ni9 Pr0 2.905720 1_655
Ni9 Pr0 2.905729 1_555
Ni9 Pr1 3.246609 1_555
Ni9 Pr4 3.318061 1_655
Ni9 Pr4 3.318069 1_555
Ni10 Ni25 2.459430 1_555
Ni10 Ni20 2.482088 1_555
Ni10 Ni9 2.523647 1_445
Ni10 Ni8 2.523647 1_455
Ni10 Ni9 2.542412 1_555
Ni10 Ni8 2.542412 1_555
Ni10 Pr0 2.905719 1_545
Ni10 Pr0 2.905728 1_555
Ni10 Pr1 3.246609 1_555
Ni10 Pr4 3.318061 1_545
Ni10 Pr4 3.318069 1_555
Ni11 Ni24 2.459430 1_555
Ni11 Ni21 2.482085 1_565
Ni11 Ni12 2.523647 1_565
Ni11 Ni13 2.523647 1_455
Ni11 Ni12 2.542411 1_555
Ni11 Ni13 2.542412 1_555
Ni11 Pr1 2.905724 1_455
Ni11 Pr1 2.905724 1_565
Ni11 Pr0 3.246609 1_555
Ni11 Pr5 3.318065 1_455
Ni11 Pr5 3.318065 1_565
Ni12 Ni24 2.459429 1_555
Ni12 Ni21 2.482088 1_555
Ni12 Ni13 2.523647 1_445
Ni12 Ni13 2.542412 1_555
Ni12 Pr1 2.905720 1_455
Ni12 Pr1 2.905729 1_555
Ni12 Pr0 3.246609 1_555
Ni12 Pr5 3.318061 1_455
Ni12 Pr5 3.318069 1_555
Ni13 Ni24 2.459430 1_555
Ni13 Ni21 2.482088 1_665
Ni13 Pr1 2.905719 1_565
Ni13 Pr1 2.905728 1_555
Ni13 Pr0 3.246609 1_555
Ni13 Pr5 3.318061 1_565
Ni13 Pr5 3.318069 1_555
Ni14 Ni27 2.459430 1_555
Ni14 Ni22 2.482085 1_565
Ni14 Ni15 2.523647 1_565
Ni14 Ni16 2.523647 1_455
Ni14 Ni15 2.542411 1_555
Ni14 Ni16 2.542412 1_555
Ni14 Pr2 2.905724 1_455
Ni14 Pr2 2.905724 1_565
Ni14 Pr3 3.246609 1_556
Ni14 Pr6 3.318065 1_455
Ni14 Pr6 3.318065 1_565
Ni15 Ni27 2.459429 1_555
Ni15 Ni22 2.482088 1_555
Ni15 Ni16 2.523647 1_445
Ni15 Ni16 2.542412 1_555
Ni15 Pr2 2.905720 1_455
Ni15 Pr2 2.905729 1_555
Ni15 Pr3 3.246609 1_556
Ni15 Pr6 3.318061 1_455
Ni15 Pr6 3.318069 1_555
Ni16 Ni27 2.459430 1_555
Ni16 Ni22 2.482088 1_665
Ni16 Pr2 2.905719 1_565
Ni16 Pr2 2.905728 1_555
Ni16 Pr3 3.246609 1_556
Ni16 Pr6 3.318061 1_565
Ni16 Pr6 3.318069 1_555
Ni17 Ni26 2.459430 1_555
Ni17 Ni23 2.482085 1_655
Ni17 Ni18 2.523647 1_545
Ni17 Ni19 2.523647 1_655
Ni17 Ni18 2.542411 1_555
Ni17 Ni19 2.542412 1_555
Ni17 Pr3 2.905724 1_655
Ni17 Pr3 2.905724 1_545
Ni17 Pr2 3.246609 1_554
Ni17 Pr7 3.318065 1_655
Ni17 Pr7 3.318065 1_545
Ni18 Ni26 2.459429 1_555
Ni18 Ni23 2.482088 1_665
Ni18 Ni19 2.523647 1_665
Ni18 Ni19 2.542412 1_555
Ni18 Pr3 2.905720 1_655
Ni18 Pr3 2.905729 1_555
Ni18 Pr2 3.246609 1_554
Ni18 Pr7 3.318061 1_655
Ni18 Pr7 3.318069 1_555
Ni19 Ni26 2.459430 1_555
Ni19 Ni23 2.482088 1_555
Ni19 Pr3 2.905719 1_545
Ni19 Pr3 2.905728 1_555
Ni19 Pr2 3.246609 1_554
Ni19 Pr7 3.318061 1_545
Ni19 Pr7 3.318069 1_555
Ni20 Ni3 2.477422 1_445
Ni20 Ni4 2.477422 1_555
Ni20 Ni8 2.482085 1_455
Ni20 Ni9 2.482088 1_445
Ni20 Pr4 2.927944 1_545
Ni20 Pr4 2.927948 1_555
Ni20 Pr4 2.927949 1_445
Ni21 Ni5 2.477420 1_545
Ni21 Ni6 2.477422 1_555
Ni21 Ni7 2.477422 1_445
Ni21 Pr5 2.927944 1_455
Ni21 Pr5 2.927948 1_445
Ni21 Pr5 2.927949 1_555
Ni22 Ni5 2.477420 1_545
Ni22 Ni6 2.477422 1_555
Ni22 Ni7 2.477422 1_445
Ni22 Pr6 2.927944 1_455
Ni22 Pr6 2.927948 1_445
Ni22 Pr6 2.927949 1_555
Ni23 Ni3 2.477422 1_445
Ni23 Ni4 2.477422 1_555
Ni23 Pr7 2.927944 1_545
Ni23 Pr7 2.927948 1_555
Ni23 Pr7 2.927949 1_445
Ni24 Ni6 2.504396 1_555
Ni24 Ni5 2.504396 1_555
Ni24 Ni7 2.504396 1_555
Ni24 Pr5 2.929813 1_565
Ni24 Pr5 2.929814 1_455
Ni24 Pr5 2.929822 1_555
Ni25 Ni9 2.459429 1_555
Ni25 Ni8 2.459430 1_555
Ni25 Ni3 2.504396 1_555
Ni25 Ni4 2.504396 1_555
Ni25 Pr4 2.929813 1_545
Ni25 Pr4 2.929814 1_655
Ni25 Pr4 2.929822 1_555
Ni26 Ni3 2.504396 1_555
Ni26 Ni4 2.504396 1_555
Ni26 Pr7 2.929813 1_545
Ni26 Pr7 2.929814 1_655
Ni26 Pr7 2.929822 1_555
Ni27 Ni6 2.504396 1_555
Ni27 Ni5 2.504396 1_555
Ni27 Ni7 2.504396 1_555
Ni27 Pr6 2.929813 1_565
Ni27 Pr6 2.929814 1_455
Ni27 Pr6 2.929822 1_555
