# generated using pymatgen
data_Mn3Cd8N9
_symmetry_space_group_name_H-M   'P 1'
_cell_length_a   7.03002398
_cell_length_b   10.48872080
_cell_length_c   18.88753380
_cell_angle_alpha   90.00000000
_cell_angle_beta   112.48128734
_cell_angle_gamma   90.00000000
_symmetry_Int_Tables_number   1
_chemical_formula_structural   Mn3Cd8N9
_chemical_formula_sum   'Mn12 Cd32 N36'
_cell_volume   1286.85216295
_cell_formula_units_Z   4
loop_
 _symmetry_equiv_pos_site_id
 _symmetry_equiv_pos_as_xyz
  1  'x, y, z'
loop_
 _atom_site_type_symbol
 _atom_site_label
 _atom_site_symmetry_multiplicity
 _atom_site_fract_x
 _atom_site_fract_y
 _atom_site_fract_z
 _atom_site_occupancy
  Mn  Mn0  1  0.50475500  0.09017944  0.73943824  1
  Mn  Mn1  1  0.49524500  0.59017944  0.76056176  1
  Mn  Mn2  1  0.49524500  0.90982056  0.26056176  1
  Mn  Mn3  1  0.50475500  0.40982056  0.23943824  1
  Mn  Mn4  1  0.85813348  0.87873393  0.59153497  1
  Mn  Mn5  1  0.14186652  0.37873393  0.90846503  1
  Mn  Mn6  1  0.14186652  0.12126607  0.40846503  1
  Mn  Mn7  1  0.85813348  0.62126607  0.09153497  1
  Mn  Mn8  1  0.78433221  0.39167416  0.57163207  1
  Mn  Mn9  1  0.21566779  0.89167416  0.92836793  1
  Mn  Mn10  1  0.21566779  0.60832584  0.42836793  1
  Mn  Mn11  1  0.78433221  0.10832584  0.07163207  1
  Cd  Cd0  1  0.56622902  0.92491406  0.12475871  1
  Cd  Cd1  1  0.43377098  0.42491406  0.37524129  1
  Cd  Cd2  1  0.43377098  0.07508594  0.87524129  1
  Cd  Cd3  1  0.56622902  0.57508594  0.62475871  1
  Cd  Cd4  1  0.57201977  0.11002459  0.57901720  1
  Cd  Cd5  1  0.42798023  0.61002459  0.92098280  1
  Cd  Cd6  1  0.42798023  0.88997541  0.42098280  1
  Cd  Cd7  1  0.57201977  0.38997541  0.07901720  1
  Cd  Cd8  1  0.82655495  0.83025350  0.76102906  1
  Cd  Cd9  1  0.17344505  0.33025350  0.73897094  1
  Cd  Cd10  1  0.17344505  0.16974650  0.23897094  1
  Cd  Cd11  1  0.82655495  0.66974650  0.26102906  1
  Cd  Cd12  1  0.67257711  0.35858348  0.73344805  1
  Cd  Cd13  1  0.32742289  0.85858348  0.76655195  1
  Cd  Cd14  1  0.32742289  0.64141652  0.26655195  1
  Cd  Cd15  1  0.67257711  0.14141652  0.23344805  1
  Cd  Cd16  1  0.67344382  0.33704426  0.90494457  1
  Cd  Cd17  1  0.32655618  0.83704426  0.59505543  1
  Cd  Cd18  1  0.32655618  0.66295574  0.09505543  1
  Cd  Cd19  1  0.67344382  0.16295574  0.40494457  1
  Cd  Cd20  1  0.02103125  0.11973489  0.85866055  1
  Cd  Cd21  1  0.97896875  0.61973489  0.64133945  1
  Cd  Cd22  1  0.97896875  0.88026511  0.14133945  1
  Cd  Cd23  1  0.02103125  0.38026511  0.35866055  1
  Cd  Cd24  1  0.02305644  0.10816646  0.58620287  1
  Cd  Cd25  1  0.97694356  0.60816646  0.91379713  1
  Cd  Cd26  1  0.97694356  0.89183354  0.41379713  1
  Cd  Cd27  1  0.02305644  0.39183354  0.08620287  1
  Cd  Cd28  1  0.22360716  0.35913956  0.54067348  1
  Cd  Cd29  1  0.77639284  0.85913956  0.95932652  1
  Cd  Cd30  1  0.77639284  0.64086044  0.45932652  1
  Cd  Cd31  1  0.22360716  0.14086044  0.04067348  1
  N  N0  1  0.59061122  0.33013118  0.60162459  1
  N  N1  1  0.40938878  0.83013118  0.89837541  1
  N  N2  1  0.40938878  0.66986882  0.39837541  1
  N  N3  1  0.59061122  0.16986882  0.10162459  1
  N  N4  1  0.47759953  0.23002357  0.78668713  1
  N  N5  1  0.52240047  0.73002357  0.71331287  1
  N  N6  1  0.52240047  0.76997643  0.21331287  1
  N  N7  1  0.47759953  0.26997643  0.28668713  1
  N  N8  1  0.72086347  0.07405429  0.97872045  1
  N  N9  1  0.27913653  0.57405429  0.52127955  1
  N  N10  1  0.27913653  0.92594571  0.02127955  1
  N  N11  1  0.72086347  0.42594571  0.47872045  1
  N  N12  1  0.59639560  0.88468976  0.55674236  1
  N  N13  1  0.40360440  0.38468976  0.94325764  1
  N  N14  1  0.40360440  0.11531024  0.44325764  1
  N  N15  1  0.59639560  0.61531024  0.05674236  1
  N  N16  1  0.73921462  0.03483910  0.77375956  1
  N  N17  1  0.26078538  0.53483910  0.72624044  1
  N  N18  1  0.26078538  0.96516090  0.22624044  1
  N  N19  1  0.73921462  0.46516090  0.27375956  1
  N  N20  1  0.02949697  0.32176930  0.61254412  1
  N  N21  1  0.97050303  0.82176930  0.88745588  1
  N  N22  1  0.97050303  0.67823070  0.38745588  1
  N  N23  1  0.02949697  0.17823070  0.11254412  1
  N  N24  1  0.00180938  0.32392435  0.81418807  1
  N  N25  1  0.99819062  0.82392435  0.68581193  1
  N  N26  1  0.99819062  0.67607565  0.18581193  1
  N  N27  1  0.00180938  0.17607565  0.31418807  1
  N  N28  1  0.02589678  0.18260511  0.46779399  1
  N  N29  1  0.97410322  0.68260511  0.03220601  1
  N  N30  1  0.97410322  0.81739489  0.53220601  1
  N  N31  1  0.02589678  0.31739489  0.96779399  1
  N  N32  1  0.35995921  0.05184236  0.64607505  1
  N  N33  1  0.64004079  0.55184236  0.85392495  1
  N  N34  1  0.64004079  0.94815764  0.35392495  1
  N  N35  1  0.35995921  0.44815764  0.14607505  1
loop_
_geom_bond_atom_site_label_1
_geom_bond_atom_site_label_2
_geom_bond_distance
_geom_bond_site_symmetry_2
Mn0 N16 1.629958 1_555
Mn0 N32 1.713091 1_555
Mn0 N4 1.764823 1_555
Mn1 N17 1.629958 1_555
Mn1 N33 1.713091 1_555
Mn1 N5 1.764823 1_555
Mn2 N18 1.629958 1_555
Mn2 N34 1.713091 1_555
Mn2 N6 1.764823 1_555
Mn3 N19 1.629958 1_555
Mn3 N35 1.713091 1_555
Mn3 N7 1.764823 1_555
Mn4 N12 1.701971 1_555
Mn4 N30 1.741537 1_555
Mn4 N25 1.769143 1_555
Mn5 N13 1.701971 1_555
Mn5 N31 1.741537 1_555
Mn5 N24 1.769143 1_555
Mn6 N14 1.701971 1_555
Mn6 N28 1.741537 1_555
Mn6 N27 1.769143 1_555
Mn7 N15 1.701971 1_555
Mn7 N29 1.741537 1_555
Mn7 N26 1.769143 1_555
Mn8 N11 1.676025 1_555
Mn8 N20 1.756899 1_655
Mn8 N0 1.783887 1_555
Mn9 N10 1.676025 1_556
Mn9 N21 1.756899 1_455
Mn9 N1 1.783887 1_555
Mn10 N9 1.676025 1_555
Mn10 N22 1.756899 1_455
Mn10 N2 1.783887 1_555
Mn11 N8 1.676025 1_554
Mn11 N23 1.756899 1_655
Mn11 N3 1.783887 1_555
Cd0 N10 2.208335 1_555
Cd0 N6 2.434642 1_555
Cd0 N3 2.622725 1_565
Cd1 N11 2.208335 1_555
Cd1 N7 2.434642 1_555
Cd1 N2 2.622725 1_555
Cd2 N8 2.208335 1_555
Cd2 N4 2.434642 1_555
Cd2 N1 2.622725 1_545
Cd3 N9 2.208335 1_555
Cd3 N5 2.434642 1_555
Cd3 N0 2.622725 1_555
Cd4 N0 2.342335 1_555
Cd4 N32 2.375509 1_555
Cd4 N14 2.378666 1_555
Cd4 N12 2.418163 1_545
Cd5 N1 2.342335 1_555
Cd5 N33 2.375509 1_555
Cd5 N15 2.378666 1_556
Cd5 N13 2.418163 1_555
Cd6 N2 2.342335 1_555
Cd6 N34 2.375509 1_555
Cd6 N12 2.378666 1_555
Cd6 N14 2.418163 1_565
Cd7 N3 2.342335 1_555
Cd7 N35 2.375509 1_555
Cd7 N13 2.378666 1_554
Cd7 N15 2.418163 1_555
Cd8 N25 2.188500 1_555
Cd8 N21 2.210428 1_555
Cd8 N5 2.239566 1_555
Cd8 N16 2.269881 1_565
Cd9 N24 2.188500 1_555
Cd9 N20 2.210428 1_555
Cd9 N4 2.239566 1_555
Cd9 N17 2.269881 1_555
Cd10 N27 2.188500 1_555
Cd10 N23 2.210428 1_555
Cd10 N7 2.239566 1_555
Cd10 N18 2.269881 1_545
Cd11 N26 2.188500 1_555
Cd11 N22 2.210428 1_555
Cd11 N6 2.239566 1_555
Cd11 N19 2.269881 1_555
Cd12 N24 2.261721 1_655
Cd12 N0 2.350127 1_555
Cd12 N4 2.400478 1_555
Cd13 N25 2.261721 1_455
Cd13 N1 2.350127 1_555
Cd13 N5 2.400478 1_555
Cd14 N26 2.261721 1_455
Cd14 N2 2.350127 1_555
Cd14 N6 2.400478 1_555
Cd15 N27 2.261721 1_655
Cd15 N3 2.350127 1_555
Cd15 N7 2.400478 1_555
Cd16 N31 2.311168 1_655
Cd16 N13 2.328461 1_555
Cd16 N4 2.406807 1_555
Cd16 N33 2.426210 1_555
Cd17 N30 2.311168 1_455
Cd17 N12 2.328461 1_555
Cd17 N5 2.406807 1_555
Cd17 N32 2.426210 1_565
Cd18 N29 2.311168 1_455
Cd18 N15 2.328461 1_555
Cd18 N6 2.406807 1_555
Cd18 N35 2.426210 1_555
Cd19 N28 2.311168 1_655
Cd19 N14 2.328461 1_555
Cd19 N7 2.406807 1_555
Cd19 N34 2.426210 1_545
Cd20 N16 2.204491 1_455
Cd20 N24 2.285571 1_555
Cd21 N17 2.204491 1_655
Cd21 N25 2.285571 1_555
Cd22 N18 2.204491 1_655
Cd22 N26 2.285571 1_555
Cd23 N19 2.204491 1_455
Cd23 N27 2.285571 1_555
Cd24 N32 2.277939 1_555
Cd24 N20 2.291688 1_555
Cd24 N28 2.376102 1_555
Cd25 N33 2.277939 1_555
Cd25 N21 2.291688 1_555
Cd25 N29 2.376102 1_556
Cd26 N34 2.277939 1_555
Cd26 N22 2.291688 1_555
Cd26 N30 2.376102 1_555
Cd27 N35 2.277939 1_555
Cd27 N23 2.291688 1_555
Cd27 N31 2.376102 1_554
Cd28 N20 2.296759 1_555
Cd28 N9 2.340354 1_555
Cd28 N28 2.406651 1_555
Cd28 N0 2.408947 1_555
Cd29 N21 2.296759 1_555
Cd29 N8 2.340354 1_565
Cd29 N29 2.406651 1_556
Cd29 N1 2.408947 1_555
Cd30 N22 2.296759 1_555
Cd30 N11 2.340354 1_555
Cd30 N30 2.406651 1_555
Cd30 N2 2.408947 1_555
Cd31 N23 2.296759 1_555
Cd31 N10 2.340354 1_545
Cd31 N31 2.406651 1_554
Cd31 N3 2.408947 1_555
