# generated using pymatgen
data_Sm2SiO5
_symmetry_space_group_name_H-M   'P 1'
_cell_length_a   7.12477742
_cell_length_b   6.80218648
_cell_length_c   9.19238191
_cell_angle_alpha   72.21197689
_cell_angle_beta   90.00000000
_cell_angle_gamma   90.00000000
_symmetry_Int_Tables_number   1
_chemical_formula_structural   Sm2SiO5
_chemical_formula_sum   'Sm8 Si4 O20'
_cell_volume   424.20228493
_cell_formula_units_Z   4
loop_
 _symmetry_equiv_pos_site_id
 _symmetry_equiv_pos_as_xyz
  1  'x, y, z'
loop_
 _atom_site_type_symbol
 _atom_site_label
 _atom_site_symmetry_multiplicity
 _atom_site_fract_x
 _atom_site_fract_y
 _atom_site_fract_z
 _atom_site_occupancy
  Sm  Sm0  1  0.35165806  0.41231540  0.38806094  1
  Sm  Sm1  1  0.64834194  0.58768460  0.61193906  1
  Sm  Sm2  1  0.85165806  0.08768460  0.61193906  1
  Sm  Sm3  1  0.14834194  0.91231540  0.38806094  1
  Sm  Sm4  1  0.37620807  0.26554559  0.02528453  1
  Sm  Sm5  1  0.62379193  0.73445441  0.97471547  1
  Sm  Sm6  1  0.87620807  0.23445441  0.97471547  1
  Sm  Sm7  1  0.12379193  0.76554559  0.02528453  1
  Si  Si0  1  0.91404863  0.45825549  0.29788822  1
  Si  Si1  1  0.08595137  0.54174451  0.70211178  1
  Si  Si2  1  0.41404863  0.04174451  0.70211178  1
  Si  Si3  1  0.58595137  0.95825549  0.29788822  1
  O  O0  1  0.43129226  0.13942052  0.29599643  1
  O  O1  1  0.56870774  0.86057948  0.70400357  1
  O  O2  1  0.93129226  0.36057948  0.70400357  1
  O  O3  1  0.06870774  0.63942052  0.29599643  1
  O  O4  1  0.23453267  0.05586782  0.59468998  1
  O  O5  1  0.76546733  0.94413218  0.40531002  1
  O  O6  1  0.73453267  0.44413218  0.40531002  1
  O  O7  1  0.26546733  0.55586782  0.59468998  1
  O  O8  1  0.12120322  0.04886447  0.11744737  1
  O  O9  1  0.87879678  0.95113553  0.88255263  1
  O  O10  1  0.62120322  0.45113553  0.88255263  1
  O  O11  1  0.37879678  0.54886447  0.11744737  1
  O  O12  1  0.13673230  0.49257161  0.88402531  1
  O  O13  1  0.86326770  0.50742839  0.11597469  1
  O  O14  1  0.63673230  0.00742839  0.11597469  1
  O  O15  1  0.36326770  0.99257161  0.88402531  1
  O  O16  1  0.04101433  0.25143865  0.36545030  1
  O  O17  1  0.95898567  0.74856135  0.63454970  1
  O  O18  1  0.54101433  0.24856135  0.63454970  1
  O  O19  1  0.45898567  0.75143865  0.36545030  1
loop_
_geom_bond_atom_site_label_1
_geom_bond_atom_site_label_2
_geom_bond_distance
_geom_bond_site_symmetry_2
O0 Si3 1.649250 1_545
O0 Sm0 2.333185 1_555
O0 Sm4 2.403789 1_555
O0 Sm3 2.523480 1_545
O1 Si2 1.649250 1_565
O1 Sm1 2.333185 1_555
O1 Sm5 2.403789 1_555
O1 Sm2 2.523480 1_565
O2 Si1 1.649250 1_655
O2 Sm2 2.333185 1_555
O2 Sm6 2.403789 1_555
O2 Sm1 2.523480 1_555
O3 Si0 1.649250 1_455
O3 Sm3 2.333185 1_555
O3 Sm7 2.403789 1_555
O3 Sm0 2.523480 1_555
O4 Si2 1.600693 1_555
O4 Sm3 2.464060 1_545
O4 Sm0 2.714609 1_555
O4 Sm2 2.744880 1_455
O5 Si3 1.600693 1_555
O5 Sm2 2.464060 1_565
O5 Sm1 2.714609 1_555
O5 Sm3 2.744880 1_655
O6 Si0 1.600693 1_555
O6 Sm1 2.464060 1_555
O6 Sm2 2.714609 1_555
O6 Sm0 2.744880 1_555
O7 Si1 1.600693 1_555
O7 Sm0 2.464060 1_555
O7 Sm3 2.714609 1_555
O7 Sm1 2.744880 1_555
O8 Sm6 2.313016 1_454
O8 Sm4 2.329840 1_555
O8 Sm7 2.330173 1_545
O8 Sm3 2.382532 1_545
O9 Sm7 2.313016 1_656
O9 Sm5 2.329840 1_555
O9 Sm6 2.330173 1_565
O9 Sm2 2.382532 1_565
O10 Sm4 2.313016 1_556
O10 Sm6 2.329840 1_555
O10 Sm5 2.330173 1_555
O10 Sm1 2.382532 1_555
O11 Sm5 2.313016 1_554
O11 Sm7 2.329840 1_555
O11 Sm4 2.330173 1_555
O11 Sm0 2.382532 1_555
O12 Si1 1.642361 1_555
O12 Sm4 2.399348 1_556
O12 Sm6 2.515704 1_455
O12 Sm7 2.572075 1_556
O13 Si0 1.642361 1_555
O13 Sm5 2.399348 1_554
O13 Sm7 2.515704 1_655
O13 Sm6 2.572075 1_554
O14 Si3 1.642361 1_545
O14 Sm6 2.399348 1_554
O14 Sm4 2.515704 1_555
O14 Sm5 2.572075 1_544
O15 Si2 1.642361 1_565
O15 Sm7 2.399348 1_556
O15 Sm5 2.515704 1_555
O15 Sm4 2.572075 1_566
O16 Si0 1.627665 1_455
O16 Sm3 2.378284 1_545
O16 Sm0 2.505642 1_555
O16 Sm2 2.579291 1_455
O17 Si1 1.627665 1_655
O17 Sm2 2.378284 1_565
O17 Sm1 2.505642 1_555
O17 Sm3 2.579291 1_655
O18 Si2 1.627665 1_555
O18 Sm1 2.378284 1_555
O18 Sm2 2.505642 1_555
O18 Sm0 2.579291 1_555
O19 Si3 1.627665 1_555
O19 Sm0 2.378284 1_555
O19 Sm3 2.505642 1_555
O19 Sm1 2.579291 1_555
