# generated using pymatgen
data_MgMn3O6
_symmetry_space_group_name_H-M   'P 1'
_cell_length_a   7.17422699
_cell_length_b   7.17422699
_cell_length_c   5.16503513
_cell_angle_alpha   84.70120984
_cell_angle_beta   84.70120984
_cell_angle_gamma   23.77338306
_symmetry_Int_Tables_number   1
_chemical_formula_structural   MgMn3O6
_chemical_formula_sum   'Mg1 Mn3 O6'
_cell_volume   106.68796466
_cell_formula_units_Z   1
loop_
 _symmetry_equiv_pos_site_id
 _symmetry_equiv_pos_as_xyz
  1  'x, y, z'
loop_
 _atom_site_type_symbol
 _atom_site_label
 _atom_site_symmetry_multiplicity
 _atom_site_fract_x
 _atom_site_fract_y
 _atom_site_fract_z
 _atom_site_occupancy
  Mg  Mg0  1  0.19120200  0.19120200  0.94033700  1
  Mn  Mn0  1  0.99037100  0.99037100  0.99932200  1
  Mn  Mn1  1  0.34928500  0.34928500  0.53334200  1
  Mn  Mn2  1  0.64997500  0.64997500  0.45746300  1
  O  O0  1  0.09141500  0.09141500  0.66325600  1
  O  O1  1  0.91167600  0.91167600  0.34634600  1
  O  O2  1  0.42365300  0.42365300  0.85943700  1
  O  O3  1  0.58245000  0.58245000  0.11546800  1
  O  O4  1  0.22764200  0.22764200  0.29774900  1
  O  O5  1  0.76064500  0.76064500  0.71783700  1
loop_
_geom_bond_atom_site_label_1
_geom_bond_atom_site_label_2
_geom_bond_distance
_geom_bond_site_symmetry_2
Mg0 O4 1.961617 1_556
Mg0 O5 2.059994 1_545
Mg0 O5 2.059994 1_455
Mg0 O0 2.095149 1_555
Mg0 O3 2.252290 1_546
Mg0 O3 2.252290 1_456
Mn0 O2 1.926392 1_565
Mn0 O2 1.926392 1_655
Mn0 O1 2.014881 1_556
Mn0 O3 2.088403 1_566
Mn0 O3 2.088403 1_656
Mn0 O0 2.135644 1_665
Mn1 O1 1.929827 1_545
Mn1 O1 1.929827 1_455
Mn1 O2 2.063762 1_555
Mn1 O5 2.101630 1_545
Mn1 O5 2.101630 1_455
Mn1 O4 2.188636 1_555
Mn2 O0 1.955655 1_655
Mn2 O0 1.955655 1_565
Mn2 O4 1.970681 1_655
Mn2 O4 1.970681 1_565
Mn2 O3 2.082121 1_555
Mn2 O5 2.148863 1_555
