# generated using pymatgen
data_KSrMg14
_symmetry_space_group_name_H-M   'P 1'
_cell_length_a   6.72503465
_cell_length_b   6.65486038
_cell_length_c   10.80962593
_cell_angle_alpha   90.00000000
_cell_angle_beta   90.00000000
_cell_angle_gamma   119.65542222
_symmetry_Int_Tables_number   1
_chemical_formula_structural   KSrMg14
_chemical_formula_sum   'K1 Sr1 Mg14'
_cell_volume   420.40926498
_cell_formula_units_Z   1
loop_
 _symmetry_equiv_pos_site_id
 _symmetry_equiv_pos_as_xyz
  1  'x, y, z'
loop_
 _atom_site_type_symbol
 _atom_site_label
 _atom_site_symmetry_multiplicity
 _atom_site_fract_x
 _atom_site_fract_y
 _atom_site_fract_z
 _atom_site_occupancy
  K  K0  1  0.16898949  0.33449424  0.12500000  1
  Sr  Sr0  1  0.17009702  0.83504801  0.12500000  1
  Mg  Mg0  1  0.16554043  0.33276972  0.62500000  1
  Mg  Mg1  1  0.16594397  0.83297149  0.62500000  1
  Mg  Mg2  1  0.66372160  0.33445761  0.12500000  1
  Mg  Mg3  1  0.66708390  0.33267948  0.62500000  1
  Mg  Mg4  1  0.66372160  0.82926300  0.12500000  1
  Mg  Mg5  1  0.66708390  0.83440343  0.62500000  1
  Mg  Mg6  1  0.34386518  0.17069805  0.39493393  1
  Mg  Mg7  1  0.34386518  0.17069805  0.85506607  1
  Mg  Mg8  1  0.34386518  0.67316812  0.39493393  1
  Mg  Mg9  1  0.34386518  0.67316812  0.85506607  1
  Mg  Mg10  1  0.82212171  0.16106136  0.38259906  1
  Mg  Mg11  1  0.82212171  0.16106136  0.86740094  1
  Mg  Mg12  1  0.82405697  0.66202899  0.38159878  1
  Mg  Mg13  1  0.82405697  0.66202899  0.86840122  1
loop_
_geom_bond_atom_site_label_1
_geom_bond_atom_site_label_2
_geom_bond_distance
_geom_bond_site_symmetry_2
K0 Mg4 3.327211 1_555
K0 Mg2 3.327211 1_555
K0 Sr0 3.327436 1_545
K0 Sr0 3.327437 1_555
K0 Mg4 3.397823 1_445
K0 Mg2 3.397823 1_455
K0 Mg10 3.444280 1_455
K0 Mg11 3.444280 1_454
K0 Mg6 3.514809 1_555
K0 Mg7 3.514809 1_554
K0 Mg8 3.514815 1_555
K0 Mg9 3.514815 1_554
Mg0 Mg6 3.172735 1_555
Mg0 Mg7 3.172735 1_555
Mg0 Mg9 3.172742 1_555
Mg0 Mg8 3.172742 1_555
Mg0 Mg11 3.300578 1_455
Mg0 Mg10 3.300578 1_455
Mg0 Mg1 3.327431 1_555
Mg0 Mg1 3.327431 1_545
Mg0 Mg5 3.351840 1_445
Mg0 Mg3 3.351840 1_455
Mg0 Mg5 3.373194 1_555
Mg0 Mg3 3.373194 1_555
Mg1 Mg9 3.163328 1_555
Mg1 Mg8 3.163328 1_555
Mg1 Mg6 3.163335 1_565
Mg1 Mg7 3.163335 1_565
Mg1 Mg12 3.303747 1_455
Mg1 Mg13 3.303747 1_455
Mg1 Mg3 3.359576 1_455
Mg1 Mg5 3.359576 1_455
Mg1 Mg3 3.365478 1_565
Mg1 Mg5 3.365479 1_555
Mg2 Mg4 3.292861 1_555
Mg2 Sr0 3.338858 1_545
Mg2 Mg4 3.362000 1_545
Mg2 Sr0 3.386509 1_655
Mg2 Mg7 3.465395 1_554
Mg2 Mg6 3.465395 1_555
Mg3 Mg6 3.122968 1_555
Mg3 Mg7 3.122968 1_555
Mg3 Mg5 3.315958 1_545
Mg3 Mg5 3.338903 1_555
Mg4 Sr0 3.338858 1_555
Mg4 Sr0 3.386509 1_655
Mg4 Mg9 3.465395 1_554
Mg4 Mg8 3.465395 1_555
Mg5 Mg8 3.122968 1_555
Mg5 Mg9 3.122968 1_555
Mg6 Mg8 3.310992 1_545
Mg6 Mg8 3.343868 1_555
Mg6 Sr0 3.505145 1_545
Mg7 Mg9 3.310992 1_545
Mg7 Mg9 3.343868 1_555
Mg7 Sr0 3.505145 1_546
Mg8 Sr0 3.505139 1_555
Mg9 Sr0 3.505139 1_556
Mg10 Mg3 3.230419 1_555
Mg10 Mg5 3.230426 1_545
Mg10 Mg8 3.251236 1_545
Mg10 Mg6 3.251236 1_555
Mg10 Mg12 3.327467 1_555
Mg10 Mg12 3.327467 1_545
Mg10 Mg2 3.381776 1_555
Mg10 Mg4 3.381782 1_545
Mg10 Mg8 3.480014 1_655
Mg10 Mg6 3.480014 1_655
Mg11 Mg3 3.230419 1_555
Mg11 Mg5 3.230426 1_545
Mg11 Mg9 3.251236 1_545
Mg11 Mg7 3.251236 1_555
Mg11 Mg13 3.327467 1_555
Mg11 Mg13 3.327467 1_545
Mg11 Mg2 3.381776 1_556
Mg11 Mg4 3.381782 1_546
Mg11 Mg9 3.480014 1_655
Mg11 Mg7 3.480014 1_655
Mg12 Mg5 3.248259 1_555
Mg12 Mg3 3.248266 1_555
Mg12 Mg6 3.269798 1_555
Mg12 Mg8 3.269799 1_555
Mg12 Mg4 3.358920 1_555
Mg12 Mg2 3.358927 1_555
Mg12 Sr0 3.432693 1_655
Mg12 Mg6 3.462651 1_665
Mg12 Mg8 3.462652 1_655
Mg13 Mg5 3.248259 1_555
Mg13 Mg3 3.248266 1_555
Mg13 Mg7 3.269798 1_555
Mg13 Mg9 3.269799 1_555
Mg13 Mg4 3.358920 1_556
Mg13 Mg2 3.358927 1_556
Mg13 Sr0 3.432693 1_656
Mg13 Mg7 3.462651 1_665
Mg13 Mg9 3.462652 1_655
