# generated using pymatgen
data_Er2Fe2Si2C
_symmetry_space_group_name_H-M   'P 1'
_cell_length_a   5.57049492
_cell_length_b   5.57049492
_cell_length_c   6.64401704
_cell_angle_alpha   53.34794932
_cell_angle_beta   53.34794932
_cell_angle_gamma   40.74056333
_symmetry_Int_Tables_number   1
_chemical_formula_structural   Er2Fe2Si2C
_chemical_formula_sum   'Er2 Fe2 Si2 C1'
_cell_volume   103.74577599
_cell_formula_units_Z   1
loop_
 _symmetry_equiv_pos_site_id
 _symmetry_equiv_pos_as_xyz
  1  'x, y, z'
loop_
 _atom_site_type_symbol
 _atom_site_label
 _atom_site_symmetry_multiplicity
 _atom_site_fract_x
 _atom_site_fract_y
 _atom_site_fract_z
 _atom_site_occupancy
  Er  Er0  1  0.44187688  0.44187688  0.29208148  1
  Er  Er1  1  0.55812312  0.55812312  0.70791852  1
  Fe  Fe0  1  0.79823239  0.79823239  0.09666820  1
  Fe  Fe1  1  0.20176761  0.20176761  0.90333180  1
  Si  Si0  1  0.83908381  0.83908381  0.71510963  1
  Si  Si1  1  0.16091619  0.16091619  0.28489037  1
  C  C0  1  -0.00000000  -0.00000000  0.00000000  1
loop_
_geom_bond_atom_site_label_1
_geom_bond_atom_site_label_2
_geom_bond_distance
_geom_bond_site_symmetry_2
Er0 Si1 2.965080 1_555
Er0 Si1 2.975976 1_565
Er0 Si1 2.975976 1_655
Er0 Si0 2.994827 1_545
Er0 Si0 2.994827 1_455
Er1 Si0 2.965080 1_555
Er1 Si0 2.975976 1_545
Er1 Si0 2.975976 1_455
Er1 Si1 2.994827 1_655
Er1 Si1 2.994827 1_565
Fe0 Si1 2.257512 1_565
Fe0 Si1 2.257512 1_655
Fe0 Si0 2.287176 1_554
Fe1 Si0 2.257512 1_455
Fe1 Si0 2.257512 1_545
Fe1 Si1 2.287176 1_556
Si0 Si1 2.689341 1_665
C0 Fe1 1.769062 1_554
C0 Fe0 1.769062 1_445
C0 Er0 2.528612 1_455
C0 Er1 2.528612 1_454
C0 Er1 2.528612 1_544
C0 Er0 2.528612 1_545
