# generated using pymatgen
data_LiCrCoO4
_symmetry_space_group_name_H-M   'P 1'
_cell_length_a   5.94158014
_cell_length_b   5.84289855
_cell_length_c   5.84242806
_cell_angle_alpha   118.19954149
_cell_angle_beta   59.94993915
_cell_angle_gamma   120.05635200
_symmetry_Int_Tables_number   1
_chemical_formula_structural   LiCrCoO4
_chemical_formula_sum   'Li2 Cr2 Co2 O8'
_cell_volume   145.14826930
_cell_formula_units_Z   2
loop_
 _symmetry_equiv_pos_site_id
 _symmetry_equiv_pos_as_xyz
  1  'x, y, z'
loop_
 _atom_site_type_symbol
 _atom_site_label
 _atom_site_symmetry_multiplicity
 _atom_site_fract_x
 _atom_site_fract_y
 _atom_site_fract_z
 _atom_site_occupancy
  Li  Li0  1  0.88435500  0.13066800  0.86925900  1
  Li  Li1  1  0.11570900  0.86929800  0.13064100  1
  Cr  Cr0  1  0.49994500  0.99998600  0.49992000  1
  Cr  Cr1  1  0.49994500  0.50013300  0.00012400  1
  Co  Co0  1  0.50004500  0.49999900  0.49999600  1
  Co  Co1  1  0.99989500  0.49992800  0.50007100  1
  O  O0  1  0.27059500  0.74351200  0.25648400  1
  O  O1  1  0.70432700  0.72610000  0.27393400  1
  O  O2  1  0.29570700  0.27390500  0.72611100  1
  O  O3  1  0.72939600  0.25647800  0.74354600  1
  O  O4  1  0.24291900  0.28702100  0.27437300  1
  O  O5  1  0.24288200  0.72562300  0.71297500  1
  O  O6  1  0.75716000  0.27433200  0.28694000  1
  O  O7  1  0.75711900  0.71301800  0.72562600  1
loop_
_geom_bond_atom_site_label_1
_geom_bond_atom_site_label_2
_geom_bond_distance
_geom_bond_site_symmetry_2
Li0 O3 1.947553 1_555
Li0 O2 1.984637 1_655
Li0 O7 2.020582 1_545
Li0 O6 2.020699 1_556
Li1 O0 1.947675 1_555
Li1 O1 1.984784 1_455
Li1 O5 2.020632 1_554
Li1 O4 2.020955 1_565
Cr0 O6 1.995012 1_565
Cr0 O5 1.995308 1_555
Cr0 O0 2.001656 1_555
Cr0 O3 2.002835 1_565
Cr0 O2 2.030026 1_565
Cr0 O1 2.030472 1_555
Cr1 O4 1.995024 1_555
Cr1 O7 1.995286 1_554
Cr1 O0 2.001636 1_555
Cr1 O3 2.003250 1_554
Cr1 O1 2.029859 1_555
Cr1 O2 2.030181 1_554
Co0 O1 1.843953 1_555
Co0 O2 1.844128 1_555
Co0 O7 2.044863 1_555
Co0 O4 2.045086 1_555
Co0 O6 2.045459 1_555
Co0 O5 2.045525 1_555
Co1 O6 1.926425 1_555
Co1 O5 1.926595 1_655
Co1 O7 1.926687 1_555
Co1 O4 1.927020 1_655
Co1 O3 1.990602 1_555
Co1 O0 1.991643 1_655
