# generated using pymatgen
data_K2Sr(Ge4O9)2
_symmetry_space_group_name_H-M   'P 1'
_cell_length_a   11.81772082
_cell_length_b   11.81772082
_cell_length_c   19.58581355
_cell_angle_alpha   90.00000000
_cell_angle_beta   90.00000000
_cell_angle_gamma   120.00000423
_symmetry_Int_Tables_number   1
_chemical_formula_structural   K2Sr(Ge4O9)2
_chemical_formula_sum   'K12 Sr6 Ge48 O108'
_cell_volume   2368.86156142
_cell_formula_units_Z   6
loop_
 _symmetry_equiv_pos_site_id
 _symmetry_equiv_pos_as_xyz
  1  'x, y, z'
loop_
 _atom_site_type_symbol
 _atom_site_label
 _atom_site_symmetry_multiplicity
 _atom_site_fract_x
 _atom_site_fract_y
 _atom_site_fract_z
 _atom_site_occupancy
  K  K0  1  0.99798270  0.33549983  0.96078107  1
  K  K1  1  0.00201730  0.66450017  0.03921893  1
  K  K2  1  0.33751713  0.00201730  0.96078107  1
  K  K3  1  0.66248287  0.66450017  0.53921893  1
  K  K4  1  0.66248287  0.99798270  0.03921893  1
  K  K5  1  0.33751713  0.33549983  0.46078107  1
  K  K6  1  0.66450017  0.66248287  0.96078107  1
  K  K7  1  0.33549983  0.99798270  0.53921893  1
  K  K8  1  0.33549983  0.33751713  0.03921893  1
  K  K9  1  0.66450017  0.00201730  0.46078107  1
  K  K10  1  0.00201730  0.33751713  0.53921893  1
  K  K11  1  0.99798270  0.66248287  0.46078107  1
  Sr  Sr0  1  0.66447898  0.66447898  0.75000000  1
  Sr  Sr1  1  0.33552102  0.33552102  0.25000000  1
  Sr  Sr2  1  0.00000000  0.33552102  0.75000000  1
  Sr  Sr3  1  1.00000000  0.66447898  0.25000000  1
  Sr  Sr4  1  0.33552102  0.00000000  0.75000000  1
  Sr  Sr5  1  0.66447898  1.00000000  0.25000000  1
  Ge  Ge0  1  0.66666700  0.33333300  0.97805016  1
  Ge  Ge1  1  0.33333300  0.66666700  0.02194984  1
  Ge  Ge2  1  0.33333300  0.66666700  0.52194984  1
  Ge  Ge3  1  0.66666700  0.33333300  0.47805016  1
  Ge  Ge4  1  0.66666700  0.33333300  0.72820028  1
  Ge  Ge5  1  0.33333300  0.66666700  0.27179972  1
  Ge  Ge6  1  0.33333300  0.66666700  0.77179972  1
  Ge  Ge7  1  0.66666700  0.33333300  0.22820028  1
  Ge  Ge8  1  -0.00000000  -0.00000000  0.00000000  1
  Ge  Ge9  1  -0.00000000  -0.00000000  0.50000000  1
  Ge  Ge10  1  0.82563412  0.00368861  0.87239378  1
  Ge  Ge11  1  0.17436588  0.99631139  0.12760622  1
  Ge  Ge12  1  0.17805449  0.17436588  0.87239378  1
  Ge  Ge13  1  0.82194551  0.99631139  0.62760622  1
  Ge  Ge14  1  0.82194551  0.82563412  0.12760622  1
  Ge  Ge15  1  0.17805449  0.00368861  0.37239378  1
  Ge  Ge16  1  0.99631139  0.82194551  0.87239378  1
  Ge  Ge17  1  0.00368861  0.82563412  0.62760622  1
  Ge  Ge18  1  0.00368861  0.17805449  0.12760622  1
  Ge  Ge19  1  0.99631139  0.17436588  0.37239378  1
  Ge  Ge20  1  0.17436588  0.17805449  0.62760622  1
  Ge  Ge21  1  0.82563412  0.82194551  0.37239378  1
  Ge  Ge22  1  0.66121158  0.14504258  0.85058480  1
  Ge  Ge23  1  0.33878842  0.85495742  0.14941520  1
  Ge  Ge24  1  0.48383100  0.33878842  0.85058480  1
  Ge  Ge25  1  0.51616900  0.85495742  0.64941520  1
  Ge  Ge26  1  0.51616900  0.66121158  0.14941520  1
  Ge  Ge27  1  0.48383100  0.14504258  0.35058480  1
  Ge  Ge28  1  0.85495742  0.51616900  0.85058480  1
  Ge  Ge29  1  0.14504258  0.66121158  0.64941520  1
  Ge  Ge30  1  0.14504258  0.48383100  0.14941520  1
  Ge  Ge31  1  0.85495742  0.33878842  0.35058480  1
  Ge  Ge32  1  0.33878842  0.48383100  0.64941520  1
  Ge  Ge33  1  0.66121158  0.51616900  0.35058480  1
  Ge  Ge34  1  0.51120959  0.84475861  0.89111016  1
  Ge  Ge35  1  0.48879041  0.15524139  0.10888984  1
  Ge  Ge36  1  0.33354903  0.48879041  0.89111016  1
  Ge  Ge37  1  0.66645097  0.15524139  0.60888984  1
  Ge  Ge38  1  0.66645097  0.51120959  0.10888984  1
  Ge  Ge39  1  0.33354903  0.84475861  0.39111016  1
  Ge  Ge40  1  0.15524139  0.66645097  0.89111016  1
  Ge  Ge41  1  0.84475861  0.51120959  0.60888984  1
  Ge  Ge42  1  0.84475861  0.33354903  0.10888984  1
  Ge  Ge43  1  0.15524139  0.48879041  0.39111016  1
  Ge  Ge44  1  0.48879041  0.33354903  0.60888984  1
  Ge  Ge45  1  0.51120959  0.66645097  0.39111016  1
  Ge  Ge46  1  -0.00000000  -0.00000000  0.75000000  1
  Ge  Ge47  1  -0.00000000  -0.00000000  0.25000000  1
  O  O0  1  0.72749657  0.24047471  0.92349546  1
  O  O1  1  0.27250343  0.75952529  0.07650454  1
  O  O2  1  0.51297814  0.27250343  0.92349546  1
  O  O3  1  0.48702186  0.75952529  0.57650454  1
  O  O4  1  0.48702186  0.72749657  0.07650454  1
  O  O5  1  0.51297814  0.24047471  0.42349546  1
  O  O6  1  0.75952529  0.48702186  0.92349546  1
  O  O7  1  0.24047471  0.72749657  0.57650454  1
  O  O8  1  0.24047471  0.51297814  0.07650454  1
  O  O9  1  0.75952529  0.27250343  0.42349546  1
  O  O10  1  0.27250343  0.51297814  0.57650454  1
  O  O11  1  0.72749657  0.48702186  0.42349546  1
  O  O12  1  0.67612715  0.89348874  0.91541791  1
  O  O13  1  0.32387285  0.10651126  0.08458209  1
  O  O14  1  0.21736158  0.32387285  0.91541791  1
  O  O15  1  0.78263842  0.10651126  0.58458209  1
  O  O16  1  0.78263842  0.67612715  0.08458209  1
  O  O17  1  0.21736158  0.89348874  0.41541791  1
  O  O18  1  0.10651126  0.78263842  0.91541791  1
  O  O19  1  0.89348874  0.67612715  0.58458209  1
  O  O20  1  0.89348874  0.21736158  0.08458209  1
  O  O21  1  0.10651126  0.32387285  0.41541791  1
  O  O22  1  0.32387285  0.21736158  0.58458209  1
  O  O23  1  0.67612715  0.78263842  0.41541791  1
  O  O24  1  0.81920707  0.40541576  0.78235908  1
  O  O25  1  0.18079293  0.59458424  0.21764092  1
  O  O26  1  0.58620869  0.18079293  0.78235908  1
  O  O27  1  0.41379131  0.59458424  0.71764092  1
  O  O28  1  0.41379131  0.81920707  0.21764092  1
  O  O29  1  0.58620869  0.40541576  0.28235908  1
  O  O30  1  0.59458424  0.41379131  0.78235908  1
  O  O31  1  0.40541576  0.81920707  0.71764092  1
  O  O32  1  0.40541576  0.58620869  0.21764092  1
  O  O33  1  0.59458424  0.18079293  0.28235908  1
  O  O34  1  0.18079293  0.58620869  0.71764092  1
  O  O35  1  0.81920707  0.41379131  0.28235908  1
  O  O36  1  0.93162306  0.08375695  0.94134632  1
  O  O37  1  0.06837694  0.91624305  0.05865368  1
  O  O38  1  0.15213389  0.06837694  0.94134632  1
  O  O39  1  0.84786611  0.91624305  0.55865368  1
  O  O40  1  0.84786611  0.93162306  0.05865368  1
  O  O41  1  0.15213389  0.08375695  0.44134632  1
  O  O42  1  0.91624305  0.84786611  0.94134632  1
  O  O43  1  0.08375695  0.93162306  0.55865368  1
  O  O44  1  0.08375695  0.15213389  0.05865368  1
  O  O45  1  0.91624305  0.06837694  0.44134632  1
  O  O46  1  0.06837694  0.15213389  0.55865368  1
  O  O47  1  0.93162306  0.84786611  0.44134632  1
  O  O48  1  0.79692116  0.12255805  0.82707417  1
  O  O49  1  0.20307884  0.87744195  0.17292583  1
  O  O50  1  0.32563689  0.20307884  0.82707417  1
  O  O51  1  0.67436311  0.87744195  0.67292583  1
  O  O52  1  0.67436311  0.79692116  0.17292583  1
  O  O53  1  0.32563689  0.12255805  0.32707417  1
  O  O54  1  0.87744195  0.67436311  0.82707417  1
  O  O55  1  0.12255805  0.79692116  0.67292583  1
  O  O56  1  0.12255805  0.32563689  0.17292583  1
  O  O57  1  0.87744195  0.20307884  0.32707417  1
  O  O58  1  0.20307884  0.32563689  0.67292583  1
  O  O59  1  0.79692116  0.67436311  0.32707417  1
  O  O60  1  0.47600159  0.48508436  0.86383079  1
  O  O61  1  0.52399841  0.51491564  0.13616921  1
  O  O62  1  0.00908277  0.52399841  0.86383079  1
  O  O63  1  0.99091723  0.51491564  0.63616921  1
  O  O64  1  0.99091723  0.47600159  0.13616921  1
  O  O65  1  0.00908277  0.48508436  0.36383079  1
  O  O66  1  0.51491564  0.99091723  0.86383079  1
  O  O67  1  0.48508436  0.47600159  0.63616921  1
  O  O68  1  0.48508436  0.00908277  0.13616921  1
  O  O69  1  0.51491564  0.52399841  0.36383079  1
  O  O70  1  0.52399841  0.00908277  0.63616921  1
  O  O71  1  0.47600159  0.99091723  0.36383079  1
  O  O72  1  0.84745930  0.91025245  0.80770309  1
  O  O73  1  0.15254070  0.08974755  0.19229691  1
  O  O74  1  0.06279315  0.15254070  0.80770309  1
  O  O75  1  0.93720685  0.08974755  0.69229691  1
  O  O76  1  0.93720685  0.84745930  0.19229691  1
  O  O77  1  0.06279315  0.91025245  0.30770309  1
  O  O78  1  0.08974755  0.93720685  0.80770309  1
  O  O79  1  0.91025245  0.84745930  0.69229691  1
  O  O80  1  0.91025245  0.06279315  0.19229691  1
  O  O81  1  0.08974755  0.15254070  0.30770309  1
  O  O82  1  0.15254070  0.06279315  0.69229691  1
  O  O83  1  0.84745930  0.93720685  0.30770309  1
  O  O84  1  0.39488031  0.57547565  0.96709759  1
  O  O85  1  0.60511969  0.42452435  0.03290241  1
  O  O86  1  0.18059534  0.60511969  0.96709759  1
  O  O87  1  0.81940466  0.42452435  0.53290241  1
  O  O88  1  0.81940466  0.39488031  0.03290241  1
  O  O89  1  0.18059534  0.57547565  0.46709759  1
  O  O90  1  0.42452435  0.81940466  0.96709759  1
  O  O91  1  0.57547565  0.39488031  0.53290241  1
  O  O92  1  0.57547565  0.18059534  0.03290241  1
  O  O93  1  0.42452435  0.60511969  0.46709759  1
  O  O94  1  0.60511969  0.18059534  0.53290241  1
  O  O95  1  0.39488031  0.81940466  0.46709759  1
  O  O96  1  0.48477287  0.72659658  0.82861121  1
  O  O97  1  0.51522713  0.27340342  0.17138879  1
  O  O98  1  0.24182371  0.51522713  0.82861121  1
  O  O99  1  0.75817629  0.27340342  0.67138879  1
  O  O100  1  0.75817629  0.48477287  0.17138879  1
  O  O101  1  0.24182371  0.72659658  0.32861121  1
  O  O102  1  0.27340342  0.75817629  0.82861121  1
  O  O103  1  0.72659658  0.48477287  0.67138879  1
  O  O104  1  0.72659658  0.24182371  0.17138879  1
  O  O105  1  0.27340342  0.51522713  0.32861121  1
  O  O106  1  0.51522713  0.24182371  0.67138879  1
  O  O107  1  0.48477287  0.75817629  0.32861121  1
loop_
_geom_bond_atom_site_label_1
_geom_bond_atom_site_label_2
_geom_bond_distance
_geom_bond_site_symmetry_2
K0 O36 2.697703 1_555
K0 O20 2.762142 1_556
K0 O14 2.808176 1_655
K0 O86 2.819358 1_655
K0 O62 2.879745 1_655
K0 O88 2.902142 1_556
K0 O0 2.902161 1_555
K1 O37 2.697703 1_555
K1 O18 2.762142 1_554
K1 O16 2.808176 1_455
K1 O88 2.819358 1_455
K1 O64 2.879745 1_455
K1 O86 2.902142 1_554
K1 O1 2.902161 1_555
K2 O38 2.697703 1_555
K2 O13 2.762142 1_556
K2 O18 2.808176 1_545
K2 O90 2.819359 1_545
K2 O66 2.879745 1_545
K2 O92 2.902142 1_556
K2 O2 2.902161 1_555
K3 O39 2.697703 1_555
K3 O23 2.762142 1_555
K3 O19 2.808176 1_555
K3 O91 2.819358 1_555
K3 O67 2.879745 1_555
K3 O93 2.902142 1_555
K3 O3 2.902161 1_555
K4 O40 2.697703 1_555
K4 O12 2.762142 1_554
K4 O20 2.808176 1_565
K4 O92 2.819359 1_565
K4 O68 2.879745 1_565
K4 O90 2.902142 1_554
K4 O4 2.902161 1_555
K5 O41 2.697703 1_555
K5 O22 2.762142 1_555
K5 O21 2.808176 1_555
K5 O93 2.819358 1_555
K5 O69 2.879745 1_555
K5 O91 2.902142 1_555
K5 O5 2.902161 1_555
K6 O42 2.697703 1_555
K6 O16 2.762142 1_556
K6 O12 2.808176 1_555
K6 O84 2.819358 1_555
K6 O60 2.879745 1_555
K6 O85 2.902142 1_556
K6 O6 2.902161 1_555
K7 O43 2.697703 1_555
K7 O17 2.762142 1_555
K7 O22 2.808176 1_565
K7 O94 2.819358 1_565
K7 O70 2.879745 1_565
K7 O95 2.902142 1_555
K7 O7 2.902161 1_555
K8 O44 2.697703 1_555
K8 O14 2.762142 1_554
K8 O13 2.808176 1_555
K8 O85 2.819358 1_555
K8 O61 2.879745 1_555
K8 O84 2.902142 1_554
K8 O8 2.902161 1_555
K9 O45 2.697703 1_555
K9 O15 2.762142 1_555
K9 O23 2.808176 1_545
K9 O95 2.819358 1_545
K9 O71 2.879745 1_545
K9 O94 2.902142 1_555
K9 O9 2.902161 1_555
K10 O46 2.697703 1_555
K10 O21 2.762142 1_555
K10 O15 2.808176 1_455
K10 O87 2.819359 1_455
K10 O63 2.879745 1_455
K10 O89 2.902142 1_555
K10 O10 2.902161 1_555
K11 O47 2.697703 1_555
K11 O19 2.762142 1_555
K11 O17 2.808176 1_655
K11 O89 2.819359 1_655
K11 O65 2.879745 1_655
K11 O87 2.902142 1_555
K11 O11 2.902161 1_555
Ge0 O88 1.904837 1_556
Ge0 O92 1.904838 1_556
Ge0 O85 1.904846 1_556
Ge0 O0 1.910903 1_555
Ge0 O6 1.910911 1_555
Ge0 O2 1.910912 1_555
Ge1 O86 1.904837 1_554
Ge1 O90 1.904838 1_554
Ge1 O84 1.904846 1_554
Ge1 O1 1.910903 1_555
Ge1 O8 1.910911 1_555
Ge1 O4 1.910912 1_555
Ge2 O95 1.904837 1_555
Ge2 O89 1.904838 1_555
Ge2 O93 1.904846 1_555
Ge2 O7 1.910903 1_555
Ge2 O3 1.910911 1_555
Ge2 O10 1.910912 1_555
Ge3 O94 1.904837 1_555
Ge3 O87 1.904838 1_555
Ge3 O91 1.904846 1_555
Ge3 O9 1.910903 1_555
Ge3 O5 1.910911 1_555
Ge3 O11 1.910912 1_555
Ge4 O24 1.888083 1_555
Ge4 O26 1.888083 1_555
Ge4 O30 1.888092 1_555
Ge4 O99 1.917052 1_555
Ge4 O106 1.917059 1_555
Ge4 O103 1.917061 1_555
Ge5 O25 1.888083 1_555
Ge5 O28 1.888083 1_555
Ge5 O32 1.888092 1_555
Ge5 O101 1.917052 1_555
Ge5 O107 1.917059 1_555
Ge5 O105 1.917061 1_555
Ge6 O31 1.888083 1_555
Ge6 O34 1.888083 1_555
Ge6 O27 1.888092 1_555
Ge6 O102 1.917052 1_555
Ge6 O98 1.917059 1_555
Ge6 O96 1.917061 1_555
Ge7 O33 1.888083 1_555
Ge7 O35 1.888083 1_555
Ge7 O29 1.888092 1_555
Ge7 O104 1.917052 1_555
Ge7 O100 1.917059 1_555
Ge7 O97 1.917061 1_555
Ge8 O44 1.937065 1_555
Ge8 O42 1.937065 1_444
Ge8 O40 1.937065 1_445
Ge8 O38 1.937065 1_554
Ge8 O37 1.937065 1_545
Ge8 O36 1.937065 1_454
Ge9 O41 1.937065 1_555
Ge9 O39 1.937065 1_445
Ge9 O47 1.937065 1_445
Ge9 O46 1.937065 1_555
Ge9 O45 1.937065 1_455
Ge9 O43 1.937065 1_545
Ge10 O36 1.761492 1_555
Ge10 O72 1.782113 1_545
Ge10 O12 1.796336 1_545
Ge10 O48 1.831132 1_555
Ge11 O37 1.761492 1_555
Ge11 O73 1.782113 1_565
Ge11 O13 1.796336 1_565
Ge11 O49 1.831132 1_555
Ge12 O38 1.761492 1_555
Ge12 O74 1.782113 1_555
Ge12 O14 1.796336 1_555
Ge12 O50 1.831132 1_555
Ge13 O39 1.761492 1_555
Ge13 O75 1.782113 1_565
Ge13 O15 1.796336 1_565
Ge13 O51 1.831132 1_555
Ge14 O40 1.761492 1_555
Ge14 O76 1.782113 1_555
Ge14 O16 1.796336 1_555
Ge14 O52 1.831132 1_555
Ge15 O41 1.761492 1_555
Ge15 O77 1.782113 1_545
Ge15 O17 1.796336 1_545
Ge15 O53 1.831132 1_555
Ge16 O42 1.761492 1_555
Ge16 O78 1.782113 1_655
Ge16 O18 1.796336 1_655
Ge16 O54 1.831132 1_555
Ge17 O43 1.761492 1_555
Ge17 O79 1.782113 1_455
Ge17 O19 1.796336 1_455
Ge17 O55 1.831132 1_555
Ge18 O44 1.761492 1_555
Ge18 O80 1.782113 1_455
Ge18 O20 1.796336 1_455
Ge18 O56 1.831132 1_555
Ge19 O45 1.761492 1_555
Ge19 O81 1.782113 1_655
Ge19 O21 1.796336 1_655
Ge19 O57 1.831132 1_555
Ge20 O46 1.761492 1_555
Ge20 O82 1.782113 1_555
Ge20 O22 1.796336 1_555
Ge20 O58 1.831132 1_555
Ge21 O47 1.761492 1_555
Ge21 O83 1.782113 1_555
Ge21 O23 1.796336 1_555
Ge21 O59 1.831132 1_555
Ge22 O0 1.743936 1_555
Ge22 O26 1.767539 1_555
Ge22 O66 1.795794 1_545
Ge22 O48 1.811324 1_555
Ge23 O1 1.743936 1_555
Ge23 O28 1.767539 1_555
Ge23 O68 1.795794 1_565
Ge23 O49 1.811324 1_555
Ge24 O2 1.743936 1_555
Ge24 O30 1.767539 1_555
Ge24 O60 1.795794 1_555
Ge24 O50 1.811324 1_555
Ge25 O3 1.743936 1_555
Ge25 O31 1.767539 1_555
Ge25 O70 1.795794 1_565
Ge25 O51 1.811324 1_555
Ge26 O4 1.743936 1_555
Ge26 O32 1.767539 1_555
Ge26 O61 1.795794 1_555
Ge26 O52 1.811324 1_555
Ge27 O5 1.743936 1_555
Ge27 O33 1.767539 1_555
Ge27 O71 1.795794 1_545
Ge27 O53 1.811324 1_555
Ge28 O6 1.743936 1_555
Ge28 O24 1.767539 1_555
Ge28 O62 1.795794 1_655
Ge28 O54 1.811324 1_555
Ge29 O7 1.743936 1_555
Ge29 O34 1.767539 1_555
Ge29 O63 1.795794 1_455
Ge29 O55 1.811324 1_555
Ge30 O8 1.743936 1_555
Ge30 O25 1.767539 1_555
Ge30 O64 1.795794 1_455
Ge30 O56 1.811324 1_555
Ge31 O9 1.743936 1_555
Ge31 O35 1.767539 1_555
Ge31 O65 1.795794 1_655
Ge31 O57 1.811324 1_555
Ge32 O10 1.743936 1_555
Ge32 O27 1.767539 1_555
Ge32 O67 1.795794 1_555
Ge32 O58 1.811324 1_555
Ge33 O11 1.743936 1_555
Ge33 O29 1.767539 1_555
Ge33 O69 1.795794 1_555
Ge33 O59 1.811324 1_555
Ge34 O90 1.745634 1_555
Ge34 O96 1.763432 1_555
Ge34 O66 1.787503 1_555
Ge34 O12 1.798427 1_555
Ge35 O92 1.745634 1_555
Ge35 O97 1.763432 1_555
Ge35 O68 1.787503 1_555
Ge35 O13 1.798427 1_555
Ge36 O84 1.745634 1_555
Ge36 O98 1.763432 1_555
Ge36 O60 1.787503 1_555
Ge36 O14 1.798427 1_555
Ge37 O94 1.745634 1_555
Ge37 O99 1.763432 1_555
Ge37 O70 1.787503 1_555
Ge37 O15 1.798428 1_555
Ge38 O85 1.745634 1_555
Ge38 O100 1.763432 1_555
Ge38 O61 1.787503 1_555
Ge38 O16 1.798427 1_555
Ge39 O95 1.745634 1_555
Ge39 O101 1.763432 1_555
Ge39 O71 1.787503 1_555
Ge39 O17 1.798428 1_555
Ge40 O86 1.745634 1_555
Ge40 O102 1.763432 1_555
Ge40 O62 1.787503 1_555
Ge40 O18 1.798428 1_555
Ge41 O87 1.745634 1_555
Ge41 O103 1.763432 1_555
Ge41 O63 1.787503 1_555
Ge41 O19 1.798427 1_555
Ge42 O88 1.745634 1_555
Ge42 O104 1.763432 1_555
Ge42 O64 1.787503 1_555
Ge42 O20 1.798428 1_555
Ge43 O89 1.745634 1_555
Ge43 O105 1.763432 1_555
Ge43 O65 1.787503 1_555
Ge43 O21 1.798427 1_555
Ge44 O91 1.745634 1_555
Ge44 O106 1.763432 1_555
Ge44 O67 1.787503 1_555
Ge44 O22 1.798427 1_555
Ge45 O93 1.745634 1_555
Ge45 O107 1.763432 1_555
Ge45 O69 1.787503 1_555
Ge45 O23 1.798427 1_555
Ge46 O72 1.933878 1_445
Ge46 O79 1.933878 1_445
Ge46 O74 1.933878 1_555
Ge46 O82 1.933878 1_555
Ge46 O75 1.933878 1_455
Ge46 O78 1.933878 1_545
Ge47 O73 1.933878 1_555
Ge47 O81 1.933878 1_555
Ge47 O76 1.933878 1_445
Ge47 O83 1.933878 1_445
Ge47 O77 1.933878 1_545
Ge47 O80 1.933878 1_455
O24 Sr2 2.722798 1_655
O25 Sr3 2.722798 1_455
O26 Sr4 2.722798 1_555
O27 Sr0 2.722798 1_555
O28 Sr5 2.722798 1_555
O29 Sr1 2.722798 1_555
O30 Sr0 2.722798 1_555
O31 Sr4 2.722798 1_565
O32 Sr1 2.722798 1_555
O33 Sr5 2.722798 1_545
O34 Sr2 2.722798 1_555
O35 Sr3 2.722798 1_555
O48 Sr2 2.886591 1_655
O49 Sr3 2.886591 1_455
O50 Sr4 2.886591 1_555
O51 Sr0 2.886591 1_555
O52 Sr5 2.886591 1_555
O53 Sr1 2.886591 1_555
O54 Sr0 2.886591 1_555
O55 Sr4 2.886591 1_565
O56 Sr1 2.886591 1_555
O57 Sr5 2.886591 1_545
O58 Sr2 2.886591 1_555
O59 Sr3 2.886591 1_555
O60 Sr0 3.115150 1_555
O61 Sr1 3.115150 1_555
O62 Sr2 3.115150 1_555
O63 Sr2 3.115150 1_655
O64 Sr3 3.115150 1_555
O65 Sr3 3.115150 1_455
O66 Sr4 3.115150 1_565
O67 Sr0 3.115150 1_555
O68 Sr5 3.115150 1_545
O69 Sr1 3.115150 1_555
O70 Sr4 3.115150 1_555
O71 Sr5 3.115150 1_555
O72 Sr0 2.847564 1_555
O73 Sr1 2.847564 1_555
O74 Sr2 2.847564 1_555
O75 Sr2 2.847564 1_655
O76 Sr3 2.847564 1_555
O77 Sr3 2.847564 1_455
O78 Sr4 2.847564 1_565
O79 Sr0 2.847564 1_555
O80 Sr5 2.847564 1_545
O81 Sr1 2.847564 1_555
O82 Sr4 2.847564 1_555
O83 Sr5 2.847564 1_555
O96 Sr0 2.996435 1_555
O97 Sr1 2.996435 1_555
O98 Sr2 2.996435 1_555
O99 Sr2 2.996435 1_655
O100 Sr3 2.996435 1_555
O101 Sr3 2.996435 1_455
O102 Sr4 2.996435 1_565
O103 Sr0 2.996435 1_555
O104 Sr5 2.996435 1_545
O105 Sr1 2.996435 1_555
O106 Sr4 2.996435 1_555
O107 Sr5 2.996435 1_555
