# generated using pymatgen
data_Ca4AlZn43
_symmetry_space_group_name_H-M   'P 1'
_cell_length_a   8.29517800
_cell_length_b   8.29517800
_cell_length_c   15.11577400
_cell_angle_alpha   90.00000000
_cell_angle_beta   90.00000000
_cell_angle_gamma   131.10691712
_symmetry_Int_Tables_number   1
_chemical_formula_structural   Ca4AlZn43
_chemical_formula_sum   'Ca4 Al1 Zn43'
_cell_volume   783.71084694
_cell_formula_units_Z   1
loop_
 _symmetry_equiv_pos_site_id
 _symmetry_equiv_pos_as_xyz
  1  'x, y, z'
loop_
 _atom_site_type_symbol
 _atom_site_label
 _atom_site_symmetry_multiplicity
 _atom_site_fract_x
 _atom_site_fract_y
 _atom_site_fract_z
 _atom_site_occupancy
  Ca  Ca0  1  0.50000000  0.00000000  0.24987700  1
  Ca  Ca1  1  0.00000000  0.50000000  0.75012300  1
  Ca  Ca2  1  0.50000000  0.50000000  0.00000000  1
  Ca  Ca3  1  0.00000000  0.00000000  0.50000000  1
  Al  Al0  1  0.00000000  0.00000000  0.00000000  1
  Zn  Zn0  1  0.63935600  0.46465800  0.20829200  1
  Zn  Zn1  1  0.13933300  0.96437300  0.70796900  1
  Zn  Zn2  1  0.34483700  0.75921400  0.91355800  1
  Zn  Zn3  1  0.84595900  0.25979800  0.41374700  1
  Zn  Zn4  1  0.96429200  0.63889000  0.95816500  1
  Zn  Zn5  1  0.46481100  0.13875500  0.45801800  1
  Zn  Zn6  1  0.34589800  0.25977300  0.33637200  1
  Zn  Zn7  1  0.84518900  0.75985900  0.83632700  1
  Zn  Zn8  1  0.75921400  0.34483700  0.08644200  1
  Zn  Zn9  1  0.25979800  0.84595900  0.58625300  1
  Zn  Zn10  1  0.96437300  0.13933300  0.29203100  1
  Zn  Zn11  1  0.46465800  0.63935600  0.79170800  1
  Zn  Zn12  1  0.75985900  0.84518900  0.16367300  1
  Zn  Zn13  1  0.25977300  0.34589800  0.66362800  1
  Zn  Zn14  1  0.63889000  0.96429200  0.04183500  1
  Zn  Zn15  1  0.13875500  0.46481100  0.54198200  1
  Zn  Zn16  1  0.36111000  0.03570800  0.04183500  1
  Zn  Zn17  1  0.86124500  0.53518900  0.54198200  1
  Zn  Zn18  1  0.65410200  0.74022700  0.33637200  1
  Zn  Zn19  1  0.15481100  0.24014100  0.83632700  1
  Zn  Zn20  1  0.03562700  0.86066700  0.29203100  1
  Zn  Zn21  1  0.53534200  0.36064400  0.79170800  1
  Zn  Zn22  1  0.65516300  0.24078600  0.91355800  1
  Zn  Zn23  1  0.15404100  0.74020200  0.41374700  1
  Zn  Zn24  1  0.24014100  0.15481100  0.16367300  1
  Zn  Zn25  1  0.74022700  0.65410200  0.66362800  1
  Zn  Zn26  1  0.03570800  0.36111000  0.95816500  1
  Zn  Zn27  1  0.53518900  0.86124500  0.45801800  1
  Zn  Zn28  1  0.24078600  0.65516300  0.08644200  1
  Zn  Zn29  1  0.74020200  0.15404100  0.58625300  1
  Zn  Zn30  1  0.36064400  0.53534200  0.20829200  1
  Zn  Zn31  1  0.86066700  0.03562700  0.70796900  1
  Zn  Zn32  1  0.25165700  0.00066400  0.87454300  1
  Zn  Zn33  1  0.74989400  0.50012200  0.37512000  1
  Zn  Zn34  1  0.99933600  0.74834300  0.12545700  1
  Zn  Zn35  1  0.49987800  0.25010600  0.62488000  1
  Zn  Zn36  1  0.74834300  0.99933600  0.87454300  1
  Zn  Zn37  1  0.25010600  0.49987800  0.37512000  1
  Zn  Zn38  1  0.00066400  0.25165700  0.12545700  1
  Zn  Zn39  1  0.50012200  0.74989400  0.62488000  1
  Zn  Zn40  1  0.50000000  0.50000000  0.50000000  1
  Zn  Zn41  1  0.00000000  0.50000000  0.24928100  1
  Zn  Zn42  1  0.50000000  0.00000000  0.75071900  1
loop_
_geom_bond_atom_site_label_1
_geom_bond_atom_site_label_2
_geom_bond_distance
_geom_bond_site_symmetry_2
Ca0 Zn10 3.275041 1_555
Ca0 Zn20 3.275041 1_545
Ca0 Zn0 3.275532 1_555
Ca0 Zn30 3.275532 1_545
Ca0 Zn8 3.289561 1_555
Ca0 Zn28 3.289561 1_545
Ca0 Zn3 3.298990 1_555
Ca0 Zn23 3.298990 1_545
Ca0 Zn6 3.407193 1_555
Ca0 Zn18 3.407193 1_545
Ca0 Zn12 3.410791 1_545
Ca0 Zn24 3.410791 1_555
Ca0 Zn5 3.427891 1_555
Ca0 Zn27 3.427891 1_545
Ca0 Zn16 3.428277 1_555
Ca0 Zn14 3.428277 1_545
Ca0 Zn41 3.432922 1_655
Ca0 Zn41 3.432922 1_545
Ca1 Zn1 3.275041 1_555
Ca1 Zn31 3.275041 1_455
Ca1 Zn11 3.275532 1_555
Ca1 Zn21 3.275532 1_455
Ca1 Zn2 3.289561 1_555
Ca1 Zn22 3.289561 1_455
Ca1 Zn9 3.298990 1_555
Ca1 Zn29 3.298990 1_455
Ca1 Zn13 3.407193 1_555
Ca1 Zn25 3.407193 1_455
Ca1 Zn7 3.410791 1_455
Ca1 Zn19 3.410791 1_555
Ca1 Zn15 3.427891 1_555
Ca1 Zn17 3.427891 1_455
Ca1 Zn26 3.428277 1_555
Ca1 Zn4 3.428277 1_455
Ca1 Zn42 3.432922 1_455
Ca1 Zn42 3.432922 1_565
Ca2 Zn14 3.275019 1_555
Ca2 Zn4 3.275019 1_554
Ca2 Zn16 3.275019 1_555
Ca2 Zn26 3.275019 1_554
Ca2 Zn24 3.293987 1_555
Ca2 Zn12 3.293987 1_555
Ca2 Zn7 3.293987 1_554
Ca2 Zn19 3.293987 1_554
Ca2 Zn8 3.409777 1_555
Ca2 Zn28 3.409777 1_555
Ca2 Zn2 3.409777 1_554
Ca2 Zn22 3.409777 1_554
Ca2 Zn0 3.432330 1_555
Ca2 Zn30 3.432330 1_555
Ca2 Zn11 3.432330 1_554
Ca2 Zn21 3.432330 1_554
Ca3 Zn17 3.279988 1_445
Ca3 Zn27 3.279988 1_445
Ca3 Zn15 3.279988 1_555
Ca3 Zn5 3.279988 1_555
Ca3 Zn13 3.296004 1_555
Ca3 Zn18 3.296004 1_445
Ca3 Zn25 3.296004 1_445
Ca3 Zn6 3.296004 1_555
Ca3 Zn3 3.405573 1_455
Ca3 Zn9 3.405573 1_545
Ca3 Zn29 3.405573 1_455
Ca3 Zn23 3.405573 1_545
Ca3 Zn1 3.428504 1_545
Ca3 Zn10 3.428504 1_455
Ca3 Zn31 3.428504 1_455
Ca3 Zn20 3.428504 1_545
Ca3 Zn40 3.432910 1_555
Ca3 Zn40 3.432910 1_445
Al0 Zn38 2.817621 1_555
Al0 Zn34 2.817621 1_445
Al0 Zn32 2.817621 1_554
Al0 Zn36 2.817621 1_444
Al0 Zn14 2.879892 1_445
Al0 Zn4 2.879892 1_444
Al0 Zn16 2.879892 1_555
Al0 Zn26 2.879892 1_554
Al0 Zn24 2.893854 1_555
Al0 Zn12 2.893854 1_445
Al0 Zn19 2.893854 1_554
Al0 Zn7 2.893854 1_444
Al0 Ca2 3.432910 1_445
Al0 Ca2 3.432910 1_555
Zn0 Zn8 2.582306 1_555
Zn0 Zn34 2.604277 1_555
Zn0 Zn24 2.614458 1_555
Zn0 Zn33 2.632823 1_555
Zn0 Zn6 2.668764 1_555
Zn0 Zn12 2.696113 1_555
Zn0 Zn30 2.733402 1_555
Zn0 Zn41 2.875114 1_655
Zn0 Zn18 2.936121 1_555
Zn0 Zn20 2.999943 1_655
Zn1 Zn9 2.576638 1_555
Zn1 Zn35 2.611289 1_565
Zn1 Zn25 2.613348 1_455
Zn1 Zn32 2.632441 1_565
Zn1 Zn7 2.674515 1_455
Zn1 Zn13 2.702923 1_565
Zn1 Zn31 2.736670 1_465
Zn1 Zn42 2.879780 1_565
Zn1 Zn19 2.937284 1_565
Zn1 Zn21 2.999943 1_565
Zn2 Zn36 2.598463 1_555
Zn2 Zn26 2.607800 1_555
Zn2 Zn32 2.644312 1_565
Zn2 Zn4 2.696768 1_455
Zn2 Zn28 2.709164 1_556
Zn2 Zn42 2.885190 1_565
Zn2 Zn22 3.010414 1_565
Zn3 Zn37 2.601340 1_655
Zn3 Zn33 2.653109 1_555
Zn3 Zn5 2.697762 1_555
Zn3 Zn41 2.904373 1_655
Zn4 Zn7 2.584265 1_555
Zn4 Zn8 2.673420 1_556
Zn5 Zn6 2.581453 1_555
Zn5 Zn9 2.667801 1_545
Zn10 Zn3 2.576638 1_555
Zn10 Zn37 2.611289 1_655
Zn10 Zn18 2.613348 1_545
Zn10 Zn38 2.632441 1_655
Zn10 Zn12 2.674515 1_545
Zn10 Zn6 2.702923 1_655
Zn10 Zn20 2.736670 1_645
Zn10 Zn41 2.879780 1_655
Zn10 Zn24 2.937284 1_655
Zn10 Zn30 2.999943 1_655
Zn11 Zn2 2.582306 1_555
Zn11 Zn36 2.604277 1_555
Zn11 Zn19 2.614458 1_555
Zn11 Zn39 2.632823 1_555
Zn11 Zn13 2.668764 1_555
Zn11 Zn7 2.696113 1_555
Zn11 Zn21 2.733402 1_555
Zn11 Zn42 2.875114 1_565
Zn11 Zn25 2.936121 1_555
Zn11 Zn31 2.999943 1_565
Zn12 Zn14 2.584265 1_555
Zn12 Zn30 2.614458 1_555
Zn12 Zn38 2.614598 1_665
Zn12 Zn34 2.650233 1_555
Zn12 Zn18 2.708859 1_555
Zn12 Zn20 2.937284 1_655
Zn12 Zn24 3.002332 1_665
Zn13 Zn15 2.581453 1_555
Zn13 Zn39 2.600587 1_555
Zn13 Zn31 2.613348 1_455
Zn13 Zn35 2.649990 1_555
Zn13 Zn19 2.708859 1_555
Zn13 Zn40 2.893615 1_555
Zn13 Zn21 2.936121 1_555
Zn13 Zn25 3.003649 1_555
Zn14 Zn28 2.607800 1_555
Zn14 Zn38 2.622857 1_665
Zn14 Zn36 2.637491 1_554
Zn14 Zn2 2.673420 1_554
Zn14 Zn8 2.696768 1_565
Zn14 Zn16 2.730456 1_565
Zn14 Zn22 2.937909 1_564
Zn14 Zn26 3.003724 1_664
Zn15 Zn29 2.610876 1_455
Zn15 Zn39 2.612832 1_555
Zn15 Zn37 2.635569 1_555
Zn15 Zn3 2.667801 1_455
Zn15 Zn9 2.697762 1_555
Zn15 Zn17 2.721606 1_455
Zn15 Zn40 2.883972 1_555
Zn15 Zn23 2.934457 1_555
Zn15 Zn27 3.003208 1_555
Zn16 Zn24 2.584265 1_555
Zn16 Zn8 2.607800 1_555
Zn16 Zn34 2.622857 1_445
Zn16 Zn32 2.637491 1_554
Zn16 Zn22 2.673420 1_554
Zn16 Zn28 2.696768 1_545
Zn16 Zn2 2.937909 1_544
Zn16 Zn4 3.003724 1_444
Zn17 Zn25 2.581453 1_555
Zn17 Zn9 2.610876 1_655
Zn17 Zn35 2.612832 1_555
Zn17 Zn33 2.635569 1_555
Zn17 Zn23 2.667801 1_655
Zn17 Zn29 2.697762 1_555
Zn17 Zn40 2.883972 1_555
Zn17 Zn3 2.934457 1_555
Zn17 Zn5 3.003208 1_555
Zn18 Zn27 2.581453 1_555
Zn18 Zn37 2.600587 1_555
Zn18 Zn33 2.649990 1_555
Zn18 Zn30 2.668764 1_555
Zn18 Zn20 2.702923 1_655
Zn18 Zn40 2.893615 1_555
Zn18 Zn6 3.003649 1_555
Zn19 Zn26 2.584265 1_555
Zn19 Zn36 2.614598 1_445
Zn19 Zn32 2.650233 1_555
Zn19 Zn31 2.674515 1_455
Zn19 Zn21 2.696113 1_555
Zn19 Zn7 3.002332 1_445
Zn20 Zn23 2.576638 1_555
Zn20 Zn33 2.611289 1_455
Zn20 Zn6 2.613348 1_565
Zn20 Zn34 2.632441 1_455
Zn20 Zn24 2.674515 1_565
Zn20 Zn41 2.879780 1_555
Zn21 Zn22 2.582306 1_555
Zn21 Zn32 2.604277 1_555
Zn21 Zn7 2.614458 1_555
Zn21 Zn35 2.632823 1_555
Zn21 Zn25 2.668764 1_555
Zn21 Zn42 2.875114 1_555
Zn22 Zn32 2.598463 1_555
Zn22 Zn4 2.607800 1_555
Zn22 Zn36 2.644312 1_545
Zn22 Zn26 2.696768 1_655
Zn22 Zn8 2.709164 1_556
Zn22 Zn42 2.885190 1_555
Zn23 Zn33 2.601340 1_455
Zn23 Zn5 2.610876 1_565
Zn23 Zn37 2.653109 1_555
Zn23 Zn27 2.697762 1_555
Zn23 Zn9 2.706771 1_555
Zn23 Zn41 2.904373 1_555
Zn23 Zn3 3.003353 1_455
Zn24 Zn34 2.614598 1_445
Zn24 Zn38 2.650233 1_555
Zn24 Zn30 2.696113 1_555
Zn24 Zn6 2.708859 1_555
Zn25 Zn35 2.600587 1_555
Zn25 Zn39 2.649990 1_555
Zn25 Zn31 2.702923 1_565
Zn25 Zn7 2.708859 1_555
Zn25 Zn40 2.893615 1_555
Zn26 Zn36 2.622857 1_445
Zn26 Zn38 2.637491 1_556
Zn26 Zn28 2.673420 1_556
Zn26 Zn4 2.730456 1_455
Zn26 Zn8 2.937909 1_456
Zn27 Zn3 2.610876 1_565
Zn27 Zn37 2.612832 1_555
Zn27 Zn39 2.635569 1_555
Zn27 Zn29 2.667801 1_565
Zn27 Zn5 2.721606 1_565
Zn27 Zn40 2.883972 1_555
Zn27 Zn9 2.934457 1_555
Zn28 Zn30 2.582306 1_555
Zn28 Zn38 2.598463 1_555
Zn28 Zn34 2.644312 1_455
Zn28 Zn41 2.885190 1_555
Zn28 Zn4 2.937909 1_454
Zn28 Zn8 3.010414 1_455
Zn29 Zn31 2.576638 1_555
Zn29 Zn39 2.601340 1_545
Zn29 Zn35 2.653109 1_555
Zn29 Zn3 2.706771 1_555
Zn29 Zn42 2.904373 1_555
Zn29 Zn5 2.934457 1_555
Zn29 Zn9 3.003353 1_545
Zn30 Zn38 2.604277 1_555
Zn30 Zn37 2.632823 1_555
Zn30 Zn41 2.875114 1_555
Zn30 Zn6 2.936121 1_555
Zn31 Zn39 2.611289 1_545
Zn31 Zn36 2.632441 1_545
Zn31 Zn42 2.879780 1_555
Zn31 Zn7 2.937284 1_545
Zn32 Zn7 2.614598 1_445
Zn32 Zn4 2.622857 1_445
Zn32 Zn42 2.786036 1_555
Zn33 Zn6 2.600587 1_555
Zn33 Zn5 2.612832 1_555
Zn33 Zn40 2.803118 1_555
Zn33 Zn41 2.815177 1_655
Zn34 Zn8 2.598463 1_555
Zn34 Zn4 2.637491 1_554
Zn34 Zn41 2.786036 1_655
Zn35 Zn9 2.601340 1_545
Zn35 Zn5 2.635569 1_555
Zn35 Zn40 2.803118 1_555
Zn35 Zn42 2.815177 1_555
Zn36 Zn7 2.650233 1_555
Zn36 Zn42 2.786036 1_565
Zn37 Zn6 2.649990 1_555
Zn37 Zn40 2.803118 1_555
Zn37 Zn41 2.815177 1_555
Zn38 Zn8 2.644312 1_455
Zn38 Zn41 2.786036 1_555
Zn39 Zn9 2.653109 1_555
Zn39 Zn40 2.803118 1_555
Zn39 Zn42 2.815177 1_565
Zn40 Zn5 2.883972 1_555
Zn40 Zn6 2.893615 1_555
Zn41 Zn8 2.885190 1_455
Zn42 Zn9 2.904373 1_545
