# generated using pymatgen
data_Sc7(Mn3Ge4)2
_symmetry_space_group_name_H-M   'P 1'
_cell_length_a   9.97117000
_cell_length_b   9.97117000
_cell_length_c   9.96583141
_cell_angle_alpha   120.01772203
_cell_angle_beta   120.01772203
_cell_angle_gamma   90.00000000
_symmetry_Int_Tables_number   1
_chemical_formula_structural   Sc7(Mn3Ge4)2
_chemical_formula_sum   'Sc14 Mn12 Ge16'
_cell_volume   700.25778527
_cell_formula_units_Z   2
loop_
 _symmetry_equiv_pos_site_id
 _symmetry_equiv_pos_as_xyz
  1  'x, y, z'
loop_
 _atom_site_type_symbol
 _atom_site_label
 _atom_site_symmetry_multiplicity
 _atom_site_fract_x
 _atom_site_fract_y
 _atom_site_fract_z
 _atom_site_occupancy
  Sc  Sc0  1  0.30904800  0.56152500  0.61809500  1
  Sc  Sc1  1  0.69095200  0.43847500  0.38190500  1
  Sc  Sc2  1  0.30904800  0.05657100  0.61809500  1
  Sc  Sc3  1  0.05657100  0.30904800  0.61809500  1
  Sc  Sc4  1  0.69095200  0.94342900  0.38190500  1
  Sc  Sc5  1  0.94342900  0.69095200  0.38190500  1
  Sc  Sc6  1  0.56152500  0.30904800  0.61809500  1
  Sc  Sc7  1  0.43847500  0.69095200  0.38190500  1
  Sc  Sc8  1  0.15826600  0.15826600  0.31653200  1
  Sc  Sc9  1  0.84173400  0.84173400  0.68346800  1
  Sc  Sc10  1  0.32210900  0.32210900  0.00000000  1
  Sc  Sc11  1  0.67789100  0.67789100  0.00000000  1
  Sc  Sc12  1  0.67789100  0.32210900  0.00000000  1
  Sc  Sc13  1  0.32210900  0.67789100  0.00000000  1
  Mn  Mn0  1  0.09427000  0.41414100  0.18853900  1
  Mn  Mn1  1  0.90573000  0.58585900  0.81146100  1
  Mn  Mn2  1  0.09427000  0.77439800  0.18853900  1
  Mn  Mn3  1  0.77439800  0.09427000  0.18853900  1
  Mn  Mn4  1  0.90573000  0.22560200  0.81146100  1
  Mn  Mn5  1  0.22560200  0.90573000  0.81146100  1
  Mn  Mn6  1  0.41414100  0.09427000  0.18853900  1
  Mn  Mn7  1  0.58585900  0.90573000  0.81146100  1
  Mn  Mn8  1  0.12489100  0.12489100  0.00000000  1
  Mn  Mn9  1  0.87510900  0.87510900  0.00000000  1
  Mn  Mn10  1  0.87510900  0.12489100  0.00000000  1
  Mn  Mn11  1  0.12489100  0.87510900  0.00000000  1
  Ge  Ge0  1  0.38892200  0.38892200  0.77784400  1
  Ge  Ge1  1  0.61107800  0.61107800  0.22215600  1
  Ge  Ge2  1  0.25000000  0.75000000  0.50000000  1
  Ge  Ge3  1  0.75000000  0.25000000  0.50000000  1
  Ge  Ge4  1  0.12541500  0.50000000  0.00000000  1
  Ge  Ge5  1  0.87458500  0.50000000  0.00000000  1
  Ge  Ge6  1  0.50000000  0.12541500  0.00000000  1
  Ge  Ge7  1  0.50000000  0.87458500  0.00000000  1
  Ge  Ge8  1  0.36800500  0.36800500  0.32866600  1
  Ge  Ge9  1  0.63199500  0.63199500  0.67133400  1
  Ge  Ge10  1  0.96066100  0.96066100  0.32866600  1
  Ge  Ge11  1  0.96066100  0.36800500  0.32866600  1
  Ge  Ge12  1  0.63199500  0.03933900  0.67133400  1
  Ge  Ge13  1  0.03933900  0.03933900  0.67133400  1
  Ge  Ge14  1  0.03933900  0.63199500  0.67133400  1
  Ge  Ge15  1  0.36800500  0.96066100  0.32866600  1
loop_
_geom_bond_atom_site_label_1
_geom_bond_atom_site_label_2
_geom_bond_distance
_geom_bond_site_symmetry_2
Mn0 Mn8 2.663450 1_555
Mn0 Mn10 2.663454 1_455
Mn1 Mn9 2.663450 1_556
Mn1 Mn11 2.663454 1_656
Mn2 Mn9 2.663454 1_455
Mn3 Mn9 2.663454 1_545
Mn4 Mn8 2.663454 1_656
Mn5 Mn8 2.663454 1_566
Mn6 Mn8 2.663450 1_555
Mn7 Mn9 2.663450 1_556
Mn8 Sc10 2.781043 1_555
Mn8 Sc8 2.841075 1_555
Mn8 Sc9 2.841075 1_444
Mn9 Sc11 2.781043 1_555
Mn9 Sc9 2.841075 1_554
Mn9 Sc8 2.841075 1_665
Mn10 Mn9 2.490619 1_545
Mn10 Mn8 2.490619 1_655
Mn10 Mn4 2.663450 1_554
Mn10 Mn3 2.663450 1_555
Mn10 Mn7 2.663454 1_544
Mn10 Sc12 2.781043 1_555
Mn10 Sc8 2.841075 1_655
Mn10 Sc9 2.841075 1_544
Mn11 Mn9 2.490619 1_455
Mn11 Mn8 2.490619 1_565
Mn11 Mn5 2.663450 1_554
Mn11 Mn2 2.663450 1_555
Mn11 Mn6 2.663454 1_565
Mn11 Sc13 2.781043 1_555
Mn11 Sc8 2.841075 1_565
Mn11 Sc9 2.841075 1_454
Ge0 Sc3 2.757474 1_555
Ge0 Sc2 2.757474 1_555
Ge0 Sc6 2.757483 1_555
Ge0 Sc0 2.757483 1_555
Ge0 Sc13 2.956485 1_556
Ge0 Sc10 2.956485 1_556
Ge0 Sc11 2.956485 1_556
Ge0 Sc12 2.956485 1_556
Ge0 Sc8 3.249080 1_555
Ge1 Sc5 2.757474 1_555
Ge1 Sc4 2.757474 1_555
Ge1 Sc7 2.757483 1_555
Ge1 Sc1 2.757483 1_555
Ge1 Sc11 2.956485 1_555
Ge1 Sc13 2.956485 1_555
Ge1 Sc10 2.956485 1_555
Ge1 Sc12 2.956485 1_555
Ge1 Sc9 3.249080 1_555
Ge2 Sc0 2.604474 1_555
Ge2 Sc7 2.604474 1_555
Ge2 Sc2 2.604483 1_565
Ge2 Sc5 2.604483 1_455
Ge2 Mn2 2.835153 1_555
Ge2 Mn5 2.835153 1_555
Ge2 Mn0 2.835153 1_555
Ge2 Mn7 2.835153 1_555
Ge3 Sc6 2.604474 1_555
Ge3 Sc1 2.604474 1_555
Ge3 Sc3 2.604483 1_655
Ge3 Sc4 2.604483 1_545
Ge3 Mn3 2.835153 1_555
Ge3 Mn6 2.835153 1_555
Ge3 Mn4 2.835153 1_555
Ge3 Mn1 2.835153 1_555
Ge4 Ge5 2.501069 1_455
Ge4 Mn2 2.559902 1_555
Ge4 Mn0 2.559902 1_555
Ge4 Mn4 2.559907 1_454
Ge4 Mn1 2.559907 1_454
Ge4 Sc10 2.644405 1_555
Ge4 Sc13 2.644405 1_555
Ge4 Sc7 2.952541 1_555
Ge4 Sc3 2.952545 1_554
Ge5 Mn4 2.559902 1_554
Ge5 Mn1 2.559902 1_554
Ge5 Mn0 2.559907 1_655
Ge5 Mn2 2.559907 1_655
Ge5 Sc12 2.644405 1_555
Ge5 Sc11 2.644405 1_555
Ge5 Sc6 2.952541 1_554
Ge5 Sc5 2.952545 1_555
Ge6 Ge7 2.501069 1_545
Ge6 Mn3 2.559902 1_555
Ge6 Mn6 2.559902 1_555
Ge6 Mn7 2.559907 1_544
Ge6 Mn5 2.559907 1_544
Ge6 Sc10 2.644405 1_555
Ge6 Sc12 2.644405 1_555
Ge6 Sc1 2.952541 1_555
Ge6 Sc2 2.952545 1_554
Ge7 Mn7 2.559902 1_554
Ge7 Mn5 2.559902 1_554
Ge7 Mn3 2.559907 1_565
Ge7 Mn6 2.559907 1_565
Ge7 Sc11 2.644405 1_555
Ge7 Sc13 2.644405 1_555
Ge7 Sc0 2.952541 1_554
Ge7 Sc4 2.952545 1_555
Ge8 Mn0 2.537877 1_555
Ge8 Mn6 2.537877 1_555
Ge8 Mn8 2.567609 1_555
Ge8 Ge9 2.744432 1_555
Ge8 Sc10 2.854432 1_555
Ge8 Sc8 2.873324 1_555
Ge8 Sc0 2.918317 1_555
Ge8 Sc6 2.918317 1_555
Ge8 Sc1 3.010352 1_555
Ge8 Sc7 3.010352 1_555
Ge9 Mn7 2.537877 1_555
Ge9 Mn1 2.537877 1_555
Ge9 Mn9 2.567609 1_556
Ge9 Sc11 2.854432 1_556
Ge9 Sc9 2.873324 1_555
Ge9 Sc1 2.918317 1_555
Ge9 Sc7 2.918317 1_555
Ge9 Sc0 3.010352 1_555
Ge9 Sc6 3.010352 1_555
Ge10 Mn3 2.537885 1_565
Ge10 Mn2 2.537885 1_655
Ge10 Mn9 2.567609 1_555
Ge10 Ge13 2.744432 1_665
Ge10 Sc11 2.854432 1_555
Ge10 Sc8 2.873324 1_665
Ge10 Sc2 2.918323 1_665
Ge10 Sc3 2.918323 1_665
Ge10 Sc4 3.010364 1_555
Ge10 Sc5 3.010364 1_555
Ge11 Mn3 2.537877 1_555
Ge11 Mn0 2.537885 1_655
Ge11 Mn10 2.567609 1_555
Ge11 Ge14 2.744432 1_655
Ge11 Sc12 2.854432 1_555
Ge11 Sc8 2.873324 1_655
Ge11 Sc3 2.918316 1_655
Ge11 Sc0 2.918324 1_655
Ge11 Sc5 3.010354 1_555
Ge11 Sc1 3.010362 1_555
Ge12 Mn4 2.537877 1_555
Ge12 Mn7 2.537885 1_545
Ge12 Mn10 2.567609 1_556
Ge12 Ge15 2.744432 1_545
Ge12 Sc12 2.854432 1_556
Ge12 Sc9 2.873324 1_545
Ge12 Sc4 2.918316 1_545
Ge12 Sc7 2.918324 1_545
Ge12 Sc2 3.010354 1_555
Ge12 Sc6 3.010362 1_555
Ge13 Mn4 2.537885 1_455
Ge13 Mn5 2.537885 1_545
Ge13 Mn8 2.567609 1_556
Ge13 Sc10 2.854432 1_556
Ge13 Sc9 2.873324 1_445
Ge13 Sc5 2.918323 1_445
Ge13 Sc4 2.918323 1_445
Ge13 Sc2 3.010364 1_555
Ge13 Sc3 3.010364 1_555
Ge14 Mn5 2.537877 1_555
Ge14 Mn1 2.537885 1_455
Ge14 Mn11 2.567609 1_556
Ge14 Sc13 2.854432 1_556
Ge14 Sc9 2.873324 1_455
Ge14 Sc5 2.918316 1_455
Ge14 Sc1 2.918324 1_455
Ge14 Sc3 3.010354 1_555
Ge14 Sc0 3.010362 1_555
Ge15 Mn2 2.537877 1_555
Ge15 Mn6 2.537885 1_565
Ge15 Mn11 2.567609 1_555
Ge15 Sc13 2.854432 1_555
Ge15 Sc8 2.873324 1_565
Ge15 Sc2 2.918316 1_565
Ge15 Sc6 2.918324 1_565
Ge15 Sc4 3.010354 1_555
Ge15 Sc7 3.010362 1_555
