# generated using pymatgen
data_NdF3
_symmetry_space_group_name_H-M   'P 1'
_cell_length_a   7.11091385
_cell_length_b   7.11091385
_cell_length_c   7.08554700
_cell_angle_alpha   90.00000000
_cell_angle_beta   90.00000000
_cell_angle_gamma   119.99999865
_symmetry_Int_Tables_number   1
_chemical_formula_structural   NdF3
_chemical_formula_sum   'Nd6 F18'
_cell_volume   310.28076644
_cell_formula_units_Z   6
loop_
 _symmetry_equiv_pos_site_id
 _symmetry_equiv_pos_as_xyz
  1  'x, y, z'
loop_
 _atom_site_type_symbol
 _atom_site_label
 _atom_site_symmetry_multiplicity
 _atom_site_fract_x
 _atom_site_fract_y
 _atom_site_fract_z
 _atom_site_occupancy
  Nd  Nd0  1  0.66943300  0.66943300  0.25000000  1
  Nd  Nd1  1  0.00000000  0.66943300  0.75000000  1
  Nd  Nd2  1  0.66943300  0.00000000  0.75000000  1
  Nd  Nd3  1  0.33056700  0.00000000  0.25000000  1
  Nd  Nd4  1  0.00000000  0.33056700  0.25000000  1
  Nd  Nd5  1  0.33056700  0.33056700  0.75000000  1
  F  F0  1  0.00000000  0.00000000  0.50000000  1
  F  F1  1  0.00000000  0.00000000  0.00000000  1
  F  F2  1  0.33333300  0.66666700  0.25000000  1
  F  F3  1  0.66666700  0.33333300  0.75000000  1
  F  F4  1  0.66666700  0.33333300  0.25000000  1
  F  F5  1  0.33333300  0.66666700  0.75000000  1
  F  F6  1  0.34403900  0.00000000  0.91629300  1
  F  F7  1  0.34403900  0.34403900  0.41629300  1
  F  F8  1  0.00000000  0.65596100  0.41629300  1
  F  F9  1  0.00000000  0.34403900  0.91629300  1
  F  F10  1  0.65596100  0.65596100  0.91629300  1
  F  F11  1  0.34403900  0.00000000  0.58370700  1
  F  F12  1  0.65596100  0.65596100  0.58370700  1
  F  F13  1  0.65596100  0.00000000  0.41629300  1
  F  F14  1  0.00000000  0.34403900  0.58370700  1
  F  F15  1  0.00000000  0.65596100  0.08370700  1
  F  F16  1  0.65596100  0.00000000  0.08370700  1
  F  F17  1  0.34403900  0.34403900  0.08370700  1
loop_
_geom_bond_atom_site_label_1
_geom_bond_atom_site_label_2
_geom_bond_distance
_geom_bond_site_symmetry_2
F0 Nd3 2.943347 1_555
F0 Nd4 2.943347 1_555
F0 Nd2 2.943347 1_455
F0 Nd1 2.943347 1_545
F0 Nd5 2.943347 1_555
F0 Nd0 2.943347 1_445
F1 Nd3 2.943347 1_555
F1 Nd4 2.943347 1_555
F1 Nd1 2.943347 1_544
F1 Nd2 2.943347 1_454
F1 Nd5 2.943347 1_554
F1 Nd0 2.943347 1_445
F2 Nd3 2.380198 1_565
F2 Nd4 2.380201 1_555
F2 Nd0 2.380205 1_555
F3 Nd2 2.380198 1_555
F3 Nd1 2.380201 1_655
F3 Nd5 2.380205 1_555
F4 Nd4 2.380198 1_655
F4 Nd3 2.380201 1_555
F4 Nd0 2.380205 1_555
F5 Nd1 2.380198 1_555
F5 Nd2 2.380201 1_565
F5 Nd5 2.380205 1_555
F6 Nd3 2.366436 1_556
F6 Nd2 2.596581 1_555
F6 Nd5 2.673608 1_555
F6 Nd1 2.673608 1_545
F7 Nd5 2.366436 1_555
F7 Nd0 2.596581 1_555
F7 Nd4 2.673608 1_555
F7 Nd3 2.673608 1_555
F8 Nd1 2.366436 1_555
F8 Nd4 2.596581 1_555
F8 Nd0 2.673608 1_455
F8 Nd3 2.673608 1_565
F9 Nd4 2.366436 1_556
F9 Nd1 2.596581 1_555
F9 Nd5 2.673608 1_555
F9 Nd2 2.673608 1_455
F10 Nd0 2.366436 1_556
F10 Nd5 2.596581 1_555
F10 Nd1 2.673608 1_655
F10 Nd2 2.673608 1_565
F11 Nd3 2.366436 1_555
F11 Nd2 2.596581 1_555
F11 Nd5 2.673608 1_555
F11 Nd1 2.673608 1_545
F12 Nd0 2.366436 1_555
F12 Nd5 2.596581 1_555
F12 Nd1 2.673608 1_655
F12 Nd2 2.673608 1_565
F13 Nd2 2.366436 1_555
F13 Nd3 2.596581 1_555
F13 Nd0 2.673608 1_545
F13 Nd4 2.673608 1_655
F14 Nd4 2.366436 1_555
F14 Nd1 2.596581 1_555
F14 Nd5 2.673608 1_555
F14 Nd2 2.673608 1_455
F15 Nd1 2.366436 1_554
F15 Nd4 2.596581 1_555
F15 Nd0 2.673608 1_455
F15 Nd3 2.673608 1_565
F16 Nd2 2.366436 1_554
F16 Nd3 2.596581 1_555
F16 Nd0 2.673608 1_545
F16 Nd4 2.673608 1_655
F17 Nd5 2.366436 1_554
F17 Nd0 2.596581 1_555
F17 Nd4 2.673608 1_555
F17 Nd3 2.673608 1_555
