# generated using pymatgen
data_Tm2Mn12InSn11
_symmetry_space_group_name_H-M   'P 1'
_cell_length_a   5.44720485
_cell_length_b   5.44535403
_cell_length_c   18.05186300
_cell_angle_alpha   90.00000000
_cell_angle_beta   90.00000000
_cell_angle_gamma   60.02261489
_symmetry_Int_Tables_number   1
_chemical_formula_structural   Tm2Mn12InSn11
_chemical_formula_sum   'Tm2 Mn12 In1 Sn11'
_cell_volume   463.82207235
_cell_formula_units_Z   1
loop_
 _symmetry_equiv_pos_site_id
 _symmetry_equiv_pos_as_xyz
  1  'x, y, z'
loop_
 _atom_site_type_symbol
 _atom_site_label
 _atom_site_symmetry_multiplicity
 _atom_site_fract_x
 _atom_site_fract_y
 _atom_site_fract_z
 _atom_site_occupancy
  Tm  Tm0  1  0.00000500  0.99994100  0.99996000  1
  Tm  Tm1  1  0.00000500  0.99994100  0.50004000  1
  Mn  Mn0  1  0.49978800  0.49980500  0.12288500  1
  Mn  Mn1  1  0.49995000  0.49998300  0.62328000  1
  Mn  Mn2  1  0.49976000  0.00048500  0.12290300  1
  Mn  Mn3  1  0.49999500  0.00002400  0.62330000  1
  Mn  Mn4  1  0.00045800  0.49976000  0.12288600  1
  Mn  Mn5  1  0.00000100  0.50002200  0.62328800  1
  Mn  Mn6  1  0.49978800  0.49980500  0.37711500  1
  Mn  Mn7  1  0.49995000  0.49998300  0.87672000  1
  Mn  Mn8  1  0.49976000  0.00048500  0.37709700  1
  Mn  Mn9  1  0.49999500  0.00002400  0.87670000  1
  Mn  Mn10  1  0.00045800  0.49976000  0.37711400  1
  Mn  Mn11  1  0.00000100  0.50002200  0.87671200  1
  In  In0  1  0.66673300  0.66679100  0.25000000  1
  Sn  Sn0  1  0.66659900  0.66673800  0.50004700  1
  Sn  Sn1  1  0.66659900  0.66673800  0.99995300  1
  Sn  Sn2  1  0.33331100  0.33325300  0.99992000  1
  Sn  Sn3  1  0.33331100  0.33325300  0.50008000  1
  Sn  Sn4  1  0.99990200  0.99999900  0.16661600  1
  Sn  Sn5  1  0.00000200  0.99996600  0.66669400  1
  Sn  Sn6  1  0.99990200  0.99999900  0.33338400  1
  Sn  Sn7  1  0.00000200  0.99996600  0.83330600  1
  Sn  Sn8  1  0.66668000  0.66667200  0.75000000  1
  Sn  Sn9  1  0.33337300  0.33322100  0.25000000  1
  Sn  Sn10  1  0.33327000  0.33336400  0.75000000  1
loop_
_geom_bond_atom_site_label_1
_geom_bond_atom_site_label_2
_geom_bond_distance
_geom_bond_site_symmetry_2
Mn0 Mn2 2.719050 1_555
Mn0 Sn2 2.719197 1_554
Mn0 Mn4 2.720075 1_555
Mn0 Sn1 2.720660 1_554
Mn0 Mn2 2.726304 1_565
Mn0 Mn4 2.727130 1_655
Mn0 Sn9 2.780609 1_555
Mn0 Sn4 2.835943 1_545
Mn0 Sn4 2.836360 1_455
Mn1 Mn3 2.722331 1_555
Mn1 Mn3 2.723023 1_565
Mn1 Mn5 2.723219 1_555
Mn1 Sn3 2.723587 1_555
Mn1 Mn5 2.723986 1_655
Mn1 Sn0 2.724168 1_555
Mn1 Sn10 2.775529 1_555
Mn1 Sn8 2.775849 1_555
Mn1 Sn5 2.834383 1_555
Mn1 Sn5 2.834745 1_645
Mn2 Sn2 2.718908 1_554
Mn2 Mn4 2.720194 1_555
Mn2 Sn1 2.721090 1_544
Mn2 Mn4 2.727947 1_645
Mn2 Sn9 2.779793 1_555
Mn2 Sn4 2.835085 1_545
Mn2 Sn4 2.836139 1_445
Mn3 Sn3 2.723657 1_555
Mn3 Mn5 2.724049 1_555
Mn3 Mn5 2.724092 1_645
Mn3 Sn0 2.724298 1_545
Mn3 Sn10 2.775494 1_555
Mn3 Sn8 2.775526 1_545
Mn3 Sn5 2.833899 1_645
Mn3 Sn5 2.834129 1_545
Mn4 Sn2 2.719197 1_554
Mn4 Sn1 2.721455 1_454
Mn4 Sn9 2.780825 1_555
Mn4 Sn4 2.834606 1_455
Mn4 Sn4 2.835012 1_445
Mn5 Sn3 2.724009 1_555
Mn5 Sn0 2.724746 1_455
Mn5 Sn10 2.775785 1_555
Mn5 Sn8 2.775924 1_455
Mn5 Sn5 2.832894 1_555
Mn5 Sn5 2.833475 1_545
Mn6 Mn8 2.719050 1_555
Mn6 Sn3 2.719197 1_555
Mn6 Sn0 2.720660 1_555
Mn6 Mn8 2.726304 1_565
Mn6 Sn9 2.780609 1_555
Mn6 Sn6 2.835943 1_545
Mn6 Sn6 2.836360 1_455
Mn7 Mn9 2.722331 1_555
Mn7 Mn9 2.723023 1_565
Mn7 Sn2 2.723587 1_555
Mn7 Sn1 2.724168 1_555
Mn7 Sn10 2.775529 1_555
Mn7 Sn8 2.775849 1_555
Mn7 Sn7 2.834383 1_555
Mn7 Sn7 2.834745 1_645
Mn8 Sn3 2.718908 1_555
Mn8 Sn0 2.721090 1_545
Mn8 Sn9 2.779793 1_555
Mn8 Sn6 2.835085 1_545
Mn8 Sn6 2.836139 1_445
Mn9 Sn2 2.723657 1_555
Mn9 Sn1 2.724298 1_545
Mn9 Sn10 2.775494 1_555
Mn9 Sn8 2.775526 1_545
Mn9 Sn7 2.833899 1_645
Mn9 Sn7 2.834129 1_545
Mn10 Sn3 2.719197 1_555
Mn10 Mn6 2.720075 1_555
Mn10 Mn8 2.720194 1_555
Mn10 Sn0 2.721455 1_455
Mn10 Mn6 2.727130 1_455
Mn10 Mn8 2.727947 1_465
Mn10 Sn9 2.780825 1_555
Mn10 Sn6 2.834606 1_455
Mn10 Sn6 2.835012 1_445
Mn11 Mn7 2.723219 1_555
Mn11 Mn7 2.723986 1_455
Mn11 Sn2 2.724009 1_555
Mn11 Mn9 2.724049 1_555
Mn11 Mn9 2.724092 1_465
Mn11 Sn1 2.724746 1_455
Mn11 Sn10 2.775785 1_555
Mn11 Sn8 2.775924 1_455
Mn11 Sn7 2.832894 1_555
Mn11 Sn7 2.833475 1_545
In0 Mn8 2.782347 1_565
In0 Mn2 2.782347 1_565
In0 Mn10 2.782986 1_655
In0 Mn4 2.782986 1_655
In0 Mn6 2.783094 1_555
In0 Mn0 2.783094 1_555
In0 Sn9 3.143478 1_565
In0 Sn9 3.145294 1_555
In0 Sn9 3.145536 1_655
Sn0 Tm1 3.143781 1_655
Sn0 Sn3 3.143878 1_565
Sn0 Sn3 3.144554 1_555
Sn0 Tm1 3.145208 1_645
Sn0 Tm1 3.145319 1_555
Sn0 Sn3 3.145876 1_655
Sn1 Tm0 3.143781 1_655
Sn1 Sn2 3.143878 1_565
Sn1 Sn2 3.144554 1_555
Sn1 Tm0 3.145208 1_645
Sn1 Tm0 3.145319 1_555
Sn1 Sn2 3.145876 1_655
Sn2 Tm0 3.143823 1_545
Sn2 Tm0 3.144694 1_555
Sn2 Tm0 3.145791 1_645
Sn3 Tm1 3.143823 1_545
Sn3 Tm1 3.144694 1_555
Sn3 Tm1 3.145791 1_645
Sn4 Tm0 3.008451 1_654
Sn4 Sn6 3.010473 1_555
Sn5 Sn7 3.007657 1_555
Sn5 Tm1 3.008415 1_555
Sn6 Tm1 3.008451 1_655
Sn7 Tm0 3.008415 1_555
Sn10 Sn8 3.144295 1_555
Sn10 Sn8 3.144713 1_545
Sn10 Sn8 3.145300 1_455
