# generated using pymatgen
data_Li9Mn2Co5O16
_symmetry_space_group_name_H-M   'P 1'
_cell_length_a   4.98452800
_cell_length_b   5.94677685
_cell_length_c   9.85850381
_cell_angle_alpha   89.05618558
_cell_angle_beta   78.98564344
_cell_angle_gamma   89.14001703
_symmetry_Int_Tables_number   1
_chemical_formula_structural   Li9Mn2Co5O16
_chemical_formula_sum   'Li9 Mn2 Co5 O16'
_cell_volume   286.78171179
_cell_formula_units_Z   1
loop_
 _symmetry_equiv_pos_site_id
 _symmetry_equiv_pos_as_xyz
  1  'x, y, z'
loop_
 _atom_site_type_symbol
 _atom_site_label
 _atom_site_symmetry_multiplicity
 _atom_site_fract_x
 _atom_site_fract_y
 _atom_site_fract_z
 _atom_site_occupancy
  Li  Li0  1  0.25840300  0.00548800  0.25177000  1
  Li  Li1  1  0.25171000  0.24976600  0.74333000  1
  Li  Li2  1  0.25311100  0.49834000  0.24627900  1
  Li  Li3  1  0.74756300  0.26025700  0.25658800  1
  Li  Li4  1  0.74706900  0.49680700  0.75142900  1
  Li  Li5  1  0.74769800  0.74503400  0.25892000  1
  Li  Li6  1  0.25397700  0.74903000  0.74459900  1
  Li  Li7  1  0.73969100  0.99385600  0.74808200  1
  Li  Li8  1  0.49983100  0.50152600  0.50028400  1
  Mn  Mn0  1  0.00011700  0.00209400  0.99957400  1
  Mn  Mn1  1  0.99939200  0.25045200  0.49984300  1
  Co  Co0  1  0.99529200  0.49797500  0.00334100  1
  Co  Co1  1  0.00202700  0.73850900  0.49964900  1
  Co  Co2  1  0.50297000  0.74948000  0.99677100  1
  Co  Co3  1  0.50054600  0.00522500  0.50002300  1
  Co  Co4  1  0.49969900  0.25055000  0.00021500  1
  O  O0  1  0.13671700  0.75666300  0.11381300  1
  O  O1  1  0.13539600  0.00860000  0.61054800  1
  O  O2  1  0.15283200  0.25801300  0.11851400  1
  O  O3  1  0.63025800  0.00881600  0.11044100  1
  O  O4  1  0.63289700  0.22834000  0.60807100  1
  O  O5  1  0.64590400  0.50856600  0.12263700  1
  O  O6  1  0.09947800  0.48070800  0.61527500  1
  O  O7  1  0.63209200  0.77522800  0.60661700  1
  O  O8  1  0.36654500  0.23153700  0.39181800  1
  O  O9  1  0.36518400  0.48876500  0.88771600  1
  O  O10  1  0.37072000  0.77956200  0.39393300  1
  O  O11  1  0.89983600  0.48929200  0.38473900  1
  O  O12  1  0.85160000  0.73720600  0.87784300  1
  O  O13  1  0.86454400  0.01430200  0.38839200  1
  O  O14  1  0.35597400  0.99431700  0.88072800  1
  O  O15  1  0.86092600  0.24569400  0.88822100  1
loop_
_geom_bond_atom_site_label_1
_geom_bond_atom_site_label_2
_geom_bond_distance
_geom_bond_site_symmetry_2
Li0 O10 2.073151 1_545
Li0 O8 2.090719 1_555
Li0 O3 2.095374 1_555
Li0 O2 2.105541 1_555
Li0 O13 2.158674 1_455
Li0 O0 2.194453 1_545
Li1 O6 2.081652 1_555
Li1 O4 2.105869 1_555
Li1 O1 2.117385 1_555
Li1 O14 2.142437 1_545
Li1 O9 2.182776 1_555
Li1 O15 2.184550 1_455
Li2 O11 2.012190 1_455
Li2 O2 2.049442 1_555
Li2 O5 2.100481 1_555
Li2 O0 2.144424 1_555
Li2 O8 2.259149 1_555
Li2 O10 2.386434 1_555
Li3 O5 2.085686 1_555
Li3 O13 2.090222 1_555
Li3 O8 2.109075 1_555
Li3 O11 2.116943 1_555
Li3 O2 2.209716 1_655
Li3 O3 2.252266 1_555
Li4 O6 1.998679 1_655
Li4 O12 2.048794 1_555
Li4 O9 2.110507 1_555
Li4 O15 2.138073 1_555
Li4 O4 2.297621 1_555
Li4 O7 2.305260 1_555
Li5 O5 2.093842 1_555
Li5 O10 2.094370 1_555
Li5 O11 2.165467 1_555
Li5 O0 2.179922 1_655
Li5 O13 2.216278 1_565
Li5 O3 2.273809 1_565
Li6 O7 2.109277 1_555
Li6 O14 2.129481 1_555
Li6 O1 2.163894 1_565
Li6 O12 2.178900 1_455
Li6 O9 2.212375 1_555
Li6 O6 2.289916 1_555
Li7 O7 2.071104 1_555
Li7 O4 2.080402 1_565
Li7 O14 2.100603 1_555
Li7 O12 2.111832 1_555
Li7 O1 2.171601 1_665
Li7 O15 2.220610 1_565
Li8 O4 2.094858 1_555
Li8 O11 2.099705 1_555
Li8 O10 2.101429 1_555
Li8 O6 2.102648 1_555
Li8 O8 2.126661 1_555
Li8 O7 2.129611 1_555
Mn0 O14 1.930385 1_545
Mn0 O3 1.955568 1_456
Mn0 O15 1.998369 1_455
Mn0 O0 2.017729 1_546
Mn0 O2 2.169136 1_556
Mn0 O12 2.215024 1_445
Mn1 O11 1.921501 1_555
Mn1 O6 1.925512 1_655
Mn1 O8 1.936248 1_655
Mn1 O4 1.936679 1_555
Mn1 O1 1.980141 1_655
Mn1 O13 1.998132 1_555
Co0 O5 1.906984 1_555
Co0 O9 1.974253 1_654
Co0 O2 2.048379 1_655
Co0 O12 2.077905 1_554
Co0 O15 2.089034 1_554
Co0 O0 2.104925 1_655
Co1 O10 1.948428 1_555
Co1 O7 1.952531 1_455
Co1 O6 2.004325 1_555
Co1 O11 2.009400 1_455
Co1 O13 2.134648 1_465
Co1 O1 2.141178 1_565
Co2 O12 1.902697 1_555
Co2 O0 1.964790 1_556
Co2 O14 2.049127 1_555
Co2 O5 2.085289 1_556
Co2 O3 2.096364 1_566
Co2 O9 2.097708 1_555
Co3 O8 1.895598 1_555
Co3 O7 1.895777 1_545
Co3 O10 1.909044 1_545
Co3 O4 1.916151 1_555
Co3 O1 1.934488 1_555
Co3 O13 1.934930 1_555
Co4 O2 1.892182 1_555
Co4 O15 1.923977 1_554
Co4 O3 1.965079 1_555
Co4 O9 1.972376 1_554
Co4 O14 2.153377 1_544
Co4 O5 2.184633 1_555
