# generated using pymatgen
data_Tm11(Ni10C)6
_symmetry_space_group_name_H-M   'P 1'
_cell_length_a   10.73214187
_cell_length_b   10.73214187
_cell_length_c   10.73214187
_cell_angle_alpha   109.47122063
_cell_angle_beta   109.47122063
_cell_angle_gamma   109.47122063
_symmetry_Int_Tables_number   1
_chemical_formula_structural   Tm11(Ni10C)6
_chemical_formula_sum   'Tm11 Ni60 C6'
_cell_volume   951.56251369
_cell_formula_units_Z   1
loop_
 _symmetry_equiv_pos_site_id
 _symmetry_equiv_pos_as_xyz
  1  'x, y, z'
loop_
 _atom_site_type_symbol
 _atom_site_label
 _atom_site_symmetry_multiplicity
 _atom_site_fract_x
 _atom_site_fract_y
 _atom_site_fract_z
 _atom_site_occupancy
  Tm  Tm0  1  0.00000000  0.00000000  0.66233700  1
  Tm  Tm1  1  0.33766300  0.00000000  0.00000000  1
  Tm  Tm2  1  0.66233700  0.66233700  0.66233700  1
  Tm  Tm3  1  0.00000000  0.33766300  0.00000000  1
  Tm  Tm4  1  0.33766300  0.33766300  0.33766300  1
  Tm  Tm5  1  0.00000000  0.66233700  0.00000000  1
  Tm  Tm6  1  0.66233700  0.00000000  0.00000000  1
  Tm  Tm7  1  0.00000000  0.00000000  0.33766300  1
  Tm  Tm8  1  0.50000000  0.50000000  0.00000000  1
  Tm  Tm9  1  0.00000000  0.50000000  0.50000000  1
  Tm  Tm10  1  0.50000000  0.00000000  0.50000000  1
  Ni  Ni0  1  0.68116100  0.82930400  0.14814300  1
  Ni  Ni1  1  0.14814300  0.68116100  0.82930400  1
  Ni  Ni2  1  0.46698200  0.14814300  0.31883900  1
  Ni  Ni3  1  0.31883900  0.17069600  0.85185700  1
  Ni  Ni4  1  0.14814300  0.82930400  0.68116100  1
  Ni  Ni5  1  0.85185700  0.68116100  0.53301800  1
  Ni  Ni6  1  0.14814300  0.46698200  0.31883900  1
  Ni  Ni7  1  0.82930400  0.14814300  0.68116100  1
  Ni  Ni8  1  0.85185700  0.53301800  0.68116100  1
  Ni  Ni9  1  0.31883900  0.14814300  0.46698200  1
  Ni  Ni10  1  0.82930400  0.68116100  0.14814300  1
  Ni  Ni11  1  0.17069600  0.31883900  0.85185700  1
  Ni  Ni12  1  0.31883900  0.85185700  0.17069600  1
  Ni  Ni13  1  0.46698200  0.31883900  0.14814300  1
  Ni  Ni14  1  0.68116100  0.85185700  0.53301800  1
  Ni  Ni15  1  0.53301800  0.68116100  0.85185700  1
  Ni  Ni16  1  0.68116100  0.14814300  0.82930400  1
  Ni  Ni17  1  0.31883900  0.46698200  0.14814300  1
  Ni  Ni18  1  0.68116100  0.53301800  0.85185700  1
  Ni  Ni19  1  0.85185700  0.31883900  0.17069600  1
  Ni  Ni20  1  0.14814300  0.31883900  0.46698200  1
  Ni  Ni21  1  0.17069600  0.85185700  0.31883900  1
  Ni  Ni22  1  0.53301800  0.85185700  0.68116100  1
  Ni  Ni23  1  0.85185700  0.17069600  0.31883900  1
  Ni  Ni24  1  0.65185100  0.41896200  0.41896200  1
  Ni  Ni25  1  0.41896200  0.65185100  0.41896200  1
  Ni  Ni26  1  0.76711000  0.76711000  0.34814900  1
  Ni  Ni27  1  0.00000000  0.58103800  0.23289000  1
  Ni  Ni28  1  0.76711000  0.41896200  0.00000000  1
  Ni  Ni29  1  0.58103800  0.00000000  0.23289000  1
  Ni  Ni30  1  0.41896200  0.76711000  0.00000000  1
  Ni  Ni31  1  0.41896200  0.41896200  0.65185100  1
  Ni  Ni32  1  0.23289000  0.23289000  0.65185100  1
  Ni  Ni33  1  0.00000000  0.41896200  0.76711000  1
  Ni  Ni34  1  0.41896200  0.00000000  0.76711000  1
  Ni  Ni35  1  0.58103800  0.34814900  0.58103800  1
  Ni  Ni36  1  0.34814900  0.58103800  0.58103800  1
  Ni  Ni37  1  0.76711000  0.00000000  0.41896200  1
  Ni  Ni38  1  0.65185100  0.23289000  0.23289000  1
  Ni  Ni39  1  0.23289000  0.65185100  0.23289000  1
  Ni  Ni40  1  0.00000000  0.76711000  0.41896200  1
  Ni  Ni41  1  0.34814900  0.76711000  0.76711000  1
  Ni  Ni42  1  0.00000000  0.23289000  0.58103800  1
  Ni  Ni43  1  0.23289000  0.00000000  0.58103800  1
  Ni  Ni44  1  0.76711000  0.34814900  0.76711000  1
  Ni  Ni45  1  0.58103800  0.23289000  0.00000000  1
  Ni  Ni46  1  0.23289000  0.58103800  0.00000000  1
  Ni  Ni47  1  0.58103800  0.58103800  0.34814900  1
  Ni  Ni48  1  0.25000000  0.50000000  0.75000000  1
  Ni  Ni49  1  0.25000000  0.75000000  0.50000000  1
  Ni  Ni50  1  0.75000000  0.25000000  0.50000000  1
  Ni  Ni51  1  0.50000000  0.25000000  0.75000000  1
  Ni  Ni52  1  0.50000000  0.75000000  0.25000000  1
  Ni  Ni53  1  0.75000000  0.50000000  0.25000000  1
  Ni  Ni54  1  0.85652400  0.00000000  0.85652400  1
  Ni  Ni55  1  0.85652400  0.85652400  0.00000000  1
  Ni  Ni56  1  0.14347600  0.14347600  0.00000000  1
  Ni  Ni57  1  0.00000000  0.85652400  0.85652400  1
  Ni  Ni58  1  0.00000000  0.14347600  0.14347600  1
  Ni  Ni59  1  0.14347600  0.00000000  0.14347600  1
  C  C0  1  0.70793200  0.00000000  0.70793200  1
  C  C1  1  0.70793200  0.70793200  0.00000000  1
  C  C2  1  0.29206800  0.29206800  0.00000000  1
  C  C3  1  0.00000000  0.70793200  0.70793200  1
  C  C4  1  0.00000000  0.29206800  0.29206800  1
  C  C5  1  0.29206800  0.00000000  0.29206800  1
loop_
_geom_bond_atom_site_label_1
_geom_bond_atom_site_label_2
_geom_bond_distance
_geom_bond_site_symmetry_2
Ni0 Ni30 2.439140 1_555
Ni0 Ni26 2.439149 1_555
Ni0 Ni29 2.488151 1_565
Ni0 Ni37 2.488151 1_565
Ni0 Ni52 2.575540 1_555
Ni0 Tm7 2.810492 1_665
Ni0 Tm6 2.810492 1_565
Ni1 Ni33 2.439140 1_555
Ni1 Ni41 2.439149 1_555
Ni1 Ni46 2.488151 1_556
Ni1 Ni30 2.488151 1_556
Ni1 Ni48 2.575540 1_555
Ni1 Tm5 2.810492 1_556
Ni1 Tm1 2.810492 1_566
Ni2 Ni29 2.439140 1_555
Ni2 Ni35 2.439143 1_555
Ni2 Ni38 2.488143 1_555
Ni2 Ni24 2.488149 1_555
Ni2 Ni50 2.575540 1_555
Ni2 Tm1 2.810492 1_555
Ni2 Tm4 2.810492 1_555
Ni3 Ni45 2.439140 1_556
Ni3 Ni32 2.439149 1_555
Ni3 Ni43 2.488151 1_555
Ni3 Ni34 2.488151 1_555
Ni3 Ni51 2.575540 1_555
Ni3 Tm0 2.810492 1_555
Ni3 Tm1 2.810492 1_556
Ni4 Ni40 2.439140 1_555
Ni4 Ni41 2.439149 1_555
Ni4 Ni43 2.488151 1_565
Ni4 Ni49 2.575540 1_555
Ni4 Tm0 2.810492 1_565
Ni4 Tm1 2.810492 1_566
Ni5 Ni53 2.575540 1_555
Ni5 Tm0 2.810492 1_665
Ni5 Tm2 2.810492 1_555
Ni6 Tm4 2.810492 1_555
Ni6 Tm3 2.810492 1_555
Ni7 Tm0 2.810492 1_655
Ni7 Tm3 2.810492 1_656
Ni8 Tm5 2.810492 1_656
Ni8 Tm2 2.810492 1_555
Ni9 Tm7 2.810492 1_555
Ni9 Tm4 2.810492 1_555
Ni10 Ni28 2.439140 1_555
Ni10 Ni26 2.439149 1_555
Ni10 Ni27 2.488151 1_655
Ni10 Ni40 2.488151 1_655
Ni10 Ni53 2.575540 1_555
Ni10 Tm7 2.810492 1_665
Ni10 Tm5 2.810492 1_655
Ni11 Ni46 2.439140 1_556
Ni11 Ni32 2.439149 1_555
Ni11 Ni42 2.488151 1_555
Ni11 Ni33 2.488151 1_555
Ni11 Ni48 2.575540 1_555
Ni11 Tm0 2.810492 1_555
Ni11 Tm3 2.810492 1_556
Ni12 Ni29 2.439140 1_565
Ni12 Ni39 2.439149 1_555
Ni12 Ni46 2.488151 1_555
Ni12 Ni30 2.488151 1_555
Ni12 Ni52 2.575540 1_555
Ni12 Tm5 2.810492 1_555
Ni12 Tm1 2.810492 1_565
Ni13 Ni45 2.439140 1_555
Ni13 Ni47 2.439143 1_555
Ni13 Ni38 2.488143 1_555
Ni13 Ni24 2.488149 1_555
Ni13 Ni53 2.575540 1_555
Ni13 Tm1 2.810492 1_555
Ni13 Tm4 2.810492 1_555
Ni14 Ni37 2.439140 1_565
Ni14 Ni25 2.439143 1_555
Ni14 Ni26 2.488143 1_555
Ni14 Ni47 2.488149 1_555
Ni14 Ni52 2.575540 1_555
Ni14 Tm0 2.810492 1_665
Ni14 Tm2 2.810492 1_555
Ni15 Ni30 2.439140 1_556
Ni15 Ni31 2.439143 1_555
Ni15 Ni41 2.488143 1_555
Ni15 Ni36 2.488149 1_555
Ni15 Ni48 2.575540 1_555
Ni15 Tm2 2.810492 1_555
Ni15 Tm6 2.810492 1_566
Ni16 Ni34 2.439140 1_555
Ni16 Ni44 2.439149 1_555
Ni16 Ni45 2.488151 1_556
Ni16 Ni28 2.488151 1_556
Ni16 Ni51 2.575540 1_555
Ni16 Tm6 2.810492 1_556
Ni16 Tm3 2.810492 1_656
Ni17 Ni46 2.439140 1_555
Ni17 Ni47 2.439143 1_555
Ni17 Ni39 2.488143 1_555
Ni17 Ni25 2.488149 1_555
Ni17 Ni52 2.575540 1_555
Ni17 Tm4 2.810492 1_555
Ni17 Tm3 2.810492 1_555
Ni18 Ni28 2.439140 1_556
Ni18 Ni31 2.439143 1_555
Ni18 Ni44 2.488143 1_555
Ni18 Ni35 2.488149 1_555
Ni18 Ni51 2.575540 1_555
Ni18 Tm2 2.810492 1_555
Ni18 Tm5 2.810492 1_656
Ni19 Ni27 2.439140 1_655
Ni19 Ni38 2.439149 1_555
Ni19 Ni45 2.488151 1_555
Ni19 Ni28 2.488151 1_555
Ni19 Ni53 2.575540 1_555
Ni19 Tm6 2.810492 1_555
Ni19 Tm3 2.810492 1_655
Ni20 Ni42 2.439140 1_555
Ni20 Ni36 2.439143 1_555
Ni20 Ni32 2.488143 1_555
Ni20 Ni31 2.488149 1_555
Ni20 Ni48 2.575540 1_555
Ni20 Tm7 2.810492 1_555
Ni20 Tm4 2.810492 1_555
Ni21 Ni43 2.439140 1_565
Ni21 Ni39 2.439149 1_555
Ni21 Ni27 2.488151 1_555
Ni21 Ni40 2.488151 1_555
Ni21 Ni49 2.575540 1_555
Ni21 Tm5 2.810492 1_555
Ni21 Tm7 2.810492 1_565
Ni22 Ni34 2.439140 1_565
Ni22 Ni25 2.439143 1_555
Ni22 Ni41 2.488143 1_555
Ni22 Ni36 2.488149 1_555
Ni22 Ni49 2.575540 1_555
Ni22 Tm2 2.810492 1_555
Ni22 Tm6 2.810492 1_566
Ni23 Ni42 2.439140 1_655
Ni23 Ni38 2.439149 1_555
Ni23 Ni29 2.488151 1_555
Ni23 Ni37 2.488151 1_555
Ni23 Ni50 2.575540 1_555
Ni23 Tm7 2.810492 1_655
Ni23 Tm6 2.810492 1_555
Ni24 Ni38 2.305881 1_555
Ni24 Ni47 2.357590 1_555
Ni24 Ni35 2.357590 1_555
Ni24 Ni8 2.439143 1_555
Ni24 Ni5 2.439143 1_555
Ni24 Ni50 2.620706 1_555
Ni24 Ni53 2.620706 1_555
Ni24 Tm4 2.908970 1_555
Ni24 Tm2 2.952460 1_555
Ni24 Tm9 3.261339 1_655
Ni25 Ni39 2.305881 1_555
Ni25 Ni36 2.357590 1_555
Ni25 Ni47 2.357590 1_555
Ni25 Ni6 2.488149 1_555
Ni25 Ni49 2.620706 1_555
Ni25 Ni52 2.620706 1_555
Ni25 Tm4 2.908970 1_555
Ni25 Tm2 2.952460 1_555
Ni25 Tm10 3.261339 1_565
Ni26 Ni47 2.305881 1_555
Ni26 Ni37 2.357600 1_565
Ni26 Ni40 2.357600 1_655
Ni26 Ni5 2.488143 1_555
Ni26 Ni52 2.620701 1_555
Ni26 Ni53 2.620701 1_555
Ni26 Tm0 2.908974 1_665
Ni26 Tm7 2.952472 1_665
Ni26 Tm8 3.261335 1_555
Ni27 Ni40 2.305881 1_555
Ni27 Ni28 2.357600 1_455
Ni27 Ni39 2.357600 1_555
Ni27 Ni6 2.439140 1_555
Ni27 Ni49 2.620701 1_555
Ni27 Ni53 2.620701 1_455
Ni27 Tm5 2.908980 1_555
Ni27 Tm3 2.952465 1_555
Ni27 Tm9 3.261329 1_555
Ni28 Ni45 2.305881 1_555
Ni28 Ni44 2.357600 1_554
Ni28 Ni51 2.620701 1_554
Ni28 Ni53 2.620701 1_555
Ni28 Tm3 2.908980 1_655
Ni28 Tm5 2.952465 1_655
Ni28 Tm8 3.261329 1_555
Ni29 Ni37 2.305881 1_555
Ni29 Ni30 2.357600 1_545
Ni29 Ni38 2.357600 1_555
Ni29 Ni50 2.620701 1_555
Ni29 Ni52 2.620701 1_545
Ni29 Tm6 2.908980 1_555
Ni29 Tm1 2.952465 1_555
Ni29 Tm10 3.261329 1_555
Ni30 Ni46 2.305881 1_555
Ni30 Ni41 2.357600 1_554
Ni30 Ni52 2.620701 1_555
Ni30 Ni48 2.620701 1_554
Ni30 Tm1 2.908980 1_565
Ni30 Tm6 2.952465 1_565
Ni30 Tm8 3.261329 1_555
Ni31 Ni32 2.305881 1_555
Ni31 Ni36 2.357590 1_555
Ni31 Ni35 2.357590 1_555
Ni31 Ni9 2.488149 1_555
Ni31 Ni48 2.620706 1_555
Ni31 Ni51 2.620706 1_555
Ni31 Tm4 2.908970 1_555
Ni31 Tm2 2.952460 1_555
Ni31 Tm8 3.261339 1_556
Ni32 Ni42 2.357600 1_555
Ni32 Ni43 2.357600 1_555
Ni32 Ni9 2.488143 1_555
Ni32 Ni51 2.620701 1_555
Ni32 Ni48 2.620701 1_555
Ni32 Tm7 2.908974 1_555
Ni32 Tm0 2.952472 1_555
Ni32 Tm8 3.261335 1_556
Ni33 Ni42 2.305881 1_555
Ni33 Ni46 2.357600 1_556
Ni33 Ni44 2.357600 1_455
Ni33 Ni8 2.439140 1_455
Ni33 Ni7 2.488151 1_455
Ni33 Ni50 2.620701 1_455
Ni33 Ni48 2.620701 1_555
Ni33 Tm3 2.908980 1_556
Ni33 Tm5 2.952465 1_556
Ni33 Tm9 3.261329 1_555
Ni34 Ni43 2.305881 1_555
Ni34 Ni45 2.357600 1_556
Ni34 Ni41 2.357600 1_545
Ni34 Ni4 2.488151 1_545
Ni34 Ni51 2.620701 1_555
Ni34 Ni49 2.620701 1_545
Ni34 Tm1 2.908980 1_556
Ni34 Tm6 2.952465 1_556
Ni34 Tm10 3.261329 1_555
Ni35 Ni44 2.305881 1_555
Ni35 Ni9 2.439143 1_555
Ni35 Ni8 2.488149 1_555
Ni35 Ni50 2.620706 1_555
Ni35 Ni51 2.620706 1_555
Ni35 Tm2 2.908970 1_555
Ni35 Tm4 2.952460 1_555
Ni35 Tm10 3.261339 1_555
Ni36 Ni41 2.305881 1_555
Ni36 Ni6 2.439143 1_555
Ni36 Ni48 2.620706 1_555
Ni36 Ni49 2.620706 1_555
Ni36 Tm2 2.908970 1_555
Ni36 Tm4 2.952460 1_555
Ni36 Tm9 3.261339 1_555
Ni37 Ni42 2.357600 1_655
Ni37 Ni7 2.439140 1_555
Ni37 Ni50 2.620701 1_555
Ni37 Ni52 2.620701 1_545
Ni37 Tm7 2.908980 1_655
Ni37 Tm0 2.952465 1_655
Ni37 Tm10 3.261329 1_555
Ni38 Ni45 2.357600 1_555
Ni38 Ni53 2.620701 1_555
Ni38 Ni50 2.620701 1_555
Ni38 Tm1 2.908974 1_555
Ni38 Tm6 2.952472 1_555
Ni38 Tm9 3.261335 1_655
Ni39 Ni46 2.357600 1_555
Ni39 Ni6 2.488143 1_555
Ni39 Ni52 2.620701 1_555
Ni39 Ni49 2.620701 1_555
Ni39 Tm3 2.908974 1_555
Ni39 Tm5 2.952472 1_555
Ni39 Tm10 3.261335 1_565
Ni40 Ni43 2.357600 1_565
Ni40 Ni5 2.439140 1_455
Ni40 Ni49 2.620701 1_555
Ni40 Ni53 2.620701 1_455
Ni40 Tm7 2.908980 1_565
Ni40 Tm0 2.952465 1_565
Ni40 Tm9 3.261329 1_555
Ni41 Ni49 2.620701 1_555
Ni41 Ni48 2.620701 1_555
Ni41 Tm6 2.908974 1_566
Ni41 Tm1 2.952472 1_566
Ni41 Tm9 3.261335 1_555
Ni42 Ni7 2.488151 1_455
Ni42 Ni48 2.620701 1_555
Ni42 Ni50 2.620701 1_455
Ni42 Tm0 2.908980 1_555
Ni42 Tm7 2.952465 1_555
Ni42 Tm9 3.261329 1_555
Ni43 Ni9 2.439140 1_555
Ni43 Ni51 2.620701 1_555
Ni43 Ni49 2.620701 1_545
Ni43 Tm0 2.908980 1_555
Ni43 Tm7 2.952465 1_555
Ni43 Tm10 3.261329 1_555
Ni44 Ni7 2.439149 1_555
Ni44 Ni8 2.488143 1_555
Ni44 Ni51 2.620701 1_555
Ni44 Ni50 2.620701 1_555
Ni44 Tm5 2.908974 1_656
Ni44 Tm3 2.952472 1_656
Ni44 Tm10 3.261335 1_555
Ni45 Ni51 2.620701 1_554
Ni45 Ni53 2.620701 1_555
Ni45 Tm6 2.908980 1_555
Ni45 Tm1 2.952465 1_555
Ni45 Tm8 3.261329 1_555
Ni46 Ni52 2.620701 1_555
Ni46 Ni48 2.620701 1_554
Ni46 Tm5 2.908980 1_555
Ni46 Tm3 2.952465 1_555
Ni46 Tm8 3.261329 1_555
Ni47 Ni5 2.488149 1_555
Ni47 Ni53 2.620706 1_555
Ni47 Ni52 2.620706 1_555
Ni47 Tm2 2.908970 1_555
Ni47 Tm4 2.952460 1_555
Ni47 Tm8 3.261339 1_555
Ni48 Tm8 3.098102 1_556
Ni48 Tm9 3.098102 1_555
Ni49 Ni6 2.575540 1_555
Ni49 Tm9 3.098102 1_555
Ni49 Tm10 3.098102 1_565
Ni50 Ni8 2.575540 1_555
Ni50 Ni7 2.575540 1_555
Ni50 Tm10 3.098102 1_555
Ni50 Tm9 3.098102 1_655
Ni51 Ni9 2.575540 1_555
Ni51 Tm10 3.098102 1_555
Ni51 Tm8 3.098102 1_556
Ni52 Tm8 3.098102 1_555
Ni52 Tm10 3.098102 1_565
Ni53 Tm9 3.098102 1_655
Ni53 Tm8 3.098102 1_555
Ni54 Tm3 2.975496 1_656
Ni54 Tm2 2.975496 1_545
Ni54 Tm6 2.975496 1_556
Ni54 Tm0 2.975496 1_655
Ni55 Tm7 2.975496 1_665
Ni55 Tm6 2.975496 1_565
Ni55 Tm2 2.975496 1_554
Ni55 Tm5 2.975496 1_655
Ni56 Tm3 2.975496 1_555
Ni56 Tm1 2.975496 1_555
Ni56 Tm4 2.975496 1_555
Ni56 Tm0 2.975496 1_554
Ni57 Tm1 2.975496 1_566
Ni57 Tm2 2.975496 1_455
Ni57 Tm5 2.975496 1_556
Ni57 Tm0 2.975496 1_565
Ni58 Tm4 2.975496 1_555
Ni58 Tm7 2.975496 1_555
Ni58 Tm3 2.975496 1_555
Ni58 Tm6 2.975496 1_455
Ni59 Tm1 2.975496 1_555
Ni59 Tm4 2.975496 1_555
Ni59 Tm7 2.975496 1_555
Ni59 Tm5 2.975496 1_545
C0 Ni54 1.841413 1_555
C0 Ni16 1.865584 1_555
C0 Ni7 1.865584 1_555
C0 Ni14 1.865584 1_545
C0 Ni22 1.865584 1_545
C0 Tm10 2.576779 1_555
C1 Ni55 1.841413 1_555
C1 Ni10 1.865584 1_555
C1 Ni0 1.865584 1_555
C1 Ni18 1.865584 1_554
C1 Ni15 1.865584 1_554
C1 Tm8 2.576779 1_555
C2 Ni56 1.841413 1_555
C2 Ni11 1.865584 1_554
C2 Ni3 1.865584 1_554
C2 Ni17 1.865584 1_555
C2 Ni13 1.865584 1_555
C2 Tm8 2.576779 1_555
C3 Ni57 1.841413 1_555
C3 Ni1 1.865584 1_555
C3 Ni4 1.865584 1_555
C3 Ni5 1.865584 1_455
C3 Ni8 1.865584 1_455
C3 Tm9 2.576779 1_555
C4 Ni58 1.841413 1_555
C4 Ni6 1.865584 1_555
C4 Ni20 1.865584 1_555
C4 Ni23 1.865584 1_455
C4 Ni19 1.865584 1_455
C4 Tm9 2.576779 1_555
C5 Ni59 1.841413 1_555
C5 Ni21 1.865584 1_545
C5 Ni9 1.865584 1_555
C5 Ni12 1.865584 1_545
C5 Ni2 1.865584 1_555
C5 Tm10 2.576779 1_555
