# generated using pymatgen
data_KCu2BiS3
_symmetry_space_group_name_H-M   'P 1'
_cell_length_a   6.54518200
_cell_length_b   9.32211731
_cell_length_c   10.73882808
_cell_angle_alpha   90.63703903
_cell_angle_beta   90.62633329
_cell_angle_gamma   90.76426204
_symmetry_Int_Tables_number   1
_chemical_formula_structural   KCu2BiS3
_chemical_formula_sum   'K4 Cu8 Bi4 S12'
_cell_volume   655.09009514
_cell_formula_units_Z   4
loop_
 _symmetry_equiv_pos_site_id
 _symmetry_equiv_pos_as_xyz
  1  'x, y, z'
loop_
 _atom_site_type_symbol
 _atom_site_label
 _atom_site_symmetry_multiplicity
 _atom_site_fract_x
 _atom_site_fract_y
 _atom_site_fract_z
 _atom_site_occupancy
  K  K0  1  0.20883300  0.93462500  0.87462400  1
  K  K1  1  0.79116700  0.06537500  0.12537600  1
  K  K2  1  0.70140500  0.92951900  0.62735100  1
  K  K3  1  0.29859500  0.07048100  0.37264900  1
  Cu  Cu0  1  0.49361700  0.62673100  0.82968500  1
  Cu  Cu1  1  0.50638300  0.37326900  0.17031500  1
  Cu  Cu2  1  0.01773500  0.23027300  0.64159800  1
  Cu  Cu3  1  0.98226500  0.76972700  0.35840200  1
  Cu  Cu4  1  0.07093300  0.35251100  0.96011700  1
  Cu  Cu5  1  0.92906700  0.64748900  0.03988300  1
  Cu  Cu6  1  0.57244700  0.34689800  0.54484100  1
  Cu  Cu7  1  0.42755300  0.65310200  0.45515900  1
  Bi  Bi0  1  0.53529300  0.32178700  0.84742800  1
  Bi  Bi1  1  0.46470700  0.67821300  0.15257200  1
  Bi  Bi2  1  0.02621700  0.54360200  0.65061000  1
  Bi  Bi3  1  0.97378300  0.45639800  0.34939000  1
  S  S0  1  0.88616800  0.18883300  0.83228200  1
  S  S1  1  0.11383200  0.81116700  0.16771800  1
  S  S2  1  0.36088100  0.19210900  0.65579400  1
  S  S3  1  0.63911900  0.80789100  0.34420600  1
  S  S4  1  0.34122800  0.21827100  0.04268900  1
  S  S5  1  0.65877200  0.78172900  0.95731100  1
  S  S6  1  0.62412800  0.57661700  0.63920200  1
  S  S7  1  0.37587200  0.42338300  0.36079800  1
  S  S8  1  0.15820000  0.57920300  0.87855100  1
  S  S9  1  0.84180000  0.42079700  0.12144900  1
  S  S10  1  0.15705500  0.78088500  0.54210400  1
  S  S11  1  0.84294500  0.21911500  0.45789600  1
loop_
_geom_bond_atom_site_label_1
_geom_bond_atom_site_label_2
_geom_bond_distance
_geom_bond_site_symmetry_2
K0 S0 3.227864 1_465
K0 S4 3.286114 1_566
K0 S8 3.326197 1_555
K0 S5 3.402289 1_555
K0 S1 3.423755 1_556
K0 S2 3.519522 1_565
K1 S1 3.227864 1_645
K1 S5 3.286114 1_544
K1 S9 3.326197 1_555
K1 S4 3.402289 1_555
K1 S0 3.423755 1_554
K1 S3 3.519522 1_545
K2 S3 3.252876 1_555
K2 S6 3.325822 1_555
K2 S2 3.346162 1_565
K2 S11 3.396643 1_565
K2 S10 3.434210 1_655
K2 S0 3.448874 1_565
K3 S2 3.252876 1_555
K3 S7 3.325822 1_555
K3 S3 3.346162 1_545
K3 S10 3.396643 1_545
K3 S11 3.434210 1_455
K3 S1 3.448874 1_545
Cu0 S5 2.239773 1_555
Cu0 S6 2.271534 1_555
Cu0 S8 2.301243 1_555
Cu1 S4 2.239773 1_555
Cu1 S7 2.271534 1_555
Cu1 S9 2.301243 1_555
Cu2 S0 2.265218 1_455
Cu2 S11 2.270302 1_455
Cu2 S2 2.282357 1_555
Cu3 S1 2.265218 1_655
Cu3 S10 2.270302 1_655
Cu3 S3 2.282357 1_555
Cu4 S4 2.351924 1_556
Cu4 S0 2.354374 1_455
Cu4 S8 2.362035 1_555
Cu4 S9 2.390342 1_456
Cu5 S5 2.351924 1_554
Cu5 S1 2.354374 1_655
Cu5 S9 2.362035 1_555
Cu5 S8 2.390342 1_654
Cu6 S2 2.332449 1_555
Cu6 S11 2.343703 1_555
Cu6 S6 2.377407 1_555
Cu6 S7 2.463769 1_555
Cu7 S3 2.332449 1_555
Cu7 S10 2.343703 1_555
Cu7 S7 2.377407 1_555
Cu7 S6 2.463769 1_555
Bi0 S2 2.618414 1_555
Bi0 S0 2.629889 1_555
Bi0 S4 2.648017 1_556
Bi0 Cu0 2.867644 1_555
Bi1 S3 2.618414 1_555
Bi1 S1 2.629889 1_555
Bi1 S5 2.648017 1_554
Bi1 Cu1 2.867644 1_555
Bi2 S8 2.603125 1_555
Bi2 S10 2.648123 1_555
Bi2 S6 2.655412 1_455
Bi2 Cu2 2.921184 1_555
Bi3 S9 2.603125 1_555
Bi3 S11 2.648123 1_555
Bi3 S7 2.655412 1_655
Bi3 Cu3 2.921184 1_555
