# generated using pymatgen
data_AcY3
_symmetry_space_group_name_H-M   'P 1'
_cell_length_a   6.35608765
_cell_length_b   6.35608765
_cell_length_c   6.35608765
_cell_angle_alpha   130.68438132
_cell_angle_beta   130.68438132
_cell_angle_gamma   72.31501299
_symmetry_Int_Tables_number   1
_chemical_formula_structural   AcY3
_chemical_formula_sum   'Ac1 Y3'
_cell_volume   144.34499151
_cell_formula_units_Z   1
loop_
 _symmetry_equiv_pos_site_id
 _symmetry_equiv_pos_as_xyz
  1  'x, y, z'
loop_
 _atom_site_type_symbol
 _atom_site_label
 _atom_site_symmetry_multiplicity
 _atom_site_fract_x
 _atom_site_fract_y
 _atom_site_fract_z
 _atom_site_occupancy
  Ac  Ac0  1  0.00000000  -0.00000000  -0.00000000  1
  Y  Y0  1  0.75000000  0.25000000  0.50000000  1
  Y  Y1  1  0.25000000  0.75000000  0.50000000  1
  Y  Y2  1  0.50000000  0.50000000  -0.00000000  1
loop_
_geom_bond_atom_site_label_1
_geom_bond_atom_site_label_2
_geom_bond_distance
_geom_bond_site_symmetry_2
Ac0 Y0 3.689965 1_454
Ac0 Y1 3.689965 1_555
Ac0 Y1 3.689965 1_544
Ac0 Y1 3.689965 1_545
Ac0 Y0 3.689965 1_455
Ac0 Y0 3.689965 1_444
Ac0 Y0 3.689965 1_555
Ac0 Y1 3.689965 1_444
Ac0 Y2 3.750136 1_556
Ac0 Y2 3.750136 1_545
Ac0 Y2 3.750136 1_444
Ac0 Y2 3.750136 1_455
Y0 Y2 3.689965 1_556
Y0 Y2 3.689965 1_545
Y0 Y2 3.689965 1_555
Y0 Y2 3.689965 1_656
Y0 Y1 3.750136 1_555
Y0 Y1 3.750136 1_544
Y0 Y1 3.750136 1_656
Y0 Y1 3.750136 1_645
Y1 Y2 3.689965 1_556
Y1 Y2 3.689965 1_555
Y1 Y2 3.689965 1_566
Y1 Y2 3.689965 1_455
