# generated using pymatgen
data_BaLa3(NiO4)2
_symmetry_space_group_name_H-M   'P 1'
_cell_length_a   5.49248021
_cell_length_b   5.52894358
_cell_length_c   6.99992424
_cell_angle_alpha   90.00023173
_cell_angle_beta   66.89648880
_cell_angle_gamma   89.99991901
_symmetry_Int_Tables_number   1
_chemical_formula_structural   BaLa3(NiO4)2
_chemical_formula_sum   'Ba1 La3 Ni2 O8'
_cell_volume   195.52225686
_cell_formula_units_Z   1
loop_
 _symmetry_equiv_pos_site_id
 _symmetry_equiv_pos_as_xyz
  1  'x, y, z'
loop_
 _atom_site_type_symbol
 _atom_site_label
 _atom_site_symmetry_multiplicity
 _atom_site_fract_x
 _atom_site_fract_y
 _atom_site_fract_z
 _atom_site_occupancy
  Ba  Ba0  1  0.85556100  0.49999700  0.28884600  1
  La  La0  1  0.36217500  0.99998500  0.27564600  1
  La  La1  1  0.63953300  0.00000100  0.72085200  1
  La  La2  1  0.13642900  0.49999800  0.72704400  1
  Ni  Ni0  1  0.49821300  0.49998200  0.00373800  1
  Ni  Ni1  1  0.99672800  0.00000500  0.00649100  1
  O  O0  1  0.18246100  0.99997600  0.63514500  1
  O  O1  1  0.65763100  0.50000200  0.68481700  1
  O  O2  1  0.32226800  0.50002500  0.35543100  1
  O  O3  1  0.82347500  0.00002500  0.35296000  1
  O  O4  1  0.75514800  0.23788100  0.98723200  1
  O  O5  1  0.25760200  0.76209200  0.98729800  1
  O  O6  1  0.75520000  0.76207700  0.98723200  1
  O  O7  1  0.25757600  0.23795500  0.98726800  1
loop_
_geom_bond_atom_site_label_1
_geom_bond_atom_site_label_2
_geom_bond_distance
_geom_bond_site_symmetry_2
Ba0 O1 2.549464 1_555
Ba0 O2 2.779472 1_555
Ba0 O2 2.779530 1_655
Ba0 O7 2.787988 1_654
Ba0 O5 2.788129 1_654
Ba0 O6 2.788256 1_554
Ba0 O4 2.788493 1_554
Ba0 O3 2.794971 1_555
Ba0 O3 2.795273 1_565
La0 O0 2.314639 1_555
La0 O5 2.653994 1_554
La0 O4 2.654219 1_564
La0 O6 2.654388 1_554
La0 O7 2.654464 1_564
La0 O3 2.790795 1_565
La0 O3 2.791186 1_465
La0 O2 2.811580 1_555
La0 O2 2.812009 1_565
La1 O3 2.368677 1_555
La1 O5 2.557133 1_545
La1 O4 2.557179 1_555
La1 O7 2.557241 1_555
La1 O6 2.557464 1_545
La1 O1 2.774184 1_545
La1 O1 2.774197 1_555
La1 O0 2.800773 1_545
La1 O0 2.801493 1_645
La2 O2 2.392635 1_555
La2 O6 2.609267 1_455
La2 O4 2.609546 1_455
La2 O7 2.609808 1_555
La2 O5 2.610200 1_555
La2 O1 2.759202 1_455
La2 O1 2.760129 1_555
La2 O0 2.826968 1_555
La2 O0 2.827200 1_545
Ni0 O4 1.994219 1_554
Ni0 O6 1.994394 1_554
Ni0 O7 1.994638 1_554
Ni0 O5 1.994804 1_554
Ni0 O1 2.053377 1_554
Ni0 O2 2.264380 1_555
Ni1 O6 1.910204 1_544
Ni1 O4 1.910210 1_554
Ni1 O7 1.910573 1_654
Ni1 O5 1.910579 1_644
Ni1 O3 2.230745 1_555
Ni1 O0 2.390916 1_644
