# generated using pymatgen
data_Ba3YN3
_symmetry_space_group_name_H-M   'P 1'
_cell_length_a   8.62159700
_cell_length_b   8.62163717
_cell_length_c   5.86001000
_cell_angle_alpha   90.00000000
_cell_angle_beta   90.00000000
_cell_angle_gamma   119.99982465
_symmetry_Int_Tables_number   1
_chemical_formula_structural   Ba3YN3
_chemical_formula_sum   'Ba6 Y2 N6'
_cell_volume   377.23086276
_cell_formula_units_Z   2
loop_
 _symmetry_equiv_pos_site_id
 _symmetry_equiv_pos_as_xyz
  1  'x, y, z'
loop_
 _atom_site_type_symbol
 _atom_site_label
 _atom_site_symmetry_multiplicity
 _atom_site_fract_x
 _atom_site_fract_y
 _atom_site_fract_z
 _atom_site_occupancy
  Ba  Ba0  1  0.91288100  0.66007300  0.25000000  1
  Ba  Ba1  1  0.74719300  0.08712400  0.25000000  1
  Ba  Ba2  1  0.33991700  0.25279800  0.25000000  1
  Ba  Ba3  1  0.08711900  0.33992700  0.75000000  1
  Ba  Ba4  1  0.25280700  0.91287600  0.75000000  1
  Ba  Ba5  1  0.66008300  0.74720200  0.75000000  1
  Y  Y0  1  0.66666600  0.33333600  0.75000000  1
  Y  Y1  1  0.33333400  0.66666400  0.25000000  1
  N  N0  1  0.88123200  0.62080500  0.75000000  1
  N  N1  1  0.73957600  0.11876900  0.75000000  1
  N  N2  1  0.37918600  0.26041400  0.75000000  1
  N  N3  1  0.11876800  0.37919500  0.25000000  1
  N  N4  1  0.26042400  0.88123100  0.25000000  1
  N  N5  1  0.62081500  0.73958600  0.25000000  1
loop_
_geom_bond_atom_site_label_1
_geom_bond_atom_site_label_2
_geom_bond_distance
_geom_bond_site_symmetry_2
Ba0 N4 2.626909 1_655
Ba0 N5 2.921792 1_555
Ba0 N0 2.946460 1_554
Ba0 N0 2.946460 1_555
Ba1 N5 2.626887 1_545
Ba1 N3 2.921793 1_655
Ba1 N1 2.946455 1_554
Ba1 N1 2.946455 1_555
Ba2 N3 2.626911 1_555
Ba2 N4 2.921761 1_545
Ba2 N2 2.946461 1_555
Ba2 N2 2.946461 1_554
Ba3 N1 2.626909 1_455
Ba3 N2 2.921801 1_555
Ba3 N3 2.946460 1_555
Ba3 N3 2.946460 1_556
Ba4 N2 2.626886 1_565
Ba4 N0 2.921793 1_455
Ba4 N4 2.946455 1_555
Ba4 N4 2.946455 1_556
Ba5 N0 2.626911 1_555
Ba5 N1 2.921761 1_565
Ba5 N5 2.946460 1_556
Ba5 N5 2.946460 1_555
N0 Y0 2.231591 1_555
N1 Y0 2.231634 1_555
N2 Y0 2.231625 1_555
N3 Y1 2.231591 1_555
N4 Y1 2.231634 1_555
N5 Y1 2.231634 1_555
