# generated using pymatgen
data_Dy2(Ga3Ir)3
_symmetry_space_group_name_H-M   'P 1'
_cell_length_a   7.49393636
_cell_length_b   7.49393636
_cell_length_c   9.44389794
_cell_angle_alpha   90.00000000
_cell_angle_beta   90.00000000
_cell_angle_gamma   119.81113732
_symmetry_Int_Tables_number   1
_chemical_formula_structural   Dy2(Ga3Ir)3
_chemical_formula_sum   'Dy4 Ga18 Ir6'
_cell_volume   460.17739824
_cell_formula_units_Z   2
loop_
 _symmetry_equiv_pos_site_id
 _symmetry_equiv_pos_as_xyz
  1  'x, y, z'
loop_
 _atom_site_type_symbol
 _atom_site_label
 _atom_site_symmetry_multiplicity
 _atom_site_fract_x
 _atom_site_fract_y
 _atom_site_fract_z
 _atom_site_occupancy
  Dy  Dy0  1  0.99806208  0.66937721  0.25000000  1
  Dy  Dy1  1  0.00193792  0.33062279  0.75000000  1
  Dy  Dy2  1  0.66937721  0.99806208  0.25000000  1
  Dy  Dy3  1  0.33062279  0.00193792  0.75000000  1
  Ga  Ga0  1  0.13001512  0.13001512  0.25000000  1
  Ga  Ga1  1  0.86998488  0.86998488  0.75000000  1
  Ga  Ga2  1  0.00084160  0.33440094  0.07900106  1
  Ga  Ga3  1  -0.00084160  0.66559906  0.92099894  1
  Ga  Ga4  1  -0.00084160  0.66559906  0.57900106  1
  Ga  Ga5  1  0.33440094  0.00084160  0.42099894  1
  Ga  Ga6  1  0.00084160  0.33440094  0.42099894  1
  Ga  Ga7  1  0.66559906  -0.00084160  0.57900106  1
  Ga  Ga8  1  0.66559906  -0.00084160  0.92099894  1
  Ga  Ga9  1  0.33440094  0.00084160  0.07900106  1
  Ga  Ga10  1  0.33363166  0.33363166  0.56711963  1
  Ga  Ga11  1  0.66636834  0.66636834  0.43288037  1
  Ga  Ga12  1  0.66636834  0.66636834  0.06711963  1
  Ga  Ga13  1  0.33363166  0.33363166  0.93288037  1
  Ga  Ga14  1  0.33782394  0.54458933  0.25000000  1
  Ga  Ga15  1  0.66217606  0.45541067  0.75000000  1
  Ga  Ga16  1  0.54458933  0.33782394  0.25000000  1
  Ga  Ga17  1  0.45541067  0.66217606  0.75000000  1
  Ir  Ir0  1  0.67146126  0.32853874  0.00000000  1
  Ir  Ir1  1  0.32853874  0.67146126  0.00000000  1
  Ir  Ir2  1  0.32853874  0.67146126  0.50000000  1
  Ir  Ir3  1  0.67146126  0.32853874  0.50000000  1
  Ir  Ir4  1  0.00000000  0.00000000  0.00000000  1
  Ir  Ir5  1  0.00000000  0.00000000  0.50000000  1
loop_
_geom_bond_atom_site_label_1
_geom_bond_atom_site_label_2
_geom_bond_distance
_geom_bond_site_symmetry_2
Dy0 Ga5 2.984269 1_665
Dy0 Ga9 2.984269 1_665
Dy0 Ga6 2.993639 1_655
Dy0 Ga2 2.993639 1_655
Dy0 Ga12 3.017670 1_555
Dy0 Ga11 3.017670 1_555
Dy0 Ga16 3.053942 1_555
Dy0 Ga0 3.082219 1_665
Dy0 Ga3 3.107230 1_654
Dy0 Ga4 3.107230 1_655
Dy0 Ga14 3.118468 1_655
Dy1 Ga7 2.984269 1_455
Dy1 Ga8 2.984269 1_455
Dy1 Ga4 2.993639 1_555
Dy1 Ga3 2.993639 1_555
Dy1 Ga13 3.017670 1_555
Dy1 Ga10 3.017670 1_555
Dy1 Ga17 3.053942 1_555
Dy1 Ga1 3.082219 1_445
Dy1 Ga2 3.107230 1_556
Dy1 Ga6 3.107230 1_555
Dy1 Ga15 3.118468 1_455
Dy2 Ga2 2.984269 1_665
Dy2 Ga6 2.984269 1_665
Dy2 Ga5 2.993639 1_565
Dy2 Ga9 2.993639 1_565
Dy2 Ga12 3.017670 1_555
Dy2 Ga11 3.017670 1_555
Dy2 Ga14 3.053942 1_555
Dy2 Ga0 3.082219 1_665
Dy2 Ga8 3.107230 1_564
Dy2 Ga7 3.107230 1_565
Dy2 Ga16 3.118468 1_565
Dy3 Ga4 2.984269 1_545
Dy3 Ga3 2.984269 1_545
Dy3 Ga7 2.993639 1_555
Dy3 Ga8 2.993639 1_555
Dy3 Ga13 3.017670 1_555
Dy3 Ga10 3.017670 1_555
Dy3 Ga15 3.053942 1_555
Dy3 Ga1 3.082219 1_445
Dy3 Ga9 3.107230 1_556
Dy3 Ga5 3.107230 1_555
Dy3 Ga17 3.118468 1_545
Ga0 Ir4 2.555178 1_555
Ga0 Ir5 2.555178 1_555
Ga0 Ga16 2.695698 1_555
Ga0 Ga14 2.695698 1_555
Ga0 Ga5 2.713874 1_555
Ga0 Ga6 2.713874 1_555
Ga0 Ga9 2.713874 1_555
Ga0 Ga2 2.713874 1_555
Ga1 Ir5 2.555178 1_665
Ga1 Ir4 2.555178 1_666
Ga1 Ga17 2.695698 1_555
Ga1 Ga15 2.695698 1_555
Ga1 Ga7 2.713874 1_565
Ga1 Ga4 2.713874 1_655
Ga1 Ga8 2.713874 1_565
Ga1 Ga3 2.713874 1_655
Ga2 Ir0 2.558031 1_455
Ga2 Ir1 2.607678 1_555
Ga2 Ir4 2.611683 1_555
Ga2 Ga3 2.901384 1_554
Ga2 Ga8 2.928170 1_454
Ga3 Ir1 2.558031 1_556
Ga3 Ir0 2.607678 1_456
Ga3 Ir4 2.611683 1_566
Ga3 Ga9 2.928170 1_566
Ga4 Ir2 2.558031 1_555
Ga4 Ir3 2.607678 1_455
Ga4 Ir5 2.611683 1_565
Ga4 Ga6 2.901384 1_555
Ga4 Ga5 2.928170 1_565
Ga5 Ir2 2.558031 1_545
Ga5 Ir3 2.607678 1_555
Ga5 Ir5 2.611683 1_555
Ga5 Ga7 2.901384 1_555
Ga6 Ir3 2.558031 1_455
Ga6 Ir2 2.607678 1_555
Ga6 Ir5 2.611683 1_555
Ga6 Ga7 2.928170 1_455
Ga7 Ir3 2.558031 1_555
Ga7 Ir2 2.607678 1_545
Ga7 Ir5 2.611683 1_655
Ga8 Ir0 2.558031 1_556
Ga8 Ir1 2.607678 1_546
Ga8 Ir4 2.611683 1_656
Ga8 Ga9 2.901384 1_556
Ga9 Ir1 2.558031 1_545
Ga9 Ir0 2.607678 1_555
Ga9 Ir4 2.611683 1_555
Ga10 Ir5 2.586230 1_555
Ga10 Ir2 2.628439 1_555
Ga10 Ir3 2.628439 1_555
Ga10 Ga15 2.764697 1_555
Ga10 Ga17 2.764697 1_555
Ga10 Ga11 2.803619 1_555
Ga10 Ga5 2.852746 1_555
Ga10 Ga6 2.852746 1_555
Ga11 Ir5 2.586230 1_665
Ga11 Ir2 2.628439 1_555
Ga11 Ir3 2.628439 1_555
Ga11 Ga16 2.764697 1_555
Ga11 Ga14 2.764697 1_555
Ga11 Ga7 2.852746 1_565
Ga11 Ga4 2.852746 1_655
Ga12 Ir4 2.586230 1_665
Ga12 Ir0 2.628439 1_555
Ga12 Ir1 2.628439 1_555
Ga12 Ga16 2.764697 1_555
Ga12 Ga14 2.764697 1_555
Ga12 Ga13 2.803619 1_554
Ga12 Ga8 2.852746 1_564
Ga12 Ga3 2.852746 1_654
Ga13 Ir4 2.586230 1_556
Ga13 Ir1 2.628439 1_556
Ga13 Ir0 2.628439 1_556
Ga13 Ga15 2.764697 1_555
Ga13 Ga17 2.764697 1_555
Ga13 Ga2 2.852746 1_556
Ga13 Ga9 2.852746 1_556
Ga14 Ir2 2.559059 1_555
Ga14 Ir1 2.559059 1_555
Ga14 Ga16 2.681232 1_555
Ga14 Ga6 2.740659 1_555
Ga14 Ga2 2.740659 1_555
Ga15 Ir0 2.559059 1_556
Ga15 Ir3 2.559059 1_555
Ga15 Ga17 2.681232 1_555
Ga15 Ga4 2.740659 1_655
Ga15 Ga3 2.740659 1_655
Ga16 Ir0 2.559059 1_555
Ga16 Ir3 2.559059 1_555
Ga16 Ga5 2.740659 1_555
Ga16 Ga9 2.740659 1_555
Ga17 Ir2 2.559059 1_555
Ga17 Ir1 2.559059 1_556
Ga17 Ga8 2.740659 1_565
Ga17 Ga7 2.740659 1_565
