# generated using pymatgen
data_LaTiZnCrO6
_symmetry_space_group_name_H-M   'P 1'
_cell_length_a   5.56468600
_cell_length_b   5.37162400
_cell_length_c   9.40202532
_cell_angle_alpha   55.24608381
_cell_angle_beta   90.00000000
_cell_angle_gamma   90.00000000
_symmetry_Int_Tables_number   1
_chemical_formula_structural   LaTiZnCrO6
_chemical_formula_sum   'La2 Ti2 Zn2 Cr2 O12'
_cell_volume   230.90446572
_cell_formula_units_Z   2
loop_
 _symmetry_equiv_pos_site_id
 _symmetry_equiv_pos_as_xyz
  1  'x, y, z'
loop_
 _atom_site_type_symbol
 _atom_site_label
 _atom_site_symmetry_multiplicity
 _atom_site_fract_x
 _atom_site_fract_y
 _atom_site_fract_z
 _atom_site_occupancy
  La  La0  1  0.20457300  0.73852400  0.25169300  1
  La  La1  1  0.79542700  0.73852400  0.75169300  1
  Ti  Ti0  1  0.27429700  0.49535800  0.00428500  1
  Ti  Ti1  1  0.72570300  0.49535800  0.50428500  1
  Zn  Zn0  1  0.76779500  0.25038600  0.25224700  1
  Zn  Zn1  1  0.23220500  0.25038600  0.75224700  1
  Cr  Cr0  1  0.25448400  0.99926700  0.50083400  1
  Cr  Cr1  1  0.74551600  0.99926700  0.00083400  1
  O  O0  1  0.72503900  0.17821200  0.74572600  1
  O  O1  1  0.46062100  0.74139300  0.04388500  1
  O  O2  1  0.47153500  0.33736500  0.44882300  1
  O  O3  1  0.94413400  0.63374000  0.05644700  1
  O  O4  1  0.94522300  0.24913100  0.44482900  1
  O  O5  1  0.22941600  0.87662500  0.75123400  1
  O  O6  1  0.27496100  0.17821200  0.24572600  1
  O  O7  1  0.53937900  0.74139300  0.54388500  1
  O  O8  1  0.52846500  0.33736500  0.94882300  1
  O  O9  1  0.05586600  0.63374000  0.55644700  1
  O  O10  1  0.05477700  0.24913100  0.94482900  1
  O  O11  1  0.77058400  0.87662500  0.25123400  1
loop_
_geom_bond_atom_site_label_1
_geom_bond_atom_site_label_2
_geom_bond_distance
_geom_bond_site_symmetry_2
La0 O6 2.363002 1_565
La0 O2 2.394178 1_555
La0 O1 2.411107 1_555
La0 O11 2.525660 1_455
La0 O4 2.616974 1_455
La0 O3 2.639129 1_455
La0 O9 2.715295 1_555
La0 O10 2.742213 1_564
La1 O0 2.363002 1_565
La1 O8 2.394178 1_555
La1 O7 2.411107 1_555
La1 O5 2.525660 1_655
La1 O10 2.616974 1_655
La1 O9 2.639129 1_655
La1 O3 2.715295 1_556
La1 O4 2.742213 1_565
Cr0 O7 1.989151 1_555
Cr0 O2 1.995939 1_565
Cr0 O6 2.015278 1_565
Cr0 O9 2.044433 1_555
Cr0 O5 2.056155 1_555
Cr0 O4 2.057810 1_465
Cr1 O1 1.989151 1_555
Cr1 O8 1.995939 1_564
Cr1 O0 2.015278 1_564
Cr1 O3 2.044433 1_555
Cr1 O11 2.056155 1_555
Cr1 O10 2.057810 1_664
O0 Ti1 1.909519 1_555
O1 Ti0 1.876512 1_555
O2 Ti1 1.870067 1_555
O3 Zn0 2.066472 1_555
O3 Ti0 2.141074 1_655
O4 Zn0 2.058991 1_555
O4 Ti1 2.096908 1_555
O5 Zn1 2.013208 1_565
O5 Ti0 2.088541 1_556
O6 Ti0 1.909519 1_555
O7 Ti1 1.876512 1_555
O8 Ti0 1.870067 1_556
O9 Zn1 2.066472 1_555
O9 Ti1 2.141074 1_455
O10 Zn1 2.058991 1_555
O10 Ti0 2.096908 1_556
O11 Zn0 2.013208 1_565
O11 Ti1 2.088541 1_555
