# generated using pymatgen
data_Ce2P2RuO
_symmetry_space_group_name_H-M   'P 1'
_cell_length_a   5.86793600
_cell_length_b   5.86793600
_cell_length_c   28.31067600
_cell_angle_alpha   90.00000000
_cell_angle_beta   90.00000000
_cell_angle_gamma   90.00000000
_symmetry_Int_Tables_number   1
_chemical_formula_structural   Ce2P2RuO
_chemical_formula_sum   'Ce16 P16 Ru8 O8'
_cell_volume   974.81224629
_cell_formula_units_Z   8
loop_
 _symmetry_equiv_pos_site_id
 _symmetry_equiv_pos_as_xyz
  1  'x, y, z'
loop_
 _atom_site_type_symbol
 _atom_site_label
 _atom_site_symmetry_multiplicity
 _atom_site_fract_x
 _atom_site_fract_y
 _atom_site_fract_z
 _atom_site_occupancy
  Ce  Ce0_0  1  0.25000000  0.25000000  0.07310500  1
  Ce  Ce0_1  1  0.25000000  0.25000000  0.57310500  1
  Ce  Ce0_2  1  0.25000000  0.75000000  0.07310500  1
  Ce  Ce0_3  1  0.25000000  0.75000000  0.57310500  1
  Ce  Ce0_4  1  0.75000000  0.25000000  0.07310500  1
  Ce  Ce0_5  1  0.75000000  0.25000000  0.57310500  1
  Ce  Ce0_6  1  0.75000000  0.75000000  0.07310500  1
  Ce  Ce0_7  1  0.75000000  0.75000000  0.57310500  1
  Ce  Ce1_0  1  0.25000000  0.25000000  0.42689500  1
  Ce  Ce1_1  1  0.25000000  0.25000000  0.92689500  1
  Ce  Ce1_2  1  0.25000000  0.75000000  0.42689500  1
  Ce  Ce1_3  1  0.25000000  0.75000000  0.92689500  1
  Ce  Ce1_4  1  0.75000000  0.25000000  0.42689500  1
  Ce  Ce1_5  1  0.75000000  0.25000000  0.92689500  1
  Ce  Ce1_6  1  0.75000000  0.75000000  0.42689500  1
  Ce  Ce1_7  1  0.75000000  0.75000000  0.92689500  1
  P  P0_0  1  0.25000000  0.25000000  0.32853300  1
  P  P0_1  1  0.25000000  0.25000000  0.82853300  1
  P  P0_2  1  0.25000000  0.75000000  0.32853300  1
  P  P0_3  1  0.25000000  0.75000000  0.82853300  1
  P  P0_4  1  0.75000000  0.25000000  0.32853300  1
  P  P0_5  1  0.75000000  0.25000000  0.82853300  1
  P  P0_6  1  0.75000000  0.75000000  0.32853300  1
  P  P0_7  1  0.75000000  0.75000000  0.82853300  1
  P  P1_0  1  0.25000000  0.25000000  0.17146700  1
  P  P1_1  1  0.25000000  0.25000000  0.67146700  1
  P  P1_2  1  0.25000000  0.75000000  0.17146700  1
  P  P1_3  1  0.25000000  0.75000000  0.67146700  1
  P  P1_4  1  0.75000000  0.25000000  0.17146700  1
  P  P1_5  1  0.75000000  0.25000000  0.67146700  1
  P  P1_6  1  0.75000000  0.75000000  0.17146700  1
  P  P1_7  1  0.75000000  0.75000000  0.67146700  1
  Ru  Ru0_0  1  0.25000000  0.25000000  0.25000000  1
  Ru  Ru0_1  1  0.25000000  0.25000000  0.75000000  1
  Ru  Ru0_2  1  0.25000000  0.75000000  0.25000000  1
  Ru  Ru0_3  1  0.25000000  0.75000000  0.75000000  1
  Ru  Ru0_4  1  0.75000000  0.25000000  0.25000000  1
  Ru  Ru0_5  1  0.75000000  0.25000000  0.75000000  1
  Ru  Ru0_6  1  0.75000000  0.75000000  0.25000000  1
  Ru  Ru0_7  1  0.75000000  0.75000000  0.75000000  1
  O  O0_0  1  0.25000000  0.25000000  0.00000000  1
  O  O0_1  1  0.25000000  0.25000000  0.50000000  1
  O  O0_2  1  0.25000000  0.75000000  0.00000000  1
  O  O0_3  1  0.25000000  0.75000000  0.50000000  1
  O  O0_4  1  0.75000000  0.25000000  0.00000000  1
  O  O0_5  1  0.75000000  0.25000000  0.50000000  1
  O  O0_6  1  0.75000000  0.75000000  0.00000000  1
  O  O0_7  1  0.75000000  0.75000000  0.50000000  1
loop_
_geom_bond_atom_site_label_1
_geom_bond_atom_site_label_2
_geom_bond_distance
_geom_bond_site_symmetry_2
Ce0_0 O0_0 2.069652 1_555
Ce0_0 P1_0 2.784695 1_555
Ce0_1 O0_1 2.069652 1_555
Ce0_1 P1_1 2.784695 1_555
Ce0_2 O0_2 2.069652 1_555
Ce0_2 P1_2 2.784695 1_555
Ce0_3 O0_3 2.069652 1_555
Ce0_3 P1_3 2.784695 1_555
Ce0_4 O0_4 2.069652 1_555
Ce0_4 P1_4 2.784695 1_555
Ce0_5 O0_5 2.069652 1_555
Ce0_5 P1_5 2.784695 1_555
Ce0_6 O0_6 2.069652 1_555
Ce0_6 P1_6 2.784695 1_555
Ce0_7 O0_7 2.069652 1_555
Ce0_7 P1_7 2.784695 1_555
Ce1_0 O0_1 2.069652 1_555
Ce1_0 P0_0 2.784695 1_555
Ce1_1 O0_0 2.069652 1_556
Ce1_1 P0_1 2.784695 1_555
Ce1_2 O0_3 2.069652 1_555
Ce1_2 P0_2 2.784695 1_555
Ce1_3 O0_2 2.069652 1_556
Ce1_3 P0_3 2.784695 1_555
Ce1_4 O0_5 2.069652 1_555
Ce1_4 P0_4 2.784695 1_555
Ce1_5 O0_4 2.069652 1_556
Ce1_5 P0_5 2.784695 1_555
Ce1_6 O0_7 2.069652 1_555
Ce1_6 P0_6 2.784695 1_555
Ce1_7 O0_6 2.069652 1_556
Ce1_7 P0_7 2.784695 1_555
P0_0 Ru0_0 2.223322 1_555
P0_1 Ru0_1 2.223322 1_555
P0_2 Ru0_2 2.223322 1_555
P0_3 Ru0_3 2.223322 1_555
P0_4 Ru0_4 2.223322 1_555
P0_5 Ru0_5 2.223322 1_555
P0_6 Ru0_6 2.223322 1_555
P0_7 Ru0_7 2.223322 1_555
P1_0 Ru0_0 2.223322 1_555
P1_1 Ru0_1 2.223322 1_555
P1_2 Ru0_2 2.223322 1_555
P1_3 Ru0_3 2.223322 1_555
P1_4 Ru0_4 2.223322 1_555
P1_5 Ru0_5 2.223322 1_555
P1_6 Ru0_6 2.223322 1_555
P1_7 Ru0_7 2.223322 1_555
Ru0_0 Ru0_2 2.933968 1_555
Ru0_0 Ru0_4 2.933968 1_555
Ru0_0 Ru0_2 2.933968 1_545
Ru0_0 Ru0_4 2.933968 1_455
Ru0_1 Ru0_5 2.933968 1_555
Ru0_1 Ru0_5 2.933968 1_455
Ru0_1 Ru0_3 2.933968 1_545
Ru0_1 Ru0_3 2.933968 1_555
Ru0_2 Ru0_6 2.933968 1_455
Ru0_2 Ru0_6 2.933968 1_555
Ru0_3 Ru0_7 2.933968 1_455
Ru0_3 Ru0_7 2.933968 1_555
Ru0_4 Ru0_6 2.933968 1_545
Ru0_4 Ru0_6 2.933968 1_555
Ru0_5 Ru0_7 2.933968 1_545
Ru0_5 Ru0_7 2.933968 1_555
