# generated using pymatgen
data_NaNd(PO3)4
_symmetry_space_group_name_H-M   'P 1'
_cell_length_a   13.11930340
_cell_length_b   7.18563753
_cell_length_c   12.20360380
_cell_angle_alpha   54.50675675
_cell_angle_beta   90.00000000
_cell_angle_gamma   90.00000000
_symmetry_Int_Tables_number   1
_chemical_formula_structural   NaNd(PO3)4
_chemical_formula_sum   'Na4 Nd4 P16 O48'
_cell_volume   936.67028159
_cell_formula_units_Z   4
loop_
 _symmetry_equiv_pos_site_id
 _symmetry_equiv_pos_as_xyz
  1  'x, y, z'
loop_
 _atom_site_type_symbol
 _atom_site_label
 _atom_site_symmetry_multiplicity
 _atom_site_fract_x
 _atom_site_fract_y
 _atom_site_fract_z
 _atom_site_occupancy
  Na  Na0  1  0.77746857  0.43653904  0.06534568  1
  Na  Na1  1  0.27746857  0.56346096  0.43465432  1
  Na  Na2  1  0.22253143  0.56346096  0.93465432  1
  Na  Na3  1  0.72253143  0.43653904  0.56534568  1
  Nd  Nd0  1  0.71784899  0.03794162  0.47647777  1
  Nd  Nd1  1  0.21784899  0.96205838  0.02352223  1
  Nd  Nd2  1  0.28215101  0.96205838  0.52352223  1
  Nd  Nd3  1  0.78215101  0.03794162  0.97647777  1
  P  P0  1  0.61530406  0.61648385  0.26587383  1
  P  P1  1  0.11530406  0.38351615  0.23412617  1
  P  P2  1  0.38469594  0.38351615  0.73412617  1
  P  P3  1  0.88469594  0.61648385  0.76587383  1
  P  P4  1  0.58951627  0.07642099  0.19663333  1
  P  P5  1  0.08951627  0.92357901  0.30336667  1
  P  P6  1  0.41048373  0.92357901  0.80336667  1
  P  P7  1  0.91048373  0.07642099  0.69663333  1
  P  P8  1  0.89984812  0.50515542  0.24127982  1
  P  P9  1  0.39984812  0.49484458  0.25872018  1
  P  P10  1  0.10015188  0.49484458  0.75872018  1
  P  P11  1  0.60015188  0.50515542  0.74127982  1
  P  P12  1  0.87165551  0.83881444  0.30554148  1
  P  P13  1  0.37165551  0.16118556  0.19445852  1
  P  P14  1  0.12834449  0.16118556  0.69445852  1
  P  P15  1  0.62834449  0.83881444  0.80554148  1
  O  O0  1  0.58073418  0.80457837  0.28841534  1
  O  O1  1  0.08073418  0.19542163  0.21158466  1
  O  O2  1  0.41926582  0.19542163  0.71158466  1
  O  O3  1  0.91926582  0.80457837  0.78841534  1
  O  O4  1  0.51408186  0.57376326  0.21359860  1
  O  O5  1  0.01408186  0.42623674  0.28640140  1
  O  O6  1  0.48591814  0.42623674  0.78640140  1
  O  O7  1  0.98591814  0.57376326  0.71359860  1
  O  O8  1  0.64668360  0.41177134  0.39962758  1
  O  O9  1  0.14668360  0.58822866  0.10037242  1
  O  O10  1  0.35331640  0.58822866  0.60037242  1
  O  O11  1  0.85331640  0.41177134  0.89962758  1
  O  O12  1  0.68954510  0.71376719  0.15401512  1
  O  O13  1  0.18954510  0.28623281  0.34598488  1
  O  O14  1  0.31045490  0.28623281  0.84598488  1
  O  O15  1  0.81045490  0.71376719  0.65401512  1
  O  O16  1  0.66054367  0.16056272  0.08194077  1
  O  O17  1  0.87673334  0.59561144  0.33022307  1
  O  O18  1  0.16054367  0.83943728  0.41805923  1
  O  O19  1  0.83945633  0.16056272  0.58194077  1
  O  O20  1  0.60929526  0.14705495  0.28755759  1
  O  O21  1  0.10929526  0.85294505  0.21244241  1
  O  O22  1  0.39070474  0.85294505  0.71244241  1
  O  O23  1  0.89070474  0.14705495  0.78755759  1
  O  O24  1  0.71050817  0.81675508  0.89642039  1
  O  O25  1  0.21050817  0.18324492  0.60357961  1
  O  O26  1  0.28949183  0.18324492  0.10357961  1
  O  O27  1  0.78949183  0.81675508  0.39642039  1
  O  O28  1  0.63370628  0.02305038  0.65920058  1
  O  O29  1  0.13370628  0.97694962  0.84079942  1
  O  O30  1  0.36629372  0.97694962  0.34079942  1
  O  O31  1  0.86629372  0.02305038  0.15920058  1
  O  O32  1  0.66412275  0.29780159  0.79280508  1
  O  O33  1  0.16412275  0.70219841  0.70719492  1
  O  O34  1  0.33587725  0.70219841  0.20719492  1
  O  O35  1  0.83587725  0.29780159  0.29280508  1
  O  O36  1  0.60770987  0.68899101  0.59422904  1
  O  O37  1  0.10770987  0.31100899  0.90577096  1
  O  O38  1  0.39229013  0.31100899  0.40577096  1
  O  O39  1  0.89229013  0.68899101  0.09422904  1
  O  O40  1  0.52240665  0.84824570  0.86622256  1
  O  O41  1  0.02240665  0.15175430  0.63377744  1
  O  O42  1  0.47759335  0.15175430  0.13377744  1
  O  O43  1  0.97759335  0.84824570  0.36622256  1
  O  O44  1  0.62326666  0.59561144  0.83022307  1
  O  O45  1  0.12326666  0.40438856  0.66977693  1
  O  O46  1  0.37673334  0.40438856  0.16977693  1
  O  O47  1  0.33945633  0.83943728  0.91805923  1
loop_
_geom_bond_atom_site_label_1
_geom_bond_atom_site_label_2
_geom_bond_distance
_geom_bond_site_symmetry_2
Na0 O11 2.351535 1_554
Na0 O16 2.420802 1_555
Na0 O24 2.438367 1_554
Na0 O35 2.464314 1_555
Na0 O39 2.535076 1_555
Na0 O31 2.747005 1_555
Na1 O10 2.351535 1_555
Na1 O18 2.420802 1_555
Na1 O25 2.438367 1_555
Na1 O34 2.464314 1_555
Na1 O38 2.535076 1_555
Na1 O30 2.747005 1_555
Na2 O9 2.351535 1_556
Na2 O47 2.420802 1_555
Na2 O26 2.438367 1_556
Na2 O33 2.464314 1_555
Na2 O37 2.535076 1_555
Na2 O29 2.747005 1_555
Na3 O8 2.351535 1_555
Na3 O19 2.420802 1_555
Na3 O27 2.438367 1_555
Na3 O32 2.464314 1_555
Na3 O36 2.535076 1_555
Na3 O28 2.747005 1_555
Nd0 O15 2.394951 1_545
Nd0 O20 2.420589 1_555
Nd0 O28 2.434196 1_555
Nd0 O8 2.457956 1_555
Nd0 O35 2.459346 1_555
Nd0 O27 2.483372 1_545
Nd0 O36 2.501200 1_545
Nd0 O19 2.508973 1_555
Nd1 O14 2.394951 1_564
Nd1 O21 2.420589 1_555
Nd1 O29 2.434196 1_554
Nd1 O9 2.457956 1_555
Nd1 O34 2.459346 1_555
Nd1 O26 2.483372 1_565
Nd1 O37 2.501200 1_564
Nd1 O47 2.508973 1_554
Nd2 O13 2.394951 1_565
Nd2 O22 2.420589 1_555
Nd2 O30 2.434196 1_555
Nd2 O10 2.457956 1_555
Nd2 O33 2.459346 1_555
Nd2 O25 2.483372 1_565
Nd2 O38 2.501200 1_565
Nd2 O18 2.508973 1_555
Nd3 O12 2.394951 1_546
Nd3 O23 2.420589 1_555
Nd3 O31 2.434196 1_556
Nd3 O11 2.457956 1_555
Nd3 O32 2.459346 1_555
Nd3 O24 2.483372 1_545
Nd3 O39 2.501200 1_546
Nd3 O16 2.508973 1_556
O0 P0 1.593698 1_555
O0 P4 1.594626 1_565
O1 P1 1.593698 1_555
O1 P5 1.594626 1_545
O2 P2 1.593698 1_555
O2 P6 1.594626 1_545
O3 P3 1.593698 1_555
O3 P7 1.594626 1_565
O4 P0 1.578640 1_555
O4 P9 1.583728 1_555
O5 P1 1.578640 1_555
O5 P8 1.583728 1_455
O6 P2 1.578640 1_555
O6 P11 1.583728 1_555
O7 P3 1.578640 1_555
O7 P10 1.583728 1_655
O8 P0 1.486429 1_555
O9 P1 1.486429 1_555
O10 P2 1.486429 1_555
O11 P3 1.486429 1_555
O12 P0 1.480768 1_555
O13 P1 1.480768 1_555
O14 P2 1.480768 1_555
O15 P3 1.480768 1_555
O16 P4 1.486687 1_555
O17 P8 1.584880 1_555
O17 P12 1.593086 1_555
O18 P5 1.486687 1_555
O19 P7 1.486687 1_555
O20 P4 1.486651 1_555
O21 P5 1.486651 1_555
O22 P6 1.486651 1_555
O23 P7 1.486651 1_555
O24 P15 1.487587 1_555
O25 P14 1.487587 1_555
O26 P13 1.487587 1_555
O27 P12 1.487587 1_555
O28 P15 1.483753 1_545
O29 P14 1.483753 1_565
O30 P13 1.483753 1_565
O31 P12 1.483753 1_545
O32 P11 1.493926 1_555
O33 P10 1.493926 1_555
O34 P9 1.493926 1_555
O35 P8 1.493926 1_555
O36 P11 1.490803 1_555
O37 P10 1.490803 1_555
O38 P9 1.490803 1_555
O39 P8 1.490803 1_555
O40 P15 1.594641 1_555
O40 P6 1.598532 1_555
O41 P14 1.594641 1_555
O41 P7 1.598532 1_455
O42 P13 1.594641 1_555
O42 P4 1.598532 1_555
O43 P12 1.594641 1_555
O43 P5 1.598532 1_655
O44 P11 1.584880 1_555
O44 P15 1.593086 1_555
O45 P10 1.584880 1_555
O45 P14 1.593086 1_555
O46 P9 1.584880 1_555
O46 P13 1.593086 1_555
O47 P6 1.486687 1_555
