# generated using pymatgen
data_YbCoGe
_symmetry_space_group_name_H-M   'P 1'
_cell_length_a   4.28840600
_cell_length_b   6.72787000
_cell_length_c   7.13922200
_cell_angle_alpha   90.00000000
_cell_angle_beta   90.00000000
_cell_angle_gamma   90.00000000
_symmetry_Int_Tables_number   1
_chemical_formula_structural   YbCoGe
_chemical_formula_sum   'Yb4 Co4 Ge4'
_cell_volume   205.97967713
_cell_formula_units_Z   4
loop_
 _symmetry_equiv_pos_site_id
 _symmetry_equiv_pos_as_xyz
  1  'x, y, z'
loop_
 _atom_site_type_symbol
 _atom_site_label
 _atom_site_symmetry_multiplicity
 _atom_site_fract_x
 _atom_site_fract_y
 _atom_site_fract_z
 _atom_site_occupancy
  Yb  Yb0  1  0.25000000  0.68397500  0.98297600  1
  Yb  Yb1  1  0.75000000  0.31602500  0.01702400  1
  Yb  Yb2  1  0.75000000  0.18397500  0.51702400  1
  Yb  Yb3  1  0.25000000  0.81602500  0.48297600  1
  Co  Co0  1  0.25000000  0.07144900  0.14184300  1
  Co  Co1  1  0.75000000  0.92855100  0.85815700  1
  Co  Co2  1  0.75000000  0.57144900  0.35815700  1
  Co  Co3  1  0.25000000  0.42855100  0.64184300  1
  Ge  Ge0  1  0.25000000  0.39427900  0.30652100  1
  Ge  Ge1  1  0.75000000  0.60572100  0.69347900  1
  Ge  Ge2  1  0.75000000  0.89427900  0.19347900  1
  Ge  Ge3  1  0.25000000  0.10572100  0.80652100  1
loop_
_geom_bond_atom_site_label_1
_geom_bond_atom_site_label_2
_geom_bond_distance
_geom_bond_site_symmetry_2
Co0 Ge3 2.405017 1_554
Co0 Ge0 2.469739 1_555
Co0 Ge2 2.480788 1_445
Co0 Ge2 2.480788 1_545
Co0 Yb0 2.842917 1_544
Co0 Yb1 2.845922 1_555
Co0 Yb1 2.845922 1_455
Co0 Yb3 2.980670 1_545
Co1 Ge2 2.405017 1_556
Co1 Ge1 2.469739 1_555
Co1 Ge3 2.480788 1_565
Co1 Ge3 2.480788 1_665
Co1 Yb1 2.842917 1_566
Co1 Yb0 2.845922 1_655
Co1 Yb0 2.845922 1_555
Co1 Yb2 2.980670 1_565
Co2 Ge1 2.405017 1_555
Co2 Ge2 2.469739 1_555
Co2 Ge0 2.480788 1_555
Co2 Ge0 2.480788 1_655
Co2 Yb2 2.842917 1_555
Co2 Yb3 2.845922 1_555
Co2 Yb3 2.845922 1_655
Co2 Yb1 2.980670 1_555
Co3 Ge0 2.405017 1_555
Co3 Ge3 2.469739 1_555
Co3 Ge1 2.480788 1_555
Co3 Ge1 2.480788 1_455
Co3 Yb3 2.842917 1_555
Co3 Yb2 2.845922 1_455
Co3 Yb2 2.845922 1_555
Co3 Yb0 2.980670 1_555
Ge0 Yb2 2.976245 1_555
Ge0 Yb2 2.976245 1_455
Ge0 Yb0 3.022283 1_554
Ge0 Yb1 3.024299 1_555
Ge0 Yb1 3.024299 1_455
Ge0 Yb3 3.104530 1_555
Ge1 Yb3 2.976245 1_655
Ge1 Yb3 2.976245 1_555
Ge1 Yb1 3.022283 1_556
Ge1 Yb0 3.024299 1_655
Ge1 Yb0 3.024299 1_555
Ge1 Yb2 3.104530 1_555
Ge2 Yb0 2.976245 1_554
Ge2 Yb0 2.976245 1_654
Ge2 Yb2 3.022283 1_565
Ge2 Yb3 3.024299 1_555
Ge2 Yb3 3.024299 1_655
Ge2 Yb1 3.104530 1_565
Ge3 Yb1 2.976245 1_556
Ge3 Yb1 2.976245 1_456
Ge3 Yb3 3.022283 1_545
Ge3 Yb2 3.024299 1_455
Ge3 Yb2 3.024299 1_555
Ge3 Yb0 3.104530 1_545
