# generated using pymatgen
data_SrEuSe2
_symmetry_space_group_name_H-M   'P 1'
_cell_length_a   7.61658044
_cell_length_b   7.61658044
_cell_length_c   7.61658026
_cell_angle_alpha   33.54580516
_cell_angle_beta   33.54580516
_cell_angle_gamma   33.54580361
_symmetry_Int_Tables_number   1
_chemical_formula_structural   SrEuSe2
_chemical_formula_sum   'Sr1 Eu1 Se2'
_cell_volume   120.18270989
_cell_formula_units_Z   1
loop_
 _symmetry_equiv_pos_site_id
 _symmetry_equiv_pos_as_xyz
  1  'x, y, z'
loop_
 _atom_site_type_symbol
 _atom_site_label
 _atom_site_symmetry_multiplicity
 _atom_site_fract_x
 _atom_site_fract_y
 _atom_site_fract_z
 _atom_site_occupancy
  Sr  Sr0  1  0.50000000  0.50000000  0.50000000  1
  Eu  Eu0  1  0.00000000  0.00000000  -0.00000000  1
  Se  Se0  1  0.25159382  0.25159382  0.25159382  1
  Se  Se1  1  0.74840618  0.74840618  0.74840618  1
loop_
_geom_bond_atom_site_label_1
_geom_bond_atom_site_label_2
_geom_bond_distance
_geom_bond_site_symmetry_2
Eu0 Se0 3.089107 1_554
Eu0 Se1 3.089107 1_445
Eu0 Se0 3.089107 1_545
Eu0 Se0 3.089107 1_455
Eu0 Se1 3.089107 1_454
Eu0 Se1 3.089107 1_544
Se0 Sr0 3.128764 1_554
Se0 Sr0 3.128764 1_455
Se0 Sr0 3.128764 1_545
Se1 Sr0 3.128764 1_556
Se1 Sr0 3.128764 1_655
Se1 Sr0 3.128764 1_565
