# generated using pymatgen
data_LiMg14Sb
_symmetry_space_group_name_H-M   'P 1'
_cell_length_a   6.35703958
_cell_length_b   6.35703906
_cell_length_c   10.42847971
_cell_angle_alpha   90.00000000
_cell_angle_beta   90.00000000
_cell_angle_gamma   120.00000270
_symmetry_Int_Tables_number   1
_chemical_formula_structural   LiMg14Sb
_chemical_formula_sum   'Li1 Mg14 Sb1'
_cell_volume   364.97357013
_cell_formula_units_Z   1
loop_
 _symmetry_equiv_pos_site_id
 _symmetry_equiv_pos_as_xyz
  1  'x, y, z'
loop_
 _atom_site_type_symbol
 _atom_site_label
 _atom_site_symmetry_multiplicity
 _atom_site_fract_x
 _atom_site_fract_y
 _atom_site_fract_z
 _atom_site_occupancy
  Li  Li0  1  0.16666700  0.33333300  0.12500000  1
  Mg  Mg0  1  0.16791730  0.83395815  0.12500000  1
  Mg  Mg1  1  0.16531550  0.83265725  0.62500000  1
  Mg  Mg2  1  0.66604185  0.33208270  0.12500000  1
  Mg  Mg3  1  0.66734275  0.33468450  0.62500000  1
  Mg  Mg4  1  0.66604185  0.83395815  0.12500000  1
  Mg  Mg5  1  0.66734275  0.83265725  0.62500000  1
  Mg  Mg6  1  0.33368157  0.16631843  0.37389458  1
  Mg  Mg7  1  0.33368157  0.16631843  0.87610542  1
  Mg  Mg8  1  0.33368157  0.66736414  0.37389458  1
  Mg  Mg9  1  0.33368157  0.66736414  0.87610542  1
  Mg  Mg10  1  0.83263586  0.16631843  0.37389458  1
  Mg  Mg11  1  0.83263586  0.16631843  0.87610542  1
  Mg  Mg12  1  0.83333300  0.66666700  0.37492991  1
  Mg  Mg13  1  0.83333300  0.66666700  0.87507009  1
  Sb  Sb0  1  0.16666700  0.33333300  0.62500000  1
loop_
_geom_bond_atom_site_label_1
_geom_bond_atom_site_label_2
_geom_bond_distance
_geom_bond_site_symmetry_2
Li0 Mg0 3.178527 1_555
Li0 Mg4 3.178527 1_555
Li0 Mg4 3.178527 1_445
Li0 Mg0 3.178527 1_545
Li0 Mg2 3.178527 1_455
Li0 Mg2 3.178527 1_555
Li0 Mg7 3.181012 1_554
Li0 Mg6 3.181012 1_555
Li0 Mg9 3.181018 1_554
Li0 Mg8 3.181018 1_555
Li0 Mg11 3.181018 1_454
Li0 Mg10 3.181018 1_455
Mg0 Mg2 3.166597 1_565
Mg0 Mg4 3.166597 1_555
Mg0 Mg9 3.175704 1_554
Mg0 Mg8 3.175704 1_555
Mg0 Mg7 3.175710 1_564
Mg0 Mg6 3.175710 1_565
Mg0 Mg2 3.190442 1_455
Mg0 Mg4 3.190442 1_455
Mg0 Mg13 3.191591 1_454
Mg0 Mg12 3.191591 1_455
Mg1 Mg3 3.165632 1_455
Mg1 Mg5 3.165632 1_455
Mg1 Sb0 3.178528 1_565
Mg1 Sb0 3.178528 1_555
Mg1 Mg12 3.184542 1_455
Mg1 Mg13 3.184542 1_455
Mg1 Mg3 3.191407 1_565
Mg1 Mg5 3.191407 1_555
Mg1 Mg8 3.198697 1_555
Mg1 Mg9 3.198697 1_555
Mg1 Mg6 3.198703 1_565
Mg1 Mg7 3.198703 1_565
Mg2 Mg4 3.166597 1_545
Mg2 Mg7 3.175710 1_554
Mg2 Mg6 3.175710 1_555
Mg2 Mg4 3.190442 1_555
Mg3 Mg5 3.165632 1_555
Mg3 Sb0 3.178528 1_655
Mg3 Sb0 3.178528 1_555
Mg3 Mg5 3.191407 1_545
Mg3 Mg6 3.198703 1_555
Mg3 Mg7 3.198703 1_555
Mg4 Mg8 3.175710 1_555
Mg4 Mg9 3.175710 1_554
Mg5 Sb0 3.178528 1_665
Mg5 Sb0 3.178528 1_555
Mg5 Mg8 3.198703 1_555
Mg5 Mg9 3.198703 1_555
Mg6 Mg8 3.171872 1_545
Mg6 Mg8 3.185167 1_555
Mg6 Sb0 3.199852 1_555
Mg7 Mg9 3.171872 1_545
Mg7 Mg9 3.185167 1_555
Mg7 Sb0 3.199852 1_555
Mg8 Sb0 3.199858 1_555
Mg9 Sb0 3.199858 1_555
Mg10 Mg8 3.171872 1_545
Mg10 Mg6 3.171872 1_555
Mg10 Mg2 3.175704 1_555
Mg10 Mg4 3.175710 1_545
Mg10 Mg12 3.178540 1_555
Mg10 Mg12 3.178540 1_545
Mg10 Mg8 3.185167 1_655
Mg10 Mg6 3.185167 1_655
Mg10 Mg3 3.198697 1_555
Mg10 Mg5 3.198703 1_545
Mg10 Sb0 3.199858 1_655
Mg11 Mg9 3.171872 1_545
Mg11 Mg7 3.171872 1_555
Mg11 Mg2 3.175704 1_556
Mg11 Mg4 3.175710 1_546
Mg11 Mg13 3.178540 1_555
Mg11 Mg13 3.178540 1_545
Mg11 Mg9 3.185167 1_655
Mg11 Mg7 3.185167 1_655
Mg11 Mg3 3.198697 1_555
Mg11 Mg5 3.198703 1_545
Mg11 Sb0 3.199858 1_655
Mg12 Mg6 3.178540 1_555
Mg12 Mg6 3.178540 1_665
Mg12 Mg8 3.178540 1_555
Mg12 Mg8 3.178540 1_655
Mg12 Mg5 3.184536 1_555
Mg12 Mg3 3.184542 1_555
Mg12 Mg4 3.191584 1_555
Mg12 Mg2 3.191591 1_555
Mg13 Mg7 3.178540 1_555
Mg13 Mg7 3.178540 1_665
Mg13 Mg9 3.178540 1_655
Mg13 Mg9 3.178540 1_555
Mg13 Mg5 3.184536 1_555
Mg13 Mg3 3.184542 1_555
Mg13 Mg4 3.191584 1_556
Mg13 Mg2 3.191591 1_556
