# generated using pymatgen
data_SrBrCl
_symmetry_space_group_name_H-M   'P 1'
_cell_length_a   5.12303106
_cell_length_b   5.12303106
_cell_length_c   5.12303106
_cell_angle_alpha   60.00000000
_cell_angle_beta   60.00000000
_cell_angle_gamma   60.00000000
_symmetry_Int_Tables_number   1
_chemical_formula_structural   SrBrCl
_chemical_formula_sum   'Sr1 Br1 Cl1'
_cell_volume   95.07491985
_cell_formula_units_Z   1
loop_
 _symmetry_equiv_pos_site_id
 _symmetry_equiv_pos_as_xyz
  1  'x, y, z'
loop_
 _atom_site_type_symbol
 _atom_site_label
 _atom_site_symmetry_multiplicity
 _atom_site_fract_x
 _atom_site_fract_y
 _atom_site_fract_z
 _atom_site_occupancy
  Sr  Sr0  1  0.00000000  0.00000000  0.00000000  1
  Br  Br0  1  0.50000000  0.50000000  0.50000000  1
  Cl  Cl0  1  0.75000000  0.75000000  0.75000000  1
loop_
_geom_bond_atom_site_label_1
_geom_bond_atom_site_label_2
_geom_bond_distance
_geom_bond_site_symmetry_2
Br0 Sr0 3.622530 1_556
Br0 Sr0 3.622530 1_566
Br0 Sr0 3.622530 1_656
Br0 Sr0 3.622530 1_665
Br0 Sr0 3.622530 1_655
Br0 Sr0 3.622530 1_565
Cl0 Sr0 3.137203 1_566
Cl0 Sr0 3.137203 1_656
Cl0 Sr0 3.137203 1_666
Cl0 Sr0 3.137203 1_665
