# generated using pymatgen
data_La2Ge5Rh3
_symmetry_space_group_name_H-M   'P 1'
_cell_length_a   8.49455539
_cell_length_b   8.49450841
_cell_length_c   8.49230607
_cell_angle_alpha   137.93347319
_cell_angle_beta   106.45392461
_cell_angle_gamma   88.54181502
_symmetry_Int_Tables_number   1
_chemical_formula_structural   La2Ge5Rh3
_chemical_formula_sum   'La4 Ge10 Rh6'
_cell_volume   377.10495500
_cell_formula_units_Z   2
loop_
 _symmetry_equiv_pos_site_id
 _symmetry_equiv_pos_as_xyz
  1  'x, y, z'
loop_
 _atom_site_type_symbol
 _atom_site_label
 _atom_site_symmetry_multiplicity
 _atom_site_fract_x
 _atom_site_fract_y
 _atom_site_fract_z
 _atom_site_occupancy
  La  La0  1  0.36374407  0.13212527  0.23165989  1
  La  La1  1  0.63625838  0.86787512  0.76833813  1
  La  La2  1  0.09938676  0.36789859  0.73151554  1
  La  La3  1  0.90060484  0.63210865  0.26849385  1
  Ge  Ge0  1  -0.00004192  0.24976167  0.24981647  1
  Ge  Ge1  1  0.00004486  0.75023317  0.75018906  1
  Ge  Ge2  1  0.72565351  0.97571268  0.24998791  1
  Ge  Ge3  1  0.27447547  0.52446900  0.24998063  1
  Ge  Ge4  1  0.27434878  0.02428220  0.75000919  1
  Ge  Ge5  1  0.72552667  0.47553430  0.75002385  1
  Ge  Ge6  1  0.55407539  0.39848468  0.15524702  1
  Ge  Ge7  1  0.24304581  0.89862811  0.34456459  1
  Ge  Ge8  1  0.75695835  0.10137795  0.65543454  1
  Ge  Ge9  1  0.44592559  0.60151522  0.84475058  1
  Rh  Rh0  1  0.96847364  0.85991614  0.10824808  1
  Rh  Rh1  1  0.49992325  0.75003807  0.25016359  1
  Rh  Rh2  1  0.75163785  0.36037474  0.39176967  1
  Rh  Rh3  1  0.24836076  0.63961938  0.60823004  1
  Rh  Rh4  1  0.03153245  0.14008145  0.89175575  1
  Rh  Rh5  1  0.50006651  0.24996160  0.74982264  1
loop_
_geom_bond_atom_site_label_1
_geom_bond_atom_site_label_2
_geom_bond_distance
_geom_bond_site_symmetry_2
La0 Rh2 3.215262 1_555
La0 Rh3 3.295966 1_555
La0 Rh3 3.297936 1_544
La0 Rh4 3.459174 1_554
La0 Rh5 3.512696 1_555
La0 Rh1 3.515710 1_545
La0 Rh0 3.538705 1_445
La1 Rh3 3.215313 1_555
La1 Rh2 3.295978 1_555
La1 Rh2 3.297944 1_566
La1 Rh0 3.459237 1_556
La1 Rh1 3.512785 1_555
La1 Rh5 3.515800 1_565
La1 Rh4 3.538699 1_665
La2 Rh4 3.215595 1_555
La2 Rh0 3.296366 1_456
La2 Rh0 3.297155 1_445
La2 Rh2 3.458653 1_455
La2 Rh1 3.515384 1_556
La2 Rh5 3.517133 1_555
La2 Rh3 3.537262 1_555
La3 Rh0 3.215602 1_555
La3 Rh4 3.296487 1_654
La3 Rh4 3.297109 1_665
La3 Rh3 3.458707 1_655
La3 Rh5 3.515453 1_554
La3 Rh1 3.517125 1_555
La3 Rh2 3.537261 1_555
Ge0 Rh4 2.535588 1_554
Ge0 Rh0 2.536737 1_445
Ge0 Rh3 2.536791 1_555
Ge0 Rh2 2.538390 1_455
Ge0 La2 3.231935 1_555
Ge0 La1 3.232205 1_444
Ge0 La0 3.233518 1_555
Ge0 La3 3.233793 1_455
Ge1 Rh0 2.535550 1_456
Ge1 Rh4 2.536767 1_565
Ge1 Rh2 2.536813 1_455
Ge1 Rh3 2.538376 1_555
Ge1 La3 3.231960 1_455
Ge1 La0 3.232190 1_566
Ge1 La1 3.233528 1_455
Ge1 La2 3.233688 1_555
Ge2 Rh0 2.493240 1_555
Ge2 Rh2 2.493980 1_565
Ge2 Ge9 2.665275 1_554
Ge2 Ge8 2.665394 1_565
Ge2 Rh1 2.746733 1_555
Ge2 La2 3.294931 1_665
Ge2 La1 3.295335 1_554
Ge2 La0 3.326965 1_565
Ge2 La3 3.328718 1_555
Ge3 Rh4 2.492647 1_554
Ge3 Rh3 2.492960 1_555
Ge3 Ge7 2.665694 1_555
Ge3 Ge6 2.666132 1_555
Ge3 Rh1 2.742191 1_555
Ge3 La3 3.296739 1_455
Ge3 La0 3.297710 1_555
Ge3 La1 3.325481 1_555
Ge3 La2 3.326197 1_554
Ge4 Rh4 2.493233 1_555
Ge4 Rh3 2.493997 1_545
Ge4 Ge6 2.665280 1_556
Ge4 Ge7 2.665435 1_545
Ge4 Rh5 2.746752 1_555
Ge4 La3 3.294954 1_445
Ge4 La0 3.295312 1_556
Ge4 La1 3.326948 1_545
Ge4 La2 3.328790 1_555
Ge5 Rh0 2.492644 1_556
Ge5 Rh2 2.492945 1_555
Ge5 Ge8 2.665649 1_555
Ge5 Ge9 2.666122 1_555
Ge5 Rh5 2.742178 1_555
Ge5 La2 3.296641 1_655
Ge5 La1 3.297720 1_555
Ge5 La0 3.325500 1_555
Ge5 La3 3.326208 1_556
Ge6 Rh2 2.446213 1_555
Ge6 Rh5 2.518262 1_554
Ge6 Rh1 2.519000 1_555
Ge6 La3 3.063984 1_555
Ge6 La1 3.278671 1_544
Ge6 La1 3.279256 1_555
Ge6 La0 3.333897 1_555
Ge7 Rh0 2.446061 1_455
Ge7 Rh5 2.518550 1_565
Ge7 Rh1 2.519056 1_555
Ge7 La0 3.064081 1_565
Ge7 La2 3.278879 1_554
Ge7 La2 3.279173 1_565
Ge7 La3 3.332200 1_455
Ge8 Rh4 2.446124 1_655
Ge8 Rh1 2.518649 1_545
Ge8 Rh5 2.519137 1_555
Ge8 La1 3.064122 1_545
Ge8 La3 3.278925 1_556
Ge8 La3 3.279084 1_545
Ge8 La2 3.332068 1_655
Ge9 Rh3 2.446173 1_555
Ge9 Rh1 2.518190 1_556
Ge9 Rh5 2.518930 1_555
Ge9 La2 3.064071 1_555
Ge9 La0 3.278668 1_566
Ge9 La0 3.279256 1_555
Ge9 La1 3.333905 1_555
