# generated using pymatgen
data_Ba3Ca2(SiN3)2
_symmetry_space_group_name_H-M   'P 1'
_cell_length_a   6.13164704
_cell_length_b   6.13164704
_cell_length_c   13.44096987
_cell_angle_alpha   80.18250428
_cell_angle_beta   80.18250428
_cell_angle_gamma   68.29839738
_symmetry_Int_Tables_number   1
_chemical_formula_structural   Ba3Ca2(SiN3)2
_chemical_formula_sum   'Ba6 Ca4 Si4 N12'
_cell_volume   459.45011206
_cell_formula_units_Z   2
loop_
 _symmetry_equiv_pos_site_id
 _symmetry_equiv_pos_as_xyz
  1  'x, y, z'
loop_
 _atom_site_type_symbol
 _atom_site_label
 _atom_site_symmetry_multiplicity
 _atom_site_fract_x
 _atom_site_fract_y
 _atom_site_fract_z
 _atom_site_occupancy
  Ba  Ba0  1  0.59661000  0.40339000  0.75000000  1
  Ba  Ba1  1  0.40339000  0.59661000  0.25000000  1
  Ba  Ba2  1  0.20255900  0.67866100  0.99265200  1
  Ba  Ba3  1  0.32133900  0.79744100  0.50734800  1
  Ba  Ba4  1  0.79744100  0.32133900  0.00734800  1
  Ba  Ba5  1  0.67866100  0.20255900  0.49265200  1
  Ca  Ca0  1  0.90972600  0.78740800  0.71852700  1
  Ca  Ca1  1  0.21259200  0.09027400  0.78147300  1
  Ca  Ca2  1  0.09027400  0.21259200  0.28147300  1
  Ca  Ca3  1  0.78740800  0.90972600  0.21852700  1
  Si  Si0  1  0.07215500  0.36944700  0.57954900  1
  Si  Si1  1  0.63055300  0.92784500  0.92045100  1
  Si  Si2  1  0.92784500  0.63055300  0.42045100  1
  Si  Si3  1  0.36944700  0.07215500  0.07954900  1
  N  N0  1  0.01681900  0.10959500  0.63006000  1
  N  N1  1  0.89040500  0.98318100  0.86994000  1
  N  N2  1  0.98318100  0.89040500  0.36994000  1
  N  N3  1  0.10959500  0.01681900  0.13006000  1
  N  N4  1  0.80337100  0.62212800  0.55395400  1
  N  N5  1  0.37787200  0.19662900  0.94604600  1
  N  N6  1  0.19662900  0.37787200  0.44604600  1
  N  N7  1  0.62212800  0.80337100  0.05395400  1
  N  N8  1  0.23012900  0.43441500  0.66067100  1
  N  N9  1  0.56558500  0.76987100  0.83932900  1
  N  N10  1  0.76987100  0.56558500  0.33932900  1
  N  N11  1  0.43441500  0.23012900  0.16067100  1
loop_
_geom_bond_atom_site_label_1
_geom_bond_atom_site_label_2
_geom_bond_distance
_geom_bond_site_symmetry_2
Ba0 N9 2.655835 1_555
Ba0 N8 2.655835 1_555
Ba0 N0 2.936675 1_655
Ba0 N1 2.936675 1_545
Ba0 N5 3.043465 1_555
Ba0 N4 3.043465 1_555
Ba1 N11 2.655835 1_555
Ba1 N10 2.655835 1_555
Ba1 N3 2.936675 1_565
Ba1 N2 2.936675 1_455
Ba1 N7 3.043465 1_555
Ba1 N6 3.043465 1_555
Ba2 N1 2.693258 1_455
Ba2 N3 2.847462 1_566
Ba2 N5 2.887195 1_555
Ba2 N9 2.911671 1_555
Ba2 N7 3.205429 1_556
Ba2 N11 3.281811 1_556
Ba2 N7 3.336507 1_456
Ba3 N0 2.693258 1_565
Ba3 N2 2.847462 1_455
Ba3 N4 2.887195 1_555
Ba3 N8 2.911671 1_555
Ba3 N6 3.205429 1_555
Ba3 N10 3.281811 1_555
Ba3 N6 3.336507 1_565
Ba4 N3 2.693258 1_655
Ba4 N1 2.847462 1_544
Ba4 N7 2.887195 1_555
Ba4 N11 2.911671 1_555
Ba4 N5 3.205429 1_554
Ba4 N9 3.281811 1_554
Ba4 N5 3.336507 1_654
Ba5 N2 2.693258 1_545
Ba5 N0 2.847462 1_655
Ba5 N6 2.887195 1_555
Ba5 N10 2.911671 1_555
Ba5 N4 3.205429 1_555
Ba5 N8 3.281811 1_555
Ba5 N4 3.336507 1_545
Ca0 N0 2.374842 1_665
Ca0 N9 2.457750 1_555
Ca0 N8 2.461178 1_655
Ca0 N1 2.498505 1_555
Ca0 N4 2.844388 1_555
Ca1 N1 2.374842 1_445
Ca1 N8 2.457750 1_555
Ca1 N9 2.461178 1_545
Ca1 N0 2.498505 1_555
Ca1 N5 2.844388 1_555
Ca2 N2 2.374842 1_445
Ca2 N11 2.457750 1_555
Ca2 N10 2.461178 1_455
Ca2 N3 2.498505 1_555
Ca2 N6 2.844388 1_555
Ca3 N3 2.374842 1_665
Ca3 N10 2.457750 1_555
Ca3 N11 2.461178 1_565
Ca3 N2 2.498505 1_555
Ca3 N7 2.844388 1_555
N0 Si0 1.751309 1_555
N1 Si1 1.751309 1_555
N2 Si2 1.751309 1_555
N3 Si3 1.751309 1_555
N4 Si2 1.826362 1_555
N4 Si0 1.832543 1_655
N5 Si3 1.826362 1_556
N5 Si1 1.832543 1_545
N6 Si0 1.826362 1_555
N6 Si2 1.832543 1_455
N7 Si1 1.826362 1_554
N7 Si3 1.832543 1_565
N8 Si0 1.754852 1_555
N9 Si1 1.754852 1_555
N10 Si2 1.754852 1_555
N11 Si3 1.754852 1_555
