# generated using pymatgen
data_TbAlFe
_symmetry_space_group_name_H-M   'P 1'
_cell_length_a   5.33950149
_cell_length_b   5.41994662
_cell_length_c   8.75613600
_cell_angle_alpha   90.00000000
_cell_angle_beta   90.00000000
_cell_angle_gamma   120.50291345
_symmetry_Int_Tables_number   1
_chemical_formula_structural   TbAlFe
_chemical_formula_sum   'Tb4 Al4 Fe4'
_cell_volume   218.33109827
_cell_formula_units_Z   4
loop_
 _symmetry_equiv_pos_site_id
 _symmetry_equiv_pos_as_xyz
  1  'x, y, z'
loop_
 _atom_site_type_symbol
 _atom_site_label
 _atom_site_symmetry_multiplicity
 _atom_site_fract_x
 _atom_site_fract_y
 _atom_site_fract_z
 _atom_site_occupancy
  Tb  Tb0  1  0.66776900  0.33395500  0.55415200  1
  Tb  Tb1  1  0.33793700  0.66896000  0.42560600  1
  Tb  Tb2  1  0.33793700  0.66896000  0.07439400  1
  Tb  Tb3  1  0.66776900  0.33395500  0.94584800  1
  Al  Al0  1  0.99002900  0.99487900  0.48605800  1
  Al  Al1  1  0.99002900  0.99487900  0.01394200  1
  Al  Al2  1  0.17318600  0.33941400  0.75000000  1
  Al  Al3  1  0.17327400  0.83379200  0.75000000  1
  Fe  Fe0  1  0.66551800  0.83273500  0.75000000  1
  Fe  Fe1  1  0.82581200  0.64843500  0.25000000  1
  Fe  Fe2  1  0.82576100  0.17753300  0.25000000  1
  Fe  Fe3  1  0.34498100  0.17250400  0.25000000  1
loop_
_geom_bond_atom_site_label_1
_geom_bond_atom_site_label_2
_geom_bond_distance
_geom_bond_site_symmetry_2
Tb0 Tb1 3.282162 1_655
Tb0 Tb1 3.303258 1_555
Tb0 Tb1 3.303819 1_545
Tb0 Tb3 3.429743 1_555
Tb1 Tb2 3.075260 1_555
Tb2 Tb3 3.282162 1_454
Tb2 Tb3 3.303258 1_554
Tb2 Tb3 3.303819 1_564
Al0 Fe1 2.625933 1_555
Al0 Fe2 2.627387 1_565
Al0 Fe3 2.634178 1_665
Al0 Fe0 2.751374 1_555
Al0 Al3 2.815682 1_655
Al0 Al2 2.816165 1_665
Al0 Tb1 3.046311 1_555
Al0 Tb0 3.144989 1_555
Al0 Tb0 3.147058 1_565
Al0 Tb0 3.174462 1_665
Al0 Tb1 3.191035 1_655
Al0 Tb1 3.192049 1_665
Al1 Fe1 2.625933 1_555
Al1 Fe2 2.627387 1_565
Al1 Fe3 2.634178 1_665
Al1 Fe0 2.751374 1_554
Al1 Al3 2.815682 1_654
Al1 Al2 2.816165 1_664
Al1 Tb2 3.046311 1_555
Al1 Tb3 3.144989 1_554
Al1 Tb3 3.147058 1_564
Al1 Tb3 3.174462 1_664
Al1 Tb2 3.191035 1_655
Al1 Tb2 3.192049 1_665
Al2 Fe0 2.631401 1_555
Al2 Al3 2.679264 1_555
Al2 Fe0 2.707842 1_445
Al2 Al3 2.740683 1_545
Al2 Tb3 3.161478 1_555
Al2 Tb0 3.161478 1_555
Al2 Tb3 3.184878 1_455
Al2 Tb0 3.184878 1_455
Al2 Tb1 3.230652 1_555
Al2 Tb2 3.230652 1_556
Al3 Fe0 2.631250 1_555
Al3 Fe0 2.708261 1_455
Al3 Tb3 3.161462 1_565
Al3 Tb0 3.161462 1_565
Al3 Tb3 3.184686 1_455
Al3 Tb0 3.184686 1_455
Al3 Tb1 3.230577 1_555
Al3 Tb2 3.230577 1_556
Fe0 Tb3 3.206567 1_555
Fe0 Tb0 3.206567 1_555
Fe0 Tb3 3.207432 1_565
Fe0 Tb0 3.207432 1_565
Fe0 Tb1 3.215475 1_555
Fe0 Tb2 3.215475 1_556
Fe1 Fe2 2.552125 1_555
Fe1 Fe3 2.553894 1_555
Fe1 Fe3 2.785538 1_665
Fe1 Fe2 2.867821 1_565
Fe1 Tb0 3.041344 1_555
Fe1 Tb3 3.041344 1_554
Fe1 Tb1 3.075214 1_555
Fe1 Tb2 3.075214 1_555
Fe1 Tb1 3.089550 1_655
Fe1 Tb2 3.089550 1_655
Fe2 Fe3 2.553398 1_555
Fe2 Fe3 2.786310 1_655
Fe2 Tb0 3.041231 1_555
Fe2 Tb3 3.041231 1_554
Fe2 Tb1 3.075425 1_545
Fe2 Tb2 3.075425 1_545
Fe2 Tb2 3.089173 1_655
Fe2 Tb1 3.089173 1_655
Fe3 Tb0 3.049234 1_555
Fe3 Tb3 3.049234 1_554
Fe3 Tb1 3.115875 1_555
Fe3 Tb2 3.115875 1_555
Fe3 Tb2 3.116079 1_545
Fe3 Tb1 3.116079 1_545
