# generated using pymatgen
data_MgCoAs2O7
_symmetry_space_group_name_H-M   'P 1'
_cell_length_a   8.65191600
_cell_length_b   7.31030200
_cell_length_c   9.70597541
_cell_angle_alpha   66.12228226
_cell_angle_beta   90.00000000
_cell_angle_gamma   90.00000000
_symmetry_Int_Tables_number   1
_chemical_formula_structural   MgCoAs2O7
_chemical_formula_sum   'Mg4 Co4 As8 O28'
_cell_volume   561.34318296
_cell_formula_units_Z   4
loop_
 _symmetry_equiv_pos_site_id
 _symmetry_equiv_pos_as_xyz
  1  'x, y, z'
loop_
 _atom_site_type_symbol
 _atom_site_label
 _atom_site_symmetry_multiplicity
 _atom_site_fract_x
 _atom_site_fract_y
 _atom_site_fract_z
 _atom_site_occupancy
  Mg  Mg0  1  0.07854700  0.72439400  0.89502200  1
  Mg  Mg1  1  0.57854700  0.27560600  0.60497800  1
  Mg  Mg2  1  0.92145300  0.27560600  0.10497800  1
  Mg  Mg3  1  0.42145300  0.72439400  0.39502200  1
  Co  Co0  1  0.94599700  0.18053100  0.68407700  1
  Co  Co1  1  0.44599700  0.81946900  0.81592300  1
  Co  Co2  1  0.05400300  0.81946900  0.31592300  1
  Co  Co3  1  0.55400300  0.18053100  0.18407700  1
  As  As0  1  0.77314500  0.56703600  0.74949200  1
  As  As1  1  0.27314500  0.43296400  0.75050800  1
  As  As2  1  0.22685500  0.43296400  0.25050800  1
  As  As3  1  0.72685500  0.56703600  0.24949200  1
  As  As4  1  0.72187100  0.98401900  0.95794800  1
  As  As5  1  0.22187100  0.01598100  0.54205200  1
  As  As6  1  0.27812900  0.01598100  0.04205200  1
  As  As7  1  0.77812900  0.98401900  0.45794800  1
  O  O0  1  0.72955400  0.14248400  0.04819100  1
  O  O1  1  0.22955400  0.85751600  0.45180900  1
  O  O2  1  0.27044600  0.85751600  0.95180900  1
  O  O3  1  0.77044600  0.14248400  0.54819100  1
  O  O4  1  0.59572800  0.65293400  0.76361700  1
  O  O5  1  0.09572800  0.34706600  0.73638300  1
  O  O6  1  0.40427200  0.34706600  0.23638300  1
  O  O7  1  0.90427200  0.65293400  0.26361700  1
  O  O8  1  0.90004900  0.53626900  0.89220600  1
  O  O9  1  0.40004900  0.46373100  0.60779400  1
  O  O10  1  0.09995100  0.46373100  0.10779400  1
  O  O11  1  0.59995100  0.53626900  0.39220600  1
  O  O12  1  0.85812200  0.74982400  0.58074000  1
  O  O13  1  0.35812200  0.25017600  0.91926000  1
  O  O14  1  0.14187800  0.25017600  0.41926000  1
  O  O15  1  0.64187800  0.74982400  0.08074000  1
  O  O16  1  0.91842500  0.03871100  0.32293600  1
  O  O17  1  0.41842500  0.96128900  0.17706400  1
  O  O18  1  0.08157500  0.96128900  0.67706400  1
  O  O19  1  0.58157500  0.03871100  0.82293600  1
  O  O20  1  0.73625900  0.36414500  0.20493500  1
  O  O21  1  0.23625900  0.63585500  0.29506500  1
  O  O22  1  0.26374100  0.63585500  0.79506500  1
  O  O23  1  0.76374100  0.36414500  0.70493500  1
  O  O24  1  0.60170000  0.95305800  0.39154000  1
  O  O25  1  0.10170000  0.04694200  0.10846000  1
  O  O26  1  0.39830000  0.04694200  0.60846000  1
  O  O27  1  0.89830000  0.95305800  0.89154000  1
loop_
_geom_bond_atom_site_label_1
_geom_bond_atom_site_label_2
_geom_bond_distance
_geom_bond_site_symmetry_2
Mg0 O8 2.075454 1_455
Mg0 O22 2.106147 1_555
Mg0 O2 2.107523 1_555
Mg0 O18 2.123472 1_555
Mg0 O10 2.178157 1_556
Mg0 O27 2.276323 1_455
Mg1 O9 2.075454 1_555
Mg1 O23 2.106147 1_555
Mg1 O3 2.107523 1_555
Mg1 O19 2.123472 1_555
Mg1 O11 2.178157 1_555
Mg1 O26 2.276323 1_555
Mg2 O10 2.075454 1_655
Mg2 O20 2.106147 1_555
Mg2 O0 2.107523 1_555
Mg2 O16 2.123472 1_555
Mg2 O8 2.178157 1_554
Mg2 O25 2.276323 1_655
Mg3 O11 2.075454 1_555
Mg3 O21 2.106147 1_555
Mg3 O1 2.107523 1_555
Mg3 O17 2.123472 1_555
Mg3 O9 2.178157 1_555
Mg3 O24 2.276323 1_555
Co0 O5 1.979504 1_655
Co0 O18 2.009386 1_645
Co0 O27 2.068674 1_545
Co0 O3 2.102561 1_555
Co0 O23 2.132880 1_555
Co1 O4 1.979504 1_555
Co1 O19 2.009386 1_565
Co1 O26 2.068674 1_565
Co1 O2 2.102561 1_555
Co1 O22 2.132880 1_555
Co2 O7 1.979504 1_455
Co2 O16 2.009386 1_465
Co2 O25 2.068674 1_565
Co2 O1 2.102561 1_555
Co2 O21 2.132880 1_555
Co3 O6 1.979504 1_555
Co3 O17 2.009386 1_545
Co3 O24 2.068674 1_545
Co3 O0 2.102561 1_555
Co3 O20 2.132880 1_555
As0 O4 1.684938 1_555
As0 O23 1.706694 1_555
As0 O8 1.709564 1_555
As0 O12 1.799150 1_555
As1 O5 1.684938 1_555
As1 O22 1.706694 1_555
As1 O9 1.709564 1_555
As1 O13 1.799150 1_555
As2 O6 1.684938 1_555
As2 O21 1.706694 1_555
As2 O10 1.709564 1_555
As2 O14 1.799150 1_555
As3 O7 1.684938 1_555
As3 O20 1.706694 1_555
As3 O11 1.709564 1_555
As3 O15 1.799150 1_555
As4 O27 1.707287 1_555
As4 O19 1.710639 1_565
As4 O0 1.713187 1_566
As4 O15 1.782865 1_556
As5 O26 1.707287 1_555
As5 O18 1.710639 1_545
As5 O1 1.713187 1_545
As5 O14 1.782865 1_555
As6 O25 1.707287 1_555
As6 O17 1.710639 1_545
As6 O2 1.713187 1_544
As6 O13 1.782865 1_554
As7 O24 1.707287 1_555
As7 O16 1.710639 1_565
As7 O3 1.713187 1_565
As7 O12 1.782865 1_555
