# generated using pymatgen
data_Ge3Pb3O10
_symmetry_space_group_name_H-M   'P 1'
_cell_length_a   9.50176713
_cell_length_b   9.50172463
_cell_length_c   9.50285549
_cell_angle_alpha   113.48692495
_cell_angle_beta   113.47621607
_cell_angle_gamma   113.53041493
_symmetry_Int_Tables_number   1
_chemical_formula_structural   Ge3Pb3O10
_chemical_formula_sum   'Ge6 Pb6 O20'
_cell_volume   540.10504975
_cell_formula_units_Z   2
loop_
 _symmetry_equiv_pos_site_id
 _symmetry_equiv_pos_as_xyz
  1  'x, y, z'
loop_
 _atom_site_type_symbol
 _atom_site_label
 _atom_site_symmetry_multiplicity
 _atom_site_fract_x
 _atom_site_fract_y
 _atom_site_fract_z
 _atom_site_occupancy
  Ge  Ge0  1  0.24246900  0.84676500  0.97819200  1
  Ge  Ge1  1  0.84643200  0.97903200  0.24257100  1
  Ge  Ge2  1  0.97815600  0.24301200  0.84595000  1
  Ge  Ge3  1  0.75697300  0.15379100  0.02115600  1
  Ge  Ge4  1  0.15310900  0.02166200  0.75692700  1
  Ge  Ge5  1  0.02135600  0.75777600  0.15352200  1
  Pb  Pb0  1  0.32734300  0.49088200  0.79438300  1
  Pb  Pb1  1  0.48957900  0.79444600  0.32683200  1
  Pb  Pb2  1  0.79407200  0.32716100  0.48943300  1
  Pb  Pb3  1  0.67214200  0.51001600  0.20524400  1
  Pb  Pb4  1  0.50988200  0.20585000  0.67290300  1
  Pb  Pb5  1  0.20493200  0.67274900  0.50922700  1
  O  O0  1  0.02215200  0.72056900  0.95340400  1
  O  O1  1  0.72005600  0.95370300  0.02203100  1
  O  O2  1  0.95293200  0.02244300  0.71979600  1
  O  O3  1  0.97745300  0.28053900  0.04626300  1
  O  O4  1  0.27948300  0.04696300  0.97746400  1
  O  O5  1  0.04663500  0.97834000  0.27982000  1
  O  O6  1  0.46792000  0.96384000  0.21243600  1
  O  O7  1  0.96382700  0.21346000  0.46810000  1
  O  O8  1  0.21295300  0.46859300  0.96361200  1
  O  O9  1  0.53138300  0.03593100  0.78657000  1
  O  O10  1  0.03564800  0.78705200  0.53149800  1
  O  O11  1  0.78676500  0.53216900  0.03612600  1
  O  O12  1  0.18235300  0.65434500  0.76224300  1
  O  O13  1  0.65382900  0.76296600  0.18239200  1
  O  O14  1  0.76225400  0.18283000  0.65343400  1
  O  O15  1  0.81671800  0.34610000  0.23686600  1
  O  O16  1  0.34580400  0.23777100  0.81720000  1
  O  O17  1  0.23738900  0.81802900  0.34596100  1
  O  O18  1  0.58681600  0.57991600  0.58809500  1
  O  O19  1  0.42118500  0.41129400  0.42035000  1
loop_
_geom_bond_atom_site_label_1
_geom_bond_atom_site_label_2
_geom_bond_distance
_geom_bond_site_symmetry_2
Ge0 O6 1.762304 1_556
Ge0 O12 1.766879 1_555
Ge0 O4 1.794560 1_565
Ge0 O0 1.803691 1_555
Ge1 O7 1.762185 1_565
Ge1 O13 1.766744 1_555
Ge1 O5 1.794261 1_655
Ge1 O1 1.803940 1_555
Ge2 O8 1.762306 1_655
Ge2 O14 1.766812 1_555
Ge2 O3 1.794906 1_556
Ge2 O2 1.803967 1_555
Ge3 O9 1.761970 1_554
Ge3 O15 1.766953 1_555
Ge3 O1 1.794445 1_545
Ge3 O3 1.803976 1_555
Ge4 O10 1.762436 1_545
Ge4 O16 1.766891 1_555
Ge4 O2 1.794697 1_455
Ge4 O4 1.804072 1_555
Ge5 O11 1.762285 1_455
Ge5 O17 1.766886 1_555
Ge5 O0 1.794210 1_554
Ge5 O5 1.803820 1_555
O6 Pb1 2.301220 1_555
O6 Pb2 2.483042 1_565
O7 Pb2 2.299413 1_555
O7 Pb0 2.485010 1_655
O8 Pb0 2.300586 1_555
O8 Pb1 2.482759 1_556
O9 Pb4 2.300606 1_555
O9 Pb5 2.483223 1_545
O10 Pb5 2.300981 1_555
O10 Pb3 2.484862 1_455
O11 Pb3 2.300959 1_555
O11 Pb4 2.483989 1_554
O12 Pb0 2.480929 1_555
O12 Pb5 2.563940 1_555
O12 Pb2 2.606605 1_455
O13 Pb1 2.482213 1_555
O13 Pb3 2.563964 1_555
O13 Pb0 2.605267 1_554
O14 Pb2 2.479699 1_555
O14 Pb4 2.563670 1_555
O14 Pb1 2.606415 1_545
O15 Pb3 2.481072 1_555
O15 Pb2 2.562034 1_555
O15 Pb5 2.605278 1_655
O16 Pb4 2.480357 1_555
O16 Pb0 2.565923 1_555
O16 Pb3 2.605053 1_556
O17 Pb5 2.481164 1_555
O17 Pb1 2.562927 1_555
O17 Pb4 2.604336 1_565
O18 O19 1.239752 1_555
