# generated using pymatgen
data_Nb(GaNi4)3
_symmetry_space_group_name_H-M   'P 1'
_cell_length_a   3.57898384
_cell_length_b   3.57898384
_cell_length_c   14.14629026
_cell_angle_alpha   90.00000000
_cell_angle_beta   90.00000000
_cell_angle_gamma   90.00000000
_symmetry_Int_Tables_number   1
_chemical_formula_structural   Nb(GaNi4)3
_chemical_formula_sum   'Nb1 Ga3 Ni12'
_cell_volume   181.20160485
_cell_formula_units_Z   1
loop_
 _symmetry_equiv_pos_site_id
 _symmetry_equiv_pos_as_xyz
  1  'x, y, z'
loop_
 _atom_site_type_symbol
 _atom_site_label
 _atom_site_symmetry_multiplicity
 _atom_site_fract_x
 _atom_site_fract_y
 _atom_site_fract_z
 _atom_site_occupancy
  Nb  Nb0  1  -0.00000000  0.00000000  -0.00000000  1
  Ga  Ga0  1  0.00000000  0.00000000  0.25571137  1
  Ga  Ga1  1  -0.00000000  0.00000000  0.50000000  1
  Ga  Ga2  1  -0.00000000  -0.00000000  0.74428863  1
  Ni  Ni0  1  0.50000000  0.50000000  -0.00000000  1
  Ni  Ni1  1  0.50000000  0.50000000  0.25386038  1
  Ni  Ni2  1  0.50000000  0.50000000  0.50000000  1
  Ni  Ni3  1  0.50000000  0.50000000  0.74613962  1
  Ni  Ni4  1  0.50000000  0.00000000  0.12967691  1
  Ni  Ni5  1  0.50000000  0.00000000  0.37731238  1
  Ni  Ni6  1  0.50000000  0.00000000  0.62268762  1
  Ni  Ni7  1  0.50000000  0.00000000  0.87032309  1
  Ni  Ni8  1  0.00000000  0.50000000  0.12967691  1
  Ni  Ni9  1  -0.00000000  0.50000000  0.37731238  1
  Ni  Ni10  1  -0.00000000  0.50000000  0.62268762  1
  Ni  Ni11  1  -0.00000000  0.50000000  0.87032309  1
loop_
_geom_bond_atom_site_label_1
_geom_bond_atom_site_label_2
_geom_bond_distance
_geom_bond_site_symmetry_2
Nb0 Ni0 2.530724 1_455
Nb0 Ni0 2.530724 1_555
Nb0 Ni0 2.530724 1_545
Nb0 Ni0 2.530724 1_445
Nb0 Ni4 2.562709 1_455
Nb0 Ni8 2.562709 1_555
Nb0 Ni4 2.562709 1_555
Nb0 Ni8 2.562709 1_545
Nb0 Ni11 2.562709 1_544
Nb0 Ni7 2.562709 1_554
Nb0 Ni7 2.562709 1_454
Nb0 Ni11 2.562709 1_554
Ga0 Ni5 2.482213 1_455
Ga0 Ni5 2.482213 1_555
Ga0 Ni9 2.482213 1_555
Ga0 Ni9 2.482213 1_545
Ga0 Ni4 2.526081 1_455
Ga0 Ni4 2.526081 1_555
Ga0 Ni8 2.526081 1_555
Ga0 Ni8 2.526081 1_545
Ga0 Ni1 2.530859 1_555
Ga0 Ni1 2.530859 1_545
Ga0 Ni1 2.530859 1_455
Ga0 Ni1 2.530859 1_445
Ga1 Ni9 2.492890 1_555
Ga1 Ni9 2.492890 1_545
Ga1 Ni6 2.492890 1_555
Ga1 Ni10 2.492890 1_555
Ga1 Ni6 2.492890 1_455
Ga1 Ni10 2.492890 1_545
Ga1 Ni5 2.492890 1_455
Ga1 Ni5 2.492890 1_555
Ga1 Ni2 2.530724 1_555
Ga1 Ni2 2.530724 1_445
Ga1 Ni2 2.530724 1_455
Ga1 Ni2 2.530724 1_545
Ga2 Ni6 2.482213 1_555
Ga2 Ni10 2.482213 1_555
Ga2 Ni6 2.482213 1_455
Ga2 Ni10 2.482213 1_545
Ga2 Ni11 2.526081 1_545
Ga2 Ni11 2.526081 1_555
Ga2 Ni7 2.526081 1_455
Ga2 Ni7 2.526081 1_555
Ga2 Ni3 2.530859 1_545
Ga2 Ni3 2.530859 1_455
Ga2 Ni3 2.530859 1_445
Ga2 Ni3 2.530859 1_555
Ni0 Ni8 2.562709 1_655
Ni0 Ni4 2.562709 1_565
Ni0 Ni8 2.562709 1_555
Ni0 Ni4 2.562709 1_555
Ni0 Ni11 2.562709 1_654
Ni0 Ni7 2.562709 1_554
Ni0 Ni11 2.562709 1_554
Ni0 Ni7 2.562709 1_564
Ni1 Ni5 2.500430 1_555
Ni1 Ni9 2.500430 1_655
Ni1 Ni9 2.500430 1_555
Ni1 Ni5 2.500430 1_565
Ni1 Ni4 2.507668 1_565
Ni1 Ni8 2.507668 1_555
Ni1 Ni4 2.507668 1_555
Ni1 Ni8 2.507668 1_655
Ni2 Ni9 2.492890 1_555
Ni2 Ni6 2.492890 1_565
Ni2 Ni6 2.492890 1_555
Ni2 Ni9 2.492890 1_655
Ni2 Ni5 2.492890 1_565
Ni2 Ni5 2.492890 1_555
Ni3 Ni6 2.500430 1_565
Ni3 Ni6 2.500430 1_555
Ni3 Ni7 2.507668 1_565
Ni3 Ni7 2.507668 1_555
Ni4 Ni8 2.530724 1_645
Ni4 Ni8 2.530724 1_655
Ni4 Ni8 2.530724 1_545
Ni4 Ni8 2.530724 1_555
Ni5 Ni9 2.530724 1_645
Ni5 Ni9 2.530724 1_555
Ni5 Ni9 2.530724 1_655
Ni5 Ni9 2.530724 1_545
Ni10 Ni2 2.492890 1_455
Ni10 Ni2 2.492890 1_555
Ni10 Ni3 2.500430 1_455
Ni10 Ni3 2.500430 1_555
Ni10 Ni6 2.530724 1_565
Ni10 Ni6 2.530724 1_555
Ni10 Ni6 2.530724 1_465
Ni10 Ni6 2.530724 1_455
Ni11 Ni3 2.507668 1_455
Ni11 Ni3 2.507668 1_555
Ni11 Ni7 2.530724 1_565
Ni11 Ni7 2.530724 1_455
Ni11 Ni7 2.530724 1_465
Ni11 Ni7 2.530724 1_555
