# generated using pymatgen
data_BaFeF5
_symmetry_space_group_name_H-M   'P 1'
_cell_length_a   7.92830897
_cell_length_b   9.55328202
_cell_length_c   14.38665721
_cell_angle_alpha   51.92956406
_cell_angle_beta   90.00000000
_cell_angle_gamma   90.00000000
_symmetry_Int_Tables_number   1
_chemical_formula_structural   BaFeF5
_chemical_formula_sum   'Ba8 Fe8 F40'
_cell_volume   857.84248606
_cell_formula_units_Z   8
loop_
 _symmetry_equiv_pos_site_id
 _symmetry_equiv_pos_as_xyz
  1  'x, y, z'
loop_
 _atom_site_type_symbol
 _atom_site_label
 _atom_site_symmetry_multiplicity
 _atom_site_fract_x
 _atom_site_fract_y
 _atom_site_fract_z
 _atom_site_occupancy
  Ba  Ba0  1  0.21270073  0.66554403  0.64625850  1
  Ba  Ba1  1  0.71270073  0.33445597  0.85374150  1
  Ba  Ba2  1  0.78729927  0.33445597  0.35374150  1
  Ba  Ba3  1  0.28729927  0.66554403  0.14625850  1
  Ba  Ba4  1  0.28605945  0.22215514  0.54624672  1
  Ba  Ba5  1  0.78605945  0.77784486  0.95375328  1
  Ba  Ba6  1  0.71394055  0.77784486  0.45375328  1
  Ba  Ba7  1  0.21394055  0.22215514  0.04624672  1
  Fe  Fe0  1  0.29295967  0.78516139  0.84214034  1
  Fe  Fe1  1  0.79295967  0.21483861  0.65785966  1
  Fe  Fe2  1  0.70704033  0.21483861  0.15785966  1
  Fe  Fe3  1  0.20704033  0.78516139  0.34214034  1
  Fe  Fe4  1  0.19095800  0.18931847  0.81556449  1
  Fe  Fe5  1  0.69095800  0.81068153  0.68443551  1
  Fe  Fe6  1  0.80904200  0.81068153  0.18443551  1
  Fe  Fe7  1  0.30904200  0.18931847  0.31556449  1
  F  F0  1  0.94458915  0.65535802  0.16750817  1
  F  F1  1  0.44458915  0.34464198  0.33249183  1
  F  F2  1  0.05541085  0.34464198  0.83249183  1
  F  F3  1  0.55541085  0.65535802  0.66750817  1
  F  F4  1  0.47806092  0.87957673  0.71741648  1
  F  F5  1  0.97806092  0.12042327  0.78258352  1
  F  F6  1  0.52193908  0.12042327  0.28258352  1
  F  F7  1  0.02193908  0.87957673  0.21741648  1
  F  F8  1  0.45520616  0.72938330  0.95805034  1
  F  F9  1  0.95520616  0.27061670  0.54194966  1
  F  F10  1  0.54479384  0.27061670  0.04194966  1
  F  F11  1  0.04479384  0.72938330  0.45805034  1
  F  F12  1  0.37885827  0.28549222  0.84610148  1
  F  F13  1  0.87885827  0.71450778  0.65389852  1
  F  F14  1  0.62114173  0.71450778  0.15389852  1
  F  F15  1  0.12114173  0.28549222  0.34610148  1
  F  F16  1  0.19488344  0.03697015  0.28804642  1
  F  F17  1  0.69488344  0.96302985  0.21195358  1
  F  F18  1  0.80511656  0.96302985  0.71195358  1
  F  F19  1  0.30511656  0.03697015  0.78804642  1
  F  F20  1  0.27744602  0.37682781  0.15076673  1
  F  F21  1  0.77744602  0.62317219  0.34923327  1
  F  F22  1  0.72255398  0.62317219  0.84923327  1
  F  F23  1  0.22255398  0.37682781  0.65076673  1
  F  F24  1  0.34589282  0.88590949  0.20549411  1
  F  F25  1  0.84589282  0.11409051  0.29450589  1
  F  F26  1  0.65410718  0.11409051  0.79450589  1
  F  F27  1  0.15410718  0.88590949  0.70549411  1
  F  F28  1  0.38272381  0.72535063  0.45112233  1
  F  F29  1  0.88272381  0.27464937  0.04887767  1
  F  F30  1  0.61727619  0.27464937  0.54887767  1
  F  F31  1  0.11727619  0.72535063  0.95112233  1
  F  F32  1  0.21238302  0.56574531  0.36754055  1
  F  F33  1  0.71238302  0.43425469  0.13245945  1
  F  F34  1  0.78761698  0.43425469  0.63245945  1
  F  F35  1  0.28761698  0.56574531  0.86754055  1
  F  F36  1  0.68447978  0.99709279  0.51851942  1
  F  F37  1  0.18447978  0.00290721  0.98148058  1
  F  F38  1  0.31552022  0.00290721  0.48148058  1
  F  F39  1  0.81552022  0.99709279  0.01851942  1
loop_
_geom_bond_atom_site_label_1
_geom_bond_atom_site_label_2
_geom_bond_distance
_geom_bond_site_symmetry_2
Ba0 F38 2.692413 1_565
Ba0 F13 2.701828 1_455
Ba0 F23 2.719796 1_555
Ba0 F11 2.727473 1_555
Ba0 F3 2.729274 1_555
Ba0 F27 2.754365 1_555
Ba0 F35 2.766467 1_555
Ba0 F2 2.828824 1_555
Ba0 F28 2.836664 1_555
Ba1 F39 2.692413 1_546
Ba1 F12 2.701828 1_555
Ba1 F22 2.719796 1_555
Ba1 F10 2.727473 1_556
Ba1 F2 2.729274 1_655
Ba1 F26 2.754365 1_555
Ba1 F34 2.766467 1_555
Ba1 F3 2.828824 1_555
Ba1 F29 2.836664 1_556
Ba2 F36 2.692413 1_545
Ba2 F15 2.701828 1_655
Ba2 F21 2.719796 1_555
Ba2 F9 2.727473 1_555
Ba2 F1 2.729274 1_555
Ba2 F25 2.754365 1_555
Ba2 F33 2.766467 1_555
Ba2 F0 2.828824 1_555
Ba2 F30 2.836664 1_555
Ba3 F37 2.692413 1_564
Ba3 F14 2.701828 1_555
Ba3 F20 2.719796 1_555
Ba3 F8 2.727473 1_554
Ba3 F0 2.729274 1_455
Ba3 F24 2.754365 1_555
Ba3 F32 2.766467 1_555
Ba3 F1 2.828824 1_555
Ba3 F31 2.836664 1_554
Ba4 F9 2.657735 1_455
Ba4 F30 2.678088 1_555
Ba4 F32 2.705160 1_555
Ba4 F23 2.727302 1_555
Ba4 F27 2.754236 1_545
Ba4 F19 2.768419 1_555
Ba4 F38 2.777894 1_555
Ba4 F1 2.822783 1_555
Ba4 F15 2.866726 1_555
Ba4 F4 3.025403 1_545
Ba5 F8 2.657735 1_555
Ba5 F31 2.678088 1_655
Ba5 F33 2.705160 1_556
Ba5 F22 2.727302 1_555
Ba5 F26 2.754236 1_565
Ba5 F18 2.768419 1_555
Ba5 F39 2.777894 1_556
Ba5 F0 2.822783 1_556
Ba5 F14 2.866726 1_556
Ba5 F5 3.025403 1_565
Ba6 F11 2.657735 1_655
Ba6 F28 2.678088 1_555
Ba6 F34 2.705160 1_555
Ba6 F21 2.727302 1_555
Ba6 F25 2.754236 1_565
Ba6 F17 2.768419 1_555
Ba6 F36 2.777894 1_555
Ba6 F3 2.822783 1_555
Ba6 F13 2.866726 1_555
Ba6 F6 3.025403 1_565
Ba7 F10 2.657735 1_555
Ba7 F29 2.678088 1_455
Ba7 F35 2.705160 1_554
Ba7 F20 2.727302 1_555
Ba7 F24 2.754236 1_545
Ba7 F16 2.768419 1_555
Ba7 F37 2.777894 1_554
Ba7 F2 2.822783 1_554
Ba7 F12 2.866726 1_554
Ba7 F7 3.025403 1_545
F0 Fe6 1.965110 1_555
F1 Fe7 1.965110 1_555
F2 Fe4 1.965110 1_555
F3 Fe5 1.965110 1_555
F4 Fe5 1.972948 1_555
F4 Fe0 2.047185 1_555
F5 Fe4 1.972948 1_655
F5 Fe1 2.047185 1_555
F6 Fe7 1.972948 1_555
F6 Fe2 2.047185 1_555
F7 Fe6 1.972948 1_455
F7 Fe3 2.047185 1_555
F8 Fe0 1.903552 1_555
F9 Fe1 1.903552 1_555
F10 Fe2 1.903552 1_555
F11 Fe3 1.903552 1_555
F12 Fe4 1.937588 1_555
F13 Fe5 1.937588 1_555
F14 Fe6 1.937588 1_555
F15 Fe7 1.937588 1_555
F16 Fe7 1.950582 1_555
F16 Fe3 2.023128 1_545
F17 Fe6 1.950582 1_555
F17 Fe2 2.023128 1_565
F18 Fe5 1.950582 1_555
F18 Fe1 2.023128 1_565
F19 Fe4 1.950582 1_555
F19 Fe0 2.023128 1_545
F20 Fe7 1.911811 1_555
F21 Fe6 1.911811 1_555
F22 Fe5 1.911811 1_555
F23 Fe4 1.911811 1_555
F24 Fe3 1.915591 1_555
F25 Fe2 1.915591 1_555
F26 Fe1 1.915591 1_555
F27 Fe0 1.915591 1_555
F28 Fe3 1.902631 1_555
F29 Fe2 1.902631 1_555
F30 Fe1 1.902631 1_555
F31 Fe0 1.902631 1_555
F32 Fe3 1.893276 1_555
F33 Fe2 1.893276 1_555
F34 Fe1 1.893276 1_555
F35 Fe0 1.893276 1_555
F36 Fe5 1.905078 1_555
F37 Fe4 1.905078 1_555
F38 Fe7 1.905078 1_555
F39 Fe6 1.905078 1_555
