# generated using pymatgen
data_Ba5V5O14
_symmetry_space_group_name_H-M   'P 1'
_cell_length_a   5.89410315
_cell_length_b   13.51542455
_cell_length_c   10.17975908
_cell_angle_alpha   112.38304610
_cell_angle_beta   90.01884552
_cell_angle_gamma   77.41410379
_symmetry_Int_Tables_number   1
_chemical_formula_structural   Ba5V5O14
_chemical_formula_sum   'Ba10 V10 O28'
_cell_volume   728.74248429
_cell_formula_units_Z   2
loop_
 _symmetry_equiv_pos_site_id
 _symmetry_equiv_pos_as_xyz
  1  'x, y, z'
loop_
 _atom_site_type_symbol
 _atom_site_label
 _atom_site_symmetry_multiplicity
 _atom_site_fract_x
 _atom_site_fract_y
 _atom_site_fract_z
 _atom_site_occupancy
  Ba  Ba0  1  0.95711900  0.00084900  0.00030700  1
  Ba  Ba1  1  0.45800800  0.99917500  0.49971200  1
  Ba  Ba2  1  0.11059800  0.76718300  0.55091800  1
  Ba  Ba3  1  0.61097600  0.76765700  0.05125800  1
  Ba  Ba4  1  0.87877800  0.23232000  0.44869500  1
  Ba  Ba5  1  0.37805600  0.23283600  0.94910400  1
  Ba  Ba6  1  0.28316100  0.42460000  0.37924000  1
  Ba  Ba7  1  0.78429900  0.42428200  0.87866700  1
  Ba  Ba8  1  0.70861600  0.57575600  0.62147500  1
  Ba  Ba9  1  0.20736600  0.57541100  0.12083200  1
  V  V0  1  0.73945000  0.50002500  0.25008500  1
  V  V1  1  0.24178600  0.50004200  0.75013400  1
  V  V2  1  0.13668600  0.71472600  0.85734000  1
  V  V3  1  0.63874900  0.71142500  0.35689700  1
  V  V4  1  0.85067500  0.28858800  0.14304300  1
  V  V5  1  0.35251600  0.28528900  0.64263100  1
  V  V6  1  0.43216600  0.12907600  0.23098700  1
  V  V7  1  0.93141200  0.12812100  0.73086600  1
  V  V8  1  0.55915900  0.87187700  0.76906500  1
  V  V9  1  0.06090200  0.87092700  0.26893900  1
  O  O0  1  0.92204700  0.60149900  0.37520400  1
  O  O1  1  0.41830300  0.60301100  0.87522200  1
  O  O2  1  0.52251700  0.39655900  0.62454300  1
  O  O3  1  0.02408600  0.39843800  0.12504800  1
  O  O4  1  0.19639300  0.60647500  0.65262400  1
  O  O5  1  0.69862000  0.60200400  0.14956600  1
  O  O6  1  0.80083000  0.39802800  0.35054100  1
  O  O7  1  0.30260400  0.39359600  0.84744600  1
  O  O8  1  0.46731400  0.59645100  0.37647400  1
  O  O9  1  0.97192800  0.59866100  0.87837800  1
  O  O10  1  0.07147400  0.40169900  0.62199500  1
  O  O11  1  0.56431000  0.40356600  0.12332600  1
  O  O12  1  0.15468000  0.17997500  0.17231900  1
  O  O13  1  0.65461500  0.17745700  0.67062200  1
  O  O14  1  0.33183400  0.82248700  0.82926100  1
  O  O15  1  0.83458000  0.81989900  0.32749500  1
  O  O16  1  0.40067500  0.19254300  0.43042700  1
  O  O17  1  0.89828600  0.19481400  0.93064300  1
  O  O18  1  0.59318100  0.80518100  0.56929500  1
  O  O19  1  0.09356200  0.80740700  0.06944600  1
  O  O20  1  0.64154300  0.19903100  0.18232200  1
  O  O21  1  0.14067300  0.19662300  0.67955700  1
  O  O22  1  0.83689300  0.80338100  0.82043200  1
  O  O23  1  0.34028800  0.80104200  0.31767300  1
  O  O24  1  0.08010200  0.98949800  0.66816400  1
  O  O25  1  0.57911400  0.99025300  0.16654700  1
  O  O26  1  0.06894600  0.00974800  0.33343000  1
  O  O27  1  0.56933400  0.01050600  0.83179800  1
loop_
_geom_bond_atom_site_label_1
_geom_bond_atom_site_label_2
_geom_bond_distance
_geom_bond_site_symmetry_2
Ba0 O22 2.842422 1_544
Ba0 O20 2.849313 1_555
Ba0 O25 2.859095 1_545
Ba0 O14 2.864687 1_644
Ba0 O27 2.867344 1_554
Ba0 O12 2.877815 1_655
Ba0 O19 2.908984 1_645
Ba0 O17 2.918057 1_554
Ba0 O24 3.396934 1_644
Ba0 O26 3.416284 1_655
Ba1 O21 2.842130 1_565
Ba1 O23 2.848850 1_555
Ba1 O26 2.860626 1_565
Ba1 O13 2.863322 1_565
Ba1 O24 2.866935 1_555
Ba1 O15 2.880012 1_555
Ba1 O16 2.908704 1_565
Ba1 O18 2.917982 1_555
Ba1 O27 3.395617 1_565
Ba1 O25 3.417487 1_555
Ba2 O4 2.697971 1_555
Ba2 O0 2.735276 1_455
Ba2 O24 2.741988 1_555
Ba2 O8 2.768756 1_555
Ba2 O23 2.963027 1_555
Ba2 O18 2.973905 1_455
Ba2 O18 2.992057 1_555
Ba2 O22 3.000981 1_455
Ba2 O15 3.008948 1_455
Ba2 O14 3.016117 1_555
Ba3 O5 2.735492 1_555
Ba3 O1 2.741481 1_554
Ba3 O25 2.743807 1_555
Ba3 O9 2.768336 1_554
Ba3 O22 2.945140 1_554
Ba3 O19 2.972223 1_555
Ba3 O23 2.976811 1_555
Ba3 O19 3.000575 1_655
Ba3 O15 3.005657 1_555
Ba3 O14 3.017417 1_554
Ba4 O6 2.735119 1_555
Ba4 O2 2.736047 1_555
Ba4 O26 2.743246 1_655
Ba4 O10 2.774678 1_655
Ba4 O21 2.945372 1_655
Ba4 O16 2.974626 1_555
Ba4 O20 2.975401 1_555
Ba4 O16 2.998268 1_655
Ba4 O12 3.007692 1_655
Ba4 O13 3.017288 1_555
Ba5 O7 2.698242 1_555
Ba5 O3 2.735794 1_556
Ba5 O27 2.741907 1_555
Ba5 O11 2.767857 1_556
Ba5 O20 2.961660 1_556
Ba5 O17 2.975790 1_455
Ba5 O17 2.990259 1_555
Ba5 O21 2.999904 1_555
Ba5 O12 3.009214 1_556
Ba5 O13 3.018151 1_555
Ba6 O8 2.778864 1_555
Ba6 O0 2.846965 1_455
Ba6 O4 2.879579 1_555
Ba6 O10 2.917566 1_555
Ba6 O6 2.942950 1_455
Ba6 O3 2.947614 1_555
Ba6 O11 2.974414 1_555
Ba6 O2 2.975738 1_555
Ba6 O6 2.994536 1_555
Ba6 O20 3.211949 1_555
Ba6 O16 3.299337 1_555
Ba6 O12 3.424563 1_555
Ba7 O9 2.814025 1_555
Ba7 O5 2.838476 1_556
Ba7 O1 2.878095 1_555
Ba7 O11 2.941771 1_556
Ba7 O2 2.953715 1_555
Ba7 O7 2.957368 1_555
Ba7 O3 2.976541 1_656
Ba7 O7 2.992287 1_655
Ba7 O10 2.992593 1_655
Ba7 O21 3.228655 1_655
Ba7 O17 3.269737 1_555
Ba7 O13 3.453634 1_555
Ba8 O10 2.815143 1_655
Ba8 O6 2.838767 1_555
Ba8 O2 2.878408 1_555
Ba8 O8 2.945662 1_555
Ba8 O1 2.956271 1_555
Ba8 O4 2.956679 1_555
Ba8 O0 2.974163 1_555
Ba8 O9 2.988973 1_555
Ba8 O4 2.992980 1_655
Ba8 O22 3.225755 1_555
Ba8 O18 3.270263 1_555
Ba8 O14 3.453959 1_555
Ba9 O11 2.781464 1_555
Ba9 O3 2.845017 1_555
Ba9 O7 2.879262 1_554
Ba9 O9 2.917953 1_454
Ba9 O5 2.942307 1_455
Ba9 O0 2.950724 1_455
Ba9 O8 2.970587 1_555
Ba9 O1 2.975000 1_554
Ba9 O5 2.995260 1_555
Ba9 O23 3.211672 1_555
Ba9 O19 3.299607 1_555
Ba9 O15 3.423024 1_455
O0 V0 1.993361 1_555
O0 V3 2.039542 1_555
O1 V1 1.980194 1_555
O1 V2 2.045718 1_555
O2 V1 1.989866 1_555
O2 V5 2.041380 1_555
O3 V0 1.996603 1_455
O3 V4 2.037419 1_455
O4 V1 2.011393 1_555
O4 V2 2.015268 1_555
O5 V0 1.983444 1_555
O5 V3 2.040109 1_555
O6 V0 1.983185 1_555
O6 V4 2.041424 1_555
O7 V1 2.009968 1_555
O7 V5 2.016118 1_555
O8 V0 1.933894 1_555
O8 V3 2.096589 1_555
O9 V1 1.939848 1_655
O9 V2 2.090333 1_655
O10 V1 1.932880 1_555
O10 V5 2.092640 1_555
O11 V0 1.932545 1_555
O11 V4 2.097204 1_555
O12 V6 1.823951 1_555
O12 V4 2.154274 1_455
O13 V7 1.821838 1_555
O13 V5 2.135589 1_555
O14 V8 1.821597 1_555
O14 V2 2.138519 1_555
O15 V9 1.823450 1_655
O15 V3 2.154793 1_555
O16 V6 1.869946 1_555
O16 V5 2.025176 1_555
O17 V7 1.874551 1_555
O17 V4 2.029395 1_556
O18 V8 1.874494 1_555
O18 V3 2.029337 1_555
O19 V9 1.870464 1_555
O19 V2 2.024235 1_554
O20 V6 1.878279 1_555
O20 V4 2.040467 1_555
O21 V7 1.875537 1_455
O21 V5 2.032707 1_555
O22 V8 1.875595 1_555
O22 V2 2.029509 1_655
O23 V9 1.878417 1_555
O23 V3 2.039705 1_555
O24 V7 1.749197 1_465
O25 V6 1.748029 1_565
O26 V9 1.747604 1_545
O27 V8 1.749169 1_545
