# generated using pymatgen
data_Ta6TiTl2O18
_symmetry_space_group_name_H-M   'P 1'
_cell_length_a   7.61830971
_cell_length_b   7.61830971
_cell_length_c   8.34778565
_cell_angle_alpha   89.84523816
_cell_angle_beta   89.84523816
_cell_angle_gamma   60.10333754
_symmetry_Int_Tables_number   1
_chemical_formula_structural   Ta6TiTl2O18
_chemical_formula_sum   'Ta6 Ti1 Tl2 O18'
_cell_volume   420.01842556
_cell_formula_units_Z   1
loop_
 _symmetry_equiv_pos_site_id
 _symmetry_equiv_pos_as_xyz
  1  'x, y, z'
loop_
 _atom_site_type_symbol
 _atom_site_label
 _atom_site_symmetry_multiplicity
 _atom_site_fract_x
 _atom_site_fract_y
 _atom_site_fract_z
 _atom_site_occupancy
  Ta  Ta0  1  0.66376500  0.17153400  0.84866300  1
  Ta  Ta1  1  0.16705900  0.66601400  0.84837500  1
  Ta  Ta2  1  0.16442400  0.17112800  0.84859100  1
  Ta  Ta3  1  0.33398600  0.83294100  0.15162500  1
  Ta  Ta4  1  0.82846600  0.33623500  0.15133700  1
  Ta  Ta5  1  0.82887200  0.83557600  0.15140900  1
  Ti  Ti0  1  0.99933000  0.00067000  0.50000000  1
  Tl  Tl0  1  0.27710300  0.36169800  0.30718200  1
  Tl  Tl1  1  0.63830200  0.72289700  0.69281800  1
  O  O0  1  0.10181000  0.44996100  0.84064900  1
  O  O1  1  0.44911200  0.10161300  0.83919100  1
  O  O2  1  0.44848000  0.45040800  0.84040500  1
  O  O3  1  0.89838700  0.55088800  0.16080900  1
  O  O4  1  0.55003900  0.89819000  0.15935100  1
  O  O5  1  0.54959200  0.55152000  0.15959500  1
  O  O6  1  0.28365000  0.85895500  0.89883500  1
  O  O7  1  0.85843700  0.28339600  0.89937100  1
  O  O8  1  0.85727800  0.85849700  0.89913300  1
  O  O9  1  0.71660400  0.14156300  0.10062900  1
  O  O10  1  0.14104500  0.71635000  0.10116500  1
  O  O11  1  0.14150300  0.14272200  0.10086700  1
  O  O12  1  0.75853400  0.11939000  0.63899200  1
  O  O13  1  0.12097800  0.75788800  0.63795300  1
  O  O14  1  0.12255600  0.12003400  0.63832900  1
  O  O15  1  0.24211200  0.87902200  0.36204700  1
  O  O16  1  0.88061000  0.24146600  0.36100800  1
  O  O17  1  0.87996600  0.87744400  0.36167100  1
loop_
_geom_bond_atom_site_label_1
_geom_bond_atom_site_label_2
_geom_bond_distance
_geom_bond_site_symmetry_2
O0 Ta2 1.932254 1_555
O0 Ta1 1.943401 1_555
O1 Ta0 1.957926 1_555
O1 Ta2 1.960816 1_555
O1 Tl1 2.785449 1_545
O2 Ta0 1.932520 1_555
O2 Ta1 1.946332 1_555
O3 Ta4 1.957926 1_555
O3 Ta5 1.960816 1_555
O3 Tl0 2.785449 1_655
O4 Ta5 1.932254 1_555
O4 Ta3 1.943401 1_555
O5 Ta4 1.932520 1_555
O5 Ta3 1.946332 1_555
O6 Ta1 2.105663 1_555
O6 Ta2 2.121363 1_565
O6 Ta3 2.136769 1_556
O7 Ta2 2.086705 1_655
O7 Ta0 2.090500 1_555
O7 Ta4 2.132755 1_556
O8 Ta1 2.108922 1_655
O8 Ta0 2.128697 1_565
O8 Ta5 2.132030 1_556
O9 Ta5 2.086705 1_545
O9 Ta4 2.090500 1_555
O9 Ta0 2.132755 1_554
O10 Ta3 2.105663 1_555
O10 Ta5 2.121363 1_455
O10 Ta1 2.136769 1_554
O11 Ta3 2.108922 1_545
O11 Ta4 2.128697 1_455
O11 Ta2 2.132030 1_554
O12 Ta0 1.858384 1_555
O12 Ti0 1.967152 1_555
O13 Ta1 1.857518 1_555
O13 Ti0 1.972699 1_465
O14 Ta2 1.861328 1_555
O14 Ti0 1.975900 1_455
O15 Ta3 1.857518 1_555
O15 Ti0 1.972699 1_465
O16 Ta4 1.858384 1_555
O16 Ti0 1.967152 1_555
O17 Ta5 1.861328 1_555
O17 Ti0 1.975900 1_565
