# generated using pymatgen
data_BaYMn2O6
_symmetry_space_group_name_H-M   'P 1'
_cell_length_a   5.59742300
_cell_length_b   5.55187100
_cell_length_c   7.83995328
_cell_angle_alpha   89.06392683
_cell_angle_beta   90.00000000
_cell_angle_gamma   90.00000000
_symmetry_Int_Tables_number   1
_chemical_formula_structural   BaYMn2O6
_chemical_formula_sum   'Ba2 Y2 Mn4 O12'
_cell_volume   243.60320990
_cell_formula_units_Z   2
loop_
 _symmetry_equiv_pos_site_id
 _symmetry_equiv_pos_as_xyz
  1  'x, y, z'
loop_
 _atom_site_type_symbol
 _atom_site_label
 _atom_site_symmetry_multiplicity
 _atom_site_fract_x
 _atom_site_fract_y
 _atom_site_fract_z
 _atom_site_occupancy
  Ba  Ba0  1  0.24372300  0.75000000  0.50000000  1
  Ba  Ba1  1  0.75627700  0.25000000  0.50000000  1
  Y  Y0  1  0.23771400  0.75000000  0.00000000  1
  Y  Y1  1  0.76228600  0.25000000  0.00000000  1
  Mn  Mn0  1  0.25026700  0.24987200  0.75783900  1
  Mn  Mn1  1  0.25026700  0.25012800  0.24216100  1
  Mn  Mn2  1  0.74973300  0.74987200  0.75783900  1
  Mn  Mn3  1  0.74973300  0.75012800  0.24216100  1
  O  O0  1  0.17930000  0.25000000  0.00000000  1
  O  O1  1  0.82070000  0.75000000  0.00000000  1
  O  O2  1  0.47493500  0.52734600  0.80412600  1
  O  O3  1  0.47493500  0.97265400  0.19587400  1
  O  O4  1  0.52506500  0.02734600  0.80412600  1
  O  O5  1  0.52506500  0.47265400  0.19587400  1
  O  O6  1  0.97170100  0.47262700  0.75610800  1
  O  O7  1  0.97170100  0.02737300  0.24389200  1
  O  O8  1  0.02829900  0.97262700  0.75610800  1
  O  O9  1  0.02829900  0.52737300  0.24389200  1
  O  O10  1  0.28096900  0.25000000  0.50000000  1
  O  O11  1  0.71903100  0.75000000  0.50000000  1
loop_
_geom_bond_atom_site_label_1
_geom_bond_atom_site_label_2
_geom_bond_distance
_geom_bond_site_symmetry_2
Ba0 O11 2.660500 1_555
Ba0 O8 2.663519 1_555
Ba0 O9 2.663519 1_555
Ba0 O10 2.783753 1_565
Ba0 O10 2.783753 1_555
Ba0 O7 2.936039 1_465
Ba0 O6 2.936039 1_455
Ba0 O11 2.936923 1_455
Ba0 O2 2.965086 1_555
Ba0 O3 2.965086 1_555
Ba1 O10 2.660500 1_555
Ba1 O7 2.663519 1_555
Ba1 O6 2.663519 1_555
Ba1 O11 2.783753 1_555
Ba1 O11 2.783753 1_545
Ba1 O9 2.936039 1_655
Ba1 O8 2.936039 1_645
Ba1 O10 2.936923 1_655
Ba1 O5 2.965086 1_555
Ba1 O4 2.965086 1_555
Mn0 O0 1.939654 1_556
Mn0 O8 1.978325 1_545
Mn0 O6 1.990062 1_455
Mn0 O4 2.002318 1_555
Mn0 O2 2.025970 1_555
Mn0 O10 2.028726 1_555
Mn1 O0 1.939654 1_555
Mn1 O9 1.978325 1_555
Mn1 O7 1.990062 1_455
Mn1 O5 2.002318 1_555
Mn1 O3 2.025970 1_545
Mn1 O10 2.028726 1_555
Mn2 O1 1.939654 1_556
Mn2 O6 1.978325 1_555
Mn2 O8 1.990062 1_655
Mn2 O2 2.002318 1_555
Mn2 O4 2.025970 1_565
Mn2 O11 2.028726 1_555
Mn3 O1 1.939654 1_555
Mn3 O7 1.978325 1_565
Mn3 O9 1.990062 1_655
Mn3 O3 2.002318 1_555
Mn3 O5 2.025970 1_555
Mn3 O11 2.028726 1_555
O0 Y1 2.334204 1_455
O0 Y0 2.795125 1_555
O0 Y0 2.795125 1_545
O1 Y0 2.334204 1_655
O1 Y1 2.795125 1_555
O1 Y1 2.795125 1_565
O2 Y0 2.389854 1_556
O2 Y1 2.690525 1_556
O3 Y0 2.389854 1_555
O3 Y1 2.690525 1_565
O4 Y1 2.389854 1_556
O4 Y0 2.690525 1_546
O5 Y1 2.389854 1_555
O5 Y0 2.690525 1_555
O6 Y1 2.545706 1_556
O6 Y0 2.888051 1_656
O7 Y1 2.545706 1_555
O7 Y0 2.888051 1_645
O8 Y0 2.545706 1_556
O8 Y1 2.888051 1_466
O9 Y0 2.545706 1_555
O9 Y1 2.888051 1_455
