# generated using pymatgen
data_Li3Fe2(GeO4)3
_symmetry_space_group_name_H-M   'P 1'
_cell_length_a   10.50585636
_cell_length_b   10.50585636
_cell_length_c   10.50585636
_cell_angle_alpha   109.47122063
_cell_angle_beta   109.47122063
_cell_angle_gamma   109.47122063
_symmetry_Int_Tables_number   1
_chemical_formula_structural   Li3Fe2(GeO4)3
_chemical_formula_sum   'Li12 Fe8 Ge12 O48'
_cell_volume   892.63206982
_cell_formula_units_Z   4
loop_
 _symmetry_equiv_pos_site_id
 _symmetry_equiv_pos_as_xyz
  1  'x, y, z'
loop_
 _atom_site_type_symbol
 _atom_site_label
 _atom_site_symmetry_multiplicity
 _atom_site_fract_x
 _atom_site_fract_y
 _atom_site_fract_z
 _atom_site_occupancy
  Li  Li0  1  0.75000000  0.62500000  0.87500000  1
  Li  Li1  1  0.25000000  0.87500000  0.62500000  1
  Li  Li2  1  0.62500000  0.25000000  0.87500000  1
  Li  Li3  1  0.87500000  0.75000000  0.62500000  1
  Li  Li4  1  0.87500000  0.62500000  0.25000000  1
  Li  Li5  1  0.62500000  0.87500000  0.75000000  1
  Li  Li6  1  0.25000000  0.37500000  0.12500000  1
  Li  Li7  1  0.75000000  0.12500000  0.37500000  1
  Li  Li8  1  0.37500000  0.75000000  0.12500000  1
  Li  Li9  1  0.12500000  0.25000000  0.37500000  1
  Li  Li10  1  0.12500000  0.37500000  0.75000000  1
  Li  Li11  1  0.37500000  0.12500000  0.25000000  1
  Fe  Fe0  1  0.50000000  0.00000000  0.50000000  1
  Fe  Fe1  1  0.00000000  0.50000000  0.00000000  1
  Fe  Fe2  1  0.50000000  0.50000000  0.50000000  1
  Fe  Fe3  1  0.00000000  0.00000000  0.50000000  1
  Fe  Fe4  1  0.00000000  0.00000000  0.00000000  1
  Fe  Fe5  1  0.00000000  0.50000000  0.50000000  1
  Fe  Fe6  1  0.50000000  0.50000000  0.00000000  1
  Fe  Fe7  1  0.50000000  0.00000000  0.00000000  1
  Ge  Ge0  1  0.37500000  0.62500000  0.75000000  1
  Ge  Ge1  1  0.62500000  0.37500000  0.25000000  1
  Ge  Ge2  1  0.62500000  0.75000000  0.37500000  1
  Ge  Ge3  1  0.25000000  0.12500000  0.87500000  1
  Ge  Ge4  1  0.87500000  0.25000000  0.12500000  1
  Ge  Ge5  1  0.75000000  0.37500000  0.62500000  1
  Ge  Ge6  1  0.25000000  0.62500000  0.37500000  1
  Ge  Ge7  1  0.75000000  0.87500000  0.12500000  1
  Ge  Ge8  1  0.12500000  0.75000000  0.87500000  1
  Ge  Ge9  1  0.37500000  0.25000000  0.62500000  1
  Ge  Ge10  1  0.87500000  0.12500000  0.75000000  1
  Ge  Ge11  1  0.12500000  0.87500000  0.25000000  1
  O  O0  1  0.52035100  0.39969900  0.81953400  1
  O  O1  1  0.81953400  0.52035100  0.39969900  1
  O  O2  1  0.79918300  0.87934800  0.97964900  1
  O  O3  1  0.41983500  0.10030100  0.62065200  1
  O  O4  1  0.87934800  0.39969900  0.08016500  1
  O  O5  1  0.68046600  0.08016500  0.70081700  1
  O  O6  1  0.81953400  0.79918300  0.41983500  1
  O  O7  1  0.39969900  0.81953400  0.52035100  1
  O  O8  1  0.62065200  0.70081700  0.52035100  1
  O  O9  1  0.41983500  0.81953400  0.79918300  1
  O  O10  1  0.39969900  0.08016500  0.87934800  1
  O  O11  1  0.10030100  0.97964900  0.68046600  1
  O  O12  1  0.97964900  0.68046600  0.10030100  1
  O  O13  1  0.79918300  0.41983500  0.81953400  1
  O  O14  1  0.52035100  0.62065200  0.70081700  1
  O  O15  1  0.70081700  0.52035100  0.62065200  1
  O  O16  1  0.08016500  0.87934800  0.39969900  1
  O  O17  1  0.97964900  0.79918300  0.87934800  1
  O  O18  1  0.08016500  0.70081700  0.68046600  1
  O  O19  1  0.37934800  0.29918300  0.47964900  1
  O  O20  1  0.62065200  0.41983500  0.10030100  1
  O  O21  1  0.10030100  0.62065200  0.41983500  1
  O  O22  1  0.70081700  0.68046600  0.08016500  1
  O  O23  1  0.68046600  0.10030100  0.97964900  1
  O  O24  1  0.47964900  0.60030100  0.18046600  1
  O  O25  1  0.18046600  0.47964900  0.60030100  1
  O  O26  1  0.20081700  0.12065200  0.02035100  1
  O  O27  1  0.58016500  0.89969900  0.37934800  1
  O  O28  1  0.12065200  0.60030100  0.91983500  1
  O  O29  1  0.31953400  0.91983500  0.29918300  1
  O  O30  1  0.18046600  0.20081700  0.58016500  1
  O  O31  1  0.60030100  0.18046600  0.47964900  1
  O  O32  1  0.31953400  0.89969900  0.02035100  1
  O  O33  1  0.29918300  0.31953400  0.91983500  1
  O  O34  1  0.89969900  0.37934800  0.58016500  1
  O  O35  1  0.12065200  0.02035100  0.20081700  1
  O  O36  1  0.37934800  0.58016500  0.89969900  1
  O  O37  1  0.91983500  0.29918300  0.31953400  1
  O  O38  1  0.02035100  0.20081700  0.12065200  1
  O  O39  1  0.91983500  0.12065200  0.60030100  1
  O  O40  1  0.29918300  0.47964900  0.37934800  1
  O  O41  1  0.47964900  0.37934800  0.29918300  1
  O  O42  1  0.20081700  0.58016500  0.18046600  1
  O  O43  1  0.02035100  0.31953400  0.89969900  1
  O  O44  1  0.89969900  0.02035100  0.31953400  1
  O  O45  1  0.60030100  0.91983500  0.12065200  1
  O  O46  1  0.58016500  0.18046600  0.20081700  1
  O  O47  1  0.87934800  0.97964900  0.79918300  1
loop_
_geom_bond_atom_site_label_1
_geom_bond_atom_site_label_2
_geom_bond_distance
_geom_bond_site_symmetry_2
Li0 O2 2.314805 1_555
Li0 O22 2.314805 1_556
Li0 O15 2.314805 1_555
Li0 O13 2.314805 1_555
Li0 O14 2.469645 1_555
Li0 O12 2.469645 1_556
Li0 O0 2.469645 1_555
Li0 O17 2.469645 1_555
Li1 O7 2.314805 1_555
Li1 O10 2.314805 1_565
Li1 O11 2.314805 1_555
Li1 O21 2.314805 1_555
Li1 O9 2.469645 1_555
Li1 O3 2.469645 1_565
Li1 O18 2.469645 1_555
Li1 O16 2.469645 1_555
Li2 O0 2.314805 1_555
Li2 O4 2.314805 1_556
Li2 O23 2.314805 1_555
Li2 O3 2.314805 1_555
Li2 O13 2.469645 1_555
Li2 O20 2.469645 1_556
Li2 O5 2.469645 1_555
Li2 O10 2.469645 1_555
Li3 O17 2.314805 1_555
Li3 O18 2.314805 1_655
Li3 O8 2.314805 1_555
Li3 O6 2.314805 1_555
Li3 O11 2.469645 1_655
Li3 O15 2.469645 1_555
Li3 O1 2.469645 1_555
Li3 O47 2.469645 1_555
Li4 O1 2.314805 1_555
Li4 O16 2.314805 1_655
Li4 O12 2.314805 1_555
Li4 O20 2.314805 1_555
Li4 O6 2.469645 1_555
Li4 O21 2.469645 1_655
Li4 O22 2.469645 1_555
Li4 O4 2.469645 1_555
Li5 O47 2.314805 1_555
Li5 O5 2.314805 1_565
Li5 O14 2.314805 1_555
Li5 O9 2.314805 1_555
Li5 O23 2.469645 1_565
Li5 O8 2.469645 1_555
Li5 O7 2.469645 1_555
Li5 O2 2.469645 1_555
Li6 O40 2.314805 1_555
Li6 O42 2.314805 1_555
Li6 O33 2.314805 1_554
Li6 O26 2.314805 1_555
Li6 O24 2.469645 1_555
Li6 O41 2.469645 1_555
Li6 O38 2.469645 1_555
Li6 O43 2.469645 1_554
Li7 O34 2.314805 1_555
Li7 O44 2.314805 1_555
Li7 O31 2.314805 1_555
Li7 O45 2.314805 1_545
Li7 O39 2.469645 1_555
Li7 O37 2.469645 1_555
Li7 O27 2.469645 1_545
Li7 O46 2.469645 1_555
Li8 O27 2.314805 1_555
Li8 O32 2.314805 1_555
Li8 O28 2.314805 1_554
Li8 O24 2.314805 1_555
Li8 O29 2.469645 1_555
Li8 O45 2.469645 1_555
Li8 O42 2.469645 1_555
Li8 O36 2.469645 1_554
Li9 O19 2.314805 1_555
Li9 O30 2.314805 1_555
Li9 O38 2.314805 1_555
Li9 O37 2.314805 1_455
Li9 O25 2.469645 1_555
Li9 O40 2.469645 1_555
Li9 O35 2.469645 1_555
Li9 O44 2.469645 1_455
Li10 O36 2.314805 1_555
Li10 O43 2.314805 1_555
Li10 O25 2.314805 1_555
Li10 O39 2.314805 1_455
Li10 O33 2.469645 1_555
Li10 O28 2.469645 1_555
Li10 O34 2.469645 1_455
Li10 O30 2.469645 1_555
Li11 O41 2.314805 1_555
Li11 O46 2.314805 1_555
Li11 O35 2.314805 1_555
Li11 O29 2.314805 1_545
Li11 O31 2.469645 1_555
Li11 O19 2.469645 1_555
Li11 O26 2.469645 1_555
Li11 O32 2.469645 1_545
Fe0 O31 1.959403 1_555
Fe0 O29 1.959403 1_545
Fe0 O5 1.959403 1_555
Fe0 O27 1.959403 1_545
Fe0 O7 1.959403 1_545
Fe0 O3 1.959403 1_555
Fe1 O43 1.959403 1_554
Fe1 O13 1.959403 1_454
Fe1 O12 1.959403 1_455
Fe1 O28 1.959403 1_554
Fe1 O42 1.959403 1_555
Fe1 O4 1.959403 1_455
Fe2 O14 1.959403 1_555
Fe2 O15 1.959403 1_555
Fe2 O8 1.959403 1_555
Fe2 O41 1.959403 1_555
Fe2 O40 1.959403 1_555
Fe2 O19 1.959403 1_555
Fe3 O44 1.959403 1_455
Fe3 O6 1.959403 1_445
Fe3 O11 1.959403 1_545
Fe3 O39 1.959403 1_455
Fe3 O30 1.959403 1_555
Fe3 O16 1.959403 1_545
Fe4 O17 1.959403 1_444
Fe4 O47 1.959403 1_444
Fe4 O2 1.959403 1_444
Fe4 O38 1.959403 1_555
Fe4 O26 1.959403 1_555
Fe4 O35 1.959403 1_555
Fe5 O25 1.959403 1_555
Fe5 O18 1.959403 1_555
Fe5 O37 1.959403 1_455
Fe5 O1 1.959403 1_455
Fe5 O34 1.959403 1_455
Fe5 O21 1.959403 1_555
Fe6 O24 1.959403 1_555
Fe6 O22 1.959403 1_555
Fe6 O33 1.959403 1_554
Fe6 O0 1.959403 1_554
Fe6 O36 1.959403 1_554
Fe6 O20 1.959403 1_555
Fe7 O32 1.959403 1_545
Fe7 O9 1.959403 1_544
Fe7 O45 1.959403 1_545
Fe7 O23 1.959403 1_554
Fe7 O46 1.959403 1_555
Fe7 O10 1.959403 1_554
Ge0 O36 1.776994 1_555
Ge0 O14 1.776994 1_555
Ge0 O25 1.776994 1_555
Ge0 O9 1.776994 1_555
Ge1 O20 1.776994 1_555
Ge1 O41 1.776994 1_555
Ge1 O1 1.776994 1_555
Ge1 O46 1.776994 1_555
Ge2 O27 1.776994 1_555
Ge2 O8 1.776994 1_555
Ge2 O24 1.776994 1_555
Ge2 O6 1.776994 1_555
Ge3 O26 1.776994 1_556
Ge3 O10 1.776994 1_555
Ge3 O11 1.776994 1_545
Ge3 O33 1.776994 1_555
Ge4 O38 1.776994 1_655
Ge4 O4 1.776994 1_555
Ge4 O37 1.776994 1_555
Ge4 O23 1.776994 1_554
Ge5 O34 1.776994 1_555
Ge5 O15 1.776994 1_555
Ge5 O31 1.776994 1_555
Ge5 O13 1.776994 1_555
Ge6 O21 1.776994 1_555
Ge6 O40 1.776994 1_555
Ge6 O7 1.776994 1_555
Ge6 O42 1.776994 1_555
Ge7 O44 1.776994 1_565
Ge7 O2 1.776994 1_554
Ge7 O22 1.776994 1_555
Ge7 O45 1.776994 1_555
Ge8 O32 1.776994 1_556
Ge8 O17 1.776994 1_455
Ge8 O18 1.776994 1_555
Ge8 O28 1.776994 1_555
Ge9 O3 1.776994 1_555
Ge9 O19 1.776994 1_555
Ge9 O30 1.776994 1_555
Ge9 O0 1.776994 1_555
Ge10 O43 1.776994 1_655
Ge10 O47 1.776994 1_545
Ge10 O5 1.776994 1_555
Ge10 O39 1.776994 1_555
Ge11 O35 1.776994 1_565
Ge11 O16 1.776994 1_555
Ge11 O12 1.776994 1_455
Ge11 O29 1.776994 1_555
