# generated using pymatgen
data_K2ErSbO7
_symmetry_space_group_name_H-M   'P 1'
_cell_length_a   8.12515916
_cell_length_b   8.12515916
_cell_length_c   8.12515916
_cell_angle_alpha   120.83750195
_cell_angle_beta   118.05789611
_cell_angle_gamma   90.97588058
_symmetry_Int_Tables_number   1
_chemical_formula_structural   K2ErSbO7
_chemical_formula_sum   'K4 Er2 Sb2 O14'
_cell_volume   382.12893066
_cell_formula_units_Z   2
loop_
 _symmetry_equiv_pos_site_id
 _symmetry_equiv_pos_as_xyz
  1  'x, y, z'
loop_
 _atom_site_type_symbol
 _atom_site_label
 _atom_site_symmetry_multiplicity
 _atom_site_fract_x
 _atom_site_fract_y
 _atom_site_fract_z
 _atom_site_occupancy
  K  K0  1  0.50000000  0.50000000  0.00000000  1
  K  K1  1  0.00000000  0.00000000  0.00000000  1
  K  K2  1  0.00000000  0.50000000  0.00000000  1
  K  K3  1  0.00000000  0.00000000  0.50000000  1
  Er  Er0  1  0.50000000  0.50000000  0.50000000  1
  Er  Er1  1  0.50000000  0.00000000  0.00000000  1
  Sb  Sb0  1  0.00000000  0.50000000  0.50000000  1
  Sb  Sb1  1  0.50000000  0.00000000  0.50000000  1
  O  O0  1  0.87928200  0.58485000  0.29443200  1
  O  O1  1  0.20958200  0.91515000  0.29443200  1
  O  O2  1  0.18225200  0.78933400  0.74757800  1
  O  O3  1  0.45824400  0.71066600  0.39291800  1
  O  O4  1  0.45824400  0.06532600  0.74757800  1
  O  O5  1  0.18225200  0.43467400  0.39291800  1
  O  O6  1  0.81774800  0.56532600  0.60708200  1
  O  O7  1  0.54175600  0.93467400  0.25242200  1
  O  O8  1  0.54175600  0.28933400  0.60708200  1
  O  O9  1  0.81774800  0.21066600  0.25242200  1
  O  O10  1  0.38985400  0.25000000  0.13985400  1
  O  O11  1  0.12071800  0.41515000  0.70556800  1
  O  O12  1  0.79041800  0.08485000  0.70556800  1
  O  O13  1  0.61014600  0.75000000  0.86014600  1
loop_
_geom_bond_atom_site_label_1
_geom_bond_atom_site_label_2
_geom_bond_distance
_geom_bond_site_symmetry_2
K0 O0 2.645140 1_555
K0 O11 2.645140 1_554
K0 O4 2.945086 1_554
K0 O8 2.945086 1_554
K0 O3 2.945086 1_555
K0 O7 2.945086 1_555
K0 O10 3.078884 1_555
K0 O13 3.078884 1_554
K1 O1 2.645140 1_545
K1 O12 2.645140 1_454
K1 O6 2.945086 1_444
K1 O5 2.945086 1_555
K1 O2 2.945086 1_544
K1 O9 2.945086 1_455
K1 O13 3.078884 1_444
K1 O10 3.078884 1_555
K2 O0 2.774901 1_455
K2 O11 2.774901 1_554
K2 O12 2.774901 1_454
K2 O1 2.774901 1_555
K2 O5 3.159660 1_555
K2 O8 3.159660 1_454
K2 O3 3.159660 1_555
K2 O6 3.159660 1_454
K3 O0 2.774901 1_445
K3 O11 2.774901 1_555
K3 O12 2.774901 1_455
K3 O1 2.774901 1_545
K3 O7 3.159660 1_445
K3 O2 3.159660 1_545
K3 O4 3.159660 1_555
K3 O9 3.159660 1_455
Er0 O10 2.206929 1_555
Er0 O13 2.206929 1_555
Er0 O6 2.251869 1_555
Er0 O8 2.251869 1_555
Er0 O5 2.251869 1_555
Er0 O3 2.251869 1_555
Er1 O13 2.206929 1_544
Er1 O10 2.206929 1_555
Er1 O9 2.251869 1_555
Er1 O7 2.251869 1_545
Er1 O4 2.251869 1_554
Er1 O2 2.251869 1_544
O0 Sb0 1.972202 1_655
O1 Sb1 1.972202 1_565
O2 Sb0 1.999234 1_555
O3 Sb1 1.999234 1_565
O4 Sb1 1.999234 1_555
O5 Sb0 1.999234 1_555
O6 Sb0 1.999234 1_655
O7 Sb1 1.999234 1_565
O8 Sb1 1.999234 1_555
O9 Sb0 1.999234 1_655
O11 Sb0 1.972202 1_555
O12 Sb1 1.972202 1_555
