# generated using pymatgen
data_Li9Mn7O16
_symmetry_space_group_name_H-M   'P 1'
_cell_length_a   3.00672100
_cell_length_b   9.94353724
_cell_length_c   10.18606331
_cell_angle_alpha   77.82708968
_cell_angle_beta   86.49285587
_cell_angle_gamma   86.13114995
_symmetry_Int_Tables_number   1
_chemical_formula_structural   Li9Mn7O16
_chemical_formula_sum   'Li9 Mn7 O16'
_cell_volume   296.66724564
_cell_formula_units_Z   1
loop_
 _symmetry_equiv_pos_site_id
 _symmetry_equiv_pos_as_xyz
  1  'x, y, z'
loop_
 _atom_site_type_symbol
 _atom_site_label
 _atom_site_symmetry_multiplicity
 _atom_site_fract_x
 _atom_site_fract_y
 _atom_site_fract_z
 _atom_site_occupancy
  Li  Li0  1  0.00646400  0.25486100  0.87500400  1
  Li  Li1  1  0.50332000  0.75224600  0.87543200  1
  Li  Li2  1  0.49668000  0.24775400  0.12456800  1
  Li  Li3  1  0.99353600  0.74513900  0.12499600  1
  Li  Li4  1  0.01068500  0.24169600  0.38774100  1
  Li  Li5  1  0.51214700  0.75827500  0.38024100  1
  Li  Li6  1  0.48785300  0.24172500  0.61975900  1
  Li  Li7  1  0.98931500  0.75830400  0.61225900  1
  Li  Li8  1  0.50000000  0.00000000  0.50000000  1
  Mn  Mn0  1  0.99669100  0.00163400  0.74093900  1
  Mn  Mn1  1  0.00330900  0.99836600  0.25906100  1
  Mn  Mn2  1  0.49919200  0.50186100  0.74958600  1
  Mn  Mn3  1  0.50000000  0.00000000  0.00000000  1
  Mn  Mn4  1  0.00000000  0.50000000  0.00000000  1
  Mn  Mn5  1  0.50080800  0.49813900  0.25041400  1
  Mn  Mn6  1  0.00000000  0.50000000  0.50000000  1
  O  O0  1  0.46743500  0.10577000  0.80997000  1
  O  O1  1  0.03595300  0.61810200  0.82022900  1
  O  O2  1  0.02905000  0.11362900  0.06617000  1
  O  O3  1  0.53297000  0.61855500  0.06960400  1
  O  O4  1  0.47330500  0.10752200  0.30267900  1
  O  O5  1  0.03445200  0.61500400  0.31824100  1
  O  O6  1  0.00668800  0.11815900  0.57734500  1
  O  O7  1  0.53420100  0.61933400  0.56877000  1
  O  O8  1  0.46703000  0.38144500  0.93039600  1
  O  O9  1  0.97095000  0.88637100  0.93383000  1
  O  O10  1  0.96404700  0.38189800  0.17977100  1
  O  O11  1  0.53256500  0.89423000  0.19003000  1
  O  O12  1  0.46579900  0.38066600  0.43123000  1
  O  O13  1  0.99331200  0.88184100  0.42265500  1
  O  O14  1  0.96554800  0.38499600  0.68175900  1
  O  O15  1  0.52669500  0.89247800  0.69732100  1
loop_
_geom_bond_atom_site_label_1
_geom_bond_atom_site_label_2
_geom_bond_distance
_geom_bond_site_symmetry_2
Li0 O8 2.108401 1_455
Li0 O8 2.109650 1_555
Li0 O14 2.120886 1_455
Li0 O0 2.140604 1_555
Li0 O2 2.149085 1_556
Li0 O0 2.476501 1_455
Li1 O15 2.042436 1_555
Li1 O1 2.139622 1_655
Li1 O3 2.140977 1_556
Li1 O9 2.150519 1_455
Li1 O1 2.176238 1_555
Li1 O9 2.190755 1_555
Li2 O4 2.042436 1_555
Li2 O10 2.139622 1_455
Li2 O8 2.140977 1_554
Li2 O2 2.150519 1_655
Li2 O10 2.176238 1_555
Li2 O2 2.190755 1_555
Li3 O3 2.108401 1_655
Li3 O3 2.109650 1_555
Li3 O5 2.120886 1_655
Li3 O11 2.140604 1_555
Li3 O9 2.149085 1_554
Li3 O11 2.476501 1_655
Li4 O6 2.058575 1_555
Li4 O4 2.134279 1_555
Li4 O12 2.136764 1_555
Li4 O12 2.157243 1_455
Li4 O10 2.283700 1_455
Li4 O4 2.468008 1_455
Li5 O13 2.003158 1_455
Li5 O13 2.080757 1_555
Li5 O11 2.115959 1_555
Li5 O7 2.117844 1_555
Li5 O5 2.202452 1_655
Li5 O5 2.293001 1_555
Li6 O6 2.003158 1_655
Li6 O6 2.080757 1_555
Li6 O0 2.115959 1_555
Li6 O12 2.117844 1_555
Li6 O14 2.202452 1_455
Li6 O14 2.293001 1_555
Li7 O13 2.058575 1_555
Li7 O15 2.134279 1_555
Li7 O7 2.136764 1_555
Li7 O7 2.157243 1_655
Li7 O1 2.283700 1_655
Li7 O15 2.468008 1_655
Li8 O6 2.052655 1_555
Li8 O13 2.052655 1_545
Li8 O15 2.071527 1_545
Li8 O4 2.071527 1_555
Li8 O6 2.258506 1_655
Li8 O13 2.258506 1_445
Mn0 O6 1.817842 1_655
Mn0 O15 1.948923 1_645
Mn0 O15 1.964596 1_545
Mn0 O0 2.011656 1_555
Mn0 O0 2.048558 1_655
Mn0 O9 2.055166 1_545
Mn1 O13 1.817842 1_455
Mn1 O4 1.948923 1_465
Mn1 O4 1.964596 1_565
Mn1 O11 2.011656 1_555
Mn1 O11 2.048558 1_455
Mn1 O2 2.055166 1_565
Mn2 O14 1.947829 1_555
Mn2 O1 1.950547 1_555
Mn2 O7 1.962993 1_555
Mn2 O8 1.974556 1_555
Mn2 O14 2.264507 1_455
Mn2 O1 2.281004 1_655
Mn3 O9 1.929896 1_544
Mn3 O2 1.929896 1_555
Mn3 O0 2.003307 1_554
Mn3 O11 2.003307 1_545
Mn3 O9 2.226236 1_444
Mn3 O2 2.226236 1_655
Mn4 O10 1.957027 1_455
Mn4 O1 1.957027 1_554
Mn4 O3 1.967616 1_455
Mn4 O8 1.967616 1_554
Mn4 O3 2.281832 1_555
Mn4 O8 2.281832 1_454
Mn5 O5 1.947829 1_555
Mn5 O10 1.950547 1_555
Mn5 O12 1.962993 1_555
Mn5 O3 1.974556 1_555
Mn5 O5 2.264507 1_655
Mn5 O10 2.281004 1_455
Mn6 O5 1.961071 1_555
Mn6 O14 1.961071 1_455
Mn6 O12 1.966328 1_555
Mn6 O7 1.966328 1_455
Mn6 O12 2.285600 1_455
Mn6 O7 2.285600 1_555
