# generated using pymatgen
data_Na6Zn3P4O19
_symmetry_space_group_name_H-M   'P 1'
_cell_length_a   12.00540036
_cell_length_b   12.00540036
_cell_length_c   12.00540036
_cell_angle_alpha   90.00000000
_cell_angle_beta   90.00000000
_cell_angle_gamma   90.00000000
_symmetry_Int_Tables_number   1
_chemical_formula_structural   Na6Zn3P4O19
_chemical_formula_sum   'Na24 Zn12 P16 O76'
_cell_volume   1730.33400558
_cell_formula_units_Z   4
loop_
 _symmetry_equiv_pos_site_id
 _symmetry_equiv_pos_as_xyz
  1  'x, y, z'
loop_
 _atom_site_type_symbol
 _atom_site_label
 _atom_site_symmetry_multiplicity
 _atom_site_fract_x
 _atom_site_fract_y
 _atom_site_fract_z
 _atom_site_occupancy
  Na  Na0  1  0.00479496  0.24628677  0.17018007  1
  Na  Na1  1  0.49520504  0.75371323  0.67018007  1
  Na  Na2  1  0.99520504  0.74628677  0.32981993  1
  Na  Na3  1  0.17018007  0.00479496  0.24628677  1
  Na  Na4  1  0.50479496  0.25371323  0.82981993  1
  Na  Na5  1  0.67018007  0.49520504  0.75371323  1
  Na  Na6  1  0.32981993  0.99520504  0.74628677  1
  Na  Na7  1  0.82981993  0.50479496  0.25371323  1
  Na  Na8  1  0.24628677  0.17018007  0.00479496  1
  Na  Na9  1  0.74628677  0.32981993  0.99520504  1
  Na  Na10  1  0.25371323  0.82981993  0.50479496  1
  Na  Na11  1  0.75371323  0.67018007  0.49520504  1
  Na  Na12  1  0.24900068  0.42390752  0.49120714  1
  Na  Na13  1  0.25099932  0.57609248  0.99120714  1
  Na  Na14  1  0.75099932  0.92390752  0.00879286  1
  Na  Na15  1  0.49120714  0.24900068  0.42390752  1
  Na  Na16  1  0.74900068  0.07609248  0.50879286  1
  Na  Na17  1  0.99120714  0.25099932  0.57609248  1
  Na  Na18  1  0.00879286  0.75099932  0.92390752  1
  Na  Na19  1  0.50879286  0.74900068  0.07609248  1
  Na  Na20  1  0.42390752  0.49120714  0.24900068  1
  Na  Na21  1  0.92390752  0.00879286  0.75099932  1
  Na  Na22  1  0.07609248  0.50879286  0.74900068  1
  Na  Na23  1  0.57609248  0.99120714  0.25099932  1
  Zn  Zn0  1  0.12606878  0.50417385  0.23836454  1
  Zn  Zn1  1  0.37393122  0.49582615  0.73836454  1
  Zn  Zn2  1  0.87393122  0.00417385  0.26163546  1
  Zn  Zn3  1  0.23836454  0.12606878  0.50417385  1
  Zn  Zn4  1  0.62606878  0.99582615  0.76163546  1
  Zn  Zn5  1  0.73836454  0.37393122  0.49582615  1
  Zn  Zn6  1  0.26163546  0.87393122  0.00417385  1
  Zn  Zn7  1  0.76163546  0.62606878  0.99582615  1
  Zn  Zn8  1  0.50417385  0.23836454  0.12606878  1
  Zn  Zn9  1  0.00417385  0.26163546  0.87393122  1
  Zn  Zn10  1  0.99582615  0.76163546  0.62606878  1
  Zn  Zn11  1  0.49582615  0.73836454  0.37393122  1
  P  P0  1  0.76740520  0.76740520  0.76740520  1
  P  P1  1  0.73259480  0.23259480  0.26740520  1
  P  P2  1  0.23259480  0.26740520  0.73259480  1
  P  P3  1  0.26740520  0.73259480  0.23259480  1
  P  P4  1  0.02900686  0.02900686  0.02900686  1
  P  P5  1  0.47099314  0.97099314  0.52900686  1
  P  P6  1  0.97099314  0.52900686  0.47099314  1
  P  P7  1  0.52900686  0.47099314  0.97099314  1
  P  P8  1  0.28111641  0.28111641  0.28111641  1
  P  P9  1  0.21888359  0.71888359  0.78111641  1
  P  P10  1  0.71888359  0.78111641  0.21888359  1
  P  P11  1  0.78111641  0.21888359  0.71888359  1
  P  P12  1  0.51800806  0.51800806  0.51800806  1
  P  P13  1  0.98199194  0.48199194  0.01800806  1
  P  P14  1  0.48199194  0.01800806  0.98199194  1
  P  P15  1  0.01800806  0.98199194  0.48199194  1
  O  O0  1  0.95549384  0.95549384  0.95549384  1
  O  O1  1  0.54450616  0.04450616  0.45549384  1
  O  O2  1  0.04450616  0.45549384  0.54450616  1
  O  O3  1  0.45549384  0.54450616  0.04450616  1
  O  O4  1  0.23970913  0.40420016  0.29126945  1
  O  O5  1  0.26029087  0.59579984  0.79126945  1
  O  O6  1  0.76029087  0.90420016  0.20873055  1
  O  O7  1  0.29126945  0.23970913  0.40420016  1
  O  O8  1  0.73970913  0.09579984  0.70873055  1
  O  O9  1  0.79126945  0.26029087  0.59579984  1
  O  O10  1  0.20873055  0.76029087  0.90420016  1
  O  O11  1  0.70873055  0.73970913  0.09579984  1
  O  O12  1  0.40420016  0.29126945  0.23970913  1
  O  O13  1  0.90420016  0.20873055  0.76029087  1
  O  O14  1  0.09579984  0.70873055  0.73970913  1
  O  O15  1  0.59579984  0.79126945  0.26029087  1
  O  O16  1  0.17450838  0.20028902  0.63659352  1
  O  O17  1  0.32549162  0.79971098  0.13659352  1
  O  O18  1  0.82549162  0.70028902  0.86340648  1
  O  O19  1  0.63659352  0.17450838  0.20028902  1
  O  O20  1  0.67450838  0.29971098  0.36340648  1
  O  O21  1  0.13659352  0.32549162  0.79971098  1
  O  O22  1  0.86340648  0.82549162  0.70028902  1
  O  O23  1  0.36340648  0.67450838  0.29971098  1
  O  O24  1  0.20028902  0.63659352  0.17450838  1
  O  O25  1  0.70028902  0.86340648  0.82549162  1
  O  O26  1  0.29971098  0.36340648  0.67450838  1
  O  O27  1  0.79971098  0.13659352  0.32549162  1
  O  O28  1  0.04782287  0.42771701  0.11704309  1
  O  O29  1  0.45217713  0.57228299  0.61704309  1
  O  O30  1  0.95217713  0.92771701  0.38295691  1
  O  O31  1  0.11704309  0.04782287  0.42771701  1
  O  O32  1  0.54782287  0.07228299  0.88295691  1
  O  O33  1  0.61704309  0.45217713  0.57228299  1
  O  O34  1  0.38295691  0.95217713  0.92771701  1
  O  O35  1  0.88295691  0.54782287  0.07228299  1
  O  O36  1  0.42771701  0.11704309  0.04782287  1
  O  O37  1  0.92771701  0.38295691  0.95217713  1
  O  O38  1  0.07228299  0.88295691  0.54782287  1
  O  O39  1  0.57228299  0.61704309  0.45217713  1
  O  O40  1  0.02092259  0.55127876  0.35250480  1
  O  O41  1  0.47907741  0.44872124  0.85250480  1
  O  O42  1  0.97907741  0.05127876  0.14749520  1
  O  O43  1  0.35250480  0.02092259  0.55127876  1
  O  O44  1  0.52092259  0.94872124  0.64749520  1
  O  O45  1  0.85250480  0.47907741  0.44872124  1
  O  O46  1  0.14749520  0.97907741  0.05127876  1
  O  O47  1  0.64749520  0.52092259  0.94872124  1
  O  O48  1  0.55127876  0.35250480  0.02092259  1
  O  O49  1  0.05127876  0.14749520  0.97907741  1
  O  O50  1  0.94872124  0.64749520  0.52092259  1
  O  O51  1  0.44872124  0.85250480  0.47907741  1
  O  O52  1  0.99857596  0.24048990  0.37297242  1
  O  O53  1  0.50142404  0.75951010  0.87297242  1
  O  O54  1  0.00142404  0.74048990  0.12702758  1
  O  O55  1  0.37297242  0.99857596  0.24048990  1
  O  O56  1  0.49857596  0.25951010  0.62702758  1
  O  O57  1  0.87297242  0.50142404  0.75951010  1
  O  O58  1  0.12702758  0.00142404  0.74048990  1
  O  O59  1  0.62702758  0.49857596  0.25951010  1
  O  O60  1  0.24048990  0.37297242  0.99857596  1
  O  O61  1  0.74048990  0.12702758  0.00142404  1
  O  O62  1  0.25951010  0.62702758  0.49857596  1
  O  O63  1  0.75951010  0.87297242  0.50142404  1
  O  O64  1  0.44542970  0.44542970  0.44542970  1
  O  O65  1  0.05457030  0.55457030  0.94542970  1
  O  O66  1  0.55457030  0.94542970  0.05457030  1
  O  O67  1  0.94542970  0.05457030  0.55457030  1
  O  O68  1  0.20780000  0.20780000  0.20780000  1
  O  O69  1  0.29220000  0.79220000  0.70780000  1
  O  O70  1  0.79220000  0.70780000  0.29220000  1
  O  O71  1  0.70780000  0.29220000  0.79220000  1
  O  O72  1  0.69414834  0.69414834  0.69414834  1
  O  O73  1  0.80585166  0.30585166  0.19414834  1
  O  O74  1  0.30585166  0.19414834  0.80585166  1
  O  O75  1  0.19414834  0.80585166  0.30585166  1
loop_
_geom_bond_atom_site_label_1
_geom_bond_atom_site_label_2
_geom_bond_distance
_geom_bond_site_symmetry_2
Na0 O28 2.327682 1_555
Na0 O42 2.377073 1_455
Na0 O52 2.436742 1_455
Na0 O73 2.509700 1_455
Na0 O68 2.521350 1_555
Na0 O49 2.642300 1_554
Na1 O29 2.327682 1_555
Na1 O44 2.377073 1_555
Na1 O53 2.436742 1_555
Na1 O72 2.509700 1_555
Na1 O69 2.521350 1_555
Na1 O51 2.642300 1_555
Na2 O30 2.327682 1_555
Na2 O40 2.377073 1_655
Na2 O54 2.436742 1_655
Na2 O75 2.509700 1_655
Na2 O70 2.521350 1_555
Na2 O50 2.642300 1_555
Na3 O31 2.327682 1_555
Na3 O46 2.377073 1_545
Na3 O55 2.436742 1_545
Na3 O75 2.509700 1_545
Na3 O68 2.521350 1_555
Na3 O42 2.642300 1_455
Na4 O32 2.327682 1_555
Na4 O41 2.377073 1_555
Na4 O56 2.436742 1_555
Na4 O74 2.509700 1_555
Na4 O71 2.521350 1_555
Na4 O48 2.642300 1_556
Na5 O33 2.327682 1_555
Na5 O47 2.377073 1_555
Na5 O57 2.436742 1_555
Na5 O72 2.509700 1_555
Na5 O71 2.521350 1_555
Na5 O41 2.642300 1_555
Na6 O34 2.327682 1_555
Na6 O43 2.377073 1_565
Na6 O58 2.436742 1_565
Na6 O74 2.509700 1_565
Na6 O69 2.521350 1_555
Na6 O44 2.642300 1_555
Na7 O35 2.327682 1_555
Na7 O45 2.377073 1_555
Na7 O59 2.436742 1_555
Na7 O73 2.509700 1_555
Na7 O70 2.521350 1_555
Na7 O40 2.642300 1_655
Na8 O36 2.327682 1_555
Na8 O49 2.377073 1_554
Na8 O60 2.436742 1_554
Na8 O74 2.509700 1_554
Na8 O68 2.521350 1_555
Na8 O46 2.642300 1_545
Na9 O37 2.327682 1_555
Na9 O48 2.377073 1_556
Na9 O61 2.436742 1_556
Na9 O73 2.509700 1_556
Na9 O71 2.521350 1_555
Na9 O47 2.642300 1_555
Na10 O38 2.327682 1_555
Na10 O51 2.377073 1_555
Na10 O62 2.436742 1_555
Na10 O75 2.509700 1_555
Na10 O69 2.521350 1_555
Na10 O43 2.642300 1_565
Na11 O39 2.327682 1_555
Na11 O50 2.377073 1_555
Na11 O63 2.436742 1_555
Na11 O72 2.509700 1_555
Na11 O70 2.521350 1_555
Na11 O45 2.642300 1_555
Na12 O26 2.396010 1_555
Na12 O4 2.414542 1_555
Na12 O64 2.435148 1_555
Na12 O62 2.443401 1_555
Na12 O7 2.497756 1_555
Na12 O2 2.565239 1_555
Na13 O24 2.396010 1_556
Na13 O5 2.414542 1_555
Na13 O65 2.435148 1_555
Na13 O60 2.443401 1_555
Na13 O10 2.497756 1_555
Na13 O3 2.565239 1_556
Na14 O25 2.396010 1_554
Na14 O6 2.414542 1_555
Na14 O66 2.435148 1_555
Na14 O61 2.443401 1_565
Na14 O11 2.497756 1_555
Na14 O0 2.565239 1_554
Na15 O20 2.396010 1_555
Na15 O7 2.414542 1_555
Na15 O64 2.435148 1_555
Na15 O56 2.443401 1_555
Na15 O12 2.497756 1_555
Na15 O1 2.565239 1_555
Na16 O27 2.396010 1_555
Na16 O8 2.414542 1_555
Na16 O67 2.435148 1_555
Na16 O63 2.443401 1_545
Na16 O9 2.497756 1_555
Na16 O1 2.565239 1_555
Na17 O16 2.396010 1_655
Na17 O9 2.414542 1_555
Na17 O67 2.435148 1_555
Na17 O52 2.443401 1_555
Na17 O13 2.497756 1_555
Na17 O2 2.565239 1_655
Na18 O18 2.396010 1_455
Na18 O10 2.414542 1_555
Na18 O65 2.435148 1_555
Na18 O54 2.443401 1_556
Na18 O14 2.497756 1_555
Na18 O0 2.565239 1_455
Na19 O17 2.396010 1_555
Na19 O11 2.414542 1_555
Na19 O66 2.435148 1_555
Na19 O53 2.443401 1_554
Na19 O15 2.497756 1_555
Na19 O3 2.565239 1_555
Na20 O23 2.396010 1_555
Na20 O12 2.414542 1_555
Na20 O64 2.435148 1_555
Na20 O59 2.443401 1_555
Na20 O4 2.497756 1_555
Na20 O3 2.565239 1_555
Na21 O22 2.396010 1_545
Na21 O13 2.414542 1_555
Na21 O67 2.435148 1_555
Na21 O58 2.443401 1_655
Na21 O8 2.497756 1_555
Na21 O0 2.565239 1_545
Na22 O21 2.396010 1_555
Na22 O14 2.414542 1_555
Na22 O65 2.435148 1_555
Na22 O57 2.443401 1_455
Na22 O5 2.497756 1_555
Na22 O2 2.565239 1_555
Na23 O19 2.396010 1_565
Na23 O15 2.414542 1_555
Na23 O66 2.435148 1_555
Na23 O55 2.443401 1_555
Na23 O6 2.497756 1_555
Na23 O1 2.565239 1_565
O0 P4 1.528627 1_666
O1 P5 1.528627 1_545
O2 P6 1.528627 1_455
O3 P7 1.528627 1_554
O4 P8 1.563805 1_555
O4 Zn0 1.924904 1_555
O5 P9 1.563805 1_555
O5 Zn1 1.924904 1_555
O6 P10 1.563805 1_555
O6 Zn2 1.924904 1_565
O7 P8 1.563805 1_555
O7 Zn3 1.924904 1_555
O8 P11 1.563805 1_555
O8 Zn4 1.924904 1_545
O9 P11 1.563805 1_555
O9 Zn5 1.924904 1_555
O10 P9 1.563805 1_555
O10 Zn6 1.924904 1_556
O11 P10 1.563805 1_555
O11 Zn7 1.924904 1_554
O12 P8 1.563805 1_555
O12 Zn8 1.924904 1_555
O13 P11 1.563805 1_555
O13 Zn9 1.924904 1_655
O14 P9 1.563805 1_555
O14 Zn10 1.924904 1_455
O15 P10 1.563805 1_555
O15 Zn11 1.924904 1_555
O16 P2 1.569674 1_555
O16 Zn3 1.977112 1_555
O17 P3 1.569674 1_555
O17 Zn6 1.977112 1_555
O18 P0 1.569674 1_555
O18 Zn7 1.977112 1_555
O19 P1 1.569674 1_555
O19 Zn8 1.977112 1_555
O20 P1 1.569674 1_555
O20 Zn5 1.977112 1_555
O21 P2 1.569674 1_555
O21 Zn9 1.977112 1_555
O22 P0 1.569674 1_555
O22 Zn10 1.977112 1_555
O23 P3 1.569674 1_555
O23 Zn11 1.977112 1_555
O24 P3 1.569674 1_555
O24 Zn0 1.977112 1_555
O25 P0 1.569674 1_555
O25 Zn4 1.977112 1_555
O26 P2 1.569674 1_555
O26 Zn1 1.977112 1_555
O27 P1 1.569674 1_555
O27 Zn2 1.977112 1_555
O28 P13 1.569332 1_455
O28 Zn0 1.961220 1_555
O29 P12 1.569332 1_555
O29 Zn1 1.961220 1_555
O30 P15 1.569332 1_655
O30 Zn2 1.961220 1_565
O31 P15 1.569332 1_545
O31 Zn3 1.961220 1_555
O32 P14 1.569332 1_555
O32 Zn4 1.961220 1_545
O33 P12 1.569332 1_555
O33 Zn5 1.961220 1_555
O34 P14 1.569332 1_565
O34 Zn6 1.961220 1_556
O35 P13 1.569332 1_555
O35 Zn7 1.961220 1_554
O36 P14 1.569332 1_554
O36 Zn8 1.961220 1_555
O37 P13 1.569332 1_556
O37 Zn9 1.961220 1_655
O38 P15 1.569332 1_555
O38 Zn10 1.961220 1_455
O39 P12 1.569332 1_555
O39 Zn11 1.961220 1_555
O40 P6 1.566623 1_455
O40 Zn0 1.947045 1_555
O41 P7 1.566623 1_555
O41 Zn1 1.947045 1_555
O42 P4 1.566623 1_655
O42 Zn2 1.947045 1_555
O43 P5 1.566623 1_545
O43 Zn3 1.947045 1_555
O44 P5 1.566623 1_555
O44 Zn4 1.947045 1_555
O45 P6 1.566623 1_555
O45 Zn5 1.947045 1_555
O46 P4 1.566623 1_565
O46 Zn6 1.947045 1_555
O47 P7 1.566623 1_555
O47 Zn7 1.947045 1_555
O48 P7 1.566623 1_554
O48 Zn8 1.947045 1_555
O49 P4 1.566623 1_556
O49 Zn9 1.947045 1_555
O50 P6 1.566623 1_555
O50 Zn10 1.947045 1_555
O51 P5 1.566623 1_555
O51 Zn11 1.947045 1_555
O64 P12 1.509192 1_555
O65 P13 1.509192 1_456
O66 P14 1.509192 1_564
O67 P15 1.509192 1_645
O68 P8 1.524539 1_555
O69 P9 1.524539 1_555
O70 P10 1.524539 1_555
O71 P11 1.524539 1_555
O72 P0 1.523300 1_555
O73 P1 1.523300 1_555
O74 P2 1.523300 1_555
O75 P3 1.523300 1_555
