# generated using pymatgen
data_Ca17Ni19(PO4)24
_symmetry_space_group_name_H-M   'P 1'
_cell_length_a   10.08912213
_cell_length_b   12.52426908
_cell_length_c   17.15028488
_cell_angle_alpha   99.13080536
_cell_angle_beta   89.93380739
_cell_angle_gamma   66.68335464
_symmetry_Int_Tables_number   1
_chemical_formula_structural   Ca17Ni19(PO4)24
_chemical_formula_sum   'Ca17 Ni19 P24 O96'
_cell_volume   1959.99432798
_cell_formula_units_Z   1
loop_
 _symmetry_equiv_pos_site_id
 _symmetry_equiv_pos_as_xyz
  1  'x, y, z'
loop_
 _atom_site_type_symbol
 _atom_site_label
 _atom_site_symmetry_multiplicity
 _atom_site_fract_x
 _atom_site_fract_y
 _atom_site_fract_z
 _atom_site_occupancy
  Ca  Ca0  1  0.11204723  0.67942499  0.06857572  1
  Ca  Ca1  1  0.79165798  0.31859042  0.43297985  1
  Ca  Ca2  1  0.88795393  0.32148035  0.93187452  1
  Ca  Ca3  1  0.20636642  0.67960307  0.56407698  1
  Ca  Ca4  1  0.51006035  0.82302430  0.89175849  1
  Ca  Ca5  1  0.33332823  0.17481076  0.60766935  1
  Ca  Ca6  1  0.48956166  0.17652360  0.10815681  1
  Ca  Ca7  1  0.66508192  0.82401250  0.39192744  1
  Ca  Ca8  1  0.10371773  0.99901335  0.25263785  1
  Ca  Ca9  1  0.89628722  0.99919713  0.74894100  1
  Ca  Ca10  1  0.53666403  0.62452260  0.06699413  1
  Ca  Ca11  1  0.16200930  0.37958115  0.43424147  1
  Ca  Ca12  1  0.46141731  0.37660391  0.93392491  1
  Ca  Ca13  1  0.83857304  0.62449200  0.56507101  1
  Ca  Ca14  1  0.03994965  0.12883641  0.08883574  1
  Ca  Ca15  1  0.82960349  0.13067796  0.58948478  1
  Ca  Ca16  1  0.96048705  0.87065627  0.91127334  1
  Ni  Ni0  1  0.14530838  0.47325583  0.22630344  1
  Ni  Ni1  1  0.61759310  0.52678689  0.27508497  1
  Ni  Ni2  1  0.85448942  0.52861155  0.77475609  1
  Ni  Ni3  1  0.38348280  0.47306009  0.72517916  1
  Ni  Ni4  1  0.67403613  0.83504663  0.04881928  1
  Ni  Ni5  1  0.50854540  0.16297308  0.45064899  1
  Ni  Ni6  1  0.32587852  0.16495705  0.95118334  1
  Ni  Ni7  1  0.49042237  0.83343215  0.54856248  1
  Ni  Ni8  1  0.57701941  0.00025906  0.25165465  1
  Ni  Ni9  1  0.42008147  0.00027068  0.75047658  1
  Ni  Ni10  1  0.73389649  0.21604037  0.23698488  1
  Ni  Ni11  1  0.94982295  0.78460493  0.26483535  1
  Ni  Ni12  1  0.26605386  0.78338815  0.75986950  1
  Ni  Ni13  1  0.04953022  0.21577559  0.73535253  1
  Ni  Ni14  1  0.89419928  0.47244292  0.13156364  1
  Ni  Ni15  1  0.36680081  0.52978709  0.36905347  1
  Ni  Ni16  1  0.10623423  0.52771604  0.86861060  1
  Ni  Ni17  1  0.63452118  0.47189307  0.63111130  1
  Ni  Ni18  1  0.17334523  0.86582213  0.40593306  1
  P  P0  1  0.69679895  0.36627177  0.10008570  1
  P  P1  1  0.06383206  0.64069683  0.40005082  1
  P  P2  1  0.30280776  0.63433945  0.90000955  1
  P  P3  1  0.93668311  0.36755919  0.60007387  1
  P  P4  1  0.34986409  0.99442110  0.40459369  1
  P  P5  1  0.35379459  0.99783651  0.09794522  1
  P  P6  1  0.64640069  0.99841053  0.59734835  1
  P  P7  1  0.64614872  0.00189764  0.90250909  1
  P  P8  1  0.81852982  0.61151998  0.97602764  1
  P  P9  1  0.42941745  0.38858812  0.52361201  1
  P  P10  1  0.18140138  0.38862520  0.02439812  1
  P  P11  1  0.57173760  0.61013845  0.47617452  1
  P  P12  1  0.28033303  0.67954487  0.22868012  1
  P  P13  1  0.95864099  0.32271440  0.27533571  1
  P  P14  1  0.71940537  0.32289201  0.77507769  1
  P  P15  1  0.04231743  0.67701238  0.72487442  1
  P  P16  1  0.71652521  0.72084733  0.21350821  1
  P  P17  1  0.43657745  0.27983569  0.28692590  1
  P  P18  1  0.28337471  0.27926536  0.78639119  1
  P  P19  1  0.56332215  0.72050957  0.71337428  1
  P  P20  1  0.83317429  0.05226691  0.37946395  1
  P  P21  1  0.88401538  0.94701969  0.12311118  1
  P  P22  1  0.16982393  0.94553557  0.61446092  1
  P  P23  1  0.11633607  0.05271657  0.87650804  1
  O  O0  1  0.87449110  0.63505402  0.18743854  1
  O  O1  1  0.50804593  0.36698588  0.31302779  1
  O  O2  1  0.12580630  0.36557714  0.81270016  1
  O  O3  1  0.49180616  0.63313612  0.68766849  1
  O  O4  1  0.82411580  0.51243473  0.02192730  1
  O  O5  1  0.33587500  0.48806257  0.47807046  1
  O  O6  1  0.17604090  0.48761658  0.97846519  1
  O  O7  1  0.66581757  0.51103656  0.52146228  1
  O  O8  1  0.62583578  0.75094673  0.14171236  1
  O  O9  1  0.37584732  0.24871212  0.35854139  1
  O  O10  1  0.37428954  0.24872648  0.85812557  1
  O  O11  1  0.62457660  0.75068511  0.64171971  1
  O  O12  1  0.65509289  0.68684640  0.96927905  1
  O  O13  1  0.34143721  0.31191997  0.52984499  1
  O  O14  1  0.34478355  0.31306830  0.03108739  1
  O  O15  1  0.65989971  0.68625595  0.46911127  1
  O  O16  1  0.96032381  0.93210254  0.34238125  1
  O  O17  1  0.88836356  0.06532580  0.16595252  1
  O  O18  1  0.04678422  0.06230407  0.65914180  1
  O  O19  1  0.11222854  0.93471353  0.83234210  1
  O  O20  1  0.86356289  0.31166552  0.07738126  1
  O  O21  1  0.17267356  0.70140865  0.42043841  1
  O  O22  1  0.13610608  0.68832923  0.92284534  1
  O  O23  1  0.82377160  0.31285445  0.57771728  1
  O  O24  1  0.64975526  0.28258261  0.13807589  1
  O  O25  1  0.93028320  0.71707143  0.36164142  1
  O  O26  1  0.34915132  0.71792174  0.86147475  1
  O  O27  1  0.06646269  0.28386249  0.63771081  1
  O  O28  1  0.89584012  0.55097326  0.89294784  1
  O  O29  1  0.44711240  0.44850650  0.60679578  1
  O  O30  1  0.10447951  0.44940349  0.10756983  1
  O  O31  1  0.55405423  0.55038156  0.39292622  1
  O  O32  1  0.72830068  0.83764518  0.25844460  1
  O  O33  1  0.56482771  0.16381017  0.24236903  1
  O  O34  1  0.27000499  0.16304492  0.74153019  1
  O  O35  1  0.43386349  0.83653260  0.75729979  1
  O  O36  1  0.67206318  0.48642023  0.15683033  1
  O  O37  1  0.16074284  0.51939059  0.34478898  1
  O  O38  1  0.32819388  0.51379070  0.84353031  1
  O  O39  1  0.84196900  0.48750052  0.65665990  1
  O  O40  1  0.40169936  0.87863060  0.44124374  1
  O  O41  1  0.28562771  0.11212671  0.05909362  1
  O  O42  1  0.60044835  0.11289395  0.55863213  1
  O  O43  1  0.71430787  0.88759660  0.94123629  1
  O  O44  1  0.82708620  0.14850495  0.32987437  1
  O  O45  1  0.97572296  0.84721321  0.16947495  1
  O  O46  1  0.17781099  0.84488040  0.66084294  1
  O  O47  1  0.02486861  0.15379292  0.83128975  1
  O  O48  1  0.46101472  0.96937672  0.33477298  1
  O  O49  1  0.44091653  0.02906881  0.16493321  1
  O  O50  1  0.52958333  0.02907902  0.66485948  1
  O  O51  1  0.55940191  0.97063351  0.83536511  1
  O  O52  1  0.86926165  0.09852677  0.46057922  1
  O  O53  1  0.96699486  0.91176544  0.04198782  1
  O  O54  1  0.12826138  0.91063692  0.53073611  1
  O  O55  1  0.03420086  0.08623300  0.95778591  1
  O  O56  1  0.32589685  0.68030662  0.14313825  1
  O  O57  1  0.00046576  0.32886461  0.36178080  1
  O  O58  1  0.67160318  0.32873491  0.86154647  1
  O  O59  1  0.00051968  0.67071022  0.63859472  1
  O  O60  1  0.61435688  0.40127438  0.02683547  1
  O  O61  1  0.02152551  0.60602077  0.47522168  1
  O  O62  1  0.38401928  0.60020011  0.97391713  1
  O  O63  1  0.98450639  0.40245347  0.52662994  1
  O  O64  1  0.88336522  0.69478589  0.02050109  1
  O  O65  1  0.57575945  0.30618682  0.47862705  1
  O  O66  1  0.11665607  0.30531790  0.97989961  1
  O  O67  1  0.42550423  0.69083959  0.52166623  1
  O  O68  1  0.23093787  0.80217035  0.28170875  1
  O  O69  1  0.03323277  0.19834072  0.22678723  1
  O  O70  1  0.77006740  0.19829420  0.72660806  1
  O  O71  1  0.96795764  0.80130477  0.77351537  1
  O  O72  1  0.64867933  0.67861494  0.27702791  1
  O  O73  1  0.32662216  0.32162666  0.22356552  1
  O  O74  1  0.35188398  0.32103360  0.72284671  1
  O  O75  1  0.67205385  0.67991178  0.77745694  1
  O  O76  1  0.19573741  0.01446960  0.37813672  1
  O  O77  1  0.22902552  0.97127595  0.12934957  1
  O  O78  1  0.79762115  0.97167144  0.62809431  1
  O  O79  1  0.77098984  0.02867037  0.87150727  1
  O  O80  1  0.68779418  0.03509620  0.37935695  1
  O  O81  1  0.72417115  0.96087390  0.12040970  1
  O  O82  1  0.31480525  0.96220355  0.61676286  1
  O  O83  1  0.27646144  0.03866565  0.87938344  1
  O  O84  1  0.39999795  0.58524738  0.26712656  1
  O  O85  1  0.98592204  0.41472421  0.23369856  1
  O  O86  1  0.60112827  0.41361404  0.73312348  1
  O  O87  1  0.01525114  0.58537273  0.76690921  1
  O  O88  1  0.35058112  0.09932509  0.46642868  1
  O  O89  1  0.45650165  0.89588989  0.03385345  1
  O  O90  1  0.64523440  0.89653486  0.53312256  1
  O  O91  1  0.54315722  0.10395814  0.96644658  1
  O  O92  1  0.14816833  0.64113162  0.22057731  1
  O  O93  1  0.78865592  0.36000170  0.28103176  1
  O  O94  1  0.85182814  0.36117412  0.78106489  1
  O  O95  1  0.21217689  0.63990206  0.71910915  1
loop_
_geom_bond_atom_site_label_1
_geom_bond_atom_site_label_2
_geom_bond_distance
_geom_bond_site_symmetry_2
Ca0 O64 2.396526 1_455
Ca0 O45 2.419610 1_455
Ca0 O6 2.483476 1_554
Ca0 O56 2.512204 1_555
Ca0 O22 2.535041 1_554
Ca0 O92 2.723827 1_555
Ca0 O53 2.805110 1_455
Ca0 O62 2.910755 1_554
Ca0 O30 3.088339 1_555
Ca1 O65 2.384157 1_555
Ca1 O44 2.447984 1_555
Ca1 O7 2.477156 1_555
Ca1 O57 2.490834 1_655
Ca1 O23 2.512353 1_555
Ca1 O52 2.672075 1_555
Ca1 O93 2.734521 1_555
Ca1 O63 2.925410 1_555
Ca2 O66 2.393959 1_655
Ca2 O47 2.417178 1_655
Ca2 O58 2.472140 1_555
Ca2 O4 2.475023 1_556
Ca2 O20 2.534360 1_556
Ca2 O94 2.708583 1_555
Ca2 O55 2.833889 1_655
Ca2 O60 2.925736 1_556
Ca2 O28 3.082716 1_555
Ca3 O46 2.357645 1_555
Ca3 O67 2.389988 1_555
Ca3 O5 2.455390 1_555
Ca3 O59 2.486160 1_555
Ca3 O21 2.529951 1_555
Ca3 O61 2.751484 1_555
Ca3 O95 2.777950 1_555
Ca3 O54 2.835769 1_555
Ca4 O12 2.359250 1_555
Ca4 O51 2.428126 1_555
Ca4 O35 2.441768 1_555
Ca4 O89 2.442208 1_556
Ca4 O26 2.472784 1_555
Ca4 O75 2.507000 1_555
Ca4 O43 2.593447 1_555
Ca4 O83 2.835120 1_565
Ca5 O13 2.361201 1_555
Ca5 O34 2.424636 1_555
Ca5 O50 2.434266 1_555
Ca5 O88 2.435908 1_555
Ca5 O27 2.498495 1_555
Ca5 O74 2.532764 1_555
Ca5 O42 2.589416 1_555
Ca5 O82 2.770404 1_545
Ca6 O14 2.355757 1_555
Ca6 O49 2.426249 1_555
Ca6 O33 2.434095 1_555
Ca6 O91 2.435565 1_554
Ca6 O24 2.474860 1_555
Ca6 O73 2.531515 1_555
Ca6 O41 2.587304 1_555
Ca6 O81 2.839359 1_545
Ca7 O15 2.351111 1_555
Ca7 O32 2.425615 1_555
Ca7 O90 2.426060 1_555
Ca7 O48 2.473463 1_555
Ca7 O25 2.482308 1_555
Ca7 O72 2.515346 1_555
Ca7 O40 2.572304 1_555
Ca7 O80 2.783577 1_565
Ca8 O76 2.355126 1_565
Ca8 O77 2.367031 1_555
Ca8 O68 2.420836 1_555
Ca8 O69 2.425089 1_565
Ca8 O16 2.555016 1_455
Ca8 O17 2.567411 1_465
Ca8 O44 2.849087 1_465
Ca8 O45 2.898882 1_455
Ca9 O78 2.335578 1_555
Ca9 O79 2.351831 1_565
Ca9 O71 2.399323 1_555
Ca9 O70 2.403468 1_565
Ca9 O19 2.534887 1_655
Ca9 O18 2.575452 1_665
Ca9 O47 2.924233 1_665
Ca9 O46 2.967037 1_655
Ca10 O62 2.288109 1_554
Ca10 O56 2.289809 1_555
Ca10 O8 2.333435 1_555
Ca10 O12 2.448307 1_554
Ca10 O36 2.492338 1_555
Ca10 O60 2.561075 1_555
Ca10 O4 2.721475 1_555
Ca11 O57 2.275490 1_555
Ca11 O63 2.289778 1_455
Ca11 O9 2.354867 1_555
Ca11 O13 2.432490 1_555
Ca11 O37 2.500935 1_555
Ca11 O61 2.593990 1_555
Ca11 O5 2.655859 1_555
Ca12 O58 2.269028 1_555
Ca12 O60 2.289606 1_556
Ca12 O10 2.341803 1_555
Ca12 O14 2.439719 1_556
Ca12 O38 2.486795 1_555
Ca12 O62 2.565229 1_555
Ca12 O6 2.700974 1_555
Ca13 O59 2.261969 1_655
Ca13 O61 2.318914 1_655
Ca13 O11 2.349503 1_555
Ca13 O15 2.421450 1_555
Ca13 O39 2.494218 1_555
Ca13 O63 2.551537 1_555
Ca13 O7 2.691212 1_555
Ca14 O55 2.232421 1_554
Ca14 O20 2.316569 1_455
Ca14 O77 2.339671 1_545
Ca14 O69 2.378898 1_555
Ca14 O41 2.449567 1_555
Ca14 O17 2.452162 1_455
Ca15 O52 2.190344 1_555
Ca15 O23 2.299981 1_555
Ca15 O78 2.331335 1_545
Ca15 O70 2.360179 1_555
Ca15 O18 2.409774 1_655
Ca15 O42 2.459245 1_555
Ca16 O53 2.226162 1_556
Ca16 O22 2.309752 1_655
Ca16 O79 2.339446 1_565
Ca16 O71 2.374533 1_555
Ca16 O43 2.454240 1_555
Ca16 O19 2.476304 1_655
Ni0 O85 2.025234 1_455
Ni0 O73 2.043616 1_555
Ni0 O37 2.046141 1_555
Ni0 O30 2.076486 1_555
Ni0 O92 2.131812 1_555
Ni1 O36 2.030484 1_555
Ni1 O84 2.033277 1_555
Ni1 O72 2.041406 1_555
Ni1 O31 2.059188 1_555
Ni1 O93 2.136940 1_555
Ni2 O87 2.024057 1_655
Ni2 O39 2.025918 1_555
Ni2 O75 2.047351 1_555
Ni2 O28 2.067747 1_555
Ni2 O94 2.127568 1_555
Ni3 O86 2.033060 1_555
Ni3 O38 2.033420 1_555
Ni3 O74 2.045706 1_555
Ni3 O29 2.066735 1_555
Ni3 O95 2.138878 1_555
Ni4 O89 2.050083 1_555
Ni4 O81 2.065222 1_555
Ni4 O64 2.138224 1_555
Ni4 O43 2.144277 1_554
Ni4 O8 2.195512 1_555
Ni4 O12 2.195526 1_554
Ni5 O88 2.078893 1_555
Ni5 O80 2.100251 1_555
Ni5 O42 2.143607 1_555
Ni5 O65 2.144236 1_555
Ni5 O9 2.201371 1_555
Ni5 O13 2.206363 1_555
Ni6 O91 2.048593 1_555
Ni6 O83 2.067421 1_555
Ni6 O66 2.138671 1_555
Ni6 O41 2.151135 1_556
Ni6 O10 2.195828 1_555
Ni6 O14 2.197542 1_556
Ni7 O90 2.043760 1_555
Ni7 O82 2.059827 1_555
Ni7 O40 2.107766 1_555
Ni7 O67 2.120444 1_555
Ni7 O11 2.208759 1_555
Ni7 O15 2.209185 1_555
Ni8 O49 2.002655 1_555
Ni8 O48 2.020135 1_545
Ni8 O32 2.026299 1_545
Ni8 O33 2.034793 1_555
Ni8 O80 2.514858 1_555
Ni9 O50 1.996680 1_555
Ni9 O51 1.999074 1_545
Ni9 O35 2.022095 1_545
Ni9 O34 2.031850 1_555
Ni10 O44 1.984666 1_555
Ni10 O24 2.045638 1_555
Ni10 O33 2.061103 1_555
Ni10 O17 2.100686 1_555
Ni10 O93 2.117538 1_555
Ni10 O1 2.503492 1_555
Ni11 O45 1.981432 1_555
Ni11 O25 2.021784 1_555
Ni11 O32 2.072858 1_555
Ni11 O92 2.127575 1_655
Ni11 O16 2.137286 1_555
Ni11 O0 2.487560 1_555
Ni12 O46 2.036152 1_555
Ni12 O35 2.052460 1_555
Ni12 O26 2.079501 1_555
Ni12 O95 2.094999 1_555
Ni12 O19 2.113022 1_555
Ni12 O3 2.474492 1_555
Ni13 O47 1.982181 1_555
Ni13 O27 2.031858 1_555
Ni13 O34 2.062802 1_555
Ni13 O94 2.139438 1_455
Ni13 O18 2.156049 1_555
Ni13 O2 2.495456 1_555
Ni14 O0 2.040856 1_555
Ni14 O30 2.056508 1_655
Ni14 O4 2.075561 1_555
Ni14 O85 2.079240 1_555
Ni14 O36 2.214569 1_555
Ni14 O20 2.216575 1_555
Ni15 O31 2.038955 1_555
Ni15 O1 2.046035 1_555
Ni15 O84 2.053921 1_555
Ni15 O5 2.074589 1_555
Ni15 O37 2.170537 1_555
Ni15 O21 2.301073 1_555
Ni16 O2 2.036225 1_555
Ni16 O28 2.057860 1_455
Ni16 O87 2.070030 1_555
Ni16 O6 2.078751 1_555
Ni16 O22 2.211135 1_555
Ni16 O38 2.212473 1_555
Ni17 O3 2.040955 1_555
Ni17 O29 2.058215 1_555
Ni17 O7 2.071262 1_555
Ni17 O86 2.075027 1_555
Ni17 O23 2.204103 1_555
Ni17 O39 2.215741 1_555
Ni18 O76 2.087726 1_565
Ni18 O21 2.115582 1_555
Ni18 O54 2.125473 1_555
Ni18 O68 2.145579 1_555
Ni18 O16 2.318694 1_455
Ni18 O40 2.442408 1_555
O0 P16 1.544246 1_555
O1 P17 1.542845 1_555
O2 P18 1.543539 1_555
O3 P19 1.544377 1_555
O4 P8 1.554874 1_554
O5 P9 1.559683 1_555
O6 P10 1.554856 1_556
O7 P11 1.555564 1_555
O8 P16 1.540231 1_555
O9 P17 1.541162 1_555
O10 P18 1.541238 1_555
O11 P19 1.538012 1_555
O12 P8 1.557572 1_555
O13 P9 1.558341 1_555
O14 P10 1.557521 1_555
O15 P11 1.556381 1_555
O16 P20 1.575141 1_565
O17 P21 1.563077 1_545
O18 P22 1.572232 1_545
O19 P23 1.566181 1_565
O20 P0 1.566279 1_555
O21 P1 1.575999 1_555
O22 P2 1.566351 1_555
O23 P3 1.565134 1_555
O24 P0 1.535654 1_555
O25 P1 1.531703 1_655
O26 P2 1.535417 1_555
O27 P3 1.536248 1_455
O28 P8 1.549155 1_555
O29 P9 1.548272 1_555
O30 P10 1.549701 1_555
O31 P11 1.548396 1_555
O32 P16 1.589921 1_555
O33 P17 1.589540 1_555
O34 P18 1.590308 1_555
O35 P19 1.591488 1_555
O36 P0 1.584643 1_555
O37 P1 1.589765 1_555
O38 P2 1.585078 1_555
O39 P3 1.584399 1_555
O40 P4 1.568861 1_555
O41 P5 1.578080 1_545
O42 P6 1.577439 1_545
O43 P7 1.576975 1_565
O44 P20 1.564196 1_555
O45 P21 1.566030 1_555
O46 P22 1.570492 1_555
O47 P23 1.563325 1_555
O48 P4 1.545661 1_555
O49 P5 1.541880 1_545
O50 P6 1.540946 1_545
O51 P7 1.541377 1_565
O52 P20 1.521803 1_555
O53 P21 1.530113 1_555
O54 P22 1.541425 1_555
O55 P23 1.530433 1_555
O56 P12 1.539499 1_555
O57 P13 1.540424 1_455
O58 P14 1.540487 1_555
O59 P15 1.537648 1_555
O60 P0 1.533219 1_555
O61 P1 1.534930 1_555
O62 P2 1.535539 1_555
O63 P3 1.533158 1_555
O64 P8 1.544634 1_554
O65 P9 1.542292 1_555
O66 P10 1.544569 1_556
O67 P11 1.540643 1_555
O68 P12 1.543990 1_555
O69 P13 1.531320 1_455
O70 P14 1.530789 1_555
O71 P15 1.530971 1_655
O72 P16 1.550106 1_555
O73 P17 1.552116 1_555
O74 P18 1.550649 1_555
O75 P19 1.551909 1_555
O76 P4 1.554241 1_545
O77 P5 1.540172 1_555
O78 P6 1.539915 1_555
O79 P7 1.539781 1_555
O80 P20 1.564356 1_555
O81 P21 1.553778 1_555
O82 P22 1.556911 1_555
O83 P23 1.556021 1_555
O84 P12 1.551581 1_555
O85 P13 1.557370 1_555
O86 P14 1.555904 1_555
O87 P15 1.556210 1_555
O88 P4 1.554417 1_545
O89 P5 1.554605 1_555
O90 P6 1.551533 1_555
O91 P7 1.554699 1_555
O92 P12 1.586138 1_555
O93 P13 1.587444 1_555
O94 P14 1.586561 1_555
O95 P15 1.586557 1_555
