# generated using pymatgen
data_SnH6C4(SN)2
_symmetry_space_group_name_H-M   'P 1'
_cell_length_a   5.75273200
_cell_length_b   8.25835100
_cell_length_c   10.52169800
_cell_angle_alpha   90.00000000
_cell_angle_beta   90.00000000
_cell_angle_gamma   90.00000000
_symmetry_Int_Tables_number   1
_chemical_formula_structural   SnH6C4(SN)2
_chemical_formula_sum   'Sn2 H12 C8 S4 N4'
_cell_volume   499.86567100
_cell_formula_units_Z   2
loop_
 _symmetry_equiv_pos_site_id
 _symmetry_equiv_pos_as_xyz
  1  'x, y, z'
loop_
 _atom_site_type_symbol
 _atom_site_label
 _atom_site_symmetry_multiplicity
 _atom_site_fract_x
 _atom_site_fract_y
 _atom_site_fract_z
 _atom_site_occupancy
  Sn  Sn0  1  0.53787200  0.25000000  0.25000000  1
  Sn  Sn1  1  0.46212800  0.75000000  0.75000000  1
  H  H0  1  0.84446000  0.50110500  0.25000000  1
  H  H1  1  0.84446000  0.99889500  0.25000000  1
  H  H2  1  0.15554000  0.49889500  0.75000000  1
  H  H3  1  0.15554000  0.00110500  0.75000000  1
  H  H4  1  0.58361300  0.55111800  0.16446500  1
  H  H5  1  0.58361300  0.55111800  0.33553500  1
  H  H6  1  0.58361300  0.94888200  0.16446500  1
  H  H7  1  0.58361300  0.94888200  0.33553500  1
  H  H8  1  0.41638700  0.44888200  0.83553500  1
  H  H9  1  0.41638700  0.44888200  0.66446500  1
  H  H10  1  0.41638700  0.05111800  0.83553500  1
  H  H11  1  0.41638700  0.05111800  0.66446500  1
  C  C0  1  0.09652500  0.25000000  0.05289600  1
  C  C1  1  0.09652500  0.25000000  0.44710400  1
  C  C2  1  0.90347500  0.75000000  0.94710400  1
  C  C3  1  0.90347500  0.75000000  0.55289600  1
  C  C4  1  0.65459900  0.49458700  0.25000000  1
  C  C5  1  0.65459900  0.00541300  0.25000000  1
  C  C6  1  0.34540100  0.50541300  0.75000000  1
  C  C7  1  0.34540100  0.99458700  0.75000000  1
  S  S0  1  0.85210400  0.25000000  0.98027900  1
  S  S1  1  0.85210400  0.25000000  0.51972100  1
  S  S2  1  0.14789600  0.75000000  0.01972100  1
  S  S3  1  0.14789600  0.75000000  0.48027900  1
  N  N0  1  0.27998900  0.25000000  0.10543200  1
  N  N1  1  0.27998900  0.25000000  0.39456800  1
  N  N2  1  0.72001100  0.75000000  0.89456800  1
  N  N3  1  0.72001100  0.75000000  0.60543200  1
loop_
_geom_bond_atom_site_label_1
_geom_bond_atom_site_label_2
_geom_bond_distance
_geom_bond_site_symmetry_2
C0 N0 1.191412 1_555
C0 S0 1.600270 1_454
C1 N1 1.191412 1_555
C1 S1 1.600270 1_455
C2 N2 1.191412 1_555
C2 S2 1.600270 1_656
C3 N3 1.191412 1_555
C3 S3 1.600270 1_655
C4 H5 1.093007 1_555
C4 H4 1.093007 1_555
C4 H0 1.093545 1_555
C4 Sn0 2.128579 1_555
C5 H7 1.093007 1_545
C5 H6 1.093007 1_545
C5 H1 1.093545 1_545
C5 Sn0 2.128579 1_555
C6 H8 1.093007 1_555
C6 H9 1.093007 1_555
C6 H2 1.093545 1_555
C6 Sn1 2.128579 1_555
C7 H10 1.093007 1_565
C7 H11 1.093007 1_565
C7 H3 1.093545 1_565
C7 Sn1 2.128579 1_555
N0 Sn0 2.124762 1_555
N1 Sn0 2.124762 1_555
N2 Sn1 2.124762 1_555
N3 Sn1 2.124762 1_555
