# generated using pymatgen
data_Cr(FeN)3
_symmetry_space_group_name_H-M   'P 1'
_cell_length_a   6.68607459
_cell_length_b   6.71866552
_cell_length_c   3.81457000
_cell_angle_alpha   90.00000000
_cell_angle_beta   90.00000000
_cell_angle_gamma   120.09193364
_symmetry_Int_Tables_number   1
_chemical_formula_structural   Cr(FeN)3
_chemical_formula_sum   'Cr2 Fe6 N6'
_cell_volume   148.26115853
_cell_formula_units_Z   2
loop_
 _symmetry_equiv_pos_site_id
 _symmetry_equiv_pos_as_xyz
  1  'x, y, z'
loop_
 _atom_site_type_symbol
 _atom_site_label
 _atom_site_symmetry_multiplicity
 _atom_site_fract_x
 _atom_site_fract_y
 _atom_site_fract_z
 _atom_site_occupancy
  Cr  Cr0  1  0.66253300  0.33096400  0.75000000  1
  Cr  Cr1  1  0.33746700  0.66903600  0.25000000  1
  Fe  Fe0  1  0.84014000  0.67822100  0.25000000  1
  Fe  Fe1  1  0.84095100  0.16198100  0.25000000  1
  Fe  Fe2  1  0.31426800  0.15706600  0.25000000  1
  Fe  Fe3  1  0.15986000  0.32177900  0.75000000  1
  Fe  Fe4  1  0.15904900  0.83801900  0.75000000  1
  Fe  Fe5  1  0.68573200  0.84293400  0.75000000  1
  N  N0  1  0.81875200  0.64052700  0.75000000  1
  N  N1  1  0.81946500  0.17827500  0.75000000  1
  N  N2  1  0.35194700  0.17571000  0.75000000  1
  N  N3  1  0.18124800  0.35947300  0.25000000  1
  N  N4  1  0.18053500  0.82172500  0.25000000  1
  N  N5  1  0.64805300  0.82429000  0.25000000  1
loop_
_geom_bond_atom_site_label_1
_geom_bond_atom_site_label_2
_geom_bond_distance
_geom_bond_site_symmetry_2
Cr0 N2 1.796722 1_555
Cr0 N1 1.797981 1_555
Cr0 N0 1.799533 1_555
Cr1 N5 1.796722 1_555
Cr1 N4 1.797981 1_555
Cr1 N3 1.799533 1_555
Fe0 N0 1.919898 1_555
Fe0 N0 1.919898 1_554
Fe0 N5 1.968877 1_555
Fe0 N4 1.977100 1_655
Fe1 N1 1.919929 1_555
Fe1 N1 1.919929 1_554
Fe1 N5 1.968933 1_545
Fe1 N3 1.977374 1_655
Fe2 N2 1.919700 1_554
Fe2 N2 1.919700 1_555
Fe2 N3 1.962951 1_555
Fe2 N4 1.963557 1_545
Fe3 N3 1.919898 1_556
Fe3 N3 1.919898 1_555
Fe3 N2 1.968877 1_555
Fe3 N1 1.977100 1_455
Fe4 N4 1.919929 1_555
Fe4 N4 1.919929 1_556
Fe4 N2 1.968933 1_565
Fe4 N0 1.977374 1_455
Fe5 N5 1.919700 1_555
Fe5 N5 1.919700 1_556
Fe5 N0 1.962951 1_555
Fe5 N1 1.963557 1_565
