# generated using pymatgen
data_Zn3(PO6)2
_symmetry_space_group_name_H-M   'P 1'
_cell_length_a   4.83253600
_cell_length_b   10.74155700
_cell_length_c   17.76767100
_cell_angle_alpha   90.00000000
_cell_angle_beta   90.00000000
_cell_angle_gamma   90.00000000
_symmetry_Int_Tables_number   1
_chemical_formula_structural   Zn3(PO6)2
_chemical_formula_sum   'Zn12 P8 O48'
_cell_volume   922.30133920
_cell_formula_units_Z   4
loop_
 _symmetry_equiv_pos_site_id
 _symmetry_equiv_pos_as_xyz
  1  'x, y, z'
loop_
 _atom_site_type_symbol
 _atom_site_label
 _atom_site_symmetry_multiplicity
 _atom_site_fract_x
 _atom_site_fract_y
 _atom_site_fract_z
 _atom_site_occupancy
  Zn  Zn0  1  0.34939700  0.64817300  0.99395000  1
  Zn  Zn1  1  0.15060300  0.14817300  0.50605000  1
  Zn  Zn2  1  0.65060300  0.35182700  0.49395000  1
  Zn  Zn3  1  0.84939700  0.85182700  0.00605000  1
  Zn  Zn4  1  0.65060300  0.35182700  0.00605000  1
  Zn  Zn5  1  0.84939700  0.85182700  0.49395000  1
  Zn  Zn6  1  0.34939700  0.64817300  0.50605000  1
  Zn  Zn7  1  0.15060300  0.14817300  0.99395000  1
  Zn  Zn8  1  0.54351000  0.73272700  0.25000000  1
  Zn  Zn9  1  0.95649000  0.23272700  0.25000000  1
  Zn  Zn10  1  0.45649000  0.26727300  0.75000000  1
  Zn  Zn11  1  0.04351000  0.76727300  0.75000000  1
  P  P0  1  0.86006600  0.59347000  0.09566400  1
  P  P1  1  0.63993400  0.09347000  0.40433600  1
  P  P2  1  0.13993400  0.40653000  0.59566400  1
  P  P3  1  0.36006600  0.90653000  0.90433600  1
  P  P4  1  0.13993400  0.40653000  0.90433600  1
  P  P5  1  0.36006600  0.90653000  0.59566400  1
  P  P6  1  0.86006600  0.59347000  0.40433600  1
  P  P7  1  0.63993400  0.09347000  0.09566400  1
  O  O0  1  0.76608300  0.64492200  0.17250800  1
  O  O1  1  0.73391700  0.14492200  0.32749200  1
  O  O2  1  0.23391700  0.35507800  0.67250800  1
  O  O3  1  0.26608300  0.85507800  0.82749200  1
  O  O4  1  0.23391700  0.35507800  0.82749200  1
  O  O5  1  0.26608300  0.85507800  0.67250800  1
  O  O6  1  0.76608300  0.64492200  0.32749200  1
  O  O7  1  0.73391700  0.14492200  0.17250800  1
  O  O8  1  0.17735900  0.60200100  0.08976400  1
  O  O9  1  0.32264100  0.10200100  0.41023600  1
  O  O10  1  0.82264100  0.39799900  0.58976400  1
  O  O11  1  0.67735900  0.89799900  0.91023600  1
  O  O12  1  0.82264100  0.39799900  0.91023600  1
  O  O13  1  0.67735900  0.89799900  0.58976400  1
  O  O14  1  0.17735900  0.60200100  0.41023600  1
  O  O15  1  0.32264100  0.10200100  0.08976400  1
  O  O16  1  0.73710900  0.67597000  0.02897000  1
  O  O17  1  0.76289100  0.17597000  0.47103000  1
  O  O18  1  0.26289100  0.32403000  0.52897000  1
  O  O19  1  0.23710900  0.82403000  0.97103000  1
  O  O20  1  0.26289100  0.32403000  0.97103000  1
  O  O21  1  0.23710900  0.82403000  0.52897000  1
  O  O22  1  0.73710900  0.67597000  0.47103000  1
  O  O23  1  0.76289100  0.17597000  0.02897000  1
  O  O24  1  0.74836000  0.96006200  0.08658800  1
  O  O25  1  0.75164000  0.46006200  0.41341200  1
  O  O26  1  0.25164000  0.03993800  0.58658800  1
  O  O27  1  0.24836000  0.53993800  0.91341200  1
  O  O28  1  0.25164000  0.03993800  0.91341200  1
  O  O29  1  0.24836000  0.53993800  0.58658800  1
  O  O30  1  0.74836000  0.96006200  0.41341200  1
  O  O31  1  0.75164000  0.46006200  0.08658800  1
  O  O32  1  0.88264200  0.87000200  0.25000000  1
  O  O33  1  0.61735800  0.37000200  0.25000000  1
  O  O34  1  0.11735800  0.12999800  0.75000000  1
  O  O35  1  0.38264200  0.62999800  0.75000000  1
  O  O36  1  0.18755400  0.60413500  0.25000000  1
  O  O37  1  0.31244600  0.10413500  0.25000000  1
  O  O38  1  0.81244600  0.39586500  0.75000000  1
  O  O39  1  0.68755400  0.89586500  0.75000000  1
  O  O40  1  0.23570600  0.83071400  0.19034600  1
  O  O41  1  0.26429400  0.33071400  0.30965400  1
  O  O42  1  0.76429400  0.16928600  0.69034600  1
  O  O43  1  0.73570600  0.66928600  0.80965400  1
  O  O44  1  0.76429400  0.16928600  0.80965400  1
  O  O45  1  0.73570600  0.66928600  0.69034600  1
  O  O46  1  0.23570600  0.83071400  0.30965400  1
  O  O47  1  0.26429400  0.33071400  0.19034600  1
loop_
_geom_bond_atom_site_label_1
_geom_bond_atom_site_label_2
_geom_bond_distance
_geom_bond_site_symmetry_2
O0 P0 1.541388 1_555
O0 Zn8 1.985491 1_555
O1 P1 1.541388 1_555
O1 Zn9 1.985491 1_555
O2 P2 1.541388 1_555
O2 Zn10 1.985491 1_555
O3 P3 1.541388 1_555
O3 Zn11 1.985491 1_555
O4 P4 1.541388 1_555
O4 Zn10 1.985491 1_555
O5 P5 1.541388 1_555
O5 Zn11 1.985491 1_555
O6 P6 1.541388 1_555
O6 Zn8 1.985491 1_555
O7 P7 1.541388 1_555
O7 Zn9 1.985491 1_555
O8 P0 1.539639 1_455
O8 Zn0 1.958394 1_554
O9 P1 1.539639 1_555
O9 Zn1 1.958394 1_555
O10 P2 1.539639 1_655
O10 Zn2 1.958394 1_555
O11 P3 1.539639 1_555
O11 Zn3 1.958394 1_556
O12 P4 1.539639 1_655
O12 Zn4 1.958394 1_556
O13 P5 1.539639 1_555
O13 Zn5 1.958394 1_555
O14 P6 1.539639 1_455
O14 Zn6 1.958394 1_555
O15 P7 1.539639 1_555
O15 Zn7 1.958394 1_554
O16 P0 1.594552 1_555
O16 Zn0 1.996700 1_554
O16 Zn3 2.007120 1_555
O17 P1 1.594552 1_555
O17 Zn1 1.996700 1_655
O17 Zn2 2.007120 1_555
O18 P2 1.594552 1_555
O18 Zn2 1.996700 1_555
O18 Zn1 2.007120 1_555
O19 P3 1.594552 1_555
O19 Zn3 1.996700 1_456
O19 Zn0 2.007120 1_555
O20 P4 1.594552 1_555
O20 Zn4 1.996700 1_556
O20 Zn7 2.007120 1_555
O21 P5 1.594552 1_555
O21 Zn5 1.996700 1_455
O21 Zn6 2.007120 1_555
O22 P6 1.594552 1_555
O22 Zn6 1.996700 1_555
O22 Zn5 2.007120 1_555
O23 P7 1.594552 1_555
O23 Zn7 1.996700 1_654
O23 Zn4 2.007120 1_555
O24 P7 1.534297 1_565
O24 Zn3 1.907289 1_555
O25 P6 1.534297 1_555
O25 Zn2 1.907289 1_555
O26 P5 1.534297 1_545
O26 Zn1 1.907289 1_555
O27 P4 1.534297 1_555
O27 Zn0 1.907289 1_555
O28 P3 1.534297 1_545
O28 Zn7 1.907289 1_555
O29 P2 1.534297 1_555
O29 Zn6 1.907289 1_555
O30 P1 1.534297 1_565
O30 Zn5 1.907289 1_555
O31 P0 1.534297 1_555
O31 Zn4 1.907289 1_555
O32 Zn8 2.204581 1_555
O33 Zn9 2.204581 1_555
O34 Zn10 2.204581 1_555
O35 Zn11 2.204581 1_555
O36 Zn8 2.206109 1_555
O37 Zn9 2.206109 1_455
O38 Zn10 2.206109 1_555
O39 Zn11 2.206109 1_655
O40 Zn8 2.108037 1_555
O41 Zn9 2.108037 1_455
O42 Zn10 2.108037 1_555
O43 Zn11 2.108037 1_655
O44 Zn10 2.108037 1_555
O45 Zn11 2.108037 1_655
O46 Zn8 2.108037 1_555
O47 Zn9 2.108037 1_455
