# generated using pymatgen
data_BaH3IO6
_symmetry_space_group_name_H-M   'P 1'
_cell_length_a   5.12217109
_cell_length_b   5.07693766
_cell_length_c   5.08668018
_cell_angle_alpha   96.04897294
_cell_angle_beta   97.99410631
_cell_angle_gamma   99.96934433
_symmetry_Int_Tables_number   1
_chemical_formula_structural   BaH3IO6
_chemical_formula_sum   'Ba1 H3 I1 O6'
_cell_volume   127.87397833
_cell_formula_units_Z   1
loop_
 _symmetry_equiv_pos_site_id
 _symmetry_equiv_pos_as_xyz
  1  'x, y, z'
loop_
 _atom_site_type_symbol
 _atom_site_label
 _atom_site_symmetry_multiplicity
 _atom_site_fract_x
 _atom_site_fract_y
 _atom_site_fract_z
 _atom_site_occupancy
  Ba  Ba0  1  0.00351400  0.00224800  0.00297900  1
  H  H0  1  0.38162200  0.64979100  0.94294300  1
  H  H1  1  0.93510600  0.39902500  0.64636800  1
  H  H2  1  0.61206600  0.06248300  0.35387400  1
  I  I0  1  0.48808000  0.50777600  0.48821200  1
  O  O0  1  0.43926000  0.75879100  0.79529000  1
  O  O1  1  0.78438600  0.42036400  0.74991100  1
  O  O2  1  0.74824400  0.78949600  0.42815000  1
  O  O3  1  0.22352700  0.25576900  0.58410400  1
  O  O4  1  0.24826300  0.57085500  0.20299800  1
  O  O5  1  0.57593200  0.21340200  0.24517200  1
loop_
_geom_bond_atom_site_label_1
_geom_bond_atom_site_label_2
_geom_bond_distance
_geom_bond_site_symmetry_2
Ba0 O3 2.865326 1_554
Ba0 H0 2.880179 1_544
Ba0 H1 2.882505 1_454
Ba0 O2 2.888513 1_445
Ba0 H2 2.896950 1_455
Ba0 O1 2.902057 1_454
Ba0 O4 2.910175 1_545
Ba0 O0 2.938663 1_444
Ba0 O4 2.951859 1_555
Ba0 O5 2.957829 1_455
Ba0 O5 2.982007 1_555
Ba0 O0 2.993547 1_544
Ba0 O2 3.034455 1_444
Ba0 O1 3.048391 1_444
Ba0 O3 3.071469 1_555
H0 O0 1.024792 1_555
H0 O4 1.626447 1_556
H1 O1 1.007558 1_555
H2 O5 1.018326 1_555
H2 O2 1.709355 1_545
I0 O3 1.850996 1_555
I0 O4 1.858689 1_555
I0 O2 1.860178 1_555
I0 O0 1.981392 1_555
I0 O5 1.990634 1_555
I0 O1 2.016991 1_555
