# generated using pymatgen
data_ZrSn
_symmetry_space_group_name_H-M   'P 1'
_cell_length_a   5.31982600
_cell_length_b   5.48177500
_cell_length_c   9.60162400
_cell_angle_alpha   90.00000000
_cell_angle_beta   90.00000000
_cell_angle_gamma   90.00000000
_symmetry_Int_Tables_number   1
_chemical_formula_structural   ZrSn
_chemical_formula_sum   'Zr6 Sn6'
_cell_volume   280.00341528
_cell_formula_units_Z   6
loop_
 _symmetry_equiv_pos_site_id
 _symmetry_equiv_pos_as_xyz
  1  'x, y, z'
loop_
 _atom_site_type_symbol
 _atom_site_label
 _atom_site_symmetry_multiplicity
 _atom_site_fract_x
 _atom_site_fract_y
 _atom_site_fract_z
 _atom_site_occupancy
  Zr  Zr0  1  0.00000000  0.94750200  0.92014800  1
  Zr  Zr1  1  0.00000000  0.00899400  0.58891000  1
  Zr  Zr2  1  0.50000000  0.37421200  0.90499700  1
  Zr  Zr3  1  0.00000000  0.50899400  0.41109000  1
  Zr  Zr4  1  0.00000000  0.44750200  0.07985200  1
  Zr  Zr5  1  0.50000000  0.87421200  0.09500300  1
  Sn  Sn0  1  0.00000000  0.98292500  0.24766100  1
  Sn  Sn1  1  0.50000000  0.31805600  0.56201200  1
  Sn  Sn2  1  0.50000000  0.36837100  0.22403800  1
  Sn  Sn3  1  0.00000000  0.48292500  0.75233900  1
  Sn  Sn4  1  0.50000000  0.86837100  0.77596200  1
  Sn  Sn5  1  0.50000000  0.81805600  0.43798800  1
loop_
_geom_bond_atom_site_label_1
_geom_bond_atom_site_label_2
_geom_bond_distance
_geom_bond_site_symmetry_2
Zr0 Zr1 3.198236 1_565
Zr1 Zr3 3.229171 1_555
Zr1 Zr3 3.229171 1_545
Zr3 Zr4 3.198236 1_555
Sn0 Zr4 3.013603 1_565
Sn0 Zr3 3.035104 1_555
Sn0 Zr5 3.094955 1_455
Sn0 Zr5 3.094955 1_555
Sn0 Zr0 3.150646 1_554
Sn0 Zr1 3.279659 1_565
Sn0 Zr3 3.283077 1_565
Sn0 Zr4 3.348241 1_555
Sn0 Sn5 3.351345 1_555
Sn0 Sn5 3.351345 1_455
Sn1 Sn5 2.988402 1_555
Sn1 Sn5 2.988402 1_545
Sn1 Zr1 3.164203 1_655
Sn1 Zr1 3.164203 1_555
Sn1 Zr3 3.204771 1_555
Sn1 Zr3 3.204771 1_655
Sn1 Sn4 3.208831 1_545
Sn1 Sn2 3.256800 1_555
Sn1 Zr2 3.307569 1_555
Sn1 Sn3 3.351345 1_655
Sn1 Sn3 3.351345 1_555
Sn2 Zr5 2.978750 1_545
Sn2 Zr4 3.029838 1_655
Sn2 Zr4 3.029838 1_555
Sn2 Zr5 3.037103 1_555
Sn2 Zr2 3.063479 1_554
Sn2 Sn5 3.208831 1_555
Sn2 Zr3 3.300757 1_555
Sn2 Zr3 3.300757 1_655
Sn3 Zr0 3.013603 1_555
Sn3 Zr1 3.035104 1_555
Sn3 Zr2 3.094955 1_555
Sn3 Zr2 3.094955 1_455
Sn3 Zr4 3.150646 1_556
Sn3 Zr3 3.279659 1_555
Sn3 Zr1 3.283077 1_565
Sn3 Zr0 3.348241 1_545
Sn4 Zr2 2.978750 1_555
Sn4 Zr0 3.029838 1_555
Sn4 Zr0 3.029838 1_655
Sn4 Zr2 3.037103 1_565
Sn4 Zr5 3.063479 1_556
Sn4 Sn5 3.256800 1_555
Sn4 Zr1 3.300757 1_565
Sn4 Zr1 3.300757 1_665
Sn5 Zr3 3.164203 1_555
Sn5 Zr3 3.164203 1_655
Sn5 Zr1 3.204771 1_565
Sn5 Zr1 3.204771 1_665
Sn5 Zr5 3.307569 1_555
