# generated using pymatgen
data_Be2P2PbO8
_symmetry_space_group_name_H-M   'P 1'
_cell_length_a   9.12496000
_cell_length_b   8.17879200
_cell_length_c   8.49386858
_cell_angle_alpha   89.89024316
_cell_angle_beta   90.00000000
_cell_angle_gamma   90.00000000
_symmetry_Int_Tables_number   1
_chemical_formula_structural   Be2P2PbO8
_chemical_formula_sum   'Be8 P8 Pb4 O32'
_cell_volume   633.90601603
_cell_formula_units_Z   4
loop_
 _symmetry_equiv_pos_site_id
 _symmetry_equiv_pos_as_xyz
  1  'x, y, z'
loop_
 _atom_site_type_symbol
 _atom_site_label
 _atom_site_symmetry_multiplicity
 _atom_site_fract_x
 _atom_site_fract_y
 _atom_site_fract_z
 _atom_site_occupancy
  Be  Be0  1  0.19368900  0.42345400  0.06405700  1
  Be  Be1  1  0.69368900  0.57654600  0.43594300  1
  Be  Be2  1  0.80631100  0.57654600  0.93594300  1
  Be  Be3  1  0.30631100  0.42345400  0.56405700  1
  Be  Be4  1  0.41824400  0.92760600  0.27331400  1
  Be  Be5  1  0.91824400  0.07239400  0.22668600  1
  Be  Be6  1  0.58175600  0.07239400  0.72668600  1
  Be  Be7  1  0.08175600  0.92760600  0.77331400  1
  P  P0  1  0.91329000  0.43613100  0.23128500  1
  P  P1  1  0.41329000  0.56386900  0.26871500  1
  P  P2  1  0.08671000  0.56386900  0.76871500  1
  P  P3  1  0.58671000  0.43613100  0.73128500  1
  P  P4  1  0.19680400  0.06611900  0.06751500  1
  P  P5  1  0.69680400  0.93388100  0.43248500  1
  P  P6  1  0.80319600  0.93388100  0.93248500  1
  P  P7  1  0.30319600  0.06611900  0.56751500  1
  Pb  Pb0  1  0.59274600  0.24366900  0.10607400  1
  Pb  Pb1  1  0.09274600  0.75633100  0.39392600  1
  Pb  Pb2  1  0.40725400  0.75633100  0.89392600  1
  Pb  Pb3  1  0.90725400  0.24366900  0.60607400  1
  O  O0  1  0.07321700  0.48255600  0.19633400  1
  O  O1  1  0.57321700  0.51744400  0.30366600  1
  O  O2  1  0.92678300  0.51744400  0.80366600  1
  O  O3  1  0.42678300  0.48255600  0.69633400  1
  O  O4  1  0.81542100  0.44489000  0.08309700  1
  O  O5  1  0.31542100  0.55511000  0.41690300  1
  O  O6  1  0.18457900  0.55511000  0.91690300  1
  O  O7  1  0.68457900  0.44489000  0.58309700  1
  O  O8  1  0.89810800  0.25865400  0.29950900  1
  O  O9  1  0.39810800  0.74134600  0.20049100  1
  O  O10  1  0.10189200  0.74134600  0.70049100  1
  O  O11  1  0.60189200  0.25865400  0.79950900  1
  O  O12  1  0.36073500  0.44618800  0.13675500  1
  O  O13  1  0.86073500  0.55381200  0.36324500  1
  O  O14  1  0.63926500  0.55381200  0.86324500  1
  O  O15  1  0.13926500  0.44618800  0.63675500  1
  O  O16  1  0.35705700  0.04637200  0.13035500  1
  O  O17  1  0.85705700  0.95362800  0.36964500  1
  O  O18  1  0.64294300  0.95362800  0.86964500  1
  O  O19  1  0.14294300  0.04637200  0.63035500  1
  O  O20  1  0.82067500  0.06219600  0.06705700  1
  O  O21  1  0.32067500  0.93780400  0.43294300  1
  O  O22  1  0.17932500  0.93780400  0.93294300  1
  O  O23  1  0.67932500  0.06219600  0.56705700  1
  O  O24  1  0.58801000  0.97971200  0.29782700  1
  O  O25  1  0.08801000  0.02028800  0.20217300  1
  O  O26  1  0.41199000  0.02028800  0.70217300  1
  O  O27  1  0.91199000  0.97971200  0.79782700  1
  O  O28  1  0.16922400  0.23855100  0.00499000  1
  O  O29  1  0.66922400  0.76144900  0.49501000  1
  O  O30  1  0.83077600  0.76144900  0.99501000  1
  O  O31  1  0.33077600  0.23855100  0.50499000  1
loop_
_geom_bond_atom_site_label_1
_geom_bond_atom_site_label_2
_geom_bond_distance
_geom_bond_site_symmetry_2
Be0 O28 1.609800 1_555
Be0 O0 1.645161 1_555
Be0 O6 1.650300 1_554
Be0 O12 1.655221 1_555
Be1 O29 1.609800 1_555
Be1 O1 1.645161 1_555
Be1 O7 1.650300 1_555
Be1 O13 1.655221 1_555
Be2 O30 1.609800 1_555
Be2 O2 1.645161 1_555
Be2 O4 1.650300 1_556
Be2 O14 1.655221 1_555
Be3 O31 1.609800 1_555
Be3 O3 1.645161 1_555
Be3 O5 1.650300 1_555
Be3 O15 1.655221 1_555
Be4 O24 1.620198 1_555
Be4 O21 1.624323 1_555
Be4 O16 1.650824 1_565
Be4 O9 1.655496 1_555
Be5 O25 1.620198 1_655
Be5 O20 1.624323 1_555
Be5 O17 1.650824 1_545
Be5 O8 1.655496 1_555
Be6 O26 1.620198 1_555
Be6 O23 1.624323 1_555
Be6 O18 1.650824 1_545
Be6 O11 1.655496 1_555
Be7 O27 1.620198 1_455
Be7 O22 1.624323 1_555
Be7 O19 1.650824 1_565
Be7 O10 1.655496 1_555
O0 P0 1.536720 1_455
O0 Pb1 2.806546 1_555
O1 P1 1.536720 1_555
O1 Pb0 2.806546 1_555
O2 P2 1.536720 1_655
O2 Pb3 2.806546 1_555
O3 P3 1.536720 1_555
O3 Pb2 2.806546 1_555
O4 P0 1.544871 1_555
O4 Pb0 2.621823 1_555
O5 P1 1.544871 1_555
O5 Pb1 2.621823 1_555
O6 P2 1.544871 1_555
O6 Pb2 2.621823 1_555
O7 P3 1.544871 1_555
O7 Pb3 2.621823 1_555
O8 P0 1.568044 1_555
O8 Pb3 2.607907 1_555
O9 P1 1.568044 1_555
O9 Pb2 2.607907 1_554
O10 P2 1.568044 1_555
O10 Pb1 2.607907 1_555
O11 P3 1.568044 1_555
O11 Pb0 2.607907 1_556
O12 P1 1.554607 1_555
O12 Pb0 2.700958 1_555
O13 P0 1.554607 1_555
O13 Pb1 2.700958 1_655
O14 P3 1.554607 1_555
O14 Pb2 2.700958 1_555
O15 P2 1.554607 1_555
O15 Pb3 2.700958 1_455
O16 P4 1.564920 1_555
O16 Pb0 2.696375 1_555
O17 P5 1.564920 1_555
O17 Pb1 2.696375 1_655
O18 P6 1.564920 1_555
O18 Pb2 2.696375 1_555
O19 P7 1.564920 1_555
O19 Pb3 2.696375 1_455
O20 P6 1.561390 1_544
O20 Pb0 2.576897 1_555
O21 P7 1.561390 1_565
O21 Pb1 2.576897 1_555
O22 P4 1.561390 1_566
O22 Pb2 2.576897 1_555
O23 P5 1.561390 1_545
O23 Pb3 2.576897 1_555
O24 P5 1.559680 1_555
O24 Pb0 2.702179 1_565
O25 P4 1.559680 1_555
O25 Pb1 2.702179 1_545
O26 P7 1.559680 1_555
O26 Pb2 2.702179 1_545
O27 P6 1.559680 1_555
O27 Pb3 2.702179 1_565
O28 P4 1.526898 1_555
O29 P5 1.526898 1_555
O30 P6 1.526898 1_555
O31 P7 1.526898 1_555
