# generated using pymatgen
data_Li4V3P8O29
_symmetry_space_group_name_H-M   'P 1'
_cell_length_a   9.80098800
_cell_length_b   9.81006768
_cell_length_c   14.07767634
_cell_angle_alpha   89.82051716
_cell_angle_beta   89.80095751
_cell_angle_gamma   60.10872077
_symmetry_Int_Tables_number   1
_chemical_formula_structural   Li4V3P8O29
_chemical_formula_sum   'Li8 V6 P16 O58'
_cell_volume   1173.47820343
_cell_formula_units_Z   2
loop_
 _symmetry_equiv_pos_site_id
 _symmetry_equiv_pos_as_xyz
  1  'x, y, z'
loop_
 _atom_site_type_symbol
 _atom_site_label
 _atom_site_symmetry_multiplicity
 _atom_site_fract_x
 _atom_site_fract_y
 _atom_site_fract_z
 _atom_site_occupancy
  Li  Li0  1  0.77475100  0.91317700  0.55889300  1
  Li  Li1  1  0.91416000  0.77568600  0.05859700  1
  Li  Li2  1  0.77023300  0.32498900  0.06108700  1
  Li  Li3  1  0.09361200  0.68020000  0.44383800  1
  Li  Li4  1  0.90477800  0.32019100  0.55856500  1
  Li  Li5  1  0.09677700  0.22334500  0.94143500  1
  Li  Li6  1  0.22881900  0.08844800  0.43824000  1
  Li  Li7  1  0.68050100  0.09204400  0.94210500  1
  V  V0  1  0.99906800  0.56783100  0.24780200  1
  V  V1  1  0.99927500  0.43321300  0.75178400  1
  V  V2  1  0.43054700  0.56990500  0.74888700  1
  V  V3  1  0.56117400  0.43458100  0.25322400  1
  V  V4  1  0.43261600  0.99686200  0.24831800  1
  V  V5  1  0.56259600  0.00037200  0.74988700  1
  P  P0  1  0.31362800  0.91217200  0.83964000  1
  P  P1  1  0.31374000  0.76963700  0.34182600  1
  P  P2  1  0.76819500  0.91187700  0.34173200  1
  P  P3  1  0.66682800  0.66352400  0.12875200  1
  P  P4  1  0.66640800  0.66635800  0.62902900  1
  P  P5  1  0.90942600  0.76968300  0.84190200  1
  P  P6  1  0.08875100  0.67971700  0.66077700  1
  P  P7  1  0.76596500  0.31951500  0.84281500  1
  P  P8  1  0.23136100  0.68636500  0.15504000  1
  P  P9  1  0.90915200  0.31979500  0.33974100  1
  P  P10  1  0.08975400  0.22914200  0.15944200  1
  P  P11  1  0.32874000  0.33459200  0.37100600  1
  P  P12  1  0.33569200  0.33274900  0.87075700  1
  P  P13  1  0.22886800  0.08825600  0.65648400  1
  P  P14  1  0.68323000  0.23105700  0.65922400  1
  P  P15  1  0.67996000  0.08956400  0.16014500  1
  O  O0  1  0.24172100  0.01033500  0.56424500  1
  O  O1  1  0.33574300  0.91465900  0.34046400  1
  O  O2  1  0.23384200  0.76282800  0.06600800  1
  O  O3  1  0.34309900  0.74291700  0.83451700  1
  O  O4  1  0.47546500  0.90604100  0.82156400  1
  O  O5  1  0.52243600  0.80656600  0.17252900  1
  O  O6  1  0.61643700  0.90512800  0.32317200  1
  O  O7  1  0.76101300  0.00295500  0.07059600  1
  O  O8  1  0.74124700  0.91884400  0.83538900  1
  O  O9  1  0.51909900  0.66643700  0.67492100  1
  O  O10  1  0.47687500  0.61742500  0.32243900  1
  O  O11  1  0.66685600  0.81850900  0.67102100  1
  O  O12  1  0.68462600  0.65637600  0.02349700  1
  O  O13  1  0.66509900  0.67313800  0.52347600  1
  O  O14  1  0.82025900  0.66544100  0.17158500  1
  O  O15  1  0.61701100  0.47853500  0.82314000  1
  O  O16  1  0.67256500  0.50983600  0.16925300  1
  O  O17  1  0.91609600  0.74255300  0.33571500  1
  O  O18  1  0.99803500  0.79068100  0.75075000  1
  O  O19  1  0.00233200  0.75925900  0.57130400  1
  O  O20  1  0.98630700  0.76762300  0.93269000  1
  O  O21  1  0.89887300  0.62007900  0.82308000  1
  O  O22  1  0.81364200  0.51496600  0.66809500  1
  O  O23  1  0.08553400  0.65930300  0.16319600  1
  O  O24  1  0.90357900  0.47864700  0.32107400  1
  O  O25  1  0.74204000  0.34395100  0.33486700  1
  O  O26  1  0.20969600  0.79035100  0.24869000  1
  O  O27  1  0.23504000  0.75521600  0.42819800  1
  O  O28  1  0.77074200  0.23510400  0.57418200  1
  O  O29  1  0.25550200  0.65964200  0.66659900  1
  O  O30  1  0.09935400  0.51987400  0.67659700  1
  O  O31  1  0.91488400  0.33633100  0.84145700  1
  O  O32  1  0.18020600  0.48749400  0.32799900  1
  O  O33  1  0.09676200  0.38191300  0.17806000  1
  O  O34  1  0.00080100  0.24407200  0.06993300  1
  O  O35  1  0.99671700  0.24501800  0.42948300  1
  O  O36  1  0.99917400  0.20891500  0.24983100  1
  O  O37  1  0.08254500  0.25510700  0.66274000  1
  O  O38  1  0.33787500  0.47746000  0.82397100  1
  O  O39  1  0.38369700  0.52515900  0.17723200  1
  O  O40  1  0.18757400  0.32720500  0.83397500  1
  O  O41  1  0.34768300  0.32596100  0.97617900  1
  O  O42  1  0.32570100  0.34667400  0.47634400  1
  O  O43  1  0.32626100  0.18630100  0.33412700  1
  O  O44  1  0.52424000  0.38366800  0.67578600  1
  O  O45  1  0.47734000  0.33597300  0.32466800  1
  O  O46  1  0.25573900  0.08678100  0.16399700  1
  O  O47  1  0.21092300  0.99468300  0.74484100  1
  O  O48  1  0.23291300  0.00464900  0.92517300  1
  O  O49  1  0.38034600  0.09813600  0.67938900  1
  O  O50  1  0.48863700  0.18076600  0.82828500  1
  O  O51  1  0.51998700  0.10329900  0.17692500  1
  O  O52  1  0.66464900  0.25539400  0.16272400  1
  O  O53  1  0.75458700  0.24458300  0.93370400  1
  O  O54  1  0.78620900  0.20662000  0.75491800  1
  O  O55  1  0.65909800  0.08537000  0.66102000  1
  O  O56  1  0.76743200  0.98776700  0.43285000  1
  O  O57  1  0.79098100  0.99937000  0.25055800  1
loop_
_geom_bond_atom_site_label_1
_geom_bond_atom_site_label_2
_geom_bond_distance
_geom_bond_site_symmetry_2
Li0 O56 1.905120 1_555
Li0 O19 1.982383 1_655
Li0 O55 2.073831 1_565
Li0 O11 2.330338 1_555
Li1 O20 1.893242 1_554
Li1 O7 1.979241 1_565
Li1 O23 2.094821 1_655
Li1 O14 2.349002 1_555
Li2 O34 1.991408 1_655
Li2 O53 1.998200 1_554
Li2 O52 2.066880 1_555
Li2 O16 2.190968 1_555
Li3 O27 1.877497 1_555
Li3 O19 1.981878 1_555
Li3 O17 2.160986 1_455
Li3 O32 2.316030 1_555
Li4 O28 1.886962 1_555
Li4 O35 1.998154 1_555
Li4 O37 2.120639 1_655
Li4 O22 2.265866 1_555
Li5 O48 1.892965 1_555
Li5 O34 1.999585 1_556
Li5 O31 2.103758 1_455
Li5 O40 2.236796 1_555
Li6 O0 1.909510 1_555
Li6 O35 2.016786 1_455
Li6 O1 2.030613 1_545
Li6 O43 2.208388 1_555
Li7 O53 1.965144 1_555
Li7 O7 1.992758 1_556
Li7 O8 2.121290 1_545
Li7 O50 2.289537 1_555
O0 P13 1.481697 1_555
O1 P1 1.541581 1_555
O1 V4 1.995626 1_555
O2 P8 1.465009 1_555
O3 P0 1.538881 1_555
O3 V2 1.903726 1_555
O4 P0 1.576860 1_555
O4 V5 1.838372 1_565
O5 P3 1.540029 1_555
O5 V4 1.940689 1_555
O6 P2 1.544638 1_555
O6 V4 1.886110 1_555
O7 P15 1.506385 1_555
O8 P5 1.569312 1_555
O8 V5 1.940915 1_565
O9 P4 1.579327 1_555
O9 V2 1.881753 1_555
O10 P1 1.574959 1_555
O10 V3 1.837852 1_555
O11 P4 1.609175 1_555
O11 V5 1.909779 1_565
O12 P3 1.489154 1_555
O13 P4 1.487035 1_555
O14 P3 1.630904 1_555
O14 V0 1.863720 1_555
O15 P7 1.540053 1_555
O15 V2 1.900176 1_555
O16 P3 1.584839 1_555
O16 V3 1.980713 1_555
O17 P2 1.570897 1_555
O17 V0 1.935954 1_555
O18 P5 1.616224 1_555
O18 P6 1.617384 1_655
O19 P6 1.501770 1_555
O20 P5 1.480890 1_555
O21 P5 1.545560 1_555
O21 V1 1.882260 1_555
O22 P4 1.566788 1_555
O22 V1 1.973835 1_555
O23 P8 1.582173 1_555
O23 V0 1.919966 1_455
O24 P9 1.553444 1_555
O24 V0 1.873254 1_555
O25 P9 1.535345 1_555
O25 V3 1.921117 1_555
O26 P1 1.612861 1_555
O26 P8 1.616913 1_555
O27 P1 1.481418 1_555
O28 P14 1.482233 1_555
O29 P6 1.548079 1_555
O29 V2 1.887415 1_555
O30 P6 1.534535 1_555
O30 V1 1.903549 1_455
O31 P7 1.548434 1_555
O31 V1 1.987407 1_555
O32 P11 1.599926 1_555
O32 V0 1.913459 1_455
O33 P10 1.557139 1_555
O33 V0 1.863148 1_455
O34 P10 1.499513 1_555
O35 P9 1.498325 1_555
O36 P9 1.614931 1_555
O36 P10 1.616427 1_655
O37 P13 1.550475 1_555
O37 V1 1.968646 1_455
O38 P12 1.572868 1_555
O38 V2 1.890241 1_555
O39 P8 1.573050 1_555
O39 V3 1.850980 1_555
O40 P12 1.569272 1_555
O40 V1 1.980044 1_455
O41 P12 1.487811 1_555
O42 P11 1.487026 1_555
O43 P11 1.557710 1_555
O43 V4 2.018416 1_545
O44 P14 1.548658 1_555
O44 V2 1.890297 1_555
O45 P11 1.599972 1_555
O45 V3 1.844676 1_555
O46 P10 1.528635 1_555
O46 V4 1.917295 1_545
O47 P13 1.604062 1_565
O47 P0 1.624787 1_555
O48 P0 1.477707 1_545
O49 P13 1.569857 1_555
O49 V5 1.842350 1_555
O50 P12 1.612215 1_555
O50 V5 1.898255 1_555
O51 P15 1.522927 1_555
O51 V4 1.926734 1_545
O52 P15 1.557992 1_555
O52 V3 1.992448 1_555
O53 P7 1.504907 1_555
O54 P7 1.607770 1_555
O54 P14 1.630098 1_555
O55 P14 1.560718 1_555
O55 V5 1.981478 1_555
O56 P2 1.483266 1_555
O57 P2 1.617452 1_555
O57 P15 1.621688 1_565
