# generated using pymatgen
data_NaSrMg14
_symmetry_space_group_name_H-M   'P 1'
_cell_length_a   6.64318730
_cell_length_b   6.49694126
_cell_length_c   10.70006293
_cell_angle_alpha   90.00000000
_cell_angle_beta   90.00000000
_cell_angle_gamma   119.27440718
_symmetry_Int_Tables_number   1
_chemical_formula_structural   NaSrMg14
_chemical_formula_sum   'Na1 Sr1 Mg14'
_cell_volume   402.83904627
_cell_formula_units_Z   1
loop_
 _symmetry_equiv_pos_site_id
 _symmetry_equiv_pos_as_xyz
  1  'x, y, z'
loop_
 _atom_site_type_symbol
 _atom_site_label
 _atom_site_symmetry_multiplicity
 _atom_site_fract_x
 _atom_site_fract_y
 _atom_site_fract_z
 _atom_site_occupancy
  Na  Na0  1  0.16880757  0.33440329  0.12500000  1
  Sr  Sr0  1  0.16466197  0.83233049  0.12500000  1
  Mg  Mg0  1  0.16508012  0.33253956  0.62500000  1
  Mg  Mg1  1  0.16527503  0.83263701  0.62500000  1
  Mg  Mg2  1  0.66287025  0.33604623  0.12500000  1
  Mg  Mg3  1  0.66717930  0.33299985  0.62500000  1
  Mg  Mg4  1  0.66287025  0.82682302  0.12500000  1
  Mg  Mg5  1  0.66717930  0.83417845  0.62500000  1
  Mg  Mg6  1  0.34091109  0.17275755  0.39021319  1
  Mg  Mg7  1  0.34091109  0.17275755  0.85978681  1
  Mg  Mg8  1  0.34091109  0.66815454  0.39021319  1
  Mg  Mg9  1  0.34091109  0.66815454  0.85978681  1
  Mg  Mg10  1  0.83041368  0.16520734  0.37532098  1
  Mg  Mg11  1  0.83041368  0.16520734  0.87467902  1
  Mg  Mg12  1  0.82580225  0.66290162  0.38423734  1
  Mg  Mg13  1  0.82580225  0.66290162  0.86576266  1
loop_
_geom_bond_atom_site_label_1
_geom_bond_atom_site_label_2
_geom_bond_distance
_geom_bond_site_symmetry_2
Na0 Sr0 3.248559 1_545
Na0 Sr0 3.248559 1_555
Mg0 Mg7 3.152657 1_555
Mg0 Mg6 3.152657 1_555
Mg0 Mg8 3.152663 1_555
Mg0 Mg9 3.152663 1_555
Mg0 Mg1 3.248471 1_555
Mg0 Mg1 3.248471 1_545
Mg0 Mg10 3.301256 1_455
Mg0 Mg11 3.301256 1_455
Mg0 Mg5 3.309111 1_445
Mg0 Mg3 3.309112 1_455
Mg0 Mg5 3.334077 1_555
Mg0 Mg3 3.334078 1_555
Mg1 Mg8 3.167663 1_555
Mg1 Mg9 3.167663 1_555
Mg1 Mg7 3.167670 1_565
Mg1 Mg6 3.167670 1_565
Mg1 Mg12 3.241362 1_455
Mg1 Mg13 3.241362 1_455
Mg1 Mg3 3.313852 1_455
Mg1 Mg5 3.313852 1_455
Mg1 Mg3 3.329358 1_565
Mg1 Mg5 3.329358 1_555
Mg2 Mg4 3.188548 1_555
Mg2 Na0 3.276945 1_555
Mg2 Mg4 3.308393 1_545
Mg2 Sr0 3.316146 1_655
Mg2 Sr0 3.327334 1_545
Mg2 Na0 3.366269 1_655
Mg2 Mg7 3.396186 1_554
Mg2 Mg6 3.396186 1_555
Mg3 Mg7 3.144237 1_555
Mg3 Mg6 3.144237 1_555
Mg3 Mg5 3.240813 1_545
Mg3 Mg5 3.256128 1_555
Mg4 Na0 3.276944 1_555
Mg4 Sr0 3.316146 1_655
Mg4 Sr0 3.327334 1_555
Mg4 Na0 3.366269 1_665
Mg4 Mg8 3.396186 1_555
Mg4 Mg9 3.396186 1_554
Mg5 Mg9 3.144237 1_555
Mg5 Mg8 3.144237 1_555
Mg6 Mg8 3.218565 1_555
Mg6 Mg8 3.278376 1_545
Mg6 Na0 3.411374 1_555
Mg6 Sr0 3.432660 1_545
Mg7 Mg9 3.218565 1_555
Mg7 Mg9 3.278376 1_545
Mg7 Na0 3.411374 1_556
Mg7 Sr0 3.432660 1_546
Mg8 Na0 3.411380 1_555
Mg8 Sr0 3.432654 1_555
Mg9 Na0 3.411380 1_556
Mg9 Sr0 3.432654 1_556
Mg10 Mg12 3.249981 1_555
Mg10 Mg12 3.249981 1_545
Mg10 Mg3 3.264626 1_555
Mg10 Mg5 3.264632 1_545
Mg10 Mg8 3.279996 1_545
Mg10 Mg6 3.279996 1_555
Mg10 Mg2 3.294395 1_555
Mg10 Mg4 3.294402 1_545
Mg10 Na0 3.319531 1_655
Mg10 Mg8 3.371383 1_655
Mg10 Mg6 3.371383 1_655
Mg11 Mg13 3.249981 1_555
Mg11 Mg13 3.249981 1_545
Mg11 Mg3 3.264626 1_555
Mg11 Mg5 3.264632 1_545
Mg11 Mg9 3.279996 1_545
Mg11 Mg7 3.279996 1_555
Mg11 Mg2 3.294395 1_556
Mg11 Mg4 3.294402 1_546
Mg11 Na0 3.319531 1_656
Mg11 Mg9 3.371383 1_655
Mg11 Mg7 3.371383 1_655
Mg12 Mg5 3.183104 1_555
Mg12 Mg3 3.183111 1_555
Mg12 Mg6 3.238679 1_555
Mg12 Mg8 3.238679 1_555
Mg12 Mg4 3.335775 1_555
Mg12 Mg2 3.335781 1_555
Mg12 Sr0 3.398538 1_655
Mg12 Mg6 3.406006 1_665
Mg12 Mg8 3.406007 1_655
Mg13 Mg5 3.183104 1_555
Mg13 Mg3 3.183111 1_555
Mg13 Mg7 3.238679 1_555
Mg13 Mg9 3.238679 1_555
Mg13 Mg4 3.335775 1_556
Mg13 Mg2 3.335781 1_556
Mg13 Sr0 3.398538 1_656
Mg13 Mg7 3.406006 1_665
Mg13 Mg9 3.406007 1_655
