# generated using pymatgen
data_BaLiCoF6
_symmetry_space_group_name_H-M   'P 1'
_cell_length_a   10.34935200
_cell_length_b   5.62837100
_cell_length_c   8.54480610
_cell_angle_alpha   88.75843035
_cell_angle_beta   90.00000000
_cell_angle_gamma   90.00000000
_symmetry_Int_Tables_number   1
_chemical_formula_structural   BaLiCoF6
_chemical_formula_sum   'Ba4 Li4 Co4 F24'
_cell_volume   497.61803734
_cell_formula_units_Z   4
loop_
 _symmetry_equiv_pos_site_id
 _symmetry_equiv_pos_as_xyz
  1  'x, y, z'
loop_
 _atom_site_type_symbol
 _atom_site_label
 _atom_site_symmetry_multiplicity
 _atom_site_fract_x
 _atom_site_fract_y
 _atom_site_fract_z
 _atom_site_occupancy
  Ba  Ba0  1  0.79913500  0.31559900  0.00330800  1
  Ba  Ba1  1  0.70086500  0.31559900  0.50330800  1
  Ba  Ba2  1  0.20086500  0.68440100  0.99669200  1
  Ba  Ba3  1  0.29913500  0.68440100  0.49669200  1
  Li  Li0  1  0.42650600  0.23252500  0.80927700  1
  Li  Li1  1  0.92650600  0.76747500  0.69072300  1
  Li  Li2  1  0.57349400  0.76747500  0.19072300  1
  Li  Li3  1  0.07349400  0.23252500  0.30927700  1
  Co  Co0  1  0.58139600  0.77709000  0.76687500  1
  Co  Co1  1  0.91860400  0.77709000  0.26687500  1
  Co  Co2  1  0.41860400  0.22291000  0.23312500  1
  Co  Co3  1  0.08139600  0.22291000  0.73312500  1
  F  F0  1  0.00469400  0.51616000  0.81755500  1
  F  F1  1  0.86968600  0.10244900  0.31742200  1
  F  F2  1  0.36968600  0.89755100  0.18257800  1
  F  F3  1  0.13031400  0.89755100  0.68257800  1
  F  F4  1  0.63031400  0.10244900  0.81742200  1
  F  F5  1  0.59858900  0.10918600  0.21554800  1
  F  F6  1  0.09858900  0.89081400  0.28445200  1
  F  F7  1  0.40141100  0.89081400  0.78445200  1
  F  F8  1  0.50469400  0.48384000  0.68244500  1
  F  F9  1  0.24494900  0.37825100  0.25236600  1
  F  F10  1  0.49530600  0.51616000  0.31755500  1
  F  F11  1  0.99530600  0.48384000  0.18244500  1
  F  F12  1  0.75505100  0.62174900  0.74763400  1
  F  F13  1  0.25505100  0.37825100  0.75236600  1
  F  F14  1  0.60212300  0.86582300  0.55612900  1
  F  F15  1  0.74494900  0.62174900  0.24763400  1
  F  F16  1  0.90880000  0.67450500  0.47432300  1
  F  F17  1  0.10212300  0.13417700  0.94387100  1
  F  F18  1  0.39787700  0.13417700  0.44387100  1
  F  F19  1  0.89787700  0.86582300  0.05612900  1
  F  F20  1  0.59120000  0.67450500  0.97432300  1
  F  F21  1  0.09120000  0.32549500  0.52567700  1
  F  F22  1  0.40880000  0.32549500  0.02567700  1
  F  F23  1  0.90141100  0.10918600  0.71554800  1
loop_
_geom_bond_atom_site_label_1
_geom_bond_atom_site_label_2
_geom_bond_distance
_geom_bond_site_symmetry_2
Ba0 F4 2.664091 1_554
Ba0 F11 2.724771 1_555
Ba0 F19 2.758085 1_545
Ba0 F12 2.790525 1_554
Ba0 F15 2.792510 1_555
Ba0 F0 2.870842 1_654
Ba0 F23 2.939364 1_554
Ba0 F20 2.958269 1_554
Ba0 F5 2.975761 1_555
Ba0 F1 3.006148 1_555
Ba1 F1 2.664091 1_555
Ba1 F8 2.724771 1_555
Ba1 F14 2.758085 1_545
Ba1 F15 2.790525 1_555
Ba1 F12 2.792510 1_555
Ba1 F10 2.870842 1_555
Ba1 F5 2.939364 1_555
Ba1 F16 2.958269 1_555
Ba1 F23 2.975761 1_555
Ba1 F4 3.006148 1_555
Ba2 F2 2.664091 1_556
Ba2 F0 2.724771 1_555
Ba2 F17 2.758085 1_565
Ba2 F9 2.790525 1_556
Ba2 F13 2.792510 1_555
Ba2 F11 2.870842 1_456
Ba2 F6 2.939364 1_556
Ba2 F22 2.958269 1_556
Ba2 F7 2.975761 1_555
Ba2 F3 3.006148 1_555
Ba3 F3 2.664091 1_555
Ba3 F10 2.724771 1_555
Ba3 F18 2.758085 1_565
Ba3 F13 2.790525 1_555
Ba3 F9 2.792510 1_555
Ba3 F8 2.870842 1_555
Ba3 F7 2.939364 1_555
Ba3 F21 2.958269 1_555
Ba3 F6 2.975761 1_555
Ba3 F2 3.006148 1_555
Co0 F20 1.855111 1_555
Co0 F14 1.870638 1_555
Co0 F4 1.957186 1_565
Co0 F7 1.976407 1_555
Co0 F8 1.981523 1_555
Co0 F12 2.006908 1_555
Co1 F16 1.855111 1_555
Co1 F19 1.870638 1_555
Co1 F1 1.957186 1_565
Co1 F6 1.976407 1_655
Co1 F11 1.981523 1_555
Co1 F15 2.006908 1_555
Co2 F22 1.855111 1_555
Co2 F18 1.870638 1_555
Co2 F2 1.957186 1_545
Co2 F5 1.976407 1_555
Co2 F10 1.981523 1_555
Co2 F9 2.006908 1_555
Co3 F21 1.855111 1_555
Co3 F17 1.870638 1_555
Co3 F3 1.957186 1_545
Co3 F23 1.976407 1_455
Co3 F0 1.981523 1_555
Co3 F13 2.006908 1_555
F0 Li1 1.940021 1_455
F1 Li3 2.233315 1_655
F2 Li2 2.233315 1_555
F3 Li1 2.233315 1_455
F4 Li0 2.233315 1_555
F5 Li2 1.956814 1_545
F6 Li3 1.956814 1_565
F7 Li0 1.956814 1_565
F8 Li0 1.940021 1_555
F9 Li3 2.010122 1_555
F10 Li2 1.940021 1_555
F11 Li3 1.940021 1_655
F12 Li1 2.010122 1_555
F13 Li0 2.010122 1_555
F15 Li2 2.010122 1_555
F16 Li1 1.941256 1_555
F20 Li2 1.941256 1_556
F21 Li3 1.941256 1_555
F22 Li0 1.941256 1_554
F23 Li1 1.956814 1_545
