# generated using pymatgen
data_Yb5(Co2Ge5)2
_symmetry_space_group_name_H-M   'P 1'
_cell_length_a   12.75501800
_cell_length_b   12.75501800
_cell_length_c   4.22428600
_cell_angle_alpha   90.00000000
_cell_angle_beta   90.00000000
_cell_angle_gamma   90.00000000
_symmetry_Int_Tables_number   1
_chemical_formula_structural   Yb5(Co2Ge5)2
_chemical_formula_sum   'Yb10 Co8 Ge20'
_cell_volume   687.25113466
_cell_formula_units_Z   2
loop_
 _symmetry_equiv_pos_site_id
 _symmetry_equiv_pos_as_xyz
  1  'x, y, z'
loop_
 _atom_site_type_symbol
 _atom_site_label
 _atom_site_symmetry_multiplicity
 _atom_site_fract_x
 _atom_site_fract_y
 _atom_site_fract_z
 _atom_site_occupancy
  Yb  Yb0  1  0.50000000  0.50000000  0.00000000  1
  Yb  Yb1  1  0.00000000  0.00000000  0.00000000  1
  Yb  Yb2  1  0.67693400  0.17693400  0.50000000  1
  Yb  Yb3  1  0.32306600  0.82306600  0.50000000  1
  Yb  Yb4  1  0.17693400  0.32306600  0.50000000  1
  Yb  Yb5  1  0.82306600  0.67693400  0.50000000  1
  Yb  Yb6  1  0.10985800  0.60985800  0.50000000  1
  Yb  Yb7  1  0.89014200  0.39014200  0.50000000  1
  Yb  Yb8  1  0.60985800  0.89014200  0.50000000  1
  Yb  Yb9  1  0.39014200  0.10985800  0.50000000  1
  Co  Co0  1  0.74552600  0.52317500  0.00000000  1
  Co  Co1  1  0.25447400  0.47682500  0.00000000  1
  Co  Co2  1  0.24552600  0.97682500  0.00000000  1
  Co  Co3  1  0.75447400  0.02317500  0.00000000  1
  Co  Co4  1  0.47682500  0.74552600  0.00000000  1
  Co  Co5  1  0.52317500  0.25447400  0.00000000  1
  Co  Co6  1  0.02317500  0.24552600  0.00000000  1
  Co  Co7  1  0.97682500  0.75447400  0.00000000  1
  Ge  Ge0  1  0.56929400  0.06929400  0.00000000  1
  Ge  Ge1  1  0.43070600  0.93070600  0.00000000  1
  Ge  Ge2  1  0.06929400  0.43070600  0.00000000  1
  Ge  Ge3  1  0.93070600  0.56929400  0.00000000  1
  Ge  Ge4  1  0.65281300  0.69205000  0.00000000  1
  Ge  Ge5  1  0.34718700  0.30795000  0.00000000  1
  Ge  Ge6  1  0.15281300  0.80795000  0.00000000  1
  Ge  Ge7  1  0.84718700  0.19205000  0.00000000  1
  Ge  Ge8  1  0.30795000  0.65281300  0.00000000  1
  Ge  Ge9  1  0.69205000  0.34718700  0.00000000  1
  Ge  Ge10  1  0.19205000  0.15281300  0.00000000  1
  Ge  Ge11  1  0.80795000  0.84718700  0.00000000  1
  Ge  Ge12  1  0.66279300  0.50538300  0.50000000  1
  Ge  Ge13  1  0.33720700  0.49461700  0.50000000  1
  Ge  Ge14  1  0.16279300  0.99461700  0.50000000  1
  Ge  Ge15  1  0.83720700  0.00538300  0.50000000  1
  Ge  Ge16  1  0.49461700  0.66279300  0.50000000  1
  Ge  Ge17  1  0.50538300  0.33720700  0.50000000  1
  Ge  Ge18  1  0.00538300  0.16279300  0.50000000  1
  Ge  Ge19  1  0.99461700  0.83720700  0.50000000  1
loop_
_geom_bond_atom_site_label_1
_geom_bond_atom_site_label_2
_geom_bond_distance
_geom_bond_site_symmetry_2
Co0 Ge9 2.346073 1_555
Co0 Ge12 2.371966 1_554
Co0 Ge12 2.371966 1_555
Co0 Ge3 2.434124 1_555
Co0 Ge4 2.457269 1_555
Co0 Yb5 3.047231 1_554
Co0 Yb5 3.047231 1_555
Co0 Yb0 3.145608 1_555
Co0 Yb7 3.277634 1_554
Co0 Yb7 3.277634 1_555
Co1 Ge8 2.346073 1_555
Co1 Ge13 2.371966 1_554
Co1 Ge13 2.371966 1_555
Co1 Ge2 2.434124 1_555
Co1 Ge5 2.457269 1_555
Co1 Yb4 3.047231 1_554
Co1 Yb4 3.047231 1_555
Co1 Yb0 3.145608 1_555
Co1 Yb6 3.277634 1_555
Co1 Yb6 3.277634 1_554
Co2 Ge10 2.346073 1_565
Co2 Ge14 2.371966 1_555
Co2 Ge14 2.371966 1_554
Co2 Ge1 2.434124 1_555
Co2 Ge6 2.457269 1_555
Co2 Yb3 3.047231 1_554
Co2 Yb3 3.047231 1_555
Co2 Yb1 3.145608 1_565
Co2 Yb9 3.277634 1_565
Co2 Yb9 3.277634 1_564
Co3 Ge11 2.346073 1_545
Co3 Ge15 2.371966 1_555
Co3 Ge15 2.371966 1_554
Co3 Ge0 2.434124 1_555
Co3 Ge7 2.457269 1_555
Co3 Yb2 3.047231 1_554
Co3 Yb2 3.047231 1_555
Co3 Yb1 3.145608 1_655
Co3 Yb8 3.277634 1_544
Co3 Yb8 3.277634 1_545
Co4 Ge4 2.346073 1_555
Co4 Ge16 2.371966 1_555
Co4 Ge16 2.371966 1_554
Co4 Ge1 2.434124 1_555
Co4 Ge8 2.457269 1_555
Co4 Yb3 3.047231 1_555
Co4 Yb3 3.047231 1_554
Co4 Yb0 3.145608 1_555
Co4 Yb8 3.277634 1_555
Co4 Yb8 3.277634 1_554
Co5 Ge5 2.346073 1_555
Co5 Ge17 2.371966 1_555
Co5 Ge17 2.371966 1_554
Co5 Ge0 2.434124 1_555
Co5 Ge9 2.457269 1_555
Co5 Yb2 3.047231 1_555
Co5 Yb2 3.047231 1_554
Co5 Yb0 3.145608 1_555
Co5 Yb9 3.277634 1_554
Co5 Yb9 3.277634 1_555
Co6 Ge7 2.346073 1_455
Co6 Ge18 2.371966 1_554
Co6 Ge18 2.371966 1_555
Co6 Ge2 2.434124 1_555
Co6 Ge10 2.457269 1_555
Co6 Yb4 3.047231 1_554
Co6 Yb4 3.047231 1_555
Co6 Yb1 3.145608 1_555
Co6 Yb7 3.277634 1_455
Co6 Yb7 3.277634 1_454
Co7 Ge6 2.346073 1_655
Co7 Ge19 2.371966 1_555
Co7 Ge19 2.371966 1_554
Co7 Ge3 2.434124 1_555
Co7 Ge11 2.457269 1_555
Co7 Yb5 3.047231 1_554
Co7 Yb5 3.047231 1_555
Co7 Yb1 3.145608 1_665
Co7 Yb6 3.277634 1_654
Co7 Yb6 3.277634 1_655
Ge0 Ge1 2.499895 1_545
Ge0 Yb2 2.868995 1_555
Ge0 Yb2 2.868995 1_554
Ge0 Yb8 3.154436 1_544
Ge0 Yb9 3.154436 1_555
Ge0 Yb8 3.154436 1_545
Ge0 Yb9 3.154436 1_554
Ge1 Yb3 2.868995 1_554
Ge1 Yb3 2.868995 1_555
Ge1 Yb9 3.154436 1_565
Ge1 Yb9 3.154436 1_564
Ge1 Yb8 3.154436 1_554
Ge1 Yb8 3.154436 1_555
Ge2 Ge3 2.499895 1_455
Ge2 Yb4 2.868995 1_555
Ge2 Yb4 2.868995 1_554
Ge2 Yb7 3.154436 1_455
Ge2 Yb7 3.154436 1_454
Ge2 Yb6 3.154436 1_554
Ge2 Yb6 3.154436 1_555
Ge3 Yb5 2.868995 1_555
Ge3 Yb5 2.868995 1_554
Ge3 Yb6 3.154436 1_655
Ge3 Yb7 3.154436 1_555
Ge3 Yb7 3.154436 1_554
Ge3 Yb6 3.154436 1_654
Ge4 Yb5 3.035471 1_555
Ge4 Yb5 3.035471 1_554
Ge4 Yb0 3.130441 1_555
Ge4 Yb8 3.338470 1_554
Ge4 Yb8 3.338470 1_555
Ge5 Yb4 3.035471 1_554
Ge5 Yb4 3.035471 1_555
Ge5 Yb0 3.130441 1_555
Ge5 Yb9 3.338470 1_555
Ge5 Yb9 3.338470 1_554
Ge6 Ge8 2.798411 1_555
Ge6 Yb3 3.035471 1_554
Ge6 Yb3 3.035471 1_555
Ge6 Yb1 3.130441 1_565
Ge6 Yb6 3.338470 1_555
Ge6 Yb6 3.338470 1_554
Ge7 Ge9 2.798411 1_555
Ge7 Yb2 3.035471 1_554
Ge7 Yb2 3.035471 1_555
Ge7 Yb1 3.130441 1_655
Ge7 Yb7 3.338470 1_555
Ge7 Yb7 3.338470 1_554
Ge8 Yb3 3.035471 1_555
Ge8 Yb3 3.035471 1_554
Ge8 Yb0 3.130441 1_555
Ge8 Yb6 3.338470 1_555
Ge8 Yb6 3.338470 1_554
Ge9 Yb2 3.035471 1_555
Ge9 Yb2 3.035471 1_554
Ge9 Yb0 3.130441 1_555
Ge9 Yb7 3.338470 1_555
Ge9 Yb7 3.338470 1_554
Ge10 Ge5 2.798411 1_555
Ge10 Ge14 2.944808 1_544
Ge10 Ge14 2.944808 1_545
Ge10 Yb4 3.035471 1_554
Ge10 Yb4 3.035471 1_555
Ge10 Yb1 3.130441 1_555
Ge10 Yb9 3.338470 1_555
Ge10 Yb9 3.338470 1_554
Ge11 Ge4 2.798411 1_555
Ge11 Ge15 2.944808 1_564
Ge11 Ge15 2.944808 1_565
Ge11 Yb5 3.035471 1_554
Ge11 Yb5 3.035471 1_555
Ge11 Yb1 3.130441 1_665
Ge11 Yb8 3.338470 1_554
Ge11 Yb8 3.338470 1_555
Ge12 Ge17 2.938117 1_555
Ge12 Ge16 2.938117 1_555
Ge12 Ge9 2.944808 1_556
Ge12 Ge9 2.944808 1_555
Ge12 Yb0 2.962670 1_555
Ge12 Yb0 2.962670 1_556
Ge12 Yb5 2.994502 1_555
Ge12 Yb7 3.251105 1_555
Ge13 Ge16 2.938117 1_555
Ge13 Ge17 2.938117 1_555
Ge13 Ge8 2.944808 1_555
Ge13 Ge8 2.944808 1_556
Ge13 Yb0 2.962670 1_555
Ge13 Yb0 2.962670 1_556
Ge13 Yb4 2.994502 1_555
Ge13 Yb6 3.251105 1_555
Ge14 Ge19 2.938117 1_455
Ge14 Ge18 2.938117 1_565
Ge14 Yb1 2.962670 1_565
Ge14 Yb1 2.962670 1_566
Ge14 Yb3 2.994502 1_555
Ge14 Yb9 3.251105 1_565
Ge15 Ge18 2.938117 1_655
Ge15 Ge19 2.938117 1_545
Ge15 Yb1 2.962670 1_655
Ge15 Yb1 2.962670 1_656
Ge15 Yb2 2.994502 1_555
Ge15 Yb8 3.251105 1_545
Ge16 Ge4 2.944808 1_555
Ge16 Ge4 2.944808 1_556
Ge16 Yb0 2.962670 1_555
Ge16 Yb0 2.962670 1_556
Ge16 Yb3 2.994502 1_555
Ge16 Yb8 3.251105 1_555
Ge17 Ge5 2.944808 1_556
Ge17 Ge5 2.944808 1_555
Ge17 Yb0 2.962670 1_555
Ge17 Yb0 2.962670 1_556
Ge17 Yb2 2.994502 1_555
Ge17 Yb9 3.251105 1_555
Ge18 Ge7 2.944808 1_456
Ge18 Ge7 2.944808 1_455
Ge18 Yb1 2.962670 1_556
Ge18 Yb1 2.962670 1_555
Ge18 Yb4 2.994502 1_555
Ge18 Yb7 3.251105 1_455
Ge19 Ge6 2.944808 1_655
Ge19 Ge6 2.944808 1_656
Ge19 Yb1 2.962670 1_666
Ge19 Yb1 2.962670 1_665
Ge19 Yb5 2.994502 1_555
Ge19 Yb6 3.251105 1_655
