# generated using pymatgen
data_Ba(AgTe)2
_symmetry_space_group_name_H-M   'P 1'
_cell_length_a   4.64490124
_cell_length_b   11.00102568
_cell_length_c   11.93454418
_cell_angle_alpha   90.00000000
_cell_angle_beta   90.00000000
_cell_angle_gamma   90.00000000
_symmetry_Int_Tables_number   1
_chemical_formula_structural   Ba(AgTe)2
_chemical_formula_sum   'Ba4 Ag8 Te8'
_cell_volume   609.83942801
_cell_formula_units_Z   4
loop_
 _symmetry_equiv_pos_site_id
 _symmetry_equiv_pos_as_xyz
  1  'x, y, z'
loop_
 _atom_site_type_symbol
 _atom_site_label
 _atom_site_symmetry_multiplicity
 _atom_site_fract_x
 _atom_site_fract_y
 _atom_site_fract_z
 _atom_site_occupancy
  Ba  Ba0  1  0.75000000  0.74659328  0.19156403  1
  Ba  Ba1  1  0.25000000  0.25340672  0.80843597  1
  Ba  Ba2  1  0.75000000  0.24659328  0.30843597  1
  Ba  Ba3  1  0.25000000  0.75340672  0.69156403  1
  Ag  Ag0  1  0.25000000  0.05863350  0.54755789  1
  Ag  Ag1  1  0.75000000  0.94136650  0.45244211  1
  Ag  Ag2  1  0.75000000  0.44136650  0.04755789  1
  Ag  Ag3  1  0.25000000  0.55863350  0.95244211  1
  Ag  Ag4  1  0.75000000  0.94388377  0.91717821  1
  Ag  Ag5  1  0.25000000  0.05611623  0.08282179  1
  Ag  Ag6  1  0.75000000  0.44388377  0.58282179  1
  Ag  Ag7  1  0.25000000  0.55611623  0.41717821  1
  Te  Te0  1  0.25000000  0.81645115  0.97814961  1
  Te  Te1  1  0.75000000  0.18354885  0.02185039  1
  Te  Te2  1  0.75000000  0.68354885  0.47814961  1
  Te  Te3  1  0.25000000  0.31645115  0.52185039  1
  Te  Te4  1  0.75000000  0.51910236  0.81282081  1
  Te  Te5  1  0.25000000  0.48089764  0.18717919  1
  Te  Te6  1  0.75000000  0.01910236  0.68717919  1
  Te  Te7  1  0.25000000  0.98089764  0.31282081  1
loop_
_geom_bond_atom_site_label_1
_geom_bond_atom_site_label_2
_geom_bond_distance
_geom_bond_site_symmetry_2
Ba0 Te2 3.489878 1_555
Ba0 Te0 3.531517 1_654
Ba0 Te0 3.531517 1_554
Ba0 Te5 3.733631 1_655
Ba0 Te5 3.733631 1_555
Ba0 Te7 3.759251 1_555
Ba0 Te7 3.759251 1_655
Ba1 Te3 3.489878 1_555
Ba1 Te1 3.531517 1_456
Ba1 Te1 3.531517 1_556
Ba1 Te4 3.733631 1_555
Ba1 Te4 3.733631 1_455
Ba1 Te6 3.759251 1_455
Ba1 Te6 3.759251 1_555
Ba2 Te1 3.489878 1_555
Ba2 Te3 3.531517 1_655
Ba2 Te3 3.531517 1_555
Ba2 Te7 3.733631 1_645
Ba2 Te7 3.733631 1_545
Ba2 Te5 3.759251 1_655
Ba2 Te5 3.759251 1_555
Ba3 Te0 3.489878 1_555
Ba3 Te2 3.531517 1_455
Ba3 Te2 3.531517 1_555
Ba3 Te6 3.733631 1_465
Ba3 Te6 3.733631 1_565
Ba3 Te4 3.759251 1_555
Ba3 Te4 3.759251 1_455
Ag0 Te3 2.852804 1_555
Ag0 Ag1 2.889052 1_445
Ag0 Ag1 2.889052 1_545
Ag0 Te6 2.891282 1_455
Ag0 Te6 2.891282 1_555
Ag0 Te7 2.929098 1_545
Ag0 Ba3 3.772085 1_545
Ag0 Ba1 3.779527 1_555
Ag1 Te2 2.852804 1_555
Ag1 Te7 2.891282 1_555
Ag1 Te7 2.891282 1_655
Ag1 Te6 2.929098 1_565
Ag1 Ba2 3.772085 1_565
Ag1 Ba0 3.779527 1_555
Ag2 Te1 2.852804 1_555
Ag2 Ag3 2.889052 1_554
Ag2 Ag3 2.889052 1_654
Ag2 Te5 2.891282 1_555
Ag2 Te5 2.891282 1_655
Ag2 Te4 2.929098 1_554
Ag2 Ba0 3.772085 1_555
Ag2 Ba2 3.779527 1_555
Ag3 Te0 2.852804 1_555
Ag3 Te4 2.891282 1_455
Ag3 Te4 2.891282 1_555
Ag3 Te5 2.929098 1_556
Ag3 Ba1 3.772085 1_555
Ag3 Ba3 3.779527 1_555
Ag4 Te0 2.808660 1_555
Ag4 Te0 2.808660 1_655
Ag4 Te6 2.866947 1_565
Ag4 Te1 2.917532 1_566
Ag4 Ba0 3.928624 1_556
Ag4 Ba3 4.127319 1_655
Ag4 Ba3 4.127319 1_555
Ag5 Te1 2.808660 1_455
Ag5 Te1 2.808660 1_555
Ag5 Te7 2.866947 1_545
Ag5 Te0 2.917532 1_544
Ag5 Ba1 3.928624 1_554
Ag5 Ba2 4.127319 1_455
Ag5 Ba2 4.127319 1_555
Ag6 Te3 2.808660 1_555
Ag6 Te3 2.808660 1_655
Ag6 Te4 2.866947 1_555
Ag6 Te2 2.917532 1_555
Ag6 Ba2 3.928624 1_555
Ag6 Ba1 4.127319 1_555
Ag6 Ba1 4.127319 1_655
Ag7 Te2 2.808660 1_455
Ag7 Te2 2.808660 1_555
Ag7 Te5 2.866947 1_555
Ag7 Te3 2.917532 1_555
Ag7 Ba3 3.928624 1_555
Ag7 Ba0 4.127319 1_455
Ag7 Ba0 4.127319 1_555
