# generated using pymatgen
data_SmMgSe3
_symmetry_space_group_name_H-M   'P 1'
_cell_length_a   7.36534590
_cell_length_b   7.36534590
_cell_length_c   6.89311034
_cell_angle_alpha   76.29442333
_cell_angle_beta   76.29442333
_cell_angle_gamma   116.97139841
_symmetry_Int_Tables_number   1
_chemical_formula_structural   SmMgSe3
_chemical_formula_sum   'Sm2 Mg2 Se6'
_cell_volume   297.06455386
_cell_formula_units_Z   2
loop_
 _symmetry_equiv_pos_site_id
 _symmetry_equiv_pos_as_xyz
  1  'x, y, z'
loop_
 _atom_site_type_symbol
 _atom_site_label
 _atom_site_symmetry_multiplicity
 _atom_site_fract_x
 _atom_site_fract_y
 _atom_site_fract_z
 _atom_site_occupancy
  Sm  Sm0  1  0.80387000  0.80387000  0.31243600  1
  Sm  Sm1  1  0.19613000  0.19613000  0.68756400  1
  Mg  Mg0  1  0.33337900  0.66662100  0.00000000  1
  Mg  Mg1  1  0.66662100  0.33337900  0.00000000  1
  Se  Se0  1  0.23278200  0.88815400  0.21696800  1
  Se  Se1  1  0.76721800  0.11184600  0.78303200  1
  Se  Se2  1  0.11184600  0.76721800  0.78303200  1
  Se  Se3  1  0.88815400  0.23278200  0.21696800  1
  Se  Se4  1  0.53169800  0.53169800  0.74754700  1
  Se  Se5  1  0.46830200  0.46830200  0.25245300  1
loop_
_geom_bond_atom_site_label_1
_geom_bond_atom_site_label_2
_geom_bond_distance
_geom_bond_site_symmetry_2
Mg0 Se5 2.661028 1_555
Mg0 Se4 2.661028 1_554
Mg0 Se0 2.678804 1_555
Mg0 Se2 2.678804 1_554
Mg0 Se1 3.017803 1_564
Mg0 Se3 3.017803 1_455
Mg1 Se5 2.661028 1_555
Mg1 Se4 2.661028 1_554
Mg1 Se3 2.678804 1_555
Mg1 Se1 2.678804 1_554
Mg1 Se2 3.017803 1_654
Mg1 Se0 3.017803 1_545
Se0 Sm0 2.800116 1_455
Se1 Sm1 2.800116 1_655
Se2 Sm1 2.800116 1_565
Se3 Sm0 2.800116 1_545
Se4 Sm0 2.772971 1_555
Se4 Sm1 2.795656 1_555
Se5 Sm1 2.772971 1_555
Se5 Sm0 2.795656 1_555
