# generated using pymatgen
data_CrO
_symmetry_space_group_name_H-M   'P 1'
_cell_length_a   3.09771967
_cell_length_b   6.35081440
_cell_length_c   6.11435226
_cell_angle_alpha   67.23150298
_cell_angle_beta   83.24314552
_cell_angle_gamma   108.94221711
_symmetry_Int_Tables_number   1
_chemical_formula_structural   CrO
_chemical_formula_sum   'Cr4 O4'
_cell_volume   100.74389709
_cell_formula_units_Z   4
loop_
 _symmetry_equiv_pos_site_id
 _symmetry_equiv_pos_as_xyz
  1  'x, y, z'
loop_
 _atom_site_type_symbol
 _atom_site_label
 _atom_site_symmetry_multiplicity
 _atom_site_fract_x
 _atom_site_fract_y
 _atom_site_fract_z
 _atom_site_occupancy
  Cr  Cr0  1  0.60025700  0.50030200  0.89990800  1
  Cr  Cr1  1  0.59964500  0.00003600  0.39989900  1
  Cr  Cr2  1  0.10027700  0.00032300  0.89989700  1
  Cr  Cr3  1  0.09965800  0.50004800  0.39988500  1
  O  O0  1  0.95245500  0.36749600  0.14756500  1
  O  O1  1  0.45244300  0.86751400  0.14755800  1
  O  O2  1  0.74761200  0.13220200  0.65263400  1
  O  O3  1  0.24755200  0.63218300  0.65265300  1
loop_
_geom_bond_atom_site_label_1
_geom_bond_atom_site_label_2
_geom_bond_distance
_geom_bond_site_symmetry_2
Cr0 O3 2.045359 1_555
Cr0 O0 2.047505 1_556
Cr0 O3 2.055216 1_655
Cr0 O0 2.056410 1_456
Cr1 O0 2.044841 1_555
Cr1 O3 2.047006 1_545
Cr1 O1 2.053848 1_545
Cr1 O2 2.055106 1_555
Cr2 O2 2.045293 1_455
Cr2 O1 2.047452 1_546
Cr2 O2 2.055335 1_555
Cr2 O1 2.056492 1_446
Cr3 O1 2.044851 1_555
Cr3 O2 2.046957 1_455
Cr3 O0 2.053848 1_455
Cr3 O3 2.055131 1_555
