# generated using pymatgen
data_Mg2NiIrO6
_symmetry_space_group_name_H-M   'P 1'
_cell_length_a   5.32233700
_cell_length_b   5.10961200
_cell_length_c   9.10403426
_cell_angle_alpha   55.90461786
_cell_angle_beta   90.00000000
_cell_angle_gamma   90.00000000
_symmetry_Int_Tables_number   1
_chemical_formula_structural   Mg2NiIrO6
_chemical_formula_sum   'Mg4 Ni2 Ir2 O12'
_cell_volume   205.02643223
_cell_formula_units_Z   2
loop_
 _symmetry_equiv_pos_site_id
 _symmetry_equiv_pos_as_xyz
  1  'x, y, z'
loop_
 _atom_site_type_symbol
 _atom_site_label
 _atom_site_symmetry_multiplicity
 _atom_site_fract_x
 _atom_site_fract_y
 _atom_site_fract_z
 _atom_site_occupancy
  Mg  Mg0  1  0.93582400  0.23551100  0.75146500  1
  Mg  Mg1  1  0.43582400  0.76448900  0.74853500  1
  Mg  Mg2  1  0.56417600  0.23551100  0.25146500  1
  Mg  Mg3  1  0.06417600  0.76448900  0.24853500  1
  Ni  Ni0  1  0.50000000  0.00000000  0.00000000  1
  Ni  Ni1  1  0.00000000  0.00000000  0.50000000  1
  Ir  Ir0  1  0.50000000  0.50000000  0.50000000  1
  Ir  Ir1  1  0.00000000  0.50000000  0.00000000  1
  O  O0  1  0.43170900  0.60442500  0.25829300  1
  O  O1  1  0.18108300  0.88214800  0.92985200  1
  O  O2  1  0.19133800  0.25213100  0.57545500  1
  O  O3  1  0.69133800  0.74786900  0.92454500  1
  O  O4  1  0.68108300  0.11785200  0.57014800  1
  O  O5  1  0.93170900  0.39557500  0.24170700  1
  O  O6  1  0.06829100  0.60442500  0.75829300  1
  O  O7  1  0.31891700  0.88214800  0.42985200  1
  O  O8  1  0.30866200  0.25213100  0.07545500  1
  O  O9  1  0.81891700  0.11785200  0.07014800  1
  O  O10  1  0.80866200  0.74786900  0.42454500  1
  O  O11  1  0.56829100  0.39557500  0.74170700  1
loop_
_geom_bond_atom_site_label_1
_geom_bond_atom_site_label_2
_geom_bond_distance
_geom_bond_site_symmetry_2
Mg0 O6 2.045865 1_655
Mg0 O2 2.066821 1_655
Mg0 O1 2.077003 1_645
Mg0 O11 2.102807 1_555
Mg0 O3 2.445955 1_545
Mg0 O4 2.457063 1_555
Mg0 O9 2.685254 1_556
Mg1 O11 2.045865 1_555
Mg1 O3 2.066821 1_555
Mg1 O4 2.077003 1_565
Mg1 O6 2.102807 1_555
Mg1 O2 2.445955 1_565
Mg1 O1 2.457063 1_555
Mg1 O7 2.685254 1_555
Mg2 O0 2.045865 1_555
Mg2 O8 2.066821 1_555
Mg2 O7 2.077003 1_545
Mg2 O5 2.102807 1_555
Mg2 O10 2.445955 1_545
Mg2 O9 2.457063 1_555
Mg2 O4 2.685254 1_555
Mg3 O5 2.045865 1_455
Mg3 O10 2.066821 1_455
Mg3 O9 2.077003 1_465
Mg3 O0 2.102807 1_555
Mg3 O8 2.445955 1_565
Mg3 O7 2.457063 1_555
Mg3 O1 2.685254 1_554
Ni0 O9 2.020578 1_555
Ni0 O1 2.020578 1_544
Ni0 O3 2.039817 1_544
Ni0 O8 2.039817 1_555
Ni0 O11 2.101986 1_554
Ni0 O0 2.101986 1_545
Ni1 O4 2.020578 1_455
Ni1 O7 2.020578 1_545
Ni1 O2 2.039817 1_555
Ni1 O10 2.039817 1_445
Ni1 O6 2.101986 1_545
Ni1 O5 2.101986 1_455
Ir0 O7 1.936856 1_555
Ir0 O4 1.936856 1_555
Ir0 O10 1.949187 1_555
Ir0 O2 1.949187 1_555
Ir0 O11 1.985618 1_555
Ir0 O0 1.985618 1_555
Ir1 O1 1.936856 1_554
Ir1 O9 1.936856 1_455
Ir1 O3 1.949187 1_454
Ir1 O8 1.949187 1_555
Ir1 O5 1.985618 1_455
Ir1 O6 1.985618 1_554
