# generated using pymatgen
data_Li9Mn2Co5O16
_symmetry_space_group_name_H-M   'P 1'
_cell_length_a   5.12736884
_cell_length_b   5.12736884
_cell_length_c   20.73503659
_cell_angle_alpha   81.77672349
_cell_angle_beta   81.77672349
_cell_angle_gamma   32.57409082
_symmetry_Int_Tables_number   1
_chemical_formula_structural   Li9Mn2Co5O16
_chemical_formula_sum   'Li9 Mn2 Co5 O16'
_cell_volume   290.21161649
_cell_formula_units_Z   1
loop_
 _symmetry_equiv_pos_site_id
 _symmetry_equiv_pos_as_xyz
  1  'x, y, z'
loop_
 _atom_site_type_symbol
 _atom_site_label
 _atom_site_symmetry_multiplicity
 _atom_site_fract_x
 _atom_site_fract_y
 _atom_site_fract_z
 _atom_site_occupancy
  Li  Li0  1  0.24793100  0.24793100  0.06963000  1
  Li  Li1  1  0.75822300  0.75822300  0.18329300  1
  Li  Li2  1  0.25853900  0.25853900  0.31322700  1
  Li  Li3  1  0.74781100  0.74781100  0.43302500  1
  Li  Li4  1  0.25370000  0.25370000  0.56320300  1
  Li  Li5  1  0.75239200  0.75239200  0.68251900  1
  Li  Li6  1  0.24856300  0.24856300  0.81637400  1
  Li  Li7  1  0.74224000  0.74224000  0.93984400  1
  Li  Li8  1  0.49829800  0.49829800  0.12366800  1
  Mn  Mn0  1  0.99337300  0.99337300  0.00634100  1
  Mn  Mn1  1  0.00057200  0.00057200  0.75005700  1
  Co  Co0  1  0.01317300  0.01317300  0.23980700  1
  Co  Co1  1  0.49904900  0.49904900  0.37307800  1
  Co  Co2  1  0.00080600  0.00080600  0.49814900  1
  Co  Co3  1  0.50282400  0.50282400  0.62196200  1
  Co  Co4  1  0.49224600  0.49224600  0.87861400  1
  O  O0  1  0.38594200  0.38594200  0.97226100  1
  O  O1  1  0.88334000  0.88334000  0.08589900  1
  O  O2  1  0.39386400  0.39386400  0.22263600  1
  O  O3  1  0.88158400  0.88158400  0.34537300  1
  O  O4  1  0.39211500  0.39211500  0.46930800  1
  O  O5  1  0.88224100  0.88224100  0.59426400  1
  O  O6  1  0.38943800  0.38943800  0.71939800  1
  O  O7  1  0.87608100  0.87608100  0.84995500  1
  O  O8  1  0.12540600  0.12540600  0.16252900  1
  O  O9  1  0.60639000  0.60639000  0.27997100  1
  O  O10  1  0.11886800  0.11886800  0.40292000  1
  O  O11  1  0.60909300  0.60909300  0.52816400  1
  O  O12  1  0.12229800  0.12229800  0.65173500  1
  O  O13  1  0.61014200  0.61014200  0.78312500  1
  O  O14  1  0.10538500  0.10538500  0.91128700  1
  O  O15  1  0.60807300  0.60807300  0.02838600  1
loop_
_geom_bond_atom_site_label_1
_geom_bond_atom_site_label_2
_geom_bond_distance
_geom_bond_site_symmetry_2
Li0 O1 2.022884 1_455
Li0 O1 2.022884 1_545
Li0 O8 2.114869 1_555
Li0 O15 2.246140 1_455
Li0 O15 2.246140 1_545
Li0 O0 2.259252 1_554
Li1 O8 2.032245 1_655
Li1 O8 2.032245 1_565
Li1 O2 2.200103 1_655
Li1 O2 2.200103 1_565
Li1 O1 2.203127 1_555
Li1 O9 2.315005 1_555
Li2 O3 2.054150 1_545
Li2 O3 2.054150 1_455
Li2 O2 2.134723 1_555
Li2 O10 2.141708 1_555
Li2 O9 2.256974 1_545
Li2 O9 2.256974 1_455
Li3 O10 2.074712 1_565
Li3 O10 2.074712 1_655
Li3 O3 2.079379 1_555
Li3 O11 2.225586 1_555
Li3 O4 2.229305 1_655
Li3 O4 2.229305 1_565
Li4 O5 2.079972 1_455
Li4 O5 2.079972 1_545
Li4 O12 2.082106 1_555
Li4 O4 2.203683 1_555
Li4 O11 2.220329 1_455
Li4 O11 2.220329 1_545
Li5 O5 2.070109 1_555
Li5 O12 2.087720 1_655
Li5 O12 2.087720 1_565
Li5 O6 2.186241 1_655
Li5 O6 2.186241 1_565
Li5 O13 2.332753 1_555
Li6 O7 2.094887 1_455
Li6 O7 2.094887 1_545
Li6 O13 2.163197 1_545
Li6 O13 2.163197 1_455
Li6 O14 2.243377 1_555
Li6 O6 2.266092 1_555
Li7 O15 2.095734 1_556
Li7 O14 2.114414 1_565
Li7 O14 2.114414 1_655
Li7 O7 2.116072 1_555
Li7 O0 2.191732 1_565
Li7 O0 2.191732 1_655
Li8 O1 2.055621 1_455
Li8 O1 2.055621 1_545
Li8 O15 2.105859 1_555
Li8 O8 2.140764 1_655
Li8 O8 2.140764 1_565
Li8 O2 2.153874 1_555
Mn0 O1 1.833546 1_555
Mn0 O15 1.924884 1_565
Mn0 O15 1.924884 1_655
Mn0 O0 1.976877 1_564
Mn0 O0 1.976877 1_654
Mn0 O14 2.110128 1_664
Mn1 O6 1.968702 1_545
Mn1 O6 1.968702 1_455
Mn1 O13 1.980274 1_455
Mn1 O13 1.980274 1_545
Mn1 O12 2.205442 1_555
Mn1 O7 2.244053 1_445
Co0 O8 1.805670 1_555
Co0 O2 1.923098 1_455
Co0 O2 1.923098 1_545
Co0 O9 1.957281 1_545
Co0 O9 1.957281 1_455
Co0 O3 2.371515 1_445
Co1 O3 1.983075 1_545
Co1 O3 1.983075 1_455
Co1 O10 2.014726 1_655
Co1 O10 2.014726 1_565
Co1 O9 2.058052 1_555
Co1 O4 2.112663 1_555
Co2 O4 1.939245 1_455
Co2 O4 1.939245 1_545
Co2 O11 1.946513 1_545
Co2 O11 1.946513 1_455
Co2 O10 2.136723 1_555
Co2 O5 2.154229 1_445
Co3 O5 2.002383 1_455
Co3 O5 2.002383 1_545
Co3 O12 2.012020 1_565
Co3 O12 2.012020 1_655
Co3 O11 2.066525 1_555
Co3 O6 2.157640 1_555
Co4 O7 1.982632 1_545
Co4 O7 1.982632 1_455
Co4 O14 1.997947 1_565
Co4 O14 1.997947 1_655
Co4 O0 2.063941 1_555
Co4 O13 2.140609 1_555
