# generated using pymatgen
data_KSn2(PO4)3
_symmetry_space_group_name_H-M   'P 1'
_cell_length_a   9.36448501
_cell_length_b   9.36448501
_cell_length_c   9.36448493
_cell_angle_alpha   53.86367709
_cell_angle_beta   53.86367709
_cell_angle_gamma   53.86367612
_symmetry_Int_Tables_number   1
_chemical_formula_structural   KSn2(PO4)3
_chemical_formula_sum   'K2 Sn4 P6 O24'
_cell_volume   497.40987607
_cell_formula_units_Z   2
loop_
 _symmetry_equiv_pos_site_id
 _symmetry_equiv_pos_as_xyz
  1  'x, y, z'
loop_
 _atom_site_type_symbol
 _atom_site_label
 _atom_site_symmetry_multiplicity
 _atom_site_fract_x
 _atom_site_fract_y
 _atom_site_fract_z
 _atom_site_occupancy
  K  K0  1  0.50000000  0.50000000  0.50000000  1
  K  K1  1  0.00000000  0.00000000  0.00000000  1
  Sn  Sn0  1  0.15387700  0.15387700  0.15387700  1
  Sn  Sn1  1  0.84612300  0.84612300  0.84612300  1
  Sn  Sn2  1  0.35199600  0.35199600  0.35199600  1
  Sn  Sn3  1  0.64800400  0.64800400  0.64800400  1
  P  P0  1  0.03956700  0.46055800  0.75109600  1
  P  P1  1  0.46055800  0.75109600  0.03956700  1
  P  P2  1  0.75109600  0.03956700  0.46055800  1
  P  P3  1  0.96043300  0.53944200  0.24890400  1
  P  P4  1  0.53944200  0.24890400  0.96043300  1
  P  P5  1  0.24890400  0.96043300  0.53944200  1
  O  O0  1  0.02640900  0.31708800  0.95686600  1
  O  O1  1  0.31708800  0.95686600  0.02640900  1
  O  O2  1  0.95686600  0.02640900  0.31708800  1
  O  O3  1  0.97359100  0.68291200  0.04313400  1
  O  O4  1  0.68291200  0.04313400  0.97359100  1
  O  O5  1  0.04313400  0.97359100  0.68291200  1
  O  O6  1  0.02719300  0.65106200  0.71520900  1
  O  O7  1  0.65106200  0.71520900  0.02719300  1
  O  O8  1  0.71520900  0.02719300  0.65106200  1
  O  O9  1  0.97280700  0.34893800  0.28479100  1
  O  O10  1  0.34893800  0.28479100  0.97280700  1
  O  O11  1  0.28479100  0.97280700  0.34893800  1
  O  O12  1  0.88137200  0.48148200  0.72237900  1
  O  O13  1  0.48148200  0.72237900  0.88137200  1
  O  O14  1  0.72237900  0.88137200  0.48148100  1
  O  O15  1  0.11862800  0.51851900  0.27762100  1
  O  O16  1  0.51851900  0.27762100  0.11862800  1
  O  O17  1  0.27762100  0.11862800  0.51851800  1
  O  O18  1  0.23494600  0.37824000  0.60835300  1
  O  O19  1  0.37824000  0.60835300  0.23494600  1
  O  O20  1  0.60835300  0.23494600  0.37824000  1
  O  O21  1  0.76505400  0.62176000  0.39164700  1
  O  O22  1  0.62176000  0.39164700  0.76505400  1
  O  O23  1  0.39164700  0.76505400  0.62176000  1
loop_
_geom_bond_atom_site_label_1
_geom_bond_atom_site_label_2
_geom_bond_distance
_geom_bond_site_symmetry_2
K0 O22 2.737419 1_555
K0 O19 2.737419 1_555
K0 O23 2.737419 1_555
K0 O20 2.737419 1_555
K0 O21 2.737419 1_555
K0 O18 2.737419 1_555
K1 O2 2.893982 1_455
K1 O5 2.893982 1_544
K1 O1 2.893982 1_545
K1 O4 2.893982 1_454
K1 O0 2.893982 1_554
K1 O3 2.893982 1_445
O0 P0 1.547627 1_555
O0 Sn0 2.069896 1_556
O1 P1 1.547627 1_555
O1 Sn0 2.069896 1_565
O2 P2 1.547627 1_555
O2 Sn0 2.069896 1_655
O3 P3 1.547627 1_555
O3 Sn1 2.069896 1_554
O4 P4 1.547627 1_555
O4 Sn1 2.069896 1_545
O5 P5 1.547627 1_555
O5 Sn1 2.069896 1_455
O6 P0 1.550467 1_555
O6 Sn1 2.061829 1_455
O7 P1 1.550467 1_555
O7 Sn1 2.061829 1_554
O8 P2 1.550467 1_555
O8 Sn1 2.061829 1_545
O9 P3 1.550467 1_555
O9 Sn0 2.061829 1_655
O10 P4 1.550467 1_555
O10 Sn0 2.061829 1_556
O11 P5 1.550467 1_555
O11 Sn0 2.061829 1_565
O12 P0 1.539695 1_655
O12 Sn3 2.046355 1_555
O13 P1 1.539695 1_556
O13 Sn3 2.046355 1_555
O14 P2 1.539700 1_565
O14 Sn3 2.046355 1_555
O15 P3 1.539700 1_455
O15 Sn2 2.046355 1_555
O16 P4 1.539700 1_554
O16 Sn2 2.046355 1_555
O17 P5 1.539695 1_545
O17 Sn2 2.046355 1_555
O18 P0 1.547883 1_555
O18 Sn2 2.073552 1_555
O19 P1 1.547883 1_555
O19 Sn2 2.073552 1_555
O20 P2 1.547883 1_555
O20 Sn2 2.073552 1_555
O21 P3 1.547883 1_555
O21 Sn3 2.073552 1_555
O22 P4 1.547883 1_555
O22 Sn3 2.073552 1_555
O23 P5 1.547883 1_555
O23 Sn3 2.073552 1_555
