# generated using pymatgen
data_Ca2HoMn3O9
_symmetry_space_group_name_H-M   'P 1'
_cell_length_a   7.62902500
_cell_length_b   9.26304130
_cell_length_c   10.78039255
_cell_angle_alpha   106.56783968
_cell_angle_beta   88.98203736
_cell_angle_gamma   113.66344734
_symmetry_Int_Tables_number   1
_chemical_formula_structural   Ca2HoMn3O9
_chemical_formula_sum   'Ca8 Ho4 Mn12 O36'
_cell_volume   664.73519994
_cell_formula_units_Z   4
loop_
 _symmetry_equiv_pos_site_id
 _symmetry_equiv_pos_as_xyz
  1  'x, y, z'
loop_
 _atom_site_type_symbol
 _atom_site_label
 _atom_site_symmetry_multiplicity
 _atom_site_fract_x
 _atom_site_fract_y
 _atom_site_fract_z
 _atom_site_occupancy
  Ca  Ca0  1  0.55386700  0.14862500  0.39712900  1
  Ca  Ca1  1  0.22170600  0.47969200  0.72969400  1
  Ca  Ca2  1  0.88583400  0.81226100  0.06352800  1
  Ca  Ca3  1  0.11416600  0.18773900  0.93647200  1
  Ca  Ca4  1  0.77829400  0.52030800  0.27030600  1
  Ca  Ca5  1  0.44613300  0.85137500  0.60287100  1
  Ca  Ca6  1  0.71343100  0.48690100  0.73617200  1
  Ca  Ca7  1  0.28656900  0.51309900  0.26382800  1
  Ho  Ho0  1  0.37249000  0.81756600  0.06864900  1
  Ho  Ho1  1  0.03939800  0.15285100  0.40255500  1
  Ho  Ho2  1  0.96060200  0.84714900  0.59744500  1
  Ho  Ho3  1  0.62751000  0.18243400  0.93135100  1
  Mn  Mn0  1  0.00000000  0.50000000  0.00000000  1
  Mn  Mn1  1  0.66401200  0.83076400  0.33254400  1
  Mn  Mn2  1  0.33598800  0.16923600  0.66745600  1
  Mn  Mn3  1  0.50000000  0.50000000  0.50000000  1
  Mn  Mn4  1  0.16616500  0.83425900  0.83352100  1
  Mn  Mn5  1  0.83383500  0.16574100  0.16647900  1
  Mn  Mn6  1  0.50000000  0.50000000  0.00000000  1
  Mn  Mn7  1  0.16731700  0.83333700  0.33430100  1
  Mn  Mn8  1  0.83268300  0.16666300  0.66569900  1
  Mn  Mn9  1  0.66685900  0.83259700  0.83192100  1
  Mn  Mn10  1  0.33314100  0.16740300  0.16807900  1
  Mn  Mn11  1  0.00000000  0.50000000  0.50000000  1
  O  O0  1  0.74868500  0.49542100  0.95501500  1
  O  O1  1  0.41957100  0.83809900  0.28454600  1
  O  O2  1  0.08143900  0.16017900  0.61611900  1
  O  O3  1  0.44845800  0.89944000  0.85346700  1
  O  O4  1  0.11217500  0.22481900  0.18359600  1
  O  O5  1  0.78179000  0.56606400  0.51471400  1
  O  O6  1  0.58042900  0.16190100  0.71545400  1
  O  O7  1  0.25131500  0.50457900  0.04498500  1
  O  O8  1  0.91856100  0.83982100  0.38388100  1
  O  O9  1  0.88782500  0.77518100  0.81640400  1
  O  O10  1  0.55154200  0.10056000  0.14653300  1
  O  O11  1  0.21821000  0.43393600  0.48528600  1
  O  O12  1  0.80187100  0.03260600  0.98196300  1
  O  O13  1  0.47639300  0.35903300  0.31904000  1
  O  O14  1  0.13484600  0.69945000  0.65054100  1
  O  O15  1  0.38442400  0.36016800  0.82037500  1
  O  O16  1  0.06575800  0.70129300  0.15126400  1
  O  O17  1  0.72966300  0.03337400  0.48346500  1
  O  O18  1  0.52360700  0.64096700  0.68096000  1
  O  O19  1  0.19812900  0.96739400  0.01803700  1
  O  O20  1  0.86515400  0.30055000  0.34945900  1
  O  O21  1  0.93424200  0.29870700  0.84873600  1
  O  O22  1  0.61557600  0.63983200  0.17962500  1
  O  O23  1  0.27033700  0.96662600  0.51653500  1
  O  O24  1  0.43517700  0.29349500  0.04495700  1
  O  O25  1  0.09715800  0.63245300  0.38168200  1
  O  O26  1  0.76999300  0.96127400  0.71053500  1
  O  O27  1  0.90284200  0.36754700  0.61831800  1
  O  O28  1  0.56482300  0.70650500  0.95504300  1
  O  O29  1  0.23000700  0.03872600  0.28946500  1
  O  O30  1  0.46205500  0.31362000  0.56427200  1
  O  O31  1  0.13348100  0.65022200  0.89893600  1
  O  O32  1  0.80014700  0.98243900  0.23276200  1
  O  O33  1  0.86651900  0.34977800  0.10106400  1
  O  O34  1  0.53794500  0.68638000  0.43572800  1
  O  O35  1  0.19985300  0.01756100  0.76723800  1
loop_
_geom_bond_atom_site_label_1
_geom_bond_atom_site_label_2
_geom_bond_distance
_geom_bond_site_symmetry_2
Ca0 O30 2.305894 1_555
Ca0 O17 2.359030 1_555
Ca0 O20 2.360219 1_555
Ca0 O29 2.428378 1_555
Ca0 O1 2.546383 1_545
Ca0 O13 2.595150 1_555
Ca0 O10 2.608866 1_555
Ca0 O23 2.718344 1_545
Ca1 O31 2.333074 1_555
Ca1 O18 2.335624 1_555
Ca1 O15 2.342246 1_555
Ca1 O27 2.408806 1_455
Ca1 O11 2.545416 1_555
Ca1 O2 2.615608 1_555
Ca1 O14 2.721128 1_555
Ca1 O21 2.728126 1_455
Ca2 O32 2.320647 1_555
Ca2 O16 2.359770 1_655
Ca2 O19 2.365150 1_655
Ca2 O28 2.418179 1_554
Ca2 O9 2.587759 1_554
Ca2 O0 2.587920 1_554
Ca2 O22 2.602582 1_555
Ca2 O12 2.728089 1_564
Ca3 O35 2.320647 1_555
Ca3 O21 2.359770 1_455
Ca3 O12 2.365150 1_455
Ca3 O24 2.418179 1_556
Ca3 O4 2.587759 1_556
Ca3 O7 2.587920 1_556
Ca3 O15 2.602582 1_555
Ca3 O19 2.728089 1_546
Ca4 O33 2.333074 1_555
Ca4 O13 2.335624 1_555
Ca4 O22 2.342246 1_555
Ca4 O25 2.408806 1_655
Ca4 O5 2.545416 1_555
Ca4 O8 2.615608 1_555
Ca4 O20 2.721128 1_555
Ca4 O16 2.728126 1_655
Ca5 O34 2.305894 1_555
Ca5 O23 2.359030 1_555
Ca5 O14 2.360219 1_555
Ca5 O26 2.428378 1_555
Ca5 O6 2.546383 1_565
Ca5 O18 2.595150 1_555
Ca5 O3 2.608866 1_555
Ca5 O17 2.718344 1_565
Ca6 O27 2.310999 1_555
Ca6 O9 2.349628 1_555
Ca6 O0 2.354522 1_555
Ca6 O30 2.376399 1_555
Ca6 O18 2.581126 1_555
Ca6 O15 2.581415 1_555
Ca6 O5 2.675177 1_555
Ca6 O6 2.704629 1_555
Ca7 O25 2.310999 1_555
Ca7 O4 2.349628 1_555
Ca7 O7 2.354522 1_555
Ca7 O34 2.376399 1_555
Ca7 O13 2.581126 1_555
Ca7 O22 2.581415 1_555
Ca7 O11 2.675177 1_555
Ca7 O1 2.704629 1_555
Ho0 O28 2.267295 1_554
Ho0 O1 2.303180 1_555
Ho0 O31 2.303744 1_554
Ho0 O10 2.313806 1_565
Ho0 O16 2.424662 1_555
Ho0 O19 2.435754 1_555
Ho0 O7 2.600047 1_555
Ho0 O3 2.625837 1_554
Ho1 O29 2.270345 1_555
Ho1 O11 2.302900 1_555
Ho1 O2 2.308184 1_555
Ho1 O32 2.309081 1_445
Ho1 O20 2.429008 1_455
Ho1 O17 2.438715 1_455
Ho1 O8 2.612673 1_445
Ho1 O4 2.622633 1_555
Ho2 O26 2.270345 1_555
Ho2 O5 2.302900 1_555
Ho2 O8 2.308184 1_555
Ho2 O35 2.309081 1_665
Ho2 O14 2.429008 1_655
Ho2 O23 2.438715 1_655
Ho2 O2 2.612673 1_665
Ho2 O9 2.622633 1_555
Ho3 O24 2.267295 1_556
Ho3 O6 2.303180 1_555
Ho3 O33 2.303744 1_556
Ho3 O3 2.313806 1_545
Ho3 O21 2.424662 1_555
Ho3 O12 2.435754 1_555
Ho3 O0 2.600047 1_555
Ho3 O10 2.625837 1_556
Mn0 O31 1.961644 1_554
Mn0 O33 1.961644 1_455
Mn0 O7 1.966978 1_555
Mn0 O0 1.966978 1_454
Mn0 O16 1.982838 1_555
Mn0 O21 1.982838 1_454
Mn1 O34 1.931053 1_555
Mn1 O22 1.953569 1_555
Mn1 O32 1.964837 1_555
Mn1 O1 1.976375 1_555
Mn1 O17 1.988276 1_565
Mn1 O8 1.991347 1_555
Mn2 O30 1.931053 1_555
Mn2 O15 1.953569 1_555
Mn2 O35 1.964837 1_555
Mn2 O6 1.976375 1_555
Mn2 O23 1.988276 1_545
Mn2 O2 1.991347 1_555
Mn3 O30 1.954069 1_555
Mn3 O34 1.954069 1_555
Mn3 O13 1.978422 1_555
Mn3 O18 1.978422 1_555
Mn3 O11 1.980387 1_555
Mn3 O5 1.980387 1_555
Mn4 O35 1.948007 1_565
Mn4 O31 1.950325 1_555
Mn4 O9 1.966251 1_455
Mn4 O14 1.969777 1_555
Mn4 O19 1.978358 1_556
Mn4 O3 1.986828 1_555
Mn5 O32 1.948007 1_545
Mn5 O33 1.950325 1_555
Mn5 O4 1.966251 1_655
Mn5 O20 1.969777 1_555
Mn5 O12 1.978358 1_554
Mn5 O10 1.986828 1_555
Mn6 O0 1.963827 1_554
Mn6 O7 1.963827 1_555
Mn6 O28 1.974674 1_554
Mn6 O24 1.974674 1_555
Mn6 O22 1.979492 1_555
Mn6 O15 1.979492 1_554
Mn7 O25 1.934629 1_555
Mn7 O29 1.966670 1_565
Mn7 O23 1.973369 1_555
Mn7 O1 1.975307 1_555
Mn7 O16 1.976637 1_555
Mn7 O8 1.981906 1_455
Mn8 O27 1.934629 1_555
Mn8 O26 1.966670 1_545
Mn8 O17 1.973369 1_555
Mn8 O6 1.975307 1_555
Mn8 O21 1.976637 1_555
Mn8 O2 1.981906 1_655
Mn9 O9 1.952320 1_555
Mn9 O28 1.962009 1_555
Mn9 O18 1.962712 1_555
Mn9 O26 1.962734 1_555
Mn9 O12 1.981929 1_565
Mn9 O3 1.986420 1_555
Mn10 O4 1.952320 1_555
Mn10 O24 1.962009 1_555
Mn10 O13 1.962712 1_555
Mn10 O29 1.962734 1_555
Mn10 O19 1.981929 1_545
Mn10 O10 1.986420 1_555
Mn11 O27 1.952065 1_455
Mn11 O25 1.952065 1_555
Mn11 O5 1.980909 1_455
Mn11 O11 1.980909 1_555
Mn11 O14 1.982195 1_555
Mn11 O20 1.982195 1_455
