# generated using pymatgen
data_Ti4ZnO8
_symmetry_space_group_name_H-M   'P 1'
_cell_length_a   6.11367869
_cell_length_b   6.11367869
_cell_length_c   6.11367901
_cell_angle_alpha   58.36073176
_cell_angle_beta   58.36073176
_cell_angle_gamma   58.36072693
_symmetry_Int_Tables_number   1
_chemical_formula_structural   Ti4ZnO8
_chemical_formula_sum   'Ti4 Zn1 O8'
_cell_volume   155.51796705
_cell_formula_units_Z   1
loop_
 _symmetry_equiv_pos_site_id
 _symmetry_equiv_pos_as_xyz
  1  'x, y, z'
loop_
 _atom_site_type_symbol
 _atom_site_label
 _atom_site_symmetry_multiplicity
 _atom_site_fract_x
 _atom_site_fract_y
 _atom_site_fract_z
 _atom_site_occupancy
  Ti  Ti0  1  0.00000000  0.50000000  0.50000000  1
  Ti  Ti1  1  0.50000000  0.00000000  0.50000000  1
  Ti  Ti2  1  0.50000000  0.50000000  0.00000000  1
  Ti  Ti3  1  0.00000000  0.00000000  0.00000000  1
  Zn  Zn0  1  0.50000000  0.50000000  0.50000000  1
  O  O0  1  0.27270900  0.75549100  0.75549100  1
  O  O1  1  0.24450900  0.24450900  0.72729100  1
  O  O2  1  0.72729100  0.24450900  0.24450900  1
  O  O3  1  0.24450900  0.72729100  0.24450900  1
  O  O4  1  0.26890300  0.26890300  0.26890300  1
  O  O5  1  0.73109700  0.73109700  0.73109700  1
  O  O6  1  0.75549100  0.27270900  0.75549100  1
  O  O7  1  0.75549100  0.75549100  0.27270900  1
loop_
_geom_bond_atom_site_label_1
_geom_bond_atom_site_label_2
_geom_bond_distance
_geom_bond_site_symmetry_2
O0 Ti2 2.014391 1_556
O0 Ti1 2.014392 1_565
O0 Ti3 2.088957 1_566
O0 Zn0 2.194521 1_555
O1 Ti0 2.014391 1_555
O1 Ti1 2.014391 1_555
O1 Ti3 2.088957 1_556
O1 Zn0 2.194522 1_555
O2 Ti2 2.014391 1_555
O2 Ti1 2.014392 1_555
O2 Ti3 2.088957 1_655
O2 Zn0 2.194521 1_555
O3 Ti2 2.014391 1_555
O3 Ti0 2.014392 1_555
O3 Ti3 2.088957 1_565
O3 Zn0 2.194521 1_555
O4 Ti1 1.978774 1_555
O4 Ti0 1.978774 1_555
O4 Ti2 1.978774 1_555
O5 Ti0 1.978774 1_655
O5 Ti1 1.978774 1_565
O5 Ti2 1.978774 1_556
O6 Ti2 2.014391 1_556
O6 Ti0 2.014392 1_655
O6 Ti3 2.088957 1_656
O6 Zn0 2.194521 1_555
O7 Ti1 2.014391 1_565
O7 Ti0 2.014391 1_655
O7 Ti3 2.088957 1_665
O7 Zn0 2.194522 1_555
