# generated using pymatgen
data_Li3Mn4SnO8
_symmetry_space_group_name_H-M   'P 1'
_cell_length_a   6.23072837
_cell_length_b   10.62341476
_cell_length_c   6.26296633
_cell_angle_alpha   74.45389623
_cell_angle_beta   60.53884612
_cell_angle_gamma   74.29288753
_symmetry_Int_Tables_number   1
_chemical_formula_structural   Li3Mn4SnO8
_chemical_formula_sum   'Li6 Mn8 Sn2 O16'
_cell_volume   342.94340130
_cell_formula_units_Z   2
loop_
 _symmetry_equiv_pos_site_id
 _symmetry_equiv_pos_as_xyz
  1  'x, y, z'
loop_
 _atom_site_type_symbol
 _atom_site_label
 _atom_site_symmetry_multiplicity
 _atom_site_fract_x
 _atom_site_fract_y
 _atom_site_fract_z
 _atom_site_occupancy
  Li  Li0  1  0.74762900  0.25335400  0.75275300  1
  Li  Li1  1  0.24925600  0.74751300  0.24929600  1
  Li  Li2  1  0.75346300  0.24909600  0.25013300  1
  Li  Li3  1  0.24692000  0.75092900  0.74750400  1
  Li  Li4  1  0.23759300  0.26389800  0.73471100  1
  Li  Li5  1  0.75840600  0.73554600  0.26866000  1
  Mn  Mn0  1  0.74983700  0.74831700  0.74807700  1
  Mn  Mn1  1  0.24851400  0.25088100  0.25549100  1
  Mn  Mn2  1  0.00171500  0.00116300  0.00140800  1
  Mn  Mn3  1  0.49841100  0.49845500  0.49760800  1
  Mn  Mn4  1  0.00071900  0.99960100  0.50276800  1
  Mn  Mn5  1  0.49989000  0.50239500  0.99467000  1
  Mn  Mn6  1  0.50471000  0.99766000  0.00023100  1
  Mn  Mn7  1  0.99566200  0.50234200  0.49986200  1
  Sn  Sn0  1  0.50114400  0.00035400  0.50118200  1
  Sn  Sn1  1  0.99978800  0.49939200  0.99917300  1
  O  O0  1  0.87789700  0.38193500  0.87393600  1
  O  O1  1  0.34675600  0.89020900  0.38917900  1
  O  O2  1  0.65584900  0.10998500  0.61263300  1
  O  O3  1  0.12046600  0.61781900  0.12439100  1
  O  O4  1  0.36254000  0.37812400  0.37042000  1
  O  O5  1  0.88940600  0.89140000  0.83434300  1
  O  O6  1  0.11965700  0.11416200  0.17027700  1
  O  O7  1  0.63120100  0.61654600  0.62099800  1
  O  O8  1  0.87864000  0.37680300  0.35519300  1
  O  O9  1  0.37963800  0.88066800  0.85589300  1
  O  O10  1  0.35538700  0.37324500  0.88066400  1
  O  O11  1  0.85333800  0.87709800  0.36953100  1
  O  O12  1  0.15050400  0.12599600  0.62771000  1
  O  O13  1  0.64227500  0.62321200  0.12180700  1
  O  O14  1  0.61786000  0.12232300  0.14760900  1
  O  O15  1  0.12493000  0.61958000  0.64189000  1
loop_
_geom_bond_atom_site_label_1
_geom_bond_atom_site_label_2
_geom_bond_distance
_geom_bond_site_symmetry_2
Li0 O0 2.205147 1_555
Li0 O2 2.257999 1_555
Li0 O10 2.274322 1_555
Li0 O8 2.327199 1_555
Li0 O14 2.346127 1_556
Li0 O12 2.353793 1_655
Li1 O3 2.224423 1_555
Li1 O1 2.273457 1_555
Li1 O13 2.295404 1_555
Li1 O15 2.323379 1_555
Li1 O11 2.331791 1_455
Li1 O9 2.348762 1_554
Li2 O8 2.106676 1_555
Li2 O14 2.133828 1_555
Li2 O6 2.236475 1_655
Li2 O2 2.244597 1_555
Li2 O0 2.270927 1_554
Li2 O4 2.306519 1_555
Li3 O15 2.127411 1_555
Li3 O9 2.171419 1_555
Li3 O5 2.219970 1_455
Li3 O1 2.226618 1_555
Li3 O3 2.275239 1_556
Li3 O7 2.299610 1_555
Li4 O12 2.050389 1_555
Li4 O10 2.101045 1_555
Li4 O0 2.120786 1_455
Li4 O4 2.136420 1_555
Li4 O2 2.540183 1_555
Li4 O6 2.616679 1_556
Li5 O11 2.090141 1_555
Li5 O7 2.102988 1_555
Li5 O13 2.122291 1_555
Li5 O3 2.131370 1_655
Li5 O1 2.515275 1_555
Li5 O5 2.634433 1_554
Mn0 O7 2.208080 1_555
Mn0 O13 2.228430 1_556
Mn0 O9 2.230280 1_555
Mn0 O5 2.230852 1_555
Mn0 O15 2.236690 1_655
Mn0 O11 2.267928 1_555
Mn1 O4 2.096349 1_555
Mn1 O6 2.123048 1_555
Mn1 O8 2.203071 1_455
Mn1 O14 2.209321 1_555
Mn1 O10 2.222468 1_554
Mn1 O12 2.224416 1_555
Mn2 O5 2.181781 1_444
Mn2 O11 2.200361 1_445
Mn2 O9 2.212754 1_544
Mn2 O12 2.227890 1_554
Mn2 O6 2.241054 1_555
Mn2 O14 2.241898 1_455
Mn3 O7 2.136870 1_555
Mn3 O4 2.186425 1_555
Mn3 O15 2.195689 1_555
Mn3 O8 2.227096 1_555
Mn3 O13 2.235059 1_555
Mn3 O10 2.268755 1_555
Mn4 O5 1.962173 1_455
Mn4 O6 1.994625 1_565
Mn4 O2 2.019822 1_465
Mn4 O1 2.020634 1_555
Mn4 O11 2.283888 1_455
Mn4 O12 2.290492 1_565
Mn5 O7 2.179317 1_555
Mn5 O3 2.197196 1_556
Mn5 O0 2.211688 1_555
Mn5 O13 2.219825 1_556
Mn5 O4 2.231293 1_556
Mn5 O10 2.242591 1_555
Mn6 O9 2.188326 1_554
Mn6 O5 2.193863 1_554
Mn6 O14 2.214448 1_565
Mn6 O1 2.228242 1_555
Mn6 O6 2.237727 1_565
Mn6 O2 2.238434 1_564
Mn7 O7 2.123981 1_555
Mn7 O4 2.177452 1_655
Mn7 O3 2.193376 1_655
Mn7 O15 2.198382 1_655
Mn7 O0 2.207760 1_555
Mn7 O8 2.226043 1_555
O0 Sn1 2.091096 1_555
O1 Sn0 2.121262 1_565
O2 Sn0 2.116186 1_555
O3 Sn1 2.093876 1_454
O8 Sn1 2.134870 1_554
O9 Sn0 2.116074 1_565
O10 Sn1 2.136291 1_455
O11 Sn0 2.110217 1_565
O12 Sn0 2.113691 1_555
O13 Sn1 2.134087 1_554
O14 Sn0 2.121204 1_555
O15 Sn1 2.129933 1_455
