# generated using pymatgen
data_LiMnVP2(HO5)2
_symmetry_space_group_name_H-M   'P 1'
_cell_length_a   5.22392800
_cell_length_b   5.34525080
_cell_length_c   7.35147171
_cell_angle_alpha   110.79571597
_cell_angle_beta   103.58289215
_cell_angle_gamma   100.14947622
_symmetry_Int_Tables_number   1
_chemical_formula_structural   LiMnVP2(HO5)2
_chemical_formula_sum   'Li1 Mn1 V1 P2 H2 O10'
_cell_volume   178.76221360
_cell_formula_units_Z   1
loop_
 _symmetry_equiv_pos_site_id
 _symmetry_equiv_pos_as_xyz
  1  'x, y, z'
loop_
 _atom_site_type_symbol
 _atom_site_label
 _atom_site_symmetry_multiplicity
 _atom_site_fract_x
 _atom_site_fract_y
 _atom_site_fract_z
 _atom_site_occupancy
  Li  Li0  1  0.77457800  0.40851100  0.15227900  1
  Mn  Mn0  1  0.00062600  0.00509700  0.99651600  1
  V  V0  1  0.99807200  0.99744500  0.50462200  1
  P  P0  1  0.31916700  0.64199100  0.23140500  1
  P  P1  1  0.67364000  0.35727600  0.77343800  1
  H  H0  1  0.64404500  0.93894600  0.34277100  1
  H  H1  1  0.35331700  0.03660500  0.66223100  1
  O  O0  1  0.14245000  0.97572400  0.71853300  1
  O  O1  1  0.28320300  0.81070900  0.38076300  1
  O  O2  1  0.72229400  0.65823000  0.64668500  1
  O  O3  1  0.63342700  0.74689700  0.07139400  1
  O  O4  1  0.10543400  0.65242100  0.13539600  1
  O  O5  1  0.86859800  0.34519500  0.88608300  1
  O  O6  1  0.36278200  0.24347400  0.93087800  1
  O  O7  1  0.29196300  0.34210600  0.34646500  1
  O  O8  1  0.72676300  0.19560400  0.61848600  1
  O  O9  1  0.84859500  0.04560400  0.27752600  1
loop_
_geom_bond_atom_site_label_1
_geom_bond_atom_site_label_2
_geom_bond_distance
_geom_bond_site_symmetry_2
Li0 O4 2.030750 1_655
Li0 O5 2.055508 1_554
Li0 O6 2.173028 1_554
Li0 O3 2.279626 1_555
Li0 O9 2.474996 1_555
Mn0 O0 2.296542 1_545
Mn0 O6 2.334820 1_555
Mn0 O9 2.336438 1_456
Mn0 O5 2.380427 1_455
Mn0 O3 2.447399 1_446
Mn0 O2 2.464432 1_445
Mn0 O7 2.466525 1_556
Mn0 O4 2.522652 1_546
H0 O9 1.384596 1_565
H1 O0 1.293869 1_545
O0 V0 1.630548 1_455
O0 O6 1.673036 1_565
O1 P0 1.227882 1_555
O2 P1 2.133604 1_555
O3 O9 1.720030 1_565
O3 P0 2.333290 1_555
O4 P0 1.194835 1_555
O5 P1 1.179904 1_555
O6 P1 2.319764 1_555
O7 P0 2.060124 1_555
O8 P1 1.286632 1_555
O9 V0 1.796353 1_545
