# generated using pymatgen
data_Yb5Mg
_symmetry_space_group_name_H-M   'P 1'
_cell_length_a   14.45028952
_cell_length_b   14.45028952
_cell_length_c   17.45159532
_cell_angle_alpha   75.39800091
_cell_angle_beta   75.39800091
_cell_angle_gamma   30.77806527
_symmetry_Int_Tables_number   1
_chemical_formula_structural   Yb5Mg
_chemical_formula_sum   'Yb40 Mg8'
_cell_volume   1799.85312885
_cell_formula_units_Z   8
loop_
 _symmetry_equiv_pos_site_id
 _symmetry_equiv_pos_as_xyz
  1  'x, y, z'
loop_
 _atom_site_type_symbol
 _atom_site_label
 _atom_site_symmetry_multiplicity
 _atom_site_fract_x
 _atom_site_fract_y
 _atom_site_fract_z
 _atom_site_occupancy
  Yb  Yb0_0  1  0.00185550  0.00185550  0.01052800  1
  Yb  Yb0_1  1  0.00185550  0.00185550  0.51052800  1
  Yb  Yb0_2  1  0.00185550  0.50185550  0.01052800  1
  Yb  Yb0_3  1  0.00185550  0.50185550  0.51052800  1
  Yb  Yb0_4  1  0.50185550  0.00185550  0.01052800  1
  Yb  Yb0_5  1  0.50185550  0.00185550  0.51052800  1
  Yb  Yb0_6  1  0.50185550  0.50185550  0.01052800  1
  Yb  Yb0_7  1  0.50185550  0.50185550  0.51052800  1
  Yb  Yb1_0  1  0.13979450  0.13979450  0.47381050  1
  Yb  Yb1_1  1  0.13979450  0.13979450  0.97381050  1
  Yb  Yb1_2  1  0.13979450  0.63979450  0.47381050  1
  Yb  Yb1_3  1  0.13979450  0.63979450  0.97381050  1
  Yb  Yb1_4  1  0.63979450  0.13979450  0.47381050  1
  Yb  Yb1_5  1  0.63979450  0.13979450  0.97381050  1
  Yb  Yb1_6  1  0.63979450  0.63979450  0.47381050  1
  Yb  Yb1_7  1  0.63979450  0.63979450  0.97381050  1
  Yb  Yb2_0  1  0.33112200  0.33112200  0.33508200  1
  Yb  Yb2_1  1  0.33112200  0.33112200  0.83508200  1
  Yb  Yb2_2  1  0.33112200  0.83112200  0.33508200  1
  Yb  Yb2_3  1  0.33112200  0.83112200  0.83508200  1
  Yb  Yb2_4  1  0.83112200  0.33112200  0.33508200  1
  Yb  Yb2_5  1  0.83112200  0.33112200  0.83508200  1
  Yb  Yb2_6  1  0.83112200  0.83112200  0.33508200  1
  Yb  Yb2_7  1  0.83112200  0.83112200  0.83508200  1
  Yb  Yb3_0  1  0.47634850  0.47634850  0.29309700  1
  Yb  Yb3_1  1  0.47634850  0.47634850  0.79309700  1
  Yb  Yb3_2  1  0.47634850  0.97634850  0.29309700  1
  Yb  Yb3_3  1  0.47634850  0.97634850  0.79309700  1
  Yb  Yb3_4  1  0.97634850  0.47634850  0.29309700  1
  Yb  Yb3_5  1  0.97634850  0.47634850  0.79309700  1
  Yb  Yb3_6  1  0.97634850  0.97634850  0.29309700  1
  Yb  Yb3_7  1  0.97634850  0.97634850  0.79309700  1
  Yb  Yb4_0  1  0.16040250  0.16040250  0.16783950  1
  Yb  Yb4_1  1  0.16040250  0.16040250  0.66783950  1
  Yb  Yb4_2  1  0.16040250  0.66040250  0.16783950  1
  Yb  Yb4_3  1  0.16040250  0.66040250  0.66783950  1
  Yb  Yb4_4  1  0.66040250  0.16040250  0.16783950  1
  Yb  Yb4_5  1  0.66040250  0.16040250  0.66783950  1
  Yb  Yb4_6  1  0.66040250  0.66040250  0.16783950  1
  Yb  Yb4_7  1  0.66040250  0.66040250  0.66783950  1
  Mg  Mg0_0  1  0.30714200  0.30714200  0.13630850  1
  Mg  Mg0_1  1  0.30714200  0.30714200  0.63630850  1
  Mg  Mg0_2  1  0.30714200  0.80714200  0.13630850  1
  Mg  Mg0_3  1  0.30714200  0.80714200  0.63630850  1
  Mg  Mg0_4  1  0.80714200  0.30714200  0.13630850  1
  Mg  Mg0_5  1  0.80714200  0.30714200  0.63630850  1
  Mg  Mg0_6  1  0.80714200  0.80714200  0.13630850  1
  Mg  Mg0_7  1  0.80714200  0.80714200  0.63630850  1
loop_
_geom_bond_atom_site_label_1
_geom_bond_atom_site_label_2
_geom_bond_distance
_geom_bond_site_symmetry_2
Yb0_0 Yb1_1 3.727702 1_554
Yb0_0 Yb4_4 3.748105 1_455
Yb0_0 Yb4_2 3.748105 1_545
Yb0_0 Yb2_3 3.793778 1_544
Yb0_0 Yb2_5 3.793778 1_454
Yb0_0 Yb1_5 3.857881 1_454
Yb0_0 Yb1_3 3.857881 1_544
Yb0_0 Yb3_7 4.039044 1_444
Yb0_1 Yb1_0 3.727702 1_555
Yb0_1 Yb4_5 3.748105 1_455
Yb0_1 Yb4_3 3.748105 1_545
Yb0_1 Yb2_2 3.793778 1_545
Yb0_1 Yb2_4 3.793778 1_455
Yb0_1 Yb1_4 3.857881 1_455
Yb0_1 Yb1_2 3.857881 1_545
Yb0_1 Yb3_6 4.039044 1_445
Yb0_2 Yb1_3 3.727702 1_554
Yb0_2 Yb4_0 3.748105 1_555
Yb0_2 Yb4_6 3.748105 1_455
Yb0_2 Yb2_1 3.793778 1_554
Yb0_2 Yb2_7 3.793778 1_454
Yb0_2 Yb1_1 3.857881 1_554
Yb0_2 Yb1_7 3.857881 1_454
Yb0_2 Yb3_5 4.039044 1_454
Yb0_3 Yb1_2 3.727702 1_555
Yb0_3 Yb4_1 3.748105 1_555
Yb0_3 Yb4_7 3.748105 1_455
Yb0_3 Yb2_6 3.793778 1_455
Yb0_3 Yb2_0 3.793778 1_555
Yb0_3 Yb1_6 3.857881 1_455
Yb0_3 Yb1_0 3.857881 1_555
Yb0_3 Yb3_4 4.039044 1_455
Yb0_4 Yb1_5 3.727702 1_554
Yb0_4 Yb4_0 3.748105 1_555
Yb0_4 Yb4_6 3.748105 1_545
Yb0_4 Yb2_7 3.793778 1_544
Yb0_4 Yb2_1 3.793778 1_554
Yb0_4 Yb1_1 3.857881 1_554
Yb0_4 Yb1_7 3.857881 1_544
Yb0_4 Yb3_3 4.039044 1_544
Yb0_5 Yb1_4 3.727702 1_555
Yb0_5 Yb4_1 3.748105 1_555
Yb0_5 Yb4_7 3.748105 1_545
Yb0_5 Yb2_6 3.793778 1_545
Yb0_5 Yb2_0 3.793778 1_555
Yb0_5 Yb1_6 3.857881 1_545
Yb0_5 Yb1_0 3.857881 1_555
Yb0_5 Yb3_2 4.039044 1_545
Yb0_6 Yb1_7 3.727702 1_554
Yb0_6 Yb4_4 3.748105 1_555
Yb0_6 Yb4_2 3.748105 1_555
Yb0_6 Yb2_3 3.793778 1_554
Yb0_6 Yb2_5 3.793778 1_554
Yb0_6 Yb1_5 3.857881 1_554
Yb0_6 Yb1_3 3.857881 1_554
Yb0_6 Yb3_1 4.039044 1_554
Yb0_7 Yb1_6 3.727702 1_555
Yb0_7 Yb4_5 3.748105 1_555
Yb0_7 Yb4_3 3.748105 1_555
Yb0_7 Yb2_2 3.793778 1_555
Yb0_7 Yb2_4 3.793778 1_555
Yb0_7 Yb1_4 3.857881 1_555
Yb0_7 Yb1_2 3.857881 1_555
Yb0_7 Yb3_0 4.039044 1_555
Yb1_0 Yb4_1 3.579435 1_555
Yb1_0 Yb2_4 3.778934 1_455
Yb1_0 Yb2_2 3.778934 1_545
Yb1_0 Yb1_6 3.834696 1_545
Yb1_0 Yb1_6 3.834696 1_455
Yb1_0 Yb3_2 3.932084 1_545
Yb1_0 Yb3_4 3.932084 1_455
Yb1_1 Yb4_0 3.579435 1_556
Yb1_1 Yb2_5 3.778934 1_455
Yb1_1 Yb2_3 3.778934 1_545
Yb1_1 Yb1_7 3.834696 1_455
Yb1_1 Yb1_7 3.834696 1_545
Yb1_1 Yb3_3 3.932084 1_545
Yb1_1 Yb3_5 3.932084 1_455
Yb1_2 Yb4_3 3.579435 1_555
Yb1_2 Yb2_0 3.778934 1_555
Yb1_2 Yb2_6 3.778934 1_455
Yb1_2 Yb1_4 3.834696 1_465
Yb1_2 Yb1_4 3.834696 1_555
Yb1_2 Yb3_0 3.932084 1_555
Yb1_2 Yb3_6 3.932084 1_455
Yb1_3 Yb4_2 3.579435 1_556
Yb1_3 Yb2_1 3.778934 1_555
Yb1_3 Yb2_7 3.778934 1_455
Yb1_3 Yb1_5 3.834696 1_555
Yb1_3 Yb1_5 3.834696 1_465
Yb1_3 Yb3_1 3.932084 1_555
Yb1_3 Yb3_7 3.932084 1_455
Yb1_4 Yb4_5 3.579435 1_555
Yb1_4 Yb2_0 3.778934 1_555
Yb1_4 Yb2_6 3.778934 1_545
Yb1_4 Yb3_6 3.932084 1_545
Yb1_4 Yb3_0 3.932084 1_555
Yb1_5 Yb4_4 3.579435 1_556
Yb1_5 Yb2_7 3.778934 1_545
Yb1_5 Yb2_1 3.778934 1_555
Yb1_5 Yb3_1 3.932084 1_555
Yb1_5 Yb3_7 3.932084 1_545
Yb1_6 Yb4_7 3.579435 1_555
Yb1_6 Yb2_4 3.778934 1_555
Yb1_6 Yb2_2 3.778934 1_555
Yb1_6 Yb3_4 3.932084 1_555
Yb1_6 Yb3_2 3.932084 1_555
Yb1_7 Yb4_6 3.579435 1_556
Yb1_7 Yb2_5 3.778934 1_555
Yb1_7 Yb2_3 3.778934 1_555
Yb1_7 Yb3_5 3.932084 1_555
Yb1_7 Yb3_3 3.932084 1_555
Yb2_0 Yb4_2 3.701764 1_555
Yb2_0 Yb4_4 3.701764 1_555
Yb2_0 Yb3_2 3.722219 1_545
Yb2_0 Yb3_4 3.722219 1_455
Yb2_0 Yb2_6 3.834696 1_545
Yb2_0 Yb2_6 3.834696 1_455
Yb2_0 Yb3_0 3.919393 1_555
Yb2_1 Yb4_3 3.701764 1_555
Yb2_1 Yb4_5 3.701764 1_555
Yb2_1 Yb3_3 3.722219 1_545
Yb2_1 Yb3_5 3.722219 1_455
Yb2_1 Yb2_7 3.834696 1_545
Yb2_1 Yb2_7 3.834696 1_455
Yb2_1 Yb3_1 3.919393 1_555
Yb2_2 Yb4_6 3.701764 1_555
Yb2_2 Yb4_0 3.701764 1_565
Yb2_2 Yb3_6 3.722219 1_455
Yb2_2 Yb3_0 3.722219 1_555
Yb2_2 Yb2_4 3.834696 1_465
Yb2_2 Yb2_4 3.834696 1_555
Yb2_2 Yb3_2 3.919393 1_555
Yb2_3 Yb4_7 3.701764 1_555
Yb2_3 Yb4_1 3.701764 1_565
Yb2_3 Yb3_7 3.722219 1_455
Yb2_3 Yb3_1 3.722219 1_555
Yb2_3 Yb2_5 3.834696 1_465
Yb2_3 Yb2_5 3.834696 1_555
Yb2_3 Yb3_3 3.919393 1_555
Yb2_4 Yb4_6 3.701764 1_555
Yb2_4 Yb4_0 3.701764 1_655
Yb2_4 Yb3_6 3.722219 1_545
Yb2_4 Yb3_0 3.722219 1_555
Yb2_4 Yb3_4 3.919393 1_555
Yb2_5 Yb4_7 3.701764 1_555
Yb2_5 Yb4_1 3.701764 1_655
Yb2_5 Yb3_7 3.722219 1_545
Yb2_5 Yb3_1 3.722219 1_555
Yb2_5 Yb3_5 3.919393 1_555
Yb2_6 Yb4_4 3.701764 1_565
Yb2_6 Yb4_2 3.701764 1_655
Yb2_6 Yb3_4 3.722219 1_555
Yb2_6 Yb3_2 3.722219 1_555
Yb2_6 Yb3_6 3.919393 1_555
Yb2_7 Yb4_3 3.701764 1_655
Yb2_7 Yb4_5 3.701764 1_565
Yb2_7 Yb3_5 3.722219 1_555
Yb2_7 Yb3_3 3.722219 1_555
Yb2_7 Yb3_7 3.919393 1_555
Yb3_0 Yb4_4 3.732524 1_555
Yb3_0 Yb4_2 3.732524 1_555
Yb3_0 Yb3_6 3.834696 1_545
Yb3_0 Yb3_6 3.834696 1_455
Yb3_1 Yb4_5 3.732524 1_555
Yb3_1 Yb4_3 3.732524 1_555
Yb3_1 Yb3_7 3.834696 1_545
Yb3_1 Yb3_7 3.834696 1_455
Yb3_2 Yb4_0 3.732524 1_565
Yb3_2 Yb4_6 3.732524 1_555
Yb3_2 Yb3_4 3.834696 1_555
Yb3_2 Yb3_4 3.834696 1_465
Yb3_3 Yb4_1 3.732524 1_565
Yb3_3 Yb4_7 3.732524 1_555
Yb3_3 Yb3_5 3.834696 1_465
Yb3_3 Yb3_5 3.834696 1_555
Yb3_4 Yb4_0 3.732524 1_655
Yb3_4 Yb4_6 3.732524 1_555
Yb3_5 Yb4_1 3.732524 1_655
Yb3_5 Yb4_7 3.732524 1_555
Yb3_6 Yb4_4 3.732524 1_565
Yb3_6 Yb4_2 3.732524 1_655
Yb3_7 Yb4_5 3.732524 1_565
Yb3_7 Yb4_3 3.732524 1_655
Yb4_0 Yb4_6 3.834696 1_545
Yb4_0 Yb4_6 3.834696 1_455
Yb4_1 Yb4_7 3.834696 1_455
Yb4_1 Yb4_7 3.834696 1_545
Yb4_2 Yb4_4 3.834696 1_465
Yb4_2 Yb4_4 3.834696 1_555
Yb4_3 Yb4_5 3.834696 1_465
Yb4_3 Yb4_5 3.834696 1_555
Mg0_0 Yb0_4 3.554740 1_555
Mg0_0 Yb0_2 3.554740 1_555
Mg0_0 Yb3_2 3.606920 1_545
Mg0_0 Yb3_4 3.606920 1_455
Mg0_0 Yb4_2 3.617430 1_555
Mg0_0 Yb4_4 3.617430 1_555
Mg0_0 Yb1_3 3.688747 1_554
Mg0_0 Yb1_5 3.688747 1_554
Mg0_0 Yb2_0 3.700270 1_555
Mg0_0 Yb4_0 3.980516 1_555
Mg0_1 Yb0_5 3.554740 1_555
Mg0_1 Yb0_3 3.554740 1_555
Mg0_1 Yb3_3 3.606920 1_545
Mg0_1 Yb3_5 3.606920 1_455
Mg0_1 Yb4_3 3.617430 1_555
Mg0_1 Yb4_5 3.617430 1_555
Mg0_1 Yb1_2 3.688747 1_555
Mg0_1 Yb1_4 3.688747 1_555
Mg0_1 Yb2_1 3.700270 1_555
Mg0_1 Yb4_1 3.980516 1_555
Mg0_2 Yb0_0 3.554740 1_565
Mg0_2 Yb0_6 3.554740 1_555
Mg0_2 Yb3_0 3.606920 1_555
Mg0_2 Yb3_6 3.606920 1_455
Mg0_2 Yb4_6 3.617430 1_555
Mg0_2 Yb4_0 3.617430 1_565
Mg0_2 Yb1_7 3.688747 1_554
Mg0_2 Yb1_1 3.688747 1_564
Mg0_2 Yb2_2 3.700270 1_555
Mg0_2 Yb4_2 3.980516 1_555
Mg0_3 Yb0_1 3.554740 1_565
Mg0_3 Yb0_7 3.554740 1_555
Mg0_3 Yb3_7 3.606920 1_455
Mg0_3 Yb3_1 3.606920 1_555
Mg0_3 Yb4_7 3.617430 1_555
Mg0_3 Yb4_1 3.617430 1_565
Mg0_3 Yb1_6 3.688747 1_555
Mg0_3 Yb1_0 3.688747 1_565
Mg0_3 Yb2_3 3.700270 1_555
Mg0_3 Yb4_3 3.980516 1_555
Mg0_4 Yb0_0 3.554740 1_655
Mg0_4 Yb0_6 3.554740 1_555
Mg0_4 Yb3_6 3.606920 1_545
Mg0_4 Yb3_0 3.606920 1_555
Mg0_4 Yb4_6 3.617430 1_555
Mg0_4 Yb4_0 3.617430 1_655
Mg0_4 Yb1_7 3.688747 1_554
Mg0_4 Yb1_1 3.688747 1_654
Mg0_4 Yb2_4 3.700270 1_555
Mg0_4 Yb4_4 3.980516 1_555
Mg0_5 Yb0_1 3.554740 1_655
Mg0_5 Yb0_7 3.554740 1_555
Mg0_5 Yb3_7 3.606920 1_545
Mg0_5 Yb3_1 3.606920 1_555
Mg0_5 Yb4_7 3.617430 1_555
Mg0_5 Yb4_1 3.617430 1_655
Mg0_5 Yb1_0 3.688747 1_655
Mg0_5 Yb1_6 3.688747 1_555
Mg0_5 Yb2_5 3.700270 1_555
Mg0_5 Yb4_5 3.980516 1_555
Mg0_6 Yb0_4 3.554740 1_565
Mg0_6 Yb0_2 3.554740 1_655
Mg0_6 Yb3_2 3.606920 1_555
Mg0_6 Yb3_4 3.606920 1_555
Mg0_6 Yb4_4 3.617430 1_565
Mg0_6 Yb4_2 3.617430 1_655
Mg0_6 Yb1_3 3.688747 1_654
Mg0_6 Yb1_5 3.688747 1_564
Mg0_6 Yb2_6 3.700270 1_555
Mg0_6 Yb4_6 3.980516 1_555
Mg0_7 Yb0_5 3.554740 1_565
Mg0_7 Yb0_3 3.554740 1_655
Mg0_7 Yb3_5 3.606920 1_555
Mg0_7 Yb3_3 3.606920 1_555
Mg0_7 Yb4_3 3.617430 1_655
Mg0_7 Yb4_5 3.617430 1_565
Mg0_7 Yb1_2 3.688747 1_655
Mg0_7 Yb1_4 3.688747 1_565
Mg0_7 Yb2_7 3.700270 1_555
Mg0_7 Yb4_7 3.980516 1_555
