# generated using pymatgen
data_Bi2AsO6
_symmetry_space_group_name_H-M   'P 1'
_cell_length_a   7.09348600
_cell_length_b   7.15790500
_cell_length_c   10.90730737
_cell_angle_alpha   71.81163921
_cell_angle_beta   90.00000000
_cell_angle_gamma   90.00000000
_symmetry_Int_Tables_number   1
_chemical_formula_structural   Bi2AsO6
_chemical_formula_sum   'Bi8 As4 O24'
_cell_volume   526.14206248
_cell_formula_units_Z   4
loop_
 _symmetry_equiv_pos_site_id
 _symmetry_equiv_pos_as_xyz
  1  'x, y, z'
loop_
 _atom_site_type_symbol
 _atom_site_label
 _atom_site_symmetry_multiplicity
 _atom_site_fract_x
 _atom_site_fract_y
 _atom_site_fract_z
 _atom_site_occupancy
  Bi  Bi0  1  0.90891800  0.74127700  0.97675200  1
  Bi  Bi1  1  0.40891800  0.25872300  0.52324800  1
  Bi  Bi2  1  0.09108200  0.25872300  0.02324800  1
  Bi  Bi3  1  0.59108200  0.74127700  0.47675200  1
  Bi  Bi4  1  0.36755800  0.59626800  0.17764000  1
  Bi  Bi5  1  0.86755800  0.40373200  0.32236000  1
  Bi  Bi6  1  0.63244200  0.40373200  0.82236000  1
  Bi  Bi7  1  0.13244200  0.59626800  0.67764000  1
  As  As0  1  0.07188900  0.87018900  0.32882400  1
  As  As1  1  0.57188900  0.12981100  0.17117600  1
  As  As2  1  0.92811100  0.12981100  0.67117600  1
  As  As3  1  0.42811100  0.87018900  0.82882400  1
  O  O0  1  0.07975100  0.49490800  0.11314700  1
  O  O1  1  0.57975100  0.50509200  0.38685300  1
  O  O2  1  0.92024900  0.50509200  0.88685300  1
  O  O3  1  0.42024900  0.49490800  0.61314700  1
  O  O4  1  0.72078600  0.57286200  0.14383600  1
  O  O5  1  0.22078600  0.42713800  0.35616400  1
  O  O6  1  0.27921400  0.42713800  0.85616400  1
  O  O7  1  0.77921400  0.57286200  0.64383600  1
  O  O8  1  0.13671500  0.82098700  0.18931300  1
  O  O9  1  0.63671500  0.17901300  0.31068700  1
  O  O10  1  0.86328500  0.17901300  0.81068700  1
  O  O11  1  0.36328500  0.82098700  0.68931300  1
  O  O12  1  0.22720000  0.82356600  0.45615800  1
  O  O13  1  0.72720000  0.17643400  0.04384200  1
  O  O14  1  0.77280000  0.17643400  0.54384200  1
  O  O15  1  0.27280000  0.82356600  0.95615800  1
  O  O16  1  0.88720000  0.70809700  0.38763500  1
  O  O17  1  0.38720000  0.29190300  0.11236500  1
  O  O18  1  0.11280000  0.29190300  0.61236500  1
  O  O19  1  0.61280000  0.70809700  0.88763500  1
  O  O20  1  0.01299000  0.11348000  0.27275900  1
  O  O21  1  0.51299000  0.88652000  0.22724100  1
  O  O22  1  0.98701000  0.88652000  0.72724100  1
  O  O23  1  0.48701000  0.11348000  0.77275900  1
loop_
_geom_bond_atom_site_label_1
_geom_bond_atom_site_label_2
_geom_bond_distance
_geom_bond_site_symmetry_2
Bi0 O2 2.204752 1_555
Bi0 O0 2.270191 1_656
Bi0 O4 2.276819 1_556
Bi0 O19 2.357435 1_555
Bi0 O15 2.641468 1_655
Bi0 O22 2.651018 1_555
Bi1 O3 2.204752 1_555
Bi1 O1 2.270191 1_555
Bi1 O5 2.276819 1_555
Bi1 O18 2.357435 1_555
Bi1 O14 2.641468 1_555
Bi1 O23 2.651018 1_555
Bi2 O0 2.204752 1_555
Bi2 O2 2.270191 1_454
Bi2 O6 2.276819 1_554
Bi2 O17 2.357435 1_555
Bi2 O13 2.641468 1_455
Bi2 O20 2.651018 1_555
Bi3 O1 2.204752 1_555
Bi3 O3 2.270191 1_555
Bi3 O7 2.276819 1_555
Bi3 O16 2.357435 1_555
Bi3 O12 2.641468 1_555
Bi3 O21 2.651018 1_555
Bi4 O5 2.206703 1_555
Bi4 O8 2.326529 1_555
Bi4 O0 2.346866 1_555
Bi4 O17 2.498204 1_555
Bi4 O21 2.524884 1_555
Bi4 O4 2.545722 1_555
Bi4 O15 2.545806 1_554
Bi4 O1 2.639903 1_555
Bi5 O4 2.206703 1_555
Bi5 O9 2.326529 1_555
Bi5 O1 2.346866 1_555
Bi5 O16 2.498204 1_555
Bi5 O20 2.524884 1_655
Bi5 O5 2.545722 1_655
Bi5 O14 2.545806 1_555
Bi5 O0 2.639903 1_655
Bi6 O7 2.206703 1_555
Bi6 O10 2.326529 1_555
Bi6 O2 2.346866 1_555
Bi6 O19 2.498204 1_555
Bi6 O23 2.524884 1_555
Bi6 O6 2.545722 1_555
Bi6 O13 2.545806 1_556
Bi6 O3 2.639903 1_555
Bi7 O6 2.206703 1_555
Bi7 O11 2.326529 1_555
Bi7 O3 2.346866 1_555
Bi7 O18 2.498204 1_555
Bi7 O22 2.524884 1_455
Bi7 O7 2.545722 1_455
Bi7 O12 2.545806 1_555
Bi7 O2 2.639903 1_455
As0 O20 1.707733 1_565
As0 O12 1.721835 1_555
As0 O8 1.727886 1_555
As0 O16 1.734746 1_455
As1 O21 1.707733 1_545
As1 O13 1.721835 1_555
As1 O9 1.727886 1_555
As1 O17 1.734746 1_555
As2 O22 1.707733 1_545
As2 O14 1.721835 1_555
As2 O10 1.727886 1_555
As2 O18 1.734746 1_655
As3 O23 1.707733 1_565
As3 O15 1.721835 1_555
As3 O11 1.727886 1_555
As3 O19 1.734746 1_555
