# generated using pymatgen
data_SrLiPO4
_symmetry_space_group_name_H-M   'P 1'
_cell_length_a   5.08372525
_cell_length_b   5.08372525
_cell_length_c   8.44133000
_cell_angle_alpha   90.00000000
_cell_angle_beta   90.00000000
_cell_angle_gamma   119.99999029
_symmetry_Int_Tables_number   1
_chemical_formula_structural   SrLiPO4
_chemical_formula_sum   'Sr2 Li2 P2 O8'
_cell_volume   188.93207553
_cell_formula_units_Z   2
loop_
 _symmetry_equiv_pos_site_id
 _symmetry_equiv_pos_as_xyz
  1  'x, y, z'
loop_
 _atom_site_type_symbol
 _atom_site_label
 _atom_site_symmetry_multiplicity
 _atom_site_fract_x
 _atom_site_fract_y
 _atom_site_fract_z
 _atom_site_occupancy
  Sr  Sr0  1  0.00000000  0.00000000  0.98310900  1
  Sr  Sr1  1  0.00000000  0.00000000  0.48310900  1
  Li  Li0  1  0.66666700  0.33333300  0.17480100  1
  Li  Li1  1  0.33333300  0.66666700  0.67480100  1
  P  P0  1  0.66666700  0.33333300  0.77122200  1
  P  P1  1  0.33333300  0.66666700  0.27122200  1
  O  O0  1  0.66666700  0.33333300  0.95469900  1
  O  O1  1  0.33333300  0.66666700  0.45469900  1
  O  O2  1  0.94099400  0.30321700  0.71493900  1
  O  O3  1  0.36222300  0.05900600  0.71493900  1
  O  O4  1  0.05900600  0.69678300  0.21493900  1
  O  O5  1  0.69678300  0.63777700  0.71493900  1
  O  O6  1  0.63777700  0.94099400  0.21493900  1
  O  O7  1  0.30321700  0.36222300  0.21493900  1
loop_
_geom_bond_atom_site_label_1
_geom_bond_atom_site_label_2
_geom_bond_distance
_geom_bond_site_symmetry_2
Li0 O0 1.857954 1_554
Li0 O6 1.954901 1_545
Li0 O4 1.954903 1_655
Li0 O7 1.954906 1_555
Li1 O1 1.857954 1_555
Li1 O3 1.954901 1_565
Li1 O2 1.954903 1_455
Li1 O5 1.954906 1_555
O0 P0 1.548790 1_555
O0 Sr0 2.944868 1_655
O0 Sr0 2.944873 1_555
O0 Sr0 2.944873 1_665
O1 P1 1.548790 1_555
O1 Sr1 2.944868 1_565
O1 Sr1 2.944873 1_555
O1 Sr1 2.944873 1_665
O2 P0 1.551643 1_555
O2 Sr1 2.599650 1_655
O2 Sr0 2.837764 1_655
O3 P0 1.551646 1_555
O3 Sr1 2.599650 1_555
O3 Sr0 2.837764 1_555
O4 P1 1.551643 1_555
O4 Sr0 2.599650 1_564
O4 Sr1 2.837764 1_565
O5 P0 1.551648 1_555
O5 Sr1 2.599650 1_665
O5 Sr0 2.837764 1_665
O6 P1 1.551646 1_555
O6 Sr0 2.599650 1_664
O6 Sr1 2.837764 1_665
O7 P1 1.551648 1_555
O7 Sr0 2.599650 1_554
O7 Sr1 2.837764 1_555
