# generated using pymatgen
data_Ga5W2
_symmetry_space_group_name_H-M   'P 1'
_cell_length_a   18.35996800
_cell_length_b   18.35996800
_cell_length_c   5.46925000
_cell_angle_alpha   90.00000000
_cell_angle_beta   90.00000000
_cell_angle_gamma   90.00000000
_symmetry_Int_Tables_number   1
_chemical_formula_structural   Ga5W2
_chemical_formula_sum   'Ga80 W32'
_cell_volume   1843.62086822
_cell_formula_units_Z   16
loop_
 _symmetry_equiv_pos_site_id
 _symmetry_equiv_pos_as_xyz
  1  'x, y, z'
loop_
 _atom_site_type_symbol
 _atom_site_label
 _atom_site_symmetry_multiplicity
 _atom_site_fract_x
 _atom_site_fract_y
 _atom_site_fract_z
 _atom_site_occupancy
  Ga  Ga0_0  1  0.25000000  0.00000000  0.00000000  1
  Ga  Ga0_1  1  0.25000000  0.00000000  0.50000000  1
  Ga  Ga0_2  1  0.25000000  0.50000000  0.00000000  1
  Ga  Ga0_3  1  0.25000000  0.50000000  0.50000000  1
  Ga  Ga0_4  1  0.75000000  0.00000000  0.00000000  1
  Ga  Ga0_5  1  0.75000000  0.00000000  0.50000000  1
  Ga  Ga0_6  1  0.75000000  0.50000000  0.00000000  1
  Ga  Ga0_7  1  0.75000000  0.50000000  0.50000000  1
  Ga  Ga1_0  1  0.00000000  0.25000000  0.00000000  1
  Ga  Ga1_1  1  0.00000000  0.25000000  0.50000000  1
  Ga  Ga1_2  1  0.00000000  0.75000000  0.00000000  1
  Ga  Ga1_3  1  0.00000000  0.75000000  0.50000000  1
  Ga  Ga1_4  1  0.50000000  0.25000000  0.00000000  1
  Ga  Ga1_5  1  0.50000000  0.25000000  0.50000000  1
  Ga  Ga1_6  1  0.50000000  0.75000000  0.00000000  1
  Ga  Ga1_7  1  0.50000000  0.75000000  0.50000000  1
  Ga  Ga2_0  1  0.27985850  0.35047050  0.00000000  1
  Ga  Ga2_1  1  0.27985850  0.35047050  0.50000000  1
  Ga  Ga2_2  1  0.27985850  0.85047050  0.00000000  1
  Ga  Ga2_3  1  0.27985850  0.85047050  0.50000000  1
  Ga  Ga2_4  1  0.77985850  0.35047050  0.00000000  1
  Ga  Ga2_5  1  0.77985850  0.35047050  0.50000000  1
  Ga  Ga2_6  1  0.77985850  0.85047050  0.00000000  1
  Ga  Ga2_7  1  0.77985850  0.85047050  0.50000000  1
  Ga  Ga3_0  1  0.22014150  0.14952950  0.00000000  1
  Ga  Ga3_1  1  0.22014150  0.14952950  0.50000000  1
  Ga  Ga3_2  1  0.22014150  0.64952950  0.00000000  1
  Ga  Ga3_3  1  0.22014150  0.64952950  0.50000000  1
  Ga  Ga3_4  1  0.72014150  0.14952950  0.00000000  1
  Ga  Ga3_5  1  0.72014150  0.14952950  0.50000000  1
  Ga  Ga3_6  1  0.72014150  0.64952950  0.00000000  1
  Ga  Ga3_7  1  0.72014150  0.64952950  0.50000000  1
  Ga  Ga4_0  1  0.02985850  0.39952950  0.00000000  1
  Ga  Ga4_1  1  0.02985850  0.39952950  0.50000000  1
  Ga  Ga4_2  1  0.02985850  0.89952950  0.00000000  1
  Ga  Ga4_3  1  0.02985850  0.89952950  0.50000000  1
  Ga  Ga4_4  1  0.52985850  0.39952950  0.00000000  1
  Ga  Ga4_5  1  0.52985850  0.39952950  0.50000000  1
  Ga  Ga4_6  1  0.52985850  0.89952950  0.00000000  1
  Ga  Ga4_7  1  0.52985850  0.89952950  0.50000000  1
  Ga  Ga5_0  1  0.47014150  0.10047050  0.00000000  1
  Ga  Ga5_1  1  0.47014150  0.10047050  0.50000000  1
  Ga  Ga5_2  1  0.47014150  0.60047050  0.00000000  1
  Ga  Ga5_3  1  0.47014150  0.60047050  0.50000000  1
  Ga  Ga5_4  1  0.97014150  0.10047050  0.00000000  1
  Ga  Ga5_5  1  0.97014150  0.10047050  0.50000000  1
  Ga  Ga5_6  1  0.97014150  0.60047050  0.00000000  1
  Ga  Ga5_7  1  0.97014150  0.60047050  0.50000000  1
  Ga  Ga6_0  1  0.14952950  0.27985850  0.00000000  1
  Ga  Ga6_1  1  0.14952950  0.27985850  0.50000000  1
  Ga  Ga6_2  1  0.14952950  0.77985850  0.00000000  1
  Ga  Ga6_3  1  0.14952950  0.77985850  0.50000000  1
  Ga  Ga6_4  1  0.64952950  0.27985850  0.00000000  1
  Ga  Ga6_5  1  0.64952950  0.27985850  0.50000000  1
  Ga  Ga6_6  1  0.64952950  0.77985850  0.00000000  1
  Ga  Ga6_7  1  0.64952950  0.77985850  0.50000000  1
  Ga  Ga7_0  1  0.35047050  0.22014150  0.00000000  1
  Ga  Ga7_1  1  0.35047050  0.22014150  0.50000000  1
  Ga  Ga7_2  1  0.35047050  0.72014150  0.00000000  1
  Ga  Ga7_3  1  0.35047050  0.72014150  0.50000000  1
  Ga  Ga7_4  1  0.85047050  0.22014150  0.00000000  1
  Ga  Ga7_5  1  0.85047050  0.22014150  0.50000000  1
  Ga  Ga7_6  1  0.85047050  0.72014150  0.00000000  1
  Ga  Ga7_7  1  0.85047050  0.72014150  0.50000000  1
  Ga  Ga8_0  1  0.10047050  0.02985850  0.00000000  1
  Ga  Ga8_1  1  0.10047050  0.02985850  0.50000000  1
  Ga  Ga8_2  1  0.10047050  0.52985850  0.00000000  1
  Ga  Ga8_3  1  0.10047050  0.52985850  0.50000000  1
  Ga  Ga8_4  1  0.60047050  0.02985850  0.00000000  1
  Ga  Ga8_5  1  0.60047050  0.02985850  0.50000000  1
  Ga  Ga8_6  1  0.60047050  0.52985850  0.00000000  1
  Ga  Ga8_7  1  0.60047050  0.52985850  0.50000000  1
  Ga  Ga9_0  1  0.39952950  0.47014150  0.00000000  1
  Ga  Ga9_1  1  0.39952950  0.47014150  0.50000000  1
  Ga  Ga9_2  1  0.39952950  0.97014150  0.00000000  1
  Ga  Ga9_3  1  0.39952950  0.97014150  0.50000000  1
  Ga  Ga9_4  1  0.89952950  0.47014150  0.00000000  1
  Ga  Ga9_5  1  0.89952950  0.47014150  0.50000000  1
  Ga  Ga9_6  1  0.89952950  0.97014150  0.00000000  1
  Ga  Ga9_7  1  0.89952950  0.97014150  0.50000000  1
  W  W0_0  1  0.33966450  0.08966450  0.25000000  1
  W  W0_1  1  0.33966450  0.08966450  0.75000000  1
  W  W0_2  1  0.33966450  0.58966450  0.25000000  1
  W  W0_3  1  0.33966450  0.58966450  0.75000000  1
  W  W0_4  1  0.83966450  0.08966450  0.25000000  1
  W  W0_5  1  0.83966450  0.08966450  0.75000000  1
  W  W0_6  1  0.83966450  0.58966450  0.25000000  1
  W  W0_7  1  0.83966450  0.58966450  0.75000000  1
  W  W1_0  1  0.16033550  0.41033550  0.25000000  1
  W  W1_1  1  0.16033550  0.41033550  0.75000000  1
  W  W1_2  1  0.16033550  0.91033550  0.25000000  1
  W  W1_3  1  0.16033550  0.91033550  0.75000000  1
  W  W1_4  1  0.66033550  0.41033550  0.25000000  1
  W  W1_5  1  0.66033550  0.41033550  0.75000000  1
  W  W1_6  1  0.66033550  0.91033550  0.25000000  1
  W  W1_7  1  0.66033550  0.91033550  0.75000000  1
  W  W2_0  1  0.08966450  0.16033550  0.25000000  1
  W  W2_1  1  0.08966450  0.16033550  0.75000000  1
  W  W2_2  1  0.08966450  0.66033550  0.25000000  1
  W  W2_3  1  0.08966450  0.66033550  0.75000000  1
  W  W2_4  1  0.58966450  0.16033550  0.25000000  1
  W  W2_5  1  0.58966450  0.16033550  0.75000000  1
  W  W2_6  1  0.58966450  0.66033550  0.25000000  1
  W  W2_7  1  0.58966450  0.66033550  0.75000000  1
  W  W3_0  1  0.41033550  0.33966450  0.25000000  1
  W  W3_1  1  0.41033550  0.33966450  0.75000000  1
  W  W3_2  1  0.41033550  0.83966450  0.25000000  1
  W  W3_3  1  0.41033550  0.83966450  0.75000000  1
  W  W3_4  1  0.91033550  0.33966450  0.25000000  1
  W  W3_5  1  0.91033550  0.33966450  0.75000000  1
  W  W3_6  1  0.91033550  0.83966450  0.25000000  1
  W  W3_7  1  0.91033550  0.83966450  0.75000000  1
loop_
_geom_bond_atom_site_label_1
_geom_bond_atom_site_label_2
_geom_bond_distance
_geom_bond_site_symmetry_2
Ga0_0 W0_1 2.699952 1_554
Ga0_0 W0_0 2.699952 1_555
Ga0_0 W1_3 2.699952 1_544
Ga0_0 W1_2 2.699952 1_545
Ga0_0 Ga0_1 2.734625 1_555
Ga0_0 Ga0_1 2.734625 1_554
Ga0_0 Ga3_0 2.799555 1_555
Ga0_0 Ga9_2 2.799555 1_545
Ga0_0 Ga2_2 2.799555 1_545
Ga0_0 Ga8_0 2.799555 1_555
Ga0_1 W0_1 2.699952 1_555
Ga0_1 W0_0 2.699952 1_555
Ga0_1 W1_2 2.699952 1_545
Ga0_1 W1_3 2.699952 1_545
Ga0_1 Ga3_1 2.799555 1_555
Ga0_1 Ga9_3 2.799555 1_545
Ga0_1 Ga2_3 2.799555 1_545
Ga0_1 Ga8_1 2.799555 1_555
Ga0_2 W0_2 2.699952 1_555
Ga0_2 W0_3 2.699952 1_554
Ga0_2 W1_0 2.699952 1_555
Ga0_2 W1_1 2.699952 1_554
Ga0_2 Ga0_3 2.734625 1_555
Ga0_2 Ga0_3 2.734625 1_554
Ga0_2 Ga3_2 2.799555 1_555
Ga0_2 Ga9_0 2.799555 1_555
Ga0_2 Ga8_2 2.799555 1_555
Ga0_2 Ga2_0 2.799555 1_555
Ga0_3 W0_2 2.699952 1_555
Ga0_3 W0_3 2.699952 1_555
Ga0_3 W1_0 2.699952 1_555
Ga0_3 W1_1 2.699952 1_555
Ga0_3 Ga3_3 2.799555 1_555
Ga0_3 Ga9_1 2.799555 1_555
Ga0_3 Ga8_3 2.799555 1_555
Ga0_3 Ga2_1 2.799555 1_555
Ga0_4 W0_5 2.699952 1_554
Ga0_4 W0_4 2.699952 1_555
Ga0_4 W1_7 2.699952 1_544
Ga0_4 W1_6 2.699952 1_545
Ga0_4 Ga0_5 2.734625 1_554
Ga0_4 Ga0_5 2.734625 1_555
Ga0_4 Ga3_4 2.799555 1_555
Ga0_4 Ga9_6 2.799555 1_545
Ga0_4 Ga2_6 2.799555 1_545
Ga0_4 Ga8_4 2.799555 1_555
Ga0_5 W0_4 2.699952 1_555
Ga0_5 W0_5 2.699952 1_555
Ga0_5 W1_6 2.699952 1_545
Ga0_5 W1_7 2.699952 1_545
Ga0_5 Ga3_5 2.799555 1_555
Ga0_5 Ga9_7 2.799555 1_545
Ga0_5 Ga2_7 2.799555 1_545
Ga0_5 Ga8_5 2.799555 1_555
Ga0_6 W0_7 2.699952 1_554
Ga0_6 W0_6 2.699952 1_555
Ga0_6 W1_5 2.699952 1_554
Ga0_6 W1_4 2.699952 1_555
Ga0_6 Ga0_7 2.734625 1_555
Ga0_6 Ga0_7 2.734625 1_554
Ga0_6 Ga3_6 2.799555 1_555
Ga0_6 Ga9_4 2.799555 1_555
Ga0_6 Ga2_4 2.799555 1_555
Ga0_6 Ga8_6 2.799555 1_555
Ga0_7 W0_6 2.699952 1_555
Ga0_7 W0_7 2.699952 1_555
Ga0_7 W1_4 2.699952 1_555
Ga0_7 W1_5 2.699952 1_555
Ga0_7 Ga3_7 2.799555 1_555
Ga0_7 Ga9_5 2.799555 1_555
Ga0_7 Ga2_5 2.799555 1_555
Ga0_7 Ga8_7 2.799555 1_555
Ga1_0 W2_0 2.699952 1_555
Ga1_0 W2_1 2.699952 1_554
Ga1_0 W3_4 2.699952 1_455
Ga1_0 W3_5 2.699952 1_454
Ga1_0 Ga1_1 2.734625 1_554
Ga1_0 Ga1_1 2.734625 1_555
Ga1_0 Ga6_0 2.799555 1_555
Ga1_0 Ga4_0 2.799555 1_555
Ga1_0 Ga7_4 2.799555 1_455
Ga1_0 Ga5_4 2.799555 1_455
Ga1_1 W2_0 2.699952 1_555
Ga1_1 W2_1 2.699952 1_555
Ga1_1 W3_4 2.699952 1_455
Ga1_1 W3_5 2.699952 1_455
Ga1_1 Ga6_1 2.799555 1_555
Ga1_1 Ga4_1 2.799555 1_555
Ga1_1 Ga7_5 2.799555 1_455
Ga1_1 Ga5_5 2.799555 1_455
Ga1_2 W2_3 2.699952 1_554
Ga1_2 W3_7 2.699952 1_454
Ga1_2 W2_2 2.699952 1_555
Ga1_2 W3_6 2.699952 1_455
Ga1_2 Ga1_3 2.734625 1_555
Ga1_2 Ga1_3 2.734625 1_554
Ga1_2 Ga6_2 2.799555 1_555
Ga1_2 Ga4_2 2.799555 1_555
Ga1_2 Ga7_6 2.799555 1_455
Ga1_2 Ga5_6 2.799555 1_455
Ga1_3 W2_2 2.699952 1_555
Ga1_3 W2_3 2.699952 1_555
Ga1_3 W3_6 2.699952 1_455
Ga1_3 W3_7 2.699952 1_455
Ga1_3 Ga6_3 2.799555 1_555
Ga1_3 Ga4_3 2.799555 1_555
Ga1_3 Ga7_7 2.799555 1_455
Ga1_3 Ga5_7 2.799555 1_455
Ga1_4 W2_5 2.699952 1_554
Ga1_4 W2_4 2.699952 1_555
Ga1_4 W3_1 2.699952 1_554
Ga1_4 W3_0 2.699952 1_555
Ga1_4 Ga1_5 2.734625 1_555
Ga1_4 Ga1_5 2.734625 1_554
Ga1_4 Ga6_4 2.799555 1_555
Ga1_4 Ga4_4 2.799555 1_555
Ga1_4 Ga5_0 2.799555 1_555
Ga1_4 Ga7_0 2.799555 1_555
Ga1_5 W2_4 2.699952 1_555
Ga1_5 W2_5 2.699952 1_555
Ga1_5 W3_1 2.699952 1_555
Ga1_5 W3_0 2.699952 1_555
Ga1_5 Ga6_5 2.799555 1_555
Ga1_5 Ga4_5 2.799555 1_555
Ga1_5 Ga5_1 2.799555 1_555
Ga1_5 Ga7_1 2.799555 1_555
Ga1_6 W2_7 2.699952 1_554
Ga1_6 W2_6 2.699952 1_555
Ga1_6 W3_3 2.699952 1_554
Ga1_6 W3_2 2.699952 1_555
Ga1_6 Ga1_7 2.734625 1_554
Ga1_6 Ga1_7 2.734625 1_555
Ga1_6 Ga6_6 2.799555 1_555
Ga1_6 Ga4_6 2.799555 1_555
Ga1_6 Ga7_2 2.799555 1_555
Ga1_6 Ga5_2 2.799555 1_555
Ga1_7 W2_6 2.699952 1_555
Ga1_7 W2_7 2.699952 1_555
Ga1_7 W3_2 2.699952 1_555
Ga1_7 W3_3 2.699952 1_555
Ga1_7 Ga6_7 2.799555 1_555
Ga1_7 Ga4_7 2.799555 1_555
Ga1_7 Ga7_3 2.799555 1_555
Ga1_7 Ga5_3 2.799555 1_555
Ga2_0 Ga7_0 2.721471 1_555
Ga2_0 Ga6_0 2.721471 1_555
Ga2_0 Ga2_1 2.734625 1_555
Ga2_0 Ga2_1 2.734625 1_554
Ga2_0 W3_1 2.765426 1_554
Ga2_0 W3_0 2.765426 1_555
Ga2_0 W1_1 2.809478 1_554
Ga2_0 W1_0 2.809478 1_555
Ga2_0 Ga9_0 3.107247 1_555
Ga2_1 Ga7_1 2.721471 1_555
Ga2_1 Ga6_1 2.721471 1_555
Ga2_1 W3_1 2.765426 1_555
Ga2_1 W3_0 2.765426 1_555
Ga2_1 W1_0 2.809478 1_555
Ga2_1 W1_1 2.809478 1_555
Ga2_1 Ga9_1 3.107247 1_555
Ga2_2 Ga7_2 2.721471 1_555
Ga2_2 Ga6_2 2.721471 1_555
Ga2_2 Ga2_3 2.734625 1_554
Ga2_2 Ga2_3 2.734625 1_555
Ga2_2 W3_3 2.765426 1_554
Ga2_2 W3_2 2.765426 1_555
Ga2_2 W1_3 2.809478 1_554
Ga2_2 W1_2 2.809478 1_555
Ga2_2 Ga9_2 3.107247 1_555
Ga2_3 Ga7_3 2.721471 1_555
Ga2_3 Ga6_3 2.721471 1_555
Ga2_3 W3_3 2.765426 1_555
Ga2_3 W3_2 2.765426 1_555
Ga2_3 W1_3 2.809478 1_555
Ga2_3 W1_2 2.809478 1_555
Ga2_3 Ga9_3 3.107247 1_555
Ga2_4 Ga7_4 2.721471 1_555
Ga2_4 Ga6_4 2.721471 1_555
Ga2_4 Ga2_5 2.734625 1_554
Ga2_4 Ga2_5 2.734625 1_555
Ga2_4 W3_5 2.765426 1_554
Ga2_4 W3_4 2.765426 1_555
Ga2_4 W1_4 2.809478 1_555
Ga2_4 W1_5 2.809478 1_554
Ga2_4 Ga9_4 3.107247 1_555
Ga2_5 Ga7_5 2.721471 1_555
Ga2_5 Ga6_5 2.721471 1_555
Ga2_5 W3_4 2.765426 1_555
Ga2_5 W3_5 2.765426 1_555
Ga2_5 W1_4 2.809478 1_555
Ga2_5 W1_5 2.809478 1_555
Ga2_5 Ga9_5 3.107247 1_555
Ga2_6 Ga7_6 2.721471 1_555
Ga2_6 Ga6_6 2.721471 1_555
Ga2_6 Ga2_7 2.734625 1_555
Ga2_6 Ga2_7 2.734625 1_554
Ga2_6 W3_6 2.765426 1_555
Ga2_6 W3_7 2.765426 1_554
Ga2_6 W1_6 2.809478 1_555
Ga2_6 W1_7 2.809478 1_554
Ga2_6 Ga9_6 3.107247 1_555
Ga2_7 Ga7_7 2.721471 1_555
Ga2_7 Ga6_7 2.721471 1_555
Ga2_7 W3_6 2.765426 1_555
Ga2_7 W3_7 2.765426 1_555
Ga2_7 W1_6 2.809478 1_555
Ga2_7 W1_7 2.809478 1_555
Ga2_7 Ga9_7 3.107247 1_555
Ga3_0 Ga7_0 2.721471 1_555
Ga3_0 Ga6_0 2.721471 1_555
Ga3_0 Ga3_1 2.734625 1_555
Ga3_0 Ga3_1 2.734625 1_554
Ga3_0 W2_1 2.765426 1_554
Ga3_0 W2_0 2.765426 1_555
Ga3_0 W0_1 2.809478 1_554
Ga3_0 W0_0 2.809478 1_555
Ga3_0 Ga8_0 3.107247 1_555
Ga3_1 Ga7_1 2.721471 1_555
Ga3_1 Ga6_1 2.721471 1_555
Ga3_1 W2_0 2.765426 1_555
Ga3_1 W2_1 2.765426 1_555
Ga3_1 W0_0 2.809478 1_555
Ga3_1 W0_1 2.809478 1_555
Ga3_1 Ga8_1 3.107247 1_555
Ga3_2 Ga7_2 2.721471 1_555
Ga3_2 Ga6_2 2.721471 1_555
Ga3_2 Ga3_3 2.734625 1_555
Ga3_2 Ga3_3 2.734625 1_554
Ga3_2 W2_3 2.765426 1_554
Ga3_2 W2_2 2.765426 1_555
Ga3_2 W0_3 2.809478 1_554
Ga3_2 W0_2 2.809478 1_555
Ga3_2 Ga8_2 3.107247 1_555
Ga3_3 Ga7_3 2.721471 1_555
Ga3_3 Ga6_3 2.721471 1_555
Ga3_3 W2_2 2.765426 1_555
Ga3_3 W2_3 2.765426 1_555
Ga3_3 W0_2 2.809478 1_555
Ga3_3 W0_3 2.809478 1_555
Ga3_3 Ga8_3 3.107247 1_555
Ga3_4 Ga7_4 2.721471 1_555
Ga3_4 Ga6_4 2.721471 1_555
Ga3_4 Ga3_5 2.734625 1_555
Ga3_4 Ga3_5 2.734625 1_554
Ga3_4 W2_5 2.765426 1_554
Ga3_4 W2_4 2.765426 1_555
Ga3_4 W0_5 2.809478 1_554
Ga3_4 W0_4 2.809478 1_555
Ga3_4 Ga8_4 3.107247 1_555
Ga3_5 Ga7_5 2.721471 1_555
Ga3_5 Ga6_5 2.721471 1_555
Ga3_5 W2_4 2.765426 1_555
Ga3_5 W2_5 2.765426 1_555
Ga3_5 W0_4 2.809478 1_555
Ga3_5 W0_5 2.809478 1_555
Ga3_5 Ga8_5 3.107247 1_555
Ga3_6 Ga7_6 2.721471 1_555
Ga3_6 Ga6_6 2.721471 1_555
Ga3_6 Ga3_7 2.734625 1_554
Ga3_6 Ga3_7 2.734625 1_555
Ga3_6 W2_7 2.765426 1_554
Ga3_6 W2_6 2.765426 1_555
Ga3_6 W0_7 2.809478 1_554
Ga3_6 W0_6 2.809478 1_555
Ga3_6 Ga8_6 3.107247 1_555
Ga3_7 Ga7_7 2.721471 1_555
Ga3_7 Ga6_7 2.721471 1_555
Ga3_7 W2_6 2.765426 1_555
Ga3_7 W2_7 2.765426 1_555
Ga3_7 W0_6 2.809478 1_555
Ga3_7 W0_7 2.809478 1_555
Ga3_7 Ga8_7 3.107247 1_555
Ga4_0 Ga8_2 2.721471 1_555
Ga4_0 Ga9_4 2.721471 1_455
Ga4_0 Ga4_1 2.734625 1_555
Ga4_0 Ga4_1 2.734625 1_554
Ga4_0 W1_0 2.765426 1_555
Ga4_0 W1_1 2.765426 1_554
Ga4_0 W3_4 2.809478 1_455
Ga4_0 W3_5 2.809478 1_454
Ga4_0 Ga6_0 3.107247 1_555
Ga4_1 Ga8_3 2.721471 1_555
Ga4_1 Ga9_5 2.721471 1_455
Ga4_1 W1_0 2.765426 1_555
Ga4_1 W1_1 2.765426 1_555
Ga4_1 W3_4 2.809478 1_455
Ga4_1 W3_5 2.809478 1_455
Ga4_1 Ga6_1 3.107247 1_555
Ga4_2 Ga8_0 2.721471 1_565
Ga4_2 Ga9_6 2.721471 1_455
Ga4_2 Ga4_3 2.734625 1_554
Ga4_2 Ga4_3 2.734625 1_555
Ga4_2 W1_2 2.765426 1_555
Ga4_2 W1_3 2.765426 1_554
Ga4_2 W3_7 2.809478 1_454
Ga4_2 W3_6 2.809478 1_455
Ga4_2 Ga6_2 3.107247 1_555
Ga4_3 Ga8_1 2.721471 1_565
Ga4_3 Ga9_7 2.721471 1_455
Ga4_3 W1_2 2.765426 1_555
Ga4_3 W1_3 2.765426 1_555
Ga4_3 W3_6 2.809478 1_455
Ga4_3 W3_7 2.809478 1_455
Ga4_3 Ga6_3 3.107247 1_555
Ga4_4 Ga8_6 2.721471 1_555
Ga4_4 Ga9_0 2.721471 1_555
Ga4_4 Ga4_5 2.734625 1_554
Ga4_4 Ga4_5 2.734625 1_555
Ga4_4 W1_5 2.765426 1_554
Ga4_4 W1_4 2.765426 1_555
Ga4_4 W3_1 2.809478 1_554
Ga4_4 W3_0 2.809478 1_555
Ga4_4 Ga6_4 3.107247 1_555
Ga4_5 Ga8_7 2.721471 1_555
Ga4_5 Ga9_1 2.721471 1_555
Ga4_5 W1_5 2.765426 1_555
Ga4_5 W1_4 2.765426 1_555
Ga4_5 W3_0 2.809478 1_555
Ga4_5 W3_1 2.809478 1_555
Ga4_5 Ga6_5 3.107247 1_555
Ga4_6 Ga8_4 2.721471 1_565
Ga4_6 Ga9_2 2.721471 1_555
Ga4_6 Ga4_7 2.734625 1_554
Ga4_6 Ga4_7 2.734625 1_555
Ga4_6 W1_7 2.765426 1_554
Ga4_6 W1_6 2.765426 1_555
Ga4_6 W3_3 2.809478 1_554
Ga4_6 W3_2 2.809478 1_555
Ga4_6 Ga6_6 3.107247 1_555
Ga4_7 Ga8_5 2.721471 1_565
Ga4_7 Ga9_3 2.721471 1_555
Ga4_7 W1_6 2.765426 1_555
Ga4_7 W1_7 2.765426 1_555
Ga4_7 W3_2 2.809478 1_555
Ga4_7 W3_3 2.809478 1_555
Ga4_7 Ga6_7 3.107247 1_555
Ga5_0 Ga8_4 2.721471 1_555
Ga5_0 Ga9_2 2.721471 1_545
Ga5_0 Ga5_1 2.734625 1_554
Ga5_0 Ga5_1 2.734625 1_555
Ga5_0 W0_1 2.765426 1_554
Ga5_0 W0_0 2.765426 1_555
Ga5_0 W2_5 2.809478 1_554
Ga5_0 W2_4 2.809478 1_555
Ga5_0 Ga7_0 3.107247 1_555
Ga5_1 Ga8_5 2.721471 1_555
Ga5_1 Ga9_3 2.721471 1_545
Ga5_1 W0_1 2.765426 1_555
Ga5_1 W0_0 2.765426 1_555
Ga5_1 W2_4 2.809478 1_555
Ga5_1 W2_5 2.809478 1_555
Ga5_1 Ga7_1 3.107247 1_555
Ga5_2 Ga8_6 2.721471 1_555
Ga5_2 Ga9_0 2.721471 1_555
Ga5_2 Ga5_3 2.734625 1_554
Ga5_2 Ga5_3 2.734625 1_555
Ga5_2 W0_3 2.765426 1_554
Ga5_2 W0_2 2.765426 1_555
Ga5_2 W2_6 2.809478 1_555
Ga5_2 W2_7 2.809478 1_554
Ga5_2 Ga7_2 3.107247 1_555
Ga5_3 Ga8_7 2.721471 1_555
Ga5_3 Ga9_1 2.721471 1_555
Ga5_3 W0_2 2.765426 1_555
Ga5_3 W0_3 2.765426 1_555
Ga5_3 W2_6 2.809478 1_555
Ga5_3 W2_7 2.809478 1_555
Ga5_3 Ga7_3 3.107247 1_555
Ga5_4 Ga8_0 2.721471 1_655
Ga5_4 Ga9_6 2.721471 1_545
Ga5_4 Ga5_5 2.734625 1_555
Ga5_4 Ga5_5 2.734625 1_554
Ga5_4 W0_5 2.765426 1_554
Ga5_4 W0_4 2.765426 1_555
Ga5_4 W2_1 2.809478 1_654
Ga5_4 W2_0 2.809478 1_655
Ga5_4 Ga7_4 3.107247 1_555
Ga5_5 Ga8_1 2.721471 1_655
Ga5_5 Ga9_7 2.721471 1_545
Ga5_5 W0_4 2.765426 1_555
Ga5_5 W0_5 2.765426 1_555
Ga5_5 W2_0 2.809478 1_655
Ga5_5 W2_1 2.809478 1_655
Ga5_5 Ga7_5 3.107247 1_555
Ga5_6 Ga8_2 2.721471 1_655
Ga5_6 Ga9_4 2.721471 1_555
Ga5_6 Ga5_7 2.734625 1_554
Ga5_6 Ga5_7 2.734625 1_555
Ga5_6 W0_7 2.765426 1_554
Ga5_6 W0_6 2.765426 1_555
Ga5_6 W2_3 2.809478 1_654
Ga5_6 W2_2 2.809478 1_655
Ga5_6 Ga7_6 3.107247 1_555
Ga5_7 Ga8_3 2.721471 1_655
Ga5_7 Ga9_5 2.721471 1_555
Ga5_7 W0_6 2.765426 1_555
Ga5_7 W0_7 2.765426 1_555
Ga5_7 W2_2 2.809478 1_655
Ga5_7 W2_3 2.809478 1_655
Ga5_7 Ga7_7 3.107247 1_555
Ga6_0 Ga6_1 2.734625 1_555
Ga6_0 Ga6_1 2.734625 1_554
Ga6_0 W1_0 2.765426 1_555
Ga6_0 W1_1 2.765426 1_554
Ga6_0 W2_1 2.809478 1_554
Ga6_0 W2_0 2.809478 1_555
Ga6_1 W1_0 2.765426 1_555
Ga6_1 W1_1 2.765426 1_555
Ga6_1 W2_0 2.809478 1_555
Ga6_1 W2_1 2.809478 1_555
Ga6_2 Ga6_3 2.734625 1_555
Ga6_2 Ga6_3 2.734625 1_554
Ga6_2 W1_3 2.765426 1_554
Ga6_2 W1_2 2.765426 1_555
Ga6_2 W2_3 2.809478 1_554
Ga6_2 W2_2 2.809478 1_555
Ga6_3 W1_2 2.765426 1_555
Ga6_3 W1_3 2.765426 1_555
Ga6_3 W2_3 2.809478 1_555
Ga6_3 W2_2 2.809478 1_555
Ga6_4 Ga6_5 2.734625 1_555
Ga6_4 Ga6_5 2.734625 1_554
Ga6_4 W1_5 2.765426 1_554
Ga6_4 W1_4 2.765426 1_555
Ga6_4 W2_4 2.809478 1_555
Ga6_4 W2_5 2.809478 1_554
Ga6_5 W1_4 2.765426 1_555
Ga6_5 W1_5 2.765426 1_555
Ga6_5 W2_4 2.809478 1_555
Ga6_5 W2_5 2.809478 1_555
Ga6_6 Ga6_7 2.734625 1_555
Ga6_6 Ga6_7 2.734625 1_554
Ga6_6 W1_7 2.765426 1_554
Ga6_6 W1_6 2.765426 1_555
Ga6_6 W2_7 2.809478 1_554
Ga6_6 W2_6 2.809478 1_555
Ga6_7 W1_6 2.765426 1_555
Ga6_7 W1_7 2.765426 1_555
Ga6_7 W2_7 2.809478 1_555
Ga6_7 W2_6 2.809478 1_555
Ga7_0 Ga7_1 2.734625 1_555
Ga7_0 Ga7_1 2.734625 1_554
Ga7_0 W0_1 2.765426 1_554
Ga7_0 W0_0 2.765426 1_555
Ga7_0 W3_1 2.809478 1_554
Ga7_0 W3_0 2.809478 1_555
Ga7_1 W0_0 2.765426 1_555
Ga7_1 W0_1 2.765426 1_555
Ga7_1 W3_0 2.809478 1_555
Ga7_1 W3_1 2.809478 1_555
Ga7_2 Ga7_3 2.734625 1_554
Ga7_2 Ga7_3 2.734625 1_555
Ga7_2 W0_3 2.765426 1_554
Ga7_2 W0_2 2.765426 1_555
Ga7_2 W3_3 2.809478 1_554
Ga7_2 W3_2 2.809478 1_555
Ga7_3 W0_2 2.765426 1_555
Ga7_3 W0_3 2.765426 1_555
Ga7_3 W3_2 2.809478 1_555
Ga7_3 W3_3 2.809478 1_555
Ga7_4 Ga7_5 2.734625 1_554
Ga7_4 Ga7_5 2.734625 1_555
Ga7_4 W0_5 2.765426 1_554
Ga7_4 W0_4 2.765426 1_555
Ga7_4 W3_5 2.809478 1_554
Ga7_4 W3_4 2.809478 1_555
Ga7_5 W0_4 2.765426 1_555
Ga7_5 W0_5 2.765426 1_555
Ga7_5 W3_5 2.809478 1_555
Ga7_5 W3_4 2.809478 1_555
Ga7_6 Ga7_7 2.734625 1_554
Ga7_6 Ga7_7 2.734625 1_555
Ga7_6 W0_7 2.765426 1_554
Ga7_6 W0_6 2.765426 1_555
Ga7_6 W3_7 2.809478 1_554
Ga7_6 W3_6 2.809478 1_555
Ga7_7 W0_7 2.765426 1_555
Ga7_7 W0_6 2.765426 1_555
Ga7_7 W3_6 2.809478 1_555
Ga7_7 W3_7 2.809478 1_555
Ga8_0 Ga8_1 2.734625 1_555
Ga8_0 Ga8_1 2.734625 1_554
Ga8_0 W2_1 2.765426 1_554
Ga8_0 W2_0 2.765426 1_555
Ga8_0 W1_3 2.809478 1_544
Ga8_0 W1_2 2.809478 1_545
Ga8_1 W2_0 2.765426 1_555
Ga8_1 W2_1 2.765426 1_555
Ga8_1 W1_2 2.809478 1_545
Ga8_1 W1_3 2.809478 1_545
Ga8_2 Ga8_3 2.734625 1_555
Ga8_2 Ga8_3 2.734625 1_554
Ga8_2 W2_3 2.765426 1_554
Ga8_2 W2_2 2.765426 1_555
Ga8_2 W1_1 2.809478 1_554
Ga8_2 W1_0 2.809478 1_555
Ga8_3 W2_2 2.765426 1_555
Ga8_3 W2_3 2.765426 1_555
Ga8_3 W1_0 2.809478 1_555
Ga8_3 W1_1 2.809478 1_555
Ga8_4 Ga8_5 2.734625 1_555
Ga8_4 Ga8_5 2.734625 1_554
Ga8_4 W2_5 2.765426 1_554
Ga8_4 W2_4 2.765426 1_555
Ga8_4 W1_7 2.809478 1_544
Ga8_4 W1_6 2.809478 1_545
Ga8_5 W2_4 2.765426 1_555
Ga8_5 W2_5 2.765426 1_555
Ga8_5 W1_7 2.809478 1_545
Ga8_5 W1_6 2.809478 1_545
Ga8_6 Ga8_7 2.734625 1_555
Ga8_6 Ga8_7 2.734625 1_554
Ga8_6 W2_6 2.765426 1_555
Ga8_6 W2_7 2.765426 1_554
Ga8_6 W1_5 2.809478 1_554
Ga8_6 W1_4 2.809478 1_555
Ga8_7 W2_6 2.765426 1_555
Ga8_7 W2_7 2.765426 1_555
Ga8_7 W1_4 2.809478 1_555
Ga8_7 W1_5 2.809478 1_555
Ga9_0 Ga9_1 2.734625 1_554
Ga9_0 Ga9_1 2.734625 1_555
Ga9_0 W3_1 2.765426 1_554
Ga9_0 W3_0 2.765426 1_555
Ga9_0 W0_3 2.809478 1_554
Ga9_0 W0_2 2.809478 1_555
Ga9_1 W3_0 2.765426 1_555
Ga9_1 W3_1 2.765426 1_555
Ga9_1 W0_2 2.809478 1_555
Ga9_1 W0_3 2.809478 1_555
Ga9_2 Ga9_3 2.734625 1_554
Ga9_2 Ga9_3 2.734625 1_555
Ga9_2 W3_3 2.765426 1_554
Ga9_2 W3_2 2.765426 1_555
Ga9_2 W0_1 2.809478 1_564
Ga9_2 W0_0 2.809478 1_565
Ga9_3 W3_2 2.765426 1_555
Ga9_3 W3_3 2.765426 1_555
Ga9_3 W0_0 2.809478 1_565
Ga9_3 W0_1 2.809478 1_565
Ga9_4 Ga9_5 2.734625 1_555
Ga9_4 Ga9_5 2.734625 1_554
Ga9_4 W3_5 2.765426 1_554
Ga9_4 W3_4 2.765426 1_555
Ga9_4 W0_7 2.809478 1_554
Ga9_4 W0_6 2.809478 1_555
Ga9_5 W3_4 2.765426 1_555
Ga9_5 W3_5 2.765426 1_555
Ga9_5 W0_6 2.809478 1_555
Ga9_5 W0_7 2.809478 1_555
Ga9_6 Ga9_7 2.734625 1_554
Ga9_6 Ga9_7 2.734625 1_555
Ga9_6 W3_7 2.765426 1_554
Ga9_6 W3_6 2.765426 1_555
Ga9_6 W0_5 2.809478 1_564
Ga9_6 W0_4 2.809478 1_565
Ga9_7 W3_6 2.765426 1_555
Ga9_7 W3_7 2.765426 1_555
Ga9_7 W0_4 2.809478 1_565
Ga9_7 W0_5 2.809478 1_565
W0_0 W0_1 2.734625 1_554
W0_0 W0_1 2.734625 1_555
W0_2 W0_3 2.734625 1_554
W0_2 W0_3 2.734625 1_555
W0_4 W0_5 2.734625 1_554
W0_4 W0_5 2.734625 1_555
W0_6 W0_7 2.734625 1_554
W0_6 W0_7 2.734625 1_555
W1_0 W1_1 2.734625 1_554
W1_0 W1_1 2.734625 1_555
W1_2 W1_3 2.734625 1_554
W1_2 W1_3 2.734625 1_555
W1_4 W1_5 2.734625 1_554
W1_4 W1_5 2.734625 1_555
W1_6 W1_7 2.734625 1_554
W1_6 W1_7 2.734625 1_555
W2_0 W2_1 2.734625 1_554
W2_0 W2_1 2.734625 1_555
W2_2 W2_3 2.734625 1_554
W2_2 W2_3 2.734625 1_555
W2_4 W2_5 2.734625 1_554
W2_4 W2_5 2.734625 1_555
W2_6 W2_7 2.734625 1_554
W2_6 W2_7 2.734625 1_555
W3_0 W3_1 2.734625 1_554
W3_0 W3_1 2.734625 1_555
W3_2 W3_3 2.734625 1_554
W3_2 W3_3 2.734625 1_555
W3_4 W3_5 2.734625 1_554
W3_4 W3_5 2.734625 1_555
W3_6 W3_7 2.734625 1_554
W3_6 W3_7 2.734625 1_555
