# generated using pymatgen
data_CaH8(NO5)2
_symmetry_space_group_name_H-M   'P 1'
_cell_length_a   9.25340100
_cell_length_b   12.76281300
_cell_length_c   16.78967179
_cell_angle_alpha   59.14192903
_cell_angle_beta   90.00000000
_cell_angle_gamma   90.00000000
_symmetry_Int_Tables_number   1
_chemical_formula_structural   CaH8(NO5)2
_chemical_formula_sum   'Ca8 H64 N16 O80'
_cell_volume   1702.15924069
_cell_formula_units_Z   8
loop_
 _symmetry_equiv_pos_site_id
 _symmetry_equiv_pos_as_xyz
  1  'x, y, z'
loop_
 _atom_site_type_symbol
 _atom_site_label
 _atom_site_symmetry_multiplicity
 _atom_site_fract_x
 _atom_site_fract_y
 _atom_site_fract_z
 _atom_site_occupancy
  Ca  Ca0  1  0.91064600  0.55007300  0.86572900  1
  Ca  Ca1  1  0.58935400  0.55007300  0.36572900  1
  Ca  Ca2  1  0.08935400  0.44992700  0.13427100  1
  Ca  Ca3  1  0.41064600  0.44992700  0.63427100  1
  Ca  Ca4  1  0.91145600  0.03999300  0.86662700  1
  Ca  Ca5  1  0.58854400  0.03999300  0.36662700  1
  Ca  Ca6  1  0.08854400  0.96000700  0.13337300  1
  Ca  Ca7  1  0.41145600  0.96000700  0.63337300  1
  H  H0  1  0.99567800  0.80519500  0.81986900  1
  H  H1  1  0.50432200  0.80519500  0.31986900  1
  H  H2  1  0.00432200  0.19480500  0.18013100  1
  H  H3  1  0.49567800  0.19480500  0.68013100  1
  H  H4  1  0.88512100  0.81989200  0.74264900  1
  H  H5  1  0.61487900  0.81989200  0.24264900  1
  H  H6  1  0.11487900  0.18010800  0.25735100  1
  H  H7  1  0.38512100  0.18010800  0.75735100  1
  H  H8  1  0.70575600  0.72475100  0.89159500  1
  H  H9  1  0.79424400  0.72475100  0.39159500  1
  H  H10  1  0.29424400  0.27524900  0.10840500  1
  H  H11  1  0.20575600  0.27524900  0.60840500  1
  H  H12  1  0.62612900  0.59910600  0.92955800  1
  H  H13  1  0.87387100  0.59910600  0.42955800  1
  H  H14  1  0.37387100  0.40089400  0.07044200  1
  H  H15  1  0.12612900  0.40089400  0.57044200  1
  H  H16  1  0.64089600  0.41698400  0.85383100  1
  H  H17  1  0.85910400  0.41698400  0.35383100  1
  H  H18  1  0.35910400  0.58301600  0.14616900  1
  H  H19  1  0.14089600  0.58301600  0.64616900  1
  H  H20  1  0.68835300  0.36122100  0.95686600  1
  H  H21  1  0.81164700  0.36122100  0.45686600  1
  H  H22  1  0.31164700  0.63877900  0.04313400  1
  H  H23  1  0.18835300  0.63877900  0.54313400  1
  H  H24  1  0.00441000  0.32276900  0.87018800  1
  H  H25  1  0.49559000  0.32276900  0.37018800  1
  H  H26  1  0.99559000  0.67723100  0.12981200  1
  H  H27  1  0.50441000  0.67723100  0.62981200  1
  H  H28  1  0.14081600  0.34918600  0.91247800  1
  H  H29  1  0.35918400  0.34918600  0.41247800  1
  H  H30  1  0.85918400  0.65081400  0.08752200  1
  H  H31  1  0.64081600  0.65081400  0.58752200  1
  H  H32  1  0.04760700  0.28983000  0.74606500  1
  H  H33  1  0.45239300  0.28983000  0.24606500  1
  H  H34  1  0.95239300  0.71017000  0.25393500  1
  H  H35  1  0.54760700  0.71017000  0.75393500  1
  H  H36  1  0.88133200  0.31295200  0.74837100  1
  H  H37  1  0.61866800  0.31295200  0.24837100  1
  H  H38  1  0.11866800  0.68704800  0.25162900  1
  H  H39  1  0.38133200  0.68704800  0.75162900  1
  H  H40  1  0.62582100  0.17841800  0.81824800  1
  H  H41  1  0.87417900  0.17841800  0.31824800  1
  H  H42  1  0.37417900  0.82158200  0.18175200  1
  H  H43  1  0.12582100  0.82158200  0.68175200  1
  H  H44  1  0.62446700  0.09329900  0.92561600  1
  H  H45  1  0.87553300  0.09329900  0.42561600  1
  H  H46  1  0.37553300  0.90670100  0.07438400  1
  H  H47  1  0.12446700  0.90670100  0.57438400  1
  H  H48  1  0.64346700  0.91020900  0.85534800  1
  H  H49  1  0.85653300  0.91020900  0.35534800  1
  H  H50  1  0.35653300  0.08979100  0.14465200  1
  H  H51  1  0.14346700  0.08979100  0.64465200  1
  H  H52  1  0.68732500  0.85450500  0.95898200  1
  H  H53  1  0.81267500  0.85450500  0.45898200  1
  H  H54  1  0.31267500  0.14549500  0.04101800  1
  H  H55  1  0.18732500  0.14549500  0.54101800  1
  H  H56  1  0.01443700  0.77579600  0.97554200  1
  H  H57  1  0.48556300  0.77579600  0.47554200  1
  H  H58  1  0.98556300  0.22420400  0.02445800  1
  H  H59  1  0.51443700  0.22420400  0.52445800  1
  H  H60  1  0.14660400  0.84808600  0.91091700  1
  H  H61  1  0.35339600  0.84808600  0.41091700  1
  H  H62  1  0.85339600  0.15191400  0.08908300  1
  H  H63  1  0.64660400  0.15191400  0.58908300  1
  N  N0  1  0.86767000  0.61835100  0.67053700  1
  N  N1  1  0.63233000  0.61835100  0.17053700  1
  N  N2  1  0.13233000  0.38164900  0.32946300  1
  N  N3  1  0.36767000  0.38164900  0.82946300  1
  N  N4  1  0.23790100  0.58380300  0.90581900  1
  N  N5  1  0.26209900  0.58380300  0.40581900  1
  N  N6  1  0.76209900  0.41619700  0.09418100  1
  N  N7  1  0.73790100  0.41619700  0.59418100  1
  N  N8  1  0.87885100  0.11326700  0.66945700  1
  N  N9  1  0.62114900  0.11326700  0.16945700  1
  N  N10  1  0.12114900  0.88673300  0.33054300  1
  N  N11  1  0.37885100  0.88673300  0.83054300  1
  N  N12  1  0.23588200  0.08229400  0.91001500  1
  N  N13  1  0.26411800  0.08229400  0.41001500  1
  N  N14  1  0.76411800  0.91770600  0.08998500  1
  N  N15  1  0.73588200  0.91770600  0.58998500  1
  O  O0  1  0.98695900  0.57029800  0.71192300  1
  O  O1  1  0.51304100  0.57029800  0.21192300  1
  O  O2  1  0.01304100  0.42970200  0.28807700  1
  O  O3  1  0.48695900  0.42970200  0.78807700  1
  O  O4  1  0.77193300  0.63632700  0.71635800  1
  O  O5  1  0.72806700  0.63632700  0.21635800  1
  O  O6  1  0.22806700  0.36367300  0.28364200  1
  O  O7  1  0.27193300  0.36367300  0.78364200  1
  O  O8  1  0.84552500  0.64588700  0.58838200  1
  O  O9  1  0.65447500  0.64588700  0.08838200  1
  O  O10  1  0.15447500  0.35411300  0.41161800  1
  O  O11  1  0.34552500  0.35411300  0.91161800  1
  O  O12  1  0.12288900  0.55295800  0.95696300  1
  O  O13  1  0.37711100  0.55295800  0.45696300  1
  O  O14  1  0.87711100  0.44704200  0.04303700  1
  O  O15  1  0.62288900  0.44704200  0.54303700  1
  O  O16  1  0.22393200  0.60572800  0.82392300  1
  O  O17  1  0.27606800  0.60572800  0.32392300  1
  O  O18  1  0.77606800  0.39427200  0.17607700  1
  O  O19  1  0.72393200  0.39427200  0.67607700  1
  O  O20  1  0.35688400  0.59076900  0.93803300  1
  O  O21  1  0.14311600  0.59076900  0.43803300  1
  O  O22  1  0.64311600  0.40923100  0.06196700  1
  O  O23  1  0.85688400  0.40923100  0.56196700  1
  O  O24  1  0.72586500  0.40501000  0.89355100  1
  O  O25  1  0.77413500  0.40501000  0.39355100  1
  O  O26  1  0.27413500  0.59499000  0.10644900  1
  O  O27  1  0.22586500  0.59499000  0.60644900  1
  O  O28  1  0.69359800  0.65521700  0.88188600  1
  O  O29  1  0.80640200  0.65521700  0.38188600  1
  O  O30  1  0.30640200  0.34478300  0.11811400  1
  O  O31  1  0.19359800  0.34478300  0.61811400  1
  O  O32  1  0.03383900  0.34798300  0.91482800  1
  O  O33  1  0.46616100  0.34798300  0.41482800  1
  O  O34  1  0.96616100  0.65201700  0.08517200  1
  O  O35  1  0.53383900  0.65201700  0.58517200  1
  O  O36  1  0.96732900  0.77036200  0.78132800  1
  O  O37  1  0.53267100  0.77036200  0.28132800  1
  O  O38  1  0.03267100  0.22963800  0.21867200  1
  O  O39  1  0.46732900  0.22963800  0.71867200  1
  O  O40  1  0.99660100  0.06368900  0.71365500  1
  O  O41  1  0.50339900  0.06368900  0.21365500  1
  O  O42  1  0.00339900  0.93631100  0.28634500  1
  O  O43  1  0.49660100  0.93631100  0.78634500  1
  O  O44  1  0.77734100  0.12420300  0.71541200  1
  O  O45  1  0.72265900  0.12420300  0.21541200  1
  O  O46  1  0.22265900  0.87579700  0.28458800  1
  O  O47  1  0.27734100  0.87579700  0.78458800  1
  O  O48  1  0.86500400  0.14824400  0.58539200  1
  O  O49  1  0.63499600  0.14824400  0.08539200  1
  O  O50  1  0.13499600  0.85175600  0.41460800  1
  O  O51  1  0.36500400  0.85175600  0.91460800  1
  O  O52  1  0.12093000  0.05287700  0.96057300  1
  O  O53  1  0.37907000  0.05287700  0.46057300  1
  O  O54  1  0.87907000  0.94712300  0.03942700  1
  O  O55  1  0.62093000  0.94712300  0.53942700  1
  O  O56  1  0.22261000  0.10051900  0.82900800  1
  O  O57  1  0.27739000  0.10051900  0.32900800  1
  O  O58  1  0.77739000  0.89948100  0.17099200  1
  O  O59  1  0.72261000  0.89948100  0.67099200  1
  O  O60  1  0.35445700  0.09202700  0.94147500  1
  O  O61  1  0.14554300  0.09202700  0.44147500  1
  O  O62  1  0.64554300  0.90797300  0.05852500  1
  O  O63  1  0.85445700  0.90797300  0.55852500  1
  O  O64  1  0.72773500  0.87563400  0.89842100  1
  O  O65  1  0.77226500  0.87563400  0.39842100  1
  O  O66  1  0.27226500  0.12436600  0.10157900  1
  O  O67  1  0.22773500  0.12436600  0.60157900  1
  O  O68  1  0.68937300  0.13839100  0.87303400  1
  O  O69  1  0.81062700  0.13839100  0.37303400  1
  O  O70  1  0.31062700  0.86160900  0.12696600  1
  O  O71  1  0.18937300  0.86160900  0.62696600  1
  O  O72  1  0.04032500  0.84683500  0.91336000  1
  O  O73  1  0.45967500  0.84683500  0.41336000  1
  O  O74  1  0.95967500  0.15316500  0.08664000  1
  O  O75  1  0.54032500  0.15316500  0.58664000  1
  O  O76  1  0.96396200  0.26430100  0.78787000  1
  O  O77  1  0.53603800  0.26430100  0.28787000  1
  O  O78  1  0.03603800  0.73569900  0.21213000  1
  O  O79  1  0.46396200  0.73569900  0.71213000  1
loop_
_geom_bond_atom_site_label_1
_geom_bond_atom_site_label_2
_geom_bond_distance
_geom_bond_site_symmetry_2
Ca0 O24 2.383769 1_555
Ca0 O36 2.469975 1_555
Ca0 O12 2.502552 1_655
Ca0 O28 2.506312 1_555
Ca0 O4 2.513328 1_555
Ca0 O32 2.539764 1_655
Ca0 O0 2.559304 1_555
Ca0 O14 2.583010 1_556
Ca1 O25 2.383769 1_555
Ca1 O37 2.469975 1_555
Ca1 O13 2.502552 1_555
Ca1 O29 2.506312 1_555
Ca1 O5 2.513328 1_555
Ca1 O33 2.539764 1_555
Ca1 O1 2.559304 1_555
Ca1 O15 2.583010 1_555
Ca2 O26 2.383769 1_555
Ca2 O38 2.469975 1_555
Ca2 O14 2.502552 1_455
Ca2 O30 2.506312 1_555
Ca2 O6 2.513328 1_555
Ca2 O34 2.539764 1_455
Ca2 O2 2.559304 1_555
Ca2 O12 2.583010 1_554
Ca3 O27 2.383769 1_555
Ca3 O39 2.469975 1_555
Ca3 O15 2.502552 1_555
Ca3 O31 2.506312 1_555
Ca3 O7 2.513328 1_555
Ca3 O35 2.539764 1_555
Ca3 O3 2.559304 1_555
Ca3 O13 2.583010 1_555
Ca4 O68 2.439343 1_555
Ca4 O72 2.476044 1_645
Ca4 O76 2.509366 1_555
Ca4 O44 2.518308 1_555
Ca4 O54 2.526730 1_546
Ca4 O64 2.535092 1_545
Ca4 O40 2.551830 1_555
Ca4 O52 2.556999 1_655
Ca5 O69 2.439343 1_555
Ca5 O73 2.476044 1_545
Ca5 O77 2.509366 1_555
Ca5 O45 2.518308 1_555
Ca5 O55 2.526730 1_545
Ca5 O65 2.535092 1_545
Ca5 O41 2.551830 1_555
Ca5 O53 2.556999 1_555
Ca6 O70 2.439343 1_555
Ca6 O74 2.476044 1_465
Ca6 O78 2.509366 1_555
Ca6 O46 2.518308 1_555
Ca6 O52 2.526730 1_564
Ca6 O66 2.535092 1_565
Ca6 O42 2.551830 1_555
Ca6 O54 2.556999 1_455
Ca7 O71 2.439343 1_555
Ca7 O75 2.476044 1_565
Ca7 O79 2.509366 1_555
Ca7 O47 2.518308 1_555
Ca7 O53 2.526730 1_565
Ca7 O67 2.535092 1_565
Ca7 O43 2.551830 1_555
Ca7 O55 2.556999 1_555
H0 O36 0.990094 1_555
H1 O37 0.990094 1_555
H2 O38 0.990094 1_555
H3 O39 0.990094 1_555
H4 O36 0.989386 1_555
H5 O37 0.989386 1_555
H6 O38 0.989386 1_555
H7 O39 0.989386 1_555
H8 O28 0.987520 1_555
H9 O29 0.987520 1_555
H10 O30 0.987520 1_555
H11 O31 0.987520 1_555
H12 O28 0.977375 1_555
H13 O29 0.977375 1_555
H14 O30 0.977375 1_555
H15 O31 0.977375 1_555
H16 O24 0.990826 1_555
H16 O3 1.757937 1_555
H17 O25 0.990826 1_555
H17 O2 1.757937 1_655
H18 O26 0.990826 1_555
H18 O1 1.757937 1_555
H19 O27 0.990826 1_555
H19 O0 1.757937 1_455
H20 O24 0.976437 1_555
H21 O25 0.976437 1_555
H22 O26 0.976437 1_555
H23 O27 0.976437 1_555
H24 O32 0.993412 1_555
H25 O33 0.993412 1_555
H26 O34 0.993412 1_555
H27 O35 0.993412 1_555
H28 O32 0.990492 1_555
H29 O33 0.990492 1_555
H30 O34 0.990492 1_555
H31 O35 0.990492 1_555
H32 O76 0.981474 1_455
H33 O77 0.981474 1_555
H34 O78 0.981474 1_655
H35 O79 0.981474 1_555
H36 O76 0.993759 1_555
H37 O77 0.993759 1_555
H38 O78 0.993759 1_555
H39 O79 0.993759 1_555
H40 O68 0.985325 1_555
H41 O69 0.985325 1_555
H42 O70 0.985325 1_555
H43 O71 0.985325 1_555
H44 O68 0.974744 1_555
H45 O69 0.974744 1_555
H46 O70 0.974744 1_555
H47 O71 0.974744 1_555
H48 O64 0.999193 1_555
H48 O43 1.704165 1_555
H49 O65 0.999193 1_555
H49 O42 1.704165 1_655
H50 O66 0.999193 1_555
H50 O41 1.704165 1_555
H51 O67 0.999193 1_555
H51 O40 1.704165 1_455
H52 O64 0.982419 1_555
H53 O65 0.982419 1_555
H54 O66 0.982419 1_555
H55 O67 0.982419 1_555
H56 O72 0.999185 1_555
H57 O73 0.999185 1_555
H58 O74 0.999185 1_555
H59 O75 0.999185 1_555
H60 O72 0.984085 1_555
H61 O73 0.984085 1_555
H62 O74 0.984085 1_555
H63 O75 0.984085 1_555
N0 O8 1.253333 1_555
N0 O4 1.268997 1_555
N0 O0 1.280717 1_555
N1 O9 1.253333 1_555
N1 O5 1.268997 1_555
N1 O1 1.280717 1_555
N2 O10 1.253333 1_555
N2 O6 1.268997 1_555
N2 O2 1.280717 1_555
N3 O11 1.253333 1_555
N3 O7 1.268997 1_555
N3 O3 1.280717 1_555
N4 O20 1.249784 1_555
N4 O16 1.261331 1_555
N4 O12 1.295449 1_555
N5 O21 1.249784 1_555
N5 O17 1.261331 1_555
N5 O13 1.295449 1_555
N6 O22 1.249784 1_555
N6 O18 1.261331 1_555
N6 O14 1.295449 1_555
N7 O23 1.249784 1_555
N7 O19 1.261331 1_555
N7 O15 1.295449 1_555
N8 O48 1.249589 1_555
N8 O44 1.267904 1_555
N8 O40 1.287079 1_555
N9 O49 1.249589 1_555
N9 O45 1.267904 1_555
N9 O41 1.287079 1_555
N10 O50 1.249589 1_555
N10 O46 1.267904 1_555
N10 O42 1.287079 1_555
N11 O51 1.249589 1_555
N11 O47 1.267904 1_555
N11 O43 1.287079 1_555
N12 O60 1.251253 1_555
N12 O56 1.262727 1_555
N12 O52 1.290749 1_555
N13 O61 1.251253 1_555
N13 O57 1.262727 1_555
N13 O53 1.290749 1_555
N14 O62 1.251253 1_555
N14 O58 1.262727 1_555
N14 O54 1.290749 1_555
N15 O63 1.251253 1_555
N15 O59 1.262727 1_555
N15 O55 1.290749 1_555
