# generated using pymatgen
data_HoNiSn4
_symmetry_space_group_name_H-M   'P 1'
_cell_length_a   14.37727245
_cell_length_b   14.37727245
_cell_length_c   4.47824500
_cell_angle_alpha   90.00000000
_cell_angle_beta   90.00000000
_cell_angle_gamma   162.18917641
_symmetry_Int_Tables_number   1
_chemical_formula_structural   HoNiSn4
_chemical_formula_sum   'Ho2 Ni2 Sn8'
_cell_volume   283.14250486
_cell_formula_units_Z   2
loop_
 _symmetry_equiv_pos_site_id
 _symmetry_equiv_pos_as_xyz
  1  'x, y, z'
loop_
 _atom_site_type_symbol
 _atom_site_label
 _atom_site_symmetry_multiplicity
 _atom_site_fract_x
 _atom_site_fract_y
 _atom_site_fract_z
 _atom_site_occupancy
  Ho  Ho0  1  0.80713400  0.19286600  0.50000000  1
  Ho  Ho1  1  0.19286600  0.80713400  0.50000000  1
  Ni  Ni0  1  0.55080800  0.44919200  0.00000000  1
  Ni  Ni1  1  0.44919200  0.55080800  0.00000000  1
  Sn  Sn0  1  0.60807500  0.39192500  0.50000000  1
  Sn  Sn1  1  0.39192500  0.60807500  0.50000000  1
  Sn  Sn2  1  0.71379900  0.28620100  0.00000000  1
  Sn  Sn3  1  0.28620100  0.71379900  0.00000000  1
  Sn  Sn4  1  0.89130500  0.10869500  0.00000000  1
  Sn  Sn5  1  0.10869500  0.89130500  0.00000000  1
  Sn  Sn6  1  0.00000000  0.00000000  0.00000000  1
  Sn  Sn7  1  0.50000000  0.50000000  0.50000000  1
loop_
_geom_bond_atom_site_label_1
_geom_bond_atom_site_label_2
_geom_bond_distance
_geom_bond_site_symmetry_2
Ho0 Sn3 3.212605 1_656
Ho0 Sn3 3.212605 1_655
Ho0 Sn3 3.212605 1_545
Ho0 Sn3 3.212605 1_546
Ho0 Sn4 3.275841 1_556
Ho0 Sn4 3.275841 1_555
Ho0 Sn1 3.279565 1_545
Ho0 Sn1 3.279565 1_655
Ho0 Sn2 3.470428 1_555
Ho0 Sn2 3.470428 1_556
Ho1 Sn2 3.212605 1_456
Ho1 Sn2 3.212605 1_565
Ho1 Sn2 3.212605 1_455
Ho1 Sn2 3.212605 1_566
Ho1 Sn5 3.275841 1_555
Ho1 Sn5 3.275841 1_556
Ho1 Sn0 3.279565 1_455
Ho1 Sn0 3.279565 1_565
Ho1 Sn3 3.470428 1_556
Ho1 Sn3 3.470428 1_555
Ni0 Sn6 2.652696 1_665
Ni0 Sn6 2.652696 1_555
Ni0 Sn7 2.664006 1_555
Ni0 Sn7 2.664006 1_554
Ni0 Sn5 2.767264 1_545
Ni0 Sn5 2.767264 1_655
Ni0 Sn0 2.767718 1_554
Ni0 Sn0 2.767718 1_555
Ni1 Sn6 2.652696 1_665
Ni1 Sn6 2.652696 1_555
Ni1 Sn7 2.664006 1_555
Ni1 Sn7 2.664006 1_554
Ni1 Sn4 2.767264 1_565
Ni1 Sn4 2.767264 1_455
Ni1 Sn1 2.767718 1_555
Ni1 Sn1 2.767718 1_554
Sn0 Sn7 3.070186 1_555
Sn0 Sn5 3.157138 1_545
Sn0 Sn5 3.157138 1_655
Sn0 Sn5 3.157138 1_656
Sn0 Sn5 3.157138 1_546
Sn1 Sn7 3.070186 1_555
Sn1 Sn4 3.157138 1_565
Sn1 Sn4 3.157138 1_566
Sn1 Sn4 3.157138 1_456
Sn1 Sn4 3.157138 1_455
Sn2 Sn3 3.030499 1_655
Sn2 Sn3 3.030499 1_545
Sn4 Sn6 3.087798 1_655
Sn5 Sn6 3.087798 1_565
