# generated using pymatgen
data_Te2Mo3WS6
_symmetry_space_group_name_H-M   'P 1'
_cell_length_a   3.27623188
_cell_length_b   3.27623188
_cell_length_c   38.06898700
_cell_angle_alpha   90.00000000
_cell_angle_beta   90.00000000
_cell_angle_gamma   119.99999754
_symmetry_Int_Tables_number   1
_chemical_formula_structural   Te2Mo3WS6
_chemical_formula_sum   'Te2 Mo3 W1 S6'
_cell_volume   353.87609525
_cell_formula_units_Z   1
loop_
 _symmetry_equiv_pos_site_id
 _symmetry_equiv_pos_as_xyz
  1  'x, y, z'
loop_
 _atom_site_type_symbol
 _atom_site_label
 _atom_site_symmetry_multiplicity
 _atom_site_fract_x
 _atom_site_fract_y
 _atom_site_fract_z
 _atom_site_occupancy
  Te  Te0  1  0.66666700  0.33333300  0.41886900  1
  Te  Te1  1  0.66666700  0.33333300  0.52060000  1
  Mo  Mo0  1  0.33333300  0.66666700  0.09384300  1
  Mo  Mo1  1  0.66666700  0.33333300  0.28136900  1
  Mo  Mo2  1  0.66666700  0.33333300  0.65799900  1
  W  W0  1  0.33333300  0.66666700  0.46973600  1
  S  S0  1  0.33333300  0.66666700  0.32172300  1
  S  S1  1  0.33333300  0.66666700  0.69841600  1
  S  S2  1  0.66666700  0.33333300  0.05339800  1
  S  S3  1  0.66666700  0.33333300  0.13425400  1
  S  S4  1  0.33333300  0.66666700  0.24098300  1
  S  S5  1  0.33333300  0.66666700  0.61755700  1
loop_
_geom_bond_atom_site_label_1
_geom_bond_atom_site_label_2
_geom_bond_distance
_geom_bond_site_symmetry_2
Te0 W0 2.706982 1_545
Te0 W0 2.706982 1_655
Te0 W0 2.706986 1_555
Te1 W0 2.706900 1_545
Te1 W0 2.706900 1_655
Te1 W0 2.706904 1_555
Mo0 S3 2.438152 1_565
Mo0 S3 2.438152 1_455
Mo0 S3 2.438156 1_555
Mo0 S2 2.438969 1_455
Mo0 S2 2.438969 1_565
Mo0 S2 2.438973 1_555
Mo1 S0 2.436783 1_545
Mo1 S0 2.436783 1_655
Mo1 S0 2.436788 1_555
Mo1 S4 2.437551 1_545
Mo1 S4 2.437551 1_655
Mo1 S4 2.437556 1_555
Mo2 S1 2.438296 1_545
Mo2 S1 2.438296 1_655
Mo2 S1 2.438300 1_555
Mo2 S5 2.438897 1_545
Mo2 S5 2.438897 1_655
Mo2 S5 2.438901 1_555
