# generated using pymatgen
data_Lu2(MoO4)3
_symmetry_space_group_name_H-M   'P 1'
_cell_length_a   9.81993324
_cell_length_b   9.91335899
_cell_length_c   13.62708256
_cell_angle_alpha   90.00000000
_cell_angle_beta   90.00000000
_cell_angle_gamma   90.00000000
_symmetry_Int_Tables_number   1
_chemical_formula_structural   Lu2(MoO4)3
_chemical_formula_sum   'Lu8 Mo12 O48'
_cell_volume   1326.57636636
_cell_formula_units_Z   4
loop_
 _symmetry_equiv_pos_site_id
 _symmetry_equiv_pos_as_xyz
  1  'x, y, z'
loop_
 _atom_site_type_symbol
 _atom_site_label
 _atom_site_symmetry_multiplicity
 _atom_site_fract_x
 _atom_site_fract_y
 _atom_site_fract_z
 _atom_site_occupancy
  Lu  Lu0  1  0.25080705  0.46622835  0.11892644  1
  Lu  Lu1  1  0.74919295  0.53377165  0.88107356  1
  Lu  Lu2  1  0.24919295  0.96622835  0.38107356  1
  Lu  Lu3  1  0.25080705  0.03377165  0.88107356  1
  Lu  Lu4  1  0.75080705  0.03377165  0.61892644  1
  Lu  Lu5  1  0.74919295  0.96622835  0.11892644  1
  Lu  Lu6  1  0.24919295  0.53377165  0.61892644  1
  Lu  Lu7  1  0.75080705  0.46622835  0.38107356  1
  Mo  Mo0  1  0.52640582  0.25000000  0.00000000  1
  Mo  Mo1  1  0.47359418  0.75000000  0.00000000  1
  Mo  Mo2  1  0.97359418  0.75000000  0.50000000  1
  Mo  Mo3  1  0.02640582  0.25000000  0.50000000  1
  Mo  Mo4  1  0.10468621  0.11759929  0.14396769  1
  Mo  Mo5  1  0.89531379  0.88240071  0.85603231  1
  Mo  Mo6  1  0.39531379  0.61759929  0.35603231  1
  Mo  Mo7  1  0.10468621  0.38240071  0.85603231  1
  Mo  Mo8  1  0.60468621  0.38240071  0.64396769  1
  Mo  Mo9  1  0.89531379  0.61759929  0.14396769  1
  Mo  Mo10  1  0.39531379  0.88240071  0.64396769  1
  Mo  Mo11  1  0.60468621  0.11759929  0.35603231  1
  O  O0  1  0.17512518  0.07415132  0.02959316  1
  O  O1  1  0.82487482  0.92584868  0.97040684  1
  O  O2  1  0.32487482  0.57415132  0.47040684  1
  O  O3  1  0.17512518  0.42584868  0.97040684  1
  O  O4  1  0.67512518  0.42584868  0.52959316  1
  O  O5  1  0.82487482  0.57415132  0.02959316  1
  O  O6  1  0.32487482  0.92584868  0.52959316  1
  O  O7  1  0.67512518  0.07415132  0.47040684  1
  O  O8  1  0.17748302  0.01546072  0.23576837  1
  O  O9  1  0.82251698  0.98453928  0.76423163  1
  O  O10  1  0.32251698  0.51546072  0.26423163  1
  O  O11  1  0.17748302  0.48453928  0.76423163  1
  O  O12  1  0.67748302  0.48453928  0.73576837  1
  O  O13  1  0.82251698  0.51546072  0.23576837  1
  O  O14  1  0.32251698  0.98453928  0.73576837  1
  O  O15  1  0.67748302  0.01546072  0.26423163  1
  O  O16  1  0.12952495  0.13189871  0.43866537  1
  O  O17  1  0.87047505  0.86810129  0.56133463  1
  O  O18  1  0.37047505  0.63189871  0.06133463  1
  O  O19  1  0.12952495  0.36810129  0.56133463  1
  O  O20  1  0.62952495  0.36810129  0.93866537  1
  O  O21  1  0.87047505  0.63189871  0.43866537  1
  O  O22  1  0.37047505  0.86810129  0.93866537  1
  O  O23  1  0.62952495  0.13189871  0.06133463  1
  O  O24  1  0.13888840  0.28882351  0.16817311  1
  O  O25  1  0.86111160  0.71117649  0.83182689  1
  O  O26  1  0.36111160  0.78882351  0.33182689  1
  O  O27  1  0.13888840  0.21117649  0.83182689  1
  O  O28  1  0.63888840  0.21117649  0.66817311  1
  O  O29  1  0.86111160  0.78882351  0.16817311  1
  O  O30  1  0.36111160  0.71117649  0.66817311  1
  O  O31  1  0.63888840  0.28882351  0.33182689  1
  O  O32  1  0.42227649  0.33328975  0.08598295  1
  O  O33  1  0.57772351  0.66671025  0.91401705  1
  O  O34  1  0.07772351  0.83328975  0.41401705  1
  O  O35  1  0.42227649  0.16671025  0.91401705  1
  O  O36  1  0.92227649  0.16671025  0.58598295  1
  O  O37  1  0.57772351  0.83328975  0.08598295  1
  O  O38  1  0.07772351  0.66671025  0.58598295  1
  O  O39  1  0.92227649  0.33328975  0.41401705  1
  O  O40  1  0.42728207  0.09205590  0.35882626  1
  O  O41  1  0.57271793  0.90794410  0.64117374  1
  O  O42  1  0.07271793  0.59205590  0.14117374  1
  O  O43  1  0.42728207  0.40794410  0.64117374  1
  O  O44  1  0.92728207  0.40794410  0.85882626  1
  O  O45  1  0.57271793  0.59205590  0.35882626  1
  O  O46  1  0.07271793  0.90794410  0.85882626  1
  O  O47  1  0.92728207  0.09205590  0.14117374  1
loop_
_geom_bond_atom_site_label_1
_geom_bond_atom_site_label_2
_geom_bond_distance
_geom_bond_site_symmetry_2
Lu0 O10 2.157503 1_555
Lu0 O18 2.166604 1_555
Lu0 O42 2.169385 1_555
Lu0 O24 2.179721 1_555
Lu0 O32 2.184846 1_555
Lu0 O3 2.192874 1_554
Lu1 O12 2.157503 1_555
Lu1 O20 2.166604 1_555
Lu1 O44 2.169385 1_555
Lu1 O25 2.179721 1_555
Lu1 O33 2.184846 1_555
Lu1 O5 2.192874 1_556
Lu2 O8 2.157503 1_565
Lu2 O16 2.166604 1_565
Lu2 O40 2.169385 1_565
Lu2 O26 2.179721 1_555
Lu2 O34 2.184846 1_555
Lu2 O6 2.192874 1_555
Lu3 O14 2.157503 1_545
Lu3 O22 2.166604 1_545
Lu3 O46 2.169385 1_545
Lu3 O27 2.179721 1_555
Lu3 O35 2.184846 1_555
Lu3 O0 2.192874 1_556
Lu4 O9 2.157503 1_545
Lu4 O17 2.166604 1_545
Lu4 O41 2.169385 1_545
Lu4 O28 2.179721 1_555
Lu4 O36 2.184846 1_555
Lu4 O7 2.192874 1_555
Lu5 O15 2.157503 1_565
Lu5 O23 2.166604 1_565
Lu5 O47 2.169385 1_565
Lu5 O29 2.179721 1_555
Lu5 O37 2.184846 1_555
Lu5 O1 2.192874 1_554
Lu6 O11 2.157503 1_555
Lu6 O19 2.166604 1_555
Lu6 O43 2.169385 1_555
Lu6 O30 2.179721 1_555
Lu6 O38 2.184846 1_555
Lu6 O2 2.192874 1_555
Lu7 O13 2.157503 1_555
Lu7 O21 2.166604 1_555
Lu7 O45 2.169385 1_555
Lu7 O31 2.179721 1_555
Lu7 O39 2.184846 1_555
Lu7 O4 2.192874 1_555
Mo0 O20 1.759180 1_554
Mo0 O23 1.759180 1_555
Mo0 O32 1.760743 1_555
Mo0 O35 1.760743 1_554
Mo1 O22 1.759180 1_554
Mo1 O18 1.759180 1_555
Mo1 O37 1.760743 1_555
Mo1 O33 1.760743 1_554
Mo2 O17 1.759180 1_555
Mo2 O21 1.759180 1_555
Mo2 O38 1.760743 1_655
Mo2 O34 1.760743 1_655
Mo3 O19 1.759180 1_555
Mo3 O16 1.759180 1_555
Mo3 O39 1.760743 1_455
Mo3 O36 1.760743 1_455
Mo4 O0 1.758744 1_555
Mo4 O47 1.760816 1_455
Mo4 O8 1.761021 1_555
Mo4 O24 1.761475 1_555
Mo5 O1 1.758744 1_555
Mo5 O46 1.760816 1_655
Mo5 O9 1.761021 1_555
Mo5 O25 1.761475 1_555
Mo6 O2 1.758744 1_555
Mo6 O45 1.760816 1_555
Mo6 O10 1.761021 1_555
Mo6 O26 1.761475 1_555
Mo7 O3 1.758744 1_555
Mo7 O44 1.760816 1_455
Mo7 O11 1.761021 1_555
Mo7 O27 1.761475 1_555
Mo8 O4 1.758744 1_555
Mo8 O43 1.760816 1_555
Mo8 O12 1.761021 1_555
Mo8 O28 1.761475 1_555
Mo9 O5 1.758744 1_555
Mo9 O42 1.760816 1_655
Mo9 O13 1.761021 1_555
Mo9 O29 1.761475 1_555
Mo10 O6 1.758744 1_555
Mo10 O41 1.760816 1_555
Mo10 O14 1.761021 1_555
Mo10 O30 1.761475 1_555
Mo11 O7 1.758744 1_555
Mo11 O40 1.760816 1_555
Mo11 O15 1.761021 1_555
Mo11 O31 1.761475 1_555
