# generated using pymatgen
data_Er2MgS4
_symmetry_space_group_name_H-M   'P 1'
_cell_length_a   7.80884232
_cell_length_b   7.80884377
_cell_length_c   7.80884377
_cell_angle_alpha   60.00000000
_cell_angle_beta   59.99999389
_cell_angle_gamma   59.99999389
_symmetry_Int_Tables_number   1
_chemical_formula_structural   Er2MgS4
_chemical_formula_sum   'Er4 Mg2 S8'
_cell_volume   336.70152494
_cell_formula_units_Z   2
loop_
 _symmetry_equiv_pos_site_id
 _symmetry_equiv_pos_as_xyz
  1  'x, y, z'
loop_
 _atom_site_type_symbol
 _atom_site_label
 _atom_site_symmetry_multiplicity
 _atom_site_fract_x
 _atom_site_fract_y
 _atom_site_fract_z
 _atom_site_occupancy
  Er  Er0  1  0.12500000  0.62500000  0.12500000  1
  Er  Er1  1  0.12500000  0.12500000  0.62500000  1
  Er  Er2  1  0.62500000  0.12500000  0.12500000  1
  Er  Er3  1  0.12500000  0.12500000  0.12500000  1
  Mg  Mg0  1  0.50000000  0.50000000  0.50000000  1
  Mg  Mg1  1  0.75000000  0.75000000  0.75000000  1
  S  S0  1  0.88019461  0.88019461  0.88019461  1
  S  S1  1  0.35941616  0.88019461  0.88019461  1
  S  S2  1  0.88019461  0.35941616  0.88019461  1
  S  S3  1  0.88019461  0.88019461  0.35941616  1
  S  S4  1  0.36980539  0.36980539  0.89058384  1
  S  S5  1  0.36980539  0.89058384  0.36980539  1
  S  S6  1  0.89058384  0.36980539  0.36980539  1
  S  S7  1  0.36980539  0.36980539  0.36980539  1
loop_
_geom_bond_atom_site_label_1
_geom_bond_atom_site_label_2
_geom_bond_distance
_geom_bond_site_symmetry_2
Er0 S4 2.704694 1_554
Er0 S3 2.704694 1_455
Er0 S6 2.704694 1_455
Er0 S1 2.704694 1_554
Er0 S0 2.704694 1_454
Er0 S7 2.704694 1_555
Er1 S5 2.704694 1_545
Er1 S2 2.704694 1_455
Er1 S1 2.704694 1_545
Er1 S6 2.704694 1_455
Er1 S0 2.704694 1_445
Er1 S7 2.704694 1_555
Er2 S5 2.704694 1_545
Er2 S4 2.704694 1_554
Er2 S3 2.704694 1_545
Er2 S2 2.704694 1_554
Er2 S7 2.704694 1_555
Er2 S0 2.704694 1_544
Er3 S3 2.704694 1_445
Er3 S4 2.704694 1_554
Er3 S2 2.704694 1_454
Er3 S5 2.704694 1_545
Er3 S1 2.704694 1_544
Er3 S6 2.704694 1_455
Mg0 S6 2.490321 1_555
Mg0 S7 2.490321 1_555
Mg0 S5 2.490321 1_555
Mg0 S4 2.490321 1_555
Mg1 S1 2.490321 1_555
Mg1 S0 2.490321 1_555
Mg1 S3 2.490321 1_555
Mg1 S2 2.490321 1_555
