# generated using pymatgen
data_Pr5Si2Se3O17F
_symmetry_space_group_name_H-M   'P 1'
_cell_length_a   7.10735377
_cell_length_b   9.96133286
_cell_length_c   13.04682459
_cell_angle_alpha   70.58199081
_cell_angle_beta   76.90767058
_cell_angle_gamma   69.40081404
_symmetry_Int_Tables_number   1
_chemical_formula_structural   Pr5Si2Se3O17F
_chemical_formula_sum   'Pr10 Si4 Se6 O34 F2'
_cell_volume   809.15584455
_cell_formula_units_Z   2
loop_
 _symmetry_equiv_pos_site_id
 _symmetry_equiv_pos_as_xyz
  1  'x, y, z'
loop_
 _atom_site_type_symbol
 _atom_site_label
 _atom_site_symmetry_multiplicity
 _atom_site_fract_x
 _atom_site_fract_y
 _atom_site_fract_z
 _atom_site_occupancy
  Pr  Pr0  1  0.79963200  0.91844200  0.62275300  1
  Pr  Pr1  1  0.20036800  0.08155800  0.37724700  1
  Pr  Pr2  1  0.85117200  0.97099900  0.26030400  1
  Pr  Pr3  1  0.14882800  0.02900100  0.73969600  1
  Pr  Pr4  1  0.59577100  0.63675900  0.39640100  1
  Pr  Pr5  1  0.40422900  0.36324100  0.60359900  1
  Pr  Pr6  1  0.80974100  0.42050000  0.14374600  1
  Pr  Pr7  1  0.19025900  0.57950000  0.85625400  1
  Pr  Pr8  1  0.79774700  0.47489600  0.73370800  1
  Pr  Pr9  1  0.20225300  0.52510400  0.26629200  1
  Si  Si0  1  0.38171900  0.77835400  0.61647900  1
  Si  Si1  1  0.61828100  0.22164600  0.38352100  1
  Si  Si2  1  0.97867100  0.29347000  0.52853400  1
  Si  Si3  1  0.02132900  0.70653000  0.47146600  1
  Se  Se0  1  0.58513800  0.12808900  0.83846200  1
  Se  Se1  1  0.41486200  0.87191100  0.16153800  1
  Se  Se2  1  0.96503000  0.79438000  0.02575700  1
  Se  Se3  1  0.03497000  0.20562000  0.97424300  1
  Se  Se4  1  0.58719000  0.72586700  0.89144800  1
  Se  Se5  1  0.41281000  0.27413300  0.10855200  1
  O  O0  1  0.40898900  0.83782500  0.48134900  1
  O  O1  1  0.59101100  0.16217500  0.51865100  1
  O  O2  1  0.48105800  0.59578800  0.65481000  1
  O  O3  1  0.51894200  0.40421200  0.34519000  1
  O  O4  1  0.47065300  0.87508200  0.66577100  1
  O  O5  1  0.52934700  0.12491800  0.33422900  1
  O  O6  1  0.14582300  0.81034600  0.68194500  1
  O  O7  1  0.85417700  0.18965400  0.31805500  1
  O  O8  1  0.74553500  0.40579400  0.52574500  1
  O  O9  1  0.25446500  0.59420600  0.47425500  1
  O  O10  1  0.87774200  0.67072500  0.58757500  1
  O  O11  1  0.12225800  0.32927500  0.41242500  1
  O  O12  1  0.92677600  0.69777800  0.36923700  1
  O  O13  1  0.07322400  0.30222200  0.63076300  1
  O  O14  1  0.98905900  0.88878900  0.44217600  1
  O  O15  1  0.01094100  0.11121100  0.55782400  1
  O  O16  1  0.59211900  0.30456900  0.76013600  1
  O  O17  1  0.40788100  0.69543100  0.23986400  1
  O  O18  1  0.79602000  0.01552000  0.77899700  1
  O  O19  1  0.20398000  0.98448000  0.22100300  1
  O  O20  1  0.59669800  0.87869600  0.22760500  1
  O  O21  1  0.40330200  0.12130400  0.77239500  1
  O  O22  1  0.93936300  0.19127600  0.87000000  1
  O  O23  1  0.06063700  0.80872400  0.13000000  1
  O  O24  1  0.14163200  0.82759000  0.91098300  1
  O  O25  1  0.85836800  0.17241000  0.08901700  1
  O  O26  1  0.95287100  0.39840400  0.95120800  1
  O  O27  1  0.04712900  0.60159600  0.04879200  1
  O  O28  1  0.35767100  0.33989200  0.97736400  1
  O  O29  1  0.64232900  0.66010800  0.02263600  1
  O  O30  1  0.52405300  0.58476200  0.87014900  1
  O  O31  1  0.47594700  0.41523800  0.12985100  1
  O  O32  1  0.82562400  0.69538500  0.81067900  1
  O  O33  1  0.17437600  0.30461500  0.18932100  1
  F  F0  1  0.84650400  0.54643300  0.25729900  1
  F  F1  1  0.15349600  0.45356700  0.74270100  1
loop_
_geom_bond_atom_site_label_1
_geom_bond_atom_site_label_2
_geom_bond_distance
_geom_bond_site_symmetry_2
O0 Si0 1.651749 1_555
O0 Pr4 2.437352 1_555
O0 Pr1 2.474788 1_565
O1 Si1 1.651749 1_555
O1 Pr5 2.437352 1_555
O1 Pr0 2.474788 1_545
O2 Si0 1.645490 1_555
O2 Pr8 2.427784 1_555
O2 Pr5 2.862712 1_555
O2 Pr7 2.949067 1_555
O3 Si1 1.645490 1_555
O3 Pr9 2.427784 1_555
O3 Pr4 2.862712 1_555
O3 Pr6 2.949067 1_555
O4 Si0 1.663207 1_555
O4 Pr0 2.433828 1_555
O4 Pr3 2.455400 1_565
O5 Si1 1.663207 1_555
O5 Pr1 2.433828 1_555
O5 Pr2 2.455400 1_545
O6 Si0 1.672817 1_555
O6 Pr0 2.500715 1_455
O6 Pr3 2.538405 1_565
O6 Pr7 2.626147 1_555
O7 Si1 1.672817 1_555
O7 Pr1 2.500715 1_655
O7 Pr2 2.538405 1_545
O7 Pr6 2.626147 1_555
O8 Si2 1.641496 1_555
O8 Pr4 2.404802 1_555
O8 Pr5 2.533141 1_555
O8 Pr8 3.138634 1_555
O9 Si3 1.641496 1_555
O9 Pr5 2.404802 1_555
O9 Pr4 2.533141 1_555
O9 Pr9 3.138634 1_555
O10 Si3 1.630936 1_655
O10 Pr8 2.362192 1_555
O10 Pr0 2.506295 1_555
O11 Si2 1.630936 1_455
O11 Pr9 2.362192 1_555
O11 Pr1 2.506295 1_555
O12 Si3 1.662153 1_655
O12 Pr2 2.541840 1_555
O12 Pr4 2.552427 1_555
O12 Pr9 2.563394 1_655
O13 Si2 1.662153 1_455
O13 Pr3 2.541840 1_555
O13 Pr5 2.552427 1_555
O13 Pr8 2.563394 1_455
O14 Si3 1.667399 1_655
O14 Pr0 2.489230 1_555
O14 Pr2 2.541304 1_555
O14 Pr1 2.651748 1_665
O15 Si2 1.667399 1_455
O15 Pr1 2.489230 1_555
O15 Pr3 2.541304 1_555
O15 Pr0 2.651748 1_445
O16 Se0 1.726594 1_555
O16 Pr5 2.487698 1_555
O16 Pr8 2.502212 1_555
O17 Se1 1.726594 1_555
O17 Pr4 2.487698 1_555
O17 Pr9 2.502212 1_555
O18 Se0 1.724754 1_555
O18 Pr3 2.485423 1_655
O18 Pr0 2.522059 1_545
O19 Se1 1.724754 1_555
O19 Pr2 2.485423 1_455
O19 Pr1 2.522059 1_565
O20 Se1 1.738579 1_555
O20 Pr2 2.465588 1_555
O20 Pr4 2.670902 1_555
O21 Se0 1.738579 1_555
O21 Pr3 2.465588 1_555
O21 Pr5 2.670902 1_555
O22 Se3 1.716998 1_655
O22 Pr3 2.589748 1_655
O22 Pr8 2.761602 1_555
O23 Se2 1.716998 1_455
O23 Pr2 2.589748 1_455
O23 Pr9 2.761602 1_555
O24 Se2 1.743129 1_456
O24 Pr3 2.461960 1_565
O24 Pr7 2.682755 1_555
O25 Se3 1.743129 1_654
O25 Pr2 2.461960 1_545
O25 Pr6 2.682755 1_555
O26 Se3 1.739509 1_655
O26 Pr6 2.538871 1_556
O26 Pr7 2.710058 1_655
O26 Pr8 3.039271 1_555
O27 Se2 1.739509 1_455
O27 Pr7 2.538871 1_554
O27 Pr6 2.710058 1_455
O27 Pr9 3.039271 1_555
O28 Se5 1.699988 1_556
O28 Pr7 2.440306 1_555
O29 Se4 1.699988 1_554
O29 Pr6 2.440306 1_555
O30 Se4 1.736176 1_555
O30 Pr7 2.439779 1_555
O30 Pr8 2.525692 1_555
O31 Se5 1.736176 1_555
O31 Pr6 2.439779 1_555
O31 Pr9 2.525692 1_555
O32 Se4 1.765244 1_555
O32 Pr7 2.557167 1_655
O32 Pr0 2.697534 1_555
O32 Pr8 2.781127 1_555
O33 Se5 1.765244 1_555
O33 Pr6 2.557167 1_455
O33 Pr1 2.697534 1_555
O33 Pr9 2.781127 1_555
F0 Pr6 2.340631 1_555
F0 Pr4 2.402337 1_555
F0 Pr9 2.488313 1_655
F1 Pr7 2.340631 1_555
F1 Pr5 2.402337 1_555
F1 Pr8 2.488313 1_455
