# generated using pymatgen
data_BaMg30CrO32
_symmetry_space_group_name_H-M   'P 1'
_cell_length_a   8.67738700
_cell_length_b   8.67738700
_cell_length_c   8.65663300
_cell_angle_alpha   90.00000000
_cell_angle_beta   90.00000000
_cell_angle_gamma   90.00000000
_symmetry_Int_Tables_number   1
_chemical_formula_structural   BaMg30CrO32
_chemical_formula_sum   'Ba1 Mg30 Cr1 O32'
_cell_volume   651.81888583
_cell_formula_units_Z   1
loop_
 _symmetry_equiv_pos_site_id
 _symmetry_equiv_pos_as_xyz
  1  'x, y, z'
loop_
 _atom_site_type_symbol
 _atom_site_label
 _atom_site_symmetry_multiplicity
 _atom_site_fract_x
 _atom_site_fract_y
 _atom_site_fract_z
 _atom_site_occupancy
  Ba  Ba0  1  0.00000000  0.00000000  0.00000000  1
  Mg  Mg0  1  0.50000000  0.00000000  0.00000000  1
  Mg  Mg1  1  0.50000000  0.00000000  0.50000000  1
  Mg  Mg2  1  0.00000000  0.50000000  0.00000000  1
  Mg  Mg3  1  0.00000000  0.50000000  0.50000000  1
  Mg  Mg4  1  0.50000000  0.50000000  0.00000000  1
  Mg  Mg5  1  0.50000000  0.50000000  0.50000000  1
  Mg  Mg6  1  0.25925900  0.00000000  0.25695500  1
  Mg  Mg7  1  0.25925900  0.00000000  0.74304500  1
  Mg  Mg8  1  0.74074100  0.00000000  0.25695500  1
  Mg  Mg9  1  0.74074100  0.00000000  0.74304500  1
  Mg  Mg10  1  0.25099500  0.50000000  0.25105800  1
  Mg  Mg11  1  0.25099500  0.50000000  0.74894200  1
  Mg  Mg12  1  0.74900500  0.50000000  0.25105800  1
  Mg  Mg13  1  0.74900500  0.50000000  0.74894200  1
  Mg  Mg14  1  0.00000000  0.25925900  0.25695500  1
  Mg  Mg15  1  0.00000000  0.25925900  0.74304500  1
  Mg  Mg16  1  0.50000000  0.25099500  0.25105800  1
  Mg  Mg17  1  0.50000000  0.25099500  0.74894200  1
  Mg  Mg18  1  0.00000000  0.74074100  0.25695500  1
  Mg  Mg19  1  0.00000000  0.74074100  0.74304500  1
  Mg  Mg20  1  0.50000000  0.74900500  0.25105800  1
  Mg  Mg21  1  0.50000000  0.74900500  0.74894200  1
  Mg  Mg22  1  0.25761200  0.25761200  0.00000000  1
  Mg  Mg23  1  0.25109600  0.25109600  0.50000000  1
  Mg  Mg24  1  0.74238800  0.25761200  0.00000000  1
  Mg  Mg25  1  0.74890400  0.25109600  0.50000000  1
  Mg  Mg26  1  0.25761200  0.74238800  0.00000000  1
  Mg  Mg27  1  0.25109600  0.74890400  0.50000000  1
  Mg  Mg28  1  0.74238800  0.74238800  0.00000000  1
  Mg  Mg29  1  0.74890400  0.74890400  0.50000000  1
  Cr  Cr0  1  0.00000000  0.00000000  0.50000000  1
  O  O0  1  0.00000000  0.27913900  0.00000000  1
  O  O1  1  0.00000000  0.26252800  0.50000000  1
  O  O2  1  0.50000000  0.25602500  0.00000000  1
  O  O3  1  0.50000000  0.25253700  0.50000000  1
  O  O4  1  0.00000000  0.72086100  0.00000000  1
  O  O5  1  0.00000000  0.73747200  0.50000000  1
  O  O6  1  0.50000000  0.74397500  0.00000000  1
  O  O7  1  0.50000000  0.74746300  0.50000000  1
  O  O8  1  0.24931100  0.24931100  0.24979800  1
  O  O9  1  0.24931100  0.24931100  0.75020200  1
  O  O10  1  0.75068900  0.24931100  0.24979800  1
  O  O11  1  0.75068900  0.24931100  0.75020200  1
  O  O12  1  0.24931100  0.75068900  0.24979800  1
  O  O13  1  0.24931100  0.75068900  0.75020200  1
  O  O14  1  0.75068900  0.75068900  0.24979800  1
  O  O15  1  0.75068900  0.75068900  0.75020200  1
  O  O16  1  0.00000000  0.00000000  0.27575200  1
  O  O17  1  0.00000000  0.00000000  0.72424800  1
  O  O18  1  0.50000000  0.00000000  0.25464400  1
  O  O19  1  0.50000000  0.00000000  0.74535600  1
  O  O20  1  0.00000000  0.50000000  0.25464400  1
  O  O21  1  0.00000000  0.50000000  0.74535600  1
  O  O22  1  0.50000000  0.50000000  0.25134400  1
  O  O23  1  0.50000000  0.50000000  0.74865600  1
  O  O24  1  0.27913900  0.00000000  0.00000000  1
  O  O25  1  0.26252800  0.00000000  0.50000000  1
  O  O26  1  0.72086100  0.00000000  0.00000000  1
  O  O27  1  0.73747200  0.00000000  0.50000000  1
  O  O28  1  0.25602500  0.50000000  0.00000000  1
  O  O29  1  0.25253700  0.50000000  0.50000000  1
  O  O30  1  0.74397500  0.50000000  0.00000000  1
  O  O31  1  0.74746300  0.50000000  0.50000000  1
loop_
_geom_bond_atom_site_label_1
_geom_bond_atom_site_label_2
_geom_bond_distance
_geom_bond_site_symmetry_2
Ba0 O17 2.387084 1_554
Ba0 O16 2.387084 1_555
Ba0 O4 2.422197 1_545
Ba0 O24 2.422197 1_555
Ba0 O0 2.422197 1_555
Ba0 O26 2.422197 1_455
Mg0 O24 1.916496 1_555
Mg0 O26 1.916496 1_555
Mg0 O19 2.204360 1_554
Mg0 O18 2.204360 1_555
Mg0 O6 2.221628 1_545
Mg0 O2 2.221628 1_555
Mg1 O27 2.060636 1_555
Mg1 O25 2.060636 1_555
Mg1 O18 2.123957 1_555
Mg1 O19 2.123957 1_555
Mg1 O7 2.191361 1_545
Mg1 O3 2.191361 1_555
Mg2 O0 1.916496 1_555
Mg2 O4 1.916496 1_555
Mg2 O20 2.204360 1_555
Mg2 O21 2.204360 1_554
Mg2 O30 2.221628 1_455
Mg2 O28 2.221628 1_555
Mg3 O1 2.060636 1_555
Mg3 O5 2.060636 1_555
Mg3 O20 2.123957 1_555
Mg3 O21 2.123957 1_555
Mg3 O29 2.191361 1_555
Mg3 O31 2.191361 1_455
Mg4 O28 2.117065 1_555
Mg4 O2 2.117065 1_555
Mg4 O30 2.117065 1_555
Mg4 O6 2.117065 1_555
Mg4 O22 2.175793 1_555
Mg4 O23 2.175793 1_554
Mg5 O29 2.147332 1_555
Mg5 O31 2.147332 1_555
Mg5 O3 2.147332 1_555
Mg5 O7 2.147332 1_555
Mg5 O23 2.152524 1_555
Mg5 O22 2.152524 1_555
Mg6 O18 2.089099 1_555
Mg6 O25 2.104143 1_555
Mg6 O12 2.165976 1_545
Mg6 O8 2.165976 1_555
Mg6 O24 2.231044 1_555
Mg6 O16 2.255568 1_555
Mg7 O19 2.089099 1_555
Mg7 O25 2.104143 1_555
Mg7 O13 2.165976 1_545
Mg7 O9 2.165976 1_555
Mg7 O24 2.231044 1_556
Mg7 O17 2.255568 1_555
Mg8 O18 2.089099 1_555
Mg8 O27 2.104143 1_555
Mg8 O14 2.165976 1_545
Mg8 O10 2.165976 1_555
Mg8 O26 2.231044 1_555
Mg8 O16 2.255568 1_655
Mg9 O19 2.089099 1_555
Mg9 O27 2.104143 1_555
Mg9 O15 2.165976 1_545
Mg9 O11 2.165976 1_555
Mg9 O26 2.231044 1_556
Mg9 O17 2.255568 1_655
Mg10 O29 2.155041 1_555
Mg10 O22 2.160714 1_555
Mg10 O28 2.173755 1_555
Mg10 O8 2.175402 1_555
Mg10 O12 2.175402 1_555
Mg10 O20 2.178202 1_555
Mg11 O29 2.155041 1_555
Mg11 O23 2.160714 1_555
Mg11 O28 2.173755 1_556
Mg11 O9 2.175402 1_555
Mg11 O13 2.175402 1_555
Mg11 O21 2.178202 1_555
Mg12 O31 2.155041 1_555
Mg12 O22 2.160714 1_555
Mg12 O30 2.173755 1_555
Mg12 O10 2.175402 1_555
Mg12 O14 2.175402 1_555
Mg12 O20 2.178202 1_655
Mg13 O31 2.155041 1_555
Mg13 O23 2.160714 1_555
Mg13 O30 2.173755 1_556
Mg13 O11 2.175402 1_555
Mg13 O15 2.175402 1_555
Mg13 O21 2.178202 1_655
Mg14 O20 2.089099 1_555
Mg14 O1 2.104143 1_555
Mg14 O10 2.165976 1_455
Mg14 O8 2.165976 1_555
Mg14 O0 2.231044 1_555
Mg14 O16 2.255568 1_555
Mg15 O21 2.089099 1_555
Mg15 O1 2.104143 1_555
Mg15 O11 2.165976 1_455
Mg15 O9 2.165976 1_555
Mg15 O0 2.231044 1_556
Mg15 O17 2.255568 1_555
Mg16 O3 2.155041 1_555
Mg16 O22 2.160714 1_555
Mg16 O2 2.173755 1_555
Mg16 O8 2.175402 1_555
Mg16 O10 2.175402 1_555
Mg16 O18 2.178202 1_555
Mg17 O3 2.155041 1_555
Mg17 O23 2.160714 1_555
Mg17 O2 2.173755 1_556
Mg17 O9 2.175402 1_555
Mg17 O11 2.175402 1_555
Mg17 O19 2.178202 1_555
Mg18 O20 2.089099 1_555
Mg18 O5 2.104143 1_555
Mg18 O14 2.165976 1_455
Mg18 O12 2.165976 1_555
Mg18 O4 2.231044 1_555
Mg18 O16 2.255568 1_565
Mg19 O21 2.089099 1_555
Mg19 O5 2.104143 1_555
Mg19 O15 2.165976 1_455
Mg19 O13 2.165976 1_555
Mg19 O4 2.231044 1_556
Mg19 O17 2.255568 1_565
Mg20 O7 2.155041 1_555
Mg20 O22 2.160714 1_555
Mg20 O6 2.173755 1_555
Mg20 O12 2.175402 1_555
Mg20 O14 2.175402 1_555
Mg20 O18 2.178202 1_565
Mg21 O7 2.155041 1_555
Mg21 O23 2.160714 1_555
Mg21 O6 2.173755 1_556
Mg21 O13 2.175402 1_555
Mg21 O15 2.175402 1_555
Mg21 O19 2.178202 1_565
Mg22 O2 2.103340 1_555
Mg22 O28 2.103340 1_555
Mg22 O8 2.164808 1_555
Mg22 O9 2.164808 1_554
Mg22 O0 2.243190 1_555
Mg22 O24 2.243190 1_555
Mg23 O29 2.159873 1_555
Mg23 O3 2.159873 1_555
Mg23 O8 2.166018 1_555
Mg23 O9 2.166018 1_555
Mg23 O25 2.181114 1_555
Mg23 O1 2.181114 1_555
Mg24 O30 2.103340 1_555
Mg24 O2 2.103340 1_555
Mg24 O10 2.164808 1_555
Mg24 O11 2.164808 1_554
Mg24 O0 2.243190 1_655
Mg24 O26 2.243190 1_555
Mg25 O31 2.159873 1_555
Mg25 O3 2.159873 1_555
Mg25 O11 2.166018 1_555
Mg25 O10 2.166018 1_555
Mg25 O27 2.181114 1_555
Mg25 O1 2.181114 1_655
Mg26 O6 2.103340 1_555
Mg26 O28 2.103340 1_555
Mg26 O13 2.164808 1_554
Mg26 O12 2.164808 1_555
Mg26 O24 2.243190 1_565
Mg26 O4 2.243190 1_555
Mg27 O29 2.159873 1_555
Mg27 O7 2.159873 1_555
Mg27 O12 2.166018 1_555
Mg27 O13 2.166018 1_555
Mg27 O25 2.181114 1_565
Mg27 O5 2.181114 1_555
Mg28 O6 2.103340 1_555
Mg28 O30 2.103340 1_555
Mg28 O15 2.164808 1_554
Mg28 O14 2.164808 1_555
Mg28 O26 2.243190 1_565
Mg28 O4 2.243190 1_655
Mg29 O7 2.159873 1_555
Mg29 O31 2.159873 1_555
Mg29 O14 2.166018 1_555
Mg29 O15 2.166018 1_555
Mg29 O27 2.181114 1_565
Mg29 O5 2.181114 1_655
Cr0 O16 1.941233 1_555
Cr0 O17 1.941233 1_555
Cr0 O25 2.278057 1_555
Cr0 O5 2.278057 1_545
Cr0 O1 2.278057 1_555
Cr0 O27 2.278057 1_455
