# generated using pymatgen
data_Er3Al3Cr2O12
_symmetry_space_group_name_H-M   'P 1'
_cell_length_a   10.59496172
_cell_length_b   10.59496172
_cell_length_c   10.59496172
_cell_angle_alpha   109.47122063
_cell_angle_beta   109.47122063
_cell_angle_gamma   109.47122063
_symmetry_Int_Tables_number   1
_chemical_formula_structural   Er3Al3Cr2O12
_chemical_formula_sum   'Er12 Al12 Cr8 O48'
_cell_volume   915.53781050
_cell_formula_units_Z   4
loop_
 _symmetry_equiv_pos_site_id
 _symmetry_equiv_pos_as_xyz
  1  'x, y, z'
loop_
 _atom_site_type_symbol
 _atom_site_label
 _atom_site_symmetry_multiplicity
 _atom_site_fract_x
 _atom_site_fract_y
 _atom_site_fract_z
 _atom_site_occupancy
  Er  Er0  1  0.25000000  0.37500000  0.12500000  1
  Er  Er1  1  0.75000000  0.62500000  0.87500000  1
  Er  Er2  1  0.75000000  0.12500000  0.37500000  1
  Er  Er3  1  0.12500000  0.25000000  0.37500000  1
  Er  Er4  1  0.37500000  0.75000000  0.12500000  1
  Er  Er5  1  0.25000000  0.87500000  0.62500000  1
  Er  Er6  1  0.87500000  0.75000000  0.62500000  1
  Er  Er7  1  0.62500000  0.25000000  0.87500000  1
  Er  Er8  1  0.37500000  0.12500000  0.25000000  1
  Er  Er9  1  0.62500000  0.87500000  0.75000000  1
  Er  Er10  1  0.12500000  0.37500000  0.75000000  1
  Er  Er11  1  0.87500000  0.62500000  0.25000000  1
  Al  Al0  1  0.25000000  0.62500000  0.37500000  1
  Al  Al1  1  0.75000000  0.37500000  0.62500000  1
  Al  Al2  1  0.75000000  0.87500000  0.12500000  1
  Al  Al3  1  0.37500000  0.25000000  0.62500000  1
  Al  Al4  1  0.62500000  0.75000000  0.37500000  1
  Al  Al5  1  0.25000000  0.12500000  0.87500000  1
  Al  Al6  1  0.12500000  0.75000000  0.87500000  1
  Al  Al7  1  0.87500000  0.25000000  0.12500000  1
  Al  Al8  1  0.62500000  0.37500000  0.25000000  1
  Al  Al9  1  0.37500000  0.62500000  0.75000000  1
  Al  Al10  1  0.87500000  0.12500000  0.75000000  1
  Al  Al11  1  0.12500000  0.87500000  0.25000000  1
  Cr  Cr0  1  0.00000000  0.00000000  0.00000000  1
  Cr  Cr1  1  0.50000000  0.00000000  0.50000000  1
  Cr  Cr2  1  0.00000000  0.50000000  0.50000000  1
  Cr  Cr3  1  0.50000000  0.00000000  0.00000000  1
  Cr  Cr4  1  0.50000000  0.50000000  0.00000000  1
  Cr  Cr5  1  0.50000000  0.50000000  0.50000000  1
  Cr  Cr6  1  0.00000000  0.00000000  0.50000000  1
  Cr  Cr7  1  0.00000000  0.50000000  0.00000000  1
  O  O0  1  0.47494500  0.37597400  0.29133300  1
  O  O1  1  0.52505500  0.62402600  0.70866700  1
  O  O2  1  0.58464200  0.18361300  0.20866700  1
  O  O3  1  0.91535800  0.12402600  0.59897100  1
  O  O4  1  0.29133300  0.47494500  0.37597400  1
  O  O5  1  0.31638700  0.91535800  0.29133300  1
  O  O6  1  0.41535800  0.81638700  0.79133300  1
  O  O7  1  0.08464200  0.87597400  0.40102900  1
  O  O8  1  0.70866700  0.52505500  0.62402600  1
  O  O9  1  0.68361300  0.08464200  0.70866700  1
  O  O10  1  0.02505500  0.31638700  0.90102900  1
  O  O11  1  0.20866700  0.58464200  0.18361300  1
  O  O12  1  0.12402600  0.02505500  0.20866700  1
  O  O13  1  0.97494500  0.68361300  0.09897100  1
  O  O14  1  0.79133300  0.41535800  0.81638700  1
  O  O15  1  0.87597400  0.97494500  0.79133300  1
  O  O16  1  0.59897100  0.91535800  0.12402600  1
  O  O17  1  0.18361300  0.47494500  0.59897100  1
  O  O18  1  0.40102900  0.08464200  0.87597400  1
  O  O19  1  0.81638700  0.52505500  0.40102900  1
  O  O20  1  0.90102900  0.02505500  0.31638700  1
  O  O21  1  0.37597400  0.58464200  0.90102900  1
  O  O22  1  0.09897100  0.97494500  0.68361300  1
  O  O23  1  0.62402600  0.41535800  0.09897100  1
  O  O24  1  0.37597400  0.29133300  0.47494500  1
  O  O25  1  0.58464200  0.90102900  0.37597400  1
  O  O26  1  0.62402600  0.70866700  0.52505500  1
  O  O27  1  0.41535800  0.09897100  0.62402600  1
  O  O28  1  0.12402600  0.59897100  0.91535800  1
  O  O29  1  0.02505500  0.20866700  0.12402600  1
  O  O30  1  0.87597400  0.40102900  0.08464200  1
  O  O31  1  0.97494500  0.79133300  0.87597400  1
  O  O32  1  0.31638700  0.90102900  0.02505500  1
  O  O33  1  0.91535800  0.29133300  0.31638700  1
  O  O34  1  0.68361300  0.09897100  0.97494500  1
  O  O35  1  0.08464200  0.70866700  0.68361300  1
  O  O36  1  0.18361300  0.20866700  0.58464200  1
  O  O37  1  0.47494500  0.59897100  0.18361300  1
  O  O38  1  0.81638700  0.79133300  0.41535800  1
  O  O39  1  0.52505500  0.40102900  0.81638700  1
  O  O40  1  0.29133300  0.31638700  0.91535800  1
  O  O41  1  0.70866700  0.68361300  0.08464200  1
  O  O42  1  0.20866700  0.12402600  0.02505500  1
  O  O43  1  0.79133300  0.87597400  0.97494500  1
  O  O44  1  0.90102900  0.37597400  0.58464200  1
  O  O45  1  0.09897100  0.62402600  0.41535800  1
  O  O46  1  0.59897100  0.18361300  0.47494500  1
  O  O47  1  0.40102900  0.81638700  0.52505500  1
loop_
_geom_bond_atom_site_label_1
_geom_bond_atom_site_label_2
_geom_bond_distance
_geom_bond_site_symmetry_2
Er0 O4 2.328320 1_555
Er0 O42 2.328320 1_555
Er0 O11 2.328330 1_555
Er0 O40 2.328330 1_554
Er0 O10 2.440748 1_554
Er0 O37 2.440748 1_555
Er0 O29 2.440752 1_555
Er0 O0 2.440752 1_555
Er1 O8 2.328320 1_555
Er1 O43 2.328320 1_555
Er1 O14 2.328330 1_555
Er1 O41 2.328330 1_556
Er1 O13 2.440748 1_556
Er1 O39 2.440748 1_555
Er1 O1 2.440752 1_555
Er1 O31 2.440752 1_555
Er2 O46 2.328324 1_555
Er2 O44 2.328324 1_555
Er2 O20 2.328324 1_555
Er2 O16 2.328324 1_545
Er2 O25 2.440748 1_545
Er2 O3 2.440748 1_555
Er2 O2 2.440754 1_555
Er2 O33 2.440754 1_555
Er3 O24 2.328320 1_555
Er3 O29 2.328320 1_555
Er3 O33 2.328330 1_455
Er3 O36 2.328330 1_555
Er3 O20 2.440748 1_455
Er3 O17 2.440748 1_555
Er3 O12 2.440752 1_555
Er3 O4 2.440752 1_555
Er4 O37 2.328324 1_555
Er4 O25 2.328324 1_555
Er4 O32 2.328324 1_555
Er4 O28 2.328324 1_554
Er4 O21 2.440748 1_554
Er4 O16 2.440748 1_555
Er4 O5 2.440754 1_555
Er4 O11 2.440754 1_555
Er5 O22 2.328324 1_555
Er5 O45 2.328324 1_555
Er5 O47 2.328324 1_555
Er5 O18 2.328324 1_565
Er5 O27 2.440748 1_565
Er5 O7 2.440748 1_555
Er5 O35 2.440754 1_555
Er5 O6 2.440754 1_555
Er6 O31 2.328320 1_555
Er6 O26 2.328320 1_555
Er6 O38 2.328330 1_555
Er6 O35 2.328330 1_655
Er6 O22 2.440748 1_655
Er6 O19 2.440748 1_555
Er6 O15 2.440752 1_555
Er6 O8 2.440752 1_555
Er7 O34 2.328324 1_555
Er7 O39 2.328324 1_555
Er7 O27 2.328324 1_555
Er7 O30 2.328324 1_556
Er7 O18 2.440748 1_555
Er7 O23 2.440748 1_556
Er7 O9 2.440754 1_555
Er7 O14 2.440754 1_555
Er8 O0 2.328320 1_555
Er8 O12 2.328320 1_555
Er8 O2 2.328330 1_555
Er8 O5 2.328330 1_545
Er8 O46 2.440748 1_555
Er8 O32 2.440748 1_545
Er8 O42 2.440752 1_555
Er8 O24 2.440752 1_555
Er9 O1 2.328320 1_555
Er9 O15 2.328320 1_555
Er9 O6 2.328330 1_555
Er9 O9 2.328330 1_565
Er9 O34 2.440748 1_565
Er9 O47 2.440748 1_555
Er9 O26 2.440752 1_555
Er9 O43 2.440752 1_555
Er10 O17 2.328324 1_555
Er10 O10 2.328324 1_555
Er10 O21 2.328324 1_555
Er10 O3 2.328324 1_455
Er10 O28 2.440748 1_555
Er10 O44 2.440748 1_455
Er10 O36 2.440754 1_555
Er10 O40 2.440754 1_555
Er11 O13 2.328324 1_555
Er11 O19 2.328324 1_555
Er11 O23 2.328324 1_555
Er11 O7 2.328324 1_655
Er11 O45 2.440748 1_655
Er11 O30 2.440748 1_555
Er11 O38 2.440754 1_555
Er11 O41 2.440754 1_555
Al0 O11 1.786470 1_555
Al0 O45 1.786472 1_555
Al0 O47 1.786472 1_555
Al0 O4 1.786478 1_555
Al1 O14 1.786470 1_555
Al1 O44 1.786472 1_555
Al1 O46 1.786472 1_555
Al1 O8 1.786478 1_555
Al2 O41 1.786470 1_555
Al2 O16 1.786472 1_555
Al2 O20 1.786472 1_565
Al2 O43 1.786478 1_554
Al3 O36 1.786470 1_555
Al3 O27 1.786472 1_555
Al3 O39 1.786472 1_555
Al3 O24 1.786478 1_555
Al4 O38 1.786470 1_555
Al4 O25 1.786472 1_555
Al4 O37 1.786472 1_555
Al4 O26 1.786478 1_555
Al5 O40 1.786470 1_555
Al5 O22 1.786472 1_545
Al5 O18 1.786472 1_555
Al5 O42 1.786478 1_556
Al6 O35 1.786470 1_555
Al6 O28 1.786472 1_555
Al6 O32 1.786472 1_556
Al6 O31 1.786478 1_455
Al7 O33 1.786470 1_555
Al7 O34 1.786472 1_554
Al7 O30 1.786472 1_555
Al7 O29 1.786478 1_655
Al8 O2 1.786470 1_555
Al8 O23 1.786472 1_555
Al8 O19 1.786472 1_555
Al8 O0 1.786478 1_555
Al9 O6 1.786470 1_555
Al9 O21 1.786472 1_555
Al9 O17 1.786472 1_555
Al9 O1 1.786478 1_555
Al10 O9 1.786470 1_555
Al10 O3 1.786472 1_555
Al10 O10 1.786472 1_655
Al10 O15 1.786478 1_545
Al11 O5 1.786470 1_555
Al11 O13 1.786472 1_455
Al11 O7 1.786472 1_555
Al11 O12 1.786478 1_565
Cr0 O12 2.030853 1_555
Cr0 O31 2.030853 1_444
Cr0 O15 2.030853 1_444
Cr0 O43 2.030853 1_444
Cr0 O29 2.030853 1_555
Cr0 O42 2.030853 1_555
Cr1 O5 2.030855 1_545
Cr1 O9 2.030855 1_555
Cr1 O27 2.030862 1_555
Cr1 O46 2.030862 1_555
Cr1 O47 2.030862 1_545
Cr1 O25 2.030862 1_545
Cr2 O33 2.030855 1_455
Cr2 O35 2.030855 1_555
Cr2 O45 2.030862 1_555
Cr2 O17 2.030862 1_555
Cr2 O44 2.030862 1_455
Cr2 O19 2.030862 1_455
Cr3 O2 2.030855 1_555
Cr3 O6 2.030855 1_544
Cr3 O18 2.030862 1_554
Cr3 O16 2.030862 1_545
Cr3 O34 2.030862 1_554
Cr3 O32 2.030862 1_545
Cr4 O40 2.030855 1_554
Cr4 O41 2.030855 1_555
Cr4 O23 2.030862 1_555
Cr4 O37 2.030862 1_555
Cr4 O39 2.030862 1_554
Cr4 O21 2.030862 1_554
Cr5 O4 2.030853 1_555
Cr5 O24 2.030853 1_555
Cr5 O8 2.030853 1_555
Cr5 O0 2.030853 1_555
Cr5 O26 2.030853 1_555
Cr5 O1 2.030853 1_555
Cr6 O36 2.030855 1_555
Cr6 O38 2.030855 1_445
Cr6 O7 2.030862 1_545
Cr6 O20 2.030862 1_455
Cr6 O22 2.030862 1_545
Cr6 O3 2.030862 1_455
Cr7 O11 2.030855 1_555
Cr7 O14 2.030855 1_454
Cr7 O30 2.030862 1_455
Cr7 O28 2.030862 1_554
Cr7 O13 2.030862 1_455
Cr7 O10 2.030862 1_554
