# generated using pymatgen
data_Yb2CdPd3
_symmetry_space_group_name_H-M   'P 1'
_cell_length_a   4.81174800
_cell_length_b   4.81174800
_cell_length_c   11.68290800
_cell_angle_alpha   90.00000000
_cell_angle_beta   90.00000000
_cell_angle_gamma   119.99999995
_symmetry_Int_Tables_number   1
_chemical_formula_structural   Yb2CdPd3
_chemical_formula_sum   'Yb4 Cd2 Pd6'
_cell_volume   234.25417341
_cell_formula_units_Z   2
loop_
 _symmetry_equiv_pos_site_id
 _symmetry_equiv_pos_as_xyz
  1  'x, y, z'
loop_
 _atom_site_type_symbol
 _atom_site_label
 _atom_site_symmetry_multiplicity
 _atom_site_fract_x
 _atom_site_fract_y
 _atom_site_fract_z
 _atom_site_occupancy
  Yb  Yb0  1  0.00000000  0.00000000  0.50000000  1
  Yb  Yb1  1  0.33333300  0.66666700  0.17826700  1
  Yb  Yb2  1  0.66666700  0.33333300  0.82173300  1
  Yb  Yb3  1  0.00000000  0.00000000  0.00000000  1
  Cd  Cd0  1  0.33333300  0.66666700  0.66555200  1
  Cd  Cd1  1  0.66666700  0.33333300  0.33444800  1
  Pd  Pd0  1  0.33333300  0.66666700  0.42089400  1
  Pd  Pd1  1  0.66666700  0.33333300  0.08632900  1
  Pd  Pd2  1  0.00000000  0.00000000  0.74763100  1
  Pd  Pd3  1  0.00000000  0.00000000  0.25236900  1
  Pd  Pd4  1  0.33333300  0.66666700  0.91367100  1
  Pd  Pd5  1  0.66666700  0.33333300  0.57910600  1
loop_
_geom_bond_atom_site_label_1
_geom_bond_atom_site_label_2
_geom_bond_distance
_geom_bond_site_symmetry_2
Cd0 Pd0 2.858317 1_555
Cd0 Pd4 2.898751 1_555
Cd0 Pd2 2.938904 1_565
Cd0 Pd2 2.938908 1_555
Cd0 Pd2 2.938908 1_665
Cd0 Pd5 2.955944 1_455
Cd0 Pd5 2.955944 1_565
Cd0 Pd5 2.955952 1_555
Cd1 Pd5 2.858317 1_555
Cd1 Pd1 2.898751 1_555
Cd1 Pd3 2.938904 1_655
Cd1 Pd3 2.938908 1_665
Cd1 Pd3 2.938908 1_555
Cd1 Pd0 2.955944 1_545
Cd1 Pd0 2.955944 1_655
Cd1 Pd0 2.955952 1_555
Pd0 Yb1 2.834589 1_555
Pd0 Yb0 2.927755 1_565
Pd0 Yb0 2.927759 1_665
Pd0 Yb0 2.927759 1_555
Pd1 Yb3 2.955477 1_655
Pd1 Yb3 2.955481 1_555
Pd1 Yb3 2.955481 1_665
Pd1 Yb1 2.978476 1_545
Pd1 Yb1 2.978476 1_655
Pd1 Yb1 2.978484 1_555
Pd1 Yb2 3.091251 1_554
Pd2 Yb0 2.893050 1_555
Pd2 Yb2 2.909829 1_455
Pd2 Yb2 2.909833 1_445
Pd2 Yb2 2.909833 1_555
Pd2 Yb3 2.948404 1_556
Pd3 Yb0 2.893050 1_555
Pd3 Yb1 2.909829 1_545
Pd3 Yb1 2.909833 1_555
Pd3 Yb1 2.909833 1_445
Pd3 Yb3 2.948404 1_555
Pd4 Yb3 2.955477 1_566
Pd4 Yb3 2.955481 1_556
Pd4 Yb3 2.955481 1_666
Pd4 Yb2 2.978476 1_455
Pd4 Yb2 2.978476 1_565
Pd4 Yb2 2.978484 1_555
Pd4 Yb1 3.091251 1_556
Pd5 Yb2 2.834589 1_555
Pd5 Yb0 2.927755 1_655
Pd5 Yb0 2.927759 1_665
Pd5 Yb0 2.927759 1_555
