# generated using pymatgen
data_CaLa2Co2Sb2(PbO6)2
_symmetry_space_group_name_H-M   'P 1'
_cell_length_a   6.07513832
_cell_length_b   6.20846717
_cell_length_c   8.12851870
_cell_angle_alpha   87.87787647
_cell_angle_beta   88.96434180
_cell_angle_gamma   88.10654951
_symmetry_Int_Tables_number   1
_chemical_formula_structural   CaLa2Co2Sb2(PbO6)2
_chemical_formula_sum   'Ca1 La2 Co2 Sb2 Pb2 O12'
_cell_volume   306.16461935
_cell_formula_units_Z   1
loop_
 _symmetry_equiv_pos_site_id
 _symmetry_equiv_pos_as_xyz
  1  'x, y, z'
loop_
 _atom_site_type_symbol
 _atom_site_label
 _atom_site_symmetry_multiplicity
 _atom_site_fract_x
 _atom_site_fract_y
 _atom_site_fract_z
 _atom_site_occupancy
  Ca  Ca0  1  0.95600300  0.71105800  0.57142700  1
  La  La0  1  0.48592500  0.46747000  0.80385000  1
  La  La1  1  0.98631400  0.99745200  0.20767600  1
  Co  Co0  1  0.02585200  0.32572400  0.41877200  1
  Co  Co1  1  0.53014300  0.99155800  0.00239200  1
  Sb  Sb0  1  0.98482100  0.51607000  0.01462600  1
  Sb  Sb1  1  0.50163400  0.01357300  0.49973900  1
  Pb  Pb0  1  0.48343600  0.58481600  0.27713800  1
  Pb  Pb1  1  0.05942900  0.09573000  0.79487400  1
  O  O0  1  0.60124400  0.96368300  0.26019300  1
  O  O1  1  0.08001600  0.48209700  0.77096900  1
  O  O2  1  0.45742700  0.08123100  0.74629600  1
  O  O3  1  0.92315800  0.55090500  0.26261800  1
  O  O4  1  0.22807500  0.86396000  0.42741100  1
  O  O5  1  0.73095000  0.70810900  0.94485600  1
  O  O6  1  0.82647600  0.09420900  0.51274100  1
  O  O7  1  0.21865000  0.27251100  0.04231800  1
  O  O8  1  0.33810900  0.30052000  0.47335900  1
  O  O9  1  0.77784000  0.26504500  0.98658500  1
  O  O10  1  0.59122900  0.69858900  0.56709500  1
  O  O11  1  0.20136100  0.75527200  0.02339600  1
loop_
_geom_bond_atom_site_label_1
_geom_bond_atom_site_label_2
_geom_bond_distance
_geom_bond_site_symmetry_2
Ca0 O10 2.220919 1_555
Ca0 O4 2.225977 1_655
Ca0 O1 2.240922 1_655
Ca0 O6 2.512209 1_565
Ca0 O3 2.746892 1_555
Ca0 Co0 2.752596 1_655
Ca0 Pb1 3.139903 1_665
La0 O10 2.446101 1_555
La0 O5 2.469212 1_555
La0 O2 2.472338 1_555
La0 O1 2.483513 1_555
La0 O9 2.596239 1_555
La0 O7 2.775116 1_556
La0 O11 3.047386 1_556
La0 O8 3.074481 1_555
La1 O0 2.385046 1_555
La1 O4 2.437014 1_655
La1 O11 2.485462 1_655
La1 O7 2.576011 1_665
La1 O9 2.704800 1_564
La1 O6 2.727186 1_565
La1 O3 2.829331 1_555
Co0 O3 1.947923 1_455
Co0 O8 1.955930 1_555
Co0 O6 2.028992 1_455
Co0 La1 2.731658 1_445
Co1 O0 2.146798 1_555
Co1 O5 2.168469 1_554
Co1 O2 2.183955 1_564
Co1 O9 2.304255 1_564
Co1 O11 2.516646 1_555
Co1 O7 2.555484 1_565
O0 Sb1 2.059911 1_565
O0 Pb0 2.479446 1_555
O1 Sb0 2.069559 1_456
O1 Pb1 2.406619 1_555
O2 Sb1 2.073788 1_555
O2 Pb1 2.442123 1_555
O3 Sb0 2.061607 1_555
O3 Pb0 2.673530 1_555
O4 Sb1 2.036703 1_565
O4 Pb0 2.610143 1_555
O5 Sb0 1.995459 1_556
O6 Sb1 2.057446 1_555
O6 Pb1 2.716999 1_655
O7 Sb0 2.049280 1_455
O7 Pb1 2.547500 1_554
O8 Sb1 2.017201 1_555
O8 Pb0 2.506475 1_555
O9 Sb0 2.056243 1_556
O9 Pb1 2.523085 1_655
O10 Sb1 2.069157 1_565
O10 Pb0 2.586989 1_555
O11 Sb0 2.020256 1_455
