# generated using pymatgen
data_Ca2Ti5(Bi2O9)2
_symmetry_space_group_name_H-M   'P 1'
_cell_length_a   24.59312691
_cell_length_b   24.59312691
_cell_length_c   5.47219100
_cell_angle_alpha   90.00000000
_cell_angle_beta   90.00000000
_cell_angle_gamma   167.12088234
_symmetry_Int_Tables_number   1
_chemical_formula_structural   Ca2Ti5(Bi2O9)2
_chemical_formula_sum   'Ca4 Ti10 Bi8 O36'
_cell_volume   737.71523595
_cell_formula_units_Z   2
loop_
 _symmetry_equiv_pos_site_id
 _symmetry_equiv_pos_as_xyz
  1  'x, y, z'
loop_
 _atom_site_type_symbol
 _atom_site_label
 _atom_site_symmetry_multiplicity
 _atom_site_fract_x
 _atom_site_fract_y
 _atom_site_fract_z
 _atom_site_occupancy
  Ca  Ca0  1  0.53215800  0.45282300  0.49095800  1
  Ca  Ca1  1  0.45282300  0.53215800  0.50904200  1
  Ca  Ca2  1  0.03215800  0.95282300  0.00904200  1
  Ca  Ca3  1  0.95282300  0.03215800  0.99095800  1
  Ti  Ti0  1  0.84345800  0.17772800  0.49753500  1
  Ti  Ti1  1  0.17772800  0.84345800  0.50246500  1
  Ti  Ti2  1  0.34345800  0.67772800  0.00246500  1
  Ti  Ti3  1  0.67772800  0.34345800  0.99753500  1
  Ti  Ti4  1  0.00765600  0.00765600  0.50000000  1
  Ti  Ti5  1  0.50765600  0.50765600  0.00000000  1
  Ti  Ti6  1  0.93762000  0.09311000  0.49420500  1
  Ti  Ti7  1  0.09311000  0.93762000  0.50579500  1
  Ti  Ti8  1  0.43762000  0.59311000  0.00579500  1
  Ti  Ti9  1  0.59311000  0.43762000  0.99420500  1
  Bi  Bi0  1  0.72348500  0.27571300  0.52856600  1
  Bi  Bi1  1  0.27571300  0.72348500  0.47143400  1
  Bi  Bi2  1  0.22348500  0.77571300  0.97143400  1
  Bi  Bi3  1  0.77571300  0.22348500  0.02856600  1
  Bi  Bi4  1  0.59121000  0.34142500  0.49145200  1
  Bi  Bi5  1  0.34142500  0.59121000  0.50854800  1
  Bi  Bi6  1  0.09121000  0.84142500  0.00854800  1
  Bi  Bi7  1  0.84142500  0.09121000  0.99145200  1
  O  O0  1  0.02105800  0.09919300  0.41744900  1
  O  O1  1  0.09919300  0.02105800  0.58255100  1
  O  O2  1  0.52105800  0.59919300  0.08255100  1
  O  O3  1  0.59919300  0.52105800  0.91744900  1
  O  O4  1  0.28740900  0.27334600  0.24382800  1
  O  O5  1  0.27334600  0.28740900  0.75617200  1
  O  O6  1  0.78740900  0.77334600  0.25617200  1
  O  O7  1  0.77334600  0.78740900  0.74382800  1
  O  O8  1  0.33320100  0.19042900  0.20648500  1
  O  O9  1  0.19042900  0.33320100  0.79351500  1
  O  O10  1  0.83320100  0.69042900  0.29351500  1
  O  O11  1  0.69042900  0.83320100  0.70648500  1
  O  O12  1  0.27000400  0.43761200  0.30389100  1
  O  O13  1  0.43761200  0.27000400  0.69610900  1
  O  O14  1  0.77000400  0.93761200  0.19610900  1
  O  O15  1  0.93761200  0.77000400  0.80389100  1
  O  O16  1  0.81798900  0.22362100  0.43531100  1
  O  O17  1  0.22362100  0.81798900  0.56468900  1
  O  O18  1  0.31798900  0.72362100  0.06468900  1
  O  O19  1  0.72362100  0.31798900  0.93531100  1
  O  O20  1  0.11941100  0.42916900  0.24794400  1
  O  O21  1  0.42916900  0.11941100  0.75205600  1
  O  O22  1  0.61941100  0.92916900  0.25205600  1
  O  O23  1  0.92916900  0.61941100  0.74794400  1
  O  O24  1  0.50643400  0.00780400  0.25209000  1
  O  O25  1  0.00780400  0.50643400  0.74791000  1
  O  O26  1  0.00643400  0.50780400  0.24791000  1
  O  O27  1  0.50780400  0.00643400  0.75209000  1
  O  O28  1  0.94465000  0.17963800  0.56530700  1
  O  O29  1  0.17963800  0.94465000  0.43469300  1
  O  O30  1  0.44465000  0.67963800  0.93469300  1
  O  O31  1  0.67963800  0.44465000  0.06530700  1
  O  O32  1  0.44847900  0.12216800  0.26008900  1
  O  O33  1  0.12216800  0.44847900  0.73991100  1
  O  O34  1  0.94847900  0.62216800  0.23991100  1
  O  O35  1  0.62216800  0.94847900  0.76008900  1
loop_
_geom_bond_atom_site_label_1
_geom_bond_atom_site_label_2
_geom_bond_distance
_geom_bond_site_symmetry_2
Ca0 O3 2.363658 1_555
Ca0 O4 2.396330 1_555
Ca0 O10 2.403764 1_555
Ca0 O1 2.437406 1_555
Ca0 O8 2.538883 1_555
Ca0 O13 2.549341 1_555
Ca0 O6 2.591761 1_555
Ca1 O2 2.363658 1_555
Ca1 O5 2.396330 1_555
Ca1 O11 2.403764 1_555
Ca1 O0 2.437406 1_555
Ca1 O9 2.538883 1_555
Ca1 O12 2.549341 1_555
Ca1 O7 2.591761 1_555
Ca2 O1 2.363658 1_564
Ca2 O6 2.396330 1_455
Ca2 O8 2.403764 1_565
Ca2 O3 2.437406 1_454
Ca2 O10 2.538883 1_455
Ca2 O15 2.549341 1_454
Ca2 O4 2.591761 1_565
Ca3 O0 2.363658 1_656
Ca3 O7 2.396330 1_545
Ca3 O9 2.403764 1_655
Ca3 O2 2.437406 1_546
Ca3 O11 2.538883 1_545
Ca3 O14 2.549341 1_546
Ca3 O5 2.591761 1_655
Bi0 O27 2.236303 1_555
Bi0 O25 2.274745 1_655
Bi0 O24 2.371275 1_555
Bi0 O26 2.433419 1_655
Bi0 O19 2.455266 1_555
Bi1 O26 2.236303 1_555
Bi1 O24 2.274745 1_565
Bi1 O25 2.371275 1_555
Bi1 O27 2.433419 1_565
Bi1 O18 2.455266 1_555
Bi2 O25 2.236303 1_555
Bi2 O27 2.274745 1_565
Bi2 O26 2.371275 1_556
Bi2 O24 2.433419 1_566
Bi2 O17 2.455266 1_555
Bi3 O24 2.236303 1_555
Bi3 O26 2.274745 1_655
Bi3 O27 2.371275 1_554
Bi3 O25 2.433419 1_654
Bi3 O16 2.455266 1_555
Bi4 O29 2.280005 1_545
Bi4 O21 2.303015 1_555
Bi4 O13 2.381693 1_555
Bi4 O31 2.418301 1_555
Bi4 O32 2.469259 1_555
Bi4 O23 2.646583 1_555
Bi5 O28 2.280005 1_455
Bi5 O20 2.303015 1_555
Bi5 O12 2.381693 1_555
Bi5 O30 2.418301 1_555
Bi5 O33 2.469259 1_555
Bi5 O22 2.646583 1_555
Bi6 O31 2.280005 1_455
Bi6 O23 2.303015 1_454
Bi6 O15 2.381693 1_454
Bi6 O29 2.418301 1_555
Bi6 O34 2.469259 1_455
Bi6 O21 2.646583 1_564
Bi7 O30 2.280005 1_545
Bi7 O22 2.303015 1_546
Bi7 O14 2.381693 1_546
Bi7 O28 2.418301 1_555
Bi7 O35 2.469259 1_545
Bi7 O20 2.646583 1_656
O0 Ti6 1.952177 1_455
O0 Ti4 1.983402 1_555
O1 Ti7 1.952177 1_545
O1 Ti4 1.983402 1_555
O2 Ti8 1.952177 1_555
O2 Ti5 1.983402 1_555
O3 Ti9 1.952177 1_555
O3 Ti5 1.983402 1_556
O4 Ti5 1.862889 1_555
O4 Ti4 2.084857 1_555
O5 Ti5 1.862889 1_556
O5 Ti4 2.084857 1_555
O6 Ti4 1.862889 1_665
O6 Ti5 2.084857 1_555
O7 Ti4 1.862889 1_665
O7 Ti5 2.084857 1_556
O8 Ti9 1.844552 1_554
O8 Ti7 2.151185 1_545
O9 Ti8 1.844552 1_556
O9 Ti6 2.151185 1_455
O10 Ti7 1.844552 1_655
O10 Ti9 2.151185 1_554
O11 Ti6 1.844552 1_565
O11 Ti8 2.151185 1_556
O12 Ti8 1.882265 1_555
O12 Ti6 2.158248 1_455
O13 Ti9 1.882265 1_555
O13 Ti7 2.158248 1_545
O14 Ti6 1.882265 1_565
O14 Ti8 2.158248 1_555
O15 Ti7 1.882265 1_655
O15 Ti9 2.158248 1_555
O16 Ti0 1.777765 1_555
O17 Ti1 1.777765 1_555
O18 Ti2 1.777765 1_555
O19 Ti3 1.777765 1_555
O20 Ti2 1.965345 1_555
O20 Ti0 2.083353 1_455
O21 Ti3 1.965345 1_555
O21 Ti1 2.083353 1_545
O22 Ti0 1.965345 1_565
O22 Ti2 2.083353 1_555
O23 Ti1 1.965345 1_655
O23 Ti3 2.083353 1_555
O28 Ti6 1.998082 1_555
O28 Ti0 2.470850 1_555
O29 Ti7 1.998082 1_555
O29 Ti1 2.470850 1_555
O30 Ti8 1.998082 1_556
O30 Ti2 2.470850 1_556
O31 Ti9 1.998082 1_554
O31 Ti3 2.470850 1_554
O32 Ti3 1.909545 1_554
O32 Ti1 2.023329 1_545
O33 Ti2 1.909545 1_556
O33 Ti0 2.023329 1_455
O34 Ti1 1.909545 1_655
O34 Ti3 2.023329 1_554
O35 Ti0 1.909545 1_565
O35 Ti2 2.023329 1_556
