# generated using pymatgen
data_Rb2Mo(SO)2
_symmetry_space_group_name_H-M   'P 1'
_cell_length_a   6.97337910
_cell_length_b   6.97337910
_cell_length_c   10.18994376
_cell_angle_alpha   64.14887550
_cell_angle_beta   64.14887550
_cell_angle_gamma   64.62460412
_symmetry_Int_Tables_number   1
_chemical_formula_structural   Rb2Mo(SO)2
_chemical_formula_sum   'Rb4 Mo2 S4 O4'
_cell_volume   383.52207817
_cell_formula_units_Z   2
loop_
 _symmetry_equiv_pos_site_id
 _symmetry_equiv_pos_as_xyz
  1  'x, y, z'
loop_
 _atom_site_type_symbol
 _atom_site_label
 _atom_site_symmetry_multiplicity
 _atom_site_fract_x
 _atom_site_fract_y
 _atom_site_fract_z
 _atom_site_occupancy
  Rb  Rb0  1  0.76486800  0.65617900  0.66503000  1
  Rb  Rb1  1  0.34382100  0.23513200  0.83497000  1
  Rb  Rb2  1  0.23513200  0.34382100  0.33497000  1
  Rb  Rb3  1  0.65617900  0.76486800  0.16503000  1
  Mo  Mo0  1  0.07825200  0.92174800  0.75000000  1
  Mo  Mo1  1  0.92174800  0.07825200  0.25000000  1
  S  S0  1  0.24009200  0.73011200  0.93578800  1
  S  S1  1  0.26988800  0.75990800  0.56421200  1
  S  S2  1  0.75990800  0.26988800  0.06421200  1
  S  S3  1  0.73011200  0.24009200  0.43578800  1
  O  O0  1  0.08910300  0.20191000  0.67379200  1
  O  O1  1  0.79809000  0.91089700  0.82620800  1
  O  O2  1  0.91089700  0.79809000  0.32620800  1
  O  O3  1  0.20191000  0.08910300  0.17379200  1
loop_
_geom_bond_atom_site_label_1
_geom_bond_atom_site_label_2
_geom_bond_distance
_geom_bond_site_symmetry_2
Rb0 S0 3.476804 1_555
Rb0 S1 3.515848 1_655
Rb0 S3 3.667212 1_565
Rb0 S1 3.714448 1_555
Rb0 S2 3.768943 1_556
Rb1 S1 3.476804 1_555
Rb1 S0 3.515848 1_545
Rb1 S2 3.667212 1_456
Rb1 S0 3.714448 1_555
Rb1 S3 3.768943 1_555
Rb2 S2 3.476804 1_555
Rb2 S3 3.515848 1_455
Rb2 S1 3.667212 1_545
Rb2 S3 3.714448 1_555
Rb2 S0 3.768943 1_554
Rb3 S3 3.476804 1_555
Rb3 S2 3.515848 1_565
Rb3 S0 3.667212 1_654
Rb3 S2 3.714448 1_555
Rb3 S1 3.768943 1_555
Mo0 O0 1.782702 1_565
Mo0 O1 1.782702 1_455
Mo0 S1 2.237838 1_555
Mo0 S0 2.237838 1_555
Mo1 O3 1.782702 1_655
Mo1 O2 1.782702 1_545
Mo1 S3 2.237838 1_555
Mo1 S2 2.237838 1_555
O0 Rb2 2.958831 1_555
O0 Rb0 2.990916 1_455
O0 Rb1 3.022379 1_555
O1 Rb3 2.958831 1_556
O1 Rb1 2.990916 1_565
O1 Rb0 3.022379 1_555
O2 Rb0 2.958831 1_555
O2 Rb2 2.990916 1_655
O2 Rb3 3.022379 1_555
O3 Rb1 2.958831 1_554
O3 Rb3 2.990916 1_545
O3 Rb2 3.022379 1_555
