# generated using pymatgen
data_B10H12C3O2
_symmetry_space_group_name_H-M   'P 1'
_cell_length_a   7.36667800
_cell_length_b   12.73683500
_cell_length_c   13.14176127
_cell_angle_alpha   90.00000000
_cell_angle_beta   99.81577506
_cell_angle_gamma   90.00000000
_symmetry_Int_Tables_number   1
_chemical_formula_structural   B10H12C3O2
_chemical_formula_sum   'B40 H48 C12 O8'
_cell_volume   1215.01643300
_cell_formula_units_Z   4
loop_
 _symmetry_equiv_pos_site_id
 _symmetry_equiv_pos_as_xyz
  1  'x, y, z'
loop_
 _atom_site_type_symbol
 _atom_site_label
 _atom_site_symmetry_multiplicity
 _atom_site_fract_x
 _atom_site_fract_y
 _atom_site_fract_z
 _atom_site_occupancy
  B  B0  1  0.37305300  0.45624400  0.81738200  1
  B  B1  1  0.62694700  0.95624400  0.68261800  1
  B  B2  1  0.62694700  0.54375600  0.18261800  1
  B  B3  1  0.37305300  0.04375600  0.31738200  1
  B  B4  1  0.40109600  0.32018500  0.79141200  1
  B  B5  1  0.59890400  0.82018500  0.70858800  1
  B  B6  1  0.59890400  0.67981500  0.20858800  1
  B  B7  1  0.40109600  0.17981500  0.29141200  1
  B  B8  1  0.21104700  0.27872200  0.69749500  1
  B  B9  1  0.78895300  0.77872200  0.80250500  1
  B  B10  1  0.78895300  0.72127800  0.30250500  1
  B  B11  1  0.21104700  0.22127800  0.19749500  1
  B  B12  1  0.06175400  0.38843600  0.66379400  1
  B  B13  1  0.93824600  0.88843600  0.83620600  1
  B  B14  1  0.93824600  0.61156400  0.33620600  1
  B  B15  1  0.06175400  0.11156400  0.16379400  1
  B  B16  1  0.16783800  0.47051200  0.87000700  1
  B  B17  1  0.83216200  0.97051200  0.62999300  1
  B  B18  1  0.83216200  0.52948800  0.12999300  1
  B  B19  1  0.16783800  0.02948800  0.37000700  1
  B  B20  1  0.31540000  0.36078000  0.90365000  1
  B  B21  1  0.68460000  0.86078000  0.59635000  1
  B  B22  1  0.68460000  0.63922000  0.09635000  1
  B  B23  1  0.31540000  0.13922000  0.40365000  1
  B  B24  1  0.21483200  0.25135700  0.83017000  1
  B  B25  1  0.78516800  0.75135700  0.66983000  1
  B  B26  1  0.78516800  0.74864300  0.16983000  1
  B  B27  1  0.21483200  0.24864300  0.33017000  1
  B  B28  1  0.00673800  0.29360500  0.75105400  1
  B  B29  1  0.99326200  0.79360500  0.74894600  1
  B  B30  1  0.99326200  0.70639500  0.24894600  1
  B  B31  1  0.00673800  0.20639500  0.25105400  1
  B  B32  1  0.97834400  0.42920700  0.77642700  1
  B  B33  1  0.02165600  0.92920700  0.72357300  1
  B  B34  1  0.02165600  0.57079300  0.22357300  1
  B  B35  1  0.97834400  0.07079300  0.27642700  1
  B  B36  1  0.07104300  0.34387000  0.87888300  1
  B  B37  1  0.92895700  0.84387000  0.62111700  1
  B  B38  1  0.92895700  0.65613000  0.12111700  1
  B  B39  1  0.07104300  0.15613000  0.37888300  1
  H  H0  1  0.15840400  0.56483800  0.70678600  1
  H  H1  1  0.84159600  0.06483800  0.79321400  1
  H  H2  1  0.84159600  0.43516200  0.29321400  1
  H  H3  1  0.15840400  0.93516200  0.20678600  1
  H  H4  1  0.49320100  0.51929100  0.82540400  1
  H  H5  1  0.50679900  0.01929100  0.67459600  1
  H  H6  1  0.50679900  0.48070900  0.17459600  1
  H  H7  1  0.49320100  0.98070900  0.32540400  1
  H  H8  1  0.55194800  0.28947900  0.78769100  1
  H  H9  1  0.44805200  0.78947900  0.71230900  1
  H  H10  1  0.44805200  0.71052100  0.21230900  1
  H  H11  1  0.55194800  0.21052100  0.28769100  1
  H  H12  1  0.23442100  0.22032300  0.63064700  1
  H  H13  1  0.76557900  0.72032300  0.86935300  1
  H  H14  1  0.76557900  0.77967700  0.36935300  1
  H  H15  1  0.23442100  0.27967700  0.13064700  1
  H  H16  1  0.99232000  0.41017000  0.57815700  1
  H  H17  1  0.00768000  0.91017000  0.92184300  1
  H  H18  1  0.00768000  0.58983000  0.42184300  1
  H  H19  1  0.99232000  0.08983000  0.07815700  1
  H  H20  1  0.15400700  0.54626500  0.92081100  1
  H  H21  1  0.84599300  0.04626600  0.57918900  1
  H  H22  1  0.84599300  0.45373500  0.07918900  1
  H  H23  1  0.15400700  0.95373500  0.42081100  1
  H  H24  1  0.40749500  0.35269500  0.98697300  1
  H  H25  1  0.59250500  0.85269500  0.51302700  1
  H  H26  1  0.59250500  0.64730500  0.01302700  1
  H  H27  1  0.40749500  0.14730500  0.48697300  1
  H  H28  1  0.23424000  0.16356200  0.86165700  1
  H  H29  1  0.76576000  0.66356200  0.63834300  1
  H  H30  1  0.76576000  0.83643800  0.13834300  1
  H  H31  1  0.23424000  0.33643800  0.36165700  1
  H  H32  1  0.87672500  0.23827500  0.72500500  1
  H  H33  1  0.12327500  0.73827500  0.77499500  1
  H  H34  1  0.12327500  0.76172500  0.27499500  1
  H  H35  1  0.87672500  0.26172500  0.22500500  1
  H  H36  1  0.83815200  0.47733800  0.76494500  1
  H  H37  1  0.16184800  0.97733800  0.73505500  1
  H  H38  1  0.16184800  0.52266200  0.23505500  1
  H  H39  1  0.83815200  0.02266200  0.26494500  1
  H  H40  1  0.98560400  0.32367200  0.94556400  1
  H  H41  1  0.01439600  0.82367200  0.55443600  1
  H  H42  1  0.01439600  0.67632800  0.05443600  1
  H  H43  1  0.98560400  0.17632800  0.44556400  1
  H  H44  1  0.55854600  0.40976900  0.51932300  1
  H  H45  1  0.44145400  0.90976900  0.98067700  1
  H  H46  1  0.44145400  0.59023100  0.48067700  1
  H  H47  1  0.55854600  0.09023100  0.01932300  1
  C  C0  1  0.29808700  0.40312300  0.69645400  1
  C  C1  1  0.70191300  0.90312300  0.80354600  1
  C  C2  1  0.70191300  0.59687700  0.30354600  1
  C  C3  1  0.29808700  0.09687700  0.19645400  1
  C  C4  1  0.16515900  0.48735600  0.74208800  1
  C  C5  1  0.83484100  0.98735600  0.75791200  1
  C  C6  1  0.83484100  0.51264400  0.25791200  1
  C  C7  1  0.16515900  0.01264400  0.24208800  1
  C  C8  1  0.39119000  0.44506400  0.61012900  1
  C  C9  1  0.60881000  0.94506400  0.88987100  1
  C  C10  1  0.60881000  0.55493600  0.38987100  1
  C  C11  1  0.39119000  0.05493600  0.11012900  1
  O  O0  1  0.50442500  0.37761900  0.57871400  1
  O  O1  1  0.49557500  0.87761900  0.92128600  1
  O  O2  1  0.49557500  0.62238100  0.42128600  1
  O  O3  1  0.50442500  0.12238100  0.07871400  1
  O  O4  1  0.35707900  0.53466600  0.57550700  1
  O  O5  1  0.64292100  0.03466600  0.92449300  1
  O  O6  1  0.64292100  0.46533400  0.42449300  1
  O  O7  1  0.35707900  0.96533400  0.07550700  1
loop_
_geom_bond_atom_site_label_1
_geom_bond_atom_site_label_2
_geom_bond_distance
_geom_bond_site_symmetry_2
B0 H4 1.186392 1_555
B0 C4 1.721886 1_555
B0 C0 1.728900 1_555
B1 H5 1.186392 1_565
B1 C5 1.721886 1_555
B1 C1 1.728900 1_555
B2 H6 1.186392 1_555
B2 C6 1.721886 1_555
B2 C2 1.728900 1_555
B3 H7 1.186392 1_545
B3 C7 1.721886 1_555
B3 C3 1.728900 1_555
B4 H8 1.186936 1_555
B4 C0 1.710601 1_555
B5 H9 1.186936 1_555
B5 C1 1.710601 1_555
B6 H10 1.186936 1_555
B6 C2 1.710601 1_555
B7 H11 1.186936 1_555
B7 C3 1.710601 1_555
B8 H12 1.185856 1_555
B8 C0 1.710225 1_555
B9 H13 1.185856 1_555
B9 C1 1.710225 1_555
B10 H14 1.185856 1_555
B10 C2 1.710225 1_555
B11 H15 1.185856 1_555
B11 C3 1.710225 1_555
B12 H16 1.186827 1_455
B12 C4 1.720210 1_555
B12 C0 1.730744 1_555
B13 H17 1.186827 1_655
B13 C5 1.720210 1_555
B13 C1 1.730744 1_555
B14 H18 1.186827 1_655
B14 C6 1.720210 1_555
B14 C2 1.730744 1_555
B15 H19 1.186827 1_455
B15 C7 1.720210 1_555
B15 C3 1.730744 1_555
B16 H20 1.187552 1_555
B16 C4 1.691490 1_555
B17 H21 1.187562 1_565
B17 C5 1.691490 1_555
B18 H22 1.187552 1_555
B18 C6 1.691490 1_555
B19 H23 1.187552 1_545
B19 C7 1.691490 1_555
B20 H24 1.190222 1_555
B21 H25 1.190222 1_555
B22 H26 1.190222 1_555
B23 H27 1.190222 1_555
B24 H28 1.192449 1_555
B25 H29 1.192449 1_555
B26 H30 1.192449 1_555
B27 H31 1.192449 1_555
B28 H32 1.191366 1_455
B29 H33 1.191366 1_655
B30 H34 1.191366 1_655
B31 H35 1.191366 1_455
B32 H36 1.188285 1_555
B32 C4 1.690528 1_655
B33 H37 1.188285 1_555
B33 C5 1.690528 1_455
B34 H38 1.188285 1_555
B34 C6 1.690528 1_455
B35 H39 1.188285 1_555
B35 C7 1.690528 1_655
B36 H40 1.190923 1_455
B37 H41 1.190923 1_655
B38 H42 1.190923 1_655
B39 H43 1.190923 1_455
H44 O0 1.020745 1_555
H44 O6 1.644513 1_555
H45 O1 1.020745 1_555
H45 O7 1.644513 1_556
H46 O2 1.020745 1_555
H46 O4 1.644513 1_555
H47 O3 1.020745 1_555
H47 O5 1.644513 1_554
C0 C8 1.519233 1_555
C0 C4 1.633960 1_555
C1 C9 1.519233 1_555
C1 C5 1.633960 1_555
C2 C6 1.633960 1_555
C3 C7 1.633960 1_555
C4 H0 1.088007 1_555
C5 H1 1.088007 1_565
C6 H2 1.088007 1_555
C7 H3 1.088007 1_545
C8 O4 1.238395 1_555
C8 O0 1.312113 1_555
C9 O5 1.238395 1_565
C9 O1 1.312113 1_555
C10 O6 1.238395 1_555
C10 O2 1.312113 1_555
C10 C2 1.519233 1_555
C11 O7 1.238395 1_545
C11 O3 1.312113 1_555
C11 C3 1.519233 1_555
