# generated using pymatgen
data_Li4MnCo2O7
_symmetry_space_group_name_H-M   'P 1'
_cell_length_a   16.98880516
_cell_length_b   16.98880516
_cell_length_c   5.17737885
_cell_angle_alpha   86.59881744
_cell_angle_beta   86.59881744
_cell_angle_gamma   9.75251387
_symmetry_Int_Tables_number   1
_chemical_formula_structural   Li4MnCo2O7
_chemical_formula_sum   'Li8 Mn2 Co4 O14'
_cell_volume   252.67321211
_cell_formula_units_Z   2
loop_
 _symmetry_equiv_pos_site_id
 _symmetry_equiv_pos_as_xyz
  1  'x, y, z'
loop_
 _atom_site_type_symbol
 _atom_site_label
 _atom_site_symmetry_multiplicity
 _atom_site_fract_x
 _atom_site_fract_y
 _atom_site_fract_z
 _atom_site_occupancy
  Li  Li0  1  0.49727000  0.49727000  0.50373600  1
  Li  Li1  1  0.07029800  0.07029800  0.63523000  1
  Li  Li2  1  0.64316500  0.64316500  0.78399100  1
  Li  Li3  1  0.21370100  0.21370100  0.93080000  1
  Li  Li4  1  0.78727600  0.78727600  0.07343200  1
  Li  Li5  1  0.92760100  0.92760100  0.36651900  1
  Li  Li6  1  0.36043400  0.36043400  0.21835100  1
  Li  Li7  1  0.42870700  0.42870700  0.85103600  1
  Mn  Mn0  1  0.99683300  0.99683300  0.98854300  1
  Mn  Mn1  1  0.14300000  0.14300000  0.28571800  1
  Co  Co0  1  0.57045800  0.57045800  0.12814000  1
  Co  Co1  1  0.71553400  0.71553400  0.44010300  1
  Co  Co2  1  0.28672800  0.28672800  0.57573000  1
  Co  Co3  1  0.86183700  0.86183700  0.73355900  1
  O  O0  1  0.46779800  0.46779800  0.15958800  1
  O  O1  1  0.03581900  0.03581900  0.28877500  1
  O  O2  1  0.60893100  0.60893100  0.43446300  1
  O  O3  1  0.18204100  0.18204100  0.61186600  1
  O  O4  1  0.75527100  0.75527100  0.72987600  1
  O  O5  1  0.88811500  0.88811500  0.02113400  1
  O  O6  1  0.32021800  0.32021800  0.85117400  1
  O  O7  1  0.53148700  0.53148700  0.84006100  1
  O  O8  1  0.10406700  0.10406700  0.95704900  1
  O  O9  1  0.67736200  0.67736200  0.13383400  1
  O  O10  1  0.25238200  0.25238200  0.28415700  1
  O  O11  1  0.81710400  0.81710400  0.42641900  1
  O  O12  1  0.96696400  0.96696400  0.70520300  1
  O  O13  1  0.38959900  0.38959900  0.54151500  1
loop_
_geom_bond_atom_site_label_1
_geom_bond_atom_site_label_2
_geom_bond_distance
_geom_bond_site_symmetry_2
Li0 O12 2.024525 1_545
Li0 O12 2.024525 1_455
Li0 O0 2.093322 1_555
Li0 O7 2.148062 1_555
Li0 O1 2.203252 1_565
Li0 O1 2.203252 1_655
Li1 O8 2.076049 1_555
Li1 O2 2.171324 1_545
Li1 O2 2.171324 1_455
Li1 O7 2.184168 1_455
Li1 O7 2.184168 1_545
Li1 O1 2.197573 1_555
Li2 O3 2.114750 1_655
Li2 O3 2.114750 1_565
Li2 O8 2.121103 1_565
Li2 O8 2.121103 1_655
Li2 O2 2.206306 1_555
Li2 O9 2.206977 1_556
Li3 O3 2.021435 1_555
Li3 O9 2.133063 1_456
Li3 O9 2.133063 1_546
Li3 O4 2.230218 1_545
Li3 O4 2.230218 1_455
Li3 O10 2.312380 1_556
Li4 O6 2.121450 1_654
Li4 O6 2.121450 1_564
Li4 O10 2.125513 1_655
Li4 O10 2.125513 1_565
Li4 O4 2.137139 1_554
Li4 O11 2.139960 1_555
Li5 O13 2.103029 1_655
Li5 O13 2.103029 1_565
Li5 O0 2.216211 1_565
Li5 O0 2.216211 1_655
Li5 O12 2.264706 1_555
Li5 O5 2.295490 1_555
Li6 O5 1.972895 1_545
Li6 O5 1.972895 1_455
Li6 O13 1.992746 1_555
Li6 O11 2.282457 1_455
Li6 O11 2.282457 1_545
Li6 O6 2.403279 1_554
Li7 O12 2.053431 1_455
Li7 O12 2.053431 1_545
Li7 O0 2.134281 1_556
Li7 O13 2.138606 1_555
Li7 O5 2.146024 1_456
Li7 O5 2.146024 1_546
Mn0 O12 1.830615 1_555
Mn0 O0 1.931907 1_656
Mn0 O0 1.931907 1_566
Mn0 O7 1.986313 1_655
Mn0 O7 1.986313 1_565
Mn0 O1 2.098224 1_666
Mn1 O2 1.975622 1_545
Mn1 O2 1.975622 1_455
Mn1 O9 1.987007 1_455
Mn1 O9 1.987007 1_545
Mn1 O3 2.205462 1_555
Mn1 O8 2.213588 1_554
Co0 O1 2.009031 1_565
Co0 O1 2.009031 1_655
Co0 O8 2.011152 1_654
Co0 O8 2.011152 1_564
Co0 O7 2.049286 1_554
Co0 O2 2.111329 1_555
Co1 O3 2.010455 1_565
Co1 O3 2.010455 1_655
Co1 O10 2.042941 1_565
Co1 O10 2.042941 1_655
Co1 O4 2.073867 1_555
Co1 O9 2.104379 1_555
Co2 O6 1.873960 1_555
Co2 O11 1.909434 1_455
Co2 O11 1.909434 1_545
Co2 O4 1.937868 1_455
Co2 O4 1.937868 1_545
Co2 O10 1.959569 1_555
Co3 O5 1.779314 1_556
Co3 O13 1.961161 1_565
Co3 O13 1.961161 1_655
Co3 O6 2.083117 1_655
Co3 O6 2.083117 1_565
Co3 O11 2.260292 1_555
