# generated using pymatgen
data_Zr3Ni
_symmetry_space_group_name_H-M   'P 1'
_cell_length_a   6.06441883
_cell_length_b   6.06441883
_cell_length_c   4.89629500
_cell_angle_alpha   90.00000000
_cell_angle_beta   90.00000000
_cell_angle_gamma   120.00000900
_symmetry_Int_Tables_number   1
_chemical_formula_structural   Zr3Ni
_chemical_formula_sum   'Zr6 Ni2'
_cell_volume   155.94682700
_cell_formula_units_Z   2
loop_
 _symmetry_equiv_pos_site_id
 _symmetry_equiv_pos_as_xyz
  1  'x, y, z'
loop_
 _atom_site_type_symbol
 _atom_site_label
 _atom_site_symmetry_multiplicity
 _atom_site_fract_x
 _atom_site_fract_y
 _atom_site_fract_z
 _atom_site_occupancy
  Zr  Zr0  1  0.82565300  0.65130500  0.75000000  1
  Zr  Zr1  1  0.17434700  0.82565300  0.25000000  1
  Zr  Zr2  1  0.65130500  0.82565300  0.25000000  1
  Zr  Zr3  1  0.17434700  0.34869500  0.25000000  1
  Zr  Zr4  1  0.82565300  0.17434700  0.75000000  1
  Zr  Zr5  1  0.34869500  0.17434700  0.75000000  1
  Ni  Ni0  1  0.66666700  0.33333300  0.25000000  1
  Ni  Ni1  1  0.33333300  0.66666700  0.75000000  1
loop_
_geom_bond_atom_site_label_1
_geom_bond_atom_site_label_2
_geom_bond_distance
_geom_bond_site_symmetry_2
Zr0 Zr5 2.892473 1_555
Zr0 Zr4 2.892473 1_555
Zr0 Zr1 3.057312 1_656
Zr0 Zr1 3.057312 1_655
Zr0 Zr2 3.057319 1_556
Zr0 Zr2 3.057319 1_555
Zr0 Zr5 3.171945 1_665
Zr0 Zr4 3.171946 1_565
Zr1 Zr2 2.892473 1_555
Zr1 Zr3 2.892473 1_555
Zr1 Zr5 3.057312 1_565
Zr1 Zr5 3.057312 1_564
Zr1 Zr3 3.171946 1_565
Zr1 Zr2 3.171946 1_455
Zr2 Zr3 2.892473 1_555
Zr2 Zr4 3.057312 1_564
Zr2 Zr4 3.057312 1_565
Zr2 Zr3 3.171945 1_665
Zr3 Zr4 3.057312 1_454
Zr3 Zr4 3.057312 1_455
Zr3 Zr5 3.057319 1_555
Zr3 Zr5 3.057319 1_554
Zr4 Zr5 2.892473 1_555
Zr4 Zr5 3.171946 1_655
Ni0 Zr5 2.963482 1_555
Ni0 Zr5 2.963482 1_554
Ni0 Zr0 2.963482 1_555
Ni0 Zr0 2.963482 1_554
Ni0 Zr4 2.963482 1_555
Ni0 Zr4 2.963482 1_554
Ni0 Zr3 3.033277 1_655
Ni0 Zr2 3.033277 1_545
Ni0 Zr1 3.033282 1_655
Ni0 Zr1 3.033282 1_545
Ni0 Zr3 3.033289 1_555
Ni0 Zr2 3.033289 1_555
Ni1 Zr2 2.963482 1_556
Ni1 Zr3 2.963482 1_555
Ni1 Zr3 2.963482 1_556
Ni1 Zr2 2.963482 1_555
Ni1 Zr1 2.963482 1_555
Ni1 Zr1 2.963482 1_556
Ni1 Zr5 3.033277 1_565
Ni1 Zr0 3.033277 1_455
Ni1 Zr4 3.033282 1_565
Ni1 Zr4 3.033282 1_455
Ni1 Zr5 3.033289 1_555
Ni1 Zr0 3.033289 1_555
