# generated using pymatgen
data_ZnRe
_symmetry_space_group_name_H-M   'P 1'
_cell_length_a   5.49643669
_cell_length_b   5.49643669
_cell_length_c   8.98813200
_cell_angle_alpha   90.00000000
_cell_angle_beta   90.00000000
_cell_angle_gamma   120.00000827
_symmetry_Int_Tables_number   1
_chemical_formula_structural   ZnRe
_chemical_formula_sum   'Zn8 Re8'
_cell_volume   235.15948308
_cell_formula_units_Z   8
loop_
 _symmetry_equiv_pos_site_id
 _symmetry_equiv_pos_as_xyz
  1  'x, y, z'
loop_
 _atom_site_type_symbol
 _atom_site_label
 _atom_site_symmetry_multiplicity
 _atom_site_fract_x
 _atom_site_fract_y
 _atom_site_fract_z
 _atom_site_occupancy
  Zn  Zn0_0  1  0.00000000  0.00000000  0.00000000  1
  Zn  Zn0_1  1  0.00000000  0.00000000  0.50000000  1
  Zn  Zn0_2  1  0.00000000  0.50000000  0.00000000  1
  Zn  Zn0_3  1  0.00000000  0.50000000  0.50000000  1
  Zn  Zn0_4  1  0.50000000  0.00000000  0.00000000  1
  Zn  Zn0_5  1  0.50000000  0.00000000  0.50000000  1
  Zn  Zn0_6  1  0.50000000  0.50000000  0.00000000  1
  Zn  Zn0_7  1  0.50000000  0.50000000  0.50000000  1
  Re  Re0_0  1  0.16666650  0.33333350  0.25000000  1
  Re  Re0_1  1  0.16666650  0.33333350  0.75000000  1
  Re  Re0_2  1  0.16666650  0.83333350  0.25000000  1
  Re  Re0_3  1  0.16666650  0.83333350  0.75000000  1
  Re  Re0_4  1  0.66666650  0.33333350  0.25000000  1
  Re  Re0_5  1  0.66666650  0.33333350  0.75000000  1
  Re  Re0_6  1  0.66666650  0.83333350  0.25000000  1
  Re  Re0_7  1  0.66666650  0.83333350  0.75000000  1
loop_
_geom_bond_atom_site_label_1
_geom_bond_atom_site_label_2
_geom_bond_distance
_geom_bond_site_symmetry_2
Zn0_0 Zn0_6 2.748218 1_445
Zn0_0 Zn0_6 2.748218 1_555
Zn0_0 Zn0_4 2.748218 1_555
Zn0_0 Zn0_2 2.748218 1_555
Zn0_0 Zn0_4 2.748218 1_455
Zn0_0 Zn0_2 2.748218 1_545
Zn0_1 Zn0_7 2.748218 1_445
Zn0_1 Zn0_7 2.748218 1_555
Zn0_1 Zn0_5 2.748218 1_555
Zn0_1 Zn0_3 2.748218 1_555
Zn0_1 Zn0_3 2.748218 1_545
Zn0_1 Zn0_5 2.748218 1_455
Zn0_2 Zn0_4 2.748218 1_565
Zn0_2 Zn0_4 2.748218 1_455
Zn0_2 Zn0_6 2.748218 1_555
Zn0_2 Zn0_6 2.748218 1_455
Zn0_3 Zn0_5 2.748218 1_565
Zn0_3 Zn0_5 2.748218 1_455
Zn0_3 Zn0_7 2.748218 1_555
Zn0_3 Zn0_7 2.748218 1_455
Zn0_4 Zn0_6 2.748218 1_555
Zn0_4 Zn0_6 2.748218 1_545
Zn0_5 Zn0_7 2.748218 1_555
Zn0_5 Zn0_7 2.748218 1_545
Re0_0 Re0_6 2.748218 1_445
Re0_0 Re0_6 2.748218 1_555
Re0_0 Re0_2 2.748218 1_555
Re0_0 Re0_4 2.748218 1_455
Re0_0 Re0_4 2.748218 1_555
Re0_0 Re0_2 2.748218 1_545
Re0_0 Zn0_2 2.750767 1_555
Re0_0 Zn0_3 2.750767 1_555
Re0_0 Zn0_0 2.750769 1_555
Re0_0 Zn0_6 2.750769 1_555
Re0_0 Zn0_1 2.750769 1_555
Re0_0 Zn0_7 2.750769 1_555
Re0_1 Re0_7 2.748218 1_445
Re0_1 Re0_7 2.748218 1_555
Re0_1 Re0_3 2.748218 1_555
Re0_1 Re0_5 2.748218 1_455
Re0_1 Re0_5 2.748218 1_555
Re0_1 Re0_3 2.748218 1_545
Re0_1 Zn0_2 2.750767 1_556
Re0_1 Zn0_3 2.750767 1_555
Re0_1 Zn0_0 2.750769 1_556
Re0_1 Zn0_6 2.750769 1_556
Re0_1 Zn0_1 2.750769 1_555
Re0_1 Zn0_7 2.750769 1_555
Re0_2 Re0_4 2.748218 1_565
Re0_2 Re0_4 2.748218 1_455
Re0_2 Re0_6 2.748218 1_455
Re0_2 Re0_6 2.748218 1_555
Re0_2 Zn0_1 2.750767 1_565
Re0_2 Zn0_0 2.750767 1_565
Re0_2 Zn0_5 2.750769 1_565
Re0_2 Zn0_4 2.750769 1_565
Re0_2 Zn0_3 2.750769 1_555
Re0_2 Zn0_2 2.750769 1_555
Re0_3 Re0_5 2.748218 1_565
Re0_3 Re0_5 2.748218 1_455
Re0_3 Re0_7 2.748218 1_455
Re0_3 Re0_7 2.748218 1_555
Re0_3 Zn0_1 2.750767 1_565
Re0_3 Zn0_0 2.750767 1_566
Re0_3 Zn0_4 2.750769 1_566
Re0_3 Zn0_5 2.750769 1_565
Re0_3 Zn0_2 2.750769 1_556
Re0_3 Zn0_3 2.750769 1_555
Re0_4 Re0_6 2.748218 1_555
Re0_4 Re0_6 2.748218 1_545
Re0_4 Zn0_7 2.750767 1_555
Re0_4 Zn0_6 2.750767 1_555
Re0_4 Zn0_4 2.750769 1_555
Re0_4 Zn0_5 2.750769 1_555
Re0_4 Zn0_3 2.750769 1_655
Re0_4 Zn0_2 2.750769 1_655
Re0_5 Re0_7 2.748218 1_555
Re0_5 Re0_7 2.748218 1_545
Re0_5 Zn0_7 2.750767 1_555
Re0_5 Zn0_6 2.750767 1_556
Re0_5 Zn0_5 2.750769 1_555
Re0_5 Zn0_4 2.750769 1_556
Re0_5 Zn0_3 2.750769 1_655
Re0_5 Zn0_2 2.750769 1_656
Re0_6 Zn0_5 2.750767 1_565
Re0_6 Zn0_4 2.750767 1_565
Re0_6 Zn0_1 2.750769 1_665
Re0_6 Zn0_0 2.750769 1_665
Re0_6 Zn0_6 2.750769 1_555
Re0_6 Zn0_7 2.750769 1_555
Re0_7 Zn0_4 2.750767 1_566
Re0_7 Zn0_5 2.750767 1_565
Re0_7 Zn0_1 2.750769 1_665
Re0_7 Zn0_0 2.750769 1_666
Re0_7 Zn0_6 2.750769 1_556
Re0_7 Zn0_7 2.750769 1_555
