# generated using pymatgen
data_CeCuNi
_symmetry_space_group_name_H-M   'P 1'
_cell_length_a   4.12877400
_cell_length_b   5.04453420
_cell_length_c   5.91483311
_cell_angle_alpha   91.29528855
_cell_angle_beta   110.42730243
_cell_angle_gamma   65.84337348
_symmetry_Int_Tables_number   1
_chemical_formula_structural   CeCuNi
_chemical_formula_sum   'Ce2 Cu2 Ni2'
_cell_volume   104.28974798
_cell_formula_units_Z   2
loop_
 _symmetry_equiv_pos_site_id
 _symmetry_equiv_pos_as_xyz
  1  'x, y, z'
loop_
 _atom_site_type_symbol
 _atom_site_label
 _atom_site_symmetry_multiplicity
 _atom_site_fract_x
 _atom_site_fract_y
 _atom_site_fract_z
 _atom_site_occupancy
  Ce  Ce0  1  0.75521700  0.68833200  0.19876600  1
  Ce  Ce1  1  0.24478300  0.31166800  0.80123400  1
  Cu  Cu0  1  0.59271100  0.23605900  0.42148100  1
  Cu  Cu1  1  0.40728900  0.76394100  0.57851900  1
  Ni  Ni0  1  0.02917000  0.12709600  0.18543700  1
  Ni  Ni1  1  0.97083000  0.87290400  0.81456300  1
loop_
_geom_bond_atom_site_label_1
_geom_bond_atom_site_label_2
_geom_bond_distance
_geom_bond_site_symmetry_2
Ce0 Ni0 2.594668 1_655
Ce0 Ni0 2.881616 1_665
Ce0 Ni0 2.881619 1_565
Ce0 Cu0 2.958873 1_565
Ce0 Ni1 3.001635 1_454
Ce0 Ni1 3.001638 1_554
Ce0 Cu1 3.003251 1_655
Ce0 Cu1 3.003251 1_555
Ce0 Cu0 3.065374 1_655
Ce0 Cu0 3.065374 1_555
Ce0 Cu1 3.406495 1_554
Ce1 Ni1 2.594668 1_455
Ce1 Ni1 2.881616 1_445
Ce1 Ni1 2.881619 1_545
Ce1 Cu1 2.958873 1_545
Ce1 Ni0 3.001635 1_656
Ce1 Ni0 3.001638 1_556
Ce1 Cu0 3.003251 1_555
Ce1 Cu0 3.003251 1_455
Ce1 Cu1 3.065374 1_455
Ce1 Cu1 3.065374 1_555
Ce1 Cu0 3.406495 1_556
Cu0 Ni0 2.531712 1_655
Cu0 Ni0 2.531715 1_555
Cu0 Ni1 2.552851 1_545
Cu0 Cu1 2.693694 1_555
Cu0 Cu1 3.034737 1_545
Cu0 Cu1 3.034737 1_645
Cu1 Ni1 2.531712 1_455
Cu1 Ni1 2.531715 1_555
Cu1 Ni0 2.552851 1_565
Ni0 Ni1 2.504233 1_444
