# generated using pymatgen
data_YAgSb2
_symmetry_space_group_name_H-M   'P 1'
_cell_length_a   4.28924692
_cell_length_b   4.28924692
_cell_length_c   10.71385767
_cell_angle_alpha   90.00000000
_cell_angle_beta   90.00000000
_cell_angle_gamma   90.00000000
_symmetry_Int_Tables_number   1
_chemical_formula_structural   YAgSb2
_chemical_formula_sum   'Y2 Ag2 Sb4'
_cell_volume   197.10968722
_cell_formula_units_Z   2
loop_
 _symmetry_equiv_pos_site_id
 _symmetry_equiv_pos_as_xyz
  1  'x, y, z'
loop_
 _atom_site_type_symbol
 _atom_site_label
 _atom_site_symmetry_multiplicity
 _atom_site_fract_x
 _atom_site_fract_y
 _atom_site_fract_z
 _atom_site_occupancy
  Y  Y0  1  -0.00000000  0.50000000  0.76779883  1
  Y  Y1  1  0.50000000  -0.00000000  0.23220117  1
  Ag  Ag0  1  0.00000000  0.00000000  0.50000000  1
  Ag  Ag1  1  0.50000000  0.50000000  0.50000000  1
  Sb  Sb0  1  0.00000000  0.00000000  -0.00000000  1
  Sb  Sb1  1  0.50000000  0.50000000  -0.00000000  1
  Sb  Sb2  1  -0.00000000  0.50000000  0.32029910  1
  Sb  Sb3  1  0.50000000  -0.00000000  0.67970090  1
loop_
_geom_bond_atom_site_label_1
_geom_bond_atom_site_label_2
_geom_bond_distance
_geom_bond_site_symmetry_2
Ag0 Sb2 2.882039 1_545
Ag0 Sb2 2.882039 1_555
Ag0 Sb3 2.882039 1_455
Ag0 Sb3 2.882039 1_555
Ag0 Ag1 3.032956 1_445
Ag0 Ag1 3.032956 1_455
Ag0 Ag1 3.032956 1_545
Ag0 Ag1 3.032956 1_555
Ag0 Y1 3.582106 1_555
Ag0 Y1 3.582106 1_455
Ag0 Y0 3.582106 1_555
Ag0 Y0 3.582106 1_545
Ag1 Sb2 2.882039 1_655
Ag1 Sb2 2.882039 1_555
Ag1 Sb3 2.882039 1_565
Ag1 Sb3 2.882039 1_555
Ag1 Y1 3.582106 1_565
Ag1 Y1 3.582106 1_555
Ag1 Y0 3.582106 1_655
Ag1 Y0 3.582106 1_555
Sb0 Sb1 3.032956 1_545
Sb0 Sb1 3.032956 1_445
Sb0 Sb1 3.032956 1_455
Sb0 Sb1 3.032956 1_555
Sb0 Y0 3.284572 1_554
Sb0 Y0 3.284572 1_544
Sb0 Y1 3.284572 1_455
Sb0 Y1 3.284572 1_555
Sb1 Y0 3.284572 1_654
Sb1 Y0 3.284572 1_554
Sb1 Y1 3.284572 1_565
Sb1 Y1 3.284572 1_555
Sb2 Y1 3.176430 1_565
Sb2 Y1 3.176430 1_465
Sb2 Y1 3.176430 1_555
Sb2 Y1 3.176430 1_455
Sb3 Y0 3.176430 1_555
Sb3 Y0 3.176430 1_545
Sb3 Y0 3.176430 1_655
Sb3 Y0 3.176430 1_645
