# generated using pymatgen
data_Sr7Cu2HgBiSbO15
_symmetry_space_group_name_H-M   'P 1'
_cell_length_a   7.73915200
_cell_length_b   9.02216600
_cell_length_c   11.78846500
_cell_angle_alpha   90.00000000
_cell_angle_beta   90.00000000
_cell_angle_gamma   90.00000000
_symmetry_Int_Tables_number   1
_chemical_formula_structural   Sr7Cu2HgBiSbO15
_chemical_formula_sum   'Sr14 Cu4 Hg2 Bi2 Sb2 O30'
_cell_volume   823.11676686
_cell_formula_units_Z   2
loop_
 _symmetry_equiv_pos_site_id
 _symmetry_equiv_pos_as_xyz
  1  'x, y, z'
loop_
 _atom_site_type_symbol
 _atom_site_label
 _atom_site_symmetry_multiplicity
 _atom_site_fract_x
 _atom_site_fract_y
 _atom_site_fract_z
 _atom_site_occupancy
  Sr  Sr0  1  0.50000000  0.28989300  0.00000000  1
  Sr  Sr1  1  0.00000000  0.28989300  0.00000000  1
  Sr  Sr2  1  0.50000000  0.71010700  0.00000000  1
  Sr  Sr3  1  0.00000000  0.71010700  0.00000000  1
  Sr  Sr4  1  0.49291700  0.29274600  0.65694400  1
  Sr  Sr5  1  0.50708300  0.29274600  0.34305600  1
  Sr  Sr6  1  0.00708300  0.29274600  0.65694400  1
  Sr  Sr7  1  0.99291700  0.29274600  0.34305600  1
  Sr  Sr8  1  0.50708300  0.70725400  0.34305600  1
  Sr  Sr9  1  0.49291700  0.70725400  0.65694400  1
  Sr  Sr10  1  0.99291700  0.70725400  0.34305600  1
  Sr  Sr11  1  0.00708300  0.70725400  0.65694400  1
  Sr  Sr12  1  0.75000000  0.00000000  0.84083500  1
  Sr  Sr13  1  0.25000000  0.00000000  0.15916500  1
  Cu  Cu0  1  0.25000000  0.50000000  0.82635900  1
  Cu  Cu1  1  0.75000000  0.50000000  0.17364100  1
  Cu  Cu2  1  0.75000000  0.50000000  0.49959700  1
  Cu  Cu3  1  0.25000000  0.50000000  0.50040300  1
  Hg  Hg0  1  0.75000000  0.00000000  0.50200900  1
  Hg  Hg1  1  0.25000000  0.00000000  0.49799100  1
  Bi  Bi0  1  0.25000000  0.00000000  0.82017700  1
  Bi  Bi1  1  0.75000000  0.00000000  0.17982300  1
  Sb  Sb0  1  0.75000000  0.50000000  0.83248300  1
  Sb  Sb1  1  0.25000000  0.50000000  0.16751700  1
  O  O0  1  0.75000000  0.27380700  0.83627800  1
  O  O1  1  0.25000000  0.27380700  0.16372200  1
  O  O2  1  0.25000000  0.72619300  0.16372200  1
  O  O3  1  0.75000000  0.72619300  0.83627800  1
  O  O4  1  0.75000000  0.50000000  0.00104900  1
  O  O5  1  0.25000000  0.50000000  0.99895100  1
  O  O6  1  0.50000000  0.00000000  0.00000000  1
  O  O7  1  0.00000000  0.00000000  0.00000000  1
  O  O8  1  0.75000000  0.22701400  0.50400700  1
  O  O9  1  0.25000000  0.22701400  0.49599300  1
  O  O10  1  0.25000000  0.77298600  0.49599300  1
  O  O11  1  0.75000000  0.77298600  0.50400700  1
  O  O12  1  0.75000000  0.50000000  0.66525200  1
  O  O13  1  0.25000000  0.50000000  0.33474800  1
  O  O14  1  0.49453300  0.50000000  0.83079600  1
  O  O15  1  0.50546700  0.50000000  0.16920400  1
  O  O16  1  0.00546700  0.50000000  0.83079600  1
  O  O17  1  0.99453300  0.50000000  0.16920400  1
  O  O18  1  0.25000000  0.50000000  0.66096200  1
  O  O19  1  0.75000000  0.50000000  0.33903800  1
  O  O20  1  0.47146400  0.00000000  0.71073900  1
  O  O21  1  0.52853600  0.00000000  0.28926100  1
  O  O22  1  0.02853600  0.00000000  0.71073900  1
  O  O23  1  0.97146400  0.00000000  0.28926100  1
  O  O24  1  0.25000000  0.23716300  0.83412300  1
  O  O25  1  0.75000000  0.23716300  0.16587700  1
  O  O26  1  0.75000000  0.76283700  0.16587700  1
  O  O27  1  0.25000000  0.76283700  0.83412300  1
  O  O28  1  0.50000000  0.50000000  0.50000000  1
  O  O29  1  0.00000000  0.50000000  0.50000000  1
loop_
_geom_bond_atom_site_label_1
_geom_bond_atom_site_label_2
_geom_bond_distance
_geom_bond_site_symmetry_2
Cu0 O16 1.893201 1_555
Cu0 O14 1.893201 1_555
Cu0 O18 1.949777 1_555
Cu0 O5 2.034595 1_555
Cu0 O27 2.373125 1_555
Cu0 O24 2.373125 1_555
Cu1 O15 1.893201 1_555
Cu1 O17 1.893201 1_555
Cu1 O19 1.949777 1_555
Cu1 O4 2.034595 1_555
Cu1 O25 2.373125 1_555
Cu1 O26 2.373125 1_555
Cu2 O19 1.892744 1_555
Cu2 O29 1.934794 1_655
Cu2 O28 1.934794 1_555
Cu2 O12 1.952818 1_555
Cu2 O11 2.463474 1_555
Cu2 O8 2.463474 1_555
Cu3 O18 1.892744 1_555
Cu3 O29 1.934794 1_555
Cu3 O28 1.934794 1_555
Cu3 O13 1.952818 1_555
Cu3 O10 2.463474 1_555
Cu3 O9 2.463474 1_555
Hg0 O8 2.048293 1_555
Hg0 O11 2.048293 1_545
Hg1 O9 2.048293 1_555
Hg1 O10 2.048293 1_545
Bi0 O22 2.145222 1_555
Bi0 O20 2.145222 1_555
Bi0 O27 2.146030 1_545
Bi0 O24 2.146030 1_555
Bi1 O21 2.145222 1_555
Bi1 O23 2.145222 1_555
Bi1 O25 2.146030 1_555
Bi1 O26 2.146030 1_545
O0 Sb0 2.041241 1_555
O0 Sr12 2.470916 1_555
O0 Sr1 2.736693 1_656
O0 Sr0 2.736693 1_556
O0 Sr6 2.908097 1_655
O0 Sr4 2.908097 1_555
O1 Sb1 2.041241 1_555
O1 Sr13 2.470916 1_555
O1 Sr1 2.736693 1_555
O1 Sr0 2.736693 1_555
O1 Sr7 2.908097 1_455
O1 Sr5 2.908097 1_555
O2 Sb1 2.041241 1_555
O2 Sr13 2.470916 1_565
O2 Sr2 2.736693 1_555
O2 Sr3 2.736693 1_555
O2 Sr10 2.908097 1_455
O2 Sr8 2.908097 1_555
O3 Sb0 2.041241 1_555
O3 Sr12 2.470916 1_565
O3 Sr2 2.736693 1_556
O3 Sr3 2.736693 1_656
O3 Sr11 2.908097 1_655
O3 Sr9 2.908097 1_555
O4 Sb0 1.987134 1_554
O4 Sr0 2.708677 1_555
O4 Sr1 2.708677 1_655
O4 Sr2 2.708677 1_555
O4 Sr3 2.708677 1_655
O5 Sb1 1.987134 1_556
O5 Sr0 2.708677 1_556
O5 Sr1 2.708677 1_556
O5 Sr2 2.708677 1_556
O5 Sr3 2.708677 1_556
O6 Sr2 2.615463 1_545
O6 Sr0 2.615463 1_555
O6 Sr12 2.695171 1_554
O6 Sr13 2.695171 1_555
O7 Sr3 2.615463 1_545
O7 Sr1 2.615463 1_555
O7 Sr12 2.695171 1_454
O7 Sr13 2.695171 1_555
O8 Sr7 2.736054 1_555
O8 Sr5 2.736054 1_555
O8 Sr6 2.749664 1_655
O8 Sr4 2.749664 1_555
O9 Sr6 2.736054 1_555
O9 Sr4 2.736054 1_555
O9 Sr7 2.749664 1_455
O9 Sr5 2.749664 1_555
O10 Sr11 2.736054 1_555
O10 Sr9 2.736054 1_555
O10 Sr8 2.749664 1_555
O10 Sr10 2.749664 1_455
O11 Sr10 2.736054 1_555
O11 Sr8 2.736054 1_555
O11 Sr11 2.749664 1_655
O11 Sr9 2.749664 1_555
O12 Sb0 1.971397 1_555
O12 Sr6 2.732136 1_655
O12 Sr4 2.732136 1_555
O12 Sr11 2.732136 1_655
O12 Sr9 2.732136 1_555
O13 Sb1 1.971397 1_555
O13 Sr7 2.732136 1_455
O13 Sr5 2.732136 1_555
O13 Sr8 2.732136 1_555
O13 Sr10 2.732136 1_455
O14 Sb0 1.977198 1_555
O14 Sr0 2.752057 1_556
O14 Sr2 2.752057 1_556
O14 Sr4 2.774319 1_555
O14 Sr9 2.774319 1_555
O15 Sb1 1.977198 1_555
O15 Sr0 2.752057 1_555
O15 Sr2 2.752057 1_555
O15 Sr5 2.774319 1_555
O15 Sr8 2.774319 1_555
O16 Sb0 1.977198 1_455
O16 Sr1 2.752057 1_556
O16 Sr3 2.752057 1_556
O16 Sr6 2.774319 1_555
O16 Sr11 2.774319 1_555
O17 Sb1 1.977198 1_655
O17 Sr1 2.752057 1_655
O17 Sr3 2.752057 1_655
O17 Sr7 2.774319 1_555
O17 Sr10 2.774319 1_555
O18 Sr4 2.651978 1_555
O18 Sr6 2.651978 1_555
O18 Sr11 2.651978 1_555
O18 Sr9 2.651978 1_555
O19 Sr5 2.651978 1_555
O19 Sr7 2.651978 1_555
O19 Sr10 2.651978 1_555
O19 Sr8 2.651978 1_555
O20 Sr12 2.645521 1_555
O20 Sr9 2.721338 1_545
O20 Sr4 2.721338 1_555
O21 Sr13 2.645521 1_555
O21 Sr8 2.721338 1_545
O21 Sr5 2.721338 1_555
O22 Sr12 2.645521 1_455
O22 Sr11 2.721338 1_545
O22 Sr6 2.721338 1_555
O23 Sr13 2.645521 1_655
O23 Sr10 2.721338 1_545
O23 Sr7 2.721338 1_555
O24 Sr1 2.791677 1_556
O24 Sr0 2.791677 1_556
O24 Sr6 2.854525 1_555
O24 Sr4 2.854525 1_555
O25 Sr1 2.791677 1_655
O25 Sr0 2.791677 1_555
O25 Sr5 2.854525 1_555
O25 Sr7 2.854525 1_555
O26 Sr3 2.791677 1_655
O26 Sr2 2.791677 1_555
O26 Sr10 2.854525 1_555
O26 Sr8 2.854525 1_555
O27 Sr3 2.791677 1_556
O27 Sr2 2.791677 1_556
O27 Sr9 2.854525 1_555
O27 Sr11 2.854525 1_555
O28 Sr4 2.631052 1_555
O28 Sr5 2.631052 1_555
O28 Sr8 2.631052 1_555
O28 Sr9 2.631052 1_555
O29 Sr7 2.631052 1_455
O29 Sr6 2.631052 1_555
O29 Sr10 2.631052 1_455
O29 Sr11 2.631052 1_555
