# generated using pymatgen
data_MnZnNiP2O9
_symmetry_space_group_name_H-M   'P 1'
_cell_length_a   6.18447200
_cell_length_b   7.25332700
_cell_length_c   14.30347700
_cell_angle_alpha   90.00000000
_cell_angle_beta   90.00000000
_cell_angle_gamma   90.00000000
_symmetry_Int_Tables_number   1
_chemical_formula_structural   MnZnNiP2O9
_chemical_formula_sum   'Mn4 Zn4 Ni4 P8 O36'
_cell_volume   641.62533892
_cell_formula_units_Z   4
loop_
 _symmetry_equiv_pos_site_id
 _symmetry_equiv_pos_as_xyz
  1  'x, y, z'
loop_
 _atom_site_type_symbol
 _atom_site_label
 _atom_site_symmetry_multiplicity
 _atom_site_fract_x
 _atom_site_fract_y
 _atom_site_fract_z
 _atom_site_occupancy
  Mn  Mn0  1  0.75000000  0.35237000  0.38125400  1
  Mn  Mn1  1  0.25000000  0.64763000  0.61874600  1
  Mn  Mn2  1  0.25000000  0.85237000  0.11874600  1
  Mn  Mn3  1  0.75000000  0.14763000  0.88125400  1
  Zn  Zn0  1  0.75000000  0.88039700  0.28380700  1
  Zn  Zn1  1  0.75000000  0.61960300  0.78380700  1
  Zn  Zn2  1  0.25000000  0.11960300  0.71619300  1
  Zn  Zn3  1  0.25000000  0.38039700  0.21619300  1
  Ni  Ni0  1  0.50000000  0.00000000  0.50000000  1
  Ni  Ni1  1  0.50000000  0.50000000  0.00000000  1
  Ni  Ni2  1  0.00000000  0.50000000  0.00000000  1
  Ni  Ni3  1  0.00000000  0.00000000  0.50000000  1
  P  P0  1  0.25000000  0.36054700  0.43347900  1
  P  P1  1  0.75000000  0.63945300  0.56652100  1
  P  P2  1  0.75000000  0.86054700  0.06652100  1
  P  P3  1  0.25000000  0.13945300  0.93347900  1
  P  P4  1  0.75000000  0.39425600  0.20005300  1
  P  P5  1  0.25000000  0.60574400  0.79994700  1
  P  P6  1  0.25000000  0.89425600  0.29994700  1
  P  P7  1  0.75000000  0.10574400  0.70005300  1
  O  O0  1  0.03784800  0.60856900  0.85820600  1
  O  O1  1  0.53784800  0.39143100  0.14179400  1
  O  O2  1  0.96215200  0.10856900  0.64179400  1
  O  O3  1  0.46215200  0.89143100  0.35820600  1
  O  O4  1  0.96215200  0.39143100  0.14179400  1
  O  O5  1  0.46215200  0.60856900  0.85820600  1
  O  O6  1  0.03784800  0.89143100  0.35820600  1
  O  O7  1  0.53784800  0.10856900  0.64179400  1
  O  O8  1  0.25000000  0.32890200  0.98007400  1
  O  O9  1  0.75000000  0.67109800  0.01992600  1
  O  O10  1  0.75000000  0.82890200  0.51992600  1
  O  O11  1  0.25000000  0.17109800  0.48007400  1
  O  O12  1  0.75000000  0.14426600  0.44745900  1
  O  O13  1  0.25000000  0.85573400  0.55254100  1
  O  O14  1  0.25000000  0.64426600  0.05254100  1
  O  O15  1  0.75000000  0.35573400  0.94745900  1
  O  O16  1  0.75000000  0.21706400  0.26528600  1
  O  O17  1  0.25000000  0.78293600  0.73471400  1
  O  O18  1  0.25000000  0.71706400  0.23471400  1
  O  O19  1  0.75000000  0.28293600  0.76528600  1
  O  O20  1  0.44087000  0.12230700  0.86274100  1
  O  O21  1  0.94087000  0.87769300  0.13725900  1
  O  O22  1  0.55913000  0.62230700  0.63725900  1
  O  O23  1  0.05913000  0.37769300  0.36274100  1
  O  O24  1  0.55913000  0.87769300  0.13725900  1
  O  O25  1  0.05913000  0.12230700  0.86274100  1
  O  O26  1  0.44087000  0.37769300  0.36274100  1
  O  O27  1  0.94087000  0.62230700  0.63725900  1
  O  O28  1  0.75000000  0.94395200  0.77309600  1
  O  O29  1  0.25000000  0.05604800  0.22690400  1
  O  O30  1  0.25000000  0.44395200  0.72690400  1
  O  O31  1  0.75000000  0.55604800  0.27309600  1
  O  O32  1  0.75000000  0.01147000  0.99405600  1
  O  O33  1  0.25000000  0.98853000  0.00594400  1
  O  O34  1  0.25000000  0.51147000  0.50594400  1
  O  O35  1  0.75000000  0.48853000  0.49405600  1
loop_
_geom_bond_atom_site_label_1
_geom_bond_atom_site_label_2
_geom_bond_distance
_geom_bond_site_symmetry_2
Mn0 O12 1.781899 1_555
Mn0 O35 1.891728 1_555
Mn0 O16 1.927335 1_555
Mn0 O23 1.938777 1_655
Mn0 O26 1.938777 1_555
Mn0 O31 2.139126 1_555
Mn1 O13 1.781899 1_555
Mn1 O34 1.891728 1_555
Mn1 O17 1.927335 1_555
Mn1 O27 1.938777 1_455
Mn1 O22 1.938777 1_555
Mn1 O30 2.139126 1_555
Mn2 O14 1.781899 1_555
Mn2 O33 1.891728 1_555
Mn2 O18 1.927335 1_555
Mn2 O21 1.938777 1_455
Mn2 O24 1.938777 1_555
Mn2 O29 2.139126 1_565
Mn3 O15 1.781899 1_555
Mn3 O32 1.891728 1_555
Mn3 O19 1.927335 1_555
Mn3 O25 1.938777 1_655
Mn3 O20 1.938777 1_555
Mn3 O28 2.139126 1_545
Ni0 O11 2.002965 1_555
Ni0 O10 2.002965 1_545
Ni0 O13 2.012519 1_545
Ni0 O12 2.012519 1_555
Ni0 O7 2.188220 1_555
Ni0 O3 2.188220 1_545
Ni1 O9 2.002965 1_555
Ni1 O8 2.002965 1_554
Ni1 O14 2.012519 1_555
Ni1 O15 2.012519 1_554
Ni1 O1 2.188220 1_555
Ni1 O5 2.188220 1_554
Ni2 O9 2.002965 1_455
Ni2 O8 2.002965 1_554
Ni2 O14 2.012519 1_555
Ni2 O15 2.012519 1_454
Ni2 O4 2.188220 1_455
Ni2 O0 2.188220 1_554
Ni3 O11 2.002965 1_555
Ni3 O10 2.002965 1_445
Ni3 O13 2.012519 1_545
Ni3 O12 2.012519 1_455
Ni3 O2 2.188220 1_455
Ni3 O6 2.188220 1_545
O0 P5 1.554442 1_555
O0 Zn1 2.075553 1_455
O1 P4 1.554442 1_555
O1 Zn3 2.075553 1_555
O2 P7 1.554442 1_555
O2 Zn2 2.075553 1_655
O3 P6 1.554442 1_555
O3 Zn0 2.075553 1_555
O4 P4 1.554442 1_555
O4 Zn3 2.075553 1_655
O5 P5 1.554442 1_555
O5 Zn1 2.075553 1_555
O6 P6 1.554442 1_555
O6 Zn0 2.075553 1_455
O7 P7 1.554442 1_555
O7 Zn2 2.075553 1_555
O8 P3 1.527230 1_555
O9 P2 1.527230 1_555
O10 P1 1.527230 1_555
O11 P0 1.527230 1_555
O16 P4 1.588212 1_555
O16 Zn0 2.456283 1_545
O17 P5 1.588212 1_555
O17 Zn2 2.456283 1_565
O18 P6 1.588212 1_555
O18 Zn3 2.456283 1_555
O19 P7 1.588212 1_555
O19 Zn1 2.456283 1_555
O20 P3 1.559686 1_555
O20 Zn2 2.405749 1_555
O21 P2 1.559686 1_555
O21 Zn0 2.405749 1_555
O22 P1 1.559686 1_555
O22 Zn1 2.405749 1_555
O23 P0 1.559686 1_555
O23 Zn3 2.405749 1_555
O24 P2 1.559686 1_555
O24 Zn0 2.405749 1_555
O25 P3 1.559686 1_555
O25 Zn2 2.405749 1_555
O26 P0 1.559686 1_555
O26 Zn3 2.405749 1_555
O27 P1 1.559686 1_555
O27 Zn1 2.405749 1_555
O28 P7 1.571215 1_565
O28 Zn1 2.357593 1_555
O29 P6 1.571215 1_545
O29 Zn3 2.357593 1_555
O30 P5 1.571215 1_555
O30 Zn2 2.357593 1_555
O31 P4 1.571215 1_555
O31 Zn0 2.357593 1_555
O32 P2 1.507544 1_546
O33 P3 1.507544 1_564
O34 P0 1.507544 1_555
O35 P1 1.507544 1_555
