# generated using pymatgen
data_Er20Cu6(Pb3S14)3
_symmetry_space_group_name_H-M   'P 1'
_cell_length_a   8.78340700
_cell_length_b   14.32375478
_cell_length_c   15.54824211
_cell_angle_alpha   102.11294638
_cell_angle_beta   104.99777518
_cell_angle_gamma   101.79022426
_symmetry_Int_Tables_number   1
_chemical_formula_structural   Er20Cu6(Pb3S14)3
_chemical_formula_sum   'Er20 Cu6 Pb9 S42'
_cell_volume   1776.81989240
_cell_formula_units_Z   1
loop_
 _symmetry_equiv_pos_site_id
 _symmetry_equiv_pos_as_xyz
  1  'x, y, z'
loop_
 _atom_site_type_symbol
 _atom_site_label
 _atom_site_symmetry_multiplicity
 _atom_site_fract_x
 _atom_site_fract_y
 _atom_site_fract_z
 _atom_site_occupancy
  Er  Er0  1  0.29930100  0.38517100  0.47128600  1
  Er  Er1  1  0.45693500  0.20765700  0.30689500  1
  Er  Er2  1  0.13148000  0.54908500  0.63729800  1
  Er  Er3  1  0.63984100  0.04918400  0.14413800  1
  Er  Er4  1  0.80320300  0.88313200  0.97767300  1
  Er  Er5  1  0.97001500  0.71861000  0.80827400  1
  Er  Er6  1  0.69943900  0.59688500  0.54146800  1
  Er  Er7  1  0.86120900  0.42792000  0.37329300  1
  Er  Er8  1  0.53351800  0.76546300  0.70839600  1
  Er  Er9  1  0.02921600  0.26092500  0.20948600  1
  Er  Er10  1  0.19974200  0.09420400  0.04319600  1
  Er  Er11  1  0.36801900  0.93078500  0.87737200  1
  Er  Er12  1  0.33281600  0.16254200  0.66859600  1
  Er  Er13  1  0.48563700  0.99847900  0.49167300  1
  Er  Er14  1  0.16080500  0.32749900  0.83162400  1
  Er  Er15  1  0.67291300  0.83539500  0.33360700  1
  Er  Er16  1  0.83110800  0.67069900  0.16668900  1
  Er  Er17  1  0.99879600  0.49971300  0.99974800  1
  Er  Er18  1  0.25770300  0.81124500  0.12899100  1
  Er  Er19  1  0.94474500  0.12719500  0.44378400  1
  Cu  Cu0  1  0.47556100  0.97910400  0.70250900  1
  Cu  Cu1  1  0.81220400  0.64776500  0.37020300  1
  Cu  Cu2  1  0.14526100  0.31169600  0.03746700  1
  Cu  Cu3  1  0.97802500  0.48266000  0.20241200  1
  Cu  Cu4  1  0.31167100  0.14513000  0.86899100  1
  Cu  Cu5  1  0.64518000  0.81490100  0.53531900  1
  Pb  Pb0  1  0.07121700  0.86811700  0.54717800  1
  Pb  Pb1  1  0.23807700  0.70175900  0.38165100  1
  Pb  Pb2  1  0.90617200  0.03367800  0.71604600  1
  Pb  Pb3  1  0.41185800  0.53746400  0.21898000  1
  Pb  Pb4  1  0.57583200  0.36859700  0.05168700  1
  Pb  Pb5  1  0.74408300  0.20034400  0.88765700  1
  Pb  Pb6  1  0.75613500  0.30027900  0.61303700  1
  Pb  Pb7  1  0.42175600  0.63507000  0.94662500  1
  Pb  Pb8  1  0.58543400  0.46627000  0.77917100  1
  S  S0  1  0.19827600  0.03851500  0.49670100  1
  S  S1  1  0.37445700  0.86393000  0.32305300  1
  S  S2  1  0.03853900  0.19705700  0.65619400  1
  S  S3  1  0.53195500  0.70599900  0.16329300  1
  S  S4  1  0.70939700  0.53385600  0.99946300  1
  S  S5  1  0.87467600  0.36606700  0.83226000  1
  S  S6  1  0.81131000  0.78184400  0.66087300  1
  S  S7  1  0.97547400  0.61096200  0.49420200  1
  S  S8  1  0.64387900  0.94802900  0.82912100  1
  S  S9  1  0.14153900  0.44772400  0.32695600  1
  S  S10  1  0.30865700  0.27713200  0.16437600  1
  S  S11  1  0.47817200  0.11424100  0.99606400  1
  S  S12  1  0.79161300  0.99345900  0.28529000  1
  S  S13  1  0.95844300  0.82187000  0.11306400  1
  S  S14  1  0.63713000  0.15057200  0.44233400  1
  S  S15  1  0.12183800  0.66724000  0.95931100  1
  S  S16  1  0.26868700  0.48305600  0.77619800  1
  S  S17  1  0.43873600  0.31633500  0.60887700  1
  S  S18  1  0.79048900  0.95882000  0.50985500  1
  S  S19  1  0.95914300  0.78543200  0.34572700  1
  S  S20  1  0.62190100  0.11812400  0.67345100  1
  S  S21  1  0.12656900  0.62571800  0.17770300  1
  S  S22  1  0.29051000  0.45233000  0.01045500  1
  S  S23  1  0.45740900  0.28701500  0.84522700  1
  S  S24  1  0.41476000  0.57599000  0.58866000  1
  S  S25  1  0.57865900  0.40527000  0.42046800  1
  S  S26  1  0.25009300  0.74113100  0.75596600  1
  S  S27  1  0.74042300  0.24217100  0.25234800  1
  S  S28  1  0.90818100  0.07859100  0.08186900  1
  S  S29  1  0.07922200  0.91047700  0.91989700  1
  S  S30  1  0.24141600  0.00773200  0.73850600  1
  S  S31  1  0.40878400  0.84568400  0.56809000  1
  S  S32  1  0.07579900  0.17478200  0.90455100  1
  S  S33  1  0.57671200  0.67757400  0.40492800  1
  S  S34  1  0.74194000  0.51128500  0.23669000  1
  S  S35  1  0.91237500  0.34489300  0.07240300  1
  S  S36  1  0.17879600  0.20099700  0.35625400  1
  S  S37  1  0.35372700  0.02506400  0.18109000  1
  S  S38  1  0.01914200  0.36187300  0.51366700  1
  S  S39  1  0.51741100  0.86801000  0.02232800  1
  S  S40  1  0.69087400  0.70492400  0.85016700  1
  S  S41  1  0.85798500  0.53860600  0.68564800  1
loop_
_geom_bond_atom_site_label_1
_geom_bond_atom_site_label_2
_geom_bond_distance
_geom_bond_site_symmetry_2
Er0 S17 2.659208 1_555
Er0 S36 2.679095 1_555
Er0 S38 2.682687 1_555
Er0 S9 2.738727 1_555
Er0 S25 2.745564 1_555
Er0 S24 2.765060 1_555
Er1 S14 2.671076 1_555
Er1 S37 2.730319 1_555
Er1 S36 2.733535 1_555
Er1 S10 2.749226 1_555
Er1 S27 2.815962 1_555
Er1 S25 2.821673 1_555
Er2 S16 2.643279 1_555
Er2 S41 2.681974 1_455
Er2 S7 2.712806 1_455
Er2 S24 2.759653 1_555
Er2 S38 2.762832 1_555
Er2 S26 2.785786 1_555
Er3 S12 2.624225 1_545
Er3 S39 2.687129 1_545
Er3 S37 2.690852 1_555
Er3 S27 2.744703 1_555
Er3 S28 2.759788 1_555
Er3 S11 2.816808 1_554
Er4 S13 2.615197 1_556
Er4 S40 2.693360 1_555
Er4 S39 2.751942 1_556
Er4 S28 2.753459 1_566
Er4 S29 2.779358 1_655
Er4 S8 2.813723 1_555
Er5 S40 2.675406 1_555
Er5 S41 2.679617 1_555
Er5 S15 2.709219 1_655
Er5 S29 2.746717 1_655
Er5 S26 2.763806 1_655
Er5 S6 2.783822 1_555
Er6 S7 2.691407 1_555
Er6 S41 2.703004 1_555
Er6 S6 2.712725 1_555
Er6 S33 2.712786 1_555
Er6 S24 2.759736 1_555
Er6 S25 2.794285 1_555
Er7 S7 2.700942 1_555
Er7 S9 2.716742 1_655
Er7 S38 2.723739 1_655
Er7 S27 2.730355 1_555
Er7 S34 2.731012 1_555
Er7 S25 2.741409 1_555
Er8 S40 2.690029 1_555
Er8 S8 2.695133 1_555
Er8 S6 2.706721 1_555
Er8 S26 2.751801 1_555
Er8 S31 2.758466 1_555
Er8 S24 2.763536 1_555
Er9 S10 2.701221 1_555
Er9 S36 2.720600 1_555
Er9 S9 2.721416 1_555
Er9 S28 2.736250 1_455
Er9 S35 2.736936 1_455
Er9 S27 2.760824 1_455
Er10 S10 2.702138 1_555
Er10 S11 2.707244 1_554
Er10 S37 2.710075 1_555
Er10 S29 2.723109 1_544
Er10 S32 2.739947 1_554
Er10 S28 2.754840 1_455
Er11 S11 2.692341 1_565
Er11 S8 2.696058 1_555
Er11 S30 2.714788 1_565
Er11 S39 2.722500 1_556
Er11 S29 2.757438 1_555
Er11 S26 2.775225 1_555
Er12 S17 2.654888 1_555
Er12 S0 2.685226 1_555
Er12 S2 2.695702 1_555
Er12 S20 2.727438 1_555
Er12 S30 2.734751 1_555
Er12 S23 2.740585 1_555
Er13 S14 2.673981 1_565
Er13 S1 2.706793 1_555
Er13 S0 2.716691 1_565
Er13 S31 2.749549 1_555
Er13 S20 2.781336 1_565
Er13 S18 2.805279 1_555
Er14 S16 2.640252 1_555
Er14 S5 2.683159 1_455
Er14 S32 2.727623 1_555
Er14 S23 2.748033 1_555
Er14 S2 2.758506 1_555
Er14 S22 2.769077 1_556
Er15 S12 2.632857 1_555
Er15 S3 2.699261 1_555
Er15 S1 2.703592 1_555
Er15 S19 2.723033 1_555
Er15 S18 2.730839 1_555
Er15 S33 2.794702 1_555
Er16 S13 2.624005 1_555
Er16 S4 2.703969 1_554
Er16 S19 2.723812 1_555
Er16 S3 2.764954 1_555
Er16 S21 2.771075 1_655
Er16 S34 2.786630 1_555
Er17 S4 2.683951 1_555
Er17 S5 2.687060 1_555
Er17 S15 2.691928 1_655
Er17 S35 2.752696 1_556
Er17 S22 2.755131 1_656
Er17 S21 2.764414 1_656
Er18 S13 2.614578 1_455
Er18 S15 2.778456 1_554
Er18 S1 2.802148 1_555
Er18 S37 2.880485 1_565
Er18 S21 3.001273 1_555
Er18 S3 3.084834 1_555
Er18 S39 3.221943 1_555
Er19 S12 2.608036 1_545
Er19 S14 2.784654 1_555
Er19 S0 2.809918 1_655
Er19 S36 2.891287 1_655
Er19 S18 3.021995 1_545
Er19 S2 3.074930 1_655
Er19 S38 3.179484 1_655
Cu0 S8 2.321535 1_555
Cu0 S20 2.335311 1_565
Cu0 S30 2.356910 1_565
Cu0 S31 2.365477 1_555
Cu1 S19 2.286498 1_555
Cu1 S7 2.314302 1_555
Cu1 S33 2.365237 1_555
Cu1 S34 2.377525 1_555
Cu2 S10 2.330894 1_555
Cu2 S22 2.333237 1_555
Cu2 S35 2.359985 1_455
Cu2 S32 2.376272 1_554
Cu3 S9 2.307354 1_655
Cu3 S21 2.355010 1_655
Cu3 S35 2.360154 1_555
Cu3 S34 2.362169 1_555
Cu4 S11 2.318182 1_555
Cu4 S23 2.324278 1_555
Cu4 S30 2.355877 1_555
Cu4 S32 2.373219 1_555
Cu5 S6 2.315227 1_555
Cu5 S33 2.356477 1_555
Cu5 S18 2.358855 1_555
Cu5 S31 2.364897 1_555
Pb0 S0 2.821834 1_565
Pb0 S19 2.924610 1_455
Pb0 S31 2.989039 1_555
Pb0 S18 2.998265 1_455
Pb0 S30 3.010563 1_565
Pb1 S1 2.824326 1_555
Pb1 S19 2.919506 1_455
Pb1 S21 2.950959 1_555
Pb1 S31 2.980006 1_555
Pb1 S33 3.002401 1_555
Pb2 S2 2.838366 1_655
Pb2 S20 2.974998 1_555
Pb2 S18 2.980965 1_545
Pb2 S30 2.983307 1_655
Pb2 S32 2.986359 1_655
Pb3 S3 2.828308 1_555
Pb3 S33 2.948524 1_555
Pb3 S34 2.948979 1_555
Pb3 S21 3.015232 1_555
Pb3 S22 3.025880 1_555
Pb4 S4 2.793522 1_554
Pb4 S34 2.953305 1_555
Pb4 S22 2.974810 1_555
Pb4 S35 2.986669 1_555
Pb4 S23 2.992154 1_554
Pb5 S5 2.819420 1_555
Pb5 S32 2.961810 1_655
Pb5 S35 2.962891 1_556
Pb5 S23 3.012979 1_555
Pb5 S20 3.101382 1_555
Pb6 S14 2.827523 1_555
Pb6 S17 2.829149 1_555
Pb6 S20 3.069971 1_555
Pb6 S2 3.137305 1_655
Pb6 S5 3.162975 1_555
Pb6 S38 3.176239 1_655
Pb6 S41 3.215634 1_555
Pb7 S15 2.813828 1_555
Pb7 S16 2.847577 1_555
Pb7 S22 3.100732 1_556
Pb7 S3 3.129221 1_556
Pb7 S39 3.149355 1_556
Pb7 S4 3.175250 1_555
Pb7 S40 3.214945 1_555
Pb8 S17 2.828459 1_555
Pb8 S16 2.830476 1_555
Pb8 S23 3.071887 1_555
Pb8 S5 3.177681 1_555
Pb8 S4 3.178343 1_555
Pb8 S41 3.215467 1_555
Pb8 S40 3.217966 1_555
