# generated using pymatgen
data_Gd2C
_symmetry_space_group_name_H-M   'P 1'
_cell_length_a   3.64716559
_cell_length_b   3.64716559
_cell_length_c   6.47960995
_cell_angle_alpha   73.65418874
_cell_angle_beta   90.00000000
_cell_angle_gamma   120.00000000
_symmetry_Int_Tables_number   1
_chemical_formula_structural   Gd2C
_chemical_formula_sum   'Gd2 C1'
_cell_volume   70.59187166
_cell_formula_units_Z   1
loop_
 _symmetry_equiv_pos_site_id
 _symmetry_equiv_pos_as_xyz
  1  'x, y, z'
loop_
 _atom_site_type_symbol
 _atom_site_label
 _atom_site_symmetry_multiplicity
 _atom_site_fract_x
 _atom_site_fract_y
 _atom_site_fract_z
 _atom_site_occupancy
  Gd  Gd0  1  0.98982418  0.97964935  0.03052547  1
  Gd  Gd1  1  0.51017582  0.02034965  0.46947453  1
  C  C0  1  0.25000000  0.50000000  0.25000000  1
loop_
_geom_bond_atom_site_label_1
_geom_bond_atom_site_label_2
_geom_bond_distance
_geom_bond_site_symmetry_2
C0 Gd0 2.498549 1_555
C0 Gd1 2.498549 1_455
C0 Gd1 2.498549 1_565
C0 Gd0 2.498551 1_455
C0 Gd0 2.498552 1_445
C0 Gd1 2.498554 1_555
