# generated using pymatgen
data_Zr3(Ni10B3)2
_symmetry_space_group_name_H-M   'P 1'
_cell_length_a   7.55809468
_cell_length_b   7.55809468
_cell_length_c   7.55809468
_cell_angle_alpha   60.00000000
_cell_angle_beta   60.00000000
_cell_angle_gamma   60.00000000
_symmetry_Int_Tables_number   1
_chemical_formula_structural   Zr3(Ni10B3)2
_chemical_formula_sum   'Zr3 Ni20 B6'
_cell_volume   305.29661280
_cell_formula_units_Z   1
loop_
 _symmetry_equiv_pos_site_id
 _symmetry_equiv_pos_as_xyz
  1  'x, y, z'
loop_
 _atom_site_type_symbol
 _atom_site_label
 _atom_site_symmetry_multiplicity
 _atom_site_fract_x
 _atom_site_fract_y
 _atom_site_fract_z
 _atom_site_occupancy
  Zr  Zr0  1  0.00000000  0.00000000  0.00000000  1
  Zr  Zr1  1  0.75000000  0.75000000  0.75000000  1
  Zr  Zr2  1  0.25000000  0.25000000  0.25000000  1
  Ni  Ni0  1  0.61363100  0.61363100  0.15910600  1
  Ni  Ni1  1  0.61363100  0.15910600  0.61363100  1
  Ni  Ni2  1  0.15910600  0.61363100  0.61363100  1
  Ni  Ni3  1  0.61363100  0.61363100  0.61363100  1
  Ni  Ni4  1  0.38636900  0.38636900  0.84089400  1
  Ni  Ni5  1  0.38636900  0.84089400  0.38636900  1
  Ni  Ni6  1  0.84089400  0.38636900  0.38636900  1
  Ni  Ni7  1  0.38636900  0.38636900  0.38636900  1
  Ni  Ni8  1  0.00000000  0.00000000  0.34462700  1
  Ni  Ni9  1  0.65537300  0.00000000  0.34462700  1
  Ni  Ni10  1  0.00000000  0.65537300  0.34462700  1
  Ni  Ni11  1  0.65537300  0.34462700  0.00000000  1
  Ni  Ni12  1  0.00000000  0.34462700  0.00000000  1
  Ni  Ni13  1  0.00000000  0.34462700  0.65537300  1
  Ni  Ni14  1  0.34462700  0.65537300  0.00000000  1
  Ni  Ni15  1  0.34462700  0.00000000  0.65537300  1
  Ni  Ni16  1  0.34462700  0.00000000  0.00000000  1
  Ni  Ni17  1  0.00000000  0.00000000  0.65537300  1
  Ni  Ni18  1  0.00000000  0.65537300  0.00000000  1
  Ni  Ni19  1  0.65537300  0.00000000  0.00000000  1
  B  B0  1  0.73200500  0.73200500  0.26799500  1
  B  B1  1  0.26799500  0.73200500  0.26799500  1
  B  B2  1  0.73200500  0.26799500  0.26799500  1
  B  B3  1  0.26799500  0.26799500  0.73200500  1
  B  B4  1  0.73200500  0.26799500  0.73200500  1
  B  B5  1  0.26799500  0.73200500  0.73200500  1
loop_
_geom_bond_atom_site_label_1
_geom_bond_atom_site_label_2
_geom_bond_distance
_geom_bond_site_symmetry_2
Ni0 Zr1 2.524658 1_554
Ni0 Ni14 2.665236 1_555
Ni0 Ni11 2.665236 1_555
Ni0 Ni16 2.665240 1_565
Ni0 Ni12 2.665240 1_655
Ni0 Ni18 2.665243 1_655
Ni0 Ni19 2.665243 1_565
Ni1 Zr1 2.524658 1_545
Ni1 Ni15 2.665236 1_555
Ni1 Ni9 2.665236 1_555
Ni1 Ni16 2.665240 1_556
Ni1 Ni8 2.665240 1_655
Ni1 Ni19 2.665243 1_556
Ni1 Ni17 2.665243 1_655
Ni2 Zr1 2.524658 1_455
Ni2 Ni8 2.665240 1_565
Ni3 Zr1 2.524664 1_555
Ni3 Ni9 2.665242 1_565
Ni4 Zr2 2.524658 1_556
Ni5 Zr2 2.524658 1_565
Ni5 Ni9 2.665236 1_565
Ni5 Ni8 2.665243 1_565
Ni6 Zr2 2.524658 1_655
Ni6 Ni8 2.665243 1_655
Ni7 Zr2 2.524664 1_555
Ni7 Ni9 2.665242 1_555
Ni8 Zr0 2.604723 1_555
Ni8 Ni9 2.604723 1_455
Ni8 Zr1 2.918842 1_445
Ni8 Zr2 2.918842 1_555
Ni9 Zr0 2.604723 1_655
Ni9 Zr2 2.918842 1_555
Ni9 Zr1 2.918842 1_545
Ni10 Ni13 2.348648 1_555
Ni10 Ni14 2.604723 1_555
Ni10 Ni18 2.604723 1_555
Ni10 Zr0 2.604723 1_565
Ni10 Ni9 2.604723 1_465
Ni10 Ni8 2.604723 1_565
Ni10 Ni2 2.665236 1_555
Ni10 Ni6 2.665236 1_455
Ni10 Ni7 2.665242 1_555
Ni10 Ni3 2.665242 1_455
Ni10 Zr2 2.918842 1_555
Ni10 Zr1 2.918842 1_455
Ni11 Ni14 2.348648 1_555
Ni11 Ni19 2.604723 1_555
Ni11 Ni9 2.604723 1_555
Ni11 Zr0 2.604723 1_655
Ni11 Ni12 2.604723 1_655
Ni11 Ni13 2.604723 1_654
Ni11 Ni4 2.665236 1_554
Ni11 Ni7 2.665242 1_555
Ni11 Ni3 2.665242 1_554
Ni11 Zr2 2.918842 1_555
Ni11 Zr1 2.918842 1_554
Ni12 Ni18 2.348648 1_555
Ni12 Ni16 2.604723 1_555
Ni12 Ni8 2.604723 1_555
Ni12 Zr0 2.604723 1_555
Ni12 Ni13 2.604723 1_554
Ni12 Ni2 2.665240 1_554
Ni12 Ni6 2.665243 1_455
Ni12 Ni4 2.665243 1_554
Ni12 Zr1 2.918842 1_454
Ni12 Zr2 2.918842 1_555
Ni13 Ni17 2.604723 1_555
Ni13 Ni15 2.604723 1_555
Ni13 Zr0 2.604723 1_556
Ni13 Ni2 2.665236 1_555
Ni13 Ni6 2.665236 1_455
Ni13 Ni7 2.665242 1_555
Ni13 Ni3 2.665242 1_455
Ni13 Zr2 2.918842 1_555
Ni13 Zr1 2.918842 1_455
Ni14 Ni18 2.604723 1_555
Ni14 Zr0 2.604723 1_565
Ni14 Ni15 2.604723 1_564
Ni14 Ni16 2.604723 1_565
Ni14 Ni4 2.665236 1_554
Ni14 Ni7 2.665242 1_555
Ni14 Ni3 2.665242 1_554
Ni14 Zr2 2.918842 1_555
Ni14 Zr1 2.918842 1_554
Ni15 Ni9 2.348648 1_555
Ni15 Ni17 2.604723 1_555
Ni15 Zr0 2.604723 1_556
Ni15 Ni16 2.604723 1_556
Ni15 Ni5 2.665236 1_545
Ni15 Ni7 2.665242 1_555
Ni15 Ni3 2.665242 1_545
Ni15 Zr2 2.918842 1_555
Ni15 Zr1 2.918842 1_545
Ni16 Ni19 2.348648 1_555
Ni16 Ni8 2.604723 1_555
Ni16 Zr0 2.604723 1_555
Ni16 Ni5 2.665243 1_545
Ni16 Ni4 2.665243 1_554
Ni16 Zr1 2.918842 1_544
Ni16 Zr2 2.918842 1_555
Ni17 Ni8 2.348648 1_555
Ni17 Ni18 2.604723 1_546
Ni17 Zr0 2.604723 1_556
Ni17 Ni19 2.604723 1_456
Ni17 Ni5 2.665240 1_545
Ni17 Ni6 2.665240 1_455
Ni17 Ni2 2.665243 1_545
Ni17 Zr1 2.918842 1_445
Ni17 Zr2 2.918842 1_555
Ni18 Ni19 2.604723 1_465
Ni18 Zr0 2.604723 1_565
Ni18 Ni6 2.665240 1_455
Ni18 Ni4 2.665240 1_554
Ni18 Ni2 2.665243 1_554
Ni18 Zr1 2.918842 1_454
Ni18 Zr2 2.918842 1_555
Ni19 Ni9 2.604723 1_555
Ni19 Zr0 2.604723 1_655
Ni19 Ni5 2.665240 1_545
Ni19 Ni4 2.665240 1_554
Ni19 Zr1 2.918842 1_544
Ni19 Zr2 2.918842 1_555
B0 Ni9 2.106713 1_565
B0 Ni10 2.106713 1_655
B0 Ni18 2.106713 1_655
B0 Ni19 2.106713 1_565
B0 Ni6 2.133376 1_555
B0 Ni5 2.133376 1_555
B0 Ni3 2.133376 1_555
B0 Ni0 2.133382 1_555
B1 Ni8 2.106713 1_565
B1 Ni16 2.106713 1_565
B1 Ni10 2.106713 1_555
B1 Ni14 2.106713 1_555
B1 Ni2 2.133376 1_555
B1 Ni0 2.133376 1_555
B1 Ni7 2.133376 1_555
B1 Ni5 2.133382 1_555
B2 Ni12 2.106713 1_655
B2 Ni8 2.106713 1_655
B2 Ni11 2.106713 1_555
B2 Ni9 2.106713 1_555
B2 Ni0 2.133376 1_555
B2 Ni1 2.133376 1_555
B2 Ni7 2.133376 1_555
B2 Ni6 2.133382 1_555
B3 Ni12 2.106713 1_556
B3 Ni16 2.106713 1_556
B3 Ni13 2.106713 1_555
B3 Ni15 2.106713 1_555
B3 Ni2 2.133376 1_555
B3 Ni1 2.133376 1_555
B3 Ni7 2.133376 1_555
B3 Ni4 2.133382 1_555
B4 Ni11 2.106713 1_556
B4 Ni13 2.106713 1_655
B4 Ni17 2.106713 1_655
B4 Ni19 2.106713 1_556
B4 Ni4 2.133376 1_555
B4 Ni6 2.133376 1_555
B4 Ni3 2.133376 1_555
B4 Ni1 2.133382 1_555
B5 Ni14 2.106713 1_556
B5 Ni15 2.106713 1_565
B5 Ni18 2.106713 1_556
B5 Ni17 2.106713 1_565
B5 Ni4 2.133376 1_555
B5 Ni5 2.133376 1_555
B5 Ni3 2.133376 1_555
B5 Ni2 2.133382 1_555
