# generated using pymatgen
data_K3PrI6
_symmetry_space_group_name_H-M   'P 1'
_cell_length_a   9.16721657
_cell_length_b   9.16721657
_cell_length_c   9.16721657
_cell_angle_alpha   60.00000000
_cell_angle_beta   60.00000000
_cell_angle_gamma   60.00000000
_symmetry_Int_Tables_number   1
_chemical_formula_structural   K3PrI6
_chemical_formula_sum   'K3 Pr1 I6'
_cell_volume   544.75029759
_cell_formula_units_Z   1
loop_
 _symmetry_equiv_pos_site_id
 _symmetry_equiv_pos_as_xyz
  1  'x, y, z'
loop_
 _atom_site_type_symbol
 _atom_site_label
 _atom_site_symmetry_multiplicity
 _atom_site_fract_x
 _atom_site_fract_y
 _atom_site_fract_z
 _atom_site_occupancy
  K  K0  1  0.75000000  0.75000000  0.75000000  1
  K  K1  1  0.25000000  0.25000000  0.25000000  1
  K  K2  1  0.50000000  0.50000000  0.50000000  1
  Pr  Pr0  1  0.00000000  0.00000000  0.00000000  1
  I  I0  1  0.75917100  0.24082900  0.24082900  1
  I  I1  1  0.24082900  0.24082900  0.75917100  1
  I  I2  1  0.24082900  0.75917100  0.75917100  1
  I  I3  1  0.24082900  0.75917100  0.24082900  1
  I  I4  1  0.75917100  0.24082900  0.75917100  1
  I  I5  1  0.75917100  0.75917100  0.24082900  1
loop_
_geom_bond_atom_site_label_1
_geom_bond_atom_site_label_2
_geom_bond_distance
_geom_bond_site_symmetry_2
I0 Pr0 3.122204 1_655
I0 K2 3.359997 1_555
I1 Pr0 3.122204 1_556
I1 K2 3.359997 1_555
I2 Pr0 3.122204 1_566
I2 K2 3.359997 1_555
I3 Pr0 3.122204 1_565
I3 K2 3.359997 1_555
I4 Pr0 3.122204 1_656
I4 K2 3.359997 1_555
I5 Pr0 3.122204 1_665
I5 K2 3.359997 1_555
