# generated using pymatgen
data_CaBiF5
_symmetry_space_group_name_H-M   'P 1'
_cell_length_a   6.08883276
_cell_length_b   6.08883276
_cell_length_c   8.46055474
_cell_angle_alpha   69.65887638
_cell_angle_beta   69.65887638
_cell_angle_gamma   72.01844617
_symmetry_Int_Tables_number   1
_chemical_formula_structural   CaBiF5
_chemical_formula_sum   'Ca2 Bi2 F10'
_cell_volume   269.39443635
_cell_formula_units_Z   2
loop_
 _symmetry_equiv_pos_site_id
 _symmetry_equiv_pos_as_xyz
  1  'x, y, z'
loop_
 _atom_site_type_symbol
 _atom_site_label
 _atom_site_symmetry_multiplicity
 _atom_site_fract_x
 _atom_site_fract_y
 _atom_site_fract_z
 _atom_site_occupancy
  Ca  Ca0  1  0.52833300  0.47166700  0.75000000  1
  Ca  Ca1  1  0.47166700  0.52833300  0.25000000  1
  Bi  Bi0  1  0.00000000  0.00000000  0.50000000  1
  Bi  Bi1  1  0.00000000  0.00000000  0.00000000  1
  F  F0  1  0.13371500  0.86628500  0.25000000  1
  F  F1  1  0.86628500  0.13371500  0.75000000  1
  F  F2  1  0.72817900  0.77201000  0.13460900  1
  F  F3  1  0.22799000  0.27182100  0.36539100  1
  F  F4  1  0.67664900  0.30472300  0.45551200  1
  F  F5  1  0.69527700  0.32335100  0.04448800  1
  F  F6  1  0.32335100  0.69527700  0.54448800  1
  F  F7  1  0.30472300  0.67664900  0.95551200  1
  F  F8  1  0.77201000  0.72817900  0.63460900  1
  F  F9  1  0.27182100  0.22799000  0.86539100  1
loop_
_geom_bond_atom_site_label_1
_geom_bond_atom_site_label_2
_geom_bond_distance
_geom_bond_site_symmetry_2
Ca0 F9 2.226564 1_555
Ca0 F8 2.226564 1_555
Ca0 F7 2.290947 1_555
Ca0 F6 2.290947 1_555
Ca0 F1 2.419546 1_555
Ca0 F5 2.772404 1_556
Ca0 F4 2.772404 1_555
Ca1 F3 2.226564 1_555
Ca1 F2 2.226564 1_555
Ca1 F5 2.290947 1_555
Ca1 F4 2.290947 1_555
Ca1 F0 2.419546 1_555
Ca1 F6 2.772404 1_555
Ca1 F7 2.772404 1_554
Bi0 F8 2.229886 1_445
Bi0 F3 2.229886 1_555
Bi0 F4 2.287958 1_455
Bi0 F6 2.287958 1_545
Bi0 F1 2.321698 1_455
Bi0 F0 2.321698 1_545
Bi1 F2 2.229886 1_445
Bi1 F9 2.229886 1_554
Bi1 F7 2.287958 1_544
Bi1 F5 2.287958 1_455
Bi1 F1 2.321698 1_454
Bi1 F0 2.321698 1_545
