# generated using pymatgen
data_NdCrO5
_symmetry_space_group_name_H-M   'P 1'
_cell_length_a   11.60952300
_cell_length_b   8.51852500
_cell_length_c   11.97584671
_cell_angle_alpha   46.02059542
_cell_angle_beta   90.00000000
_cell_angle_gamma   90.00000000
_symmetry_Int_Tables_number   1
_chemical_formula_structural   NdCrO5
_chemical_formula_sum   'Nd8 Cr8 O40'
_cell_volume   852.25546960
_cell_formula_units_Z   8
loop_
 _symmetry_equiv_pos_site_id
 _symmetry_equiv_pos_as_xyz
  1  'x, y, z'
loop_
 _atom_site_type_symbol
 _atom_site_label
 _atom_site_symmetry_multiplicity
 _atom_site_fract_x
 _atom_site_fract_y
 _atom_site_fract_z
 _atom_site_occupancy
  Nd  Nd0  1  0.05570600  0.20290900  0.66811000  1
  Nd  Nd1  1  0.55570600  0.79709100  0.83189000  1
  Nd  Nd2  1  0.94429400  0.79709100  0.33189000  1
  Nd  Nd3  1  0.44429400  0.20290900  0.16811000  1
  Nd  Nd4  1  0.07724000  0.74513300  0.68166700  1
  Nd  Nd5  1  0.57724000  0.25486700  0.81833300  1
  Nd  Nd6  1  0.92276000  0.25486700  0.31833300  1
  Nd  Nd7  1  0.42276000  0.74513300  0.18166700  1
  Cr  Cr0  1  0.32186700  0.14041800  0.49657800  1
  Cr  Cr1  1  0.82186700  0.85958200  0.00342200  1
  Cr  Cr2  1  0.67813300  0.85958200  0.50342200  1
  Cr  Cr3  1  0.17813300  0.14041800  0.99657800  1
  Cr  Cr4  1  0.30895000  0.60283300  0.53919700  1
  Cr  Cr5  1  0.80895000  0.39716700  0.96080300  1
  Cr  Cr6  1  0.69105000  0.39716700  0.46080300  1
  Cr  Cr7  1  0.19105000  0.60283300  0.03919700  1
  O  O0  1  0.18494100  0.09205700  0.56375300  1
  O  O1  1  0.68494100  0.90794300  0.93624700  1
  O  O2  1  0.81505900  0.90794300  0.43624700  1
  O  O3  1  0.31505900  0.09205700  0.06375300  1
  O  O4  1  0.36247300  0.38492500  0.41785100  1
  O  O5  1  0.86247300  0.61507500  0.08214900  1
  O  O6  1  0.63752700  0.61507500  0.58214900  1
  O  O7  1  0.13752700  0.38492500  0.91785100  1
  O  O8  1  0.32719800  0.13733400  0.36088900  1
  O  O9  1  0.82719800  0.86266600  0.13911100  1
  O  O10  1  0.67280200  0.86266600  0.63911100  1
  O  O11  1  0.17280200  0.13733400  0.86088900  1
  O  O12  1  0.40997500  0.95591700  0.64227600  1
  O  O13  1  0.90997500  0.04408300  0.85772400  1
  O  O14  1  0.59002500  0.04408300  0.35772400  1
  O  O15  1  0.09002500  0.95591700  0.14227600  1
  O  O16  1  0.26452300  0.70761800  0.60635600  1
  O  O17  1  0.76452300  0.29238200  0.89364400  1
  O  O18  1  0.73547700  0.29238200  0.39364400  1
  O  O19  1  0.23547700  0.70761800  0.10635600  1
  O  O20  1  0.37661400  0.79156700  0.36711800  1
  O  O21  1  0.87661400  0.20843300  0.13288200  1
  O  O22  1  0.62338600  0.20843300  0.63288200  1
  O  O23  1  0.12338600  0.79156700  0.86711800  1
  O  O24  1  0.18939400  0.51356700  0.51622200  1
  O  O25  1  0.68939400  0.48643300  0.98377800  1
  O  O26  1  0.81060600  0.48643300  0.48377800  1
  O  O27  1  0.31060600  0.51356700  0.01622200  1
  O  O28  1  0.39941500  0.40249200  0.66720400  1
  O  O29  1  0.89941500  0.59750800  0.83279600  1
  O  O30  1  0.60058500  0.59750800  0.33279600  1
  O  O31  1  0.10058500  0.40249200  0.16720400  1
  O  O32  1  0.95587000  0.05295800  0.58532800  1
  O  O33  1  0.45587000  0.94704200  0.91467200  1
  O  O34  1  0.04413000  0.94704200  0.41467200  1
  O  O35  1  0.54413000  0.05295800  0.08532800  1
  O  O36  1  0.98893100  0.44828600  0.39602200  1
  O  O37  1  0.48893100  0.55171400  0.10397800  1
  O  O38  1  0.01106900  0.55171400  0.60397800  1
  O  O39  1  0.51106900  0.44828600  0.89602200  1
loop_
_geom_bond_atom_site_label_1
_geom_bond_atom_site_label_2
_geom_bond_distance
_geom_bond_site_symmetry_2
Nd0 O13 2.362754 1_455
Nd0 O11 2.387276 1_555
Nd0 O32 2.390942 1_455
Nd0 O24 2.456729 1_555
Nd0 O36 2.475613 1_455
Nd0 O0 2.518662 1_555
Nd0 O38 2.552987 1_555
Nd0 O23 2.641521 1_545
Nd1 O12 2.362754 1_555
Nd1 O10 2.387276 1_555
Nd1 O33 2.390942 1_555
Nd1 O25 2.456729 1_555
Nd1 O37 2.475613 1_556
Nd1 O1 2.518662 1_555
Nd1 O39 2.552987 1_555
Nd1 O22 2.641521 1_565
Nd2 O15 2.362754 1_655
Nd2 O9 2.387276 1_555
Nd2 O34 2.390942 1_655
Nd2 O26 2.456729 1_555
Nd2 O38 2.475613 1_655
Nd2 O2 2.518662 1_555
Nd2 O36 2.552987 1_555
Nd2 O21 2.641521 1_565
Nd3 O14 2.362754 1_555
Nd3 O8 2.387276 1_555
Nd3 O35 2.390942 1_555
Nd3 O27 2.456729 1_555
Nd3 O39 2.475613 1_554
Nd3 O3 2.518662 1_555
Nd3 O37 2.552987 1_555
Nd3 O20 2.641521 1_545
Nd4 O34 2.385829 1_555
Nd4 O7 2.419112 1_555
Nd4 O29 2.440945 1_455
Nd4 O32 2.447638 1_465
Nd4 O16 2.458312 1_555
Nd4 O38 2.509877 1_555
Nd4 O0 2.548609 1_565
Nd4 O23 2.568279 1_555
Nd5 O35 2.385829 1_556
Nd5 O6 2.419112 1_555
Nd5 O28 2.440945 1_555
Nd5 O33 2.447638 1_545
Nd5 O17 2.458312 1_555
Nd5 O39 2.509877 1_555
Nd5 O1 2.548609 1_545
Nd5 O22 2.568279 1_555
Nd6 O32 2.385829 1_555
Nd6 O5 2.419112 1_555
Nd6 O31 2.440945 1_655
Nd6 O34 2.447638 1_645
Nd6 O18 2.458312 1_555
Nd6 O36 2.509877 1_555
Nd6 O2 2.548609 1_545
Nd6 O21 2.568279 1_555
Nd7 O33 2.385829 1_554
Nd7 O4 2.419112 1_555
Nd7 O30 2.440945 1_555
Nd7 O35 2.447638 1_565
Nd7 O19 2.458312 1_555
Nd7 O37 2.509877 1_555
Nd7 O3 2.548609 1_565
Nd7 O20 2.568279 1_555
Cr0 O8 1.644507 1_555
Cr0 O4 1.649883 1_555
Cr0 O12 1.659043 1_545
Cr0 O0 1.698117 1_555
Cr1 O9 1.644507 1_555
Cr1 O5 1.649883 1_555
Cr1 O13 1.659043 1_564
Cr1 O1 1.698117 1_554
Cr2 O10 1.644507 1_555
Cr2 O6 1.649883 1_555
Cr2 O14 1.659043 1_565
Cr2 O2 1.698117 1_555
Cr3 O11 1.644507 1_555
Cr3 O7 1.649883 1_555
Cr3 O15 1.659043 1_546
Cr3 O3 1.698117 1_556
Cr4 O16 1.645206 1_555
Cr4 O28 1.652941 1_555
Cr4 O20 1.687418 1_555
Cr4 O24 1.694408 1_555
Cr5 O17 1.645206 1_555
Cr5 O29 1.652941 1_555
Cr5 O21 1.687418 1_556
Cr5 O25 1.694408 1_555
Cr6 O18 1.645206 1_555
Cr6 O30 1.652941 1_555
Cr6 O22 1.687418 1_555
Cr6 O26 1.694408 1_555
Cr7 O19 1.645206 1_555
Cr7 O31 1.652941 1_555
Cr7 O23 1.687418 1_554
Cr7 O27 1.694408 1_555
