# generated using pymatgen
data_CaAgGe
_symmetry_space_group_name_H-M   'P 1'
_cell_length_a   4.56206583
_cell_length_b   7.85036080
_cell_length_c   21.56872064
_cell_angle_alpha   90.00000000
_cell_angle_beta   90.00000000
_cell_angle_gamma   90.00000000
_symmetry_Int_Tables_number   1
_chemical_formula_structural   CaAgGe
_chemical_formula_sum   'Ca12 Ag12 Ge12'
_cell_volume   772.45920088
_cell_formula_units_Z   12
loop_
 _symmetry_equiv_pos_site_id
 _symmetry_equiv_pos_as_xyz
  1  'x, y, z'
loop_
 _atom_site_type_symbol
 _atom_site_label
 _atom_site_symmetry_multiplicity
 _atom_site_fract_x
 _atom_site_fract_y
 _atom_site_fract_z
 _atom_site_occupancy
  Ca  Ca0  1  0.25000000  0.21935747  0.00025253  1
  Ca  Ca1  1  0.25000000  0.28064253  0.50025253  1
  Ca  Ca2  1  0.75000000  0.78064253  0.99974747  1
  Ca  Ca3  1  0.75000000  0.71935747  0.49974747  1
  Ca  Ca4  1  0.25000000  0.20712511  0.33376879  1
  Ca  Ca5  1  0.25000000  0.29287489  0.83376879  1
  Ca  Ca6  1  0.75000000  0.79287489  0.66623121  1
  Ca  Ca7  1  0.75000000  0.70712511  0.16623121  1
  Ca  Ca8  1  0.25000000  0.20782429  0.66723364  1
  Ca  Ca9  1  0.25000000  0.29217571  0.16723364  1
  Ca  Ca10  1  0.75000000  0.79217571  0.33276636  1
  Ca  Ca11  1  0.75000000  0.70782429  0.83276636  1
  Ag  Ag0  1  0.25000000  0.91206885  0.76355844  1
  Ag  Ag1  1  0.25000000  0.58793115  0.26355844  1
  Ag  Ag2  1  0.75000000  0.08793115  0.23644156  1
  Ag  Ag3  1  0.75000000  0.41206885  0.73644156  1
  Ag  Ag4  1  0.25000000  0.91891861  0.90409080  1
  Ag  Ag5  1  0.25000000  0.58108139  0.40409080  1
  Ag  Ag6  1  0.75000000  0.08108139  0.09590920  1
  Ag  Ag7  1  0.75000000  0.41891861  0.59590920  1
  Ag  Ag8  1  0.25000000  0.91827913  0.56438047  1
  Ag  Ag9  1  0.25000000  0.58172087  0.06438047  1
  Ag  Ag10  1  0.75000000  0.08172087  0.43561953  1
  Ag  Ag11  1  0.75000000  0.41827913  0.93561953  1
  Ge  Ge0  1  0.25000000  0.58343696  0.72778213  1
  Ge  Ge1  1  0.25000000  0.91656304  0.22778213  1
  Ge  Ge2  1  0.75000000  0.41656304  0.27221787  1
  Ge  Ge3  1  0.75000000  0.08343696  0.77221787  1
  Ge  Ge4  1  0.25000000  0.91105284  0.10305571  1
  Ge  Ge5  1  0.25000000  0.58894716  0.60305571  1
  Ge  Ge6  1  0.75000000  0.08894716  0.89694429  1
  Ge  Ge7  1  0.75000000  0.41105284  0.39694429  1
  Ge  Ge8  1  0.25000000  0.59276575  0.92701401  1
  Ge  Ge9  1  0.25000000  0.90723425  0.42701401  1
  Ge  Ge10  1  0.75000000  0.40723425  0.07298599  1
  Ge  Ge11  1  0.75000000  0.09276575  0.57298599  1
loop_
_geom_bond_atom_site_label_1
_geom_bond_atom_site_label_2
_geom_bond_distance
_geom_bond_site_symmetry_2
Ca0 Ge10 3.136794 1_455
Ca0 Ge10 3.136794 1_555
Ca0 Ge4 3.282443 1_545
Ca0 Ge8 3.329921 1_554
Ca0 Ge6 3.349060 1_554
Ca0 Ge6 3.349060 1_454
Ca1 Ge11 3.136794 1_555
Ca1 Ge11 3.136794 1_455
Ca1 Ge5 3.282443 1_555
Ca1 Ge9 3.329921 1_545
Ca1 Ge7 3.349060 1_555
Ca1 Ge7 3.349060 1_455
Ca2 Ge8 3.136794 1_555
Ca2 Ge8 3.136794 1_655
Ca2 Ge6 3.282443 1_565
Ca2 Ge10 3.329921 1_556
Ca2 Ge4 3.349060 1_556
Ca2 Ge4 3.349060 1_656
Ca3 Ge9 3.136794 1_555
Ca3 Ge9 3.136794 1_655
Ca3 Ge7 3.282443 1_555
Ca3 Ge11 3.329921 1_565
Ca3 Ge5 3.349060 1_655
Ca3 Ge5 3.349060 1_555
Ca4 Ge9 3.096344 1_545
Ca4 Ge7 3.102053 1_455
Ca4 Ge7 3.102053 1_555
Ca4 Ge2 3.109476 1_555
Ca4 Ge2 3.109476 1_455
Ca4 Ge1 3.229368 1_545
Ca5 Ge8 3.096344 1_555
Ca5 Ge6 3.102053 1_455
Ca5 Ge6 3.102053 1_555
Ca5 Ge3 3.109476 1_555
Ca5 Ge3 3.109476 1_455
Ca5 Ge0 3.229368 1_555
Ca6 Ge11 3.096344 1_565
Ca6 Ge5 3.102053 1_555
Ca6 Ge5 3.102053 1_655
Ca6 Ge0 3.109476 1_555
Ca6 Ge0 3.109476 1_655
Ca6 Ge3 3.229368 1_565
Ca7 Ge10 3.096344 1_555
Ca7 Ge4 3.102053 1_655
Ca7 Ge4 3.102053 1_555
Ca7 Ge1 3.109476 1_655
Ca7 Ge1 3.109476 1_555
Ca7 Ge2 3.229368 1_555
Ca8 Ge11 3.186103 1_455
Ca8 Ge11 3.186103 1_555
Ca8 Ge0 3.224952 1_555
Ca8 Ge5 3.296648 1_555
Ca8 Ge3 3.359171 1_455
Ca8 Ge3 3.359171 1_555
Ca9 Ge10 3.186103 1_555
Ca9 Ge10 3.186103 1_455
Ca9 Ge1 3.224952 1_545
Ca9 Ge4 3.296648 1_545
Ca9 Ge2 3.359171 1_455
Ca9 Ge2 3.359171 1_555
Ca10 Ge9 3.186103 1_555
Ca10 Ge9 3.186103 1_655
Ca10 Ge2 3.224952 1_555
Ca10 Ge7 3.296648 1_555
Ca10 Ge1 3.359171 1_655
Ca10 Ge1 3.359171 1_555
Ca11 Ge8 3.186103 1_555
Ca11 Ge8 3.186103 1_655
Ca11 Ge3 3.224952 1_565
Ca11 Ge6 3.296648 1_565
Ca11 Ge0 3.359171 1_655
Ca11 Ge0 3.359171 1_555
Ag0 Ge3 2.654775 1_465
Ag0 Ge3 2.654775 1_565
Ag0 Ge0 2.692809 1_555
Ag0 Ag4 3.031580 1_555
Ag0 Ca8 3.115626 1_565
Ag0 Ca11 3.162628 1_555
Ag0 Ca11 3.162628 1_455
Ag0 Ca6 3.238119 1_455
Ag0 Ca6 3.238119 1_555
Ag0 Ca5 3.351141 1_565
Ag1 Ge2 2.654775 1_555
Ag1 Ge2 2.654775 1_455
Ag1 Ge1 2.692809 1_555
Ag1 Ag5 3.031580 1_555
Ag1 Ca9 3.115626 1_555
Ag1 Ca10 3.162628 1_455
Ag1 Ca10 3.162628 1_555
Ag1 Ca7 3.238119 1_455
Ag1 Ca7 3.238119 1_555
Ag1 Ca4 3.351141 1_555
Ag2 Ge1 2.654775 1_645
Ag2 Ge1 2.654775 1_545
Ag2 Ge2 2.692809 1_555
Ag2 Ag6 3.031580 1_555
Ag2 Ca10 3.115626 1_545
Ag2 Ca9 3.162628 1_555
Ag2 Ca9 3.162628 1_655
Ag2 Ca4 3.238119 1_555
Ag2 Ca4 3.238119 1_655
Ag2 Ca7 3.351141 1_545
Ag3 Ge0 2.654775 1_555
Ag3 Ge0 2.654775 1_655
Ag3 Ge3 2.692809 1_555
Ag3 Ag7 3.031580 1_555
Ag3 Ca11 3.115626 1_555
Ag3 Ca8 3.162628 1_655
Ag3 Ca8 3.162628 1_555
Ag3 Ca5 3.238119 1_655
Ag3 Ca5 3.238119 1_555
Ag3 Ca6 3.351141 1_555
Ag4 Ge8 2.607718 1_555
Ag4 Ge6 2.647361 1_565
Ag4 Ge6 2.647361 1_465
Ag4 Ca0 3.140797 1_566
Ag4 Ca11 3.211840 1_455
Ag4 Ca11 3.211840 1_555
Ag4 Ca2 3.261628 1_455
Ag4 Ca2 3.261628 1_555
Ag4 Ca5 3.304366 1_565
Ag5 Ge9 2.607718 1_555
Ag5 Ge7 2.647361 1_455
Ag5 Ge7 2.647361 1_555
Ag5 Ca1 3.140797 1_555
Ag5 Ca10 3.211840 1_455
Ag5 Ca10 3.211840 1_555
Ag5 Ca3 3.261628 1_555
Ag5 Ca3 3.261628 1_455
Ag5 Ca4 3.304366 1_555
Ag6 Ge10 2.607718 1_555
Ag6 Ge4 2.647361 1_545
Ag6 Ge4 2.647361 1_645
Ag6 Ca2 3.140797 1_544
Ag6 Ca9 3.211840 1_655
Ag6 Ca9 3.211840 1_555
Ag6 Ca0 3.261628 1_655
Ag6 Ca0 3.261628 1_555
Ag6 Ca7 3.304366 1_545
Ag7 Ge11 2.607718 1_555
Ag7 Ge5 2.647361 1_555
Ag7 Ge5 2.647361 1_655
Ag7 Ca3 3.140797 1_555
Ag7 Ca8 3.211840 1_555
Ag7 Ca8 3.211840 1_655
Ag7 Ca1 3.261628 1_655
Ag7 Ca1 3.261628 1_555
Ag7 Ca6 3.304366 1_555
Ag8 Ge11 2.667183 1_565
Ag8 Ge11 2.667183 1_465
Ag8 Ge5 2.716618 1_555
Ag8 Ge9 2.964087 1_555
Ag8 Ca3 3.095982 1_455
Ag8 Ca3 3.095982 1_555
Ag8 Ca1 3.163123 1_565
Ag8 Ca8 3.176166 1_565
Ag8 Ca6 3.316350 1_455
Ag8 Ca6 3.316350 1_555
Ag9 Ge10 2.667183 1_455
Ag9 Ge10 2.667183 1_555
Ag9 Ge4 2.716618 1_555
Ag9 Ge8 2.964087 1_554
Ag9 Ca2 3.095982 1_454
Ag9 Ca2 3.095982 1_554
Ag9 Ca0 3.163123 1_555
Ag9 Ca9 3.176166 1_555
Ag9 Ca7 3.316350 1_455
Ag9 Ca7 3.316350 1_555
Ag10 Ge9 2.667183 1_645
Ag10 Ge9 2.667183 1_545
Ag10 Ge7 2.716618 1_555
Ag10 Ge11 2.964087 1_555
Ag10 Ca1 3.095982 1_655
Ag10 Ca1 3.095982 1_555
Ag10 Ca3 3.163123 1_545
Ag10 Ca10 3.176166 1_545
Ag10 Ca4 3.316350 1_555
Ag10 Ca4 3.316350 1_655
Ag11 Ge8 2.667183 1_555
Ag11 Ge8 2.667183 1_655
Ag11 Ge6 2.716618 1_555
Ag11 Ge10 2.964087 1_556
Ag11 Ca0 3.095982 1_556
Ag11 Ca0 3.095982 1_656
Ag11 Ca2 3.163123 1_555
Ag11 Ca11 3.176166 1_555
Ag11 Ca5 3.316350 1_555
Ag11 Ca5 3.316350 1_655
Ge0 Ge5 2.690537 1_555
Ge1 Ge4 2.690537 1_555
Ge2 Ge7 2.690537 1_555
Ge3 Ge6 2.690537 1_555
