# generated using pymatgen
data_Y2NiGe6
_symmetry_space_group_name_H-M   'P 1'
_cell_length_a   4.02503500
_cell_length_b   4.06897600
_cell_length_c   10.88954535
_cell_angle_alpha   90.00000000
_cell_angle_beta   100.65016828
_cell_angle_gamma   90.00000000
_symmetry_Int_Tables_number   1
_chemical_formula_structural   Y2NiGe6
_chemical_formula_sum   'Y2 Ni1 Ge6'
_cell_volume   175.27426452
_cell_formula_units_Z   1
loop_
 _symmetry_equiv_pos_site_id
 _symmetry_equiv_pos_as_xyz
  1  'x, y, z'
loop_
 _atom_site_type_symbol
 _atom_site_label
 _atom_site_symmetry_multiplicity
 _atom_site_fract_x
 _atom_site_fract_y
 _atom_site_fract_z
 _atom_site_occupancy
  Y  Y0  1  0.77694400  0.50000000  0.55388900  1
  Y  Y1  1  0.11413700  0.50000000  0.22827400  1
  Ni  Ni0  1  0.55543900  0.00000000  0.11087700  1
  Ge  Ge0  1  0.49873600  0.50000000  0.99747100  1
  Ge  Ge1  1  0.38211300  0.50000000  0.76422600  1
  Ge  Ge2  1  0.99849200  0.00000000  0.99698400  1
  Ge  Ge3  1  0.88123600  0.00000000  0.76247200  1
  Ge  Ge4  1  0.66285600  0.00000000  0.32571100  1
  Ge  Ge5  1  0.23704700  0.00000000  0.47409500  1
loop_
_geom_bond_atom_site_label_1
_geom_bond_atom_site_label_2
_geom_bond_distance
_geom_bond_site_symmetry_2
Ni0 Y1 3.125355 1_655
Ni0 Y1 3.125355 1_645
Ni0 Y1 3.125358 1_545
Ni0 Y1 3.125358 1_555
Ge0 Ni0 2.368993 1_566
Ge0 Ni0 2.368993 1_556
Ge0 Ge1 2.496179 1_555
Ge0 Ge2 2.861711 1_565
Ge0 Ge2 2.861711 1_555
Ge0 Ge2 2.861713 1_455
Ge0 Ge2 2.861713 1_465
Ge0 Y1 3.186117 1_656
Ge0 Y1 3.186119 1_556
Ge1 Ge3 2.861769 1_455
Ge1 Ge3 2.861769 1_465
Ge1 Ge3 2.861769 1_555
Ge1 Ge3 2.861769 1_565
Ge1 Y0 3.019487 1_555
Ge1 Y0 3.019490 1_455
Ge2 Ni0 2.352846 1_556
Ge2 Ni0 2.352849 1_656
Ge2 Ge3 2.509738 1_555
Ge2 Y1 3.204066 1_656
Ge2 Y1 3.204066 1_646
Ge3 Y0 3.020276 1_545
Ge3 Y0 3.020276 1_555
Ge4 Ni0 2.299145 1_555
Ge4 Ge5 2.563582 1_655
Ge4 Ge5 2.563589 1_555
Ge4 Y1 3.045771 1_645
Ge4 Y1 3.045771 1_655
Ge4 Y1 3.045774 1_545
Ge4 Y1 3.045774 1_555
Ge4 Y0 3.178407 1_555
Ge4 Y0 3.178407 1_545
Ge5 Y0 2.986403 1_545
Ge5 Y0 2.986403 1_555
Ge5 Y0 2.986403 1_445
Ge5 Y0 2.986403 1_455
Ge5 Y1 3.325669 1_545
Ge5 Y1 3.325669 1_555
