# generated using pymatgen
data_Tm5Pt4
_symmetry_space_group_name_H-M   'P 1'
_cell_length_a   7.37463598
_cell_length_b   7.45549399
_cell_length_c   14.31985691
_cell_angle_alpha   90.00000000
_cell_angle_beta   90.00000000
_cell_angle_gamma   90.00000000
_symmetry_Int_Tables_number   1
_chemical_formula_structural   Tm5Pt4
_chemical_formula_sum   'Tm20 Pt16'
_cell_volume   787.32798922
_cell_formula_units_Z   4
loop_
 _symmetry_equiv_pos_site_id
 _symmetry_equiv_pos_as_xyz
  1  'x, y, z'
loop_
 _atom_site_type_symbol
 _atom_site_label
 _atom_site_symmetry_multiplicity
 _atom_site_fract_x
 _atom_site_fract_y
 _atom_site_fract_z
 _atom_site_occupancy
  Tm  Tm0  1  0.34803704  0.83261378  0.87742181  1
  Tm  Tm1  1  0.84803704  0.66738622  0.62257819  1
  Tm  Tm2  1  0.65196296  0.16738622  0.37742181  1
  Tm  Tm3  1  0.15196296  0.33261378  0.12257819  1
  Tm  Tm4  1  0.65196296  0.16738622  0.12257819  1
  Tm  Tm5  1  0.15196296  0.33261378  0.37742181  1
  Tm  Tm6  1  0.34803704  0.83261378  0.62257819  1
  Tm  Tm7  1  0.84803704  0.66738622  0.87742181  1
  Tm  Tm8  1  0.50289399  0.32046038  0.90691440  1
  Tm  Tm9  1  0.00289399  0.17953962  0.59308560  1
  Tm  Tm10  1  0.49710601  0.67953962  0.40691440  1
  Tm  Tm11  1  0.99710601  0.82046038  0.09308560  1
  Tm  Tm12  1  0.49710601  0.67953962  0.09308560  1
  Tm  Tm13  1  0.99710601  0.82046038  0.40691440  1
  Tm  Tm14  1  0.50289399  0.32046038  0.59308560  1
  Tm  Tm15  1  0.00289399  0.17953962  0.90691440  1
  Tm  Tm16  1  0.18609992  0.48960982  0.75000000  1
  Tm  Tm17  1  0.68609992  0.01039018  0.75000000  1
  Tm  Tm18  1  0.81390008  0.51039018  0.25000000  1
  Tm  Tm19  1  0.31390008  0.98960982  0.25000000  1
  Pt  Pt0  1  0.31273872  0.03289181  0.04106181  1
  Pt  Pt1  1  0.81273872  0.46710819  0.45893819  1
  Pt  Pt2  1  0.68726128  0.96710819  0.54106181  1
  Pt  Pt3  1  0.18726128  0.53289181  0.95893819  1
  Pt  Pt4  1  0.68726128  0.96710819  0.95893819  1
  Pt  Pt5  1  0.18726128  0.53289181  0.54106181  1
  Pt  Pt6  1  0.31273872  0.03289181  0.45893819  1
  Pt  Pt7  1  0.81273872  0.46710819  0.04106181  1
  Pt  Pt8  1  0.55159602  0.61184222  0.75000000  1
  Pt  Pt9  1  0.05159602  0.88815778  0.75000000  1
  Pt  Pt10  1  0.44840398  0.38815778  0.25000000  1
  Pt  Pt11  1  0.94840398  0.11184222  0.25000000  1
  Pt  Pt12  1  0.32290339  0.14349237  0.75000000  1
  Pt  Pt13  1  0.82290339  0.35650763  0.75000000  1
  Pt  Pt14  1  0.67709661  0.85650763  0.25000000  1
  Pt  Pt15  1  0.17709661  0.64349237  0.25000000  1
loop_
_geom_bond_atom_site_label_1
_geom_bond_atom_site_label_2
_geom_bond_distance
_geom_bond_site_symmetry_2
Pt0 Tm3 2.785986 1_555
Pt0 Tm0 2.790768 1_544
Pt0 Tm11 2.912289 1_445
Pt0 Tm4 2.937061 1_555
Pt0 Tm19 3.009328 1_545
Pt0 Tm12 3.056755 1_545
Pt0 Tm15 3.179103 1_554
Pt0 Tm8 3.202068 1_554
Pt1 Tm2 2.785986 1_555
Pt1 Tm1 2.790768 1_555
Pt1 Tm10 2.912289 1_555
Pt1 Tm5 2.937061 1_655
Pt1 Tm18 3.009328 1_555
Pt1 Tm13 3.056755 1_555
Pt1 Tm14 3.179103 1_555
Pt1 Tm9 3.202068 1_655
Pt2 Tm1 2.785986 1_555
Pt2 Tm2 2.790768 1_565
Pt2 Tm9 2.912289 1_665
Pt2 Tm6 2.937061 1_555
Pt2 Tm17 3.009328 1_565
Pt2 Tm14 3.056755 1_565
Pt2 Tm13 3.179103 1_555
Pt2 Tm10 3.202068 1_555
Pt3 Tm0 2.785986 1_555
Pt3 Tm3 2.790768 1_556
Pt3 Tm8 2.912289 1_555
Pt3 Tm7 2.937061 1_455
Pt3 Tm16 3.009328 1_555
Pt3 Tm15 3.056755 1_555
Pt3 Tm12 3.179103 1_556
Pt3 Tm11 3.202068 1_456
Pt4 Tm7 2.785986 1_555
Pt4 Tm4 2.790768 1_566
Pt4 Tm15 2.912289 1_665
Pt4 Tm0 2.937061 1_555
Pt4 Tm17 3.009328 1_565
Pt4 Tm8 3.056755 1_565
Pt4 Tm11 3.179103 1_556
Pt4 Tm12 3.202068 1_556
Pt5 Tm6 2.785986 1_555
Pt5 Tm5 2.790768 1_555
Pt5 Tm14 2.912289 1_555
Pt5 Tm1 2.937061 1_455
Pt5 Tm16 3.009328 1_555
Pt5 Tm9 3.056755 1_555
Pt5 Tm10 3.179103 1_555
Pt5 Tm13 3.202068 1_455
Pt6 Tm5 2.785986 1_555
Pt6 Tm6 2.790768 1_545
Pt6 Tm13 2.912289 1_445
Pt6 Tm2 2.937061 1_555
Pt6 Tm19 3.009328 1_545
Pt6 Tm10 3.056755 1_545
Pt6 Tm9 3.179103 1_555
Pt6 Tm14 3.202068 1_555
Pt7 Tm4 2.785986 1_555
Pt7 Tm7 2.790768 1_554
Pt7 Tm12 2.912289 1_555
Pt7 Tm3 2.937061 1_655
Pt7 Tm18 3.009328 1_555
Pt7 Tm11 3.056755 1_555
Pt7 Tm8 3.179103 1_554
Pt7 Tm15 3.202068 1_654
Pt8 Tm16 2.845287 1_555
Pt8 Tm7 2.877517 1_555
Pt8 Tm1 2.877517 1_555
Pt8 Tm6 2.879601 1_555
Pt8 Tm0 2.879601 1_555
Pt8 Tm17 3.132563 1_565
Pt8 Tm14 3.145993 1_555
Pt8 Tm8 3.145993 1_555
Pt9 Tm17 2.845287 1_465
Pt9 Tm0 2.877517 1_555
Pt9 Tm6 2.877517 1_555
Pt9 Tm1 2.879601 1_455
Pt9 Tm7 2.879601 1_455
Pt9 Tm16 3.132563 1_555
Pt9 Tm9 3.145993 1_565
Pt9 Tm15 3.145993 1_565
Pt10 Pt15 2.761709 1_555
Pt10 Tm18 2.845287 1_555
Pt10 Tm3 2.877517 1_555
Pt10 Tm5 2.877517 1_555
Pt10 Tm4 2.879601 1_555
Pt10 Tm2 2.879601 1_555
Pt10 Tm19 3.132563 1_545
Pt10 Tm10 3.145993 1_555
Pt10 Tm12 3.145993 1_555
Pt11 Pt14 2.761709 1_545
Pt11 Tm19 2.845287 1_645
Pt11 Tm4 2.877517 1_555
Pt11 Tm2 2.877517 1_555
Pt11 Tm3 2.879601 1_655
Pt11 Tm5 2.879601 1_655
Pt11 Tm18 3.132563 1_555
Pt11 Tm13 3.145993 1_545
Pt11 Tm11 3.145993 1_545
Pt12 Pt9 2.761709 1_545
Pt12 Tm16 2.770684 1_555
Pt12 Tm17 2.856361 1_555
Pt12 Tm14 2.924319 1_555
Pt12 Tm8 2.924319 1_555
Pt12 Tm6 2.955627 1_545
Pt12 Tm0 2.955627 1_545
Pt12 Tm9 3.269645 1_555
Pt12 Tm15 3.269645 1_555
Pt13 Pt8 2.761709 1_555
Pt13 Tm17 2.770684 1_555
Pt13 Tm16 2.856361 1_655
Pt13 Tm15 2.924319 1_655
Pt13 Tm9 2.924319 1_655
Pt13 Tm1 2.955627 1_555
Pt13 Tm7 2.955627 1_555
Pt13 Tm14 3.269645 1_555
Pt13 Tm8 3.269645 1_555
Pt14 Tm18 2.770684 1_555
Pt14 Tm19 2.856361 1_555
Pt14 Tm10 2.924319 1_555
Pt14 Tm12 2.924319 1_555
Pt14 Tm2 2.955627 1_565
Pt14 Tm4 2.955627 1_565
Pt14 Tm11 3.269645 1_555
Pt14 Tm13 3.269645 1_555
Pt15 Tm19 2.770684 1_555
Pt15 Tm18 2.856361 1_455
Pt15 Tm13 2.924319 1_455
Pt15 Tm11 2.924319 1_455
Pt15 Tm3 2.955627 1_555
Pt15 Tm5 2.955627 1_555
Pt15 Tm10 3.269645 1_555
Pt15 Tm12 3.269645 1_555
