# generated using pymatgen
data_Al3V
_symmetry_space_group_name_H-M   'P 1'
_cell_length_a   3.90535200
_cell_length_b   3.90535200
_cell_length_c   3.90535200
_cell_angle_alpha   90.00000000
_cell_angle_beta   90.00000000
_cell_angle_gamma   90.00000000
_symmetry_Int_Tables_number   1
_chemical_formula_structural   Al3V
_chemical_formula_sum   'Al3 V1'
_cell_volume   59.56354705
_cell_formula_units_Z   1
loop_
 _symmetry_equiv_pos_site_id
 _symmetry_equiv_pos_as_xyz
  1  'x, y, z'
loop_
 _atom_site_type_symbol
 _atom_site_label
 _atom_site_symmetry_multiplicity
 _atom_site_fract_x
 _atom_site_fract_y
 _atom_site_fract_z
 _atom_site_occupancy
  Al  Al0  1  0.50000000  0.50000000  0.00000000  1
  Al  Al1  1  0.50000000  0.00000000  0.50000000  1
  Al  Al2  1  0.00000000  0.50000000  0.50000000  1
  V  V0  1  0.00000000  0.00000000  0.00000000  1
loop_
_geom_bond_atom_site_label_1
_geom_bond_atom_site_label_2
_geom_bond_distance
_geom_bond_site_symmetry_2
Al0 Al1 2.761501 1_555
Al0 V0 2.761501 1_565
Al0 Al1 2.761501 1_564
Al0 Al1 2.761501 1_565
Al0 V0 2.761501 1_655
Al0 Al2 2.761501 1_555
Al0 V0 2.761501 1_665
Al0 Al2 2.761501 1_654
Al0 Al1 2.761501 1_554
Al0 V0 2.761501 1_555
Al0 Al2 2.761501 1_554
Al0 Al2 2.761501 1_655
Al1 Al2 2.761501 1_545
Al1 V0 2.761501 1_656
Al1 V0 2.761501 1_655
Al1 Al2 2.761501 1_645
Al1 Al2 2.761501 1_555
Al1 V0 2.761501 1_555
Al1 V0 2.761501 1_556
Al1 Al2 2.761501 1_655
Al2 V0 2.761501 1_565
Al2 V0 2.761501 1_566
Al2 V0 2.761501 1_555
Al2 V0 2.761501 1_556
