# generated using pymatgen
data_RbLa2Ti2NbO10
_symmetry_space_group_name_H-M   'P 1'
_cell_length_a   3.88552900
_cell_length_b   3.88552900
_cell_length_c   15.46325700
_cell_angle_alpha   90.00000000
_cell_angle_beta   90.00000000
_cell_angle_gamma   90.00000000
_symmetry_Int_Tables_number   1
_chemical_formula_structural   RbLa2Ti2NbO10
_chemical_formula_sum   'Rb1 La2 Ti2 Nb1 O10'
_cell_volume   233.45398055
_cell_formula_units_Z   1
loop_
 _symmetry_equiv_pos_site_id
 _symmetry_equiv_pos_as_xyz
  1  'x, y, z'
loop_
 _atom_site_type_symbol
 _atom_site_label
 _atom_site_symmetry_multiplicity
 _atom_site_fract_x
 _atom_site_fract_y
 _atom_site_fract_z
 _atom_site_occupancy
  Rb  Rb0  1  0.50000000  0.50000000  0.50886600  1
  La  La0  1  0.50000000  0.50000000  0.84336700  1
  La  La1  1  0.50000000  0.50000000  0.12944300  1
  Ti  Ti0  1  0.00000000  0.00000000  0.99758300  1
  Ti  Ti1  1  0.00000000  0.00000000  0.71048100  1
  Nb  Nb0  1  0.00000000  0.00000000  0.28561900  1
  O  O0  1  0.00000000  0.00000000  0.87677900  1
  O  O1  1  0.00000000  0.00000000  0.12969200  1
  O  O2  1  0.00000000  0.00000000  0.60067700  1
  O  O3  1  0.00000000  0.00000000  0.40146300  1
  O  O4  1  0.50000000  0.00000000  0.00786800  1
  O  O5  1  0.00000000  0.50000000  0.00786800  1
  O  O6  1  0.50000000  0.00000000  0.74712500  1
  O  O7  1  0.00000000  0.50000000  0.74712500  1
  O  O8  1  0.50000000  0.00000000  0.25302300  1
  O  O9  1  0.00000000  0.50000000  0.25302300  1
loop_
_geom_bond_atom_site_label_1
_geom_bond_atom_site_label_2
_geom_bond_distance
_geom_bond_site_symmetry_2
La0 O6 2.447267 1_555
La0 O6 2.447267 1_565
La0 O7 2.447267 1_555
La0 O7 2.447267 1_655
La0 O0 2.795640 1_655
La0 O0 2.795640 1_555
La0 O0 2.795640 1_565
La0 O0 2.795640 1_665
La0 O5 3.200758 1_556
La0 O4 3.200758 1_566
La0 O5 3.200758 1_656
La0 O4 3.200758 1_556
La1 O5 2.703429 1_555
La1 O5 2.703429 1_655
La1 O4 2.703429 1_565
La1 O4 2.703429 1_555
La1 O8 2.725080 1_565
La1 O9 2.725080 1_555
La1 O9 2.725080 1_655
La1 O8 2.725080 1_555
La1 O1 2.747487 1_555
La1 O1 2.747487 1_565
La1 O1 2.747487 1_665
La1 O1 2.747487 1_655
Nb0 O3 1.791326 1_555
Nb0 O9 2.007085 1_555
Nb0 O9 2.007085 1_545
Nb0 O8 2.007085 1_455
Nb0 O8 2.007085 1_555
Nb0 O1 2.411139 1_555
O0 Ti0 1.868023 1_555
O1 Ti0 2.042835 1_554
O2 Ti1 1.697927 1_555
O2 Rb0 3.092605 1_555
O2 Rb0 3.092605 1_545
O2 Rb0 3.092605 1_445
O2 Rb0 3.092605 1_455
O3 Rb0 3.210440 1_445
O3 Rb0 3.210440 1_455
O3 Rb0 3.210440 1_555
O3 Rb0 3.210440 1_545
O4 Ti0 1.949263 1_554
O4 Ti0 1.949263 1_654
O5 Ti0 1.949263 1_554
O5 Ti0 1.949263 1_564
O6 Ti1 2.023712 1_555
O6 Ti1 2.023712 1_655
O7 Ti1 2.023712 1_565
O7 Ti1 2.023712 1_555
