# generated using pymatgen
data_Sr4CuIr2O9
_symmetry_space_group_name_H-M   'P 1'
_cell_length_a   8.07284100
_cell_length_b   9.80417442
_cell_length_c   9.85074091
_cell_angle_alpha   119.63833919
_cell_angle_beta   90.12610532
_cell_angle_gamma   90.03088564
_symmetry_Int_Tables_number   1
_chemical_formula_structural   Sr4CuIr2O9
_chemical_formula_sum   'Sr12 Cu3 Ir6 O27'
_cell_volume   677.65141471
_cell_formula_units_Z   3
loop_
 _symmetry_equiv_pos_site_id
 _symmetry_equiv_pos_as_xyz
  1  'x, y, z'
loop_
 _atom_site_type_symbol
 _atom_site_label
 _atom_site_symmetry_multiplicity
 _atom_site_fract_x
 _atom_site_fract_y
 _atom_site_fract_z
 _atom_site_occupancy
  Sr  Sr0  1  0.25448200  0.69390500  0.66685200  1
  Sr  Sr1  1  0.25247500  0.32974200  0.02296200  1
  Sr  Sr2  1  0.25249800  0.98864300  0.32411800  1
  Sr  Sr3  1  0.75196600  0.02684500  0.33902000  1
  Sr  Sr4  1  0.74472800  0.67079500  0.69280900  1
  Sr  Sr5  1  0.74406000  0.31604300  0.98687700  1
  Sr  Sr6  1  0.00098500  0.00403900  0.67816500  1
  Sr  Sr7  1  0.99949900  0.32184400  0.32275200  1
  Sr  Sr8  1  0.99944000  0.67554200  0.00516500  1
  Sr  Sr9  1  0.49703500  0.00665300  0.65297500  1
  Sr  Sr10  1  0.50051600  0.35899500  0.35881000  1
  Sr  Sr11  1  0.50354700  0.64157200  0.00719100  1
  Cu  Cu0  1  0.49998800  0.99997700  0.06181300  1
  Cu  Cu1  1  0.73420900  0.72589500  0.38912200  1
  Cu  Cu2  1  0.26609700  0.38976300  0.72641100  1
  Ir  Ir0  1  0.07880000  0.66110300  0.32968800  1
  Ir  Ir1  1  0.92108200  0.33359500  0.66459400  1
  Ir  Ir2  1  0.15573400  0.99836100  0.99712700  1
  Ir  Ir3  1  0.84415000  0.99765700  0.99578800  1
  Ir  Ir4  1  0.39065800  0.66245800  0.33114700  1
  Ir  Ir5  1  0.60926700  0.33346100  0.66428000  1
  O  O0  1  0.30899000  0.15526400  0.16448500  1
  O  O1  1  0.31187600  0.84056100  0.00162200  1
  O  O2  1  0.28848200  0.00572600  0.83195500  1
  O  O3  1  0.70991800  0.99501600  0.82651900  1
  O  O4  1  0.69124500  0.15943900  0.15810700  1
  O  O5  1  0.68866500  0.84296800  0.00757900  1
  O  O6  1  0.23694300  0.64309600  0.15204600  1
  O  O7  1  0.23678400  0.84624400  0.49217500  1
  O  O8  1  0.23625400  0.50220000  0.35181600  1
  O  O9  1  0.76398500  0.49635600  0.84935100  1
  O  O10  1  0.76293100  0.15474100  0.64475500  1
  O  O11  1  0.76329400  0.35435900  0.50497900  1
  O  O12  1  0.05069200  0.17876500  0.49040900  1
  O  O13  1  0.07736000  0.50175000  0.68853100  1
  O  O14  1  0.07824500  0.31824600  0.81163500  1
  O  O15  1  0.92361700  0.68425200  0.49732200  1
  O  O16  1  0.94676900  0.48741200  0.17619100  1
  O  O17  1  0.92213200  0.80878600  0.31416500  1
  O  O18  1  0.47378900  0.17398100  0.48779100  1
  O  O19  1  0.45550500  0.50679500  0.68670300  1
  O  O20  1  0.45595700  0.31947600  0.81878400  1
  O  O21  1  0.54343600  0.68476300  0.50488700  1
  O  O22  1  0.52535100  0.48391000  0.17185300  1
  O  O23  1  0.54646300  0.81668300  0.31881100  1
  O  O24  1  0.00107400  0.99498600  0.16482000  1
  O  O25  1  0.00040900  0.83258200  0.83016700  1
  O  O26  1  0.99861800  0.16225700  0.99247600  1
loop_
_geom_bond_atom_site_label_1
_geom_bond_atom_site_label_2
_geom_bond_distance
_geom_bond_site_symmetry_2
Cu0 O5 2.041505 1_555
Cu0 O1 2.043871 1_555
Cu0 O0 2.050537 1_565
Cu0 O4 2.062058 1_565
Cu1 O15 2.016096 1_555
Cu1 O17 2.025897 1_555
Cu1 O23 2.043466 1_555
Cu1 O21 2.072875 1_555
Cu2 O13 2.017599 1_555
Cu2 O14 2.020606 1_555
Cu2 O19 2.062085 1_555
Cu2 O20 2.065730 1_555
Ir0 O16 1.940752 1_455
Ir0 O17 1.984826 1_455
Ir0 O15 1.996630 1_455
Ir0 O8 2.104065 1_555
Ir0 O6 2.104218 1_555
Ir0 O7 2.144371 1_555
Ir1 O12 1.943377 1_655
Ir1 O14 1.984470 1_655
Ir1 O13 1.994284 1_655
Ir1 O10 2.097760 1_555
Ir1 O11 2.108140 1_555
Ir1 O9 2.146405 1_555
Ir2 O2 1.981109 1_565
Ir2 O1 2.013447 1_556
Ir2 O0 2.023772 1_566
Ir2 O25 2.064902 1_555
Ir2 O26 2.065826 1_465
Ir2 O24 2.086104 1_556
Ir3 O3 1.975994 1_555
Ir3 O5 2.015419 1_556
Ir3 O4 2.024502 1_566
Ir3 O26 2.051923 1_565
Ir3 O25 2.066896 1_655
Ir3 O24 2.100459 1_656
Ir4 O22 2.000431 1_555
Ir4 O23 2.015799 1_555
Ir4 O21 2.029372 1_555
Ir4 O6 2.085054 1_555
Ir4 O8 2.092661 1_555
Ir4 O7 2.118999 1_555
Ir5 O18 1.991150 1_555
Ir5 O20 2.020271 1_555
Ir5 O19 2.027259 1_555
Ir5 O10 2.077530 1_555
Ir5 O11 2.092107 1_555
Ir5 O9 2.131292 1_555
O0 Sr10 2.499317 1_555
O0 Sr1 2.726642 1_555
O0 Sr2 2.809336 1_545
O0 Sr7 2.973801 1_455
O1 Sr11 2.512384 1_555
O1 Sr2 2.806343 1_555
O1 Sr0 2.908604 1_554
O1 Sr8 3.005378 1_455
O2 Sr9 2.443770 1_555
O2 Sr0 2.673220 1_545
O2 Sr6 2.764361 1_555
O2 Sr1 2.794270 1_556
O3 Sr9 2.463575 1_565
O3 Sr5 2.749041 1_565
O3 Sr4 2.789214 1_555
O3 Sr6 2.794195 1_665
O4 Sr10 2.509641 1_555
O4 Sr3 2.719262 1_555
O4 Sr5 2.819243 1_554
O4 Sr7 2.963463 1_555
O5 Sr11 2.474145 1_555
O5 Sr4 2.738421 1_554
O5 Sr3 2.888104 1_565
O5 Sr8 2.992551 1_555
O6 Sr8 2.512861 1_455
O6 Sr11 2.580892 1_555
O6 Sr1 2.684828 1_555
O6 Sr2 2.947063 1_555
O7 Sr6 2.566871 1_565
O7 Sr9 2.629520 1_565
O7 Sr2 2.644331 1_555
O7 Sr0 2.784401 1_555
O8 Sr7 2.520893 1_455
O8 Sr10 2.573985 1_555
O8 Sr0 2.722818 1_555
O8 Sr1 2.820435 1_555
O9 Sr8 2.524236 1_556
O9 Sr11 2.587106 1_556
O9 Sr5 2.712141 1_555
O9 Sr4 2.816843 1_555
O10 Sr6 2.542789 1_655
O10 Sr9 2.614539 1_555
O10 Sr3 2.629488 1_555
O10 Sr5 2.934843 1_555
O11 Sr7 2.531741 1_555
O11 Sr10 2.574272 1_555
O11 Sr4 2.719400 1_555
O11 Sr3 2.792607 1_555
O12 Sr2 2.409772 1_545
O12 Sr7 2.674912 1_455
O12 Sr3 2.835753 1_455
O12 Sr6 3.106845 1_555
O13 Sr0 2.456760 1_555
O13 Sr8 2.789447 1_456
O13 Sr4 3.145719 1_455
O13 Sr7 3.192525 1_455
O14 Sr1 2.465665 1_556
O14 Sr6 2.756054 1_555
O14 Sr8 3.116541 1_456
O14 Sr5 3.211855 1_455
O15 Sr4 2.464663 1_555
O15 Sr6 2.803982 1_665
O15 Sr0 3.123455 1_655
O15 Sr7 3.149739 1_555
O16 Sr5 2.421411 1_554
O16 Sr7 2.686347 1_555
O16 Sr1 2.910549 1_655
O16 Sr8 3.081696 1_555
O17 Sr3 2.450422 1_565
O17 Sr8 2.727209 1_555
O17 Sr2 3.170906 1_655
O17 Sr6 3.182226 1_665
O18 Sr2 2.485745 1_545
O18 Sr3 2.683057 1_555
O18 Sr10 2.689119 1_555
O18 Sr9 2.830794 1_555
O19 Sr0 2.528567 1_555
O19 Sr11 2.780555 1_556
O19 Sr4 2.817822 1_555
O19 Sr10 2.835699 1_555
O20 Sr1 2.562883 1_556
O20 Sr9 2.689428 1_555
O20 Sr11 2.786262 1_556
O20 Sr5 2.861920 1_555
O21 Sr4 2.514744 1_555
O21 Sr9 2.770963 1_565
O21 Sr10 2.800472 1_555
O21 Sr0 2.805377 1_555
O22 Sr5 2.489475 1_554
O22 Sr1 2.660462 1_555
O22 Sr10 2.676548 1_555
O22 Sr11 2.744117 1_555
O23 Sr3 2.574213 1_565
O23 Sr11 2.696810 1_555
O23 Sr2 2.897331 1_555
O23 Sr9 2.899423 1_565
O24 Sr3 2.563614 1_465
O24 Sr2 2.582364 1_555
O24 Sr8 2.722234 1_455
O24 Sr7 2.785503 1_465
O25 Sr4 2.543355 1_455
O25 Sr0 2.549089 1_555
O25 Sr6 2.749041 1_565
O25 Sr8 2.822655 1_456
O26 Sr1 2.547996 1_656
O26 Sr5 2.566023 1_555
O26 Sr6 2.691300 1_655
O26 Sr7 2.828130 1_556
