# generated using pymatgen
data_Li2CrNiO4
_symmetry_space_group_name_H-M   'P 1'
_cell_length_a   5.12710931
_cell_length_b   5.76286700
_cell_length_c   5.12711925
_cell_angle_alpha   89.99963043
_cell_angle_beta   68.43970542
_cell_angle_gamma   89.99989023
_symmetry_Int_Tables_number   1
_chemical_formula_structural   Li2CrNiO4
_chemical_formula_sum   'Li4 Cr2 Ni2 O8'
_cell_volume   140.89065536
_cell_formula_units_Z   2
loop_
 _symmetry_equiv_pos_site_id
 _symmetry_equiv_pos_as_xyz
  1  'x, y, z'
loop_
 _atom_site_type_symbol
 _atom_site_label
 _atom_site_symmetry_multiplicity
 _atom_site_fract_x
 _atom_site_fract_y
 _atom_site_fract_z
 _atom_site_occupancy
  Li  Li0  1  0.49999900  0.24995300  0.00000200  1
  Li  Li1  1  0.99999800  0.75004000  0.49999300  1
  Li  Li2  1  0.49999700  0.00000300  0.49999700  1
  Li  Li3  1  0.99999900  0.49999600  0.00000000  1
  Cr  Cr0  1  0.00001000  0.24324300  0.49999000  1
  Cr  Cr1  1  0.50001100  0.75680700  0.99998700  1
  Ni  Ni0  1  0.50000300  0.49999200  0.50000200  1
  Ni  Ni1  1  0.00000100  0.99998700  0.00000700  1
  O  O0  1  0.77166800  0.25507500  0.26734000  1
  O  O1  1  0.26733700  0.74492000  0.77167100  1
  O  O2  1  0.22832900  0.25508300  0.73265900  1
  O  O3  1  0.73265800  0.74491800  0.22834100  1
  O  O4  1  0.24341500  0.99999800  0.24342900  1
  O  O5  1  0.72405100  0.49999500  0.72405100  1
  O  O6  1  0.75657500  0.99999600  0.75658300  1
  O  O7  1  0.27594800  0.49999500  0.27594700  1
loop_
_geom_bond_atom_site_label_1
_geom_bond_atom_site_label_2
_geom_bond_distance
_geom_bond_site_symmetry_2
Li0 O6 2.038735 1_544
Li0 O4 2.038752 1_545
Li0 O7 2.050161 1_555
Li0 O5 2.050167 1_554
Li0 O0 2.285365 1_555
Li0 O2 2.285391 1_554
Li1 O4 2.038702 1_655
Li1 O6 2.038770 1_555
Li1 O7 2.050175 1_655
Li1 O5 2.050180 1_555
Li1 O3 2.285302 1_555
Li1 O1 2.285408 1_655
Li2 O0 2.074277 1_555
Li2 O3 2.074310 1_545
Li2 O2 2.074318 1_555
Li2 O1 2.074333 1_545
Li2 O4 2.175519 1_545
Li2 O6 2.175578 1_545
Li3 O2 2.015440 1_654
Li3 O0 2.015462 1_555
Li3 O1 2.015467 1_654
Li3 O3 2.015493 1_555
Li3 O7 2.339784 1_655
Li3 O5 2.339788 1_554
Cr0 O2 1.955607 1_555
Cr0 O0 1.955621 1_455
Cr0 O4 2.011532 1_545
Cr0 O6 2.011660 1_445
Cr0 O7 2.077483 1_555
Cr0 O5 2.077569 1_455
Cr1 O1 1.955625 1_555
Cr1 O3 1.955671 1_556
Cr1 O6 2.011304 1_555
Cr1 O4 2.011463 1_556
Cr1 O5 2.077728 1_555
Cr1 O7 2.077813 1_556
Ni0 O5 1.899724 1_555
Ni0 O7 1.899779 1_555
Ni0 O2 2.033200 1_555
Ni0 O0 2.033226 1_555
Ni0 O3 2.033232 1_555
Ni0 O1 2.033288 1_555
Ni1 O1 2.056839 1_554
Ni1 O3 2.056853 1_455
Ni1 O0 2.056915 1_465
Ni1 O2 2.056966 1_564
Ni1 O4 2.063960 1_555
Ni1 O6 2.064019 1_454
