# generated using pymatgen
data_Ni5Ge3
_symmetry_space_group_name_H-M   'P 1'
_cell_length_a   6.36501785
_cell_length_b   6.39788701
_cell_length_c   6.39788701
_cell_angle_alpha   116.62374979
_cell_angle_beta   116.45700706
_cell_angle_gamma   63.54299294
_symmetry_Int_Tables_number   1
_chemical_formula_structural   Ni5Ge3
_chemical_formula_sum   'Ni10 Ge6'
_cell_volume   198.43674138
_cell_formula_units_Z   2
loop_
 _symmetry_equiv_pos_site_id
 _symmetry_equiv_pos_as_xyz
  1  'x, y, z'
loop_
 _atom_site_type_symbol
 _atom_site_label
 _atom_site_symmetry_multiplicity
 _atom_site_fract_x
 _atom_site_fract_y
 _atom_site_fract_z
 _atom_site_occupancy
  Ni  Ni0  1  0.60268500  0.89465000  0.74854700  1
  Ni  Ni1  1  0.39731500  0.74854700  0.89465000  1
  Ni  Ni2  1  0.90057300  0.26284300  0.41532900  1
  Ni  Ni3  1  0.09942700  0.41532900  0.26284300  1
  Ni  Ni4  1  0.23702000  0.58902900  0.07512900  1
  Ni  Ni5  1  0.76298000  0.07512900  0.58902900  1
  Ni  Ni6  1  0.17394100  0.16967000  0.82893700  1
  Ni  Ni7  1  0.82605900  0.82893700  0.16967000  1
  Ni  Ni8  1  0.34200100  0.99558400  0.33831000  1
  Ni  Ni9  1  0.65799900  0.33831000  0.99558400  1
  Ge  Ge0  1  0.00000000  0.97753700  0.97753700  1
  Ge  Ge1  1  0.29474200  0.36799100  0.66401800  1
  Ge  Ge2  1  0.70525800  0.66401800  0.36799100  1
  Ge  Ge3  1  0.50000000  0.19926400  0.19926400  1
  Ge  Ge4  1  0.19991900  0.80229800  0.49286400  1
  Ge  Ge5  1  0.80008100  0.49286400  0.80229800  1
loop_
_geom_bond_atom_site_label_1
_geom_bond_atom_site_label_2
_geom_bond_distance
_geom_bond_site_symmetry_2
Ni0 Ni1 2.533160 1_555
Ni0 Ni5 2.539611 1_565
Ni0 Ni7 2.554743 1_556
Ni0 Ni8 2.596681 1_555
Ni0 Ni6 2.639837 1_565
Ni0 Ni9 2.655706 1_565
Ni1 Ni4 2.539611 1_556
Ni1 Ni6 2.554743 1_565
Ni1 Ni9 2.596681 1_555
Ni1 Ni7 2.639837 1_556
Ni1 Ni8 2.655706 1_556
Ni2 Ni5 2.538696 1_555
Ni2 Ni3 2.561086 1_655
Ni2 Ni9 2.575280 1_554
Ni2 Ni6 2.602344 1_655
Ni2 Ni7 2.645802 1_545
Ni2 Ni8 2.694176 1_645
Ni3 Ni4 2.538696 1_555
Ni3 Ni8 2.575280 1_545
Ni3 Ni7 2.602344 1_455
Ni3 Ni6 2.645802 1_554
Ni3 Ni9 2.694176 1_454
Ni4 Ni6 2.539578 1_554
Ni4 Ni7 2.562077 1_455
Ni4 Ni9 2.581768 1_554
Ni4 Ni8 2.582279 1_555
Ni5 Ni7 2.539578 1_545
Ni5 Ni6 2.562077 1_655
Ni5 Ni8 2.581768 1_545
Ni5 Ni9 2.582279 1_555
Ge0 Ni9 2.363821 1_465
Ge0 Ni8 2.363821 1_556
Ge0 Ni1 2.453637 1_555
Ge0 Ni0 2.453637 1_455
Ge0 Ni4 2.460583 1_556
Ge0 Ni5 2.460583 1_465
Ge0 Ni6 2.615090 1_565
Ge0 Ni7 2.615090 1_456
Ge0 Ni3 2.746913 1_566
Ge0 Ni2 2.746913 1_466
Ge1 Ni9 2.341246 1_555
Ge1 Ni8 2.362148 1_545
Ge1 Ni3 2.396465 1_555
Ge1 Ni1 2.422734 1_555
Ge1 Ni6 2.471150 1_555
Ge1 Ni4 2.473340 1_556
Ge1 Ni2 2.503255 1_455
Ge1 Ni5 2.848844 1_555
Ge1 Ni0 2.922264 1_545
Ge2 Ni8 2.341246 1_555
Ge2 Ni9 2.362148 1_554
Ge2 Ni2 2.396465 1_555
Ge2 Ni0 2.422734 1_555
Ge2 Ni7 2.471150 1_555
Ge2 Ni5 2.473340 1_565
Ge2 Ni3 2.503255 1_655
Ge2 Ni4 2.848844 1_555
Ge2 Ni1 2.922264 1_554
Ge3 Ni7 2.350157 1_545
Ge3 Ni6 2.350157 1_554
Ge3 Ni2 2.420069 1_555
Ge3 Ni3 2.420069 1_555
Ge3 Ni8 2.550447 1_545
Ge3 Ni9 2.550447 1_554
Ge3 Ni4 2.553848 1_555
Ge3 Ni5 2.553848 1_555
Ge3 Ni1 2.836937 1_544
Ge3 Ni0 2.836937 1_544
Ge4 Ni7 2.353157 1_455
Ge4 Ni6 2.369800 1_565
Ge4 Ni1 2.415405 1_555
Ge4 Ni3 2.451772 1_555
Ge4 Ni4 2.463191 1_555
Ge4 Ni8 2.492813 1_555
Ge4 Ni0 2.518699 1_555
Ge4 Ni5 2.719663 1_465
Ge4 Ni2 2.832615 1_465
Ge5 Ni6 2.353157 1_655
Ge5 Ni7 2.369800 1_556
Ge5 Ni0 2.415405 1_555
Ge5 Ni2 2.451772 1_555
Ge5 Ni5 2.463191 1_555
Ge5 Ni9 2.492813 1_555
Ge5 Ni1 2.518699 1_555
Ge5 Ni4 2.719663 1_656
Ge5 Ni3 2.832615 1_656
