# generated using pymatgen
data_Hf2Zn
_symmetry_space_group_name_H-M   'P 1'
_cell_length_a   6.44892062
_cell_length_b   6.44892062
_cell_length_c   12.09386682
_cell_angle_alpha   105.43418342
_cell_angle_beta   105.43418342
_cell_angle_gamma   90.08103617
_symmetry_Int_Tables_number   1
_chemical_formula_structural   Hf2Zn
_chemical_formula_sum   'Hf16 Zn8'
_cell_volume   465.92908894
_cell_formula_units_Z   8
loop_
 _symmetry_equiv_pos_site_id
 _symmetry_equiv_pos_as_xyz
  1  'x, y, z'
loop_
 _atom_site_type_symbol
 _atom_site_label
 _atom_site_symmetry_multiplicity
 _atom_site_fract_x
 _atom_site_fract_y
 _atom_site_fract_z
 _atom_site_occupancy
  Hf  Hf0_0  1  0.32935674  0.32935674  0.15863576  1
  Hf  Hf0_1  1  0.32935674  0.32935674  0.65863576  1
  Hf  Hf0_2  1  0.32935674  0.82935674  0.15863576  1
  Hf  Hf0_3  1  0.32935674  0.82935674  0.65863576  1
  Hf  Hf0_4  1  0.82935674  0.32935674  0.15863576  1
  Hf  Hf0_5  1  0.82935674  0.32935674  0.65863576  1
  Hf  Hf0_6  1  0.82935674  0.82935674  0.15863576  1
  Hf  Hf0_7  1  0.82935674  0.82935674  0.65863576  1
  Hf  Hf1_0  1  0.17064326  0.17064326  0.34136424  1
  Hf  Hf1_1  1  0.17064326  0.17064326  0.84136424  1
  Hf  Hf1_2  1  0.17064326  0.67064326  0.34136424  1
  Hf  Hf1_3  1  0.17064326  0.67064326  0.84136424  1
  Hf  Hf1_4  1  0.67064326  0.17064326  0.34136424  1
  Hf  Hf1_5  1  0.67064326  0.17064326  0.84136424  1
  Hf  Hf1_6  1  0.67064326  0.67064326  0.34136424  1
  Hf  Hf1_7  1  0.67064326  0.67064326  0.84136424  1
  Zn  Zn0_0  1  0.00000000  0.00000000  0.00000000  1
  Zn  Zn0_1  1  0.00000000  0.00000000  0.50000000  1
  Zn  Zn0_2  1  0.00000000  0.50000000  0.00000000  1
  Zn  Zn0_3  1  1.00000000  0.50000000  0.50000000  1
  Zn  Zn0_4  1  0.50000000  0.00000000  0.00000000  1
  Zn  Zn0_5  1  0.50000000  0.00000000  0.50000000  1
  Zn  Zn0_6  1  0.50000000  0.50000000  0.00000000  1
  Zn  Zn0_7  1  0.50000000  0.50000000  0.50000000  1
loop_
_geom_bond_atom_site_label_1
_geom_bond_atom_site_label_2
_geom_bond_distance
_geom_bond_site_symmetry_2
Hf0_0 Zn0_6 2.889088 1_555
Hf0_0 Zn0_0 2.890123 1_555
Hf0_0 Zn0_4 2.892149 1_555
Hf0_0 Zn0_2 2.892149 1_555
Hf0_0 Hf1_6 3.062752 1_555
Hf0_0 Hf1_0 3.063289 1_555
Hf0_0 Hf1_4 3.065420 1_555
Hf0_0 Hf1_2 3.065420 1_555
Hf0_0 Hf0_2 3.224460 1_555
Hf0_0 Hf0_4 3.224460 1_555
Hf0_0 Hf0_4 3.224460 1_455
Hf0_0 Hf0_2 3.224460 1_545
Hf0_1 Zn0_7 2.889088 1_555
Hf0_1 Zn0_1 2.890123 1_555
Hf0_1 Zn0_5 2.892149 1_555
Hf0_1 Zn0_3 2.892149 1_455
Hf0_1 Hf1_7 3.062752 1_555
Hf0_1 Hf1_1 3.063289 1_555
Hf0_1 Hf1_3 3.065420 1_555
Hf0_1 Hf1_5 3.065420 1_555
Hf0_1 Hf0_5 3.224460 1_555
Hf0_1 Hf0_3 3.224460 1_555
Hf0_1 Hf0_3 3.224460 1_545
Hf0_1 Hf0_5 3.224460 1_455
Hf0_2 Zn0_4 2.889088 1_565
Hf0_2 Zn0_2 2.890123 1_555
Hf0_2 Zn0_6 2.892149 1_555
Hf0_2 Zn0_0 2.892149 1_565
Hf0_2 Hf1_4 3.062752 1_565
Hf0_2 Hf1_2 3.063289 1_555
Hf0_2 Hf1_6 3.065420 1_555
Hf0_2 Hf1_0 3.065420 1_565
Hf0_2 Hf0_6 3.224460 1_455
Hf0_2 Hf0_6 3.224460 1_555
Hf0_3 Zn0_5 2.889088 1_565
Hf0_3 Zn0_3 2.890123 1_455
Hf0_3 Zn0_1 2.892149 1_565
Hf0_3 Zn0_7 2.892149 1_555
Hf0_3 Hf1_5 3.062752 1_565
Hf0_3 Hf1_3 3.063289 1_555
Hf0_3 Hf1_7 3.065420 1_555
Hf0_3 Hf1_1 3.065420 1_565
Hf0_3 Hf0_7 3.224460 1_455
Hf0_3 Hf0_7 3.224460 1_555
Hf0_4 Zn0_2 2.889088 1_655
Hf0_4 Zn0_4 2.890123 1_555
Hf0_4 Zn0_6 2.892149 1_555
Hf0_4 Zn0_0 2.892149 1_655
Hf0_4 Hf1_2 3.062752 1_655
Hf0_4 Hf1_4 3.063289 1_555
Hf0_4 Hf1_6 3.065420 1_555
Hf0_4 Hf1_0 3.065420 1_655
Hf0_4 Hf0_6 3.224460 1_545
Hf0_4 Hf0_6 3.224460 1_555
Hf0_5 Zn0_3 2.889088 1_555
Hf0_5 Zn0_5 2.890123 1_555
Hf0_5 Zn0_7 2.892149 1_555
Hf0_5 Zn0_1 2.892149 1_655
Hf0_5 Hf1_3 3.062752 1_655
Hf0_5 Hf1_5 3.063289 1_555
Hf0_5 Hf1_7 3.065420 1_555
Hf0_5 Hf1_1 3.065420 1_655
Hf0_5 Hf0_7 3.224460 1_555
Hf0_5 Hf0_7 3.224460 1_545
Hf0_6 Zn0_0 2.889088 1_665
Hf0_6 Zn0_6 2.890123 1_555
Hf0_6 Zn0_4 2.892149 1_565
Hf0_6 Zn0_2 2.892149 1_655
Hf0_6 Hf1_0 3.062752 1_665
Hf0_6 Hf1_6 3.063289 1_555
Hf0_6 Hf1_4 3.065420 1_565
Hf0_6 Hf1_2 3.065420 1_655
Hf0_7 Zn0_1 2.889088 1_665
Hf0_7 Zn0_7 2.890123 1_555
Hf0_7 Zn0_3 2.892149 1_555
Hf0_7 Zn0_5 2.892149 1_565
Hf0_7 Hf1_1 3.062752 1_665
Hf0_7 Hf1_7 3.063289 1_555
Hf0_7 Hf1_3 3.065420 1_655
Hf0_7 Hf1_5 3.065420 1_565
Hf1_0 Zn0_1 2.889088 1_555
Hf1_0 Zn0_7 2.890123 1_555
Hf1_0 Zn0_5 2.892149 1_555
Hf1_0 Zn0_3 2.892149 1_455
Hf1_0 Hf1_4 3.224460 1_555
Hf1_0 Hf1_4 3.224460 1_455
Hf1_0 Hf1_2 3.224460 1_555
Hf1_0 Hf1_2 3.224460 1_545
Hf1_1 Zn0_0 2.889088 1_556
Hf1_1 Zn0_6 2.890123 1_556
Hf1_1 Zn0_2 2.892149 1_556
Hf1_1 Zn0_4 2.892149 1_556
Hf1_1 Hf1_3 3.224460 1_545
Hf1_1 Hf1_5 3.224460 1_455
Hf1_1 Hf1_5 3.224460 1_555
Hf1_1 Hf1_3 3.224460 1_555
Hf1_2 Zn0_3 2.889088 1_455
Hf1_2 Zn0_5 2.890123 1_565
Hf1_2 Zn0_1 2.892149 1_565
Hf1_2 Zn0_7 2.892149 1_555
Hf1_2 Hf1_6 3.224460 1_455
Hf1_2 Hf1_6 3.224460 1_555
Hf1_3 Zn0_2 2.889088 1_556
Hf1_3 Zn0_4 2.890123 1_566
Hf1_3 Zn0_6 2.892149 1_556
Hf1_3 Zn0_0 2.892149 1_566
Hf1_3 Hf1_7 3.224460 1_555
Hf1_3 Hf1_7 3.224460 1_455
Hf1_4 Zn0_5 2.889088 1_555
Hf1_4 Zn0_3 2.890123 1_555
Hf1_4 Zn0_7 2.892149 1_555
Hf1_4 Zn0_1 2.892149 1_655
Hf1_4 Hf1_6 3.224460 1_545
Hf1_4 Hf1_6 3.224460 1_555
Hf1_5 Zn0_4 2.889088 1_556
Hf1_5 Zn0_2 2.890123 1_656
Hf1_5 Zn0_6 2.892149 1_556
Hf1_5 Zn0_0 2.892149 1_656
Hf1_5 Hf1_7 3.224460 1_545
Hf1_5 Hf1_7 3.224460 1_555
Hf1_6 Zn0_7 2.889088 1_555
Hf1_6 Zn0_1 2.890123 1_665
Hf1_6 Zn0_3 2.892149 1_555
Hf1_6 Zn0_5 2.892149 1_565
Hf1_7 Zn0_6 2.889088 1_556
Hf1_7 Zn0_0 2.890123 1_666
Hf1_7 Zn0_4 2.892149 1_566
Hf1_7 Zn0_2 2.892149 1_656
