# generated using pymatgen
data_ScTe
_symmetry_space_group_name_H-M   'P 1'
_cell_length_a   4.16335374
_cell_length_b   4.16335498
_cell_length_c   6.88287967
_cell_angle_alpha   90.00000000
_cell_angle_beta   90.00000000
_cell_angle_gamma   119.99999012
_symmetry_Int_Tables_number   1
_chemical_formula_structural   ScTe
_chemical_formula_sum   'Sc2 Te2'
_cell_volume   103.32076342
_cell_formula_units_Z   2
loop_
 _symmetry_equiv_pos_site_id
 _symmetry_equiv_pos_as_xyz
  1  'x, y, z'
loop_
 _atom_site_type_symbol
 _atom_site_label
 _atom_site_symmetry_multiplicity
 _atom_site_fract_x
 _atom_site_fract_y
 _atom_site_fract_z
 _atom_site_occupancy
  Sc  Sc0  1  0.00000000  -0.00000000  0.00000000  1
  Sc  Sc1  1  0.00000000  -0.00000000  0.50000000  1
  Te  Te0  1  0.33333300  0.66666700  0.25000000  1
  Te  Te1  1  0.66666700  0.33333300  0.75000000  1
loop_
_geom_bond_atom_site_label_1
_geom_bond_atom_site_label_2
_geom_bond_distance
_geom_bond_site_symmetry_2
Sc0 Te0 2.956130 1_545
Sc0 Te1 2.956130 1_454
Sc0 Te1 2.956133 1_554
Sc0 Te0 2.956133 1_445
Sc0 Te0 2.956134 1_555
Sc0 Te1 2.956134 1_444
Sc1 Te0 2.956130 1_545
Sc1 Te1 2.956130 1_455
Sc1 Te0 2.956133 1_445
Sc1 Te1 2.956133 1_555
Sc1 Te0 2.956134 1_555
Sc1 Te1 2.956134 1_445
