# generated using pymatgen
data_Mg7Mn
_symmetry_space_group_name_H-M   'P 1'
_cell_length_a   6.16320603
_cell_length_b   6.16320603
_cell_length_c   4.90602900
_cell_angle_alpha   90.00000000
_cell_angle_beta   90.00000000
_cell_angle_gamma   120.00000033
_symmetry_Int_Tables_number   1
_chemical_formula_structural   Mg7Mn
_chemical_formula_sum   'Mg7 Mn1'
_cell_volume   161.38906792
_cell_formula_units_Z   1
loop_
 _symmetry_equiv_pos_site_id
 _symmetry_equiv_pos_as_xyz
  1  'x, y, z'
loop_
 _atom_site_type_symbol
 _atom_site_label
 _atom_site_symmetry_multiplicity
 _atom_site_fract_x
 _atom_site_fract_y
 _atom_site_fract_z
 _atom_site_occupancy
  Mg  Mg0  1  0.83249800  0.66499700  0.50000000  1
  Mg  Mg1  1  0.33500300  0.16750200  0.50000000  1
  Mg  Mg2  1  0.83249800  0.16750200  0.50000000  1
  Mg  Mg3  1  0.48979500  0.51020500  0.00000000  1
  Mg  Mg4  1  0.02041100  0.51020500  0.00000000  1
  Mg  Mg5  1  0.48979500  0.97958900  0.00000000  1
  Mg  Mg6  1  0.00000000  0.00000000  0.00000000  1
  Mn  Mn0  1  0.33333300  0.66666700  0.50000000  1
loop_
_geom_bond_atom_site_label_1
_geom_bond_atom_site_label_2
_geom_bond_distance
_geom_bond_site_symmetry_2
Mg0 Mg6 3.035539 1_665
Mg0 Mg6 3.035539 1_666
Mg0 Mg3 3.061630 1_555
Mg0 Mg3 3.061630 1_556
Mg0 Mg4 3.061636 1_656
Mg0 Mg4 3.061636 1_655
Mg0 Mg1 3.066164 1_555
Mg0 Mg2 3.066164 1_555
Mg0 Mn0 3.081616 1_655
Mg0 Mn0 3.081616 1_555
Mg0 Mg1 3.097042 1_665
Mg0 Mg2 3.097042 1_565
Mg1 Mg6 3.035539 1_555
Mg1 Mg6 3.035539 1_556
Mg1 Mg3 3.061630 1_555
Mg1 Mg3 3.061630 1_556
Mg1 Mg5 3.061636 1_546
Mg1 Mg5 3.061636 1_545
Mg1 Mg2 3.066164 1_555
Mg1 Mn0 3.081616 1_545
Mg1 Mn0 3.081616 1_555
Mg1 Mg2 3.097042 1_455
Mg2 Mg6 3.035542 1_656
Mg2 Mg6 3.035542 1_655
Mg2 Mg4 3.061630 1_656
Mg2 Mg5 3.061630 1_546
Mg2 Mg4 3.061630 1_655
Mg2 Mg5 3.061630 1_545
Mg2 Mn0 3.081616 1_545
Mg2 Mn0 3.081616 1_655
Mg3 Mg4 2.892910 1_555
Mg3 Mg5 2.892910 1_555
Mg3 Mn0 2.967650 1_555
Mg3 Mn0 2.967650 1_554
Mg3 Mg6 3.083528 1_555
Mg3 Mg6 3.083528 1_665
Mg3 Mg5 3.270296 1_545
Mg3 Mg4 3.270296 1_655
Mg4 Mg5 2.892910 1_555
Mg4 Mn0 2.967644 1_554
Mg4 Mn0 2.967644 1_555
Mg4 Mg6 3.083525 1_555
Mg4 Mg6 3.083531 1_565
Mg4 Mg5 3.270296 1_445
Mg5 Mn0 2.967644 1_554
Mg5 Mn0 2.967644 1_555
Mg5 Mg6 3.083525 1_665
Mg5 Mg6 3.083531 1_565
