# generated using pymatgen
data_Mn29H2
_symmetry_space_group_name_H-M   'P 1'
_cell_length_a   7.50157917
_cell_length_b   7.50157917
_cell_length_c   7.49444010
_cell_angle_alpha   70.50146050
_cell_angle_beta   70.50146050
_cell_angle_gamma   109.37167339
_symmetry_Int_Tables_number   1
_chemical_formula_structural   Mn29H2
_chemical_formula_sum   'Mn29 H2'
_cell_volume   324.83486442
_cell_formula_units_Z   1
loop_
 _symmetry_equiv_pos_site_id
 _symmetry_equiv_pos_as_xyz
  1  'x, y, z'
loop_
 _atom_site_type_symbol
 _atom_site_label
 _atom_site_symmetry_multiplicity
 _atom_site_fract_x
 _atom_site_fract_y
 _atom_site_fract_z
 _atom_site_occupancy
  Mn  Mn0  1  0.00001400  0.00001400  0.00009500  1
  Mn  Mn1  1  0.82151700  0.62840700  0.37220100  1
  Mn  Mn2  1  0.62840700  0.82151700  0.37220100  1
  Mn  Mn3  1  0.62738700  0.62738700  0.17767100  1
  Mn  Mn4  1  0.17920600  0.80657300  0.19252300  1
  Mn  Mn5  1  0.37159100  0.99910200  0.80878700  1
  Mn  Mn6  1  0.37303200  0.19483500  0.00004000  1
  Mn  Mn7  1  0.00055500  0.19179400  0.62753300  1
  Mn  Mn8  1  0.19179400  0.00055500  0.62753300  1
  Mn  Mn9  1  0.80564500  0.80564500  0.82122100  1
  Mn  Mn10  1  0.99910200  0.37159100  0.80878700  1
  Mn  Mn11  1  0.80657300  0.17920600  0.19252300  1
  Mn  Mn12  1  0.19483500  0.37303200  0.00004000  1
  Mn  Mn13  1  0.29573700  0.61557100  0.38455600  1
  Mn  Mn14  1  0.61557100  0.29573700  0.38455600  1
  Mn  Mn15  1  0.61162300  0.61162300  0.71096000  1
  Mn  Mn16  1  0.70435600  0.31995500  0.68024200  1
  Mn  Mn17  1  0.38726400  0.00002400  0.31951300  1
  Mn  Mn18  1  0.38830000  0.67730400  0.00008000  1
  Mn  Mn19  1  0.99988500  0.68014000  0.61291700  1
  Mn  Mn20  1  0.68014000  0.99988500  0.61291700  1
  Mn  Mn21  1  0.32293900  0.32293900  0.28872400  1
  Mn  Mn22  1  0.00002400  0.38726400  0.31951300  1
  Mn  Mn23  1  0.31995500  0.70435600  0.68024200  1
  Mn  Mn24  1  0.67730400  0.38830000  0.00008000  1
  Mn  Mn25  1  0.36156600  0.36156600  0.63898300  1
  Mn  Mn26  1  0.63816800  0.99935700  0.00037500  1
  Mn  Mn27  1  0.00010900  0.00010900  0.36105800  1
  Mn  Mn28  1  0.99935700  0.63816800  0.00037500  1
  H  H0  1  0.99993400  0.46011100  0.53987700  1
  H  H1  1  0.46011100  0.99993400  0.53987700  1
loop_
_geom_bond_atom_site_label_1
_geom_bond_atom_site_label_2
_geom_bond_distance
_geom_bond_site_symmetry_2
Mn0 Mn8 2.678209 1_554
Mn0 Mn7 2.678209 1_554
Mn0 Mn5 2.678929 1_544
Mn0 Mn10 2.678929 1_454
Mn0 Mn2 2.679971 1_445
Mn0 Mn1 2.679971 1_445
Mn0 Mn4 2.680214 1_545
Mn0 Mn11 2.680214 1_455
Mn0 Mn3 2.692239 1_445
Mn0 Mn9 2.692287 1_444
Mn0 Mn6 2.692922 1_555
Mn0 Mn12 2.692922 1_555
Mn0 Mn27 2.705691 1_555
Mn0 Mn28 2.712084 1_445
Mn0 Mn26 2.712084 1_445
Mn0 Mn25 2.712269 1_554
Mn1 Mn4 2.192436 1_655
Mn1 Mn16 2.277386 1_555
Mn1 Mn2 2.364149 1_555
Mn1 Mn3 2.379839 1_555
Mn1 Mn14 2.411581 1_555
Mn1 Mn15 2.434565 1_555
Mn1 Mn28 2.620625 1_555
Mn1 Mn27 2.620769 1_665
Mn1 Mn19 2.632451 1_555
Mn1 Mn22 2.636701 1_655
Mn1 Mn25 2.837358 1_555
Mn2 Mn23 2.277386 1_555
Mn2 Mn3 2.379839 1_555
Mn2 Mn26 2.620625 1_555
Mn2 Mn27 2.620769 1_665
Mn2 Mn20 2.632451 1_555
Mn2 Mn25 2.837358 1_555
Mn3 Mn9 2.181055 1_554
Mn4 Mn5 2.348026 1_554
Mn4 Mn6 2.379873 1_565
Mn5 Mn6 2.369650 1_566
Mn7 Mn9 2.366935 1_445
Mn8 Mn9 2.366935 1_445
Mn10 Mn11 2.348026 1_556
Mn10 Mn12 2.369650 1_656
Mn10 Mn24 2.430796 1_556
Mn10 Mn26 2.627254 1_546
Mn10 Mn25 2.628305 1_655
Mn10 Mn28 2.824313 1_556
Mn11 Mn2 2.192436 1_545
Mn11 Mn14 2.276523 1_555
Mn11 Mn12 2.379873 1_655
Mn11 Mn22 2.420484 1_655
Mn11 Mn24 2.431720 1_555
Mn11 Mn26 2.621184 1_545
Mn11 Mn27 2.625543 1_655
Mn11 Mn17 2.636157 1_555
Mn11 Mn20 2.639133 1_545
Mn11 Mn28 2.831233 1_555
Mn12 Mn6 2.181576 1_555
Mn12 Mn18 2.262598 1_555
Mn12 Mn23 2.403482 1_554
Mn12 Mn22 2.412043 1_555
Mn12 Mn21 2.613485 1_555
Mn12 Mn15 2.617211 1_554
Mn12 Mn25 2.619386 1_554
Mn12 Mn27 2.622624 1_555
Mn12 Mn28 2.835823 1_455
Mn13 Mn4 2.276523 1_555
Mn13 Mn3 2.405902 1_555
Mn13 Mn2 2.411581 1_555
Mn13 Mn25 2.517490 1_555
Mn13 Mn18 2.561153 1_555
Mn13 Mn21 2.574528 1_555
Mn13 Mn26 2.792859 1_555
Mn14 Mn3 2.405902 1_555
Mn14 Mn25 2.517490 1_555
Mn14 Mn24 2.561153 1_555
Mn14 Mn21 2.574528 1_555
Mn14 Mn28 2.792859 1_555
Mn15 Mn9 2.262765 1_555
Mn15 Mn2 2.434565 1_555
Mn15 Mn25 2.518949 1_555
Mn15 Mn16 2.561873 1_555
Mn15 Mn23 2.561873 1_555
Mn15 Mn18 2.565410 1_556
Mn15 Mn24 2.565410 1_556
Mn15 Mn20 2.571636 1_555
Mn15 Mn19 2.571636 1_555
Mn15 Mn6 2.617211 1_556
Mn15 Mn27 2.832849 1_665
Mn16 Mn6 2.403482 1_556
Mn16 Mn26 2.519412 1_546
Mn16 Mn24 2.571842 1_556
Mn16 Mn25 2.793626 1_555
Mn17 Mn6 2.412043 1_555
Mn17 Mn4 2.420484 1_545
Mn17 Mn26 2.504432 1_545
Mn17 Mn24 2.571506 1_555
Mn17 Mn21 2.574994 1_555
Mn17 Mn2 2.636701 1_545
Mn17 Mn27 2.815929 1_555
Mn18 Mn5 2.430796 1_554
Mn18 Mn4 2.431720 1_555
Mn18 Mn26 2.520367 1_555
Mn18 Mn21 2.564166 1_555
Mn18 Mn22 2.571506 1_555
Mn18 Mn23 2.571842 1_554
Mn18 Mn20 2.573995 1_554
Mn18 Mn3 2.614336 1_555
Mn18 Mn9 2.619675 1_554
Mn18 Mn28 2.833038 1_455
Mn19 Mn9 2.412337 1_555
Mn19 Mn27 2.508954 1_665
Mn19 Mn24 2.573995 1_556
Mn19 Mn4 2.639133 1_655
Mn19 Mn28 2.812872 1_556
Mn20 Mn9 2.412337 1_555
Mn20 Mn27 2.508954 1_665
Mn20 Mn26 2.812872 1_556
Mn21 Mn3 2.264187 1_555
Mn21 Mn8 2.432824 1_555
Mn21 Mn7 2.432824 1_555
Mn21 Mn27 2.525872 1_555
Mn21 Mn24 2.564166 1_555
Mn21 Mn22 2.574994 1_555
Mn21 Mn6 2.613485 1_555
Mn21 Mn25 2.831671 1_555
Mn22 Mn28 2.504432 1_455
Mn22 Mn4 2.636157 1_555
Mn22 Mn27 2.815929 1_555
Mn23 Mn28 2.519412 1_456
Mn23 Mn25 2.793626 1_555
Mn24 Mn6 2.262598 1_555
Mn24 Mn28 2.520367 1_555
Mn24 Mn3 2.614336 1_555
Mn24 Mn9 2.619675 1_554
Mn24 Mn26 2.833038 1_545
Mn25 Mn6 2.619386 1_556
Mn25 Mn7 2.627446 1_555
Mn25 Mn8 2.627446 1_555
Mn25 Mn5 2.628305 1_545
Mn25 Mn3 2.839556 1_555
Mn26 Mn3 2.619476 1_555
Mn26 Mn9 2.623028 1_554
Mn26 Mn7 2.629602 1_664
Mn26 Mn5 2.824313 1_554
Mn26 Mn4 2.831233 1_555
Mn26 Mn6 2.835823 1_565
Mn27 Mn6 2.622624 1_555
Mn27 Mn4 2.625543 1_545
Mn27 Mn7 2.823884 1_555
Mn27 Mn8 2.823884 1_555
Mn27 Mn9 2.832102 1_445
Mn28 Mn3 2.619476 1_555
Mn28 Mn4 2.621184 1_655
Mn28 Mn9 2.623028 1_554
Mn28 Mn5 2.627254 1_654
Mn28 Mn8 2.629602 1_664
H0 Mn16 1.812869 1_555
H0 Mn13 1.814298 1_655
H0 Mn10 1.896845 1_555
H0 Mn7 1.899608 1_655
H0 Mn19 1.904580 1_555
H0 Mn22 1.904749 1_655
H0 Mn1 2.479714 1_555
H0 Mn4 2.483508 1_655
H1 Mn23 1.812869 1_555
H1 Mn14 1.814298 1_565
H1 Mn5 1.896845 1_555
H1 Mn8 1.899608 1_565
H1 Mn20 1.904580 1_555
H1 Mn17 1.904749 1_565
H1 Mn2 2.479714 1_555
H1 Mn11 2.483508 1_565
