# generated using pymatgen
data_Sr2YTiCu2O7
_symmetry_space_group_name_H-M   'P 1'
_cell_length_a   5.52845297
_cell_length_b   5.65822099
_cell_length_c   12.27155465
_cell_angle_alpha   103.30967080
_cell_angle_beta   102.94651851
_cell_angle_gamma   89.98640378
_symmetry_Int_Tables_number   1
_chemical_formula_structural   Sr2YTiCu2O7
_chemical_formula_sum   'Sr4 Y2 Ti2 Cu4 O14'
_cell_volume   363.52853419
_cell_formula_units_Z   2
loop_
 _symmetry_equiv_pos_site_id
 _symmetry_equiv_pos_as_xyz
  1  'x, y, z'
loop_
 _atom_site_type_symbol
 _atom_site_label
 _atom_site_symmetry_multiplicity
 _atom_site_fract_x
 _atom_site_fract_y
 _atom_site_fract_z
 _atom_site_occupancy
  Sr  Sr0  1  0.35544800  0.33418700  0.71897000  1
  Sr  Sr1  1  0.63541800  0.66709000  0.28239800  1
  Sr  Sr2  1  0.85590200  0.88558400  0.71901000  1
  Sr  Sr3  1  0.13605200  0.11609200  0.28216200  1
  Y  Y0  1  0.98693900  0.00083000  0.00061600  1
  Y  Y1  1  0.48675300  0.50043400  0.00069800  1
  Ti  Ti0  1  0.28390100  0.67517000  0.50036400  1
  Ti  Ti1  1  0.78363800  0.32540200  0.50065800  1
  Cu  Cu0  1  0.92515400  0.44280500  0.87719400  1
  Cu  Cu1  1  0.04849500  0.55896500  0.12404100  1
  Cu  Cu2  1  0.42541300  0.93612000  0.87736100  1
  Cu  Cu3  1  0.54872500  0.06534200  0.12392400  1
  O  O0  1  0.12702200  0.37517500  0.50079700  1
  O  O1  1  0.62791100  0.62650300  0.50157000  1
  O  O2  1  0.18259800  0.19784200  0.87450300  1
  O  O3  1  0.30814400  0.80431900  0.12662600  1
  O  O4  1  0.68284000  0.17878000  0.87511600  1
  O  O5  1  0.80813300  0.82258000  0.12644000  1
  O  O6  1  0.66123700  0.67536200  0.86981400  1
  O  O7  1  0.79259300  0.32586800  0.13160600  1
  O  O8  1  0.16150700  0.69639300  0.87039800  1
  O  O9  1  0.29221200  0.30574700  0.13049300  1
  O  O10  1  0.26232700  0.88140400  0.63102700  1
  O  O11  1  0.63398000  0.12174200  0.36971700  1
  O  O12  1  0.76403100  0.25084800  0.63180800  1
  O  O13  1  0.13693400  0.74816600  0.36907200  1
loop_
_geom_bond_atom_site_label_1
_geom_bond_atom_site_label_2
_geom_bond_distance
_geom_bond_site_symmetry_2
Cu0 O6 1.965520 1_555
Cu0 O8 1.969254 1_655
Cu0 O2 1.986700 1_655
Cu0 O4 1.998778 1_555
Cu1 O7 1.966153 1_455
Cu1 O9 1.969269 1_555
Cu1 O3 1.987233 1_555
Cu1 O5 1.996966 1_455
Cu2 O8 1.966614 1_555
Cu2 O6 1.968624 1_555
Cu2 O4 1.986778 1_565
Cu2 O2 1.999532 1_565
Cu3 O9 1.966648 1_555
Cu3 O7 1.969666 1_555
Cu3 O5 1.985749 1_545
Cu3 O3 1.998664 1_545
O0 Ti0 1.907995 1_555
O0 Ti1 1.918790 1_455
O0 Sr0 2.754519 1_555
O0 Sr3 2.756628 1_555
O1 Ti1 1.907550 1_555
O1 Ti0 1.918872 1_555
O1 Sr2 2.747816 1_555
O1 Sr1 2.760927 1_555
O2 Y1 2.402254 1_556
O2 Y0 2.520469 1_456
O2 Sr0 2.578130 1_555
O2 Sr2 2.632443 1_445
O3 Y1 2.403974 1_555
O3 Y0 2.518163 1_465
O3 Sr1 2.581396 1_555
O3 Sr3 2.631114 1_565
O4 Y0 2.401059 1_556
O4 Y1 2.513711 1_556
O4 Sr2 2.587392 1_545
O4 Sr0 2.634740 1_555
O5 Y0 2.404149 1_565
O5 Y1 2.517609 1_555
O5 Sr3 2.585399 1_665
O5 Sr1 2.634975 1_555
O6 Y1 2.432392 1_556
O6 Y0 2.560392 1_566
O6 Sr0 2.639150 1_555
O6 Sr2 2.811462 1_555
O7 Y1 2.434719 1_555
O7 Y0 2.555876 1_555
O7 Sr1 2.642268 1_555
O7 Sr3 2.804366 1_655
O8 Y0 2.423848 1_466
O8 Y1 2.558590 1_556
O8 Sr2 2.638201 1_455
O8 Sr0 2.818007 1_555
O9 Y0 2.427990 1_455
O9 Y1 2.546211 1_555
O9 Sr3 2.645950 1_555
O9 Sr1 2.813790 1_555
O10 Ti0 1.780748 1_555
O10 Sr0 2.544000 1_565
O10 Sr2 2.700018 1_455
O10 Sr2 3.214897 1_555
O11 Ti1 1.773872 1_555
O11 Sr1 2.549654 1_545
O11 Sr3 2.718847 1_555
O11 Sr3 3.190658 1_655
O12 Ti1 1.780646 1_555
O12 Sr2 2.539445 1_545
O12 Sr0 2.705295 1_555
O12 Sr0 3.202859 1_655
O13 Ti0 1.773764 1_555
O13 Sr3 2.547814 1_565
O13 Sr1 2.735624 1_455
O13 Sr1 3.166162 1_555
