# generated using pymatgen
data_LiNiO2
_symmetry_space_group_name_H-M   'P 1'
_cell_length_a   5.74643925
_cell_length_b   5.80758967
_cell_length_c   9.98766780
_cell_angle_alpha   73.87822561
_cell_angle_beta   73.27657971
_cell_angle_gamma   60.29496705
_symmetry_Int_Tables_number   1
_chemical_formula_structural   LiNiO2
_chemical_formula_sum   'Li8 Ni8 O16'
_cell_volume   273.59041069
_cell_formula_units_Z   8
loop_
 _symmetry_equiv_pos_site_id
 _symmetry_equiv_pos_as_xyz
  1  'x, y, z'
loop_
 _atom_site_type_symbol
 _atom_site_label
 _atom_site_symmetry_multiplicity
 _atom_site_fract_x
 _atom_site_fract_y
 _atom_site_fract_z
 _atom_site_occupancy
  Li  Li0  1  0.00157300  0.49988500  0.50089400  1
  Li  Li1  1  0.49843900  0.00011000  0.99908100  1
  Li  Li2  1  0.24998500  0.74995300  0.74996800  1
  Li  Li3  1  0.75002600  0.25010300  0.24998200  1
  Li  Li4  1  0.01210600  0.98653100  0.50716700  1
  Li  Li5  1  0.48782500  0.51342900  0.99277300  1
  Li  Li6  1  0.50908700  0.00360000  0.49894400  1
  Li  Li7  1  0.99097300  0.49643400  0.00101800  1
  Ni  Ni0  1  0.99555500  0.00269700  0.99950900  1
  Ni  Ni1  1  0.50438600  0.49724600  0.50054600  1
  Ni  Ni2  1  0.75012100  0.75000300  0.25003900  1
  Ni  Ni3  1  0.24979200  0.25007400  0.75000800  1
  Ni  Ni4  1  0.25007400  0.75012500  0.25003300  1
  Ni  Ni5  1  0.75001800  0.24985700  0.74998400  1
  Ni  Ni6  1  0.74969000  0.74988000  0.75004400  1
  Ni  Ni7  1  0.25013800  0.24998300  0.24995700  1
  O  O0  1  0.61185500  0.64090600  0.13985100  1
  O  O1  1  0.10842400  0.13932800  0.63992700  1
  O  O2  1  0.88826800  0.85930400  0.36018400  1
  O  O3  1  0.39161000  0.36059300  0.86001500  1
  O  O4  1  0.64598200  0.12737300  0.62974300  1
  O  O5  1  0.09780400  0.62303100  0.13169200  1
  O  O6  1  0.85400100  0.37250400  0.87028100  1
  O  O7  1  0.40232300  0.87702000  0.36835400  1
  O  O8  1  0.86481000  0.90828300  0.86722200  1
  O  O9  1  0.36937900  0.40074900  0.36718200  1
  O  O10  1  0.35488300  0.90368400  0.87117400  1
  O  O11  1  0.86291800  0.40704900  0.36492900  1
  O  O12  1  0.63530600  0.59148800  0.63274600  1
  O  O13  1  0.13060200  0.09942300  0.13282700  1
  O  O14  1  0.14484400  0.59639100  0.62883800  1
  O  O15  1  0.63720500  0.09296500  0.13508900  1
loop_
_geom_bond_atom_site_label_1
_geom_bond_atom_site_label_2
_geom_bond_distance
_geom_bond_site_symmetry_2
Li0 O14 2.021237 1_555
Li0 O12 2.032575 1_455
Li0 O9 2.044195 1_555
Li0 O11 2.055401 1_455
Li0 O1 2.071614 1_555
Li0 O2 2.075226 1_455
Li1 O10 2.021818 1_545
Li1 O8 2.032941 1_545
Li1 O13 2.044418 1_556
Li1 O15 2.056286 1_556
Li1 O3 2.071481 1_555
Li1 O0 2.074698 1_546
Li2 O14 2.043992 1_555
Li2 O10 2.044379 1_555
Li2 O8 2.050672 1_455
Li2 O12 2.051187 1_555
Li2 O3 2.072262 1_555
Li2 O1 2.072305 1_565
Li3 O13 2.029033 1_655
Li3 O9 2.029481 1_555
Li3 O11 2.040942 1_555
Li3 O15 2.041085 1_555
Li3 O0 2.078873 1_555
Li3 O2 2.079091 1_545
Li4 O4 1.990610 1_465
Li4 O1 2.101085 1_565
Li4 O14 2.117493 1_555
Li4 O7 2.154521 1_555
Li4 O2 2.220847 1_455
Li4 O11 2.327355 1_465
Li5 O6 1.990484 1_555
Li5 O3 2.100846 1_555
Li5 O10 2.117703 1_555
Li5 O5 2.154152 1_556
Li5 O0 2.223375 1_556
Li5 O15 2.327495 1_556
Li6 O7 2.014439 1_545
Li6 O2 2.113803 1_545
Li6 O4 2.124975 1_555
Li6 O9 2.187096 1_555
Li6 O1 2.203868 1_555
Li6 O12 2.258610 1_545
Li7 O5 2.015468 1_655
Li7 O0 2.113981 1_555
Li7 O6 2.125418 1_554
Li7 O13 2.186717 1_655
Li7 O3 2.203865 1_654
Li7 O8 2.257473 1_554
Ni0 O10 1.986613 1_645
Ni0 O8 1.998176 1_545
Ni0 O15 2.017057 1_556
Ni0 O13 2.032955 1_656
Ni0 O6 2.067237 1_555
Ni0 O5 2.120318 1_646
Ni1 O14 1.987268 1_555
Ni1 O12 1.997504 1_555
Ni1 O11 2.017979 1_555
Ni1 O9 2.032319 1_555
Ni1 O4 2.067369 1_555
Ni1 O7 2.120876 1_555
Ni2 O11 1.892927 1_555
Ni2 O15 1.893205 1_565
Ni2 O5 1.896708 1_655
Ni2 O7 1.897032 1_555
Ni2 O2 1.906088 1_555
Ni2 O0 1.906110 1_555
Ni3 O1 1.925341 1_555
Ni3 O3 1.925781 1_555
Ni3 O14 1.933814 1_555
Ni3 O10 1.934080 1_545
Ni3 O6 2.102545 1_455
Ni3 O4 2.104174 1_555
Ni4 O0 1.923409 1_555
Ni4 O2 1.923419 1_455
Ni4 O13 1.928798 1_565
Ni4 O9 1.928872 1_555
Ni4 O7 2.103031 1_555
Ni4 O5 2.104101 1_555
Ni5 O8 1.897111 1_545
Ni5 O12 1.897340 1_555
Ni5 O4 1.901239 1_555
Ni5 O6 1.902162 1_555
Ni5 O3 1.907966 1_555
Ni5 O1 1.908097 1_655
Ni6 O6 2.062854 1_555
Ni6 O4 2.063845 1_565
Ni6 O12 2.071618 1_555
Ni6 O8 2.073695 1_555
Ni6 O10 2.102565 1_555
Ni6 O14 2.104168 1_655
Ni7 O5 2.037045 1_555
Ni7 O7 2.037183 1_545
Ni7 O15 2.048741 1_555
Ni7 O11 2.049763 1_455
Ni7 O13 2.056884 1_555
Ni7 O9 2.057322 1_555
