# generated using pymatgen
data_LiLaMg14O16
_symmetry_space_group_name_H-M   'P 1'
_cell_length_a   8.69801296
_cell_length_b   8.70287233
_cell_length_c   4.37156072
_cell_angle_alpha   90.00000000
_cell_angle_beta   90.00000000
_cell_angle_gamma   90.00000000
_symmetry_Int_Tables_number   1
_chemical_formula_structural   LiLaMg14O16
_chemical_formula_sum   'Li1 La1 Mg14 O16'
_cell_volume   330.91707581
_cell_formula_units_Z   1
loop_
 _symmetry_equiv_pos_site_id
 _symmetry_equiv_pos_as_xyz
  1  'x, y, z'
loop_
 _atom_site_type_symbol
 _atom_site_label
 _atom_site_symmetry_multiplicity
 _atom_site_fract_x
 _atom_site_fract_y
 _atom_site_fract_z
 _atom_site_occupancy
  Li  Li0  1  0.00000000  0.00000000  -0.00000000  1
  La  La0  1  0.00000000  0.50000000  -0.00000000  1
  Mg  Mg0  1  0.50000000  0.00000000  -0.00000000  1
  Mg  Mg1  1  0.50000000  0.50000000  -0.00000000  1
  Mg  Mg2  1  0.00000000  0.22565184  0.50000000  1
  Mg  Mg3  1  0.00000000  0.77434816  0.50000000  1
  Mg  Mg4  1  0.50000000  0.24495855  0.50000000  1
  Mg  Mg5  1  0.50000000  0.75504145  0.50000000  1
  Mg  Mg6  1  0.24610791  0.00000000  0.50000000  1
  Mg  Mg7  1  0.26724183  0.50000000  0.50000000  1
  Mg  Mg8  1  0.75389209  0.00000000  0.50000000  1
  Mg  Mg9  1  0.73275817  0.50000000  0.50000000  1
  Mg  Mg10  1  0.25483490  0.23515893  0.00000000  1
  Mg  Mg11  1  0.25483490  0.76484107  -0.00000000  1
  Mg  Mg12  1  0.74516510  0.23515893  0.00000000  1
  Mg  Mg13  1  0.74516510  0.76484107  0.00000000  1
  O  O0  1  0.26342351  0.00000000  0.00000000  1
  O  O1  1  0.26989866  0.50000000  0.00000000  1
  O  O2  1  0.73657649  0.00000000  -0.00000000  1
  O  O3  1  0.73010134  0.50000000  -0.00000000  1
  O  O4  1  0.24905829  0.25191613  0.50000000  1
  O  O5  1  0.24905829  0.74808387  0.50000000  1
  O  O6  1  0.75094171  0.25191613  0.50000000  1
  O  O7  1  0.75094171  0.74808387  0.50000000  1
  O  O8  1  0.00000000  0.00000000  0.50000000  1
  O  O9  1  0.00000000  0.50000000  0.50000000  1
  O  O10  1  0.50000000  0.00000000  0.50000000  1
  O  O11  1  0.50000000  0.50000000  0.50000000  1
  O  O12  1  0.00000000  0.23235494  -0.00000000  1
  O  O13  1  0.00000000  0.76764506  -0.00000000  1
  O  O14  1  0.50000000  0.24888526  -0.00000000  1
  O  O15  1  0.50000000  0.75111474  -0.00000000  1
loop_
_geom_bond_atom_site_label_1
_geom_bond_atom_site_label_2
_geom_bond_distance
_geom_bond_site_symmetry_2
Li0 O12 2.022155 1_555
Li0 O13 2.022155 1_545
Li0 O8 2.185780 1_554
Li0 O8 2.185780 1_555
Li0 O2 2.291261 1_455
Li0 O0 2.291261 1_555
La0 O9 2.185780 1_555
La0 O9 2.185780 1_554
La0 O13 2.329281 1_555
La0 O12 2.329281 1_555
La0 O3 2.347582 1_455
La0 O1 2.347582 1_555
Mg0 O0 2.057745 1_555
Mg0 O2 2.057745 1_555
Mg0 O14 2.166017 1_555
Mg0 O15 2.166017 1_545
Mg0 O10 2.185780 1_555
Mg0 O10 2.185780 1_554
Mg1 O1 2.001424 1_555
Mg1 O3 2.001424 1_555
Mg1 O14 2.185420 1_555
Mg1 O15 2.185420 1_555
Mg1 O11 2.185780 1_554
Mg1 O11 2.185780 1_555
Mg2 O8 1.963819 1_555
Mg2 O4 2.178338 1_555
Mg2 O6 2.178338 1_455
Mg2 O12 2.186559 1_555
Mg2 O12 2.186559 1_556
Mg2 O9 2.387617 1_555
Mg3 O8 1.963819 1_565
Mg3 O5 2.178338 1_555
Mg3 O7 2.178338 1_455
Mg3 O13 2.186559 1_555
Mg3 O13 2.186559 1_556
Mg3 O9 2.387617 1_555
Mg4 O10 2.131843 1_555
Mg4 O4 2.183534 1_555
Mg4 O6 2.183534 1_555
Mg4 O14 2.186047 1_556
Mg4 O14 2.186047 1_555
Mg4 O11 2.219593 1_555
Mg5 O10 2.131843 1_565
Mg5 O7 2.183534 1_555
Mg5 O5 2.183534 1_555
Mg5 O15 2.186047 1_556
Mg5 O15 2.186047 1_555
Mg5 O11 2.219593 1_555
Mg6 O8 2.140650 1_555
Mg6 O0 2.190963 1_555
Mg6 O0 2.190963 1_556
Mg6 O4 2.192544 1_555
Mg6 O5 2.192544 1_545
Mg6 O10 2.208357 1_555
Mg7 O11 2.024534 1_555
Mg7 O4 2.164828 1_555
Mg7 O5 2.164828 1_555
Mg7 O1 2.185903 1_555
Mg7 O1 2.185903 1_556
Mg7 O9 2.324473 1_555
Mg8 O8 2.140650 1_655
Mg8 O2 2.190963 1_555
Mg8 O2 2.190963 1_556
Mg8 O6 2.192544 1_555
Mg8 O7 2.192544 1_545
Mg8 O10 2.208357 1_555
Mg9 O11 2.024534 1_555
Mg9 O6 2.164828 1_555
Mg9 O7 2.164828 1_555
Mg9 O3 2.185903 1_556
Mg9 O3 2.185903 1_555
Mg9 O9 2.324473 1_655
Mg10 O0 2.047921 1_555
Mg10 O14 2.135793 1_555
Mg10 O4 2.191216 1_554
Mg10 O4 2.191216 1_555
Mg10 O12 2.216692 1_555
Mg10 O1 2.308599 1_555
Mg11 O0 2.047921 1_565
Mg11 O15 2.135793 1_555
Mg11 O5 2.191216 1_555
Mg11 O5 2.191216 1_554
Mg11 O13 2.216692 1_555
Mg11 O1 2.308599 1_555
Mg12 O2 2.047921 1_555
Mg12 O14 2.135793 1_555
Mg12 O6 2.191216 1_555
Mg12 O6 2.191216 1_554
Mg12 O12 2.216692 1_655
Mg12 O3 2.308599 1_555
Mg13 O2 2.047921 1_565
Mg13 O15 2.135793 1_555
Mg13 O7 2.191216 1_555
Mg13 O7 2.191216 1_554
Mg13 O13 2.216692 1_655
Mg13 O3 2.308599 1_555
