# generated using pymatgen
data_K2BiCl5O2
_symmetry_space_group_name_H-M   'P 1'
_cell_length_a   8.12450600
_cell_length_b   20.62812700
_cell_length_c   13.44389700
_cell_angle_alpha   90.00000000
_cell_angle_beta   90.00000000
_cell_angle_gamma   90.00000000
_symmetry_Int_Tables_number   1
_chemical_formula_structural   K2BiCl5O2
_chemical_formula_sum   'K16 Bi8 Cl40 O16'
_cell_volume   2253.10762209
_cell_formula_units_Z   8
loop_
 _symmetry_equiv_pos_site_id
 _symmetry_equiv_pos_as_xyz
  1  'x, y, z'
loop_
 _atom_site_type_symbol
 _atom_site_label
 _atom_site_symmetry_multiplicity
 _atom_site_fract_x
 _atom_site_fract_y
 _atom_site_fract_z
 _atom_site_occupancy
  K  K0  1  0.50783000  0.53451700  0.18769700  1
  K  K1  1  0.00783000  0.96548300  0.31230300  1
  K  K2  1  0.49217000  0.03451700  0.81230300  1
  K  K3  1  0.99217000  0.46548300  0.68769700  1
  K  K4  1  0.49217000  0.46548300  0.81230300  1
  K  K5  1  0.99217000  0.03451700  0.68769700  1
  K  K6  1  0.50783000  0.96548300  0.18769700  1
  K  K7  1  0.00783000  0.53451700  0.31230300  1
  K  K8  1  0.67504400  0.75000000  0.83608000  1
  K  K9  1  0.17504400  0.75000000  0.66392000  1
  K  K10  1  0.32495600  0.25000000  0.16392000  1
  K  K11  1  0.82495600  0.25000000  0.33608000  1
  K  K12  1  0.53272100  0.75000000  0.16141000  1
  K  K13  1  0.03272100  0.75000000  0.33859000  1
  K  K14  1  0.46727900  0.25000000  0.83859000  1
  K  K15  1  0.96727900  0.25000000  0.66141000  1
  Bi  Bi0  1  0.60412400  0.64183200  0.49035900  1
  Bi  Bi1  1  0.10412400  0.85816800  0.00964100  1
  Bi  Bi2  1  0.39587600  0.14183200  0.50964100  1
  Bi  Bi3  1  0.89587600  0.35816800  0.99035900  1
  Bi  Bi4  1  0.39587600  0.35816800  0.50964100  1
  Bi  Bi5  1  0.89587600  0.14183200  0.99035900  1
  Bi  Bi6  1  0.60412400  0.85816800  0.49035900  1
  Bi  Bi7  1  0.10412400  0.64183200  0.00964100  1
  Cl  Cl0  1  0.87847800  0.57456400  0.53299900  1
  Cl  Cl1  1  0.37847800  0.92543600  0.96700100  1
  Cl  Cl2  1  0.12152200  0.07456400  0.46700100  1
  Cl  Cl3  1  0.62152200  0.42543600  0.03299900  1
  Cl  Cl4  1  0.12152200  0.42543600  0.46700100  1
  Cl  Cl5  1  0.62152200  0.07456400  0.03299900  1
  Cl  Cl6  1  0.87847800  0.92543600  0.53299900  1
  Cl  Cl7  1  0.37847800  0.57456400  0.96700100  1
  Cl  Cl8  1  0.39182000  0.56124100  0.41997200  1
  Cl  Cl9  1  0.89182000  0.93875900  0.08002800  1
  Cl  Cl10  1  0.60818000  0.06124100  0.58002800  1
  Cl  Cl11  1  0.10818000  0.43875900  0.91997200  1
  Cl  Cl12  1  0.60818000  0.43875900  0.58002800  1
  Cl  Cl13  1  0.10818000  0.06124100  0.91997200  1
  Cl  Cl14  1  0.39182000  0.93875900  0.41997200  1
  Cl  Cl15  1  0.89182000  0.56124100  0.08002800  1
  Cl  Cl16  1  0.39977100  0.75000000  0.44837800  1
  Cl  Cl17  1  0.89977100  0.75000000  0.05162200  1
  Cl  Cl18  1  0.60022900  0.25000000  0.55162200  1
  Cl  Cl19  1  0.10022900  0.25000000  0.94837800  1
  Cl  Cl20  1  0.81207300  0.75000000  0.55805500  1
  Cl  Cl21  1  0.31207300  0.75000000  0.94194500  1
  Cl  Cl22  1  0.18792700  0.25000000  0.44194500  1
  Cl  Cl23  1  0.68792700  0.25000000  0.05805500  1
  Cl  Cl24  1  0.72938900  0.65153800  0.30413100  1
  Cl  Cl25  1  0.22938900  0.84846200  0.19586900  1
  Cl  Cl26  1  0.27061100  0.15153800  0.69586900  1
  Cl  Cl27  1  0.77061100  0.34846200  0.80413100  1
  Cl  Cl28  1  0.27061100  0.34846200  0.69586900  1
  Cl  Cl29  1  0.77061100  0.15153800  0.80413100  1
  Cl  Cl30  1  0.72938900  0.84846200  0.30413100  1
  Cl  Cl31  1  0.22938900  0.65153800  0.19586900  1
  Cl  Cl32  1  0.47155000  0.63800300  0.68206500  1
  Cl  Cl33  1  0.97155000  0.86199700  0.81793500  1
  Cl  Cl34  1  0.52845000  0.13800300  0.31793500  1
  Cl  Cl35  1  0.02845000  0.36199700  0.18206500  1
  Cl  Cl36  1  0.52845000  0.36199700  0.31793500  1
  Cl  Cl37  1  0.02845000  0.13800300  0.18206500  1
  Cl  Cl38  1  0.47155000  0.86199700  0.68206500  1
  Cl  Cl39  1  0.97155000  0.63800300  0.81793500  1
  O  O0  1  0.80872600  0.54436900  0.81499300  1
  O  O1  1  0.30872600  0.95563100  0.68500700  1
  O  O2  1  0.19127400  0.04436900  0.18500700  1
  O  O3  1  0.69127400  0.45563100  0.31499300  1
  O  O4  1  0.19127400  0.45563100  0.18500700  1
  O  O5  1  0.69127400  0.04436900  0.31499300  1
  O  O6  1  0.80872600  0.95563100  0.81499300  1
  O  O7  1  0.30872600  0.54436900  0.68500700  1
  O  O8  1  0.55178700  0.67007400  0.99226300  1
  O  O9  1  0.05178700  0.82992600  0.50773700  1
  O  O10  1  0.44821300  0.17007400  0.00773700  1
  O  O11  1  0.94821300  0.32992600  0.49226300  1
  O  O12  1  0.44821300  0.32992600  0.00773700  1
  O  O13  1  0.94821300  0.17007400  0.49226300  1
  O  O14  1  0.55178700  0.82992600  0.99226300  1
  O  O15  1  0.05178700  0.67007400  0.50773700  1
loop_
_geom_bond_atom_site_label_1
_geom_bond_atom_site_label_2
_geom_bond_distance
_geom_bond_site_symmetry_2
K0 O3 2.792492 1_555
K0 O4 3.043647 1_555
K1 O2 2.792492 1_565
K1 O5 3.043647 1_465
K2 O1 2.792492 1_545
K2 O6 3.043647 1_545
K3 O0 2.792492 1_555
K3 O7 3.043647 1_655
K4 O7 2.792492 1_555
K4 O0 3.043647 1_555
K5 O6 2.792492 1_545
K5 O1 3.043647 1_645
K6 O5 2.792492 1_565
K6 O2 3.043647 1_565
K7 O4 2.792492 1_555
K7 O3 3.043647 1_455
K8 O14 2.851293 1_555
K8 O8 2.851293 1_555
K9 O9 2.851293 1_555
K9 O15 2.851293 1_555
K10 O12 2.851293 1_555
K10 O10 2.851293 1_555
K11 O11 2.851293 1_555
K11 O13 2.851293 1_555
K12 O14 2.813065 1_554
K12 O8 2.813065 1_554
K13 O9 2.813065 1_555
K13 O15 2.813065 1_555
K14 O12 2.813065 1_556
K14 O10 2.813065 1_556
K15 O13 2.813065 1_555
K15 O11 2.813065 1_555
Bi0 Cl8 2.575715 1_555
Bi0 Cl0 2.687468 1_555
Bi0 Cl24 2.709981 1_555
Bi0 Cl32 2.794410 1_555
Bi0 Cl16 2.837910 1_555
Bi0 Cl20 2.943016 1_555
Bi1 Cl9 2.575715 1_455
Bi1 Cl1 2.687468 1_554
Bi1 Cl25 2.709981 1_555
Bi1 Cl33 2.794410 1_454
Bi1 Cl17 2.837910 1_455
Bi1 Cl21 2.943016 1_554
Bi2 Cl10 2.575715 1_555
Bi2 Cl2 2.687468 1_555
Bi2 Cl26 2.709981 1_555
Bi2 Cl34 2.794410 1_555
Bi2 Cl18 2.837910 1_555
Bi2 Cl22 2.943016 1_555
Bi3 Cl11 2.575715 1_655
Bi3 Cl3 2.687468 1_556
Bi3 Cl27 2.709981 1_555
Bi3 Cl35 2.794410 1_656
Bi3 Cl19 2.837910 1_655
Bi3 Cl23 2.943016 1_556
Bi4 Cl12 2.575715 1_555
Bi4 Cl4 2.687468 1_555
Bi4 Cl28 2.709981 1_555
Bi4 Cl36 2.794410 1_555
Bi4 Cl18 2.837910 1_555
Bi4 Cl22 2.943016 1_555
Bi5 Cl13 2.575715 1_655
Bi5 Cl5 2.687468 1_556
Bi5 Cl29 2.709981 1_555
Bi5 Cl37 2.794410 1_656
Bi5 Cl19 2.837910 1_655
Bi5 Cl23 2.943016 1_556
Bi6 Cl14 2.575715 1_555
Bi6 Cl6 2.687468 1_555
Bi6 Cl30 2.709981 1_555
Bi6 Cl38 2.794410 1_555
Bi6 Cl16 2.837910 1_555
Bi6 Cl20 2.943016 1_555
Bi7 Cl15 2.575715 1_455
Bi7 Cl7 2.687468 1_554
Bi7 Cl31 2.709981 1_555
Bi7 Cl39 2.794410 1_454
Bi7 Cl17 2.837910 1_455
Bi7 Cl21 2.943016 1_554
Cl0 O15 2.445323 1_655
Cl0 K3 3.200259 1_555
Cl0 K7 3.254234 1_655
Cl1 O14 2.445323 1_555
Cl1 K2 3.200259 1_565
Cl1 K6 3.254234 1_556
Cl2 O13 2.445323 1_455
Cl2 K1 3.200259 1_545
Cl2 K5 3.254234 1_455
Cl3 O12 2.445323 1_555
Cl3 K0 3.200259 1_555
Cl3 K4 3.254234 1_554
Cl4 O11 2.445323 1_455
Cl4 K7 3.200259 1_555
Cl4 K3 3.254234 1_455
Cl5 O10 2.445323 1_555
Cl5 K6 3.200259 1_545
Cl5 K2 3.254234 1_554
Cl6 O9 2.445323 1_655
Cl6 K5 3.200259 1_565
Cl6 K1 3.254234 1_655
Cl7 O8 2.445323 1_555
Cl7 K4 3.200259 1_555
Cl7 K0 3.254234 1_556
Cl8 K0 3.308079 1_555
Cl8 K7 3.483078 1_555
Cl9 K1 3.308079 1_655
Cl9 K6 3.483078 1_555
Cl10 K2 3.308079 1_555
Cl10 K5 3.483078 1_555
Cl11 K3 3.308079 1_455
Cl11 K4 3.483078 1_555
Cl12 K4 3.308079 1_555
Cl12 K3 3.483078 1_555
Cl13 K5 3.308079 1_455
Cl13 K2 3.483078 1_555
Cl14 K6 3.308079 1_555
Cl14 K1 3.483078 1_555
Cl15 K7 3.308079 1_655
Cl15 K0 3.483078 1_555
Cl16 K13 3.327376 1_555
Cl16 K9 3.424958 1_555
Cl17 K12 3.327376 1_555
Cl17 K8 3.424958 1_554
Cl18 K15 3.327376 1_555
Cl18 K11 3.424958 1_555
Cl19 K14 3.327376 1_555
Cl19 K10 3.424958 1_556
Cl20 K9 3.274442 1_655
Cl20 K13 3.452370 1_655
Cl21 K8 3.274442 1_555
Cl21 K12 3.452370 1_556
Cl22 K11 3.274442 1_455
Cl22 K15 3.452370 1_455
Cl23 K10 3.274442 1_555
Cl23 K14 3.452370 1_554
Cl24 K12 3.218678 1_555
Cl24 K13 3.226965 1_655
Cl24 K7 3.310080 1_655
Cl24 K0 3.393742 1_555
Cl25 K13 3.218678 1_555
Cl25 K12 3.226965 1_555
Cl25 K6 3.310080 1_555
Cl25 K1 3.393742 1_555
Cl26 K14 3.218678 1_555
Cl26 K15 3.226965 1_455
Cl26 K5 3.310080 1_455
Cl26 K2 3.393742 1_555
Cl27 K15 3.218678 1_555
Cl27 K14 3.226965 1_555
Cl27 K4 3.310080 1_555
Cl27 K3 3.393742 1_555
Cl28 K14 3.218678 1_555
Cl28 K15 3.226965 1_455
Cl28 K3 3.310080 1_455
Cl28 K4 3.393742 1_555
Cl29 K15 3.218678 1_555
Cl29 K14 3.226965 1_555
Cl29 K2 3.310080 1_555
Cl29 K5 3.393742 1_555
Cl30 K12 3.218678 1_555
Cl30 K13 3.226965 1_655
Cl30 K1 3.310080 1_655
Cl30 K6 3.393742 1_555
Cl31 K13 3.218678 1_555
Cl31 K12 3.226965 1_555
Cl31 K0 3.310080 1_555
Cl31 K7 3.393742 1_555
Cl32 O7 2.341411 1_555
Cl32 K9 3.346648 1_555
Cl32 K8 3.515398 1_555
Cl33 O6 2.341411 1_555
Cl33 K8 3.346648 1_555
Cl33 K9 3.515398 1_655
Cl34 O5 2.341411 1_555
Cl34 K11 3.346648 1_555
Cl34 K10 3.515398 1_555
Cl35 O4 2.341411 1_555
Cl35 K10 3.346648 1_555
Cl35 K11 3.515398 1_455
Cl36 O3 2.341411 1_555
Cl36 K11 3.346648 1_555
Cl36 K10 3.515398 1_555
Cl37 O2 2.341411 1_555
Cl37 K10 3.346648 1_555
Cl37 K11 3.515398 1_455
Cl38 O1 2.341411 1_555
Cl38 K9 3.346648 1_555
Cl38 K8 3.515398 1_555
Cl39 O0 2.341411 1_555
Cl39 K8 3.346648 1_555
Cl39 K9 3.515398 1_655
