# generated using pymatgen
data_Zn3RhF6
_symmetry_space_group_name_H-M   'P 1'
_cell_length_a   6.38848790
_cell_length_b   5.65382561
_cell_length_c   8.39211699
_cell_angle_alpha   71.78971486
_cell_angle_beta   89.84028547
_cell_angle_gamma   127.12965295
_symmetry_Int_Tables_number   1
_chemical_formula_structural   Zn3RhF6
_chemical_formula_sum   'Zn3 Rh1 F6'
_cell_volume   222.10994973
_cell_formula_units_Z   1
loop_
 _symmetry_equiv_pos_site_id
 _symmetry_equiv_pos_as_xyz
  1  'x, y, z'
loop_
 _atom_site_type_symbol
 _atom_site_label
 _atom_site_symmetry_multiplicity
 _atom_site_fract_x
 _atom_site_fract_y
 _atom_site_fract_z
 _atom_site_occupancy
  Zn  Zn0  1  0.00000000  0.00000000  0.50000000  1
  Zn  Zn1  1  0.50000000  0.50000000  0.00000000  1
  Zn  Zn2  1  0.00000000  0.50000000  0.00000000  1
  Rh  Rh0  1  0.00000000  0.00000000  0.00000000  1
  F  F0  1  0.96831600  0.30007700  0.82174500  1
  F  F1  1  0.03168400  0.69992300  0.17825500  1
  F  F2  1  0.78842000  0.73638000  0.71320800  1
  F  F3  1  0.21158000  0.26362000  0.28679200  1
  F  F4  1  0.39192700  0.75944500  0.92601400  1
  F  F5  1  0.60807300  0.24055500  0.07398600  1
loop_
_geom_bond_atom_site_label_1
_geom_bond_atom_site_label_2
_geom_bond_distance
_geom_bond_site_symmetry_2
F0 Rh0 1.996796 1_656
F0 Zn2 2.082968 1_656
F1 Rh0 1.996796 1_565
F1 Zn2 2.082968 1_555
F2 Zn0 1.771316 1_665
F2 Zn1 2.442511 1_556
F3 Zn0 1.771316 1_555
F3 Zn1 2.442511 1_555
F4 Zn1 1.915634 1_556
F4 Zn2 1.947949 1_556
F5 Zn1 1.915634 1_555
F5 Zn2 1.947949 1_655
