# generated using pymatgen
data_Fe4O3F5
_symmetry_space_group_name_H-M   'P 1'
_cell_length_a   4.78367400
_cell_length_b   7.81493780
_cell_length_c   7.84925743
_cell_angle_alpha   104.09830862
_cell_angle_beta   91.66276383
_cell_angle_gamma   91.96121190
_symmetry_Int_Tables_number   1
_chemical_formula_structural   Fe4O3F5
_chemical_formula_sum   'Fe8 O6 F10'
_cell_volume   284.22099070
_cell_formula_units_Z   2
loop_
 _symmetry_equiv_pos_site_id
 _symmetry_equiv_pos_as_xyz
  1  'x, y, z'
loop_
 _atom_site_type_symbol
 _atom_site_label
 _atom_site_symmetry_multiplicity
 _atom_site_fract_x
 _atom_site_fract_y
 _atom_site_fract_z
 _atom_site_occupancy
  Fe  Fe0  1  0.50332200  0.88063200  0.64460800  1
  Fe  Fe1  1  0.47162000  0.61499900  0.84941000  1
  Fe  Fe2  1  0.49776000  0.37287400  0.12020500  1
  Fe  Fe3  1  0.56462500  0.13558700  0.38784500  1
  Fe  Fe4  1  0.98508300  0.77333700  0.24970200  1
  Fe  Fe5  1  0.00105300  0.49643900  0.49304000  1
  Fe  Fe6  1  0.00902400  0.24885400  0.75462400  1
  Fe  Fe7  1  0.96838500  0.98628800  0.00109800  1
  O  O0  1  0.79696000  0.97225300  0.23485800  1
  O  O1  1  0.68323200  0.82933500  0.84423400  1
  O  O2  1  0.69801500  0.35882300  0.34452200  1
  O  O3  1  0.69288900  0.09286000  0.60399300  1
  O  O4  1  0.28761200  0.64837900  0.63768500  1
  O  O5  1  0.31823900  0.40606700  0.91029600  1
  F  F0  1  0.79912900  0.47743800  0.71349400  1
  F  F1  1  0.80467200  0.72183500  0.46156400  1
  F  F2  1  0.79419900  0.23004000  0.98793100  1
  F  F3  1  0.70971800  0.59898600  0.09929900  1
  F  F4  1  0.30494700  0.15305700  0.15636100  1
  F  F5  1  0.29972300  0.90179700  0.40304900  1
  F  F6  1  0.20603300  0.01897800  0.78331000  1
  F  F7  1  0.19138600  0.53712300  0.27291300  1
  F  F8  1  0.21011600  0.76663900  0.03573600  1
  F  F9  1  0.20226400  0.27738000  0.51022500  1
loop_
_geom_bond_atom_site_label_1
_geom_bond_atom_site_label_2
_geom_bond_distance
_geom_bond_site_symmetry_2
Fe0 O1 1.899471 1_555
Fe0 O3 1.961166 1_565
Fe0 O4 2.045147 1_555
Fe1 O4 1.935651 1_555
Fe1 O5 1.936817 1_555
Fe1 O1 1.936892 1_555
Fe2 O5 1.913324 1_554
Fe2 O2 2.008328 1_555
Fe3 O3 1.896318 1_555
Fe3 O0 1.932453 1_545
Fe3 O2 1.947243 1_555
Fe4 O0 1.848744 1_555
Fe5 O4 1.928617 1_555
Fe5 O2 1.949739 1_455
Fe6 O5 2.056668 1_555
Fe6 O3 2.058873 1_455
Fe7 O1 1.983301 1_554
Fe7 O0 2.056782 1_555
F0 Fe5 2.040033 1_655
F0 Fe1 2.098076 1_555
F0 Fe6 2.165274 1_655
F1 Fe4 2.014406 1_555
F1 Fe5 2.087603 1_655
F1 Fe0 2.248653 1_555
F2 Fe2 1.990994 1_556
F2 Fe7 2.129134 1_546
F2 Fe6 2.159015 1_655
F3 Fe4 1.997161 1_555
F3 Fe2 2.050794 1_555
F3 Fe1 2.271539 1_554
F4 Fe2 2.006628 1_555
F4 Fe7 2.178217 1_445
F4 Fe3 2.205588 1_555
F5 Fe4 1.981115 1_455
F5 Fe0 2.151190 1_555
F5 Fe3 2.216914 1_565
F6 Fe0 1.999580 1_545
F6 Fe6 2.113478 1_555
F6 Fe7 2.141404 1_446
F7 Fe5 2.062669 1_555
F7 Fe4 2.166322 1_455
F7 Fe2 2.171057 1_555
F8 Fe4 2.011999 1_455
F8 Fe1 2.114590 1_554
F8 Fe7 2.168546 1_455
F9 Fe5 2.023145 1_555
F9 Fe3 2.205653 1_555
F9 Fe6 2.209395 1_555
