# generated using pymatgen
data_GdSnPt
_symmetry_space_group_name_H-M   'P 1'
_cell_length_a   7.51001434
_cell_length_b   7.51001434
_cell_length_c   4.06152736
_cell_angle_alpha   90.00000000
_cell_angle_beta   90.00000000
_cell_angle_gamma   120.00000436
_symmetry_Int_Tables_number   1
_chemical_formula_structural   GdSnPt
_chemical_formula_sum   'Gd3 Sn3 Pt3'
_cell_volume   198.38166354
_cell_formula_units_Z   3
loop_
 _symmetry_equiv_pos_site_id
 _symmetry_equiv_pos_as_xyz
  1  'x, y, z'
loop_
 _atom_site_type_symbol
 _atom_site_label
 _atom_site_symmetry_multiplicity
 _atom_site_fract_x
 _atom_site_fract_y
 _atom_site_fract_z
 _atom_site_occupancy
  Gd  Gd0  1  0.40781762  0.40781762  0.50000000  1
  Gd  Gd1  1  0.59218338  -0.00000000  0.50000000  1
  Gd  Gd2  1  -0.00000000  0.59218338  0.50000000  1
  Sn  Sn0  1  0.74350035  0.74350035  0.00000000  1
  Sn  Sn1  1  0.25649865  0.00000000  0.00000000  1
  Sn  Sn2  1  0.00000000  0.25649865  -0.00000000  1
  Pt  Pt0  1  0.66666700  0.33333300  -0.00000000  1
  Pt  Pt1  1  0.33333300  0.66666700  0.00000000  1
  Pt  Pt2  1  -0.00000000  -0.00000000  0.50000000  1
loop_
_geom_bond_atom_site_label_1
_geom_bond_atom_site_label_2
_geom_bond_distance
_geom_bond_site_symmetry_2
Gd0 Pt0 3.050133 1_556
Gd0 Pt0 3.050133 1_555
Gd0 Pt1 3.050133 1_555
Gd0 Pt1 3.050133 1_556
Gd0 Pt2 3.062716 1_555
Gd0 Sn0 3.237183 1_555
Gd0 Sn0 3.237183 1_556
Gd0 Sn2 3.363801 1_556
Gd0 Sn1 3.363801 1_555
Gd0 Sn1 3.363801 1_556
Gd0 Sn2 3.363801 1_555
Gd1 Pt0 3.050129 1_556
Gd1 Pt0 3.050129 1_555
Gd1 Pt1 3.050131 1_546
Gd1 Pt1 3.050131 1_545
Gd1 Pt2 3.062709 1_655
Gd1 Sn1 3.237194 1_555
Gd1 Sn1 3.237194 1_556
Gd1 Sn2 3.363797 1_655
Gd1 Sn2 3.363797 1_656
Gd1 Sn0 3.363798 1_546
Gd1 Sn0 3.363798 1_545
Gd2 Pt1 3.050129 1_555
Gd2 Pt1 3.050129 1_556
Gd2 Pt0 3.050131 1_455
Gd2 Pt0 3.050131 1_456
Gd2 Pt2 3.062709 1_565
Gd2 Sn2 3.237194 1_555
Gd2 Sn2 3.237194 1_556
Gd2 Sn1 3.363797 1_565
Gd2 Sn1 3.363797 1_566
Gd2 Sn0 3.363798 1_456
Gd2 Sn0 3.363798 1_455
Pt0 Sn2 2.836220 1_655
Pt0 Sn0 2.836222 1_555
Pt0 Sn1 2.836224 1_555
Pt1 Sn1 2.836220 1_565
Pt1 Sn0 2.836222 1_555
Pt1 Sn2 2.836224 1_555
Pt2 Sn2 2.799047 1_556
Pt2 Sn1 2.799047 1_555
Pt2 Sn1 2.799047 1_556
Pt2 Sn2 2.799047 1_555
Pt2 Sn0 2.799052 1_446
Pt2 Sn0 2.799052 1_445
