# generated using pymatgen
data_Cu(NO)3
_symmetry_space_group_name_H-M   'P 1'
_cell_length_a   5.62465800
_cell_length_b   7.43830400
_cell_length_c   10.06527700
_cell_angle_alpha   90.00000000
_cell_angle_beta   90.00000000
_cell_angle_gamma   90.00000000
_symmetry_Int_Tables_number   1
_chemical_formula_structural   Cu(NO)3
_chemical_formula_sum   'Cu4 N12 O12'
_cell_volume   421.11021465
_cell_formula_units_Z   4
loop_
 _symmetry_equiv_pos_site_id
 _symmetry_equiv_pos_as_xyz
  1  'x, y, z'
loop_
 _atom_site_type_symbol
 _atom_site_label
 _atom_site_symmetry_multiplicity
 _atom_site_fract_x
 _atom_site_fract_y
 _atom_site_fract_z
 _atom_site_occupancy
  Cu  Cu0  1  0.50000000  0.00000000  0.00000000  1
  Cu  Cu1  1  0.00000000  0.50000000  0.50000000  1
  Cu  Cu2  1  0.00000000  0.00000000  0.00000000  1
  Cu  Cu3  1  0.50000000  0.50000000  0.50000000  1
  N  N0  1  0.00000000  0.24742100  0.01112000  1
  N  N1  1  0.00000000  0.75257900  0.98888000  1
  N  N2  1  0.50000000  0.25257900  0.51112000  1
  N  N3  1  0.50000000  0.74742100  0.48888000  1
  N  N4  1  0.00000000  0.07804000  0.34348300  1
  N  N5  1  0.00000000  0.92196000  0.65651700  1
  N  N6  1  0.50000000  0.42196000  0.84348300  1
  N  N7  1  0.50000000  0.57804000  0.15651700  1
  N  N8  1  0.00000000  0.62462900  0.33941000  1
  N  N9  1  0.00000000  0.37537100  0.66059000  1
  N  N10  1  0.50000000  0.87537100  0.83941000  1
  N  N11  1  0.50000000  0.12462900  0.16059000  1
  O  O0  1  0.00000000  0.24976300  0.34629400  1
  O  O1  1  0.00000000  0.75023700  0.65370600  1
  O  O2  1  0.50000000  0.25023700  0.84629400  1
  O  O3  1  0.50000000  0.74976300  0.15370600  1
  O  O4  1  0.30604100  0.49360400  0.16014200  1
  O  O5  1  0.69395900  0.50639600  0.83985800  1
  O  O6  1  0.30604100  0.50639600  0.83985800  1
  O  O7  1  0.19395900  0.00639600  0.66014200  1
  O  O8  1  0.69395900  0.49360400  0.16014200  1
  O  O9  1  0.80604100  0.99360400  0.33985800  1
  O  O10  1  0.19395900  0.99360400  0.33985800  1
  O  O11  1  0.80604100  0.00639600  0.66014200  1
loop_
_geom_bond_atom_site_label_1
_geom_bond_atom_site_label_2
_geom_bond_distance
_geom_bond_site_symmetry_2
Cu0 N10 1.863351 1_544
Cu0 N11 1.863351 1_555
Cu0 O2 2.420347 1_554
Cu0 O3 2.420347 1_545
Cu1 N9 1.863351 1_555
Cu1 N8 1.863351 1_555
Cu1 O0 2.420347 1_555
Cu1 O1 2.420347 1_555
Cu2 N1 1.843793 1_544
Cu2 N0 1.843793 1_555
Cu3 N3 1.843793 1_555
Cu3 N2 1.843793 1_555
N4 O9 1.259353 1_445
N4 O10 1.259353 1_545
N4 O0 1.277641 1_555
N5 O7 1.259353 1_565
N5 O11 1.259353 1_465
N5 O1 1.277641 1_555
N6 O6 1.259353 1_555
N6 O5 1.259353 1_555
N6 O2 1.277641 1_555
N7 O4 1.259353 1_555
N7 O8 1.259353 1_555
N7 O3 1.277641 1_555
