# generated using pymatgen
data_Na3Zn4P3O19
_symmetry_space_group_name_H-M   'P 1'
_cell_length_a   10.47208974
_cell_length_b   10.47208974
_cell_length_c   10.47208923
_cell_angle_alpha   63.08916558
_cell_angle_beta   63.08916558
_cell_angle_gamma   63.08916628
_symmetry_Int_Tables_number   1
_chemical_formula_structural   Na3Zn4P3O19
_chemical_formula_sum   'Na6 Zn8 P6 O38'
_cell_volume   867.70727666
_cell_formula_units_Z   2
loop_
 _symmetry_equiv_pos_site_id
 _symmetry_equiv_pos_as_xyz
  1  'x, y, z'
loop_
 _atom_site_type_symbol
 _atom_site_label
 _atom_site_symmetry_multiplicity
 _atom_site_fract_x
 _atom_site_fract_y
 _atom_site_fract_z
 _atom_site_occupancy
  Na  Na0  1  0.98773200  0.10089900  0.44947400  1
  Na  Na1  1  0.94947400  0.60089900  0.48773200  1
  Na  Na2  1  0.10089900  0.44947400  0.98773200  1
  Na  Na3  1  0.60089900  0.48773200  0.94947400  1
  Na  Na4  1  0.44947400  0.98773200  0.10089900  1
  Na  Na5  1  0.48773200  0.94947400  0.60089900  1
  Zn  Zn0  1  0.27506400  0.57053300  0.57534500  1
  Zn  Zn1  1  0.07534500  0.07053300  0.77506400  1
  Zn  Zn2  1  0.57053300  0.57534500  0.27506400  1
  Zn  Zn3  1  0.07053300  0.77506400  0.07534500  1
  Zn  Zn4  1  0.57534500  0.27506400  0.57053300  1
  Zn  Zn5  1  0.77506400  0.07534500  0.07053300  1
  Zn  Zn6  1  0.57540700  0.57540700  0.57540700  1
  Zn  Zn7  1  0.07540700  0.07540700  0.07540700  1
  P  P0  1  0.23612600  0.76681700  0.26485300  1
  P  P1  1  0.76485300  0.26681700  0.73612600  1
  P  P2  1  0.76681700  0.26485300  0.23612600  1
  P  P3  1  0.26681700  0.73612600  0.76485300  1
  P  P4  1  0.26485300  0.23612600  0.76681700  1
  P  P5  1  0.73612600  0.76485300  0.26681700  1
  O  O0  1  0.49687700  0.49687700  0.49687700  1
  O  O1  1  0.99687700  0.99687700  0.99687700  1
  O  O2  1  0.17245900  0.65866200  0.42342600  1
  O  O3  1  0.92342600  0.15866200  0.67245900  1
  O  O4  1  0.65866200  0.42342600  0.17245900  1
  O  O5  1  0.15866200  0.67245900  0.92342600  1
  O  O6  1  0.42342600  0.17245900  0.65866200  1
  O  O7  1  0.67245900  0.92342600  0.15866200  1
  O  O8  1  0.21932200  0.74003000  0.64306000  1
  O  O9  1  0.14306000  0.24003000  0.71932200  1
  O  O10  1  0.74003000  0.64306000  0.21932200  1
  O  O11  1  0.24003000  0.71932200  0.14306000  1
  O  O12  1  0.64306000  0.21932200  0.74003000  1
  O  O13  1  0.71932200  0.14306000  0.24003000  1
  O  O14  1  0.23530600  0.39974400  0.75767600  1
  O  O15  1  0.25767600  0.89974400  0.73530600  1
  O  O16  1  0.39974400  0.75767600  0.23530600  1
  O  O17  1  0.89974400  0.73530600  0.25767600  1
  O  O18  1  0.75767600  0.23530600  0.39974400  1
  O  O19  1  0.73530600  0.25767600  0.89974400  1
  O  O20  1  0.43330200  0.63641200  0.75862600  1
  O  O21  1  0.25862600  0.13641200  0.93330200  1
  O  O22  1  0.63641200  0.75862600  0.43330200  1
  O  O23  1  0.13641200  0.93330200  0.25862600  1
  O  O24  1  0.75862600  0.43330200  0.63641200  1
  O  O25  1  0.93330200  0.25862600  0.13641200  1
  O  O26  1  0.36843800  0.30844900  0.06859000  1
  O  O27  1  0.56859000  0.80844900  0.86843800  1
  O  O28  1  0.30844900  0.06859000  0.36843800  1
  O  O29  1  0.80844900  0.86843800  0.56859000  1
  O  O30  1  0.06859000  0.36843800  0.30844900  1
  O  O31  1  0.86843800  0.56859000  0.80844900  1
  O  O32  1  0.38404900  0.38917900  0.11432200  1
  O  O33  1  0.61432200  0.88917900  0.88404900  1
  O  O34  1  0.38917900  0.11432200  0.38404900  1
  O  O35  1  0.88917900  0.88404900  0.61432200  1
  O  O36  1  0.11432200  0.38404900  0.38917900  1
  O  O37  1  0.88404900  0.61432200  0.88917900  1
loop_
_geom_bond_atom_site_label_1
_geom_bond_atom_site_label_2
_geom_bond_distance
_geom_bond_site_symmetry_2
Na0 O18 2.336468 1_555
Na0 O3 2.399710 1_555
Na0 O35 2.482392 1_545
Na0 O23 2.717286 1_645
Na0 O30 2.831533 1_655
Na0 O28 2.960738 1_655
Na1 O17 2.336468 1_555
Na1 O2 2.399710 1_655
Na1 O36 2.482392 1_655
Na1 O24 2.717286 1_555
Na1 O29 2.831533 1_555
Na1 O31 2.960738 1_555
Na2 O14 2.336468 1_555
Na2 O5 2.399710 1_555
Na2 O37 2.482392 1_455
Na2 O25 2.717286 1_456
Na2 O26 2.831533 1_556
Na2 O30 2.960738 1_556
Na3 O19 2.336468 1_555
Na3 O4 2.399710 1_556
Na3 O32 2.482392 1_556
Na3 O20 2.717286 1_555
Na3 O31 2.831533 1_555
Na3 O27 2.960738 1_555
Na4 O16 2.336468 1_555
Na4 O7 2.399710 1_555
Na4 O33 2.482392 1_554
Na4 O21 2.717286 1_564
Na4 O28 2.831533 1_565
Na4 O26 2.960738 1_565
Na5 O15 2.336468 1_555
Na5 O6 2.399710 1_565
Na5 O34 2.482392 1_565
Na5 O22 2.717286 1_555
Na5 O27 2.831533 1_555
Na5 O29 2.960738 1_555
O0 Zn6 1.966077 1_555
O0 Zn2 1.972280 1_555
O0 Zn0 1.972280 1_555
O0 Zn4 1.972280 1_555
O1 Zn7 1.966077 1_666
O1 Zn1 1.972280 1_665
O1 Zn3 1.972280 1_656
O1 Zn5 1.972280 1_566
O2 P0 1.569626 1_555
O2 Zn0 1.964160 1_555
O3 P1 1.569626 1_555
O3 Zn1 1.964160 1_655
O4 P2 1.569626 1_555
O4 Zn2 1.964160 1_555
O5 P3 1.569626 1_555
O5 Zn3 1.964160 1_556
O6 P4 1.569626 1_555
O6 Zn4 1.964160 1_555
O7 P5 1.569626 1_555
O7 Zn5 1.964160 1_565
O8 P3 1.544146 1_555
O8 Zn0 1.954721 1_555
O9 P4 1.544146 1_555
O9 Zn1 1.954721 1_555
O10 P5 1.544146 1_555
O10 Zn2 1.954721 1_555
O11 P0 1.544146 1_555
O11 Zn3 1.954721 1_555
O12 P1 1.544146 1_555
O12 Zn4 1.954721 1_555
O13 P2 1.544146 1_555
O13 Zn5 1.954721 1_555
O14 P4 1.561778 1_555
O14 Zn0 1.970048 1_555
O15 P3 1.561778 1_555
O15 Zn1 1.970049 1_565
O16 P0 1.561778 1_555
O16 Zn2 1.970049 1_555
O17 P5 1.561778 1_555
O17 Zn3 1.970048 1_655
O18 P2 1.561778 1_555
O18 Zn4 1.970048 1_555
O19 P1 1.561778 1_555
O19 Zn5 1.970048 1_556
O20 P3 1.563652 1_555
O20 Zn6 1.992087 1_555
O21 P4 1.563652 1_555
O21 Zn7 1.992087 1_556
O22 P5 1.563652 1_555
O22 Zn6 1.992087 1_555
O23 P0 1.563652 1_555
O23 Zn7 1.992087 1_565
O24 P1 1.563652 1_555
O24 Zn6 1.992087 1_555
O25 P2 1.563652 1_555
O25 Zn7 1.992087 1_655
O26 O32 1.238255 1_555
O27 O33 1.238255 1_555
O28 O34 1.238255 1_555
O29 O35 1.238255 1_555
O30 O36 1.238255 1_555
O31 O37 1.238255 1_555
