# generated using pymatgen
data_MgZn2
_symmetry_space_group_name_H-M   'P 1'
_cell_length_a   5.89574840
_cell_length_b   5.89574840
_cell_length_c   27.70204200
_cell_angle_alpha   90.00000000
_cell_angle_beta   90.00000000
_cell_angle_gamma   120.00000445
_symmetry_Int_Tables_number   1
_chemical_formula_structural   MgZn2
_chemical_formula_sum   'Mg16 Zn32'
_cell_volume   833.91210621
_cell_formula_units_Z   16
loop_
 _symmetry_equiv_pos_site_id
 _symmetry_equiv_pos_as_xyz
  1  'x, y, z'
loop_
 _atom_site_type_symbol
 _atom_site_label
 _atom_site_symmetry_multiplicity
 _atom_site_fract_x
 _atom_site_fract_y
 _atom_site_fract_z
 _atom_site_occupancy
  Mg  Mg0_0  1  0.00000000  0.00000000  0.33559500  1
  Mg  Mg0_1  1  0.00000000  0.00000000  0.83559500  1
  Mg  Mg0_2  1  0.00000000  0.50000000  0.33559500  1
  Mg  Mg0_3  1  0.00000000  0.50000000  0.83559500  1
  Mg  Mg0_4  1  0.50000000  0.00000000  0.33559500  1
  Mg  Mg0_5  1  0.50000000  0.00000000  0.83559500  1
  Mg  Mg0_6  1  0.50000000  0.50000000  0.33559500  1
  Mg  Mg0_7  1  0.50000000  0.50000000  0.83559500  1
  Mg  Mg1_0  1  0.00000000  0.00000000  0.16440500  1
  Mg  Mg1_1  1  0.00000000  0.00000000  0.66440500  1
  Mg  Mg1_2  1  0.00000000  0.50000000  0.16440500  1
  Mg  Mg1_3  1  0.00000000  0.50000000  0.66440500  1
  Mg  Mg1_4  1  0.50000000  0.00000000  0.16440500  1
  Mg  Mg1_5  1  0.50000000  0.00000000  0.66440500  1
  Mg  Mg1_6  1  0.50000000  0.50000000  0.16440500  1
  Mg  Mg1_7  1  0.50000000  0.50000000  0.66440500  1
  Zn  Zn0_0  1  0.00000000  0.00000000  0.00000000  1
  Zn  Zn0_1  1  0.00000000  0.00000000  0.50000000  1
  Zn  Zn0_2  1  0.00000000  0.50000000  0.00000000  1
  Zn  Zn0_3  1  0.00000000  0.50000000  0.50000000  1
  Zn  Zn0_4  1  0.50000000  0.00000000  0.00000000  1
  Zn  Zn0_5  1  0.50000000  0.00000000  0.50000000  1
  Zn  Zn0_6  1  0.50000000  0.50000000  0.00000000  1
  Zn  Zn0_7  1  0.50000000  0.50000000  0.50000000  1
  Zn  Zn1_0  1  0.33333350  0.16666650  0.42183950  1
  Zn  Zn1_1  1  0.33333350  0.16666650  0.92183950  1
  Zn  Zn1_2  1  0.33333350  0.66666650  0.42183950  1
  Zn  Zn1_3  1  0.33333350  0.66666650  0.92183950  1
  Zn  Zn1_4  1  0.83333350  0.16666650  0.42183950  1
  Zn  Zn1_5  1  0.83333350  0.16666650  0.92183950  1
  Zn  Zn1_6  1  0.83333350  0.66666650  0.42183950  1
  Zn  Zn1_7  1  0.83333350  0.66666650  0.92183950  1
  Zn  Zn2_0  1  0.33333350  0.16666650  0.25000000  1
  Zn  Zn2_1  1  0.33333350  0.16666650  0.75000000  1
  Zn  Zn2_2  1  0.33333350  0.66666650  0.25000000  1
  Zn  Zn2_3  1  0.33333350  0.66666650  0.75000000  1
  Zn  Zn2_4  1  0.83333350  0.16666650  0.25000000  1
  Zn  Zn2_5  1  0.83333350  0.16666650  0.75000000  1
  Zn  Zn2_6  1  0.83333350  0.66666650  0.25000000  1
  Zn  Zn2_7  1  0.83333350  0.66666650  0.75000000  1
  Zn  Zn3_0  1  0.33333350  0.16666650  0.07816050  1
  Zn  Zn3_1  1  0.33333350  0.16666650  0.57816050  1
  Zn  Zn3_2  1  0.33333350  0.66666650  0.07816050  1
  Zn  Zn3_3  1  0.33333350  0.66666650  0.57816050  1
  Zn  Zn3_4  1  0.83333350  0.16666650  0.07816050  1
  Zn  Zn3_5  1  0.83333350  0.16666650  0.57816050  1
  Zn  Zn3_6  1  0.83333350  0.66666650  0.07816050  1
  Zn  Zn3_7  1  0.83333350  0.66666650  0.57816050  1
loop_
_geom_bond_atom_site_label_1
_geom_bond_atom_site_label_2
_geom_bond_distance
_geom_bond_site_symmetry_2
Mg0_0 Zn2_4 2.918738 1_455
Mg0_0 Zn2_6 2.918739 1_445
Mg0_0 Zn2_0 2.918739 1_555
Mg0_0 Zn1_4 2.933374 1_455
Mg0_0 Zn1_6 2.933375 1_445
Mg0_0 Zn1_0 2.933375 1_555
Mg0_0 Mg0_6 2.947874 1_555
Mg0_0 Mg0_6 2.947874 1_445
Mg0_0 Mg0_4 2.947874 1_455
Mg0_0 Mg0_4 2.947874 1_555
Mg0_0 Mg0_2 2.947874 1_545
Mg0_0 Mg0_2 2.947874 1_555
Mg0_1 Zn2_5 2.918738 1_455
Mg0_1 Zn2_7 2.918739 1_445
Mg0_1 Zn2_1 2.918739 1_555
Mg0_1 Zn1_5 2.933374 1_455
Mg0_1 Zn1_7 2.933375 1_445
Mg0_1 Zn1_1 2.933375 1_555
Mg0_1 Mg0_7 2.947874 1_555
Mg0_1 Mg0_7 2.947874 1_445
Mg0_1 Mg0_3 2.947874 1_555
Mg0_1 Mg0_3 2.947874 1_545
Mg0_1 Mg0_5 2.947874 1_455
Mg0_1 Mg0_5 2.947874 1_555
Mg0_2 Zn2_6 2.918738 1_455
Mg0_2 Zn2_4 2.918739 1_455
Mg0_2 Zn2_2 2.918739 1_555
Mg0_2 Zn1_6 2.933374 1_455
Mg0_2 Zn1_4 2.933375 1_455
Mg0_2 Zn1_2 2.933375 1_555
Mg0_2 Mg0_4 2.947874 1_455
Mg0_2 Mg0_4 2.947874 1_565
Mg0_2 Mg0_6 2.947874 1_555
Mg0_2 Mg0_6 2.947874 1_455
Mg0_3 Zn2_7 2.918738 1_455
Mg0_3 Zn2_3 2.918739 1_555
Mg0_3 Zn2_5 2.918739 1_455
Mg0_3 Zn1_7 2.933374 1_455
Mg0_3 Zn1_3 2.933375 1_555
Mg0_3 Zn1_5 2.933375 1_455
Mg0_3 Mg0_5 2.947874 1_565
Mg0_3 Mg0_5 2.947874 1_455
Mg0_3 Mg0_7 2.947874 1_555
Mg0_3 Mg0_7 2.947874 1_455
Mg0_4 Zn2_0 2.918738 1_555
Mg0_4 Zn2_4 2.918739 1_555
Mg0_4 Zn2_2 2.918739 1_545
Mg0_4 Zn1_0 2.933374 1_555
Mg0_4 Zn1_4 2.933375 1_555
Mg0_4 Zn1_2 2.933375 1_545
Mg0_4 Mg0_6 2.947874 1_545
Mg0_4 Mg0_6 2.947874 1_555
Mg0_5 Zn2_1 2.918738 1_555
Mg0_5 Zn2_5 2.918739 1_555
Mg0_5 Zn2_3 2.918739 1_545
Mg0_5 Zn1_1 2.933374 1_555
Mg0_5 Zn1_3 2.933375 1_545
Mg0_5 Zn1_5 2.933375 1_555
Mg0_5 Mg0_7 2.947874 1_545
Mg0_5 Mg0_7 2.947874 1_555
Mg0_6 Zn2_2 2.918738 1_555
Mg0_6 Zn2_6 2.918739 1_555
Mg0_6 Zn2_0 2.918739 1_555
Mg0_6 Zn1_2 2.933374 1_555
Mg0_6 Zn1_6 2.933375 1_555
Mg0_6 Zn1_0 2.933375 1_555
Mg0_7 Zn2_3 2.918738 1_555
Mg0_7 Zn2_7 2.918739 1_555
Mg0_7 Zn2_1 2.918739 1_555
Mg0_7 Zn1_3 2.933374 1_555
Mg0_7 Zn1_7 2.933375 1_555
Mg0_7 Zn1_1 2.933375 1_555
Mg1_0 Zn2_4 2.918738 1_455
Mg1_0 Zn2_6 2.918739 1_445
Mg1_0 Zn2_0 2.918739 1_555
Mg1_0 Zn3_4 2.933374 1_455
Mg1_0 Zn3_6 2.933375 1_445
Mg1_0 Zn3_0 2.933375 1_555
Mg1_0 Mg1_6 2.947874 1_555
Mg1_0 Mg1_6 2.947874 1_445
Mg1_0 Mg1_2 2.947874 1_555
Mg1_0 Mg1_2 2.947874 1_545
Mg1_0 Mg1_4 2.947874 1_555
Mg1_0 Mg1_4 2.947874 1_455
Mg1_1 Zn2_5 2.918738 1_455
Mg1_1 Zn2_7 2.918739 1_445
Mg1_1 Zn2_1 2.918739 1_555
Mg1_1 Zn3_5 2.933374 1_455
Mg1_1 Zn3_1 2.933375 1_555
Mg1_1 Zn3_7 2.933375 1_445
Mg1_1 Mg1_7 2.947874 1_555
Mg1_1 Mg1_7 2.947874 1_445
Mg1_1 Mg1_5 2.947874 1_555
Mg1_1 Mg1_5 2.947874 1_455
Mg1_1 Mg1_3 2.947874 1_545
Mg1_1 Mg1_3 2.947874 1_555
Mg1_2 Zn2_6 2.918738 1_455
Mg1_2 Zn2_2 2.918739 1_555
Mg1_2 Zn2_4 2.918739 1_455
Mg1_2 Zn3_6 2.933374 1_455
Mg1_2 Zn3_2 2.933375 1_555
Mg1_2 Zn3_4 2.933375 1_455
Mg1_2 Mg1_4 2.947874 1_455
Mg1_2 Mg1_4 2.947874 1_565
Mg1_2 Mg1_6 2.947874 1_555
Mg1_2 Mg1_6 2.947874 1_455
Mg1_3 Zn2_7 2.918738 1_455
Mg1_3 Zn2_3 2.918739 1_555
Mg1_3 Zn2_5 2.918739 1_455
Mg1_3 Zn3_7 2.933374 1_455
Mg1_3 Zn3_5 2.933375 1_455
Mg1_3 Zn3_3 2.933375 1_555
Mg1_3 Mg1_5 2.947874 1_565
Mg1_3 Mg1_5 2.947874 1_455
Mg1_3 Mg1_7 2.947874 1_555
Mg1_3 Mg1_7 2.947874 1_455
Mg1_4 Zn2_0 2.918738 1_555
Mg1_4 Zn2_2 2.918739 1_545
Mg1_4 Zn2_4 2.918739 1_555
Mg1_4 Zn3_0 2.933374 1_555
Mg1_4 Zn3_2 2.933375 1_545
Mg1_4 Zn3_4 2.933375 1_555
Mg1_4 Mg1_6 2.947874 1_545
Mg1_4 Mg1_6 2.947874 1_555
Mg1_5 Zn2_1 2.918738 1_555
Mg1_5 Zn2_5 2.918739 1_555
Mg1_5 Zn2_3 2.918739 1_545
Mg1_5 Zn3_1 2.933374 1_555
Mg1_5 Zn3_5 2.933375 1_555
Mg1_5 Zn3_3 2.933375 1_545
Mg1_5 Mg1_7 2.947874 1_545
Mg1_5 Mg1_7 2.947874 1_555
Mg1_6 Zn2_2 2.918738 1_555
Mg1_6 Zn2_6 2.918739 1_555
Mg1_6 Zn2_0 2.918739 1_555
Mg1_6 Zn3_2 2.933374 1_555
Mg1_6 Zn3_6 2.933375 1_555
Mg1_6 Zn3_0 2.933375 1_555
Mg1_7 Zn2_3 2.918738 1_555
Mg1_7 Zn2_7 2.918739 1_555
Mg1_7 Zn2_1 2.918739 1_555
Mg1_7 Zn3_3 2.933374 1_555
Mg1_7 Zn3_7 2.933375 1_555
Mg1_7 Zn3_1 2.933375 1_555
Zn0_0 Zn1_5 2.754045 1_454
Zn0_0 Zn3_4 2.754045 1_455
Zn0_0 Zn1_7 2.754046 1_444
Zn0_0 Zn1_1 2.754046 1_554
Zn0_0 Zn3_6 2.754046 1_445
Zn0_0 Zn3_0 2.754046 1_555
Zn0_0 Zn0_6 2.947874 1_555
Zn0_0 Zn0_6 2.947874 1_445
Zn0_0 Zn0_2 2.947874 1_555
Zn0_0 Zn0_4 2.947874 1_555
Zn0_0 Zn0_4 2.947874 1_455
Zn0_0 Zn0_2 2.947874 1_545
Zn0_1 Zn3_5 2.754045 1_455
Zn0_1 Zn1_4 2.754045 1_455
Zn0_1 Zn3_7 2.754046 1_445
Zn0_1 Zn3_1 2.754046 1_555
Zn0_1 Zn1_6 2.754046 1_445
Zn0_1 Zn1_0 2.754046 1_555
Zn0_1 Zn0_7 2.947874 1_555
Zn0_1 Zn0_7 2.947874 1_445
Zn0_1 Zn0_5 2.947874 1_555
Zn0_1 Zn0_5 2.947874 1_455
Zn0_1 Zn0_3 2.947874 1_545
Zn0_1 Zn0_3 2.947874 1_555
Zn0_2 Zn1_7 2.754045 1_454
Zn0_2 Zn3_6 2.754045 1_455
Zn0_2 Zn1_3 2.754046 1_554
Zn0_2 Zn1_5 2.754046 1_454
Zn0_2 Zn3_2 2.754046 1_555
Zn0_2 Zn3_4 2.754046 1_455
Zn0_2 Zn0_4 2.947874 1_565
Zn0_2 Zn0_4 2.947874 1_455
Zn0_2 Zn0_6 2.947874 1_555
Zn0_2 Zn0_6 2.947874 1_455
Zn0_3 Zn1_6 2.754045 1_455
Zn0_3 Zn3_7 2.754045 1_455
Zn0_3 Zn1_2 2.754046 1_555
Zn0_3 Zn3_3 2.754046 1_555
Zn0_3 Zn3_5 2.754046 1_455
Zn0_3 Zn1_4 2.754046 1_455
Zn0_3 Zn0_5 2.947874 1_565
Zn0_3 Zn0_5 2.947874 1_455
Zn0_3 Zn0_7 2.947874 1_555
Zn0_3 Zn0_7 2.947874 1_455
Zn0_4 Zn1_1 2.754045 1_554
Zn0_4 Zn3_0 2.754045 1_555
Zn0_4 Zn1_3 2.754046 1_544
Zn0_4 Zn1_5 2.754046 1_554
Zn0_4 Zn3_2 2.754046 1_545
Zn0_4 Zn3_4 2.754046 1_555
Zn0_4 Zn0_6 2.947874 1_545
Zn0_4 Zn0_6 2.947874 1_555
Zn0_5 Zn3_1 2.754045 1_555
Zn0_5 Zn1_0 2.754045 1_555
Zn0_5 Zn1_2 2.754046 1_545
Zn0_5 Zn3_3 2.754046 1_545
Zn0_5 Zn1_4 2.754046 1_555
Zn0_5 Zn3_5 2.754046 1_555
Zn0_5 Zn0_7 2.947874 1_545
Zn0_5 Zn0_7 2.947874 1_555
Zn0_6 Zn1_3 2.754045 1_554
Zn0_6 Zn3_2 2.754045 1_555
Zn0_6 Zn1_7 2.754046 1_554
Zn0_6 Zn1_1 2.754046 1_554
Zn0_6 Zn3_6 2.754046 1_555
Zn0_6 Zn3_0 2.754046 1_555
Zn0_7 Zn1_2 2.754045 1_555
Zn0_7 Zn3_3 2.754045 1_555
Zn0_7 Zn3_7 2.754046 1_555
Zn0_7 Zn3_1 2.754046 1_555
Zn0_7 Zn1_0 2.754046 1_555
Zn0_7 Zn1_6 2.754046 1_555
Zn1_0 Zn1_6 2.947874 1_555
Zn1_0 Zn1_6 2.947874 1_445
Zn1_0 Zn1_2 2.947874 1_545
Zn1_0 Zn1_4 2.947874 1_555
Zn1_0 Zn1_4 2.947874 1_455
Zn1_0 Zn1_2 2.947874 1_555
Zn1_1 Zn1_7 2.947874 1_555
Zn1_1 Zn1_7 2.947874 1_445
Zn1_1 Zn1_3 2.947874 1_545
Zn1_1 Zn1_5 2.947874 1_555
Zn1_1 Zn1_5 2.947874 1_455
Zn1_1 Zn1_3 2.947874 1_555
Zn1_2 Zn1_4 2.947874 1_565
Zn1_2 Zn1_4 2.947874 1_455
Zn1_2 Zn1_6 2.947874 1_455
Zn1_2 Zn1_6 2.947874 1_555
Zn1_3 Zn1_5 2.947874 1_565
Zn1_3 Zn1_5 2.947874 1_455
Zn1_3 Zn1_7 2.947874 1_455
Zn1_3 Zn1_7 2.947874 1_555
Zn1_4 Zn1_6 2.947874 1_555
Zn1_4 Zn1_6 2.947874 1_545
Zn1_5 Zn1_7 2.947874 1_545
Zn1_5 Zn1_7 2.947874 1_555
Zn2_0 Zn2_6 2.947874 1_555
Zn2_0 Zn2_6 2.947874 1_445
Zn2_0 Zn2_2 2.947874 1_545
Zn2_0 Zn2_4 2.947874 1_555
Zn2_0 Zn2_4 2.947874 1_455
Zn2_0 Zn2_2 2.947874 1_555
Zn2_1 Zn2_7 2.947874 1_555
Zn2_1 Zn2_7 2.947874 1_445
Zn2_1 Zn2_3 2.947874 1_545
Zn2_1 Zn2_5 2.947874 1_555
Zn2_1 Zn2_5 2.947874 1_455
Zn2_1 Zn2_3 2.947874 1_555
Zn2_2 Zn2_4 2.947874 1_565
Zn2_2 Zn2_4 2.947874 1_455
Zn2_2 Zn2_6 2.947874 1_455
Zn2_2 Zn2_6 2.947874 1_555
Zn2_3 Zn2_5 2.947874 1_565
Zn2_3 Zn2_5 2.947874 1_455
Zn2_3 Zn2_7 2.947874 1_455
Zn2_3 Zn2_7 2.947874 1_555
Zn2_4 Zn2_6 2.947874 1_555
Zn2_4 Zn2_6 2.947874 1_545
Zn2_5 Zn2_7 2.947874 1_555
Zn2_5 Zn2_7 2.947874 1_545
Zn3_0 Zn3_6 2.947874 1_555
Zn3_0 Zn3_6 2.947874 1_445
Zn3_0 Zn3_2 2.947874 1_545
Zn3_0 Zn3_4 2.947874 1_555
Zn3_0 Zn3_4 2.947874 1_455
Zn3_0 Zn3_2 2.947874 1_555
Zn3_1 Zn3_7 2.947874 1_555
Zn3_1 Zn3_7 2.947874 1_445
Zn3_1 Zn3_3 2.947874 1_545
Zn3_1 Zn3_5 2.947874 1_555
Zn3_1 Zn3_5 2.947874 1_455
Zn3_1 Zn3_3 2.947874 1_555
Zn3_2 Zn3_4 2.947874 1_565
Zn3_2 Zn3_4 2.947874 1_455
Zn3_2 Zn3_6 2.947874 1_455
Zn3_2 Zn3_6 2.947874 1_555
Zn3_3 Zn3_5 2.947874 1_565
Zn3_3 Zn3_5 2.947874 1_455
Zn3_3 Zn3_7 2.947874 1_455
Zn3_3 Zn3_7 2.947874 1_555
Zn3_4 Zn3_6 2.947874 1_545
Zn3_4 Zn3_6 2.947874 1_555
Zn3_5 Zn3_7 2.947874 1_555
Zn3_5 Zn3_7 2.947874 1_545
