# generated using pymatgen
data_Na3Y(CO3)3
_symmetry_space_group_name_H-M   'P 1'
_cell_length_a   6.45816449
_cell_length_b   6.45816449
_cell_length_c   9.84676872
_cell_angle_alpha   90.00000000
_cell_angle_beta   90.00000000
_cell_angle_gamma   114.25727413
_symmetry_Int_Tables_number   1
_chemical_formula_structural   Na3Y(CO3)3
_chemical_formula_sum   'Na6 Y2 C6 O18'
_cell_volume   374.42825101
_cell_formula_units_Z   2
loop_
 _symmetry_equiv_pos_site_id
 _symmetry_equiv_pos_as_xyz
  1  'x, y, z'
loop_
 _atom_site_type_symbol
 _atom_site_label
 _atom_site_symmetry_multiplicity
 _atom_site_fract_x
 _atom_site_fract_y
 _atom_site_fract_z
 _atom_site_occupancy
  Na  Na0  1  0.40395652  0.36697378  0.25000000  1
  Na  Na1  1  0.36697378  0.40395652  0.75000000  1
  Na  Na2  1  0.79829752  0.20484651  0.25000000  1
  Na  Na3  1  0.20484651  0.79829752  0.75000000  1
  Na  Na4  1  0.07124168  0.07124168  0.00000000  1
  Na  Na5  1  0.07124168  0.07124168  0.50000000  1
  Y  Y0  1  0.22719140  0.77155801  0.25000000  1
  Y  Y1  1  0.77155801  0.22719140  0.75000000  1
  C  C0  1  0.78527016  0.76043674  0.25000000  1
  C  C1  1  0.76043674  0.78527016  0.75000000  1
  C  C2  1  0.11941008  0.53329927  0.00134244  1
  C  C3  1  0.53329927  0.11941008  0.99865756  1
  C  C4  1  0.11941008  0.53329927  0.49865756  1
  C  C5  1  0.53329927  0.11941008  0.50134244  1
  O  O0  1  0.58968305  0.76668264  0.25000000  1
  O  O1  1  0.76668264  0.58968305  0.75000000  1
  O  O2  1  0.80965701  0.57258682  0.25000000  1
  O  O3  1  0.57258682  0.80965701  0.75000000  1
  O  O4  1  0.10486435  0.72446028  0.01298597  1
  O  O5  1  0.72446028  0.10486435  0.98701403  1
  O  O6  1  0.10486435  0.72446028  0.48701403  1
  O  O7  1  0.72446028  0.10486435  0.51298597  1
  O  O8  1  0.97106960  0.94906195  0.25000000  1
  O  O9  1  0.94906195  0.97106960  0.75000000  1
  O  O10  1  0.43449511  0.09904596  0.11447752  1
  O  O11  1  0.09904596  0.43449511  0.88552248  1
  O  O12  1  0.43449511  0.09904596  0.38552248  1
  O  O13  1  0.09904596  0.43449511  0.61447752  1
  O  O14  1  0.16164607  0.44383284  0.11017110  1
  O  O15  1  0.44383284  0.16164607  0.88982890  1
  O  O16  1  0.16164607  0.44383284  0.38982890  1
  O  O17  1  0.44383284  0.16164607  0.61017110  1
loop_
_geom_bond_atom_site_label_1
_geom_bond_atom_site_label_2
_geom_bond_distance
_geom_bond_site_symmetry_2
Na0 O10 2.257010 1_555
Na0 O12 2.257010 1_555
Na0 O16 2.286749 1_555
Na0 O14 2.286749 1_555
Na0 O0 2.357572 1_555
Na0 O2 2.401953 1_555
Na1 O11 2.257010 1_555
Na1 O13 2.257010 1_555
Na1 O15 2.286749 1_555
Na1 O17 2.286749 1_555
Na1 O1 2.357572 1_555
Na1 O3 2.401953 1_555
Na2 O8 2.342699 1_545
Na2 O2 2.345742 1_555
Na2 O12 2.539430 1_555
Na2 O10 2.539430 1_555
Na2 O0 2.586501 1_545
Na2 O16 2.609288 1_655
Na2 O14 2.609288 1_655
Na2 O7 2.664049 1_555
Na2 O5 2.664049 1_554
Na3 O9 2.342699 1_455
Na3 O3 2.345742 1_555
Na3 O11 2.539430 1_555
Na3 O13 2.539430 1_555
Na3 O1 2.586501 1_455
Na3 O15 2.609288 1_565
Na3 O17 2.609288 1_565
Na3 O4 2.664049 1_556
Na3 O6 2.664049 1_555
Na4 O5 2.340675 1_454
Na4 O4 2.340675 1_545
Na4 O14 2.480614 1_555
Na4 O15 2.480614 1_554
Na4 O11 2.541703 1_554
Na4 O10 2.541703 1_555
Na4 O8 2.584884 1_445
Na4 O9 2.584884 1_444
Na5 O7 2.340675 1_455
Na5 O6 2.340675 1_545
Na5 O17 2.480614 1_555
Na5 O16 2.480614 1_555
Na5 O12 2.541703 1_555
Na5 O13 2.541703 1_555
Na5 O8 2.584884 1_445
Na5 O9 2.584884 1_445
C0 O0 1.280234 1_555
C0 O2 1.285912 1_555
C0 O8 1.312523 1_555
C1 O1 1.280234 1_555
C1 O3 1.285912 1_555
C1 O9 1.312523 1_555
C2 O4 1.281160 1_555
C2 O11 1.286910 1_554
C2 O14 1.298494 1_555
C3 O5 1.281160 1_555
C3 O10 1.286910 1_556
C3 O15 1.298494 1_555
C4 O6 1.281160 1_555
C4 O13 1.286910 1_555
C4 O16 1.298494 1_555
C5 O7 1.281160 1_555
C5 O12 1.286910 1_555
C5 O17 1.298494 1_555
O0 Y0 2.354141 1_555
O1 Y1 2.354141 1_555
O2 Y0 2.464807 1_655
O3 Y1 2.464807 1_565
O4 Y0 2.442522 1_555
O5 Y1 2.442522 1_555
O6 Y0 2.442522 1_555
O7 Y1 2.442522 1_555
O8 Y0 2.368142 1_655
O9 Y1 2.368142 1_565
O10 Y0 2.391588 1_545
O11 Y1 2.391588 1_455
O12 Y0 2.391588 1_545
O13 Y1 2.391588 1_455
O14 Y0 2.412130 1_555
O15 Y1 2.412130 1_555
O16 Y0 2.412130 1_555
O17 Y1 2.412130 1_555
