# generated using pymatgen
data_YBeNF6
_symmetry_space_group_name_H-M   'P 1'
_cell_length_a   5.92944700
_cell_length_b   6.60807300
_cell_length_c   7.47028917
_cell_angle_alpha   66.46248318
_cell_angle_beta   90.00000000
_cell_angle_gamma   90.00000000
_symmetry_Int_Tables_number   1
_chemical_formula_structural   YBeNF6
_chemical_formula_sum   'Y2 Be2 N2 F12'
_cell_volume   268.34929818
_cell_formula_units_Z   2
loop_
 _symmetry_equiv_pos_site_id
 _symmetry_equiv_pos_as_xyz
  1  'x, y, z'
loop_
 _atom_site_type_symbol
 _atom_site_label
 _atom_site_symmetry_multiplicity
 _atom_site_fract_x
 _atom_site_fract_y
 _atom_site_fract_z
 _atom_site_occupancy
  Y  Y0  1  0.25000000  0.37115100  0.22183200  1
  Y  Y1  1  0.75000000  0.62884900  0.77816800  1
  Be  Be0  1  0.25000000  0.77998000  0.45395800  1
  Be  Be1  1  0.75000000  0.22002000  0.54604200  1
  N  N0  1  0.25000000  0.21719700  0.85005900  1
  N  N1  1  0.75000000  0.78280300  0.14994100  1
  F  F0  1  0.46136800  0.75370900  0.58647600  1
  F  F1  1  0.53863200  0.24629100  0.41352400  1
  F  F2  1  0.96136800  0.24629100  0.41352400  1
  F  F3  1  0.03863200  0.75370900  0.58647600  1
  F  F4  1  0.25000000  0.59778400  0.37207200  1
  F  F5  1  0.75000000  0.40221600  0.62792800  1
  F  F6  1  0.54563800  0.64410300  0.05009300  1
  F  F7  1  0.45436200  0.35589700  0.94990700  1
  F  F8  1  0.04563800  0.35589700  0.94990700  1
  F  F9  1  0.95436200  0.64410300  0.05009300  1
  F  F10  1  0.25000000  0.01261100  0.28060600  1
  F  F11  1  0.75000000  0.98738900  0.71939400  1
loop_
_geom_bond_atom_site_label_1
_geom_bond_atom_site_label_2
_geom_bond_distance
_geom_bond_site_symmetry_2
Be0 F4 1.553045 1_555
Be0 F3 1.563209 1_555
Be0 F0 1.563209 1_555
Be0 F10 1.565290 1_565
Be1 F5 1.553045 1_555
Be1 F1 1.563209 1_555
Be1 F2 1.563209 1_555
Be1 F11 1.565290 1_545
F0 Y1 2.171793 1_555
F1 Y0 2.171793 1_555
F2 Y0 2.171793 1_655
F3 Y1 2.171793 1_455
F4 Y0 2.201121 1_555
F5 Y1 2.201121 1_555
F6 N1 1.846828 1_555
F6 Y1 2.401763 1_554
F6 Y0 2.474655 1_555
F7 N0 1.846828 1_555
F7 Y0 2.401763 1_556
F7 Y1 2.474655 1_555
F8 N0 1.846828 1_555
F8 Y0 2.401763 1_556
F8 Y1 2.474655 1_455
F9 N1 1.846828 1_555
F9 Y1 2.401763 1_554
F9 Y0 2.474655 1_655
F10 Y0 2.230542 1_555
F11 Y1 2.230542 1_555
