# generated using pymatgen
data_NaMg14BO15
_symmetry_space_group_name_H-M   'P 1'
_cell_length_a   8.40746211
_cell_length_b   8.61566225
_cell_length_c   4.28503396
_cell_angle_alpha   90.00000000
_cell_angle_beta   90.00000000
_cell_angle_gamma   90.00000000
_symmetry_Int_Tables_number   1
_chemical_formula_structural   NaMg14BO15
_chemical_formula_sum   'Na1 Mg14 B1 O15'
_cell_volume   310.39009397
_cell_formula_units_Z   1
loop_
 _symmetry_equiv_pos_site_id
 _symmetry_equiv_pos_as_xyz
  1  'x, y, z'
loop_
 _atom_site_type_symbol
 _atom_site_label
 _atom_site_symmetry_multiplicity
 _atom_site_fract_x
 _atom_site_fract_y
 _atom_site_fract_z
 _atom_site_occupancy
  Na  Na0  1  0.00188724  -0.00000000  -0.00000000  1
  Mg  Mg0  1  0.00393652  0.50000000  -0.00000000  1
  Mg  Mg1  1  0.50173036  -0.00000000  -0.00000000  1
  Mg  Mg2  1  0.00059924  0.24714846  0.50000000  1
  Mg  Mg3  1  0.00059924  0.75285154  0.50000000  1
  Mg  Mg4  1  0.50173434  0.25189726  0.50000000  1
  Mg  Mg5  1  0.50173434  0.74810274  0.50000000  1
  Mg  Mg6  1  0.24852796  -0.00000000  0.50000000  1
  Mg  Mg7  1  0.26532988  0.50000000  0.50000000  1
  Mg  Mg8  1  0.75452562  -0.00000000  0.50000000  1
  Mg  Mg9  1  0.74211582  0.50000000  0.50000000  1
  Mg  Mg10  1  0.25578040  0.24087591  -0.00000000  1
  Mg  Mg11  1  0.25578040  0.75912409  -0.00000000  1
  Mg  Mg12  1  0.74814585  0.23937289  -0.00000000  1
  Mg  Mg13  1  0.74814585  0.76062711  -0.00000000  1
  B  B0  1  0.51810209  0.50000000  -0.00000000  1
  O  O0  1  0.26424958  -0.00000000  -0.00000000  1
  O  O1  1  0.73903422  -0.00000000  -0.00000000  1
  O  O2  1  0.68788150  0.50000000  -0.00000000  1
  O  O3  1  0.25155014  0.25681287  0.50000000  1
  O  O4  1  0.25155014  0.74318713  0.50000000  1
  O  O5  1  0.75098136  0.25436063  0.50000000  1
  O  O6  1  0.75098136  0.74563937  0.50000000  1
  O  O7  1  0.00221657  -0.00000000  0.50000000  1
  O  O8  1  0.99658124  0.50000000  0.50000000  1
  O  O9  1  0.50071864  -0.00000000  0.50000000  1
  O  O10  1  0.50226018  0.50000000  0.50000000  1
  O  O11  1  0.99999151  0.27186806  -0.00000000  1
  O  O12  1  0.99999151  0.72813194  -0.00000000  1
  O  O13  1  0.50166845  0.25040966  -0.00000000  1
  O  O14  1  0.50166845  0.74959034  -0.00000000  1
loop_
_geom_bond_atom_site_label_1
_geom_bond_atom_site_label_2
_geom_bond_distance
_geom_bond_site_symmetry_2
Na0 O7 2.142519 1_555
Na0 O7 2.142519 1_554
Na0 O0 2.205801 1_555
Na0 O1 2.209927 1_455
Na0 O12 2.342378 1_445
Na0 O11 2.342378 1_455
Mg0 O11 1.965788 1_455
Mg0 O12 1.965788 1_455
Mg0 O8 2.143409 1_455
Mg0 O8 2.143409 1_454
Mg1 O1 1.995123 1_555
Mg1 O0 1.996611 1_555
Mg1 O9 2.142534 1_554
Mg1 O9 2.142534 1_555
Mg1 O14 2.157445 1_545
Mg1 O13 2.157445 1_555
Mg2 O5 2.099573 1_455
Mg2 O3 2.111503 1_555
Mg2 O7 2.129391 1_555
Mg2 O11 2.153082 1_455
Mg2 O11 2.153082 1_456
Mg2 O8 2.178745 1_455
Mg3 O6 2.099573 1_455
Mg3 O4 2.111503 1_555
Mg3 O7 2.129391 1_565
Mg3 O12 2.153082 1_455
Mg3 O12 2.153082 1_456
Mg3 O8 2.178745 1_455
Mg4 O5 2.095642 1_555
Mg4 O3 2.103840 1_555
Mg4 O10 2.137574 1_555
Mg4 O13 2.142555 1_555
Mg4 O13 2.142555 1_556
Mg4 O9 2.170279 1_555
Mg5 O6 2.095642 1_555
Mg5 O4 2.103840 1_555
Mg5 O10 2.137574 1_555
Mg5 O14 2.142555 1_555
Mg5 O14 2.142555 1_556
Mg5 O9 2.170279 1_565
Mg6 O7 2.070854 1_555
Mg6 O9 2.120284 1_555
Mg6 O0 2.146590 1_556
Mg6 O0 2.146590 1_555
Mg6 O4 2.212759 1_545
Mg6 O3 2.212759 1_555
Mg7 O10 1.991983 1_555
Mg7 O3 2.098419 1_555
Mg7 O4 2.098419 1_555
Mg7 O8 2.259494 1_455
Mg8 O7 2.082452 1_655
Mg8 O9 2.133873 1_555
Mg8 O1 2.146472 1_556
Mg8 O1 2.146472 1_555
Mg8 O5 2.191688 1_555
Mg8 O6 2.191688 1_545
Mg9 O10 2.016577 1_555
Mg9 O5 2.117658 1_555
Mg9 O6 2.117658 1_555
Mg9 O8 2.139408 1_555
Mg9 O2 2.190500 1_555
Mg9 O2 2.190500 1_556
Mg10 O13 2.068926 1_555
Mg10 O0 2.076527 1_555
Mg10 O3 2.147207 1_555
Mg10 O3 2.147207 1_554
Mg10 O11 2.167049 1_455
Mg11 O14 2.068926 1_555
Mg11 O0 2.076527 1_565
Mg11 O4 2.147207 1_554
Mg11 O4 2.147207 1_555
Mg11 O12 2.167049 1_455
Mg12 O1 2.063778 1_555
Mg12 O13 2.074430 1_555
Mg12 O11 2.135812 1_555
Mg12 O5 2.146537 1_555
Mg12 O5 2.146537 1_554
Mg12 O2 2.301928 1_555
Mg13 O1 2.063778 1_565
Mg13 O14 2.074430 1_555
Mg13 O12 2.135812 1_555
Mg13 O6 2.146537 1_555
Mg13 O6 2.146537 1_554
Mg13 O2 2.301928 1_555
B0 O2 1.427414 1_555
B0 O10 2.146653 1_555
B0 O10 2.146653 1_554
B0 O13 2.154820 1_555
B0 O14 2.154820 1_555
