# generated using pymatgen
data_Er3(Co2Sn)4
_symmetry_space_group_name_H-M   'P 1'
_cell_length_a   7.50840700
_cell_length_b   8.77904029
_cell_length_c   8.77904029
_cell_angle_alpha   120.00000221
_cell_angle_beta   90.00000000
_cell_angle_gamma   90.00000000
_symmetry_Int_Tables_number   1
_chemical_formula_structural   Er3(Co2Sn)4
_chemical_formula_sum   'Er6 Co16 Sn8'
_cell_volume   501.15551345
_cell_formula_units_Z   2
loop_
 _symmetry_equiv_pos_site_id
 _symmetry_equiv_pos_as_xyz
  1  'x, y, z'
loop_
 _atom_site_type_symbol
 _atom_site_label
 _atom_site_symmetry_multiplicity
 _atom_site_fract_x
 _atom_site_fract_y
 _atom_site_fract_z
 _atom_site_occupancy
  Er  Er0  1  0.78503500  0.47533300  0.95066600  1
  Er  Er1  1  0.78503500  0.47533300  0.52466700  1
  Er  Er2  1  0.28503500  0.52466700  0.04933400  1
  Er  Er3  1  0.78503500  0.04933400  0.52466700  1
  Er  Er4  1  0.28503500  0.52466700  0.47533300  1
  Er  Er5  1  0.28503500  0.95066600  0.47533300  1
  Co  Co0  1  0.62878100  0.66666700  0.33333300  1
  Co  Co1  1  0.12878100  0.33333300  0.66666700  1
  Co  Co2  1  0.75455100  0.09945100  0.19890300  1
  Co  Co3  1  0.75455100  0.09945100  0.90054900  1
  Co  Co4  1  0.25455100  0.90054900  0.80109700  1
  Co  Co5  1  0.75455100  0.80109700  0.90054900  1
  Co  Co6  1  0.25455100  0.90054900  0.09945100  1
  Co  Co7  1  0.25455100  0.19890300  0.09945100  1
  Co  Co8  1  0.94147800  0.83918200  0.67836400  1
  Co  Co9  1  0.94147800  0.83918200  0.16081800  1
  Co  Co10  1  0.44147800  0.16081800  0.32163600  1
  Co  Co11  1  0.94147800  0.32163600  0.16081800  1
  Co  Co12  1  0.44147800  0.16081800  0.83918200  1
  Co  Co13  1  0.44147800  0.67836400  0.83918200  1
  Co  Co14  1  0.99716400  0.00000000  0.00000000  1
  Co  Co15  1  0.49716400  0.00000000  0.00000000  1
  Sn  Sn0  1  0.97879600  0.66666700  0.33333300  1
  Sn  Sn1  1  0.47879600  0.33333300  0.66666700  1
  Sn  Sn2  1  0.57238800  0.82891400  0.65782700  1
  Sn  Sn3  1  0.57238800  0.82891400  0.17108600  1
  Sn  Sn4  1  0.07238800  0.17108600  0.34217300  1
  Sn  Sn5  1  0.57238800  0.34217300  0.17108600  1
  Sn  Sn6  1  0.07238800  0.17108600  0.82891400  1
  Sn  Sn7  1  0.07238800  0.65782700  0.82891400  1
loop_
_geom_bond_atom_site_label_1
_geom_bond_atom_site_label_2
_geom_bond_distance
_geom_bond_site_symmetry_2
Er0 Sn5 3.150003 1_556
Er0 Sn3 3.150009 1_556
Er0 Sn1 3.154246 1_555
Er0 Sn7 3.174398 1_655
Er0 Sn6 3.174404 1_655
Er0 Sn0 3.252841 1_556
Er1 Sn5 3.150010 1_555
Er1 Sn2 3.150010 1_555
Er1 Sn1 3.154251 1_555
Er1 Sn7 3.174403 1_655
Er1 Sn4 3.174403 1_655
Er1 Sn0 3.252847 1_555
Er2 Sn7 3.150003 1_554
Er2 Sn6 3.150009 1_554
Er2 Sn0 3.154246 1_455
Er2 Sn5 3.174398 1_555
Er2 Sn3 3.174404 1_555
Er2 Sn1 3.252841 1_554
Er3 Sn2 3.150003 1_545
Er3 Sn3 3.150009 1_545
Er3 Sn1 3.154246 1_555
Er3 Sn4 3.174398 1_655
Er3 Sn6 3.174404 1_655
Er3 Sn0 3.252841 1_545
Er4 Sn7 3.150010 1_555
Er4 Sn4 3.150010 1_555
Er4 Sn0 3.154251 1_455
Er4 Sn5 3.174403 1_555
Er4 Sn2 3.174403 1_555
Er4 Sn1 3.252847 1_555
Er5 Sn4 3.150003 1_565
Er5 Sn6 3.150009 1_565
Er5 Sn0 3.154246 1_455
Er5 Sn2 3.174398 1_555
Er5 Sn3 3.174404 1_555
Er5 Sn1 3.252841 1_565
Co0 Sn5 2.503158 1_555
Co0 Sn2 2.503158 1_555
Co0 Sn3 2.503158 1_555
Co0 Sn0 2.628055 1_555
Co0 Er3 3.137015 1_565
Co0 Er0 3.137015 1_554
Co0 Er1 3.137022 1_555
Co0 Er2 3.365065 1_555
Co0 Er5 3.365065 1_555
Co0 Er4 3.365070 1_555
Co1 Sn4 2.503158 1_555
Co1 Sn7 2.503158 1_555
Co1 Sn6 2.503158 1_555
Co1 Sn1 2.628055 1_555
Co1 Er5 3.137015 1_545
Co1 Er2 3.137015 1_556
Co1 Er4 3.137022 1_555
Co1 Er0 3.365065 1_455
Co1 Er3 3.365065 1_455
Co1 Er1 3.365070 1_455
Co2 Co9 2.557055 1_545
Co2 Co5 2.619262 1_544
Co2 Co3 2.619262 1_554
Co2 Sn4 2.623287 1_655
Co2 Sn3 2.644101 1_545
Co2 Sn5 2.644116 1_555
Co2 Er3 3.111795 1_555
Co2 Er1 3.111800 1_555
Co3 Co8 2.557058 1_545
Co3 Co5 2.619262 1_545
Co3 Sn6 2.623287 1_655
Co3 Sn5 2.644107 1_556
Co3 Sn2 2.644107 1_545
Co3 Er0 3.111803 1_555
Co3 Er3 3.111803 1_555
Co4 Co8 2.529113 1_455
Co4 Co7 2.619262 1_566
Co4 Co6 2.619262 1_556
Co4 Sn2 2.623287 1_555
Co4 Sn6 2.644101 1_565
Co4 Sn7 2.644116 1_555
Co4 Er5 3.111795 1_555
Co4 Er4 3.111800 1_555
Co5 Co9 2.557055 1_556
Co5 Co8 2.557063 1_555
Co5 Sn7 2.623287 1_655
Co5 Sn3 2.644101 1_556
Co5 Sn2 2.644116 1_555
Co5 Er0 3.111795 1_555
Co5 Er1 3.111800 1_555
Co6 Co9 2.529116 1_455
Co6 Co7 2.619262 1_565
Co6 Sn3 2.623287 1_555
Co6 Sn4 2.644107 1_565
Co6 Sn7 2.644107 1_554
Co6 Er5 3.111803 1_555
Co6 Er2 3.111803 1_555
Co7 Sn5 2.623287 1_555
Co7 Sn6 2.644101 1_554
Co7 Sn4 2.644116 1_555
Co7 Er2 3.111795 1_555
Co7 Er4 3.111800 1_555
Co8 Sn0 2.638149 1_555
Co8 Sn6 2.711474 1_665
Co8 Sn7 2.711482 1_655
Co8 Sn2 2.775673 1_555
Co8 Er1 3.015557 1_555
Co8 Er3 3.015557 1_565
Co9 Sn0 2.638141 1_555
Co9 Sn7 2.711475 1_654
Co9 Sn4 2.711475 1_665
Co9 Sn3 2.775673 1_555
Co9 Er0 3.015557 1_554
Co9 Er3 3.015557 1_565
Co10 Co15 2.480845 1_555
Co10 Co2 2.529113 1_555
Co10 Co6 2.557058 1_545
Co10 Co7 2.557063 1_555
Co10 Sn1 2.638149 1_555
Co10 Sn3 2.711474 1_545
Co10 Sn5 2.711482 1_555
Co10 Sn4 2.775673 1_555
Co10 Er4 3.015557 1_555
Co10 Er5 3.015557 1_545
Co11 Co14 2.480845 1_555
Co11 Co7 2.529113 1_655
Co11 Co3 2.557058 1_554
Co11 Co2 2.557063 1_555
Co11 Sn0 2.638149 1_555
Co11 Sn6 2.711474 1_654
Co11 Sn4 2.711482 1_655
Co11 Sn5 2.775673 1_555
Co11 Er1 3.015557 1_555
Co11 Er0 3.015557 1_554
Co12 Co15 2.480845 1_556
Co12 Co3 2.529116 1_555
Co12 Co7 2.557055 1_556
Co12 Co4 2.557055 1_545
Co12 Sn1 2.638141 1_555
Co12 Sn2 2.711475 1_545
Co12 Sn5 2.711475 1_556
Co12 Sn6 2.775673 1_555
Co12 Er5 3.015557 1_545
Co12 Er2 3.015557 1_556
Co13 Co15 2.480845 1_566
Co13 Co5 2.529113 1_555
Co13 Co6 2.557058 1_556
Co13 Co4 2.557063 1_555
Co13 Sn1 2.638149 1_555
Co13 Sn3 2.711474 1_556
Co13 Sn2 2.711482 1_555
Co13 Sn7 2.775673 1_555
Co13 Er4 3.015557 1_555
Co13 Er2 3.015557 1_556
Co14 Co3 2.367528 1_554
Co14 Co5 2.367533 1_544
Co14 Co2 2.367533 1_555
Co14 Co6 2.453903 1_645
Co14 Co7 2.453908 1_655
Co14 Co4 2.453908 1_644
Co14 Co8 2.480845 1_544
Co14 Co9 2.480845 1_545
Co14 Sn6 2.662097 1_654
Co14 Sn7 2.662105 1_644
Co14 Sn4 2.662105 1_655
Co15 Co6 2.367528 1_545
Co15 Co7 2.367533 1_555
Co15 Co4 2.367533 1_544
Co15 Co3 2.453903 1_554
Co15 Co2 2.453908 1_555
Co15 Co5 2.453908 1_544
Co15 Sn3 2.662097 1_545
Co15 Sn2 2.662105 1_544
Co15 Sn5 2.662105 1_555
