# generated using pymatgen
data_Be5(Al2Fe)2
_symmetry_space_group_name_H-M   'P 1'
_cell_length_a   4.36327726
_cell_length_b   4.36327726
_cell_length_c   7.81118478
_cell_angle_alpha   77.43829356
_cell_angle_beta   77.43829356
_cell_angle_gamma   60.28020541
_symmetry_Int_Tables_number   1
_chemical_formula_structural   Be5(Al2Fe)2
_chemical_formula_sum   'Be5 Al4 Fe2'
_cell_volume   124.99846459
_cell_formula_units_Z   1
loop_
 _symmetry_equiv_pos_site_id
 _symmetry_equiv_pos_as_xyz
  1  'x, y, z'
loop_
 _atom_site_type_symbol
 _atom_site_label
 _atom_site_symmetry_multiplicity
 _atom_site_fract_x
 _atom_site_fract_y
 _atom_site_fract_z
 _atom_site_occupancy
  Be  Be0  1  0.50000000  0.00000000  0.00000000  1
  Be  Be1  1  0.00000000  0.50000000  0.50000000  1
  Be  Be2  1  0.00000000  0.00000000  0.00000000  1
  Be  Be3  1  0.00000000  0.50000000  0.00000000  1
  Be  Be4  1  0.50000000  0.00000000  0.50000000  1
  Al  Al0  1  0.44810500  0.44810500  0.19728200  1
  Al  Al1  1  0.91734200  0.91734200  0.69491900  1
  Al  Al2  1  0.55189500  0.55189500  0.80271800  1
  Al  Al3  1  0.08265800  0.08265800  0.30508100  1
  Fe  Fe0  1  0.22890800  0.22890800  0.75270800  1
  Fe  Fe1  1  0.77109200  0.77109200  0.24729200  1
loop_
_geom_bond_atom_site_label_1
_geom_bond_atom_site_label_2
_geom_bond_distance
_geom_bond_site_symmetry_2
Be0 Be2 2.181639 1_655
Be0 Be2 2.181639 1_555
Be0 Be3 2.190872 1_555
Be0 Be3 2.190872 1_645
Be0 Fe1 2.260800 1_545
Be0 Fe0 2.260800 1_554
Be1 Be4 2.190872 1_555
Be1 Be4 2.190872 1_465
Be1 Fe0 2.227948 1_555
Be1 Fe1 2.227948 1_455
Be2 Be3 2.181639 1_545
Be2 Be3 2.181639 1_555
Be2 Fe1 2.244348 1_445
Be2 Fe0 2.244348 1_554
Be3 Fe1 2.260800 1_455
Be3 Fe0 2.260800 1_554
Be4 Fe0 2.227948 1_555
Be4 Fe1 2.227948 1_545
Al0 Fe1 2.544521 1_545
Al0 Fe1 2.544521 1_455
Al0 Fe1 2.563768 1_555
Al0 Be0 2.639820 1_555
Al0 Be3 2.639820 1_555
Al0 Al3 2.640099 1_565
Al0 Al3 2.640099 1_655
Al0 Be0 2.645654 1_565
Al0 Be3 2.645654 1_655
Al0 Be2 2.650366 1_655
Al0 Be2 2.650366 1_565
Al0 Al3 2.673410 1_555
Al0 Be1 2.692261 1_555
Al0 Be4 2.692261 1_555
Al0 Al2 2.982965 1_554
Al1 Be1 2.465796 1_655
Al1 Be4 2.465796 1_565
Al1 Fe0 2.503247 1_665
Al1 Fe0 2.589027 1_565
Al1 Fe0 2.589027 1_655
Al1 Be2 2.610695 1_666
Al1 Be3 2.638184 1_656
Al1 Be0 2.638184 1_566
Al1 Al2 2.640099 1_655
Al1 Al2 2.640099 1_565
Al1 Al2 2.673410 1_555
Al1 Be1 2.810349 1_665
Al1 Be4 2.810349 1_665
Al1 Al3 2.986342 1_665
Al2 Fe0 2.544521 1_655
Al2 Fe0 2.544521 1_565
Al2 Fe0 2.563768 1_555
Al2 Be3 2.639820 1_656
Al2 Be0 2.639820 1_566
Al2 Be3 2.645654 1_556
Al2 Be0 2.645654 1_556
Al2 Be2 2.650366 1_656
Al2 Be2 2.650366 1_566
Al2 Be4 2.692261 1_565
Al2 Be1 2.692261 1_655
Al3 Be1 2.465796 1_555
Al3 Be4 2.465796 1_555
Al3 Fe1 2.503247 1_445
Al3 Fe1 2.589027 1_545
Al3 Fe1 2.589027 1_455
Al3 Be2 2.610695 1_555
Al3 Be0 2.638184 1_555
Al3 Be3 2.638184 1_555
Al3 Be1 2.810349 1_545
Al3 Be4 2.810349 1_455
