# generated using pymatgen
data_MnWO4
_symmetry_space_group_name_H-M   'P 1'
_cell_length_a   4.78246130
_cell_length_b   5.00177661
_cell_length_c   5.75089782
_cell_angle_alpha   90.00000000
_cell_angle_beta   90.00000000
_cell_angle_gamma   91.07424021
_symmetry_Int_Tables_number   1
_chemical_formula_structural   MnWO4
_chemical_formula_sum   'Mn2 W2 O8'
_cell_volume   137.54191591
_cell_formula_units_Z   2
loop_
 _symmetry_equiv_pos_site_id
 _symmetry_equiv_pos_as_xyz
  1  'x, y, z'
loop_
 _atom_site_type_symbol
 _atom_site_label
 _atom_site_symmetry_multiplicity
 _atom_site_fract_x
 _atom_site_fract_y
 _atom_site_fract_z
 _atom_site_occupancy
  Mn  Mn0  1  0.50000000  0.25000000  0.67750343  1
  Mn  Mn1  1  0.50000000  0.75000000  0.32250057  1
  W  W0  1  -0.00000000  0.25000000  0.17873380  1
  W  W1  1  -0.00000000  0.75000000  0.82126520  1
  O  O0  1  0.74510687  0.10288040  0.37487174  1
  O  O1  1  0.25489313  0.39711960  0.37487174  1
  O  O2  1  0.25489313  0.89711960  0.62512726  1
  O  O3  1  0.74510687  0.60288040  0.62512726  1
  O  O4  1  0.78703768  0.06065109  0.89500904  1
  O  O5  1  0.21296232  0.43934891  0.89500904  1
  O  O6  1  0.21296232  0.93934891  0.10498996  1
  O  O7  1  0.78703768  0.56065109  0.10498996  1
loop_
_geom_bond_atom_site_label_1
_geom_bond_atom_site_label_2
_geom_bond_distance
_geom_bond_site_symmetry_2
Mn0 O4 2.096372 1_555
Mn0 O5 2.096372 1_555
Mn0 O3 2.121924 1_555
Mn0 O2 2.121924 1_545
Mn0 O1 2.230902 1_555
Mn0 O0 2.230902 1_555
Mn1 O6 2.096389 1_555
Mn1 O7 2.096389 1_555
Mn1 O1 2.121920 1_555
Mn1 O0 2.121920 1_565
Mn1 O3 2.230880 1_555
Mn1 O2 2.230880 1_555
O0 W0 1.807255 1_655
O1 W0 1.807255 1_555
O2 W1 1.807255 1_555
O3 W1 1.807255 1_655
O4 W1 1.921151 1_645
O4 W0 2.135523 1_656
O5 W1 1.921151 1_555
O5 W0 2.135523 1_556
O6 W0 1.921151 1_565
O6 W1 2.135523 1_554
O7 W0 1.921151 1_655
O7 W1 2.135523 1_654
