# generated using pymatgen
data_Sr3CaZr16(PO4)24
_symmetry_space_group_name_H-M   'P 1'
_cell_length_a   8.93422688
_cell_length_b   8.93422688
_cell_length_c   31.41429116
_cell_angle_alpha   81.82482684
_cell_angle_beta   81.82482684
_cell_angle_gamma   59.99999937
_symmetry_Int_Tables_number   1
_chemical_formula_structural   Sr3CaZr16(PO4)24
_chemical_formula_sum   'Sr3 Ca1 Zr16 P24 O96'
_cell_volume   2142.08619065
_cell_formula_units_Z   1
loop_
 _symmetry_equiv_pos_site_id
 _symmetry_equiv_pos_as_xyz
  1  'x, y, z'
loop_
 _atom_site_type_symbol
 _atom_site_label
 _atom_site_symmetry_multiplicity
 _atom_site_fract_x
 _atom_site_fract_y
 _atom_site_fract_z
 _atom_site_occupancy
  Sr  Sr0  1  0.25001498  0.25001498  0.24995507  1
  Sr  Sr1  1  0.50000000  0.50000000  0.50000000  1
  Sr  Sr2  1  0.74998502  0.74998502  0.75004493  1
  Ca  Ca0  1  0.00000000  0.00000000  -0.00000000  1
  Zr  Zr0  1  0.66013029  0.66013029  0.01960912  1
  Zr  Zr1  1  0.91015707  0.91015707  0.26952878  1
  Zr  Zr2  1  0.16015088  0.16015088  0.51954736  1
  Zr  Zr3  1  0.41014473  0.41014473  0.76956581  1
  Zr  Zr4  1  0.58985527  0.58985527  0.23043419  1
  Zr  Zr5  1  0.83984912  0.83984912  0.48045264  1
  Zr  Zr6  1  0.08984293  0.08984293  0.73047122  1
  Zr  Zr7  1  0.33986971  0.33986971  0.98039088  1
  Zr  Zr8  1  0.28754625  0.28754525  0.13736224  1
  Zr  Zr9  1  0.53741460  0.53741360  0.38775721  1
  Zr  Zr10  1  0.78741461  0.78741361  0.63775716  1
  Zr  Zr11  1  0.03719504  0.03719404  0.88841589  1
  Zr  Zr12  1  0.96280496  0.96280596  0.11158411  1
  Zr  Zr13  1  0.21258539  0.21258639  0.36224284  1
  Zr  Zr14  1  0.46258540  0.46258640  0.61224179  1
  Zr  Zr15  1  0.71245475  0.71245475  0.86263776  1
  P  P0  1  0.02934260  0.30392975  0.06035880  1
  P  P1  1  0.27925861  0.55500089  0.31084116  1
  P  P2  1  0.52925132  0.80500663  0.56084347  1
  P  P3  1  0.77943083  0.05481146  0.81095246  1
  P  P4  1  0.30392975  0.60636885  0.06035880  1
  P  P5  1  0.55500089  0.85489934  0.31084116  1
  P  P6  1  0.80500663  0.10489858  0.56084347  1
  P  P7  1  0.05481146  0.35480525  0.81095246  1
  P  P8  1  0.60636885  0.02934260  0.06035880  1
  P  P9  1  0.85489934  0.27925861  0.31084116  1
  P  P10  1  0.10489858  0.52925132  0.56084347  1
  P  P11  1  0.35480525  0.77943083  0.81095246  1
  P  P12  1  0.22056917  0.94518854  0.18904754  1
  P  P13  1  0.47074868  0.19499337  0.43915653  1
  P  P14  1  0.72074139  0.44499911  0.68915884  1
  P  P15  1  0.97065740  0.69607025  0.93964120  1
  P  P16  1  0.94518854  0.64519475  0.18904754  1
  P  P17  1  0.19499337  0.89510142  0.43915653  1
  P  P18  1  0.44499911  0.14510066  0.68915884  1
  P  P19  1  0.69607025  0.39363115  0.93964120  1
  P  P20  1  0.64519475  0.22056917  0.18904754  1
  P  P21  1  0.89510142  0.47074868  0.43915653  1
  P  P22  1  0.14510066  0.72074139  0.68915884  1
  P  P23  1  0.39363115  0.97065740  0.93964120  1
  O  O0  1  0.71308417  0.09151802  0.22881119  1
  O  O1  1  0.96305876  0.34151293  0.47887054  1
  O  O2  1  0.21308606  0.59147880  0.72887827  1
  O  O3  1  0.46423182  0.84085533  0.97901913  1
  O  O4  1  0.09151802  0.96658662  0.22881119  1
  O  O5  1  0.34151293  0.21655777  0.47887054  1
  O  O6  1  0.59147880  0.46655687  0.72887827  1
  O  O7  1  0.84085533  0.71589372  0.97901913  1
  O  O8  1  0.96658662  0.71308417  0.22881119  1
  O  O9  1  0.21655777  0.96305876  0.47887054  1
  O  O10  1  0.46655687  0.21308606  0.72887827  1
  O  O11  1  0.71589372  0.46423182  0.97901913  1
  O  O12  1  0.53576818  0.15914467  0.02098087  1
  O  O13  1  0.78691394  0.40852120  0.27112173  1
  O  O14  1  0.03694124  0.65848707  0.52112946  1
  O  O15  1  0.28691583  0.90848198  0.77118881  1
  O  O16  1  0.15914467  0.28410628  0.02098087  1
  O  O17  1  0.40852120  0.53344313  0.27112173  1
  O  O18  1  0.65848707  0.78344223  0.52112946  1
  O  O19  1  0.90848198  0.03341338  0.77118881  1
  O  O20  1  0.28410628  0.53576818  0.02098087  1
  O  O21  1  0.53344313  0.78691394  0.27112173  1
  O  O22  1  0.78344223  0.03694124  0.52112946  1
  O  O23  1  0.03341338  0.28691583  0.77118881  1
  O  O24  1  0.60705936  0.85952759  0.05642982  1
  O  O25  1  0.85618824  0.10941987  0.30634442  1
  O  O26  1  0.10617122  0.35941841  0.55635314  1
  O  O27  1  0.35610151  0.60957425  0.80637864  1
  O  O28  1  0.85952759  0.47698323  0.05642982  1
  O  O29  1  0.10941987  0.72804748  0.30634442  1
  O  O30  1  0.35941841  0.97805723  0.55635314  1
  O  O31  1  0.60957425  0.22794560  0.80637864  1
  O  O32  1  0.47698323  0.60705936  0.05642982  1
  O  O33  1  0.72804748  0.85618824  0.30634442  1
  O  O34  1  0.97805723  0.10617122  0.55635314  1
  O  O35  1  0.22794560  0.35610151  0.80637864  1
  O  O36  1  0.64389849  0.39042575  0.19362136  1
  O  O37  1  0.89382878  0.64058159  0.44364686  1
  O  O38  1  0.14381176  0.89058013  0.69365558  1
  O  O39  1  0.39294064  0.14047241  0.94357018  1
  O  O40  1  0.39042575  0.77205440  0.19362136  1
  O  O41  1  0.64058159  0.02194277  0.44364686  1
  O  O42  1  0.89058013  0.27195252  0.69365558  1
  O  O43  1  0.14047241  0.52301677  0.94357018  1
  O  O44  1  0.77205440  0.64389849  0.19362136  1
  O  O45  1  0.02194277  0.89382878  0.44364686  1
  O  O46  1  0.27195252  0.14381176  0.69365558  1
  O  O47  1  0.52301677  0.39294064  0.94357018  1
  O  O48  1  0.26195738  0.09711287  0.18501255  1
  O  O49  1  0.51210444  0.34698896  0.43513503  1
  O  O50  1  0.76204630  0.59701603  0.68513312  1
  O  O51  1  0.01092473  0.84889695  0.93705788  1
  O  O52  1  0.09711287  0.45591720  0.18501255  1
  O  O53  1  0.34698896  0.70577156  0.43513503  1
  O  O54  1  0.59701603  0.95580454  0.68513312  1
  O  O55  1  0.84889695  0.20312044  0.93705788  1
  O  O56  1  0.45591720  0.26195738  0.18501255  1
  O  O57  1  0.70577156  0.51210444  0.43513503  1
  O  O58  1  0.95580454  0.76204630  0.68513312  1
  O  O59  1  0.20312044  0.01092473  0.93705788  1
  O  O60  1  0.98907527  0.15110305  0.06294212  1
  O  O61  1  0.23795370  0.40298397  0.31486688  1
  O  O62  1  0.48789556  0.65301104  0.56486497  1
  O  O63  1  0.73804262  0.90288713  0.81498745  1
  O  O64  1  0.15110305  0.79687956  0.06294212  1
  O  O65  1  0.40298397  0.04419546  0.31486688  1
  O  O66  1  0.65301104  0.29422844  0.56486497  1
  O  O67  1  0.90288713  0.54408280  0.81498745  1
  O  O68  1  0.79687956  0.98907527  0.06294212  1
  O  O69  1  0.04419546  0.23795370  0.31486688  1
  O  O70  1  0.29422844  0.48789556  0.56486497  1
  O  O71  1  0.54408280  0.73804262  0.81498745  1
  O  O72  1  0.10774713  0.29473491  0.10219670  1
  O  O73  1  0.35806779  0.54683497  0.35237356  1
  O  O74  1  0.60806285  0.79682053  0.60237502  1
  O  O75  1  0.85850028  0.04686615  0.85255370  1
  O  O76  1  0.29473491  0.49532127  0.10219670  1
  O  O77  1  0.54683497  0.74272368  0.35237356  1
  O  O78  1  0.79682053  0.99274160  0.60237502  1
  O  O79  1  0.04686615  0.24207987  0.85255370  1
  O  O80  1  0.49532127  0.10774713  0.10219670  1
  O  O81  1  0.74272368  0.35806779  0.35237356  1
  O  O82  1  0.99274160  0.60806285  0.60237502  1
  O  O83  1  0.24207987  0.85850028  0.85255370  1
  O  O84  1  0.14149972  0.95313385  0.14744630  1
  O  O85  1  0.39193715  0.20317947  0.39762498  1
  O  O86  1  0.64193221  0.45316503  0.64762644  1
  O  O87  1  0.89225287  0.70526509  0.89780330  1
  O  O88  1  0.95313385  0.75792013  0.14744630  1
  O  O89  1  0.20317947  0.00725840  0.39762498  1
  O  O90  1  0.45316503  0.25727632  0.64762644  1
  O  O91  1  0.70526509  0.50467873  0.89780330  1
  O  O92  1  0.75792013  0.14149972  0.14744630  1
  O  O93  1  0.00725840  0.39193715  0.39762498  1
  O  O94  1  0.25727632  0.64193221  0.64762644  1
  O  O95  1  0.50467873  0.89225287  0.89780330  1
loop_
_geom_bond_atom_site_label_1
_geom_bond_atom_site_label_2
_geom_bond_distance
_geom_bond_site_symmetry_2
Ca0 O55 2.512796 1_454
Ca0 O64 2.512796 1_545
Ca0 O59 2.512796 1_554
Ca0 O68 2.512796 1_445
Ca0 O51 2.512796 1_544
Ca0 O60 2.512796 1_455
O0 P20 1.537581 1_555
O0 Zr1 2.135367 1_545
O1 P21 1.537197 1_555
O1 Zr2 2.134681 1_655
O2 P22 1.537466 1_555
O2 Zr3 2.134662 1_555
O3 P23 1.534732 1_555
O3 Zr0 2.125882 1_556
O4 P12 1.537581 1_555
O4 Zr1 2.135367 1_455
O5 P13 1.537197 1_555
O5 Zr2 2.134681 1_555
O6 P14 1.537466 1_555
O6 Zr3 2.134662 1_555
O7 P15 1.534732 1_555
O7 Zr0 2.125882 1_556
O8 P16 1.537581 1_555
O8 Zr1 2.135367 1_555
O9 P17 1.537197 1_555
O9 Zr2 2.134681 1_565
O10 P18 1.537466 1_555
O10 Zr3 2.134662 1_555
O11 P19 1.534732 1_555
O11 Zr0 2.125882 1_556
O12 P8 1.534732 1_555
O12 Zr7 2.125882 1_554
O13 P9 1.537466 1_555
O13 Zr4 2.134662 1_555
O14 P10 1.537197 1_555
O14 Zr5 2.134681 1_455
O15 P11 1.537581 1_555
O15 Zr6 2.135367 1_565
O16 P0 1.534732 1_555
O16 Zr7 2.125882 1_554
O17 P1 1.537466 1_555
O17 Zr4 2.134662 1_555
O18 P2 1.537197 1_555
O18 Zr5 2.134681 1_555
O19 P3 1.537581 1_555
O19 Zr6 2.135367 1_655
O20 P4 1.534732 1_555
O20 Zr7 2.125882 1_554
O21 P5 1.537466 1_555
O21 Zr4 2.134662 1_555
O22 P6 1.537197 1_555
O22 Zr5 2.134681 1_545
O23 P7 1.537581 1_555
O23 Zr6 2.135367 1_555
O24 P8 1.536471 1_565
O24 Zr0 2.078882 1_555
O25 P9 1.538034 1_555
O25 Zr1 2.075564 1_545
O26 P10 1.538008 1_555
O26 Zr2 2.075372 1_555
O27 P11 1.538721 1_555
O27 Zr3 2.076547 1_555
O28 P0 1.536471 1_655
O28 Zr0 2.078881 1_555
O29 P1 1.538034 1_555
O29 Zr1 2.075564 1_455
O30 P2 1.538008 1_555
O30 Zr2 2.075372 1_565
O31 P3 1.538721 1_555
O31 Zr3 2.076547 1_555
O32 P4 1.536471 1_555
O32 Zr0 2.078881 1_555
O33 P5 1.538034 1_555
O33 Zr1 2.075564 1_555
O34 P6 1.538008 1_555
O34 Zr2 2.075372 1_655
O35 P7 1.538721 1_555
O35 Zr3 2.076547 1_555
O36 P20 1.538721 1_555
O36 Zr4 2.076547 1_555
O37 P21 1.538008 1_555
O37 Zr5 2.075372 1_555
O38 P22 1.538034 1_555
O38 Zr6 2.075564 1_565
O39 P23 1.536471 1_545
O39 Zr7 2.078882 1_555
O40 P12 1.538721 1_555
O40 Zr4 2.076547 1_555
O41 P13 1.538008 1_555
O41 Zr5 2.075372 1_545
O42 P14 1.538034 1_555
O42 Zr6 2.075564 1_655
O43 P15 1.536471 1_455
O43 Zr7 2.078881 1_555
O44 P16 1.538721 1_555
O44 Zr4 2.076547 1_555
O45 P17 1.538008 1_555
O45 Zr5 2.075372 1_455
O46 P18 1.538034 1_555
O46 Zr6 2.075564 1_555
O47 P19 1.536471 1_555
O47 Zr7 2.078881 1_555
O48 P12 1.560376 1_545
O48 Zr8 2.180586 1_555
O48 Sr0 2.573822 1_555
O49 P13 1.560839 1_555
O49 Zr9 2.174756 1_555
O49 Sr1 2.571841 1_555
O50 P14 1.560715 1_555
O50 Zr10 2.174752 1_555
O50 Sr2 2.573005 1_555
O51 P15 1.565787 1_455
O51 Zr11 2.186753 1_565
O52 P16 1.560376 1_455
O52 Zr8 2.180593 1_555
O52 Sr0 2.573822 1_555
O53 P17 1.560839 1_555
O53 Zr9 2.174762 1_555
O53 Sr1 2.571840 1_555
O54 P18 1.560715 1_565
O54 Zr10 2.174758 1_555
O54 Sr2 2.573005 1_555
O55 P19 1.565787 1_555
O55 Zr11 2.186759 1_655
O56 P20 1.560376 1_555
O56 Zr8 2.180589 1_555
O56 Sr0 2.573822 1_555
O57 P21 1.560839 1_555
O57 Zr9 2.174759 1_555
O57 Sr1 2.571840 1_555
O58 P22 1.560715 1_655
O58 Zr10 2.174755 1_555
O58 Sr2 2.573005 1_555
O59 P23 1.565787 1_545
O59 Zr11 2.186756 1_555
O60 P0 1.565787 1_655
O60 Zr12 2.186753 1_545
O61 P1 1.560715 1_555
O61 Zr13 2.174752 1_555
O61 Sr0 2.573005 1_555
O62 P2 1.560839 1_555
O62 Zr14 2.174738 1_555
O62 Sr1 2.571841 1_555
O63 P3 1.560376 1_565
O63 Zr15 2.180582 1_555
O63 Sr2 2.573822 1_555
O64 P4 1.565787 1_555
O64 Zr12 2.186759 1_455
O65 P5 1.560715 1_545
O65 Zr13 2.174758 1_555
O65 Sr0 2.573005 1_555
O66 P6 1.560839 1_555
O66 Zr14 2.174741 1_555
O66 Sr1 2.571840 1_555
O67 P7 1.560376 1_655
O67 Zr15 2.180590 1_555
O67 Sr2 2.573822 1_555
O68 P8 1.565787 1_565
O68 Zr12 2.186756 1_555
O69 P9 1.560715 1_455
O69 Zr13 2.174755 1_555
O69 Sr0 2.573005 1_555
O70 P10 1.560839 1_555
O70 Zr14 2.174735 1_555
O70 Sr1 2.571840 1_555
O71 P11 1.560376 1_555
O71 Zr15 2.180596 1_555
O71 Sr2 2.573822 1_555
O72 P0 1.548682 1_555
O72 Zr8 2.046025 1_555
O73 P1 1.544724 1_555
O73 Zr9 2.038415 1_555
O74 P2 1.544657 1_555
O74 Zr10 2.038476 1_555
O75 P3 1.548555 1_555
O75 Zr11 2.042388 1_655
O76 P4 1.548682 1_555
O76 Zr8 2.046030 1_555
O77 P5 1.544724 1_555
O77 Zr9 2.038418 1_555
O78 P6 1.544657 1_565
O78 Zr10 2.038480 1_555
O79 P7 1.548555 1_555
O79 Zr11 2.042391 1_555
O80 P8 1.548682 1_555
O80 Zr8 2.046022 1_555
O81 P9 1.544724 1_555
O81 Zr9 2.038411 1_555
O82 P10 1.544657 1_655
O82 Zr10 2.038473 1_555
O83 P11 1.548555 1_555
O83 Zr11 2.042384 1_565
O84 P12 1.548555 1_555
O84 Zr12 2.042388 1_455
O85 P13 1.544657 1_555
O85 Zr13 2.038476 1_555
O86 P14 1.544724 1_555
O86 Zr14 2.038435 1_555
O87 P15 1.548682 1_555
O87 Zr15 2.046018 1_555
O88 P16 1.548555 1_555
O88 Zr12 2.042391 1_555
O89 P17 1.544657 1_545
O89 Zr13 2.038480 1_555
O90 P18 1.544724 1_555
O90 Zr14 2.038431 1_555
O91 P19 1.548682 1_555
O91 Zr15 2.046033 1_555
O92 P20 1.548555 1_555
O92 Zr12 2.042384 1_545
O93 P21 1.544657 1_455
O93 Zr13 2.038473 1_555
O94 P22 1.544724 1_555
O94 Zr14 2.038427 1_555
O95 P23 1.548682 1_555
O95 Zr15 2.046026 1_555
