# generated using pymatgen
data_Rb2Fe2(SO4)3
_symmetry_space_group_name_H-M   'P 1'
_cell_length_a   10.26189700
_cell_length_b   10.26189700
_cell_length_c   10.26189700
_cell_angle_alpha   90.00000000
_cell_angle_beta   90.00000000
_cell_angle_gamma   90.00000000
_symmetry_Int_Tables_number   1
_chemical_formula_structural   Rb2Fe2(SO4)3
_chemical_formula_sum   'Rb8 Fe8 S12 O48'
_cell_volume   1080.64476468
_cell_formula_units_Z   4
loop_
 _symmetry_equiv_pos_site_id
 _symmetry_equiv_pos_as_xyz
  1  'x, y, z'
loop_
 _atom_site_type_symbol
 _atom_site_label
 _atom_site_symmetry_multiplicity
 _atom_site_fract_x
 _atom_site_fract_y
 _atom_site_fract_z
 _atom_site_occupancy
  Rb  Rb0  1  0.04816900  0.04816900  0.04816900  1
  Rb  Rb1  1  0.45183100  0.95183100  0.54816900  1
  Rb  Rb2  1  0.95183100  0.54816900  0.45183100  1
  Rb  Rb3  1  0.54816900  0.45183100  0.95183100  1
  Rb  Rb4  1  0.81661300  0.81661300  0.81661300  1
  Rb  Rb5  1  0.68338700  0.18338700  0.31661300  1
  Rb  Rb6  1  0.18338700  0.31661300  0.68338700  1
  Rb  Rb7  1  0.31661300  0.68338700  0.18338700  1
  Fe  Fe0  1  0.33520800  0.33520800  0.33520800  1
  Fe  Fe1  1  0.16479200  0.66479200  0.83520800  1
  Fe  Fe2  1  0.66479200  0.83520800  0.16479200  1
  Fe  Fe3  1  0.83520800  0.16479200  0.66479200  1
  Fe  Fe4  1  0.59873000  0.59873000  0.59873000  1
  Fe  Fe5  1  0.90127000  0.40127000  0.09873000  1
  Fe  Fe6  1  0.40127000  0.09873000  0.90127000  1
  Fe  Fe7  1  0.09873000  0.90127000  0.40127000  1
  S  S0  1  0.01810800  0.21590000  0.37580300  1
  S  S1  1  0.48189200  0.78410000  0.87580300  1
  S  S2  1  0.98189200  0.71590000  0.12419700  1
  S  S3  1  0.37580300  0.01810800  0.21590000  1
  S  S4  1  0.51810800  0.28410000  0.62419700  1
  S  S5  1  0.87580300  0.48189200  0.78410000  1
  S  S6  1  0.12419700  0.98189200  0.71590000  1
  S  S7  1  0.62419700  0.51810800  0.28410000  1
  S  S8  1  0.21590000  0.37580300  0.01810800  1
  S  S9  1  0.71590000  0.12419700  0.98189200  1
  S  S10  1  0.28410000  0.62419700  0.51810800  1
  S  S11  1  0.78410000  0.87580300  0.48189200  1
  O  O0  1  0.00922900  0.07812600  0.33008100  1
  O  O1  1  0.49077100  0.92187400  0.83008100  1
  O  O2  1  0.99077100  0.57812600  0.16991900  1
  O  O3  1  0.33008100  0.00922900  0.07812600  1
  O  O4  1  0.50922900  0.42187400  0.66991900  1
  O  O5  1  0.83008100  0.49077100  0.92187400  1
  O  O6  1  0.16991900  0.99077100  0.57812600  1
  O  O7  1  0.66991900  0.50922900  0.42187400  1
  O  O8  1  0.07812600  0.33008100  0.00922900  1
  O  O9  1  0.57812600  0.16991900  0.99077100  1
  O  O10  1  0.42187400  0.66991900  0.50922900  1
  O  O11  1  0.92187400  0.83008100  0.49077100  1
  O  O12  1  0.26542200  0.50162700  0.44226700  1
  O  O13  1  0.23457800  0.49837300  0.94226700  1
  O  O14  1  0.73457800  0.00162700  0.05773300  1
  O  O15  1  0.44226700  0.26542200  0.50162700  1
  O  O16  1  0.76542200  0.99837300  0.55773300  1
  O  O17  1  0.94226700  0.23457800  0.49837300  1
  O  O18  1  0.05773300  0.73457800  0.00162700  1
  O  O19  1  0.55773300  0.76542200  0.99837300  1
  O  O20  1  0.50162700  0.44226700  0.26542200  1
  O  O21  1  0.00162700  0.05773300  0.73457800  1
  O  O22  1  0.99837300  0.55773300  0.76542200  1
  O  O23  1  0.49837300  0.94226700  0.23457800  1
  O  O24  1  0.04089100  0.80231100  0.22455400  1
  O  O25  1  0.45910900  0.19768900  0.72455400  1
  O  O26  1  0.95910900  0.30231100  0.27544600  1
  O  O27  1  0.22455400  0.04089100  0.80231100  1
  O  O28  1  0.54089100  0.69768900  0.77544600  1
  O  O29  1  0.72455400  0.45910900  0.19768900  1
  O  O30  1  0.27544600  0.95910900  0.30231100  1
  O  O31  1  0.77544600  0.54089100  0.69768900  1
  O  O32  1  0.80231100  0.22455400  0.04089100  1
  O  O33  1  0.30231100  0.27544600  0.95910900  1
  O  O34  1  0.69768900  0.77544600  0.54089100  1
  O  O35  1  0.19768900  0.72455400  0.45910900  1
  O  O36  1  0.15544100  0.25273400  0.40210100  1
  O  O37  1  0.34455900  0.74726600  0.90210100  1
  O  O38  1  0.84455900  0.75273400  0.09789900  1
  O  O39  1  0.40210100  0.15544100  0.25273400  1
  O  O40  1  0.65544100  0.24726600  0.59789900  1
  O  O41  1  0.90210100  0.34455900  0.74726600  1
  O  O42  1  0.09789900  0.84455900  0.75273400  1
  O  O43  1  0.59789900  0.65544100  0.24726600  1
  O  O44  1  0.25273400  0.40210100  0.15544100  1
  O  O45  1  0.75273400  0.09789900  0.84455900  1
  O  O46  1  0.24726600  0.59789900  0.65544100  1
  O  O47  1  0.74726600  0.90210100  0.34455900  1
loop_
_geom_bond_atom_site_label_1
_geom_bond_atom_site_label_2
_geom_bond_distance
_geom_bond_site_symmetry_2
Fe0 O36 2.142570 1_555
Fe0 O44 2.142570 1_555
Fe0 O39 2.142570 1_555
Fe0 O20 2.153214 1_555
Fe0 O15 2.153214 1_555
Fe0 O12 2.153214 1_555
Fe1 O42 2.142570 1_555
Fe1 O46 2.142570 1_555
Fe1 O37 2.142570 1_555
Fe1 O22 2.153214 1_455
Fe1 O13 2.153214 1_555
Fe1 O18 2.153214 1_556
Fe2 O38 2.142570 1_555
Fe2 O43 2.142570 1_555
Fe2 O47 2.142570 1_555
Fe2 O19 2.153214 1_554
Fe2 O23 2.153214 1_555
Fe2 O14 2.153214 1_565
Fe3 O45 2.142570 1_555
Fe3 O40 2.142570 1_555
Fe3 O41 2.142570 1_555
Fe3 O16 2.153214 1_545
Fe3 O17 2.153214 1_555
Fe3 O21 2.153214 1_655
Fe4 O7 2.161253 1_555
Fe4 O4 2.161253 1_555
Fe4 O10 2.161253 1_555
Fe4 O28 2.161507 1_555
Fe4 O34 2.161507 1_555
Fe4 O31 2.161507 1_555
Fe5 O8 2.161253 1_655
Fe5 O2 2.161253 1_555
Fe5 O5 2.161253 1_554
Fe5 O29 2.161507 1_555
Fe5 O32 2.161507 1_555
Fe5 O26 2.161507 1_555
Fe6 O3 2.161253 1_556
Fe6 O9 2.161253 1_555
Fe6 O1 2.161253 1_545
Fe6 O25 2.161507 1_555
Fe6 O33 2.161507 1_555
Fe6 O27 2.161507 1_555
Fe7 O0 2.161253 1_565
Fe7 O6 2.161253 1_555
Fe7 O11 2.161253 1_455
Fe7 O35 2.161507 1_555
Fe7 O24 2.161507 1_555
Fe7 O30 2.161507 1_555
O0 S0 1.492427 1_555
O0 Rb0 2.936555 1_555
O1 S1 1.492427 1_555
O1 Rb1 2.936555 1_555
O2 S2 1.492427 1_555
O2 Rb2 2.936555 1_555
O3 S3 1.492427 1_555
O3 Rb0 2.936555 1_555
O4 S4 1.492427 1_555
O4 Rb3 2.936555 1_555
O5 S5 1.492427 1_555
O5 Rb3 2.936555 1_555
O6 S6 1.492427 1_555
O6 Rb1 2.936555 1_555
O7 S7 1.492427 1_555
O7 Rb2 2.936555 1_555
O8 S8 1.492427 1_555
O8 Rb0 2.936555 1_555
O9 S9 1.492427 1_555
O9 Rb3 2.936555 1_555
O10 S10 1.492427 1_555
O10 Rb1 2.936555 1_555
O11 S11 1.492427 1_555
O11 Rb2 2.936555 1_555
O12 S10 1.491479 1_555
O12 Rb6 3.230441 1_555
O12 Rb2 3.254768 1_455
O12 Rb7 3.288231 1_555
O13 S8 1.491479 1_556
O13 Rb7 3.230441 1_556
O13 Rb3 3.254768 1_555
O13 Rb6 3.288231 1_555
O14 S9 1.491479 1_554
O14 Rb4 3.230441 1_544
O14 Rb0 3.254768 1_655
O14 Rb5 3.288231 1_555
O15 S4 1.491479 1_555
O15 Rb5 3.230441 1_555
O15 Rb1 3.254768 1_545
O15 Rb6 3.288231 1_555
O16 S11 1.491479 1_555
O16 Rb5 3.230441 1_565
O16 Rb1 3.254768 1_555
O16 Rb4 3.288231 1_555
O17 S0 1.491479 1_655
O17 Rb6 3.230441 1_655
O17 Rb2 3.254768 1_555
O17 Rb5 3.288231 1_555
O18 S2 1.491479 1_455
O18 Rb4 3.230441 1_454
O18 Rb0 3.254768 1_565
O18 Rb7 3.288231 1_555
O19 S1 1.491479 1_555
O19 Rb7 3.230441 1_556
O19 Rb3 3.254768 1_555
O19 Rb4 3.288231 1_555
O20 S7 1.491479 1_555
O20 Rb7 3.230441 1_555
O20 Rb3 3.254768 1_554
O20 Rb5 3.288231 1_555
O21 S6 1.491479 1_545
O21 Rb4 3.230441 1_445
O21 Rb0 3.254768 1_556
O21 Rb6 3.288231 1_555
O22 S5 1.491479 1_555
O22 Rb6 3.230441 1_655
O22 Rb2 3.254768 1_555
O22 Rb4 3.288231 1_555
O23 S3 1.491479 1_565
O23 Rb5 3.230441 1_565
O23 Rb1 3.254768 1_555
O23 Rb7 3.288231 1_555
O24 S2 1.487772 1_455
O24 Rb0 3.105997 1_565
O24 Rb7 3.110223 1_555
O25 S4 1.487772 1_555
O25 Rb1 3.105997 1_545
O25 Rb6 3.110223 1_555
O26 S0 1.487772 1_655
O26 Rb2 3.105997 1_555
O26 Rb5 3.110223 1_555
O27 S6 1.487772 1_545
O27 Rb0 3.105997 1_556
O27 Rb6 3.110223 1_555
O28 S1 1.487772 1_555
O28 Rb3 3.105997 1_555
O28 Rb4 3.110223 1_555
O29 S7 1.487772 1_555
O29 Rb3 3.105997 1_554
O29 Rb5 3.110223 1_555
O30 S3 1.487772 1_565
O30 Rb1 3.105997 1_555
O30 Rb7 3.110223 1_555
O31 S5 1.487772 1_555
O31 Rb2 3.105997 1_555
O31 Rb4 3.110223 1_555
O32 S9 1.487772 1_554
O32 Rb0 3.105997 1_655
O32 Rb5 3.110223 1_555
O33 S8 1.487772 1_556
O33 Rb3 3.105997 1_555
O33 Rb6 3.110223 1_555
O34 S11 1.487772 1_555
O34 Rb1 3.105997 1_555
O34 Rb4 3.110223 1_555
O35 S10 1.487772 1_555
O35 Rb2 3.105997 1_455
O35 Rb7 3.110223 1_555
O36 S0 1.483853 1_555
O36 Rb6 2.973885 1_555
O37 S1 1.483853 1_555
O37 Rb7 2.973885 1_556
O38 S2 1.483853 1_555
O38 Rb4 2.973885 1_554
O39 S3 1.483853 1_555
O39 Rb5 2.973885 1_555
O40 S4 1.483853 1_555
O40 Rb5 2.973885 1_555
O41 S5 1.483853 1_555
O41 Rb6 2.973885 1_655
O42 S6 1.483853 1_555
O42 Rb4 2.973885 1_455
O43 S7 1.483853 1_555
O43 Rb7 2.973885 1_555
O44 S8 1.483853 1_555
O44 Rb7 2.973885 1_555
O45 S9 1.483853 1_555
O45 Rb4 2.973885 1_545
O46 S10 1.483853 1_555
O46 Rb6 2.973885 1_555
O47 S11 1.483853 1_555
O47 Rb5 2.973885 1_565
