# generated using pymatgen
data_Dy6Ge3Se14
_symmetry_space_group_name_H-M   'P 1'
_cell_length_a   6.03804300
_cell_length_b   10.39911600
_cell_length_c   10.39915134
_cell_angle_alpha   59.99946841
_cell_angle_beta   90.00073818
_cell_angle_gamma   90.00002051
_symmetry_Int_Tables_number   1
_chemical_formula_structural   Dy6Ge3Se14
_chemical_formula_sum   'Dy6 Ge3 Se14'
_cell_volume   565.48205589
_cell_formula_units_Z   1
loop_
 _symmetry_equiv_pos_site_id
 _symmetry_equiv_pos_as_xyz
  1  'x, y, z'
loop_
 _atom_site_type_symbol
 _atom_site_label
 _atom_site_symmetry_multiplicity
 _atom_site_fract_x
 _atom_site_fract_y
 _atom_site_fract_z
 _atom_site_occupancy
  Dy  Dy0  1  0.24799700  0.22684500  0.13071600  1
  Dy  Dy1  1  0.24798900  0.64245700  0.22684300  1
  Dy  Dy2  1  0.24799400  0.13071200  0.64243700  1
  Dy  Dy3  1  0.74972500  0.77246300  0.86900500  1
  Dy  Dy4  1  0.74972200  0.35851600  0.77247100  1
  Dy  Dy5  1  0.74972100  0.86899600  0.35853000  1
  Ge  Ge0  1  0.82904800  0.33334000  0.33333100  1
  Ge  Ge1  1  0.33167400  0.66666300  0.66666500  1
  Ge  Ge2  1  0.47922600  0.99999100  0.00000400  1
  Se  Se0  1  0.43784000  0.33338800  0.33330800  1
  Se  Se1  1  0.93971400  0.66665900  0.66667000  1
  Se  Se2  1  0.99780300  0.09426000  0.41979200  1
  Se  Se3  1  0.99780700  0.48596700  0.09424100  1
  Se  Se4  1  0.99780900  0.41979200  0.48595600  1
  Se  Se5  1  0.50033100  0.90529700  0.58101200  1
  Se  Se6  1  0.50033900  0.51367600  0.90531200  1
  Se  Se7  1  0.50033600  0.58099700  0.51368800  1
  Se  Se8  1  0.71917500  0.16126900  0.09819300  1
  Se  Se9  1  0.71918500  0.74053800  0.16127700  1
  Se  Se10  1  0.71918100  0.09818200  0.74053600  1
  Se  Se11  1  0.22445600  0.83591100  0.90394200  1
  Se  Se12  1  0.22447000  0.26013500  0.83592100  1
  Se  Se13  1  0.22445600  0.90394600  0.26015000  1
loop_
_geom_bond_atom_site_label_1
_geom_bond_atom_site_label_2
_geom_bond_distance
_geom_bond_site_symmetry_2
Dy0 Se12 2.911483 1_554
Dy0 Se13 2.930429 1_545
Dy0 Se3 2.943623 1_455
Dy0 Se8 2.983969 1_555
Dy0 Se2 3.012531 1_455
Dy0 Se0 3.051926 1_555
Dy0 Se6 3.117887 1_554
Dy0 Se8 3.317469 1_455
Dy1 Se13 2.911421 1_555
Dy1 Se11 2.930431 1_554
Dy1 Se4 2.943615 1_455
Dy1 Se9 2.984025 1_555
Dy1 Se3 3.012599 1_455
Dy1 Se0 3.051462 1_555
Dy1 Se7 3.117919 1_555
Dy1 Se9 3.317314 1_455
Dy2 Se11 2.911500 1_545
Dy2 Se12 2.930541 1_555
Dy2 Se2 2.943483 1_455
Dy2 Se10 2.983999 1_555
Dy2 Se4 3.012491 1_455
Dy2 Se0 3.052035 1_555
Dy2 Se5 3.117969 1_545
Dy2 Se10 3.317429 1_455
Dy3 Se9 2.893615 1_556
Dy3 Se6 2.938747 1_555
Dy3 Se10 2.960848 1_565
Dy3 Se5 3.001312 1_555
Dy3 Se11 3.003921 1_655
Dy3 Se1 3.044511 1_555
Dy3 Se3 3.102859 1_556
Dy3 Se11 3.296379 1_555
Dy4 Se10 2.893534 1_555
Dy4 Se7 2.938700 1_555
Dy4 Se8 2.960877 1_556
Dy4 Se6 3.001381 1_555
Dy4 Se12 3.004005 1_655
Dy4 Se1 3.044531 1_555
Dy4 Se4 3.103049 1_555
Dy4 Se12 3.296273 1_555
Dy5 Se8 2.893549 1_565
Dy5 Se5 2.938770 1_555
Dy5 Se9 2.960808 1_555
Dy5 Se7 3.001350 1_555
Dy5 Se13 3.003939 1_655
Dy5 Se1 3.044483 1_555
Dy5 Se2 3.103151 1_565
Dy5 Se13 3.296318 1_555
Ge0 Se0 2.362131 1_555
Ge0 Se2 2.406761 1_555
Ge0 Se4 2.406777 1_555
Ge0 Se3 2.406875 1_555
Ge1 Se1 2.366671 1_455
Ge1 Se5 2.403805 1_555
Ge1 Se7 2.403899 1_555
Ge1 Se6 2.403912 1_555
Ge2 Se9 2.768842 1_555
Ge2 Se8 2.768938 1_565
Ge2 Se10 2.768980 1_564
Ge2 Se12 2.824882 1_564
Ge2 Se11 2.824934 1_554
Ge2 Se13 2.825007 1_555
