# generated using pymatgen
data_Cu3As
_symmetry_space_group_name_H-M   'P 1'
_cell_length_a   4.24785445
_cell_length_b   4.64591186
_cell_length_c   5.19638819
_cell_angle_alpha   90.00000000
_cell_angle_beta   90.00000000
_cell_angle_gamma   90.00000000
_symmetry_Int_Tables_number   1
_chemical_formula_structural   Cu3As
_chemical_formula_sum   'Cu6 As2'
_cell_volume   102.55153868
_cell_formula_units_Z   2
loop_
 _symmetry_equiv_pos_site_id
 _symmetry_equiv_pos_as_xyz
  1  'x, y, z'
loop_
 _atom_site_type_symbol
 _atom_site_label
 _atom_site_symmetry_multiplicity
 _atom_site_fract_x
 _atom_site_fract_y
 _atom_site_fract_z
 _atom_site_occupancy
  Cu  Cu0  1  0.00000000  0.00174394  0.50000000  1
  Cu  Cu1  1  0.50000000  0.33125606  0.00000000  1
  Cu  Cu2  1  0.00000000  0.51550778  0.25362138  1
  Cu  Cu3  1  -0.00000000  0.51550778  0.74637862  1
  Cu  Cu4  1  0.50000000  0.81749222  0.24637862  1
  Cu  Cu5  1  0.50000000  0.81749222  0.75362138  1
  As  As0  1  -0.00000000  0.99324678  0.00000000  1
  As  As1  1  0.50000000  0.33975322  0.50000000  1
loop_
_geom_bond_atom_site_label_1
_geom_bond_atom_site_label_2
_geom_bond_distance
_geom_bond_site_symmetry_2
Cu0 Cu2 2.596583 1_545
Cu0 Cu3 2.596583 1_545
Cu0 Cu4 2.642108 1_445
Cu0 Cu4 2.642108 1_545
Cu0 Cu5 2.642108 1_445
Cu0 Cu5 2.642108 1_545
Cu0 Cu2 2.708581 1_555
Cu0 Cu3 2.708581 1_555
Cu1 Cu5 2.596583 1_554
Cu1 Cu4 2.596583 1_555
Cu1 Cu3 2.642108 1_654
Cu1 Cu3 2.642108 1_554
Cu1 Cu2 2.642108 1_555
Cu1 Cu2 2.642108 1_655
Cu1 Cu4 2.708581 1_545
Cu1 Cu5 2.708581 1_544
Cu2 Cu4 2.545756 1_455
Cu2 Cu4 2.545756 1_555
Cu2 Cu3 2.560558 1_555
Cu2 Cu3 2.635830 1_554
Cu3 Cu5 2.545756 1_455
Cu3 Cu5 2.545756 1_555
Cu4 Cu5 2.560558 1_554
Cu4 Cu5 2.635830 1_555
As0 Cu2 2.581323 1_555
As0 Cu3 2.581323 1_554
As0 Cu0 2.598494 1_565
As0 Cu0 2.598494 1_564
As0 Cu4 2.610923 1_555
As0 Cu4 2.610923 1_455
As0 Cu5 2.610923 1_454
As0 Cu5 2.610923 1_554
As0 Cu1 2.641420 1_565
As0 Cu1 2.641420 1_465
As0 Cu2 2.761198 1_565
As0 Cu3 2.761198 1_564
As1 Cu4 2.581323 1_555
As1 Cu5 2.581323 1_555
As1 Cu1 2.598494 1_555
As1 Cu1 2.598494 1_556
As1 Cu3 2.610923 1_555
As1 Cu2 2.610923 1_555
As1 Cu3 2.610923 1_655
As1 Cu2 2.610923 1_655
As1 Cu0 2.641420 1_555
As1 Cu0 2.641420 1_655
As1 Cu5 2.761198 1_545
As1 Cu4 2.761198 1_545
