# generated using pymatgen
data_NaNi2H3(SO5)2
_symmetry_space_group_name_H-M   'P 1'
_cell_length_a   5.35499435
_cell_length_b   5.35490404
_cell_length_c   7.40890232
_cell_angle_alpha   69.71493615
_cell_angle_beta   69.71428716
_cell_angle_gamma   71.70010294
_symmetry_Int_Tables_number   1
_chemical_formula_structural   NaNi2H3(SO5)2
_chemical_formula_sum   'Na1 Ni2 H3 S2 O10'
_cell_volume   182.32640904
_cell_formula_units_Z   1
loop_
 _symmetry_equiv_pos_site_id
 _symmetry_equiv_pos_as_xyz
  1  'x, y, z'
loop_
 _atom_site_type_symbol
 _atom_site_label
 _atom_site_symmetry_multiplicity
 _atom_site_fract_x
 _atom_site_fract_y
 _atom_site_fract_z
 _atom_site_occupancy
  Na  Na0  1  0.49810500  0.49811600  0.50102200  1
  Ni  Ni0  1  0.99614500  0.49775800  0.00053600  1
  Ni  Ni1  1  0.49772600  0.99619800  0.00054900  1
  H  H0  1  0.30124300  0.30125000  0.23571800  1
  H  H1  1  0.68775800  0.68776500  0.77198100  1
  H  H2  1  0.49051700  0.49052600  0.00752100  1
  S  S0  1  0.90488200  0.90485200  0.29385400  1
  S  S1  1  0.09055700  0.09057500  0.70838500  1
  O  O0  1  0.34160200  0.34161900  0.08908000  1
  O  O1  1  0.64866900  0.64869000  0.91795600  1
  O  O2  1  0.20885600  0.81604300  0.24880500  1
  O  O3  1  0.81606900  0.20882800  0.24880700  1
  O  O4  1  0.78669600  0.17797100  0.75328200  1
  O  O5  1  0.17797500  0.78671900  0.75326800  1
  O  O6  1  0.77722600  0.77719600  0.50133600  1
  O  O7  1  0.21887200  0.21888400  0.50115300  1
  O  O8  1  0.80964500  0.80954400  0.16059800  1
  O  O9  1  0.18745500  0.18746700  0.84015000  1
loop_
_geom_bond_atom_site_label_1
_geom_bond_atom_site_label_2
_geom_bond_distance
_geom_bond_site_symmetry_2
Na0 O7 2.423584 1_555
Na0 O6 2.423849 1_555
Na0 O2 2.633356 1_555
Na0 O3 2.633485 1_555
Na0 O5 2.633865 1_555
Na0 O4 2.633948 1_555
Na0 O9 2.790879 1_555
Na0 O8 2.799766 1_555
Ni0 O1 1.997998 1_554
Ni0 O0 2.010346 1_655
Ni0 O3 2.107325 1_555
Ni0 O5 2.107672 1_654
Ni0 O9 2.162946 1_654
Ni0 O8 2.166968 1_555
Ni1 O1 1.998165 1_554
Ni1 O0 2.010086 1_565
Ni1 O2 2.107256 1_555
Ni1 O4 2.107580 1_564
Ni1 O9 2.162951 1_564
Ni1 O8 2.167548 1_555
H0 O0 0.988658 1_555
H1 O1 0.985337 1_555
H2 O0 1.169596 1_555
H2 O1 1.243373 1_554
O2 S0 1.494801 1_455
O3 S0 1.494793 1_545
O4 S1 1.493914 1_655
O5 S1 1.493880 1_565
O6 S0 1.460755 1_555
O7 S1 1.461179 1_555
O8 S0 1.535335 1_555
O9 S1 1.537207 1_555
