# generated using pymatgen
data_YbCe3
_symmetry_space_group_name_H-M   'P 1'
_cell_length_a   7.12951602
_cell_length_b   7.12951602
_cell_length_c   5.66050300
_cell_angle_alpha   90.00000000
_cell_angle_beta   90.00000000
_cell_angle_gamma   120.00000022
_symmetry_Int_Tables_number   1
_chemical_formula_structural   YbCe3
_chemical_formula_sum   'Yb2 Ce6'
_cell_volume   249.17573874
_cell_formula_units_Z   2
loop_
 _symmetry_equiv_pos_site_id
 _symmetry_equiv_pos_as_xyz
  1  'x, y, z'
loop_
 _atom_site_type_symbol
 _atom_site_label
 _atom_site_symmetry_multiplicity
 _atom_site_fract_x
 _atom_site_fract_y
 _atom_site_fract_z
 _atom_site_occupancy
  Yb  Yb0  1  0.33333300  0.66666700  0.75000000  1
  Yb  Yb1  1  0.66666700  0.33333300  0.25000000  1
  Ce  Ce0  1  0.15965800  0.31931700  0.25000000  1
  Ce  Ce1  1  0.68068300  0.84034200  0.25000000  1
  Ce  Ce2  1  0.15965800  0.84034200  0.25000000  1
  Ce  Ce3  1  0.84034200  0.68068300  0.75000000  1
  Ce  Ce4  1  0.31931700  0.15965800  0.75000000  1
  Ce  Ce5  1  0.84034200  0.15965800  0.75000000  1
loop_
_geom_bond_atom_site_label_1
_geom_bond_atom_site_label_2
_geom_bond_distance
_geom_bond_site_symmetry_2
Ce0 Ce1 3.414860 1_445
Ce0 Ce2 3.414860 1_545
Ce0 Ce5 3.449260 1_455
Ce0 Ce5 3.449260 1_454
Ce0 Ce4 3.449267 1_555
Ce0 Ce4 3.449267 1_554
Ce0 Yb0 3.551039 1_555
Ce0 Yb0 3.551039 1_554
Ce0 Yb1 3.565801 1_455
Ce0 Yb1 3.565815 1_555
Ce0 Ce1 3.714656 1_555
Ce0 Ce2 3.714656 1_555
Ce1 Ce2 3.414860 1_655
Ce1 Ce5 3.449260 1_565
Ce1 Ce5 3.449260 1_564
Ce1 Ce3 3.449267 1_555
Ce1 Ce3 3.449267 1_554
Ce1 Yb0 3.551039 1_555
Ce1 Yb0 3.551039 1_554
Ce1 Yb1 3.565801 1_565
Ce1 Yb1 3.565815 1_555
Ce1 Ce2 3.714656 1_555
Ce2 Ce3 3.449260 1_455
Ce2 Ce3 3.449260 1_454
Ce2 Ce4 3.449260 1_565
Ce2 Ce4 3.449260 1_564
Ce2 Yb0 3.551039 1_555
Ce2 Yb0 3.551039 1_554
Ce2 Yb1 3.565809 1_455
Ce2 Yb1 3.565809 1_565
Ce3 Ce4 3.414860 1_665
Ce3 Ce5 3.414860 1_565
Ce3 Yb1 3.551039 1_556
Ce3 Yb1 3.551039 1_555
Ce3 Yb0 3.565801 1_655
Ce3 Yb0 3.565815 1_555
Ce3 Ce4 3.714656 1_555
Ce3 Ce5 3.714656 1_555
Ce4 Ce5 3.414860 1_455
Ce4 Yb1 3.551039 1_556
Ce4 Yb1 3.551039 1_555
Ce4 Yb0 3.565801 1_545
Ce4 Yb0 3.565815 1_555
Ce4 Ce5 3.714656 1_555
Ce5 Yb1 3.551039 1_556
Ce5 Yb1 3.551039 1_555
Ce5 Yb0 3.565809 1_545
Ce5 Yb0 3.565809 1_655
