# generated using pymatgen
data_YMg14Sn
_symmetry_space_group_name_H-M   'P 1'
_cell_length_a   6.46059720
_cell_length_b   6.46059666
_cell_length_c   10.49890410
_cell_angle_alpha   90.00000000
_cell_angle_beta   90.00000000
_cell_angle_gamma   120.00000274
_symmetry_Int_Tables_number   1
_chemical_formula_structural   YMg14Sn
_chemical_formula_sum   'Y1 Mg14 Sn1'
_cell_volume   379.50707976
_cell_formula_units_Z   1
loop_
 _symmetry_equiv_pos_site_id
 _symmetry_equiv_pos_as_xyz
  1  'x, y, z'
loop_
 _atom_site_type_symbol
 _atom_site_label
 _atom_site_symmetry_multiplicity
 _atom_site_fract_x
 _atom_site_fract_y
 _atom_site_fract_z
 _atom_site_occupancy
  Y  Y0  1  0.16666700  0.33333300  0.12500000  1
  Mg  Mg0  1  0.17374437  0.83687169  0.12500000  1
  Mg  Mg1  1  0.16349388  0.83174644  0.62500000  1
  Mg  Mg2  1  0.66312831  0.32625563  0.12500000  1
  Mg  Mg3  1  0.66825356  0.33650612  0.62500000  1
  Mg  Mg4  1  0.66312831  0.83687169  0.12500000  1
  Mg  Mg5  1  0.66825356  0.83174644  0.62500000  1
  Mg  Mg6  1  0.33341702  0.16658298  0.37643873  1
  Mg  Mg7  1  0.33341702  0.16658298  0.87356127  1
  Mg  Mg8  1  0.33341702  0.66683505  0.37643873  1
  Mg  Mg9  1  0.33341702  0.66683505  0.87356127  1
  Mg  Mg10  1  0.83316495  0.16658298  0.37643873  1
  Mg  Mg11  1  0.83316495  0.16658298  0.87356127  1
  Mg  Mg12  1  0.83333300  0.66666700  0.36797097  1
  Mg  Mg13  1  0.83333300  0.66666700  0.88202903  1
  Sn  Sn0  1  0.16666700  0.33333300  0.62500000  1
loop_
_geom_bond_atom_site_label_1
_geom_bond_atom_site_label_2
_geom_bond_distance
_geom_bond_site_symmetry_2
Mg0 Mg2 3.161712 1_565
Mg0 Mg4 3.161713 1_555
Mg0 Mg12 3.183520 1_455
Mg0 Mg13 3.183520 1_454
Mg0 Mg8 3.220696 1_555
Mg0 Mg9 3.220696 1_554
Mg0 Mg7 3.220703 1_564
Mg0 Mg6 3.220703 1_565
Mg0 Y0 3.230541 1_565
Mg0 Y0 3.230541 1_555
Mg0 Mg2 3.298884 1_455
Mg0 Mg4 3.298885 1_455
Mg1 Mg3 3.199548 1_455
Mg1 Mg5 3.199548 1_455
Mg1 Mg8 3.212485 1_555
Mg1 Mg9 3.212485 1_555
Mg1 Mg7 3.212491 1_565
Mg1 Mg6 3.212491 1_565
Mg1 Sn0 3.230347 1_565
Mg1 Sn0 3.230347 1_555
Mg1 Mg3 3.261049 1_565
Mg1 Mg5 3.261049 1_555
Mg1 Mg12 3.270231 1_455
Mg1 Mg13 3.270231 1_455
Mg2 Mg4 3.161712 1_545
Mg2 Mg6 3.220703 1_555
Mg2 Mg7 3.220703 1_554
Mg2 Y0 3.230541 1_555
Mg2 Y0 3.230541 1_655
Mg2 Mg4 3.298884 1_555
Mg3 Mg5 3.199548 1_555
Mg3 Mg7 3.212491 1_555
Mg3 Mg6 3.212491 1_555
Mg3 Sn0 3.230347 1_655
Mg3 Sn0 3.230347 1_555
Mg3 Mg5 3.261049 1_545
Mg4 Mg8 3.220703 1_555
Mg4 Mg9 3.220703 1_554
Mg4 Y0 3.230541 1_555
Mg4 Y0 3.230541 1_665
Mg5 Mg8 3.212492 1_555
Mg5 Mg9 3.212492 1_555
Mg5 Sn0 3.230347 1_665
Mg5 Sn0 3.230347 1_555
Mg6 Sn0 3.208096 1_555
Mg6 Mg8 3.228670 1_545
Mg6 Mg8 3.231927 1_555
Mg6 Y0 3.232718 1_555
Mg7 Sn0 3.208096 1_555
Mg7 Mg9 3.228670 1_545
Mg7 Mg9 3.231927 1_555
Mg7 Y0 3.232718 1_556
Mg8 Sn0 3.208102 1_555
Mg8 Y0 3.232724 1_555
Mg9 Sn0 3.208102 1_555
Mg9 Y0 3.232724 1_556
Mg10 Sn0 3.208102 1_655
Mg10 Mg3 3.212485 1_555
Mg10 Mg5 3.212491 1_545
Mg10 Mg2 3.220696 1_555
Mg10 Mg4 3.220702 1_545
Mg10 Mg8 3.228670 1_545
Mg10 Mg6 3.228670 1_555
Mg10 Mg12 3.231522 1_555
Mg10 Mg12 3.231522 1_545
Mg10 Mg8 3.231927 1_655
Mg10 Mg6 3.231927 1_655
Mg10 Y0 3.232724 1_655
Mg11 Sn0 3.208102 1_655
Mg11 Mg3 3.212485 1_555
Mg11 Mg5 3.212491 1_545
Mg11 Mg2 3.220696 1_556
Mg11 Mg4 3.220702 1_546
Mg11 Mg9 3.228670 1_545
Mg11 Mg7 3.228670 1_555
Mg11 Mg13 3.231522 1_555
Mg11 Mg13 3.231522 1_545
Mg11 Mg9 3.231927 1_655
Mg11 Mg7 3.231927 1_655
Mg11 Y0 3.232724 1_656
Mg12 Mg4 3.183513 1_555
Mg12 Mg2 3.183520 1_555
Mg12 Mg6 3.231522 1_555
Mg12 Mg6 3.231522 1_665
Mg12 Mg8 3.231522 1_655
Mg12 Mg8 3.231522 1_555
Mg12 Mg5 3.270225 1_555
Mg12 Mg3 3.270231 1_555
Mg13 Mg4 3.183513 1_556
Mg13 Mg2 3.183520 1_556
Mg13 Mg7 3.231522 1_555
Mg13 Mg7 3.231522 1_665
Mg13 Mg9 3.231522 1_655
Mg13 Mg9 3.231522 1_555
Mg13 Mg5 3.270225 1_555
Mg13 Mg3 3.270231 1_555
