# generated using pymatgen
data_Ga3Re
_symmetry_space_group_name_H-M   'P 1'
_cell_length_a   6.47560370
_cell_length_b   6.47560370
_cell_length_c   7.02786968
_cell_angle_alpha   90.00000000
_cell_angle_beta   90.00000000
_cell_angle_gamma   90.00000000
_symmetry_Int_Tables_number   1
_chemical_formula_structural   Ga3Re
_chemical_formula_sum   'Ga12 Re4'
_cell_volume   294.70277460
_cell_formula_units_Z   4
loop_
 _symmetry_equiv_pos_site_id
 _symmetry_equiv_pos_as_xyz
  1  'x, y, z'
loop_
 _atom_site_type_symbol
 _atom_site_label
 _atom_site_symmetry_multiplicity
 _atom_site_fract_x
 _atom_site_fract_y
 _atom_site_fract_z
 _atom_site_occupancy
  Ga  Ga0  1  -0.00000000  0.50000000  0.50000000  1
  Ga  Ga1  1  0.50000000  -0.00000000  0.00000000  1
  Ga  Ga2  1  0.50000000  -0.00000000  0.50000000  1
  Ga  Ga3  1  -0.00000000  0.50000000  0.00000000  1
  Ga  Ga4  1  0.33301160  0.66698840  0.24345837  1
  Ga  Ga5  1  0.66698840  0.33301160  0.24345837  1
  Ga  Ga6  1  0.16698840  0.16698840  0.74345837  1
  Ga  Ga7  1  0.83301160  0.83301160  0.74345837  1
  Ga  Ga8  1  0.66698840  0.33301160  0.75654163  1
  Ga  Ga9  1  0.33301160  0.66698840  0.75654163  1
  Ga  Ga10  1  0.83301160  0.83301160  0.25654163  1
  Ga  Ga11  1  0.16698840  0.16698840  0.25654163  1
  Re  Re0  1  0.14362624  0.85637376  0.50000000  1
  Re  Re1  1  0.85637376  0.14362624  0.50000000  1
  Re  Re2  1  0.35637376  0.35637376  0.00000000  1
  Re  Re3  1  0.64362624  0.64362624  0.00000000  1
loop_
_geom_bond_atom_site_label_1
_geom_bond_atom_site_label_2
_geom_bond_distance
_geom_bond_site_symmetry_2
Ga0 Re1 2.488105 1_455
Ga0 Re0 2.488105 1_555
Ga0 Ga10 2.957550 1_455
Ga0 Ga7 2.957550 1_455
Ga0 Ga11 2.957550 1_555
Ga0 Ga6 2.957550 1_555
Ga0 Ga9 3.011677 1_555
Ga0 Ga4 3.011677 1_555
Ga0 Ga8 3.011677 1_455
Ga0 Ga5 3.011677 1_455
Ga1 Re3 2.488105 1_545
Ga1 Re2 2.488105 1_555
Ga1 Ga8 2.957550 1_554
Ga1 Ga5 2.957550 1_555
Ga1 Ga9 2.957550 1_544
Ga1 Ga4 2.957550 1_545
Ga1 Ga7 3.011677 1_544
Ga1 Ga10 3.011677 1_545
Ga1 Ga6 3.011677 1_554
Ga1 Ga11 3.011677 1_555
Ga2 Re0 2.488105 1_545
Ga2 Re1 2.488105 1_555
Ga2 Ga7 2.957550 1_545
Ga2 Ga6 2.957550 1_555
Ga2 Ga5 3.011677 1_555
Ga2 Ga8 3.011677 1_555
Ga2 Ga9 3.011677 1_545
Ga2 Ga4 3.011677 1_545
Ga3 Re3 2.488105 1_455
Ga3 Re2 2.488105 1_555
Ga3 Ga4 2.957550 1_555
Ga3 Ga9 2.957550 1_554
Ga3 Ga5 2.957550 1_455
Ga3 Ga8 2.957550 1_454
Ga3 Ga7 3.011677 1_454
Ga3 Ga6 3.011677 1_554
Ga4 Re0 2.501726 1_555
Ga4 Re2 2.645030 1_555
Ga4 Re3 2.645030 1_555
Ga4 Ga5 3.058522 1_555
Ga5 Re1 2.501726 1_555
Ga5 Re2 2.645030 1_555
Ga5 Re3 2.645030 1_555
Ga6 Re2 2.501726 1_556
Ga6 Re1 2.645030 1_455
Ga6 Re0 2.645030 1_545
Ga6 Ga7 3.058522 1_445
Ga7 Re3 2.501726 1_556
Ga7 Re1 2.645030 1_565
Ga7 Re0 2.645030 1_655
Ga8 Re1 2.501726 1_555
Ga8 Re2 2.645030 1_556
Ga8 Re3 2.645030 1_556
Ga8 Ga9 3.058522 1_555
Ga9 Re0 2.501726 1_555
Ga9 Re2 2.645030 1_556
Ga9 Re3 2.645030 1_556
Ga10 Re3 2.501726 1_555
Ga10 Re1 2.645030 1_565
Ga10 Re0 2.645030 1_655
Ga10 Ga2 2.957550 1_565
Ga10 Ga3 3.011677 1_655
Ga10 Ga11 3.058522 1_665
Ga11 Re2 2.501726 1_555
Ga11 Re1 2.645030 1_455
Ga11 Re0 2.645030 1_545
Ga11 Ga2 2.957550 1_555
Ga11 Ga3 3.011677 1_555
Re0 Re1 2.630626 1_465
Re2 Re3 2.630626 1_555
