# generated using pymatgen
data_Mg14CdW
_symmetry_space_group_name_H-M   'P 1'
_cell_length_a   6.29443799
_cell_length_b   6.29443749
_cell_length_c   9.96120624
_cell_angle_alpha   90.00000000
_cell_angle_beta   90.00000000
_cell_angle_gamma   120.00000256
_symmetry_Int_Tables_number   1
_chemical_formula_structural   Mg14CdW
_chemical_formula_sum   'Mg14 Cd1 W1'
_cell_volume   341.78770578
_cell_formula_units_Z   1
loop_
 _symmetry_equiv_pos_site_id
 _symmetry_equiv_pos_as_xyz
  1  'x, y, z'
loop_
 _atom_site_type_symbol
 _atom_site_label
 _atom_site_symmetry_multiplicity
 _atom_site_fract_x
 _atom_site_fract_y
 _atom_site_fract_z
 _atom_site_occupancy
  Mg  Mg0  1  0.16730207  0.83365054  0.12500000  1
  Mg  Mg1  1  0.16687956  0.83343928  0.62500000  1
  Mg  Mg2  1  0.66634946  0.33269793  0.12500000  1
  Mg  Mg3  1  0.66656072  0.33312044  0.62500000  1
  Mg  Mg4  1  0.66634946  0.83365054  0.12500000  1
  Mg  Mg5  1  0.66656072  0.83343928  0.62500000  1
  Mg  Mg6  1  0.32667462  0.17332538  0.36727783  1
  Mg  Mg7  1  0.32667462  0.17332538  0.88272217  1
  Mg  Mg8  1  0.32667462  0.65335024  0.36727783  1
  Mg  Mg9  1  0.32667462  0.65335024  0.88272217  1
  Mg  Mg10  1  0.84664976  0.17332538  0.36727783  1
  Mg  Mg11  1  0.84664976  0.17332538  0.88272217  1
  Mg  Mg12  1  0.83333300  0.66666700  0.37397969  1
  Mg  Mg13  1  0.83333300  0.66666700  0.87602031  1
  Cd  Cd0  1  0.16666700  0.33333300  0.62500000  1
  W  W0  1  0.16666700  0.33333300  0.12500000  1
loop_
_geom_bond_atom_site_label_1
_geom_bond_atom_site_label_2
_geom_bond_distance
_geom_bond_site_symmetry_2
Mg0 Mg8 3.042562 1_555
Mg0 Mg9 3.042562 1_554
Mg0 Mg7 3.042568 1_564
Mg0 Mg6 3.042568 1_565
Mg0 Mg13 3.076581 1_454
Mg0 Mg12 3.076581 1_455
Mg0 Mg2 3.141223 1_565
Mg0 Mg4 3.141223 1_555
Mg0 W0 3.147221 1_565
Mg0 W0 3.147221 1_555
Mg0 Mg2 3.153215 1_455
Mg0 Mg4 3.153215 1_455
Mg1 Mg12 3.091636 1_455
Mg1 Mg13 3.091636 1_455
Mg1 Mg3 3.145212 1_565
Mg1 Mg5 3.145212 1_555
Mg1 Mg3 3.149226 1_455
Mg1 Mg5 3.149226 1_455
Mg1 Mg8 3.166611 1_555
Mg1 Mg9 3.166611 1_555
Mg1 Mg6 3.166617 1_565
Mg1 Mg7 3.166617 1_565
Mg2 Mg6 3.042568 1_555
Mg2 Mg7 3.042568 1_554
Mg2 Mg4 3.141223 1_545
Mg2 W0 3.147221 1_555
Mg2 W0 3.147221 1_655
Mg2 Mg4 3.153215 1_555
Mg3 Mg5 3.145212 1_545
Mg3 Mg5 3.149226 1_555
Mg3 Mg6 3.166617 1_555
Mg3 Mg7 3.166617 1_555
Mg4 Mg8 3.042568 1_555
Mg4 Mg9 3.042568 1_554
Mg4 W0 3.147221 1_555
Mg4 W0 3.147221 1_665
Mg5 Mg8 3.166617 1_555
Mg5 Mg9 3.166617 1_555
Mg6 W0 2.977835 1_555
Mg6 Mg8 3.021486 1_555
Mg6 Mg8 3.272951 1_545
Mg7 W0 2.977835 1_556
Mg7 Mg9 3.021486 1_555
Mg7 Mg9 3.272951 1_545
Mg8 W0 2.977841 1_555
Mg9 W0 2.977841 1_556
Mg10 W0 2.977842 1_655
Mg10 Mg8 3.021486 1_655
Mg10 Mg6 3.021487 1_655
Mg10 Mg2 3.042562 1_555
Mg10 Mg4 3.042568 1_545
Mg10 Mg12 3.148764 1_545
Mg10 Mg12 3.148764 1_555
Mg10 Mg3 3.166611 1_555
Mg10 Mg5 3.166617 1_545
Mg10 Mg8 3.272951 1_545
Mg10 Mg6 3.272951 1_555
Mg11 W0 2.977842 1_656
Mg11 Mg9 3.021486 1_655
Mg11 Mg7 3.021487 1_655
Mg11 Mg2 3.042562 1_556
Mg11 Mg4 3.042568 1_546
Mg11 Mg13 3.148764 1_545
Mg11 Mg13 3.148764 1_555
Mg11 Mg3 3.166611 1_555
Mg11 Mg5 3.166617 1_545
Mg11 Mg9 3.272951 1_545
Mg11 Mg7 3.272951 1_555
Mg12 Mg4 3.076575 1_555
Mg12 Mg2 3.076581 1_555
Mg12 Mg5 3.091630 1_555
Mg12 Mg3 3.091636 1_555
Mg12 Mg6 3.148764 1_665
Mg12 Mg6 3.148764 1_555
Mg12 Mg8 3.148764 1_655
Mg12 Mg8 3.148764 1_555
Mg13 Mg4 3.076575 1_556
Mg13 Mg2 3.076581 1_556
Mg13 Mg5 3.091630 1_555
Mg13 Mg3 3.091636 1_555
Mg13 Mg7 3.148764 1_665
Mg13 Mg7 3.148764 1_555
Mg13 Mg9 3.148764 1_655
Mg13 Mg9 3.148764 1_555
Cd0 Mg6 3.103827 1_555
Cd0 Mg7 3.103827 1_555
Cd0 Mg9 3.103833 1_555
Cd0 Mg8 3.103833 1_555
Cd0 Mg10 3.103833 1_455
Cd0 Mg11 3.103833 1_455
Cd0 Mg1 3.147219 1_555
Cd0 Mg1 3.147219 1_545
Cd0 Mg5 3.147219 1_555
Cd0 Mg5 3.147219 1_445
Cd0 Mg3 3.147219 1_555
Cd0 Mg3 3.147219 1_455
