# generated using pymatgen
data_KNaAs6(PbO3)8
_symmetry_space_group_name_H-M   'P 1'
_cell_length_a   10.29615183
_cell_length_b   10.29615183
_cell_length_c   7.50433600
_cell_angle_alpha   90.00000000
_cell_angle_beta   90.00000000
_cell_angle_gamma   119.99999892
_symmetry_Int_Tables_number   1
_chemical_formula_structural   KNaAs6(PbO3)8
_chemical_formula_sum   'K1 Na1 As6 Pb8 O24'
_cell_volume   688.95805793
_cell_formula_units_Z   1
loop_
 _symmetry_equiv_pos_site_id
 _symmetry_equiv_pos_as_xyz
  1  'x, y, z'
loop_
 _atom_site_type_symbol
 _atom_site_label
 _atom_site_symmetry_multiplicity
 _atom_site_fract_x
 _atom_site_fract_y
 _atom_site_fract_z
 _atom_site_occupancy
  K  K0  1  0.00000000  0.00000000  0.51416000  1
  Na  Na0  1  0.66666700  0.33333300  0.99236600  1
  As  As0  1  0.93984000  0.29257200  0.24459700  1
  As  As1  1  0.70742800  0.64726900  0.24459700  1
  As  As2  1  0.35273100  0.06016000  0.24459700  1
  As  As3  1  0.72466600  0.04353700  0.75006300  1
  As  As4  1  0.95646300  0.68112900  0.75006300  1
  As  As5  1  0.31887100  0.27533400  0.75006300  1
  Pb  Pb0  1  0.33299100  0.92553300  0.75155200  1
  Pb  Pb1  1  0.07446700  0.40745800  0.75155200  1
  Pb  Pb2  1  0.59254200  0.66700900  0.75155200  1
  Pb  Pb3  1  0.33543300  0.40777800  0.24913300  1
  Pb  Pb4  1  0.59222200  0.92765500  0.24913300  1
  Pb  Pb5  1  0.07234500  0.66456700  0.24913300  1
  Pb  Pb6  1  0.00000000  0.00000000  0.01727200  1
  Pb  Pb7  1  0.66666700  0.33333300  0.51591800  1
  O  O0  1  0.81309500  0.83975500  0.23968600  1
  O  O1  1  0.16024500  0.97333900  0.23968600  1
  O  O2  1  0.02666100  0.18690500  0.23968600  1
  O  O3  1  0.84837100  0.48819900  0.75095000  1
  O  O4  1  0.51180100  0.36017200  0.75095000  1
  O  O5  1  0.63982800  0.15162900  0.75095000  1
  O  O6  1  0.07603200  0.74897200  0.57051600  1
  O  O7  1  0.25102800  0.32706000  0.57051600  1
  O  O8  1  0.67294000  0.92396800  0.57051600  1
  O  O9  1  0.58467800  0.57713400  0.06783300  1
  O  O10  1  0.42286600  0.00754400  0.06783300  1
  O  O11  1  0.99245600  0.41532200  0.06783300  1
  O  O12  1  0.59357900  0.58023800  0.43032600  1
  O  O13  1  0.41976200  0.01334100  0.43032600  1
  O  O14  1  0.98665900  0.40642100  0.43032600  1
  O  O15  1  0.07441300  0.75254400  0.93175800  1
  O  O16  1  0.24745600  0.32186900  0.93175800  1
  O  O17  1  0.67813100  0.92558700  0.93175800  1
  O  O18  1  0.74519400  0.18184700  0.24601500  1
  O  O19  1  0.81815300  0.56334700  0.24601500  1
  O  O20  1  0.43665300  0.25480600  0.24601500  1
  O  O21  1  0.91913800  0.15543800  0.75432200  1
  O  O22  1  0.84456200  0.76370000  0.75432200  1
  O  O23  1  0.23630000  0.08086200  0.75432200  1
loop_
_geom_bond_atom_site_label_1
_geom_bond_atom_site_label_2
_geom_bond_distance
_geom_bond_site_symmetry_2
K0 O2 2.737329 1_555
K0 O0 2.737331 1_445
K0 O1 2.737335 1_545
K0 O21 2.799120 1_455
K0 O23 2.799120 1_555
K0 O22 2.799120 1_445
K0 O6 3.081445 1_545
K0 O8 3.081445 1_445
K0 O7 3.081445 1_555
Na0 O5 2.518253 1_555
Na0 O3 2.518256 1_555
Na0 O4 2.518260 1_555
Na0 O18 2.823245 1_556
Na0 O19 2.823251 1_556
Na0 O20 2.823252 1_556
As0 O2 1.719498 1_655
As0 O11 1.722126 1_555
As0 O14 1.727420 1_555
As0 O18 1.741115 1_555
As1 O0 1.719481 1_555
As1 O9 1.722127 1_555
As1 O12 1.727421 1_555
As1 O19 1.741123 1_555
As2 O1 1.719480 1_545
As2 O10 1.722132 1_555
As2 O13 1.727426 1_555
As2 O20 1.741114 1_555
As3 O8 1.720182 1_545
As3 O5 1.724478 1_555
As3 O17 1.726752 1_545
As3 O21 1.740909 1_555
As4 O6 1.720182 1_655
As4 O3 1.724478 1_555
As4 O15 1.726752 1_655
As4 O22 1.740909 1_555
As5 O7 1.720182 1_555
As5 O4 1.724478 1_555
As5 O16 1.726752 1_555
As5 O23 1.740909 1_555
O0 Pb6 2.456873 1_665
O0 Pb4 2.837957 1_555
O1 Pb6 2.456878 1_565
O1 Pb5 2.837947 1_555
O2 Pb6 2.456870 1_555
O2 Pb3 2.837950 1_555
O3 Pb7 2.484013 1_555
O3 Pb1 2.836472 1_655
O4 Pb7 2.484018 1_555
O4 Pb2 2.836472 1_555
O5 Pb7 2.484010 1_555
O5 Pb0 2.836472 1_545
O6 Pb5 2.557403 1_555
O6 Pb0 2.709336 1_555
O7 Pb3 2.557403 1_555
O7 Pb1 2.709336 1_555
O8 Pb4 2.557403 1_555
O8 Pb2 2.709336 1_555
O9 Pb2 2.534035 1_554
O9 Pb3 2.646220 1_555
O10 Pb0 2.534035 1_544
O10 Pb4 2.646220 1_545
O11 Pb1 2.534035 1_654
O11 Pb5 2.646220 1_655
O12 Pb2 2.572696 1_555
O12 Pb3 2.710498 1_555
O13 Pb0 2.572696 1_545
O13 Pb4 2.710498 1_545
O14 Pb1 2.572696 1_655
O14 Pb5 2.710498 1_655
O15 Pb5 2.544430 1_556
O15 Pb0 2.710599 1_555
O16 Pb3 2.544430 1_556
O16 Pb1 2.710599 1_555
O17 Pb4 2.544430 1_556
O17 Pb2 2.710599 1_555
O18 Pb4 2.282286 1_545
O19 Pb5 2.282286 1_655
O20 Pb3 2.282286 1_555
O21 Pb1 2.267474 1_655
O22 Pb2 2.267474 1_555
O23 Pb0 2.267474 1_545
