# generated using pymatgen
data_BaMg14NbO16
_symmetry_space_group_name_H-M   'P 1'
_cell_length_a   8.79037785
_cell_length_b   8.79037785
_cell_length_c   4.53128013
_cell_angle_alpha   90.00000000
_cell_angle_beta   90.00000000
_cell_angle_gamma   90.00000000
_symmetry_Int_Tables_number   1
_chemical_formula_structural   BaMg14NbO16
_chemical_formula_sum   'Ba1 Mg14 Nb1 O16'
_cell_volume   350.13538123
_cell_formula_units_Z   1
loop_
 _symmetry_equiv_pos_site_id
 _symmetry_equiv_pos_as_xyz
  1  'x, y, z'
loop_
 _atom_site_type_symbol
 _atom_site_label
 _atom_site_symmetry_multiplicity
 _atom_site_fract_x
 _atom_site_fract_y
 _atom_site_fract_z
 _atom_site_occupancy
  Ba  Ba0  1  0.00000000  0.00000000  -0.00000000  1
  Mg  Mg0  1  0.00000000  0.50000000  -0.00000000  1
  Mg  Mg1  1  0.50000000  0.00000000  -0.00000000  1
  Mg  Mg2  1  0.00000000  0.26379402  0.50000000  1
  Mg  Mg3  1  0.00000000  0.73620598  0.50000000  1
  Mg  Mg4  1  0.50000000  0.24666308  0.50000000  1
  Mg  Mg5  1  0.50000000  0.75333692  0.50000000  1
  Mg  Mg6  1  0.26379402  0.00000000  0.50000000  1
  Mg  Mg7  1  0.24666308  0.50000000  0.50000000  1
  Mg  Mg8  1  0.73620598  0.00000000  0.50000000  1
  Mg  Mg9  1  0.75333692  0.50000000  0.50000000  1
  Mg  Mg10  1  0.25617536  0.25617536  0.00000000  1
  Mg  Mg11  1  0.25617536  0.74382464  -0.00000000  1
  Mg  Mg12  1  0.74382464  0.25617536  0.00000000  1
  Mg  Mg13  1  0.74382464  0.74382464  -0.00000000  1
  Nb  Nb0  1  0.50000000  0.50000000  -0.00000000  1
  O  O0  1  0.28006424  0.00000000  -0.00000000  1
  O  O1  1  0.24434128  0.50000000  0.00000000  1
  O  O2  1  0.71993576  0.00000000  0.00000000  1
  O  O3  1  0.75565872  0.50000000  -0.00000000  1
  O  O4  1  0.25102603  0.25102603  0.50000000  1
  O  O5  1  0.25102603  0.74897397  0.50000000  1
  O  O6  1  0.74897397  0.25102603  0.50000000  1
  O  O7  1  0.74897397  0.74897397  0.50000000  1
  O  O8  1  0.00000000  0.00000000  0.50000000  1
  O  O9  1  0.00000000  0.50000000  0.50000000  1
  O  O10  1  0.50000000  0.00000000  0.50000000  1
  O  O11  1  0.50000000  0.50000000  0.50000000  1
  O  O12  1  0.00000000  0.28006424  0.00000000  1
  O  O13  1  0.00000000  0.71993576  -0.00000000  1
  O  O14  1  0.50000000  0.24434128  0.00000000  1
  O  O15  1  0.50000000  0.75565872  -0.00000000  1
loop_
_geom_bond_atom_site_label_1
_geom_bond_atom_site_label_2
_geom_bond_distance
_geom_bond_site_symmetry_2
Ba0 O8 2.265640 1_555
Ba0 O8 2.265640 1_554
Ba0 O13 2.461870 1_545
Ba0 O2 2.461870 1_455
Ba0 O12 2.461870 1_555
Ba0 O0 2.461870 1_555
Mg0 O12 1.933318 1_555
Mg0 O13 1.933318 1_555
Mg0 O3 2.147852 1_455
Mg0 O1 2.147852 1_555
Mg0 O9 2.265640 1_554
Mg0 O9 2.265640 1_555
Mg1 O0 1.933318 1_555
Mg1 O2 1.933318 1_555
Mg1 O15 2.147852 1_545
Mg1 O14 2.147852 1_555
Mg1 O10 2.265640 1_555
Mg1 O10 2.265640 1_554
Mg2 O9 2.076340 1_555
Mg2 O6 2.209466 1_455
Mg2 O4 2.209466 1_555
Mg2 O12 2.270150 1_555
Mg2 O12 2.270150 1_556
Mg2 O8 2.318849 1_555
Mg3 O9 2.076340 1_555
Mg3 O5 2.209466 1_555
Mg3 O7 2.209466 1_455
Mg3 O13 2.270150 1_555
Mg3 O13 2.270150 1_556
Mg3 O8 2.318849 1_565
Mg4 O10 2.168262 1_555
Mg4 O4 2.188911 1_555
Mg4 O6 2.188911 1_555
Mg4 O11 2.226927 1_555
Mg4 O14 2.265732 1_556
Mg4 O14 2.265732 1_555
Mg5 O10 2.168262 1_565
Mg5 O5 2.188911 1_555
Mg5 O7 2.188911 1_555
Mg5 O11 2.226927 1_555
Mg5 O15 2.265732 1_556
Mg5 O15 2.265732 1_555
Mg6 O10 2.076340 1_555
Mg6 O5 2.209466 1_545
Mg6 O4 2.209466 1_555
Mg6 O0 2.270150 1_556
Mg6 O0 2.270150 1_555
Mg6 O8 2.318849 1_555
Mg7 O9 2.168262 1_555
Mg7 O4 2.188911 1_555
Mg7 O5 2.188911 1_555
Mg7 O11 2.226927 1_555
Mg7 O1 2.265732 1_556
Mg7 O1 2.265732 1_555
Mg8 O10 2.076340 1_555
Mg8 O6 2.209466 1_555
Mg8 O7 2.209466 1_545
Mg8 O2 2.270150 1_556
Mg8 O2 2.270150 1_555
Mg8 O8 2.318849 1_655
Mg9 O9 2.168262 1_655
Mg9 O6 2.188911 1_555
Mg9 O7 2.188911 1_555
Mg9 O11 2.226927 1_555
Mg9 O3 2.265732 1_556
Mg9 O3 2.265732 1_555
Mg10 O1 2.145834 1_555
Mg10 O14 2.145834 1_555
Mg10 O12 2.261648 1_555
Mg10 O0 2.261648 1_555
Mg10 O4 2.266544 1_554
Mg10 O4 2.266544 1_555
Mg11 O15 2.145834 1_555
Mg11 O1 2.145834 1_555
Mg11 O0 2.261648 1_565
Mg11 O13 2.261648 1_555
Mg11 O5 2.266544 1_555
Mg11 O5 2.266544 1_554
Mg12 O3 2.145834 1_555
Mg12 O14 2.145834 1_555
Mg12 O12 2.261648 1_655
Mg12 O2 2.261648 1_555
Mg12 O6 2.266544 1_555
Mg12 O6 2.266544 1_554
Mg13 O15 2.145834 1_555
Mg13 O3 2.145834 1_555
Mg13 O13 2.261648 1_655
Mg13 O2 2.261648 1_565
Mg13 O7 2.266544 1_555
Mg13 O7 2.266544 1_554
Nb0 O3 2.247337 1_555
Nb0 O1 2.247337 1_555
Nb0 O14 2.247337 1_555
Nb0 O15 2.247337 1_555
Nb0 O11 2.265640 1_555
Nb0 O11 2.265640 1_554
