# generated using pymatgen
data_Sm4Fe31(CoC2)3
_symmetry_space_group_name_H-M   'P 1'
_cell_length_a   6.50129300
_cell_length_b   6.53214267
_cell_length_c   13.04511961
_cell_angle_alpha   83.60840372
_cell_angle_beta   83.58789683
_cell_angle_gamma   83.55000472
_symmetry_Int_Tables_number   1
_chemical_formula_structural   Sm4Fe31(CoC2)3
_chemical_formula_sum   'Sm4 Fe31 Co3 C6'
_cell_volume   544.29783149
_cell_formula_units_Z   1
loop_
 _symmetry_equiv_pos_site_id
 _symmetry_equiv_pos_as_xyz
  1  'x, y, z'
loop_
 _atom_site_type_symbol
 _atom_site_label
 _atom_site_symmetry_multiplicity
 _atom_site_fract_x
 _atom_site_fract_y
 _atom_site_fract_z
 _atom_site_occupancy
  Sm  Sm0  1  0.65522600  0.65506500  0.32809000  1
  Sm  Sm1  1  0.65495400  0.65515100  0.82760200  1
  Sm  Sm2  1  0.34680900  0.34511500  0.17322900  1
  Sm  Sm3  1  0.34581300  0.34459500  0.67181900  1
  Fe  Fe0  1  0.90416000  0.90316100  0.45221500  1
  Fe  Fe1  1  0.90488900  0.90335900  0.95199600  1
  Fe  Fe2  1  0.09425800  0.09567100  0.04755200  1
  Fe  Fe3  1  0.09436000  0.09513600  0.54709200  1
  Fe  Fe4  1  0.00001300  0.00138600  0.24990000  1
  Fe  Fe5  1  0.99967900  0.00084100  0.74989000  1
  Fe  Fe6  1  0.00005500  0.49985200  0.50005100  1
  Fe  Fe7  1  0.99947200  0.49980200  0.00031400  1
  Fe  Fe8  1  0.49917800  0.00028300  0.00012600  1
  Fe  Fe9  1  0.49955300  0.00069100  0.50017400  1
  Fe  Fe10  1  0.28217800  0.71789600  0.49931500  1
  Fe  Fe11  1  0.28284900  0.71639900  0.00000700  1
  Fe  Fe12  1  0.71604600  0.99932400  0.14209000  1
  Fe  Fe13  1  0.71660400  0.99935600  0.64170300  1
  Fe  Fe14  1  0.00065200  0.28266700  0.35842800  1
  Fe  Fe15  1  0.99963300  0.28305200  0.85848500  1
  Fe  Fe16  1  0.28340500  0.00022100  0.35809300  1
  Fe  Fe17  1  0.28385800  0.00033400  0.85754000  1
  Fe  Fe18  1  0.99866500  0.71760600  0.14186800  1
  Fe  Fe19  1  0.99793800  0.71842200  0.64158800  1
  Fe  Fe20  1  0.71631500  0.28305300  0.00036700  1
  Fe  Fe21  1  0.71744200  0.28262300  0.50044500  1
  Fe  Fe22  1  0.34235500  0.34202300  0.92842800  1
  Fe  Fe23  1  0.34199000  0.85654800  0.17081600  1
  Fe  Fe24  1  0.34198400  0.85692900  0.67041700  1
  Fe  Fe25  1  0.14228900  0.65712100  0.32797000  1
  Fe  Fe26  1  0.14245600  0.65648700  0.82799500  1
  Fe  Fe27  1  0.65745400  0.65867500  0.07170500  1
  Fe  Fe28  1  0.65598700  0.65723300  0.57122700  1
  Fe  Fe29  1  0.65803800  0.14298300  0.32943300  1
  Fe  Fe30  1  0.65759700  0.14278000  0.82941100  1
  Co  Co0  1  0.86088400  0.34359200  0.17186400  1
  Co  Co1  1  0.86296000  0.34312800  0.67131800  1
  Co  Co2  1  0.34372400  0.34342600  0.43082500  1
  C  C0  1  0.49972400  0.49930500  0.00023200  1
  C  C1  1  0.49920200  0.49947600  0.49998100  1
  C  C2  1  0.49936600  0.00048900  0.24984600  1
  C  C3  1  0.49987000  0.00027500  0.74952500  1
  C  C4  1  0.00018700  0.49894900  0.24952900  1
  C  C5  1  0.99992900  0.49952200  0.74950200  1
loop_
_geom_bond_atom_site_label_1
_geom_bond_atom_site_label_2
_geom_bond_distance
_geom_bond_site_symmetry_2
Fe0 Fe3 2.381013 1_665
Fe0 Fe29 2.651512 1_565
Fe0 Fe9 2.657311 1_565
Fe0 Fe28 2.657391 1_555
Fe0 Fe25 2.658423 1_655
Fe0 Fe6 2.659021 1_655
Fe0 Fe4 2.666640 1_665
Fe0 Fe10 2.717607 1_655
Fe0 Fe19 2.727298 1_555
Fe0 Fe16 2.736851 1_665
Fe0 Fe13 2.737221 1_555
Fe0 Fe21 2.741166 1_565
Fe0 Fe14 2.745626 1_665
Fe0 Sm0 3.102621 1_555
Fe1 Fe2 2.384645 1_666
Fe1 Fe30 2.653373 1_565
Fe1 Fe27 2.653647 1_556
Fe1 Fe26 2.658152 1_655
Fe1 Fe7 2.660232 1_556
Fe1 Fe5 2.662299 1_565
Fe1 Fe8 2.663765 1_566
Fe1 Fe11 2.724136 1_656
Fe1 Fe18 2.735131 1_556
Fe1 Fe17 2.736529 1_665
Fe1 Fe15 2.742388 1_565
Fe1 Fe12 2.746422 1_556
Fe1 Fe20 2.746844 1_566
Fe1 Sm1 3.109486 1_555
Fe2 Fe8 2.656050 1_555
Fe2 Fe22 2.659430 1_554
Fe2 Fe23 2.659593 1_545
Fe2 Fe4 2.661593 1_555
Fe2 Fe7 2.661838 1_455
Fe2 Fe20 2.721923 1_455
Fe2 Sm2 3.136204 1_555
Fe3 Fe9 2.655833 1_555
Fe3 Fe6 2.664601 1_555
Fe3 Fe5 2.667535 1_455
Fe3 Sm3 3.123787 1_555
Fe4 Sm2 3.355395 1_555
Fe4 Sm0 3.361173 1_445
Fe5 Sm3 3.355207 1_655
Fe5 Sm1 3.356988 1_545
Fe6 Sm0 3.345468 1_455
Fe6 Sm3 3.348020 1_555
Fe7 Sm1 3.351148 1_554
Fe7 Sm2 3.365406 1_655
Fe8 Sm1 3.358720 1_544
Fe8 Sm2 3.359431 1_555
Fe9 Sm3 3.342865 1_555
Fe9 Sm0 3.356840 1_545
Fe10 Fe6 2.443935 1_555
Fe10 Fe9 2.450376 1_565
Fe10 Fe3 2.729027 1_565
Fe11 Fe7 2.445127 1_455
Fe11 Fe8 2.450262 1_565
Fe11 Fe2 2.741455 1_565
Fe12 Fe4 2.444615 1_665
Fe12 Fe8 2.448720 1_565
Fe12 Fe2 2.731409 1_665
Fe13 Fe5 2.442537 1_565
Fe13 Fe9 2.444496 1_565
Fe13 Fe3 2.728084 1_665
Fe14 Fe4 2.441825 1_555
Fe14 Fe6 2.450839 1_555
Fe14 Fe3 2.724875 1_555
Fe15 Fe5 2.446703 1_555
Fe15 Fe7 2.451577 1_556
Fe15 Fe2 2.730814 1_656
Fe16 Fe4 2.441689 1_555
Fe16 Fe9 2.448270 1_555
Fe16 Fe3 2.732400 1_555
Fe17 Fe5 2.441834 1_455
Fe17 Fe8 2.449639 1_556
Fe17 Fe2 2.745926 1_556
Fe18 Fe4 2.451611 1_665
Fe18 Fe7 2.452583 1_555
Fe18 Fe2 2.737948 1_665
Fe19 Fe5 2.447043 1_565
Fe19 Fe6 2.454487 1_655
Fe19 Fe3 2.732476 1_665
Fe20 Fe7 2.445104 1_555
Fe20 Fe8 2.447998 1_555
Fe21 Fe6 2.443641 1_655
Fe21 Fe9 2.446815 1_555
Fe21 Fe3 2.714363 1_655
Fe22 Fe8 2.476736 1_556
Fe22 Fe7 2.478498 1_456
Fe23 Fe8 2.475031 1_565
Fe23 Fe4 2.476868 1_565
Fe24 Fe9 2.471243 1_565
Fe24 Fe5 2.478443 1_465
Fe24 Fe3 2.656951 1_565
Fe25 Fe4 2.486563 1_565
Fe25 Fe6 2.487162 1_555
Fe26 Fe5 2.488230 1_465
Fe26 Fe7 2.489895 1_456
Fe27 Fe7 2.474417 1_555
Fe27 Fe8 2.478881 1_565
Fe28 Fe6 2.480846 1_655
Fe28 Fe9 2.482289 1_565
Fe29 Fe4 2.472113 1_655
Fe29 Fe9 2.475524 1_555
Fe30 Fe5 2.473336 1_555
Fe30 Fe8 2.475527 1_556
Co0 Fe4 2.468998 1_655
Co0 Fe7 2.471623 1_555
Co0 Fe2 2.652837 1_655
Co1 Fe6 2.466795 1_655
Co1 Fe5 2.467081 1_555
Co1 Fe3 2.646872 1_655
Co2 Fe6 2.468503 1_555
Co2 Fe9 2.470053 1_555
Co2 Fe3 2.655743 1_555
C0 Fe20 1.879181 1_555
C0 Fe11 1.884083 1_555
C0 Fe22 1.908960 1_554
C0 Fe27 1.916796 1_555
C0 Sm2 2.512673 1_555
C0 Sm1 2.517737 1_554
C1 Co2 1.874721 1_555
C1 Fe21 1.888948 1_555
C1 Fe10 1.890539 1_555
C1 Fe28 1.904084 1_555
C1 Sm3 2.503083 1_555
C1 Sm0 2.511198 1_555
C2 Fe12 1.875670 1_545
C2 Fe16 1.876825 1_555
C2 Fe23 1.913457 1_545
C2 Fe29 1.917947 1_555
C2 Sm2 2.503828 1_555
C2 Sm0 2.522759 1_545
C3 Fe17 1.875021 1_555
C3 Fe13 1.876474 1_545
C3 Fe24 1.913907 1_545
C3 Fe30 1.916548 1_555
C3 Sm3 2.510458 1_555
C3 Sm1 2.518676 1_545
C4 Co0 1.875331 1_455
C4 Fe18 1.888365 1_455
C4 Fe14 1.888710 1_555
C4 Fe25 1.905015 1_555
C4 Sm2 2.508311 1_555
C4 Sm0 2.515032 1_455
C5 Co1 1.875113 1_555
C5 Fe15 1.890257 1_555
C5 Fe19 1.891625 1_555
C5 Fe26 1.901969 1_655
C5 Sm1 2.511875 1_555
C5 Sm3 2.513123 1_655
