# generated using pymatgen
data_Ba3ZrNb5O12
_symmetry_space_group_name_H-M   'P 1'
_cell_length_a   5.98686500
_cell_length_b   5.98686500
_cell_length_c   16.67414800
_cell_angle_alpha   90.00000000
_cell_angle_beta   90.00000000
_cell_angle_gamma   90.00000000
_symmetry_Int_Tables_number   1
_chemical_formula_structural   Ba3ZrNb5O12
_chemical_formula_sum   'Ba6 Zr2 Nb10 O24'
_cell_volume   597.64402555
_cell_formula_units_Z   2
loop_
 _symmetry_equiv_pos_site_id
 _symmetry_equiv_pos_as_xyz
  1  'x, y, z'
loop_
 _atom_site_type_symbol
 _atom_site_label
 _atom_site_symmetry_multiplicity
 _atom_site_fract_x
 _atom_site_fract_y
 _atom_site_fract_z
 _atom_site_occupancy
  Ba  Ba0  1  0.00000000  0.00000000  0.50000000  1
  Ba  Ba1  1  0.50000000  0.50000000  0.50000000  1
  Ba  Ba2  1  0.00000000  0.00000000  0.75428600  1
  Ba  Ba3  1  0.50000000  0.50000000  0.75428600  1
  Ba  Ba4  1  0.00000000  0.00000000  0.24571400  1
  Ba  Ba5  1  0.50000000  0.50000000  0.24571400  1
  Zr  Zr0  1  0.00000000  0.50000000  0.62644600  1
  Zr  Zr1  1  0.50000000  0.00000000  0.37355400  1
  Nb  Nb0  1  0.50000000  0.00000000  0.87874400  1
  Nb  Nb1  1  0.00000000  0.50000000  0.87902200  1
  Nb  Nb2  1  0.50000000  0.00000000  0.12097800  1
  Nb  Nb3  1  0.00000000  0.50000000  0.12125600  1
  Nb  Nb4  1  0.25000000  0.75000000  0.00000000  1
  Nb  Nb5  1  0.75000000  0.25000000  0.00000000  1
  Nb  Nb6  1  0.25000000  0.25000000  0.00000000  1
  Nb  Nb7  1  0.75000000  0.75000000  0.00000000  1
  Nb  Nb8  1  0.50000000  0.00000000  0.62679300  1
  Nb  Nb9  1  0.00000000  0.50000000  0.37320700  1
  O  O0  1  0.25005200  0.75005200  0.87169700  1
  O  O1  1  0.74994800  0.24994800  0.87169700  1
  O  O2  1  0.25005200  0.24994800  0.87169700  1
  O  O3  1  0.74994800  0.75005200  0.87169700  1
  O  O4  1  0.24994800  0.74994800  0.12830300  1
  O  O5  1  0.75005200  0.25005200  0.12830300  1
  O  O6  1  0.24994800  0.25005200  0.12830300  1
  O  O7  1  0.75005200  0.74994800  0.12830300  1
  O  O8  1  0.50000000  0.00000000  0.74606900  1
  O  O9  1  0.00000000  0.50000000  0.74944100  1
  O  O10  1  0.50000000  0.00000000  0.25055900  1
  O  O11  1  0.00000000  0.50000000  0.25393100  1
  O  O12  1  0.50000000  0.00000000  0.50331200  1
  O  O13  1  0.00000000  0.50000000  0.49668800  1
  O  O14  1  0.25492900  0.75492900  0.62376900  1
  O  O15  1  0.74507100  0.24507100  0.62376900  1
  O  O16  1  0.25492900  0.24507100  0.62376900  1
  O  O17  1  0.74507100  0.75492900  0.62376900  1
  O  O18  1  0.24507100  0.74507100  0.37623100  1
  O  O19  1  0.75492900  0.25492900  0.37623100  1
  O  O20  1  0.24507100  0.25492900  0.37623100  1
  O  O21  1  0.75492900  0.74507100  0.37623100  1
  O  O22  1  0.00000000  0.00000000  0.00000000  1
  O  O23  1  0.50000000  0.50000000  0.00000000  1
loop_
_geom_bond_atom_site_label_1
_geom_bond_atom_site_label_2
_geom_bond_distance
_geom_bond_site_symmetry_2
Ba0 O20 2.956534 1_555
Ba0 O16 2.956534 1_555
Ba0 O14 2.956534 1_545
Ba0 O19 2.956534 1_455
Ba0 O15 2.956534 1_455
Ba0 O18 2.956534 1_545
Ba0 O17 2.956534 1_445
Ba0 O21 2.956534 1_445
Ba0 O12 2.993942 1_455
Ba0 O12 2.993942 1_555
Ba0 O13 2.993942 1_545
Ba0 O13 2.993942 1_555
Ba1 O21 2.956534 1_555
Ba1 O17 2.956534 1_555
Ba1 O15 2.956534 1_555
Ba1 O18 2.956534 1_555
Ba1 O19 2.956534 1_555
Ba1 O14 2.956534 1_555
Ba1 O16 2.956534 1_555
Ba1 O20 2.956534 1_555
Ba1 O12 2.993942 1_565
Ba1 O12 2.993942 1_555
Ba1 O13 2.993942 1_555
Ba1 O13 2.993942 1_655
Ba2 O2 2.883231 1_555
Ba2 O1 2.883231 1_455
Ba2 O3 2.883231 1_445
Ba2 O0 2.883231 1_545
Ba2 O9 2.994522 1_545
Ba2 O9 2.994522 1_555
Ba2 O8 2.996566 1_555
Ba2 O8 2.996566 1_455
Ba2 O16 3.036143 1_555
Ba2 O14 3.036143 1_545
Ba2 O15 3.036143 1_455
Ba2 O17 3.036143 1_445
Ba3 O3 2.883231 1_555
Ba3 O0 2.883231 1_555
Ba3 O1 2.883231 1_555
Ba3 O2 2.883231 1_555
Ba3 O9 2.994522 1_655
Ba3 O9 2.994522 1_555
Ba3 O8 2.996566 1_555
Ba3 O8 2.996566 1_565
Ba3 O17 3.036143 1_555
Ba3 O15 3.036143 1_555
Ba3 O14 3.036143 1_555
Ba3 O16 3.036143 1_555
Ba4 O4 2.883231 1_545
Ba4 O6 2.883231 1_555
Ba4 O5 2.883231 1_455
Ba4 O7 2.883231 1_445
Ba4 O10 2.994522 1_555
Ba4 O10 2.994522 1_455
Ba4 O11 2.996566 1_545
Ba4 O11 2.996566 1_555
Ba4 O20 3.036143 1_555
Ba4 O19 3.036143 1_455
Ba4 O18 3.036143 1_545
Ba4 O21 3.036143 1_445
Ba5 O5 2.883231 1_555
Ba5 O7 2.883231 1_555
Ba5 O4 2.883231 1_555
Ba5 O6 2.883231 1_555
Ba5 O10 2.994522 1_555
Ba5 O10 2.994522 1_565
Ba5 O11 2.996566 1_555
Ba5 O11 2.996566 1_655
Ba5 O21 3.036143 1_555
Ba5 O18 3.036143 1_555
Ba5 O19 3.036143 1_555
Ba5 O20 3.036143 1_555
Nb0 O1 2.119496 1_555
Nb0 O2 2.119496 1_555
Nb0 O3 2.119496 1_545
Nb0 O0 2.119496 1_545
Nb0 O8 2.212243 1_555
Nb1 O0 2.120637 1_555
Nb1 O3 2.120637 1_455
Nb1 O2 2.120637 1_555
Nb1 O1 2.120637 1_455
Nb1 O9 2.160653 1_555
Nb2 O5 2.120637 1_555
Nb2 O7 2.120637 1_545
Nb2 O6 2.120637 1_555
Nb2 O4 2.120637 1_545
Nb2 O10 2.160653 1_555
Nb3 O4 2.119496 1_555
Nb3 O6 2.119496 1_555
Nb3 O5 2.119496 1_455
Nb3 O7 2.119496 1_455
Nb3 O11 2.212243 1_555
Nb4 O23 2.116676 1_555
Nb4 O22 2.116676 1_565
Nb4 O4 2.139343 1_555
Nb4 O0 2.139343 1_554
Nb5 O23 2.116676 1_555
Nb5 O22 2.116676 1_655
Nb5 O5 2.139343 1_555
Nb5 O1 2.139343 1_554
Nb6 O23 2.116676 1_555
Nb6 O22 2.116676 1_555
Nb6 O6 2.139343 1_555
Nb6 O2 2.139343 1_554
Nb7 O23 2.116676 1_555
Nb7 O22 2.116676 1_665
Nb7 O7 2.139343 1_555
Nb7 O3 2.139343 1_554
Nb8 O8 1.988826 1_555
Nb8 O12 2.058940 1_555
Nb8 O15 2.075557 1_555
Nb8 O17 2.075557 1_545
Nb8 O16 2.075557 1_555
Nb8 O14 2.075557 1_545
Nb9 O11 1.988826 1_555
Nb9 O13 2.058940 1_555
Nb9 O18 2.075557 1_555
Nb9 O21 2.075557 1_455
Nb9 O20 2.075557 1_555
Nb9 O19 2.075557 1_455
O9 Zr0 2.050837 1_555
O10 Zr1 2.050837 1_555
O12 Zr1 2.163604 1_555
O13 Zr0 2.163604 1_555
O14 Zr0 2.158870 1_555
O15 Zr0 2.158870 1_655
O16 Zr0 2.158870 1_555
O17 Zr0 2.158870 1_655
O18 Zr1 2.158870 1_565
O19 Zr1 2.158870 1_555
O20 Zr1 2.158870 1_555
O21 Zr1 2.158870 1_565
