# generated using pymatgen
data_RbNi4(PO4)3
_symmetry_space_group_name_H-M   'P 1'
_cell_length_a   6.24317400
_cell_length_b   9.58384200
_cell_length_c   16.52598900
_cell_angle_alpha   90.00000000
_cell_angle_beta   90.00000000
_cell_angle_gamma   90.00000000
_symmetry_Int_Tables_number   1
_chemical_formula_structural   RbNi4(PO4)3
_chemical_formula_sum   'Rb4 Ni16 P12 O48'
_cell_volume   988.80930296
_cell_formula_units_Z   4
loop_
 _symmetry_equiv_pos_site_id
 _symmetry_equiv_pos_as_xyz
  1  'x, y, z'
loop_
 _atom_site_type_symbol
 _atom_site_label
 _atom_site_symmetry_multiplicity
 _atom_site_fract_x
 _atom_site_fract_y
 _atom_site_fract_z
 _atom_site_occupancy
  Rb  Rb0  1  0.50000000  0.69670100  0.03127600  1
  Rb  Rb1  1  0.50000000  0.30329900  0.96872400  1
  Rb  Rb2  1  0.00000000  0.19670100  0.46872400  1
  Rb  Rb3  1  0.00000000  0.80329900  0.53127600  1
  Ni  Ni0  1  0.50000000  0.53197400  0.59240400  1
  Ni  Ni1  1  0.50000000  0.46802600  0.40759600  1
  Ni  Ni2  1  0.00000000  0.03197400  0.90759600  1
  Ni  Ni3  1  0.00000000  0.96802600  0.09240400  1
  Ni  Ni4  1  0.50000000  0.01332400  0.35710800  1
  Ni  Ni5  1  0.50000000  0.98667600  0.64289200  1
  Ni  Ni6  1  0.00000000  0.51332400  0.14289200  1
  Ni  Ni7  1  0.00000000  0.48667600  0.85710800  1
  Ni  Ni8  1  0.75014700  0.75348600  0.29582500  1
  Ni  Ni9  1  0.75014700  0.24651400  0.70417500  1
  Ni  Ni10  1  0.74985300  0.25348600  0.20417500  1
  Ni  Ni11  1  0.74985300  0.74651400  0.79582500  1
  Ni  Ni12  1  0.24985300  0.24651400  0.70417500  1
  Ni  Ni13  1  0.24985300  0.75348600  0.29582500  1
  Ni  Ni14  1  0.25014700  0.74651400  0.79582500  1
  Ni  Ni15  1  0.25014700  0.25348600  0.20417500  1
  P  P0  1  0.50000000  0.96324000  0.16335200  1
  P  P1  1  0.50000000  0.03676000  0.83664800  1
  P  P2  1  0.00000000  0.46324000  0.33664800  1
  P  P3  1  0.00000000  0.53676000  0.66335200  1
  P  P4  1  0.50000000  0.54800300  0.22159200  1
  P  P5  1  0.50000000  0.45199700  0.77840800  1
  P  P6  1  0.00000000  0.04800300  0.27840800  1
  P  P7  1  0.00000000  0.95199700  0.72159200  1
  P  P8  1  0.50000000  0.79545000  0.46269700  1
  P  P9  1  0.50000000  0.20455000  0.53730300  1
  P  P10  1  0.00000000  0.29545000  0.03730300  1
  P  P11  1  0.00000000  0.70455000  0.96269700  1
  O  O0  1  0.50000000  0.12515800  0.17560800  1
  O  O1  1  0.50000000  0.87484200  0.82439200  1
  O  O2  1  0.00000000  0.62515800  0.32439200  1
  O  O3  1  0.00000000  0.37484200  0.67560800  1
  O  O4  1  0.50000000  0.61345800  0.77392600  1
  O  O5  1  0.50000000  0.38654200  0.22607400  1
  O  O6  1  0.00000000  0.11345800  0.72607400  1
  O  O7  1  0.00000000  0.88654200  0.27392700  1
  O  O8  1  0.70098900  0.91640800  0.11868300  1
  O  O9  1  0.70098900  0.08359200  0.88131700  1
  O  O10  1  0.79901100  0.41640800  0.38131700  1
  O  O11  1  0.79901100  0.58359200  0.61868300  1
  O  O12  1  0.29901100  0.08359200  0.88131700  1
  O  O13  1  0.29901100  0.91640800  0.11868300  1
  O  O14  1  0.20098900  0.58359200  0.61868300  1
  O  O15  1  0.20098900  0.41640800  0.38131700  1
  O  O16  1  0.50000000  0.61106400  0.31103100  1
  O  O17  1  0.50000000  0.38893600  0.68896900  1
  O  O18  1  0.00000000  0.11106400  0.18896900  1
  O  O19  1  0.00000000  0.88893600  0.81103100  1
  O  O20  1  0.50000000  0.88988600  0.25206800  1
  O  O21  1  0.50000000  0.11011400  0.74793200  1
  O  O22  1  0.00000000  0.38988600  0.24793200  1
  O  O23  1  0.00000000  0.61011400  0.75206800  1
  O  O24  1  0.50000000  0.13316600  0.45536700  1
  O  O25  1  0.50000000  0.86683400  0.54463300  1
  O  O26  1  0.00000000  0.63316600  0.04463300  1
  O  O27  1  0.00000000  0.36683400  0.95536700  1
  O  O28  1  0.69557400  0.84200900  0.40857700  1
  O  O29  1  0.69557400  0.15799100  0.59142300  1
  O  O30  1  0.80442600  0.34200900  0.09142300  1
  O  O31  1  0.80442600  0.65799100  0.90857700  1
  O  O32  1  0.30442600  0.15799100  0.59142300  1
  O  O33  1  0.30442600  0.84200900  0.40857700  1
  O  O34  1  0.19557400  0.65799100  0.90857700  1
  O  O35  1  0.19557400  0.34200900  0.09142300  1
  O  O36  1  0.70806200  0.60754800  0.18433200  1
  O  O37  1  0.70806200  0.39245200  0.81566800  1
  O  O38  1  0.79193800  0.10754800  0.31566800  1
  O  O39  1  0.79193800  0.89245200  0.68433200  1
  O  O40  1  0.29193800  0.39245200  0.81566800  1
  O  O41  1  0.29193800  0.60754800  0.18433200  1
  O  O42  1  0.20806200  0.89245200  0.68433200  1
  O  O43  1  0.20806200  0.10754800  0.31566800  1
  O  O44  1  0.50000000  0.63583400  0.48000900  1
  O  O45  1  0.50000000  0.36416600  0.51999100  1
  O  O46  1  0.00000000  0.13583400  0.01999100  1
  O  O47  1  0.00000000  0.86416600  0.98000900  1
loop_
_geom_bond_atom_site_label_1
_geom_bond_atom_site_label_2
_geom_bond_distance
_geom_bond_site_symmetry_2
Ni0 O11 1.979442 1_555
Ni0 O14 1.979442 1_555
Ni0 O45 2.004629 1_555
Ni0 O17 2.103787 1_555
Ni0 O44 2.107334 1_555
Ni1 O10 1.979442 1_555
Ni1 O15 1.979442 1_555
Ni1 O44 2.004629 1_555
Ni1 O16 2.103787 1_555
Ni1 O45 2.107334 1_555
Ni2 O12 1.979442 1_555
Ni2 O9 1.979442 1_455
Ni2 O47 2.004629 1_545
Ni2 O19 2.103787 1_545
Ni2 O46 2.107334 1_556
Ni3 O13 1.979442 1_555
Ni3 O8 1.979442 1_455
Ni3 O46 2.004629 1_565
Ni3 O18 2.103787 1_565
Ni3 O47 2.107334 1_554
Ni4 O24 1.988963 1_555
Ni4 O20 2.100673 1_545
Ni4 O38 2.146253 1_555
Ni4 O43 2.146253 1_555
Ni4 O28 2.215856 1_545
Ni4 O33 2.215856 1_545
Ni5 O25 1.988963 1_555
Ni5 O21 2.100673 1_565
Ni5 O39 2.146253 1_555
Ni5 O42 2.146253 1_555
Ni5 O29 2.215856 1_565
Ni5 O32 2.215856 1_565
Ni6 O26 1.988963 1_555
Ni6 O22 2.100673 1_555
Ni6 O36 2.146253 1_455
Ni6 O41 2.146253 1_555
Ni6 O35 2.215856 1_555
Ni6 O30 2.215856 1_455
Ni7 O27 1.988963 1_555
Ni7 O23 2.100673 1_555
Ni7 O37 2.146253 1_455
Ni7 O40 2.146253 1_555
Ni7 O31 2.215856 1_455
Ni7 O34 2.215856 1_555
Ni8 O2 2.041735 1_655
Ni8 O7 2.047017 1_655
Ni8 O28 2.075543 1_555
Ni8 O16 2.089301 1_555
Ni8 O20 2.161185 1_555
Ni8 O36 2.328126 1_555
Ni9 O3 2.041735 1_655
Ni9 O6 2.047020 1_655
Ni9 O29 2.075543 1_555
Ni9 O17 2.089301 1_555
Ni9 O21 2.161185 1_555
Ni9 O37 2.328126 1_555
Ni10 O0 2.041735 1_555
Ni10 O5 2.047020 1_555
Ni10 O30 2.075543 1_555
Ni10 O18 2.089301 1_655
Ni10 O22 2.161185 1_655
Ni10 O38 2.328126 1_555
Ni11 O1 2.041735 1_555
Ni11 O4 2.047020 1_555
Ni11 O31 2.075543 1_555
Ni11 O19 2.089301 1_655
Ni11 O23 2.161185 1_655
Ni11 O39 2.328126 1_555
Ni12 O3 2.041735 1_555
Ni12 O6 2.047020 1_555
Ni12 O32 2.075543 1_555
Ni12 O17 2.089301 1_555
Ni12 O21 2.161185 1_555
Ni12 O40 2.328126 1_555
Ni13 O2 2.041735 1_555
Ni13 O7 2.047017 1_555
Ni13 O33 2.075543 1_555
Ni13 O16 2.089301 1_555
Ni13 O20 2.161185 1_555
Ni13 O41 2.328126 1_555
Ni14 O1 2.041735 1_555
Ni14 O4 2.047020 1_555
Ni14 O34 2.075543 1_555
Ni14 O19 2.089301 1_555
Ni14 O23 2.161185 1_555
Ni14 O42 2.328126 1_555
Ni15 O0 2.041735 1_555
Ni15 O5 2.047020 1_555
Ni15 O35 2.075543 1_555
Ni15 O18 2.089301 1_555
Ni15 O22 2.161185 1_555
Ni15 O43 2.328126 1_555
O0 P0 1.564959 1_545
O1 P1 1.564959 1_565
O2 P2 1.564959 1_555
O3 P3 1.564959 1_555
O4 P5 1.549188 1_555
O5 P4 1.549188 1_555
O6 P7 1.549188 1_545
O7 P6 1.549188 1_565
O8 P0 1.523461 1_555
O8 Rb0 2.845136 1_555
O9 P1 1.523461 1_555
O9 Rb1 2.845136 1_555
O10 P2 1.523461 1_655
O10 Rb2 2.845136 1_655
O11 P3 1.523461 1_655
O11 Rb3 2.845136 1_655
O12 P1 1.523461 1_555
O12 Rb1 2.845136 1_555
O13 P0 1.523461 1_555
O13 Rb0 2.845136 1_555
O14 P3 1.523461 1_555
O14 Rb3 2.845136 1_555
O15 P2 1.523461 1_555
O15 Rb2 2.845136 1_555
O16 P4 1.596854 1_555
O17 P5 1.596854 1_555
O18 P6 1.596854 1_555
O19 P7 1.596854 1_555
O20 P0 1.625956 1_555
O21 P1 1.625956 1_555
O22 P2 1.625956 1_555
O23 P3 1.625956 1_555
O24 P9 1.517087 1_555
O24 Rb2 3.188072 1_655
O24 Rb2 3.188072 1_555
O25 P8 1.517087 1_555
O25 Rb3 3.188072 1_655
O25 Rb3 3.188072 1_555
O26 P11 1.517087 1_554
O26 Rb0 3.188072 1_455
O26 Rb0 3.188072 1_555
O27 P10 1.517087 1_556
O27 Rb1 3.188072 1_455
O27 Rb1 3.188072 1_555
O28 P8 1.577936 1_555
O28 Rb3 2.803839 1_655
O29 P9 1.577936 1_555
O29 Rb2 2.803839 1_655
O30 P10 1.577936 1_655
O30 Rb1 2.803839 1_554
O31 P11 1.577936 1_655
O31 Rb0 2.803839 1_556
O32 P9 1.577936 1_555
O32 Rb2 2.803839 1_555
O33 P8 1.577936 1_555
O33 Rb3 2.803839 1_555
O34 P11 1.577936 1_555
O34 Rb0 2.803839 1_556
O35 P10 1.577936 1_555
O35 Rb1 2.803839 1_554
O36 P4 1.546654 1_555
O36 Rb0 2.969046 1_555
O37 P5 1.546654 1_555
O37 Rb1 2.969046 1_555
O38 P6 1.546654 1_655
O38 Rb2 2.969046 1_655
O39 P7 1.546654 1_655
O39 Rb3 2.969046 1_655
O40 P5 1.546654 1_555
O40 Rb1 2.969046 1_555
O41 P4 1.546654 1_555
O41 Rb0 2.969046 1_555
O42 P7 1.546654 1_555
O42 Rb3 2.969046 1_555
O43 P6 1.546654 1_555
O43 Rb2 2.969046 1_555
O44 P8 1.556258 1_555
O45 P9 1.556258 1_555
O46 P10 1.556258 1_555
O47 P11 1.556258 1_555
