# generated using pymatgen
data_TaCr3(CuS4)2
_symmetry_space_group_name_H-M   'P 1'
_cell_length_a   6.35208892
_cell_length_b   7.26504533
_cell_length_c   12.23951989
_cell_angle_alpha   81.54878390
_cell_angle_beta   85.53147740
_cell_angle_gamma   90.30221592
_symmetry_Int_Tables_number   1
_chemical_formula_structural   TaCr3(CuS4)2
_chemical_formula_sum   'Ta2 Cr6 Cu4 S16'
_cell_volume   556.92027324
_cell_formula_units_Z   2
loop_
 _symmetry_equiv_pos_site_id
 _symmetry_equiv_pos_as_xyz
  1  'x, y, z'
loop_
 _atom_site_type_symbol
 _atom_site_label
 _atom_site_symmetry_multiplicity
 _atom_site_fract_x
 _atom_site_fract_y
 _atom_site_fract_z
 _atom_site_occupancy
  Ta  Ta0  1  0.85869000  0.29625500  0.29945500  1
  Ta  Ta1  1  0.63238400  0.44469700  0.70136900  1
  Cr  Cr0  1  0.15570900  0.70125500  0.71229700  1
  Cr  Cr1  1  0.24358200  0.87908500  0.99997600  1
  Cr  Cr2  1  0.75532600  0.11522900  0.00027200  1
  Cr  Cr3  1  0.36433400  0.56024100  0.28706000  1
  Cr  Cr4  1  0.36484200  0.04533700  0.28974900  1
  Cr  Cr5  1  0.61186400  0.94308900  0.70923900  1
  Cu  Cu0  1  0.13429100  0.19628200  0.71471900  1
  Cu  Cu1  1  0.88366300  0.80554700  0.28735800  1
  Cu  Cu2  1  0.25006500  0.37807800  0.99581800  1
  Cu  Cu3  1  0.74765300  0.63720600  0.00270100  1
  S  S0  1  0.09679200  0.65654300  0.89545700  1
  S  S1  1  0.88609800  0.34497500  0.11111600  1
  S  S2  1  0.09513000  0.15015500  0.90217300  1
  S  S3  1  0.90524500  0.85490300  0.09998800  1
  S  S4  1  0.19486600  0.78230800  0.36339200  1
  S  S5  1  0.81316400  0.20694100  0.63306800  1
  S  S6  1  0.19295300  0.28375200  0.36795000  1
  S  S7  1  0.82476000  0.71856500  0.63825500  1
  S  S8  1  0.30434600  0.96889100  0.63611600  1
  S  S9  1  0.68503600  0.02109800  0.36921200  1
  S  S10  1  0.30456000  0.46368500  0.63039900  1
  S  S11  1  0.68683200  0.54292100  0.36396900  1
  S  S12  1  0.40864600  0.09481500  0.10221100  1
  S  S13  1  0.59207700  0.90676600  0.89559000  1
  S  S14  1  0.39557500  0.60111100  0.10066900  1
  S  S15  1  0.61151800  0.40027100  0.89042200  1
loop_
_geom_bond_atom_site_label_1
_geom_bond_atom_site_label_2
_geom_bond_distance
_geom_bond_site_symmetry_2
Cr0 S8 2.202733 1_555
Cr0 S0 2.219266 1_555
Cr0 S10 2.292548 1_555
Cr0 S7 2.350011 1_455
Cr1 S3 2.381383 1_456
Cr1 S2 2.388098 1_565
Cr1 S12 2.425917 1_566
Cr1 S0 2.428539 1_555
Cr1 S14 2.450264 1_556
Cr1 S13 2.460123 1_555
Cr2 S3 2.344142 1_545
Cr2 S2 2.380302 1_654
Cr2 S13 2.402385 1_544
Cr2 S12 2.437657 1_555
Cr2 S1 2.478532 1_555
Cr2 S15 2.514655 1_554
Cr3 S4 2.222415 1_555
Cr3 S14 2.249837 1_555
Cr3 S11 2.316639 1_555
Cr3 S6 2.329087 1_555
Cr4 S4 2.224886 1_545
Cr4 S12 2.265453 1_555
Cr4 S9 2.318484 1_555
Cr4 S6 2.335130 1_555
Cr5 S8 2.208804 1_555
Cr5 S13 2.250724 1_555
Cr5 S5 2.332760 1_565
Cr5 S7 2.345448 1_555
Cu0 S2 2.263272 1_555
Cu0 S8 2.268387 1_545
Cu0 S10 2.285504 1_555
Cu0 S5 2.337135 1_455
Cu1 S4 2.246386 1_655
Cu1 S3 2.261739 1_555
Cu1 S9 2.309315 1_565
Cu1 S11 2.312827 1_555
Cu2 S2 2.395960 1_555
Cu2 S14 2.430434 1_556
Cu2 S0 2.454844 1_555
Cu2 S12 2.526662 1_556
Cu2 S15 2.536742 1_555
Cu2 S1 2.603921 1_456
Cu3 S3 2.375697 1_555
Cu3 S14 2.447797 1_555
Cu3 S13 2.449109 1_554
Cu3 S0 2.479932 1_654
Cu3 S1 2.532795 1_555
Cu3 S15 2.542464 1_554
S1 Ta0 2.272978 1_555
S5 Ta1 2.301495 1_555
S6 Ta0 2.340163 1_455
S7 Ta1 2.328999 1_555
S9 Ta0 2.295679 1_555
S10 Ta1 2.315055 1_555
S11 Ta0 2.308434 1_555
S15 Ta1 2.282147 1_555
