# generated using pymatgen
data_SmCO4
_symmetry_space_group_name_H-M   'P 1'
_cell_length_a   4.93787200
_cell_length_b   7.24591600
_cell_length_c   8.42993100
_cell_angle_alpha   90.00000000
_cell_angle_beta   90.00000000
_cell_angle_gamma   90.00000000
_symmetry_Int_Tables_number   1
_chemical_formula_structural   SmCO4
_chemical_formula_sum   'Sm4 C4 O16'
_cell_volume   301.61792153
_cell_formula_units_Z   4
loop_
 _symmetry_equiv_pos_site_id
 _symmetry_equiv_pos_as_xyz
  1  'x, y, z'
loop_
 _atom_site_type_symbol
 _atom_site_label
 _atom_site_symmetry_multiplicity
 _atom_site_fract_x
 _atom_site_fract_y
 _atom_site_fract_z
 _atom_site_occupancy
  Sm  Sm0  1  0.25000000  0.35748700  0.33452200  1
  Sm  Sm1  1  0.25000000  0.85748700  0.16547800  1
  Sm  Sm2  1  0.75000000  0.64251300  0.66547800  1
  Sm  Sm3  1  0.75000000  0.14251300  0.83452200  1
  C  C0  1  0.25000000  0.30086800  0.67797000  1
  C  C1  1  0.25000000  0.80086800  0.82203000  1
  C  C2  1  0.75000000  0.69913200  0.32203000  1
  C  C3  1  0.75000000  0.19913200  0.17797000  1
  O  O0  1  0.25000000  0.03853400  0.39669900  1
  O  O1  1  0.25000000  0.53853400  0.10330100  1
  O  O2  1  0.75000000  0.96146600  0.60330100  1
  O  O3  1  0.75000000  0.46146600  0.89669900  1
  O  O4  1  0.75000000  0.29640200  0.30483300  1
  O  O5  1  0.75000000  0.79640200  0.19516700  1
  O  O6  1  0.25000000  0.70359800  0.69516700  1
  O  O7  1  0.25000000  0.20359800  0.80483300  1
  O  O8  1  0.97751900  0.65299100  0.38904200  1
  O  O9  1  0.52248100  0.15299100  0.11095800  1
  O  O10  1  0.47751900  0.34700900  0.61095800  1
  O  O11  1  0.02248100  0.84700900  0.88904200  1
  O  O12  1  0.02248100  0.34700900  0.61095800  1
  O  O13  1  0.47751900  0.84700900  0.88904200  1
  O  O14  1  0.52248100  0.65299100  0.38904200  1
  O  O15  1  0.97751900  0.15299100  0.11095800  1
loop_
_geom_bond_atom_site_label_1
_geom_bond_atom_site_label_2
_geom_bond_distance
_geom_bond_site_symmetry_2
C0 O7 1.280809 1_555
C0 O10 1.301176 1_555
C0 O12 1.301176 1_555
C1 O6 1.280809 1_555
C1 O13 1.301176 1_555
C1 O11 1.301176 1_555
C2 O5 1.280809 1_555
C2 O8 1.301176 1_555
C2 O14 1.301176 1_555
C3 O4 1.280809 1_555
C3 O15 1.301176 1_555
C3 O9 1.301176 1_555
O0 Sm1 2.349520 1_545
O0 Sm0 2.369798 1_555
O1 Sm0 2.349520 1_555
O1 Sm1 2.369798 1_555
O2 Sm3 2.349520 1_565
O2 Sm2 2.369798 1_555
O3 Sm2 2.349520 1_555
O3 Sm3 2.369798 1_555
O4 Sm0 2.520752 1_555
O4 Sm0 2.520752 1_655
O5 Sm1 2.520752 1_555
O5 Sm1 2.520752 1_655
O6 Sm2 2.520752 1_455
O6 Sm2 2.520752 1_555
O7 Sm3 2.520752 1_555
O7 Sm3 2.520752 1_455
O8 Sm0 2.570265 1_655
O8 Sm2 2.588126 1_555
O8 Sm1 2.749136 1_655
O9 Sm1 2.570265 1_545
O9 Sm3 2.588126 1_554
O9 Sm0 2.749136 1_555
O10 Sm2 2.570265 1_555
O10 Sm0 2.588126 1_555
O10 Sm3 2.749136 1_555
O11 Sm3 2.570265 1_465
O11 Sm1 2.588126 1_556
O11 Sm2 2.749136 1_455
O12 Sm2 2.570265 1_455
O12 Sm0 2.588126 1_555
O12 Sm3 2.749136 1_455
O13 Sm3 2.570265 1_565
O13 Sm1 2.588126 1_556
O13 Sm2 2.749136 1_555
O14 Sm0 2.570265 1_555
O14 Sm2 2.588126 1_555
O14 Sm1 2.749136 1_555
O15 Sm1 2.570265 1_645
O15 Sm3 2.588126 1_554
O15 Sm0 2.749136 1_655
