# generated using pymatgen
data_MnFe4CuO8
_symmetry_space_group_name_H-M   'P 1'
_cell_length_a   6.08264708
_cell_length_b   6.08264708
_cell_length_c   6.08264708
_cell_angle_alpha   60.00000000
_cell_angle_beta   60.00000000
_cell_angle_gamma   60.00000000
_symmetry_Int_Tables_number   1
_chemical_formula_structural   MnFe4CuO8
_chemical_formula_sum   'Mn1 Fe4 Cu1 O8'
_cell_volume   159.13395629
_cell_formula_units_Z   1
loop_
 _symmetry_equiv_pos_site_id
 _symmetry_equiv_pos_as_xyz
  1  'x, y, z'
loop_
 _atom_site_type_symbol
 _atom_site_label
 _atom_site_symmetry_multiplicity
 _atom_site_fract_x
 _atom_site_fract_y
 _atom_site_fract_z
 _atom_site_occupancy
  Mn  Mn0  1  0.00000000  0.00000000  0.00000000  1
  Fe  Fe0  1  0.12464600  0.62511800  0.62511800  1
  Fe  Fe1  1  0.62511800  0.12464600  0.62511800  1
  Fe  Fe2  1  0.62511800  0.62511800  0.12464600  1
  Fe  Fe3  1  0.62511800  0.62511800  0.62511800  1
  Cu  Cu0  1  0.25000000  0.25000000  0.25000000  1
  O  O0  1  0.41496400  0.86167900  0.86167900  1
  O  O1  1  0.86167900  0.41496400  0.86167900  1
  O  O2  1  0.86167900  0.86167900  0.41496400  1
  O  O3  1  0.86167900  0.86167900  0.86167900  1
  O  O4  1  0.84333400  0.38555500  0.38555500  1
  O  O5  1  0.38555500  0.84333400  0.38555500  1
  O  O6  1  0.38555500  0.38555500  0.84333400  1
  O  O7  1  0.38555500  0.38555500  0.38555500  1
loop_
_geom_bond_atom_site_label_1
_geom_bond_atom_site_label_2
_geom_bond_distance
_geom_bond_site_symmetry_2
Mn0 O3 2.060897 1_444
Mn0 O2 2.060902 1_445
Mn0 O1 2.060902 1_454
Mn0 O0 2.060902 1_544
Fe0 O1 2.041261 1_455
Fe0 O2 2.041261 1_455
Fe0 O3 2.041265 1_455
Fe0 O5 2.064842 1_555
Fe0 O6 2.064842 1_555
Fe0 O7 2.064846 1_555
Fe1 O2 2.041261 1_545
Fe1 O0 2.041261 1_545
Fe1 O3 2.041265 1_545
Fe1 O6 2.064842 1_555
Fe1 O4 2.064842 1_555
Fe1 O7 2.064846 1_555
Fe2 O1 2.041261 1_554
Fe2 O0 2.041261 1_554
Fe2 O3 2.041265 1_554
Fe2 O5 2.064842 1_555
Fe2 O4 2.064842 1_555
Fe2 O7 2.064846 1_555
Fe3 O2 2.041266 1_555
Fe3 O1 2.041266 1_555
Fe3 O0 2.041266 1_555
Fe3 O4 2.064846 1_555
Fe3 O5 2.064846 1_555
Fe3 O6 2.064846 1_555
Cu0 O7 2.019686 1_555
Cu0 O6 2.019691 1_554
Cu0 O4 2.019691 1_455
Cu0 O5 2.019691 1_545
