# generated using pymatgen
data_CaV6O23
_symmetry_space_group_name_H-M   'P 1'
_cell_length_a   3.67622300
_cell_length_b   10.82570200
_cell_length_c   12.58072135
_cell_angle_alpha   93.33005963
_cell_angle_beta   90.00000000
_cell_angle_gamma   90.00000000
_symmetry_Int_Tables_number   1
_chemical_formula_structural   CaV6O23
_chemical_formula_sum   'Ca1 V6 O23'
_cell_volume   499.83829235
_cell_formula_units_Z   1
loop_
 _symmetry_equiv_pos_site_id
 _symmetry_equiv_pos_as_xyz
  1  'x, y, z'
loop_
 _atom_site_type_symbol
 _atom_site_label
 _atom_site_symmetry_multiplicity
 _atom_site_fract_x
 _atom_site_fract_y
 _atom_site_fract_z
 _atom_site_occupancy
  Ca  Ca0  1  0.25000000  0.45963100  0.23738900  1
  V  V0  1  0.25000000  0.02964000  0.78838200  1
  V  V1  1  0.75000000  0.95772700  0.20532200  1
  V  V2  1  0.25000000  0.90692800  0.55217800  1
  V  V3  1  0.75000000  0.08796500  0.43703900  1
  V  V4  1  0.25000000  0.10462100  0.03827500  1
  V  V5  1  0.75000000  0.87263700  0.94601100  1
  O  O0  1  0.25000000  0.36805100  0.71993400  1
  O  O1  1  0.75000000  0.56118100  0.31767100  1
  O  O2  1  0.25000000  0.03303000  0.44626800  1
  O  O3  1  0.75000000  0.95873300  0.54784100  1
  O  O4  1  0.25000000  0.16289000  0.91758100  1
  O  O5  1  0.75000000  0.84426300  0.08145300  1
  O  O6  1  0.25000000  0.64690000  0.17146600  1
  O  O7  1  0.75000000  0.36140500  0.82171400  1
  O  O8  1  0.25000000  0.27441500  0.11838100  1
  O  O9  1  0.75000000  0.74009400  0.88112300  1
  O  O10  1  0.25000000  0.89130200  0.69659100  1
  O  O11  1  0.75000000  0.10606000  0.29661900  1
  O  O12  1  0.25000000  0.67757500  0.67672400  1
  O  O13  1  0.75000000  0.44009700  0.34115000  1
  O  O14  1  0.25000000  0.76718600  0.49903100  1
  O  O15  1  0.75000000  0.22561300  0.49323800  1
  O  O16  1  0.25000000  0.99716600  0.16877600  1
  O  O17  1  0.75000000  0.00179300  0.82721500  1
  O  O18  1  0.25000000  0.13746700  0.70442500  1
  O  O19  1  0.75000000  0.85981600  0.29732400  1
  O  O20  1  0.25000000  0.93611000  0.94980800  1
  O  O21  1  0.75000000  0.09530500  0.06066600  1
  O  O22  1  0.25000000  0.37340000  0.05940500  1
loop_
_geom_bond_atom_site_label_1
_geom_bond_atom_site_label_2
_geom_bond_distance
_geom_bond_site_symmetry_2
Ca0 O6 2.234545 1_555
Ca0 O13 2.271449 1_455
Ca0 O13 2.271449 1_555
Ca0 O1 2.340585 1_455
Ca0 O1 2.340585 1_555
Ca0 O22 2.375389 1_555
Ca0 O8 2.431720 1_555
O1 O13 1.360324 1_555
O2 V3 1.937482 1_455
O2 V3 1.937482 1_555
O2 V2 1.962215 1_545
O3 V2 1.923463 1_555
O3 V2 1.923463 1_655
O3 V3 2.031500 1_565
O4 V4 1.677731 1_556
O4 V0 2.109611 1_555
O5 V5 1.748895 1_554
O5 V1 1.927407 1_555
O8 V4 2.044306 1_555
O9 V5 1.609093 1_555
O10 V2 1.834436 1_555
O10 V0 1.837243 1_565
O11 V3 1.788686 1_555
O11 V1 1.919268 1_545
O14 V2 1.618064 1_555
O15 V3 1.611828 1_555
O16 V1 1.948113 1_555
O16 V1 1.948113 1_455
O16 V4 2.066540 1_565
O17 V0 1.930109 1_555
O17 V0 1.930109 1_655
O17 V5 2.105087 1_545
O18 V0 1.619098 1_555
O19 V1 1.614227 1_555
O20 V5 1.961959 1_455
O20 V5 1.961959 1_555
O20 V4 2.081041 1_566
O20 V0 2.321310 1_565
O21 V4 1.863190 1_655
O21 V4 1.863190 1_555
O22 O8 1.338343 1_555
