# generated using pymatgen
data_Li2BH6N
_symmetry_space_group_name_H-M   'P 1'
_cell_length_a   8.86416563
_cell_length_b   8.86416563
_cell_length_c   8.86416523
_cell_angle_alpha   108.92575420
_cell_angle_beta   108.92575420
_cell_angle_gamma   108.92575047
_symmetry_Int_Tables_number   1
_chemical_formula_structural   Li2BH6N
_chemical_formula_sum   'Li12 B6 H36 N6'
_cell_volume   546.71641865
_cell_formula_units_Z   6
loop_
 _symmetry_equiv_pos_site_id
 _symmetry_equiv_pos_as_xyz
  1  'x, y, z'
loop_
 _atom_site_type_symbol
 _atom_site_label
 _atom_site_symmetry_multiplicity
 _atom_site_fract_x
 _atom_site_fract_y
 _atom_site_fract_z
 _atom_site_occupancy
  Li  Li0  1  0.94282500  0.77690100  0.42429700  1
  Li  Li1  1  0.42429700  0.94282500  0.77690100  1
  Li  Li2  1  0.77690100  0.42429700  0.94282500  1
  Li  Li3  1  0.05717500  0.22309900  0.57570300  1
  Li  Li4  1  0.57570300  0.05717500  0.22309900  1
  Li  Li5  1  0.22309900  0.57570300  0.05717500  1
  Li  Li6  1  0.38545800  0.30260900  0.57094200  1
  Li  Li7  1  0.57094200  0.38545800  0.30260900  1
  Li  Li8  1  0.30260900  0.57094200  0.38545800  1
  Li  Li9  1  0.61454200  0.69739100  0.42905800  1
  Li  Li10  1  0.42905800  0.61454200  0.69739100  1
  Li  Li11  1  0.69739100  0.42905800  0.61454200  1
  B  B0  1  0.24661200  0.07849000  0.64961900  1
  B  B1  1  0.64961900  0.24661200  0.07849000  1
  B  B2  1  0.07849000  0.64961900  0.24661200  1
  B  B3  1  0.75338800  0.92151000  0.35038100  1
  B  B4  1  0.35038100  0.75338800  0.92151000  1
  B  B5  1  0.92151000  0.35038100  0.75338800  1
  H  H0  1  0.71140700  0.65556900  0.87768500  1
  H  H1  1  0.87768500  0.71140700  0.65556900  1
  H  H2  1  0.65556900  0.87768500  0.71140700  1
  H  H3  1  0.28859300  0.34443100  0.12231500  1
  H  H4  1  0.12231500  0.28859300  0.34443100  1
  H  H5  1  0.34443100  0.12231500  0.28859300  1
  H  H6  1  0.11253800  0.44020000  0.49384800  1
  H  H7  1  0.49384800  0.11253800  0.44020000  1
  H  H8  1  0.44020000  0.49384800  0.11253800  1
  H  H9  1  0.88746200  0.55980000  0.50615200  1
  H  H10  1  0.50615200  0.88746200  0.55980000  1
  H  H11  1  0.55980000  0.50615200  0.88746200  1
  H  H12  1  0.26106200  0.21966200  0.75434400  1
  H  H13  1  0.75434400  0.26106200  0.21966200  1
  H  H14  1  0.21966200  0.75434400  0.26106200  1
  H  H15  1  0.73893800  0.78033800  0.24565600  1
  H  H16  1  0.24565600  0.73893800  0.78033800  1
  H  H17  1  0.78033800  0.24565600  0.73893800  1
  H  H18  1  0.14719800  0.03084100  0.49030100  1
  H  H19  1  0.49030100  0.14719800  0.03084100  1
  H  H20  1  0.03084100  0.49030100  0.14719800  1
  H  H21  1  0.85280200  0.96915900  0.50969900  1
  H  H22  1  0.50969900  0.85280200  0.96915900  1
  H  H23  1  0.96915900  0.50969900  0.85280200  1
  H  H24  1  0.39796300  0.10829600  0.66588300  1
  H  H25  1  0.66588300  0.39796300  0.10829600  1
  H  H26  1  0.10829600  0.66588300  0.39796300  1
  H  H27  1  0.60203700  0.89170400  0.33411700  1
  H  H28  1  0.33411700  0.60203700  0.89170400  1
  H  H29  1  0.89170400  0.33411700  0.60203700  1
  H  H30  1  0.18572000  0.95958800  0.68818500  1
  H  H31  1  0.68818500  0.18572000  0.95958800  1
  H  H32  1  0.95958800  0.68818500  0.18572000  1
  H  H33  1  0.81428000  0.04041200  0.31181500  1
  H  H34  1  0.31181500  0.81428000  0.04041200  1
  H  H35  1  0.04041200  0.31181500  0.81428000  1
  N  N0  1  0.61628200  0.52061000  0.80504500  1
  N  N1  1  0.80504500  0.61628200  0.52061000  1
  N  N2  1  0.52061000  0.80504500  0.61628200  1
  N  N3  1  0.38371800  0.47939000  0.19495500  1
  N  N4  1  0.19495500  0.38371800  0.47939000  1
  N  N5  1  0.47939000  0.19495500  0.38371800  1
loop_
_geom_bond_atom_site_label_1
_geom_bond_atom_site_label_2
_geom_bond_distance
_geom_bond_site_symmetry_2
Li0 N1 2.141124 1_555
Li1 N2 2.141123 1_555
Li2 N0 2.141123 1_555
Li3 N4 2.141124 1_555
Li4 N5 2.141123 1_555
Li5 N3 2.141123 1_555
Li6 N4 2.074636 1_555
Li6 N0 2.075207 1_555
Li6 N5 2.177745 1_555
Li7 N5 2.074636 1_555
Li7 N1 2.075208 1_555
Li7 N3 2.177745 1_555
Li8 N3 2.074636 1_555
Li8 N2 2.075207 1_555
Li8 N4 2.177745 1_555
Li9 N1 2.074636 1_555
Li9 N3 2.075207 1_555
Li9 N2 2.177745 1_555
Li10 N2 2.074636 1_555
Li10 N4 2.075208 1_555
Li10 N0 2.177745 1_555
Li11 N0 2.074636 1_555
Li11 N5 2.075207 1_555
Li11 N1 2.177745 1_555
B0 H30 1.226148 1_545
B0 H12 1.228588 1_555
B0 H24 1.228973 1_555
B0 H18 1.230314 1_555
B1 H31 1.226148 1_554
B1 H13 1.228588 1_555
B1 H25 1.228973 1_555
B1 H19 1.230314 1_555
B2 H32 1.226148 1_455
B2 H14 1.228588 1_555
B2 H26 1.228973 1_555
B2 H20 1.230314 1_555
B3 H33 1.226148 1_565
B3 H15 1.228588 1_555
B3 H27 1.228973 1_555
B3 H21 1.230314 1_555
B4 H34 1.226148 1_556
B4 H16 1.228588 1_555
B4 H28 1.228973 1_555
B4 H22 1.230314 1_555
B5 H35 1.226148 1_655
B5 H17 1.228588 1_555
B5 H29 1.228973 1_555
B5 H23 1.230314 1_555
H0 N0 1.024944 1_555
H1 N1 1.024944 1_555
H2 N2 1.024944 1_555
H3 N3 1.024944 1_555
H4 N4 1.024944 1_555
H5 N5 1.024944 1_555
H6 N4 1.028195 1_555
H6 Li3 2.234907 1_555
H7 N5 1.028195 1_555
H7 Li4 2.234907 1_555
H8 N3 1.028195 1_555
H8 Li5 2.234907 1_555
H9 N1 1.028195 1_555
H9 Li0 2.234907 1_555
H10 N2 1.028195 1_555
H10 Li1 2.234907 1_555
H11 N0 1.028195 1_555
H11 Li2 2.234907 1_555
H12 Li3 1.996315 1_555
H13 Li4 1.996316 1_555
H14 Li5 1.996315 1_555
H15 Li0 1.996315 1_555
H16 Li1 1.996316 1_555
H17 Li2 1.996315 1_555
H18 Li0 2.122251 1_445
H18 Li3 2.133380 1_555
H19 Li1 2.122251 1_544
H19 Li4 2.133380 1_555
H20 Li2 2.122251 1_454
H20 Li5 2.133380 1_555
H21 Li3 2.122251 1_665
H21 Li0 2.133380 1_555
H22 Li4 2.122251 1_566
H22 Li1 2.133380 1_555
H23 Li5 2.122251 1_656
H23 Li2 2.133380 1_555
H24 Li1 2.045411 1_545
H24 Li6 2.165850 1_555
H25 Li2 2.045411 1_554
H25 Li7 2.165850 1_555
H26 Li0 2.045411 1_455
H26 Li8 2.165850 1_555
H27 Li4 2.045411 1_565
H27 Li9 2.165850 1_555
H28 Li5 2.045411 1_556
H28 Li10 2.165850 1_555
H29 Li3 2.045411 1_655
H29 Li11 2.165850 1_555
H30 Li1 2.076934 1_555
H30 Li0 2.178017 1_455
H31 Li2 2.076934 1_555
H31 Li1 2.178017 1_545
H32 Li0 2.076934 1_555
H32 Li2 2.178017 1_554
H33 Li4 2.076934 1_555
H33 Li3 2.178017 1_655
H34 Li5 2.076934 1_555
H34 Li4 2.178017 1_565
H35 Li3 2.076934 1_555
H35 Li5 2.178017 1_556
