# generated using pymatgen
data_V4Bi23
_symmetry_space_group_name_H-M   'P 1'
_cell_length_a   10.93430000
_cell_length_b   17.64155736
_cell_length_c   17.67500930
_cell_angle_alpha   71.85759931
_cell_angle_beta   88.34760142
_cell_angle_gamma   88.42400439
_symmetry_Int_Tables_number   1
_chemical_formula_structural   V4Bi23
_chemical_formula_sum   'V16 Bi92'
_cell_volume   3238.01203162
_cell_formula_units_Z   4
loop_
 _symmetry_equiv_pos_site_id
 _symmetry_equiv_pos_as_xyz
  1  'x, y, z'
loop_
 _atom_site_type_symbol
 _atom_site_label
 _atom_site_symmetry_multiplicity
 _atom_site_fract_x
 _atom_site_fract_y
 _atom_site_fract_z
 _atom_site_occupancy
  V  V0  1  0.13905700  0.08821800  0.76933500  1
  V  V1  1  0.86094300  0.91178200  0.23066500  1
  V  V2  1  0.09680700  0.10650400  0.42127200  1
  V  V3  1  0.90319300  0.89349600  0.57872800  1
  V  V4  1  0.56151700  0.08140400  0.93404100  1
  V  V5  1  0.43848300  0.91859600  0.06595900  1
  V  V6  1  0.60385300  0.08290100  0.25948300  1
  V  V7  1  0.39614700  0.91709900  0.74051700  1
  V  V8  1  0.09772600  0.39150300  0.57100600  1
  V  V9  1  0.90227400  0.60849700  0.42899400  1
  V  V10  1  0.13982800  0.41806100  0.25491000  1
  V  V11  1  0.86017200  0.58193900  0.74509000  1
  V  V12  1  0.59494500  0.40933100  0.73174100  1
  V  V13  1  0.40505500  0.59066900  0.26825900  1
  V  V14  1  0.57910800  0.39705400  0.08340900  1
  V  V15  1  0.42089200  0.60294600  0.91659100  1
  Bi  Bi0  1  0.10850200  0.09242500  0.11734700  1
  Bi  Bi1  1  0.89149800  0.90757500  0.88265300  1
  Bi  Bi2  1  0.29250500  0.06542100  0.95149600  1
  Bi  Bi3  1  0.70749500  0.93457900  0.04850400  1
  Bi  Bi4  1  0.27283000  0.07362200  0.61694600  1
  Bi  Bi5  1  0.72717000  0.92637800  0.38305400  1
  Bi  Bi6  1  0.25449400  0.08676900  0.28489900  1
  Bi  Bi7  1  0.74550600  0.91323100  0.71510100  1
  Bi  Bi8  1  0.42435500  0.08046600  0.77625000  1
  Bi  Bi9  1  0.57564500  0.91953400  0.22375000  1
  Bi  Bi10  1  0.42548400  0.07496800  0.43539900  1
  Bi  Bi11  1  0.57451600  0.92503200  0.56460100  1
  Bi  Bi12  1  0.46612000  0.08286900  0.09699500  1
  Bi  Bi13  1  0.53388000  0.91713100  0.90300500  1
  Bi  Bi14  1  0.60738200  0.08019000  0.62201800  1
  Bi  Bi15  1  0.39261800  0.91981000  0.37798200  1
  Bi  Bi16  1  0.74052000  0.07899000  0.80414300  1
  Bi  Bi17  1  0.25948000  0.92101000  0.19585700  1
  Bi  Bi18  1  0.80750200  0.07317500  0.44192500  1
  Bi  Bi19  1  0.19249800  0.92682500  0.55807500  1
  Bi  Bi20  1  0.76979000  0.07315700  0.12117200  1
  Bi  Bi21  1  0.23021000  0.92684300  0.87882800  1
  Bi  Bi22  1  0.95127300  0.07344800  0.92416100  1
  Bi  Bi23  1  0.04872700  0.92655200  0.07583900  1
  Bi  Bi24  1  0.96572300  0.07463900  0.58900000  1
  Bi  Bi25  1  0.03427700  0.92536100  0.41100000  1
  Bi  Bi26  1  0.93265700  0.07429300  0.27344700  1
  Bi  Bi27  1  0.06734300  0.92570700  0.72655300  1
  Bi  Bi28  1  0.11519500  0.22614100  0.83903100  1
  Bi  Bi29  1  0.88480500  0.77385900  0.16096900  1
  Bi  Bi30  1  0.10036200  0.24618400  0.49867700  1
  Bi  Bi31  1  0.89963800  0.75381600  0.50132300  1
  Bi  Bi32  1  0.09879000  0.29569400  0.15333600  1
  Bi  Bi33  1  0.90121000  0.70430600  0.84666400  1
  Bi  Bi34  1  0.25835700  0.24951400  0.66465000  1
  Bi  Bi35  1  0.74164300  0.75048600  0.33535000  1
  Bi  Bi36  1  0.26313400  0.25735900  0.33273500  1
  Bi  Bi37  1  0.73686600  0.74264100  0.66726500  1
  Bi  Bi38  1  0.23886600  0.25434200  0.99824400  1
  Bi  Bi39  1  0.76113400  0.74565800  0.00175600  1
  Bi  Bi40  1  0.46701300  0.25596300  0.84548400  1
  Bi  Bi41  1  0.53298700  0.74403700  0.15451600  1
  Bi  Bi42  1  0.44908700  0.25145000  0.49602200  1
  Bi  Bi43  1  0.55091300  0.74855000  0.50397800  1
  Bi  Bi44  1  0.45913700  0.23936600  0.17076400  1
  Bi  Bi45  1  0.54086300  0.76063400  0.82923600  1
  Bi  Bi46  1  0.61374500  0.25296900  0.00304600  1
  Bi  Bi47  1  0.38625500  0.74703100  0.99695400  1
  Bi  Bi48  1  0.60541000  0.26538000  0.66607400  1
  Bi  Bi49  1  0.39459000  0.73462000  0.33392600  1
  Bi  Bi50  1  0.61025500  0.21656100  0.34052100  1
  Bi  Bi51  1  0.38974500  0.78343900  0.65947900  1
  Bi  Bi52  1  0.75790400  0.26041100  0.82282500  1
  Bi  Bi53  1  0.24209600  0.73958900  0.17717500  1
  Bi  Bi54  1  0.74367800  0.24461400  0.50144300  1
  Bi  Bi55  1  0.25632200  0.75538600  0.49855700  1
  Bi  Bi56  1  0.75594100  0.24477200  0.17275100  1
  Bi  Bi57  1  0.24405900  0.75522800  0.82724900  1
  Bi  Bi58  1  0.96794800  0.22398200  0.67349500  1
  Bi  Bi59  1  0.03205200  0.77601800  0.32650500  1
  Bi  Bi60  1  0.96857600  0.27527300  0.32461700  1
  Bi  Bi61  1  0.03142400  0.72472700  0.67538300  1
  Bi  Bi62  1  0.93508800  0.23477100  0.99684900  1
  Bi  Bi63  1  0.06491200  0.76522900  0.00315100  1
  Bi  Bi64  1  0.09362800  0.42039800  0.88153300  1
  Bi  Bi65  1  0.90637200  0.57960200  0.11846700  1
  Bi  Bi66  1  0.27641300  0.41049700  0.72468400  1
  Bi  Bi67  1  0.72358700  0.58950300  0.27531600  1
  Bi  Bi68  1  0.26507000  0.42019700  0.40437200  1
  Bi  Bi69  1  0.73493000  0.57980300  0.59562800  1
  Bi  Bi70  1  0.30322600  0.42674000  0.06260400  1
  Bi  Bi71  1  0.69677400  0.57326000  0.93739600  1
  Bi  Bi72  1  0.46733700  0.42615100  0.90946700  1
  Bi  Bi73  1  0.53266300  0.57384900  0.09053300  1
  Bi  Bi74  1  0.44829000  0.42366500  0.57451300  1
  Bi  Bi75  1  0.55171000  0.57633500  0.42548700  1
  Bi  Bi76  1  0.43305800  0.42319500  0.23339300  1
  Bi  Bi77  1  0.56694200  0.57680500  0.76660700  1
  Bi  Bi78  1  0.61607200  0.41219700  0.38284300  1
  Bi  Bi79  1  0.38392800  0.58780300  0.61715700  1
  Bi  Bi80  1  0.76992900  0.43118900  0.86626300  1
  Bi  Bi81  1  0.23007100  0.56881100  0.13373700  1
  Bi  Bi82  1  0.78824800  0.41399700  0.56672100  1
  Bi  Bi83  1  0.21175200  0.58600300  0.43327900  1
  Bi  Bi84  1  0.75434200  0.41756300  0.20681900  1
  Bi  Bi85  1  0.24565800  0.58243700  0.79318100  1
  Bi  Bi86  1  0.95012800  0.41507900  0.71846900  1
  Bi  Bi87  1  0.04987200  0.58492100  0.28153100  1
  Bi  Bi88  1  0.96361800  0.42582200  0.41019500  1
  Bi  Bi89  1  0.03638200  0.57417800  0.58980500  1
  Bi  Bi90  1  0.90826600  0.42116600  0.04574700  1
  Bi  Bi91  1  0.09173400  0.57883400  0.95425300  1
loop_
_geom_bond_atom_site_label_1
_geom_bond_atom_site_label_2
_geom_bond_distance
_geom_bond_site_symmetry_2
V4 V5 3.370003 1_546
Bi0 Bi26 3.254225 1_455
Bi0 Bi38 3.305905 1_554
Bi0 Bi23 3.316363 1_545
Bi0 Bi17 3.322624 1_545
Bi0 Bi62 3.328344 1_454
Bi0 Bi6 3.377637 1_555
Bi0 Bi20 3.725199 1_455
Bi1 Bi27 3.254225 1_655
Bi1 Bi39 3.305905 1_556
Bi1 Bi22 3.316363 1_565
Bi1 Bi16 3.322624 1_565
Bi1 Bi63 3.328344 1_656
Bi1 Bi7 3.377637 1_555
Bi1 Bi21 3.725199 1_655
Bi2 V4 2.960738 1_555
Bi2 V5 3.169448 1_546
Bi2 Bi21 3.191852 1_545
Bi2 Bi8 3.315838 1_555
Bi2 Bi28 3.487026 1_555
Bi2 V0 3.579301 1_555
Bi2 Bi38 3.703267 1_555
Bi3 V5 2.960738 1_555
Bi3 V4 3.169448 1_564
Bi3 Bi9 3.315838 1_555
Bi3 V1 3.579301 1_555
Bi3 Bi39 3.703267 1_555
Bi4 V0 3.105583 1_555
Bi4 V7 3.228391 1_545
Bi4 Bi8 3.343585 1_555
Bi4 Bi42 3.747475 1_555
Bi5 V1 3.105583 1_555
Bi5 V6 3.228391 1_565
Bi5 Bi9 3.343585 1_555
Bi6 V2 3.025555 1_555
Bi7 V3 3.025555 1_555
Bi8 V0 3.123019 1_555
Bi8 V7 3.161319 1_545
Bi8 V4 3.209237 1_555
Bi9 V1 3.123019 1_555
Bi9 V6 3.161319 1_565
Bi9 V5 3.209237 1_555
Bi10 Bi15 3.233661 1_545
Bi10 Bi6 3.245853 1_555
Bi10 Bi50 3.256857 1_555
Bi10 Bi11 3.329090 1_545
Bi10 Bi4 3.567800 1_555
Bi10 V6 3.589645 1_555
Bi10 Bi36 3.610098 1_555
Bi10 Bi42 3.611900 1_555
Bi10 V2 3.625315 1_555
Bi11 Bi14 3.233661 1_565
Bi11 Bi7 3.245853 1_555
Bi11 Bi51 3.256857 1_555
Bi11 Bi5 3.567800 1_555
Bi11 V7 3.589645 1_555
Bi11 Bi37 3.610098 1_555
Bi11 Bi43 3.611900 1_555
Bi11 V3 3.625315 1_555
Bi12 V4 3.042361 1_554
Bi12 V5 3.136653 1_545
Bi12 Bi9 3.271256 1_545
Bi12 V6 3.281285 1_555
Bi12 Bi2 3.334486 1_554
Bi12 Bi20 3.352922 1_555
Bi12 Bi46 3.372921 1_555
Bi12 Bi44 3.398921 1_555
Bi13 V5 3.042361 1_556
Bi13 V4 3.136653 1_565
Bi13 Bi8 3.271256 1_565
Bi13 V7 3.281285 1_555
Bi13 Bi3 3.334486 1_556
Bi13 Bi21 3.352922 1_555
Bi13 Bi47 3.372921 1_555
Bi13 Bi45 3.398921 1_555
Bi14 Bi7 3.247159 1_545
Bi14 Bi8 3.336101 1_555
Bi14 Bi54 3.373677 1_555
Bi14 Bi16 3.564856 1_555
Bi14 Bi42 3.581617 1_555
Bi14 Bi48 3.586062 1_555
Bi14 Bi4 3.667669 1_555
Bi15 Bi6 3.247159 1_565
Bi15 Bi9 3.336101 1_555
Bi15 Bi55 3.373677 1_555
Bi15 Bi17 3.564856 1_555
Bi15 Bi43 3.581617 1_555
Bi15 Bi49 3.586062 1_555
Bi15 Bi5 3.667669 1_555
Bi16 V4 2.983496 1_555
Bi16 Bi22 3.156003 1_555
Bi16 Bi52 3.329252 1_555
Bi16 Bi8 3.504316 1_555
Bi17 V5 2.983496 1_555
Bi17 Bi23 3.156003 1_555
Bi17 Bi53 3.329252 1_555
Bi17 Bi9 3.504316 1_555
Bi18 Bi24 3.170962 1_555
Bi18 V2 3.223009 1_655
Bi18 Bi5 3.227533 1_545
Bi18 Bi26 3.235833 1_555
Bi18 Bi50 3.370763 1_555
Bi18 V3 3.489912 1_545
Bi18 Bi54 3.544568 1_555
Bi19 Bi25 3.170962 1_555
Bi19 V3 3.223009 1_455
Bi19 Bi4 3.227533 1_565
Bi19 Bi27 3.235833 1_555
Bi19 Bi51 3.370763 1_555
Bi19 V2 3.489912 1_565
Bi19 Bi55 3.544568 1_555
Bi20 V6 3.047402 1_555
Bi20 V1 3.060660 1_545
Bi20 Bi3 3.191852 1_545
Bi20 Bi26 3.275321 1_555
Bi20 Bi56 3.421381 1_555
Bi20 Bi9 3.488985 1_545
Bi20 Bi62 3.518101 1_554
Bi20 Bi46 3.621638 1_555
Bi21 V7 3.047402 1_555
Bi21 V0 3.060660 1_565
Bi21 Bi27 3.275321 1_555
Bi21 Bi57 3.421381 1_555
Bi21 Bi8 3.488985 1_565
Bi21 Bi63 3.518101 1_556
Bi21 Bi47 3.621638 1_555
Bi22 Bi28 3.212283 1_655
Bi22 Bi23 3.274864 1_646
Bi22 V0 3.321733 1_655
Bi22 Bi62 3.466675 1_555
Bi23 Bi29 3.212283 1_455
Bi23 V1 3.321733 1_455
Bi23 Bi63 3.466675 1_555
Bi24 V2 3.149701 1_655
Bi24 Bi27 3.172685 1_645
Bi24 Bi30 3.312906 1_655
Bi24 V3 3.346826 1_545
Bi24 Bi4 3.406948 1_655
Bi24 Bi58 3.410033 1_555
Bi25 V3 3.149701 1_455
Bi25 Bi26 3.172685 1_465
Bi25 Bi31 3.312906 1_455
Bi25 V2 3.346826 1_565
Bi25 Bi5 3.406948 1_455
Bi25 Bi59 3.410033 1_555
Bi26 V1 3.303634 1_545
Bi26 V2 3.409166 1_655
Bi26 Bi56 3.534357 1_555
Bi26 Bi5 3.540336 1_545
Bi26 Bi6 3.547484 1_655
Bi26 V6 3.606597 1_555
Bi27 V0 3.303634 1_565
Bi27 V3 3.409166 1_455
Bi27 Bi57 3.534357 1_555
Bi27 Bi4 3.540336 1_565
Bi27 Bi7 3.547484 1_455
Bi27 V7 3.606597 1_555
Bi28 V0 3.052726 1_555
Bi28 Bi34 3.329577 1_555
Bi28 Bi38 3.335202 1_555
Bi28 Bi58 3.390979 1_455
Bi28 Bi62 3.407875 1_455
Bi28 Bi66 3.712983 1_555
Bi29 V1 3.052726 1_555
Bi29 Bi35 3.329577 1_555
Bi29 Bi39 3.335202 1_555
Bi29 Bi59 3.390979 1_655
Bi29 Bi63 3.407875 1_655
Bi29 Bi3 3.487026 1_555
Bi29 Bi67 3.712983 1_555
Bi30 V2 3.170695 1_555
Bi30 V8 3.200367 1_555
Bi30 Bi58 3.288879 1_455
Bi30 Bi60 3.322124 1_455
Bi30 Bi36 3.341756 1_555
Bi30 Bi88 3.392980 1_455
Bi30 Bi34 3.463953 1_555
Bi30 Bi68 3.519975 1_555
Bi30 Bi4 3.625206 1_555
Bi31 V3 3.170695 1_555
Bi31 V9 3.200367 1_555
Bi31 Bi59 3.288879 1_655
Bi31 Bi61 3.322124 1_655
Bi31 Bi37 3.341756 1_555
Bi31 Bi89 3.392980 1_655
Bi31 Bi35 3.463953 1_555
Bi31 Bi69 3.519975 1_555
Bi31 Bi5 3.625206 1_555
Bi32 Bi90 3.195191 1_455
Bi32 Bi60 3.228392 1_455
Bi32 V10 3.255463 1_555
Bi32 Bi70 3.268331 1_555
Bi32 Bi38 3.366651 1_554
Bi32 Bi36 3.559116 1_555
Bi33 Bi91 3.195191 1_655
Bi33 Bi61 3.228392 1_655
Bi33 V11 3.255463 1_555
Bi33 Bi71 3.268331 1_555
Bi33 Bi39 3.366651 1_556
Bi33 Bi37 3.559116 1_555
Bi34 V8 3.072896 1_555
Bi34 V0 3.163590 1_555
Bi34 Bi58 3.211978 1_455
Bi34 Bi66 3.339174 1_555
Bi34 Bi4 3.458222 1_555
Bi34 Bi8 3.510637 1_555
Bi34 Bi42 3.579931 1_555
Bi34 Bi74 3.660896 1_555
Bi35 V9 3.072896 1_555
Bi35 V1 3.163590 1_555
Bi35 Bi59 3.211978 1_655
Bi35 Bi67 3.339174 1_555
Bi35 Bi5 3.458222 1_555
Bi35 Bi9 3.510637 1_555
Bi35 Bi43 3.579931 1_555
Bi35 Bi75 3.660896 1_555
Bi36 V10 3.035703 1_555
Bi36 V2 3.216762 1_555
Bi36 Bi60 3.230534 1_455
Bi36 Bi6 3.374255 1_555
Bi36 Bi76 3.464990 1_555
Bi36 Bi68 3.482281 1_555
Bi36 Bi42 3.551621 1_555
Bi36 Bi44 3.614468 1_555
Bi37 V11 3.035703 1_555
Bi37 V3 3.216762 1_555
Bi37 Bi61 3.230534 1_655
Bi37 Bi7 3.374255 1_555
Bi37 Bi77 3.464990 1_555
Bi37 Bi69 3.482281 1_555
Bi37 Bi43 3.551621 1_555
Bi37 Bi45 3.614468 1_555
Bi38 Bi62 3.350514 1_455
Bi38 Bi64 3.395424 1_555
Bi38 Bi40 3.616844 1_555
Bi38 Bi70 3.654820 1_556
Bi39 Bi63 3.350514 1_655
Bi39 Bi65 3.395424 1_555
Bi39 Bi41 3.616844 1_555
Bi39 Bi71 3.654820 1_554
Bi40 V4 3.149205 1_555
Bi40 V12 3.158731 1_555
Bi40 Bi52 3.194375 1_555
Bi40 Bi46 3.239455 1_556
Bi40 Bi48 3.432537 1_555
Bi40 Bi72 3.522580 1_555
Bi40 Bi66 3.557188 1_555
Bi41 V5 3.149205 1_555
Bi41 V13 3.158731 1_555
Bi41 Bi53 3.194375 1_555
Bi41 Bi47 3.239455 1_554
Bi41 Bi49 3.432537 1_555
Bi41 Bi73 3.522580 1_555
Bi41 Bi67 3.557188 1_555
Bi42 Bi54 3.223158 1_555
Bi42 Bi50 3.428273 1_555
Bi42 Bi78 3.452357 1_555
Bi42 Bi68 3.519977 1_555
Bi42 Bi48 3.577077 1_555
Bi43 Bi55 3.223158 1_555
Bi43 Bi51 3.428273 1_555
Bi43 Bi79 3.452357 1_555
Bi43 Bi69 3.519977 1_555
Bi43 Bi49 3.577077 1_555
Bi43 Bi5 3.747475 1_555
Bi44 V14 3.041801 1_555
Bi44 V6 3.128788 1_555
Bi44 Bi56 3.250888 1_555
Bi44 Bi46 3.315648 1_555
Bi44 Bi50 3.375282 1_555
Bi44 Bi6 3.607312 1_555
Bi45 V15 3.041801 1_555
Bi45 V7 3.128788 1_555
Bi45 Bi57 3.250888 1_555
Bi45 Bi47 3.315648 1_555
Bi45 Bi51 3.375282 1_555
Bi45 Bi7 3.607312 1_555
Bi46 V14 3.284313 1_555
Bi46 Bi72 3.371860 1_554
Bi46 Bi56 3.379653 1_555
Bi46 Bi52 3.479954 1_554
Bi46 Bi62 3.521155 1_554
Bi46 V4 3.661781 1_554
Bi46 Bi80 3.737666 1_554
Bi47 V15 3.284313 1_555
Bi47 Bi73 3.371860 1_556
Bi47 Bi57 3.379653 1_555
Bi47 Bi53 3.479954 1_556
Bi47 Bi63 3.521155 1_556
Bi47 V5 3.661781 1_556
Bi47 Bi81 3.737666 1_556
Bi48 V12 3.101831 1_555
Bi48 Bi74 3.232676 1_555
Bi48 Bi52 3.251335 1_555
Bi48 Bi82 3.342634 1_555
Bi48 Bi54 3.356617 1_555
Bi49 V13 3.101831 1_555
Bi49 Bi75 3.232676 1_555
Bi49 Bi53 3.251335 1_555
Bi49 Bi83 3.342634 1_555
Bi49 Bi55 3.356617 1_555
Bi50 V6 3.120054 1_555
Bi50 Bi56 3.229643 1_555
Bi50 Bi54 3.408658 1_555
Bi51 V7 3.120054 1_555
Bi51 Bi57 3.229643 1_555
Bi51 Bi55 3.408658 1_555
Bi52 V12 3.153224 1_555
Bi52 Bi80 3.339429 1_555
Bi52 Bi86 3.496092 1_555
Bi52 Bi62 3.584423 1_555
Bi52 Bi58 3.644150 1_555
Bi53 V13 3.153224 1_555
Bi53 Bi81 3.339429 1_555
Bi53 Bi87 3.496092 1_555
Bi53 Bi63 3.584423 1_555
Bi53 Bi59 3.644150 1_555
Bi54 Bi78 3.341231 1_555
Bi54 Bi82 3.571777 1_555
Bi55 Bi79 3.341231 1_555
Bi55 Bi83 3.571777 1_555
Bi56 V6 3.264699 1_555
Bi56 V14 3.270763 1_555
Bi56 Bi84 3.285514 1_555
Bi56 Bi90 3.635397 1_555
Bi57 V7 3.264699 1_555
Bi57 V15 3.270763 1_555
Bi57 Bi85 3.285514 1_555
Bi57 Bi91 3.635397 1_555
Bi58 V0 3.084818 1_655
Bi58 V8 3.282924 1_655
Bi59 V1 3.084818 1_455
Bi59 V9 3.282924 1_455
Bi60 V10 3.092462 1_655
Bi60 V2 3.238823 1_655
Bi60 Bi88 3.440051 1_555
Bi60 Bi84 3.581417 1_555
Bi61 V11 3.092462 1_455
Bi61 V3 3.238823 1_455
Bi61 Bi89 3.440051 1_555
Bi61 Bi85 3.581417 1_555
Bi62 Bi90 3.653504 1_556
Bi63 Bi91 3.653504 1_554
Bi64 Bi85 3.271907 1_555
Bi64 Bi86 3.348874 1_455
Bi64 Bi66 3.416653 1_555
Bi64 Bi91 3.420150 1_555
Bi64 Bi90 3.495174 1_456
Bi64 Bi80 3.552833 1_455
Bi65 Bi84 3.271907 1_555
Bi65 Bi87 3.348874 1_655
Bi65 Bi67 3.416653 1_555
Bi65 Bi90 3.420150 1_555
Bi65 Bi91 3.495174 1_654
Bi65 Bi81 3.552833 1_655
Bi66 Bi74 3.159659 1_555
Bi66 Bi79 3.339075 1_555
Bi66 V12 3.488017 1_555
Bi66 V8 3.495233 1_555
Bi66 Bi86 3.570473 1_455
Bi66 Bi85 3.603762 1_555
Bi67 Bi75 3.159659 1_555
Bi67 Bi78 3.339075 1_555
Bi67 V13 3.488017 1_555
Bi67 V9 3.495233 1_555
Bi67 Bi87 3.570473 1_655
Bi67 Bi84 3.603762 1_555
Bi68 V10 3.021430 1_555
Bi68 Bi83 3.158599 1_555
Bi68 Bi88 3.294535 1_455
Bi68 V8 3.330253 1_555
Bi68 Bi76 3.477820 1_555
Bi68 V13 3.565134 1_555
Bi68 Bi74 3.678257 1_555
Bi69 V11 3.021430 1_555
Bi69 Bi82 3.158599 1_555
Bi69 Bi89 3.294535 1_655
Bi69 V9 3.330253 1_555
Bi69 Bi77 3.477820 1_555
Bi69 V12 3.565134 1_555
Bi69 Bi75 3.678257 1_555
Bi70 V14 3.060453 1_555
Bi70 Bi72 3.206667 1_554
Bi70 Bi81 3.208822 1_555
Bi70 Bi76 3.355065 1_555
Bi70 Bi91 3.595665 1_554
Bi70 V15 3.607111 1_554
Bi71 V15 3.060453 1_555
Bi71 Bi73 3.206667 1_556
Bi71 Bi80 3.208822 1_555
Bi71 Bi77 3.355065 1_555
Bi71 Bi90 3.595665 1_556
Bi71 V14 3.607111 1_556
Bi72 V15 3.186739 1_555
Bi72 V14 3.226234 1_556
Bi72 Bi77 3.232193 1_555
Bi72 Bi80 3.371390 1_555
Bi72 V12 3.493949 1_555
Bi73 V14 3.186739 1_555
Bi73 V15 3.226234 1_554
Bi73 Bi76 3.232193 1_555
Bi73 Bi81 3.371390 1_555
Bi73 V13 3.493949 1_555
Bi74 V12 3.186741 1_555
Bi74 Bi79 3.265684 1_555
Bi74 Bi75 3.323951 1_555
Bi75 V13 3.186741 1_555
Bi75 Bi78 3.265684 1_555
Bi76 V14 3.204257 1_555
Bi76 V13 3.205596 1_555
Bi76 V10 3.218256 1_555
Bi76 Bi78 3.314238 1_555
Bi76 Bi81 3.423741 1_555
Bi76 Bi84 3.533620 1_555
Bi77 V15 3.204257 1_555
Bi77 V12 3.205596 1_555
Bi77 V11 3.218256 1_555
Bi77 Bi79 3.314238 1_555
Bi77 Bi80 3.423741 1_555
Bi77 Bi85 3.533620 1_555
Bi78 Bi84 3.395241 1_555
Bi79 Bi85 3.395241 1_555
Bi80 V11 3.018071 1_555
Bi80 V12 3.215089 1_555
Bi80 Bi86 3.304794 1_555
Bi80 Bi90 3.506563 1_556
Bi81 V10 3.018071 1_555
Bi81 V13 3.215089 1_555
Bi81 Bi87 3.304794 1_555
Bi81 Bi91 3.506563 1_554
Bi82 Bi86 3.261116 1_555
Bi82 Bi88 3.275852 1_555
Bi82 V8 3.396522 1_655
Bi82 V12 3.533560 1_555
Bi83 Bi87 3.261116 1_555
Bi83 Bi89 3.275852 1_555
Bi83 V9 3.396522 1_455
Bi83 V13 3.533560 1_555
Bi84 V14 3.054636 1_555
Bi84 Bi90 3.249411 1_555
Bi85 V15 3.054636 1_555
Bi85 Bi91 3.249411 1_555
Bi86 V8 3.156986 1_655
Bi86 Bi89 3.160053 1_655
Bi86 V11 3.245101 1_555
Bi87 V9 3.156986 1_455
Bi87 Bi88 3.160053 1_455
Bi87 V10 3.245101 1_555
Bi88 V8 3.116977 1_655
Bi88 V10 3.343465 1_655
Bi88 V9 3.388366 1_555
Bi89 V9 3.116977 1_455
Bi89 V11 3.343465 1_455
Bi89 V8 3.388366 1_555
Bi90 Bi91 3.419792 1_654
Bi90 V14 3.653406 1_555
Bi91 V15 3.653406 1_555
