# generated using pymatgen
data_Pr5(In2Pt)2
_symmetry_space_group_name_H-M   'P 1'
_cell_length_a   3.82169149
_cell_length_b   8.31772905
_cell_length_c   18.72981920
_cell_angle_alpha   90.00000000
_cell_angle_beta   90.00000000
_cell_angle_gamma   90.00000000
_symmetry_Int_Tables_number   1
_chemical_formula_structural   Pr5(In2Pt)2
_chemical_formula_sum   'Pr10 In8 Pt4'
_cell_volume   595.37964050
_cell_formula_units_Z   2
loop_
 _symmetry_equiv_pos_site_id
 _symmetry_equiv_pos_as_xyz
  1  'x, y, z'
loop_
 _atom_site_type_symbol
 _atom_site_label
 _atom_site_symmetry_multiplicity
 _atom_site_fract_x
 _atom_site_fract_y
 _atom_site_fract_z
 _atom_site_occupancy
  Pr  Pr0  1  -0.00000000  0.11759409  0.41571437  1
  Pr  Pr1  1  -0.00000000  0.88240591  0.58428563  1
  Pr  Pr2  1  -0.00000000  0.38240591  0.91571437  1
  Pr  Pr3  1  -0.00000000  0.61759409  0.08428563  1
  Pr  Pr4  1  0.00000000  0.24117253  0.22232313  1
  Pr  Pr5  1  -0.00000000  0.75882747  0.77767687  1
  Pr  Pr6  1  -0.00000000  0.25882747  0.72232313  1
  Pr  Pr7  1  -0.00000000  0.74117253  0.27767687  1
  Pr  Pr8  1  -0.00000000  0.00000000  -0.00000000  1
  Pr  Pr9  1  -0.00000000  0.50000000  0.50000000  1
  In  In0  1  0.50000000  0.43206079  0.35040594  1
  In  In1  1  0.50000000  0.56793921  0.64959406  1
  In  In2  1  0.50000000  0.06793921  0.85040594  1
  In  In3  1  0.50000000  0.93206079  0.14959406  1
  In  In4  1  0.50000000  0.28906752  0.07108450  1
  In  In5  1  0.50000000  0.71093248  0.92891550  1
  In  In6  1  0.50000000  0.21093248  0.57108450  1
  In  In7  1  0.50000000  0.78906752  0.42891550  1
  Pt  Pt0  1  0.50000000  0.01770626  0.30376878  1
  Pt  Pt1  1  0.50000000  0.98229374  0.69623122  1
  Pt  Pt2  1  0.50000000  0.48229374  0.80376878  1
  Pt  Pt3  1  0.50000000  0.51770626  0.19623122  1
loop_
_geom_bond_atom_site_label_1
_geom_bond_atom_site_label_2
_geom_bond_distance
_geom_bond_site_symmetry_2
Pr0 Pt0 2.955988 1_555
Pr0 Pt0 2.955988 1_455
Pr1 Pt1 2.955988 1_455
Pr1 Pt1 2.955988 1_555
Pr2 Pt2 2.955988 1_555
Pr2 Pt2 2.955988 1_455
Pr3 Pt3 2.955988 1_455
Pr3 Pt3 2.955988 1_555
Pr4 Pt3 3.029978 1_555
Pr4 Pt3 3.029978 1_455
Pr4 Pt0 3.071360 1_455
Pr4 Pt0 3.071360 1_555
Pr5 Pt2 3.029978 1_455
Pr5 Pt2 3.029978 1_555
Pr5 Pt1 3.071360 1_455
Pr5 Pt1 3.071360 1_555
Pr6 Pt1 3.029978 1_445
Pr6 Pt1 3.029978 1_545
Pr6 Pt2 3.071360 1_555
Pr6 Pt2 3.071360 1_455
Pr7 Pt0 3.029978 1_465
Pr7 Pt0 3.029978 1_565
Pr7 Pt3 3.071360 1_455
Pr7 Pt3 3.071360 1_555
In0 Pt3 2.974237 1_555
In0 In7 3.313627 1_555
In0 Pr9 3.438189 1_555
In0 Pr9 3.438189 1_655
In0 Pr4 3.453600 1_555
In0 Pr4 3.453600 1_655
In0 Pr0 3.462543 1_555
In0 Pr0 3.462543 1_655
In0 Pr7 3.481023 1_655
In0 Pr7 3.481023 1_555
In1 Pt2 2.974237 1_555
In1 In6 3.313627 1_555
In1 Pr9 3.438189 1_555
In1 Pr9 3.438189 1_655
In1 Pr5 3.453600 1_655
In1 Pr5 3.453600 1_555
In1 Pr1 3.462543 1_655
In1 Pr1 3.462543 1_555
In1 Pr6 3.481023 1_655
In1 Pr6 3.481023 1_555
In2 Pt1 2.974237 1_545
In2 In5 3.313627 1_545
In2 Pr8 3.438189 1_556
In2 Pr8 3.438189 1_656
In2 Pr6 3.453600 1_555
In2 Pr6 3.453600 1_655
In2 Pr2 3.462543 1_655
In2 Pr2 3.462543 1_555
In2 Pr5 3.481023 1_545
In2 Pr5 3.481023 1_645
In3 Pt0 2.974237 1_565
In3 In4 3.313627 1_565
In3 Pr8 3.438189 1_665
In3 Pr8 3.438189 1_565
In3 Pr7 3.453600 1_555
In3 Pr7 3.453600 1_655
In3 Pr3 3.462543 1_555
In3 Pr3 3.462543 1_655
In3 Pr4 3.481023 1_565
In3 Pr4 3.481023 1_665
In4 Pt3 3.018426 1_555
In4 Pr3 3.343582 1_555
In4 Pr3 3.343582 1_655
In4 Pr8 3.347391 1_655
In4 Pr8 3.347391 1_555
In4 Pr4 3.440068 1_555
In4 Pr4 3.440068 1_655
In4 Pr2 3.566860 1_654
In4 Pr2 3.566860 1_554
In5 Pt2 3.018426 1_555
In5 Pr2 3.343582 1_655
In5 Pr2 3.343582 1_555
In5 Pr8 3.347391 1_566
In5 Pr8 3.347391 1_666
In5 Pr5 3.440068 1_555
In5 Pr5 3.440068 1_655
In5 Pr3 3.566860 1_656
In5 Pr3 3.566860 1_556
In6 Pt1 3.018426 1_545
In6 Pr1 3.343582 1_545
In6 Pr1 3.343582 1_645
In6 Pr9 3.347391 1_555
In6 Pr9 3.347391 1_655
In6 Pr6 3.440068 1_655
In6 Pr6 3.440068 1_555
In6 Pr0 3.566860 1_555
In6 Pr0 3.566860 1_655
In7 Pt0 3.018426 1_565
In7 Pr0 3.343582 1_565
In7 Pr0 3.343582 1_665
In7 Pr9 3.347391 1_555
In7 Pr9 3.347391 1_655
In7 Pr7 3.440068 1_655
In7 Pr7 3.440068 1_555
In7 Pr1 3.566860 1_555
In7 Pr1 3.566860 1_655
