# generated using pymatgen
data_CaV2O10
_symmetry_space_group_name_H-M   'P 1'
_cell_length_a   7.10897600
_cell_length_b   8.04563708
_cell_length_c   8.93999618
_cell_angle_alpha   111.79814832
_cell_angle_beta   94.09532954
_cell_angle_gamma   115.96963299
_symmetry_Int_Tables_number   1
_chemical_formula_structural   CaV2O10
_chemical_formula_sum   'Ca2 V4 O20'
_cell_volume   409.71579102
_cell_formula_units_Z   2
loop_
 _symmetry_equiv_pos_site_id
 _symmetry_equiv_pos_as_xyz
  1  'x, y, z'
loop_
 _atom_site_type_symbol
 _atom_site_label
 _atom_site_symmetry_multiplicity
 _atom_site_fract_x
 _atom_site_fract_y
 _atom_site_fract_z
 _atom_site_occupancy
  Ca  Ca0  1  0.05567600  0.81272300  0.86698500  1
  Ca  Ca1  1  0.94432400  0.18727700  0.13301500  1
  V  V0  1  0.78231700  0.44616200  0.66826000  1
  V  V1  1  0.21768300  0.55383800  0.33174000  1
  V  V2  1  0.25200400  0.36992800  0.65987000  1
  V  V3  1  0.74799600  0.63007200  0.34013000  1
  O  O0  1  0.06991100  0.44317100  0.58543600  1
  O  O1  1  0.93008900  0.55682900  0.41456400  1
  O  O2  1  0.56965900  0.49917200  0.60460200  1
  O  O3  1  0.43034100  0.50082800  0.39539800  1
  O  O4  1  0.62674000  0.90423100  0.67732100  1
  O  O5  1  0.37326000  0.09576900  0.32267900  1
  O  O6  1  0.15372900  0.12431000  0.69429700  1
  O  O7  1  0.84627100  0.87569000  0.30570300  1
  O  O8  1  0.59153900  0.20944700  0.79476500  1
  O  O9  1  0.40846100  0.79055300  0.20523500  1
  O  O10  1  0.83802500  0.58780500  0.78302600  1
  O  O11  1  0.16197500  0.41219500  0.21697400  1
  O  O12  1  0.15120600  0.38912600  0.84876400  1
  O  O13  1  0.84879400  0.61087400  0.15123600  1
  O  O14  1  0.87376900  0.99044100  0.95994500  1
  O  O15  1  0.12623100  0.00955900  0.04005500  1
  O  O16  1  0.41216600  0.78196400  0.79725800  1
  O  O17  1  0.58783400  0.21803600  0.20274200  1
  O  O18  1  0.33610900  0.94483400  0.43163400  1
  O  O19  1  0.66389100  0.05516600  0.56836600  1
loop_
_geom_bond_atom_site_label_1
_geom_bond_atom_site_label_2
_geom_bond_distance
_geom_bond_site_symmetry_2
Ca0 O15 1.589732 1_566
Ca0 O10 1.614099 1_455
Ca0 O16 2.744582 1_555
Ca1 O14 1.589732 1_544
Ca1 O11 1.614099 1_655
Ca1 O17 2.744582 1_555
O0 V2 1.817156 1_555
O0 V0 2.230447 1_455
O1 V3 1.817156 1_555
O1 V1 2.230447 1_655
O2 V0 1.847518 1_555
O2 V2 2.215698 1_555
O3 V1 1.847518 1_555
O3 V3 2.215698 1_555
O6 V2 1.939406 1_555
O7 V3 1.939406 1_555
O8 V0 2.510427 1_555
O9 V1 2.510427 1_555
O10 V0 1.089298 1_555
O11 V1 1.089298 1_555
O12 V2 1.861487 1_555
O13 V3 1.861487 1_555
O16 O4 2.036426 1_555
O16 V2 2.695438 1_555
O17 O5 2.036426 1_555
O17 V3 2.695438 1_555
O18 O5 1.768495 1_565
O18 V1 2.624719 1_555
O19 O4 1.768495 1_545
O19 V0 2.624719 1_555
