# generated using pymatgen
data_Ga4Te3N2
_symmetry_space_group_name_H-M   'P 1'
_cell_length_a   6.37351300
_cell_length_b   11.34036400
_cell_length_c   11.99517500
_cell_angle_alpha   90.00001488
_cell_angle_beta   90.00000000
_cell_angle_gamma   90.00000000
_symmetry_Int_Tables_number   1
_chemical_formula_structural   Ga4Te3N2
_chemical_formula_sum   'Ga16 Te12 N8'
_cell_volume   866.98674740
_cell_formula_units_Z   4
loop_
 _symmetry_equiv_pos_site_id
 _symmetry_equiv_pos_as_xyz
  1  'x, y, z'
loop_
 _atom_site_type_symbol
 _atom_site_label
 _atom_site_symmetry_multiplicity
 _atom_site_fract_x
 _atom_site_fract_y
 _atom_site_fract_z
 _atom_site_occupancy
  Ga  Ga0  1  0.56751400  0.25000000  0.88257800  1
  Ga  Ga1  1  0.06751500  0.25000000  0.61742200  1
  Ga  Ga2  1  0.43248600  0.75000000  0.11742200  1
  Ga  Ga3  1  0.93248500  0.75000000  0.38257800  1
  Ga  Ga4  1  0.94370600  0.25000000  0.38366700  1
  Ga  Ga5  1  0.44370600  0.25000000  0.11633300  1
  Ga  Ga6  1  0.05629400  0.75000000  0.61633300  1
  Ga  Ga7  1  0.55629400  0.75000000  0.88366700  1
  Ga  Ga8  1  0.71402800  0.50001400  0.00941800  1
  Ga  Ga9  1  0.21402800  0.99998600  0.49058200  1
  Ga  Ga10  1  0.28597100  0.00001400  0.99058200  1
  Ga  Ga11  1  0.78597100  0.49998600  0.50941800  1
  Ga  Ga12  1  0.28597200  0.49998600  0.99058200  1
  Ga  Ga13  1  0.78597200  0.00001400  0.50941800  1
  Ga  Ga14  1  0.71402900  0.99998600  0.00941800  1
  Ga  Ga15  1  0.21402900  0.50001400  0.49058200  1
  Te  Te0  1  0.01650200  0.25000000  0.15786300  1
  Te  Te1  1  0.51650200  0.25000000  0.34213700  1
  Te  Te2  1  0.98349800  0.75000000  0.84213700  1
  Te  Te3  1  0.48349800  0.75000000  0.65786300  1
  Te  Te4  1  0.51362600  0.52196500  0.33584300  1
  Te  Te5  1  0.01362600  0.97803500  0.16415700  1
  Te  Te6  1  0.48637400  0.02196500  0.66415700  1
  Te  Te7  1  0.98637400  0.47803500  0.83584300  1
  Te  Te8  1  0.48637400  0.47803500  0.66415700  1
  Te  Te9  1  0.98637400  0.02196500  0.83584300  1
  Te  Te10  1  0.51362600  0.97803500  0.33584300  1
  Te  Te11  1  0.01362600  0.52196500  0.16415700  1
  N  N0  1  0.50192700  0.62302500  0.98533100  1
  N  N1  1  0.00192700  0.87697500  0.51466900  1
  N  N2  1  0.49807300  0.12302500  0.01466900  1
  N  N3  1  0.99807300  0.37697500  0.48533100  1
  N  N4  1  0.49807300  0.37697500  0.01466900  1
  N  N5  1  0.99807300  0.12302500  0.48533100  1
  N  N6  1  0.50192700  0.87697500  0.98533100  1
  N  N7  1  0.00192700  0.62302500  0.51466900  1
loop_
_geom_bond_atom_site_label_1
_geom_bond_atom_site_label_2
_geom_bond_distance
_geom_bond_site_symmetry_2
Ga0 N4 2.186278 1_556
Ga0 N2 2.186278 1_556
Ga1 N5 2.186279 1_455
Ga1 N3 2.186280 1_455
Ga2 N0 2.186278 1_554
Ga2 N6 2.186278 1_554
Ga3 N1 2.186279 1_655
Ga3 N7 2.186280 1_655
Ga4 N3 1.918496 1_555
Ga4 N5 1.918497 1_555
Ga4 Te0 2.748009 1_655
Ga4 Te1 2.767987 1_555
Ga5 N2 1.918496 1_555
Ga5 N4 1.918497 1_555
Ga5 Te1 2.748009 1_555
Ga5 Te0 2.767987 1_555
Ga6 N7 1.918496 1_555
Ga6 N1 1.918497 1_555
Ga6 Te2 2.748009 1_455
Ga6 Te3 2.767987 1_555
Ga7 N6 1.918496 1_555
Ga7 N0 1.918497 1_555
Ga7 Te3 2.748009 1_555
Ga7 Te2 2.767987 1_555
Ga8 N4 1.960945 1_555
Ga8 N0 1.963903 1_554
Ga8 Te11 2.674568 1_655
Ga8 Te7 2.722152 1_554
Ga9 N5 1.960945 1_465
Ga9 N1 1.963903 1_555
Ga9 Te10 2.674568 1_555
Ga9 Te6 2.722152 1_565
Ga10 N6 1.960949 1_545
Ga10 N2 1.963907 1_556
Ga10 Te9 2.674563 1_455
Ga10 Te5 2.722148 1_546
Ga11 N7 1.960949 1_655
Ga11 N3 1.963907 1_555
Ga11 Te8 2.674563 1_555
Ga11 Te4 2.722148 1_555
Ga12 N0 1.960945 1_555
Ga12 N4 1.963903 1_556
Ga12 Te7 2.674568 1_455
Ga12 Te11 2.722152 1_556
Ga13 N1 1.960945 1_645
Ga13 N5 1.963903 1_555
Ga13 Te6 2.674568 1_555
Ga13 Te10 2.722152 1_545
Ga14 N2 1.960949 1_565
Ga14 N6 1.963907 1_554
Ga14 Te5 2.674563 1_655
Ga14 Te9 2.722148 1_564
Ga15 N3 1.960949 1_455
Ga15 N7 1.963907 1_555
Ga15 Te4 2.674563 1_555
Ga15 Te8 2.722148 1_555
