# generated using pymatgen
data_Na4CuTe2O29
_symmetry_space_group_name_H-M   'P 1'
_cell_length_a   5.44261200
_cell_length_b   8.92480490
_cell_length_c   14.12223669
_cell_angle_alpha   90.28694310
_cell_angle_beta   93.44638826
_cell_angle_gamma   107.73596373
_symmetry_Int_Tables_number   1
_chemical_formula_structural   Na4CuTe2O29
_chemical_formula_sum   'Na4 Cu1 Te2 O29'
_cell_volume   651.99501684
_cell_formula_units_Z   1
loop_
 _symmetry_equiv_pos_site_id
 _symmetry_equiv_pos_as_xyz
  1  'x, y, z'
loop_
 _atom_site_type_symbol
 _atom_site_label
 _atom_site_symmetry_multiplicity
 _atom_site_fract_x
 _atom_site_fract_y
 _atom_site_fract_z
 _atom_site_occupancy
  Na  Na0  1  0.62281700  0.35634500  0.95519600  1
  Na  Na1  1  0.37718300  0.64365500  0.04480400  1
  Na  Na2  1  0.42252200  0.13090800  0.67463100  1
  Na  Na3  1  0.57747800  0.86909200  0.32536900  1
  Cu  Cu0  1  0.00000000  0.00000000  0.00000000  1
  Te  Te0  1  0.76490700  0.22266800  0.19398100  1
  Te  Te1  1  0.23509300  0.77733200  0.80601900  1
  O  O0  1  0.00928500  0.21265300  0.01803300  1
  O  O1  1  0.99071500  0.78734700  0.98196700  1
  O  O2  1  0.79024200  0.98359300  0.10576400  1
  O  O3  1  0.20975800  0.01640700  0.89423600  1
  O  O4  1  0.22127200  0.54908100  0.19883300  1
  O  O5  1  0.77872800  0.45091900  0.80116700  1
  O  O6  1  0.93196400  0.18968400  0.43494800  1
  O  O7  1  0.06803600  0.81031600  0.56505200  1
  O  O8  1  0.58714600  0.31724400  0.11122400  1
  O  O9  1  0.41285400  0.68275600  0.88877600  1
  O  O10  1  0.50864400  0.08120200  0.25408400  1
  O  O11  1  0.49135600  0.91879800  0.74591600  1
  O  O12  1  0.58892500  0.42488100  0.74090800  1
  O  O13  1  0.41107500  0.57511900  0.25909200  1
  O  O14  1  0.33026800  0.15242200  0.85421800  1
  O  O15  1  0.66973200  0.84757800  0.14578200  1
  O  O16  1  0.86071900  0.66821800  0.03170900  1
  O  O17  1  0.13928100  0.33178200  0.96829100  1
  O  O18  1  0.49279000  0.32513100  0.48042200  1
  O  O19  1  0.50721000  0.67486900  0.51957800  1
  O  O20  1  0.18739400  0.95273900  0.55247200  1
  O  O21  1  0.81260600  0.04726100  0.44752800  1
  O  O22  1  0.90564100  0.19492300  0.65853500  1
  O  O23  1  0.09435900  0.80507700  0.34146500  1
  O  O24  1  0.97253300  0.32927600  0.62597700  1
  O  O25  1  0.02746700  0.67072400  0.37402300  1
  O  O26  1  0.50000000  0.00000000  0.50000000  1
  O  O27  1  0.39793600  0.60333500  0.58757100  1
  O  O28  1  0.60206400  0.39666500  0.41242900  1
loop_
_geom_bond_atom_site_label_1
_geom_bond_atom_site_label_2
_geom_bond_distance
_geom_bond_site_symmetry_2
Na0 O8 2.243342 1_556
Na0 O14 2.411755 1_555
Na0 O5 2.442963 1_555
Na0 O17 2.591432 1_555
Na0 O16 2.863098 1_556
Na0 O0 2.878679 1_656
Na0 O17 2.880422 1_655
Na1 O9 2.243342 1_554
Na1 O15 2.411755 1_555
Na1 O4 2.442963 1_555
Na1 O16 2.591432 1_555
Na1 O17 2.863098 1_554
Na1 O1 2.878679 1_454
Na1 O16 2.880422 1_455
Na2 O11 2.267871 1_545
Na2 O20 2.368466 1_545
Na2 O22 2.539660 1_555
Na2 O14 2.632128 1_555
Na2 O12 2.646814 1_555
Na2 O26 2.832170 1_555
Na3 O10 2.267871 1_565
Na3 O21 2.368466 1_565
Na3 O23 2.539660 1_555
Na3 O15 2.632128 1_555
Na3 O13 2.646814 1_555
Na3 O26 2.832170 1_565
Cu0 O0 1.898568 1_555
Cu0 O1 1.898568 1_444
Cu0 O2 1.913382 1_445
Cu0 O3 1.913382 1_554
O0 O17 1.316576 1_554
O1 O16 1.316576 1_556
O2 Te0 2.509389 1_565
O3 Te1 2.509389 1_545
O8 Te0 1.840068 1_555
O9 Te1 1.840068 1_555
O10 Te0 1.827562 1_555
O11 Te1 1.827562 1_555
O12 O5 1.261506 1_555
O13 O4 1.261506 1_555
O14 O3 1.337721 1_555
O15 O2 1.337721 1_555
O18 O28 1.235627 1_555
O19 O27 1.235627 1_555
O20 O7 1.257898 1_555
O20 O26 1.827360 1_565
O21 O6 1.257898 1_555
O21 O26 1.827360 1_555
O22 O24 1.241536 1_555
O23 O25 1.241536 1_555
