# generated using pymatgen
data_NaGeAu3
_symmetry_space_group_name_H-M   'P 1'
_cell_length_a   9.08579863
_cell_length_b   9.08579863
_cell_length_c   9.08579863
_cell_angle_alpha   90.00000000
_cell_angle_beta   90.00000000
_cell_angle_gamma   90.00000000
_symmetry_Int_Tables_number   1
_chemical_formula_structural   NaGeAu3
_chemical_formula_sum   'Na8 Ge8 Au24'
_cell_volume   750.04845662
_cell_formula_units_Z   8
loop_
 _symmetry_equiv_pos_site_id
 _symmetry_equiv_pos_as_xyz
  1  'x, y, z'
loop_
 _atom_site_type_symbol
 _atom_site_label
 _atom_site_symmetry_multiplicity
 _atom_site_fract_x
 _atom_site_fract_y
 _atom_site_fract_z
 _atom_site_occupancy
  Na  Na0  1  0.09918079  0.09918079  0.09918079  1
  Na  Na1  1  0.40081921  0.90081921  0.59918079  1
  Na  Na2  1  0.59918079  0.40081921  0.90081921  1
  Na  Na3  1  0.90081921  0.59918079  0.40081921  1
  Na  Na4  1  0.90081921  0.90081921  0.90081921  1
  Na  Na5  1  0.59918079  0.09918079  0.40081921  1
  Na  Na6  1  0.40081921  0.59918079  0.09918079  1
  Na  Na7  1  0.09918079  0.40081921  0.59918079  1
  Ge  Ge0  1  0.11539879  0.88460121  0.38460121  1
  Ge  Ge1  1  0.88460121  0.38460121  0.11539879  1
  Ge  Ge2  1  0.61539879  0.61539879  0.61539879  1
  Ge  Ge3  1  0.61539879  0.88460121  0.11539879  1
  Ge  Ge4  1  0.88460121  0.11539879  0.61539879  1
  Ge  Ge5  1  0.11539879  0.61539879  0.88460121  1
  Ge  Ge6  1  0.38460121  0.38460121  0.38460121  1
  Ge  Ge7  1  0.38460121  0.11539879  0.88460121  1
  Au  Au0  1  0.59198058  0.73136727  0.36427605  1
  Au  Au1  1  0.73136727  0.36427605  0.59198058  1
  Au  Au2  1  0.76863273  0.63572395  0.09198058  1
  Au  Au3  1  0.26863273  0.86427605  0.90801942  1
  Au  Au4  1  0.63572395  0.09198058  0.76863273  1
  Au  Au5  1  0.59198058  0.76863273  0.86427605  1
  Au  Au6  1  0.86427605  0.59198058  0.76863273  1
  Au  Au7  1  0.63572395  0.40801942  0.26863273  1
  Au  Au8  1  0.09198058  0.73136727  0.13572395  1
  Au  Au9  1  0.13572395  0.09198058  0.73136727  1
  Au  Au10  1  0.90801942  0.23136727  0.36427605  1
  Au  Au11  1  0.40801942  0.26863273  0.63572395  1
  Au  Au12  1  0.36427605  0.90801942  0.23136727  1
  Au  Au13  1  0.26863273  0.63572395  0.40801942  1
  Au  Au14  1  0.23136727  0.36427605  0.90801942  1
  Au  Au15  1  0.73136727  0.13572395  0.09198058  1
  Au  Au16  1  0.09198058  0.76863273  0.63572395  1
  Au  Au17  1  0.86427605  0.90801942  0.26863273  1
  Au  Au18  1  0.90801942  0.26863273  0.86427605  1
  Au  Au19  1  0.36427605  0.59198058  0.73136727  1
  Au  Au20  1  0.13572395  0.40801942  0.23136727  1
  Au  Au21  1  0.40801942  0.23136727  0.13572395  1
  Au  Au22  1  0.23136727  0.13572395  0.40801942  1
  Au  Au23  1  0.76863273  0.86427605  0.59198058  1
loop_
_geom_bond_atom_site_label_1
_geom_bond_atom_site_label_2
_geom_bond_distance
_geom_bond_site_symmetry_2
Na0 Na4 3.121629 1_444
Na1 Na5 3.121629 1_565
Na2 Na6 3.121629 1_556
Na3 Na7 3.121629 1_655
Ge0 Na0 3.247741 1_565
Ge0 Na1 3.247741 1_555
Ge0 Na3 3.247741 1_455
Ge1 Na0 3.247741 1_655
Ge1 Na3 3.247741 1_555
Ge1 Na2 3.247741 1_554
Ge2 Na1 3.247741 1_555
Ge2 Na2 3.247741 1_555
Ge2 Na3 3.247741 1_555
Ge3 Na5 3.247741 1_565
Ge3 Na4 3.247741 1_554
Ge3 Na6 3.247741 1_555
Ge4 Na7 3.247741 1_655
Ge4 Na5 3.247741 1_555
Ge4 Na4 3.247741 1_545
Ge5 Na6 3.247741 1_556
Ge5 Na7 3.247741 1_555
Ge5 Na4 3.247741 1_455
Ge6 Na7 3.247741 1_555
Ge6 Na5 3.247741 1_555
Ge6 Na6 3.247741 1_555
Ge7 Na0 3.247741 1_556
Ge7 Na1 3.247741 1_545
Ge7 Na2 3.247741 1_555
Au0 Ge2 2.522185 1_555
Au0 Ge3 2.663998 1_555
Au0 Au23 2.883508 1_555
Au0 Au12 2.883508 1_555
Au0 Na3 3.070274 1_555
Au0 Au2 3.074418 1_555
Au0 Au17 3.074418 1_555
Au0 Au13 3.089371 1_555
Au0 Au7 3.089371 1_555
Au0 Na1 3.153137 1_555
Au0 Na6 3.203197 1_555
Au0 Na5 3.358970 1_565
Au1 Ge2 2.522185 1_555
Au1 Ge4 2.663998 1_555
Au1 Au6 2.883508 1_555
Au1 Au10 2.883508 1_555
Au1 Na2 3.070274 1_555
Au1 Au4 3.074418 1_555
Au1 Au18 3.074418 1_555
Au1 Au7 3.089371 1_555
Au1 Au11 3.089371 1_555
Au1 Na3 3.153137 1_555
Au1 Na5 3.203197 1_555
Au1 Na7 3.358970 1_655
Au2 Ge1 2.522185 1_555
Au2 Ge3 2.663998 1_555
Au2 Au7 2.883508 1_555
Au2 Au5 2.883508 1_554
Au2 Na3 3.070274 1_555
Au2 Au6 3.089371 1_554
Au2 Au8 3.089371 1_655
Au2 Na2 3.153137 1_554
Au2 Na4 3.203197 1_554
Au2 Na6 3.358970 1_555
Au3 Ge7 2.522185 1_565
Au3 Ge5 2.663998 1_555
Au3 Au8 2.883508 1_556
Au3 Au9 2.883508 1_565
Au3 Na1 3.070274 1_555
Au3 Au5 3.089371 1_555
Au3 Na0 3.153137 1_566
Au3 Na6 3.203197 1_556
Au3 Na4 3.358970 1_455
Au4 Ge7 2.522185 1_555
Au4 Ge4 2.663998 1_555
Au4 Na2 3.070274 1_555
Au4 Au5 3.089371 1_545
Au4 Na1 3.153137 1_545
Au4 Na4 3.203197 1_545
Au4 Na5 3.358970 1_555
Au5 Ge3 2.522185 1_556
Au5 Ge2 2.663998 1_555
Au5 Na4 3.070274 1_555
Au5 Au6 3.074418 1_555
Au5 Na6 3.153137 1_556
Au5 Na1 3.203197 1_555
Au5 Na2 3.358970 1_555
Au6 Ge5 2.522185 1_655
Au6 Ge2 2.663998 1_555
Au6 Na4 3.070274 1_555
Au6 Na7 3.153137 1_655
Au6 Na2 3.203197 1_555
Au6 Na3 3.358970 1_555
Au7 Ge6 2.522185 1_555
Au7 Ge1 2.663998 1_555
Au7 Na5 3.070274 1_555
Au7 Na6 3.153137 1_555
Au7 Na3 3.203197 1_555
Au7 Na2 3.358970 1_554
Au8 Ge5 2.522185 1_554
Au8 Ge0 2.663998 1_555
Au8 Na6 3.070274 1_555
Au8 Na4 3.153137 1_454
Au8 Na3 3.203197 1_455
Au8 Na0 3.358970 1_565
Au9 Ge4 2.522185 1_455
Au9 Ge7 2.663998 1_555
Au9 Na7 3.070274 1_555
Au9 Na4 3.153137 1_445
Au9 Na1 3.203197 1_545
Au9 Na0 3.358970 1_556
Au10 Ge4 2.522185 1_555
Au10 Ge1 2.663998 1_555
Au10 Au20 2.883508 1_655
Au10 Na5 3.070274 1_555
Au10 Au15 3.074418 1_555
Au10 Au7 3.074418 1_555
Au10 Au22 3.089371 1_655
Au10 Au17 3.089371 1_545
Au10 Na7 3.153137 1_655
Au10 Na0 3.203197 1_655
Au10 Na3 3.358970 1_555
Au11 Ge6 2.522185 1_555
Au11 Ge7 2.663998 1_555
Au11 Au22 2.883508 1_555
Au11 Au4 2.883508 1_555
Au11 Na7 3.070274 1_555
Au11 Au14 3.074418 1_555
Au11 Au9 3.074418 1_555
Au11 Au19 3.089371 1_555
Au11 Na5 3.153137 1_555
Au11 Na2 3.203197 1_555
Au11 Na1 3.358970 1_545
Au12 Ge3 2.522185 1_555
Au12 Ge0 2.663998 1_555
Au12 Au22 2.883508 1_565
Au12 Na6 3.070274 1_555
Au12 Au13 3.074418 1_555
Au12 Au8 3.074418 1_555
Au12 Au21 3.089371 1_565
Au12 Au3 3.089371 1_554
Au12 Na5 3.153137 1_565
Au12 Na0 3.203197 1_565
Au12 Na1 3.358970 1_555
Au13 Ge6 2.522185 1_555
Au13 Ge0 2.663998 1_555
Au13 Au16 2.883508 1_555
Au13 Au20 2.883508 1_555
Au13 Na6 3.070274 1_555
Au13 Au8 3.074418 1_555
Au13 Au19 3.089371 1_555
Au13 Na7 3.153137 1_555
Au13 Na1 3.203197 1_555
Au13 Na3 3.358970 1_455
Au14 Ge5 2.522185 1_555
Au14 Ge7 2.663998 1_555
Au14 Au19 2.883508 1_555
Au14 Au21 2.883508 1_556
Au14 Na7 3.070274 1_555
Au14 Au9 3.074418 1_555
Au14 Au20 3.089371 1_556
Au14 Au18 3.089371 1_455
Au14 Na6 3.153137 1_556
Au14 Na0 3.203197 1_556
Au14 Na2 3.358970 1_555
Au15 Ge3 2.522185 1_545
Au15 Ge1 2.663998 1_555
Au15 Au17 2.883508 1_545
Au15 Au18 2.883508 1_554
Au15 Na5 3.070274 1_555
Au15 Au7 3.074418 1_555
Au15 Au4 3.089371 1_554
Au15 Au21 3.089371 1_555
Au15 Na4 3.153137 1_544
Au15 Na2 3.203197 1_554
Au15 Na0 3.358970 1_655
Au16 Ge0 2.522185 1_555
Au16 Ge5 2.663998 1_555
Au16 Au6 2.883508 1_455
Au16 Na1 3.070274 1_555
Au16 Au3 3.074418 1_555
Au16 Au19 3.074418 1_555
Au16 Au9 3.089371 1_565
Au16 Au23 3.089371 1_455
Au16 Na3 3.153137 1_455
Au16 Na4 3.203197 1_455
Au16 Na7 3.358970 1_555
Au17 Ge0 2.522185 1_655
Au17 Ge3 2.663998 1_555
Au17 Au8 2.883508 1_655
Au17 Na3 3.070274 1_555
Au17 Au2 3.074418 1_555
Au17 Au23 3.089371 1_555
Au17 Na0 3.153137 1_665
Au17 Na5 3.203197 1_565
Au17 Na4 3.358970 1_554
Au18 Ge1 2.522185 1_556
Au18 Ge4 2.663998 1_555
Au18 Au9 2.883508 1_655
Au18 Na2 3.070274 1_555
Au18 Au4 3.074418 1_555
Au18 Au6 3.089371 1_555
Au18 Na0 3.153137 1_656
Au18 Na7 3.203197 1_655
Au18 Na4 3.358970 1_545
Au19 Ge2 2.522185 1_555
Au19 Ge5 2.663998 1_555
Au19 Au5 2.883508 1_555
Au19 Na1 3.070274 1_555
Au19 Au3 3.074418 1_555
Au19 Na2 3.153137 1_555
Au19 Na7 3.203197 1_555
Au19 Na6 3.358970 1_556
Au20 Ge1 2.522185 1_455
Au20 Ge6 2.663998 1_555
Au20 Na0 3.070274 1_555
Au20 Au22 3.074418 1_555
Au20 Au21 3.074418 1_555
Au20 Au8 3.089371 1_555
Au20 Na3 3.153137 1_455
Au20 Na6 3.203197 1_555
Au20 Na7 3.358970 1_555
Au21 Ge7 2.522185 1_554
Au21 Ge6 2.663998 1_555
Au21 Au7 2.883508 1_555
Au21 Na0 3.070274 1_555
Au21 Au22 3.074418 1_555
Au21 Na2 3.153137 1_554
Au21 Na5 3.203197 1_555
Au21 Na6 3.358970 1_555
Au22 Ge0 2.522185 1_545
Au22 Ge6 2.663998 1_555
Au22 Na0 3.070274 1_555
Au22 Au9 3.089371 1_555
Au22 Na1 3.153137 1_545
Au22 Na7 3.203197 1_555
Au22 Na5 3.358970 1_555
Au23 Ge4 2.522185 1_565
Au23 Ge2 2.663998 1_555
Au23 Au4 2.883508 1_565
Au23 Na4 3.070274 1_555
Au23 Au5 3.074418 1_555
Au23 Au6 3.074418 1_555
Au23 Na5 3.153137 1_565
Au23 Na3 3.203197 1_555
Au23 Na1 3.358970 1_555
