# generated using pymatgen
data_ZrGeRh
_symmetry_space_group_name_H-M   'P 1'
_cell_length_a   3.99723883
_cell_length_b   6.63286269
_cell_length_c   7.57274135
_cell_angle_alpha   90.00000000
_cell_angle_beta   90.00000000
_cell_angle_gamma   90.00000000
_symmetry_Int_Tables_number   1
_chemical_formula_structural   ZrGeRh
_chemical_formula_sum   'Zr4 Ge4 Rh4'
_cell_volume   200.77712357
_cell_formula_units_Z   4
loop_
 _symmetry_equiv_pos_site_id
 _symmetry_equiv_pos_as_xyz
  1  'x, y, z'
loop_
 _atom_site_type_symbol
 _atom_site_label
 _atom_site_symmetry_multiplicity
 _atom_site_fract_x
 _atom_site_fract_y
 _atom_site_fract_z
 _atom_site_occupancy
  Zr  Zr0  1  0.25000000  0.02108464  0.80805420  1
  Zr  Zr1  1  0.25000000  0.52108464  0.69194580  1
  Zr  Zr2  1  0.75000000  0.97891536  0.19194580  1
  Zr  Zr3  1  0.75000000  0.47891536  0.30805420  1
  Ge  Ge0  1  0.25000000  0.76641743  0.38569831  1
  Ge  Ge1  1  0.25000000  0.26641743  0.11430169  1
  Ge  Ge2  1  0.75000000  0.23358257  0.61430169  1
  Ge  Ge3  1  0.75000000  0.73358257  0.88569831  1
  Rh  Rh0  1  0.25000000  0.14483188  0.43298717  1
  Rh  Rh1  1  0.25000000  0.64483188  0.06701283  1
  Rh  Rh2  1  0.75000000  0.85516812  0.56701283  1
  Rh  Rh3  1  0.75000000  0.35516812  0.93298717  1
loop_
_geom_bond_atom_site_label_1
_geom_bond_atom_site_label_2
_geom_bond_distance
_geom_bond_site_symmetry_2
Ge0 Rh2 2.495250 1_455
Ge0 Rh2 2.495250 1_555
Ge0 Rh0 2.535389 1_565
Ge0 Rh1 2.544505 1_555
Ge0 Zr3 2.824306 1_455
Ge0 Zr3 2.824306 1_555
Ge0 Zr1 2.833081 1_555
Ge0 Zr2 2.851994 1_455
Ge0 Zr2 2.851994 1_555
Ge1 Rh3 2.495250 1_454
Ge1 Rh3 2.495250 1_554
Ge1 Rh1 2.535389 1_555
Ge1 Rh0 2.544505 1_555
Ge1 Zr2 2.824306 1_545
Ge1 Zr2 2.824306 1_445
Ge1 Zr0 2.833081 1_554
Ge1 Zr3 2.851994 1_455
Ge1 Zr3 2.851994 1_555
Ge2 Rh0 2.495250 1_655
Ge2 Rh0 2.495250 1_555
Ge2 Rh2 2.535389 1_545
Ge2 Rh3 2.544505 1_555
Ge2 Zr1 2.824306 1_655
Ge2 Zr1 2.824306 1_555
Ge2 Zr3 2.833081 1_555
Ge2 Zr0 2.851994 1_655
Ge2 Zr0 2.851994 1_555
Ge3 Rh1 2.495250 1_656
Ge3 Rh1 2.495250 1_556
Ge3 Rh3 2.535389 1_555
Ge3 Rh2 2.544505 1_555
Ge3 Zr0 2.824306 1_665
Ge3 Zr0 2.824306 1_565
Ge3 Zr2 2.833081 1_556
Ge3 Zr1 2.851994 1_655
Ge3 Zr1 2.851994 1_555
Rh0 Zr2 2.921894 1_545
Rh0 Zr2 2.921894 1_445
Rh0 Zr0 2.956507 1_555
Rh0 Zr3 3.130479 1_455
Rh0 Zr3 3.130479 1_555
Rh0 Zr1 3.173926 1_555
Rh1 Zr3 2.921894 1_455
Rh1 Zr3 2.921894 1_555
Rh1 Zr1 2.956507 1_554
Rh1 Zr2 3.130479 1_455
Rh1 Zr2 3.130479 1_555
Rh1 Zr0 3.173926 1_564
Rh2 Zr0 2.921894 1_565
Rh2 Zr0 2.921894 1_665
Rh2 Zr2 2.956507 1_555
Rh2 Zr1 3.130479 1_655
Rh2 Zr1 3.130479 1_555
Rh2 Zr3 3.173926 1_555
Rh3 Zr1 2.921894 1_555
Rh3 Zr1 2.921894 1_655
Rh3 Zr3 2.956507 1_556
Rh3 Zr0 3.130479 1_555
Rh3 Zr0 3.130479 1_655
Rh3 Zr2 3.173926 1_546
