# generated using pymatgen
data_LuTa5Ag2O15
_symmetry_space_group_name_H-M   'P 1'
_cell_length_a   12.57437900
_cell_length_b   12.57437900
_cell_length_c   3.91227600
_cell_angle_alpha   90.00000000
_cell_angle_beta   90.00000000
_cell_angle_gamma   90.00000000
_symmetry_Int_Tables_number   1
_chemical_formula_structural   LuTa5Ag2O15
_chemical_formula_sum   'Lu2 Ta10 Ag4 O30'
_cell_volume   618.58954805
_cell_formula_units_Z   2
loop_
 _symmetry_equiv_pos_site_id
 _symmetry_equiv_pos_as_xyz
  1  'x, y, z'
loop_
 _atom_site_type_symbol
 _atom_site_label
 _atom_site_symmetry_multiplicity
 _atom_site_fract_x
 _atom_site_fract_y
 _atom_site_fract_z
 _atom_site_occupancy
  Lu  Lu0  1  0.00000000  0.00000000  0.50000000  1
  Lu  Lu1  1  0.50000000  0.50000000  0.50000000  1
  Ta  Ta0  1  0.50000000  0.00000000  0.00000000  1
  Ta  Ta1  1  0.00000000  0.50000000  0.00000000  1
  Ta  Ta2  1  0.21046200  0.07868900  0.00000000  1
  Ta  Ta3  1  0.78953800  0.92131100  0.00000000  1
  Ta  Ta4  1  0.07868900  0.78953800  0.00000000  1
  Ta  Ta5  1  0.71046200  0.42131100  0.00000000  1
  Ta  Ta6  1  0.92131100  0.21046200  0.00000000  1
  Ta  Ta7  1  0.28953800  0.57868900  0.00000000  1
  Ta  Ta8  1  0.57868900  0.71046200  0.00000000  1
  Ta  Ta9  1  0.42131100  0.28953800  0.00000000  1
  Ag  Ag0  1  0.67222400  0.17222400  0.50000000  1
  Ag  Ag1  1  0.32777600  0.82777600  0.50000000  1
  Ag  Ag2  1  0.17222400  0.32777600  0.50000000  1
  Ag  Ag3  1  0.82777600  0.67222400  0.50000000  1
  O  O0  1  0.18817600  0.07995700  0.50000000  1
  O  O1  1  0.81182400  0.92004300  0.50000000  1
  O  O2  1  0.07995700  0.81182400  0.50000000  1
  O  O3  1  0.68817600  0.42004300  0.50000000  1
  O  O4  1  0.92004300  0.18817600  0.50000000  1
  O  O5  1  0.31182400  0.57995700  0.50000000  1
  O  O6  1  0.57995700  0.68817600  0.50000000  1
  O  O7  1  0.42004300  0.31182400  0.50000000  1
  O  O8  1  0.22549000  0.72549000  0.00000000  1
  O  O9  1  0.77451000  0.27451000  0.00000000  1
  O  O10  1  0.72549000  0.77451000  0.00000000  1
  O  O11  1  0.27451000  0.22549000  0.00000000  1
  O  O12  1  0.50000000  0.00000000  0.50000000  1
  O  O13  1  0.00000000  0.50000000  0.50000000  1
  O  O14  1  0.05615700  0.12880600  0.00000000  1
  O  O15  1  0.94384300  0.87119400  0.00000000  1
  O  O16  1  0.12880600  0.94384300  0.00000000  1
  O  O17  1  0.55615700  0.37119400  0.00000000  1
  O  O18  1  0.87119400  0.05615700  0.00000000  1
  O  O19  1  0.44384300  0.62880600  0.00000000  1
  O  O20  1  0.62880600  0.55615700  0.00000000  1
  O  O21  1  0.37119400  0.44384300  0.00000000  1
  O  O22  1  0.34075400  0.99856700  0.00000000  1
  O  O23  1  0.65924600  0.00143300  0.00000000  1
  O  O24  1  0.99856700  0.65924600  0.00000000  1
  O  O25  1  0.84075400  0.50143300  0.00000000  1
  O  O26  1  0.00143300  0.34075400  0.00000000  1
  O  O27  1  0.15924600  0.49856700  0.00000000  1
  O  O28  1  0.49856700  0.84075400  0.00000000  1
  O  O29  1  0.50143300  0.15924600  0.00000000  1
loop_
_geom_bond_atom_site_label_1
_geom_bond_atom_site_label_2
_geom_bond_distance
_geom_bond_site_symmetry_2
Lu0 O4 2.570940 1_455
Lu0 O1 2.570940 1_445
Lu0 O0 2.570940 1_555
Lu0 O2 2.570940 1_545
Lu0 O18 2.635980 1_456
Lu0 O18 2.635980 1_455
Lu0 O15 2.635980 1_446
Lu0 O14 2.635980 1_555
Lu0 O15 2.635980 1_445
Lu0 O14 2.635980 1_556
Lu0 O16 2.635980 1_545
Lu0 O16 2.635980 1_546
Lu1 O6 2.570940 1_555
Lu1 O5 2.570940 1_555
Lu1 O7 2.570940 1_555
Lu1 O3 2.570940 1_555
Lu1 O21 2.635980 1_555
Lu1 O21 2.635980 1_556
Lu1 O19 2.635980 1_556
Lu1 O19 2.635980 1_555
Lu1 O20 2.635980 1_556
Lu1 O20 2.635980 1_555
Lu1 O17 2.635980 1_555
Lu1 O17 2.635980 1_556
Ag0 O9 2.671144 1_556
Ag0 O9 2.671144 1_555
Ag1 O8 2.671144 1_555
Ag1 O8 2.671144 1_556
Ag2 O11 2.671144 1_556
Ag2 O11 2.671144 1_555
Ag3 O10 2.671144 1_555
Ag3 O10 2.671144 1_556
O0 Ta2 1.976173 1_555
O0 Ta2 1.976173 1_556
O1 Ta3 1.976173 1_555
O1 Ta3 1.976173 1_556
O2 Ta4 1.976173 1_555
O2 Ta4 1.976173 1_556
O3 Ta5 1.976173 1_555
O3 Ta5 1.976173 1_556
O4 Ta6 1.976173 1_556
O4 Ta6 1.976173 1_555
O5 Ta7 1.976173 1_556
O5 Ta7 1.976173 1_555
O6 Ta8 1.976173 1_555
O6 Ta8 1.976173 1_556
O7 Ta9 1.976173 1_555
O7 Ta9 1.976173 1_556
O8 Ta7 2.013970 1_555
O8 Ta4 2.013970 1_555
O9 Ta6 2.013970 1_555
O9 Ta5 2.013970 1_555
O10 Ta8 2.013970 1_555
O10 Ta3 2.013970 1_555
O11 Ta2 2.013970 1_555
O11 Ta9 2.013970 1_555
O12 Ta0 1.956138 1_556
O12 Ta0 1.956138 1_555
O13 Ta1 1.956138 1_556
O13 Ta1 1.956138 1_555
O14 Ta6 1.982256 1_455
O14 Ta2 2.040065 1_555
O15 Ta4 1.982256 1_655
O15 Ta3 2.040065 1_555
O16 Ta2 1.982256 1_565
O16 Ta4 2.040065 1_555
O17 Ta9 1.982256 1_555
O17 Ta5 2.040065 1_555
O18 Ta3 1.982256 1_545
O18 Ta6 2.040065 1_555
O19 Ta8 1.982256 1_555
O19 Ta7 2.040065 1_555
O20 Ta5 1.982256 1_555
O20 Ta8 2.040065 1_555
O21 Ta7 1.982256 1_555
O21 Ta9 2.040065 1_555
O22 Ta2 1.923327 1_565
O22 Ta0 2.002501 1_565
O23 Ta3 1.923327 1_545
O23 Ta0 2.002501 1_555
O24 Ta4 1.923327 1_655
O24 Ta1 2.002501 1_655
O25 Ta5 1.923327 1_555
O25 Ta1 2.002501 1_655
O26 Ta6 1.923327 1_455
O26 Ta1 2.002501 1_555
O27 Ta7 1.923327 1_555
O27 Ta1 2.002501 1_555
O28 Ta8 1.923327 1_555
O28 Ta0 2.002501 1_565
O29 Ta9 1.923327 1_555
O29 Ta0 2.002501 1_555
