# generated using pymatgen
data_CaLaFeNiO6
_symmetry_space_group_name_H-M   'P 1'
_cell_length_a   5.47442700
_cell_length_b   5.45876178
_cell_length_c   7.71170041
_cell_angle_alpha   89.83936874
_cell_angle_beta   89.99990084
_cell_angle_gamma   89.99750548
_symmetry_Int_Tables_number   1
_chemical_formula_structural   CaLaFeNiO6
_chemical_formula_sum   'Ca2 La2 Fe2 Ni2 O12'
_cell_volume   230.45240975
_cell_formula_units_Z   2
loop_
 _symmetry_equiv_pos_site_id
 _symmetry_equiv_pos_as_xyz
  1  'x, y, z'
loop_
 _atom_site_type_symbol
 _atom_site_label
 _atom_site_symmetry_multiplicity
 _atom_site_fract_x
 _atom_site_fract_y
 _atom_site_fract_z
 _atom_site_occupancy
  Ca  Ca0  1  0.54104400  0.50915000  0.24969500  1
  Ca  Ca1  1  0.95896600  0.00913400  0.74972400  1
  La  La0  1  0.02891500  0.99418000  0.25023300  1
  La  La1  1  0.47107800  0.49419600  0.75027200  1
  Fe  Fe0  1  0.50040300  0.99968800  0.00038800  1
  Fe  Fe1  1  0.99958500  0.49970600  0.50047400  1
  Ni  Ni0  1  0.49838200  0.99993200  0.49930800  1
  Ni  Ni1  1  0.00156800  0.49991900  0.99935200  1
  O  O0  1  0.01330200  0.57787900  0.74499300  1
  O  O1  1  0.22056400  0.20812400  0.95816700  1
  O  O2  1  0.20953000  0.22067400  0.54098200  1
  O  O3  1  0.29047900  0.72068000  0.04097400  1
  O  O4  1  0.27942700  0.70815900  0.45814700  1
  O  O5  1  0.48671000  0.07793300  0.24495100  1
  O  O6  1  0.51681900  0.93148000  0.75482300  1
  O  O7  1  0.72405300  0.28512900  0.53761800  1
  O  O8  1  0.71658000  0.27367000  0.96372500  1
  O  O9  1  0.78343100  0.77367800  0.46371800  1
  O  O10  1  0.77596300  0.78519600  0.03760000  1
  O  O11  1  0.98320400  0.43149300  0.25485000  1
loop_
_geom_bond_atom_site_label_1
_geom_bond_atom_site_label_2
_geom_bond_distance
_geom_bond_site_symmetry_2
Ca0 O5 2.373026 1_555
Ca0 O3 2.407304 1_555
Ca0 O4 2.413527 1_555
Ca0 O11 2.457696 1_555
Ca0 O9 2.565832 1_555
Ca0 O10 2.566348 1_555
Ca0 O7 2.722851 1_555
Ca0 O8 2.730378 1_554
Ca1 O0 2.373206 1_645
Ca1 O2 2.407490 1_655
Ca1 O1 2.413432 1_655
Ca1 O6 2.457653 1_545
Ca1 O8 2.565676 1_555
Ca1 O7 2.566160 1_555
Ca1 O10 2.722378 1_546
Ca1 O9 2.730581 1_545
La0 O11 2.400620 1_465
La0 O10 2.432785 1_455
La0 O9 2.440138 1_455
La0 O5 2.547850 1_565
La0 O4 2.622035 1_555
La0 O3 2.626179 1_555
La0 O1 2.742807 1_564
La0 O2 2.747592 1_565
La1 O6 2.400493 1_555
La1 O7 2.433120 1_555
La1 O8 2.440036 1_555
La1 O0 2.547640 1_555
La1 O1 2.622185 1_555
La1 O2 2.626421 1_555
La1 O4 2.743193 1_555
La1 O3 2.747198 1_556
Fe0 O8 1.927457 1_564
Fe0 O10 1.930518 1_555
Fe0 O3 1.932816 1_555
Fe0 O6 1.933092 1_554
Fe0 O1 1.935271 1_564
Fe0 O5 1.936375 1_565
Fe1 O9 1.927362 1_555
Fe1 O7 1.930682 1_555
Fe1 O2 1.932813 1_655
Fe1 O11 1.933537 1_555
Fe1 O4 1.935553 1_655
Fe1 O0 1.935963 1_655
Ni0 O5 2.007056 1_565
Ni0 O6 2.007081 1_555
Ni0 O9 2.009365 1_555
Ni0 O7 2.009972 1_565
Ni0 O2 2.014390 1_565
Ni0 O4 2.019228 1_555
Ni1 O11 2.006907 1_456
Ni1 O0 2.007036 1_555
Ni1 O8 2.009212 1_455
Ni1 O10 2.009933 1_456
Ni1 O3 2.014724 1_556
Ni1 O1 2.019403 1_555
