# generated using pymatgen
data_LiEu6B3O14
_symmetry_space_group_name_H-M   'P 1'
_cell_length_a   8.68795497
_cell_length_b   9.20054185
_cell_length_c   16.06728662
_cell_angle_alpha   90.01299124
_cell_angle_beta   90.01193669
_cell_angle_gamma   92.63419754
_symmetry_Int_Tables_number   1
_chemical_formula_structural   LiEu6B3O14
_chemical_formula_sum   'Li4 Eu24 B12 O56'
_cell_volume   1282.96358937
_cell_formula_units_Z   4
loop_
 _symmetry_equiv_pos_site_id
 _symmetry_equiv_pos_as_xyz
  1  'x, y, z'
loop_
 _atom_site_type_symbol
 _atom_site_label
 _atom_site_symmetry_multiplicity
 _atom_site_fract_x
 _atom_site_fract_y
 _atom_site_fract_z
 _atom_site_occupancy
  Li  Li0  1  0.67959737  0.56044002  0.39611528  1
  Li  Li1  1  0.32039296  0.43959167  0.60393285  1
  Li  Li2  1  0.82033123  0.93960747  0.89608295  1
  Li  Li3  1  0.17970149  0.06044344  0.10390955  1
  Eu  Eu0  1  0.14135588  0.69609087  0.17752351  1
  Eu  Eu1  1  0.85863009  0.30387822  0.82243639  1
  Eu  Eu2  1  0.35885279  0.80379942  0.67758541  1
  Eu  Eu3  1  0.64143720  0.19618429  0.32256131  1
  Eu  Eu4  1  0.95893562  0.95010102  0.67563588  1
  Eu  Eu5  1  0.04110789  0.05001977  0.32440106  1
  Eu  Eu6  1  0.54094567  0.54989801  0.17566413  1
  Eu  Eu7  1  0.45905463  0.44991841  0.82432340  1
  Eu  Eu8  1  0.73040610  0.57664128  0.64448358  1
  Eu  Eu9  1  0.26949214  0.42329735  0.35557206  1
  Eu  Eu10  1  0.76948875  0.92322930  0.14443638  1
  Eu  Eu11  1  0.23053046  0.07682761  0.85556446  1
  Eu  Eu12  1  0.05295392  0.71501081  0.48658959  1
  Eu  Eu13  1  0.94712682  0.28488569  0.51344044  1
  Eu  Eu14  1  0.44705615  0.78496309  0.98652823  1
  Eu  Eu15  1  0.55284397  0.21499884  0.01339741  1
  Eu  Eu16  1  0.70074950  0.93520428  0.49550254  1
  Eu  Eu17  1  0.29932588  0.06484771  0.50450631  1
  Eu  Eu18  1  0.79921021  0.56472764  0.99542673  1
  Eu  Eu19  1  0.20076969  0.43514650  0.00444973  1
  Eu  Eu20  1  0.42235478  0.83147439  0.33469520  1
  Eu  Eu21  1  0.57762867  0.16846084  0.66537125  1
  Eu  Eu22  1  0.07756694  0.66825238  0.83470649  1
  Eu  Eu23  1  0.92253699  0.33179278  0.16523151  1
  B  B0  1  0.42976831  0.97298979  0.17323897  1
  B  B1  1  0.57020830  0.02702050  0.82670533  1
  B  B2  1  0.07020084  0.52705972  0.67333105  1
  B  B3  1  0.92996804  0.47301836  0.32671791  1
  B  B4  1  0.06378097  0.85534854  0.00068607  1
  B  B5  1  0.93613475  0.14461975  0.99926301  1
  B  B6  1  0.43610602  0.64461206  0.50071918  1
  B  B7  1  0.56387387  0.35535719  0.49935676  1
  B  B8  1  0.82017602  0.77901111  0.30682714  1
  B  B9  1  0.17989241  0.22101837  0.69323542  1
  B  B10  1  0.67986620  0.72097559  0.80682407  1
  B  B11  1  0.32010593  0.27900473  0.19313643  1
  O  O0  1  0.93688832  0.82213886  0.25034117  1
  O  O1  1  0.06315706  0.17786275  0.74964378  1
  O  O2  1  0.56308205  0.67790424  0.75034079  1
  O  O3  1  0.43692572  0.32207927  0.24967698  1
  O  O4  1  0.70493960  0.40277266  0.53249016  1
  O  O5  1  0.29506180  0.59722630  0.46752192  1
  O  O6  1  0.79499610  0.09715300  0.03252038  1
  O  O7  1  0.20507336  0.90283920  0.96748545  1
  O  O8  1  0.84415775  0.78104000  0.57897360  1
  O  O9  1  0.15584943  0.21890713  0.42103927  1
  O  O10  1  0.65583560  0.71908413  0.07899499  1
  O  O11  1  0.34412304  0.28102403  0.92099727  1
  O  O12  1  0.03113245  0.88208777  0.08318397  1
  O  O13  1  0.96883882  0.11791762  0.91681737  1
  O  O14  1  0.46877902  0.61791113  0.58316074  1
  O  O15  1  0.53122609  0.38204975  0.41681862  1
  O  O16  1  0.46416439  0.99013905  0.09001850  1
  O  O17  1  0.53582429  0.00983262  0.90997557  1
  O  O18  1  0.03586296  0.50985644  0.59002960  1
  O  O19  1  0.96409668  0.49014435  0.40995864  1
  O  O20  1  0.28680433  0.92581223  0.20340014  1
  O  O21  1  0.71317386  0.07421080  0.79661295  1
  O  O22  1  0.21313161  0.57419529  0.70335145  1
  O  O23  1  0.78676494  0.42571777  0.29661659  1
  O  O24  1  0.45717335  0.28209211  0.54981527  1
  O  O25  1  0.54287728  0.71797135  0.45015185  1
  O  O26  1  0.04286286  0.21797332  0.04987569  1
  O  O27  1  0.95719588  0.78210688  0.95017474  1
  O  O28  1  0.19322252  0.89757265  0.40209748  1
  O  O29  1  0.80673445  0.10242632  0.59790584  1
  O  O30  1  0.30674095  0.60254231  0.90211056  1
  O  O31  1  0.69328572  0.39750989  0.09793327  1
  O  O32  1  0.00892651  0.53269015  0.08924783  1
  O  O33  1  0.99115696  0.46733186  0.91076250  1
  O  O34  1  0.49106066  0.96734744  0.58923844  1
  O  O35  1  0.50887629  0.03273098  0.41070776  1
  O  O36  1  0.16341140  0.87555163  0.58575474  1
  O  O37  1  0.83655058  0.12442865  0.41417961  1
  O  O38  1  0.33664120  0.62444344  0.08576715  1
  O  O39  1  0.66329741  0.37563488  0.91417274  1
  O  O40  1  0.15323535  0.87679312  0.76827493  1
  O  O41  1  0.84669475  0.12312942  0.23172698  1
  O  O42  1  0.34681749  0.62328515  0.26829126  1
  O  O43  1  0.65319737  0.37674850  0.73166557  1
  O  O44  1  0.82110098  0.76995365  0.77611139  1
  O  O45  1  0.17881833  0.23000126  0.22393201  1
  O  O46  1  0.67887778  0.73005187  0.27609406  1
  O  O47  1  0.32103139  0.26998801  0.72389928  1
  O  O48  1  0.85013108  0.79862395  0.39064668  1
  O  O49  1  0.14981591  0.20138499  0.60935039  1
  O  O50  1  0.64977039  0.70139956  0.89066339  1
  O  O51  1  0.35019983  0.29861578  0.10933690  1
  O  O52  1  0.54717055  0.99667788  0.23094704  1
  O  O53  1  0.45283505  0.00334051  0.76905324  1
  O  O54  1  0.95286559  0.50334631  0.73096690  1
  O  O55  1  0.04706944  0.49663099  0.26905964  1
loop_
_geom_bond_atom_site_label_1
_geom_bond_atom_site_label_2
_geom_bond_distance
_geom_bond_site_symmetry_2
Li0 O15 2.066897 1_555
Li0 O25 2.103214 1_555
Li0 O23 2.250522 1_555
Li0 O46 2.481191 1_555
Li1 O14 2.066653 1_555
Li1 O24 2.103855 1_555
Li1 O22 2.249345 1_555
Li1 O47 2.480437 1_555
Li2 O13 2.066903 1_565
Li2 O27 2.104194 1_555
Li2 O21 2.249656 1_565
Li2 O44 2.480279 1_555
Li3 O12 2.067514 1_545
Li3 O26 2.103868 1_555
Li3 O20 2.249829 1_545
Li3 O45 2.480391 1_555
Eu0 O32 2.331300 1_555
Eu0 O38 2.364315 1_555
Eu0 O42 2.423065 1_555
Eu0 O20 2.447591 1_555
Eu0 O0 2.461506 1_455
Eu0 O55 2.462797 1_555
Eu0 O12 2.508839 1_555
Eu1 O33 2.332489 1_555
Eu1 O39 2.364728 1_555
Eu1 O43 2.423092 1_555
Eu1 O21 2.447061 1_555
Eu1 O1 2.461548 1_655
Eu1 O54 2.462080 1_555
Eu1 O13 2.508955 1_555
Eu2 O34 2.332655 1_555
Eu2 O36 2.366096 1_555
Eu2 O40 2.424126 1_555
Eu2 O22 2.447766 1_555
Eu2 O2 2.458681 1_555
Eu2 O53 2.461199 1_565
Eu2 O14 2.507674 1_555
Eu3 O35 2.331576 1_555
Eu3 O37 2.361898 1_555
Eu3 O41 2.423358 1_555
Eu3 O23 2.446078 1_555
Eu3 O3 2.461488 1_555
Eu3 O52 2.463107 1_545
Eu3 O15 2.506923 1_555
Eu4 O29 2.332998 1_565
Eu4 O40 2.371509 1_655
Eu4 O8 2.383615 1_555
Eu4 O36 2.413400 1_655
Eu4 O1 2.539511 1_665
Eu4 O44 2.570394 1_555
Eu5 O28 2.332965 1_545
Eu5 O41 2.371998 1_455
Eu5 O9 2.382229 1_555
Eu5 O37 2.412534 1_455
Eu5 O0 2.540783 1_445
Eu5 O45 2.568907 1_555
Eu6 O31 2.334040 1_555
Eu6 O42 2.370789 1_555
Eu6 O10 2.385524 1_555
Eu6 O38 2.412169 1_555
Eu6 O3 2.540036 1_555
Eu6 O46 2.569556 1_555
Eu7 O30 2.335748 1_555
Eu7 O43 2.370557 1_555
Eu7 O11 2.384015 1_555
Eu7 O39 2.410543 1_555
Eu7 O2 2.541073 1_555
Eu7 O47 2.568562 1_555
Eu8 O8 2.334877 1_555
Eu8 O43 2.383834 1_555
Eu8 O4 2.410787 1_555
Eu8 O2 2.449270 1_555
Eu8 O54 2.498022 1_555
Eu8 O14 2.521922 1_555
Eu8 O44 2.850579 1_555
Eu8 O18 2.887264 1_655
Eu9 O9 2.334140 1_555
Eu9 O42 2.385680 1_555
Eu9 O5 2.410685 1_555
Eu9 O3 2.450106 1_555
Eu9 O55 2.498140 1_555
Eu9 O15 2.522248 1_555
Eu9 O45 2.850588 1_555
Eu9 O19 2.886587 1_455
Eu10 O10 2.331646 1_555
Eu10 O41 2.384251 1_565
Eu10 O6 2.410824 1_565
Eu10 O0 2.449428 1_555
Eu10 O52 2.498011 1_555
Eu10 O12 2.521688 1_655
Eu10 O46 2.850838 1_555
Eu10 O16 2.886062 1_555
Eu11 O11 2.331751 1_555
Eu11 O40 2.385369 1_545
Eu11 O7 2.411250 1_545
Eu11 O1 2.449260 1_555
Eu11 O53 2.498032 1_555
Eu11 O13 2.521979 1_455
Eu11 O47 2.850595 1_555
Eu11 O17 2.885984 1_555
Eu12 O36 2.347189 1_555
Eu12 O5 2.429455 1_555
Eu12 O28 2.441910 1_555
Eu12 O8 2.442342 1_455
Eu12 O48 2.489420 1_455
Eu12 O19 2.498781 1_455
Eu12 O18 2.514524 1_555
Eu13 O37 2.348155 1_555
Eu13 O4 2.430488 1_555
Eu13 O29 2.441548 1_555
Eu13 O9 2.441896 1_655
Eu13 O49 2.487900 1_655
Eu13 O18 2.498946 1_655
Eu13 O19 2.515660 1_555
Eu14 O38 2.348461 1_556
Eu14 O7 2.428803 1_555
Eu14 O30 2.439866 1_555
Eu14 O10 2.442358 1_556
Eu14 O50 2.488045 1_555
Eu14 O17 2.498595 1_565
Eu14 O16 2.514603 1_556
Eu15 O39 2.349086 1_554
Eu15 O6 2.430133 1_555
Eu15 O11 2.441704 1_554
Eu15 O31 2.441988 1_555
Eu15 O51 2.488516 1_555
Eu15 O16 2.498856 1_545
Eu15 O17 2.513791 1_554
Eu16 O8 2.350632 1_555
Eu16 O35 2.361626 1_565
Eu16 O34 2.392705 1_555
Eu16 O29 2.406263 1_565
Eu16 O37 2.437857 1_565
Eu16 O25 2.480683 1_555
Eu16 O48 2.500330 1_555
Eu17 O9 2.350320 1_555
Eu17 O34 2.360075 1_545
Eu17 O35 2.392379 1_555
Eu17 O28 2.406990 1_545
Eu17 O36 2.438117 1_545
Eu17 O24 2.480458 1_555
Eu17 O49 2.500599 1_555
Eu18 O10 2.352400 1_556
Eu18 O33 2.360549 1_555
Eu18 O32 2.393203 1_656
Eu18 O31 2.407927 1_556
Eu18 O39 2.436177 1_555
Eu18 O27 2.482210 1_555
Eu18 O50 2.500067 1_555
Eu19 O11 2.349883 1_554
Eu19 O32 2.361698 1_555
Eu19 O33 2.391374 1_454
Eu19 O30 2.407250 1_554
Eu19 O38 2.437861 1_555
Eu19 O26 2.481199 1_555
Eu19 O51 2.500677 1_555
Eu20 O42 2.263012 1_555
Eu20 O35 2.314301 1_565
Eu20 O28 2.370103 1_555
Eu20 O25 2.393497 1_555
Eu20 O52 2.472917 1_555
Eu20 O20 2.585382 1_555
Eu20 O46 2.629801 1_555
Eu21 O43 2.263006 1_555
Eu21 O34 2.314403 1_545
Eu21 O29 2.370198 1_555
Eu21 O24 2.395006 1_555
Eu21 O53 2.471666 1_555
Eu21 O21 2.584373 1_555
Eu21 O47 2.630317 1_555
Eu22 O40 2.266740 1_555
Eu22 O33 2.312572 1_455
Eu22 O30 2.369120 1_555
Eu22 O27 2.394488 1_455
Eu22 O54 2.470021 1_455
Eu22 O22 2.585387 1_555
Eu22 O44 2.630169 1_455
Eu23 O41 2.268544 1_555
Eu23 O32 2.311740 1_655
Eu23 O31 2.368935 1_555
Eu23 O26 2.392762 1_655
Eu23 O55 2.470009 1_655
Eu23 O23 2.586198 1_555
Eu23 O45 2.629719 1_655
B0 O16 1.377691 1_555
B0 O20 1.384474 1_555
B0 O52 1.388046 1_555
B1 O17 1.378482 1_555
B1 O21 1.384131 1_555
B1 O53 1.387253 1_555
B2 O18 1.378709 1_555
B2 O22 1.383074 1_555
B2 O54 1.387226 1_455
B3 O19 1.377305 1_555
B3 O55 1.385875 1_655
B3 O23 1.386030 1_555
B4 O12 1.380000 1_555
B4 O27 1.382868 1_454
B4 O7 1.390473 1_554
B5 O13 1.379233 1_555
B5 O26 1.385097 1_656
B5 O6 1.389603 1_556
B6 O14 1.379103 1_555
B6 O25 1.385342 1_555
B6 O5 1.388044 1_555
B7 O15 1.380533 1_555
B7 O24 1.383523 1_555
B7 O4 1.387887 1_555
B8 O46 1.379328 1_555
B8 O48 1.381832 1_555
B8 O0 1.404594 1_555
B9 O47 1.377747 1_555
B9 O49 1.383073 1_555
B9 O1 1.403995 1_555
B10 O44 1.379034 1_555
B10 O50 1.382510 1_555
B10 O2 1.404491 1_555
B11 O45 1.379979 1_555
B11 O51 1.381923 1_555
B11 O3 1.405312 1_555
