# generated using pymatgen
data_Dy2Al3Co
_symmetry_space_group_name_H-M   'P 1'
_cell_length_a   5.37792947
_cell_length_b   5.37792947
_cell_length_c   5.37792989
_cell_angle_alpha   61.21862316
_cell_angle_beta   61.21862316
_cell_angle_gamma   61.21862089
_symmetry_Int_Tables_number   1
_chemical_formula_structural   Dy2Al3Co
_chemical_formula_sum   'Dy2 Al3 Co1'
_cell_volume   112.99870400
_cell_formula_units_Z   1
loop_
 _symmetry_equiv_pos_site_id
 _symmetry_equiv_pos_as_xyz
  1  'x, y, z'
loop_
 _atom_site_type_symbol
 _atom_site_label
 _atom_site_symmetry_multiplicity
 _atom_site_fract_x
 _atom_site_fract_y
 _atom_site_fract_z
 _atom_site_occupancy
  Dy  Dy0  1  0.62651900  0.62651900  0.62651900  1
  Dy  Dy1  1  0.37348100  0.37348100  0.37348100  1
  Al  Al0  1  0.00000000  0.50000000  0.00000000  1
  Al  Al1  1  0.50000000  0.00000000  0.00000000  1
  Al  Al2  1  0.00000000  0.00000000  0.50000000  1
  Co  Co0  1  0.00000000  0.00000000  0.00000000  1
loop_
_geom_bond_atom_site_label_1
_geom_bond_atom_site_label_2
_geom_bond_distance
_geom_bond_site_symmetry_2
Dy0 Dy1 3.302286 1_555
Dy0 Dy1 3.331082 1_655
Dy0 Dy1 3.331082 1_565
Dy0 Dy1 3.331082 1_556
Al0 Co0 2.688965 1_565
Al0 Co0 2.688965 1_555
Al0 Al1 2.738341 1_555
Al0 Al1 2.738341 1_465
Al0 Al2 2.738341 1_555
Al0 Al2 2.738341 1_564
Al0 Dy1 3.127992 1_555
Al0 Dy0 3.127992 1_454
Al0 Dy0 3.197622 1_554
Al0 Dy1 3.197622 1_455
Al0 Dy0 3.197622 1_455
Al0 Dy1 3.197622 1_554
Al1 Co0 2.688965 1_655
Al1 Co0 2.688965 1_555
Al1 Al2 2.738341 1_555
Al1 Al2 2.738341 1_654
Al1 Dy1 3.127992 1_555
Al1 Dy0 3.127992 1_544
Al1 Dy0 3.197622 1_554
Al1 Dy1 3.197622 1_545
Al1 Dy0 3.197622 1_545
Al1 Dy1 3.197622 1_554
Al2 Co0 2.688965 1_555
Al2 Co0 2.688965 1_556
Al2 Dy1 3.127992 1_555
Al2 Dy0 3.127992 1_445
Al2 Dy0 3.197622 1_545
Al2 Dy0 3.197622 1_455
Al2 Dy1 3.197622 1_545
Al2 Dy1 3.197622 1_455
Co0 Dy1 3.205080 1_455
Co0 Dy1 3.205080 1_545
Co0 Dy0 3.205080 1_454
Co0 Dy0 3.205080 1_544
Co0 Dy1 3.205080 1_554
Co0 Dy0 3.205080 1_445
