# generated using pymatgen
data_Li6Mn3CoO10
_symmetry_space_group_name_H-M   'P 1'
_cell_length_a   7.78401724
_cell_length_b   7.78401724
_cell_length_c   8.61283738
_cell_angle_alpha   73.33349738
_cell_angle_beta   73.33349738
_cell_angle_gamma   21.18700785
_symmetry_Int_Tables_number   1
_chemical_formula_structural   Li6Mn3CoO10
_chemical_formula_sum   'Li6 Mn3 Co1 O10'
_cell_volume   180.40021902
_cell_formula_units_Z   1
loop_
 _symmetry_equiv_pos_site_id
 _symmetry_equiv_pos_as_xyz
  1  'x, y, z'
loop_
 _atom_site_type_symbol
 _atom_site_label
 _atom_site_symmetry_multiplicity
 _atom_site_fract_x
 _atom_site_fract_y
 _atom_site_fract_z
 _atom_site_occupancy
  Li  Li0  1  0.59282900  0.59282900  0.70917200  1
  Li  Li1  1  0.80226400  0.80226400  0.07671700  1
  Li  Li2  1  0.99552200  0.99552200  0.53073000  1
  Li  Li3  1  0.20723600  0.20723600  0.88642700  1
  Li  Li4  1  0.39941700  0.39941700  0.30421400  1
  Li  Li5  1  0.40006800  0.40006800  0.79524300  1
  Mn  Mn0  1  0.99611800  0.99611800  0.98420600  1
  Mn  Mn1  1  0.20018800  0.20018800  0.41101100  1
  Mn  Mn2  1  0.60054300  0.60054300  0.19261600  1
  Co  Co0  1  0.80350800  0.80350800  0.61408200  1
  O  O0  1  0.58633200  0.58633200  0.94800300  1
  O  O1  1  0.79267800  0.79267800  0.37579500  1
  O  O2  1  0.99935500  0.99935500  0.76989500  1
  O  O3  1  0.19289300  0.19289300  0.14881400  1
  O  O4  1  0.39055900  0.39055900  0.55273200  1
  O  O5  1  0.60817600  0.60817600  0.45230500  1
  O  O6  1  0.80149200  0.80149200  0.82420800  1
  O  O7  1  0.00837500  0.00837500  0.22587400  1
  O  O8  1  0.21574900  0.21574900  0.65007900  1
  O  O9  1  0.40669800  0.40669800  0.04787700  1
loop_
_geom_bond_atom_site_label_1
_geom_bond_atom_site_label_2
_geom_bond_distance
_geom_bond_site_symmetry_2
Li0 O2 1.982632 1_545
Li0 O2 1.982632 1_455
Li0 O0 2.030232 1_555
Li0 O5 2.155567 1_555
Li0 O8 2.299210 1_655
Li0 O8 2.299210 1_565
Li1 O9 2.105194 1_565
Li1 O9 2.105194 1_655
Li1 O3 2.151301 1_655
Li1 O3 2.151301 1_565
Li1 O6 2.178295 1_554
Li1 O1 2.536992 1_555
Li2 O2 2.077761 1_555
Li2 O4 2.118023 1_565
Li2 O4 2.118023 1_655
Li2 O5 2.190071 1_655
Li2 O5 2.190071 1_565
Li2 O7 2.575168 1_665
Li3 O6 1.991069 1_545
Li3 O6 1.991069 1_455
Li3 O8 2.001499 1_555
Li3 O3 2.205869 1_556
Li3 O0 2.275864 1_455
Li3 O0 2.275864 1_545
Li4 O4 2.104892 1_555
Li4 O1 2.123259 1_545
Li4 O1 2.123259 1_455
Li4 O7 2.150958 1_655
Li4 O7 2.150958 1_565
Li4 O9 2.177889 1_555
Li5 O6 2.041064 1_455
Li5 O6 2.041064 1_545
Li5 O2 2.051913 1_455
Li5 O2 2.051913 1_545
Li5 O4 2.135705 1_555
Li5 O9 2.207632 1_556
Mn0 O2 1.831986 1_555
Mn0 O9 1.945010 1_656
Mn0 O9 1.945010 1_566
Mn0 O0 1.949271 1_655
Mn0 O0 1.949271 1_565
Mn0 O7 2.143694 1_666
Mn1 O5 1.965863 1_545
Mn1 O5 1.965863 1_455
Mn1 O1 1.972940 1_545
Mn1 O1 1.972940 1_455
Mn1 O8 2.140684 1_555
Mn1 O3 2.293319 1_555
Mn2 O3 1.968795 1_565
Mn2 O3 1.968795 1_655
Mn2 O7 1.970628 1_565
Mn2 O7 1.970628 1_655
Mn2 O0 2.180208 1_554
Mn2 O5 2.273487 1_555
Co0 O6 1.801022 1_555
Co0 O4 1.921141 1_565
Co0 O4 1.921141 1_655
Co0 O8 1.924699 1_565
Co0 O8 1.924699 1_655
Co0 O1 2.106655 1_555
