# generated using pymatgen
data_Ba4Li2(CdP2)3
_symmetry_space_group_name_H-M   'P 1'
_cell_length_a   10.28560178
_cell_length_b   10.28560178
_cell_length_c   16.96742100
_cell_angle_alpha   90.00000000
_cell_angle_beta   90.00000000
_cell_angle_gamma   154.63154792
_symmetry_Int_Tables_number   1
_chemical_formula_structural   Ba4Li2(CdP2)3
_chemical_formula_sum   'Ba8 Li4 Cd6 P12'
_cell_volume   769.06474844
_cell_formula_units_Z   2
loop_
 _symmetry_equiv_pos_site_id
 _symmetry_equiv_pos_as_xyz
  1  'x, y, z'
loop_
 _atom_site_type_symbol
 _atom_site_label
 _atom_site_symmetry_multiplicity
 _atom_site_fract_x
 _atom_site_fract_y
 _atom_site_fract_z
 _atom_site_occupancy
  Ba  Ba0  1  0.98378500  0.01621500  0.37771800  1
  Ba  Ba1  1  0.01621500  0.98378500  0.62228200  1
  Ba  Ba2  1  0.98378500  0.01621500  0.12228200  1
  Ba  Ba3  1  0.01621500  0.98378500  0.87771800  1
  Ba  Ba4  1  0.82841300  0.17158700  0.93158400  1
  Ba  Ba5  1  0.17158700  0.82841300  0.06841600  1
  Ba  Ba6  1  0.82841300  0.17158700  0.56841600  1
  Ba  Ba7  1  0.17158700  0.82841300  0.43158400  1
  Li  Li0  1  0.84920900  0.15079100  0.25000000  1
  Li  Li1  1  0.15079100  0.84920900  0.75000000  1
  Li  Li2  1  0.56299600  0.43700400  0.25000000  1
  Li  Li3  1  0.43700400  0.56299600  0.75000000  1
  Cd  Cd0  1  0.34950500  0.65049500  0.37434300  1
  Cd  Cd1  1  0.65049500  0.34950500  0.62565700  1
  Cd  Cd2  1  0.34950500  0.65049500  0.12565700  1
  Cd  Cd3  1  0.65049500  0.34950500  0.87434300  1
  Cd  Cd4  1  0.70385700  0.29614300  0.25000000  1
  Cd  Cd5  1  0.29614300  0.70385700  0.75000000  1
  P  P0  1  0.78052700  0.21947300  0.38154600  1
  P  P1  1  0.21947300  0.78052700  0.61845400  1
  P  P2  1  0.78052700  0.21947300  0.11845400  1
  P  P3  1  0.21947300  0.78052700  0.88154600  1
  P  P4  1  0.55584900  0.44415100  0.48882200  1
  P  P5  1  0.44415100  0.55584900  0.51117800  1
  P  P6  1  0.55584900  0.44415100  0.01117800  1
  P  P7  1  0.44415100  0.55584900  0.98882200  1
  P  P8  1  0.43032300  0.56967700  0.25000000  1
  P  P9  1  0.56967700  0.43032300  0.75000000  1
  P  P10  1  0.12034200  0.87965800  0.25000000  1
  P  P11  1  0.87965800  0.12034200  0.75000000  1
loop_
_geom_bond_atom_site_label_1
_geom_bond_atom_site_label_2
_geom_bond_distance
_geom_bond_site_symmetry_2
Ba0 P4 3.278145 1_655
Ba0 P4 3.278145 1_545
Ba0 P5 3.295648 1_655
Ba0 P5 3.295648 1_545
Ba0 P8 3.308783 1_545
Ba0 P8 3.308783 1_655
Ba0 Li0 3.462738 1_555
Ba0 P10 3.493836 1_645
Ba0 Li2 3.510555 1_545
Ba0 Li2 3.510555 1_655
Ba0 Cd0 3.516599 1_545
Ba0 Cd0 3.516599 1_655
Ba1 P5 3.278145 1_565
Ba1 P5 3.278145 1_455
Ba1 P4 3.295648 1_565
Ba1 P4 3.295648 1_455
Ba1 P9 3.308783 1_455
Ba1 P9 3.308783 1_565
Ba1 Li1 3.462738 1_555
Ba1 P11 3.493836 1_465
Ba1 Li3 3.510555 1_455
Ba1 Li3 3.510555 1_565
Ba1 Cd1 3.516599 1_565
Ba1 Cd1 3.516599 1_455
Ba2 P6 3.278145 1_655
Ba2 P6 3.278145 1_545
Ba2 P7 3.295648 1_654
Ba2 P7 3.295648 1_544
Ba2 P8 3.308783 1_545
Ba2 P8 3.308783 1_655
Ba2 Li0 3.462738 1_555
Ba2 P10 3.493836 1_645
Ba2 Li2 3.510555 1_545
Ba2 Li2 3.510555 1_655
Ba2 Cd2 3.516599 1_655
Ba2 Cd2 3.516599 1_545
Ba3 P7 3.278145 1_565
Ba3 P7 3.278145 1_455
Ba3 P6 3.295648 1_566
Ba3 P6 3.295648 1_456
Ba3 P9 3.308783 1_455
Ba3 P9 3.308783 1_565
Ba3 Li1 3.462738 1_555
Ba3 P11 3.493836 1_465
Ba3 Li3 3.510555 1_455
Ba3 Li3 3.510555 1_565
Ba3 Cd3 3.516599 1_455
Ba3 Cd3 3.516599 1_565
Ba4 P11 3.248128 1_555
Ba4 P3 3.256018 1_545
Ba4 P3 3.256018 1_655
Ba4 P2 3.313146 1_556
Ba4 P7 3.382188 1_655
Ba4 P7 3.382188 1_545
Ba5 P10 3.248128 1_555
Ba5 P2 3.256018 1_565
Ba5 P2 3.256018 1_455
Ba5 P3 3.313146 1_554
Ba5 P6 3.382188 1_565
Ba5 P6 3.382188 1_455
Ba6 P11 3.248128 1_555
Ba6 P1 3.256018 1_545
Ba6 P1 3.256018 1_655
Ba6 P0 3.313146 1_555
Ba6 P5 3.382188 1_655
Ba6 P5 3.382188 1_545
Ba7 P10 3.248128 1_555
Ba7 P0 3.256018 1_455
Ba7 P0 3.256018 1_565
Ba7 P1 3.313146 1_555
Ba7 P4 3.382188 1_565
Ba7 P4 3.382188 1_455
Li0 P0 2.623312 1_555
Li0 P2 2.623312 1_555
Li0 P8 2.784025 1_545
Li0 P8 2.784025 1_655
Li1 P3 2.623312 1_555
Li1 P1 2.623312 1_555
Li1 P9 2.784025 1_455
Li1 P9 2.784025 1_565
Li2 P10 2.534819 1_655
Li2 P10 2.534819 1_545
Li2 P8 2.662636 1_555
Li3 P11 2.534819 1_565
Li3 P11 2.534819 1_455
Li3 P9 2.662636 1_555
Cd0 P0 2.651806 1_455
Cd0 P0 2.651806 1_565
Cd0 P8 2.661183 1_555
Cd0 P5 2.999739 1_555
Cd1 P1 2.651806 1_545
Cd1 P1 2.651806 1_655
Cd1 P9 2.661183 1_555
Cd1 P4 2.999739 1_555
Cd2 P2 2.651806 1_455
Cd2 P2 2.651806 1_565
Cd2 P8 2.661183 1_555
Cd2 P7 2.999739 1_554
Cd3 P3 2.651806 1_545
Cd3 P3 2.651806 1_655
Cd3 P9 2.661183 1_555
Cd3 P6 2.999739 1_556
Cd4 P0 2.710980 1_555
Cd4 P2 2.710980 1_555
Cd4 P10 2.812472 1_655
Cd4 P10 2.812472 1_545
Cd4 Li2 2.826963 1_555
Cd4 Li0 2.917093 1_555
Cd5 P3 2.710980 1_555
Cd5 P1 2.710980 1_555
Cd5 P11 2.812472 1_565
Cd5 P11 2.812472 1_455
Cd5 Li3 2.826963 1_555
Cd5 Li1 2.917093 1_555
P4 P5 2.273552 1_555
P6 P7 2.273552 1_554
