# generated using pymatgen
data_Mg2Ta2Mn2O9
_symmetry_space_group_name_H-M   'P 1'
_cell_length_a   5.29941027
_cell_length_b   5.29941027
_cell_length_c   14.44829600
_cell_angle_alpha   90.00000000
_cell_angle_beta   90.00000000
_cell_angle_gamma   120.00000340
_symmetry_Int_Tables_number   1
_chemical_formula_structural   Mg2Ta2Mn2O9
_chemical_formula_sum   'Mg4 Ta4 Mn4 O18'
_cell_volume   351.40046651
_cell_formula_units_Z   2
loop_
 _symmetry_equiv_pos_site_id
 _symmetry_equiv_pos_as_xyz
  1  'x, y, z'
loop_
 _atom_site_type_symbol
 _atom_site_label
 _atom_site_symmetry_multiplicity
 _atom_site_fract_x
 _atom_site_fract_y
 _atom_site_fract_z
 _atom_site_occupancy
  Mg  Mg0  1  0.33333300  0.66666700  0.80802700  1
  Mg  Mg1  1  0.66666700  0.33333300  0.19197300  1
  Mg  Mg2  1  0.66666700  0.33333300  0.69197300  1
  Mg  Mg3  1  0.33333300  0.66666700  0.30802700  1
  Ta  Ta0  1  0.00000000  0.00000000  0.64549900  1
  Ta  Ta1  1  0.00000000  0.00000000  0.35450100  1
  Ta  Ta2  1  0.00000000  0.00000000  0.85450100  1
  Ta  Ta3  1  0.00000000  0.00000000  0.14549900  1
  Mn  Mn0  1  0.33333300  0.66666700  0.51955900  1
  Mn  Mn1  1  0.66666700  0.33333300  0.48044100  1
  Mn  Mn2  1  0.66666700  0.33333300  0.98044100  1
  Mn  Mn3  1  0.33333300  0.66666700  0.01955900  1
  O  O0  1  0.28696500  0.00000000  0.75000000  1
  O  O1  1  0.71303500  0.00000000  0.25000000  1
  O  O2  1  0.00000000  0.28696500  0.75000000  1
  O  O3  1  0.00000000  0.71303500  0.25000000  1
  O  O4  1  0.71303500  0.71303500  0.75000000  1
  O  O5  1  0.28696500  0.28696500  0.25000000  1
  O  O6  1  0.34253700  0.30855600  0.58827300  1
  O  O7  1  0.65746300  0.69144400  0.41172700  1
  O  O8  1  0.69144400  0.03398100  0.58827300  1
  O  O9  1  0.30855600  0.34253700  0.91172700  1
  O  O10  1  0.30855600  0.96601900  0.41172700  1
  O  O11  1  0.69144400  0.65746300  0.08827300  1
  O  O12  1  0.96601900  0.65746300  0.58827300  1
  O  O13  1  0.03398100  0.69144400  0.91172700  1
  O  O14  1  0.03398100  0.34253700  0.41172700  1
  O  O15  1  0.96601900  0.30855600  0.08827300  1
  O  O16  1  0.65746300  0.96601900  0.91172700  1
  O  O17  1  0.34253700  0.03398100  0.08827300  1
loop_
_geom_bond_atom_site_label_1
_geom_bond_atom_site_label_2
_geom_bond_distance
_geom_bond_site_symmetry_2
Mg0 O0 2.077920 1_565
Mg0 O2 2.077923 1_555
Mg0 O4 2.077925 1_555
Mg0 O13 2.233168 1_555
Mg0 O16 2.233170 1_555
Mg0 O9 2.233171 1_555
Mg1 O1 2.077920 1_555
Mg1 O3 2.077923 1_655
Mg1 O5 2.077925 1_555
Mg1 O15 2.233168 1_555
Mg1 O17 2.233170 1_555
Mg1 O11 2.233171 1_555
Mg2 O2 2.077920 1_655
Mg2 O0 2.077923 1_555
Mg2 O4 2.077925 1_555
Mg2 O8 2.233168 1_555
Mg2 O12 2.233170 1_555
Mg2 O6 2.233171 1_555
Mg3 O3 2.077920 1_555
Mg3 O1 2.077923 1_565
Mg3 O5 2.077925 1_555
Mg3 O10 2.233168 1_555
Mg3 O14 2.233170 1_555
Mg3 O7 2.233171 1_555
Mn0 O12 2.163824 1_455
Mn0 O8 2.163826 1_565
Mn0 O6 2.163829 1_555
Mn0 O10 2.273653 1_555
Mn0 O14 2.273655 1_555
Mn0 O7 2.273657 1_555
Mn1 O14 2.163824 1_655
Mn1 O10 2.163826 1_545
Mn1 O7 2.163829 1_555
Mn1 O8 2.273653 1_555
Mn1 O12 2.273655 1_555
Mn1 O6 2.273657 1_555
Mn2 O16 2.163824 1_545
Mn2 O13 2.163826 1_655
Mn2 O9 2.163829 1_555
Mn2 O15 2.273653 1_556
Mn2 O17 2.273655 1_556
Mn2 O11 2.273657 1_556
Mn3 O17 2.163824 1_565
Mn3 O15 2.163826 1_455
Mn3 O11 2.163829 1_555
Mn3 O13 2.273653 1_554
Mn3 O16 2.273655 1_554
Mn3 O9 2.273657 1_554
O0 Ta2 2.142976 1_555
O0 Ta0 2.142976 1_555
O1 Ta3 2.142976 1_655
O1 Ta1 2.142976 1_655
O2 Ta2 2.142976 1_555
O2 Ta0 2.142976 1_555
O3 Ta3 2.142976 1_565
O3 Ta1 2.142976 1_565
O4 Ta2 2.142976 1_665
O4 Ta0 2.142976 1_665
O5 Ta1 2.142976 1_555
O5 Ta3 2.142976 1_555
O6 Ta0 1.919448 1_555
O7 Ta1 1.919448 1_665
O8 Ta0 1.919448 1_655
O9 Ta2 1.919448 1_555
O10 Ta1 1.919448 1_565
O11 Ta3 1.919448 1_665
O12 Ta0 1.919448 1_665
O13 Ta2 1.919448 1_565
O14 Ta1 1.919448 1_555
O15 Ta3 1.919448 1_655
O16 Ta2 1.919448 1_665
O17 Ta3 1.919448 1_555
