# generated using pymatgen
data_Ta12MoO33
_symmetry_space_group_name_H-M   'P 1'
_cell_length_a   11.45759689
_cell_length_b   11.45759689
_cell_length_c   17.96622001
_cell_angle_alpha   57.10988113
_cell_angle_beta   57.10988113
_cell_angle_gamma   19.39697241
_symmetry_Int_Tables_number   1
_chemical_formula_structural   Ta12MoO33
_chemical_formula_sum   'Ta12 Mo1 O33'
_cell_volume   653.71696865
_cell_formula_units_Z   1
loop_
 _symmetry_equiv_pos_site_id
 _symmetry_equiv_pos_as_xyz
  1  'x, y, z'
loop_
 _atom_site_type_symbol
 _atom_site_label
 _atom_site_symmetry_multiplicity
 _atom_site_fract_x
 _atom_site_fract_y
 _atom_site_fract_z
 _atom_site_occupancy
  Ta  Ta0  1  0.63289900  0.62783200  0.26768200  1
  Ta  Ta1  1  0.37216800  0.36710100  0.73231800  1
  Ta  Ta2  1  0.86391500  0.86890400  0.45472200  1
  Ta  Ta3  1  0.13109600  0.13608500  0.54527800  1
  Ta  Ta4  1  0.08323900  0.08323600  0.88030900  1
  Ta  Ta5  1  0.91676400  0.91676100  0.11969100  1
  Ta  Ta6  1  0.96480200  0.96512100  0.78606900  1
  Ta  Ta7  1  0.03487900  0.03519800  0.21393100  1
  Ta  Ta8  1  0.25363200  0.25307800  0.63673400  1
  Ta  Ta9  1  0.74692200  0.74636800  0.36326600  1
  Ta  Ta10  1  0.20174400  0.20169600  0.97350900  1
  Ta  Ta11  1  0.79830400  0.79825600  0.02649100  1
  Mo  Mo0  1  0.24895900  0.75104100  0.50000000  1
  O  O0  1  0.77739200  0.77692700  0.60112500  1
  O  O1  1  0.22307300  0.22260700  0.39887500  1
  O  O2  1  0.32162100  0.32210500  0.67450900  1
  O  O3  1  0.67789500  0.67837900  0.32549100  1
  O  O4  1  0.44987200  0.44999700  0.76970100  1
  O  O5  1  0.55000300  0.55012800  0.23029900  1
  O  O6  1  0.80444000  0.80270400  0.41710400  1
  O  O7  1  0.19729600  0.19556000  0.58289600  1
  O  O8  1  0.70712500  0.70867400  0.15079900  1
  O  O9  1  0.29132600  0.29287500  0.84920100  1
  O  O10  1  0.40953400  0.40951700  0.13107300  1
  O  O11  1  0.59048300  0.59046600  0.86892700  1
  O  O12  1  0.27822200  0.27844800  0.01885500  1
  O  O13  1  0.72155200  0.72177800  0.98114500  1
  O  O14  1  0.53587800  0.53142400  0.40087800  1
  O  O15  1  0.46857600  0.46412200  0.59912200  1
  O  O16  1  0.82364900  0.82349100  0.24957400  1
  O  O17  1  0.17650900  0.17635100  0.75042600  1
  O  O18  1  0.02550500  0.02566200  0.82438900  1
  O  O19  1  0.97433800  0.97449500  0.17561100  1
  O  O20  1  0.95151400  0.95115300  0.34431800  1
  O  O21  1  0.04884700  0.04848600  0.65568200  1
  O  O22  1  0.89406300  0.89334100  0.73106800  1
  O  O23  1  0.10665900  0.10593700  0.26893200  1
  O  O24  1  0.07041800  0.07465700  0.48592100  1
  O  O25  1  0.92534300  0.92958200  0.51407900  1
  O  O26  1  0.85299500  0.85290300  0.07387100  1
  O  O27  1  0.14709700  0.14700500  0.92612900  1
  O  O28  1  0.35126600  0.35168200  0.48945000  1
  O  O29  1  0.64831800  0.64873400  0.51055000  1
  O  O30  1  0.12156100  0.12169700  0.09693600  1
  O  O31  1  0.87830300  0.87843900  0.90306400  1
  O  O32  1  0.00000600  0.99999400  0.00000000  1
loop_
_geom_bond_atom_site_label_1
_geom_bond_atom_site_label_2
_geom_bond_distance
_geom_bond_site_symmetry_2
Mo0 O15 1.792667 1_555
Mo0 O14 1.792667 1_555
Mo0 O24 1.797592 1_565
Mo0 O25 1.797592 1_455
O0 Ta8 2.011054 1_565
O0 Ta8 2.011384 1_655
O0 Ta2 2.267219 1_555
O1 Ta9 2.011057 1_455
O1 Ta9 2.011383 1_545
O1 Ta3 2.267216 1_555
O2 Ta1 1.864932 1_555
O2 Ta8 2.003070 1_555
O3 Ta0 1.864932 1_555
O3 Ta9 2.003070 1_555
O4 Ta6 2.008938 1_545
O4 Ta6 2.009658 1_455
O4 Ta1 2.254606 1_555
O5 Ta7 2.008938 1_655
O5 Ta7 2.009658 1_565
O5 Ta0 2.254606 1_555
O6 Ta2 1.878416 1_555
O6 Ta9 1.989823 1_555
O7 Ta3 1.878416 1_555
O7 Ta8 1.989823 1_555
O8 Ta0 1.850665 1_555
O8 Ta11 2.032730 1_555
O9 Ta1 1.850665 1_555
O9 Ta10 2.032730 1_555
O10 Ta5 1.938354 1_545
O10 Ta5 1.938408 1_455
O11 Ta4 1.938354 1_655
O11 Ta4 1.938408 1_565
O12 Ta11 2.003360 1_455
O12 Ta11 2.004379 1_545
O12 Ta10 2.282973 1_554
O13 Ta10 2.003360 1_565
O13 Ta10 2.004379 1_655
O13 Ta11 2.282973 1_556
O14 Ta0 2.176914 1_555
O15 Ta1 2.176914 1_555
O16 Ta9 1.811324 1_555
O16 Ta5 2.112860 1_555
O17 Ta8 1.811324 1_555
O17 Ta4 2.112860 1_555
O18 Ta6 1.840569 1_445
O18 Ta4 2.036375 1_555
O19 Ta7 1.840569 1_665
O19 Ta5 2.036375 1_555
O20 Ta2 1.849841 1_555
O20 Ta7 2.045081 1_665
O21 Ta3 1.849841 1_555
O21 Ta6 2.045081 1_445
O22 Ta1 1.993964 1_565
O22 Ta1 2.010136 1_655
O22 Ta6 2.306446 1_555
O23 Ta0 1.993964 1_455
O23 Ta0 2.010136 1_545
O23 Ta7 2.306446 1_555
O24 Ta3 2.158562 1_555
O25 Ta2 2.158562 1_555
O26 Ta11 1.845973 1_555
O26 Ta5 2.015611 1_555
O27 Ta10 1.845973 1_555
O27 Ta4 2.015611 1_555
O28 Ta2 1.990678 1_545
O28 Ta2 2.007722 1_455
O28 Ta8 2.335018 1_555
O29 Ta3 1.990678 1_655
O29 Ta3 2.007722 1_565
O29 Ta9 2.335018 1_555
O30 Ta7 1.927167 1_555
O30 Ta10 1.941665 1_554
O31 Ta6 1.927167 1_555
O31 Ta11 1.941665 1_556
O32 Ta5 1.924702 1_455
O32 Ta4 1.924702 1_564
