# generated using pymatgen
data_KGaGe3O8
_symmetry_space_group_name_H-M   'P 1'
_cell_length_a   7.55076062
_cell_length_b   7.95314309
_cell_length_c   8.30313970
_cell_angle_alpha   114.41486591
_cell_angle_beta   103.67378899
_cell_angle_gamma   103.21784840
_symmetry_Int_Tables_number   1
_chemical_formula_structural   KGaGe3O8
_chemical_formula_sum   'K2 Ga2 Ge6 O16'
_cell_volume   410.05466152
_cell_formula_units_Z   2
loop_
 _symmetry_equiv_pos_site_id
 _symmetry_equiv_pos_as_xyz
  1  'x, y, z'
loop_
 _atom_site_type_symbol
 _atom_site_label
 _atom_site_symmetry_multiplicity
 _atom_site_fract_x
 _atom_site_fract_y
 _atom_site_fract_z
 _atom_site_occupancy
  K  K0  1  0.13300251  0.27542395  0.25899878  1
  K  K1  1  0.86699749  0.72457605  0.74100122  1
  Ga  Ga0  1  0.21950870  0.81241690  0.18999336  1
  Ga  Ga1  1  0.78049130  0.18758310  0.81000664  1
  Ge  Ge0  1  0.22586982  0.17924390  0.82630773  1
  Ge  Ge1  1  0.77413018  0.82075610  0.17369227  1
  Ge  Ge2  1  0.34360003  0.58057351  0.81931405  1
  Ge  Ge3  1  0.35006655  0.80698849  0.57925615  1
  Ge  Ge4  1  0.65639997  0.41942649  0.18068595  1
  Ge  Ge5  1  0.64993345  0.19301151  0.42074385  1
  O  O0  1  0.28954033  0.59654096  0.61042966  1
  O  O1  1  0.71045967  0.40345904  0.38957034  1
  O  O2  1  0.39996034  0.06665427  0.31198116  1
  O  O3  1  0.40188196  0.29304441  0.05883073  1
  O  O4  1  0.60003866  0.93334573  0.68801884  1
  O  O5  1  0.59811804  0.70695559  0.94116927  1
  O  O6  1  0.99131314  0.85938825  0.13735700  1
  O  O7  1  0.00868686  0.14061175  0.86264300  1
  O  O8  1  0.25195199  0.69081358  0.33241078  1
  O  O9  1  0.28347065  0.32180096  0.71902483  1
  O  O10  1  0.74804801  0.30918642  0.66758922  1
  O  O11  1  0.71652935  0.67819904  0.28097517  1
  O  O12  1  0.20236291  0.66180763  0.94596224  1
  O  O13  1  0.21008315  0.93870325  0.68025963  1
  O  O14  1  0.79763709  0.33819237  0.05403776  1
  O  O15  1  0.78991685  0.06129675  0.31974037  1
loop_
_geom_bond_atom_site_label_1
_geom_bond_atom_site_label_2
_geom_bond_distance
_geom_bond_site_symmetry_2
K0 O0 2.694874 1_555
K0 O7 2.832595 1_554
K0 O6 2.867124 1_445
K0 O3 2.926024 1_555
K0 O2 2.954437 1_555
K0 O14 2.966599 1_455
K0 O8 2.968480 1_555
K0 O15 3.029151 1_455
K1 O1 2.694874 1_555
K1 O6 2.832595 1_556
K1 O7 2.867124 1_665
K1 O5 2.926024 1_555
K1 O4 2.954443 1_555
K1 O12 2.966599 1_655
K1 O10 2.968480 1_555
K1 O13 3.029151 1_655
Ga0 O8 1.819477 1_555
Ga0 O12 1.831878 1_554
Ga0 O2 1.834508 1_565
Ga0 O6 1.836508 1_455
Ga1 O10 1.819477 1_555
Ga1 O14 1.831878 1_556
Ga1 O4 1.834511 1_545
Ga1 O7 1.836508 1_655
Ge0 O7 1.718955 1_555
Ge0 O13 1.747597 1_545
Ge0 O9 1.749482 1_555
Ge0 O3 1.762159 1_556
Ge1 O6 1.718955 1_555
Ge1 O15 1.747597 1_565
Ge1 O11 1.749482 1_555
Ge1 O5 1.762159 1_554
Ge2 O12 1.715862 1_555
Ge2 O0 1.749841 1_555
Ge2 O5 1.756114 1_555
Ge2 O9 1.764182 1_555
Ge3 O4 1.721765 1_555
Ge3 O8 1.734051 1_555
Ge3 O13 1.765524 1_555
Ge3 O0 1.772416 1_555
Ge4 O14 1.715862 1_555
Ge4 O1 1.749841 1_555
Ge4 O3 1.756114 1_555
Ge4 O11 1.764182 1_555
Ge5 O2 1.721772 1_555
Ge5 O10 1.734051 1_555
Ge5 O15 1.765524 1_555
Ge5 O1 1.772416 1_555
