# generated using pymatgen
data_CaW2O5
_symmetry_space_group_name_H-M   'P 1'
_cell_length_a   5.89644297
_cell_length_b   5.89644297
_cell_length_c   11.76752500
_cell_angle_alpha   90.00000000
_cell_angle_beta   90.00000000
_cell_angle_gamma   137.65968597
_symmetry_Int_Tables_number   1
_chemical_formula_structural   CaW2O5
_chemical_formula_sum   'Ca2 W4 O10'
_cell_volume   275.56500151
_cell_formula_units_Z   2
loop_
 _symmetry_equiv_pos_site_id
 _symmetry_equiv_pos_as_xyz
  1  'x, y, z'
loop_
 _atom_site_type_symbol
 _atom_site_label
 _atom_site_symmetry_multiplicity
 _atom_site_fract_x
 _atom_site_fract_y
 _atom_site_fract_z
 _atom_site_occupancy
  Ca  Ca0  1  0.10004100  0.89995900  0.75000000  1
  Ca  Ca1  1  0.89995900  0.10004100  0.25000000  1
  W  W0  1  0.79388600  0.20611400  0.59538700  1
  W  W1  1  0.20611400  0.79388600  0.40461300  1
  W  W2  1  0.20611400  0.79388600  0.09538700  1
  W  W3  1  0.79388600  0.20611400  0.90461300  1
  O  O0  1  0.29708700  0.70291300  0.25000000  1
  O  O1  1  0.70291300  0.29708700  0.75000000  1
  O  O2  1  0.74345200  0.25654800  0.07342400  1
  O  O3  1  0.25654800  0.74345200  0.92657600  1
  O  O4  1  0.25654800  0.74345200  0.57342400  1
  O  O5  1  0.74345200  0.25654800  0.42657600  1
  O  O6  1  0.96075300  0.03924700  0.61934200  1
  O  O7  1  0.03924700  0.96075300  0.38065800  1
  O  O8  1  0.96075300  0.03924700  0.88065800  1
  O  O9  1  0.03924700  0.96075300  0.11934200  1
loop_
_geom_bond_atom_site_label_1
_geom_bond_atom_site_label_2
_geom_bond_distance
_geom_bond_site_symmetry_2
Ca0 O8 2.170307 1_465
Ca0 O6 2.170307 1_465
Ca0 O1 2.411285 1_455
Ca0 O1 2.411285 1_565
Ca0 O3 2.698097 1_555
Ca0 O4 2.698097 1_555
Ca1 O7 2.170307 1_645
Ca1 O9 2.170307 1_645
Ca1 O0 2.411285 1_545
Ca1 O0 2.411285 1_655
Ca1 O5 2.698097 1_555
Ca1 O2 2.698097 1_555
O0 W1 2.076324 1_555
O0 W2 2.076324 1_555
O1 W3 2.076324 1_555
O1 W0 2.076324 1_555
O2 W3 2.062460 1_554
O2 W2 2.184007 1_655
O2 W2 2.184007 1_545
O3 W2 2.062460 1_556
O3 W3 2.184007 1_455
O3 W3 2.184007 1_565
O4 W1 2.062460 1_555
O4 W0 2.184007 1_455
O4 W0 2.184007 1_565
O5 W0 2.062460 1_555
O5 W1 2.184007 1_655
O5 W1 2.184007 1_545
O6 W0 1.856563 1_555
O7 W1 1.856563 1_555
O8 W3 1.856563 1_555
O9 W2 1.856563 1_555
