# generated using pymatgen
data_Zr3(MnNi2)2
_symmetry_space_group_name_H-M   'P 1'
_cell_length_a   4.98737147
_cell_length_b   4.94885087
_cell_length_c   12.26135395
_cell_angle_alpha   90.18975818
_cell_angle_beta   90.00196727
_cell_angle_gamma   119.49535707
_symmetry_Int_Tables_number   1
_chemical_formula_structural   Zr3(MnNi2)2
_chemical_formula_sum   'Zr6 Mn4 Ni8'
_cell_volume   263.40743050
_cell_formula_units_Z   2
loop_
 _symmetry_equiv_pos_site_id
 _symmetry_equiv_pos_as_xyz
  1  'x, y, z'
loop_
 _atom_site_type_symbol
 _atom_site_label
 _atom_site_symmetry_multiplicity
 _atom_site_fract_x
 _atom_site_fract_y
 _atom_site_fract_z
 _atom_site_occupancy
  Zr  Zr0  1  0.33620000  0.66400200  0.91605800  1
  Zr  Zr1  1  0.00412300  0.00240400  0.24924800  1
  Zr  Zr2  1  0.66976300  0.33078000  0.58217600  1
  Zr  Zr3  1  0.33023700  0.66922000  0.66782400  1
  Zr  Zr4  1  0.99587700  0.99759600  0.00075200  1
  Zr  Zr5  1  0.66380000  0.33599800  0.33394200  1
  Mn  Mn0  1  0.50000000  0.50000000  0.12500000  1
  Mn  Mn1  1  0.16687100  0.83236800  0.45899500  1
  Mn  Mn2  1  0.83312900  0.16763200  0.79100500  1
  Mn  Mn3  1  0.50000000  0.00000000  0.12500000  1
  Ni  Ni0  1  0.16657900  0.33221700  0.45875400  1
  Ni  Ni1  1  0.83342100  0.66778300  0.79124600  1
  Ni  Ni2  1  0.33287600  0.66719500  0.29123700  1
  Ni  Ni3  1  0.00000000  0.00000000  0.62500000  1
  Ni  Ni4  1  0.66712400  0.33280500  0.95876300  1
  Ni  Ni5  1  0.00000000  0.50000000  0.12500000  1
  Ni  Ni6  1  0.66558100  0.83216900  0.45850900  1
  Ni  Ni7  1  0.33441900  0.16783100  0.79149100  1
loop_
_geom_bond_atom_site_label_1
_geom_bond_atom_site_label_2
_geom_bond_distance
_geom_bond_site_symmetry_2
Zr0 Zr3 3.044148 1_555
Zr0 Zr4 3.044382 1_556
Zr0 Zr4 3.057202 1_446
Zr0 Zr4 3.071288 1_456
Zr1 Zr5 3.044382 1_555
Zr1 Zr4 3.047030 1_445
Zr1 Zr5 3.057202 1_445
Zr1 Zr5 3.071288 1_455
Zr2 Zr3 3.041844 1_545
Zr2 Zr5 3.044148 1_555
Zr2 Zr3 3.051897 1_655
Zr2 Zr3 3.091400 1_555
Mn0 Mn3 2.474425 1_565
Mn0 Mn3 2.474425 1_555
Mn0 Ni2 2.490393 1_555
Mn0 Ni4 2.490393 1_554
Mn0 Ni5 2.493686 1_555
Mn0 Ni5 2.493686 1_655
Mn0 Zr4 2.920513 1_555
Mn0 Zr1 2.920513 1_555
Mn0 Zr5 2.925069 1_555
Mn0 Zr0 2.925069 1_554
Mn0 Zr1 2.939926 1_665
Mn0 Zr4 2.939926 1_445
Mn1 Ni0 2.474407 1_565
Mn1 Ni0 2.474448 1_555
Mn1 Ni6 2.487744 1_555
Mn1 Ni3 2.488510 1_565
Mn1 Ni2 2.498005 1_555
Mn1 Ni6 2.499642 1_455
Mn1 Zr3 2.921191 1_555
Mn1 Zr2 2.922161 1_565
Mn1 Zr2 2.924835 1_455
Mn1 Zr5 2.930212 1_455
Mn1 Zr5 2.940812 1_565
Mn1 Zr1 2.944105 1_565
Mn2 Ni1 2.474407 1_545
Mn2 Ni1 2.474448 1_555
Mn2 Ni7 2.487744 1_555
Mn2 Ni3 2.488510 1_655
Mn2 Ni4 2.498005 1_555
Mn2 Ni7 2.499642 1_655
Mn2 Zr2 2.921191 1_555
Mn2 Zr3 2.922161 1_545
Mn2 Zr3 2.924835 1_655
Mn2 Zr0 2.930212 1_655
Mn2 Zr0 2.940812 1_545
Mn2 Zr4 2.944105 1_546
Mn3 Ni2 2.496506 1_545
Mn3 Ni4 2.496506 1_554
Mn3 Ni5 2.503034 1_545
Mn3 Ni5 2.503034 1_655
Mn3 Zr4 2.909723 1_545
Mn3 Zr1 2.909723 1_555
Mn3 Zr1 2.934731 1_655
Mn3 Zr4 2.934731 1_445
Mn3 Zr5 2.937636 1_555
Mn3 Zr0 2.937636 1_544
Ni0 Ni3 2.495123 1_555
Ni0 Ni6 2.500395 1_555
Ni0 Ni6 2.505684 1_445
Ni0 Ni2 2.514691 1_555
Ni0 Zr2 2.900464 1_455
Ni0 Zr5 2.906314 1_555
Ni0 Zr1 2.930745 1_555
Ni0 Zr2 2.933512 1_555
Ni0 Zr3 2.941125 1_555
Ni0 Zr5 2.945552 1_455
Ni1 Ni3 2.495123 1_665
Ni1 Ni7 2.500395 1_555
Ni1 Ni7 2.505684 1_665
Ni1 Ni4 2.514691 1_555
Ni1 Zr3 2.900464 1_655
Ni1 Zr0 2.906314 1_555
Ni1 Zr4 2.930745 1_556
Ni1 Zr3 2.933512 1_555
Ni1 Zr2 2.941125 1_555
Ni1 Zr0 2.945552 1_655
Ni2 Ni5 2.496273 1_555
Ni2 Ni6 2.506214 1_555
Ni2 Zr5 2.890329 1_555
Ni2 Zr1 2.896428 1_565
Ni2 Zr1 2.907602 1_555
Ni2 Zr5 2.926144 1_565
Ni2 Zr5 2.952258 1_455
Ni2 Zr1 2.960002 1_665
Ni3 Ni7 2.502682 1_555
Ni3 Ni6 2.502682 1_445
Ni3 Zr2 2.885932 1_455
Ni3 Zr3 2.885932 1_545
Ni3 Zr2 2.928139 1_445
Ni3 Zr3 2.928139 1_555
Ni3 Zr2 2.955460 1_555
Ni3 Zr3 2.955460 1_445
Ni4 Ni5 2.496273 1_656
Ni4 Ni7 2.506214 1_555
Ni4 Zr0 2.890329 1_555
Ni4 Zr4 2.896428 1_546
Ni4 Zr4 2.907602 1_556
Ni4 Zr0 2.926144 1_545
Ni4 Zr0 2.952258 1_655
Ni4 Zr4 2.960002 1_446
Ni5 Zr1 2.903047 1_565
Ni5 Zr4 2.903047 1_445
Ni5 Zr4 2.908621 1_455
Ni5 Zr1 2.908621 1_555
Ni5 Zr5 2.950867 1_455
Ni5 Zr0 2.950867 1_554
Ni6 Zr2 2.883231 1_565
Ni6 Zr5 2.883739 1_555
Ni6 Zr2 2.921028 1_555
Ni6 Zr5 2.932040 1_565
Ni6 Zr3 2.953011 1_555
Ni6 Zr1 2.959380 1_665
Ni7 Zr3 2.883231 1_545
Ni7 Zr0 2.883739 1_555
Ni7 Zr3 2.921028 1_555
Ni7 Zr0 2.932040 1_545
Ni7 Zr2 2.953011 1_555
Ni7 Zr4 2.959380 1_446
