# generated using pymatgen
data_Li2TiCr3O8
_symmetry_space_group_name_H-M   'P 1'
_cell_length_a   5.89131454
_cell_length_b   5.94556252
_cell_length_c   10.45815070
_cell_angle_alpha   74.86380489
_cell_angle_beta   73.63963568
_cell_angle_gamma   60.30120002
_symmetry_Int_Tables_number   1
_chemical_formula_structural   Li2TiCr3O8
_chemical_formula_sum   'Li4 Ti2 Cr6 O16'
_cell_volume   302.05150217
_cell_formula_units_Z   2
loop_
 _symmetry_equiv_pos_site_id
 _symmetry_equiv_pos_as_xyz
  1  'x, y, z'
loop_
 _atom_site_type_symbol
 _atom_site_label
 _atom_site_symmetry_multiplicity
 _atom_site_fract_x
 _atom_site_fract_y
 _atom_site_fract_z
 _atom_site_occupancy
  Li  Li0  1  0.25000100  0.75000000  0.25000400  1
  Li  Li1  1  0.75000900  0.25000200  0.74999800  1
  Li  Li2  1  0.75000100  0.75000700  0.25000200  1
  Li  Li3  1  0.24999600  0.25001100  0.74999500  1
  Ti  Ti0  1  0.99994600  0.00000500  0.00000500  1
  Ti  Ti1  1  0.49997600  0.49998100  0.50000400  1
  Cr  Cr0  1  0.00004900  0.50001000  0.49999500  1
  Cr  Cr1  1  0.00000900  0.00007600  0.49994600  1
  Cr  Cr2  1  0.50000800  0.99992600  0.50005800  1
  Cr  Cr3  1  0.50006200  0.99994200  0.00000200  1
  Cr  Cr4  1  0.49996400  0.50002100  0.00001000  1
  Cr  Cr5  1  0.99999500  0.49996500  0.99997200  1
  O  O0  1  0.62414000  0.64564000  0.10607600  1
  O  O1  1  0.12412900  0.14564100  0.60608800  1
  O  O2  1  0.87584800  0.85438600  0.39391500  1
  O  O3  1  0.37587200  0.35435400  0.89390400  1
  O  O4  1  0.12225400  0.64930700  0.10613200  1
  O  O5  1  0.62228900  0.14931800  0.60612300  1
  O  O6  1  0.37774800  0.85069200  0.39387300  1
  O  O7  1  0.87771300  0.35068600  0.89387300  1
  O  O8  1  0.14143000  0.12585400  0.10181800  1
  O  O9  1  0.64143600  0.62584700  0.60182600  1
  O  O10  1  0.63090400  0.12584300  0.10180500  1
  O  O11  1  0.13091200  0.62586800  0.60179800  1
  O  O12  1  0.86908400  0.37419000  0.39818900  1
  O  O13  1  0.36908100  0.87416600  0.89819200  1
  O  O14  1  0.35857000  0.37413300  0.39820200  1
  O  O15  1  0.85857200  0.87413600  0.89819400  1
loop_
_geom_bond_atom_site_label_1
_geom_bond_atom_site_label_2
_geom_bond_distance
_geom_bond_site_symmetry_2
Li0 O6 2.177939 1_555
Li0 O4 2.177969 1_555
Li0 O2 2.184579 1_455
Li0 O0 2.184615 1_555
Li0 O8 2.266742 1_565
Li0 O14 2.266858 1_555
Li1 O7 2.177792 1_555
Li1 O5 2.177855 1_555
Li1 O1 2.184449 1_655
Li1 O3 2.184498 1_555
Li1 O9 2.266633 1_555
Li1 O15 2.266844 1_545
Li2 O4 2.177687 1_655
Li2 O6 2.177696 1_555
Li2 O2 2.184571 1_555
Li2 O0 2.184698 1_555
Li2 O12 2.266603 1_555
Li2 O10 2.266732 1_565
Li3 O7 2.177853 1_455
Li3 O5 2.177858 1_555
Li3 O3 2.184515 1_555
Li3 O1 2.184562 1_555
Li3 O13 2.266766 1_545
Li3 O11 2.266813 1_555
Cr0 O14 1.933299 1_555
Cr0 O11 1.933378 1_555
Cr0 O12 1.933686 1_455
Cr0 O9 1.933842 1_455
Cr0 O2 1.978499 1_455
Cr0 O1 1.978521 1_555
Cr1 O2 2.025190 1_445
Cr1 O1 2.025341 1_555
Cr1 O6 2.033979 1_545
Cr1 O5 2.034249 1_455
Cr1 O12 2.049698 1_455
Cr1 O11 2.050467 1_545
Cr2 O1 2.025148 1_565
Cr2 O2 2.025367 1_555
Cr2 O5 2.033977 1_565
Cr2 O6 2.034132 1_555
Cr2 O9 2.049583 1_555
Cr2 O14 2.050476 1_565
Cr3 O15 1.933309 1_554
Cr3 O10 1.933472 1_565
Cr3 O13 1.933597 1_554
Cr3 O8 1.933867 1_565
Cr3 O0 1.978151 1_555
Cr3 O3 1.978729 1_564
Cr4 O0 2.025217 1_555
Cr4 O3 2.025389 1_554
Cr4 O4 2.034014 1_555
Cr4 O7 2.034246 1_554
Cr4 O13 2.050061 1_554
Cr4 O10 2.050123 1_555
Cr5 O3 2.025262 1_655
Cr5 O0 2.025311 1_556
Cr5 O7 2.033744 1_555
Cr5 O4 2.034413 1_656
Cr5 O8 2.050012 1_656
Cr5 O15 2.050029 1_555
O4 Ti0 1.962636 1_465
O5 Ti1 1.962451 1_555
O6 Ti1 1.962709 1_555
O7 Ti0 1.962583 1_556
O8 Ti0 1.980512 1_455
O9 Ti1 1.980549 1_555
O10 Ti0 1.979975 1_555
O11 Ti1 1.980045 1_555
O12 Ti1 1.980329 1_555
O13 Ti0 1.980435 1_466
O14 Ti1 1.980072 1_555
O15 Ti0 1.980091 1_566
