# generated using pymatgen
data_KMnN
_symmetry_space_group_name_H-M   'P 1'
_cell_length_a   10.12585900
_cell_length_b   3.60289700
_cell_length_c   6.71471500
_cell_angle_alpha   90.00000000
_cell_angle_beta   90.00000000
_cell_angle_gamma   90.00000000
_symmetry_Int_Tables_number   1
_chemical_formula_structural   KMnN
_chemical_formula_sum   'K4 Mn4 N4'
_cell_volume   244.96909990
_cell_formula_units_Z   4
loop_
 _symmetry_equiv_pos_site_id
 _symmetry_equiv_pos_as_xyz
  1  'x, y, z'
loop_
 _atom_site_type_symbol
 _atom_site_label
 _atom_site_symmetry_multiplicity
 _atom_site_fract_x
 _atom_site_fract_y
 _atom_site_fract_z
 _atom_site_occupancy
  K  K0  1  0.67892300  0.25000000  0.94795100  1
  K  K1  1  0.17892300  0.25000000  0.55204900  1
  K  K2  1  0.32107700  0.75000000  0.05204900  1
  K  K3  1  0.82107700  0.75000000  0.44795100  1
  Mn  Mn0  1  0.52683100  0.25000000  0.39386900  1
  Mn  Mn1  1  0.02683100  0.25000000  0.10613100  1
  Mn  Mn2  1  0.47316900  0.75000000  0.60613100  1
  Mn  Mn3  1  0.97316900  0.75000000  0.89386900  1
  N  N0  1  0.95883900  0.25000000  0.84190900  1
  N  N1  1  0.45883900  0.25000000  0.65809100  1
  N  N2  1  0.04116100  0.75000000  0.15809100  1
  N  N3  1  0.54116100  0.75000000  0.34190900  1
loop_
_geom_bond_atom_site_label_1
_geom_bond_atom_site_label_2
_geom_bond_distance
_geom_bond_site_symmetry_2
K0 N0 2.922460 1_555
K0 N1 2.958814 1_555
K1 N1 2.922460 1_555
K1 N0 2.958814 1_455
K2 N2 2.922460 1_555
K2 N3 2.958814 1_555
K3 N3 2.922460 1_555
K3 N2 2.958814 1_655
Mn0 N3 1.840652 1_545
Mn0 N3 1.840652 1_555
Mn0 N1 1.903076 1_555
Mn1 N2 1.840652 1_555
Mn1 N2 1.840652 1_545
Mn1 N0 1.903076 1_454
Mn2 N1 1.840652 1_565
Mn2 N1 1.840652 1_555
Mn2 N3 1.903076 1_555
Mn3 N0 1.840652 1_565
Mn3 N0 1.840652 1_555
Mn3 N2 1.903076 1_656
