# generated using pymatgen
data_TbGd2Ga5O12
_symmetry_space_group_name_H-M   'P 1'
_cell_length_a   10.81442418
_cell_length_b   10.81442418
_cell_length_c   10.81442418
_cell_angle_alpha   70.54273463
_cell_angle_beta   70.52180128
_cell_angle_gamma   109.47819872
_symmetry_Int_Tables_number   1
_chemical_formula_structural   TbGd2Ga5O12
_chemical_formula_sum   'Tb4 Gd8 Ga20 O48'
_cell_volume   973.61731903
_cell_formula_units_Z   4
loop_
 _symmetry_equiv_pos_site_id
 _symmetry_equiv_pos_as_xyz
  1  'x, y, z'
loop_
 _atom_site_type_symbol
 _atom_site_label
 _atom_site_symmetry_multiplicity
 _atom_site_fract_x
 _atom_site_fract_y
 _atom_site_fract_z
 _atom_site_occupancy
  Tb  Tb0  1  0.37488400  0.62488400  0.25000000  1
  Tb  Tb1  1  0.12511600  0.87511600  0.75000000  1
  Tb  Tb2  1  0.37488400  0.75000000  0.87511600  1
  Tb  Tb3  1  0.12511600  0.25000000  0.62488400  1
  Gd  Gd0  1  0.25000000  0.62500000  0.62500000  1
  Gd  Gd1  1  0.75000000  0.87500000  0.87500000  1
  Gd  Gd2  1  0.62493000  0.37493000  0.75000000  1
  Gd  Gd3  1  0.87507000  0.12507000  0.25000000  1
  Gd  Gd4  1  0.62493000  0.25000000  0.12507000  1
  Gd  Gd5  1  0.87507000  0.75000000  0.37493000  1
  Gd  Gd6  1  0.75000000  0.37500000  0.37500000  1
  Gd  Gd7  1  0.25000000  0.12500000  0.12500000  1
  Ga  Ga0  1  0.12545000  0.37545000  0.25000000  1
  Ga  Ga1  1  0.37455000  0.12455000  0.75000000  1
  Ga  Ga2  1  0.62475600  0.75000000  0.62524400  1
  Ga  Ga3  1  0.87524400  0.25000000  0.87475600  1
  Ga  Ga4  1  0.25000000  0.87480200  0.37519800  1
  Ga  Ga5  1  0.75000000  0.62519800  0.12480200  1
  Ga  Ga6  1  0.87524400  0.62524400  0.75000000  1
  Ga  Ga7  1  0.62475600  0.87475600  0.25000000  1
  Ga  Ga8  1  0.37455000  0.25000000  0.37545000  1
  Ga  Ga9  1  0.12545000  0.75000000  0.12455000  1
  Ga  Ga10  1  0.75000000  0.12480200  0.62519800  1
  Ga  Ga11  1  0.25000000  0.37519800  0.87480200  1
  Ga  Ga12  1  0.49973800  0.99946300  0.00014100  1
  Ga  Ga13  1  0.49960400  0.49987900  0.49985900  1
  Ga  Ga14  1  0.00039600  0.50053700  0.99972500  1
  Ga  Ga15  1  0.00026200  0.00012100  0.50027500  1
  Ga  Ga16  1  0.49973800  0.50027500  0.00012100  1
  Ga  Ga17  1  0.49960400  0.99972500  0.50053700  1
  Ga  Ga18  1  0.00039600  0.49985900  0.49987900  1
  Ga  Ga19  1  0.00026200  0.00014100  0.99946300  1
  O  O0  1  0.58152000  0.87676800  0.09577800  1
  O  O1  1  0.47254600  0.67729800  0.40422200  1
  O  O2  1  0.02745400  0.62323200  0.79524800  1
  O  O3  1  0.91848000  0.82270200  0.70475200  1
  O  O4  1  0.12339200  0.70579200  0.97154300  1
  O  O5  1  0.32266400  0.79420800  0.08240100  1
  O  O6  1  0.37660800  0.40506500  0.41759900  1
  O  O7  1  0.17733600  0.09493500  0.52845700  1
  O  O8  1  0.29431800  0.41600000  0.67788900  1
  O  O9  1  0.20568200  0.52779300  0.87831900  1
  O  O10  1  0.59388900  0.97220700  0.82211100  1
  O  O11  1  0.90611100  0.08400000  0.62168100  1
  O  O12  1  0.41697700  0.12155200  0.90509700  1
  O  O13  1  0.52664900  0.32207400  0.59490300  1
  O  O14  1  0.97335100  0.37844800  0.20457500  1
  O  O15  1  0.08302300  0.17792600  0.29542500  1
  O  O16  1  0.87852100  0.29558900  0.02659300  1
  O  O17  1  0.67781800  0.20441100  0.91706800  1
  O  O18  1  0.62147900  0.59488600  0.58293200  1
  O  O19  1  0.82218200  0.90511400  0.47340700  1
  O  O20  1  0.70452900  0.58294300  0.32216600  1
  O  O21  1  0.79547100  0.47330600  0.12158600  1
  O  O22  1  0.40510800  0.02669400  0.17783400  1
  O  O23  1  0.09489200  0.91705700  0.37841400  1
  O  O24  1  0.41697700  0.29542500  0.17792600  1
  O  O25  1  0.52664900  0.20457500  0.37844800  1
  O  O26  1  0.97335100  0.59490300  0.32207400  1
  O  O27  1  0.08302300  0.90509700  0.12155200  1
  O  O28  1  0.87852100  0.58293200  0.59488600  1
  O  O29  1  0.67781800  0.47340700  0.90511400  1
  O  O30  1  0.62147900  0.02659300  0.29558900  1
  O  O31  1  0.82218200  0.91706800  0.20441100  1
  O  O32  1  0.70452900  0.12158600  0.47330600  1
  O  O33  1  0.79547100  0.32216600  0.58294300  1
  O  O34  1  0.40510800  0.37841400  0.91705700  1
  O  O35  1  0.09489200  0.17783400  0.02669400  1
  O  O36  1  0.58152000  0.70475200  0.82270200  1
  O  O37  1  0.47254600  0.79524800  0.62323200  1
  O  O38  1  0.02745400  0.40422200  0.67729800  1
  O  O39  1  0.91848000  0.09577800  0.87676800  1
  O  O40  1  0.12339200  0.41759900  0.40506500  1
  O  O41  1  0.32266400  0.52845700  0.09493500  1
  O  O42  1  0.37660800  0.97154300  0.70579200  1
  O  O43  1  0.17733600  0.08240100  0.79420800  1
  O  O44  1  0.29431800  0.87831900  0.52779300  1
  O  O45  1  0.20568200  0.67788900  0.41600000  1
  O  O46  1  0.59388900  0.62168100  0.08400000  1
  O  O47  1  0.90611100  0.82211100  0.97220700  1
loop_
_geom_bond_atom_site_label_1
_geom_bond_atom_site_label_2
_geom_bond_distance
_geom_bond_site_symmetry_2
Gd0 O8 2.389436 1_555
Gd0 O45 2.389436 1_555
Gd0 O9 2.389447 1_555
Gd0 O44 2.389447 1_555
Gd0 O2 2.484587 1_555
Gd0 O37 2.484587 1_555
Gd0 O38 2.484587 1_555
Gd0 O1 2.484587 1_555
Gd1 O47 2.389436 1_555
Gd1 O10 2.389436 1_555
Gd1 O11 2.389443 1_565
Gd1 O46 2.389443 1_556
Gd1 O0 2.484587 1_556
Gd1 O36 2.484587 1_555
Gd1 O39 2.484587 1_565
Gd1 O3 2.484587 1_555
Gd2 O12 2.385816 1_555
Gd2 O13 2.385816 1_555
Gd2 O29 2.387253 1_555
Gd2 O28 2.387253 1_555
Gd2 O33 2.481427 1_555
Gd2 O34 2.481435 1_555
Gd2 O18 2.482928 1_555
Gd2 O17 2.482928 1_555
Gd3 O14 2.385816 1_555
Gd3 O15 2.385816 1_655
Gd3 O31 2.387253 1_545
Gd3 O30 2.387253 1_555
Gd3 O32 2.481435 1_555
Gd3 O35 2.481440 1_655
Gd3 O19 2.482928 1_545
Gd3 O16 2.482928 1_555
Gd4 O25 2.385816 1_555
Gd4 O24 2.385816 1_555
Gd4 O17 2.387253 1_554
Gd4 O16 2.387253 1_555
Gd4 O21 2.481435 1_555
Gd4 O22 2.481440 1_555
Gd4 O29 2.482928 1_554
Gd4 O30 2.482928 1_555
Gd5 O26 2.385816 1_555
Gd5 O27 2.385816 1_655
Gd5 O19 2.387253 1_555
Gd5 O18 2.387253 1_555
Gd5 O20 2.481427 1_555
Gd5 O23 2.481435 1_655
Gd5 O31 2.482928 1_555
Gd5 O28 2.482928 1_555
Gd6 O21 2.386241 1_555
Gd6 O32 2.386241 1_555
Gd6 O33 2.386241 1_555
Gd6 O20 2.386241 1_555
Gd6 O13 2.481481 1_555
Gd6 O25 2.481481 1_555
Gd6 O26 2.481481 1_555
Gd6 O14 2.481481 1_555
Gd7 O35 2.386238 1_555
Gd7 O22 2.386238 1_555
Gd7 O34 2.386241 1_554
Gd7 O23 2.386241 1_545
Gd7 O27 2.481481 1_545
Gd7 O12 2.481481 1_554
Gd7 O15 2.481481 1_555
Gd7 O24 2.481481 1_555
Ga0 O41 1.873899 1_555
Ga0 O40 1.873899 1_555
Ga0 O15 1.873973 1_555
Ga0 O14 1.873973 1_455
Ga1 O43 1.873897 1_555
Ga1 O42 1.873905 1_545
Ga1 O13 1.873973 1_555
Ga1 O12 1.873973 1_555
Ga2 O37 1.871737 1_555
Ga2 O36 1.871737 1_555
Ga2 O19 1.872717 1_555
Ga2 O18 1.872717 1_555
Ga3 O39 1.871737 1_555
Ga3 O38 1.871737 1_655
Ga3 O17 1.872717 1_555
Ga3 O16 1.872717 1_556
Ga4 O23 1.872585 1_555
Ga4 O22 1.872591 1_565
Ga4 O45 1.873900 1_555
Ga4 O44 1.873903 1_555
Ga5 O21 1.872585 1_555
Ga5 O20 1.872596 1_555
Ga5 O46 1.873898 1_555
Ga5 O47 1.873900 1_554
Ga6 O2 1.871737 1_655
Ga6 O3 1.871737 1_555
Ga6 O28 1.872717 1_555
Ga6 O29 1.872717 1_555
Ga7 O0 1.871737 1_555
Ga7 O1 1.871737 1_555
Ga7 O31 1.872717 1_555
Ga7 O30 1.872717 1_565
Ga8 O7 1.873899 1_555
Ga8 O6 1.873899 1_555
Ga8 O24 1.873973 1_555
Ga8 O25 1.873973 1_555
Ga9 O5 1.873897 1_555
Ga9 O4 1.873905 1_554
Ga9 O27 1.873973 1_555
Ga9 O26 1.873973 1_455
Ga10 O32 1.872585 1_555
Ga10 O33 1.872596 1_555
Ga10 O11 1.873898 1_555
Ga10 O10 1.873900 1_545
Ga11 O34 1.872585 1_555
Ga11 O35 1.872591 1_556
Ga11 O8 1.873900 1_555
Ga11 O9 1.873903 1_555
Ga12 O0 2.022594 1_555
Ga12 O22 2.023175 1_565
Ga12 O12 2.024411 1_564
Ga12 O5 2.024651 1_555
Ga12 O10 2.025150 1_554
Ga12 O17 2.025188 1_564
Ga13 O1 2.022594 1_555
Ga13 O20 2.023179 1_555
Ga13 O13 2.024411 1_555
Ga13 O6 2.024658 1_555
Ga13 O8 2.025150 1_555
Ga13 O18 2.025188 1_555
Ga14 O2 2.022594 1_555
Ga14 O21 2.023184 1_456
Ga14 O14 2.024411 1_456
Ga14 O4 2.024649 1_555
Ga14 O9 2.025148 1_555
Ga14 O16 2.025188 1_456
Ga15 O3 2.022594 1_445
Ga15 O23 2.023184 1_545
Ga15 O15 2.024411 1_555
Ga15 O7 2.024658 1_555
Ga15 O11 2.025143 1_455
Ga15 O19 2.025188 1_445
Ga16 O36 2.022594 1_554
Ga16 O34 2.023184 1_554
Ga16 O24 2.024411 1_555
Ga16 O41 2.024658 1_555
Ga16 O46 2.025143 1_555
Ga16 O29 2.025188 1_554
Ga17 O37 2.022594 1_555
Ga17 O32 2.023184 1_565
Ga17 O25 2.024411 1_565
Ga17 O42 2.024649 1_555
Ga17 O44 2.025148 1_555
Ga17 O30 2.025188 1_565
Ga18 O38 2.022594 1_555
Ga18 O33 2.023179 1_455
Ga18 O26 2.024411 1_455
Ga18 O40 2.024658 1_555
Ga18 O45 2.025150 1_555
Ga18 O28 2.025188 1_455
Ga19 O39 2.022594 1_455
Ga19 O35 2.023175 1_556
Ga19 O27 2.024411 1_546
Ga19 O43 2.024651 1_555
Ga19 O47 2.025150 1_445
Ga19 O31 2.025188 1_446
O0 Tb0 2.371432 1_555
O1 Tb0 2.371432 1_555
O2 Tb1 2.371432 1_555
O3 Tb1 2.371432 1_655
O4 Tb2 2.371138 1_555
O4 Tb1 2.473511 1_555
O5 Tb2 2.371148 1_554
O5 Tb0 2.473513 1_555
O6 Tb3 2.371142 1_555
O6 Tb0 2.473507 1_555
O7 Tb3 2.371142 1_555
O7 Tb1 2.473507 1_545
O8 Tb3 2.468588 1_555
O9 Tb2 2.468582 1_555
O10 Tb2 2.468588 1_555
O11 Tb3 2.468594 1_655
O36 Tb2 2.371432 1_555
O37 Tb2 2.371432 1_555
O38 Tb3 2.371432 1_555
O39 Tb3 2.371432 1_655
O40 Tb0 2.371142 1_555
O40 Tb3 2.473507 1_555
O41 Tb0 2.371142 1_555
O41 Tb2 2.473507 1_554
O42 Tb1 2.371138 1_555
O42 Tb2 2.473511 1_555
O43 Tb1 2.371148 1_545
O43 Tb3 2.473513 1_555
O44 Tb1 2.468582 1_555
O45 Tb0 2.468588 1_555
O46 Tb0 2.468594 1_555
O47 Tb1 2.468588 1_655
