# generated using pymatgen
data_Li2AlCoO4
_symmetry_space_group_name_H-M   'P 1'
_cell_length_a   5.01553800
_cell_length_b   6.25878000
_cell_length_c   10.97432700
_cell_angle_alpha   90.00000000
_cell_angle_beta   90.00000000
_cell_angle_gamma   90.00000000
_symmetry_Int_Tables_number   1
_chemical_formula_structural   Li2AlCoO4
_chemical_formula_sum   'Li8 Al4 Co4 O16'
_cell_volume   344.49673319
_cell_formula_units_Z   4
loop_
 _symmetry_equiv_pos_site_id
 _symmetry_equiv_pos_as_xyz
  1  'x, y, z'
loop_
 _atom_site_type_symbol
 _atom_site_label
 _atom_site_symmetry_multiplicity
 _atom_site_fract_x
 _atom_site_fract_y
 _atom_site_fract_z
 _atom_site_occupancy
  Li  Li0  1  0.18192300  0.00073000  0.58617300  1
  Li  Li1  1  0.31807700  0.00073000  0.08617300  1
  Li  Li2  1  0.31807700  0.49927000  0.08617300  1
  Li  Li3  1  0.18192300  0.49927000  0.58617300  1
  Li  Li4  1  0.68192300  0.50073000  0.91382700  1
  Li  Li5  1  0.81807700  0.50073000  0.41382700  1
  Li  Li6  1  0.81807700  0.99927000  0.41382700  1
  Li  Li7  1  0.68192300  0.99927000  0.91382700  1
  Al  Al0  1  0.67306500  0.25000000  0.66976400  1
  Al  Al1  1  0.82693500  0.25000000  0.16976400  1
  Al  Al2  1  0.32693500  0.75000000  0.33023600  1
  Al  Al3  1  0.17306500  0.75000000  0.83023600  1
  Co  Co0  1  0.17763700  0.25000000  0.83777200  1
  Co  Co1  1  0.32236300  0.25000000  0.33777200  1
  Co  Co2  1  0.67763700  0.75000000  0.66222800  1
  Co  Co3  1  0.82236300  0.75000000  0.16222800  1
  O  O0  1  0.77624200  0.01130500  0.59294800  1
  O  O1  1  0.72375800  0.01130500  0.09294800  1
  O  O2  1  0.31668600  0.25000000  0.67660500  1
  O  O3  1  0.69938200  0.25000000  0.32213100  1
  O  O4  1  0.18331400  0.25000000  0.17660500  1
  O  O5  1  0.80061800  0.25000000  0.82213100  1
  O  O6  1  0.72375800  0.48869500  0.09294800  1
  O  O7  1  0.77624200  0.48869500  0.59294800  1
  O  O8  1  0.22375800  0.51130500  0.40705200  1
  O  O9  1  0.27624200  0.51130500  0.90705200  1
  O  O10  1  0.68331400  0.75000000  0.32339500  1
  O  O11  1  0.81668600  0.75000000  0.82339500  1
  O  O12  1  0.30061800  0.75000000  0.67786900  1
  O  O13  1  0.19938200  0.75000000  0.17786900  1
  O  O14  1  0.22375800  0.98869500  0.40705200  1
  O  O15  1  0.27624200  0.98869500  0.90705200  1
loop_
_geom_bond_atom_site_label_1
_geom_bond_atom_site_label_2
_geom_bond_distance
_geom_bond_site_symmetry_2
Li0 O12 1.956946 1_545
Li0 O2 1.968696 1_555
Li0 O14 1.978334 1_545
Li0 O0 2.037142 1_455
Li1 O13 1.956946 1_545
Li1 O4 1.968696 1_555
Li1 O15 1.978334 1_544
Li1 O1 2.037142 1_555
Li2 O13 1.956946 1_555
Li2 O4 1.968696 1_555
Li2 O9 1.978334 1_554
Li2 O6 2.037142 1_555
Li3 O12 1.956946 1_555
Li3 O2 1.968696 1_555
Li3 O8 1.978334 1_555
Li3 O7 2.037142 1_455
Li4 O5 1.956946 1_555
Li4 O11 1.968696 1_555
Li4 O6 1.978334 1_556
Li4 O9 2.037142 1_555
Li5 O3 1.956946 1_555
Li5 O10 1.968696 1_555
Li5 O7 1.978334 1_555
Li5 O8 2.037142 1_655
Li6 O3 1.956946 1_565
Li6 O10 1.968696 1_555
Li6 O0 1.978334 1_565
Li6 O14 2.037142 1_655
Li7 O5 1.956946 1_565
Li7 O11 1.968696 1_555
Li7 O1 1.978334 1_566
Li7 O15 2.037142 1_555
Al0 O2 1.789008 1_555
Al0 O5 1.790329 1_555
Al0 O7 1.791732 1_555
Al0 O0 1.791732 1_555
Al1 O4 1.789008 1_655
Al1 O3 1.790329 1_555
Al1 O1 1.791732 1_555
Al1 O6 1.791732 1_555
Al2 O10 1.789008 1_555
Al2 O13 1.790329 1_555
Al2 O8 1.791732 1_555
Al2 O14 1.791732 1_555
Al3 O11 1.789008 1_455
Al3 O12 1.790329 1_555
Al3 O15 1.791732 1_555
Al3 O9 1.791732 1_555
Co0 O9 1.870119 1_555
Co0 O15 1.870119 1_545
Co0 O5 1.898728 1_455
Co0 O2 1.901229 1_555
Co1 O8 1.870119 1_555
Co1 O14 1.870119 1_545
Co1 O3 1.898728 1_555
Co1 O4 1.901229 1_555
Co2 O0 1.870119 1_565
Co2 O7 1.870119 1_555
Co2 O12 1.898728 1_555
Co2 O11 1.901229 1_555
Co3 O1 1.870119 1_565
Co3 O6 1.870119 1_555
Co3 O13 1.898728 1_655
Co3 O10 1.901229 1_555
