# generated using pymatgen
data_Ce2Ga5Au3
_symmetry_space_group_name_H-M   'P 1'
_cell_length_a   4.35074700
_cell_length_b   4.35074700
_cell_length_c   10.99173000
_cell_angle_alpha   90.00000000
_cell_angle_beta   90.00000000
_cell_angle_gamma   90.00000000
_symmetry_Int_Tables_number   1
_chemical_formula_structural   Ce2Ga5Au3
_chemical_formula_sum   'Ce2 Ga5 Au3'
_cell_volume   208.06245121
_cell_formula_units_Z   1
loop_
 _symmetry_equiv_pos_site_id
 _symmetry_equiv_pos_as_xyz
  1  'x, y, z'
loop_
 _atom_site_type_symbol
 _atom_site_label
 _atom_site_symmetry_multiplicity
 _atom_site_fract_x
 _atom_site_fract_y
 _atom_site_fract_z
 _atom_site_occupancy
  Ce  Ce0  1  0.50000000  0.00000000  0.25176600  1
  Ce  Ce1  1  0.00000000  0.50000000  0.74823400  1
  Ga  Ga0  1  0.50000000  0.50000000  0.00000000  1
  Ga  Ga1  1  0.00000000  0.00000000  0.00000000  1
  Ga  Ga2  1  0.50000000  0.00000000  0.87084400  1
  Ga  Ga3  1  0.00000000  0.50000000  0.12915600  1
  Ga  Ga4  1  0.50000000  0.50000000  0.50000000  1
  Au  Au0  1  0.50000000  0.00000000  0.64731200  1
  Au  Au1  1  0.00000000  0.50000000  0.35268800  1
  Au  Au2  1  0.00000000  0.00000000  0.50000000  1
loop_
_geom_bond_atom_site_label_1
_geom_bond_atom_site_label_2
_geom_bond_distance
_geom_bond_site_symmetry_2
Ce0 Ga3 3.358688 1_555
Ce0 Ga3 3.358688 1_645
Ce0 Ga3 3.358688 1_655
Ce0 Ga3 3.358688 1_545
Ce0 Ga4 3.489567 1_545
Ce0 Ga4 3.489567 1_555
Ce0 Ga1 3.520006 1_555
Ce0 Ga1 3.520006 1_655
Ce0 Ga0 3.520006 1_545
Ce0 Ga0 3.520006 1_555
Ce1 Ga2 3.358688 1_455
Ce1 Ga2 3.358688 1_555
Ce1 Ga2 3.358688 1_565
Ce1 Ga2 3.358688 1_465
Ce1 Ga4 3.489567 1_455
Ce1 Ga4 3.489567 1_555
Ce1 Ga1 3.520006 1_566
Ce1 Ga1 3.520006 1_556
Ce1 Ga0 3.520006 1_456
Ce1 Ga0 3.520006 1_556
Ga0 Ga3 2.597624 1_555
Ga0 Ga3 2.597624 1_655
Ga0 Ga2 2.597624 1_554
Ga0 Ga2 2.597624 1_564
Ga0 Ga1 3.076443 1_665
Ga0 Ga1 3.076443 1_555
Ga0 Ga1 3.076443 1_655
Ga0 Ga1 3.076443 1_565
Ga1 Ga3 2.597624 1_545
Ga1 Ga3 2.597624 1_555
Ga1 Ga2 2.597624 1_554
Ga1 Ga2 2.597624 1_454
Au0 Ga2 2.457003 1_555
Au0 Au2 2.711845 1_555
Au0 Ga4 2.711845 1_555
Au0 Ga4 2.711845 1_545
Au0 Au2 2.711845 1_655
Au0 Ce1 3.270331 1_555
Au0 Ce1 3.270331 1_655
Au0 Ce1 3.270331 1_545
Au0 Ce1 3.270331 1_645
Au1 Ga3 2.457003 1_555
Au1 Au2 2.711845 1_555
Au1 Ga4 2.711845 1_555
Au1 Au2 2.711845 1_565
Au1 Ga4 2.711845 1_455
Au1 Ce0 3.270331 1_565
Au1 Ce0 3.270331 1_455
Au1 Ce0 3.270331 1_465
Au1 Ce0 3.270331 1_555
Au2 Ga4 3.076443 1_445
Au2 Ga4 3.076443 1_455
Au2 Ga4 3.076443 1_555
Au2 Ga4 3.076443 1_545
Au2 Ce1 3.489567 1_555
Au2 Ce1 3.489567 1_545
Au2 Ce0 3.489567 1_455
Au2 Ce0 3.489567 1_555
