# generated using pymatgen
data_NbCo3
_symmetry_space_group_name_H-M   'P 1'
_cell_length_a   4.73320848
_cell_length_b   4.73606500
_cell_length_c   15.46363451
_cell_angle_alpha   90.00000000
_cell_angle_beta   90.02539212
_cell_angle_gamma   59.98004115
_symmetry_Int_Tables_number   1
_chemical_formula_structural   NbCo3
_chemical_formula_sum   'Nb6 Co18'
_cell_volume   300.14288955
_cell_formula_units_Z   6
loop_
 _symmetry_equiv_pos_site_id
 _symmetry_equiv_pos_as_xyz
  1  'x, y, z'
loop_
 _atom_site_type_symbol
 _atom_site_label
 _atom_site_symmetry_multiplicity
 _atom_site_fract_x
 _atom_site_fract_y
 _atom_site_fract_z
 _atom_site_occupancy
  Nb  Nb0  1  0.00016800  0.99991600  0.09169300  1
  Nb  Nb1  1  0.99983200  0.00008400  0.90830700  1
  Nb  Nb2  1  0.33316800  0.33341600  0.35078400  1
  Nb  Nb3  1  0.66683200  0.66658400  0.64921600  1
  Nb  Nb4  1  0.66655500  0.66672200  0.83944800  1
  Nb  Nb5  1  0.33344500  0.33327800  0.16055200  1
  Co  Co0  1  0.16314600  0.67377700  0.74714700  1
  Co  Co1  1  0.67378800  0.16310600  0.74717900  1
  Co  Co2  1  0.16314600  0.16307700  0.74714700  1
  Co  Co3  1  0.83685400  0.32622300  0.25285300  1
  Co  Co4  1  0.32621200  0.83689400  0.25282100  1
  Co  Co5  1  0.83685400  0.83692300  0.25285300  1
  Co  Co6  1  0.50000000  0.00000000  0.50000000  1
  Co  Co7  1  0.00000000  0.50000000  0.50000000  1
  Co  Co8  1  0.50000000  0.50000000  0.50000000  1
  Co  Co9  1  0.50000000  0.00000000  0.00000000  1
  Co  Co10  1  0.00000000  0.50000000  0.00000000  1
  Co  Co11  1  0.50000000  0.50000000  0.00000000  1
  Co  Co12  1  0.33311900  0.33344100  0.62502100  1
  Co  Co13  1  0.66688100  0.66655900  0.37497900  1
  Co  Co14  1  0.66658400  0.66670800  0.12761600  1
  Co  Co15  1  0.33341600  0.33329200  0.87238400  1
  Co  Co16  1  0.00001300  0.99999300  0.58718400  1
  Co  Co17  1  0.99998700  0.00000700  0.41281600  1
loop_
_geom_bond_atom_site_label_1
_geom_bond_atom_site_label_2
_geom_bond_distance
_geom_bond_site_symmetry_2
Nb0 Nb1 2.835814 1_464
Nb0 Nb5 2.933055 1_465
Nb0 Nb5 2.933506 1_555
Nb0 Nb5 2.933509 1_565
Nb1 Nb4 2.933055 1_645
Nb1 Nb4 2.933506 1_555
Nb1 Nb4 2.933509 1_545
Nb2 Nb5 2.941679 1_555
Nb3 Nb4 2.941679 1_555
Co0 Co1 2.316165 1_465
Co0 Co2 2.317357 1_565
Co0 Co12 2.348531 1_555
Co0 Co15 2.387171 1_555
Co0 Co1 2.417044 1_555
Co0 Co2 2.418708 1_555
Co0 Nb4 2.762806 1_555
Co0 Nb4 2.764885 1_455
Co0 Nb3 2.808903 1_455
Co0 Nb3 2.810713 1_555
Co0 Co16 2.811859 1_555
Co0 Nb1 2.828934 1_465
Co1 Co2 2.316165 1_655
Co1 Co12 2.348377 1_555
Co1 Co15 2.386875 1_555
Co1 Co2 2.417044 1_555
Co1 Nb4 2.764830 1_555
Co1 Nb4 2.764834 1_545
Co1 Nb3 2.811256 1_545
Co1 Nb3 2.811256 1_555
Co1 Co16 2.812831 1_645
Co1 Nb1 2.826702 1_555
Co2 Nb4 2.762809 1_545
Co2 Nb4 2.764883 1_455
Co2 Nb3 2.808904 1_455
Co2 Nb3 2.810713 1_545
Co2 Nb1 2.828934 1_455
Co3 Co4 2.316165 1_645
Co3 Co5 2.317357 1_545
Co3 Co4 2.417044 1_555
Co3 Co5 2.418708 1_555
Co3 Nb5 2.762806 1_555
Co3 Nb5 2.764885 1_655
Co3 Nb2 2.808903 1_655
Co3 Nb2 2.810713 1_555
Co3 Nb0 2.828934 1_645
Co4 Co5 2.316165 1_455
Co4 Co5 2.417044 1_555
Co4 Nb5 2.764830 1_555
Co4 Nb5 2.764834 1_565
Co4 Nb2 2.811256 1_565
Co4 Nb2 2.811256 1_555
Co4 Nb0 2.826702 1_555
Co5 Nb5 2.762809 1_565
Co5 Nb5 2.764883 1_655
Co5 Nb2 2.808904 1_655
Co5 Nb2 2.810713 1_565
Co5 Nb0 2.828934 1_655
Co6 Co7 2.366604 1_645
Co6 Co7 2.366604 1_555
Co6 Co8 2.368032 1_555
Co6 Co8 2.368032 1_545
Co6 Nb3 2.681781 1_545
Co6 Nb2 2.681781 1_555
Co7 Co8 2.366604 1_455
Co7 Co8 2.366604 1_555
Co7 Nb2 2.681745 1_555
Co7 Nb3 2.681745 1_455
Co8 Nb3 2.681781 1_555
Co8 Nb2 2.681781 1_555
Co9 Nb0 2.758826 1_645
Co9 Nb1 2.758826 1_454
Co9 Nb1 2.758882 1_554
Co9 Nb0 2.758882 1_545
Co9 Nb5 2.834333 1_555
Co9 Nb4 2.834333 1_544
Co10 Co11 2.366604 1_555
Co10 Co11 2.366604 1_455
Co10 Co9 2.366604 1_555
Co10 Co9 2.366604 1_465
Co10 Co14 2.400877 1_455
Co10 Co15 2.400877 1_554
Co10 Nb0 2.760079 1_555
Co10 Nb1 2.760079 1_454
Co10 Nb1 2.760079 1_464
Co10 Nb0 2.760079 1_545
Co10 Nb5 2.833346 1_555
Co10 Nb4 2.833346 1_454
Co11 Co9 2.368032 1_565
Co11 Co9 2.368032 1_555
Co11 Co14 2.400195 1_555
Co11 Co15 2.400195 1_554
Co11 Nb0 2.758827 1_645
Co11 Nb1 2.758827 1_464
Co11 Nb0 2.758882 1_555
Co11 Nb1 2.758882 1_554
Co11 Nb4 2.834331 1_554
Co11 Nb5 2.834331 1_555
Co12 Co2 2.348533 1_555
Co12 Co7 2.366148 1_555
Co12 Co8 2.368239 1_555
Co12 Co6 2.368242 1_555
Co12 Nb3 2.756316 1_455
Co12 Nb3 2.759976 1_555
Co12 Nb3 2.759980 1_545
Co12 Co16 2.795124 1_555
Co12 Co16 2.795132 1_545
Co12 Co16 2.795321 1_645
Co13 Co4 2.348377 1_555
Co13 Co3 2.348531 1_555
Co13 Co5 2.348533 1_555
Co13 Co7 2.366148 1_655
Co13 Co8 2.368239 1_555
Co13 Co6 2.368242 1_565
Co13 Nb2 2.756316 1_655
Co13 Nb2 2.759976 1_555
Co13 Nb2 2.759980 1_565
Co13 Co17 2.795124 1_555
Co13 Co17 2.795132 1_565
Co13 Co17 2.795321 1_465
Co14 Co4 2.386875 1_555
Co14 Co5 2.387171 1_555
Co14 Co3 2.387171 1_555
Co14 Co9 2.400195 1_565
Co14 Nb5 2.779762 1_655
Co14 Nb5 2.780591 1_555
Co14 Nb5 2.780595 1_565
Co14 Nb0 2.786784 1_555
Co14 Nb0 2.790328 1_655
Co14 Nb0 2.790328 1_645
Co15 Co2 2.387171 1_555
Co15 Co9 2.400195 1_556
Co15 Nb4 2.779762 1_455
Co15 Nb4 2.780591 1_555
Co15 Nb4 2.780595 1_545
Co15 Nb1 2.786784 1_555
Co15 Nb1 2.790328 1_455
Co15 Nb1 2.790328 1_465
Co16 Co17 2.696363 1_465
Co16 Co6 2.723195 1_465
Co16 Co8 2.723198 1_465
Co16 Co8 2.724154 1_555
Co16 Co6 2.724156 1_565
Co16 Co7 2.724915 1_555
Co16 Co7 2.724919 1_565
Co16 Co2 2.811861 1_565
Co16 Nb3 2.895793 1_555
Co16 Nb3 2.897159 1_455
Co16 Nb3 2.897163 1_465
Co17 Co6 2.723195 1_655
Co17 Co8 2.723198 1_645
Co17 Co8 2.724154 1_555
Co17 Co6 2.724156 1_555
Co17 Co7 2.724915 1_655
Co17 Co7 2.724919 1_645
Co17 Co3 2.811859 1_555
Co17 Co5 2.811861 1_545
Co17 Co4 2.812831 1_645
Co17 Nb2 2.895793 1_555
Co17 Nb2 2.897159 1_655
Co17 Nb2 2.897163 1_645
