# generated using pymatgen
data_Mn(CdN)2
_symmetry_space_group_name_H-M   'P 1'
_cell_length_a   2.94038517
_cell_length_b   2.93098608
_cell_length_c   10.04924613
_cell_angle_alpha   89.99999583
_cell_angle_beta   73.56449985
_cell_angle_gamma   119.89428814
_symmetry_Int_Tables_number   1
_chemical_formula_structural   Mn(CdN)2
_chemical_formula_sum   'Mn1 Cd2 N2'
_cell_volume   70.97224134
_cell_formula_units_Z   1
loop_
 _symmetry_equiv_pos_site_id
 _symmetry_equiv_pos_as_xyz
  1  'x, y, z'
loop_
 _atom_site_type_symbol
 _atom_site_label
 _atom_site_symmetry_multiplicity
 _atom_site_fract_x
 _atom_site_fract_y
 _atom_site_fract_z
 _atom_site_occupancy
  Mn  Mn0  1  0.00000000  0.00000000  0.50000000  1
  Cd  Cd0  1  0.44002500  0.22001200  0.18145400  1
  Cd  Cd1  1  0.55997500  0.77998800  0.81854600  1
  N  N0  1  0.52331400  0.26165800  0.61001500  1
  N  N1  1  0.47668600  0.73834200  0.38998500  1
loop_
_geom_bond_atom_site_label_1
_geom_bond_atom_site_label_2
_geom_bond_distance
_geom_bond_site_symmetry_2
Mn0 N0 1.991109 1_555
Mn0 N1 1.991109 1_445
Mn0 N0 1.992397 1_445
Mn0 N1 1.992397 1_555
Mn0 N1 1.992401 1_545
Mn0 N0 1.992401 1_455
Cd0 N1 2.583734 1_555
Cd0 N1 2.583736 1_545
Cd0 N1 2.657623 1_445
Cd1 N0 2.583734 1_555
Cd1 N0 2.583736 1_565
Cd1 N0 2.657623 1_665
