# generated using pymatgen
data_Mg(TiS2)2
_symmetry_space_group_name_H-M   'P 1'
_cell_length_a   7.36094076
_cell_length_b   7.36094076
_cell_length_c   7.36094076
_cell_angle_alpha   121.38120603
_cell_angle_beta   119.03815173
_cell_angle_gamma   89.64926034
_symmetry_Int_Tables_number   1
_chemical_formula_structural   Mg(TiS2)2
_chemical_formula_sum   'Mg2 Ti4 S8'
_cell_volume   280.97571695
_cell_formula_units_Z   2
loop_
 _symmetry_equiv_pos_site_id
 _symmetry_equiv_pos_as_xyz
  1  'x, y, z'
loop_
 _atom_site_type_symbol
 _atom_site_label
 _atom_site_symmetry_multiplicity
 _atom_site_fract_x
 _atom_site_fract_y
 _atom_site_fract_z
 _atom_site_occupancy
  Mg  Mg0  1  0.00000000  0.50000000  0.50000000  1
  Mg  Mg1  1  0.50000000  0.50000000  0.00000000  1
  Ti  Ti0  1  0.37315600  0.12315600  0.25000000  1
  Ti  Ti1  1  0.62684400  0.87684400  0.75000000  1
  Ti  Ti2  1  0.00000000  0.50000000  0.00000000  1
  Ti  Ti3  1  0.00000000  0.00000000  0.50000000  1
  S  S0  1  0.76513700  0.75065300  0.01448400  1
  S  S1  1  0.23617000  0.75065300  0.48551600  1
  S  S2  1  0.76065400  0.75469800  0.49404300  1
  S  S3  1  0.23486300  0.24934700  0.98551600  1
  S  S4  1  0.23934600  0.73338900  0.99404300  1
  S  S5  1  0.76383000  0.24934700  0.51448400  1
  S  S6  1  0.76065400  0.26661100  0.00595700  1
  S  S7  1  0.23934600  0.24530200  0.50595700  1
loop_
_geom_bond_atom_site_label_1
_geom_bond_atom_site_label_2
_geom_bond_distance
_geom_bond_site_symmetry_2
Mg0 S4 2.567293 1_555
Mg0 S6 2.567293 1_455
Mg0 S7 2.567299 1_555
Mg0 S2 2.567299 1_455
Mg0 S1 2.619497 1_555
Mg0 S5 2.619497 1_455
Mg1 S7 2.567293 1_554
Mg1 S2 2.567293 1_555
Mg1 S4 2.567293 1_554
Mg1 S6 2.567293 1_555
Mg1 S3 2.619491 1_554
Mg1 S0 2.619491 1_555
S0 Ti1 2.374275 1_554
S0 Ti3 2.517808 1_665
S0 Ti2 2.517808 1_655
S1 Ti1 2.374269 1_555
S1 Ti2 2.517808 1_555
S1 Ti3 2.517813 1_565
S2 Ti1 2.314045 1_555
S2 Ti3 2.499556 1_665
S3 Ti0 2.374275 1_556
S3 Ti2 2.517808 1_556
S3 Ti3 2.517808 1_555
S4 Ti0 2.314045 1_566
S4 Ti2 2.499561 1_556
S5 Ti0 2.374269 1_555
S5 Ti2 2.517808 1_656
S5 Ti3 2.517813 1_655
S6 Ti1 2.314045 1_544
S6 Ti2 2.499561 1_655
S7 Ti0 2.314045 1_555
S7 Ti3 2.499556 1_555
