# generated using pymatgen
data_Nd3PO7
_symmetry_space_group_name_H-M   'P 1'
_cell_length_a   9.36099483
_cell_length_b   9.36099483
_cell_length_c   12.37499065
_cell_angle_alpha   102.77890482
_cell_angle_beta   102.77890482
_cell_angle_gamma   91.18287150
_symmetry_Int_Tables_number   1
_chemical_formula_structural   Nd3PO7
_chemical_formula_sum   'Nd18 P6 O42'
_cell_volume   1028.58171016
_cell_formula_units_Z   6
loop_
 _symmetry_equiv_pos_site_id
 _symmetry_equiv_pos_as_xyz
  1  'x, y, z'
loop_
 _atom_site_type_symbol
 _atom_site_label
 _atom_site_symmetry_multiplicity
 _atom_site_fract_x
 _atom_site_fract_y
 _atom_site_fract_z
 _atom_site_occupancy
  Nd  Nd0  1  0.16502200  0.85481200  0.83597400  1
  Nd  Nd1  1  0.85481200  0.16502200  0.83597400  1
  Nd  Nd2  1  0.15296400  0.49883300  0.29601100  1
  Nd  Nd3  1  0.49883300  0.15296400  0.29601100  1
  Nd  Nd4  1  0.15577100  0.81003800  0.16160700  1
  Nd  Nd5  1  0.81003800  0.15577100  0.16160700  1
  Nd  Nd6  1  0.50806400  0.85416400  0.05375800  1
  Nd  Nd7  1  0.85416400  0.50806400  0.05375800  1
  Nd  Nd8  1  0.49479100  0.80849600  0.71979800  1
  Nd  Nd9  1  0.80849600  0.49479100  0.71979800  1
  Nd  Nd10  1  0.16977800  0.85584400  0.49648500  1
  Nd  Nd11  1  0.85584400  0.16977800  0.49648500  1
  Nd  Nd12  1  0.14192100  0.52171600  0.60792700  1
  Nd  Nd13  1  0.52171600  0.14192100  0.60792700  1
  Nd  Nd14  1  0.16540000  0.51028100  0.91946000  1
  Nd  Nd15  1  0.51028100  0.16540000  0.91946000  1
  Nd  Nd16  1  0.80895300  0.49930000  0.37938800  1
  Nd  Nd17  1  0.49930000  0.80895300  0.37938800  1
  P  P0  1  0.83655900  0.83655900  0.92570500  1
  P  P1  1  0.16355500  0.16355500  0.34143000  1
  P  P2  1  0.82767900  0.82767900  0.28748500  1
  P  P3  1  0.49834400  0.49834400  0.87315700  1
  P  P4  1  0.49471300  0.49471300  0.49566400  1
  P  P5  1  0.16614500  0.16614500  0.72056300  1
  O  O0  1  0.22885200  0.77292200  0.66357000  1
  O  O1  1  0.77292200  0.22885200  0.66357000  1
  O  O2  1  0.41414000  0.92599800  0.88539600  1
  O  O3  1  0.92599800  0.41414000  0.88539600  1
  O  O4  1  0.25333100  0.75766900  0.99616500  1
  O  O5  1  0.75766900  0.25333100  0.99616500  1
  O  O6  1  0.94497000  0.94497000  0.89621100  1
  O  O7  1  0.13524100  0.13524100  0.83318100  1
  O  O8  1  0.25999800  0.25999800  0.29029100  1
  O  O9  1  0.24965700  0.73761100  0.33017400  1
  O  O10  1  0.73761100  0.24965700  0.33017400  1
  O  O11  1  0.11792000  0.54618500  0.10777000  1
  O  O12  1  0.54618500  0.11792000  0.10777000  1
  O  O13  1  0.05878100  0.05878100  0.23494800  1
  O  O14  1  0.93043000  0.73876600  0.99472100  1
  O  O15  1  0.73876600  0.93043000  0.99472100  1
  O  O16  1  0.92460700  0.73321800  0.21816800  1
  O  O17  1  0.73321800  0.92460700  0.21816800  1
  O  O18  1  0.60537500  0.60537500  0.97676400  1
  O  O19  1  0.41067700  0.90572200  0.21952700  1
  O  O20  1  0.90572200  0.41067700  0.21952700  1
  O  O21  1  0.43601000  0.88936400  0.55213100  1
  O  O22  1  0.88936400  0.43601000  0.55213100  1
  O  O23  1  0.59655500  0.59655500  0.60319100  1
  O  O24  1  0.74067000  0.74067000  0.81343200  1
  O  O25  1  0.61822500  0.04894500  0.77134100  1
  O  O26  1  0.04894500  0.61822500  0.77134100  1
  O  O27  1  0.92513400  0.92513400  0.39877100  1
  O  O28  1  0.04507900  0.61590800  0.44455300  1
  O  O29  1  0.61590800  0.04507900  0.44455300  1
  O  O30  1  0.26606400  0.07418200  0.41388100  1
  O  O31  1  0.07418200  0.26606400  0.41388100  1
  O  O32  1  0.32689800  0.13591800  0.71633000  1
  O  O33  1  0.13591800  0.32689800  0.71633000  1
  O  O34  1  0.05977600  0.05977600  0.61762600  1
  O  O35  1  0.33248900  0.52291900  0.49544500  1
  O  O36  1  0.52291900  0.33248900  0.49544500  1
  O  O37  1  0.39319200  0.58575600  0.80071300  1
  O  O38  1  0.58575600  0.39319200  0.80071300  1
  O  O39  1  0.40379200  0.40379200  0.92710400  1
  O  O40  1  0.71984200  0.71984200  0.31793700  1
  O  O41  1  0.53306800  0.53306800  0.38755600  1
loop_
_geom_bond_atom_site_label_1
_geom_bond_atom_site_label_2
_geom_bond_distance
_geom_bond_site_symmetry_2
Nd0 O0 2.314264 1_555
Nd0 O2 2.319677 1_555
Nd0 O26 2.336199 1_555
Nd0 O4 2.354487 1_555
Nd0 O6 2.446204 1_455
Nd0 O7 2.652569 1_565
Nd1 O1 2.314264 1_555
Nd1 O3 2.319677 1_555
Nd1 O25 2.336199 1_555
Nd1 O5 2.354487 1_555
Nd1 O6 2.446204 1_545
Nd1 O7 2.652569 1_655
Nd2 O9 2.307224 1_555
Nd2 O20 2.353717 1_455
Nd2 O28 2.361301 1_555
Nd2 O11 2.419775 1_555
Nd2 O8 2.461962 1_555
Nd2 O35 2.620959 1_555
Nd3 O10 2.307224 1_555
Nd3 O19 2.353717 1_545
Nd3 O29 2.361301 1_555
Nd3 O12 2.419775 1_555
Nd3 O8 2.461962 1_555
Nd3 O36 2.620959 1_555
Nd4 O9 2.328683 1_555
Nd4 O4 2.380673 1_554
Nd4 O11 2.408616 1_555
Nd4 O19 2.425075 1_555
Nd4 O16 2.553050 1_455
Nd4 O14 2.562234 1_454
Nd4 O13 2.566478 1_565
Nd5 O10 2.328683 1_555
Nd5 O5 2.380673 1_554
Nd5 O12 2.408616 1_555
Nd5 O20 2.425075 1_555
Nd5 O17 2.553050 1_545
Nd5 O15 2.562234 1_544
Nd5 O13 2.566478 1_655
Nd6 O2 2.323769 1_554
Nd6 O19 2.383213 1_555
Nd6 O12 2.407947 1_565
Nd6 O4 2.425786 1_554
Nd6 O17 2.543358 1_555
Nd6 O15 2.563662 1_554
Nd6 O18 2.579023 1_554
Nd7 O3 2.323769 1_554
Nd7 O20 2.383213 1_555
Nd7 O11 2.407947 1_655
Nd7 O5 2.425786 1_554
Nd7 O16 2.543358 1_555
Nd7 O14 2.563662 1_554
Nd7 O18 2.579023 1_554
Nd8 O21 2.321190 1_555
Nd8 O2 2.387661 1_555
Nd8 O25 2.395768 1_565
Nd8 O0 2.426811 1_555
Nd8 O24 2.499883 1_555
Nd8 O23 2.519042 1_555
Nd8 O37 2.741844 1_555
Nd9 O22 2.321190 1_555
Nd9 O3 2.387661 1_555
Nd9 O26 2.395768 1_655
Nd9 O1 2.426811 1_555
Nd9 O24 2.499883 1_555
Nd9 O23 2.519042 1_555
Nd9 O38 2.741844 1_555
Nd10 O0 2.324981 1_555
Nd10 O9 2.393143 1_555
Nd10 O28 2.396175 1_555
Nd10 O21 2.428297 1_555
Nd10 O27 2.512122 1_455
Nd10 O34 2.539694 1_565
Nd10 O30 2.700092 1_565
Nd11 O1 2.324981 1_555
Nd11 O10 2.393143 1_555
Nd11 O29 2.396175 1_555
Nd11 O22 2.428297 1_555
Nd11 O27 2.512122 1_545
Nd11 O34 2.539694 1_655
Nd11 O31 2.700092 1_655
Nd12 O0 2.371262 1_555
Nd12 O22 2.379975 1_455
Nd12 O26 2.380343 1_555
Nd12 O28 2.386955 1_555
Nd12 O35 2.494915 1_555
Nd12 O33 2.497992 1_555
Nd12 O37 2.900053 1_555
Nd12 O31 2.935494 1_555
Nd13 O1 2.371262 1_555
Nd13 O21 2.379975 1_545
Nd13 O25 2.380343 1_555
Nd13 O29 2.386955 1_555
Nd13 O36 2.494915 1_555
Nd13 O32 2.497992 1_555
Nd13 O38 2.900053 1_555
Nd13 O30 2.935494 1_555
Nd14 O3 2.311040 1_455
Nd14 O4 2.354716 1_555
Nd14 O26 2.355863 1_555
Nd14 O11 2.420505 1_556
Nd14 O39 2.454139 1_555
Nd14 O33 2.665799 1_555
Nd15 O2 2.311040 1_545
Nd15 O5 2.354716 1_555
Nd15 O25 2.355863 1_555
Nd15 O12 2.420505 1_556
Nd15 O39 2.454139 1_555
Nd15 O32 2.665799 1_555
Nd16 O22 2.313911 1_555
Nd16 O10 2.324666 1_555
Nd16 O28 2.334529 1_655
Nd16 O20 2.349501 1_555
Nd16 O40 2.453824 1_555
Nd16 O41 2.629599 1_555
Nd17 O21 2.313911 1_555
Nd17 O9 2.324666 1_555
Nd17 O29 2.334529 1_565
Nd17 O19 2.349501 1_555
Nd17 O40 2.453824 1_555
Nd17 O41 2.629599 1_555
O6 P0 1.574227 1_555
O7 P5 1.569358 1_555
O8 P1 1.581909 1_555
O13 P1 1.573876 1_555
O14 P0 1.544899 1_555
O15 P0 1.544899 1_555
O16 P2 1.543655 1_555
O17 P2 1.543655 1_555
O18 P3 1.572751 1_555
O23 P4 1.558348 1_555
O24 P0 1.550848 1_555
O27 P2 1.554073 1_555
O30 P1 1.552085 1_555
O31 P1 1.552085 1_555
O32 P5 1.546980 1_555
O33 P5 1.546980 1_555
O34 P5 1.562831 1_555
O35 P4 1.546238 1_555
O36 P4 1.546238 1_555
O37 P3 1.552273 1_555
O38 P3 1.552273 1_555
O39 P3 1.582067 1_555
O40 P2 1.573065 1_555
O41 P4 1.570759 1_555
