# generated using pymatgen
data_Rb2CeTa6(Br5O)3
_symmetry_space_group_name_H-M   'P 1'
_cell_length_a   9.59931446
_cell_length_b   9.59931446
_cell_length_c   18.10592973
_cell_angle_alpha   90.00000000
_cell_angle_beta   90.00000000
_cell_angle_gamma   119.99999933
_symmetry_Int_Tables_number   1
_chemical_formula_structural   Rb2CeTa6(Br5O)3
_chemical_formula_sum   'Rb4 Ce2 Ta12 Br30 O6'
_cell_volume   1444.88041026
_cell_formula_units_Z   2
loop_
 _symmetry_equiv_pos_site_id
 _symmetry_equiv_pos_as_xyz
  1  'x, y, z'
loop_
 _atom_site_type_symbol
 _atom_site_label
 _atom_site_symmetry_multiplicity
 _atom_site_fract_x
 _atom_site_fract_y
 _atom_site_fract_z
 _atom_site_occupancy
  Rb  Rb0  1  0.66666700  0.33333300  0.95251283  1
  Rb  Rb1  1  0.33333300  0.66666700  0.04748717  1
  Rb  Rb2  1  0.66666700  0.33333300  0.54748557  1
  Rb  Rb3  1  0.33333300  0.66666700  0.45251443  1
  Ce  Ce0  1  0.33333300  0.66666700  0.75000074  1
  Ce  Ce1  1  0.66666700  0.33333300  0.24999926  1
  Ta  Ta0  1  0.81062691  0.82732869  0.81424344  1
  Ta  Ta1  1  0.18937309  0.17267131  0.18575656  1
  Ta  Ta2  1  0.01670178  0.18937309  0.81424344  1
  Ta  Ta3  1  0.01669867  0.82732584  0.68575624  1
  Ta  Ta4  1  0.98329822  0.81062691  0.18575656  1
  Ta  Ta5  1  0.98330133  0.17267416  0.31424376  1
  Ta  Ta6  1  0.17267131  0.98329822  0.81424344  1
  Ta  Ta7  1  0.17267416  0.18937283  0.68575624  1
  Ta  Ta8  1  0.82732869  0.01670178  0.18575656  1
  Ta  Ta9  1  0.82732584  0.81062717  0.31424376  1
  Ta  Ta10  1  0.81062717  0.98330133  0.68575624  1
  Ta  Ta11  1  0.18937283  0.01669867  0.31424376  1
  Br  Br0  1  0.78576864  0.57154712  0.75000003  1
  Br  Br1  1  0.21423136  0.42845288  0.24999997  1
  Br  Br2  1  0.78577847  0.21423136  0.75000003  1
  Br  Br3  1  0.21422153  0.78576864  0.24999997  1
  Br  Br4  1  0.42845288  0.21422153  0.75000003  1
  Br  Br5  1  0.57154712  0.78577847  0.24999997  1
  Br  Br6  1  0.79573423  0.01903208  0.91472935  1
  Br  Br7  1  0.20426577  0.98096792  0.08527065  1
  Br  Br8  1  0.22329785  0.20426577  0.91472935  1
  Br  Br9  1  0.22329861  0.01903245  0.58527068  1
  Br  Br10  1  0.77670215  0.79573423  0.08527065  1
  Br  Br11  1  0.77670139  0.98096755  0.41472932  1
  Br  Br12  1  0.98096792  0.77670215  0.91472935  1
  Br  Br13  1  0.98096755  0.20426615  0.58527068  1
  Br  Br14  1  0.01903208  0.22329785  0.08527065  1
  Br  Br15  1  0.01903245  0.79573385  0.41472932  1
  Br  Br16  1  0.79573385  0.77670139  0.58527068  1
  Br  Br17  1  0.20426615  0.22329861  0.41472932  1
  Br  Br18  1  0.52915182  0.60330520  0.88379303  1
  Br  Br19  1  0.47084818  0.39669480  0.11620697  1
  Br  Br20  1  0.07415338  0.47084818  0.88379303  1
  Br  Br21  1  0.07415325  0.60330501  0.61620708  1
  Br  Br22  1  0.92584662  0.52915182  0.11620697  1
  Br  Br23  1  0.92584675  0.39669499  0.38379292  1
  Br  Br24  1  0.39669480  0.92584662  0.88379303  1
  Br  Br25  1  0.39669499  0.47084824  0.61620708  1
  Br  Br26  1  0.60330520  0.07415338  0.11620697  1
  Br  Br27  1  0.60330501  0.52915176  0.38379292  1
  Br  Br28  1  0.52915176  0.92584675  0.61620708  1
  Br  Br29  1  0.47084824  0.07415325  0.38379292  1
  O  O0  1  0.18138831  0.36277444  0.75000012  1
  O  O1  1  0.81861169  0.63722556  0.24999988  1
  O  O2  1  0.18138613  0.81861169  0.75000012  1
  O  O3  1  0.81861387  0.18138831  0.24999988  1
  O  O4  1  0.63722556  0.81861387  0.75000012  1
  O  O5  1  0.36277444  0.18138613  0.24999988  1
loop_
_geom_bond_atom_site_label_1
_geom_bond_atom_site_label_2
_geom_bond_distance
_geom_bond_site_symmetry_2
Ce0 O2 2.526327 1_555
Ce0 O4 2.526335 1_555
Ce0 O0 2.526335 1_555
Ce1 O3 2.526327 1_555
Ce1 O5 2.526335 1_555
Ce1 O1 2.526335 1_555
Br0 Ta0 2.617763 1_555
Br0 Ta3 2.617776 1_655
Br1 Ta1 2.617763 1_555
Br1 Ta5 2.617776 1_455
Br2 Ta2 2.617763 1_655
Br2 Ta10 2.617776 1_545
Br3 Ta4 2.617763 1_455
Br3 Ta11 2.617776 1_565
Br4 Ta6 2.617763 1_545
Br4 Ta7 2.617776 1_555
Br5 Ta8 2.617763 1_565
Br5 Ta9 2.617776 1_555
Br6 Ta0 2.641990 1_545
Br6 Ta2 2.648538 1_655
Br6 Rb0 3.852761 1_555
Br7 Ta1 2.641990 1_565
Br7 Ta4 2.648538 1_455
Br7 Rb1 3.852761 1_555
Br8 Ta2 2.641990 1_555
Br8 Ta6 2.648538 1_545
Br8 Rb0 3.852770 1_555
Br9 Ta3 2.642011 1_545
Br9 Ta7 2.648519 1_555
Br9 Rb2 3.852767 1_555
Br10 Ta4 2.641990 1_555
Br10 Ta8 2.648538 1_565
Br10 Rb1 3.852770 1_555
Br11 Ta5 2.642011 1_565
Br11 Ta9 2.648519 1_555
Br11 Rb3 3.852767 1_555
Br12 Ta6 2.641990 1_655
Br12 Ta0 2.648538 1_555
Br12 Rb0 3.852768 1_555
Br13 Ta7 2.642011 1_655
Br13 Ta10 2.648519 1_545
Br13 Rb2 3.852761 1_555
Br14 Ta8 2.641990 1_455
Br14 Ta1 2.648538 1_555
Br14 Rb1 3.852768 1_555
Br15 Ta9 2.642011 1_455
Br15 Ta11 2.648519 1_565
Br15 Rb3 3.852761 1_555
Br16 Ta10 2.642011 1_555
Br16 Ta3 2.648519 1_655
Br16 Rb2 3.852770 1_555
Br17 Ta11 2.642011 1_555
Br17 Ta5 2.648519 1_455
Br17 Rb3 3.852770 1_555
Br18 Ta0 2.774958 1_555
Br18 Ce0 3.303756 1_555
Br18 Rb0 3.664390 1_555
Br18 Rb1 3.718997 1_556
Br19 Ta1 2.774958 1_555
Br19 Ce1 3.303756 1_555
Br19 Rb1 3.664390 1_555
Br19 Rb0 3.718997 1_554
Br20 Ta2 2.774958 1_555
Br20 Ce0 3.303752 1_555
Br20 Rb0 3.664382 1_455
Br20 Rb1 3.718993 1_556
Br21 Ta3 2.774949 1_555
Br21 Ce0 3.303769 1_555
Br21 Rb2 3.664393 1_455
Br21 Rb3 3.718970 1_555
Br22 Ta4 2.774958 1_555
Br22 Ce1 3.303752 1_555
Br22 Rb1 3.664382 1_655
Br22 Rb0 3.718993 1_554
Br23 Ta5 2.774949 1_555
Br23 Ce1 3.303769 1_555
Br23 Rb3 3.664393 1_655
Br23 Rb2 3.718970 1_555
Br24 Ta6 2.774958 1_555
Br24 Ce0 3.303750 1_555
Br24 Rb0 3.664384 1_565
Br24 Rb1 3.718991 1_556
Br25 Ta7 2.774949 1_555
Br25 Ce0 3.303775 1_555
Br25 Rb2 3.664400 1_555
Br25 Rb3 3.718976 1_555
Br26 Ta8 2.774958 1_555
Br26 Ce1 3.303750 1_555
Br26 Rb1 3.664384 1_545
Br26 Rb0 3.718991 1_554
Br27 Ta9 2.774949 1_555
Br27 Ce1 3.303775 1_555
Br27 Rb3 3.664400 1_555
Br27 Rb2 3.718976 1_555
Br28 Ta10 2.774949 1_555
Br28 Ce0 3.303771 1_555
Br28 Rb2 3.664391 1_565
Br28 Rb3 3.718972 1_555
Br29 Ta11 2.774949 1_555
Br29 Ce1 3.303771 1_555
Br29 Rb3 3.664391 1_545
Br29 Rb2 3.718972 1_555
O0 Ta2 1.997855 1_555
O0 Ta7 1.997865 1_555
O1 Ta4 1.997855 1_555
O1 Ta9 1.997865 1_555
O2 Ta6 1.997855 1_555
O2 Ta3 1.997865 1_555
O3 Ta8 1.997855 1_555
O3 Ta5 1.997865 1_555
O4 Ta0 1.997855 1_555
O4 Ta10 1.997865 1_555
O5 Ta1 1.997855 1_555
O5 Ta11 1.997865 1_555
