# generated using pymatgen
data_KMg30BiO32
_symmetry_space_group_name_H-M   'P 1'
_cell_length_a   8.67010600
_cell_length_b   8.67010600
_cell_length_c   8.66222700
_cell_angle_alpha   90.00000000
_cell_angle_beta   90.00000000
_cell_angle_gamma   90.00000000
_symmetry_Int_Tables_number   1
_chemical_formula_structural   KMg30BiO32
_chemical_formula_sum   'K1 Mg30 Bi1 O32'
_cell_volume   651.14599676
_cell_formula_units_Z   1
loop_
 _symmetry_equiv_pos_site_id
 _symmetry_equiv_pos_as_xyz
  1  'x, y, z'
loop_
 _atom_site_type_symbol
 _atom_site_label
 _atom_site_symmetry_multiplicity
 _atom_site_fract_x
 _atom_site_fract_y
 _atom_site_fract_z
 _atom_site_occupancy
  K  K0  1  0.00000000  0.00000000  0.00000000  1
  Mg  Mg0  1  0.50000000  0.00000000  0.00000000  1
  Mg  Mg1  1  0.00000000  0.50000000  0.00000000  1
  Mg  Mg2  1  0.00000000  0.00000000  0.50000000  1
  Mg  Mg3  1  0.50000000  0.00000000  0.50000000  1
  Mg  Mg4  1  0.00000000  0.50000000  0.50000000  1
  Mg  Mg5  1  0.50000000  0.50000000  0.50000000  1
  Mg  Mg6  1  0.24323100  0.24323100  0.00000000  1
  Mg  Mg7  1  0.75676900  0.24323100  0.00000000  1
  Mg  Mg8  1  0.24323100  0.75676900  0.00000000  1
  Mg  Mg9  1  0.75676900  0.75676900  0.00000000  1
  Mg  Mg10  1  0.24850400  0.24850400  0.50000000  1
  Mg  Mg11  1  0.75149600  0.24850400  0.50000000  1
  Mg  Mg12  1  0.24850400  0.75149600  0.50000000  1
  Mg  Mg13  1  0.75149600  0.75149600  0.50000000  1
  Mg  Mg14  1  0.25019900  0.00000000  0.25190000  1
  Mg  Mg15  1  0.74980100  0.00000000  0.25190000  1
  Mg  Mg16  1  0.24183600  0.50000000  0.25699300  1
  Mg  Mg17  1  0.75816400  0.50000000  0.25699300  1
  Mg  Mg18  1  0.25019900  0.00000000  0.74810000  1
  Mg  Mg19  1  0.74980100  0.00000000  0.74810000  1
  Mg  Mg20  1  0.24183600  0.50000000  0.74300700  1
  Mg  Mg21  1  0.75816400  0.50000000  0.74300700  1
  Mg  Mg22  1  0.00000000  0.25019900  0.25190000  1
  Mg  Mg23  1  0.50000000  0.24183600  0.25699300  1
  Mg  Mg24  1  0.00000000  0.74980100  0.25190000  1
  Mg  Mg25  1  0.50000000  0.75816400  0.25699300  1
  Mg  Mg26  1  0.00000000  0.25019900  0.74810000  1
  Mg  Mg27  1  0.50000000  0.24183600  0.74300700  1
  Mg  Mg28  1  0.00000000  0.74980100  0.74810000  1
  Mg  Mg29  1  0.50000000  0.75816400  0.74300700  1
  Bi  Bi0  1  0.50000000  0.50000000  0.00000000  1
  O  O0  1  0.00000000  0.00000000  0.27370600  1
  O  O1  1  0.50000000  0.00000000  0.25663300  1
  O  O2  1  0.00000000  0.50000000  0.25663300  1
  O  O3  1  0.50000000  0.50000000  0.26671400  1
  O  O4  1  0.00000000  0.00000000  0.72629400  1
  O  O5  1  0.50000000  0.00000000  0.74336700  1
  O  O6  1  0.00000000  0.50000000  0.74336700  1
  O  O7  1  0.50000000  0.50000000  0.73328600  1
  O  O8  1  0.25106000  0.25106000  0.24910300  1
  O  O9  1  0.74894000  0.25106000  0.24910300  1
  O  O10  1  0.25106000  0.74894000  0.24910300  1
  O  O11  1  0.74894000  0.74894000  0.24910300  1
  O  O12  1  0.25106000  0.25106000  0.75089700  1
  O  O13  1  0.74894000  0.25106000  0.75089700  1
  O  O14  1  0.25106000  0.74894000  0.75089700  1
  O  O15  1  0.74894000  0.74894000  0.75089700  1
  O  O16  1  0.27216700  0.00000000  0.00000000  1
  O  O17  1  0.72783300  0.00000000  0.00000000  1
  O  O18  1  0.23635000  0.50000000  0.00000000  1
  O  O19  1  0.76365000  0.50000000  0.00000000  1
  O  O20  1  0.25432100  0.00000000  0.50000000  1
  O  O21  1  0.74567900  0.00000000  0.50000000  1
  O  O22  1  0.24928500  0.50000000  0.50000000  1
  O  O23  1  0.75071500  0.50000000  0.50000000  1
  O  O24  1  0.00000000  0.27216700  0.00000000  1
  O  O25  1  0.50000000  0.23635000  0.00000000  1
  O  O26  1  0.00000000  0.72783300  0.00000000  1
  O  O27  1  0.50000000  0.76365000  0.00000000  1
  O  O28  1  0.00000000  0.25432100  0.50000000  1
  O  O29  1  0.50000000  0.24928500  0.50000000  1
  O  O30  1  0.00000000  0.74567900  0.50000000  1
  O  O31  1  0.50000000  0.75071500  0.50000000  1
loop_
_geom_bond_atom_site_label_1
_geom_bond_atom_site_label_2
_geom_bond_distance
_geom_bond_site_symmetry_2
K0 O24 2.359717 1_555
K0 O16 2.359717 1_555
K0 O26 2.359717 1_545
K0 O17 2.359717 1_455
K0 O0 2.370904 1_555
K0 O4 2.370904 1_554
Mg0 O17 1.975336 1_555
Mg0 O16 1.975336 1_555
Mg0 O27 2.049180 1_545
Mg0 O25 2.049180 1_555
Mg0 O1 2.223013 1_555
Mg0 O5 2.223013 1_554
Mg1 O26 1.975336 1_555
Mg1 O24 1.975336 1_555
Mg1 O19 2.049180 1_455
Mg1 O18 2.049180 1_555
Mg1 O2 2.223013 1_555
Mg1 O6 2.223013 1_554
Mg2 O0 1.960210 1_555
Mg2 O4 1.960210 1_555
Mg2 O21 2.204990 1_455
Mg2 O20 2.204990 1_555
Mg2 O28 2.204990 1_555
Mg2 O30 2.204990 1_545
Mg3 O1 2.108100 1_555
Mg3 O5 2.108100 1_555
Mg3 O21 2.130063 1_555
Mg3 O20 2.130063 1_555
Mg3 O31 2.161327 1_545
Mg3 O29 2.161327 1_555
Mg4 O6 2.108100 1_555
Mg4 O2 2.108100 1_555
Mg4 O30 2.130063 1_555
Mg4 O28 2.130063 1_555
Mg4 O23 2.161327 1_455
Mg4 O22 2.161327 1_555
Mg5 O7 2.020776 1_555
Mg5 O3 2.020776 1_555
Mg5 O22 2.173726 1_555
Mg5 O23 2.173726 1_555
Mg5 O29 2.173726 1_555
Mg5 O31 2.173726 1_555
Mg6 O16 2.123709 1_555
Mg6 O24 2.123709 1_555
Mg6 O12 2.159921 1_554
Mg6 O8 2.159921 1_555
Mg6 O18 2.227014 1_555
Mg6 O25 2.227014 1_555
Mg7 O24 2.123709 1_655
Mg7 O17 2.123709 1_555
Mg7 O13 2.159921 1_554
Mg7 O9 2.159921 1_555
Mg7 O25 2.227014 1_555
Mg7 O19 2.227014 1_555
Mg8 O16 2.123709 1_565
Mg8 O26 2.123709 1_555
Mg8 O14 2.159921 1_554
Mg8 O10 2.159921 1_555
Mg8 O18 2.227014 1_555
Mg8 O27 2.227014 1_555
Mg9 O17 2.123709 1_565
Mg9 O26 2.123709 1_655
Mg9 O15 2.159921 1_554
Mg9 O11 2.159921 1_555
Mg9 O27 2.227014 1_555
Mg9 O19 2.227014 1_555
Mg10 O20 2.155146 1_555
Mg10 O28 2.155146 1_555
Mg10 O12 2.173553 1_555
Mg10 O8 2.173553 1_555
Mg10 O29 2.180507 1_555
Mg10 O22 2.180507 1_555
Mg11 O28 2.155146 1_655
Mg11 O21 2.155146 1_555
Mg11 O9 2.173553 1_555
Mg11 O13 2.173553 1_555
Mg11 O23 2.180507 1_555
Mg11 O29 2.180507 1_555
Mg12 O20 2.155146 1_565
Mg12 O30 2.155146 1_555
Mg12 O14 2.173553 1_555
Mg12 O10 2.173553 1_555
Mg12 O31 2.180507 1_555
Mg12 O22 2.180507 1_555
Mg13 O21 2.155146 1_565
Mg13 O30 2.155146 1_655
Mg13 O11 2.173553 1_555
Mg13 O15 2.173553 1_555
Mg13 O31 2.180507 1_555
Mg13 O23 2.180507 1_555
Mg14 O20 2.149396 1_555
Mg14 O1 2.166189 1_555
Mg14 O8 2.176864 1_555
Mg14 O10 2.176864 1_545
Mg14 O0 2.177460 1_555
Mg14 O16 2.190312 1_555
Mg15 O21 2.149396 1_555
Mg15 O1 2.166189 1_555
Mg15 O9 2.176864 1_555
Mg15 O11 2.176864 1_545
Mg15 O0 2.177460 1_655
Mg15 O17 2.190312 1_555
Mg16 O2 2.096746 1_555
Mg16 O22 2.105972 1_555
Mg16 O10 2.160898 1_555
Mg16 O8 2.160898 1_555
Mg16 O18 2.226640 1_555
Mg16 O3 2.239893 1_555
Mg17 O2 2.096746 1_655
Mg17 O23 2.105972 1_555
Mg17 O11 2.160898 1_555
Mg17 O9 2.160898 1_555
Mg17 O19 2.226640 1_555
Mg17 O3 2.239893 1_555
Mg18 O20 2.149396 1_555
Mg18 O5 2.166189 1_555
Mg18 O12 2.176864 1_555
Mg18 O14 2.176864 1_545
Mg18 O4 2.177460 1_555
Mg18 O16 2.190312 1_556
Mg19 O21 2.149396 1_555
Mg19 O5 2.166189 1_555
Mg19 O15 2.176864 1_545
Mg19 O13 2.176864 1_555
Mg19 O4 2.177460 1_655
Mg19 O17 2.190312 1_556
Mg20 O6 2.096746 1_555
Mg20 O22 2.105972 1_555
Mg20 O12 2.160898 1_555
Mg20 O14 2.160898 1_555
Mg20 O18 2.226640 1_556
Mg20 O7 2.239893 1_555
Mg21 O6 2.096746 1_655
Mg21 O23 2.105972 1_555
Mg21 O13 2.160898 1_555
Mg21 O15 2.160898 1_555
Mg21 O19 2.226640 1_556
Mg21 O7 2.239893 1_555
Mg22 O28 2.149396 1_555
Mg22 O2 2.166189 1_555
Mg22 O9 2.176864 1_455
Mg22 O8 2.176864 1_555
Mg22 O0 2.177460 1_555
Mg22 O24 2.190312 1_555
Mg23 O1 2.096746 1_555
Mg23 O29 2.105972 1_555
Mg23 O8 2.160898 1_555
Mg23 O9 2.160898 1_555
Mg23 O25 2.226640 1_555
Mg23 O3 2.239893 1_555
Mg24 O30 2.149396 1_555
Mg24 O2 2.166189 1_555
Mg24 O11 2.176864 1_455
Mg24 O10 2.176864 1_555
Mg24 O0 2.177460 1_565
Mg24 O26 2.190312 1_555
Mg25 O1 2.096746 1_565
Mg25 O31 2.105972 1_555
Mg25 O10 2.160898 1_555
Mg25 O11 2.160898 1_555
Mg25 O27 2.226640 1_555
Mg25 O3 2.239893 1_555
Mg26 O28 2.149396 1_555
Mg26 O6 2.166189 1_555
Mg26 O13 2.176864 1_455
Mg26 O12 2.176864 1_555
Mg26 O4 2.177460 1_555
Mg26 O24 2.190312 1_556
Mg27 O5 2.096746 1_555
Mg27 O29 2.105972 1_555
Mg27 O12 2.160898 1_555
Mg27 O13 2.160898 1_555
Mg27 O25 2.226640 1_556
Mg27 O7 2.239893 1_555
Mg28 O30 2.149396 1_555
Mg28 O6 2.166189 1_555
Mg28 O15 2.176864 1_455
Mg28 O14 2.176864 1_555
Mg28 O4 2.177460 1_565
Mg28 O26 2.190312 1_556
Mg29 O5 2.096746 1_565
Mg29 O31 2.105972 1_555
Mg29 O14 2.160898 1_555
Mg29 O15 2.160898 1_555
Mg29 O27 2.226640 1_556
Mg29 O7 2.239893 1_555
Bi0 O25 2.285873 1_555
Bi0 O18 2.285873 1_555
Bi0 O19 2.285873 1_555
Bi0 O27 2.285873 1_555
Bi0 O7 2.310337 1_554
Bi0 O3 2.310337 1_555
