# generated using pymatgen
data_TaCo2
_symmetry_space_group_name_H-M   'P 1'
_cell_length_a   4.72468910
_cell_length_b   4.72468880
_cell_length_c   4.72468954
_cell_angle_alpha   60.00000196
_cell_angle_beta   60.00000404
_cell_angle_gamma   60.00000070
_symmetry_Int_Tables_number   1
_chemical_formula_structural   TaCo2
_chemical_formula_sum   'Ta2 Co4'
_cell_volume   74.57697169
_cell_formula_units_Z   2
loop_
 _symmetry_equiv_pos_site_id
 _symmetry_equiv_pos_as_xyz
  1  'x, y, z'
loop_
 _atom_site_type_symbol
 _atom_site_label
 _atom_site_symmetry_multiplicity
 _atom_site_fract_x
 _atom_site_fract_y
 _atom_site_fract_z
 _atom_site_occupancy
  Ta  Ta0  1  0.87500000  0.87500000  0.87500000  1
  Ta  Ta1  1  0.12500000  0.12500000  0.12500000  1
  Co  Co0  1  0.50000000  0.50000000  0.50000000  1
  Co  Co1  1  0.50000000  0.50000000  -0.00000000  1
  Co  Co2  1  0.00000000  0.50000000  0.50000000  1
  Co  Co3  1  0.50000000  -0.00000000  0.50000000  1
loop_
_geom_bond_atom_site_label_1
_geom_bond_atom_site_label_2
_geom_bond_distance
_geom_bond_site_symmetry_2
Ta0 Ta1 2.893269 1_656
Ta0 Ta1 2.893269 1_666
Ta0 Ta1 2.893269 1_566
Ta0 Ta1 2.893270 1_665
Co0 Co3 2.362344 1_555
Co0 Co3 2.362344 1_565
Co0 Co2 2.362345 1_655
Co0 Co2 2.362345 1_555
Co0 Co1 2.362345 1_556
Co0 Co1 2.362345 1_555
Co0 Ta0 2.770095 1_545
Co0 Ta1 2.770095 1_565
Co0 Ta0 2.770095 1_455
Co0 Ta1 2.770095 1_655
Co0 Ta0 2.770095 1_554
Co0 Ta1 2.770095 1_556
Co1 Co3 2.362345 1_555
Co1 Co3 2.362345 1_564
Co1 Co2 2.362345 1_654
Co1 Co2 2.362345 1_555
Co1 Ta0 2.770094 1_544
Co1 Ta1 2.770094 1_565
Co1 Ta1 2.770094 1_555
Co1 Ta0 2.770094 1_554
Co1 Ta0 2.770095 1_454
Co1 Ta1 2.770095 1_655
Co2 Co3 2.362344 1_465
Co2 Co3 2.362344 1_555
Co2 Ta0 2.770094 1_445
Co2 Ta1 2.770094 1_565
Co2 Ta1 2.770095 1_555
Co2 Ta0 2.770095 1_455
Co2 Ta1 2.770095 1_556
Co2 Ta0 2.770095 1_454
Co3 Ta1 2.770095 1_555
Co3 Ta0 2.770095 1_545
Co3 Ta0 2.770095 1_445
Co3 Ta1 2.770095 1_655
Co3 Ta1 2.770095 1_556
Co3 Ta0 2.770095 1_544
