# generated using pymatgen
data_Cs2PAuS4
_symmetry_space_group_name_H-M   'P 1'
_cell_length_a   7.15408800
_cell_length_b   7.29065100
_cell_length_c   20.45837400
_cell_angle_alpha   90.00000000
_cell_angle_beta   90.00000000
_cell_angle_gamma   90.00000000
_symmetry_Int_Tables_number   1
_chemical_formula_structural   Cs2PAuS4
_chemical_formula_sum   'Cs8 P4 Au4 S16'
_cell_volume   1067.06702885
_cell_formula_units_Z   4
loop_
 _symmetry_equiv_pos_site_id
 _symmetry_equiv_pos_as_xyz
  1  'x, y, z'
loop_
 _atom_site_type_symbol
 _atom_site_label
 _atom_site_symmetry_multiplicity
 _atom_site_fract_x
 _atom_site_fract_y
 _atom_site_fract_z
 _atom_site_occupancy
  Cs  Cs0  1  0.79082200  0.25000000  0.51552800  1
  Cs  Cs1  1  0.20917800  0.75000000  0.48447200  1
  Cs  Cs2  1  0.79082200  0.75000000  0.98447200  1
  Cs  Cs3  1  0.20917800  0.25000000  0.01552800  1
  Cs  Cs4  1  0.40619700  0.25000000  0.33411700  1
  Cs  Cs5  1  0.59380300  0.75000000  0.66588300  1
  Cs  Cs6  1  0.40619700  0.75000000  0.16588300  1
  Cs  Cs7  1  0.59380300  0.25000000  0.83411700  1
  P  P0  1  0.27650200  0.25000000  0.61373900  1
  P  P1  1  0.72349800  0.75000000  0.38626100  1
  P  P2  1  0.27650200  0.75000000  0.88626100  1
  P  P3  1  0.72349800  0.25000000  0.11373900  1
  Au  Au0  1  0.12126400  0.00000000  0.75000000  1
  Au  Au1  1  0.87873600  0.50000000  0.25000000  1
  Au  Au2  1  0.87873600  0.00000000  0.25000000  1
  Au  Au3  1  0.12126400  0.50000000  0.75000000  1
  S  S0  1  0.52576800  0.25000000  0.66035600  1
  S  S1  1  0.47423200  0.75000000  0.33964400  1
  S  S2  1  0.52576800  0.75000000  0.83964400  1
  S  S3  1  0.47423200  0.25000000  0.16035600  1
  S  S4  1  0.12134800  0.01269300  0.63664200  1
  S  S5  1  0.87865200  0.51269300  0.36335800  1
  S  S6  1  0.12134800  0.98730700  0.86335800  1
  S  S7  1  0.87865200  0.48730700  0.13664200  1
  S  S8  1  0.87865200  0.98730700  0.36335800  1
  S  S9  1  0.12134800  0.48730700  0.63664200  1
  S  S10  1  0.87865200  0.01269300  0.13664200  1
  S  S11  1  0.12134800  0.51269300  0.86335800  1
  S  S12  1  0.29020600  0.25000000  0.51442200  1
  S  S13  1  0.70979400  0.75000000  0.48557800  1
  S  S14  1  0.29020600  0.75000000  0.98557800  1
  S  S15  1  0.70979400  0.25000000  0.01442200  1
loop_
_geom_bond_atom_site_label_1
_geom_bond_atom_site_label_2
_geom_bond_distance
_geom_bond_site_symmetry_2
Cs0 S0 3.517768 1_555
Cs0 S12 3.572709 1_655
Cs0 S12 3.581522 1_555
Cs0 S5 3.708709 1_555
Cs0 S8 3.708709 1_545
Cs0 S13 3.741639 1_555
Cs0 S13 3.741639 1_545
Cs0 S9 3.837211 1_655
Cs0 S4 3.837211 1_655
Cs1 S1 3.517768 1_555
Cs1 S13 3.572709 1_455
Cs1 S13 3.581522 1_555
Cs1 S9 3.708709 1_555
Cs1 S4 3.708709 1_565
Cs1 S12 3.741639 1_565
Cs1 S12 3.741639 1_555
Cs1 S8 3.837211 1_455
Cs1 S5 3.837211 1_455
Cs2 S2 3.517768 1_555
Cs2 S14 3.572709 1_655
Cs2 S14 3.581522 1_555
Cs2 S7 3.708709 1_556
Cs2 S10 3.708709 1_566
Cs2 S15 3.741639 1_556
Cs2 S15 3.741639 1_566
Cs2 S6 3.837211 1_655
Cs2 S11 3.837211 1_655
Cs3 S3 3.517768 1_555
Cs3 S15 3.572709 1_455
Cs3 S15 3.581522 1_555
Cs3 S6 3.708709 1_544
Cs3 S11 3.708709 1_554
Cs3 S14 3.741639 1_554
Cs3 S14 3.741639 1_544
Cs3 S10 3.837211 1_455
Cs3 S7 3.837211 1_455
Cs4 S3 3.588034 1_555
Cs4 S1 3.679414 1_545
Cs4 S1 3.679414 1_555
Cs4 S12 3.780931 1_555
Cs5 S2 3.588034 1_555
Cs5 S0 3.679414 1_565
Cs5 S0 3.679414 1_555
Cs5 S13 3.780931 1_555
Cs6 S1 3.588034 1_555
Cs6 S3 3.679414 1_555
Cs6 S3 3.679414 1_565
Cs6 S14 3.780931 1_554
Cs7 S0 3.588034 1_555
Cs7 S2 3.679414 1_555
Cs7 S2 3.679414 1_545
Cs7 S15 3.780931 1_556
P0 S0 2.022279 1_555
P0 S12 2.034228 1_555
P0 S9 2.108302 1_555
P0 S4 2.108302 1_555
P1 S1 2.022279 1_555
P1 S13 2.034228 1_555
P1 S5 2.108302 1_555
P1 S8 2.108302 1_555
P2 S2 2.022279 1_555
P2 S14 2.034228 1_555
P2 S6 2.108302 1_555
P2 S11 2.108302 1_555
P3 S3 2.022279 1_555
P3 S15 2.034228 1_555
P3 S10 2.108302 1_555
P3 S7 2.108302 1_555
Au0 S6 2.320966 1_545
Au0 S4 2.320966 1_555
Au1 S7 2.320966 1_555
Au1 S5 2.320966 1_555
Au2 S10 2.320966 1_555
Au2 S8 2.320966 1_545
Au3 S9 2.320966 1_555
Au3 S11 2.320966 1_555
