# generated using pymatgen
data_Al2Si2O9
_symmetry_space_group_name_H-M   'P 1'
_cell_length_a   5.23953700
_cell_length_b   5.25340655
_cell_length_c   14.89471562
_cell_angle_alpha   85.58363563
_cell_angle_beta   81.11711666
_cell_angle_gamma   60.08728938
_symmetry_Int_Tables_number   1
_chemical_formula_structural   Al2Si2O9
_chemical_formula_sum   'Al4 Si4 O18'
_cell_volume   351.10555278
_cell_formula_units_Z   2
loop_
 _symmetry_equiv_pos_site_id
 _symmetry_equiv_pos_as_xyz
  1  'x, y, z'
loop_
 _atom_site_type_symbol
 _atom_site_label
 _atom_site_symmetry_multiplicity
 _atom_site_fract_x
 _atom_site_fract_y
 _atom_site_fract_z
 _atom_site_occupancy
  Al  Al0  1  0.56665600  0.82203400  0.49922200  1
  Al  Al1  1  0.38869000  0.17796600  0.99922200  1
  Al  Al2  1  0.92781200  0.18510900  0.49886200  1
  Al  Al3  1  0.11292100  0.81489100  0.99886200  1
  Si  Si0  1  0.69070800  0.49640700  0.31042400  1
  Si  Si1  1  0.18711400  0.50359300  0.81042400  1
  Si  Si2  1  0.34767700  0.15460800  0.31142200  1
  Si  Si3  1  0.50228500  0.84539200  0.81142200  1
  O  O0  1  0.66995600  0.50248000  0.42231200  1
  O  O1  1  0.17243600  0.49752000  0.92231200  1
  O  O2  1  0.28614500  0.11948300  0.42289100  1
  O  O3  1  0.40562800  0.88051700  0.92289100  1
  O  O4  1  0.88789500  0.88564800  0.45002500  1
  O  O5  1  0.77354400  0.11435200  0.95002500  1
  O  O6  1  0.54072700  0.82548000  0.26850600  1
  O  O7  1  0.36620700  0.17452000  0.76850600  1
  O  O8  1  0.53041800  0.32616400  0.28292900  1
  O  O9  1  0.85658300  0.67383600  0.78292900  1
  O  O10  1  0.03865800  0.32640200  0.26871600  1
  O  O11  1  0.36506000  0.67359800  0.76871600  1
  O  O12  1  0.33143400  0.48790000  0.07096500  1
  O  O13  1  0.81933400  0.51210000  0.57096500  1
  O  O14  1  0.09915200  0.10618500  0.06872900  1
  O  O15  1  0.20533700  0.89381500  0.56872900  1
  O  O16  1  0.72169000  0.88033900  0.06202600  1
  O  O17  1  0.60202900  0.11966100  0.56202600  1
loop_
_geom_bond_atom_site_label_1
_geom_bond_atom_site_label_2
_geom_bond_distance
_geom_bond_site_symmetry_2
Al0 O15 1.881711 1_555
Al0 O13 1.888052 1_555
Al0 O0 1.903130 1_555
Al0 O4 1.903682 1_555
Al0 O2 1.961224 1_565
Al0 O17 1.980389 1_565
Al1 O14 1.881711 1_556
Al1 O12 1.888052 1_556
Al1 O1 1.903130 1_555
Al1 O5 1.903687 1_555
Al1 O3 1.961224 1_545
Al1 O16 1.980388 1_546
Al2 O15 1.881991 1_645
Al2 O13 1.883917 1_555
Al2 O4 1.897151 1_545
Al2 O2 1.919034 1_655
Al2 O0 1.959980 1_555
Al2 O17 1.989119 1_555
Al3 O14 1.881991 1_566
Al3 O12 1.883917 1_556
Al3 O5 1.897148 1_465
Al3 O3 1.919034 1_555
Al3 O1 1.959980 1_555
Al3 O16 1.989119 1_456
O0 Si0 1.654981 1_555
O1 Si1 1.654982 1_555
O2 Si2 1.655725 1_555
O3 Si3 1.655725 1_555
O6 Si0 1.620591 1_555
O6 Si2 1.627129 1_565
O7 Si1 1.620591 1_555
O7 Si3 1.627129 1_545
O8 Si0 1.607698 1_555
O8 Si2 1.607914 1_555
O9 Si1 1.607689 1_655
O9 Si3 1.607918 1_555
O10 Si2 1.616453 1_555
O10 Si0 1.618333 1_455
O11 Si3 1.616453 1_555
O11 Si1 1.618338 1_555
