# generated using pymatgen
data_La2Hf2O7
_symmetry_space_group_name_H-M   'P 1'
_cell_length_a   7.59349294
_cell_length_b   7.59349294
_cell_length_c   7.59349294
_cell_angle_alpha   60.00000000
_cell_angle_beta   60.00000000
_cell_angle_gamma   60.00000000
_symmetry_Int_Tables_number   1
_chemical_formula_structural   La2Hf2O7
_chemical_formula_sum   'La4 Hf4 O14'
_cell_volume   309.60629513
_cell_formula_units_Z   2
loop_
 _symmetry_equiv_pos_site_id
 _symmetry_equiv_pos_as_xyz
  1  'x, y, z'
loop_
 _atom_site_type_symbol
 _atom_site_label
 _atom_site_symmetry_multiplicity
 _atom_site_fract_x
 _atom_site_fract_y
 _atom_site_fract_z
 _atom_site_occupancy
  La  La0  1  0.12500000  0.62500000  0.12500000  1
  La  La1  1  0.12500000  0.12500000  0.62500000  1
  La  La2  1  0.62500000  0.12500000  0.12500000  1
  La  La3  1  0.12500000  0.12500000  0.12500000  1
  Hf  Hf0  1  0.62500000  0.12500000  0.62500000  1
  Hf  Hf1  1  0.62500000  0.62500000  0.12500000  1
  Hf  Hf2  1  0.12500000  0.62500000  0.62500000  1
  Hf  Hf3  1  0.62500000  0.62500000  0.62500000  1
  O  O0  1  0.00000000  -0.00000000  -0.00000000  1
  O  O1  1  0.25000000  0.25000000  0.25000000  1
  O  O2  1  0.29554137  0.29554137  0.70445863  1
  O  O3  1  0.54554137  0.54554137  0.95445863  1
  O  O4  1  0.70445863  0.29554137  0.70445863  1
  O  O5  1  0.70445863  0.29554137  0.29554137  1
  O  O6  1  0.29554137  0.70445863  0.70445863  1
  O  O7  1  0.29554137  0.70445863  0.29554137  1
  O  O8  1  0.70445863  0.70445863  0.29554137  1
  O  O9  1  0.95445863  0.54554137  0.54554137  1
  O  O10  1  0.54554137  0.95445863  0.95445863  1
  O  O11  1  0.95445863  0.95445863  0.54554137  1
  O  O12  1  0.95445863  0.54554137  0.95445863  1
  O  O13  1  0.54554137  0.95445863  0.54554137  1
loop_
_geom_bond_atom_site_label_1
_geom_bond_atom_site_label_2
_geom_bond_distance
_geom_bond_site_symmetry_2
La0 O1 2.325023 1_555
La0 O0 2.325023 1_565
La0 O7 2.637782 1_555
La0 O9 2.637782 1_455
La0 O8 2.637782 1_455
La0 O12 2.637782 1_454
La0 O6 2.637782 1_554
La0 O3 2.637782 1_554
La1 O1 2.325023 1_555
La1 O0 2.325023 1_556
La1 O9 2.637782 1_455
La1 O4 2.637782 1_455
La1 O13 2.637782 1_545
La1 O6 2.637782 1_545
La1 O2 2.637782 1_555
La1 O11 2.637782 1_445
La2 O1 2.325023 1_555
La2 O0 2.325023 1_655
La2 O4 2.637782 1_554
La2 O13 2.637782 1_545
La2 O5 2.637782 1_555
La2 O10 2.637782 1_544
La2 O3 2.637782 1_554
La2 O8 2.637782 1_545
La3 O1 2.325023 1_555
La3 O0 2.325023 1_555
La3 O2 2.637782 1_554
La3 O12 2.637782 1_454
La3 O10 2.637782 1_544
La3 O7 2.637782 1_545
La3 O11 2.637782 1_445
La3 O5 2.637782 1_455
Hf0 O2 2.081328 1_555
Hf0 O10 2.081328 1_545
Hf0 O11 2.081328 1_545
Hf0 O4 2.081328 1_555
Hf0 O13 2.081328 1_545
Hf0 O5 2.081328 1_555
Hf1 O12 2.081328 1_554
Hf1 O3 2.081328 1_554
Hf1 O7 2.081328 1_555
Hf1 O10 2.081328 1_554
Hf1 O8 2.081328 1_555
Hf1 O5 2.081328 1_555
Hf2 O2 2.081328 1_555
Hf2 O6 2.081328 1_555
Hf2 O7 2.081328 1_555
Hf2 O12 2.081328 1_455
Hf2 O9 2.081328 1_455
Hf2 O11 2.081328 1_455
Hf3 O3 2.081328 1_555
Hf3 O6 2.081328 1_555
Hf3 O9 2.081328 1_555
Hf3 O13 2.081328 1_555
Hf3 O4 2.081328 1_555
Hf3 O8 2.081328 1_555
