# generated using pymatgen
data_U5ClO12
_symmetry_space_group_name_H-M   'P 1'
_cell_length_a   4.13315132
_cell_length_b   7.13522565
_cell_length_c   19.65554304
_cell_angle_alpha   90.00000000
_cell_angle_beta   90.00000000
_cell_angle_gamma   90.00000000
_symmetry_Int_Tables_number   1
_chemical_formula_structural   U5ClO12
_chemical_formula_sum   'U10 Cl2 O24'
_cell_volume   579.66097733
_cell_formula_units_Z   2
loop_
 _symmetry_equiv_pos_site_id
 _symmetry_equiv_pos_as_xyz
  1  'x, y, z'
loop_
 _atom_site_type_symbol
 _atom_site_label
 _atom_site_symmetry_multiplicity
 _atom_site_fract_x
 _atom_site_fract_y
 _atom_site_fract_z
 _atom_site_occupancy
  U  U0  1  -0.00000000  0.20851046  0.85423505  1
  U  U1  1  0.00000000  0.79148954  0.14576495  1
  U  U2  1  0.00000000  0.20851046  0.64576495  1
  U  U3  1  -0.00000000  0.79148954  0.35423505  1
  U  U4  1  0.00000000  0.33463761  0.42990099  1
  U  U5  1  -0.00000000  0.66536239  0.57009901  1
  U  U6  1  0.00000000  0.33463761  0.07009901  1
  U  U7  1  0.00000000  0.66536239  0.92990099  1
  U  U8  1  0.00000000  0.25060253  0.25000000  1
  U  U9  1  0.00000000  0.74939747  0.75000000  1
  Cl  Cl0  1  0.00000000  -0.00000000  0.50000000  1
  Cl  Cl1  1  0.00000000  -0.00000000  -0.00000000  1
  O  O0  1  -0.00000000  0.62730766  0.04859980  1
  O  O1  1  0.00000000  0.37269234  0.95140020  1
  O  O2  1  -0.00000000  0.62730766  0.45140020  1
  O  O3  1  0.00000000  0.37269234  0.54859980  1
  O  O4  1  0.00000000  0.10856720  0.14789728  1
  O  O5  1  0.00000000  0.89143280  0.85210272  1
  O  O6  1  0.00000000  0.10856720  0.35210272  1
  O  O7  1  0.00000000  0.89143280  0.64789728  1
  O  O8  1  0.50000000  0.20958380  0.85606377  1
  O  O9  1  0.50000000  0.79041620  0.14393623  1
  O  O10  1  0.50000000  0.20958380  0.64393623  1
  O  O11  1  0.50000000  0.79041620  0.35606377  1
  O  O12  1  0.50000000  0.24796506  0.25000000  1
  O  O13  1  0.50000000  0.75203494  0.75000000  1
  O  O14  1  0.00000000  0.86567387  0.25000000  1
  O  O15  1  -0.00000000  0.13432613  0.75000000  1
  O  O16  1  0.50000000  0.33154579  0.43003445  1
  O  O17  1  0.50000000  0.66845421  0.56996555  1
  O  O18  1  0.50000000  0.33154579  0.06996555  1
  O  O19  1  0.50000000  0.66845421  0.93003445  1
  O  O20  1  0.00000000  0.47922825  0.17188910  1
  O  O21  1  0.00000000  0.52077175  0.82811090  1
  O  O22  1  -0.00000000  0.47922825  0.32811090  1
  O  O23  1  -0.00000000  0.52077175  0.67188910  1
loop_
_geom_bond_atom_site_label_1
_geom_bond_atom_site_label_2
_geom_bond_distance
_geom_bond_site_symmetry_2
Cl0 U5 2.756739 1_545
Cl0 U4 2.756739 1_555
Cl1 U7 2.756739 1_544
Cl1 U6 2.756739 1_555
O0 U6 2.130594 1_555
O0 U1 2.240495 1_555
O0 U7 2.348837 1_554
O1 U7 2.130594 1_555
O1 U0 2.240495 1_555
O1 U6 2.348837 1_556
O2 U4 2.130594 1_555
O2 U3 2.240495 1_555
O2 U5 2.348837 1_555
O3 U5 2.130594 1_555
O3 U2 2.240495 1_555
O3 U4 2.348837 1_555
O4 U6 2.222684 1_555
O4 U8 2.248260 1_555
O4 U1 2.262809 1_545
O5 U7 2.222684 1_555
O5 U9 2.248260 1_555
O5 U0 2.262809 1_565
O6 U4 2.222684 1_555
O6 U8 2.248260 1_555
O6 U3 2.262809 1_545
O7 U5 2.222684 1_555
O7 U9 2.248260 1_555
O7 U2 2.262809 1_565
O8 U0 2.066902 1_655
O8 U0 2.066902 1_555
O9 U1 2.066902 1_555
O9 U1 2.066902 1_655
O10 U2 2.066902 1_555
O10 U2 2.066902 1_655
O11 U3 2.066902 1_555
O11 U3 2.066902 1_655
O12 U8 2.066661 1_555
O12 U8 2.066661 1_655
O13 U9 2.066661 1_555
O13 U9 2.066661 1_655
O14 U1 2.116069 1_555
O14 U3 2.116069 1_555
O15 U2 2.116069 1_555
O15 U0 2.116069 1_555
O16 U4 2.066695 1_555
O16 U4 2.066695 1_655
O17 U5 2.066695 1_555
O17 U5 2.066695 1_655
O18 U6 2.066695 1_655
O18 U6 2.066695 1_555
O19 U7 2.066695 1_555
O19 U7 2.066695 1_655
O20 U8 2.240159 1_555
O20 U6 2.251074 1_555
O20 U1 2.286459 1_555
O21 U9 2.240159 1_555
O21 U7 2.251074 1_555
O21 U0 2.286459 1_555
O22 U8 2.240159 1_555
O22 U4 2.251074 1_555
O22 U3 2.286459 1_555
O23 U9 2.240159 1_555
O23 U5 2.251074 1_555
O23 U2 2.286459 1_555
