# generated using pymatgen
data_Ba(GaP)2
_symmetry_space_group_name_H-M   'P 1'
_cell_length_a   9.78126800
_cell_length_b   7.42195500
_cell_length_c   7.49466707
_cell_angle_alpha   64.65976758
_cell_angle_beta   90.00000000
_cell_angle_gamma   90.00000000
_symmetry_Int_Tables_number   1
_chemical_formula_structural   Ba(GaP)2
_chemical_formula_sum   'Ba4 Ga8 P8'
_cell_volume   491.73330493
_cell_formula_units_Z   4
loop_
 _symmetry_equiv_pos_site_id
 _symmetry_equiv_pos_as_xyz
  1  'x, y, z'
loop_
 _atom_site_type_symbol
 _atom_site_label
 _atom_site_symmetry_multiplicity
 _atom_site_fract_x
 _atom_site_fract_y
 _atom_site_fract_z
 _atom_site_occupancy
  Ba  Ba0  1  0.39830400  0.58231300  0.22413300  1
  Ba  Ba1  1  0.89830400  0.41768700  0.27586700  1
  Ba  Ba2  1  0.60169600  0.41768700  0.77586700  1
  Ba  Ba3  1  0.10169600  0.58231300  0.72413300  1
  Ga  Ga0  1  0.71190200  0.93956600  0.12650800  1
  Ga  Ga1  1  0.21190200  0.06043400  0.37349200  1
  Ga  Ga2  1  0.28809800  0.06043400  0.87349200  1
  Ga  Ga3  1  0.78809800  0.93956600  0.62650800  1
  Ga  Ga4  1  0.01210600  0.93955900  0.23791400  1
  Ga  Ga5  1  0.51210600  0.06044100  0.26208600  1
  Ga  Ga6  1  0.98789400  0.06044100  0.76208600  1
  Ga  Ga7  1  0.48789400  0.93955900  0.73791400  1
  P  P0  1  0.11294300  0.79562800  0.03096000  1
  P  P1  1  0.61294300  0.20437200  0.46904000  1
  P  P2  1  0.88705700  0.20437200  0.96904000  1
  P  P3  1  0.38705700  0.79562800  0.53096000  1
  P  P4  1  0.32112300  0.26225600  0.05506700  1
  P  P5  1  0.82112300  0.73774400  0.44493300  1
  P  P6  1  0.67887700  0.73774400  0.94493300  1
  P  P7  1  0.17887700  0.26225600  0.55506700  1
loop_
_geom_bond_atom_site_label_1
_geom_bond_atom_site_label_2
_geom_bond_distance
_geom_bond_site_symmetry_2
Ba0 P4 3.224072 1_555
Ba0 P0 3.229757 1_555
Ba0 P3 3.305006 1_555
Ba0 P6 3.342847 1_554
Ba0 P1 3.352294 1_555
Ba0 P7 3.370111 1_555
Ba1 P5 3.224072 1_555
Ba1 P1 3.229757 1_555
Ba1 P2 3.305006 1_554
Ba1 P7 3.342847 1_655
Ba1 P0 3.352294 1_655
Ba1 P6 3.370111 1_554
Ba2 P6 3.224072 1_555
Ba2 P2 3.229757 1_555
Ba2 P1 3.305006 1_555
Ba2 P4 3.342847 1_556
Ba2 P3 3.352294 1_555
Ba2 P5 3.370111 1_555
Ba3 P7 3.224072 1_555
Ba3 P3 3.229757 1_555
Ba3 P0 3.305006 1_556
Ba3 P5 3.342847 1_455
Ba3 P2 3.352294 1_455
Ba3 P4 3.370111 1_556
Ga0 P6 2.438207 1_554
Ga0 P5 2.453660 1_555
Ga0 P2 2.491035 1_564
Ga1 P7 2.438207 1_555
Ga1 P4 2.453660 1_555
Ga1 P3 2.491035 1_545
Ga2 P4 2.438207 1_556
Ga2 P7 2.453660 1_555
Ga2 P0 2.491035 1_546
Ga3 P5 2.438207 1_555
Ga3 P6 2.453660 1_555
Ga3 P1 2.491035 1_565
Ga4 P0 2.436806 1_555
Ga4 P2 2.455503 1_464
Ga4 P5 2.480160 1_455
Ga5 P1 2.436806 1_555
Ga5 P3 2.455503 1_545
Ga5 P4 2.480160 1_555
Ga6 P2 2.436806 1_555
Ga6 P0 2.455503 1_646
Ga6 P7 2.480160 1_655
Ga7 P3 2.436806 1_555
Ga7 P1 2.455503 1_565
Ga7 P6 2.480160 1_555
