# generated using pymatgen
data_La7SmMn8O24
_symmetry_space_group_name_H-M   'P 1'
_cell_length_a   7.87441300
_cell_length_b   7.87441300
_cell_length_c   7.87441300
_cell_angle_alpha   90.00000000
_cell_angle_beta   90.00000000
_cell_angle_gamma   90.00000000
_symmetry_Int_Tables_number   1
_chemical_formula_structural   La7SmMn8O24
_chemical_formula_sum   'La7 Sm1 Mn8 O24'
_cell_volume   488.26384550
_cell_formula_units_Z   1
loop_
 _symmetry_equiv_pos_site_id
 _symmetry_equiv_pos_as_xyz
  1  'x, y, z'
loop_
 _atom_site_type_symbol
 _atom_site_label
 _atom_site_symmetry_multiplicity
 _atom_site_fract_x
 _atom_site_fract_y
 _atom_site_fract_z
 _atom_site_occupancy
  La  La0  1  0.50000000  0.00000000  0.00000000  1
  La  La1  1  0.50000000  0.00000000  0.50000000  1
  La  La2  1  0.50000000  0.50000000  0.00000000  1
  La  La3  1  0.50000000  0.50000000  0.50000000  1
  La  La4  1  0.00000000  0.00000000  0.50000000  1
  La  La5  1  0.00000000  0.50000000  0.00000000  1
  La  La6  1  0.00000000  0.50000000  0.50000000  1
  Sm  Sm0  1  0.00000000  0.00000000  0.00000000  1
  Mn  Mn0  1  0.24956400  0.75043600  0.75043600  1
  Mn  Mn1  1  0.24956400  0.75043600  0.24956400  1
  Mn  Mn2  1  0.24956400  0.24956400  0.75043600  1
  Mn  Mn3  1  0.24956400  0.24956400  0.24956400  1
  Mn  Mn4  1  0.75043600  0.75043600  0.75043600  1
  Mn  Mn5  1  0.75043600  0.75043600  0.24956400  1
  Mn  Mn6  1  0.75043600  0.24956400  0.75043600  1
  Mn  Mn7  1  0.75043600  0.24956400  0.24956400  1
  O  O0  1  0.50000000  0.75005300  0.75005300  1
  O  O1  1  0.50000000  0.75005300  0.24994700  1
  O  O2  1  0.50000000  0.24994700  0.75005300  1
  O  O3  1  0.50000000  0.24994700  0.24994700  1
  O  O4  1  0.00000000  0.75185600  0.75185600  1
  O  O5  1  0.00000000  0.75185600  0.24814400  1
  O  O6  1  0.00000000  0.24814400  0.75185600  1
  O  O7  1  0.00000000  0.24814400  0.24814400  1
  O  O8  1  0.24814400  0.00000000  0.75185600  1
  O  O9  1  0.24814400  0.00000000  0.24814400  1
  O  O10  1  0.24994700  0.50000000  0.75005300  1
  O  O11  1  0.24994700  0.50000000  0.24994700  1
  O  O12  1  0.75185600  0.00000000  0.75185600  1
  O  O13  1  0.75185600  0.00000000  0.24814400  1
  O  O14  1  0.75005300  0.50000000  0.75005300  1
  O  O15  1  0.75005300  0.50000000  0.24994700  1
  O  O16  1  0.24814400  0.75185600  0.00000000  1
  O  O17  1  0.24994700  0.75005300  0.50000000  1
  O  O18  1  0.24814400  0.24814400  0.00000000  1
  O  O19  1  0.24994700  0.24994700  0.50000000  1
  O  O20  1  0.75185600  0.75185600  0.00000000  1
  O  O21  1  0.75005300  0.75005300  0.50000000  1
  O  O22  1  0.75185600  0.24814400  0.00000000  1
  O  O23  1  0.75005300  0.24994700  0.50000000  1
loop_
_geom_bond_atom_site_label_1
_geom_bond_atom_site_label_2
_geom_bond_distance
_geom_bond_site_symmetry_2
La0 O1 2.783435 1_545
La0 O3 2.783435 1_555
La0 O0 2.783435 1_544
La0 O2 2.783435 1_554
La0 O18 2.784102 1_555
La0 O22 2.784102 1_555
La0 O9 2.784102 1_555
La0 O13 2.784102 1_555
La0 O8 2.784102 1_554
La0 O16 2.784102 1_545
La0 O20 2.784102 1_545
La0 O12 2.784102 1_554
La1 O23 2.784025 1_555
La1 O0 2.784025 1_545
La1 O1 2.784025 1_545
La1 O17 2.784025 1_545
La1 O19 2.784025 1_555
La1 O21 2.784025 1_545
La1 O2 2.784025 1_555
La1 O3 2.784025 1_555
La1 O8 2.804694 1_555
La1 O12 2.804694 1_555
La1 O13 2.804694 1_555
La1 O9 2.804694 1_555
La2 O11 2.784025 1_555
La2 O1 2.784025 1_555
La2 O2 2.784025 1_554
La2 O15 2.784025 1_555
La2 O0 2.784025 1_554
La2 O10 2.784025 1_554
La2 O3 2.784025 1_555
La2 O14 2.784025 1_554
La2 O18 2.804694 1_555
La2 O22 2.804694 1_555
La2 O16 2.804694 1_555
La2 O20 2.804694 1_555
La3 O2 2.784616 1_555
La3 O17 2.784616 1_555
La3 O19 2.784616 1_555
La3 O23 2.784616 1_555
La3 O11 2.784616 1_555
La3 O1 2.784616 1_555
La3 O21 2.784616 1_555
La3 O15 2.784616 1_555
La3 O14 2.784616 1_555
La3 O10 2.784616 1_555
La3 O0 2.784616 1_555
La3 O3 2.784616 1_555
La4 O17 2.783435 1_545
La4 O21 2.783435 1_445
La4 O19 2.783435 1_555
La4 O23 2.783435 1_455
La4 O8 2.784102 1_555
La4 O6 2.784102 1_555
La4 O7 2.784102 1_555
La4 O9 2.784102 1_555
La4 O12 2.784102 1_455
La4 O5 2.784102 1_545
La4 O13 2.784102 1_455
La4 O4 2.784102 1_545
La5 O10 2.783435 1_554
La5 O11 2.783435 1_555
La5 O15 2.783435 1_455
La5 O14 2.783435 1_454
La5 O5 2.784102 1_555
La5 O18 2.784102 1_555
La5 O7 2.784102 1_555
La5 O16 2.784102 1_555
La5 O4 2.784102 1_554
La5 O22 2.784102 1_455
La5 O6 2.784102 1_554
La5 O20 2.784102 1_455
La6 O11 2.784025 1_555
La6 O21 2.784025 1_455
La6 O15 2.784025 1_455
La6 O19 2.784025 1_555
La6 O23 2.784025 1_455
La6 O10 2.784025 1_555
La6 O17 2.784025 1_555
La6 O14 2.784025 1_455
La6 O5 2.804694 1_555
La6 O6 2.804694 1_555
La6 O7 2.804694 1_555
La6 O4 2.804694 1_555
Mn0 O8 1.965234 1_565
Mn0 O16 1.965234 1_556
Mn0 O4 1.965234 1_555
Mn0 O10 1.972041 1_555
Mn0 O0 1.972041 1_555
Mn0 O17 1.972041 1_555
Mn1 O5 1.965234 1_555
Mn1 O16 1.965234 1_555
Mn1 O9 1.965234 1_565
Mn1 O17 1.972041 1_555
Mn1 O11 1.972041 1_555
Mn1 O1 1.972041 1_555
Mn2 O6 1.965234 1_555
Mn2 O18 1.965234 1_556
Mn2 O8 1.965234 1_555
Mn2 O19 1.972041 1_555
Mn2 O10 1.972041 1_555
Mn2 O2 1.972041 1_555
Mn3 O18 1.965234 1_555
Mn3 O7 1.965234 1_555
Mn3 O9 1.965234 1_555
Mn3 O19 1.972041 1_555
Mn3 O3 1.972041 1_555
Mn3 O11 1.972041 1_555
Mn4 O12 1.965234 1_565
Mn4 O20 1.965234 1_556
Mn4 O4 1.965234 1_655
Mn4 O14 1.972041 1_555
Mn4 O0 1.972041 1_555
Mn4 O21 1.972041 1_555
Mn5 O5 1.965234 1_655
Mn5 O20 1.965234 1_555
Mn5 O13 1.965234 1_565
Mn5 O15 1.972041 1_555
Mn5 O1 1.972041 1_555
Mn5 O21 1.972041 1_555
Mn6 O12 1.965234 1_555
Mn6 O22 1.965234 1_556
Mn6 O6 1.965234 1_655
Mn6 O14 1.972041 1_555
Mn6 O2 1.972041 1_555
Mn6 O23 1.972041 1_555
Mn7 O7 1.965234 1_655
Mn7 O22 1.965234 1_555
Mn7 O13 1.965234 1_555
Mn7 O15 1.972041 1_555
Mn7 O3 1.972041 1_555
Mn7 O23 1.972041 1_555
O4 Sm0 2.763357 1_566
O5 Sm0 2.763357 1_565
O6 Sm0 2.763357 1_556
O7 Sm0 2.763357 1_555
O8 Sm0 2.763357 1_556
O9 Sm0 2.763357 1_555
O12 Sm0 2.763357 1_656
O13 Sm0 2.763357 1_655
O16 Sm0 2.763357 1_565
O18 Sm0 2.763357 1_555
O20 Sm0 2.763357 1_665
O22 Sm0 2.763357 1_655
