# generated using pymatgen
data_Ba5SrLa2Fe4O15
_symmetry_space_group_name_H-M   'P 1'
_cell_length_a   11.95380657
_cell_length_b   11.95380657
_cell_length_c   7.16366751
_cell_angle_alpha   89.92346296
_cell_angle_beta   89.92346296
_cell_angle_gamma   119.92459656
_symmetry_Int_Tables_number   1
_chemical_formula_structural   Ba5SrLa2Fe4O15
_chemical_formula_sum   'Ba10 Sr2 La4 Fe8 O30'
_cell_volume   887.16915882
_cell_formula_units_Z   2
loop_
 _symmetry_equiv_pos_site_id
 _symmetry_equiv_pos_as_xyz
  1  'x, y, z'
loop_
 _atom_site_type_symbol
 _atom_site_label
 _atom_site_symmetry_multiplicity
 _atom_site_fract_x
 _atom_site_fract_y
 _atom_site_fract_z
 _atom_site_occupancy
  Ba  Ba0  1  0.00002900  0.00005000  0.49909200  1
  Ba  Ba1  1  0.00005000  0.00002900  0.99909200  1
  Ba  Ba2  1  0.82899300  0.65131300  0.83349400  1
  Ba  Ba3  1  0.34698800  0.17076000  0.83672000  1
  Ba  Ba4  1  0.82612300  0.17480400  0.83467500  1
  Ba  Ba5  1  0.17076000  0.34698800  0.33672000  1
  Ba  Ba6  1  0.65131300  0.82899300  0.33349400  1
  Ba  Ba7  1  0.17480400  0.82612300  0.33467500  1
  Ba  Ba8  1  0.33304700  0.66946900  0.01966700  1
  Ba  Ba9  1  0.66946900  0.33304700  0.51966700  1
  Sr  Sr0  1  0.52138400  0.04316800  0.16518400  1
  Sr  Sr1  1  0.04316800  0.52138400  0.66518400  1
  La  La0  1  0.95833500  0.47898900  0.16536700  1
  La  La1  1  0.52093000  0.47850500  0.16247400  1
  La  La2  1  0.47898900  0.95833500  0.66536700  1
  La  La3  1  0.47850500  0.52093000  0.66247400  1
  Fe  Fe0  1  0.66539800  0.33090200  0.97438800  1
  Fe  Fe1  1  0.33090200  0.66539800  0.47438800  1
  Fe  Fe2  1  0.17758100  0.81950000  0.83459300  1
  Fe  Fe3  1  0.17859400  0.35840000  0.83688500  1
  Fe  Fe4  1  0.64335500  0.82082900  0.83498100  1
  Fe  Fe5  1  0.81950000  0.17758100  0.33459300  1
  Fe  Fe6  1  0.82082900  0.64335500  0.33498100  1
  Fe  Fe7  1  0.35840000  0.17859400  0.33688500  1
  O  O0  1  0.93517400  0.32864700  0.46333500  1
  O  O1  1  0.66687000  0.60385600  0.46880000  1
  O  O2  1  0.39314600  0.06493200  0.47779600  1
  O  O3  1  0.93481500  0.60598700  0.46361900  1
  O  O4  1  0.67080400  0.06381300  0.47741900  1
  O  O5  1  0.39585800  0.33196000  0.46924000  1
  O  O6  1  0.06381300  0.67080400  0.97741900  1
  O  O7  1  0.33196000  0.39585800  0.96924000  1
  O  O8  1  0.60598700  0.93481500  0.96361900  1
  O  O9  1  0.06493200  0.39314600  0.97779600  1
  O  O10  1  0.32864700  0.93517400  0.96333500  1
  O  O11  1  0.60385600  0.66687000  0.96880000  1
  O  O12  1  0.09694300  0.19336400  0.73418200  1
  O  O13  1  0.80879900  0.90283800  0.73318500  1
  O  O14  1  0.09468400  0.90269800  0.73329800  1
  O  O15  1  0.90283800  0.80879900  0.23318500  1
  O  O16  1  0.19336400  0.09694300  0.23418200  1
  O  O17  1  0.90269800  0.09468400  0.23329800  1
  O  O18  1  0.75399600  0.25350700  0.15666000  1
  O  O19  1  0.74934800  0.50296200  0.15654900  1
  O  O20  1  0.49775700  0.25439100  0.15682800  1
  O  O21  1  0.25350700  0.75399600  0.65666000  1
  O  O22  1  0.25439100  0.49775700  0.65682800  1
  O  O23  1  0.50296200  0.74934800  0.65654900  1
  O  O24  1  0.41665700  0.58246800  0.33026100  1
  O  O25  1  0.41474300  0.82774200  0.33425400  1
  O  O26  1  0.16997200  0.58382000  0.32315400  1
  O  O27  1  0.58246800  0.41665700  0.83026100  1
  O  O28  1  0.58382000  0.16997200  0.82315400  1
  O  O29  1  0.82774200  0.41474300  0.83425400  1
loop_
_geom_bond_atom_site_label_1
_geom_bond_atom_site_label_2
_geom_bond_distance
_geom_bond_site_symmetry_2
Ba0 O13 2.592736 1_445
Ba0 O14 2.600586 1_545
Ba0 O12 2.619717 1_555
Ba0 O17 2.751753 1_455
Ba0 O15 2.751806 1_445
Ba0 O16 2.756037 1_555
Ba1 O15 2.592736 1_446
Ba1 O17 2.600586 1_456
Ba1 O16 2.619717 1_556
Ba1 O14 2.751753 1_545
Ba1 O13 2.751806 1_445
Ba1 O12 2.756037 1_555
Ba2 O19 2.775909 1_556
Ba2 O29 2.820480 1_555
Ba2 O27 2.882023 1_555
Ba2 O6 2.890048 1_655
Ba2 O11 2.951228 1_555
Ba2 O3 3.097280 1_555
Ba2 O1 3.134263 1_555
Ba2 O14 3.177784 1_655
Ba2 O13 3.214591 1_555
Ba2 O15 3.299183 1_556
Ba3 O20 2.779502 1_556
Ba3 O28 2.837290 1_555
Ba3 O10 2.859736 1_545
Ba3 O27 2.882687 1_555
Ba3 O7 2.943200 1_555
Ba3 O2 3.035990 1_555
Ba3 O5 3.137469 1_555
Ba3 O14 3.206722 1_545
Ba3 O12 3.218347 1_555
Ba3 O16 3.258923 1_556
Ba4 O18 2.785434 1_556
Ba4 O29 2.858577 1_555
Ba4 O28 2.869366 1_555
Ba4 O8 2.909003 1_545
Ba4 O9 2.931511 1_655
Ba4 O4 3.053086 1_555
Ba4 O0 3.121464 1_555
Ba4 O12 3.213180 1_655
Ba4 O13 3.236613 1_545
Ba4 O17 3.283896 1_556
Ba5 O22 2.779502 1_555
Ba5 O26 2.837290 1_555
Ba5 O0 2.859736 1_455
Ba5 O24 2.882687 1_555
Ba5 O5 2.943200 1_555
Ba5 O9 3.035990 1_554
Ba5 O7 3.137469 1_554
Ba5 O17 3.206722 1_455
Ba5 O16 3.218347 1_555
Ba5 O12 3.258923 1_555
Ba6 O23 2.775909 1_555
Ba6 O25 2.820480 1_555
Ba6 O24 2.882023 1_555
Ba6 O4 2.890048 1_565
Ba6 O1 2.951228 1_555
Ba6 O8 3.097280 1_554
Ba6 O11 3.134263 1_554
Ba6 O17 3.177784 1_565
Ba6 O15 3.214591 1_555
Ba6 O13 3.299183 1_555
Ba7 O21 2.785434 1_555
Ba7 O25 2.858577 1_555
Ba7 O26 2.869366 1_555
Ba7 O3 2.909003 1_455
Ba7 O2 2.931511 1_565
Ba7 O6 3.053086 1_554
Ba7 O10 3.121464 1_554
Ba7 O16 3.213180 1_565
Ba7 O15 3.236613 1_455
Ba7 O14 3.283896 1_555
Ba8 O26 2.750699 1_555
Ba8 O25 2.790299 1_555
Ba8 O24 2.840407 1_555
Ba8 O21 3.105718 1_554
Ba8 O23 3.138154 1_554
Ba8 O22 3.154147 1_554
Ba8 O10 3.227550 1_554
Ba8 O6 3.240925 1_554
Ba8 O8 3.245766 1_554
Ba8 O11 3.272678 1_554
Ba8 O9 3.273440 1_554
Ba8 O7 3.284641 1_554
Ba9 O28 2.750699 1_555
Ba9 O29 2.790299 1_555
Ba9 O27 2.840407 1_555
Ba9 O18 3.105718 1_555
Ba9 O19 3.138154 1_555
Ba9 O20 3.154147 1_555
Ba9 O0 3.227550 1_555
Ba9 O4 3.240925 1_555
Ba9 O3 3.245766 1_555
Ba9 O1 3.272678 1_555
Ba9 O2 3.273440 1_555
Ba9 O5 3.284641 1_555
La0 O6 2.400582 1_654
La0 O9 2.405386 1_654
La0 O26 2.469133 1_655
La0 O18 2.582135 1_555
La0 O19 2.653622 1_555
La0 O0 2.711909 1_555
La0 O3 2.716906 1_555
La0 O29 2.733440 1_554
La1 O11 2.395546 1_554
La1 O7 2.404229 1_554
La1 O24 2.467454 1_555
La1 O20 2.552528 1_555
La1 O19 2.597292 1_555
La1 O27 2.700760 1_554
La1 O5 2.738824 1_555
La1 O1 2.741363 1_555
La2 O4 2.400582 1_565
La2 O2 2.405386 1_565
La2 O28 2.469133 1_565
La2 O21 2.582135 1_555
La2 O23 2.653622 1_555
La2 O10 2.711909 1_555
La2 O8 2.716906 1_555
La2 O25 2.733440 1_555
La3 O1 2.395546 1_555
La3 O5 2.404229 1_555
La3 O27 2.467454 1_555
La3 O22 2.552528 1_555
La3 O23 2.597292 1_555
La3 O24 2.700760 1_555
La3 O7 2.738824 1_555
La3 O11 2.741363 1_555
Fe0 O29 1.957001 1_555
Fe0 O28 1.990508 1_555
Fe0 O27 2.028145 1_555
Fe0 O18 2.158841 1_556
Fe0 O20 2.172917 1_556
Fe0 O19 2.211696 1_556
Fe1 O25 1.957001 1_555
Fe1 O26 1.990508 1_555
Fe1 O24 2.028145 1_555
Fe1 O21 2.158841 1_555
Fe1 O22 2.172917 1_555
Fe1 O23 2.211696 1_555
Fe2 O14 1.865709 1_555
Fe2 O10 1.881513 1_555
Fe2 O6 1.906678 1_555
Fe2 O21 1.941711 1_555
Fe3 O12 1.862947 1_555
Fe3 O9 1.896847 1_555
Fe3 O7 1.909778 1_555
Fe3 O22 1.935193 1_555
Fe4 O13 1.861167 1_555
Fe4 O8 1.874788 1_555
Fe4 O11 1.912085 1_555
Fe4 O23 1.938650 1_555
Fe5 O17 1.865709 1_555
Fe5 O0 1.881513 1_555
Fe5 O4 1.906678 1_555
Fe5 O18 1.941711 1_555
Fe6 O15 1.861167 1_555
Fe6 O3 1.874788 1_555
Fe6 O1 1.912085 1_555
Fe6 O19 1.938650 1_555
Fe7 O16 1.862947 1_555
Fe7 O2 1.896847 1_555
Fe7 O5 1.909778 1_555
Fe7 O20 1.935193 1_555
O0 Sr1 2.472235 1_655
O2 Sr0 2.796959 1_555
O3 Sr1 2.468480 1_655
O4 Sr0 2.797605 1_555
O6 Sr1 2.797605 1_555
O8 Sr0 2.468480 1_566
O9 Sr1 2.796959 1_555
O10 Sr0 2.472235 1_566
O18 Sr0 2.661033 1_555
O20 Sr0 2.677630 1_555
O21 Sr1 2.661033 1_555
O22 Sr1 2.677630 1_555
O25 Sr0 2.536867 1_565
O26 Sr1 2.777507 1_555
O28 Sr0 2.777507 1_556
O29 Sr1 2.536867 1_655
