# generated using pymatgen
data_Nd2Al3Ga
_symmetry_space_group_name_H-M   'P 1'
_cell_length_a   3.85105300
_cell_length_b   4.51183900
_cell_length_c   7.84166800
_cell_angle_alpha   90.00000000
_cell_angle_beta   90.00000000
_cell_angle_gamma   90.00000000
_symmetry_Int_Tables_number   1
_chemical_formula_structural   Nd2Al3Ga
_chemical_formula_sum   'Nd2 Al3 Ga1'
_cell_volume   136.25157801
_cell_formula_units_Z   1
loop_
 _symmetry_equiv_pos_site_id
 _symmetry_equiv_pos_as_xyz
  1  'x, y, z'
loop_
 _atom_site_type_symbol
 _atom_site_label
 _atom_site_symmetry_multiplicity
 _atom_site_fract_x
 _atom_site_fract_y
 _atom_site_fract_z
 _atom_site_occupancy
  Nd  Nd0  1  0.00000000  0.50000000  0.00210300  1
  Nd  Nd1  1  0.00000000  0.00000000  0.49797000  1
  Al  Al0  1  0.50000000  0.00000000  0.83284900  1
  Al  Al1  1  0.50000000  0.00000000  0.16792500  1
  Al  Al2  1  0.50000000  0.50000000  0.66436300  1
  Ga  Ga0  1  0.50000000  0.50000000  0.33479000  1
loop_
_geom_bond_atom_site_label_1
_geom_bond_atom_site_label_2
_geom_bond_distance
_geom_bond_site_symmetry_2
Al0 Al2 2.614340 1_555
Al0 Al2 2.614340 1_545
Al0 Al1 2.627555 1_556
Al0 Nd0 3.249365 1_546
Al0 Nd0 3.249365 1_646
Al0 Nd0 3.249365 1_656
Al0 Nd0 3.249365 1_556
Al0 Nd1 3.256314 1_555
Al0 Nd1 3.256314 1_655
Al1 Ga0 2.607939 1_555
Al1 Ga0 2.607939 1_545
Al1 Nd1 3.225823 1_655
Al1 Nd1 3.225823 1_555
Al1 Nd0 3.238466 1_545
Al1 Nd0 3.238466 1_555
Al1 Nd0 3.238466 1_655
Al1 Nd0 3.238466 1_645
Al2 Ga0 2.584402 1_555
Al2 Nd1 3.240266 1_555
Al2 Nd1 3.240266 1_665
Al2 Nd1 3.240266 1_565
Al2 Nd1 3.240266 1_655
Al2 Nd0 3.274433 1_556
Al2 Nd0 3.274433 1_656
Ga0 Nd1 3.230203 1_665
Ga0 Nd1 3.230203 1_565
Ga0 Nd1 3.230203 1_655
Ga0 Nd1 3.230203 1_555
Ga0 Nd0 3.242468 1_655
Ga0 Nd0 3.242468 1_555
