# generated using pymatgen
data_Ba
_symmetry_space_group_name_H-M   'P 1'
_cell_length_a   8.81727740
_cell_length_b   9.13233446
_cell_length_c   14.86102962
_cell_angle_alpha   90.00000000
_cell_angle_beta   90.00000000
_cell_angle_gamma   118.86520121
_symmetry_Int_Tables_number   1
_chemical_formula_structural   Ba
_chemical_formula_sum   Ba16
_cell_volume   1047.97101501
_cell_formula_units_Z   16
loop_
 _symmetry_equiv_pos_site_id
 _symmetry_equiv_pos_as_xyz
  1  'x, y, z'
loop_
 _atom_site_type_symbol
 _atom_site_label
 _atom_site_symmetry_multiplicity
 _atom_site_fract_x
 _atom_site_fract_y
 _atom_site_fract_z
 _atom_site_occupancy
  Ba  Ba0_0  1  0.42520138  0.10040326  0.37500000  1
  Ba  Ba0_1  1  0.42520138  0.10040326  0.87500000  1
  Ba  Ba0_2  1  0.42520138  0.60040326  0.37500000  1
  Ba  Ba0_3  1  0.42520138  0.60040326  0.87500000  1
  Ba  Ba0_4  1  0.92520138  0.10040326  0.37500000  1
  Ba  Ba0_5  1  0.92520138  0.10040326  0.87500000  1
  Ba  Ba0_6  1  0.92520138  0.60040326  0.37500000  1
  Ba  Ba0_7  1  0.92520138  0.60040326  0.87500000  1
  Ba  Ba1_0  1  0.07479862  0.39959674  0.12500000  1
  Ba  Ba1_1  1  0.07479862  0.39959674  0.62500000  1
  Ba  Ba1_2  1  0.07479862  0.89959674  0.12500000  1
  Ba  Ba1_3  1  0.07479862  0.89959674  0.62500000  1
  Ba  Ba1_4  1  0.57479862  0.39959674  0.12500000  1
  Ba  Ba1_5  1  0.57479862  0.39959674  0.62500000  1
  Ba  Ba1_6  1  0.57479862  0.89959674  0.12500000  1
  Ba  Ba1_7  1  0.57479862  0.89959674  0.62500000  1
loop_
_geom_bond_atom_site_label_1
_geom_bond_atom_site_label_2
_geom_bond_distance
_geom_bond_site_symmetry_2
Ba0_0 Ba0_4 4.408639 1_555
Ba0_0 Ba0_4 4.408639 1_455
Ba0_0 Ba1_5 4.419155 1_555
Ba0_0 Ba1_4 4.419155 1_555
Ba0_0 Ba0_6 4.566167 1_555
Ba0_0 Ba0_6 4.566167 1_445
Ba0_0 Ba0_2 4.566167 1_555
Ba0_0 Ba0_2 4.566167 1_545
Ba0_0 Ba1_3 4.608834 1_545
Ba0_0 Ba1_2 4.608834 1_545
Ba0_0 Ba1_7 4.608839 1_545
Ba0_0 Ba1_6 4.608839 1_545
Ba0_1 Ba0_5 4.408639 1_555
Ba0_1 Ba0_5 4.408639 1_455
Ba0_1 Ba1_4 4.419155 1_556
Ba0_1 Ba1_5 4.419155 1_555
Ba0_1 Ba0_7 4.566167 1_555
Ba0_1 Ba0_7 4.566167 1_445
Ba0_1 Ba0_3 4.566167 1_555
Ba0_1 Ba0_3 4.566167 1_545
Ba0_1 Ba1_2 4.608834 1_546
Ba0_1 Ba1_3 4.608834 1_545
Ba0_1 Ba1_6 4.608839 1_546
Ba0_1 Ba1_7 4.608839 1_545
Ba0_2 Ba0_6 4.408639 1_555
Ba0_2 Ba0_6 4.408639 1_455
Ba0_2 Ba1_7 4.419155 1_555
Ba0_2 Ba1_6 4.419155 1_555
Ba0_2 Ba0_4 4.566167 1_565
Ba0_2 Ba0_4 4.566167 1_455
Ba0_2 Ba1_1 4.608834 1_555
Ba0_2 Ba1_0 4.608834 1_555
Ba0_2 Ba1_5 4.608839 1_555
Ba0_2 Ba1_4 4.608839 1_555
Ba0_3 Ba0_7 4.408639 1_555
Ba0_3 Ba0_7 4.408639 1_455
Ba0_3 Ba1_7 4.419155 1_555
Ba0_3 Ba1_6 4.419155 1_556
Ba0_3 Ba0_5 4.566167 1_565
Ba0_3 Ba0_5 4.566167 1_455
Ba0_3 Ba1_0 4.608834 1_556
Ba0_3 Ba1_1 4.608834 1_555
Ba0_3 Ba1_4 4.608839 1_556
Ba0_3 Ba1_5 4.608839 1_555
Ba0_4 Ba1_1 4.419155 1_655
Ba0_4 Ba1_0 4.419155 1_655
Ba0_4 Ba0_6 4.566167 1_555
Ba0_4 Ba0_6 4.566167 1_545
Ba0_4 Ba1_7 4.608834 1_545
Ba0_4 Ba1_6 4.608834 1_545
Ba0_4 Ba1_3 4.608839 1_645
Ba0_4 Ba1_2 4.608839 1_645
Ba0_5 Ba1_1 4.419155 1_655
Ba0_5 Ba1_0 4.419155 1_656
Ba0_5 Ba0_7 4.566167 1_555
Ba0_5 Ba0_7 4.566167 1_545
Ba0_5 Ba1_7 4.608834 1_545
Ba0_5 Ba1_6 4.608834 1_546
Ba0_5 Ba1_2 4.608839 1_646
Ba0_5 Ba1_3 4.608839 1_645
Ba0_6 Ba1_3 4.419155 1_655
Ba0_6 Ba1_2 4.419155 1_655
Ba0_6 Ba1_5 4.608834 1_555
Ba0_6 Ba1_4 4.608834 1_555
Ba0_6 Ba1_1 4.608839 1_655
Ba0_6 Ba1_0 4.608839 1_655
Ba0_7 Ba1_3 4.419155 1_655
Ba0_7 Ba1_2 4.419155 1_656
Ba0_7 Ba1_5 4.608834 1_555
Ba0_7 Ba1_4 4.608834 1_556
Ba0_7 Ba1_1 4.608839 1_655
Ba0_7 Ba1_0 4.608839 1_656
Ba1_0 Ba1_4 4.408639 1_455
Ba1_0 Ba1_4 4.408639 1_555
Ba1_0 Ba1_6 4.566167 1_445
Ba1_0 Ba1_6 4.566167 1_555
Ba1_0 Ba1_2 4.566167 1_555
Ba1_0 Ba1_2 4.566167 1_545
Ba1_1 Ba1_5 4.408639 1_455
Ba1_1 Ba1_5 4.408639 1_555
Ba1_1 Ba1_7 4.566167 1_445
Ba1_1 Ba1_7 4.566167 1_555
Ba1_1 Ba1_3 4.566167 1_555
Ba1_1 Ba1_3 4.566167 1_545
Ba1_2 Ba1_6 4.408639 1_555
Ba1_2 Ba1_6 4.408639 1_455
Ba1_2 Ba1_4 4.566167 1_455
Ba1_2 Ba1_4 4.566167 1_565
Ba1_3 Ba1_7 4.408639 1_555
Ba1_3 Ba1_7 4.408639 1_455
Ba1_3 Ba1_5 4.566167 1_455
Ba1_3 Ba1_5 4.566167 1_565
Ba1_4 Ba1_6 4.566167 1_545
Ba1_4 Ba1_6 4.566167 1_555
Ba1_5 Ba1_7 4.566167 1_545
Ba1_5 Ba1_7 4.566167 1_555
