# generated using pymatgen
data_Rb5(Pb3Cl8)2
_symmetry_space_group_name_H-M   'P 1'
_cell_length_a   12.15636700
_cell_length_b   12.15636700
_cell_length_c   10.89917900
_cell_angle_alpha   90.00000000
_cell_angle_beta   90.00000000
_cell_angle_gamma   90.00000000
_symmetry_Int_Tables_number   1
_chemical_formula_structural   Rb5(Pb3Cl8)2
_chemical_formula_sum   'Rb10 Pb12 Cl32'
_cell_volume   1610.65079403
_cell_formula_units_Z   2
loop_
 _symmetry_equiv_pos_site_id
 _symmetry_equiv_pos_as_xyz
  1  'x, y, z'
loop_
 _atom_site_type_symbol
 _atom_site_label
 _atom_site_symmetry_multiplicity
 _atom_site_fract_x
 _atom_site_fract_y
 _atom_site_fract_z
 _atom_site_occupancy
  Rb  Rb0  1  0.13528900  0.63528900  0.50000000  1
  Rb  Rb1  1  0.86471100  0.36471100  0.50000000  1
  Rb  Rb2  1  0.63528900  0.86471100  0.50000000  1
  Rb  Rb3  1  0.36471100  0.13528900  0.50000000  1
  Rb  Rb4  1  0.11964200  0.61964200  0.00000000  1
  Rb  Rb5  1  0.88035800  0.38035800  0.00000000  1
  Rb  Rb6  1  0.61964200  0.88035800  0.00000000  1
  Rb  Rb7  1  0.38035800  0.11964200  0.00000000  1
  Rb  Rb8  1  0.00000000  0.00000000  0.00000000  1
  Rb  Rb9  1  0.50000000  0.50000000  0.00000000  1
  Pb  Pb0  1  0.00000000  0.00000000  0.34954900  1
  Pb  Pb1  1  0.00000000  0.00000000  0.65045100  1
  Pb  Pb2  1  0.50000000  0.50000000  0.65045100  1
  Pb  Pb3  1  0.50000000  0.50000000  0.34954900  1
  Pb  Pb4  1  0.67814300  0.17814300  0.26601600  1
  Pb  Pb5  1  0.32185700  0.82185700  0.73398400  1
  Pb  Pb6  1  0.32185700  0.82185700  0.26601600  1
  Pb  Pb7  1  0.17814300  0.32185700  0.26601600  1
  Pb  Pb8  1  0.17814300  0.32185700  0.73398400  1
  Pb  Pb9  1  0.67814300  0.17814300  0.73398400  1
  Pb  Pb10  1  0.82185700  0.67814300  0.73398400  1
  Pb  Pb11  1  0.82185700  0.67814300  0.26601600  1
  Cl  Cl0  1  0.20052100  0.08504700  0.22063800  1
  Cl  Cl1  1  0.79947900  0.91495300  0.77936200  1
  Cl  Cl2  1  0.79947900  0.91495300  0.22063800  1
  Cl  Cl3  1  0.08504700  0.79947900  0.22063800  1
  Cl  Cl4  1  0.70052100  0.41495300  0.77936200  1
  Cl  Cl5  1  0.20052100  0.08504700  0.77936200  1
  Cl  Cl6  1  0.91495300  0.20052100  0.77936200  1
  Cl  Cl7  1  0.29947900  0.58504700  0.22063800  1
  Cl  Cl8  1  0.91495300  0.20052100  0.22063800  1
  Cl  Cl9  1  0.29947900  0.58504700  0.77936200  1
  Cl  Cl10  1  0.08504700  0.79947900  0.77936200  1
  Cl  Cl11  1  0.70052100  0.41495300  0.22063800  1
  Cl  Cl12  1  0.58504700  0.70052100  0.77936200  1
  Cl  Cl13  1  0.41495300  0.29947900  0.22063800  1
  Cl  Cl14  1  0.41495300  0.29947900  0.77936200  1
  Cl  Cl15  1  0.58504700  0.70052100  0.22063800  1
  Cl  Cl16  1  0.50000000  0.00000000  0.27950900  1
  Cl  Cl17  1  0.50000000  0.00000000  0.72049100  1
  Cl  Cl18  1  0.00000000  0.50000000  0.27950900  1
  Cl  Cl19  1  0.00000000  0.50000000  0.72049100  1
  Cl  Cl20  1  0.09157800  0.21347900  0.50000000  1
  Cl  Cl21  1  0.90842200  0.78652000  0.50000000  1
  Cl  Cl22  1  0.21347900  0.90842200  0.50000000  1
  Cl  Cl23  1  0.59157800  0.28652100  0.50000000  1
  Cl  Cl24  1  0.78652000  0.09157800  0.50000000  1
  Cl  Cl25  1  0.40842200  0.71348000  0.50000000  1
  Cl  Cl26  1  0.71348000  0.59157800  0.50000000  1
  Cl  Cl27  1  0.28652100  0.40842200  0.50000000  1
  Cl  Cl28  1  0.65808600  0.15808600  0.00000000  1
  Cl  Cl29  1  0.34191400  0.84191400  0.00000000  1
  Cl  Cl30  1  0.15808600  0.34191400  0.00000000  1
  Cl  Cl31  1  0.84191400  0.65808600  0.00000000  1
loop_
_geom_bond_atom_site_label_1
_geom_bond_atom_site_label_2
_geom_bond_distance
_geom_bond_site_symmetry_2
Cl0 Pb7 2.933567 1_555
Cl0 Pb0 2.997481 1_555
Cl0 Rb7 3.277058 1_555
Cl0 Rb8 3.576833 1_555
Cl0 Rb3 3.691581 1_555
Cl1 Pb10 2.933567 1_555
Cl1 Pb1 2.997481 1_665
Cl1 Rb6 3.277058 1_556
Cl1 Rb8 3.576833 1_666
Cl1 Rb2 3.691581 1_555
Cl2 Pb11 2.933567 1_555
Cl2 Pb0 2.997481 1_665
Cl2 Rb6 3.277058 1_555
Cl2 Rb8 3.576833 1_665
Cl2 Rb2 3.691581 1_555
Cl3 Pb6 2.933567 1_555
Cl3 Pb0 2.997481 1_565
Cl3 Rb4 3.277058 1_555
Cl3 Rb8 3.576833 1_565
Cl3 Rb0 3.691581 1_555
Cl4 Pb9 2.933567 1_555
Cl4 Pb2 2.997481 1_555
Cl4 Rb5 3.277058 1_556
Cl4 Rb9 3.576833 1_556
Cl4 Rb1 3.691581 1_555
Cl5 Pb8 2.933567 1_555
Cl5 Pb1 2.997481 1_555
Cl5 Rb7 3.277058 1_556
Cl5 Rb8 3.576833 1_556
Cl5 Rb3 3.691581 1_555
Cl6 Pb9 2.933567 1_555
Cl6 Pb1 2.997481 1_655
Cl6 Rb5 3.277058 1_556
Cl6 Rb8 3.576833 1_656
Cl6 Rb1 3.691581 1_555
Cl7 Pb6 2.933567 1_555
Cl7 Pb3 2.997481 1_555
Cl7 Rb4 3.277058 1_555
Cl7 Rb9 3.576833 1_555
Cl7 Rb0 3.691581 1_555
Cl8 Pb4 2.933567 1_555
Cl8 Pb0 2.997481 1_655
Cl8 Rb5 3.277058 1_555
Cl8 Rb8 3.576833 1_655
Cl8 Rb1 3.691581 1_555
Cl9 Pb5 2.933567 1_555
Cl9 Pb2 2.997481 1_555
Cl9 Rb4 3.277058 1_556
Cl9 Rb9 3.576833 1_556
Cl9 Rb0 3.691581 1_555
Cl10 Pb5 2.933567 1_555
Cl10 Pb1 2.997481 1_565
Cl10 Rb4 3.277058 1_556
Cl10 Rb8 3.576833 1_566
Cl10 Rb0 3.691581 1_555
Cl11 Pb4 2.933567 1_555
Cl11 Pb3 2.997481 1_555
Cl11 Rb5 3.277058 1_555
Cl11 Rb9 3.576833 1_555
Cl11 Rb1 3.691581 1_555
Cl12 Pb10 2.933567 1_555
Cl12 Pb2 2.997481 1_555
Cl12 Rb6 3.277058 1_556
Cl12 Rb9 3.576833 1_556
Cl12 Rb2 3.691581 1_555
Cl13 Pb7 2.933567 1_555
Cl13 Pb3 2.997481 1_555
Cl13 Rb7 3.277058 1_555
Cl13 Rb9 3.576833 1_555
Cl13 Rb3 3.691581 1_555
Cl14 Pb8 2.933567 1_555
Cl14 Pb2 2.997481 1_555
Cl14 Rb7 3.277058 1_556
Cl14 Rb9 3.576833 1_556
Cl14 Rb3 3.691581 1_555
Cl15 Pb11 2.933567 1_555
Cl15 Pb3 2.997481 1_555
Cl15 Rb6 3.277058 1_555
Cl15 Rb9 3.576833 1_555
Cl15 Rb2 3.691581 1_555
Cl16 Pb4 3.066110 1_555
Cl16 Pb6 3.066110 1_545
Cl16 Rb2 3.344368 1_545
Cl16 Rb3 3.344368 1_555
Cl16 Rb6 3.675771 1_545
Cl16 Rb7 3.675771 1_555
Cl17 Pb9 3.066110 1_555
Cl17 Pb5 3.066110 1_545
Cl17 Rb2 3.344368 1_545
Cl17 Rb3 3.344368 1_555
Cl17 Rb7 3.675771 1_556
Cl17 Rb6 3.675771 1_546
Cl18 Pb11 3.066110 1_455
Cl18 Pb7 3.066110 1_555
Cl18 Rb0 3.344368 1_555
Cl18 Rb1 3.344368 1_455
Cl18 Rb4 3.675771 1_555
Cl18 Rb5 3.675771 1_455
Cl19 Pb10 3.066110 1_455
Cl19 Pb8 3.066110 1_555
Cl19 Rb0 3.344368 1_555
Cl19 Rb1 3.344368 1_455
Cl19 Rb4 3.675771 1_556
Cl19 Rb5 3.675771 1_456
Cl20 Pb8 3.057257 1_555
Cl20 Pb7 3.057257 1_555
Cl20 Rb1 3.314472 1_455
Cl20 Rb3 3.453677 1_555
Cl21 Pb10 3.057252 1_555
Cl21 Pb11 3.057252 1_555
Cl21 Rb0 3.314465 1_655
Cl21 Rb2 3.453681 1_555
Cl22 Pb5 3.057257 1_555
Cl22 Pb6 3.057257 1_555
Cl22 Rb3 3.314472 1_565
Cl22 Rb0 3.453677 1_555
Cl23 Pb9 3.057257 1_555
Cl23 Pb4 3.057257 1_555
Cl23 Rb3 3.314472 1_555
Cl23 Rb1 3.453677 1_555
Cl24 Pb9 3.057252 1_555
Cl24 Pb4 3.057252 1_555
Cl24 Rb2 3.314465 1_545
Cl24 Rb1 3.453681 1_555
Cl25 Pb5 3.057252 1_555
Cl25 Pb6 3.057252 1_555
Cl25 Rb2 3.314465 1_555
Cl25 Rb0 3.453681 1_555
Cl26 Pb10 3.057252 1_555
Cl26 Pb11 3.057252 1_555
Cl26 Rb1 3.314465 1_555
Cl26 Rb2 3.453681 1_555
Cl27 Pb8 3.057257 1_555
Cl27 Pb7 3.057257 1_555
Cl27 Rb0 3.314472 1_555
Cl27 Rb3 3.453677 1_555
Cl28 Pb4 2.919788 1_555
Cl28 Pb9 2.919788 1_554
Cl28 Rb7 3.408355 1_555
Cl28 Rb6 3.408355 1_545
Cl28 Rb5 3.821233 1_555
Cl29 Pb6 2.919788 1_555
Cl29 Pb5 2.919788 1_554
Cl29 Rb6 3.408355 1_555
Cl29 Rb7 3.408355 1_565
Cl29 Rb4 3.821233 1_555
Cl30 Pb7 2.919788 1_555
Cl30 Pb8 2.919788 1_554
Cl30 Rb4 3.408355 1_555
Cl30 Rb5 3.408355 1_455
Cl30 Rb7 3.821233 1_555
Cl31 Pb11 2.919788 1_555
Cl31 Pb10 2.919788 1_554
Cl31 Rb5 3.408355 1_555
Cl31 Rb4 3.408355 1_655
Cl31 Rb6 3.821233 1_555
