# generated using pymatgen
data_La2ScSi2
_symmetry_space_group_name_H-M   'P 1'
_cell_length_a   7.47701361
_cell_length_b   7.47701361
_cell_length_c   4.57135658
_cell_angle_alpha   90.00000000
_cell_angle_beta   90.00000000
_cell_angle_gamma   90.00000000
_symmetry_Int_Tables_number   1
_chemical_formula_structural   La2ScSi2
_chemical_formula_sum   'La4 Sc2 Si4'
_cell_volume   255.56503823
_cell_formula_units_Z   2
loop_
 _symmetry_equiv_pos_site_id
 _symmetry_equiv_pos_as_xyz
  1  'x, y, z'
loop_
 _atom_site_type_symbol
 _atom_site_label
 _atom_site_symmetry_multiplicity
 _atom_site_fract_x
 _atom_site_fract_y
 _atom_site_fract_z
 _atom_site_occupancy
  La  La0  1  0.67817150  0.17817150  0.50000000  1
  La  La1  1  0.32182850  0.82182850  0.50000000  1
  La  La2  1  0.17817150  0.32182850  0.50000000  1
  La  La3  1  0.82182850  0.67817150  0.50000000  1
  Sc  Sc0  1  0.00000000  -0.00000000  0.00000000  1
  Sc  Sc1  1  0.50000000  0.50000000  0.00000000  1
  Si  Si0  1  0.11703030  0.61703030  0.00000000  1
  Si  Si1  1  0.88296970  0.38296970  0.00000000  1
  Si  Si2  1  0.61703030  0.88296970  0.00000000  1
  Si  Si3  1  0.38296970  0.11703030  0.00000000  1
loop_
_geom_bond_atom_site_label_1
_geom_bond_atom_site_label_2
_geom_bond_distance
_geom_bond_site_symmetry_2
La0 Si1 3.148643 1_555
La0 Si1 3.148643 1_556
La0 Si2 3.210167 1_546
La0 Si2 3.210167 1_545
La0 Si3 3.210167 1_555
La0 Si3 3.210167 1_556
La1 Si0 3.148643 1_555
La1 Si0 3.148643 1_556
La1 Si3 3.210167 1_565
La1 Si3 3.210167 1_566
La1 Si2 3.210167 1_555
La1 Si2 3.210167 1_556
La2 Si3 3.148643 1_555
La2 Si3 3.148643 1_556
La2 Si1 3.210167 1_455
La2 Si1 3.210167 1_456
La2 Si0 3.210167 1_555
La2 Si0 3.210167 1_556
La3 Si2 3.148643 1_556
La3 Si2 3.148643 1_555
La3 Si0 3.210167 1_655
La3 Si0 3.210167 1_656
La3 Si1 3.210167 1_555
La3 Si1 3.210167 1_556
Sc0 Si3 2.994186 1_555
Sc0 Si1 2.994186 1_455
Sc0 Si0 2.994186 1_545
Sc0 Si2 2.994186 1_445
Sc1 Si2 2.994186 1_555
Sc1 Si1 2.994186 1_555
Sc1 Si0 2.994186 1_555
Sc1 Si3 2.994186 1_555
Si0 Si1 2.474979 1_455
Si2 Si3 2.474979 1_565
