# generated using pymatgen
data_ErMnO3
_symmetry_space_group_name_H-M   'P 1'
_cell_length_a   5.19873505
_cell_length_b   5.75413520
_cell_length_c   7.32288723
_cell_angle_alpha   89.99999594
_cell_angle_beta   90.00008523
_cell_angle_gamma   90.00258600
_symmetry_Int_Tables_number   1
_chemical_formula_structural   ErMnO3
_chemical_formula_sum   'Er4 Mn4 O12'
_cell_volume   219.05849135
_cell_formula_units_Z   4
loop_
 _symmetry_equiv_pos_site_id
 _symmetry_equiv_pos_as_xyz
  1  'x, y, z'
loop_
 _atom_site_type_symbol
 _atom_site_label
 _atom_site_symmetry_multiplicity
 _atom_site_fract_x
 _atom_site_fract_y
 _atom_site_fract_z
 _atom_site_occupancy
  Er  Er0  1  0.01861768  0.91601811  0.74999957  1
  Er  Er1  1  0.51862194  0.58398245  0.25000018  1
  Er  Er2  1  0.48136300  0.41602349  0.74999982  1
  Er  Er3  1  0.98136800  0.08397621  0.25000032  1
  Mn  Mn0  1  0.49998567  0.00001263  0.49999748  1
  Mn  Mn1  1  -0.00001459  0.49998718  0.50000239  1
  Mn  Mn2  1  -0.00001436  0.49998726  -0.00000250  1
  Mn  Mn3  1  0.49998538  0.00001281  0.00000254  1
  O  O0  1  0.69941483  0.32694505  0.44302973  1
  O  O1  1  0.19942064  0.17305475  0.55696792  1
  O  O2  1  0.80059668  0.82694560  0.05697000  1
  O  O3  1  0.30060095  0.67305563  0.94302826  1
  O  O4  1  0.30060158  0.67305492  0.55697177  1
  O  O5  1  0.80059644  0.82694492  0.44303051  1
  O  O6  1  0.19942020  0.17305435  0.94303158  1
  O  O7  1  0.69941600  0.32694457  0.05697022  1
  O  O8  1  0.12102492  0.45742253  0.24999975  1
  O  O9  1  0.62102612  0.04258012  0.74999943  1
  O  O10  1  0.37898400  0.95742864  0.25000054  1
  O  O11  1  0.87898492  0.54256876  0.75000048  1
loop_
_geom_bond_atom_site_label_1
_geom_bond_atom_site_label_2
_geom_bond_distance
_geom_bond_site_symmetry_2
Er0 O9 2.191545 1_465
Er0 O6 2.251444 1_565
Er0 O1 2.251446 1_565
Er0 O11 2.268146 1_455
Er0 O3 2.470178 1_555
Er0 O4 2.470181 1_555
Er0 O5 2.569117 1_455
Er0 O2 2.569128 1_456
Er1 O8 2.191506 1_555
Er1 O0 2.251471 1_555
Er1 O7 2.251480 1_555
Er1 O10 2.268200 1_555
Er1 O5 2.470083 1_555
Er1 O2 2.470088 1_555
Er1 O4 2.569154 1_555
Er1 O3 2.569155 1_554
Er2 O11 2.191600 1_555
Er2 O4 2.251374 1_555
Er2 O3 2.251381 1_555
Er2 O9 2.268226 1_555
Er2 O1 2.470011 1_555
Er2 O6 2.470015 1_555
Er2 O0 2.569224 1_555
Er2 O7 2.569226 1_556
Er3 O10 2.191637 1_645
Er3 O2 2.251347 1_545
Er3 O5 2.251351 1_545
Er3 O8 2.268170 1_655
Er3 O7 2.470106 1_555
Er3 O0 2.470111 1_555
Er3 O1 2.569186 1_655
Er3 O6 2.569195 1_654
Mn0 O1 1.899266 1_555
Mn0 O5 1.899533 1_545
Mn0 O10 1.951204 1_545
Mn0 O9 1.951291 1_555
Mn0 O0 2.188088 1_555
Mn0 O4 2.188111 1_545
Mn1 O0 1.899218 1_455
Mn1 O4 1.899485 1_555
Mn1 O11 1.951217 1_455
Mn1 O8 1.951301 1_555
Mn1 O1 2.188180 1_555
Mn1 O5 2.188200 1_455
Mn2 O7 1.899217 1_455
Mn2 O3 1.899484 1_554
Mn2 O11 1.951208 1_454
Mn2 O8 1.951296 1_555
Mn2 O6 2.188182 1_554
Mn2 O2 2.188204 1_455
Mn3 O6 1.899264 1_554
Mn3 O2 1.899533 1_545
Mn3 O10 1.951212 1_545
Mn3 O9 1.951301 1_554
Mn3 O7 2.188088 1_555
Mn3 O3 2.188109 1_544
