# generated using pymatgen
data_ZnN6
_symmetry_space_group_name_H-M   'P 1'
_cell_length_a   6.07179000
_cell_length_b   13.03189700
_cell_length_c   16.46968100
_cell_angle_alpha   90.00000000
_cell_angle_beta   90.00000000
_cell_angle_gamma   90.00000000
_symmetry_Int_Tables_number   1
_chemical_formula_structural   ZnN6
_chemical_formula_sum   'Zn12 N72'
_cell_volume   1303.19549136
_cell_formula_units_Z   12
loop_
 _symmetry_equiv_pos_site_id
 _symmetry_equiv_pos_as_xyz
  1  'x, y, z'
loop_
 _atom_site_type_symbol
 _atom_site_label
 _atom_site_symmetry_multiplicity
 _atom_site_fract_x
 _atom_site_fract_y
 _atom_site_fract_z
 _atom_site_occupancy
  Zn  Zn0  1  0.19521500  0.18483100  0.57875200  1
  Zn  Zn1  1  0.80478500  0.81516900  0.42124800  1
  Zn  Zn2  1  0.30478500  0.68483100  0.42124800  1
  Zn  Zn3  1  0.80478500  0.81516900  0.07875200  1
  Zn  Zn4  1  0.69521500  0.31516900  0.57875200  1
  Zn  Zn5  1  0.19521500  0.18483100  0.92124800  1
  Zn  Zn6  1  0.69521500  0.31516900  0.92124800  1
  Zn  Zn7  1  0.30478500  0.68483100  0.07875200  1
  Zn  Zn8  1  0.58972000  0.49698900  0.75000000  1
  Zn  Zn9  1  0.41028000  0.50301100  0.25000000  1
  Zn  Zn10  1  0.91028000  0.99698900  0.25000000  1
  Zn  Zn11  1  0.08972000  0.00301100  0.75000000  1
  N  N0  1  0.08618800  0.32103300  0.11452100  1
  N  N1  1  0.91381200  0.67896700  0.88547900  1
  N  N2  1  0.41381200  0.82103300  0.88547900  1
  N  N3  1  0.91381200  0.67896700  0.61452100  1
  N  N4  1  0.58618800  0.17896700  0.11452100  1
  N  N5  1  0.08618800  0.32103300  0.38547900  1
  N  N6  1  0.58618800  0.17896700  0.38547900  1
  N  N7  1  0.41381200  0.82103300  0.61452100  1
  N  N8  1  0.28862600  0.52915900  0.55302900  1
  N  N9  1  0.71137400  0.47084100  0.44697100  1
  N  N10  1  0.21137400  0.02915900  0.44697100  1
  N  N11  1  0.71137400  0.47084100  0.05302900  1
  N  N12  1  0.78862600  0.97084100  0.55302900  1
  N  N13  1  0.28862600  0.52915900  0.94697100  1
  N  N14  1  0.78862600  0.97084100  0.94697100  1
  N  N15  1  0.21137400  0.02915900  0.05302900  1
  N  N16  1  0.56203700  0.44269000  0.63053900  1
  N  N17  1  0.43796300  0.55731000  0.36946100  1
  N  N18  1  0.93796300  0.94269000  0.36946100  1
  N  N19  1  0.43796300  0.55731000  0.13053900  1
  N  N20  1  0.06203700  0.05731000  0.63053900  1
  N  N21  1  0.56203700  0.44269000  0.86946100  1
  N  N22  1  0.06203700  0.05731000  0.86946100  1
  N  N23  1  0.93796300  0.94269000  0.13053900  1
  N  N24  1  0.42129700  0.48682900  0.59032300  1
  N  N25  1  0.57870300  0.51317100  0.40967700  1
  N  N26  1  0.07870300  0.98682900  0.40967700  1
  N  N27  1  0.57870300  0.51317100  0.09032300  1
  N  N28  1  0.92129700  0.01317100  0.59032300  1
  N  N29  1  0.42129700  0.48682900  0.90967700  1
  N  N30  1  0.92129700  0.01317100  0.90967700  1
  N  N31  1  0.07870300  0.98682900  0.09032300  1
  N  N32  1  0.02749800  0.29842100  0.05046900  1
  N  N33  1  0.97250200  0.70157900  0.94953100  1
  N  N34  1  0.47250200  0.79842100  0.94953100  1
  N  N35  1  0.97250200  0.70157900  0.55046900  1
  N  N36  1  0.52749800  0.20157900  0.05046900  1
  N  N37  1  0.02749800  0.29842100  0.44953100  1
  N  N38  1  0.52749800  0.20157900  0.44953100  1
  N  N39  1  0.47250200  0.79842100  0.55046900  1
  N  N40  1  0.10276100  0.53560400  0.75000000  1
  N  N41  1  0.89723900  0.46439600  0.25000000  1
  N  N42  1  0.39723900  0.03560400  0.25000000  1
  N  N43  1  0.60276100  0.96439600  0.75000000  1
  N  N44  1  0.28565300  0.56709900  0.75000000  1
  N  N45  1  0.71434700  0.43290100  0.25000000  1
  N  N46  1  0.21434700  0.06709900  0.25000000  1
  N  N47  1  0.78565300  0.93290100  0.75000000  1
  N  N48  1  0.27336200  0.26506900  0.67864900  1
  N  N49  1  0.72663800  0.73493100  0.32135100  1
  N  N50  1  0.22663800  0.76506900  0.32135100  1
  N  N51  1  0.72663800  0.73493100  0.17864900  1
  N  N52  1  0.77336200  0.23493100  0.67864900  1
  N  N53  1  0.27336200  0.26506900  0.82135100  1
  N  N54  1  0.77336200  0.23493100  0.82135100  1
  N  N55  1  0.22663800  0.76506900  0.17864900  1
  N  N56  1  0.26833300  0.26027000  0.75000000  1
  N  N57  1  0.73166700  0.73973000  0.25000000  1
  N  N58  1  0.23166700  0.76027000  0.25000000  1
  N  N59  1  0.76833300  0.23973000  0.75000000  1
  N  N60  1  0.97032800  0.27244300  0.51792400  1
  N  N61  1  0.02967200  0.72755700  0.48207600  1
  N  N62  1  0.52967200  0.77244300  0.48207600  1
  N  N63  1  0.02967200  0.72755700  0.01792400  1
  N  N64  1  0.47032800  0.22755700  0.51792400  1
  N  N65  1  0.97032800  0.27244300  0.98207600  1
  N  N66  1  0.47032800  0.22755700  0.98207600  1
  N  N67  1  0.52967200  0.77244300  0.01792400  1
  N  N68  1  0.42097100  0.99523400  0.75000000  1
  N  N69  1  0.57902900  0.00476600  0.25000000  1
  N  N70  1  0.07902900  0.49523400  0.25000000  1
  N  N71  1  0.92097100  0.50476600  0.75000000  1
loop_
_geom_bond_atom_site_label_1
_geom_bond_atom_site_label_2
_geom_bond_distance
_geom_bond_site_symmetry_2
N0 N32 1.151812 1_555
N1 N33 1.151812 1_555
N2 N34 1.151812 1_555
N3 N35 1.151812 1_555
N10 N26 1.153467 1_545
N11 N27 1.153467 1_555
N12 N28 1.153467 1_565
N13 N29 1.153467 1_555
N14 N30 1.153467 1_565
N15 N31 1.153467 1_545
N16 N24 1.224670 1_555
N16 Zn4 2.035451 1_555
N16 Zn8 2.097611 1_555
N17 N25 1.224670 1_555
N17 Zn2 2.035451 1_555
N17 Zn9 2.097611 1_555
N18 N26 1.224670 1_655
N18 Zn1 2.035451 1_555
N18 Zn10 2.097611 1_555
N19 N27 1.224670 1_555
N19 Zn7 2.035451 1_555
N19 Zn9 2.097611 1_555
N20 N28 1.224670 1_455
N20 Zn0 2.035451 1_555
N20 Zn11 2.097611 1_555
N21 N29 1.224670 1_555
N21 Zn6 2.035451 1_555
N21 Zn8 2.097611 1_555
N22 N30 1.224670 1_455
N22 Zn5 2.035451 1_555
N22 Zn11 2.097611 1_555
N23 N31 1.224670 1_655
N23 Zn3 2.035451 1_555
N23 Zn10 2.097611 1_555
N24 N8 1.153467 1_555
N25 N9 1.153467 1_555
N32 N65 1.226339 1_454
N33 N63 1.226339 1_656
N34 N67 1.226339 1_556
N35 N61 1.226339 1_655
N36 N4 1.151812 1_555
N36 N66 1.226339 1_554
N37 N5 1.151812 1_555
N37 N60 1.226339 1_455
N38 N6 1.151812 1_555
N38 N64 1.226339 1_555
N39 N7 1.151812 1_555
N39 N62 1.226339 1_555
N40 N71 1.174674 1_455
N40 N44 1.183905 1_555
N41 N70 1.174674 1_655
N41 N45 1.183905 1_555
N42 N69 1.174674 1_555
N42 N46 1.183905 1_555
N43 N68 1.174674 1_555
N43 N47 1.183905 1_555
N44 Zn8 2.059941 1_555
N45 Zn9 2.059941 1_555
N46 Zn10 2.059941 1_445
N47 Zn11 2.059941 1_665
N48 N56 1.177187 1_555
N48 Zn0 2.006353 1_555
N49 N57 1.177187 1_555
N49 Zn1 2.006353 1_555
N50 N58 1.177187 1_555
N50 Zn2 2.006353 1_555
N51 N57 1.177187 1_555
N51 Zn3 2.006353 1_555
N52 N59 1.177187 1_555
N52 Zn4 2.006353 1_555
N53 N56 1.177187 1_555
N53 Zn5 2.006353 1_555
N54 N59 1.177187 1_555
N54 Zn6 2.006353 1_555
N55 N58 1.177187 1_555
N55 Zn7 2.006353 1_555
N60 Zn4 2.025832 1_555
N60 Zn0 2.042482 1_655
N61 Zn2 2.025832 1_555
N61 Zn1 2.042482 1_455
N62 Zn1 2.025832 1_555
N62 Zn2 2.042482 1_555
N63 Zn7 2.025832 1_555
N63 Zn3 2.042482 1_455
N64 Zn0 2.025832 1_555
N64 Zn4 2.042482 1_555
N65 Zn6 2.025832 1_555
N65 Zn5 2.042482 1_655
N66 Zn5 2.025832 1_555
N66 Zn6 2.042482 1_555
N67 Zn3 2.025832 1_555
N67 Zn7 2.042482 1_555
N68 Zn11 2.013838 1_565
N69 Zn10 2.013838 1_545
N70 Zn9 2.013838 1_555
N71 Zn8 2.013838 1_555
