# generated using pymatgen
data_NdEuHf4O12
_symmetry_space_group_name_H-M   'P 1'
_cell_length_a   5.72379460
_cell_length_b   5.72379460
_cell_length_c   8.13252823
_cell_angle_alpha   90.00000000
_cell_angle_beta   90.00000000
_cell_angle_gamma   90.73404821
_symmetry_Int_Tables_number   1
_chemical_formula_structural   NdEuHf4O12
_chemical_formula_sum   'Nd1 Eu1 Hf4 O12'
_cell_volume   266.41459841
_cell_formula_units_Z   1
loop_
 _symmetry_equiv_pos_site_id
 _symmetry_equiv_pos_as_xyz
  1  'x, y, z'
loop_
 _atom_site_type_symbol
 _atom_site_label
 _atom_site_symmetry_multiplicity
 _atom_site_fract_x
 _atom_site_fract_y
 _atom_site_fract_z
 _atom_site_occupancy
  Nd  Nd0  1  0.03163880  0.96836120  0.50000000  1
  Eu  Eu0  1  0.48439684  0.51560316  0.00000000  1
  Hf  Hf0  1  0.51085725  0.01076425  0.24874972  1
  Hf  Hf1  1  0.51085725  0.01076425  0.75125028  1
  Hf  Hf2  1  0.98923575  0.48914275  0.75125028  1
  Hf  Hf3  1  0.98923575  0.48914275  0.24874972  1
  O  O0  1  0.29723911  0.30300836  0.22587378  1
  O  O1  1  0.69699164  0.70276089  0.22587378  1
  O  O2  1  0.69699164  0.70276089  0.77412622  1
  O  O3  1  0.29723911  0.30300836  0.77412622  1
  O  O4  1  0.22060564  0.77939436  0.22157125  1
  O  O5  1  0.81562459  0.18437541  0.30714366  1
  O  O6  1  0.81562459  0.18437541  0.69285634  1
  O  O7  1  0.22060564  0.77939436  0.77842875  1
  O  O8  1  0.54195894  0.06598225  0.00000000  1
  O  O9  1  0.43230689  0.99642719  0.50000000  1
  O  O10  1  0.93401775  0.45804106  0.00000000  1
  O  O11  1  0.00357281  0.56769311  0.50000000  1
loop_
_geom_bond_atom_site_label_1
_geom_bond_atom_site_label_2
_geom_bond_distance
_geom_bond_site_symmetry_2
Nd0 O9 2.296907 1_555
Nd0 O11 2.296907 1_555
Nd0 O6 2.357234 1_465
Nd0 O5 2.357234 1_465
Nd0 O7 2.738049 1_555
Nd0 O4 2.738049 1_555
Eu0 O0 2.443194 1_555
Eu0 O3 2.443194 1_554
Eu0 O1 2.443194 1_555
Eu0 O2 2.443194 1_554
Eu0 O10 2.598726 1_555
Eu0 O8 2.598726 1_555
Eu0 O7 2.804442 1_554
Eu0 O4 2.804442 1_555
Eu0 O8 3.163238 1_565
Eu0 O10 3.163238 1_455
Hf0 O5 2.052217 1_555
Hf0 O8 2.054878 1_555
Hf0 O1 2.079853 1_545
Hf0 O0 2.092870 1_555
Hf0 O9 2.093564 1_545
Hf0 O4 2.122814 1_545
Hf1 O6 2.052217 1_555
Hf1 O8 2.054878 1_556
Hf1 O2 2.079853 1_545
Hf1 O3 2.092870 1_555
Hf1 O9 2.093564 1_545
Hf1 O7 2.122814 1_545
Hf2 O6 2.052217 1_555
Hf2 O10 2.054878 1_556
Hf2 O3 2.079853 1_655
Hf2 O2 2.092870 1_555
Hf2 O11 2.093564 1_655
Hf2 O7 2.122814 1_655
Hf3 O5 2.052217 1_555
Hf3 O10 2.054878 1_555
Hf3 O0 2.079853 1_655
Hf3 O1 2.092870 1_555
Hf3 O11 2.093564 1_655
Hf3 O4 2.122814 1_655
