# generated using pymatgen
data_KLiMg6O7
_symmetry_space_group_name_H-M   'P 1'
_cell_length_a   8.19742757
_cell_length_b   4.58060451
_cell_length_c   4.58060451
_cell_angle_alpha   90.00000000
_cell_angle_beta   90.00000000
_cell_angle_gamma   90.00000000
_symmetry_Int_Tables_number   1
_chemical_formula_structural   KLiMg6O7
_chemical_formula_sum   'K1 Li1 Mg6 O7'
_cell_volume   171.99791439
_cell_formula_units_Z   1
loop_
 _symmetry_equiv_pos_site_id
 _symmetry_equiv_pos_as_xyz
  1  'x, y, z'
loop_
 _atom_site_type_symbol
 _atom_site_label
 _atom_site_symmetry_multiplicity
 _atom_site_fract_x
 _atom_site_fract_y
 _atom_site_fract_z
 _atom_site_occupancy
  K  K0  1  0.02302609  0.00000000  0.00000000  1
  Li  Li0  1  0.51734321  0.00000000  0.00000000  1
  Mg  Mg0  1  0.99608430  0.50000000  0.50000000  1
  Mg  Mg1  1  0.49900216  0.50000000  0.50000000  1
  Mg  Mg2  1  0.25008252  0.00000000  0.50000000  1
  Mg  Mg3  1  0.74570220  -0.00000000  0.50000000  1
  Mg  Mg4  1  0.25008252  0.50000000  0.00000000  1
  Mg  Mg5  1  0.74570220  0.50000000  0.00000000  1
  O  O0  1  0.73636499  0.00000000  0.00000000  1
  O  O1  1  0.24825473  0.50000000  0.50000000  1
  O  O2  1  0.74715249  0.50000000  0.50000000  1
  O  O3  1  0.01104549  0.00000000  0.50000000  1
  O  O4  1  0.48455581  0.00000000  0.50000000  1
  O  O5  1  0.01104549  0.50000000  -0.00000000  1
  O  O6  1  0.48455581  0.50000000  -0.00000000  1
loop_
_geom_bond_atom_site_label_1
_geom_bond_atom_site_label_2
_geom_bond_distance
_geom_bond_site_symmetry_2
K0 O3 2.292407 1_554
K0 O5 2.292407 1_545
K0 O3 2.292407 1_555
K0 O5 2.292407 1_555
K0 O0 2.349884 1_455
Li0 O0 1.795415 1_555
Li0 O6 2.306019 1_555
Li0 O4 2.306019 1_555
Li0 O4 2.306019 1_554
Li0 O6 2.306019 1_545
Mg0 O2 2.040600 1_555
Mg0 O1 2.067149 1_655
Mg0 O5 2.293584 1_655
Mg0 O5 2.293584 1_656
Mg0 O3 2.293584 1_655
Mg0 O3 2.293584 1_665
Mg1 O2 2.034194 1_555
Mg1 O1 2.055484 1_555
Mg1 O6 2.293362 1_556
Mg1 O6 2.293362 1_555
Mg1 O4 2.293362 1_555
Mg1 O4 2.293362 1_565
Mg2 O4 1.922078 1_555
Mg2 O3 1.959489 1_555
Mg2 O1 2.290351 1_555
Mg2 O1 2.290351 1_545
Mg3 O4 2.140729 1_555
Mg3 O3 2.175132 1_655
Mg3 O2 2.290333 1_545
Mg3 O2 2.290333 1_555
Mg3 O0 2.291581 1_555
Mg3 O0 2.291581 1_556
Mg4 O6 1.922078 1_555
Mg4 O5 1.959489 1_555
Mg4 O1 2.290351 1_555
Mg4 O1 2.290351 1_554
Mg5 O6 2.140729 1_555
Mg5 O5 2.175132 1_655
Mg5 O2 2.290333 1_554
Mg5 O2 2.290333 1_555
Mg5 O0 2.291581 1_555
Mg5 O0 2.291581 1_565
