# generated using pymatgen
data_Hf9FeMo4
_symmetry_space_group_name_H-M   'P 1'
_cell_length_a   8.42665100
_cell_length_b   8.66901569
_cell_length_c   8.66901569
_cell_angle_alpha   120.04062473
_cell_angle_beta   90.00000000
_cell_angle_gamma   90.00000000
_symmetry_Int_Tables_number   1
_chemical_formula_structural   Hf9FeMo4
_chemical_formula_sum   'Hf18 Fe2 Mo8'
_cell_volume   548.21042233
_cell_formula_units_Z   2
loop_
 _symmetry_equiv_pos_site_id
 _symmetry_equiv_pos_as_xyz
  1  'x, y, z'
loop_
 _atom_site_type_symbol
 _atom_site_label
 _atom_site_symmetry_multiplicity
 _atom_site_fract_x
 _atom_site_fract_y
 _atom_site_fract_z
 _atom_site_occupancy
  Hf  Hf0  1  0.55720000  0.79796600  0.59607900  1
  Hf  Hf1  1  0.55727300  0.79802300  0.20197700  1
  Hf  Hf2  1  0.55720000  0.40392100  0.20203400  1
  Hf  Hf3  1  0.44280000  0.20203400  0.40392100  1
  Hf  Hf4  1  0.44272700  0.20197700  0.79802300  1
  Hf  Hf5  1  0.44280000  0.59607900  0.79796600  1
  Hf  Hf6  1  0.05720000  0.20203400  0.40392100  1
  Hf  Hf7  1  0.05727300  0.20197700  0.79802300  1
  Hf  Hf8  1  0.05720000  0.59607900  0.79796600  1
  Hf  Hf9  1  0.94280000  0.79796600  0.59607900  1
  Hf  Hf10  1  0.94272700  0.79802300  0.20197700  1
  Hf  Hf11  1  0.94280000  0.40392100  0.20203400  1
  Hf  Hf12  1  0.75000000  0.45969700  0.91939500  1
  Hf  Hf13  1  0.75000000  0.45972100  0.54027900  1
  Hf  Hf14  1  0.75000000  0.08060500  0.54030300  1
  Hf  Hf15  1  0.25000000  0.54030300  0.08060500  1
  Hf  Hf16  1  0.25000000  0.54027900  0.45972100  1
  Hf  Hf17  1  0.25000000  0.91939500  0.45969700  1
  Fe  Fe0  1  0.75000000  0.66658400  0.33341600  1
  Fe  Fe1  1  0.25000000  0.33341600  0.66658400  1
  Mo  Mo0  1  0.75000000  0.11277300  0.22541900  1
  Mo  Mo1  1  0.75000000  0.11264600  0.88735400  1
  Mo  Mo2  1  0.75000000  0.77458100  0.88722700  1
  Mo  Mo3  1  0.25000000  0.88722700  0.77458100  1
  Mo  Mo4  1  0.25000000  0.88735400  0.11264600  1
  Mo  Mo5  1  0.25000000  0.22541900  0.11277300  1
  Mo  Mo6  1  0.50000000  0.00000000  0.00000000  1
  Mo  Mo7  1  0.00000000  0.00000000  0.00000000  1
loop_
_geom_bond_atom_site_label_1
_geom_bond_atom_site_label_2
_geom_bond_distance
_geom_bond_site_symmetry_2
Hf0 Mo3 2.914729 1_555
Hf0 Mo6 3.069314 1_566
Hf0 Mo1 3.092009 1_565
Hf0 Mo2 3.092462 1_555
Hf1 Mo4 2.916207 1_555
Hf1 Mo6 3.071494 1_565
Hf1 Mo2 3.093339 1_554
Hf1 Mo0 3.093339 1_565
Hf2 Mo5 2.914729 1_555
Hf2 Mo6 3.069314 1_555
Hf2 Mo1 3.092009 1_554
Hf2 Mo0 3.092462 1_555
Hf3 Mo0 2.914729 1_555
Hf3 Mo6 3.069314 1_555
Hf3 Mo4 3.092009 1_545
Hf3 Mo5 3.092462 1_555
Hf4 Mo1 2.916207 1_555
Hf4 Mo6 3.071494 1_556
Hf4 Mo3 3.093339 1_545
Hf4 Mo5 3.093339 1_556
Hf5 Mo2 2.914729 1_555
Hf5 Mo6 3.069314 1_566
Hf5 Mo4 3.092009 1_556
Hf5 Mo3 3.092462 1_555
Hf6 Mo0 2.914729 1_455
Hf6 Mo7 3.069314 1_555
Hf6 Mo4 3.092009 1_545
Hf6 Mo5 3.092462 1_555
Hf7 Mo1 2.916207 1_455
Hf7 Mo7 3.071494 1_556
Hf7 Mo3 3.093339 1_545
Hf7 Mo5 3.093339 1_556
Hf8 Mo2 2.914729 1_455
Hf8 Mo7 3.069314 1_566
Hf8 Mo4 3.092009 1_556
Hf8 Mo3 3.092462 1_555
Hf9 Mo3 2.914729 1_655
Hf9 Mo7 3.069314 1_666
Hf9 Mo1 3.092009 1_565
Hf9 Mo2 3.092462 1_555
Hf10 Mo4 2.916207 1_655
Hf10 Mo7 3.071494 1_665
Hf10 Mo2 3.093339 1_554
Hf10 Mo0 3.093339 1_565
Hf11 Mo5 2.914729 1_655
Hf11 Mo7 3.069314 1_655
Hf11 Mo1 3.092009 1_554
Hf11 Mo0 3.092462 1_555
Hf12 Mo2 2.879475 1_555
Hf12 Mo1 2.879595 1_555
Hf13 Mo0 2.876958 1_555
Hf13 Mo2 2.876958 1_555
Hf14 Mo0 2.879475 1_555
Hf14 Mo1 2.879595 1_555
Hf15 Mo5 2.879475 1_555
Hf15 Mo4 2.879595 1_555
Hf16 Mo5 2.876958 1_555
Hf16 Mo3 2.876958 1_555
Hf17 Mo3 2.879475 1_555
Hf17 Mo4 2.879595 1_555
Fe0 Hf0 2.554404 1_555
Fe0 Hf11 2.554404 1_555
Fe0 Hf9 2.554404 1_555
Fe0 Hf2 2.554404 1_555
Fe0 Hf10 2.556194 1_555
Fe0 Hf1 2.556194 1_555
Fe1 Hf6 2.554404 1_555
Fe1 Hf8 2.554404 1_555
Fe1 Hf3 2.554404 1_555
Fe1 Hf5 2.554404 1_555
Fe1 Hf4 2.556194 1_555
Fe1 Hf7 2.556194 1_555
Mo0 Mo7 2.701803 1_655
Mo0 Mo6 2.701803 1_555
Mo0 Mo2 2.929991 1_544
Mo0 Mo1 2.930140 1_554
Mo1 Mo6 2.701857 1_556
Mo1 Mo7 2.701857 1_656
Mo1 Mo2 2.930140 1_545
Mo2 Mo6 2.701803 1_566
Mo2 Mo7 2.701803 1_666
Mo3 Mo7 2.701803 1_566
Mo3 Mo6 2.701803 1_566
Mo3 Mo5 2.929991 1_566
Mo3 Mo4 2.930140 1_556
Mo4 Mo6 2.701857 1_565
Mo4 Mo7 2.701857 1_565
Mo4 Mo5 2.930140 1_565
Mo5 Mo6 2.701803 1_555
Mo5 Mo7 2.701803 1_555
