# generated using pymatgen
data_Sn2SeS
_symmetry_space_group_name_H-M   'P 1'
_cell_length_a   4.03850170
_cell_length_b   4.65176015
_cell_length_c   11.48962700
_cell_angle_alpha   90.00000000
_cell_angle_beta   90.00000000
_cell_angle_gamma   90.00000000
_symmetry_Int_Tables_number   1
_chemical_formula_structural   Sn2SeS
_chemical_formula_sum   'Sn4 Se2 S2'
_cell_volume   215.84575600
_cell_formula_units_Z   2
loop_
 _symmetry_equiv_pos_site_id
 _symmetry_equiv_pos_as_xyz
  1  'x, y, z'
loop_
 _atom_site_type_symbol
 _atom_site_label
 _atom_site_symmetry_multiplicity
 _atom_site_fract_x
 _atom_site_fract_y
 _atom_site_fract_z
 _atom_site_occupancy
  Sn  Sn0  1  0.00000000  0.10538731  0.61743549  1
  Sn  Sn1  1  0.00000000  0.89461269  0.11743549  1
  Sn  Sn2  1  0.50000000  0.35856766  0.37707226  1
  Sn  Sn3  1  0.50000000  0.64143234  0.87707226  1
  Se  Se0  1  -0.00000000  0.75678743  0.35274969  1
  Se  Se1  1  0.00000000  0.24321257  0.85274969  1
  S  S0  1  0.50000000  0.74453189  0.65274356  1
  S  S1  1  0.50000000  0.25546811  0.15274356  1
loop_
_geom_bond_atom_site_label_1
_geom_bond_atom_site_label_2
_geom_bond_distance
_geom_bond_site_symmetry_2
Se0 Sn2 2.754440 1_555
Se0 Sn2 2.754440 1_455
Se0 Sn1 2.778649 1_555
Se1 Sn3 2.754440 1_555
Se1 Sn3 2.754440 1_455
Se1 Sn0 2.778649 1_555
S0 Sn3 2.621693 1_555
S0 Sn0 2.657007 1_565
S0 Sn0 2.657007 1_665
S1 Sn2 2.621693 1_555
S1 Sn1 2.657007 1_545
S1 Sn1 2.657007 1_645
