# generated using pymatgen
data_MnP(HO)7
_symmetry_space_group_name_H-M   'P 1'
_cell_length_a   10.28862900
_cell_length_b   10.56290400
_cell_length_c   10.95790200
_cell_angle_alpha   90.00000000
_cell_angle_beta   90.00000000
_cell_angle_gamma   90.00000000
_symmetry_Int_Tables_number   1
_chemical_formula_structural   MnP(HO)7
_chemical_formula_sum   'Mn8 P8 H56 O56'
_cell_volume   1190.88068656
_cell_formula_units_Z   8
loop_
 _symmetry_equiv_pos_site_id
 _symmetry_equiv_pos_as_xyz
  1  'x, y, z'
loop_
 _atom_site_type_symbol
 _atom_site_label
 _atom_site_symmetry_multiplicity
 _atom_site_fract_x
 _atom_site_fract_y
 _atom_site_fract_z
 _atom_site_occupancy
  Mn  Mn0  1  0.40948000  0.80147500  0.24890600  1
  Mn  Mn1  1  0.59052000  0.30147500  0.25109400  1
  Mn  Mn2  1  0.09052000  0.19852500  0.74890600  1
  Mn  Mn3  1  0.90948000  0.69852500  0.75109400  1
  Mn  Mn4  1  0.59052000  0.19852500  0.75109400  1
  Mn  Mn5  1  0.40948000  0.69852500  0.74890600  1
  Mn  Mn6  1  0.90948000  0.80147500  0.25109400  1
  Mn  Mn7  1  0.09052000  0.30147500  0.24890600  1
  P  P0  1  0.34971900  0.49492800  0.13371500  1
  P  P1  1  0.65028100  0.99492800  0.36628500  1
  P  P2  1  0.15028100  0.50507200  0.63371500  1
  P  P3  1  0.84971900  0.00507200  0.86628500  1
  P  P4  1  0.65028100  0.50507200  0.86628500  1
  P  P5  1  0.34971900  0.00507200  0.63371500  1
  P  P6  1  0.84971900  0.49492800  0.36628500  1
  P  P7  1  0.15028100  0.99492800  0.13371500  1
  H  H0  1  0.65620200  0.67425400  0.32808200  1
  H  H1  1  0.34379800  0.17425400  0.17191800  1
  H  H2  1  0.84379800  0.32574600  0.82808200  1
  H  H3  1  0.15620200  0.82574600  0.67191800  1
  H  H4  1  0.34379800  0.32574600  0.67191800  1
  H  H5  1  0.65620200  0.82574600  0.82808200  1
  H  H6  1  0.15620200  0.67425400  0.17191800  1
  H  H7  1  0.84379800  0.17425400  0.32808200  1
  H  H8  1  0.54487000  0.58425900  0.28372000  1
  H  H9  1  0.45513000  0.08425900  0.21628000  1
  H  H10  1  0.95513000  0.41574100  0.78372000  1
  H  H11  1  0.04487000  0.91574100  0.71628000  1
  H  H12  1  0.45513000  0.41574100  0.71628000  1
  H  H13  1  0.54487000  0.91574100  0.78372000  1
  H  H14  1  0.04487000  0.58425900  0.21628000  1
  H  H15  1  0.95513000  0.08425900  0.28372000  1
  H  H16  1  0.31980300  0.79606800  0.49881300  1
  H  H17  1  0.68019700  0.29606800  0.00118700  1
  H  H18  1  0.18019700  0.20393200  0.99881300  1
  H  H19  1  0.81980300  0.70393200  0.50118700  1
  H  H20  1  0.68019700  0.20393200  0.50118700  1
  H  H21  1  0.31980300  0.70393200  0.99881300  1
  H  H22  1  0.81980300  0.79606800  0.00118700  1
  H  H23  1  0.18019700  0.29606800  0.49881300  1
  H  H24  1  0.26412900  0.67131900  0.43874900  1
  H  H25  1  0.73587100  0.17131900  0.06125100  1
  H  H26  1  0.23587100  0.32868100  0.93874900  1
  H  H27  1  0.76412900  0.82868100  0.56125100  1
  H  H28  1  0.73587100  0.32868100  0.56125100  1
  H  H29  1  0.26412900  0.82868100  0.93874900  1
  H  H30  1  0.76412900  0.67131900  0.06125100  1
  H  H31  1  0.23587100  0.17131900  0.43874900  1
  H  H32  1  0.62311600  0.86687200  0.11227800  1
  H  H33  1  0.37688400  0.36687200  0.38772200  1
  H  H34  1  0.87688400  0.13312800  0.61227800  1
  H  H35  1  0.12311600  0.63312800  0.88772200  1
  H  H36  1  0.37688400  0.13312800  0.88772200  1
  H  H37  1  0.62311600  0.63312800  0.61227800  1
  H  H38  1  0.12311600  0.86687200  0.38772200  1
  H  H39  1  0.87688400  0.36687200  0.11227800  1
  H  H40  1  0.52345300  0.85007500  0.00434200  1
  H  H41  1  0.47654700  0.35007500  0.49565800  1
  H  H42  1  0.97654700  0.14992500  0.50434200  1
  H  H43  1  0.02345300  0.64992500  0.99565800  1
  H  H44  1  0.47654700  0.14992500  0.99565800  1
  H  H45  1  0.52345300  0.64992500  0.50434200  1
  H  H46  1  0.02345300  0.85007500  0.49565800  1
  H  H47  1  0.97654700  0.35007500  0.00434200  1
  H  H48  1  0.39502100  0.48824000  0.93451900  1
  H  H49  1  0.60497900  0.98824000  0.56548100  1
  H  H50  1  0.10497900  0.51176000  0.43451900  1
  H  H51  1  0.89502100  0.01176000  0.06548100  1
  H  H52  1  0.60497900  0.51176000  0.06548100  1
  H  H53  1  0.39502100  0.01176000  0.43451900  1
  H  H54  1  0.89502100  0.48824000  0.56548100  1
  H  H55  1  0.10497900  0.98824000  0.93451900  1
  O  O0  1  0.25633600  0.41514500  0.20722400  1
  O  O1  1  0.74366400  0.91514500  0.29277600  1
  O  O2  1  0.24366400  0.58485500  0.70722400  1
  O  O3  1  0.75633600  0.08485500  0.79277600  1
  O  O4  1  0.74366400  0.58485500  0.79277600  1
  O  O5  1  0.25633600  0.08485500  0.70722400  1
  O  O6  1  0.75633600  0.41514500  0.29277600  1
  O  O7  1  0.24366400  0.91514500  0.20722400  1
  O  O8  1  0.49496700  0.46481600  0.16012000  1
  O  O9  1  0.50503300  0.96481600  0.33988000  1
  O  O10  1  0.00503300  0.53518400  0.66012000  1
  O  O11  1  0.99496700  0.03518400  0.83988000  1
  O  O12  1  0.50503300  0.53518400  0.83988000  1
  O  O13  1  0.49496700  0.03518400  0.66012000  1
  O  O14  1  0.99496700  0.46481600  0.33988000  1
  O  O15  1  0.00503300  0.96481600  0.16012000  1
  O  O16  1  0.32644500  0.63954200  0.14716700  1
  O  O17  1  0.67355500  0.13954200  0.35283300  1
  O  O18  1  0.17355500  0.36045800  0.64716700  1
  O  O19  1  0.82644500  0.86045800  0.85283300  1
  O  O20  1  0.67355500  0.36045800  0.85283300  1
  O  O21  1  0.32644500  0.86045800  0.64716700  1
  O  O22  1  0.82644500  0.63954200  0.35283300  1
  O  O23  1  0.17355500  0.13954200  0.14716700  1
  O  O24  1  0.32288000  0.46063800  0.99216600  1
  O  O25  1  0.67712000  0.96063800  0.50783400  1
  O  O26  1  0.17712000  0.53936200  0.49216600  1
  O  O27  1  0.82288000  0.03936200  0.00783400  1
  O  O28  1  0.67712000  0.53936200  0.00783400  1
  O  O29  1  0.32288000  0.03936200  0.49216600  1
  O  O30  1  0.82288000  0.46063800  0.50783400  1
  O  O31  1  0.17712000  0.96063800  0.99216600  1
  O  O32  1  0.56003900  0.66564200  0.32582200  1
  O  O33  1  0.43996100  0.16564200  0.17417800  1
  O  O34  1  0.93996100  0.33435800  0.82582200  1
  O  O35  1  0.06003900  0.83435800  0.67417800  1
  O  O36  1  0.43996100  0.33435800  0.67417800  1
  O  O37  1  0.56003900  0.83435800  0.82582200  1
  O  O38  1  0.06003900  0.66564200  0.17417800  1
  O  O39  1  0.93996100  0.16564200  0.32582200  1
  O  O40  1  0.30426200  0.75385700  0.41882200  1
  O  O41  1  0.69573800  0.25385700  0.08117800  1
  O  O42  1  0.19573800  0.24614300  0.91882200  1
  O  O43  1  0.80426200  0.74614300  0.58117800  1
  O  O44  1  0.69573800  0.24614300  0.58117800  1
  O  O45  1  0.30426200  0.74614300  0.91882200  1
  O  O46  1  0.80426200  0.75385700  0.08117800  1
  O  O47  1  0.19573800  0.25385700  0.41882200  1
  O  O48  1  0.53005400  0.86490900  0.09295700  1
  O  O49  1  0.46994600  0.36490900  0.40704300  1
  O  O50  1  0.96994600  0.13509100  0.59295700  1
  O  O51  1  0.03005400  0.63509100  0.90704300  1
  O  O52  1  0.46994600  0.13509100  0.90704300  1
  O  O53  1  0.53005400  0.63509100  0.59295700  1
  O  O54  1  0.03005400  0.86490900  0.40704300  1
  O  O55  1  0.96994600  0.36490900  0.09295700  1
loop_
_geom_bond_atom_site_label_1
_geom_bond_atom_site_label_2
_geom_bond_distance
_geom_bond_site_symmetry_2
Mn0 O7 2.135595 1_555
Mn0 O40 2.211710 1_555
Mn0 O16 2.213253 1_555
Mn0 O48 2.215436 1_555
Mn0 O9 2.221966 1_555
Mn0 O32 2.273443 1_555
Mn1 O6 2.135595 1_555
Mn1 O41 2.211710 1_555
Mn1 O17 2.213253 1_555
Mn1 O49 2.215436 1_555
Mn1 O8 2.221966 1_555
Mn1 O33 2.273443 1_555
Mn2 O5 2.135595 1_555
Mn2 O42 2.211710 1_555
Mn2 O18 2.213253 1_555
Mn2 O50 2.215436 1_455
Mn2 O11 2.221966 1_455
Mn2 O34 2.273443 1_455
Mn3 O4 2.135595 1_555
Mn3 O43 2.211710 1_555
Mn3 O19 2.213253 1_555
Mn3 O51 2.215436 1_655
Mn3 O10 2.221966 1_655
Mn3 O35 2.273443 1_655
Mn4 O3 2.135595 1_555
Mn4 O44 2.211710 1_555
Mn4 O20 2.213253 1_555
Mn4 O52 2.215436 1_555
Mn4 O13 2.221966 1_555
Mn4 O36 2.273443 1_555
Mn5 O2 2.135595 1_555
Mn5 O45 2.211710 1_555
Mn5 O21 2.213253 1_555
Mn5 O53 2.215436 1_555
Mn5 O12 2.221966 1_555
Mn5 O37 2.273443 1_555
Mn6 O1 2.135595 1_555
Mn6 O46 2.211710 1_555
Mn6 O22 2.213253 1_555
Mn6 O54 2.215436 1_655
Mn6 O15 2.221966 1_655
Mn6 O38 2.273443 1_655
Mn7 O0 2.135595 1_555
Mn7 O47 2.211710 1_555
Mn7 O23 2.213253 1_555
Mn7 O55 2.215436 1_455
Mn7 O14 2.221966 1_455
Mn7 O39 2.273443 1_455
H0 O32 0.993867 1_555
H1 O33 0.993867 1_555
H2 O34 0.993867 1_555
H3 O35 0.993867 1_555
H4 O36 0.993867 1_555
H5 O37 0.993867 1_555
H6 O38 0.993867 1_555
H7 O39 0.993867 1_555
H8 O32 0.988020 1_555
H9 O33 0.988020 1_555
H10 O34 0.988020 1_555
H11 O35 0.988020 1_555
H12 O36 0.988020 1_555
H13 O37 0.988020 1_555
H14 O38 0.988020 1_555
H15 O39 0.988020 1_555
H16 O40 0.996332 1_555
H17 O41 0.996332 1_555
H18 O42 0.996332 1_555
H19 O43 0.996332 1_555
H20 O44 0.996332 1_555
H21 O45 0.996332 1_555
H22 O46 0.996332 1_555
H23 O47 0.996332 1_555
H24 O40 0.989083 1_555
H25 O41 0.989083 1_555
H26 O42 0.989083 1_555
H27 O43 0.989083 1_555
H28 O44 0.989083 1_555
H29 O45 0.989083 1_555
H30 O46 0.989083 1_555
H31 O47 0.989083 1_555
H32 O48 0.980828 1_555
H33 O49 0.980828 1_555
H34 O50 0.980828 1_555
H35 O51 0.980828 1_555
H36 O52 0.980828 1_555
H37 O53 0.980828 1_555
H38 O54 0.980828 1_555
H39 O55 0.980828 1_555
H40 O48 0.985937 1_555
H41 O49 0.985937 1_555
H42 O50 0.985937 1_555
H43 O51 0.985937 1_555
H44 O52 0.985937 1_555
H45 O53 0.985937 1_555
H46 O54 0.985937 1_555
H47 O55 0.985937 1_555
H48 O24 1.017323 1_555
H48 O12 1.613220 1_555
H49 O25 1.017323 1_555
H49 O13 1.613220 1_565
H50 O26 1.017323 1_555
H50 O14 1.613220 1_455
H51 O27 1.017323 1_555
H51 O15 1.613220 1_645
H52 O28 1.017323 1_555
H52 O8 1.613220 1_555
H53 O29 1.017323 1_555
H53 O9 1.613220 1_545
H54 O30 1.017323 1_555
H54 O10 1.613220 1_655
H55 O31 1.017323 1_555
H55 O11 1.613220 1_465
O0 P0 1.510679 1_555
O1 P1 1.510679 1_555
O2 P2 1.510679 1_555
O3 P3 1.510679 1_555
O4 P4 1.510679 1_555
O5 P5 1.510679 1_555
O6 P6 1.510679 1_555
O7 P7 1.510679 1_555
O8 P0 1.555033 1_555
O9 P1 1.555033 1_555
O10 P2 1.555033 1_555
O11 P3 1.555033 1_555
O12 P4 1.555033 1_555
O13 P5 1.555033 1_555
O14 P6 1.555033 1_555
O15 P7 1.555033 1_555
O16 P0 1.553209 1_555
O17 P1 1.553209 1_545
O18 P2 1.553209 1_555
O19 P3 1.553209 1_565
O20 P4 1.553209 1_555
O21 P5 1.553209 1_565
O22 P6 1.553209 1_555
O23 P7 1.553209 1_545
O24 P0 1.616568 1_556
O25 P1 1.616568 1_555
O26 P2 1.616568 1_555
O27 P3 1.616568 1_554
O28 P4 1.616568 1_554
O29 P5 1.616568 1_555
O30 P6 1.616568 1_555
O31 P7 1.616568 1_556
