# generated using pymatgen
data_Fe2Sb3PbO8
_symmetry_space_group_name_H-M   'P 1'
_cell_length_a   6.16996401
_cell_length_b   8.66319308
_cell_length_c   8.66319308
_cell_angle_alpha   90.01551570
_cell_angle_beta   89.99652252
_cell_angle_gamma   89.99652252
_symmetry_Int_Tables_number   1
_chemical_formula_structural   Fe2Sb3PbO8
_chemical_formula_sum   'Fe4 Sb6 Pb2 O16'
_cell_volume   463.06142177
_cell_formula_units_Z   2
loop_
 _symmetry_equiv_pos_site_id
 _symmetry_equiv_pos_as_xyz
  1  'x, y, z'
loop_
 _atom_site_type_symbol
 _atom_site_label
 _atom_site_symmetry_multiplicity
 _atom_site_fract_x
 _atom_site_fract_y
 _atom_site_fract_z
 _atom_site_occupancy
  Fe  Fe0  1  0.75012700  0.99947800  0.49949900  1
  Fe  Fe1  1  0.25002000  0.49673000  0.99674600  1
  Fe  Fe2  1  0.75002000  0.49674600  0.99673000  1
  Fe  Fe3  1  0.25012700  0.99949900  0.49947800  1
  Sb  Sb0  1  0.00003200  0.32711000  0.67012000  1
  Sb  Sb1  1  0.50003200  0.17012000  0.82711000  1
  Sb  Sb2  1  0.49999700  0.67385200  0.66725600  1
  Sb  Sb3  1  0.99993800  0.67090600  0.32793200  1
  Sb  Sb4  1  0.49993800  0.82793200  0.17090600  1
  Sb  Sb5  1  0.99999700  0.16725600  0.17385200  1
  Pb  Pb0  1  0.49996500  0.35097800  0.34875900  1
  Pb  Pb1  1  0.99996500  0.84875900  0.85097800  1
  O  O0  1  0.74999300  0.32613300  0.82609500  1
  O  O1  1  0.26178900  0.82512600  0.67233900  1
  O  O2  1  0.76178900  0.17233900  0.32512600  1
  O  O3  1  0.24999300  0.32609500  0.82613300  1
  O  O4  1  0.73808700  0.82519700  0.67241100  1
  O  O5  1  0.23808700  0.17241100  0.32519700  1
  O  O6  1  0.25003700  0.66938000  0.16950200  1
  O  O7  1  0.75003700  0.66950200  0.16938000  1
  O  O8  1  0.49998000  0.85273400  0.39384600  1
  O  O9  1  0.99999900  0.39901000  0.12822700  1
  O  O10  1  0.49999900  0.62822700  0.89901000  1
  O  O11  1  0.99998000  0.89384600  0.35273400  1
  O  O12  1  0.50001500  0.14655700  0.60289200  1
  O  O13  1  0.00001900  0.58185900  0.87912800  1
  O  O14  1  0.50001900  0.37912800  0.08185900  1
  O  O15  1  0.00001500  0.10289200  0.64655700  1
loop_
_geom_bond_atom_site_label_1
_geom_bond_atom_site_label_2
_geom_bond_distance
_geom_bond_site_symmetry_2
Fe0 O4 2.128437 1_555
Fe0 O2 2.128612 1_565
Fe0 O15 2.191488 1_665
Fe0 O12 2.192306 1_565
Fe0 O11 2.197604 1_555
Fe0 O8 2.199034 1_555
Fe1 O14 1.990294 1_556
Fe1 O13 1.990452 1_555
Fe1 O3 2.090135 1_555
Fe1 O10 2.096212 1_555
Fe1 O9 2.096246 1_456
Fe1 O6 2.115603 1_556
Fe2 O13 1.990294 1_655
Fe2 O14 1.990452 1_556
Fe2 O0 2.090135 1_555
Fe2 O9 2.096212 1_556
Fe2 O10 2.096246 1_555
Fe2 O7 2.115603 1_556
Fe3 O5 2.128437 1_565
Fe3 O1 2.128612 1_555
Fe3 O12 2.191488 1_565
Fe3 O15 2.192306 1_565
Fe3 O8 2.197604 1_555
Fe3 O11 2.199034 1_455
O0 Sb1 2.050760 1_555
O0 Sb0 2.050781 1_655
O1 Sb2 1.969578 1_555
O1 Pb1 2.246348 1_455
O2 Sb5 1.969578 1_555
O2 Pb0 2.246348 1_555
O3 Sb0 2.050760 1_555
O3 Sb1 2.050781 1_555
O4 Sb2 1.969581 1_555
O4 Pb1 2.246255 1_555
O5 Sb5 1.969581 1_455
O5 Pb0 2.246255 1_555
O6 Sb4 2.065061 1_555
O6 Sb3 2.065152 1_455
O7 Sb3 2.065061 1_555
O7 Sb4 2.065152 1_555
O8 Sb4 1.943230 1_555
O9 Sb5 2.046372 1_555
O10 Sb2 2.046372 1_555
O11 Sb3 1.943230 1_555
O12 Sb1 1.953085 1_555
O13 Pb1 2.325097 1_455
O14 Pb0 2.325097 1_555
O15 Sb0 1.953085 1_555
