# generated using pymatgen
data_CdBi12(Cl7O6)2
_symmetry_space_group_name_H-M   'P 1'
_cell_length_a   26.48489176
_cell_length_b   26.48489176
_cell_length_c   5.51435900
_cell_angle_alpha   90.00000000
_cell_angle_beta   90.00000000
_cell_angle_gamma   168.04824623
_symmetry_Int_Tables_number   1
_chemical_formula_structural   CdBi12(Cl7O6)2
_chemical_formula_sum   'Cd1 Bi12 Cl14 O12'
_cell_volume   801.02541641
_cell_formula_units_Z   1
loop_
 _symmetry_equiv_pos_site_id
 _symmetry_equiv_pos_as_xyz
  1  'x, y, z'
loop_
 _atom_site_type_symbol
 _atom_site_label
 _atom_site_symmetry_multiplicity
 _atom_site_fract_x
 _atom_site_fract_y
 _atom_site_fract_z
 _atom_site_occupancy
  Cd  Cd0  1  0.00000000  0.00000000  0.50000000  1
  Bi  Bi0  1  0.77426400  0.22573600  0.00000000  1
  Bi  Bi1  1  0.27427300  0.72572700  0.50000000  1
  Bi  Bi2  1  0.72572700  0.27427300  0.50000000  1
  Bi  Bi3  1  0.22573600  0.77426400  0.00000000  1
  Bi  Bi4  1  0.92058900  0.07941100  0.00000000  1
  Bi  Bi5  1  0.42058900  0.57941100  0.50000000  1
  Bi  Bi6  1  0.57941100  0.42058900  0.50000000  1
  Bi  Bi7  1  0.07941100  0.92058900  0.00000000  1
  Bi  Bi8  1  0.62777900  0.37222100  0.00000000  1
  Bi  Bi9  1  0.12843200  0.87156800  0.50000000  1
  Bi  Bi10  1  0.87156800  0.12843200  0.50000000  1
  Bi  Bi11  1  0.37222100  0.62777900  0.00000000  1
  Cl  Cl0  1  0.69950000  0.30050000  0.00000000  1
  Cl  Cl1  1  0.19948000  0.80052000  0.50000000  1
  Cl  Cl2  1  0.80052000  0.19948000  0.50000000  1
  Cl  Cl3  1  0.30050000  0.69950000  0.00000000  1
  Cl  Cl4  1  0.55516500  0.44483500  0.00000000  1
  Cl  Cl5  1  0.05201100  0.94798900  0.50000000  1
  Cl  Cl6  1  0.94798900  0.05201100  0.50000000  1
  Cl  Cl7  1  0.44483500  0.55516500  0.00000000  1
  Cl  Cl8  1  0.84596200  0.15403800  0.00000000  1
  Cl  Cl9  1  0.34596300  0.65403700  0.50000000  1
  Cl  Cl10  1  0.65403700  0.34596300  0.50000000  1
  Cl  Cl11  1  0.15403800  0.84596200  0.00000000  1
  Cl  Cl12  1  0.50000000  0.50000000  0.50000000  1
  Cl  Cl13  1  0.00000000  0.00000000  0.00000000  1
  O  O0  1  0.64802000  0.85567700  0.74815800  1
  O  O1  1  0.14432300  0.35198000  0.25184200  1
  O  O2  1  0.14432300  0.35198000  0.74815800  1
  O  O3  1  0.64802000  0.85567700  0.25184200  1
  O  O4  1  0.85567700  0.64802000  0.74815800  1
  O  O5  1  0.35198000  0.14432300  0.25184200  1
  O  O6  1  0.35198000  0.14432300  0.74815800  1
  O  O7  1  0.85567700  0.64802000  0.25184200  1
  O  O8  1  0.50000000  0.00000000  0.74997000  1
  O  O9  1  0.00000000  0.50000000  0.25003000  1
  O  O10  1  0.00000000  0.50000000  0.74997000  1
  O  O11  1  0.50000000  0.00000000  0.25003000  1
loop_
_geom_bond_atom_site_label_1
_geom_bond_atom_site_label_2
_geom_bond_distance
_geom_bond_site_symmetry_2
Cd0 Cl5 2.740040 1_545
Cd0 Cl6 2.740040 1_455
Cd0 Cl13 2.757179 1_555
Cd0 Cl13 2.757179 1_556
Cd0 Cl12 2.757335 1_445
Cd0 Cl12 2.757335 1_555
Bi0 O8 2.331454 1_554
Bi0 O11 2.331454 1_555
Bi0 O10 2.331454 1_654
Bi0 O9 2.331454 1_655
Bi0 Cl3 3.084359 1_545
Bi0 Cl3 3.084359 1_655
Bi0 Cl2 3.084693 1_554
Bi0 Cl2 3.084693 1_555
Bi1 O11 2.331518 1_565
Bi1 O9 2.331518 1_555
Bi1 O10 2.331518 1_555
Bi1 O8 2.331518 1_565
Bi1 Cl3 3.084008 1_555
Bi1 Cl3 3.084008 1_556
Bi1 Cl2 3.084619 1_455
Bi1 Cl2 3.084619 1_565
Bi2 O8 2.331518 1_555
Bi2 O9 2.331518 1_655
Bi2 O11 2.331518 1_555
Bi2 O10 2.331518 1_655
Bi2 Cl0 3.084008 1_556
Bi2 Cl0 3.084008 1_555
Bi2 Cl1 3.084619 1_545
Bi2 Cl1 3.084619 1_655
Bi3 O10 2.331454 1_554
Bi3 O11 2.331454 1_565
Bi3 O8 2.331454 1_564
Bi3 O9 2.331454 1_555
Bi3 Cl0 3.084359 1_455
Bi3 Cl0 3.084359 1_565
Bi3 Cl1 3.084693 1_554
Bi3 Cl1 3.084693 1_555
Bi4 O0 2.335822 1_544
Bi4 O3 2.335822 1_545
Bi4 O2 2.335822 1_654
Bi4 O1 2.335822 1_655
Bi4 Cl7 3.038825 1_655
Bi4 Cl7 3.038825 1_545
Bi4 Cl6 3.112184 1_554
Bi4 Cl6 3.112184 1_555
Bi5 O0 2.335866 1_555
Bi5 O3 2.335866 1_555
Bi5 O1 2.335866 1_555
Bi5 O2 2.335866 1_555
Bi5 Cl7 3.038684 1_555
Bi5 Cl7 3.038684 1_556
Bi5 Cl6 3.112322 1_565
Bi5 Cl6 3.112322 1_455
Bi6 O7 2.335866 1_555
Bi6 O4 2.335866 1_555
Bi6 O5 2.335866 1_555
Bi6 O6 2.335866 1_555
Bi6 Cl4 3.038684 1_555
Bi6 Cl4 3.038684 1_556
Bi6 Cl5 3.112322 1_655
Bi6 Cl5 3.112322 1_545
Bi7 O4 2.335822 1_454
Bi7 O7 2.335822 1_455
Bi7 O5 2.335822 1_565
Bi7 O6 2.335822 1_564
Bi7 Cl4 3.038825 1_565
Bi7 Cl4 3.038825 1_455
Bi7 Cl5 3.112184 1_555
Bi7 Cl5 3.112184 1_554
Bi8 O7 2.334436 1_555
Bi8 O4 2.334436 1_554
Bi8 O5 2.334436 1_555
Bi8 O6 2.334436 1_554
Bi8 Cl10 3.084740 1_554
Bi8 Cl10 3.084740 1_555
Bi8 Cl11 3.084902 1_655
Bi8 Cl11 3.084902 1_545
Bi9 O6 2.329240 1_565
Bi9 O5 2.329240 1_565
Bi9 O4 2.329240 1_455
Bi9 O7 2.329240 1_455
Bi9 Cl11 3.069490 1_556
Bi9 Cl11 3.069490 1_555
Bi9 Cl10 3.069607 1_565
Bi9 Cl10 3.069607 1_455
Bi10 O2 2.329240 1_655
Bi10 O1 2.329240 1_655
Bi10 O3 2.329240 1_545
Bi10 O0 2.329240 1_545
Bi10 Cl8 3.069490 1_555
Bi10 Cl8 3.069490 1_556
Bi10 Cl9 3.069607 1_655
Bi10 Cl9 3.069607 1_545
Bi11 O3 2.334436 1_555
Bi11 O1 2.334436 1_555
Bi11 O2 2.334436 1_554
Bi11 O0 2.334436 1_554
Bi11 Cl9 3.084740 1_555
Bi11 Cl9 3.084740 1_554
Bi11 Cl8 3.084902 1_565
Bi11 Cl8 3.084902 1_455
