# generated using pymatgen
data_MgSi
_symmetry_space_group_name_H-M   'P 1'
_cell_length_a   5.16865100
_cell_length_b   5.40083748
_cell_length_c   8.46216589
_cell_angle_alpha   82.35200884
_cell_angle_beta   83.89710737
_cell_angle_gamma   77.44751258
_symmetry_Int_Tables_number   1
_chemical_formula_structural   MgSi
_chemical_formula_sum   'Mg6 Si6'
_cell_volume   227.79190546
_cell_formula_units_Z   6
loop_
 _symmetry_equiv_pos_site_id
 _symmetry_equiv_pos_as_xyz
  1  'x, y, z'
loop_
 _atom_site_type_symbol
 _atom_site_label
 _atom_site_symmetry_multiplicity
 _atom_site_fract_x
 _atom_site_fract_y
 _atom_site_fract_z
 _atom_site_occupancy
  Mg  Mg0  1  0.57112400  0.09032500  0.93059900  1
  Mg  Mg1  1  0.68601300  0.75766300  0.27590200  1
  Mg  Mg2  1  0.08880000  0.02695400  0.37803200  1
  Mg  Mg3  1  0.50117000  0.55330100  0.63635100  1
  Mg  Mg4  1  0.05842600  0.38554200  0.07795000  1
  Mg  Mg5  1  0.10367300  0.20466000  0.69940700  1
  Si  Si0  1  0.91977300  0.70308200  0.79539100  1
  Si  Si1  1  0.19431900  0.50657200  0.39427000  1
  Si  Si2  1  0.53072600  0.58052100  0.97376700  1
  Si  Si3  1  0.11571500  0.88944500  0.00300800  1
  Si  Si4  1  0.66287800  0.01536600  0.60385700  1
  Si  Si5  1  0.56743300  0.28661900  0.23134800  1
loop_
_geom_bond_atom_site_label_1
_geom_bond_atom_site_label_2
_geom_bond_distance
_geom_bond_site_symmetry_2
Mg0 Si2 2.680867 1_555
Mg0 Si0 2.736948 1_545
Mg0 Si3 2.778403 1_546
Mg0 Si2 2.779216 1_545
Mg0 Si4 2.823013 1_555
Mg0 Si5 2.881022 1_556
Mg0 Si3 2.887556 1_646
Mg1 Si5 2.771371 1_565
Mg1 Si5 2.823486 1_555
Mg1 Si1 2.897264 1_655
Mg1 Si2 3.085042 1_554
Mg1 Si1 3.145825 1_555
Mg1 Si3 3.151372 1_655
Mg2 Si1 2.731686 1_545
Mg2 Si4 2.763262 1_455
Mg2 Si1 2.784051 1_555
Mg2 Si5 3.061771 1_455
Mg2 Si5 3.165338 1_555
Mg3 Si4 2.770743 1_565
Mg3 Si1 2.788907 1_555
Mg3 Si4 2.885001 1_555
Mg3 Si2 2.900302 1_555
Mg3 Si0 2.969266 1_555
Mg3 Si0 3.141513 1_455
Mg4 Si3 2.781403 1_545
Mg4 Si3 2.783410 1_555
Mg4 Si0 2.812574 1_454
Mg4 Si5 2.848690 1_455
Mg4 Si2 2.873682 1_554
Mg4 Si2 2.888101 1_454
Mg4 Si5 2.970280 1_555
Mg4 Si1 3.025008 1_555
Mg5 Si0 2.848709 1_455
Mg5 Si3 2.885530 1_546
Mg5 Si4 2.914052 1_555
Mg5 Si1 2.915440 1_555
Mg5 Si4 2.917849 1_455
Mg5 Si0 3.044827 1_445
Si0 Si4 2.447689 1_565
Si0 Si3 2.533279 1_656
Si0 Si2 2.535217 1_555
Si1 Si5 2.430191 1_555
Si2 Si3 2.426432 1_556
Si2 Si5 2.518480 1_556
