# generated using pymatgen
data_Nd2CdGe2
_symmetry_space_group_name_H-M   'P 1'
_cell_length_a   7.50112054
_cell_length_b   7.50112054
_cell_length_c   4.33639242
_cell_angle_alpha   90.00000000
_cell_angle_beta   90.00000000
_cell_angle_gamma   90.00000000
_symmetry_Int_Tables_number   1
_chemical_formula_structural   Nd2CdGe2
_chemical_formula_sum   'Nd4 Cd2 Ge4'
_cell_volume   243.99496559
_cell_formula_units_Z   2
loop_
 _symmetry_equiv_pos_site_id
 _symmetry_equiv_pos_as_xyz
  1  'x, y, z'
loop_
 _atom_site_type_symbol
 _atom_site_label
 _atom_site_symmetry_multiplicity
 _atom_site_fract_x
 _atom_site_fract_y
 _atom_site_fract_z
 _atom_site_occupancy
  Nd  Nd0  1  0.67991866  0.17991866  0.50000000  1
  Nd  Nd1  1  0.32008134  0.82008134  0.50000000  1
  Nd  Nd2  1  0.17991866  0.32008134  0.50000000  1
  Nd  Nd3  1  0.82008134  0.67991866  0.50000000  1
  Cd  Cd0  1  0.50000000  0.50000000  -0.00000000  1
  Cd  Cd1  1  0.00000000  -0.00000000  -0.00000000  1
  Ge  Ge0  1  0.11856667  0.61856667  0.00000000  1
  Ge  Ge1  1  0.88143333  0.38143333  -0.00000000  1
  Ge  Ge2  1  0.61856667  0.88143333  0.00000000  1
  Ge  Ge3  1  0.38143333  0.11856667  -0.00000000  1
loop_
_geom_bond_atom_site_label_1
_geom_bond_atom_site_label_2
_geom_bond_distance
_geom_bond_site_symmetry_2
Cd0 Ge1 2.996221 1_555
Cd0 Ge3 2.996221 1_555
Cd0 Ge0 2.996221 1_555
Cd0 Ge2 2.996221 1_555
Cd0 Nd0 3.505299 1_554
Cd0 Nd3 3.505299 1_554
Cd0 Nd3 3.505299 1_555
Cd0 Nd2 3.505299 1_555
Cd0 Nd1 3.505299 1_554
Cd0 Nd0 3.505299 1_555
Cd0 Nd2 3.505299 1_554
Cd0 Nd1 3.505299 1_555
Cd1 Ge1 2.996221 1_455
Cd1 Ge3 2.996221 1_555
Cd1 Ge0 2.996221 1_545
Cd1 Ge2 2.996221 1_445
Cd1 Nd1 3.505299 1_545
Cd1 Nd0 3.505299 1_455
Cd1 Nd2 3.505299 1_555
Cd1 Nd0 3.505299 1_454
Cd1 Nd3 3.505299 1_444
Cd1 Nd3 3.505299 1_445
Cd1 Nd2 3.505299 1_554
Cd1 Nd1 3.505299 1_544
Ge0 Ge1 2.515555 1_455
Ge0 Nd1 3.044808 1_554
Ge0 Nd1 3.044808 1_555
Ge0 Nd2 3.150535 1_554
Ge0 Nd2 3.150535 1_555
Ge0 Nd3 3.150535 1_454
Ge0 Nd3 3.150535 1_455
Ge1 Nd0 3.044808 1_555
Ge1 Nd0 3.044808 1_554
Ge1 Nd3 3.150535 1_554
Ge1 Nd2 3.150535 1_655
Ge1 Nd3 3.150535 1_555
Ge1 Nd2 3.150535 1_654
Ge2 Ge3 2.515555 1_565
Ge2 Nd3 3.044808 1_555
Ge2 Nd3 3.044808 1_554
Ge2 Nd0 3.150535 1_565
Ge2 Nd1 3.150535 1_555
Ge2 Nd0 3.150535 1_564
Ge2 Nd1 3.150535 1_554
Ge3 Nd2 3.044808 1_555
Ge3 Nd2 3.044808 1_554
Ge3 Nd1 3.150535 1_544
Ge3 Nd1 3.150535 1_545
Ge3 Nd0 3.150535 1_554
Ge3 Nd0 3.150535 1_555
