# generated using pymatgen
data_Mg14FeW
_symmetry_space_group_name_H-M   'P 1'
_cell_length_a   6.19430567
_cell_length_b   6.19430519
_cell_length_c   9.76178634
_cell_angle_alpha   90.00000000
_cell_angle_beta   90.00000000
_cell_angle_gamma   120.00000250
_symmetry_Int_Tables_number   1
_chemical_formula_structural   Mg14FeW
_chemical_formula_sum   'Mg14 Fe1 W1'
_cell_volume   324.37333831
_cell_formula_units_Z   1
loop_
 _symmetry_equiv_pos_site_id
 _symmetry_equiv_pos_as_xyz
  1  'x, y, z'
loop_
 _atom_site_type_symbol
 _atom_site_label
 _atom_site_symmetry_multiplicity
 _atom_site_fract_x
 _atom_site_fract_y
 _atom_site_fract_z
 _atom_site_occupancy
  Mg  Mg0  1  0.16707685  0.83353792  0.12500000  1
  Mg  Mg1  1  0.17081206  0.83540553  0.62500000  1
  Mg  Mg2  1  0.66646208  0.33292315  0.12500000  1
  Mg  Mg3  1  0.66459447  0.32918794  0.62500000  1
  Mg  Mg4  1  0.66646208  0.83353792  0.12500000  1
  Mg  Mg5  1  0.66459447  0.83540553  0.62500000  1
  Mg  Mg6  1  0.32245071  0.17754929  0.37241591  1
  Mg  Mg7  1  0.32245071  0.17754929  0.87758409  1
  Mg  Mg8  1  0.32245071  0.64490242  0.37241591  1
  Mg  Mg9  1  0.32245071  0.64490242  0.87758409  1
  Mg  Mg10  1  0.85509758  0.17754929  0.37241591  1
  Mg  Mg11  1  0.85509758  0.17754929  0.87758409  1
  Mg  Mg12  1  0.83333300  0.66666700  0.37788243  1
  Mg  Mg13  1  0.83333300  0.66666700  0.87211757  1
  Fe  Fe0  1  0.16666700  0.33333300  0.12500000  1
  W  W0  1  0.16666700  0.33333300  0.62500000  1
loop_
_geom_bond_atom_site_label_1
_geom_bond_atom_site_label_2
_geom_bond_distance
_geom_bond_site_symmetry_2
Mg0 Mg9 3.041292 1_554
Mg0 Mg8 3.041292 1_555
Mg0 Mg7 3.041298 1_564
Mg0 Mg6 3.041298 1_565
Mg0 Mg12 3.049466 1_455
Mg0 Mg13 3.049466 1_454
Mg0 Mg2 3.093345 1_565
Mg0 Mg4 3.093345 1_555
Mg0 Mg2 3.100961 1_455
Mg0 Mg4 3.100961 1_455
Mg1 Mg12 3.016076 1_455
Mg1 Mg13 3.016076 1_455
Mg1 W0 3.097232 1_555
Mg1 W0 3.097232 1_565
Mg2 Mg7 3.041298 1_554
Mg2 Mg6 3.041298 1_555
Mg2 Mg4 3.093345 1_545
Mg2 Mg4 3.100961 1_555
Mg3 W0 3.097233 1_555
Mg3 W0 3.097233 1_655
Mg4 Mg9 3.041298 1_554
Mg4 Mg8 3.041298 1_555
Mg5 W0 3.097232 1_555
Mg5 W0 3.097232 1_665
Mg6 W0 2.978767 1_555
Mg7 W0 2.978767 1_555
Mg8 W0 2.978773 1_555
Mg9 W0 2.978773 1_555
Mg10 W0 2.978773 1_655
Mg10 Mg2 3.041292 1_555
Mg10 Mg4 3.041298 1_545
Mg10 Mg12 3.099812 1_545
Mg10 Mg12 3.099812 1_555
Mg11 W0 2.978773 1_655
Mg11 Mg2 3.041292 1_556
Mg11 Mg4 3.041298 1_546
Mg11 Mg13 3.099812 1_545
Mg11 Mg13 3.099812 1_555
Mg12 Mg5 3.016070 1_555
Mg12 Mg3 3.016076 1_555
Mg12 Mg4 3.049459 1_555
Mg12 Mg2 3.049466 1_555
Mg12 Mg6 3.099812 1_665
Mg12 Mg6 3.099812 1_555
Mg12 Mg8 3.099812 1_655
Mg12 Mg8 3.099812 1_555
Mg13 Mg5 3.016070 1_555
Mg13 Mg3 3.016076 1_555
Mg13 Mg4 3.049459 1_556
Mg13 Mg2 3.049466 1_556
Mg13 Mg7 3.099812 1_665
Mg13 Mg7 3.099812 1_555
Mg13 Mg9 3.099812 1_655
Mg13 Mg9 3.099812 1_555
Fe0 Mg7 2.937142 1_554
Fe0 Mg6 2.937142 1_555
Fe0 Mg9 2.937149 1_554
Fe0 Mg8 2.937149 1_555
Fe0 Mg11 2.937149 1_454
Fe0 Mg10 2.937149 1_455
Fe0 Mg0 3.097153 1_555
Fe0 Mg4 3.097153 1_555
Fe0 Mg4 3.097153 1_445
Fe0 Mg0 3.097153 1_545
Fe0 Mg2 3.097154 1_455
Fe0 Mg2 3.097154 1_555
