# generated using pymatgen
data_Li9Mn2Co5O16
_symmetry_space_group_name_H-M   'P 1'
_cell_length_a   11.33530100
_cell_length_b   5.23107300
_cell_length_c   5.23491781
_cell_angle_alpha   67.28876931
_cell_angle_beta   90.00000000
_cell_angle_gamma   90.00000000
_symmetry_Int_Tables_number   1
_chemical_formula_structural   Li9Mn2Co5O16
_chemical_formula_sum   'Li9 Mn2 Co5 O16'
_cell_volume   286.34024490
_cell_formula_units_Z   1
loop_
 _symmetry_equiv_pos_site_id
 _symmetry_equiv_pos_as_xyz
  1  'x, y, z'
loop_
 _atom_site_type_symbol
 _atom_site_label
 _atom_site_symmetry_multiplicity
 _atom_site_fract_x
 _atom_site_fract_y
 _atom_site_fract_z
 _atom_site_occupancy
  Li  Li0  1  0.87414800  0.00000000  0.50000000  1
  Li  Li1  1  0.74849000  0.50000000  0.50000000  1
  Li  Li2  1  0.62553400  0.00000000  0.50000000  1
  Li  Li3  1  0.49695400  0.50000000  0.50000000  1
  Li  Li4  1  0.37168500  0.00000000  0.50000000  1
  Li  Li5  1  0.25633200  0.50000000  0.50000000  1
  Li  Li6  1  0.12863700  0.00000000  0.50000000  1
  Li  Li7  1  0.99804500  0.50000000  0.50000000  1
  Li  Li8  1  0.37495700  0.50000000  0.00000000  1
  Mn  Mn0  1  0.99815100  0.00000000  0.00000000  1
  Mn  Mn1  1  0.12971100  0.50000000  0.00000000  1
  Co  Co0  1  0.87343900  0.50000000  0.00000000  1
  Co  Co1  1  0.74822100  0.00000000  0.00000000  1
  Co  Co2  1  0.61824200  0.50000000  0.00000000  1
  Co  Co3  1  0.49936400  0.00000000  0.00000000  1
  Co  Co4  1  0.25507400  0.00000000  0.00000000  1
  O  O0  1  0.87230800  0.77232300  0.23044300  1
  O  O1  1  0.74905600  0.27674500  0.22278200  1
  O  O2  1  0.62508100  0.77197800  0.22263200  1
  O  O3  1  0.51292400  0.27032500  0.23428100  1
  O  O4  1  0.37665400  0.78260900  0.23037500  1
  O  O5  1  0.24149100  0.26149500  0.23614600  1
  O  O6  1  0.12603300  0.74670100  0.20935000  1
  O  O7  1  0.99796100  0.27624100  0.23296500  1
  O  O8  1  0.87230800  0.22767700  0.76955700  1
  O  O9  1  0.74905600  0.72325500  0.77721800  1
  O  O10  1  0.62508100  0.22802200  0.77736800  1
  O  O11  1  0.51292400  0.72967500  0.76571900  1
  O  O12  1  0.37665400  0.21739100  0.76962500  1
  O  O13  1  0.24149100  0.73850500  0.76385400  1
  O  O14  1  0.12603300  0.25329900  0.79065000  1
  O  O15  1  0.99796100  0.72375900  0.76703500  1
loop_
_geom_bond_atom_site_label_1
_geom_bond_atom_site_label_2
_geom_bond_distance
_geom_bond_site_symmetry_2
Li0 O7 2.110013 1_555
Li0 O15 2.110013 1_545
Li0 O9 2.142459 1_545
Li0 O1 2.142459 1_555
Li0 O0 2.169762 1_545
Li0 O8 2.169762 1_555
Li1 O0 2.106701 1_555
Li1 O8 2.106701 1_555
Li1 O10 2.119947 1_555
Li1 O2 2.119947 1_555
Li1 O9 2.186015 1_555
Li1 O1 2.186015 1_555
Li2 O11 2.011235 1_545
Li2 O3 2.011235 1_555
Li2 O1 2.130722 1_555
Li2 O9 2.130722 1_545
Li2 O10 2.206458 1_555
Li2 O2 2.206458 1_545
Li3 O4 2.103807 1_555
Li3 O12 2.103807 1_555
Li3 O10 2.155611 1_555
Li3 O2 2.155611 1_555
Li3 O11 2.168330 1_555
Li3 O3 2.168330 1_555
Li4 O5 2.120850 1_555
Li4 O13 2.120850 1_545
Li4 O4 2.127914 1_545
Li4 O12 2.127914 1_555
Li4 O11 2.231334 1_545
Li4 O3 2.231334 1_555
Li5 O12 2.103969 1_555
Li5 O4 2.103969 1_555
Li5 O14 2.155396 1_555
Li5 O6 2.155396 1_555
Li5 O5 2.196236 1_555
Li5 O13 2.196236 1_555
Li6 O13 1.989094 1_545
Li6 O5 1.989094 1_555
Li6 O15 2.162538 1_445
Li6 O7 2.162538 1_455
Li6 O14 2.372418 1_555
Li6 O6 2.372418 1_545
Li7 O0 2.121255 1_555
Li7 O8 2.121255 1_555
Li7 O14 2.137531 1_655
Li7 O6 2.137531 1_655
Li7 O15 2.141887 1_555
Li7 O7 2.141887 1_555
Li8 O13 2.045152 1_554
Li8 O5 2.045152 1_555
Li8 O3 2.062912 1_555
Li8 O11 2.062912 1_554
Li8 O4 2.239866 1_555
Li8 O12 2.239866 1_554
Mn0 O8 1.949137 1_554
Mn0 O0 1.949137 1_545
Mn0 O14 1.984122 1_654
Mn0 O6 1.984122 1_645
Mn0 O15 2.221766 1_544
Mn0 O7 2.221766 1_555
Mn1 O13 1.870639 1_554
Mn1 O5 1.870639 1_555
Mn1 O6 1.990053 1_555
Mn1 O14 1.990053 1_554
Mn1 O15 1.996355 1_454
Mn1 O7 1.996355 1_455
Co0 O1 1.913163 1_555
Co0 O9 1.913163 1_554
Co0 O7 1.935827 1_555
Co0 O15 1.935827 1_554
Co0 O8 2.193568 1_554
Co0 O0 2.193568 1_555
Co1 O2 1.912057 1_545
Co1 O10 1.912057 1_554
Co1 O8 1.934617 1_554
Co1 O0 1.934617 1_545
Co1 O9 2.181667 1_544
Co1 O1 2.181667 1_555
Co2 O11 1.798615 1_554
Co2 O3 1.798615 1_555
Co2 O1 1.967502 1_555
Co2 O9 1.967502 1_554
Co2 O10 2.160755 1_554
Co2 O2 2.160755 1_555
Co3 O4 1.903518 1_545
Co3 O12 1.903518 1_554
Co3 O2 1.933484 1_545
Co3 O10 1.933484 1_554
Co3 O3 2.206041 1_555
Co3 O11 2.206041 1_544
Co4 O12 1.894179 1_554
Co4 O4 1.894179 1_545
Co4 O14 1.993740 1_554
Co4 O6 1.993740 1_545
Co4 O5 2.174582 1_555
Co4 O13 2.174582 1_544
