# generated using pymatgen
data_CsMnCl3O2
_symmetry_space_group_name_H-M   'P 1'
_cell_length_a   7.35420400
_cell_length_b   9.24054300
_cell_length_c   11.89734600
_cell_angle_alpha   90.00000000
_cell_angle_beta   90.00000000
_cell_angle_gamma   90.00000000
_symmetry_Int_Tables_number   1
_chemical_formula_structural   CsMnCl3O2
_chemical_formula_sum   'Cs4 Mn4 Cl12 O8'
_cell_volume   808.50601824
_cell_formula_units_Z   4
loop_
 _symmetry_equiv_pos_site_id
 _symmetry_equiv_pos_as_xyz
  1  'x, y, z'
loop_
 _atom_site_type_symbol
 _atom_site_label
 _atom_site_symmetry_multiplicity
 _atom_site_fract_x
 _atom_site_fract_y
 _atom_site_fract_z
 _atom_site_occupancy
  Cs  Cs0  1  0.00000000  0.75000000  0.63589900  1
  Cs  Cs1  1  0.00000000  0.25000000  0.86410100  1
  Cs  Cs2  1  0.00000000  0.25000000  0.36410100  1
  Cs  Cs3  1  0.00000000  0.75000000  0.13589900  1
  Mn  Mn0  1  0.55147300  0.50000000  0.75000000  1
  Mn  Mn1  1  0.44852700  0.00000000  0.75000000  1
  Mn  Mn2  1  0.44852700  0.50000000  0.25000000  1
  Mn  Mn3  1  0.55147300  0.00000000  0.25000000  1
  Cl  Cl0  1  0.50000000  0.75000000  0.65059800  1
  Cl  Cl1  1  0.50000000  0.25000000  0.84940200  1
  Cl  Cl2  1  0.50000000  0.25000000  0.34940200  1
  Cl  Cl3  1  0.50000000  0.75000000  0.15059800  1
  Cl  Cl4  1  0.74734600  0.58884400  0.88274000  1
  Cl  Cl5  1  0.25265400  0.91115600  0.88274000  1
  Cl  Cl6  1  0.25265400  0.08884400  0.61726000  1
  Cl  Cl7  1  0.74734600  0.41115600  0.61726000  1
  Cl  Cl8  1  0.25265400  0.41115600  0.11726000  1
  Cl  Cl9  1  0.74734600  0.08884400  0.11726000  1
  Cl  Cl10  1  0.74734600  0.91115600  0.38274000  1
  Cl  Cl11  1  0.25265400  0.58884400  0.38274000  1
  O  O0  1  0.28725400  0.53020800  0.79972100  1
  O  O1  1  0.71274600  0.96979200  0.79972100  1
  O  O2  1  0.71274600  0.03020800  0.70027900  1
  O  O3  1  0.28725400  0.46979200  0.70027900  1
  O  O4  1  0.71274600  0.46979200  0.20027900  1
  O  O5  1  0.28725400  0.03020800  0.20027900  1
  O  O6  1  0.28725400  0.96979200  0.29972100  1
  O  O7  1  0.71274600  0.53020800  0.29972100  1
loop_
_geom_bond_atom_site_label_1
_geom_bond_atom_site_label_2
_geom_bond_distance
_geom_bond_site_symmetry_2
Cs0 O2 3.428379 1_465
Cs0 O3 3.428379 1_555
Cs0 O0 3.519445 1_555
Cs0 O1 3.519445 1_455
Cs1 O0 3.428379 1_555
Cs1 O1 3.428379 1_445
Cs1 O2 3.519445 1_455
Cs1 O3 3.519445 1_555
Cs2 O7 3.428379 1_455
Cs2 O6 3.428379 1_545
Cs2 O5 3.519445 1_555
Cs2 O4 3.519445 1_455
Cs3 O4 3.428379 1_455
Cs3 O5 3.428379 1_565
Cs3 O7 3.519445 1_455
Cs3 O6 3.519445 1_555
Mn0 O0 2.050260 1_555
Mn0 O3 2.050260 1_555
Mn1 O2 2.050260 1_555
Mn1 O1 2.050260 1_545
Mn2 O7 2.050260 1_555
Mn2 O4 2.050260 1_555
Mn3 O6 2.050260 1_545
Mn3 O5 2.050260 1_555
Cl0 Mn0 2.622711 1_555
Cl0 Mn1 2.622711 1_565
Cl0 Cs0 3.681258 1_555
Cl0 Cs0 3.681258 1_655
Cl1 Mn0 2.622711 1_555
Cl1 Mn1 2.622711 1_555
Cl1 Cs1 3.681258 1_655
Cl1 Cs1 3.681258 1_555
Cl2 Mn3 2.622711 1_555
Cl2 Mn2 2.622711 1_555
Cl2 Cs2 3.681258 1_555
Cl2 Cs2 3.681258 1_655
Cl3 Mn3 2.622711 1_565
Cl3 Mn2 2.622711 1_555
Cl3 Cs3 3.681258 1_655
Cl3 Cs3 3.681258 1_555
Cl4 Mn0 2.289769 1_555
Cl4 Cs1 3.647657 1_655
Cl4 Cs0 3.780815 1_655
Cl4 Cs3 3.839493 1_656
Cl5 Mn1 2.289769 1_565
Cl5 Cs1 3.647657 1_565
Cl5 Cs0 3.780815 1_555
Cl5 Cs3 3.839493 1_556
Cl6 Mn1 2.289769 1_555
Cl6 Cs0 3.647657 1_545
Cl6 Cs1 3.780815 1_555
Cl6 Cs2 3.839493 1_555
Cl7 Mn0 2.289769 1_555
Cl7 Cs0 3.647657 1_655
Cl7 Cs1 3.780815 1_655
Cl7 Cs2 3.839493 1_655
Cl8 Mn2 2.289769 1_555
Cl8 Cs3 3.647657 1_555
Cl8 Cs2 3.780815 1_555
Cl8 Cs1 3.839493 1_554
Cl9 Mn3 2.289769 1_555
Cl9 Cs3 3.647657 1_645
Cl9 Cs2 3.780815 1_655
Cl9 Cs1 3.839493 1_654
Cl10 Mn3 2.289769 1_565
Cl10 Cs2 3.647657 1_665
Cl10 Cs3 3.780815 1_655
Cl10 Cs0 3.839493 1_655
Cl11 Mn2 2.289769 1_555
Cl11 Cs2 3.647657 1_555
Cl11 Cs3 3.780815 1_555
Cl11 Cs0 3.839493 1_555
O0 O3 1.308201 1_555
O1 O2 1.308201 1_565
O4 O7 1.308201 1_555
O5 O6 1.308201 1_545
