# generated using pymatgen
data_Zn(SnO2)2
_symmetry_space_group_name_H-M   'P 1'
_cell_length_a   6.55270763
_cell_length_b   6.55270763
_cell_length_c   6.55270756
_cell_angle_alpha   60.87229549
_cell_angle_beta   60.87229549
_cell_angle_gamma   60.87228833
_symmetry_Int_Tables_number   1
_chemical_formula_structural   Zn(SnO2)2
_chemical_formula_sum   'Zn2 Sn4 O8'
_cell_volume   202.86399377
_cell_formula_units_Z   2
loop_
 _symmetry_equiv_pos_site_id
 _symmetry_equiv_pos_as_xyz
  1  'x, y, z'
loop_
 _atom_site_type_symbol
 _atom_site_label
 _atom_site_symmetry_multiplicity
 _atom_site_fract_x
 _atom_site_fract_y
 _atom_site_fract_z
 _atom_site_occupancy
  Zn  Zn0  1  0.99626000  0.99626000  0.99626000  1
  Zn  Zn1  1  0.37549300  0.37549300  0.37549300  1
  Sn  Sn0  1  0.75455200  0.75455200  0.75455200  1
  Sn  Sn1  1  0.87852900  0.37367800  0.37367800  1
  Sn  Sn2  1  0.37367800  0.37367800  0.87852900  1
  Sn  Sn3  1  0.37367800  0.87852900  0.37367800  1
  O  O0  1  0.60692900  0.18712300  0.60692900  1
  O  O1  1  0.60692900  0.60692900  0.18712300  1
  O  O2  1  0.18712300  0.60692900  0.60692900  1
  O  O3  1  0.60700600  0.60700600  0.60700600  1
  O  O4  1  0.13045300  0.13045300  0.13045300  1
  O  O5  1  0.59661700  0.13137400  0.13137400  1
  O  O6  1  0.13137400  0.13137400  0.59661700  1
  O  O7  1  0.13137400  0.59661700  0.13137400  1
loop_
_geom_bond_atom_site_label_1
_geom_bond_atom_site_label_2
_geom_bond_distance
_geom_bond_site_symmetry_2
O0 Sn2 2.156099 1_555
O0 Sn1 2.156099 1_555
O0 Zn1 2.172008 1_555
O0 Sn0 2.340571 1_545
O1 Sn3 2.156099 1_555
O1 Sn1 2.156099 1_555
O1 Zn1 2.172008 1_555
O1 Sn0 2.340571 1_554
O2 Sn2 2.156099 1_555
O2 Sn3 2.156099 1_555
O2 Zn1 2.172008 1_555
O2 Sn0 2.340571 1_455
O3 Sn3 2.195467 1_555
O3 Sn1 2.195467 1_555
O3 Sn2 2.195467 1_555
O3 Sn0 2.352497 1_555
O4 Zn0 2.139595 1_444
O4 Sn1 2.270599 1_455
O4 Sn3 2.270599 1_545
O4 Sn2 2.270599 1_554
O5 Zn0 2.162035 1_544
O5 Sn2 2.222021 1_554
O5 Sn3 2.222021 1_545
O5 Zn1 2.279343 1_555
O6 Zn0 2.162035 1_445
O6 Sn1 2.222021 1_455
O6 Sn3 2.222021 1_545
O6 Zn1 2.279343 1_555
O7 Zn0 2.162035 1_454
O7 Sn2 2.222021 1_554
O7 Sn1 2.222021 1_455
O7 Zn1 2.279343 1_555
