# generated using pymatgen
data_Ca8Ti3Mn5O20
_symmetry_space_group_name_H-M   'P 1'
_cell_length_a   7.85872767
_cell_length_b   7.94147426
_cell_length_c   8.04806866
_cell_angle_alpha   89.96595721
_cell_angle_beta   89.37414973
_cell_angle_gamma   89.98981716
_symmetry_Int_Tables_number   1
_chemical_formula_structural   Ca8Ti3Mn5O20
_chemical_formula_sum   'Ca8 Ti3 Mn5 O20'
_cell_volume   502.24896709
_cell_formula_units_Z   1
loop_
 _symmetry_equiv_pos_site_id
 _symmetry_equiv_pos_as_xyz
  1  'x, y, z'
loop_
 _atom_site_type_symbol
 _atom_site_label
 _atom_site_symmetry_multiplicity
 _atom_site_fract_x
 _atom_site_fract_y
 _atom_site_fract_z
 _atom_site_occupancy
  Ca  Ca0  1  0.24758200  0.27761000  0.25718500  1
  Ca  Ca1  1  0.21893600  0.30470600  0.70648000  1
  Ca  Ca2  1  0.23474800  0.73350900  0.28468200  1
  Ca  Ca3  1  0.25270200  0.71429300  0.83005600  1
  Ca  Ca4  1  0.73392300  0.25465600  0.26012900  1
  Ca  Ca5  1  0.70224100  0.29862100  0.70421200  1
  Ca  Ca6  1  0.75547400  0.74975600  0.30965100  1
  Ca  Ca7  1  0.76629500  0.69881900  0.78484700  1
  Ti  Ti0  1  0.00139600  0.01230300  0.96900200  1
  Ti  Ti1  1  0.99265600  0.00659700  0.52281300  1
  Ti  Ti2  1  0.55137400  0.99465800  0.98333100  1
  Mn  Mn0  1  0.99063600  0.47766600  0.01958500  1
  Mn  Mn1  1  0.98515800  0.51207400  0.50647400  1
  Mn  Mn2  1  0.49300500  0.01683900  0.49552100  1
  Mn  Mn3  1  0.48996900  0.48470200  0.00579300  1
  Mn  Mn4  1  0.48347500  0.52571800  0.50588100  1
  O  O0  1  0.99410700  0.93233600  0.75364200  1
  O  O1  1  0.92766400  0.47594900  0.25175000  1
  O  O2  1  0.02727300  0.54877900  0.78568500  1
  O  O3  1  0.78073200  0.97475300  0.05501600  1
  O  O4  1  0.54010400  0.04150000  0.76270000  1
  O  O5  1  0.43861900  0.48721400  0.75916300  1
  O  O6  1  0.16415200  0.88847500  0.05590800  1
  O  O7  1  0.21601700  0.05468300  0.44934000  1
  O  O8  1  0.23995000  0.52251700  0.07444700  1
  O  O9  1  0.24514300  0.48572100  0.46119700  1
  O  O10  1  0.77467700  0.01688000  0.41820900  1
  O  O11  1  0.74434400  0.45854600  0.96484700  1
  O  O12  1  0.72562800  0.55538600  0.54993900  1
  O  O13  1  0.06834500  0.22566300  0.99094100  1
  O  O14  1  0.96157800  0.24614400  0.58219700  1
  O  O15  1  0.00363900  0.77752700  0.45218300  1
  O  O16  1  0.48266000  0.18205800  0.10171800  1
  O  O17  1  0.52527900  0.28021200  0.46059500  1
  O  O18  1  0.50847900  0.76883300  0.99956900  1
  O  O19  1  0.48204100  0.76429800  0.42531200  1
loop_
_geom_bond_atom_site_label_1
_geom_bond_atom_site_label_2
_geom_bond_distance
_geom_bond_site_symmetry_2
Ca0 O9 2.330275 1_555
Ca0 O16 2.346148 1_555
Ca0 O7 2.361324 1_555
Ca0 O8 2.438797 1_555
Ca0 O13 2.610142 1_554
Ca0 O17 2.742466 1_555
Ca0 O1 2.967275 1_455
Ca1 O5 2.297531 1_555
Ca1 O14 2.313521 1_455
Ca1 O9 2.448191 1_555
Ca1 O2 2.532098 1_555
Ca1 O13 2.641049 1_555
Ca1 O7 2.869081 1_555
Ca2 O19 2.272915 1_555
Ca2 O15 2.277054 1_555
Ca2 O6 2.287285 1_555
Ca2 O8 2.381998 1_555
Ca2 O9 2.428208 1_555
Ca2 O7 2.878007 1_565
Ca3 O2 2.238069 1_555
Ca3 O6 2.382566 1_556
Ca3 O5 2.386289 1_555
Ca3 O18 2.479946 1_555
Ca3 O8 2.488034 1_556
Ca3 O0 2.744325 1_455
Ca4 O17 2.296770 1_555
Ca4 O10 2.300575 1_555
Ca4 O1 2.325882 1_555
Ca4 O16 2.431690 1_555
Ca4 O3 2.791446 1_545
Ca4 O11 2.875276 1_554
Ca5 O14 2.290877 1_555
Ca5 O12 2.392778 1_555
Ca5 O17 2.420645 1_555
Ca5 O4 2.449745 1_555
Ca5 O11 2.478088 1_555
Ca5 O5 2.590455 1_555
Ca6 O15 2.284150 1_655
Ca6 O10 2.300316 1_565
Ca6 O19 2.335305 1_555
Ca6 O12 2.482767 1_555
Ca6 O1 2.600542 1_555
Ca6 O3 2.723726 1_555
Ca7 O12 2.233765 1_555
Ca7 O2 2.371845 1_655
Ca7 O11 2.400136 1_555
Ca7 O0 2.588079 1_555
Ca7 O18 2.706442 1_555
Mn0 O1 1.927714 1_555
Mn0 O2 1.983023 1_654
Mn0 O11 1.995560 1_554
Mn0 O8 2.044498 1_655
Mn0 O13 2.104336 1_654
Mn1 O9 2.082000 1_655
Mn1 O12 2.094004 1_555
Mn1 O1 2.123695 1_555
Mn1 O15 2.157237 1_655
Mn1 O14 2.204972 1_555
Mn1 O2 2.293702 1_655
Mn2 O19 2.086000 1_545
Mn2 O17 2.125073 1_555
Mn2 O4 2.194756 1_555
Mn2 O7 2.232512 1_555
Mn2 O10 2.292817 1_555
Mn3 O5 2.029903 1_554
Mn3 O11 2.033111 1_554
Mn3 O8 2.057258 1_555
Mn3 O18 2.261619 1_554
Mn3 O16 2.524420 1_555
Mn4 O9 1.937358 1_555
Mn4 O12 1.953894 1_555
Mn4 O19 2.002267 1_555
Mn4 O17 2.009979 1_555
Mn4 O5 2.087239 1_555
O0 Ti0 1.847745 1_665
O0 Ti1 1.948906 1_565
O3 Ti0 1.883900 1_664
O3 Ti2 1.905048 1_554
O4 Ti2 1.817088 1_545
O6 Ti0 1.763657 1_564
O7 Ti1 1.885198 1_455
O10 Ti1 1.918663 1_555
O13 Ti0 1.783721 1_555
O14 Ti1 1.976206 1_555
O15 Ti1 1.907876 1_465
O16 Ti2 1.845102 1_544
O18 Ti2 1.829184 1_555
