# generated using pymatgen
data_Na4XeO12
_symmetry_space_group_name_H-M   'P 1'
_cell_length_a   6.35799100
_cell_length_b   10.91535600
_cell_length_c   16.46116600
_cell_angle_alpha   90.00000000
_cell_angle_beta   90.00000000
_cell_angle_gamma   90.00000000
_symmetry_Int_Tables_number   1
_chemical_formula_structural   Na4XeO12
_chemical_formula_sum   'Na16 Xe4 O48'
_cell_volume   1142.40056164
_cell_formula_units_Z   4
loop_
 _symmetry_equiv_pos_site_id
 _symmetry_equiv_pos_as_xyz
  1  'x, y, z'
loop_
 _atom_site_type_symbol
 _atom_site_label
 _atom_site_symmetry_multiplicity
 _atom_site_fract_x
 _atom_site_fract_y
 _atom_site_fract_z
 _atom_site_occupancy
  Na  Na0  1  0.93873100  0.84272400  0.52340600  1
  Na  Na1  1  0.06126900  0.65727600  0.02340600  1
  Na  Na2  1  0.56126900  0.34272400  0.47659400  1
  Na  Na3  1  0.43873100  0.15727600  0.97659400  1
  Na  Na4  1  0.06126900  0.15727600  0.47659400  1
  Na  Na5  1  0.93873100  0.34272400  0.97659400  1
  Na  Na6  1  0.43873100  0.65727600  0.52340600  1
  Na  Na7  1  0.56126900  0.84272400  0.02340600  1
  Na  Na8  1  0.11591900  0.86569400  0.73166300  1
  Na  Na9  1  0.88408100  0.63430600  0.23166300  1
  Na  Na10  1  0.38408100  0.36569400  0.26833700  1
  Na  Na11  1  0.61591900  0.13430600  0.76833700  1
  Na  Na12  1  0.88408100  0.13430600  0.26833700  1
  Na  Na13  1  0.11591900  0.36569400  0.76833700  1
  Na  Na14  1  0.61591900  0.63430600  0.73166300  1
  Na  Na15  1  0.38408100  0.86569400  0.23166300  1
  Xe  Xe0  1  0.50000000  0.00000000  0.50000000  1
  Xe  Xe1  1  0.50000000  0.50000000  0.00000000  1
  Xe  Xe2  1  0.00000000  0.50000000  0.50000000  1
  Xe  Xe3  1  0.00000000  0.00000000  0.00000000  1
  O  O0  1  0.94265500  0.07420800  0.60040700  1
  O  O1  1  0.05734500  0.42579200  0.10040700  1
  O  O2  1  0.55734500  0.57420800  0.39959300  1
  O  O3  1  0.44265500  0.92579200  0.89959300  1
  O  O4  1  0.05734500  0.92579200  0.39959300  1
  O  O5  1  0.94265500  0.57420800  0.89959300  1
  O  O6  1  0.44265500  0.42579200  0.60040700  1
  O  O7  1  0.55734500  0.07420800  0.10040700  1
  O  O8  1  0.23683800  0.79959800  0.59899200  1
  O  O9  1  0.76316200  0.70040200  0.09899200  1
  O  O10  1  0.26316200  0.29959800  0.40100800  1
  O  O11  1  0.73683800  0.20040200  0.90100800  1
  O  O12  1  0.76316200  0.20040200  0.40100800  1
  O  O13  1  0.23683800  0.29959800  0.90100800  1
  O  O14  1  0.73683800  0.70040200  0.59899200  1
  O  O15  1  0.26316200  0.79959800  0.09899200  1
  O  O16  1  0.77222400  0.82279600  0.38948800  1
  O  O17  1  0.22777600  0.67720400  0.88948800  1
  O  O18  1  0.72777600  0.32279600  0.61051200  1
  O  O19  1  0.27222400  0.17720400  0.11051200  1
  O  O20  1  0.22777600  0.17720400  0.61051200  1
  O  O21  1  0.77222400  0.32279600  0.11051200  1
  O  O22  1  0.27222400  0.67720400  0.38948800  1
  O  O23  1  0.72777600  0.82279600  0.88948800  1
  O  O24  1  0.77109600  0.79465900  0.65052600  1
  O  O25  1  0.22890400  0.70534100  0.15052600  1
  O  O26  1  0.72890400  0.29465900  0.34947400  1
  O  O27  1  0.27109600  0.20534100  0.84947400  1
  O  O28  1  0.22890400  0.20534100  0.34947400  1
  O  O29  1  0.77109600  0.29465900  0.84947400  1
  O  O30  1  0.27109600  0.70534100  0.65052600  1
  O  O31  1  0.72890400  0.79465900  0.15052600  1
  O  O32  1  0.44307900  0.94267700  0.82148100  1
  O  O33  1  0.55692100  0.55732300  0.32148100  1
  O  O34  1  0.05692100  0.44267700  0.17851900  1
  O  O35  1  0.94307900  0.05732300  0.67851900  1
  O  O36  1  0.55692100  0.05732300  0.17851900  1
  O  O37  1  0.44307900  0.44267700  0.67851900  1
  O  O38  1  0.94307900  0.55732300  0.82148100  1
  O  O39  1  0.05692100  0.94267700  0.32148100  1
  O  O40  1  0.73376800  0.34436200  0.68659900  1
  O  O41  1  0.26623200  0.15563800  0.18659900  1
  O  O42  1  0.76623200  0.84436200  0.31340100  1
  O  O43  1  0.23376800  0.65563800  0.81340100  1
  O  O44  1  0.26623200  0.65563800  0.31340100  1
  O  O45  1  0.73376800  0.84436200  0.81340100  1
  O  O46  1  0.23376800  0.15563800  0.68659900  1
  O  O47  1  0.76623200  0.34436200  0.18659900  1
loop_
_geom_bond_atom_site_label_1
_geom_bond_atom_site_label_2
_geom_bond_distance
_geom_bond_site_symmetry_2
Na0 O8 2.315622 1_655
Na0 O4 2.354729 1_655
Na0 O14 2.368371 1_555
Na0 O24 2.406235 1_555
Na0 O16 2.455125 1_555
Na0 O0 2.826944 1_565
Na0 Xe0 3.297970 1_565
Na1 O9 2.315622 1_455
Na1 O5 2.354729 1_454
Na1 O15 2.368371 1_555
Na1 O25 2.406235 1_555
Na1 O17 2.455125 1_554
Na1 O1 2.826944 1_555
Na1 Xe1 3.297970 1_555
Na2 O10 2.315622 1_555
Na2 O6 2.354729 1_555
Na2 O12 2.368371 1_555
Na2 O26 2.406235 1_555
Na2 O18 2.455125 1_555
Na2 O2 2.826944 1_555
Na2 Xe2 3.297970 1_655
Na3 O11 2.315622 1_555
Na3 O7 2.354729 1_556
Na3 O13 2.368371 1_555
Na3 O27 2.406235 1_555
Na3 O19 2.455125 1_556
Na3 O3 2.826944 1_545
Na3 Xe3 3.297970 1_556
Na4 O12 2.315622 1_455
Na4 O0 2.354729 1_455
Na4 O10 2.368371 1_555
Na4 O28 2.406235 1_555
Na4 O20 2.455125 1_555
Na4 O4 2.826944 1_545
Na4 Xe0 3.297970 1_555
Na5 O13 2.315622 1_655
Na5 O1 2.354729 1_656
Na5 O11 2.368371 1_555
Na5 O29 2.406235 1_555
Na5 O21 2.455125 1_556
Na5 O5 2.826944 1_555
Na5 Xe1 3.297970 1_556
Na6 O14 2.315622 1_555
Na6 O2 2.354729 1_555
Na6 O8 2.368371 1_555
Na6 O30 2.406235 1_555
Na6 O22 2.455125 1_555
Na6 O6 2.826944 1_555
Na6 Xe2 3.297970 1_555
Na7 O15 2.315622 1_555
Na7 O3 2.354729 1_554
Na7 O9 2.368371 1_555
Na7 O31 2.406235 1_555
Na7 O23 2.455125 1_554
Na7 O7 2.826944 1_565
Na7 Xe3 3.297970 1_665
Na8 O30 2.412643 1_555
Na8 O8 2.425091 1_555
Na8 O35 2.519547 1_465
Na8 O24 2.681714 1_455
Na8 O32 2.686787 1_555
Na8 O43 2.762046 1_555
Na8 O45 2.787131 1_455
Na9 O31 2.412643 1_555
Na9 O9 2.425091 1_555
Na9 O34 2.519547 1_655
Na9 O25 2.681714 1_655
Na9 O33 2.686787 1_555
Na9 O42 2.762046 1_555
Na9 O44 2.787131 1_655
Na10 O28 2.412643 1_555
Na10 O10 2.425091 1_555
Na10 O33 2.519547 1_555
Na10 O26 2.681714 1_555
Na10 O34 2.686787 1_555
Na10 O41 2.762046 1_555
Na10 O47 2.787131 1_555
Na11 O29 2.412643 1_555
Na11 O11 2.425091 1_555
Na11 O32 2.519547 1_545
Na11 O27 2.681714 1_555
Na11 O35 2.686787 1_555
Na11 O40 2.762046 1_555
Na11 O46 2.787131 1_555
Na12 O26 2.412643 1_555
Na12 O12 2.425091 1_555
Na12 O39 2.519547 1_645
Na12 O28 2.681714 1_655
Na12 O36 2.686787 1_555
Na12 O47 2.762046 1_555
Na12 O41 2.787131 1_655
Na13 O27 2.412643 1_555
Na13 O13 2.425091 1_555
Na13 O38 2.519547 1_455
Na13 O29 2.681714 1_455
Na13 O37 2.686787 1_555
Na13 O46 2.762046 1_555
Na13 O40 2.787131 1_455
Na14 O24 2.412643 1_555
Na14 O14 2.425091 1_555
Na14 O37 2.519547 1_555
Na14 O30 2.681714 1_555
Na14 O38 2.686787 1_555
Na14 O45 2.762046 1_555
Na14 O43 2.787131 1_555
Na15 O25 2.412643 1_555
Na15 O15 2.425091 1_555
Na15 O36 2.519547 1_565
Na15 O31 2.681714 1_555
Na15 O39 2.686787 1_555
Na15 O44 2.762046 1_555
Na15 O42 2.787131 1_555
O0 O35 1.298959 1_555
O1 O34 1.298959 1_555
O2 O33 1.298959 1_555
O3 O32 1.298959 1_555
O10 O28 1.351148 1_555
O11 O29 1.351148 1_555
O12 O26 1.351148 1_555
O13 O27 1.351148 1_555
O14 O24 1.351148 1_555
O15 O25 1.351148 1_555
O16 O42 1.274980 1_555
O17 O43 1.274980 1_555
O18 O40 1.274980 1_555
O19 O41 1.274980 1_555
O20 O46 1.274980 1_555
O21 O47 1.274980 1_555
O22 O44 1.274980 1_555
O23 O45 1.274980 1_555
O30 O8 1.351148 1_555
O31 O9 1.351148 1_555
O36 O7 1.298959 1_555
O37 O6 1.298959 1_555
O38 O5 1.298959 1_555
O39 O4 1.298959 1_555
