# generated using pymatgen
data_SrGd2Sc2O7
_symmetry_space_group_name_H-M   'P 1'
_cell_length_a   4.04561800
_cell_length_b   4.04561800
_cell_length_c   10.57247617
_cell_angle_alpha   101.03028540
_cell_angle_beta   101.03028540
_cell_angle_gamma   90.00000000
_symmetry_Int_Tables_number   1
_chemical_formula_structural   SrGd2Sc2O7
_chemical_formula_sum   'Sr1 Gd2 Sc2 O7'
_cell_volume   166.58523354
_cell_formula_units_Z   1
loop_
 _symmetry_equiv_pos_site_id
 _symmetry_equiv_pos_as_xyz
  1  'x, y, z'
loop_
 _atom_site_type_symbol
 _atom_site_label
 _atom_site_symmetry_multiplicity
 _atom_site_fract_x
 _atom_site_fract_y
 _atom_site_fract_z
 _atom_site_occupancy
  Sr  Sr0  1  0.50000000  0.50000000  0.00000000  1
  Gd  Gd0  1  0.68340800  0.68340800  0.36681600  1
  Gd  Gd1  1  0.31659200  0.31659200  0.63318400  1
  Sc  Sc0  1  0.89809500  0.89809500  0.79619000  1
  Sc  Sc1  1  0.10190500  0.10190500  0.20381000  1
  O  O0  1  0.00000000  0.00000000  0.00000000  1
  O  O1  1  0.78884600  0.78884600  0.57769200  1
  O  O2  1  0.21115400  0.21115400  0.42230800  1
  O  O3  1  0.38701000  0.88701000  0.77402000  1
  O  O4  1  0.11299000  0.61299000  0.22598000  1
  O  O5  1  0.61299000  0.11299000  0.22598000  1
  O  O6  1  0.88701000  0.38701000  0.77402000  1
loop_
_geom_bond_atom_site_label_1
_geom_bond_atom_site_label_2
_geom_bond_distance
_geom_bond_site_symmetry_2
Gd0 O1 2.146317 1_555
Gd0 O5 2.479217 1_565
Gd0 O4 2.479217 1_655
Gd0 O5 2.479217 1_555
Gd0 O4 2.479217 1_555
Gd0 O2 2.915907 1_665
Gd0 O2 2.915907 1_565
Gd0 O2 2.915907 1_655
Gd0 O2 2.915907 1_555
Gd1 O2 2.146317 1_555
Gd1 O6 2.479217 1_555
Gd1 O6 2.479217 1_455
Gd1 O3 2.479217 1_555
Gd1 O3 2.479217 1_545
Gd1 O1 2.915907 1_555
Gd1 O1 2.915907 1_455
Gd1 O1 2.915907 1_545
Gd1 O1 2.915907 1_445
O0 Sc0 2.074399 1_444
O0 Sc1 2.074399 1_555
O0 Sr0 2.860684 1_555
O0 Sr0 2.860684 1_445
O0 Sr0 2.860684 1_545
O0 Sr0 2.860684 1_455
O1 Sc0 2.223895 1_555
O2 Sc1 2.223895 1_555
O3 Sc0 2.035356 1_555
O3 Sc0 2.035356 1_455
O3 Sr0 3.063001 1_556
O3 Sr0 3.063001 1_566
O4 Sc1 2.035356 1_565
O4 Sc1 2.035356 1_555
O4 Sr0 3.063001 1_455
O4 Sr0 3.063001 1_555
O5 Sc1 2.035356 1_655
O5 Sc1 2.035356 1_555
O5 Sr0 3.063001 1_555
O5 Sr0 3.063001 1_545
O6 Sc0 2.035356 1_555
O6 Sc0 2.035356 1_545
O6 Sr0 3.063001 1_556
O6 Sr0 3.063001 1_656
