# generated using pymatgen
data_HoIO9
_symmetry_space_group_name_H-M   'P 1'
_cell_length_a   11.28373600
_cell_length_b   7.63205600
_cell_length_c   10.55033008
_cell_angle_alpha   54.88810557
_cell_angle_beta   90.00000000
_cell_angle_gamma   90.00000000
_symmetry_Int_Tables_number   1
_chemical_formula_structural   HoIO9
_chemical_formula_sum   'Ho4 I4 O36'
_cell_volume   743.24144438
_cell_formula_units_Z   4
loop_
 _symmetry_equiv_pos_site_id
 _symmetry_equiv_pos_as_xyz
  1  'x, y, z'
loop_
 _atom_site_type_symbol
 _atom_site_label
 _atom_site_symmetry_multiplicity
 _atom_site_fract_x
 _atom_site_fract_y
 _atom_site_fract_z
 _atom_site_occupancy
  Ho  Ho0  1  0.08685700  0.17829400  0.30635400  1
  Ho  Ho1  1  0.58685700  0.82170600  0.19364600  1
  Ho  Ho2  1  0.91314300  0.82170600  0.69364600  1
  Ho  Ho3  1  0.41314300  0.17829400  0.80635400  1
  I  I0  1  0.32910100  0.01456300  0.22903600  1
  I  I1  1  0.82910100  0.98543700  0.27096400  1
  I  I2  1  0.67089900  0.98543700  0.77096400  1
  I  I3  1  0.17089900  0.01456300  0.72903600  1
  O  O0  1  0.42702800  0.08213400  0.05360200  1
  O  O1  1  0.92702800  0.91786600  0.44639800  1
  O  O2  1  0.57297200  0.91786600  0.94639800  1
  O  O3  1  0.07297200  0.08213400  0.55360200  1
  O  O4  1  0.46162200  0.22099900  0.24919100  1
  O  O5  1  0.96162200  0.77900100  0.25080900  1
  O  O6  1  0.53837800  0.77900100  0.75080900  1
  O  O7  1  0.03837800  0.22099900  0.74919100  1
  O  O8  1  0.22191900  0.23583800  0.10801100  1
  O  O9  1  0.72191900  0.76416200  0.39198900  1
  O  O10  1  0.77808100  0.76416200  0.89198900  1
  O  O11  1  0.27808100  0.23583800  0.60801100  1
  O  O12  1  0.22752000  0.61358200  0.26335400  1
  O  O13  1  0.72752000  0.38641800  0.23664600  1
  O  O14  1  0.77248000  0.38641800  0.73664600  1
  O  O15  1  0.27248000  0.61358200  0.76335400  1
  O  O16  1  0.92699100  0.59738500  0.28651700  1
  O  O17  1  0.42699100  0.40261500  0.21348300  1
  O  O18  1  0.07300900  0.40261500  0.71348300  1
  O  O19  1  0.57300900  0.59738500  0.78651700  1
  O  O20  1  0.93667500  0.20674800  0.15567500  1
  O  O21  1  0.43667500  0.79325200  0.34432500  1
  O  O22  1  0.06332500  0.79325200  0.84432500  1
  O  O23  1  0.56332500  0.20674800  0.65567500  1
  O  O24  1  0.74683500  0.04544600  0.09729200  1
  O  O25  1  0.24683500  0.95455400  0.40270800  1
  O  O26  1  0.25316500  0.95455400  0.90270800  1
  O  O27  1  0.75316500  0.04544600  0.59729200  1
  O  O28  1  0.69876400  0.19363800  0.29330500  1
  O  O29  1  0.19876400  0.80636200  0.20669500  1
  O  O30  1  0.30123600  0.80636200  0.70669500  1
  O  O31  1  0.80123600  0.19363800  0.79330500  1
  O  O32  1  0.57385700  0.47393800  0.31910200  1
  O  O33  1  0.07385700  0.52606200  0.18089800  1
  O  O34  1  0.42614300  0.52606200  0.68089800  1
  O  O35  1  0.92614300  0.47393800  0.81910200  1
loop_
_geom_bond_atom_site_label_1
_geom_bond_atom_site_label_2
_geom_bond_distance
_geom_bond_site_symmetry_2
Ho0 O33 2.185603 1_555
Ho0 O20 2.246983 1_455
Ho0 O3 2.272759 1_555
Ho0 O25 2.282757 1_545
Ho0 O8 2.416026 1_555
Ho0 O1 2.451093 1_445
Ho1 O32 2.185603 1_555
Ho1 O21 2.246983 1_555
Ho1 O2 2.272759 1_554
Ho1 O24 2.282757 1_565
Ho1 O9 2.416026 1_555
Ho1 O0 2.451093 1_565
Ho2 O35 2.185603 1_555
Ho2 O22 2.246983 1_655
Ho2 O1 2.272759 1_555
Ho2 O27 2.282757 1_565
Ho2 O10 2.416026 1_555
Ho2 O3 2.451093 1_665
Ho3 O34 2.185603 1_555
Ho3 O23 2.246983 1_555
Ho3 O0 2.272759 1_556
Ho3 O26 2.282757 1_545
Ho3 O11 2.416026 1_555
Ho3 O2 2.451093 1_545
I0 O21 1.855381 1_545
I0 O25 1.861022 1_545
I0 O8 1.861314 1_555
I0 O0 1.953125 1_555
I0 O4 2.269125 1_555
I0 O29 2.274699 1_545
I1 O20 1.855381 1_565
I1 O24 1.861022 1_565
I1 O9 1.861314 1_555
I1 O1 1.953125 1_555
I1 O5 2.269125 1_555
I1 O28 2.274699 1_565
I2 O23 1.855381 1_565
I2 O27 1.861022 1_565
I2 O10 1.861314 1_555
I2 O2 1.953125 1_555
I2 O6 2.269125 1_555
I2 O31 2.274699 1_565
I3 O22 1.855381 1_545
I3 O26 1.861022 1_545
I3 O11 1.861314 1_555
I3 O3 1.953125 1_555
I3 O7 2.269125 1_555
I3 O30 2.274699 1_545
O12 O29 1.271071 1_555
O13 O28 1.271071 1_555
O14 O31 1.271071 1_555
O15 O30 1.271071 1_555
O16 O5 1.270909 1_555
O17 O4 1.270909 1_555
O18 O7 1.270909 1_555
O19 O6 1.270909 1_555
