# generated using pymatgen
data_Ca3FeN3
_symmetry_space_group_name_H-M   'P 1'
_cell_length_a   7.18103893
_cell_length_b   7.18103893
_cell_length_c   4.97741340
_cell_angle_alpha   90.00000000
_cell_angle_beta   90.00000000
_cell_angle_gamma   120.00001753
_symmetry_Int_Tables_number   1
_chemical_formula_structural   Ca3FeN3
_chemical_formula_sum   'Ca6 Fe2 N6'
_cell_volume   222.28432086
_cell_formula_units_Z   2
loop_
 _symmetry_equiv_pos_site_id
 _symmetry_equiv_pos_as_xyz
  1  'x, y, z'
loop_
 _atom_site_type_symbol
 _atom_site_label
 _atom_site_symmetry_multiplicity
 _atom_site_fract_x
 _atom_site_fract_y
 _atom_site_fract_z
 _atom_site_occupancy
  Ca  Ca0  1  0.27751971  0.91588525  0.75000000  1
  Ca  Ca1  1  0.63836654  0.72248029  0.75000000  1
  Ca  Ca2  1  0.08411475  0.36163346  0.75000000  1
  Ca  Ca3  1  0.72249905  0.08417383  0.25000000  1
  Ca  Ca4  1  0.36167578  0.27750095  0.25000000  1
  Ca  Ca5  1  0.91582617  0.63832422  0.25000000  1
  Fe  Fe0  1  0.33333300  0.66666700  0.25000000  1
  Fe  Fe1  1  0.66666700  0.33333300  0.75000000  1
  N  N0  1  0.30146099  0.89676777  0.25000000  1
  N  N1  1  0.59530677  0.69853901  0.25000000  1
  N  N2  1  0.10323223  0.40469323  0.25000000  1
  N  N3  1  0.69853848  0.10329976  0.75000000  1
  N  N4  1  0.40476229  0.30146152  0.75000000  1
  N  N5  1  0.89669924  0.59523771  0.75000000  1
loop_
_geom_bond_atom_site_label_1
_geom_bond_atom_site_label_2
_geom_bond_distance
_geom_bond_site_symmetry_2
Ca0 N4 2.443643 1_565
Ca0 N0 2.503132 1_556
Ca0 N0 2.503132 1_555
Ca0 N5 2.546282 1_455
Ca0 N3 2.623547 1_565
Ca1 N5 2.443637 1_555
Ca1 N1 2.503132 1_556
Ca1 N1 2.503132 1_555
Ca1 N3 2.546278 1_565
Ca1 N4 2.623546 1_555
Ca2 N3 2.443643 1_455
Ca2 N2 2.503132 1_555
Ca2 N2 2.503132 1_556
Ca2 N4 2.546278 1_555
Ca2 N5 2.623553 1_455
Ca3 N1 2.444111 1_545
Ca3 N3 2.503150 1_554
Ca3 N3 2.503150 1_555
Ca3 N2 2.545554 1_655
Ca3 N0 2.623674 1_545
Ca4 N2 2.444118 1_555
Ca4 N4 2.503150 1_555
Ca4 N4 2.503150 1_554
Ca4 N0 2.545552 1_545
Ca4 N1 2.623674 1_555
Ca5 N0 2.444112 1_655
Ca5 N5 2.503150 1_554
Ca5 N5 2.503150 1_555
Ca5 N1 2.545560 1_555
Ca5 N2 2.623669 1_655
Fe0 N0 1.777883 1_555
Fe0 N2 1.777887 1_555
Fe0 N1 1.777890 1_555
Fe1 N5 1.777396 1_555
Fe1 N4 1.777399 1_555
Fe1 N3 1.777399 1_555
