# generated using pymatgen
data_Ba4CaCu2CO9
_symmetry_space_group_name_H-M   'P 1'
_cell_length_a   5.85425765
_cell_length_b   5.85425765
_cell_length_c   8.31164500
_cell_angle_alpha   90.00000000
_cell_angle_beta   90.00000000
_cell_angle_gamma   91.83506963
_symmetry_Int_Tables_number   1
_chemical_formula_structural   Ba4CaCu2CO9
_chemical_formula_sum   'Ba4 Ca1 Cu2 C1 O9'
_cell_volume   284.71337125
_cell_formula_units_Z   1
loop_
 _symmetry_equiv_pos_site_id
 _symmetry_equiv_pos_as_xyz
  1  'x, y, z'
loop_
 _atom_site_type_symbol
 _atom_site_label
 _atom_site_symmetry_multiplicity
 _atom_site_fract_x
 _atom_site_fract_y
 _atom_site_fract_z
 _atom_site_occupancy
  Ba  Ba0  1  0.50102000  0.99349700  0.76777900  1
  Ba  Ba1  1  0.00650300  0.49898000  0.76777900  1
  Ba  Ba2  1  0.50102000  0.99349700  0.23222100  1
  Ba  Ba3  1  0.00650300  0.49898000  0.23222100  1
  Ca  Ca0  1  0.99949000  0.00051000  0.00000000  1
  Cu  Cu0  1  0.50184300  0.49815700  0.00000000  1
  Cu  Cu1  1  0.99618400  0.00381600  0.50000000  1
  C  C0  1  0.49747800  0.50252200  0.50000000  1
  O  O0  1  0.99929000  0.00071000  0.71893500  1
  O  O1  1  0.99929000  0.00071000  0.28106500  1
  O  O2  1  0.72434400  0.27565600  0.00000000  1
  O  O3  1  0.27802700  0.72197300  0.00000000  1
  O  O4  1  0.72702200  0.72491600  0.00000000  1
  O  O5  1  0.27508400  0.27297800  0.00000000  1
  O  O6  1  0.57375600  0.42624400  0.63632900  1
  O  O7  1  0.57375600  0.42624400  0.36367100  1
  O  O8  1  0.34249000  0.65751000  0.50000000  1
loop_
_geom_bond_atom_site_label_1
_geom_bond_atom_site_label_2
_geom_bond_distance
_geom_bond_site_symmetry_2
Ba0 O6 2.779228 1_565
Ba0 O3 2.797051 1_556
Ba0 O2 2.832835 1_566
Ba0 O4 2.842790 1_556
Ba0 O5 2.879329 1_566
Ba0 O0 2.944079 1_565
Ba0 O0 2.966820 1_465
Ba0 O8 3.093055 1_555
Ba1 O6 2.779228 1_455
Ba1 O3 2.797051 1_556
Ba1 O2 2.832835 1_456
Ba1 O5 2.842790 1_556
Ba1 O4 2.879329 1_456
Ba1 O0 2.944079 1_455
Ba1 O0 2.966820 1_465
Ba1 O8 3.093055 1_555
Ba2 O7 2.779228 1_565
Ba2 O3 2.797051 1_555
Ba2 O2 2.832835 1_565
Ba2 O4 2.842790 1_555
Ba2 O5 2.879329 1_565
Ba2 O1 2.944079 1_565
Ba2 O1 2.966820 1_465
Ba2 O8 3.093055 1_555
Ba3 O7 2.779228 1_455
Ba3 O3 2.797051 1_555
Ba3 O2 2.832835 1_455
Ba3 O5 2.842790 1_555
Ba3 O4 2.879329 1_455
Ba3 O1 2.944079 1_455
Ba3 O1 2.966820 1_465
Ba3 O8 3.093055 1_555
Ca0 O5 2.232167 1_655
Ca0 O4 2.232167 1_545
Ca0 O2 2.314167 1_555
Ca0 O1 2.336113 1_555
Ca0 O0 2.336113 1_554
Ca0 O3 2.342687 1_645
Cu0 O5 1.840650 1_555
Cu0 O4 1.840650 1_555
Cu0 O2 1.871386 1_555
Cu0 O3 1.882446 1_555
Cu1 O0 1.819898 1_555
Cu1 O1 1.819898 1_555
C0 O6 1.302130 1_555
C0 O7 1.302130 1_555
C0 O8 1.303555 1_555
