# generated using pymatgen
data_SrLaCoO4
_symmetry_space_group_name_H-M   'P 1'
_cell_length_a   6.94552094
_cell_length_b   7.70225764
_cell_length_c   8.64399115
_cell_angle_alpha   63.58965676
_cell_angle_beta   82.74948205
_cell_angle_gamma   106.10971778
_symmetry_Int_Tables_number   1
_chemical_formula_structural   SrLaCoO4
_chemical_formula_sum   'Sr4 La4 Co4 O16'
_cell_volume   380.78309018
_cell_formula_units_Z   4
loop_
 _symmetry_equiv_pos_site_id
 _symmetry_equiv_pos_as_xyz
  1  'x, y, z'
loop_
 _atom_site_type_symbol
 _atom_site_label
 _atom_site_symmetry_multiplicity
 _atom_site_fract_x
 _atom_site_fract_y
 _atom_site_fract_z
 _atom_site_occupancy
  Sr  Sr0  1  0.28641000  0.73276700  0.17754700  1
  Sr  Sr1  1  0.28516300  0.23188300  0.17910600  1
  Sr  Sr2  1  0.28305500  0.48368300  0.67877400  1
  Sr  Sr3  1  0.28471300  0.97903800  0.67969600  1
  La  La0  1  0.71641300  0.27174200  0.81989500  1
  La  La1  1  0.71759500  0.76650300  0.82102000  1
  La  La2  1  0.71334500  0.01751600  0.32154100  1
  La  La3  1  0.71258900  0.51689100  0.32261400  1
  Co  Co0  1  0.00771000  0.00243000  0.99935300  1
  Co  Co1  1  0.00795400  0.25353700  0.49671400  1
  Co  Co2  1  0.00823200  0.50162700  0.00053300  1
  Co  Co3  1  0.00874000  0.75466800  0.49520200  1
  O  O0  1  0.66906800  0.87581800  0.08202800  1
  O  O1  1  0.66495600  0.37027100  0.09285600  1
  O  O2  1  0.66403200  0.62852100  0.57482200  1
  O  O3  1  0.66829800  0.12522800  0.58375400  1
  O  O4  1  0.34750600  0.13252200  0.91114400  1
  O  O5  1  0.34918700  0.62909300  0.91406400  1
  O  O6  1  0.34678800  0.88062700  0.41194400  1
  O  O7  1  0.34504000  0.37831600  0.41578900  1
  O  O8  1  0.99163500  0.12175900  0.75216600  1
  O  O9  1  0.97529800  0.61564000  0.75613600  1
  O  O10  1  0.99225100  0.87649300  0.24294100  1
  O  O11  1  0.99190700  0.36765200  0.26095300  1
  O  O12  1  0.98975000  0.25220700  0.00398000  1
  O  O13  1  0.99182800  0.73926500  0.00369000  1
  O  O14  1  0.99053700  0.99037200  0.50101300  1
  O  O15  1  0.99000300  0.50393000  0.50072900  1
loop_
_geom_bond_atom_site_label_1
_geom_bond_atom_site_label_2
_geom_bond_distance
_geom_bond_site_symmetry_2
La0 O4 2.355806 1_555
La0 O9 2.522112 1_555
La0 O15 2.611923 1_555
La0 O12 2.620475 1_556
La0 O8 2.622205 1_555
La0 O3 2.750221 1_555
La0 O0 2.765923 1_546
La0 O2 2.782485 1_555
La0 O1 2.793086 1_556
La1 O5 2.352613 1_555
La1 O9 2.519725 1_555
La1 O14 2.614916 1_555
La1 O8 2.615189 1_565
La1 O13 2.617499 1_556
La1 O0 2.751030 1_556
La1 O3 2.760228 1_565
La1 O1 2.784510 1_556
La1 O2 2.790928 1_555
La2 O6 2.340783 1_545
La2 O12 2.611121 1_555
La2 O14 2.616431 1_545
La2 O11 2.623486 1_555
La2 O10 2.624110 1_545
La2 O2 2.700608 1_545
La2 O1 2.701707 1_555
La2 O0 2.748927 1_545
La2 O3 2.749788 1_555
La3 O7 2.347119 1_555
La3 O15 2.609928 1_555
La3 O11 2.624993 1_555
La3 O10 2.626502 1_555
La3 O13 2.627057 1_555
La3 O2 2.692321 1_555
La3 O1 2.698666 1_555
La3 O3 2.746344 1_555
La3 O0 2.750798 1_555
Co0 O10 1.858518 1_446
Co0 O8 1.947506 1_455
Co0 O12 1.979575 1_456
Co0 O13 1.982280 1_446
Co0 O0 2.162564 1_446
Co0 O4 2.170032 1_555
Co1 O11 1.859116 1_455
Co1 O8 1.948864 1_455
Co1 O14 1.979996 1_445
Co1 O15 1.981945 1_455
Co1 O7 2.152724 1_555
Co1 O3 2.169040 1_455
Co2 O12 1.875963 1_455
Co2 O13 1.877041 1_455
Co2 O9 1.967111 1_454
Co2 O11 1.987261 1_455
Co2 O5 2.177308 1_554
Co2 O1 2.192676 1_455
Co3 O14 1.876506 1_455
Co3 O15 1.877715 1_455
Co3 O9 1.966998 1_455
Co3 O10 1.987673 1_455
Co3 O6 2.158733 1_555
Co3 O2 2.201828 1_455
O0 Sr0 2.443583 1_555
O1 Sr1 2.426226 1_555
O2 Sr2 2.433845 1_555
O3 Sr3 2.449566 1_545
O4 Sr2 2.759783 1_555
O4 Sr3 2.761951 1_545
O4 Sr1 2.765126 1_556
O4 Sr0 2.772002 1_546
O5 Sr1 2.749374 1_556
O5 Sr0 2.752345 1_556
O5 Sr2 2.752920 1_555
O5 Sr3 2.758789 1_555
O6 Sr1 2.751290 1_565
O6 Sr0 2.753212 1_555
O6 Sr2 2.753417 1_555
O6 Sr3 2.758116 1_555
O7 Sr2 2.756748 1_555
O7 Sr1 2.763669 1_555
O7 Sr3 2.764036 1_545
O7 Sr0 2.772589 1_555
O8 Sr2 2.691022 1_655
O8 Sr3 2.697578 1_645
O9 Sr2 2.738375 1_655
O9 Sr3 2.747274 1_655
O10 Sr1 2.686770 1_665
O10 Sr0 2.690637 1_655
O11 Sr1 2.686847 1_655
O11 Sr0 2.691491 1_655
O12 Sr1 2.697660 1_655
O12 Sr2 2.703934 1_654
O13 Sr0 2.685747 1_655
O13 Sr3 2.695949 1_654
O14 Sr1 2.689993 1_665
O14 Sr3 2.709891 1_655
O15 Sr2 2.699831 1_655
O15 Sr0 2.702472 1_655
