# generated using pymatgen
data_MgMn6O5F7
_symmetry_space_group_name_H-M   'P 1'
_cell_length_a   7.72917460
_cell_length_b   6.14489155
_cell_length_c   5.98865505
_cell_angle_alpha   73.36009589
_cell_angle_beta   69.81428090
_cell_angle_gamma   67.28086602
_symmetry_Int_Tables_number   1
_chemical_formula_structural   MgMn6O5F7
_chemical_formula_sum   'Mg1 Mn6 O5 F7'
_cell_volume   242.36679947
_cell_formula_units_Z   1
loop_
 _symmetry_equiv_pos_site_id
 _symmetry_equiv_pos_as_xyz
  1  'x, y, z'
loop_
 _atom_site_type_symbol
 _atom_site_label
 _atom_site_symmetry_multiplicity
 _atom_site_fract_x
 _atom_site_fract_y
 _atom_site_fract_z
 _atom_site_occupancy
  Mg  Mg0  1  0.66588500  0.81246700  0.35087400  1
  Mn  Mn0  1  0.89417800  0.68165200  0.72036000  1
  Mn  Mn1  1  0.65474500  0.32525800  0.32463900  1
  Mn  Mn2  1  0.32943000  0.69114100  0.64589000  1
  Mn  Mn3  1  0.13991900  0.28058900  0.35370400  1
  Mn  Mn4  1  0.48626100  0.05677000  0.98098600  1
  Mn  Mn5  1  0.99437000  0.02808200  0.00688600  1
  O  O0  1  0.60411600  0.52088400  0.55516500  1
  O  O1  1  0.93609900  0.21592100  0.24721700  1
  O  O2  1  0.70682200  0.10603300  0.10449800  1
  O  O3  1  0.05462300  0.84150900  0.76384600  1
  O  O4  1  0.36957000  0.95324700  0.37438000  1
  F  F0  1  0.64806500  0.97448500  0.62118200  1
  F  F1  1  0.30031800  0.40914100  0.94205800  1
  F  F2  1  0.28330200  0.92548300  0.93873000  1
  F  F3  1  0.36507500  0.42624600  0.39775300  1
  F  F4  1  0.68351000  0.67774000  0.05526100  1
  F  F5  1  0.01364600  0.32391300  0.71751000  1
  F  F6  1  0.95340000  0.67652000  0.33655900  1
loop_
_geom_bond_atom_site_label_1
_geom_bond_atom_site_label_2
_geom_bond_distance
_geom_bond_site_symmetry_2
Mg0 O0 1.984261 1_555
Mg0 O2 2.031163 1_565
Mg0 O4 2.080956 1_555
Mn0 O3 1.970009 1_655
Mn1 O0 1.928296 1_555
Mn1 O1 1.936340 1_555
Mn1 O2 1.986665 1_555
Mn2 O3 1.920064 1_555
Mn2 O0 1.926405 1_555
Mn2 O4 1.967776 1_555
Mn3 O1 2.090061 1_455
Mn3 O4 2.112632 1_545
Mn4 O4 2.210625 1_546
Mn4 O2 2.223064 1_556
Mn5 O1 1.925909 1_555
Mn5 O3 1.930070 1_644
Mn5 O2 1.987998 1_555
F0 Mg0 2.072153 1_555
F0 Mn0 2.175525 1_555
F0 Mn4 2.176790 1_565
F0 Mn1 2.373373 1_565
F1 Mn4 2.084873 1_555
F1 Mn2 2.113006 1_555
F1 Mn3 2.402126 1_556
F2 Mn5 1.995511 1_466
F2 Mn4 2.131698 1_565
F2 Mn2 2.427856 1_555
F3 Mn1 1.998851 1_555
F3 Mn3 2.356783 1_555
F3 Mn2 2.385384 1_555
F4 Mn0 2.103147 1_554
F4 Mg0 2.103289 1_555
F4 Mn4 2.253608 1_564
F4 Mn1 2.338072 1_555
F5 Mn0 2.031751 1_455
F5 Mn3 2.105753 1_555
F5 Mn5 2.134662 1_456
F6 Mg0 2.029582 1_555
F6 Mn0 2.190362 1_555
F6 Mn3 2.293026 1_655
F6 Mn5 2.513832 1_565
