# generated using pymatgen
data_NdAl3
_symmetry_space_group_name_H-M   'P 1'
_cell_length_a   6.50720446
_cell_length_b   6.50719388
_cell_length_c   4.60214612
_cell_angle_alpha   90.00055603
_cell_angle_beta   89.99994750
_cell_angle_gamma   120.00102124
_symmetry_Int_Tables_number   1
_chemical_formula_structural   NdAl3
_chemical_formula_sum   'Nd2 Al6'
_cell_volume   168.76203954
_cell_formula_units_Z   2
loop_
 _symmetry_equiv_pos_site_id
 _symmetry_equiv_pos_as_xyz
  1  'x, y, z'
loop_
 _atom_site_type_symbol
 _atom_site_label
 _atom_site_symmetry_multiplicity
 _atom_site_fract_x
 _atom_site_fract_y
 _atom_site_fract_z
 _atom_site_occupancy
  Nd  Nd0  1  0.33333268  0.66666716  0.24999900  1
  Nd  Nd1  1  0.66666732  0.33333284  0.75000100  1
  Al  Al0  1  0.86046561  0.72093063  0.25000000  1
  Al  Al1  1  0.13953181  0.86046830  0.75000000  1
  Al  Al2  1  0.72093138  0.86046560  0.74999900  1
  Al  Al3  1  0.27906862  0.13953440  0.25000100  1
  Al  Al4  1  0.86046819  0.13953170  0.25000000  1
  Al  Al5  1  0.13953439  0.27906937  0.75000100  1
loop_
_geom_bond_atom_site_label_1
_geom_bond_atom_site_label_2
_geom_bond_distance
_geom_bond_site_symmetry_2
Al0 Al3 2.723894 1_665
Al0 Al4 2.723910 1_565
Al0 Al1 2.787128 1_655
Al0 Al1 2.787140 1_654
Al0 Al2 2.787145 1_555
Al0 Al2 2.787168 1_554
Al0 Nd1 3.172654 1_554
Al0 Nd1 3.172694 1_555
Al0 Nd0 3.267938 1_655
Al0 Nd0 3.267943 1_555
Al1 Al2 2.723910 1_455
Al1 Al5 2.723910 1_565
Al1 Al3 2.787122 1_566
Al1 Al3 2.787143 1_565
Al1 Nd0 3.172708 1_555
Al1 Nd0 3.172721 1_556
Al1 Nd1 3.267892 1_455
Al1 Nd1 3.267893 1_565
Al2 Al5 2.723894 1_665
Al2 Al4 2.787122 1_566
Al2 Al4 2.787143 1_565
Al2 Nd0 3.172673 1_555
Al2 Nd0 3.172687 1_556
Al2 Nd1 3.267935 1_555
Al2 Nd1 3.267937 1_565
Al3 Al4 2.723910 1_455
Al3 Al5 2.787149 1_555
Al3 Al5 2.787165 1_554
Al3 Nd1 3.172673 1_555
Al3 Nd1 3.172687 1_554
Al3 Nd0 3.267935 1_555
Al3 Nd0 3.267937 1_545
Al4 Al5 2.787132 1_655
Al4 Al5 2.787136 1_654
Al4 Nd1 3.172708 1_555
Al4 Nd1 3.172721 1_554
Al4 Nd0 3.267892 1_655
Al4 Nd0 3.267893 1_545
Al5 Nd0 3.172650 1_556
Al5 Nd0 3.172698 1_555
Al5 Nd1 3.267938 1_455
Al5 Nd1 3.267943 1_555
