# generated using pymatgen
data_CaEuV4O12
_symmetry_space_group_name_H-M   'P 1'
_cell_length_a   5.32947348
_cell_length_b   5.32947348
_cell_length_c   7.54065419
_cell_angle_alpha   90.00000000
_cell_angle_beta   90.00000000
_cell_angle_gamma   90.00000000
_symmetry_Int_Tables_number   1
_chemical_formula_structural   CaEuV4O12
_chemical_formula_sum   'Ca1 Eu1 V4 O12'
_cell_volume   214.17936945
_cell_formula_units_Z   1
loop_
 _symmetry_equiv_pos_site_id
 _symmetry_equiv_pos_as_xyz
  1  'x, y, z'
loop_
 _atom_site_type_symbol
 _atom_site_label
 _atom_site_symmetry_multiplicity
 _atom_site_fract_x
 _atom_site_fract_y
 _atom_site_fract_z
 _atom_site_occupancy
  Ca  Ca0  1  0.50000000  0.50000000  0.00000000  1
  Eu  Eu0  1  0.00000000  -0.00000000  0.50000000  1
  V  V0  1  0.00000000  0.50000000  0.75141684  1
  V  V1  1  -0.00000000  0.50000000  0.24858316  1
  V  V2  1  0.50000000  0.00000000  0.75141684  1
  V  V3  1  0.50000000  -0.00000000  0.24858316  1
  O  O0  1  0.24956911  0.24956911  0.25013095  1
  O  O1  1  0.24956911  0.24956911  0.74986905  1
  O  O2  1  0.75043089  0.75043089  0.74986905  1
  O  O3  1  0.75043089  0.75043089  0.25013095  1
  O  O4  1  0.75043089  0.24956911  0.74986905  1
  O  O5  1  0.75043089  0.24956911  0.25013095  1
  O  O6  1  0.24956911  0.75043089  0.74986905  1
  O  O7  1  0.24956911  0.75043089  0.25013095  1
  O  O8  1  0.00000000  0.50000000  0.50000000  1
  O  O9  1  -0.00000000  0.50000000  0.00000000  1
  O  O10  1  0.50000000  0.00000000  0.50000000  1
  O  O11  1  0.50000000  0.00000000  0.00000000  1
loop_
_geom_bond_atom_site_label_1
_geom_bond_atom_site_label_2
_geom_bond_distance
_geom_bond_site_symmetry_2
Ca0 O11 2.664737 1_555
Ca0 O11 2.664737 1_565
Ca0 O9 2.664737 1_555
Ca0 O9 2.664737 1_655
Ca0 O4 2.668375 1_554
Ca0 O1 2.668375 1_554
Ca0 O2 2.668375 1_554
Ca0 O6 2.668375 1_554
Ca0 O5 2.668375 1_555
Ca0 O3 2.668375 1_555
Ca0 O7 2.668375 1_555
Ca0 O0 2.668375 1_555
Eu0 O0 2.662387 1_555
Eu0 O7 2.662387 1_545
Eu0 O5 2.662387 1_455
Eu0 O2 2.662387 1_445
Eu0 O4 2.662387 1_455
Eu0 O1 2.662387 1_555
Eu0 O3 2.662387 1_445
Eu0 O6 2.662387 1_545
Eu0 O8 2.664737 1_545
Eu0 O10 2.664737 1_555
Eu0 O10 2.664737 1_455
Eu0 O8 2.664737 1_555
O0 V3 1.884292 1_555
O0 V1 1.884292 1_555
O1 V0 1.884292 1_555
O1 V2 1.884292 1_555
O2 V0 1.884292 1_655
O2 V2 1.884292 1_565
O3 V3 1.884292 1_565
O3 V1 1.884292 1_655
O4 V2 1.884292 1_555
O4 V0 1.884292 1_655
O5 V3 1.884292 1_555
O5 V1 1.884292 1_655
O6 V0 1.884292 1_555
O6 V2 1.884292 1_565
O7 V1 1.884292 1_555
O7 V3 1.884292 1_565
O8 V0 1.895847 1_555
O8 V1 1.895847 1_555
O9 V1 1.874480 1_555
O9 V0 1.874480 1_554
O10 V3 1.895847 1_555
O10 V2 1.895847 1_555
O11 V3 1.874480 1_555
O11 V2 1.874480 1_554
