# generated using pymatgen
data_Ba2YbV3O11
_symmetry_space_group_name_H-M   'P 1'
_cell_length_a   7.86633000
_cell_length_b   12.45032503
_cell_length_c   11.26054477
_cell_angle_alpha   103.13911133
_cell_angle_beta   90.00000000
_cell_angle_gamma   90.00000000
_symmetry_Int_Tables_number   1
_chemical_formula_structural   Ba2YbV3O11
_chemical_formula_sum   'Ba8 Yb4 V12 O44'
_cell_volume   1073.96814158
_cell_formula_units_Z   4
loop_
 _symmetry_equiv_pos_site_id
 _symmetry_equiv_pos_as_xyz
  1  'x, y, z'
loop_
 _atom_site_type_symbol
 _atom_site_label
 _atom_site_symmetry_multiplicity
 _atom_site_fract_x
 _atom_site_fract_y
 _atom_site_fract_z
 _atom_site_occupancy
  Ba  Ba0  1  0.27689000  0.77351000  0.94282800  1
  Ba  Ba1  1  0.72311000  0.22649000  0.05717200  1
  Ba  Ba2  1  0.77689000  0.22649000  0.55717200  1
  Ba  Ba3  1  0.22311000  0.77351000  0.44282800  1
  Ba  Ba4  1  0.74838000  0.55311600  0.88873100  1
  Ba  Ba5  1  0.25162000  0.44688400  0.11126900  1
  Ba  Ba6  1  0.24838000  0.44688400  0.61126900  1
  Ba  Ba7  1  0.75162000  0.55311600  0.38873100  1
  Yb  Yb0  1  0.50024300  0.99728900  0.71815100  1
  Yb  Yb1  1  0.49975700  0.00271100  0.28184900  1
  Yb  Yb2  1  0.00024300  0.00271100  0.78184900  1
  Yb  Yb3  1  0.99975700  0.99728900  0.21815100  1
  V  V0  1  0.75690300  0.91084300  0.97749400  1
  V  V1  1  0.24309700  0.08915700  0.02250600  1
  V  V2  1  0.25690300  0.08915700  0.52250600  1
  V  V3  1  0.74309700  0.91084300  0.47749400  1
  V  V4  1  0.52034700  0.68371100  0.67306600  1
  V  V5  1  0.47965300  0.31628900  0.32693400  1
  V  V6  1  0.02034700  0.31628900  0.82693400  1
  V  V7  1  0.97965300  0.68371100  0.17306600  1
  V  V8  1  0.98086100  0.68760100  0.67088500  1
  V  V9  1  0.01913900  0.31239900  0.32911500  1
  V  V10  1  0.48086100  0.31239900  0.82911500  1
  V  V11  1  0.51913900  0.68760100  0.17088500  1
  O  O0  1  0.44413000  0.81526300  0.71705700  1
  O  O1  1  0.55587000  0.18473700  0.28294300  1
  O  O2  1  0.94413000  0.18473700  0.78294300  1
  O  O3  1  0.05587000  0.81526300  0.21705700  1
  O  O4  1  0.55208800  0.17974400  0.80765100  1
  O  O5  1  0.44791200  0.82025600  0.19234900  1
  O  O6  1  0.05208800  0.82025600  0.69234900  1
  O  O7  1  0.94791200  0.17974400  0.30765100  1
  O  O8  1  0.75077100  0.66568200  0.66751700  1
  O  O9  1  0.24922900  0.33431800  0.33248300  1
  O  O10  1  0.25077100  0.33431800  0.83248300  1
  O  O11  1  0.74922900  0.66568200  0.16751700  1
  O  O12  1  0.94611200  0.37593200  0.96884500  1
  O  O13  1  0.05388800  0.62406800  0.03115500  1
  O  O14  1  0.44611200  0.62406800  0.53115500  1
  O  O15  1  0.55388800  0.37593200  0.46884500  1
  O  O16  1  0.94098700  0.39239100  0.73027400  1
  O  O17  1  0.05901300  0.60760900  0.26972600  1
  O  O18  1  0.44098700  0.60760900  0.76972600  1
  O  O19  1  0.55901300  0.39239100  0.23027400  1
  O  O20  1  0.78427300  0.98993900  0.62326300  1
  O  O21  1  0.21572700  0.01006100  0.37673700  1
  O  O22  1  0.28427300  0.01006100  0.87673700  1
  O  O23  1  0.71572700  0.98993900  0.12326300  1
  O  O24  1  0.97807300  0.88875700  0.97561700  1
  O  O25  1  0.02192700  0.11124300  0.02438300  1
  O  O26  1  0.47807300  0.11124300  0.52438300  1
  O  O27  1  0.52192700  0.88875700  0.47561700  1
  O  O28  1  0.64665800  0.78803300  0.94796800  1
  O  O29  1  0.35334200  0.21196700  0.05203200  1
  O  O30  1  0.14665800  0.21196700  0.55203200  1
  O  O31  1  0.85334200  0.78803300  0.44796800  1
  O  O32  1  0.71925500  0.98595800  0.86701400  1
  O  O33  1  0.28074500  0.01404200  0.13298600  1
  O  O34  1  0.21925500  0.01404200  0.63298600  1
  O  O35  1  0.78074500  0.98595800  0.36701400  1
  O  O36  1  0.55805200  0.36983200  0.71638800  1
  O  O37  1  0.44194800  0.63016800  0.28361200  1
  O  O38  1  0.05805200  0.63016800  0.78361200  1
  O  O39  1  0.94194800  0.36983200  0.21638800  1
  O  O40  1  0.56345700  0.38763200  0.96295000  1
  O  O41  1  0.43654300  0.61236800  0.03705000  1
  O  O42  1  0.06345700  0.61236800  0.53705000  1
  O  O43  1  0.93654300  0.38763200  0.46295000  1
loop_
_geom_bond_atom_site_label_1
_geom_bond_atom_site_label_2
_geom_bond_distance
_geom_bond_site_symmetry_2
Ba0 O24 2.734883 1_455
Ba0 O41 2.774132 1_556
Ba0 O18 2.810996 1_555
Ba0 O38 2.812130 1_555
Ba0 O13 2.893037 1_556
Ba0 O28 2.914090 1_555
Ba0 O0 3.010829 1_555
Ba0 O5 3.049558 1_556
Ba0 O22 3.198053 1_565
Ba0 O33 3.261735 1_566
Ba1 O25 2.734883 1_655
Ba1 O40 2.774132 1_554
Ba1 O19 2.810996 1_555
Ba1 O39 2.812130 1_555
Ba1 O12 2.893037 1_554
Ba1 O29 2.914090 1_555
Ba1 O1 3.010829 1_555
Ba1 O4 3.049558 1_554
Ba1 O23 3.198053 1_545
Ba1 O32 3.261735 1_544
Ba2 O26 2.734883 1_555
Ba2 O43 2.774132 1_555
Ba2 O16 2.810996 1_555
Ba2 O36 2.812130 1_555
Ba2 O15 2.893037 1_555
Ba2 O30 2.914090 1_655
Ba2 O2 3.010829 1_555
Ba2 O7 3.049558 1_555
Ba2 O20 3.198053 1_545
Ba2 O35 3.261735 1_545
Ba3 O27 2.734883 1_555
Ba3 O42 2.774132 1_555
Ba3 O17 2.810996 1_555
Ba3 O37 2.812130 1_555
Ba3 O14 2.893037 1_555
Ba3 O31 2.914090 1_455
Ba3 O3 3.010829 1_555
Ba3 O6 3.049558 1_555
Ba3 O21 3.198053 1_565
Ba3 O34 3.261735 1_565
Ba4 O40 2.800414 1_555
Ba4 O16 2.803633 1_555
Ba4 O13 2.912704 1_656
Ba4 O18 2.918286 1_555
Ba4 O28 2.958492 1_555
Ba4 O38 2.961706 1_655
Ba4 O41 2.964920 1_556
Ba4 O12 3.000728 1_555
Ba4 O36 3.033432 1_555
Ba4 O8 3.123572 1_555
Ba4 O11 3.133539 1_556
Ba5 O41 2.800414 1_555
Ba5 O17 2.803633 1_555
Ba5 O12 2.912704 1_454
Ba5 O19 2.918286 1_555
Ba5 O29 2.958492 1_555
Ba5 O39 2.961706 1_455
Ba5 O40 2.964920 1_554
Ba5 O13 3.000728 1_555
Ba5 O37 3.033432 1_555
Ba5 O9 3.123572 1_555
Ba5 O10 3.133539 1_554
Ba6 O42 2.800414 1_555
Ba6 O18 2.803633 1_555
Ba6 O15 2.912704 1_555
Ba6 O16 2.918286 1_455
Ba6 O30 2.958492 1_555
Ba6 O36 2.961706 1_555
Ba6 O43 2.964920 1_455
Ba6 O14 3.000728 1_555
Ba6 O38 3.033432 1_555
Ba6 O10 3.123572 1_555
Ba6 O9 3.133539 1_555
Ba7 O43 2.800414 1_555
Ba7 O19 2.803633 1_555
Ba7 O14 2.912704 1_555
Ba7 O17 2.918286 1_655
Ba7 O31 2.958492 1_555
Ba7 O37 2.961706 1_555
Ba7 O42 2.964920 1_655
Ba7 O15 3.000728 1_555
Ba7 O39 3.033432 1_555
Ba7 O11 3.123572 1_555
Ba7 O8 3.133539 1_555
O0 V4 1.708386 1_555
O0 Yb0 2.306151 1_555
O1 V5 1.708386 1_555
O1 Yb1 2.306151 1_555
O2 V6 1.708386 1_655
O2 Yb2 2.306151 1_655
O3 V7 1.708386 1_455
O3 Yb3 2.306151 1_455
O4 V10 1.708403 1_555
O4 Yb0 2.302492 1_545
O5 V11 1.708403 1_555
O5 Yb1 2.302492 1_565
O6 V8 1.708403 1_455
O6 Yb2 2.302492 1_565
O7 V9 1.708403 1_655
O7 Yb3 2.302492 1_545
O8 V4 1.825760 1_555
O8 V8 1.829529 1_555
O9 V5 1.825760 1_555
O9 V9 1.829529 1_555
O10 V6 1.825760 1_555
O10 V10 1.829529 1_555
O11 V7 1.825760 1_555
O11 V11 1.829529 1_555
O12 V6 1.704855 1_655
O13 V7 1.704855 1_455
O14 V4 1.704855 1_555
O15 V5 1.704855 1_555
O16 V6 1.714944 1_655
O17 V7 1.714944 1_455
O18 V4 1.714944 1_555
O19 V5 1.714944 1_555
O20 V3 1.741873 1_555
O20 Yb2 2.443639 1_665
O20 Yb0 2.469326 1_555
O21 V2 1.741873 1_555
O21 Yb3 2.443639 1_445
O21 Yb1 2.469326 1_555
O22 V1 1.741873 1_556
O22 Yb0 2.443639 1_545
O22 Yb2 2.469326 1_555
O23 V0 1.741873 1_554
O23 Yb1 2.443639 1_565
O23 Yb3 2.469326 1_555
O24 V0 1.760769 1_555
O24 Yb3 2.763322 1_556
O24 Yb2 2.865575 1_665
O25 V1 1.760769 1_555
O25 Yb2 2.763322 1_554
O25 Yb3 2.865575 1_445
O26 V2 1.760769 1_555
O26 Yb1 2.763322 1_555
O26 Yb0 2.865575 1_545
O27 V3 1.760769 1_555
O27 Yb0 2.763322 1_555
O27 Yb1 2.865575 1_565
O28 V0 1.723199 1_555
O29 V1 1.723199 1_555
O30 V2 1.723199 1_555
O31 V3 1.723199 1_555
O32 V0 1.743261 1_555
O32 Yb0 2.430110 1_555
O32 Yb2 2.437162 1_665
O33 V1 1.743261 1_555
O33 Yb1 2.430110 1_555
O33 Yb3 2.437162 1_445
O34 V2 1.743261 1_555
O34 Yb2 2.430110 1_555
O34 Yb0 2.437162 1_545
O35 V3 1.743261 1_555
O35 Yb3 2.430110 1_555
O35 Yb1 2.437162 1_565
O36 V10 1.704102 1_555
O37 V11 1.704102 1_555
O38 V8 1.704102 1_455
O39 V9 1.704102 1_655
O40 V10 1.711418 1_555
O41 V11 1.711418 1_555
O42 V8 1.711418 1_455
O43 V9 1.711418 1_655
