# generated using pymatgen
data_Mg6CoCu
_symmetry_space_group_name_H-M   'P 1'
_cell_length_a   4.54724300
_cell_length_b   6.77005000
_cell_length_c   9.47571100
_cell_angle_alpha   90.00000000
_cell_angle_beta   90.00000000
_cell_angle_gamma   90.00000000
_symmetry_Int_Tables_number   1
_chemical_formula_structural   Mg6CoCu
_chemical_formula_sum   'Mg12 Co2 Cu2'
_cell_volume   291.71035510
_cell_formula_units_Z   2
loop_
 _symmetry_equiv_pos_site_id
 _symmetry_equiv_pos_as_xyz
  1  'x, y, z'
loop_
 _atom_site_type_symbol
 _atom_site_label
 _atom_site_symmetry_multiplicity
 _atom_site_fract_x
 _atom_site_fract_y
 _atom_site_fract_z
 _atom_site_occupancy
  Mg  Mg0  1  0.00000000  0.28347100  0.13682500  1
  Mg  Mg1  1  0.00000000  0.71652900  0.13682500  1
  Mg  Mg2  1  0.00000000  0.50000000  0.88329700  1
  Mg  Mg3  1  0.50000000  0.22067700  0.86120000  1
  Mg  Mg4  1  0.50000000  0.77932300  0.86120000  1
  Mg  Mg5  1  0.50000000  0.50000000  0.62013500  1
  Mg  Mg6  1  0.00000000  0.78347100  0.63682500  1
  Mg  Mg7  1  0.00000000  0.21652900  0.63682500  1
  Mg  Mg8  1  0.00000000  0.00000000  0.38329700  1
  Mg  Mg9  1  0.50000000  0.72067700  0.36120000  1
  Mg  Mg10  1  0.50000000  0.27932300  0.36120000  1
  Mg  Mg11  1  0.50000000  0.00000000  0.12013500  1
  Co  Co0  1  0.50000000  0.50000000  0.09196600  1
  Co  Co1  1  0.50000000  0.00000000  0.59196600  1
  Cu  Cu0  1  0.00000000  0.50000000  0.40855100  1
  Cu  Cu1  1  0.00000000  0.00000000  0.90855100  1
loop_
_geom_bond_atom_site_label_1
_geom_bond_atom_site_label_2
_geom_bond_distance
_geom_bond_site_symmetry_2
Mg0 Mg2 2.814289 1_554
Mg0 Mg1 2.931824 1_555
Mg0 Mg11 2.979490 1_455
Mg0 Mg11 2.979490 1_555
Mg0 Mg8 3.022837 1_555
Mg0 Mg10 3.112957 1_555
Mg0 Mg10 3.112957 1_455
Mg1 Mg2 2.814289 1_554
Mg1 Mg11 2.979490 1_565
Mg1 Mg11 2.979490 1_465
Mg1 Mg8 3.022837 1_565
Mg1 Mg9 3.112957 1_455
Mg1 Mg9 3.112957 1_555
Mg2 Mg4 2.964657 1_555
Mg2 Mg4 2.964657 1_455
Mg2 Mg3 2.964657 1_555
Mg2 Mg3 2.964657 1_455
Mg2 Mg6 3.022837 1_555
Mg2 Mg7 3.022837 1_555
Mg2 Mg5 3.374556 1_455
Mg2 Mg5 3.374556 1_555
Mg3 Mg5 2.965443 1_555
Mg3 Mg4 2.987989 1_545
Mg3 Mg7 3.112957 1_555
Mg3 Mg7 3.112957 1_655
Mg4 Mg5 2.965443 1_555
Mg4 Mg6 3.112957 1_655
Mg4 Mg6 3.112957 1_555
Mg5 Mg9 2.872654 1_555
Mg5 Mg6 2.979490 1_655
Mg5 Mg6 2.979490 1_555
Mg5 Mg7 2.979490 1_555
Mg5 Mg7 2.979490 1_655
Mg6 Mg8 2.814289 1_565
Mg6 Mg7 2.931824 1_565
Mg7 Mg8 2.814289 1_555
Mg8 Mg9 2.964657 1_545
Mg8 Mg9 2.964657 1_445
Mg10 Mg5 2.872654 1_555
Mg10 Mg8 2.964657 1_655
Mg10 Mg8 2.964657 1_555
Mg10 Mg11 2.965443 1_555
Mg10 Mg9 2.987989 1_555
Mg11 Mg3 2.872654 1_554
Mg11 Mg4 2.872654 1_544
Mg11 Mg9 2.965443 1_545
Mg11 Mg8 3.374556 1_555
Mg11 Mg8 3.374556 1_655
Co0 Mg1 2.738419 1_655
Co0 Mg0 2.738419 1_555
Co0 Mg0 2.738419 1_655
Co0 Mg1 2.738419 1_555
Co0 Mg4 2.890939 1_554
Co0 Mg3 2.890939 1_554
Co0 Mg9 2.956443 1_555
Co0 Mg10 2.956443 1_555
Co0 Mg2 3.013141 1_654
Co0 Mg2 3.013141 1_554
Co0 Mg11 3.395533 1_565
Co0 Mg11 3.395533 1_555
Co1 Mg7 2.738419 1_555
Co1 Mg7 2.738419 1_655
Co1 Mg6 2.738419 1_645
Co1 Mg6 2.738419 1_545
Co1 Mg9 2.890939 1_545
Co1 Mg10 2.890939 1_555
Co1 Mg3 2.956443 1_555
Co1 Mg4 2.956443 1_545
Co1 Mg8 3.013141 1_655
Co1 Mg8 3.013141 1_555
Co1 Mg5 3.395533 1_555
Co1 Mg5 3.395533 1_545
Cu0 Mg9 2.757298 1_455
Cu0 Mg9 2.757298 1_555
Cu0 Mg10 2.757298 1_455
Cu0 Mg10 2.757298 1_555
Cu0 Mg6 2.891680 1_555
Cu0 Mg7 2.891680 1_555
Cu0 Mg1 2.962850 1_555
Cu0 Mg0 2.962850 1_555
Cu0 Mg5 3.031339 1_455
Cu0 Mg5 3.031339 1_555
Cu1 Mg3 2.757298 1_555
Cu1 Mg3 2.757298 1_455
Cu1 Mg4 2.757298 1_545
Cu1 Mg4 2.757298 1_445
Cu1 Mg1 2.891680 1_546
Cu1 Mg0 2.891680 1_556
Cu1 Mg7 2.962850 1_555
Cu1 Mg6 2.962850 1_545
Cu1 Mg11 3.031339 1_556
Cu1 Mg11 3.031339 1_456
