# generated using pymatgen
data_InHO2
_symmetry_space_group_name_H-M   'P 1'
_cell_length_a   5.41350400
_cell_length_b   5.41350400
_cell_length_c   5.41350400
_cell_angle_alpha   90.00000000
_cell_angle_beta   90.00000000
_cell_angle_gamma   90.00000000
_symmetry_Int_Tables_number   1
_chemical_formula_structural   InHO2
_chemical_formula_sum   'In4 H4 O8'
_cell_volume   158.64828658
_cell_formula_units_Z   4
loop_
 _symmetry_equiv_pos_site_id
 _symmetry_equiv_pos_as_xyz
  1  'x, y, z'
loop_
 _atom_site_type_symbol
 _atom_site_label
 _atom_site_symmetry_multiplicity
 _atom_site_fract_x
 _atom_site_fract_y
 _atom_site_fract_z
 _atom_site_occupancy
  In  In0  1  0.49037200  0.99037200  0.50962800  1
  In  In1  1  0.99037200  0.50962800  0.49037200  1
  In  In2  1  0.50962800  0.49037200  0.99037200  1
  In  In3  1  0.00962800  0.00962800  0.00962800  1
  H  H0  1  0.02239400  0.52239400  0.97760600  1
  H  H1  1  0.52239400  0.97760600  0.02239400  1
  H  H2  1  0.97760600  0.02239400  0.52239400  1
  H  H3  1  0.47760600  0.47760600  0.47760600  1
  O  O0  1  0.13535600  0.63535600  0.86464400  1
  O  O1  1  0.63535600  0.86464400  0.13535600  1
  O  O2  1  0.86464400  0.13535600  0.63535600  1
  O  O3  1  0.36464400  0.36464400  0.36464400  1
  O  O4  1  0.86708600  0.36708600  0.13291400  1
  O  O5  1  0.36708600  0.13291400  0.86708600  1
  O  O6  1  0.13291400  0.86708600  0.36708600  1
  O  O7  1  0.63291400  0.63291400  0.63291400  1
loop_
_geom_bond_atom_site_label_1
_geom_bond_atom_site_label_2
_geom_bond_distance
_geom_bond_site_symmetry_2
In0 O7 2.187577 1_555
In0 O5 2.187577 1_565
In0 O6 2.187577 1_555
In0 O1 2.276939 1_555
In0 O2 2.276939 1_565
In0 O3 2.276939 1_565
In1 O7 2.187577 1_555
In1 O6 2.187577 1_655
In1 O4 2.187577 1_555
In1 O2 2.276939 1_555
In1 O0 2.276939 1_655
In1 O3 2.276939 1_655
In2 O7 2.187577 1_555
In2 O4 2.187577 1_556
In2 O5 2.187577 1_555
In2 O0 2.276939 1_555
In2 O1 2.276939 1_556
In2 O3 2.276939 1_556
In3 O6 2.187577 1_545
In3 O5 2.187577 1_554
In3 O4 2.187577 1_455
In3 O2 2.276939 1_454
In3 O1 2.276939 1_445
In3 O0 2.276939 1_544
H0 O0 1.059184 1_555
H0 O4 1.456240 1_456
H1 O1 1.059184 1_555
H1 O5 1.456240 1_564
H2 O2 1.059184 1_555
H2 O6 1.456240 1_645
H3 O3 1.059184 1_555
H3 O7 1.456240 1_555
