# generated using pymatgen
data_Hf(Nb2B3)4
_symmetry_space_group_name_H-M   'P 1'
_cell_length_a   21.37396745
_cell_length_b   21.37396745
_cell_length_c   21.37396745
_cell_angle_alpha   171.52129685
_cell_angle_beta   171.00641661
_cell_angle_gamma   12.37213684
_symmetry_Int_Tables_number   1
_chemical_formula_structural   Hf(Nb2B3)4
_chemical_formula_sum   'Hf1 Nb8 B12'
_cell_volume   225.05769931
_cell_formula_units_Z   1
loop_
 _symmetry_equiv_pos_site_id
 _symmetry_equiv_pos_as_xyz
  1  'x, y, z'
loop_
 _atom_site_type_symbol
 _atom_site_label
 _atom_site_symmetry_multiplicity
 _atom_site_fract_x
 _atom_site_fract_y
 _atom_site_fract_z
 _atom_site_occupancy
  Hf  Hf0  1  0.00000000  0.50000000  0.50000000  1
  Nb  Nb0  1  0.06213400  0.06213400  0.00000000  1
  Nb  Nb1  1  0.72822300  0.72822300  0.00000000  1
  Nb  Nb2  1  0.39475200  0.39475200  0.00000000  1
  Nb  Nb3  1  0.60524800  0.60524800  0.00000000  1
  Nb  Nb4  1  0.27177700  0.27177700  0.00000000  1
  Nb  Nb5  1  0.93786600  0.93786600  0.00000000  1
  Nb  Nb6  1  0.66673000  0.16673000  0.50000000  1
  Nb  Nb7  1  0.33327000  0.83327000  0.50000000  1
  B  B0  1  0.14528800  0.64528800  0.50000000  1
  B  B1  1  0.81177300  0.31177300  0.50000000  1
  B  B2  1  0.47831600  0.97831600  0.50000000  1
  B  B3  1  0.52168400  0.02168400  0.50000000  1
  B  B4  1  0.18822700  0.68822700  0.50000000  1
  B  B5  1  0.85471200  0.35471200  0.50000000  1
  B  B6  1  0.12273300  0.12273300  0.00000000  1
  B  B7  1  0.78924700  0.78924700  0.00000000  1
  B  B8  1  0.45546900  0.45546900  0.00000000  1
  B  B9  1  0.54453100  0.54453100  0.00000000  1
  B  B10  1  0.21075300  0.21075300  0.00000000  1
  B  B11  1  0.87726700  0.87726700  0.00000000  1
loop_
_geom_bond_atom_site_label_1
_geom_bond_atom_site_label_2
_geom_bond_distance
_geom_bond_site_symmetry_2
B0 B4 1.824866 1_555
B0 B6 1.848065 1_555
B0 B6 1.848065 1_566
B0 Nb3 2.388288 1_556
B0 Nb3 2.388288 1_455
B0 Nb6 2.476927 1_555
B0 Nb6 2.476927 1_454
B0 Nb6 2.476927 1_566
B0 Nb6 2.476927 1_465
B1 B5 1.824866 1_555
B1 B7 1.847426 1_556
B1 B7 1.847426 1_545
B1 Nb4 2.386956 1_555
B1 Nb4 2.386956 1_656
B1 Nb7 2.477788 1_555
B1 Nb7 2.477788 1_544
B1 Nb7 2.477788 1_645
B1 Nb7 2.477788 1_656
B2 B3 1.843098 1_565
B2 B8 1.854532 1_555
B2 B8 1.854532 1_566
B2 Nb5 2.400734 1_455
B2 Nb5 2.400734 1_556
B2 Hf0 2.480730 1_554
B2 Hf0 2.480730 1_655
B2 Hf0 2.480730 1_666
B2 Hf0 2.480730 1_565
B3 B9 1.854532 1_556
B3 B9 1.854532 1_545
B3 Nb0 2.400734 1_656
B3 Nb0 2.400734 1_555
B3 Hf0 2.480730 1_555
B3 Hf0 2.480730 1_544
B3 Hf0 2.480730 1_656
B3 Hf0 2.480730 1_645
B4 Nb1 2.386956 1_455
B4 Nb1 2.386956 1_556
B4 Nb6 2.477788 1_465
B4 Nb6 2.477788 1_566
B4 Nb6 2.477788 1_555
B4 Nb6 2.477788 1_454
B5 Nb2 2.388288 1_555
B5 Nb2 2.388288 1_656
B5 Nb7 2.476927 1_555
B5 Nb7 2.476927 1_656
B5 Nb7 2.476927 1_544
B5 Nb7 2.476927 1_645
B6 Nb3 2.420115 1_455
B6 Nb3 2.420115 1_444
B6 Nb3 2.420115 1_545
B6 Nb3 2.420115 1_556
B6 Nb6 2.510883 1_555
B6 Nb6 2.510883 1_454
B6 Nb0 2.575398 1_555
B7 Nb4 2.419920 1_666
B7 Nb4 2.419920 1_554
B7 Nb4 2.419920 1_565
B7 Nb4 2.419920 1_655
B7 Nb7 2.511705 1_655
B7 Nb7 2.511705 1_554
B7 Nb1 2.593460 1_555
B8 Nb5 2.421660 1_455
B8 Nb5 2.421660 1_545
B8 Nb5 2.421660 1_556
B8 Nb5 2.421660 1_444
B8 Hf0 2.527828 1_554
B8 Hf0 2.527828 1_655
B8 Nb2 2.580413 1_555
B9 Nb0 2.421660 1_565
B9 Nb0 2.421660 1_666
B9 Nb0 2.421660 1_655
B9 Nb0 2.421660 1_554
B9 Hf0 2.527828 1_554
B9 Hf0 2.527828 1_655
B9 Nb3 2.580413 1_555
B10 B4 1.847426 1_555
B10 B4 1.847426 1_544
B10 Nb1 2.419920 1_455
B10 Nb1 2.419920 1_545
B10 Nb1 2.419920 1_556
B10 Nb1 2.419920 1_444
B10 Nb6 2.511705 1_454
B10 Nb6 2.511705 1_555
B10 Nb4 2.593460 1_555
B11 B5 1.848065 1_565
B11 B5 1.848065 1_554
B11 Nb2 2.420115 1_554
B11 Nb2 2.420115 1_666
B11 Nb2 2.420115 1_565
B11 Nb2 2.420115 1_655
B11 Nb7 2.510883 1_655
B11 Nb7 2.510883 1_554
B11 Nb5 2.575398 1_555
