# generated using pymatgen
data_Co3S
_symmetry_space_group_name_H-M   'P 1'
_cell_length_a   5.15444448
_cell_length_b   5.15444448
_cell_length_c   3.92303200
_cell_angle_alpha   90.00000000
_cell_angle_beta   90.00000000
_cell_angle_gamma   120.00000615
_symmetry_Int_Tables_number   1
_chemical_formula_structural   Co3S
_chemical_formula_sum   'Co6 S2'
_cell_volume   90.26433511
_cell_formula_units_Z   2
loop_
 _symmetry_equiv_pos_site_id
 _symmetry_equiv_pos_as_xyz
  1  'x, y, z'
loop_
 _atom_site_type_symbol
 _atom_site_label
 _atom_site_symmetry_multiplicity
 _atom_site_fract_x
 _atom_site_fract_y
 _atom_site_fract_z
 _atom_site_occupancy
  Co  Co0  1  0.16785600  0.33571200  0.25000000  1
  Co  Co1  1  0.66428800  0.83214400  0.25000000  1
  Co  Co2  1  0.16785600  0.83214400  0.25000000  1
  Co  Co3  1  0.83214400  0.66428800  0.75000000  1
  Co  Co4  1  0.33571200  0.16785600  0.75000000  1
  Co  Co5  1  0.83214400  0.16785600  0.75000000  1
  S  S0  1  0.33333300  0.66666700  0.75000000  1
  S  S1  1  0.66666700  0.33333300  0.25000000  1
loop_
_geom_bond_atom_site_label_1
_geom_bond_atom_site_label_2
_geom_bond_distance
_geom_bond_site_symmetry_2
Co0 S0 2.455624 1_554
Co0 S0 2.455624 1_555
Co0 Co5 2.468457 1_454
Co0 Co5 2.468457 1_455
Co0 Co4 2.468457 1_555
Co0 Co4 2.468457 1_554
Co0 Co1 2.558831 1_555
Co0 Co2 2.558831 1_555
Co0 S1 2.577242 1_455
Co0 S1 2.577247 1_555
Co0 Co1 2.595613 1_445
Co0 Co2 2.595613 1_545
Co1 S0 2.455624 1_554
Co1 S0 2.455624 1_555
Co1 Co5 2.468457 1_565
Co1 Co5 2.468457 1_564
Co1 Co3 2.468457 1_554
Co1 Co3 2.468457 1_555
Co1 Co2 2.558831 1_555
Co1 S1 2.577242 1_565
Co1 S1 2.577247 1_555
Co1 Co2 2.595613 1_655
Co2 S0 2.455621 1_554
Co2 S0 2.455621 1_555
Co2 Co3 2.468457 1_455
Co2 Co4 2.468457 1_565
Co2 Co4 2.468457 1_564
Co2 Co3 2.468457 1_454
Co2 S1 2.577244 1_455
Co2 S1 2.577244 1_565
Co3 S1 2.455624 1_556
Co3 S1 2.455624 1_555
Co3 Co4 2.558831 1_555
Co3 Co5 2.558831 1_555
Co3 S0 2.577242 1_655
Co3 S0 2.577247 1_555
Co3 Co4 2.595613 1_665
Co3 Co5 2.595613 1_565
Co4 S1 2.455624 1_556
Co4 S1 2.455624 1_555
Co4 Co5 2.558831 1_555
Co4 S0 2.577242 1_545
Co4 S0 2.577247 1_555
Co4 Co5 2.595613 1_455
Co5 S1 2.455621 1_556
Co5 S1 2.455621 1_555
Co5 S0 2.577244 1_545
Co5 S0 2.577244 1_655
