# generated using pymatgen
data_DyPPt
_symmetry_space_group_name_H-M   'P 1'
_cell_length_a   4.10721232
_cell_length_b   4.10721206
_cell_length_c   3.87949356
_cell_angle_alpha   90.00000000
_cell_angle_beta   90.00000000
_cell_angle_gamma   119.99999401
_symmetry_Int_Tables_number   1
_chemical_formula_structural   DyPPt
_chemical_formula_sum   'Dy1 P1 Pt1'
_cell_volume   56.67610211
_cell_formula_units_Z   1
loop_
 _symmetry_equiv_pos_site_id
 _symmetry_equiv_pos_as_xyz
  1  'x, y, z'
loop_
 _atom_site_type_symbol
 _atom_site_label
 _atom_site_symmetry_multiplicity
 _atom_site_fract_x
 _atom_site_fract_y
 _atom_site_fract_z
 _atom_site_occupancy
  Dy  Dy0  1  0.00000000  -0.00000000  -0.00000000  1
  P  P0  1  0.66666700  0.33333300  0.50000000  1
  Pt  Pt0  1  0.33333300  0.66666700  0.50000000  1
loop_
_geom_bond_atom_site_label_1
_geom_bond_atom_site_label_2
_geom_bond_distance
_geom_bond_site_symmetry_2
Dy0 Pt0 3.063604 1_544
Dy0 Pt0 3.063604 1_545
Dy0 P0 3.063604 1_455
Dy0 P0 3.063604 1_454
Dy0 Pt0 3.063607 1_555
Dy0 Pt0 3.063607 1_554
Dy0 P0 3.063607 1_444
Dy0 P0 3.063607 1_445
Dy0 P0 3.063607 1_554
Dy0 P0 3.063607 1_555
Dy0 Pt0 3.063607 1_445
Dy0 Pt0 3.063607 1_444
P0 Pt0 2.371298 1_545
P0 Pt0 2.371298 1_655
P0 Pt0 2.371305 1_555
