# generated using pymatgen
data_Ce3Ge13Os4
_symmetry_space_group_name_H-M   'P 1'
_cell_length_a   9.09043808
_cell_length_b   9.09043808
_cell_length_c   9.09043808
_cell_angle_alpha   90.00000000
_cell_angle_beta   90.00000000
_cell_angle_gamma   90.00000000
_symmetry_Int_Tables_number   1
_chemical_formula_structural   Ce3Ge13Os4
_chemical_formula_sum   'Ce6 Ge26 Os8'
_cell_volume   751.19802739
_cell_formula_units_Z   2
loop_
 _symmetry_equiv_pos_site_id
 _symmetry_equiv_pos_as_xyz
  1  'x, y, z'
loop_
 _atom_site_type_symbol
 _atom_site_label
 _atom_site_symmetry_multiplicity
 _atom_site_fract_x
 _atom_site_fract_y
 _atom_site_fract_z
 _atom_site_occupancy
  Ce  Ce0  1  0.00000000  0.50000000  0.75000000  1
  Ce  Ce1  1  0.50000000  0.25000000  -0.00000000  1
  Ce  Ce2  1  0.75000000  -0.00000000  0.50000000  1
  Ce  Ce3  1  0.00000000  0.50000000  0.25000000  1
  Ce  Ce4  1  0.50000000  0.75000000  -0.00000000  1
  Ce  Ce5  1  0.25000000  -0.00000000  0.50000000  1
  Ge  Ge0  1  0.50000000  0.50000000  0.50000000  1
  Ge  Ge1  1  0.00000000  -0.00000000  -0.00000000  1
  Ge  Ge2  1  0.79636542  0.35456057  0.50000000  1
  Ge  Ge3  1  0.64543943  0.50000000  0.79636542  1
  Ge  Ge4  1  0.50000000  0.20363458  0.64543943  1
  Ge  Ge5  1  0.20363458  0.64543943  0.50000000  1
  Ge  Ge6  1  0.35456057  0.50000000  0.20363458  1
  Ge  Ge7  1  0.50000000  0.79636542  0.35456057  1
  Ge  Ge8  1  0.79636542  0.64543943  0.50000000  1
  Ge  Ge9  1  0.64543943  0.50000000  0.20363458  1
  Ge  Ge10  1  0.20363458  0.35456057  0.50000000  1
  Ge  Ge11  1  0.35456057  0.50000000  0.79636542  1
  Ge  Ge12  1  0.50000000  0.79636542  0.64543943  1
  Ge  Ge13  1  0.50000000  0.20363458  0.35456057  1
  Ge  Ge14  1  0.29636542  -0.00000000  0.85456057  1
  Ge  Ge15  1  0.14543943  0.29636542  -0.00000000  1
  Ge  Ge16  1  0.00000000  0.14543943  0.70363458  1
  Ge  Ge17  1  0.70363458  -0.00000000  0.14543943  1
  Ge  Ge18  1  0.85456057  0.70363458  -0.00000000  1
  Ge  Ge19  1  0.00000000  0.85456057  0.29636542  1
  Ge  Ge20  1  0.29636542  -0.00000000  0.14543943  1
  Ge  Ge21  1  0.14543943  0.70363458  -0.00000000  1
  Ge  Ge22  1  0.70363458  -0.00000000  0.85456057  1
  Ge  Ge23  1  0.85456057  0.29636542  -0.00000000  1
  Ge  Ge24  1  0.00000000  0.14543943  0.29636542  1
  Ge  Ge25  1  0.00000000  0.85456057  0.70363458  1
  Os  Os0  1  0.75000000  0.25000000  0.75000000  1
  Os  Os1  1  0.25000000  0.75000000  0.25000000  1
  Os  Os2  1  0.75000000  0.75000000  0.25000000  1
  Os  Os3  1  0.25000000  0.25000000  0.75000000  1
  Os  Os4  1  0.25000000  0.75000000  0.75000000  1
  Os  Os5  1  0.75000000  0.25000000  0.25000000  1
  Os  Os6  1  0.25000000  0.25000000  0.25000000  1
  Os  Os7  1  0.75000000  0.75000000  0.75000000  1
loop_
_geom_bond_atom_site_label_1
_geom_bond_atom_site_label_2
_geom_bond_distance
_geom_bond_site_symmetry_2
Ce0 Os0 3.213955 1_455
Ce0 Os4 3.213955 1_555
Ce0 Os7 3.213955 1_455
Ce0 Os3 3.213955 1_555
Ce0 Ge2 3.215493 1_455
Ce0 Ge18 3.215493 1_456
Ce0 Ge15 3.215493 1_556
Ce0 Ge8 3.215493 1_455
Ce0 Ge5 3.215493 1_555
Ce0 Ge21 3.215493 1_556
Ce0 Ge23 3.215493 1_456
Ce0 Ge10 3.215493 1_555
Ce0 Ge16 3.250552 1_555
Ce0 Ge11 3.250552 1_555
Ce0 Ge3 3.250552 1_455
Ce0 Ge25 3.250552 1_555
Ce1 Os3 3.213955 1_554
Ce1 Os5 3.213955 1_555
Ce1 Os0 3.213955 1_554
Ce1 Os6 3.213955 1_555
Ce1 Ge9 3.215493 1_555
Ce1 Ge11 3.215493 1_554
Ce1 Ge17 3.215493 1_555
Ce1 Ge22 3.215493 1_554
Ce1 Ge3 3.215493 1_554
Ce1 Ge20 3.215493 1_555
Ce1 Ge6 3.215493 1_555
Ce1 Ge14 3.215493 1_554
Ce1 Ge4 3.250552 1_554
Ce1 Ge23 3.250552 1_555
Ce1 Ge15 3.250552 1_555
Ce1 Ge13 3.250552 1_555
Ce2 Os7 3.213955 1_545
Ce2 Os5 3.213955 1_555
Ce2 Os2 3.213955 1_545
Ce2 Os0 3.213955 1_555
Ce2 Ge7 3.215493 1_545
Ce2 Ge13 3.215493 1_555
Ce2 Ge4 3.215493 1_555
Ce2 Ge16 3.215493 1_655
Ce2 Ge12 3.215493 1_545
Ce2 Ge19 3.215493 1_645
Ce2 Ge24 3.215493 1_655
Ce2 Ge25 3.215493 1_645
Ce2 Ge8 3.250552 1_545
Ce2 Ge17 3.250552 1_555
Ce2 Ge22 3.250552 1_555
Ce2 Ge2 3.250552 1_555
Ce3 Os2 3.213955 1_455
Ce3 Os1 3.213955 1_555
Ce3 Os6 3.213955 1_555
Ce3 Os5 3.213955 1_455
Ce3 Ge2 3.215493 1_455
Ce3 Ge18 3.215493 1_455
Ce3 Ge15 3.215493 1_555
Ce3 Ge8 3.215493 1_455
Ce3 Ge5 3.215493 1_555
Ce3 Ge21 3.215493 1_555
Ce3 Ge23 3.215493 1_455
Ce3 Ge10 3.215493 1_555
Ce3 Ge6 3.250552 1_555
Ce3 Ge24 3.250552 1_555
Ce3 Ge19 3.250552 1_555
Ce3 Ge9 3.250552 1_455
Ce4 Os4 3.213955 1_554
Ce4 Os1 3.213955 1_555
Ce4 Os2 3.213955 1_555
Ce4 Os7 3.213955 1_554
Ce4 Ge9 3.215493 1_555
Ce4 Ge22 3.215493 1_564
Ce4 Ge11 3.215493 1_554
Ce4 Ge14 3.215493 1_564
Ce4 Ge20 3.215493 1_565
Ce4 Ge17 3.215493 1_565
Ce4 Ge3 3.215493 1_554
Ce4 Ge6 3.215493 1_555
Ce4 Ge18 3.250552 1_555
Ce4 Ge12 3.250552 1_554
Ce4 Ge21 3.250552 1_555
Ce4 Ge7 3.250552 1_555
Ce5 Os1 3.213955 1_545
Ce5 Os4 3.213955 1_545
Ce5 Os6 3.213955 1_555
Ce5 Os3 3.213955 1_555
Ce5 Ge7 3.215493 1_545
Ce5 Ge13 3.215493 1_555
Ce5 Ge19 3.215493 1_545
Ce5 Ge4 3.215493 1_555
Ce5 Ge12 3.215493 1_545
Ce5 Ge24 3.215493 1_555
Ce5 Ge25 3.215493 1_545
Ce5 Ge16 3.215493 1_555
Ce5 Ge14 3.250552 1_555
Ce5 Ge5 3.250552 1_545
Ce5 Ge20 3.250552 1_555
Ce5 Ge10 3.250552 1_555
Ge0 Ge7 3.001016 1_555
Ge0 Ge6 3.001016 1_555
Ge0 Ge2 3.001016 1_555
Ge0 Ge11 3.001016 1_555
Ge0 Ge13 3.001016 1_555
Ge0 Ge10 3.001016 1_555
Ge0 Ge4 3.001016 1_555
Ge0 Ge3 3.001016 1_555
Ge0 Ge9 3.001016 1_555
Ge0 Ge5 3.001016 1_555
Ge0 Ge8 3.001016 1_555
Ge0 Ge12 3.001016 1_555
Ge1 Ge17 3.001016 1_455
Ge1 Ge14 3.001016 1_554
Ge1 Ge18 3.001016 1_445
Ge1 Ge19 3.001016 1_545
Ge1 Ge22 3.001016 1_454
Ge1 Ge20 3.001016 1_555
Ge1 Ge25 3.001016 1_544
Ge1 Ge24 3.001016 1_555
Ge1 Ge15 3.001016 1_555
Ge1 Ge16 3.001016 1_554
Ge1 Ge23 3.001016 1_455
Ge1 Ge21 3.001016 1_545
Ge2 Os5 2.499171 1_555
Ge2 Os0 2.499171 1_555
Ge3 Os0 2.499171 1_555
Ge3 Os7 2.499171 1_555
Ge4 Os3 2.499171 1_555
Ge4 Os0 2.499171 1_555
Ge5 Os1 2.499171 1_555
Ge5 Os4 2.499171 1_555
Ge6 Os1 2.499171 1_555
Ge6 Os6 2.499171 1_555
Ge7 Os2 2.499171 1_555
Ge7 Os1 2.499171 1_555
Ge8 Os2 2.499171 1_555
Ge8 Os7 2.499171 1_555
Ge9 Os2 2.499171 1_555
Ge9 Os5 2.499171 1_555
Ge10 Os6 2.499171 1_555
Ge10 Os3 2.499171 1_555
Ge11 Os3 2.499171 1_555
Ge11 Os4 2.499171 1_555
Ge12 Os7 2.499171 1_555
Ge12 Os4 2.499171 1_555
Ge13 Os5 2.499171 1_555
Ge13 Os6 2.499171 1_555
Ge14 Os4 2.499171 1_545
Ge14 Os3 2.499171 1_555
Ge15 Os3 2.499171 1_554
Ge15 Os6 2.499171 1_555
Ge16 Os0 2.499171 1_455
Ge16 Os3 2.499171 1_555
Ge17 Os5 2.499171 1_555
Ge17 Os2 2.499171 1_545
Ge18 Os2 2.499171 1_555
Ge18 Os7 2.499171 1_554
Ge19 Os2 2.499171 1_455
Ge19 Os1 2.499171 1_555
Ge20 Os6 2.499171 1_555
Ge20 Os1 2.499171 1_545
Ge21 Os1 2.499171 1_555
Ge21 Os4 2.499171 1_554
Ge22 Os7 2.499171 1_545
Ge22 Os0 2.499171 1_555
Ge23 Os0 2.499171 1_554
Ge23 Os5 2.499171 1_555
Ge24 Os6 2.499171 1_555
Ge24 Os5 2.499171 1_455
Ge25 Os7 2.499171 1_455
Ge25 Os4 2.499171 1_555
