# generated using pymatgen
data_PrSiOs2C
_symmetry_space_group_name_H-M   'P 1'
_cell_length_a   5.90842902
_cell_length_b   5.90842902
_cell_length_c   7.21921800
_cell_angle_alpha   90.00000000
_cell_angle_beta   90.00000000
_cell_angle_gamma   140.45653620
_symmetry_Int_Tables_number   1
_chemical_formula_structural   PrSiOs2C
_chemical_formula_sum   'Pr2 Si2 Os4 C2'
_cell_volume   160.45160763
_cell_formula_units_Z   2
loop_
 _symmetry_equiv_pos_site_id
 _symmetry_equiv_pos_as_xyz
  1  'x, y, z'
loop_
 _atom_site_type_symbol
 _atom_site_label
 _atom_site_symmetry_multiplicity
 _atom_site_fract_x
 _atom_site_fract_y
 _atom_site_fract_z
 _atom_site_occupancy
  Pr  Pr0  1  0.54897000  0.45103000  0.25000000  1
  Pr  Pr1  1  0.45103000  0.54897000  0.75000000  1
  Si  Si0  1  0.27011400  0.72988600  0.25000000  1
  Si  Si1  1  0.72988600  0.27011400  0.75000000  1
  Os  Os0  1  0.83372800  0.16627200  0.06018000  1
  Os  Os1  1  0.16627200  0.83372800  0.93982000  1
  Os  Os2  1  0.16627200  0.83372800  0.56018000  1
  Os  Os3  1  0.83372800  0.16627200  0.43982000  1
  C  C0  1  0.00000000  0.00000000  0.00000000  1
  C  C1  1  0.00000000  0.00000000  0.50000000  1
loop_
_geom_bond_atom_site_label_1
_geom_bond_atom_site_label_2
_geom_bond_distance
_geom_bond_site_symmetry_2
Pr0 Si0 3.100942 1_555
Pr0 Si0 3.168942 1_655
Pr0 Si0 3.168942 1_545
Pr1 Si1 3.100942 1_555
Pr1 Si1 3.168942 1_565
Pr1 Si1 3.168942 1_455
Os0 Si1 2.519467 1_554
Os0 Si0 2.524470 1_655
Os0 Si0 2.524470 1_545
Os1 Si0 2.519467 1_556
Os1 Si1 2.524470 1_565
Os1 Si1 2.524470 1_455
Os2 Si0 2.519467 1_555
Os2 Si1 2.524470 1_565
Os2 Si1 2.524470 1_455
Os3 Si1 2.519467 1_555
Os3 Si0 2.524470 1_655
Os3 Si0 2.524470 1_545
C0 Os1 1.899338 1_544
C0 Os0 1.899338 1_455
C0 Pr0 2.747458 1_445
C0 Pr1 2.747458 1_444
C0 Pr0 2.747458 1_555
C0 Pr1 2.747458 1_554
C1 Os3 1.899338 1_455
C1 Os2 1.899338 1_545
C1 Pr0 2.747458 1_445
C1 Pr1 2.747458 1_445
C1 Pr1 2.747458 1_555
C1 Pr0 2.747458 1_555
