# generated using pymatgen
data_Li(CoO2)2
_symmetry_space_group_name_H-M   'P 1'
_cell_length_a   4.88143464
_cell_length_b   5.77984200
_cell_length_c   5.93905542
_cell_angle_alpha   60.88156285
_cell_angle_beta   105.63405228
_cell_angle_gamma   89.99967335
_symmetry_Int_Tables_number   1
_chemical_formula_structural   Li(CoO2)2
_chemical_formula_sum   'Li2 Co4 O8'
_cell_volume   139.24731173
_cell_formula_units_Z   2
loop_
 _symmetry_equiv_pos_site_id
 _symmetry_equiv_pos_as_xyz
  1  'x, y, z'
loop_
 _atom_site_type_symbol
 _atom_site_label
 _atom_site_symmetry_multiplicity
 _atom_site_fract_x
 _atom_site_fract_y
 _atom_site_fract_z
 _atom_site_occupancy
  Li  Li0  1  0.02137000  0.50042000  0.00278100  1
  Li  Li1  1  0.97862600  0.00319200  0.99721800  1
  Co  Co0  1  0.50000100  0.24951400  0.50000100  1
  Co  Co1  1  0.50000200  0.74431100  0.49999900  1
  Co  Co2  1  0.99999900  0.00396100  0.50000000  1
  Co  Co3  1  0.99999800  0.49820800  0.50000100  1
  O  O0  1  0.74580200  0.90888300  0.70806100  1
  O  O1  1  0.73973400  0.37878300  0.70948000  1
  O  O2  1  0.25420000  0.11695400  0.29194000  1
  O  O3  1  0.26026300  0.58827300  0.29052000  1
  O  O4  1  0.77232000  0.34602900  0.30551000  1
  O  O5  1  0.77888900  0.85451100  0.30093200  1
  O  O6  1  0.22768300  0.15152800  0.69449200  1
  O  O7  1  0.22111100  0.65543400  0.69906700  1
loop_
_geom_bond_atom_site_label_1
_geom_bond_atom_site_label_2
_geom_bond_distance
_geom_bond_site_symmetry_2
Li0 O3 2.075687 1_555
Li0 O7 2.093346 1_554
Li0 O2 2.096872 1_555
Li0 O4 2.263510 1_455
Li0 O0 2.270690 1_454
Li0 O1 2.306461 1_454
Li1 O1 2.075626 1_555
Li1 O5 2.093334 1_546
Li1 O0 2.096916 1_545
Li1 O6 2.263523 1_655
Li1 O2 2.270841 1_656
Li1 O3 2.306332 1_646
Co0 O1 1.896171 1_555
Co0 O3 1.896181 1_555
Co0 O6 1.900779 1_555
Co0 O4 1.900784 1_555
Co0 O0 1.917261 1_545
Co0 O2 1.917266 1_555
Co1 O5 1.947154 1_555
Co1 O7 1.947174 1_555
Co1 O1 2.009460 1_555
Co1 O3 2.009476 1_555
Co1 O2 2.053332 1_565
Co1 O0 2.053335 1_555
Co2 O0 1.879936 1_545
Co2 O2 1.879949 1_655
Co2 O4 1.887806 1_555
Co2 O6 1.887821 1_655
Co2 O7 1.901319 1_645
Co2 O5 1.901322 1_545
Co3 O4 1.907867 1_555
Co3 O6 1.907880 1_655
Co3 O1 1.911671 1_555
Co3 O3 1.911682 1_655
Co3 O5 1.935554 1_555
Co3 O7 1.935560 1_655
