# generated using pymatgen
data_Ba2LaMn2O7
_symmetry_space_group_name_H-M   'P 1'
_cell_length_a   5.67516337
_cell_length_b   10.80004522
_cell_length_c   5.67518034
_cell_angle_alpha   105.23167010
_cell_angle_beta   89.99938606
_cell_angle_gamma   90.00009644
_symmetry_Int_Tables_number   1
_chemical_formula_structural   Ba2LaMn2O7
_chemical_formula_sum   'Ba4 La2 Mn4 O14'
_cell_volume   335.62403300
_cell_formula_units_Z   2
loop_
 _symmetry_equiv_pos_site_id
 _symmetry_equiv_pos_as_xyz
  1  'x, y, z'
loop_
 _atom_site_type_symbol
 _atom_site_label
 _atom_site_symmetry_multiplicity
 _atom_site_fract_x
 _atom_site_fract_y
 _atom_site_fract_z
 _atom_site_occupancy
  Ba  Ba0  1  0.00000000  0.36247100  0.68124200  1
  Ba  Ba1  1  0.50000000  0.36228600  0.18115100  1
  Ba  Ba2  1  0.50000000  0.63752900  0.81875900  1
  Ba  Ba3  1  0.00000100  0.63771400  0.31884900  1
  La  La0  1  0.99999900  0.00000200  0.49999800  1
  La  La1  1  0.50000200  0.99999800  0.99999800  1
  Mn  Mn0  1  0.00000100  0.81576500  0.90790100  1
  Mn  Mn1  1  0.50000000  0.18424300  0.59210300  1
  Mn  Mn2  1  0.50000000  0.81161500  0.40583300  1
  Mn  Mn3  1  0.99999900  0.18837700  0.09416400  1
  O  O0  1  0.50000100  0.99587300  0.49792500  1
  O  O1  1  0.99999900  0.00412800  0.00207700  1
  O  O2  1  0.00000000  0.62957000  0.81483600  1
  O  O3  1  0.50000100  0.62704000  0.31356700  1
  O  O4  1  0.50000000  0.37043000  0.68516500  1
  O  O5  1  0.00000000  0.37295900  0.18643200  1
  O  O6  1  0.76005200  0.82793700  0.67421300  1
  O  O7  1  0.23993300  0.82793200  0.15377200  1
  O  O8  1  0.76006100  0.82793100  0.15377400  1
  O  O9  1  0.23995000  0.82793700  0.67421000  1
  O  O10  1  0.73994800  0.17206300  0.82578600  1
  O  O11  1  0.26006400  0.17206800  0.34622900  1
  O  O12  1  0.73993700  0.17206900  0.34622400  1
  O  O13  1  0.26005100  0.17206400  0.82579200  1
loop_
_geom_bond_atom_site_label_1
_geom_bond_atom_site_label_2
_geom_bond_distance
_geom_bond_site_symmetry_2
Ba0 O2 2.783347 1_555
Ba0 O10 2.822444 1_455
Ba0 O13 2.822462 1_555
Ba0 O11 2.822647 1_555
Ba0 O12 2.822669 1_455
Ba0 O4 2.838793 1_455
Ba0 O4 2.838794 1_555
Ba0 O5 2.839390 1_556
Ba0 O5 2.839999 1_555
Ba1 O3 2.758910 1_555
Ba1 O12 2.821959 1_555
Ba1 O11 2.821967 1_555
Ba1 O13 2.822263 1_554
Ba1 O10 2.822267 1_554
Ba1 O4 2.838531 1_555
Ba1 O4 2.839187 1_554
Ba1 O5 2.839760 1_555
Ba1 O5 2.839761 1_655
Ba2 O4 2.783347 1_555
Ba2 O6 2.822450 1_555
Ba2 O9 2.822465 1_555
Ba2 O8 2.822655 1_556
Ba2 O7 2.822656 1_556
Ba2 O2 2.838793 1_655
Ba2 O2 2.838794 1_555
Ba2 O3 2.839399 1_555
Ba2 O3 2.839990 1_556
Ba3 O5 2.758921 1_555
Ba3 O7 2.821953 1_555
Ba3 O8 2.821974 1_455
Ba3 O6 2.822267 1_455
Ba3 O9 2.822275 1_555
Ba3 O2 2.838526 1_554
Ba3 O2 2.839192 1_555
Ba3 O3 2.839761 1_555
Ba3 O3 2.839761 1_455
La0 O10 2.691530 1_555
La0 O13 2.691574 1_655
La0 O11 2.691708 1_655
La0 O12 2.691735 1_555
La0 O7 2.692536 1_645
La0 O8 2.692565 1_545
La0 O6 2.692684 1_545
La0 O9 2.692700 1_645
La0 O1 2.837824 1_555
La0 O0 2.837897 1_545
La0 O0 2.837919 1_645
La0 O1 2.838007 1_556
La1 O6 2.691518 1_555
La1 O9 2.691552 1_555
La1 O8 2.691731 1_556
La1 O7 2.691735 1_556
La1 O12 2.692563 1_566
La1 O11 2.692564 1_566
La1 O10 2.692672 1_565
La1 O13 2.692690 1_565
La1 O0 2.837855 1_556
La1 O1 2.837891 1_566
La1 O1 2.837925 1_466
La1 O0 2.837976 1_555
Mn0 O7 1.929274 1_556
Mn0 O9 1.929280 1_555
Mn0 O6 1.929288 1_455
Mn0 O8 1.929295 1_456
Mn0 O2 1.940274 1_555
Mn0 O1 1.962866 1_466
Mn1 O10 1.929286 1_555
Mn1 O13 1.929291 1_555
Mn1 O11 1.929292 1_555
Mn1 O12 1.929296 1_555
Mn1 O4 1.940190 1_555
Mn1 O0 1.962939 1_545
Mn2 O0 1.920089 1_555
Mn2 O3 1.923392 1_555
Mn2 O9 2.094710 1_555
Mn2 O8 2.094749 1_555
Mn2 O6 2.094753 1_555
Mn2 O7 2.094806 1_555
Mn3 O1 1.919995 1_555
Mn3 O5 1.923465 1_655
Mn3 O13 2.094709 1_654
Mn3 O12 2.094735 1_555
Mn3 O10 2.094750 1_554
Mn3 O11 2.094792 1_655
