# generated using pymatgen
data_Ca2BiWO6
_symmetry_space_group_name_H-M   'P 1'
_cell_length_a   6.24032711
_cell_length_b   6.24032711
_cell_length_c   6.24032755
_cell_angle_alpha   55.85835564
_cell_angle_beta   55.85835564
_cell_angle_gamma   55.85835091
_symmetry_Int_Tables_number   1
_chemical_formula_structural   Ca2BiWO6
_chemical_formula_sum   'Ca2 Bi1 W1 O6'
_cell_volume   155.33536965
_cell_formula_units_Z   1
loop_
 _symmetry_equiv_pos_site_id
 _symmetry_equiv_pos_as_xyz
  1  'x, y, z'
loop_
 _atom_site_type_symbol
 _atom_site_label
 _atom_site_symmetry_multiplicity
 _atom_site_fract_x
 _atom_site_fract_y
 _atom_site_fract_z
 _atom_site_occupancy
  Ca  Ca0  1  0.30559300  0.30559300  0.30559300  1
  Ca  Ca1  1  0.78350500  0.78350500  0.78350500  1
  Bi  Bi0  1  0.54683000  0.54683000  0.54683000  1
  W  W0  1  0.98904300  0.98904300  0.98904300  1
  O  O0  1  0.33370000  0.75725600  0.04203200  1
  O  O1  1  0.62705000  0.15765000  0.92404400  1
  O  O2  1  0.75725600  0.04203200  0.33370000  1
  O  O3  1  0.04203200  0.33370000  0.75725600  1
  O  O4  1  0.92404400  0.62705000  0.15765000  1
  O  O5  1  0.15765000  0.92404400  0.62705000  1
loop_
_geom_bond_atom_site_label_1
_geom_bond_atom_site_label_2
_geom_bond_distance
_geom_bond_site_symmetry_2
Ca0 O4 2.360678 1_455
Ca0 O1 2.360678 1_554
Ca0 O5 2.360678 1_545
Ca0 O2 2.389054 1_555
Ca0 O0 2.389054 1_555
Ca0 O3 2.389054 1_555
Ca1 O3 2.375884 1_655
Ca1 O0 2.375884 1_556
Ca1 O2 2.375884 1_565
Ca1 O1 2.439708 1_565
Ca1 O5 2.439708 1_655
Ca1 O4 2.439708 1_556
Bi0 O5 2.287097 1_555
Bi0 O1 2.287098 1_555
Bi0 O4 2.287098 1_555
O0 W0 1.896518 1_454
O1 W0 2.063006 1_545
O2 W0 1.896518 1_544
O3 W0 1.896518 1_445
O4 W0 2.063006 1_554
O5 W0 2.063006 1_455
