# generated using pymatgen
data_Rb2Cr(ICl)2
_symmetry_space_group_name_H-M   'P 1'
_cell_length_a   9.22255900
_cell_length_b   13.62880700
_cell_length_c   9.49409039
_cell_angle_alpha   90.00000000
_cell_angle_beta   60.94165327
_cell_angle_gamma   90.00000000
_symmetry_Int_Tables_number   1
_chemical_formula_structural   Rb2Cr(ICl)2
_chemical_formula_sum   'Rb4 Cr2 I4 Cl4'
_cell_volume   1043.12525747
_cell_formula_units_Z   2
loop_
 _symmetry_equiv_pos_site_id
 _symmetry_equiv_pos_as_xyz
  1  'x, y, z'
loop_
 _atom_site_type_symbol
 _atom_site_label
 _atom_site_symmetry_multiplicity
 _atom_site_fract_x
 _atom_site_fract_y
 _atom_site_fract_z
 _atom_site_occupancy
  Rb  Rb0  1  0.88414300  0.50000000  0.23171500  1
  Rb  Rb1  1  0.38414300  0.00000000  0.23171500  1
  Rb  Rb2  1  0.11585700  0.50000000  0.76828500  1
  Rb  Rb3  1  0.61585700  0.00000000  0.76828500  1
  Cr  Cr0  1  0.50000000  0.50000000  0.00000000  1
  Cr  Cr1  1  0.00000000  0.00000000  0.00000000  1
  I  I0  1  0.59589300  0.31068900  0.00000000  1
  I  I1  1  0.40410700  0.68931100  0.00000000  1
  I  I2  1  0.90410700  0.81068900  0.00000000  1
  I  I3  1  0.09589300  0.18931100  0.00000000  1
  Cl  Cl0  1  0.74483000  0.55488700  0.00000000  1
  Cl  Cl1  1  0.25517000  0.44511300  0.00000000  1
  Cl  Cl2  1  0.75517000  0.05488700  0.00000000  1
  Cl  Cl3  1  0.24483000  0.94511300  0.00000000  1
loop_
_geom_bond_atom_site_label_1
_geom_bond_atom_site_label_2
_geom_bond_distance
_geom_bond_site_symmetry_2
Cr0 I0 2.727445 1_555
Cr0 I1 2.727445 1_555
Cr1 I2 2.727445 1_445
Cr1 I3 2.727445 1_555
Cl0 Cr0 2.378645 1_555
Cl0 Rb2 3.129797 1_654
Cl0 Rb0 3.129804 1_555
Cl1 Cr0 2.378645 1_555
Cl1 Rb0 3.129797 1_455
Cl1 Rb2 3.129804 1_554
Cl2 Cr1 2.378645 1_655
Cl2 Rb1 3.129797 1_555
Cl2 Rb3 3.129804 1_554
Cl3 Cr1 2.378645 1_565
Cl3 Rb3 3.129797 1_564
Cl3 Rb1 3.129804 1_565
