# generated using pymatgen
data_Li9Mn7O16
_symmetry_space_group_name_H-M   'P 1'
_cell_length_a   5.75789846
_cell_length_b   9.90797585
_cell_length_c   6.07152912
_cell_angle_alpha   86.06671493
_cell_angle_beta   61.69714056
_cell_angle_gamma   98.35371337
_symmetry_Int_Tables_number   1
_chemical_formula_structural   Li9Mn7O16
_chemical_formula_sum   'Li9 Mn7 O16'
_cell_volume   297.95047489
_cell_formula_units_Z   1
loop_
 _symmetry_equiv_pos_site_id
 _symmetry_equiv_pos_as_xyz
  1  'x, y, z'
loop_
 _atom_site_type_symbol
 _atom_site_label
 _atom_site_symmetry_multiplicity
 _atom_site_fract_x
 _atom_site_fract_y
 _atom_site_fract_z
 _atom_site_occupancy
  Li  Li0  1  0.74275400  0.23954000  0.13434400  1
  Li  Li1  1  0.74524200  0.74980100  0.37224400  1
  Li  Li2  1  0.74261200  0.25022300  0.62767500  1
  Li  Li3  1  0.25475800  0.25019900  0.62775600  1
  Li  Li4  1  0.25724600  0.76046000  0.86565600  1
  Li  Li5  1  0.25088600  0.24285400  0.11951400  1
  Li  Li6  1  0.74911400  0.75714600  0.88048600  1
  Li  Li7  1  0.25738800  0.74977700  0.37232500  1
  Li  Li8  1  0.50000000  0.00000000  0.50000000  1
  Mn  Mn0  1  0.00000000  0.00000000  0.00000000  1
  Mn  Mn1  1  0.00000000  0.00000000  0.50000000  1
  Mn  Mn2  1  0.99980900  0.49811900  0.24985200  1
  Mn  Mn3  1  0.00019100  0.50188100  0.75014800  1
  Mn  Mn4  1  0.50062400  0.50297000  0.75069000  1
  Mn  Mn5  1  0.50000000  0.00000000  0.00000000  1
  Mn  Mn6  1  0.49937600  0.49703000  0.24931000  1
  O  O0  1  0.85960000  0.11796400  0.83980800  1
  O  O1  1  0.85865700  0.61581900  0.08944500  1
  O  O2  1  0.89401500  0.10333100  0.28615700  1
  O  O3  1  0.37145000  0.10333000  0.28618600  1
  O  O4  1  0.36220500  0.62170500  0.58618100  1
  O  O5  1  0.36290400  0.11382900  0.83108600  1
  O  O6  1  0.86280500  0.62055200  0.58499700  1
  O  O7  1  0.36001900  0.61613500  0.08917500  1
  O  O8  1  0.63779500  0.37829500  0.41381900  1
  O  O9  1  0.62855000  0.89667000  0.71381400  1
  O  O10  1  0.63998100  0.38386500  0.91082500  1
  O  O11  1  0.14134300  0.38418100  0.91055500  1
  O  O12  1  0.14040000  0.88203600  0.16019200  1
  O  O13  1  0.13719500  0.37944800  0.41500300  1
  O  O14  1  0.63709600  0.88617100  0.16891400  1
  O  O15  1  0.10598500  0.89666900  0.71384300  1
loop_
_geom_bond_atom_site_label_1
_geom_bond_atom_site_label_2
_geom_bond_distance
_geom_bond_site_symmetry_2
Li0 O2 2.088437 1_555
Li0 O3 2.089001 1_555
Li0 O0 2.119366 1_554
Li0 O8 2.173373 1_555
Li0 O10 2.231117 1_554
Li0 O11 2.233224 1_654
Li1 O4 2.099077 1_555
Li1 O14 2.117073 1_555
Li1 O6 2.149610 1_555
Li1 O1 2.153643 1_555
Li1 O12 2.162324 1_655
Li1 O9 2.499325 1_555
Li2 O8 2.097606 1_555
Li2 O5 2.117450 1_555
Li2 O13 2.148145 1_655
Li2 O10 2.152742 1_555
Li2 O0 2.162741 1_555
Li2 O2 2.499257 1_555
Li3 O8 2.099077 1_555
Li3 O5 2.117073 1_555
Li3 O13 2.149610 1_555
Li3 O11 2.153643 1_555
Li3 O0 2.162324 1_455
Li3 O3 2.499325 1_555
Li4 O15 2.088437 1_555
Li4 O9 2.089001 1_555
Li4 O12 2.119366 1_556
Li4 O4 2.173373 1_555
Li4 O7 2.231117 1_556
Li4 O1 2.233224 1_456
Li5 O2 2.041637 1_455
Li5 O3 2.042074 1_555
Li5 O5 2.143034 1_554
Li5 O10 2.175429 1_554
Li5 O11 2.177131 1_554
Li5 O13 2.226136 1_555
Li6 O15 2.041637 1_655
Li6 O9 2.042074 1_555
Li6 O14 2.143034 1_556
Li6 O7 2.175429 1_556
Li6 O1 2.177131 1_556
Li6 O6 2.226136 1_555
Li7 O4 2.097606 1_555
Li7 O14 2.117450 1_555
Li7 O6 2.148145 1_455
Li7 O7 2.152742 1_555
Li7 O12 2.162741 1_555
Li7 O15 2.499257 1_555
Li8 O3 2.056770 1_555
Li8 O9 2.056770 1_545
Li8 O2 2.056804 1_555
Li8 O15 2.056804 1_545
Li8 O5 2.236287 1_555
Li8 O14 2.236287 1_545
Mn0 O5 1.953067 1_554
Mn0 O14 1.953067 1_445
Mn0 O0 1.956970 1_454
Mn0 O12 1.956970 1_545
Mn0 O2 1.964519 1_455
Mn0 O15 1.964519 1_544
Mn1 O9 1.963751 1_445
Mn1 O3 1.963751 1_555
Mn1 O2 1.963876 1_455
Mn1 O15 1.963876 1_545
Mn1 O0 2.302165 1_455
Mn1 O12 2.302165 1_545
Mn2 O1 1.959382 1_555
Mn2 O7 1.959800 1_655
Mn2 O13 1.968344 1_655
Mn2 O8 1.973949 1_555
Mn2 O11 2.275246 1_654
Mn2 O6 2.308450 1_555
Mn3 O11 1.959382 1_555
Mn3 O10 1.959800 1_455
Mn3 O6 1.968344 1_455
Mn3 O4 1.973949 1_555
Mn3 O1 2.275246 1_456
Mn3 O13 2.308450 1_555
Mn4 O11 1.959243 1_555
Mn4 O10 1.959409 1_555
Mn4 O6 1.965214 1_555
Mn4 O4 1.970519 1_555
Mn4 O7 2.266779 1_556
Mn4 O8 2.330518 1_555
Mn5 O5 1.953093 1_554
Mn5 O14 1.953093 1_545
Mn5 O0 1.957139 1_554
Mn5 O12 1.957139 1_545
Mn5 O9 1.964656 1_544
Mn5 O3 1.964656 1_555
Mn6 O1 1.959243 1_555
Mn6 O7 1.959409 1_555
Mn6 O13 1.965214 1_555
Mn6 O8 1.970519 1_555
Mn6 O10 2.266779 1_554
Mn6 O4 2.330518 1_555
