# generated using pymatgen
data_Al2Cu11B13
_symmetry_space_group_name_H-M   'P 1'
_cell_length_a   7.92590173
_cell_length_b   7.92590173
_cell_length_c   7.92590173
_cell_angle_alpha   90.00000000
_cell_angle_beta   90.00000000
_cell_angle_gamma   90.00000000
_symmetry_Int_Tables_number   1
_chemical_formula_structural   Al2Cu11B13
_chemical_formula_sum   'Al4 Cu22 B26'
_cell_volume   497.90449861
_cell_formula_units_Z   2
loop_
 _symmetry_equiv_pos_site_id
 _symmetry_equiv_pos_as_xyz
  1  'x, y, z'
loop_
 _atom_site_type_symbol
 _atom_site_label
 _atom_site_symmetry_multiplicity
 _atom_site_fract_x
 _atom_site_fract_y
 _atom_site_fract_z
 _atom_site_occupancy
  Al  Al0  1  0.61874626  0.61874626  0.61874626  1
  Al  Al1  1  0.38125374  0.38125374  0.61874626  1
  Al  Al2  1  0.38125374  0.61874626  0.38125374  1
  Al  Al3  1  0.61874626  0.38125374  0.38125374  1
  Cu  Cu0  1  0.14803943  0.14803943  0.53569929  1
  Cu  Cu1  1  0.85196057  0.85196057  0.53569929  1
  Cu  Cu2  1  0.85196057  0.14803943  0.46430071  1
  Cu  Cu3  1  0.53569929  0.14803943  0.14803943  1
  Cu  Cu4  1  0.14803943  0.85196057  0.46430071  1
  Cu  Cu5  1  0.53569929  0.85196057  0.85196057  1
  Cu  Cu6  1  0.46430071  0.85196057  0.14803943  1
  Cu  Cu7  1  0.46430071  0.14803943  0.85196057  1
  Cu  Cu8  1  0.14803943  0.53569929  0.14803943  1
  Cu  Cu9  1  0.14803943  0.46430071  0.85196057  1
  Cu  Cu10  1  0.85196057  0.46430071  0.14803943  1
  Cu  Cu11  1  0.85196057  0.53569929  0.85196057  1
  Cu  Cu12  1  0.29397469  0.29397469  0.29397469  1
  Cu  Cu13  1  0.70602531  0.70602531  0.29397469  1
  Cu  Cu14  1  0.70602531  0.29397469  0.70602531  1
  Cu  Cu15  1  0.29397469  0.70602531  0.70602531  1
  Cu  Cu16  1  0.14064353  0.50000000  0.50000000  1
  Cu  Cu17  1  0.85935647  0.50000000  0.50000000  1
  Cu  Cu18  1  0.50000000  0.14064353  0.50000000  1
  Cu  Cu19  1  0.50000000  0.85935647  0.50000000  1
  Cu  Cu20  1  0.50000000  0.50000000  0.14064353  1
  Cu  Cu21  1  0.50000000  0.50000000  0.85935647  1
  B  B0  1  0.77272386  0.77272386  0.77272386  1
  B  B1  1  0.22727614  0.22727614  0.77272386  1
  B  B2  1  0.22727614  0.77272386  0.22727614  1
  B  B3  1  0.77272386  0.22727614  0.22727614  1
  B  B4  1  0.27487144  0.00000000  0.00000000  1
  B  B5  1  0.72512856  0.00000000  0.00000000  1
  B  B6  1  0.00000000  0.27487144  0.00000000  1
  B  B7  1  0.00000000  0.72512856  0.00000000  1
  B  B8  1  0.00000000  0.00000000  0.27487144  1
  B  B9  1  0.00000000  0.00000000  0.72512856  1
  B  B10  1  0.13483058  0.13483058  0.13483058  1
  B  B11  1  0.86516942  0.86516942  0.13483058  1
  B  B12  1  0.86516942  0.13483058  0.86516942  1
  B  B13  1  0.13483058  0.86516942  0.86516942  1
  B  B14  1  0.25753907  0.25753907  -0.00140478  1
  B  B15  1  0.74246093  0.74246093  -0.00140478  1
  B  B16  1  0.74246093  0.25753907  0.00140478  1
  B  B17  1  -0.00140478  0.25753907  0.25753907  1
  B  B18  1  0.25753907  0.74246093  0.00140478  1
  B  B19  1  -0.00140478  0.74246093  0.74246093  1
  B  B20  1  0.00140478  0.74246093  0.25753907  1
  B  B21  1  0.00140478  0.25753907  0.74246093  1
  B  B22  1  0.25753907  -0.00140478  0.25753907  1
  B  B23  1  0.25753907  0.00140478  0.74246093  1
  B  B24  1  0.74246093  0.00140478  0.25753907  1
  B  B25  1  0.74246093  -0.00140478  0.74246093  1
loop_
_geom_bond_atom_site_label_1
_geom_bond_atom_site_label_2
_geom_bond_distance
_geom_bond_site_symmetry_2
Al0 B0 2.113814 1_555
Al0 Cu21 2.325609 1_555
Al0 Cu19 2.325609 1_555
Al0 Cu17 2.325609 1_555
Al0 Cu14 2.753744 1_555
Al0 Cu15 2.753744 1_555
Al0 Cu13 2.753744 1_555
Al1 B1 2.113814 1_555
Al1 Cu16 2.325609 1_555
Al1 Cu21 2.325609 1_555
Al1 Cu18 2.325609 1_555
Al1 Cu12 2.753744 1_555
Al1 Cu14 2.753744 1_555
Al1 Cu15 2.753744 1_555
Al2 B2 2.113814 1_555
Al2 Cu16 2.325609 1_555
Al2 Cu20 2.325609 1_555
Al2 Cu19 2.325609 1_555
Al2 Cu12 2.753744 1_555
Al2 Cu15 2.753744 1_555
Al2 Cu13 2.753744 1_555
Al3 B3 2.113814 1_555
Al3 Cu20 2.325609 1_555
Al3 Cu18 2.325609 1_555
Al3 Cu17 2.325609 1_555
Al3 Cu12 2.753744 1_555
Al3 Cu14 2.753744 1_555
Al3 Cu13 2.753744 1_555
Cu0 Cu12 2.519202 1_555
Cu1 Cu13 2.519202 1_555
Cu10 Cu13 2.519202 1_555
Cu11 Cu14 2.519202 1_555
Cu12 Cu3 2.519202 1_555
Cu12 Cu8 2.519202 1_555
Cu12 Cu20 2.609576 1_555
Cu12 Cu18 2.609576 1_555
Cu12 Cu16 2.609576 1_555
Cu13 Cu6 2.519202 1_555
Cu13 Cu20 2.609576 1_555
Cu13 Cu19 2.609576 1_555
Cu13 Cu17 2.609576 1_555
Cu14 Cu2 2.519202 1_555
Cu14 Cu7 2.519202 1_555
Cu14 Cu21 2.609576 1_555
Cu14 Cu18 2.609576 1_555
Cu14 Cu17 2.609576 1_555
Cu15 Cu9 2.519202 1_555
Cu15 Cu4 2.519202 1_555
Cu15 Cu5 2.519202 1_555
Cu15 Cu21 2.609576 1_555
Cu15 Cu19 2.609576 1_555
Cu15 Cu16 2.609576 1_555
Cu16 Cu17 2.229454 1_455
Cu18 Cu19 2.229454 1_545
Cu20 Cu21 2.229454 1_554
B0 B15 1.822088 1_556
B0 B19 1.822088 1_655
B0 B25 1.822088 1_565
B0 Cu5 2.078001 1_555
B0 Cu1 2.078001 1_555
B0 Cu11 2.078001 1_555
B1 B14 1.822088 1_556
B1 B23 1.822088 1_555
B1 B21 1.822088 1_555
B1 Cu0 2.078001 1_555
B1 Cu9 2.078001 1_555
B1 Cu7 2.078001 1_555
B2 B22 1.822088 1_565
B2 B20 1.822088 1_555
B2 Cu4 2.078001 1_555
B2 Cu8 2.078001 1_555
B2 Cu6 2.078001 1_555
B3 Cu3 2.078001 1_555
B3 Cu2 2.078001 1_555
B3 Cu10 2.078001 1_555
B4 Cu7 2.237784 1_554
B4 Cu6 2.237784 1_545
B4 Cu5 2.650885 1_544
B4 Cu3 2.650885 1_555
B5 Cu3 2.237784 1_555
B5 Cu5 2.237784 1_544
B5 Cu7 2.650885 1_554
B5 Cu6 2.650885 1_545
B6 Cu9 2.237784 1_554
B6 Cu10 2.237784 1_455
B6 Cu11 2.650885 1_454
B6 Cu8 2.650885 1_555
B7 Cu8 2.237784 1_555
B7 Cu11 2.237784 1_454
B7 Cu10 2.650885 1_455
B7 Cu9 2.650885 1_554
B8 Cu4 2.237784 1_545
B8 Cu2 2.237784 1_455
B8 Cu0 2.650885 1_555
B8 Cu1 2.650885 1_445
B9 Cu1 2.237784 1_445
B9 Cu0 2.237784 1_555
B9 Cu4 2.650885 1_545
B9 Cu2 2.650885 1_455
B10 B22 1.748642 1_555
B10 B17 1.748642 1_555
B10 B14 1.748642 1_555
B10 B4 1.875108 1_555
B10 B8 1.875108 1_555
B10 B6 1.875108 1_555
B10 Cu12 2.184741 1_555
B11 B15 1.748642 1_555
B11 B20 1.748642 1_655
B11 B24 1.748642 1_565
B11 B5 1.875108 1_565
B11 B7 1.875108 1_655
B11 B8 1.875108 1_665
B11 Cu13 2.184741 1_555
B12 B25 1.748642 1_555
B12 B21 1.748642 1_655
B12 B16 1.748642 1_556
B12 B5 1.875108 1_556
B12 B9 1.875108 1_655
B12 B6 1.875108 1_656
B12 Cu14 2.184741 1_555
B13 B19 1.748642 1_555
B13 B23 1.748642 1_565
B13 B18 1.748642 1_556
B13 B9 1.875108 1_565
B13 B7 1.875108 1_556
B13 B4 1.875108 1_566
B13 Cu15 2.184741 1_555
B14 B6 2.045877 1_555
B14 B4 2.045877 1_555
B14 Cu7 2.188500 1_554
B14 Cu9 2.188500 1_554
B14 Cu12 2.376504 1_555
B14 Cu8 2.648922 1_555
B14 Cu3 2.648922 1_555
B15 B7 2.045877 1_655
B15 B5 2.045877 1_565
B15 Cu11 2.188500 1_554
B15 Cu5 2.188500 1_554
B15 Cu13 2.376504 1_555
B15 Cu6 2.648922 1_555
B15 Cu10 2.648922 1_555
B16 B3 1.822088 1_555
B16 B6 2.045877 1_655
B16 B5 2.045877 1_555
B16 Cu3 2.188500 1_555
B16 Cu10 2.188500 1_555
B16 Cu14 2.376504 1_554
B16 Cu7 2.648922 1_554
B16 Cu11 2.648922 1_554
B17 B3 1.822088 1_455
B17 B6 2.045877 1_555
B17 B8 2.045877 1_555
B17 Cu2 2.188500 1_455
B17 Cu10 2.188500 1_455
B17 Cu12 2.376504 1_555
B17 Cu0 2.648922 1_555
B17 Cu8 2.648922 1_555
B18 B2 1.822088 1_555
B18 B4 2.045877 1_565
B18 B7 2.045877 1_555
B18 Cu8 2.188500 1_555
B18 Cu6 2.188500 1_555
B18 Cu15 2.376504 1_554
B18 Cu9 2.648922 1_554
B18 Cu5 2.648922 1_554
B19 B9 2.045877 1_565
B19 B7 2.045877 1_556
B19 Cu1 2.188500 1_455
B19 Cu11 2.188500 1_455
B19 Cu15 2.376504 1_555
B19 Cu4 2.648922 1_555
B19 Cu9 2.648922 1_555
B20 B8 2.045877 1_565
B20 B7 2.045877 1_555
B20 Cu8 2.188500 1_555
B20 Cu4 2.188500 1_555
B20 Cu13 2.376504 1_455
B20 Cu10 2.648922 1_455
B20 Cu1 2.648922 1_455
B21 B9 2.045877 1_555
B21 B6 2.045877 1_556
B21 Cu0 2.188500 1_555
B21 Cu9 2.188500 1_555
B21 Cu14 2.376504 1_455
B21 Cu2 2.648922 1_455
B21 Cu11 2.648922 1_455
B22 B4 2.045877 1_555
B22 B8 2.045877 1_555
B22 Cu6 2.188500 1_545
B22 Cu4 2.188500 1_545
B22 Cu12 2.376504 1_555
B22 Cu0 2.648922 1_555
B22 Cu3 2.648922 1_555
B23 B9 2.045877 1_555
B23 B4 2.045877 1_556
B23 Cu0 2.188500 1_555
B23 Cu7 2.188500 1_555
B23 Cu15 2.376504 1_545
B23 Cu4 2.648922 1_545
B23 Cu5 2.648922 1_545
B24 B3 1.822088 1_555
B24 B8 2.045877 1_655
B24 B5 2.045877 1_555
B24 Cu3 2.188500 1_555
B24 Cu2 2.188500 1_555
B24 Cu13 2.376504 1_545
B24 Cu6 2.648922 1_545
B24 Cu1 2.648922 1_545
B25 B5 2.045877 1_556
B25 B9 2.045877 1_655
B25 Cu1 2.188500 1_545
B25 Cu5 2.188500 1_545
B25 Cu14 2.376504 1_555
B25 Cu2 2.648922 1_555
B25 Cu7 2.648922 1_555
