# generated using pymatgen
data_YMg2
_symmetry_space_group_name_H-M   'P 1'
_cell_length_a   6.04020042
_cell_length_b   6.04020042
_cell_length_c   6.04020042
_cell_angle_alpha   59.99993603
_cell_angle_beta   59.99993603
_cell_angle_gamma   59.99993603
_symmetry_Int_Tables_number   1
_chemical_formula_structural   YMg2
_chemical_formula_sum   'Y2 Mg4'
_cell_volume   155.82546115
_cell_formula_units_Z   2
loop_
 _symmetry_equiv_pos_site_id
 _symmetry_equiv_pos_as_xyz
  1  'x, y, z'
loop_
 _atom_site_type_symbol
 _atom_site_label
 _atom_site_symmetry_multiplicity
 _atom_site_fract_x
 _atom_site_fract_y
 _atom_site_fract_z
 _atom_site_occupancy
  Y  Y0  1  0.25000000  0.25000000  0.25000000  1
  Y  Y1  1  -0.00000000  0.00000000  -0.00000000  1
  Mg  Mg0  1  0.62500000  0.12500000  0.62500000  1
  Mg  Mg1  1  0.62500000  0.62500000  0.62500000  1
  Mg  Mg2  1  0.12500000  0.62500000  0.62500000  1
  Mg  Mg3  1  0.62500000  0.62500000  0.12500000  1
loop_
_geom_bond_atom_site_label_1
_geom_bond_atom_site_label_2
_geom_bond_distance
_geom_bond_site_symmetry_2
Y0 Y1 3.698849 1_655
Y0 Y1 3.698849 1_565
Y0 Y1 3.698849 1_556
Y0 Y1 3.698854 1_555
Mg0 Mg2 3.020097 1_555
Mg0 Mg2 3.020097 1_645
Mg0 Mg3 3.020097 1_546
Mg0 Mg3 3.020097 1_555
Mg0 Mg1 3.020100 1_555
Mg0 Mg1 3.020100 1_545
Mg0 Y0 3.541379 1_556
Mg0 Y1 3.541379 1_655
Mg0 Y0 3.541379 1_655
Mg0 Y1 3.541379 1_556
Mg0 Y0 3.541382 1_555
Mg0 Y1 3.541382 1_656
Mg1 Mg2 3.020100 1_555
Mg1 Mg3 3.020100 1_556
Mg1 Mg3 3.020100 1_555
Mg1 Mg2 3.020100 1_655
Mg1 Y0 3.541378 1_565
Mg1 Y1 3.541378 1_566
Mg1 Y1 3.541378 1_656
Mg1 Y0 3.541378 1_655
Mg1 Y0 3.541378 1_556
Mg1 Y1 3.541378 1_665
Mg2 Mg3 3.020097 1_456
Mg2 Mg3 3.020097 1_555
Mg2 Y0 3.541379 1_556
Mg2 Y1 3.541379 1_565
Mg2 Y0 3.541379 1_565
Mg2 Y1 3.541379 1_556
Mg2 Y0 3.541382 1_555
Mg2 Y1 3.541382 1_566
Mg3 Y1 3.541379 1_655
Mg3 Y0 3.541379 1_565
Mg3 Y0 3.541379 1_655
Mg3 Y1 3.541379 1_565
Mg3 Y0 3.541382 1_555
Mg3 Y1 3.541382 1_665
