# generated using pymatgen
data_BaCl2O11
_symmetry_space_group_name_H-M   'P 1'
_cell_length_a   6.83516652
_cell_length_b   6.83516652
_cell_length_c   11.45684600
_cell_angle_alpha   90.00000000
_cell_angle_beta   90.00000000
_cell_angle_gamma   120.00000507
_symmetry_Int_Tables_number   1
_chemical_formula_structural   BaCl2O11
_chemical_formula_sum   'Ba2 Cl4 O22'
_cell_volume   463.54711694
_cell_formula_units_Z   2
loop_
 _symmetry_equiv_pos_site_id
 _symmetry_equiv_pos_as_xyz
  1  'x, y, z'
loop_
 _atom_site_type_symbol
 _atom_site_label
 _atom_site_symmetry_multiplicity
 _atom_site_fract_x
 _atom_site_fract_y
 _atom_site_fract_z
 _atom_site_occupancy
  Ba  Ba0  1  0.00000000  0.00000000  0.50000000  1
  Ba  Ba1  1  0.00000000  0.00000000  0.00000000  1
  Cl  Cl0  1  0.66666700  0.33333300  0.53859000  1
  Cl  Cl1  1  0.33333300  0.66666700  0.03859000  1
  Cl  Cl2  1  0.33333300  0.66666700  0.46141000  1
  Cl  Cl3  1  0.66666700  0.33333300  0.96141000  1
  O  O0  1  0.66666700  0.33333300  0.41250300  1
  O  O1  1  0.33333300  0.66666700  0.91250300  1
  O  O2  1  0.33333300  0.66666700  0.58749700  1
  O  O3  1  0.66666700  0.33333300  0.08749700  1
  O  O4  1  0.73764100  0.56054300  0.58341400  1
  O  O5  1  0.43945700  0.17709700  0.58341400  1
  O  O6  1  0.82290300  0.26235900  0.58341400  1
  O  O7  1  0.26235900  0.43945700  0.08341400  1
  O  O8  1  0.56054300  0.82290300  0.08341400  1
  O  O9  1  0.17709700  0.73764100  0.08341400  1
  O  O10  1  0.26235900  0.43945700  0.41658600  1
  O  O11  1  0.56054300  0.82290300  0.41658600  1
  O  O12  1  0.17709700  0.73764100  0.41658600  1
  O  O13  1  0.73764100  0.56054300  0.91658600  1
  O  O14  1  0.43945700  0.17709700  0.91658600  1
  O  O15  1  0.82290300  0.26235900  0.91658600  1
  O  O16  1  0.04924300  0.90831100  0.75000000  1
  O  O17  1  0.09168900  0.14093300  0.75000000  1
  O  O18  1  0.85906700  0.95075700  0.75000000  1
  O  O19  1  0.95075700  0.09168900  0.25000000  1
  O  O20  1  0.90831100  0.85906700  0.25000000  1
  O  O21  1  0.14093300  0.04924300  0.25000000  1
loop_
_geom_bond_atom_site_label_1
_geom_bond_atom_site_label_2
_geom_bond_distance
_geom_bond_site_symmetry_2
Ba0 O6 2.786594 1_455
Ba0 O12 2.786594 1_545
Ba0 O10 2.786599 1_555
Ba0 O4 2.786599 1_445
Ba0 O11 2.786600 1_445
Ba0 O5 2.786600 1_555
Ba0 O16 2.986754 1_545
Ba0 O19 2.986754 1_455
Ba0 O20 2.986756 1_445
Ba0 O17 2.986756 1_555
Ba0 O21 2.986756 1_555
Ba0 O18 2.986756 1_445
Ba1 O15 2.786594 1_454
Ba1 O9 2.786594 1_545
Ba1 O13 2.786599 1_444
Ba1 O7 2.786599 1_555
Ba1 O8 2.786600 1_445
Ba1 O14 2.786600 1_554
Ba1 O16 2.986754 1_544
Ba1 O19 2.986754 1_455
Ba1 O20 2.986756 1_445
Ba1 O17 2.986756 1_554
Ba1 O18 2.986756 1_444
Ba1 O21 2.986756 1_555
Cl0 O0 1.444559 1_555
Cl0 O5 1.468854 1_555
Cl0 O4 1.468854 1_555
Cl0 O6 1.468854 1_555
Cl1 O1 1.444559 1_554
Cl1 O8 1.468854 1_555
Cl1 O7 1.468854 1_555
Cl1 O9 1.468854 1_555
Cl2 O2 1.444559 1_555
Cl2 O11 1.468854 1_555
Cl2 O10 1.468854 1_555
Cl2 O12 1.468854 1_555
Cl3 O3 1.444559 1_556
Cl3 O14 1.468854 1_555
Cl3 O13 1.468854 1_555
Cl3 O15 1.468854 1_555
O16 O17 1.466630 1_565
O16 O18 1.466630 1_455
O17 O18 1.466630 1_445
O19 O20 1.466630 1_545
O19 O21 1.466630 1_655
O20 O21 1.466630 1_665
