# generated using pymatgen
data_KFeP4(HO3)4
_symmetry_space_group_name_H-M   'P 1'
_cell_length_a   7.58763600
_cell_length_b   5.31642200
_cell_length_c   16.47718897
_cell_angle_alpha   84.58647043
_cell_angle_beta   90.00000000
_cell_angle_gamma   90.00000000
_symmetry_Int_Tables_number   1
_chemical_formula_structural   KFeP4(HO3)4
_chemical_formula_sum   'K2 Fe2 P8 H8 O24'
_cell_volume   661.70992254
_cell_formula_units_Z   2
loop_
 _symmetry_equiv_pos_site_id
 _symmetry_equiv_pos_as_xyz
  1  'x, y, z'
loop_
 _atom_site_type_symbol
 _atom_site_label
 _atom_site_symmetry_multiplicity
 _atom_site_fract_x
 _atom_site_fract_y
 _atom_site_fract_z
 _atom_site_occupancy
  K  K0  1  0.50000000  0.50000000  0.50000000  1
  K  K1  1  0.00000000  0.50000000  0.00000000  1
  Fe  Fe0  1  0.50000000  0.50000000  0.00000000  1
  Fe  Fe1  1  0.00000000  0.50000000  0.50000000  1
  P  P0  1  0.71124000  0.02544700  0.91579700  1
  P  P1  1  0.21124000  0.97455300  0.58420300  1
  P  P2  1  0.28876000  0.97455300  0.08420300  1
  P  P3  1  0.78876000  0.02544700  0.41579700  1
  P  P4  1  0.71240000  0.40095100  0.17948800  1
  P  P5  1  0.21240000  0.59904900  0.32051200  1
  P  P6  1  0.28760000  0.59904900  0.82051200  1
  P  P7  1  0.78760000  0.40095100  0.67948800  1
  H  H0  1  0.61115800  0.09333400  0.84548000  1
  H  H1  1  0.11115800  0.90666600  0.65452000  1
  H  H2  1  0.38884200  0.90666600  0.15452000  1
  H  H3  1  0.88884200  0.09333400  0.34548000  1
  H  H4  1  0.60553000  0.19175500  0.20505400  1
  H  H5  1  0.10553000  0.80824500  0.29494600  1
  H  H6  1  0.39447000  0.80824500  0.79494600  1
  H  H7  1  0.89447000  0.19175500  0.70505400  1
  O  O0  1  0.66985100  0.21497700  0.97917400  1
  O  O1  1  0.16985100  0.78502300  0.52082600  1
  O  O2  1  0.33014900  0.78502300  0.02082600  1
  O  O3  1  0.83014900  0.21497700  0.47917400  1
  O  O4  1  0.67304000  0.75002600  0.94470800  1
  O  O5  1  0.17304000  0.24997400  0.55529200  1
  O  O6  1  0.32696000  0.24997400  0.05529200  1
  O  O7  1  0.82696000  0.75002600  0.44470800  1
  O  O8  1  0.91123400  0.06918900  0.90147200  1
  O  O9  1  0.41123400  0.93081100  0.59852800  1
  O  O10  1  0.08876600  0.93081100  0.09852800  1
  O  O11  1  0.58876600  0.06918900  0.40147200  1
  O  O12  1  0.62606000  0.53635700  0.10351200  1
  O  O13  1  0.12606000  0.46364300  0.39648800  1
  O  O14  1  0.37394000  0.46364300  0.89648800  1
  O  O15  1  0.87394000  0.53635700  0.60351200  1
  O  O16  1  0.74268300  0.57188200  0.24886800  1
  O  O17  1  0.24268300  0.42811800  0.25113200  1
  O  O18  1  0.25731700  0.42811800  0.75113200  1
  O  O19  1  0.75731700  0.57188200  0.74886800  1
  O  O20  1  0.90623900  0.32100500  0.16776100  1
  O  O21  1  0.40623900  0.67899500  0.33223900  1
  O  O22  1  0.09376100  0.67899500  0.83223900  1
  O  O23  1  0.59376100  0.32100500  0.66776100  1
loop_
_geom_bond_atom_site_label_1
_geom_bond_atom_site_label_2
_geom_bond_distance
_geom_bond_site_symmetry_2
K0 O5 2.919425 1_555
K0 O7 2.919425 1_555
K0 O23 2.925119 1_555
K0 O21 2.925119 1_555
K0 O3 2.964336 1_555
K0 O1 2.964336 1_555
K0 O9 3.006107 1_555
K0 O11 3.006107 1_555
K1 O4 2.919425 1_454
K1 O6 2.919425 1_555
K1 O22 2.925119 1_554
K1 O20 2.925119 1_455
K1 O2 2.964336 1_555
K1 O0 2.964336 1_454
K1 O10 3.006107 1_555
K1 O8 3.006107 1_454
Fe0 O12 1.980777 1_555
Fe0 O14 1.980777 1_554
Fe0 O6 2.022940 1_555
Fe0 O4 2.022940 1_554
Fe0 O0 2.042776 1_554
Fe0 O2 2.042776 1_555
Fe1 O15 1.980777 1_455
Fe1 O13 1.980777 1_555
Fe1 O5 2.022940 1_555
Fe1 O7 2.022940 1_455
Fe1 O1 2.042776 1_555
Fe1 O3 2.042776 1_455
H0 P0 1.403724 1_555
H1 P1 1.403724 1_555
H2 P2 1.403724 1_555
H3 P3 1.403724 1_555
H4 P4 1.408378 1_555
H5 P5 1.408378 1_555
H6 P6 1.408378 1_555
H7 P7 1.408378 1_555
O0 P0 1.550154 1_555
O1 P1 1.550154 1_555
O2 P2 1.550154 1_555
O3 P3 1.550154 1_555
O4 P0 1.524260 1_565
O5 P1 1.524260 1_545
O6 P2 1.524260 1_545
O7 P3 1.524260 1_565
O8 P0 1.549899 1_555
O9 P1 1.549899 1_555
O10 P2 1.549899 1_555
O11 P3 1.549899 1_555
O12 P4 1.531188 1_555
O13 P5 1.531188 1_555
O14 P6 1.531188 1_555
O15 P7 1.531188 1_555
O16 P4 1.543213 1_555
O17 P5 1.543213 1_555
O18 P6 1.543213 1_555
O19 P7 1.543213 1_555
O20 P4 1.548120 1_555
O21 P5 1.548120 1_555
O22 P6 1.548120 1_555
O23 P7 1.548120 1_555
