# generated using pymatgen
data_Nd2ScNbO7
_symmetry_space_group_name_H-M   'P 1'
_cell_length_a   7.52957770
_cell_length_b   7.52957770
_cell_length_c   7.52957770
_cell_angle_alpha   120.51102072
_cell_angle_beta   119.55714912
_cell_angle_gamma   89.94296038
_symmetry_Int_Tables_number   1
_chemical_formula_structural   Nd2ScNbO7
_chemical_formula_sum   'Nd4 Sc2 Nb2 O14'
_cell_volume   301.67210938
_cell_formula_units_Z   2
loop_
 _symmetry_equiv_pos_site_id
 _symmetry_equiv_pos_as_xyz
  1  'x, y, z'
loop_
 _atom_site_type_symbol
 _atom_site_label
 _atom_site_symmetry_multiplicity
 _atom_site_fract_x
 _atom_site_fract_y
 _atom_site_fract_z
 _atom_site_occupancy
  Nd  Nd0  1  0.50000000  0.50000000  0.50000000  1
  Nd  Nd1  1  0.50000000  0.00000000  0.00000000  1
  Nd  Nd2  1  0.50000000  0.50000000  0.00000000  1
  Nd  Nd3  1  0.00000000  0.50000000  0.50000000  1
  Sc  Sc0  1  0.00000000  0.00000000  0.50000000  1
  Sc  Sc1  1  0.00000000  0.50000000  0.00000000  1
  Nb  Nb0  1  0.00000000  0.00000000  0.00000000  1
  Nb  Nb1  1  0.50000000  0.00000000  0.50000000  1
  O  O0  1  0.37737600  0.62737600  0.75000000  1
  O  O1  1  0.62262400  0.37262400  0.25000000  1
  O  O2  1  0.32089600  0.07089600  0.25000000  1
  O  O3  1  0.90673900  0.65673900  0.25000000  1
  O  O4  1  0.33977900  0.67791500  0.26646200  1
  O  O5  1  0.91145300  0.07331700  0.23353800  1
  O  O6  1  0.33977900  0.07331700  0.66186400  1
  O  O7  1  0.91145300  0.67791500  0.83813600  1
  O  O8  1  0.67910400  0.92910400  0.75000000  1
  O  O9  1  0.09326100  0.34326100  0.75000000  1
  O  O10  1  0.66022100  0.32208500  0.73353800  1
  O  O11  1  0.08854700  0.92668300  0.76646200  1
  O  O12  1  0.66022100  0.92668300  0.33813600  1
  O  O13  1  0.08854700  0.32208500  0.16186400  1
loop_
_geom_bond_atom_site_label_1
_geom_bond_atom_site_label_2
_geom_bond_distance
_geom_bond_site_symmetry_2
Nd0 O1 2.279364 1_555
Nd0 O0 2.279364 1_555
Nd0 O4 2.576417 1_555
Nd0 O10 2.576417 1_555
Nd0 O7 2.576417 1_555
Nd0 O13 2.576417 1_555
Nd0 O8 2.670160 1_555
Nd0 O2 2.670160 1_555
Nd1 O1 2.279364 1_555
Nd1 O0 2.279364 1_544
Nd1 O11 2.576417 1_544
Nd1 O5 2.576417 1_555
Nd1 O6 2.576417 1_554
Nd1 O12 2.576417 1_545
Nd1 O8 2.670160 1_544
Nd1 O2 2.670160 1_555
Nd2 O0 2.330768 1_554
Nd2 O1 2.330768 1_555
Nd2 O3 2.525741 1_555
Nd2 O9 2.525741 1_554
Nd2 O12 2.632680 1_555
Nd2 O4 2.632680 1_555
Nd2 O6 2.632680 1_554
Nd2 O10 2.632680 1_554
Nd3 O0 2.330768 1_555
Nd3 O1 2.330768 1_455
Nd3 O3 2.525741 1_455
Nd3 O9 2.525741 1_555
Nd3 O11 2.632680 1_555
Nd3 O7 2.632680 1_455
Nd3 O5 2.632680 1_455
Nd3 O13 2.632680 1_555
Nb0 O11 2.002904 1_544
Nb0 O5 2.002904 1_455
Nb0 O13 2.002904 1_555
Nb0 O7 2.002904 1_444
Nb0 O2 2.039961 1_555
Nb0 O8 2.039961 1_444
Nb1 O12 2.002904 1_545
Nb1 O6 2.002904 1_555
Nb1 O10 2.002904 1_555
Nb1 O4 2.002904 1_545
Nb1 O2 2.039961 1_555
Nb1 O8 2.039961 1_545
O3 Sc0 2.115658 1_665
O3 Sc1 2.115658 1_655
O4 Sc1 2.139837 1_555
O5 Sc0 2.139837 1_655
O6 Sc0 2.139837 1_555
O7 Sc1 2.139837 1_656
O9 Sc1 2.115658 1_556
O9 Sc0 2.115658 1_555
O10 Sc1 2.139837 1_656
O11 Sc0 2.139837 1_565
O12 Sc0 2.139837 1_665
O13 Sc1 2.139837 1_555
