# generated using pymatgen
data_Tb6Al3Si
_symmetry_space_group_name_H-M   'P 1'
_cell_length_a   11.24095486
_cell_length_b   11.24095486
_cell_length_c   11.24095486
_cell_angle_alpha   117.72690924
_cell_angle_beta   117.72690924
_cell_angle_gamma   93.98437066
_symmetry_Int_Tables_number   1
_chemical_formula_structural   Tb6Al3Si
_chemical_formula_sum   'Tb24 Al12 Si4'
_cell_volume   1036.16970073
_cell_formula_units_Z   4
loop_
 _symmetry_equiv_pos_site_id
 _symmetry_equiv_pos_as_xyz
  1  'x, y, z'
loop_
 _atom_site_type_symbol
 _atom_site_label
 _atom_site_symmetry_multiplicity
 _atom_site_fract_x
 _atom_site_fract_y
 _atom_site_fract_z
 _atom_site_occupancy
  Tb  Tb0  1  0.33006700  0.07013400  0.13177600  1
  Tb  Tb1  1  0.56164200  0.42986600  0.25993300  1
  Tb  Tb2  1  0.19829100  0.33006700  0.25993300  1
  Tb  Tb3  1  0.07013400  0.93835800  0.74006700  1
  Tb  Tb4  1  0.66893300  0.83106700  0.50000000  1
  Tb  Tb5  1  0.83106700  0.33106700  0.16213400  1
  Tb  Tb6  1  0.16893300  0.66893300  0.83786600  1
  Tb  Tb7  1  0.33106700  0.16893300  0.50000000  1
  Tb  Tb8  1  0.93835800  0.19829100  0.86822400  1
  Tb  Tb9  1  0.42986600  0.16993300  0.86822400  1
  Tb  Tb10  1  0.30170900  0.56164200  0.13177600  1
  Tb  Tb11  1  0.16993300  0.30170900  0.74006700  1
  Tb  Tb12  1  0.92986600  0.06164200  0.25993300  1
  Tb  Tb13  1  0.80170900  0.66993300  0.74006700  1
  Tb  Tb14  1  0.43835800  0.57013400  0.74006700  1
  Tb  Tb15  1  0.66993300  0.92986600  0.86822400  1
  Tb  Tb16  1  0.06164200  0.80170900  0.13177600  1
  Tb  Tb17  1  0.57013400  0.83006700  0.13177600  1
  Tb  Tb18  1  0.69829100  0.43835800  0.86822400  1
  Tb  Tb19  1  0.83006700  0.69829100  0.25993300  1
  Tb  Tb20  1  0.14844500  0.64844500  0.50000000  1
  Tb  Tb21  1  0.64844500  0.14844500  0.50000000  1
  Tb  Tb22  1  0.35155500  0.85155500  0.50000000  1
  Tb  Tb23  1  0.85155500  0.35155500  0.50000000  1
  Al  Al0  1  0.11959500  0.38040500  0.50000000  1
  Al  Al1  1  0.38040500  0.88040500  0.26081000  1
  Al  Al2  1  0.61959500  0.11959500  0.73919000  1
  Al  Al3  1  0.88040500  0.61959500  0.50000000  1
  Al  Al4  1  0.11725200  0.97361300  0.50000000  1
  Al  Al5  1  0.47361300  0.61725200  0.50000000  1
  Al  Al6  1  0.52638700  0.38274800  0.50000000  1
  Al  Al7  1  0.61725200  0.11725200  0.14363900  1
  Al  Al8  1  0.97361300  0.47361300  0.85636100  1
  Al  Al9  1  0.38274800  0.88274800  0.85636100  1
  Al  Al10  1  0.02638700  0.52638700  0.14363900  1
  Al  Al11  1  0.88274800  0.02638700  0.50000000  1
  Si  Si0  1  0.00000000  0.00000000  0.00000000  1
  Si  Si1  1  0.50000000  0.50000000  0.00000000  1
  Si  Si2  1  0.75000000  0.75000000  0.00000000  1
  Si  Si3  1  0.25000000  0.25000000  0.00000000  1
loop_
_geom_bond_atom_site_label_1
_geom_bond_atom_site_label_2
_geom_bond_distance
_geom_bond_site_symmetry_2
Al0 Tb23 3.007940 1_455
Al0 Tb20 3.007940 1_555
Al0 Tb11 3.042219 1_555
Al0 Tb14 3.042219 1_555
Al0 Tb12 3.042219 1_455
Al0 Tb2 3.042219 1_555
Al0 Tb6 3.402803 1_555
Al0 Tb5 3.402803 1_455
Al0 Tb7 3.476629 1_555
Al1 Tb21 3.007940 1_565
Al1 Tb22 3.007940 1_555
Al1 Tb0 3.042219 1_565
Al1 Tb10 3.042219 1_555
Al1 Tb17 3.042219 1_555
Al1 Tb16 3.042219 1_555
Al1 Tb7 3.402803 1_565
Al1 Tb4 3.402803 1_555
Al1 Tb6 3.476629 1_554
Al2 Tb22 3.007940 1_545
Al2 Tb21 3.007940 1_555
Al2 Tb8 3.042219 1_555
Al2 Tb15 3.042219 1_545
Al2 Tb18 3.042219 1_555
Al2 Tb9 3.042219 1_555
Al2 Tb4 3.402803 1_545
Al2 Tb7 3.402803 1_555
Al2 Tb5 3.476629 1_556
Al3 Tb20 3.007940 1_655
Al3 Tb23 3.007940 1_555
Al3 Tb13 3.042219 1_555
Al3 Tb3 3.042219 1_655
Al3 Tb1 3.042219 1_555
Al3 Tb19 3.042219 1_555
Al3 Tb6 3.402803 1_655
Al3 Tb5 3.402803 1_555
Al3 Tb4 3.476629 1_555
Al4 Tb22 3.053122 1_555
Al4 Tb7 3.140697 1_565
Al4 Tb3 3.164789 1_555
Al4 Tb19 3.164789 1_455
Al4 Tb11 3.191167 1_565
Al4 Tb12 3.191167 1_465
Al4 Tb16 3.352536 1_555
Al4 Tb9 3.352536 1_565
Al4 Tb20 3.696152 1_555
Al5 Al6 2.741896 1_555
Al5 Tb22 3.053122 1_555
Al5 Tb4 3.140697 1_555
Al5 Tb14 3.164789 1_555
Al5 Tb2 3.164789 1_555
Al5 Tb13 3.191167 1_555
Al5 Tb1 3.191167 1_555
Al5 Tb10 3.352536 1_555
Al5 Tb15 3.352536 1_555
Al5 Tb20 3.696152 1_555
Al6 Tb21 3.053122 1_555
Al6 Tb7 3.140697 1_555
Al6 Tb13 3.164789 1_555
Al6 Tb1 3.164789 1_555
Al6 Tb14 3.191167 1_555
Al6 Tb2 3.191167 1_555
Al6 Tb0 3.352536 1_555
Al6 Tb18 3.352536 1_555
Al6 Tb23 3.696152 1_555
Al7 Al9 2.741896 1_544
Al7 Tb23 3.053122 1_555
Al7 Tb5 3.140697 1_555
Al7 Tb0 3.164789 1_555
Al7 Tb17 3.164789 1_545
Al7 Tb15 3.191167 1_544
Al7 Tb9 3.191167 1_554
Al7 Tb1 3.352536 1_555
Al7 Tb12 3.352536 1_555
Al7 Tb21 3.696152 1_555
Al8 Tb23 3.053122 1_555
Al8 Tb6 3.140697 1_655
Al8 Tb18 3.164789 1_555
Al8 Tb8 3.164789 1_555
Al8 Tb10 3.191167 1_656
Al8 Tb16 3.191167 1_656
Al8 Tb11 3.352536 1_655
Al8 Tb13 3.352536 1_555
Al8 Tb21 3.696152 1_555
Al9 Tb20 3.053122 1_555
Al9 Tb6 3.140697 1_555
Al9 Tb9 3.164789 1_565
Al9 Tb15 3.164789 1_555
Al9 Tb0 3.191167 1_566
Al9 Tb17 3.191167 1_556
Al9 Tb3 3.352536 1_555
Al9 Tb14 3.352536 1_555
Al9 Tb22 3.696152 1_555
Al10 Al8 2.741896 1_454
Al10 Tb20 3.053122 1_555
Al10 Tb5 3.140697 1_455
Al10 Tb16 3.164789 1_555
Al10 Tb10 3.164789 1_555
Al10 Tb18 3.191167 1_454
Al10 Tb8 3.191167 1_454
Al10 Tb19 3.352536 1_455
Al10 Tb2 3.352536 1_555
Al10 Tb22 3.696152 1_555
Al11 Al4 2.741896 1_645
Al11 Tb21 3.053122 1_555
Al11 Tb4 3.140697 1_545
Al11 Tb11 3.164789 1_655
Al11 Tb12 3.164789 1_555
Al11 Tb3 3.191167 1_645
Al11 Tb19 3.191167 1_545
Al11 Tb17 3.352536 1_545
Al11 Tb8 3.352536 1_555
Al11 Tb23 3.696152 1_555
Si0 Tb12 3.158257 1_455
Si0 Tb2 3.158257 1_555
Si0 Tb16 3.158257 1_545
Si0 Tb0 3.158257 1_555
Si0 Tb15 3.158257 1_444
Si0 Tb13 3.158257 1_444
Si0 Tb8 3.158257 1_454
Si0 Tb3 3.158257 1_544
Si1 Tb1 3.158257 1_555
Si1 Tb19 3.158257 1_555
Si1 Tb9 3.158257 1_554
Si1 Tb17 3.158257 1_555
Si1 Tb10 3.158257 1_555
Si1 Tb18 3.158257 1_554
Si1 Tb11 3.158257 1_554
Si1 Tb14 3.158257 1_554
Si2 Tb19 2.981843 1_555
Si2 Tb16 2.981843 1_655
Si2 Tb12 2.981843 1_565
Si2 Tb17 2.981843 1_555
Si2 Tb15 2.981843 1_554
Si2 Tb14 2.981843 1_554
Si2 Tb13 2.981843 1_554
Si2 Tb18 2.981843 1_554
Si3 Tb2 2.981843 1_555
Si3 Tb9 2.981843 1_554
Si3 Tb1 2.981843 1_555
Si3 Tb10 2.981843 1_555
Si3 Tb0 2.981843 1_555
Si3 Tb3 2.981843 1_544
Si3 Tb8 2.981843 1_454
Si3 Tb11 2.981843 1_554
