# generated using pymatgen
data_V3ReB4
_symmetry_space_group_name_H-M   'P 1'
_cell_length_a   2.98299078
_cell_length_b   3.05247170
_cell_length_c   8.10220034
_cell_angle_alpha   90.00000000
_cell_angle_beta   90.00000000
_cell_angle_gamma   90.00000000
_symmetry_Int_Tables_number   1
_chemical_formula_structural   V3ReB4
_chemical_formula_sum   'V3 Re1 B4'
_cell_volume   73.77454418
_cell_formula_units_Z   1
loop_
 _symmetry_equiv_pos_site_id
 _symmetry_equiv_pos_as_xyz
  1  'x, y, z'
loop_
 _atom_site_type_symbol
 _atom_site_label
 _atom_site_symmetry_multiplicity
 _atom_site_fract_x
 _atom_site_fract_y
 _atom_site_fract_z
 _atom_site_occupancy
  V  V0  1  -0.00000000  0.50000000  0.64556541  1
  V  V1  1  0.50000000  0.50000000  0.36018677  1
  V  V2  1  0.50000000  -0.00000000  0.85217424  1
  Re  Re0  1  0.00000000  -0.00000000  0.15073476  1
  B  B0  1  0.00000000  -0.00000000  0.44144666  1
  B  B1  1  -0.00000000  0.50000000  0.92919260  1
  B  B2  1  0.50000000  0.50000000  0.05556606  1
  B  B3  1  0.50000000  -0.00000000  0.56513250  1
loop_
_geom_bond_atom_site_label_1
_geom_bond_atom_site_label_2
_geom_bond_distance
_geom_bond_site_symmetry_2
Re0 V1 2.726507 1_445
Re0 V1 2.726507 1_545
Re0 V1 2.726507 1_555
Re0 V1 2.726507 1_455
B0 B3 1.796891 1_455
B0 B3 1.796891 1_555
B0 V1 2.233254 1_445
B0 V1 2.233254 1_555
B0 V1 2.233254 1_455
B0 V1 2.233254 1_545
B0 V0 2.250441 1_545
B0 V0 2.250441 1_555
B0 Re0 2.355406 1_555
B1 B2 1.809126 1_456
B1 B2 1.809126 1_556
B1 V2 2.223365 1_565
B1 V2 2.223365 1_555
B1 V2 2.223365 1_465
B1 V2 2.223365 1_455
B1 V0 2.298004 1_555
B1 Re0 2.356129 1_566
B1 Re0 2.356129 1_556
B2 V2 2.246117 1_564
B2 V2 2.246117 1_554
B2 Re0 2.269033 1_665
B2 Re0 2.269033 1_565
B2 Re0 2.269033 1_555
B2 Re0 2.269033 1_655
B2 V1 2.468098 1_555
B3 V0 2.231288 1_555
B3 V0 2.231288 1_545
B3 V0 2.231288 1_645
B3 V0 2.231288 1_655
B3 V1 2.255370 1_545
B3 V1 2.255370 1_555
B3 V2 2.325670 1_555
