# generated using pymatgen
data_Y3Ni11Ge4
_symmetry_space_group_name_H-M   'P 1'
_cell_length_a   8.32156415
_cell_length_b   8.32156415
_cell_length_c   8.56056900
_cell_angle_alpha   90.00000000
_cell_angle_beta   90.00000000
_cell_angle_gamma   120.00000122
_symmetry_Int_Tables_number   1
_chemical_formula_structural   Y3Ni11Ge4
_chemical_formula_sum   'Y6 Ni22 Ge8'
_cell_volume   513.38501697
_cell_formula_units_Z   2
loop_
 _symmetry_equiv_pos_site_id
 _symmetry_equiv_pos_as_xyz
  1  'x, y, z'
loop_
 _atom_site_type_symbol
 _atom_site_label
 _atom_site_symmetry_multiplicity
 _atom_site_fract_x
 _atom_site_fract_y
 _atom_site_fract_z
 _atom_site_occupancy
  Y  Y0  1  0.80447000  0.19553000  0.75000000  1
  Y  Y1  1  0.19553000  0.80447000  0.25000000  1
  Y  Y2  1  0.39106100  0.19553000  0.75000000  1
  Y  Y3  1  0.60893900  0.80447000  0.25000000  1
  Y  Y4  1  0.80447000  0.60893900  0.75000000  1
  Y  Y5  1  0.19553000  0.39106100  0.25000000  1
  Ni  Ni0  1  0.84167000  0.15833000  0.40437300  1
  Ni  Ni1  1  0.15833000  0.84167000  0.59562700  1
  Ni  Ni2  1  0.31666000  0.15833000  0.40437300  1
  Ni  Ni3  1  0.15833000  0.84167000  0.90437300  1
  Ni  Ni4  1  0.68334000  0.84167000  0.59562700  1
  Ni  Ni5  1  0.84167000  0.15833000  0.09562700  1
  Ni  Ni6  1  0.84167000  0.68334000  0.40437300  1
  Ni  Ni7  1  0.68334000  0.84167000  0.90437300  1
  Ni  Ni8  1  0.15833000  0.31666000  0.59562700  1
  Ni  Ni9  1  0.31666000  0.15833000  0.09562700  1
  Ni  Ni10  1  0.15833000  0.31666000  0.90437300  1
  Ni  Ni11  1  0.84167000  0.68334000  0.09562700  1
  Ni  Ni12  1  0.43399900  0.56600100  0.75000000  1
  Ni  Ni13  1  0.56600100  0.43399900  0.25000000  1
  Ni  Ni14  1  0.13200100  0.56600100  0.75000000  1
  Ni  Ni15  1  0.86799900  0.43399900  0.25000000  1
  Ni  Ni16  1  0.43399900  0.86799900  0.75000000  1
  Ni  Ni17  1  0.56600100  0.13200100  0.25000000  1
  Ni  Ni18  1  0.66666700  0.33333300  0.00588400  1
  Ni  Ni19  1  0.33333300  0.66666700  0.99411600  1
  Ni  Ni20  1  0.33333300  0.66666700  0.50588400  1
  Ni  Ni21  1  0.66666700  0.33333300  0.49411600  1
  Ge  Ge0  1  0.50000000  0.50000000  0.00000000  1
  Ge  Ge1  1  0.00000000  0.50000000  0.00000000  1
  Ge  Ge2  1  0.50000000  0.50000000  0.50000000  1
  Ge  Ge3  1  0.50000000  0.00000000  0.00000000  1
  Ge  Ge4  1  0.00000000  0.50000000  0.50000000  1
  Ge  Ge5  1  0.50000000  0.00000000  0.50000000  1
  Ge  Ge6  1  0.00000000  0.00000000  0.75000000  1
  Ge  Ge7  1  0.00000000  0.00000000  0.25000000  1
loop_
_geom_bond_atom_site_label_1
_geom_bond_atom_site_label_2
_geom_bond_distance
_geom_bond_site_symmetry_2
Ni0 Ni15 2.560124 1_555
Ni0 Ni17 2.560124 1_555
Ni0 Ni21 2.636784 1_555
Ni0 Ni5 2.643041 1_555
Ni0 Ni4 2.808630 1_545
Ni0 Ni8 2.808630 1_655
Ni0 Y5 2.909527 1_655
Ni0 Y3 2.909527 1_545
Ni0 Y0 3.006954 1_555
Ni1 Ni16 2.560124 1_555
Ni1 Ni14 2.560124 1_555
Ni1 Ni20 2.636784 1_555
Ni1 Ni3 2.643041 1_555
Ni1 Ni6 2.808630 1_455
Ni1 Ni2 2.808630 1_565
Ni1 Y2 2.909527 1_565
Ni1 Y4 2.909527 1_455
Ni1 Y1 3.006954 1_555
Ni2 Ni21 2.636790 1_555
Ni2 Ni9 2.643041 1_555
Ni2 Ni8 2.808630 1_555
Ni2 Y1 2.909525 1_545
Ni2 Y5 2.909532 1_555
Ni2 Y2 3.006955 1_555
Ni3 Ni9 2.808630 1_566
Ni3 Y2 2.909527 1_565
Ni3 Y4 2.909527 1_455
Ni3 Y1 3.006954 1_556
Ni4 Ni7 2.643041 1_555
Ni4 Ni6 2.808630 1_555
Ni4 Y0 2.909525 1_565
Ni4 Y4 2.909532 1_555
Ni4 Y3 3.006955 1_555
Ni5 Ni7 2.808630 1_544
Ni5 Y5 2.909527 1_655
Ni5 Y3 2.909527 1_545
Ni5 Y0 3.006954 1_554
Ni6 Y1 2.909525 1_655
Ni6 Y3 2.909532 1_555
Ni6 Y4 3.006955 1_555
Ni7 Y0 2.909525 1_565
Ni7 Y4 2.909532 1_555
Ni7 Y3 3.006955 1_556
Ni8 Y0 2.909525 1_455
Ni8 Y2 2.909532 1_555
Ni8 Y5 3.006955 1_555
Ni9 Y1 2.909525 1_545
Ni9 Y5 2.909532 1_555
Ni9 Y2 3.006955 1_554
Ni10 Ni12 2.560127 1_555
Ni10 Ni14 2.560131 1_555
Ni10 Ni19 2.636790 1_555
Ni10 Ni8 2.643041 1_555
Ni10 Ni5 2.808630 1_456
Ni10 Ni9 2.808630 1_556
Ni10 Y0 2.909525 1_455
Ni10 Y2 2.909532 1_555
Ni10 Y5 3.006955 1_556
Ni11 Ni13 2.560127 1_555
Ni11 Ni15 2.560131 1_555
Ni11 Ni18 2.636790 1_555
Ni11 Ni6 2.643041 1_555
Ni11 Ni3 2.808630 1_654
Ni11 Ni7 2.808630 1_554
Ni11 Y1 2.909525 1_655
Ni11 Y3 2.909532 1_555
Ni11 Y4 3.006955 1_554
Ni12 Ni14 2.513096 1_555
Ni12 Ni16 2.513096 1_555
Ni12 Ni20 2.544084 1_555
Ni12 Ni19 2.544084 1_555
Ni12 Ni8 2.560127 1_555
Ni12 Ni4 2.560127 1_555
Ni12 Ni7 2.560127 1_555
Ni12 Y2 2.920681 1_555
Ni12 Y4 2.920681 1_555
Ni13 Ni17 2.513096 1_555
Ni13 Ni15 2.513096 1_555
Ni13 Ni21 2.544084 1_555
Ni13 Ni18 2.544084 1_555
Ni13 Ni2 2.560127 1_555
Ni13 Ni9 2.560127 1_555
Ni13 Ni6 2.560127 1_555
Ni13 Y5 2.920681 1_555
Ni13 Y3 2.920681 1_555
Ni14 Ni16 2.513096 1_555
Ni14 Ni19 2.544084 1_555
Ni14 Ni20 2.544084 1_555
Ni14 Ni3 2.560124 1_555
Ni14 Ni8 2.560131 1_555
Ni14 Y4 2.920665 1_455
Ni14 Y0 2.920674 1_455
Ni15 Ni17 2.513096 1_555
Ni15 Ni21 2.544084 1_555
Ni15 Ni18 2.544084 1_555
Ni15 Ni5 2.560124 1_555
Ni15 Ni6 2.560131 1_555
Ni15 Y5 2.920665 1_655
Ni15 Y1 2.920674 1_655
Ni16 Ni19 2.544084 1_555
Ni16 Ni20 2.544084 1_555
Ni16 Ni3 2.560124 1_555
Ni16 Ni4 2.560131 1_555
Ni16 Ni7 2.560131 1_555
Ni16 Y2 2.920665 1_565
Ni16 Y0 2.920674 1_565
Ni17 Ni21 2.544084 1_555
Ni17 Ni18 2.544084 1_555
Ni17 Ni5 2.560124 1_555
Ni17 Ni2 2.560131 1_555
Ni17 Ni9 2.560131 1_555
Ni17 Y3 2.920665 1_545
Ni17 Y1 2.920674 1_545
Ni18 Ni5 2.636784 1_555
Ni18 Ni9 2.636790 1_555
Ni18 Y4 2.956917 1_554
Ni18 Y2 2.956917 1_554
Ni18 Y0 2.956917 1_554
Ni19 Ni3 2.636784 1_555
Ni19 Ni7 2.636790 1_555
Ni19 Y3 2.956917 1_556
Ni19 Y5 2.956917 1_556
Ni19 Y1 2.956917 1_556
Ni20 Ni8 2.636790 1_555
Ni20 Ni4 2.636790 1_555
Ni20 Y3 2.956917 1_555
Ni20 Y5 2.956917 1_555
Ni20 Y1 2.956917 1_555
Ni21 Ni6 2.636790 1_555
Ni21 Y4 2.956917 1_555
Ni21 Y2 2.956917 1_555
Ni21 Y0 2.956917 1_555
Ge0 Ni12 2.342045 1_554
Ge0 Ni13 2.342045 1_555
Ge0 Ni18 2.402761 1_555
Ge0 Ni19 2.402761 1_554
Ge0 Ni9 2.596908 1_555
Ge0 Ni11 2.596908 1_555
Ge0 Ni10 2.596908 1_554
Ge0 Ni7 2.596908 1_554
Ge0 Y3 3.086198 1_555
Ge0 Y5 3.086198 1_555
Ge0 Y4 3.086198 1_554
Ge0 Y2 3.086198 1_554
Ge1 Ni14 2.342042 1_554
Ge1 Ni15 2.342042 1_455
Ge1 Ni18 2.402754 1_455
Ge1 Ni19 2.402754 1_554
Ge1 Ni5 2.596908 1_455
Ge1 Ni3 2.596908 1_554
Ge1 Ni11 2.596908 1_455
Ge1 Ni10 2.596908 1_554
Ge1 Y5 3.086192 1_555
Ge1 Y4 3.086192 1_454
Ge1 Y0 3.086197 1_454
Ge1 Y1 3.086197 1_555
Ge2 Ni12 2.342045 1_555
Ge2 Ni13 2.342045 1_555
Ge2 Ni21 2.402761 1_555
Ge2 Ni20 2.402761 1_555
Ge2 Ni2 2.596908 1_555
Ge2 Ni8 2.596908 1_555
Ge2 Ni4 2.596908 1_555
Ge2 Ni6 2.596908 1_555
Ge2 Y4 3.086198 1_555
Ge2 Y2 3.086198 1_555
Ge2 Y3 3.086198 1_555
Ge2 Y5 3.086198 1_555
Ge3 Ni17 2.342042 1_555
Ge3 Ni16 2.342042 1_544
Ge3 Ni18 2.402754 1_555
Ge3 Ni19 2.402754 1_544
Ge3 Ni5 2.596908 1_555
Ge3 Ni3 2.596908 1_544
Ge3 Ni9 2.596908 1_555
Ge3 Ni7 2.596908 1_544
Ge3 Y3 3.086192 1_545
Ge3 Y2 3.086192 1_554
Ge3 Y1 3.086197 1_545
Ge3 Y0 3.086197 1_554
Ge4 Ni14 2.342042 1_555
Ge4 Ni15 2.342042 1_455
Ge4 Ni21 2.402754 1_455
Ge4 Ni20 2.402754 1_555
Ge4 Ni1 2.596908 1_555
Ge4 Ni0 2.596908 1_455
Ge4 Ni8 2.596908 1_555
Ge4 Ni6 2.596908 1_455
Ge4 Y5 3.086192 1_555
Ge4 Y4 3.086192 1_455
Ge4 Y1 3.086197 1_555
Ge4 Y0 3.086197 1_455
Ge5 Ni16 2.342042 1_545
Ge5 Ni17 2.342042 1_555
Ge5 Ni20 2.402754 1_545
Ge5 Ni21 2.402754 1_555
Ge5 Ni0 2.596908 1_555
Ge5 Ni1 2.596908 1_545
Ge5 Ni2 2.596908 1_555
Ge5 Ni4 2.596908 1_545
Ge5 Y2 3.086192 1_555
Ge5 Y3 3.086192 1_545
Ge5 Y0 3.086197 1_555
Ge5 Y1 3.086197 1_545
Ge6 Ni7 2.637092 1_445
Ge6 Ni4 2.637092 1_445
Ge6 Ni8 2.637092 1_555
Ge6 Ni10 2.637092 1_555
Ge6 Ni1 2.637092 1_545
Ge6 Ni3 2.637092 1_545
Ge6 Y0 2.818247 1_455
Ge6 Y4 2.818254 1_445
Ge6 Y2 2.818254 1_555
Ge7 Ni6 2.637092 1_445
Ge7 Ni2 2.637092 1_555
Ge7 Ni11 2.637092 1_445
Ge7 Ni9 2.637092 1_555
Ge7 Ni0 2.637092 1_455
Ge7 Ni5 2.637092 1_455
Ge7 Y1 2.818247 1_545
Ge7 Y3 2.818254 1_445
Ge7 Y5 2.818254 1_555
