# generated using pymatgen
data_LiFe7(OF3)3
_symmetry_space_group_name_H-M   'P 1'
_cell_length_a   5.44956800
_cell_length_b   5.72286694
_cell_length_c   9.19480030
_cell_angle_alpha   105.74480737
_cell_angle_beta   88.95925558
_cell_angle_gamma   117.61620650
_symmetry_Int_Tables_number   1
_chemical_formula_structural   LiFe7(OF3)3
_chemical_formula_sum   'Li1 Fe7 O3 F9'
_cell_volume   242.60125760
_cell_formula_units_Z   1
loop_
 _symmetry_equiv_pos_site_id
 _symmetry_equiv_pos_as_xyz
  1  'x, y, z'
loop_
 _atom_site_type_symbol
 _atom_site_label
 _atom_site_symmetry_multiplicity
 _atom_site_fract_x
 _atom_site_fract_y
 _atom_site_fract_z
 _atom_site_occupancy
  Li  Li0  1  0.78913900  0.63357800  0.93189100  1
  Fe  Fe0  1  0.21615700  0.34494100  0.07990400  1
  Fe  Fe1  1  0.76068900  0.90386400  0.57619500  1
  Fe  Fe2  1  0.49464700  0.89005200  0.17153200  1
  Fe  Fe3  1  0.95812000  0.62820700  0.32460400  1
  Fe  Fe4  1  0.02493200  0.36572700  0.66537500  1
  Fe  Fe5  1  0.31505900  0.13889500  0.43576100  1
  Fe  Fe6  1  0.46435300  0.12352600  0.80876400  1
  O  O0  1  0.25308400  0.01209900  0.23322500  1
  O  O1  1  0.74384900  0.29349600  0.47266200  1
  O  O2  1  0.18622200  0.11571000  0.62623100  1
  F  F0  1  0.78881800  0.52848000  0.72266700  1
  F  F1  1  0.79365900  0.88278900  0.36209200  1
  F  F2  1  0.65738800  0.63524700  0.11640900  1
  F  F3  1  0.21650500  0.75699200  0.97301100  1
  F  F4  1  0.76050300  0.22371900  0.01526800  1
  F  F5  1  0.32159900  0.72492500  0.54313500  1
  F  F6  1  0.30765900  0.36604200  0.87240800  1
  F  F7  1  0.72964100  0.95757300  0.79540700  1
  F  F8  1  0.21797900  0.47413700  0.27346200  1
loop_
_geom_bond_atom_site_label_1
_geom_bond_atom_site_label_2
_geom_bond_distance
_geom_bond_site_symmetry_2
Fe1 O2 2.046632 1_665
Fe2 O0 1.775625 1_565
Fe3 O1 2.483908 1_555
Fe4 O2 1.955584 1_555
Fe4 O1 2.184289 1_455
Fe5 O0 1.780718 1_555
Fe5 O2 1.890186 1_555
Fe5 O1 2.075418 1_555
Fe6 O2 2.259428 1_555
Fe6 Li0 2.534631 1_555
F0 Li0 1.853067 1_555
F0 Fe4 1.902858 1_655
F0 Fe6 2.503956 1_555
F1 Fe1 1.949547 1_555
F1 Fe3 1.992871 1_555
F1 Fe2 2.435787 1_555
F1 Fe5 2.520076 1_665
F2 Li0 1.829585 1_554
F2 Fe2 1.987798 1_555
F2 Fe0 2.162791 1_555
F2 Fe3 2.563028 1_555
F3 Li0 2.104264 1_455
F3 Fe2 2.117875 1_556
F3 Fe6 2.742915 1_565
F4 Fe6 2.280625 1_554
F4 Fe0 2.287612 1_655
F4 Fe2 2.580372 1_545
F5 Fe1 2.110108 1_555
F5 Fe4 2.491897 1_555
F5 Fe6 2.678483 1_565
F6 Fe6 1.907264 1_555
F6 Fe0 1.984415 1_556
F6 Li0 2.324047 1_555
F6 Fe4 2.469775 1_555
F7 Fe1 1.971139 1_555
F7 Fe6 2.051901 1_565
F8 Fe0 1.730288 1_555
F8 Fe3 1.977963 1_455
F8 Fe2 2.578635 1_555
