# generated using pymatgen
data_V5As3C
_symmetry_space_group_name_H-M   'P 1'
_cell_length_a   7.14565186
_cell_length_b   7.14565186
_cell_length_c   5.24466000
_cell_angle_alpha   90.00000000
_cell_angle_beta   90.00000000
_cell_angle_gamma   119.99999873
_symmetry_Int_Tables_number   1
_chemical_formula_structural   V5As3C
_chemical_formula_sum   'V10 As6 C2'
_cell_volume   231.91651875
_cell_formula_units_Z   2
loop_
 _symmetry_equiv_pos_site_id
 _symmetry_equiv_pos_as_xyz
  1  'x, y, z'
loop_
 _atom_site_type_symbol
 _atom_site_label
 _atom_site_symmetry_multiplicity
 _atom_site_fract_x
 _atom_site_fract_y
 _atom_site_fract_z
 _atom_site_occupancy
  V  V0  1  0.66666700  0.33333300  0.50000000  1
  V  V1  1  0.33333300  0.66666700  0.50000000  1
  V  V2  1  0.33333300  0.66666700  0.00000000  1
  V  V3  1  0.66666700  0.33333300  0.00000000  1
  V  V4  1  0.77728800  0.77728800  0.25000000  1
  V  V5  1  0.22271200  0.00000000  0.25000000  1
  V  V6  1  0.00000000  0.22271200  0.25000000  1
  V  V7  1  0.22271200  0.22271200  0.75000000  1
  V  V8  1  0.77728800  0.00000000  0.75000000  1
  V  V9  1  0.00000000  0.77728800  0.75000000  1
  As  As0  1  0.40224300  0.40224300  0.25000000  1
  As  As1  1  0.59775700  0.00000000  0.25000000  1
  As  As2  1  0.00000000  0.59775700  0.25000000  1
  As  As3  1  0.59775700  0.59775700  0.75000000  1
  As  As4  1  0.40224300  0.00000000  0.75000000  1
  As  As5  1  0.00000000  0.40224300  0.75000000  1
  C  C0  1  0.00000000  0.00000000  0.50000000  1
  C  C1  1  0.00000000  0.00000000  0.00000000  1
loop_
_geom_bond_atom_site_label_1
_geom_bond_atom_site_label_2
_geom_bond_distance
_geom_bond_site_symmetry_2
As0 V5 2.493983 1_555
As0 V6 2.493983 1_555
As0 V3 2.542077 1_555
As0 V0 2.542077 1_555
As0 V1 2.542077 1_555
As0 V2 2.542077 1_555
As0 V4 2.679941 1_555
As0 V7 2.919308 1_555
As0 V7 2.919308 1_554
As1 V4 2.493983 1_545
As1 V6 2.493983 1_655
As1 V0 2.542071 1_555
As1 V3 2.542071 1_555
As1 V1 2.542073 1_545
As1 V2 2.542073 1_545
As1 V5 2.679941 1_555
As1 V8 2.919308 1_554
As1 V8 2.919308 1_555
As2 V4 2.493983 1_455
As2 V5 2.493983 1_565
As2 V1 2.542071 1_555
As2 V2 2.542071 1_555
As2 V3 2.542073 1_455
As2 V0 2.542073 1_455
As2 V6 2.679941 1_555
As2 V9 2.919308 1_555
As2 V9 2.919308 1_554
As3 V8 2.493983 1_565
As3 V9 2.493983 1_655
As3 V2 2.542077 1_556
As3 V1 2.542077 1_555
As3 V0 2.542077 1_555
As3 V3 2.542077 1_556
As3 V7 2.679941 1_555
As3 V4 2.919308 1_556
As3 V4 2.919308 1_555
As4 V7 2.493983 1_555
As4 V9 2.493983 1_545
As4 V1 2.542071 1_545
As4 V2 2.542071 1_546
As4 V3 2.542073 1_556
As4 V0 2.542073 1_555
As4 V8 2.679941 1_555
As4 V5 2.919308 1_555
As4 V5 2.919308 1_556
As5 V7 2.493983 1_555
As5 V8 2.493983 1_455
As5 V0 2.542071 1_455
As5 V3 2.542071 1_456
As5 V1 2.542073 1_555
As5 V2 2.542073 1_556
As5 V9 2.679941 1_555
As5 V6 2.919308 1_556
As5 V6 2.919308 1_555
C0 V6 2.061984 1_555
C0 V5 2.061984 1_555
C0 V9 2.061984 1_545
C0 V8 2.061984 1_455
C0 V7 2.061984 1_555
C0 V4 2.061984 1_445
C1 V6 2.061984 1_555
C1 V8 2.061984 1_454
C1 V5 2.061984 1_555
C1 V9 2.061984 1_544
C1 V7 2.061984 1_554
C1 V4 2.061984 1_445
