# generated using pymatgen
data_Zr3Pt
_symmetry_space_group_name_H-M   'P 1'
_cell_length_a   6.08101794
_cell_length_b   6.08101794
_cell_length_c   5.13062800
_cell_angle_alpha   90.00000000
_cell_angle_beta   90.00000000
_cell_angle_gamma   119.99999935
_symmetry_Int_Tables_number   1
_chemical_formula_structural   Zr3Pt
_chemical_formula_sum   'Zr6 Pt2'
_cell_volume   164.30611648
_cell_formula_units_Z   2
loop_
 _symmetry_equiv_pos_site_id
 _symmetry_equiv_pos_as_xyz
  1  'x, y, z'
loop_
 _atom_site_type_symbol
 _atom_site_label
 _atom_site_symmetry_multiplicity
 _atom_site_fract_x
 _atom_site_fract_y
 _atom_site_fract_z
 _atom_site_occupancy
  Zr  Zr0  1  0.17305000  0.34609900  0.25000000  1
  Zr  Zr1  1  0.65390100  0.82695000  0.25000000  1
  Zr  Zr2  1  0.17305000  0.82695000  0.25000000  1
  Zr  Zr3  1  0.82695000  0.65390100  0.75000000  1
  Zr  Zr4  1  0.34609900  0.17305000  0.75000000  1
  Zr  Zr5  1  0.82695000  0.17305000  0.75000000  1
  Pt  Pt0  1  0.33333300  0.66666700  0.75000000  1
  Pt  Pt1  1  0.66666700  0.33333300  0.25000000  1
loop_
_geom_bond_atom_site_label_1
_geom_bond_atom_site_label_2
_geom_bond_distance
_geom_bond_site_symmetry_2
Zr0 Zr2 2.924064 1_555
Zr0 Zr1 2.924064 1_555
Zr0 Zr4 3.146892 1_555
Zr0 Zr4 3.146892 1_554
Zr0 Zr5 3.146898 1_455
Zr0 Zr5 3.146898 1_454
Zr0 Zr2 3.156954 1_545
Zr0 Zr1 3.156954 1_445
Zr1 Zr2 2.924064 1_555
Zr1 Zr3 3.146892 1_554
Zr1 Zr3 3.146892 1_555
Zr1 Zr5 3.146898 1_565
Zr1 Zr5 3.146898 1_564
Zr1 Zr2 3.156954 1_655
Zr2 Zr3 3.146898 1_455
Zr2 Zr3 3.146898 1_454
Zr2 Zr4 3.146898 1_564
Zr2 Zr4 3.146898 1_565
Zr3 Zr5 2.924064 1_555
Zr3 Zr4 2.924064 1_555
Zr3 Zr5 3.156954 1_565
Zr3 Zr4 3.156954 1_665
Zr4 Zr5 2.924064 1_555
Zr4 Zr5 3.156954 1_455
Pt0 Zr4 3.041252 1_555
Pt0 Zr3 3.041252 1_555
Pt0 Zr3 3.041252 1_455
Pt0 Zr4 3.041252 1_565
Pt0 Zr5 3.041252 1_455
Pt0 Zr5 3.041252 1_565
Pt0 Zr2 3.070971 1_556
Pt0 Zr2 3.070971 1_555
Pt0 Zr1 3.070977 1_556
Pt0 Zr0 3.070977 1_555
Pt0 Zr1 3.070977 1_555
Pt0 Zr0 3.070977 1_556
Pt1 Zr0 3.041252 1_555
Pt1 Zr1 3.041252 1_555
Pt1 Zr1 3.041252 1_545
Pt1 Zr0 3.041252 1_655
Pt1 Zr2 3.041252 1_545
Pt1 Zr2 3.041252 1_655
Pt1 Zr5 3.070971 1_555
Pt1 Zr5 3.070971 1_554
Pt1 Zr3 3.070977 1_554
Pt1 Zr3 3.070977 1_555
Pt1 Zr4 3.070977 1_555
Pt1 Zr4 3.070977 1_554
