# generated using pymatgen
data_MgTi2O4
_symmetry_space_group_name_H-M   'P 1'
_cell_length_a   6.08526050
_cell_length_b   5.92496916
_cell_length_c   18.00193207
_cell_angle_alpha   60.42244272
_cell_angle_beta   60.68075681
_cell_angle_gamma   60.87855243
_symmetry_Int_Tables_number   1
_chemical_formula_structural   MgTi2O4
_chemical_formula_sum   'Mg6 Ti12 O24'
_cell_volume   465.78425823
_cell_formula_units_Z   6
loop_
 _symmetry_equiv_pos_site_id
 _symmetry_equiv_pos_as_xyz
  1  'x, y, z'
loop_
 _atom_site_type_symbol
 _atom_site_label
 _atom_site_symmetry_multiplicity
 _atom_site_fract_x
 _atom_site_fract_y
 _atom_site_fract_z
 _atom_site_occupancy
  Mg  Mg0  1  0.13070600  0.12864100  0.03732300  1
  Mg  Mg1  1  0.50011500  0.50280500  0.33138700  1
  Mg  Mg2  1  0.99582000  0.50471300  0.16488100  1
  Mg  Mg3  1  0.50648600  0.49089100  0.67058400  1
  Mg  Mg4  1  0.00258800  0.49826100  0.50031200  1
  Mg  Mg5  1  0.01713700  0.49194300  0.83296800  1
  Ti  Ti0  1  0.49390700  0.03062600  0.16192600  1
  Ti  Ti1  1  0.12283100  0.11946300  0.37940800  1
  Ti  Ti2  1  0.49601100  0.51173000  0.99350600  1
  Ti  Ti3  1  0.49395500  0.48989700  0.16179300  1
  Ti  Ti4  1  0.50060500  0.98554500  0.50003900  1
  Ti  Ti5  1  0.12337400  0.12089000  0.71156600  1
  Ti  Ti6  1  0.50054800  0.51367000  0.50006500  1
  Ti  Ti7  1  0.50029200  0.96789600  0.84035100  1
  Ti  Ti8  1  0.88064400  0.88138600  0.28555800  1
  Ti  Ti9  1  0.50022700  0.51077500  0.84043700  1
  Ti  Ti10  1  0.87068700  0.87889200  0.62384500  1
  Ti  Ti11  1  0.85193200  0.87708500  0.96466300  1
  O  O0  1  0.26357900  0.25739100  0.08491300  1
  O  O1  1  0.24781000  0.25138700  0.24994000  1
  O  O2  1  0.26328400  0.72434000  0.08496700  1
  O  O3  1  0.73932600  0.26022500  0.08000300  1
  O  O4  1  0.25838000  0.25141000  0.42017600  1
  O  O5  1  0.26069100  0.74998700  0.24646900  1
  O  O6  1  0.25044600  0.25091100  0.58256200  1
  O  O7  1  0.73966200  0.26782200  0.24563100  1
  O  O8  1  0.25850400  0.72976300  0.42011400  1
  O  O9  1  0.73516800  0.74435400  0.09200800  1
  O  O10  1  0.73819400  0.25267200  0.41879600  1
  O  O11  1  0.73956000  0.75569800  0.24563800  1
  O  O12  1  0.26198400  0.24412200  0.75239400  1
  O  O13  1  0.25205200  0.74738600  0.58437900  1
  O  O14  1  0.74032700  0.26829200  0.58018100  1
  O  O15  1  0.26196800  0.73667300  0.75240400  1
  O  O16  1  0.27860200  0.25418800  0.90438000  1
  O  O17  1  0.75584300  0.74988700  0.41473500  1
  O  O18  1  0.74676500  0.24573200  0.75392500  1
  O  O19  1  0.74032700  0.75080800  0.58015900  1
  O  O20  1  0.22309600  0.75450400  0.92268300  1
  O  O21  1  0.75163200  0.26289800  0.91466800  1
  O  O22  1  0.75334200  0.74278900  0.75361900  1
  O  O23  1  0.75159500  0.74165200  0.91464300  1
loop_
_geom_bond_atom_site_label_1
_geom_bond_atom_site_label_2
_geom_bond_distance
_geom_bond_site_symmetry_2
Mg0 O3 1.965292 1_455
Mg0 O16 1.968659 1_554
Mg0 O2 1.973104 1_545
Mg0 O0 1.973218 1_555
Mg1 O7 2.095021 1_555
Mg1 O11 2.095227 1_555
Mg1 O4 2.101659 1_555
Mg1 O8 2.101738 1_555
Mg1 O5 2.121015 1_555
Mg1 O10 2.147544 1_555
Mg2 O9 2.063922 1_555
Mg2 O2 2.081403 1_655
Mg2 O0 2.082299 1_655
Mg2 O7 2.099788 1_555
Mg2 O11 2.100840 1_555
Mg2 O1 2.177005 1_655
Mg3 O12 2.089514 1_555
Mg3 O15 2.089554 1_555
Mg3 O18 2.104404 1_555
Mg3 O19 2.106165 1_555
Mg3 O14 2.106451 1_555
Mg3 O13 2.202211 1_555
Mg4 O4 2.076309 1_555
Mg4 O8 2.076833 1_555
Mg4 O19 2.098682 1_455
Mg4 O14 2.099071 1_455
Mg4 O6 2.123329 1_555
Mg4 O17 2.160947 1_455
Mg5 O16 2.049990 1_555
Mg5 O15 2.082337 1_555
Mg5 O12 2.082425 1_555
Mg5 O21 2.109908 1_455
Mg5 O23 2.110836 1_455
Mg5 O22 2.157284 1_455
O0 Ti0 1.980653 1_555
O0 Ti2 2.080002 1_554
O1 Ti1 1.914584 1_555
O1 Ti3 2.068180 1_555
O1 Ti0 2.068701 1_555
O2 Ti3 1.979775 1_555
O2 Ti2 2.081082 1_554
O3 Ti0 2.023804 1_555
O3 Ti3 2.023951 1_555
O3 Ti2 2.158052 1_554
O4 Ti1 1.901867 1_555
O4 Ti4 2.073817 1_545
O5 Ti8 1.909021 1_455
O5 Ti0 2.185971 1_565
O5 Ti3 2.187249 1_555
O6 Ti5 1.907762 1_555
O6 Ti6 2.180765 1_555
O6 Ti4 2.181244 1_545
O7 Ti8 1.887425 1_545
O7 Ti3 2.139959 1_555
O8 Ti1 1.901746 1_565
O8 Ti6 2.074044 1_555
O9 Ti11 1.883493 1_554
O9 Ti3 2.117557 1_555
O9 Ti0 2.119117 1_565
O10 Ti1 1.932152 1_655
O10 Ti4 2.146054 1_545
O10 Ti6 2.146582 1_555
O11 Ti8 1.887574 1_555
O11 Ti0 2.138177 1_565
O12 Ti5 1.876464 1_555
O12 Ti7 2.160813 1_545
O13 Ti10 1.915543 1_455
O13 Ti6 2.072910 1_555
O13 Ti4 2.073010 1_555
O14 Ti10 1.899781 1_545
O14 Ti6 2.061309 1_555
O15 Ti5 1.876280 1_565
O15 Ti9 2.161598 1_555
O16 Ti9 2.050062 1_555
O16 Ti7 2.050820 1_545
O17 Ti8 1.910280 1_555
O17 Ti6 2.094924 1_555
O17 Ti4 2.095270 1_555
O18 Ti5 1.891075 1_655
O18 Ti7 2.229232 1_545
O18 Ti9 2.230540 1_555
O19 Ti10 1.899944 1_555
O19 Ti4 2.061099 1_555
O20 Ti11 1.863748 1_455
O20 Ti2 2.095410 1_555
O20 Ti9 2.101562 1_555
O20 Ti7 2.101910 1_555
O21 Ti11 1.885993 1_545
O21 Ti9 2.039834 1_555
O21 Ti2 2.068552 1_555
O22 Ti10 1.919597 1_555
O22 Ti9 2.070543 1_555
O22 Ti7 2.071242 1_555
O23 Ti11 1.885780 1_555
O23 Ti7 2.040107 1_555
O23 Ti2 2.069008 1_555
