# generated using pymatgen
data_CaZnH10Br4O5
_symmetry_space_group_name_H-M   'P 1'
_cell_length_a   8.43263664
_cell_length_b   10.69344797
_cell_length_c   12.54576950
_cell_angle_alpha   65.29989659
_cell_angle_beta   122.11198675
_cell_angle_gamma   120.58923248
_symmetry_Int_Tables_number   1
_chemical_formula_structural   CaZnH10Br4O5
_chemical_formula_sum   'Ca2 Zn2 H20 Br8 O10'
_cell_volume   807.85413282
_cell_formula_units_Z   2
loop_
 _symmetry_equiv_pos_site_id
 _symmetry_equiv_pos_as_xyz
  1  'x, y, z'
loop_
 _atom_site_type_symbol
 _atom_site_label
 _atom_site_symmetry_multiplicity
 _atom_site_fract_x
 _atom_site_fract_y
 _atom_site_fract_z
 _atom_site_occupancy
  Ca  Ca0  1  0.06299200  0.87834300  0.75519200  1
  Ca  Ca1  1  0.93700800  0.12165700  0.24480800  1
  Zn  Zn0  1  0.85237800  0.96954700  0.82134200  1
  Zn  Zn1  1  0.14762200  0.03045300  0.17865800  1
  H  H0  1  0.66739500  0.70516700  0.78885100  1
  H  H1  1  0.33260500  0.29483300  0.21114900  1
  H  H2  1  0.72365600  0.42249800  0.00801900  1
  H  H3  1  0.27634400  0.57750200  0.99198100  1
  H  H4  1  0.80249700  0.65806700  0.56296100  1
  H  H5  1  0.19750300  0.34193300  0.43703900  1
  H  H6  1  0.96545700  0.80002400  0.51974900  1
  H  H7  1  0.03454300  0.19997600  0.48025100  1
  H  H8  1  0.50621700  0.00664500  0.77375700  1
  H  H9  1  0.49378300  0.99335500  0.22624300  1
  H  H10  1  0.32744000  0.99095400  0.62884300  1
  H  H11  1  0.67256000  0.00904600  0.37115700  1
  H  H12  1  0.21228400  0.60059400  0.71090000  1
  H  H13  1  0.78771600  0.39940600  0.28910000  1
  H  H14  1  0.34421000  0.65788500  0.33971800  1
  H  H15  1  0.65579000  0.34211500  0.66028200  1
  H  H16  1  0.23126600  0.12140400  0.88064400  1
  H  H17  1  0.76873400  0.87859600  0.11935600  1
  H  H18  1  0.23995400  0.97238500  0.06120300  1
  H  H19  1  0.76004600  0.02761500  0.93879700  1
  Br  Br0  1  0.71445900  0.31203000  0.96496600  1
  Br  Br1  1  0.28554100  0.68797000  0.03503400  1
  Br  Br2  1  0.83297100  0.08080600  0.58142400  1
  Br  Br3  1  0.16702900  0.91919400  0.41857600  1
  Br  Br4  1  0.67976500  0.40320900  0.54170500  1
  Br  Br5  1  0.32023500  0.59679100  0.45829500  1
  Br  Br6  1  0.28961300  0.49475100  0.81726400  1
  Br  Br7  1  0.71038700  0.50524900  0.18273600  1
  O  O0  1  0.80821900  0.77023800  0.82098200  1
  O  O1  1  0.19178100  0.22976200  0.17901800  1
  O  O2  1  0.90606000  0.75437700  0.58397600  1
  O  O3  1  0.09394000  0.24562300  0.41602400  1
  O  O4  1  0.34663400  0.98039700  0.71606400  1
  O  O5  1  0.65336600  0.01960300  0.28393600  1
  O  O6  1  0.28117400  0.95358600  0.15540900  1
  O  O7  1  0.71882600  0.04641400  0.84459200  1
  O  O8  1  0.15064800  0.01562700  0.89312600  1
  O  O9  1  0.84935200  0.98437300  0.10687400  1
loop_
_geom_bond_atom_site_label_1
_geom_bond_atom_site_label_2
_geom_bond_distance
_geom_bond_site_symmetry_2
Ca0 O0 2.278907 1_455
Ca0 O4 2.301487 1_555
Ca0 O8 2.314070 1_565
Ca0 O2 2.386380 1_455
Ca1 O1 2.278907 1_655
Ca1 O5 2.301487 1_555
Ca1 O9 2.314070 1_545
Ca1 O3 2.386380 1_655
H0 O0 0.970248 1_555
H1 O1 0.970248 1_555
H4 O2 0.979593 1_555
H5 O3 0.979593 1_555
H6 O2 0.994964 1_555
H7 O3 0.994964 1_555
H8 O4 1.078621 1_545
H8 O7 1.425098 1_555
H9 O5 1.078621 1_565
H9 O6 1.425097 1_555
H10 O4 0.981527 1_555
H11 O5 0.981527 1_555
H16 O8 0.973984 1_555
H17 O9 0.973984 1_555
H18 O6 0.996937 1_555
H19 O7 0.996925 1_555
Br0 H2 1.445218 1_556
Br1 H3 1.445218 1_554
Br2 H7 2.204927 1_655
Br2 Zn0 2.680249 1_545
Br2 Ca0 3.006021 1_645
Br3 H6 2.204927 1_455
Br3 Zn1 2.680249 1_565
Br3 Ca1 3.006021 1_465
Br4 H15 1.433123 1_555
Br5 H14 1.433123 1_555
Br6 H12 1.432037 1_555
Br7 H13 1.432037 1_555
O0 Zn0 1.969681 1_555
O1 Zn1 1.969681 1_555
O6 Zn1 1.876372 1_565
O7 Zn0 1.876380 1_545
O8 Zn0 2.020244 1_445
O9 Zn1 2.020244 1_665
