# generated using pymatgen
data_UH8(SO6)2
_symmetry_space_group_name_H-M   'P 1'
_cell_length_a   5.81926200
_cell_length_b   11.16593600
_cell_length_c   14.75654400
_cell_angle_alpha   90.00000000
_cell_angle_beta   90.00000000
_cell_angle_gamma   90.00000000
_symmetry_Int_Tables_number   1
_chemical_formula_structural   UH8(SO6)2
_chemical_formula_sum   'U4 H32 S8 O48'
_cell_volume   958.84344193
_cell_formula_units_Z   4
loop_
 _symmetry_equiv_pos_site_id
 _symmetry_equiv_pos_as_xyz
  1  'x, y, z'
loop_
 _atom_site_type_symbol
 _atom_site_label
 _atom_site_symmetry_multiplicity
 _atom_site_fract_x
 _atom_site_fract_y
 _atom_site_fract_z
 _atom_site_occupancy
  U  U0  1  0.62627800  0.25000000  0.67040200  1
  U  U1  1  0.87372200  0.25000000  0.17040200  1
  U  U2  1  0.37372200  0.75000000  0.32959800  1
  U  U3  1  0.12627800  0.75000000  0.82959800  1
  H  H0  1  0.98110300  0.31955100  0.81999300  1
  H  H1  1  0.51889700  0.18044900  0.31999300  1
  H  H2  1  0.01889700  0.81955100  0.18000700  1
  H  H3  1  0.48110300  0.68044900  0.68000700  1
  H  H4  1  0.01889700  0.68044900  0.18000700  1
  H  H5  1  0.48110300  0.81955100  0.68000700  1
  H  H6  1  0.98110300  0.18044900  0.81999300  1
  H  H7  1  0.51889700  0.31955100  0.31999300  1
  H  H8  1  0.28996500  0.44418000  0.59444000  1
  H  H9  1  0.21003500  0.05582000  0.09444000  1
  H  H10  1  0.71003500  0.94418000  0.40556000  1
  H  H11  1  0.78996500  0.55582000  0.90556000  1
  H  H12  1  0.71003500  0.55582000  0.40556000  1
  H  H13  1  0.78996500  0.94418000  0.90556000  1
  H  H14  1  0.28996500  0.05582000  0.59444000  1
  H  H15  1  0.21003500  0.44418000  0.09444000  1
  H  H16  1  0.36760100  0.37339500  0.50798500  1
  H  H17  1  0.13239900  0.12660500  0.00798500  1
  H  H18  1  0.63239900  0.87339500  0.49201500  1
  H  H19  1  0.86760100  0.62660500  0.99201500  1
  H  H20  1  0.63239900  0.62660500  0.49201500  1
  H  H21  1  0.86760100  0.87339500  0.99201500  1
  H  H22  1  0.36760100  0.12660500  0.50798500  1
  H  H23  1  0.13239900  0.37339500  0.00798500  1
  H  H24  1  0.84727300  0.32144100  0.48635700  1
  H  H25  1  0.65272700  0.17855900  0.98635700  1
  H  H26  1  0.15272700  0.82144100  0.51364300  1
  H  H27  1  0.34727300  0.67855900  0.01364300  1
  H  H28  1  0.15272700  0.67855900  0.51364300  1
  H  H29  1  0.34727300  0.82144100  0.01364300  1
  H  H30  1  0.84727300  0.17855900  0.48635700  1
  H  H31  1  0.65272700  0.32144100  0.98635700  1
  S  S0  1  0.88503500  0.55538100  0.64814600  1
  S  S1  1  0.61496500  0.94461900  0.14814600  1
  S  S2  1  0.11496500  0.05538100  0.35185400  1
  S  S3  1  0.38503500  0.44461900  0.85185400  1
  S  S4  1  0.11496500  0.44461900  0.35185400  1
  S  S5  1  0.38503500  0.05538100  0.85185400  1
  S  S6  1  0.88503500  0.94461900  0.64814600  1
  S  S7  1  0.61496500  0.55538100  0.14814600  1
  O  O0  1  0.80803400  0.25000000  0.52391500  1
  O  O1  1  0.69196600  0.25000000  0.02391500  1
  O  O2  1  0.19196600  0.75000000  0.47608500  1
  O  O3  1  0.30803400  0.75000000  0.97608500  1
  O  O4  1  0.38764300  0.37604400  0.57504300  1
  O  O5  1  0.11235700  0.12395600  0.07504300  1
  O  O6  1  0.61235700  0.87604400  0.42495700  1
  O  O7  1  0.88764300  0.62395600  0.92495700  1
  O  O8  1  0.61235700  0.62395600  0.42495700  1
  O  O9  1  0.88764300  0.87604400  0.92495700  1
  O  O10  1  0.38764300  0.12395600  0.57504300  1
  O  O11  1  0.11235700  0.37604400  0.07504300  1
  O  O12  1  0.84691700  0.42490600  0.66744500  1
  O  O13  1  0.65308300  0.07509400  0.16744500  1
  O  O14  1  0.15308300  0.92490600  0.33255500  1
  O  O15  1  0.34691700  0.57509400  0.83255500  1
  O  O16  1  0.15308300  0.57509400  0.33255500  1
  O  O17  1  0.34691700  0.92490600  0.83255500  1
  O  O18  1  0.84691700  0.07509400  0.66744500  1
  O  O19  1  0.65308300  0.42490600  0.16744500  1
  O  O20  1  0.09202700  0.56616600  0.59126600  1
  O  O21  1  0.40797300  0.93383400  0.09126600  1
  O  O22  1  0.90797300  0.06616600  0.40873400  1
  O  O23  1  0.59202700  0.43383400  0.90873400  1
  O  O24  1  0.90797300  0.43383400  0.40873400  1
  O  O25  1  0.59202700  0.06616600  0.90873400  1
  O  O26  1  0.09202700  0.93383400  0.59126600  1
  O  O27  1  0.40797300  0.56616600  0.09126600  1
  O  O28  1  0.92155000  0.61762100  0.73744500  1
  O  O29  1  0.57845000  0.88237900  0.23744500  1
  O  O30  1  0.07845000  0.11762100  0.26255500  1
  O  O31  1  0.42155000  0.38237900  0.76255500  1
  O  O32  1  0.07845000  0.38237900  0.26255500  1
  O  O33  1  0.42155000  0.11762100  0.76255500  1
  O  O34  1  0.92155000  0.88237900  0.73744500  1
  O  O35  1  0.57845000  0.61762100  0.23744500  1
  O  O36  1  0.67873200  0.60774900  0.60544200  1
  O  O37  1  0.82126800  0.89225100  0.10544200  1
  O  O38  1  0.32126800  0.10774900  0.39455800  1
  O  O39  1  0.17873200  0.39225100  0.89455800  1
  O  O40  1  0.32126800  0.39225100  0.39455800  1
  O  O41  1  0.17873200  0.10774900  0.89455800  1
  O  O42  1  0.67873200  0.89225100  0.60544200  1
  O  O43  1  0.82126800  0.60774900  0.10544200  1
  O  O44  1  0.89696200  0.25000000  0.79439000  1
  O  O45  1  0.60303800  0.25000000  0.29439000  1
  O  O46  1  0.10303800  0.75000000  0.20561000  1
  O  O47  1  0.39696200  0.75000000  0.70561000  1
loop_
_geom_bond_atom_site_label_1
_geom_bond_atom_site_label_2
_geom_bond_distance
_geom_bond_site_symmetry_2
H0 O44 0.992773 1_555
H1 O45 0.992773 1_555
H2 O46 0.992773 1_555
H3 O47 0.992773 1_555
H4 O46 0.992773 1_555
H5 O47 0.992773 1_555
H6 O44 0.992773 1_555
H7 O45 0.992773 1_555
H8 O4 0.991889 1_555
H9 O5 0.991889 1_555
H10 O6 0.991889 1_555
H11 O7 0.991889 1_555
H12 O8 0.991889 1_555
H13 O9 0.991889 1_555
H14 O10 0.991889 1_555
H15 O11 0.991889 1_555
H16 O4 0.996833 1_555
H17 O5 0.996833 1_555
H18 O6 0.996833 1_555
H19 O7 0.996833 1_555
H20 O8 0.996833 1_555
H21 O9 0.996833 1_555
H22 O10 0.996833 1_555
H23 O11 0.996833 1_555
H24 O0 0.997818 1_555
H25 O1 0.997818 1_556
H26 O2 0.997818 1_555
H27 O3 0.997818 1_554
H28 O2 0.997818 1_555
H29 O3 0.997818 1_554
H30 O0 0.997818 1_555
H31 O1 0.997818 1_556
O0 U0 2.406532 1_555
O1 U1 2.406532 1_555
O2 U2 2.406532 1_555
O3 U3 2.406532 1_555
O4 U0 2.426794 1_555
O5 U1 2.426794 1_455
O6 U2 2.426794 1_555
O7 U3 2.426794 1_655
O8 U2 2.426794 1_555
O9 U3 2.426794 1_655
O10 U0 2.426794 1_555
O11 U1 2.426794 1_455
O12 S0 1.500931 1_555
O12 U0 2.337651 1_555
O13 S1 1.500931 1_545
O13 U1 2.337651 1_555
O14 S2 1.500931 1_565
O14 U2 2.337651 1_555
O15 S3 1.500931 1_555
O15 U3 2.337651 1_555
O16 S4 1.500931 1_555
O16 U2 2.337651 1_555
O17 S5 1.500931 1_565
O17 U3 2.337651 1_555
O18 S6 1.500931 1_545
O18 U0 2.337651 1_555
O19 S7 1.500931 1_555
O19 U1 2.337651 1_555
O20 S0 1.473069 1_455
O21 S1 1.473069 1_555
O22 S2 1.473069 1_655
O23 S3 1.473069 1_555
O24 S4 1.473069 1_655
O25 S5 1.473069 1_555
O26 S6 1.473069 1_455
O27 S7 1.473069 1_555
O28 S0 1.504853 1_555
O28 U3 2.335264 1_655
O29 S1 1.504853 1_555
O29 U2 2.335264 1_555
O30 S2 1.504853 1_555
O30 U1 2.335264 1_455
O31 S3 1.504853 1_555
O31 U0 2.335264 1_555
O32 S4 1.504853 1_555
O32 U1 2.335264 1_455
O33 S5 1.504853 1_555
O33 U0 2.335264 1_555
O34 S6 1.504853 1_555
O34 U3 2.335264 1_655
O35 S7 1.504853 1_555
O35 U2 2.335264 1_555
O36 S0 1.476584 1_555
O37 S1 1.476584 1_555
O38 S2 1.476584 1_555
O39 S3 1.476584 1_555
O40 S4 1.476584 1_555
O41 S5 1.476584 1_555
O42 S6 1.476584 1_555
O43 S7 1.476584 1_555
O44 U0 2.414282 1_555
O45 U1 2.414282 1_555
O46 U2 2.414282 1_555
O47 U3 2.414282 1_555
