# generated using pymatgen
data_LiMn9CdO10
_symmetry_space_group_name_H-M   'P 1'
_cell_length_a   5.64200439
_cell_length_b   8.78919391
_cell_length_c   5.64615374
_cell_angle_alpha   70.24459006
_cell_angle_beta   109.28994970
_cell_angle_gamma   96.64996237
_symmetry_Int_Tables_number   1
_chemical_formula_structural   LiMn9CdO10
_chemical_formula_sum   'Li1 Mn9 Cd1 O10'
_cell_volume   248.71022896
_cell_formula_units_Z   1
loop_
 _symmetry_equiv_pos_site_id
 _symmetry_equiv_pos_as_xyz
  1  'x, y, z'
loop_
 _atom_site_type_symbol
 _atom_site_label
 _atom_site_symmetry_multiplicity
 _atom_site_fract_x
 _atom_site_fract_y
 _atom_site_fract_z
 _atom_site_occupancy
  Li  Li0  1  0.61530300  0.60864000  0.07877900  1
  Mn  Mn0  1  0.49371300  0.36191600  0.32398000  1
  Mn  Mn1  1  0.99138100  0.00606500  0.00326300  1
  Mn  Mn2  1  0.49750000  0.99345300  0.51957200  1
  Mn  Mn3  1  0.05348700  0.59917200  0.19615000  1
  Mn  Mn4  1  0.99344900  0.20788700  0.39760800  1
  Mn  Mn5  1  0.50093300  0.21133200  0.90440200  1
  Mn  Mn6  1  0.50589500  0.59729600  0.64670000  1
  Mn  Mn7  1  0.00543500  0.40014200  0.79750000  1
  Mn  Mn8  1  0.99874200  0.80017700  0.60218600  1
  Cd  Cd0  1  0.48239600  0.84841200  0.09576000  1
  O  O0  1  0.75949400  0.02470100  0.26246100  1
  O  O1  1  0.74646900  0.40923400  0.04944800  1
  O  O2  1  0.74300500  0.18991300  0.66709300  1
  O  O3  1  0.76242800  0.57286100  0.44985200  1
  O  O4  1  0.24772500  0.19315400  0.14711800  1
  O  O5  1  0.22747400  0.80219000  0.36948400  1
  O  O6  1  0.76183600  0.78025400  0.84077400  1
  O  O7  1  0.22593000  0.02206900  0.72426100  1
  O  O8  1  0.25635100  0.39784300  0.54419000  1
  O  O9  1  0.26200500  0.57485300  0.95084900  1
loop_
_geom_bond_atom_site_label_1
_geom_bond_atom_site_label_2
_geom_bond_distance
_geom_bond_site_symmetry_2
Li0 O9 1.907837 1_554
Li0 O3 1.908806 1_555
Li0 O6 1.959444 1_554
Li0 O1 2.055318 1_555
Li0 Mn0 2.311527 1_555
Li0 Mn3 2.342213 1_655
Li0 Mn6 2.344734 1_554
Mn0 O2 2.174647 1_555
Mn0 O4 2.175391 1_555
Mn0 O8 2.214162 1_555
Mn0 O1 2.344467 1_555
Mn0 O9 2.394094 1_554
Mn0 O3 2.401855 1_555
Mn1 O2 2.207082 1_554
Mn1 O4 2.243063 1_655
Mn1 O0 2.314507 1_555
Mn1 O7 2.331718 1_654
Mn1 O5 2.342878 1_645
Mn1 O6 2.511683 1_544
Mn2 O7 2.280843 1_565
Mn2 O2 2.291291 1_565
Mn2 O5 2.319899 1_555
Mn2 O0 2.328524 1_565
Mn2 O6 2.363783 1_555
Mn2 O4 2.368268 1_565
Mn3 O9 2.164000 1_554
Mn3 O8 2.221527 1_555
Mn3 O5 2.290299 1_555
Mn3 O6 2.352256 1_454
Mn3 O1 2.406358 1_455
Mn3 O3 2.458517 1_455
Mn4 O0 2.142363 1_555
Mn4 O7 2.156596 1_655
Mn4 O8 2.285171 1_655
Mn4 O1 2.312441 1_555
Mn4 O2 2.354348 1_555
Mn4 O4 2.362745 1_655
Mn5 O4 2.244342 1_556
Mn5 O2 2.266095 1_555
Mn5 O8 2.267970 1_555
Mn5 O0 2.295606 1_556
Mn5 O1 2.295780 1_556
Mn5 O7 2.390047 1_555
Mn6 O3 2.161584 1_555
Mn6 O8 2.228507 1_555
Mn6 O5 2.299079 1_555
Mn6 O6 2.340872 1_555
Mn6 O1 2.384295 1_556
Mn6 O9 2.480074 1_555
Mn7 O3 2.174117 1_455
Mn7 O9 2.181506 1_555
Mn7 O8 2.326794 1_555
Mn7 O4 2.332484 1_556
Mn7 O1 2.375266 1_456
Mn7 O2 2.390470 1_455
Mn8 O5 2.119252 1_655
Mn8 O6 2.146598 1_555
Mn8 O7 2.380666 1_665
Mn8 O0 2.396454 1_565
Mn8 O9 2.473361 1_655
Mn8 O3 2.509218 1_555
Cd0 O7 2.272669 1_564
Cd0 O0 2.276720 1_565
Cd0 O5 2.351818 1_555
Cd0 O6 2.686761 1_554
