# generated using pymatgen
data_Ba2YMn3O7
_symmetry_space_group_name_H-M   'P 1'
_cell_length_a   5.67364743
_cell_length_b   12.47106267
_cell_length_c   5.67367569
_cell_angle_alpha   77.35976319
_cell_angle_beta   92.18390399
_cell_angle_gamma   77.35989222
_symmetry_Int_Tables_number   1
_chemical_formula_structural   Ba2YMn3O7
_chemical_formula_sum   'Ba4 Y2 Mn6 O14'
_cell_volume   380.66323207
_cell_formula_units_Z   2
loop_
 _symmetry_equiv_pos_site_id
 _symmetry_equiv_pos_as_xyz
  1  'x, y, z'
loop_
 _atom_site_type_symbol
 _atom_site_label
 _atom_site_symmetry_multiplicity
 _atom_site_fract_x
 _atom_site_fract_y
 _atom_site_fract_z
 _atom_site_occupancy
  Ba  Ba0  1  0.59074400  0.81843800  0.09073500  1
  Ba  Ba1  1  0.09075200  0.81843800  0.59077000  1
  Ba  Ba2  1  0.90911000  0.18183800  0.40912900  1
  Ba  Ba3  1  0.40909100  0.18183800  0.90908900  1
  Y  Y0  1  0.75011800  0.49981000  0.25009400  1
  Y  Y1  1  0.25010200  0.49981000  0.75008700  1
  Mn  Mn0  1  0.00011800  0.99978000  0.00013800  1
  Mn  Mn1  1  0.82646800  0.34712300  0.82646300  1
  Mn  Mn2  1  0.32597400  0.34812200  0.32595900  1
  Mn  Mn3  1  0.49971600  0.00054900  0.49969700  1
  Mn  Mn4  1  0.17358100  0.65279000  0.17356700  1
  Mn  Mn5  1  0.67418000  0.65159100  0.67415700  1
  O  O0  1  0.76578900  0.00041000  0.23388200  1
  O  O1  1  0.23382600  0.00041100  0.76584500  1
  O  O2  1  0.94072700  0.61860100  0.94069900  1
  O  O3  1  0.44066300  0.61857900  0.44063900  1
  O  O4  1  0.55963400  0.38118800  0.55961300  1
  O  O5  1  0.05923600  0.38119400  0.05921600  1
  O  O6  1  0.93981000  0.62052700  0.43960800  1
  O  O7  1  0.43962700  0.62053300  0.93978800  1
  O  O8  1  0.56068400  0.37906000  0.06029700  1
  O  O9  1  0.06030600  0.37905200  0.56068500  1
  O  O10  1  0.08263000  0.83465900  0.08268200  1
  O  O11  1  0.58523000  0.82938600  0.58522700  1
  O  O12  1  0.91710500  0.16575900  0.91716300  1
  O  O13  1  0.41477800  0.17051100  0.41477500  1
loop_
_geom_bond_atom_site_label_1
_geom_bond_atom_site_label_2
_geom_bond_distance
_geom_bond_site_symmetry_2
Ba0 O11 2.839614 1_555
Ba0 O11 2.839976 1_554
Ba0 O10 2.843283 1_655
Ba0 O10 2.843339 1_555
Ba0 O1 2.919271 1_564
Ba0 O0 2.920211 1_565
Ba0 O7 3.058637 1_554
Ba0 O6 3.058737 1_555
Ba0 O2 3.125705 1_554
Ba0 O3 3.125809 1_555
Ba1 O11 2.839527 1_555
Ba1 O11 2.840035 1_455
Ba1 O10 2.843190 1_555
Ba1 O10 2.843460 1_556
Ba1 O0 2.919361 1_465
Ba1 O1 2.920128 1_565
Ba1 O7 3.058581 1_555
Ba1 O6 3.058808 1_455
Ba1 O2 3.125529 1_455
Ba1 O3 3.125963 1_555
Ba2 O13 2.839963 1_555
Ba2 O13 2.840015 1_655
Ba2 O12 2.843186 1_555
Ba2 O12 2.843238 1_554
Ba2 O1 2.914955 1_655
Ba2 O0 2.915027 1_555
Ba2 O9 3.052373 1_655
Ba2 O8 3.052519 1_555
Ba2 O4 3.121189 1_555
Ba2 O5 3.121452 1_655
Ba3 O13 2.839884 1_555
Ba3 O13 2.840122 1_556
Ba3 O12 2.843042 1_555
Ba3 O12 2.843354 1_455
Ba3 O1 2.914875 1_555
Ba3 O0 2.915100 1_556
Ba3 O9 3.052292 1_555
Ba3 O8 3.052590 1_556
Ba3 O5 3.121302 1_556
Ba3 O4 3.121345 1_555
Mn0 O1 1.913020 1_564
Mn0 O0 1.913315 1_465
Mn0 O10 1.954033 1_555
Mn0 O12 1.964187 1_464
Mn1 O5 2.006683 1_656
Mn1 O4 2.006745 1_555
Mn1 O9 2.076895 1_655
Mn1 O8 2.076921 1_556
Mn1 O12 2.146252 1_555
Mn2 O4 2.007367 1_555
Mn2 O5 2.007467 1_555
Mn2 O8 2.077835 1_555
Mn2 O9 2.077908 1_555
Mn2 O13 2.101839 1_555
Mn3 O13 2.011321 1_555
Mn3 O11 2.025534 1_545
Mn3 O0 2.174152 1_555
Mn3 O1 2.174765 1_555
Mn4 O2 2.008193 1_454
Mn4 O3 2.008342 1_555
Mn4 O6 2.078405 1_455
Mn4 O7 2.078445 1_554
Mn4 O10 2.152228 1_555
Mn5 O3 2.005958 1_555
Mn5 O2 2.006081 1_555
Mn5 O6 2.077323 1_555
Mn5 O7 2.077330 1_555
Mn5 O11 2.104017 1_555
O2 Y1 2.480546 1_655
O2 Y0 2.480601 1_556
O3 Y0 2.480442 1_555
O3 Y1 2.480470 1_555
O4 Y0 2.479465 1_555
O4 Y1 2.479477 1_555
O5 Y1 2.479398 1_554
O5 Y0 2.479403 1_455
O6 Y0 2.431101 1_555
O6 Y1 2.431438 1_655
O7 Y1 2.431225 1_555
O7 Y0 2.431544 1_556
O8 Y0 2.431515 1_555
O8 Y1 2.431630 1_554
O9 Y1 2.431491 1_555
O9 Y0 2.431619 1_455
