# generated using pymatgen
data_Ce2Zn5Sn
_symmetry_space_group_name_H-M   'P 1'
_cell_length_a   8.51837379
_cell_length_b   8.51837379
_cell_length_c   8.93571400
_cell_angle_alpha   90.00000000
_cell_angle_beta   90.00000000
_cell_angle_gamma   149.84910918
_symmetry_Int_Tables_number   1
_chemical_formula_structural   Ce2Zn5Sn
_chemical_formula_sum   'Ce4 Zn10 Sn2'
_cell_volume   325.67741914
_cell_formula_units_Z   2
loop_
 _symmetry_equiv_pos_site_id
 _symmetry_equiv_pos_as_xyz
  1  'x, y, z'
loop_
 _atom_site_type_symbol
 _atom_site_label
 _atom_site_symmetry_multiplicity
 _atom_site_fract_x
 _atom_site_fract_y
 _atom_site_fract_z
 _atom_site_occupancy
  Ce  Ce0  1  0.20773100  0.79226900  0.25000000  1
  Ce  Ce1  1  0.79226900  0.20773100  0.75000000  1
  Ce  Ce2  1  0.00000000  0.00000000  0.50000000  1
  Ce  Ce3  1  0.00000000  0.00000000  0.00000000  1
  Zn  Zn0  1  0.81428400  0.18571600  0.39394700  1
  Zn  Zn1  1  0.18571600  0.81428400  0.60605300  1
  Zn  Zn2  1  0.81428400  0.18571600  0.10605300  1
  Zn  Zn3  1  0.18571600  0.81428400  0.89394700  1
  Zn  Zn4  1  0.65698000  0.34302000  0.48343300  1
  Zn  Zn5  1  0.34302000  0.65698000  0.51656700  1
  Zn  Zn6  1  0.65698000  0.34302000  0.01656700  1
  Zn  Zn7  1  0.34302000  0.65698000  0.98343300  1
  Zn  Zn8  1  0.39493400  0.60506600  0.25000000  1
  Zn  Zn9  1  0.60506600  0.39493400  0.75000000  1
  Sn  Sn0  1  0.55636600  0.44363400  0.25000000  1
  Sn  Sn1  1  0.44363400  0.55636600  0.75000000  1
loop_
_geom_bond_atom_site_label_1
_geom_bond_atom_site_label_2
_geom_bond_distance
_geom_bond_site_symmetry_2
Ce0 Zn8 3.079567 1_555
Ce0 Zn2 3.104127 1_455
Ce0 Zn0 3.104127 1_455
Ce0 Zn0 3.104127 1_565
Ce0 Zn2 3.104127 1_565
Ce0 Zn4 3.155411 1_455
Ce0 Zn6 3.155411 1_455
Ce0 Zn4 3.155411 1_565
Ce0 Zn6 3.155411 1_565
Ce0 Zn3 3.202133 1_554
Ce0 Zn1 3.202133 1_555
Ce0 Zn5 3.259890 1_555
Ce0 Zn7 3.259890 1_554
Ce0 Sn0 3.332994 1_565
Ce0 Sn0 3.332994 1_455
Ce1 Zn9 3.079567 1_555
Ce1 Zn1 3.104127 1_655
Ce1 Zn3 3.104127 1_545
Ce1 Zn3 3.104127 1_655
Ce1 Zn1 3.104127 1_545
Ce1 Zn7 3.155411 1_545
Ce1 Zn5 3.155411 1_545
Ce1 Zn7 3.155411 1_655
Ce1 Zn5 3.155411 1_655
Ce1 Zn2 3.202133 1_556
Ce1 Zn0 3.202133 1_555
Ce1 Zn6 3.259890 1_556
Ce1 Zn4 3.259890 1_555
Ce1 Sn1 3.332994 1_655
Ce1 Sn1 3.332994 1_545
Ce2 Zn1 3.198707 1_545
Ce2 Zn0 3.198707 1_455
Ce2 Sn0 3.280073 1_555
Ce2 Sn1 3.280073 1_555
Ce2 Sn0 3.280073 1_445
Ce2 Sn1 3.280073 1_445
Ce2 Zn4 3.405774 1_445
Ce2 Zn5 3.405774 1_555
Ce2 Zn4 3.405774 1_555
Ce2 Zn5 3.405774 1_445
Ce2 Zn8 3.589762 1_555
Ce2 Zn8 3.589762 1_445
Ce2 Zn9 3.589762 1_555
Ce2 Zn9 3.589762 1_445
Ce3 Zn2 3.198707 1_455
Ce3 Zn3 3.198707 1_544
Ce3 Sn0 3.280073 1_555
Ce3 Sn1 3.280073 1_444
Ce3 Sn0 3.280073 1_445
Ce3 Sn1 3.280073 1_554
Ce3 Zn6 3.405774 1_445
Ce3 Zn7 3.405774 1_554
Ce3 Zn6 3.405774 1_555
Ce3 Zn7 3.405774 1_444
Ce3 Zn9 3.589762 1_554
Ce3 Zn8 3.589762 1_555
Ce3 Zn8 3.589762 1_445
Ce3 Zn9 3.589762 1_444
Zn0 Zn5 2.516481 1_545
Zn0 Zn5 2.516481 1_655
Zn0 Zn2 2.572538 1_555
Zn0 Zn4 2.708444 1_555
Zn0 Zn8 2.885022 1_545
Zn0 Zn8 2.885022 1_655
Zn1 Zn4 2.516481 1_455
Zn1 Zn4 2.516481 1_565
Zn1 Zn3 2.572538 1_555
Zn1 Zn5 2.708444 1_555
Zn1 Zn9 2.885022 1_455
Zn1 Zn9 2.885022 1_565
Zn2 Zn7 2.516481 1_544
Zn2 Zn7 2.516481 1_654
Zn2 Zn6 2.708444 1_555
Zn2 Zn8 2.885022 1_545
Zn2 Zn8 2.885022 1_655
Zn3 Zn6 2.516481 1_456
Zn3 Zn6 2.516481 1_566
Zn3 Zn7 2.708444 1_555
Zn3 Zn9 2.885022 1_455
Zn3 Zn9 2.885022 1_565
Zn4 Zn9 2.530433 1_555
Zn5 Zn8 2.530433 1_555
Zn6 Zn9 2.530433 1_554
Zn7 Zn8 2.530433 1_556
Sn0 Zn8 2.655623 1_555
Sn0 Zn6 2.662787 1_555
Sn0 Zn4 2.662787 1_555
Sn1 Zn9 2.655623 1_555
Sn1 Zn7 2.662787 1_555
Sn1 Zn5 2.662787 1_555
