# generated using pymatgen
data_CeMg2
_symmetry_space_group_name_H-M   'P 1'
_cell_length_a   18.12791038
_cell_length_b   18.12791038
_cell_length_c   10.27759786
_cell_angle_alpha   90.00000000
_cell_angle_beta   90.00000000
_cell_angle_gamma   160.09942300
_symmetry_Int_Tables_number   1
_chemical_formula_structural   CeMg2
_chemical_formula_sum   'Ce16 Mg32'
_cell_volume   1149.64208406
_cell_formula_units_Z   16
loop_
 _symmetry_equiv_pos_site_id
 _symmetry_equiv_pos_as_xyz
  1  'x, y, z'
loop_
 _atom_site_type_symbol
 _atom_site_label
 _atom_site_symmetry_multiplicity
 _atom_site_fract_x
 _atom_site_fract_y
 _atom_site_fract_z
 _atom_site_occupancy
  Ce  Ce0_0  1  0.13292181  0.36707819  0.12500000  1
  Ce  Ce0_1  1  0.13292181  0.36707819  0.62500000  1
  Ce  Ce0_2  1  0.13292181  0.86707819  0.12500000  1
  Ce  Ce0_3  1  0.13292181  0.86707819  0.62500000  1
  Ce  Ce0_4  1  0.63292181  0.36707819  0.12500000  1
  Ce  Ce0_5  1  0.63292181  0.36707819  0.62500000  1
  Ce  Ce0_6  1  0.63292181  0.86707819  0.12500000  1
  Ce  Ce0_7  1  0.63292181  0.86707819  0.62500000  1
  Ce  Ce1_0  1  0.36713276  0.13286724  0.37500000  1
  Ce  Ce1_1  1  0.36713276  0.13286724  0.87500000  1
  Ce  Ce1_2  1  0.36713276  0.63286724  0.37500000  1
  Ce  Ce1_3  1  0.36713276  0.63286724  0.87500000  1
  Ce  Ce1_4  1  0.86713275  0.13286724  0.37500000  1
  Ce  Ce1_5  1  0.86713275  0.13286724  0.87500000  1
  Ce  Ce1_6  1  0.86713275  0.63286724  0.37500000  1
  Ce  Ce1_7  1  0.86713275  0.63286724  0.87500000  1
  Mg  Mg0_0  1  0.30038089  0.19961911  0.12500000  1
  Mg  Mg0_1  1  0.30038089  0.19961911  0.62500000  1
  Mg  Mg0_2  1  0.30038089  0.69961911  0.12500000  1
  Mg  Mg0_3  1  0.30038089  0.69961911  0.62500000  1
  Mg  Mg0_4  1  0.80038089  0.19961911  0.12500000  1
  Mg  Mg0_5  1  0.80038089  0.19961911  0.62500000  1
  Mg  Mg0_6  1  0.80038088  0.69961911  0.12500000  1
  Mg  Mg0_7  1  0.80038088  0.69961911  0.62500000  1
  Mg  Mg1_0  1  0.47146919  0.02853081  0.12500000  1
  Mg  Mg1_1  1  0.47146919  0.02853081  0.62500000  1
  Mg  Mg1_2  1  0.47146919  0.52853081  0.12500000  1
  Mg  Mg1_3  1  0.47146919  0.52853081  0.62500000  1
  Mg  Mg1_4  1  0.97146919  0.02853081  0.12500000  1
  Mg  Mg1_5  1  0.97146919  0.02853081  0.62500000  1
  Mg  Mg1_6  1  0.97146919  0.52853081  0.12500000  1
  Mg  Mg1_7  1  0.97146919  0.52853081  0.62500000  1
  Mg  Mg2_0  1  0.02847037  0.47152964  0.37500000  1
  Mg  Mg2_1  1  0.02847037  0.47152964  0.87500000  1
  Mg  Mg2_2  1  0.02847037  0.97152963  0.37500000  1
  Mg  Mg2_3  1  0.02847037  0.97152963  0.87500000  1
  Mg  Mg2_4  1  0.52847037  0.47152963  0.37500000  1
  Mg  Mg2_5  1  0.52847037  0.47152963  0.87500000  1
  Mg  Mg2_6  1  0.52847036  0.97152963  0.37500000  1
  Mg  Mg2_7  1  0.52847036  0.97152963  0.87500000  1
  Mg  Mg3_0  1  0.19962500  0.30037500  0.37500000  1
  Mg  Mg3_1  1  0.19962500  0.30037500  0.87500000  1
  Mg  Mg3_2  1  0.19962500  0.80037500  0.37500000  1
  Mg  Mg3_3  1  0.19962500  0.80037500  0.87500000  1
  Mg  Mg3_4  1  0.69962500  0.30037500  0.37500000  1
  Mg  Mg3_5  1  0.69962500  0.30037500  0.87500000  1
  Mg  Mg3_6  1  0.69962500  0.80037500  0.37500000  1
  Mg  Mg3_7  1  0.69962500  0.80037500  0.87500000  1
loop_
_geom_bond_atom_site_label_1
_geom_bond_atom_site_label_2
_geom_bond_distance
_geom_bond_site_symmetry_2
Ce0_0 Ce1_2 3.061484 1_555
Ce0_0 Ce1_3 3.061484 1_554
Ce0_0 Ce1_5 3.061484 1_454
Ce0_0 Ce1_4 3.061484 1_455
Ce0_0 Ce0_6 3.132388 1_555
Ce0_0 Ce0_6 3.132388 1_445
Ce0_0 Mg0_2 3.337837 1_555
Ce0_0 Mg0_4 3.337837 1_455
Ce0_0 Mg3_0 3.503676 1_555
Ce0_0 Mg3_1 3.503676 1_554
Ce0_0 Mg1_4 3.528688 1_455
Ce0_0 Mg1_2 3.528688 1_555
Ce0_1 Ce1_2 3.061484 1_555
Ce0_1 Ce1_3 3.061484 1_555
Ce0_1 Ce1_5 3.061484 1_455
Ce0_1 Ce1_4 3.061484 1_455
Ce0_1 Ce0_7 3.132388 1_555
Ce0_1 Ce0_7 3.132388 1_445
Ce0_1 Mg0_3 3.337837 1_555
Ce0_1 Mg0_5 3.337837 1_455
Ce0_1 Mg3_0 3.503676 1_555
Ce0_1 Mg3_1 3.503676 1_555
Ce0_1 Mg1_5 3.528688 1_455
Ce0_1 Mg1_3 3.528688 1_555
Ce0_2 Ce1_0 3.061484 1_565
Ce0_2 Ce1_1 3.061484 1_564
Ce0_2 Ce1_7 3.061484 1_454
Ce0_2 Ce1_6 3.061484 1_455
Ce0_2 Ce0_4 3.132388 1_565
Ce0_2 Ce0_4 3.132388 1_455
Ce0_2 Mg0_0 3.337837 1_565
Ce0_2 Mg0_6 3.337837 1_455
Ce0_2 Mg3_2 3.503676 1_555
Ce0_2 Mg3_3 3.503676 1_554
Ce0_2 Mg1_6 3.528688 1_455
Ce0_2 Mg1_0 3.528688 1_565
Ce0_3 Ce1_0 3.061484 1_565
Ce0_3 Ce1_1 3.061484 1_565
Ce0_3 Ce1_7 3.061484 1_455
Ce0_3 Ce1_6 3.061484 1_455
Ce0_3 Ce0_5 3.132388 1_565
Ce0_3 Ce0_5 3.132388 1_455
Ce0_3 Mg0_1 3.337837 1_565
Ce0_3 Mg0_7 3.337837 1_455
Ce0_3 Mg3_3 3.503676 1_555
Ce0_3 Mg3_2 3.503676 1_555
Ce0_3 Mg1_1 3.528688 1_565
Ce0_3 Mg1_7 3.528688 1_455
Ce0_4 Ce1_6 3.061484 1_555
Ce0_4 Ce1_7 3.061484 1_554
Ce0_4 Ce1_1 3.061484 1_554
Ce0_4 Ce1_0 3.061484 1_555
Ce0_4 Mg0_6 3.337837 1_555
Ce0_4 Mg0_0 3.337837 1_555
Ce0_4 Mg3_4 3.503676 1_555
Ce0_4 Mg3_5 3.503676 1_554
Ce0_4 Mg1_0 3.528688 1_555
Ce0_4 Mg1_6 3.528688 1_555
Ce0_5 Ce1_6 3.061484 1_555
Ce0_5 Ce1_7 3.061484 1_555
Ce0_5 Ce1_1 3.061484 1_555
Ce0_5 Ce1_0 3.061484 1_555
Ce0_5 Mg0_7 3.337837 1_555
Ce0_5 Mg0_1 3.337837 1_555
Ce0_5 Mg3_4 3.503676 1_555
Ce0_5 Mg3_5 3.503676 1_555
Ce0_5 Mg1_1 3.528688 1_555
Ce0_5 Mg1_7 3.528688 1_555
Ce0_6 Ce1_3 3.061484 1_554
Ce0_6 Ce1_2 3.061484 1_555
Ce0_6 Ce1_5 3.061484 1_564
Ce0_6 Ce1_4 3.061484 1_565
Ce0_6 Mg0_2 3.337837 1_555
Ce0_6 Mg0_4 3.337837 1_565
Ce0_6 Mg3_6 3.503676 1_555
Ce0_6 Mg3_7 3.503676 1_554
Ce0_6 Mg1_2 3.528688 1_555
Ce0_6 Mg1_4 3.528688 1_565
Ce0_7 Ce1_2 3.061484 1_555
Ce0_7 Ce1_3 3.061484 1_555
Ce0_7 Ce1_4 3.061484 1_565
Ce0_7 Ce1_5 3.061484 1_565
Ce0_7 Mg0_3 3.337837 1_555
Ce0_7 Mg0_5 3.337837 1_565
Ce0_7 Mg3_7 3.503676 1_555
Ce0_7 Mg3_6 3.503676 1_555
Ce0_7 Mg1_3 3.528688 1_555
Ce0_7 Mg1_5 3.528688 1_565
Ce1_0 Ce1_6 3.132388 1_555
Ce1_0 Ce1_6 3.132388 1_445
Ce1_0 Mg3_4 3.336303 1_555
Ce1_0 Mg3_2 3.336303 1_545
Ce1_0 Mg0_1 3.504858 1_555
Ce1_0 Mg0_0 3.504858 1_555
Ce1_0 Mg2_2 3.532369 1_545
Ce1_0 Mg2_4 3.532369 1_555
Ce1_1 Ce1_7 3.132388 1_555
Ce1_1 Ce1_7 3.132388 1_445
Ce1_1 Mg3_5 3.336303 1_555
Ce1_1 Mg3_3 3.336303 1_545
Ce1_1 Mg0_1 3.504858 1_555
Ce1_1 Mg0_0 3.504858 1_556
Ce1_1 Mg2_3 3.532369 1_545
Ce1_1 Mg2_5 3.532369 1_555
Ce1_2 Ce1_4 3.132388 1_565
Ce1_2 Ce1_4 3.132388 1_455
Ce1_2 Mg3_0 3.336303 1_555
Ce1_2 Mg3_6 3.336303 1_555
Ce1_2 Mg0_3 3.504858 1_555
Ce1_2 Mg0_2 3.504858 1_555
Ce1_2 Mg2_6 3.532369 1_555
Ce1_2 Mg2_0 3.532369 1_555
Ce1_3 Ce1_5 3.132388 1_565
Ce1_3 Ce1_5 3.132388 1_455
Ce1_3 Mg3_1 3.336303 1_555
Ce1_3 Mg3_7 3.336303 1_555
Ce1_3 Mg0_2 3.504858 1_556
Ce1_3 Mg0_3 3.504858 1_555
Ce1_3 Mg2_7 3.532369 1_555
Ce1_3 Mg2_1 3.532369 1_555
Ce1_4 Mg3_6 3.336303 1_545
Ce1_4 Mg3_0 3.336303 1_655
Ce1_4 Mg0_5 3.504858 1_555
Ce1_4 Mg0_4 3.504858 1_555
Ce1_4 Mg2_6 3.532369 1_545
Ce1_4 Mg2_0 3.532369 1_655
Ce1_5 Mg3_7 3.336303 1_545
Ce1_5 Mg3_1 3.336303 1_655
Ce1_5 Mg0_5 3.504858 1_555
Ce1_5 Mg0_4 3.504858 1_556
Ce1_5 Mg2_7 3.532369 1_545
Ce1_5 Mg2_1 3.532369 1_655
Ce1_6 Mg3_4 3.336303 1_555
Ce1_6 Mg3_2 3.336303 1_655
Ce1_6 Mg0_7 3.504858 1_555
Ce1_6 Mg0_6 3.504858 1_555
Ce1_6 Mg2_2 3.532369 1_655
Ce1_6 Mg2_4 3.532369 1_555
Ce1_7 Mg3_5 3.336303 1_555
Ce1_7 Mg3_3 3.336303 1_655
Ce1_7 Mg0_7 3.504858 1_555
Ce1_7 Mg0_6 3.504858 1_556
Ce1_7 Mg2_3 3.532369 1_655
Ce1_7 Mg2_5 3.532369 1_555
Mg0_0 Mg2_3 3.109177 1_544
Mg0_0 Mg2_2 3.109177 1_545
Mg0_0 Mg2_5 3.109177 1_554
Mg0_0 Mg2_4 3.109177 1_555
Mg0_0 Mg0_6 3.132388 1_555
Mg0_0 Mg0_6 3.132388 1_445
Mg0_0 Mg1_2 3.223963 1_555
Mg0_0 Mg1_4 3.223963 1_455
Mg0_1 Mg2_3 3.109177 1_545
Mg0_1 Mg2_2 3.109177 1_545
Mg0_1 Mg2_5 3.109177 1_555
Mg0_1 Mg2_4 3.109177 1_555
Mg0_1 Mg0_7 3.132388 1_555
Mg0_1 Mg0_7 3.132388 1_445
Mg0_1 Mg1_3 3.223963 1_555
Mg0_1 Mg1_5 3.223963 1_455
Mg0_2 Mg2_7 3.109177 1_554
Mg0_2 Mg2_6 3.109177 1_555
Mg0_2 Mg2_0 3.109177 1_555
Mg0_2 Mg2_1 3.109177 1_554
Mg0_2 Mg0_4 3.132388 1_565
Mg0_2 Mg0_4 3.132388 1_455
Mg0_2 Mg1_6 3.223963 1_455
Mg0_2 Mg1_0 3.223963 1_565
Mg0_3 Mg2_6 3.109177 1_555
Mg0_3 Mg2_7 3.109177 1_555
Mg0_3 Mg2_0 3.109177 1_555
Mg0_3 Mg2_1 3.109177 1_555
Mg0_3 Mg0_5 3.132388 1_565
Mg0_3 Mg0_5 3.132388 1_455
Mg0_3 Mg1_1 3.223963 1_565
Mg0_3 Mg1_7 3.223963 1_455
Mg0_4 Mg2_6 3.109177 1_545
Mg0_4 Mg2_0 3.109177 1_655
Mg0_4 Mg2_7 3.109177 1_544
Mg0_4 Mg2_1 3.109177 1_654
Mg0_4 Mg1_6 3.223963 1_555
Mg0_4 Mg1_0 3.223963 1_555
Mg0_5 Mg2_7 3.109177 1_545
Mg0_5 Mg2_1 3.109177 1_655
Mg0_5 Mg2_6 3.109177 1_545
Mg0_5 Mg2_0 3.109177 1_655
Mg0_5 Mg1_7 3.223963 1_555
Mg0_5 Mg1_1 3.223963 1_555
Mg0_6 Mg2_5 3.109177 1_554
Mg0_6 Mg2_4 3.109177 1_555
Mg0_6 Mg2_2 3.109177 1_655
Mg0_6 Mg2_3 3.109177 1_654
Mg0_6 Mg1_2 3.223963 1_555
Mg0_6 Mg1_4 3.223963 1_565
Mg0_7 Mg2_5 3.109177 1_555
Mg0_7 Mg2_4 3.109177 1_555
Mg0_7 Mg2_2 3.109177 1_655
Mg0_7 Mg2_3 3.109177 1_655
Mg0_7 Mg1_3 3.223963 1_555
Mg0_7 Mg1_5 3.223963 1_565
Mg1_0 Mg3_3 3.108582 1_544
Mg1_0 Mg3_5 3.108582 1_554
Mg1_0 Mg3_4 3.108582 1_555
Mg1_0 Mg3_2 3.108582 1_545
Mg1_0 Mg1_6 3.132388 1_555
Mg1_0 Mg1_6 3.132388 1_445
Mg1_0 Mg2_6 3.277992 1_545
Mg1_0 Mg2_7 3.277992 1_544
Mg1_1 Mg3_3 3.108582 1_545
Mg1_1 Mg3_4 3.108582 1_555
Mg1_1 Mg3_5 3.108582 1_555
Mg1_1 Mg3_2 3.108582 1_545
Mg1_1 Mg1_7 3.132388 1_555
Mg1_1 Mg1_7 3.132388 1_445
Mg1_1 Mg2_6 3.277992 1_545
Mg1_1 Mg2_7 3.277992 1_545
Mg1_2 Mg3_6 3.108582 1_555
Mg1_2 Mg3_7 3.108582 1_554
Mg1_2 Mg3_1 3.108582 1_554
Mg1_2 Mg3_0 3.108582 1_555
Mg1_2 Mg1_4 3.132388 1_565
Mg1_2 Mg1_4 3.132388 1_455
Mg1_2 Mg2_4 3.277992 1_555
Mg1_2 Mg2_5 3.277992 1_554
Mg1_3 Mg3_6 3.108582 1_555
Mg1_3 Mg3_7 3.108582 1_555
Mg1_3 Mg3_0 3.108582 1_555
Mg1_3 Mg3_1 3.108582 1_555
Mg1_3 Mg1_5 3.132388 1_565
Mg1_3 Mg1_5 3.132388 1_455
Mg1_3 Mg2_4 3.277992 1_555
Mg1_3 Mg2_5 3.277992 1_555
Mg1_4 Mg3_0 3.108582 1_655
Mg1_4 Mg3_6 3.108582 1_545
Mg1_4 Mg3_7 3.108582 1_544
Mg1_4 Mg3_1 3.108582 1_654
Mg1_4 Mg2_2 3.277992 1_645
Mg1_4 Mg2_3 3.277992 1_644
Mg1_5 Mg3_0 3.108582 1_655
Mg1_5 Mg3_1 3.108582 1_655
Mg1_5 Mg3_6 3.108582 1_545
Mg1_5 Mg3_7 3.108582 1_545
Mg1_5 Mg2_2 3.277992 1_645
Mg1_5 Mg2_3 3.277992 1_645
Mg1_6 Mg3_2 3.108582 1_655
Mg1_6 Mg3_5 3.108582 1_554
Mg1_6 Mg3_3 3.108582 1_654
Mg1_6 Mg3_4 3.108582 1_555
Mg1_6 Mg2_1 3.277992 1_654
Mg1_6 Mg2_0 3.277992 1_655
Mg1_7 Mg3_5 3.108582 1_555
Mg1_7 Mg3_3 3.108582 1_655
Mg1_7 Mg3_2 3.108582 1_655
Mg1_7 Mg3_4 3.108582 1_555
Mg1_7 Mg2_0 3.277992 1_655
Mg1_7 Mg2_1 3.277992 1_655
Mg2_0 Mg2_6 3.132388 1_555
Mg2_0 Mg2_6 3.132388 1_445
Mg2_0 Mg3_2 3.221893 1_555
Mg2_0 Mg3_4 3.221893 1_455
Mg2_1 Mg2_7 3.132388 1_555
Mg2_1 Mg2_7 3.132388 1_445
Mg2_1 Mg3_3 3.221893 1_555
Mg2_1 Mg3_5 3.221893 1_455
Mg2_2 Mg2_4 3.132388 1_565
Mg2_2 Mg2_4 3.132388 1_455
Mg2_2 Mg3_6 3.221893 1_455
Mg2_2 Mg3_0 3.221893 1_565
Mg2_3 Mg2_5 3.132388 1_565
Mg2_3 Mg2_5 3.132388 1_455
Mg2_3 Mg3_7 3.221893 1_455
Mg2_3 Mg3_1 3.221893 1_565
Mg2_4 Mg3_6 3.221893 1_555
Mg2_4 Mg3_0 3.221893 1_555
Mg2_5 Mg3_7 3.221893 1_555
Mg2_5 Mg3_1 3.221893 1_555
Mg2_6 Mg3_4 3.221893 1_565
Mg2_6 Mg3_2 3.221893 1_555
Mg2_7 Mg3_5 3.221893 1_565
Mg2_7 Mg3_3 3.221893 1_555
Mg3_0 Mg3_6 3.132388 1_445
Mg3_0 Mg3_6 3.132388 1_555
Mg3_1 Mg3_7 3.132388 1_555
Mg3_1 Mg3_7 3.132388 1_445
Mg3_2 Mg3_4 3.132388 1_565
Mg3_2 Mg3_4 3.132388 1_455
Mg3_3 Mg3_5 3.132388 1_565
Mg3_3 Mg3_5 3.132388 1_455
