# generated using pymatgen
data_YbCoC6N6O5
_symmetry_space_group_name_H-M   'P 1'
_cell_length_a   7.77479477
_cell_length_b   7.77479477
_cell_length_c   12.73027500
_cell_angle_alpha   90.00000000
_cell_angle_beta   90.00000000
_cell_angle_gamma   120.00000654
_symmetry_Int_Tables_number   1
_chemical_formula_structural   YbCoC6N6O5
_chemical_formula_sum   'Yb2 Co2 C12 N12 O10'
_cell_volume   666.41728967
_cell_formula_units_Z   2
loop_
 _symmetry_equiv_pos_site_id
 _symmetry_equiv_pos_as_xyz
  1  'x, y, z'
loop_
 _atom_site_type_symbol
 _atom_site_label
 _atom_site_symmetry_multiplicity
 _atom_site_fract_x
 _atom_site_fract_y
 _atom_site_fract_z
 _atom_site_occupancy
  Yb  Yb0  1  0.33333300  0.66666700  0.75000000  1
  Yb  Yb1  1  0.66666700  0.33333300  0.25000000  1
  Co  Co0  1  0.00000000  0.00000000  0.00000000  1
  Co  Co1  1  0.00000000  0.00000000  0.50000000  1
  C  C0  1  0.76694400  0.89769200  0.91813200  1
  C  C1  1  0.23305600  0.10230800  0.08186800  1
  C  C2  1  0.13074700  0.23305600  0.91813200  1
  C  C3  1  0.23305600  0.10230800  0.41813200  1
  C  C4  1  0.86925300  0.76694400  0.08186800  1
  C  C5  1  0.76694400  0.89769200  0.58186800  1
  C  C6  1  0.10230800  0.86925300  0.91813200  1
  C  C7  1  0.86925300  0.76694400  0.41813200  1
  C  C8  1  0.89769200  0.13074700  0.08186800  1
  C  C9  1  0.13074700  0.23305600  0.58186800  1
  C  C10  1  0.89769200  0.13074700  0.41813200  1
  C  C11  1  0.10230800  0.86925300  0.58186800  1
  N  N0  1  0.62103200  0.83235400  0.86879100  1
  N  N1  1  0.37896800  0.16764600  0.13120900  1
  N  N2  1  0.21132200  0.37896800  0.86879100  1
  N  N3  1  0.37896800  0.16764600  0.36879100  1
  N  N4  1  0.78867800  0.62103200  0.13120900  1
  N  N5  1  0.62103200  0.83235400  0.63120900  1
  N  N6  1  0.16764600  0.78867800  0.86879100  1
  N  N7  1  0.78867800  0.62103200  0.36879100  1
  N  N8  1  0.83235400  0.21132200  0.13120900  1
  N  N9  1  0.21132200  0.37896800  0.63120900  1
  N  N10  1  0.83235400  0.21132200  0.36879100  1
  N  N11  1  0.16764600  0.78867800  0.63120900  1
  O  O0  1  0.66666700  0.33333300  0.84480000  1
  O  O1  1  0.33333300  0.66666700  0.15520000  1
  O  O2  1  0.33333300  0.66666700  0.34480000  1
  O  O3  1  0.66666700  0.33333300  0.65520000  1
  O  O4  1  0.92131100  0.43663600  0.75000000  1
  O  O5  1  0.07868900  0.56336400  0.25000000  1
  O  O6  1  0.51532500  0.07868900  0.75000000  1
  O  O7  1  0.48467500  0.92131100  0.25000000  1
  O  O8  1  0.56336400  0.48467500  0.75000000  1
  O  O9  1  0.43663600  0.51532500  0.25000000  1
loop_
_geom_bond_atom_site_label_1
_geom_bond_atom_site_label_2
_geom_bond_distance
_geom_bond_site_symmetry_2
C0 N0 1.167586 1_555
C0 Co0 1.887012 1_666
C1 N1 1.167586 1_555
C1 Co0 1.887012 1_555
C2 N2 1.167586 1_555
C2 Co0 1.887012 1_556
C3 N3 1.167586 1_555
C3 Co1 1.887012 1_555
C4 N4 1.167586 1_555
C4 Co0 1.887012 1_665
C5 N5 1.167586 1_555
C5 Co1 1.887012 1_665
C6 N6 1.167592 1_555
C6 Co0 1.887006 1_566
C7 N7 1.167586 1_555
C7 Co1 1.887012 1_665
C8 N8 1.167592 1_555
C8 Co0 1.887006 1_655
C9 N9 1.167586 1_555
C9 Co1 1.887012 1_555
C10 N10 1.167592 1_555
C10 Co1 1.887006 1_655
C11 N11 1.167592 1_555
C11 Co1 1.887006 1_565
N0 Yb0 2.463363 1_555
N1 Yb1 2.463363 1_555
N2 Yb0 2.463364 1_555
N3 Yb1 2.463363 1_555
N4 Yb1 2.463364 1_555
N5 Yb0 2.463363 1_555
N6 Yb0 2.463359 1_555
N7 Yb1 2.463364 1_555
N8 Yb1 2.463359 1_555
N9 Yb0 2.463364 1_555
N10 Yb1 2.463359 1_555
N11 Yb0 2.463359 1_555
O4 Yb0 2.780492 1_655
O5 Yb1 2.780492 1_455
O6 Yb0 2.780492 1_545
O7 Yb1 2.780492 1_565
O8 Yb0 2.780499 1_555
O9 Yb1 2.780499 1_555
