# generated using pymatgen
data_UPt2Au3
_symmetry_space_group_name_H-M   'P 1'
_cell_length_a   5.45316146
_cell_length_b   5.45316146
_cell_length_c   5.45316146
_cell_angle_alpha   120.04191828
_cell_angle_beta   119.47720108
_cell_angle_gamma   90.41765250
_symmetry_Int_Tables_number   1
_chemical_formula_structural   UPt2Au3
_chemical_formula_sum   'U1 Pt2 Au3'
_cell_volume   115.07473551
_cell_formula_units_Z   1
loop_
 _symmetry_equiv_pos_site_id
 _symmetry_equiv_pos_as_xyz
  1  'x, y, z'
loop_
 _atom_site_type_symbol
 _atom_site_label
 _atom_site_symmetry_multiplicity
 _atom_site_fract_x
 _atom_site_fract_y
 _atom_site_fract_z
 _atom_site_occupancy
  U  U0  1  0.00508400  0.00508400  0.00000000  1
  Pt  Pt0  1  0.62325100  0.37407200  0.24917900  1
  Pt  Pt1  1  0.12489300  0.37407200  0.75082100  1
  Au  Au0  1  0.62360100  0.37449100  0.75089000  1
  Au  Au1  1  0.62360100  0.87271200  0.24911000  1
  Au  Au2  1  0.24957000  0.74957000  0.50000000  1
loop_
_geom_bond_atom_site_label_1
_geom_bond_atom_site_label_2
_geom_bond_distance
_geom_bond_site_symmetry_2
Pt0 Pt1 2.739073 1_554
Pt0 Pt1 2.757123 1_655
Pt0 U0 3.148668 1_555
Pt0 U0 3.215375 1_655
Pt0 U0 3.215375 1_666
Pt1 U0 3.148668 1_556
Pt1 U0 3.215375 1_555
Pt1 U0 3.215375 1_566
Au0 Au1 2.715155 1_556
Au0 Pt0 2.719334 1_556
Au0 Pt1 2.719334 1_555
Au0 Pt1 2.733829 1_655
Au0 Pt0 2.733829 1_555
Au0 Au1 2.734551 1_545
Au0 Au2 3.182633 1_545
Au0 U0 3.201685 1_656
Au0 U0 3.201685 1_555
Au0 Au2 3.214330 1_656
Au0 Au2 3.214330 1_555
Au0 U0 3.230344 1_666
Au1 Pt1 2.719337 1_554
Au1 Pt0 2.719340 1_555
Au1 Pt0 2.733823 1_565
Au1 Pt1 2.733826 1_665
Au1 Au2 3.182635 1_555
Au1 U0 3.201683 1_565
Au1 U0 3.201687 1_666
Au1 Au2 3.214328 1_554
Au1 Au2 3.214333 1_655
Au1 U0 3.230342 1_665
Au2 Pt0 3.196189 1_566
Au2 Pt1 3.196189 1_565
Au2 Pt1 3.196189 1_554
Au2 Pt0 3.196189 1_555
Au2 Pt0 3.197664 1_455
Au2 Pt1 3.197664 1_555
Au2 U0 3.309663 1_566
Au2 U0 3.309663 1_555
Au2 U0 3.377371 1_565
Au2 U0 3.377371 1_666
