# generated using pymatgen
data_CdSb5OF28
_symmetry_space_group_name_H-M   'P 1'
_cell_length_a   12.78374900
_cell_length_b   10.23164900
_cell_length_c   18.60350856
_cell_angle_alpha   81.75807324
_cell_angle_beta   90.00000000
_cell_angle_gamma   90.00000000
_symmetry_Int_Tables_number   1
_chemical_formula_structural   CdSb5OF28
_chemical_formula_sum   'Cd4 Sb20 O4 F112'
_cell_volume   2408.18491910
_cell_formula_units_Z   4
loop_
 _symmetry_equiv_pos_site_id
 _symmetry_equiv_pos_as_xyz
  1  'x, y, z'
loop_
 _atom_site_type_symbol
 _atom_site_label
 _atom_site_symmetry_multiplicity
 _atom_site_fract_x
 _atom_site_fract_y
 _atom_site_fract_z
 _atom_site_occupancy
  Cd  Cd0  1  0.64304800  0.69507200  0.26043800  1
  Cd  Cd1  1  0.14304800  0.80492800  0.73956200  1
  Cd  Cd2  1  0.35695200  0.30492800  0.73956200  1
  Cd  Cd3  1  0.85695200  0.19507200  0.26043800  1
  Sb  Sb0  1  0.71922600  0.47378400  0.09626300  1
  Sb  Sb1  1  0.21922600  0.02621600  0.90373700  1
  Sb  Sb2  1  0.28077400  0.52621600  0.90373700  1
  Sb  Sb3  1  0.78077400  0.97378400  0.09626300  1
  Sb  Sb4  1  0.75983200  0.40352800  0.43040500  1
  Sb  Sb5  1  0.25983200  0.09647200  0.56959500  1
  Sb  Sb6  1  0.24016800  0.59647200  0.56959500  1
  Sb  Sb7  1  0.74016800  0.90352800  0.43040500  1
  Sb  Sb8  1  0.36884100  0.74174000  0.13897500  1
  Sb  Sb9  1  0.86884100  0.75826000  0.86102500  1
  Sb  Sb10  1  0.63115900  0.25826000  0.86102500  1
  Sb  Sb11  1  0.13115900  0.24174000  0.13897500  1
  Sb  Sb12  1  0.39788800  0.55931100  0.33845900  1
  Sb  Sb13  1  0.89788800  0.94068900  0.66154100  1
  Sb  Sb14  1  0.60211200  0.44068900  0.66154100  1
  Sb  Sb15  1  0.10211200  0.05931100  0.33845900  1
  Sb  Sb16  1  0.96335400  0.58991600  0.29200800  1
  Sb  Sb17  1  0.46335400  0.91008400  0.70799200  1
  Sb  Sb18  1  0.03664600  0.41008400  0.70799200  1
  Sb  Sb19  1  0.53664600  0.08991600  0.29200800  1
  O  O0  1  0.95156900  0.32586400  0.93816400  1
  O  O1  1  0.45156900  0.17413600  0.06183600  1
  O  O2  1  0.04843100  0.67413600  0.06183600  1
  O  O3  1  0.54843100  0.82586400  0.93816400  1
  F  F0  1  0.35906800  0.91378000  0.16512200  1
  F  F1  1  0.85906800  0.58622000  0.83487800  1
  F  F2  1  0.64093200  0.08622000  0.83487800  1
  F  F3  1  0.14093200  0.41378000  0.16512200  1
  F  F4  1  0.83093500  0.67431200  0.26480700  1
  F  F5  1  0.33093500  0.82568800  0.73519300  1
  F  F6  1  0.16906500  0.32568800  0.73519300  1
  F  F7  1  0.66906500  0.17431200  0.26480700  1
  F  F8  1  0.64217200  0.30348500  0.46364900  1
  F  F9  1  0.14217200  0.19651500  0.53635100  1
  F  F10  1  0.35782800  0.69651500  0.53635100  1
  F  F11  1  0.85782800  0.80348500  0.46364900  1
  F  F12  1  0.38094400  0.56390300  0.12501000  1
  F  F13  1  0.88094400  0.93609700  0.87499000  1
  F  F14  1  0.61905600  0.43609700  0.87499000  1
  F  F15  1  0.11905600  0.06390300  0.12501000  1
  F  F16  1  0.67391200  0.53462700  0.18600700  1
  F  F17  1  0.17391200  0.96537300  0.81399300  1
  F  F18  1  0.32608800  0.46537300  0.81399300  1
  F  F19  1  0.82608800  0.03462700  0.18600700  1
  F  F20  1  0.68598300  0.50476500  0.34982300  1
  F  F21  1  0.18598300  0.99523500  0.65017700  1
  F  F22  1  0.31401700  0.49523500  0.65017700  1
  F  F23  1  0.81401700  0.00476500  0.34982300  1
  F  F24  1  0.59395300  0.37295800  0.09501200  1
  F  F25  1  0.09395300  0.12704200  0.90498800  1
  F  F26  1  0.40604700  0.62704200  0.90498800  1
  F  F27  1  0.90604700  0.87295800  0.09501200  1
  F  F28  1  0.88794400  0.51105200  0.38575900  1
  F  F29  1  0.38794400  0.98894800  0.61424100  1
  F  F30  1  0.11205600  0.48894800  0.61424100  1
  F  F31  1  0.61205600  0.01105200  0.38575900  1
  F  F32  1  0.84541600  0.57135300  0.10235800  1
  F  F33  1  0.34541600  0.92864700  0.89764200  1
  F  F34  1  0.15458400  0.42864700  0.89764200  1
  F  F35  1  0.65458400  0.07135300  0.10235800  1
  F  F36  1  0.77083200  0.40712900  0.01180900  1
  F  F37  1  0.27083200  0.09287100  0.98819100  1
  F  F38  1  0.22916800  0.59287100  0.98819100  1
  F  F39  1  0.72916800  0.90712900  0.01180900  1
  F  F40  1  0.02528900  0.66443900  0.20223700  1
  F  F41  1  0.52528900  0.83556100  0.79776300  1
  F  F42  1  0.97471100  0.33556100  0.79776300  1
  F  F43  1  0.47471100  0.16443900  0.20223700  1
  F  F44  1  0.78189500  0.32422300  0.15765900  1
  F  F45  1  0.28189500  0.17577700  0.84234100  1
  F  F46  1  0.21810500  0.67577700  0.84234100  1
  F  F47  1  0.71810500  0.82422300  0.15765900  1
  F  F48  1  0.99648000  0.73184100  0.34175500  1
  F  F49  1  0.49648000  0.76815900  0.65824500  1
  F  F50  1  0.00352000  0.26815900  0.65824500  1
  F  F51  1  0.50352000  0.23184100  0.34175500  1
  F  F52  1  0.08072400  0.49217300  0.32842900  1
  F  F53  1  0.58072400  0.00782700  0.67157100  1
  F  F54  1  0.91927600  0.50782700  0.67157100  1
  F  F55  1  0.41927600  0.99217300  0.32842900  1
  F  F56  1  0.90969100  0.43832800  0.25360300  1
  F  F57  1  0.40969100  0.06167200  0.74639700  1
  F  F58  1  0.09030900  0.56167200  0.74639700  1
  F  F59  1  0.59030900  0.93832800  0.25360300  1
  F  F60  1  0.51319200  0.73963100  0.17098500  1
  F  F61  1  0.01319200  0.76036900  0.82901500  1
  F  F62  1  0.48680800  0.26036900  0.82901500  1
  F  F63  1  0.98680800  0.23963100  0.17098500  1
  F  F64  1  0.49783800  0.50446000  0.27174600  1
  F  F65  1  0.99783800  0.99554000  0.72825400  1
  F  F66  1  0.50216200  0.49554000  0.72825400  1
  F  F67  1  0.00216200  0.00446000  0.27174600  1
  F  F68  1  0.45890700  0.46899400  0.42302200  1
  F  F69  1  0.95890700  0.03100600  0.57697800  1
  F  F70  1  0.54109300  0.53100600  0.57697800  1
  F  F71  1  0.04109300  0.96899400  0.42302200  1
  F  F72  1  0.29870000  0.65516300  0.38418800  1
  F  F73  1  0.79870000  0.84483700  0.61581200  1
  F  F74  1  0.70130000  0.34483700  0.61581200  1
  F  F75  1  0.20130000  0.15516300  0.38418800  1
  F  F76  1  0.22184200  0.74312400  0.12093600  1
  F  F77  1  0.72184200  0.75687600  0.87906400  1
  F  F78  1  0.77815800  0.25687600  0.87906400  1
  F  F79  1  0.27815800  0.24312400  0.12093600  1
  F  F80  1  0.85903300  0.31776800  0.49543900  1
  F  F81  1  0.35903300  0.18223200  0.50456100  1
  F  F82  1  0.14096700  0.68223200  0.50456100  1
  F  F83  1  0.64096700  0.81776800  0.49543900  1
  F  F84  1  0.79427100  0.28400300  0.36177700  1
  F  F85  1  0.29427100  0.21599700  0.63822300  1
  F  F86  1  0.20572900  0.71599700  0.63822300  1
  F  F87  1  0.70572900  0.78400300  0.36177700  1
  F  F88  1  0.49620600  0.70702800  0.33492800  1
  F  F89  1  0.99620600  0.79297200  0.66507200  1
  F  F90  1  0.50379400  0.29297200  0.66507200  1
  F  F91  1  0.00379400  0.20702800  0.33492800  1
  F  F92  1  0.33474600  0.67338300  0.24473800  1
  F  F93  1  0.83474600  0.82661700  0.75526200  1
  F  F94  1  0.66525400  0.32661700  0.75526200  1
  F  F95  1  0.16525400  0.17338300  0.24473800  1
  F  F96  1  0.65239600  0.62175300  0.04117700  1
  F  F97  1  0.15239600  0.87824700  0.95882300  1
  F  F98  1  0.34760400  0.37824700  0.95882300  1
  F  F99  1  0.84760400  0.12175300  0.04117700  1
  F  F100  1  0.74067000  0.54481400  0.48394800  1
  F  F101  1  0.24067000  0.95518600  0.51605200  1
  F  F102  1  0.25933000  0.45518600  0.51605200  1
  F  F103  1  0.75933000  0.04481400  0.48394800  1
  F  F104  1  0.30410200  0.42680800  0.31948600  1
  F  F105  1  0.80410200  0.07319200  0.68051400  1
  F  F106  1  0.69589800  0.57319200  0.68051400  1
  F  F107  1  0.19589800  0.92680800  0.31948600  1
  F  F108  1  0.41014700  0.80999400  0.04191300  1
  F  F109  1  0.91014700  0.69000600  0.95808700  1
  F  F110  1  0.58985300  0.19000600  0.95808700  1
  F  F111  1  0.08985300  0.30999400  0.04191300  1
loop_
_geom_bond_atom_site_label_1
_geom_bond_atom_site_label_2
_geom_bond_distance
_geom_bond_site_symmetry_2
Cd0 F16 2.328010 1_555
Cd0 F88 2.346868 1_555
Cd0 F60 2.348499 1_555
Cd0 F87 2.348627 1_555
Cd0 F47 2.366086 1_555
Cd0 F4 2.411617 1_555
Cd0 F20 2.435057 1_555
Cd0 F59 2.564109 1_555
Cd0 F64 2.678834 1_555
Cd1 F17 2.328010 1_555
Cd1 F89 2.346868 1_455
Cd1 F61 2.348499 1_555
Cd1 F86 2.348627 1_555
Cd1 F46 2.366086 1_555
Cd1 F5 2.411617 1_555
Cd1 F21 2.435057 1_555
Cd1 F58 2.564109 1_555
Cd1 F65 2.678834 1_455
Cd2 F18 2.328010 1_555
Cd2 F90 2.346868 1_555
Cd2 F62 2.348499 1_555
Cd2 F85 2.348627 1_555
Cd2 F45 2.366086 1_555
Cd2 F6 2.411617 1_555
Cd2 F22 2.435057 1_555
Cd2 F57 2.564109 1_555
Cd2 F66 2.678834 1_555
Cd3 F19 2.328010 1_555
Cd3 F91 2.346868 1_655
Cd3 F63 2.348499 1_555
Cd3 F84 2.348627 1_555
Cd3 F44 2.366086 1_555
Cd3 F7 2.411617 1_555
Cd3 F23 2.435057 1_555
Cd3 F56 2.564109 1_555
Cd3 F67 2.678834 1_655
F0 Sb8 1.896364 1_555
F1 Sb9 1.896364 1_555
F2 Sb10 1.896364 1_555
F3 Sb11 1.896364 1_555
F4 Sb16 1.934438 1_555
F5 Sb17 1.934438 1_555
F6 Sb18 1.934438 1_555
F7 Sb19 1.934438 1_555
F8 Sb4 1.873814 1_555
F9 Sb5 1.873814 1_555
F10 Sb6 1.873814 1_555
F11 Sb7 1.873814 1_555
F12 Sb8 1.880900 1_555
F13 Sb9 1.880900 1_555
F14 Sb10 1.880900 1_555
F15 Sb11 1.880900 1_555
F16 Sb0 1.951537 1_555
F17 Sb1 1.951537 1_565
F18 Sb2 1.951537 1_555
F19 Sb3 1.951537 1_545
F20 Sb4 1.940699 1_555
F21 Sb5 1.940699 1_565
F22 Sb6 1.940699 1_555
F23 Sb7 1.940699 1_545
F24 Sb0 1.906916 1_555
F25 Sb1 1.906916 1_555
F26 Sb2 1.906916 1_555
F27 Sb3 1.906916 1_555
F28 Sb16 2.053978 1_555
F28 Sb4 2.078564 1_555
F29 Sb17 2.053978 1_555
F29 Sb5 2.078564 1_565
F30 Sb18 2.053978 1_555
F30 Sb6 2.078564 1_555
F31 Sb19 2.053978 1_555
F31 Sb7 2.078564 1_545
F32 Sb0 1.908992 1_555
F33 Sb1 1.908992 1_565
F34 Sb2 1.908992 1_555
F35 Sb3 1.908992 1_545
F36 Sb0 1.917297 1_555
F37 Sb1 1.917297 1_555
F38 Sb2 1.917297 1_555
F39 Sb3 1.917297 1_555
F40 Sb16 1.905853 1_455
F41 Sb17 1.905853 1_555
F42 Sb18 1.905853 1_655
F43 Sb19 1.905853 1_555
F44 Sb0 1.946016 1_555
F45 Sb1 1.946016 1_555
F46 Sb2 1.946016 1_555
F47 Sb3 1.946016 1_555
F48 Sb16 1.878776 1_555
F49 Sb17 1.878776 1_555
F50 Sb18 1.878776 1_555
F51 Sb19 1.878776 1_555
F52 Sb16 1.875164 1_455
F53 Sb17 1.875164 1_545
F54 Sb18 1.875164 1_655
F55 Sb19 1.875164 1_565
F56 Sb16 1.924675 1_555
F57 Sb17 1.924675 1_545
F58 Sb18 1.924675 1_555
F59 Sb19 1.924675 1_565
F60 Sb8 1.938222 1_555
F61 Sb9 1.938222 1_455
F62 Sb10 1.938222 1_555
F63 Sb11 1.938222 1_655
F64 Sb12 1.920310 1_555
F65 Sb13 1.920310 1_555
F66 Sb14 1.920310 1_555
F67 Sb15 1.920310 1_555
F68 Sb12 1.876296 1_555
F69 Sb13 1.876296 1_545
F70 Sb14 1.876296 1_555
F71 Sb15 1.876296 1_565
F72 Sb12 1.879510 1_555
F73 Sb13 1.879510 1_555
F74 Sb14 1.879510 1_555
F75 Sb15 1.879510 1_555
F76 Sb8 1.908624 1_555
F77 Sb9 1.908624 1_555
F78 Sb10 1.908624 1_555
F79 Sb11 1.908624 1_555
F80 Sb4 1.880843 1_555
F81 Sb5 1.880843 1_555
F82 Sb6 1.880843 1_555
F83 Sb7 1.880843 1_555
F84 Sb4 1.940895 1_555
F85 Sb5 1.940895 1_555
F86 Sb6 1.940895 1_555
F87 Sb7 1.940895 1_555
F88 Sb12 1.959560 1_555
F89 Sb13 1.959560 1_555
F90 Sb14 1.959560 1_555
F91 Sb15 1.959560 1_555
F92 Sb8 2.038603 1_555
F92 Sb12 2.114303 1_555
F93 Sb9 2.038603 1_555
F93 Sb13 2.114303 1_555
F94 Sb10 2.038603 1_555
F94 Sb14 2.114303 1_555
F95 Sb11 2.038603 1_555
F95 Sb15 2.114303 1_555
F96 Sb0 1.904564 1_555
F97 Sb1 1.904564 1_565
F98 Sb2 1.904564 1_555
F99 Sb3 1.904564 1_545
F100 Sb4 1.885408 1_555
F101 Sb5 1.885408 1_565
F102 Sb6 1.885408 1_555
F103 Sb7 1.885408 1_545
F104 Sb12 1.880749 1_555
F105 Sb13 1.880749 1_545
F106 Sb14 1.880749 1_555
F107 Sb15 1.880749 1_565
F108 Sb8 1.914554 1_555
F109 Sb9 1.914554 1_555
F110 Sb10 1.914554 1_555
F111 Sb11 1.914554 1_555
