# generated using pymatgen
data_LiRuN2
_symmetry_space_group_name_H-M   'P 1'
_cell_length_a   5.62574700
_cell_length_b   6.61799500
_cell_length_c   5.33273300
_cell_angle_alpha   90.00000000
_cell_angle_beta   90.00000000
_cell_angle_gamma   90.00000000
_symmetry_Int_Tables_number   1
_chemical_formula_structural   LiRuN2
_chemical_formula_sum   'Li4 Ru4 N8'
_cell_volume   198.54386498
_cell_formula_units_Z   4
loop_
 _symmetry_equiv_pos_site_id
 _symmetry_equiv_pos_as_xyz
  1  'x, y, z'
loop_
 _atom_site_type_symbol
 _atom_site_label
 _atom_site_symmetry_multiplicity
 _atom_site_fract_x
 _atom_site_fract_y
 _atom_site_fract_z
 _atom_site_occupancy
  Li  Li0  1  0.58123200  0.37726100  0.00088900  1
  Li  Li1  1  0.41876800  0.62273900  0.50088900  1
  Li  Li2  1  0.91876800  0.87726100  0.50088900  1
  Li  Li3  1  0.08123200  0.12273900  0.00088900  1
  Ru  Ru0  1  0.57404500  0.87325700  0.00589300  1
  Ru  Ru1  1  0.42595500  0.12674300  0.50589300  1
  Ru  Ru2  1  0.92595500  0.37325700  0.50589300  1
  Ru  Ru3  1  0.07404500  0.62674300  0.00589300  1
  N  N0  1  0.60466900  0.35580200  0.40508200  1
  N  N1  1  0.39533100  0.64419800  0.90508200  1
  N  N2  1  0.89533100  0.85580200  0.90508200  1
  N  N3  1  0.10466900  0.14419800  0.40508200  1
  N  N4  1  0.56123300  0.89619400  0.35813600  1
  N  N5  1  0.43876700  0.10380600  0.85813600  1
  N  N6  1  0.93876700  0.39619400  0.85813600  1
  N  N7  1  0.06123300  0.60380600  0.35813600  1
loop_
_geom_bond_atom_site_label_1
_geom_bond_atom_site_label_2
_geom_bond_distance
_geom_bond_site_symmetry_2
Li0 N1 2.115568 1_554
Li0 N5 2.120608 1_554
Li0 N6 2.154288 1_554
Li0 N0 2.164147 1_555
Li1 N0 2.115568 1_555
Li1 N4 2.120608 1_555
Li1 N7 2.154288 1_555
Li1 N1 2.164147 1_555
Li2 N3 2.115568 1_665
Li2 N7 2.120608 1_655
Li2 N4 2.154288 1_555
Li2 N2 2.164147 1_555
Li3 N2 2.115568 1_444
Li3 N6 2.120608 1_454
Li3 N5 2.154288 1_554
Li3 N3 2.164147 1_555
N0 Ru2 1.889264 1_555
N0 Ru1 1.896794 1_555
N1 Ru3 1.889264 1_556
N1 Ru0 1.896794 1_556
N2 Ru0 1.889264 1_556
N2 Ru3 1.896794 1_656
N3 Ru1 1.889264 1_555
N3 Ru2 1.896794 1_455
N4 Ru1 1.878304 1_565
N4 Ru0 1.885919 1_555
N5 Ru0 1.878304 1_546
N5 Ru1 1.885919 1_555
N6 Ru3 1.878304 1_656
N6 Ru2 1.885919 1_555
N7 Ru2 1.878304 1_455
N7 Ru3 1.885919 1_555
