# generated using pymatgen
data_MgMn2(B4O7)2
_symmetry_space_group_name_H-M   'P 1'
_cell_length_a   5.23655210
_cell_length_b   6.60460464
_cell_length_c   6.60460296
_cell_angle_alpha   115.55160350
_cell_angle_beta   90.00000000
_cell_angle_gamma   90.00000000
_symmetry_Int_Tables_number   1
_chemical_formula_structural   MgMn2(B4O7)2
_chemical_formula_sum   'Mg1 Mn2 B8 O14'
_cell_volume   206.08217703
_cell_formula_units_Z   1
loop_
 _symmetry_equiv_pos_site_id
 _symmetry_equiv_pos_as_xyz
  1  'x, y, z'
loop_
 _atom_site_type_symbol
 _atom_site_label
 _atom_site_symmetry_multiplicity
 _atom_site_fract_x
 _atom_site_fract_y
 _atom_site_fract_z
 _atom_site_occupancy
  Mg  Mg0  1  0.25000000  0.52153011  0.52153011  1
  Mn  Mn0  1  0.75000000  0.75769938  0.75769938  1
  Mn  Mn1  1  0.25000000  0.17759555  0.17759555  1
  B  B0  1  0.75000000  0.34594257  0.11386710  1
  B  B1  1  0.25000000  0.92155621  0.66830047  1
  B  B2  1  0.99200973  0.71697997  0.28572875  1
  B  B3  1  0.99200973  0.28572875  0.71697997  1
  B  B4  1  0.50799027  0.28572875  0.71697997  1
  B  B5  1  0.75000000  0.11386710  0.34594257  1
  B  B6  1  0.25000000  0.66830047  0.92155621  1
  B  B7  1  0.50799027  0.71697997  0.28572875  1
  O  O0  1  0.25000000  0.86857983  0.86857983  1
  O  O1  1  0.75000000  0.13757082  0.13757082  1
  O  O2  1  0.75000000  0.24272363  0.82147509  1
  O  O3  1  0.25000000  0.17804834  0.76386537  1
  O  O4  1  0.52244517  0.18977836  0.47462349  1
  O  O5  1  0.47061021  0.53063629  0.80850090  1
  O  O6  1  0.97755483  0.18977836  0.47462349  1
  O  O7  1  0.75000000  0.82147509  0.24272363  1
  O  O8  1  0.52244517  0.47462349  0.18977836  1
  O  O9  1  0.47061021  0.80850090  0.53063629  1
  O  O10  1  0.97755483  0.47462349  0.18977836  1
  O  O11  1  0.25000000  0.76386537  0.17804834  1
  O  O12  1  0.02938979  0.53063629  0.80850090  1
  O  O13  1  0.02938979  0.80850090  0.53063629  1
loop_
_geom_bond_atom_site_label_1
_geom_bond_atom_site_label_2
_geom_bond_distance
_geom_bond_site_symmetry_2
Mg0 O5 2.198209 1_555
Mg0 O12 2.198209 1_555
Mg0 O13 2.198210 1_555
Mg0 O9 2.198210 1_555
Mg0 Mn1 2.422535 1_555
Mg0 O0 2.444477 1_555
Mg0 O10 2.519261 1_455
Mg0 O8 2.519261 1_555
Mg0 O6 2.519262 1_455
Mg0 O4 2.519262 1_555
Mn0 O9 2.221735 1_555
Mn0 O13 2.221735 1_655
Mn0 O12 2.221735 1_655
Mn0 O5 2.221735 1_555
Mn0 O1 2.675660 1_566
Mn0 O0 2.732275 1_555
Mn0 O0 2.732275 1_655
Mn1 O0 2.176581 1_544
Mn1 O4 2.398786 1_555
Mn1 O6 2.398786 1_455
Mn1 O8 2.398786 1_555
Mn1 O10 2.398786 1_455
Mn1 O1 2.633410 1_555
Mn1 O1 2.633410 1_455
Mn1 O3 2.733815 1_554
Mn1 O11 2.733815 1_545
B0 O10 1.423381 1_555
B0 O8 1.423381 1_555
B0 O1 1.450631 1_555
B0 O2 1.748813 1_554
B1 O13 1.460526 1_555
B1 O9 1.460526 1_555
B1 O0 1.507110 1_555
B1 O3 1.531584 1_565
B2 O10 1.447212 1_555
B2 O13 1.475336 1_655
B2 O7 1.527128 1_555
B2 O11 1.617652 1_655
B3 O6 1.447212 1_555
B3 O12 1.475337 1_655
B3 O2 1.527128 1_555
B3 O3 1.617652 1_655
B4 O4 1.447212 1_555
B4 O5 1.475337 1_555
B4 O2 1.527128 1_555
B4 O3 1.617652 1_555
B5 O4 1.423381 1_555
B5 O6 1.423381 1_555
B5 O1 1.450631 1_555
B5 O7 1.748814 1_545
B6 O12 1.460526 1_555
B6 O5 1.460526 1_555
B6 O0 1.507110 1_555
B6 O11 1.531584 1_556
B7 O8 1.447212 1_555
B7 O9 1.475336 1_555
B7 O7 1.527128 1_555
B7 O11 1.617652 1_555
