# generated using pymatgen
data_Eu
_symmetry_space_group_name_H-M   'P 1'
_cell_length_a   7.96619384
_cell_length_b   7.96619213
_cell_length_c   25.53247470
_cell_angle_alpha   90.00000000
_cell_angle_beta   90.00000000
_cell_angle_gamma   120.00000711
_symmetry_Int_Tables_number   1
_chemical_formula_structural   Eu
_chemical_formula_sum   Eu32
_cell_volume   1403.21803255
_cell_formula_units_Z   32
loop_
 _symmetry_equiv_pos_site_id
 _symmetry_equiv_pos_as_xyz
  1  'x, y, z'
loop_
 _atom_site_type_symbol
 _atom_site_label
 _atom_site_symmetry_multiplicity
 _atom_site_fract_x
 _atom_site_fract_y
 _atom_site_fract_z
 _atom_site_occupancy
  Eu  Eu0_0  1  0.00000000  0.00000000  0.49988650  1
  Eu  Eu0_1  1  0.00000000  0.00000000  0.99988650  1
  Eu  Eu0_2  1  0.00000000  0.50000000  0.49988650  1
  Eu  Eu0_3  1  0.00000000  0.50000000  0.99988650  1
  Eu  Eu0_4  1  0.50000000  0.00000000  0.49988650  1
  Eu  Eu0_5  1  0.50000000  0.00000000  0.99988650  1
  Eu  Eu0_6  1  0.50000000  0.50000000  0.49988650  1
  Eu  Eu0_7  1  0.50000000  0.50000000  0.99988650  1
  Eu  Eu1_0  1  0.16666650  0.33333300  0.12493039  1
  Eu  Eu1_1  1  0.16666650  0.33333300  0.62493039  1
  Eu  Eu1_2  1  0.16666650  0.83333300  0.12493039  1
  Eu  Eu1_3  1  0.16666650  0.83333300  0.62493039  1
  Eu  Eu1_4  1  0.66666650  0.33333300  0.12493039  1
  Eu  Eu1_5  1  0.66666650  0.33333300  0.62493039  1
  Eu  Eu1_6  1  0.66666650  0.83333300  0.12493039  1
  Eu  Eu1_7  1  0.66666650  0.83333300  0.62493039  1
  Eu  Eu2_0  1  0.00000000  0.00000000  0.25011414  1
  Eu  Eu2_1  1  0.00000000  0.00000000  0.75011414  1
  Eu  Eu2_2  1  0.00000000  0.50000000  0.25011414  1
  Eu  Eu2_3  1  0.00000000  0.50000000  0.75011414  1
  Eu  Eu2_4  1  0.50000000  0.00000000  0.25011414  1
  Eu  Eu2_5  1  0.50000000  0.00000000  0.75011414  1
  Eu  Eu2_6  1  0.50000000  0.50000000  0.25011414  1
  Eu  Eu2_7  1  0.50000000  0.50000000  0.75011414  1
  Eu  Eu3_0  1  0.33333300  0.16666700  0.37506848  1
  Eu  Eu3_1  1  0.33333300  0.16666700  0.87506848  1
  Eu  Eu3_2  1  0.33333300  0.66666700  0.37506848  1
  Eu  Eu3_3  1  0.33333300  0.66666700  0.87506848  1
  Eu  Eu3_4  1  0.83333300  0.16666700  0.37506848  1
  Eu  Eu3_5  1  0.83333300  0.16666700  0.87506848  1
  Eu  Eu3_6  1  0.83333300  0.66666700  0.37506848  1
  Eu  Eu3_7  1  0.83333300  0.66666700  0.87506848  1
loop_
_geom_bond_atom_site_label_1
_geom_bond_atom_site_label_2
_geom_bond_distance
_geom_bond_site_symmetry_2
Eu0_0 Eu3_6 3.929982 1_445
Eu0_0 Eu3_0 3.929982 1_555
Eu0_0 Eu3_4 3.929986 1_455
Eu0_0 Eu1_1 3.934660 1_555
Eu0_0 Eu1_7 3.934662 1_445
Eu0_0 Eu1_3 3.934662 1_545
Eu0_0 Eu0_6 3.983096 1_555
Eu0_0 Eu0_6 3.983096 1_445
Eu0_0 Eu0_2 3.983096 1_555
Eu0_0 Eu0_2 3.983096 1_545
Eu0_0 Eu0_4 3.983097 1_455
Eu0_0 Eu0_4 3.983097 1_555
Eu0_1 Eu3_7 3.929982 1_445
Eu0_1 Eu3_1 3.929982 1_555
Eu0_1 Eu3_5 3.929986 1_455
Eu0_1 Eu1_0 3.934660 1_556
Eu0_1 Eu1_6 3.934662 1_446
Eu0_1 Eu1_2 3.934662 1_546
Eu0_1 Eu0_7 3.983096 1_445
Eu0_1 Eu0_7 3.983096 1_555
Eu0_1 Eu0_3 3.983096 1_545
Eu0_1 Eu0_3 3.983096 1_555
Eu0_1 Eu0_5 3.983097 1_555
Eu0_1 Eu0_5 3.983097 1_455
Eu0_2 Eu3_4 3.929982 1_455
Eu0_2 Eu3_2 3.929982 1_555
Eu0_2 Eu3_6 3.929986 1_455
Eu0_2 Eu1_3 3.934660 1_555
Eu0_2 Eu1_5 3.934662 1_455
Eu0_2 Eu1_1 3.934662 1_555
Eu0_2 Eu0_4 3.983096 1_565
Eu0_2 Eu0_4 3.983096 1_455
Eu0_2 Eu0_6 3.983097 1_455
Eu0_2 Eu0_6 3.983097 1_555
Eu0_3 Eu3_5 3.929982 1_455
Eu0_3 Eu3_3 3.929982 1_555
Eu0_3 Eu3_7 3.929986 1_455
Eu0_3 Eu1_2 3.934660 1_556
Eu0_3 Eu1_0 3.934662 1_556
Eu0_3 Eu1_4 3.934662 1_456
Eu0_3 Eu0_5 3.983096 1_455
Eu0_3 Eu0_5 3.983096 1_565
Eu0_3 Eu0_7 3.983097 1_555
Eu0_3 Eu0_7 3.983097 1_455
Eu0_4 Eu3_2 3.929982 1_545
Eu0_4 Eu3_4 3.929982 1_555
Eu0_4 Eu3_0 3.929986 1_555
Eu0_4 Eu1_5 3.934660 1_555
Eu0_4 Eu1_3 3.934662 1_545
Eu0_4 Eu1_7 3.934662 1_545
Eu0_4 Eu0_6 3.983096 1_545
Eu0_4 Eu0_6 3.983096 1_555
Eu0_5 Eu3_3 3.929982 1_545
Eu0_5 Eu3_5 3.929982 1_555
Eu0_5 Eu3_1 3.929986 1_555
Eu0_5 Eu1_4 3.934660 1_556
Eu0_5 Eu1_2 3.934662 1_546
Eu0_5 Eu1_6 3.934662 1_546
Eu0_5 Eu0_7 3.983096 1_545
Eu0_5 Eu0_7 3.983096 1_555
Eu0_6 Eu3_0 3.929982 1_555
Eu0_6 Eu3_6 3.929982 1_555
Eu0_6 Eu3_2 3.929986 1_555
Eu0_6 Eu1_7 3.934660 1_555
Eu0_6 Eu1_1 3.934662 1_555
Eu0_6 Eu1_5 3.934662 1_555
Eu0_7 Eu3_1 3.929982 1_555
Eu0_7 Eu3_7 3.929982 1_555
Eu0_7 Eu3_3 3.929986 1_555
Eu0_7 Eu1_6 3.934660 1_556
Eu0_7 Eu1_0 3.934662 1_556
Eu0_7 Eu1_4 3.934662 1_556
Eu1_0 Eu2_0 3.937558 1_555
Eu1_0 Eu2_2 3.937560 1_555
Eu1_0 Eu2_6 3.937560 1_555
Eu1_0 Eu1_2 3.983096 1_555
Eu1_0 Eu1_6 3.983096 1_555
Eu1_0 Eu1_6 3.983096 1_445
Eu1_0 Eu1_2 3.983096 1_545
Eu1_0 Eu1_4 3.983097 1_455
Eu1_0 Eu1_4 3.983097 1_555
Eu1_1 Eu2_1 3.937558 1_555
Eu1_1 Eu2_3 3.937560 1_555
Eu1_1 Eu2_7 3.937560 1_555
Eu1_1 Eu1_3 3.983096 1_555
Eu1_1 Eu1_7 3.983096 1_555
Eu1_1 Eu1_7 3.983096 1_445
Eu1_1 Eu1_3 3.983096 1_545
Eu1_1 Eu1_5 3.983097 1_455
Eu1_1 Eu1_5 3.983097 1_555
Eu1_2 Eu2_2 3.937558 1_555
Eu1_2 Eu2_4 3.937560 1_565
Eu1_2 Eu2_0 3.937560 1_565
Eu1_2 Eu1_4 3.983096 1_455
Eu1_2 Eu1_4 3.983096 1_565
Eu1_2 Eu1_6 3.983097 1_455
Eu1_2 Eu1_6 3.983097 1_555
Eu1_3 Eu2_3 3.937558 1_555
Eu1_3 Eu2_5 3.937560 1_565
Eu1_3 Eu2_1 3.937560 1_565
Eu1_3 Eu1_5 3.983096 1_455
Eu1_3 Eu1_5 3.983096 1_565
Eu1_3 Eu1_7 3.983097 1_455
Eu1_3 Eu1_7 3.983097 1_555
Eu1_4 Eu2_4 3.937558 1_555
Eu1_4 Eu2_2 3.937560 1_655
Eu1_4 Eu2_6 3.937560 1_555
Eu1_4 Eu1_6 3.983096 1_555
Eu1_4 Eu1_6 3.983096 1_545
Eu1_5 Eu2_5 3.937558 1_555
Eu1_5 Eu2_3 3.937560 1_655
Eu1_5 Eu2_7 3.937560 1_555
Eu1_5 Eu1_7 3.983096 1_555
Eu1_5 Eu1_7 3.983096 1_545
Eu1_6 Eu2_6 3.937558 1_555
Eu1_6 Eu2_0 3.937560 1_665
Eu1_6 Eu2_4 3.937560 1_565
Eu1_7 Eu2_7 3.937558 1_555
Eu1_7 Eu2_1 3.937560 1_665
Eu1_7 Eu2_5 3.937560 1_565
Eu2_0 Eu3_6 3.932804 1_445
Eu2_0 Eu3_0 3.932805 1_555
Eu2_0 Eu3_4 3.932809 1_455
Eu2_0 Eu2_6 3.983096 1_555
Eu2_0 Eu2_6 3.983096 1_445
Eu2_0 Eu2_2 3.983096 1_545
Eu2_0 Eu2_2 3.983096 1_555
Eu2_0 Eu2_4 3.983097 1_455
Eu2_0 Eu2_4 3.983097 1_555
Eu2_1 Eu3_7 3.932804 1_445
Eu2_1 Eu3_1 3.932805 1_555
Eu2_1 Eu3_5 3.932809 1_455
Eu2_1 Eu2_7 3.983096 1_555
Eu2_1 Eu2_7 3.983096 1_445
Eu2_1 Eu2_3 3.983096 1_555
Eu2_1 Eu2_3 3.983096 1_545
Eu2_1 Eu2_5 3.983097 1_455
Eu2_1 Eu2_5 3.983097 1_555
Eu2_2 Eu3_4 3.932804 1_455
Eu2_2 Eu3_2 3.932805 1_555
Eu2_2 Eu3_6 3.932809 1_455
Eu2_2 Eu2_4 3.983096 1_565
Eu2_2 Eu2_4 3.983096 1_455
Eu2_2 Eu2_6 3.983097 1_455
Eu2_2 Eu2_6 3.983097 1_555
Eu2_3 Eu3_5 3.932804 1_455
Eu2_3 Eu3_3 3.932805 1_555
Eu2_3 Eu3_7 3.932809 1_455
Eu2_3 Eu2_5 3.983096 1_565
Eu2_3 Eu2_5 3.983096 1_455
Eu2_3 Eu2_7 3.983097 1_455
Eu2_3 Eu2_7 3.983097 1_555
Eu2_4 Eu3_2 3.932804 1_545
Eu2_4 Eu3_4 3.932805 1_555
Eu2_4 Eu3_0 3.932809 1_555
Eu2_4 Eu2_6 3.983096 1_545
Eu2_4 Eu2_6 3.983096 1_555
Eu2_5 Eu3_3 3.932804 1_545
Eu2_5 Eu3_5 3.932805 1_555
Eu2_5 Eu3_1 3.932809 1_555
Eu2_5 Eu2_7 3.983096 1_555
Eu2_5 Eu2_7 3.983096 1_545
Eu2_6 Eu3_0 3.932804 1_555
Eu2_6 Eu3_6 3.932805 1_555
Eu2_6 Eu3_2 3.932809 1_555
Eu2_7 Eu3_1 3.932804 1_555
Eu2_7 Eu3_7 3.932805 1_555
Eu2_7 Eu3_3 3.932809 1_555
Eu3_0 Eu3_2 3.983096 1_555
Eu3_0 Eu3_6 3.983096 1_445
Eu3_0 Eu3_6 3.983096 1_555
Eu3_0 Eu3_2 3.983096 1_545
Eu3_0 Eu3_4 3.983097 1_455
Eu3_0 Eu3_4 3.983097 1_555
Eu3_1 Eu3_7 3.983096 1_445
Eu3_1 Eu3_7 3.983096 1_555
Eu3_1 Eu3_3 3.983096 1_555
Eu3_1 Eu3_3 3.983096 1_545
Eu3_1 Eu3_5 3.983097 1_455
Eu3_1 Eu3_5 3.983097 1_555
Eu3_2 Eu3_4 3.983096 1_565
Eu3_2 Eu3_4 3.983096 1_455
Eu3_2 Eu3_6 3.983097 1_555
Eu3_2 Eu3_6 3.983097 1_455
Eu3_3 Eu3_5 3.983096 1_565
Eu3_3 Eu3_5 3.983096 1_455
Eu3_3 Eu3_7 3.983097 1_555
Eu3_3 Eu3_7 3.983097 1_455
Eu3_4 Eu3_6 3.983096 1_555
Eu3_4 Eu3_6 3.983096 1_545
Eu3_5 Eu3_7 3.983096 1_555
Eu3_5 Eu3_7 3.983096 1_545
