# generated using pymatgen
data_Cd4RuN4
_symmetry_space_group_name_H-M   'P 1'
_cell_length_a   6.48717485
_cell_length_b   6.48734450
_cell_length_c   9.19974411
_cell_angle_alpha   64.35545717
_cell_angle_beta   87.42945829
_cell_angle_gamma   63.54265421
_symmetry_Int_Tables_number   1
_chemical_formula_structural   Cd4RuN4
_chemical_formula_sum   'Cd8 Ru2 N8'
_cell_volume   307.17781318
_cell_formula_units_Z   2
loop_
 _symmetry_equiv_pos_site_id
 _symmetry_equiv_pos_as_xyz
  1  'x, y, z'
loop_
 _atom_site_type_symbol
 _atom_site_label
 _atom_site_symmetry_multiplicity
 _atom_site_fract_x
 _atom_site_fract_y
 _atom_site_fract_z
 _atom_site_occupancy
  Cd  Cd0  1  0.86373500  0.62568600  0.24056400  1
  Cd  Cd1  1  0.13626500  0.37431400  0.75943600  1
  Cd  Cd2  1  0.74673300  0.25359400  0.99974000  1
  Cd  Cd3  1  0.25326700  0.74640600  0.00026000  1
  Cd  Cd4  1  0.64770200  0.52869600  0.62493600  1
  Cd  Cd5  1  0.35229800  0.47130400  0.37506400  1
  Cd  Cd6  1  0.15275600  0.02091300  0.62597800  1
  Cd  Cd7  1  0.84724400  0.97908700  0.37402200  1
  Ru  Ru0  1  0.69696800  0.91395000  0.78161300  1
  Ru  Ru1  1  0.30303200  0.08605000  0.21838700  1
  N  N0  1  0.91853300  0.81255900  0.65793800  1
  N  N1  1  0.08146700  0.18744100  0.34206200  1
  N  N2  1  0.84136100  0.87676700  0.96423300  1
  N  N3  1  0.15863900  0.12323300  0.03576700  1
  N  N4  1  0.53884900  0.71759100  0.82067600  1
  N  N5  1  0.46115100  0.28240900  0.17932400  1
  N  N6  1  0.52512900  0.74128000  0.34152300  1
  N  N7  1  0.47487100  0.25872000  0.65847700  1
loop_
_geom_bond_atom_site_label_1
_geom_bond_atom_site_label_2
_geom_bond_distance
_geom_bond_site_symmetry_2
Cd0 N1 2.278614 1_655
Cd0 N6 2.280820 1_555
Cd0 N2 2.318430 1_554
Cd1 N0 2.278614 1_455
Cd1 N7 2.280820 1_555
Cd1 N3 2.318430 1_556
Cd2 N3 2.405912 1_656
Cd2 N2 2.407418 1_545
Cd2 N5 2.425047 1_556
Cd2 N4 2.425525 1_555
Cd3 N2 2.405912 1_454
Cd3 N3 2.407418 1_565
Cd3 N4 2.425047 1_554
Cd3 N5 2.425525 1_555
Cd4 N6 2.329972 1_555
Cd4 N7 2.381324 1_555
Cd4 N4 2.503593 1_555
Cd5 N7 2.329972 1_555
Cd5 N6 2.381324 1_555
Cd5 N5 2.503593 1_555
Cd6 N1 2.328950 1_555
Cd6 N0 2.380785 1_445
Cd6 N4 2.512692 1_545
Cd7 N0 2.328950 1_555
Cd7 N1 2.380785 1_665
Cd7 N5 2.512692 1_565
N0 Ru0 1.857894 1_555
N1 Ru1 1.857894 1_555
N2 Ru0 1.829544 1_555
N3 Ru1 1.829544 1_555
N4 Ru0 1.881219 1_555
N5 Ru1 1.881219 1_555
N6 Ru1 1.855674 1_565
N7 Ru0 1.855674 1_545
