# generated using pymatgen
data_BaSmCoCuO6
_symmetry_space_group_name_H-M   'P 1'
_cell_length_a   3.93384900
_cell_length_b   3.93384900
_cell_length_c   7.73158800
_cell_angle_alpha   90.00000000
_cell_angle_beta   90.00000000
_cell_angle_gamma   90.00000000
_symmetry_Int_Tables_number   1
_chemical_formula_structural   BaSmCoCuO6
_chemical_formula_sum   'Ba1 Sm1 Co1 Cu1 O6'
_cell_volume   119.64762286
_cell_formula_units_Z   1
loop_
 _symmetry_equiv_pos_site_id
 _symmetry_equiv_pos_as_xyz
  1  'x, y, z'
loop_
 _atom_site_type_symbol
 _atom_site_label
 _atom_site_symmetry_multiplicity
 _atom_site_fract_x
 _atom_site_fract_y
 _atom_site_fract_z
 _atom_site_occupancy
  Ba  Ba0  1  0.50000000  0.50000000  0.50162800  1
  Sm  Sm0  1  0.50000000  0.50000000  0.00020400  1
  Co  Co0  1  0.00000000  0.00000000  0.24563100  1
  Cu  Cu0  1  0.00000000  0.00000000  0.75380700  1
  O  O0  1  0.50000000  0.00000000  0.78189800  1
  O  O1  1  0.00000000  0.50000000  0.78189800  1
  O  O2  1  0.50000000  0.00000000  0.22173300  1
  O  O3  1  0.00000000  0.50000000  0.22173300  1
  O  O4  1  0.00000000  0.00000000  0.48483100  1
  O  O5  1  0.00000000  0.00000000  0.00663900  1
loop_
_geom_bond_atom_site_label_1
_geom_bond_atom_site_label_2
_geom_bond_distance
_geom_bond_site_symmetry_2
Ba0 O4 2.784681 1_555
Ba0 O4 2.784681 1_655
Ba0 O4 2.784681 1_565
Ba0 O4 2.784681 1_665
Ba0 O3 2.924351 1_655
Ba0 O3 2.924351 1_555
Ba0 O2 2.924351 1_555
Ba0 O2 2.924351 1_565
Ba0 O1 2.926497 1_555
Ba0 O0 2.926497 1_565
Ba0 O1 2.926497 1_655
Ba0 O0 2.926497 1_555
Co0 O5 1.847788 1_555
Co0 O4 1.849396 1_555
Co0 O3 1.975584 1_555
Co0 O2 1.975584 1_555
Co0 O3 1.975584 1_545
Co0 O2 1.975584 1_455
Cu0 O5 1.954793 1_556
Cu0 O1 1.978879 1_555
Cu0 O0 1.978879 1_455
Cu0 O1 1.978879 1_545
Cu0 O0 1.978879 1_555
Cu0 O4 2.079612 1_555
O0 Sm0 2.591840 1_556
O0 Sm0 2.591840 1_546
O1 Sm0 2.591840 1_456
O1 Sm0 2.591840 1_556
O2 Sm0 2.608137 1_555
O2 Sm0 2.608137 1_545
O3 Sm0 2.608137 1_555
O3 Sm0 2.608137 1_455
O5 Sm0 2.782096 1_455
O5 Sm0 2.782096 1_555
O5 Sm0 2.782096 1_545
O5 Sm0 2.782096 1_445
