# generated using pymatgen
data_Zr(ClO4)4
_symmetry_space_group_name_H-M   'P 1'
_cell_length_a   7.51940880
_cell_length_b   7.51940880
_cell_length_c   13.25934134
_cell_angle_alpha   73.57999562
_cell_angle_beta   73.57999562
_cell_angle_gamma   62.74829947
_symmetry_Int_Tables_number   1
_chemical_formula_structural   Zr(ClO4)4
_chemical_formula_sum   'Zr2 Cl8 O32'
_cell_volume   628.89923557
_cell_formula_units_Z   2
loop_
 _symmetry_equiv_pos_site_id
 _symmetry_equiv_pos_as_xyz
  1  'x, y, z'
loop_
 _atom_site_type_symbol
 _atom_site_label
 _atom_site_symmetry_multiplicity
 _atom_site_fract_x
 _atom_site_fract_y
 _atom_site_fract_z
 _atom_site_occupancy
  Zr  Zr0  1  0.47055675  0.41409967  0.16801075  1
  Zr  Zr1  1  0.41409967  0.47055675  0.66801075  1
  Cl  Cl0  1  0.65681154  0.10909322  0.33717808  1
  Cl  Cl1  1  0.10909322  0.65681154  0.83717808  1
  Cl  Cl2  1  0.77915648  0.21911785  0.00224469  1
  Cl  Cl3  1  0.21911785  0.77915648  0.50224469  1
  Cl  Cl4  1  0.43139379  0.81912678  0.07388891  1
  Cl  Cl5  1  0.81912678  0.43139379  0.57388891  1
  Cl  Cl6  1  0.06185541  0.46264986  0.25825407  1
  Cl  Cl7  1  0.46264986  0.06185541  0.75825407  1
  O  O0  1  0.55270588  0.10099010  0.25679405  1
  O  O1  1  0.10099010  0.55270588  0.75679405  1
  O  O2  1  0.19928053  0.52636608  0.29058471  1
  O  O3  1  0.52636608  0.19928053  0.79058471  1
  O  O4  1  0.90331847  0.01083609  0.02306275  1
  O  O5  1  0.01083609  0.90331847  0.52306275  1
  O  O6  1  0.55365206  0.07166232  0.44133795  1
  O  O7  1  0.07166232  0.55365206  0.94133795  1
  O  O8  1  0.86482875  0.98295465  0.31824518  1
  O  O9  1  0.98295465  0.86482875  0.81824518  1
  O  O10  1  0.36705661  0.68146516  0.04216457  1
  O  O11  1  0.68146516  0.36705661  0.54216457  1
  O  O12  1  0.31912113  0.82015361  0.39771186  1
  O  O13  1  0.82015361  0.31912113  0.89771186  1
  O  O14  1  0.19953934  0.38076130  0.15934687  1
  O  O15  1  0.38076130  0.19953934  0.65934687  1
  O  O16  1  0.62301228  0.33031957  0.30491127  1
  O  O17  1  0.33031957  0.62301228  0.80491127  1
  O  O18  1  0.50626112  0.68512976  0.17507560  1
  O  O19  1  0.68512976  0.50626112  0.67507560  1
  O  O20  1  0.02803382  0.30550969  0.33650576  1
  O  O21  1  0.30550969  0.02803382  0.83650576  1
  O  O22  1  0.32521558  0.78601494  0.58210931  1
  O  O23  1  0.78601494  0.32521558  0.08210931  1
  O  O24  1  0.63209061  0.88594917  0.73204960  1
  O  O25  1  0.88594917  0.63209061  0.23204960  1
  O  O26  1  0.59308237  0.84669668  0.99702369  1
  O  O27  1  0.84669668  0.59308237  0.49702369  1
  O  O28  1  0.26325881  0.99856264  0.09641949  1
  O  O29  1  0.99856264  0.26325881  0.59641949  1
  O  O30  1  0.55724314  0.25546739  0.03307985  1
  O  O31  1  0.25546739  0.55724314  0.53307985  1
loop_
_geom_bond_atom_site_label_1
_geom_bond_atom_site_label_2
_geom_bond_distance
_geom_bond_site_symmetry_2
Cl0 O6 1.401018 1_555
Cl0 O8 1.401146 1_545
Cl0 O16 1.512207 1_555
Cl0 O0 1.518098 1_555
Cl1 O7 1.401018 1_555
Cl1 O9 1.401146 1_455
Cl1 O17 1.512207 1_555
Cl1 O1 1.518098 1_555
Cl2 O4 1.401035 1_555
Cl2 O13 1.401097 1_554
Cl2 O30 1.511977 1_555
Cl2 O23 1.518779 1_555
Cl3 O5 1.401035 1_555
Cl3 O12 1.401097 1_555
Cl3 O31 1.511977 1_555
Cl3 O22 1.518779 1_555
Cl4 O28 1.400098 1_555
Cl4 O26 1.403822 1_554
Cl4 O18 1.508474 1_555
Cl4 O10 1.517336 1_555
Cl5 O29 1.400098 1_555
Cl5 O27 1.403822 1_555
Cl5 O19 1.508474 1_555
Cl5 O11 1.517336 1_555
Cl6 O25 1.399926 1_455
Cl6 O20 1.403676 1_555
Cl6 O14 1.508645 1_555
Cl6 O2 1.516937 1_555
Cl7 O24 1.399926 1_545
Cl7 O21 1.403676 1_555
Cl7 O15 1.508645 1_555
Cl7 O3 1.516937 1_555
O0 Zr0 2.196102 1_555
O1 Zr1 2.196102 1_555
O2 Zr0 2.199862 1_555
O3 Zr1 2.199862 1_555
O10 Zr0 2.199223 1_555
O11 Zr1 2.199223 1_555
O14 Zr0 2.201256 1_555
O15 Zr1 2.201256 1_555
O16 Zr0 2.207850 1_555
O17 Zr1 2.207850 1_555
O18 Zr0 2.203967 1_555
O19 Zr1 2.203967 1_555
O22 Zr1 2.195840 1_555
O23 Zr0 2.195840 1_555
O30 Zr0 2.209912 1_555
O31 Zr1 2.209912 1_555
