# generated using pymatgen
data_NiAg4P6(HO3)6
_symmetry_space_group_name_H-M   'P 1'
_cell_length_a   6.69141800
_cell_length_b   8.04793788
_cell_length_c   9.15957489
_cell_angle_alpha   98.40930260
_cell_angle_beta   106.04702779
_cell_angle_gamma   89.20799405
_symmetry_Int_Tables_number   1
_chemical_formula_structural   NiAg4P6(HO3)6
_chemical_formula_sum   'Ni1 Ag4 P6 H6 O18'
_cell_volume   468.76233339
_cell_formula_units_Z   1
loop_
 _symmetry_equiv_pos_site_id
 _symmetry_equiv_pos_as_xyz
  1  'x, y, z'
loop_
 _atom_site_type_symbol
 _atom_site_label
 _atom_site_symmetry_multiplicity
 _atom_site_fract_x
 _atom_site_fract_y
 _atom_site_fract_z
 _atom_site_occupancy
  Ni  Ni0  1  0.00000000  0.00000000  0.00000000  1
  Ag  Ag0  1  0.37254700  0.72452900  0.57494300  1
  Ag  Ag1  1  0.62745300  0.27547100  0.42505700  1
  Ag  Ag2  1  0.18866300  0.38987900  0.14191000  1
  Ag  Ag3  1  0.81133700  0.61012100  0.85809000  1
  P  P0  1  0.71304400  0.55588700  0.19931200  1
  P  P1  1  0.28695600  0.44411300  0.80068800  1
  P  P2  1  0.84752800  0.73239400  0.51542400  1
  P  P3  1  0.15247200  0.26760600  0.48457600  1
  P  P4  1  0.50933100  0.85697200  0.28782600  1
  P  P5  1  0.49066900  0.14302800  0.71217400  1
  H  H0  1  0.91469300  0.99032000  0.14278300  1
  H  H1  1  0.08530700  0.00968000  0.85721700  1
  H  H2  1  0.95072600  0.09090900  0.15120600  1
  H  H3  1  0.04927400  0.90909100  0.84879400  1
  H  H4  1  0.91210000  0.81660000  0.96373900  1
  H  H5  1  0.08790000  0.18340000  0.03626100  1
  O  O0  1  0.60361300  0.73151500  0.16594500  1
  O  O1  1  0.39638700  0.26848500  0.83405500  1
  O  O2  1  0.71361000  0.64776400  0.59635900  1
  O  O3  1  0.28639000  0.35223600  0.40364100  1
  O  O4  1  0.93989500  0.20852600  0.38772600  1
  O  O5  1  0.06010500  0.79147400  0.61227400  1
  O  O6  1  0.87665600  0.60651200  0.36860100  1
  O  O7  1  0.12334400  0.39348800  0.63139900  1
  O  O8  1  0.71911100  0.88204600  0.43779000  1
  O  O9  1  0.28088900  0.11795400  0.56221000  1
  O  O10  1  0.34440700  0.75995400  0.32715100  1
  O  O11  1  0.65559300  0.24004600  0.67284900  1
  O  O12  1  0.84134700  0.51162800  0.08841700  1
  O  O13  1  0.15865300  0.48837200  0.91158300  1
  O  O14  1  0.56003700  0.42635700  0.21193100  1
  O  O15  1  0.43996300  0.57364300  0.78806900  1
  O  O16  1  0.53098800  0.97809900  0.76725900  1
  O  O17  1  0.46901200  0.02190100  0.23274100  1
loop_
_geom_bond_atom_site_label_1
_geom_bond_atom_site_label_2
_geom_bond_distance
_geom_bond_site_symmetry_2
Ag0 O5 2.255734 1_555
Ag0 O10 2.284653 1_555
Ag0 O2 2.318952 1_555
Ag0 O15 2.383335 1_555
Ag0 O16 2.523376 1_555
Ag1 O4 2.255734 1_555
Ag1 O11 2.284653 1_555
Ag1 O3 2.318952 1_555
Ag1 O14 2.383335 1_555
Ag1 O17 2.523376 1_555
Ag2 H5 1.830934 1_555
Ag2 O13 2.317320 1_554
Ag2 O3 2.367891 1_555
Ag2 O14 2.399335 1_555
Ag2 O12 2.459514 1_455
Ag3 H4 1.830934 1_555
Ag3 O12 2.317320 1_556
Ag3 O2 2.367891 1_555
Ag3 O15 2.399335 1_555
Ag3 O13 2.459514 1_655
H0 H2 0.834432 1_565
H0 Ni0 1.576734 1_665
H1 H3 0.834432 1_545
H1 Ni0 1.576734 1_556
H2 Ni0 1.584798 1_655
H3 Ni0 1.584798 1_566
H4 Ni0 1.551589 1_666
H5 Ni0 1.551589 1_555
O0 P0 1.612895 1_555
O0 P4 1.644939 1_555
O1 P1 1.612895 1_555
O1 P5 1.644939 1_555
O2 P2 1.532410 1_555
O3 P3 1.532410 1_555
O4 P3 1.494683 1_655
O5 P2 1.494683 1_455
O6 P2 1.616751 1_555
O6 P0 1.630339 1_555
O7 P3 1.616751 1_555
O7 P1 1.630339 1_555
O8 P2 1.605822 1_555
O8 P4 1.660942 1_555
O9 P3 1.605822 1_555
O9 P5 1.660942 1_555
O10 P4 1.510996 1_555
O11 P5 1.510996 1_555
O12 P0 1.504505 1_555
O13 P1 1.504505 1_555
O14 P0 1.509460 1_555
O15 P1 1.509460 1_555
O16 P5 1.483212 1_565
O17 P4 1.483212 1_545
