# generated using pymatgen
data_K4Ba2Na4Ti8Mn(Si8O33)2
_symmetry_space_group_name_H-M   'P 1'
_cell_length_a   10.47779391
_cell_length_b   10.47779391
_cell_length_c   14.16907815
_cell_angle_alpha   70.32552021
_cell_angle_beta   70.32552021
_cell_angle_gamma   83.15031355
_symmetry_Int_Tables_number   1
_chemical_formula_structural   K4Ba2Na4Ti8Mn(Si8O33)2
_chemical_formula_sum   'K4 Ba2 Na4 Ti8 Mn1 Si16 O66'
_cell_volume   1379.18821485
_cell_formula_units_Z   1
loop_
 _symmetry_equiv_pos_site_id
 _symmetry_equiv_pos_as_xyz
  1  'x, y, z'
loop_
 _atom_site_type_symbol
 _atom_site_label
 _atom_site_symmetry_multiplicity
 _atom_site_fract_x
 _atom_site_fract_y
 _atom_site_fract_z
 _atom_site_occupancy
  K  K0  1  0.60274447  0.60274447  0.82586781  1
  K  K1  1  0.39725553  0.39725553  0.17413219  1
  K  K2  1  0.09748131  0.09748131  0.31550715  1
  K  K3  1  0.90251869  0.90251869  0.68449285  1
  Ba  Ba0  1  0.44209533  0.44209533  0.65844601  1
  Ba  Ba1  1  0.55790467  0.55790467  0.34155399  1
  Na  Na0  1  0.01206495  0.47737106  0.68226136  1
  Na  Na1  1  0.52262894  0.98793505  0.31773864  1
  Na  Na2  1  0.98793505  0.52262894  0.31773864  1
  Na  Na3  1  0.47737106  0.01206495  0.68226136  1
  Ti  Ti0  1  0.24904259  0.74298311  0.74300013  1
  Ti  Ti1  1  0.25701689  0.75095741  0.25699987  1
  Ti  Ti2  1  0.75095741  0.25701689  0.25699987  1
  Ti  Ti3  1  0.74298311  0.24904259  0.74300013  1
  Ti  Ti4  1  0.27560038  0.72439962  0.50000000  1
  Ti  Ti5  1  0.72439962  0.27560038  0.50000000  1
  Ti  Ti6  1  0.23030547  0.76969453  -0.00000000  1
  Ti  Ti7  1  0.76969453  0.23030547  0.00000000  1
  Mn  Mn0  1  -0.00000000  0.00000000  -0.00000000  1
  Si  Si0  1  0.76747947  0.54691512  0.55446490  1
  Si  Si1  1  0.45308488  0.23252053  0.44553510  1
  Si  Si2  1  0.23252053  0.45308488  0.44553510  1
  Si  Si3  1  0.54691512  0.76747947  0.55446490  1
  Si  Si4  1  0.04422529  0.26159903  0.06251194  1
  Si  Si5  1  0.73840097  0.95577471  0.93748806  1
  Si  Si6  1  0.95577471  0.73840097  0.93748806  1
  Si  Si7  1  0.26159903  0.04422529  0.06251194  1
  Si  Si8  1  0.23410033  0.00939444  0.55128368  1
  Si  Si9  1  0.99060556  0.76589967  0.44871632  1
  Si  Si10  1  0.76589967  0.99060556  0.44871632  1
  Si  Si11  1  0.00939444  0.23410033  0.55128368  1
  Si  Si12  1  0.26172574  0.48189280  0.94796859  1
  Si  Si13  1  0.51810720  0.73827426  0.05203141  1
  Si  Si14  1  0.73827426  0.51810720  0.05203141  1
  Si  Si15  1  0.48189280  0.26172574  0.94796859  1
  O  O0  1  0.29814941  0.52063798  0.50662128  1
  O  O1  1  0.47936202  0.70185059  0.49337872  1
  O  O2  1  0.70185059  0.47936202  0.49337872  1
  O  O3  1  0.52063798  0.29814941  0.50662128  1
  O  O4  1  0.96607194  0.19237876  0.00772717  1
  O  O5  1  0.80762124  0.03392806  0.99227283  1
  O  O6  1  0.03392806  0.80762124  0.99227283  1
  O  O7  1  0.19237876  0.96607194  0.00772717  1
  O  O8  1  0.18139095  0.72671618  0.15103949  1
  O  O9  1  0.27328382  0.81860905  0.84896051  1
  O  O10  1  0.81860905  0.27328382  0.84896051  1
  O  O11  1  0.72671618  0.18139095  0.15103949  1
  O  O12  1  0.24541447  0.65692214  0.64910736  1
  O  O13  1  0.34307786  0.75458553  0.35089264  1
  O  O14  1  0.75458553  0.34307786  0.35089264  1
  O  O15  1  0.65692214  0.24541447  0.64910736  1
  O  O16  1  0.08075135  0.71446945  0.52898379  1
  O  O17  1  0.28553055  0.91924865  0.47101621  1
  O  O18  1  0.91924865  0.28553055  0.47101621  1
  O  O19  1  0.71446945  0.08075135  0.52898379  1
  O  O20  1  0.21693192  0.58047280  0.02222610  1
  O  O21  1  0.41952720  0.78306808  0.97777390  1
  O  O22  1  0.78306808  0.41952720  0.97777390  1
  O  O23  1  0.58047280  0.21693192  0.02222610  1
  O  O24  1  0.17726705  0.91472055  0.67284156  1
  O  O25  1  0.08527945  0.82273295  0.32715844  1
  O  O26  1  0.82273295  0.08527945  0.32715844  1
  O  O27  1  0.91472055  0.17726705  0.67284156  1
  O  O28  1  0.32490711  0.56508448  0.82288869  1
  O  O29  1  0.43491552  0.67509289  0.17711131  1
  O  O30  1  0.67509289  0.43491552  0.17711131  1
  O  O31  1  0.56508448  0.32490711  0.82288869  1
  O  O32  1  0.11211635  0.11211635  0.51685103  1
  O  O33  1  0.88788365  0.88788365  0.48314897  1
  O  O34  1  0.38400718  0.38400718  0.98556049  1
  O  O35  1  0.61599282  0.61599282  0.01443951  1
  O  O36  1  0.35936783  0.10447504  0.53591963  1
  O  O37  1  0.89552496  0.64063217  0.46408037  1
  O  O38  1  0.64063217  0.89552496  0.46408037  1
  O  O39  1  0.10447504  0.35936783  0.53591963  1
  O  O40  1  0.13646489  0.38582114  0.96827765  1
  O  O41  1  0.61417886  0.86353511  0.03172235  1
  O  O42  1  0.86353511  0.61417886  0.03172235  1
  O  O43  1  0.38582114  0.13646489  0.96827765  1
  O  O44  1  0.64822193  0.64822193  0.60598819  1
  O  O45  1  0.35177807  0.35177807  0.39401181  1
  O  O46  1  0.14623765  0.14623765  0.11102483  1
  O  O47  1  0.85376235  0.85376235  0.88897517  1
  O  O48  1  0.93720386  0.31000848  0.15814267  1
  O  O49  1  0.68999152  0.06279614  0.84185733  1
  O  O50  1  0.06279614  0.68999152  0.84185733  1
  O  O51  1  0.31000848  0.93720386  0.15814267  1
  O  O52  1  0.80821232  0.44135616  0.65374737  1
  O  O53  1  0.55864384  0.19178768  0.34625263  1
  O  O54  1  0.19178768  0.55864384  0.34625263  1
  O  O55  1  0.44135616  0.80821232  0.65374737  1
  O  O56  1  0.05936839  0.05936839  0.86905761  1
  O  O57  1  0.94063161  0.94063161  0.13094239  1
  O  O58  1  0.19185799  0.28069103  0.77354335  1
  O  O59  1  0.71930897  0.80814201  0.22645665  1
  O  O60  1  0.80814201  0.71930897  0.22645665  1
  O  O61  1  0.28069103  0.19185799  0.77354335  1
  O  O62  1  0.90096621  0.60366912  0.80058828  1
  O  O63  1  0.39633088  0.09903379  0.19941172  1
  O  O64  1  0.09903379  0.39633088  0.19941172  1
  O  O65  1  0.60366912  0.90096621  0.80058828  1
loop_
_geom_bond_atom_site_label_1
_geom_bond_atom_site_label_2
_geom_bond_distance
_geom_bond_site_symmetry_2
K0 O35 2.771570 1_556
K0 O44 2.866238 1_555
K0 O31 3.000014 1_555
K0 O28 3.000014 1_555
K0 O65 3.023810 1_555
K0 O62 3.023810 1_555
K0 O34 3.145538 1_555
K1 O34 2.771570 1_554
K1 O45 2.866238 1_555
K1 O30 3.000014 1_555
K1 O29 3.000014 1_555
K1 O63 3.023810 1_555
K1 O64 3.023810 1_555
K1 O35 3.145538 1_555
K2 O46 2.642993 1_555
K2 O26 2.843309 1_455
K2 O25 2.843309 1_545
K2 O32 2.963202 1_555
K2 O63 3.006146 1_555
K2 O64 3.006146 1_555
K2 O33 3.068128 1_445
K3 O47 2.642993 1_555
K3 O24 2.843309 1_655
K3 O27 2.843309 1_565
K3 O33 2.963202 1_555
K3 O65 3.006146 1_555
K3 O62 3.006146 1_555
K3 O32 3.068128 1_665
Ba0 O15 2.864880 1_555
Ba0 O12 2.864880 1_555
Ba0 O3 2.876863 1_555
Ba0 O0 2.876863 1_555
Ba0 O31 2.883599 1_555
Ba0 O28 2.883599 1_555
Ba0 O1 2.895242 1_555
Ba0 O2 2.895242 1_555
Ba0 O61 2.952209 1_555
Ba0 O58 2.952209 1_555
Ba0 O44 2.971917 1_555
Ba1 O14 2.864880 1_555
Ba1 O13 2.864880 1_555
Ba1 O1 2.876863 1_555
Ba1 O2 2.876863 1_555
Ba1 O29 2.883599 1_555
Ba1 O30 2.883599 1_555
Ba1 O3 2.895242 1_555
Ba1 O0 2.895242 1_555
Ba1 O60 2.952209 1_555
Ba1 O59 2.952209 1_555
Ba1 O45 2.971917 1_555
Na0 O62 2.393643 1_455
Na0 O52 2.396621 1_455
Na0 O39 2.618129 1_555
Na0 O16 2.673444 1_555
Na0 O58 2.896264 1_555
Na0 O10 2.944389 1_455
Na1 O63 2.393643 1_565
Na1 O53 2.396621 1_565
Na1 O38 2.618129 1_555
Na1 O17 2.673444 1_555
Na1 O59 2.896264 1_555
Na1 O11 2.944389 1_565
Na2 O64 2.393643 1_655
Na2 O54 2.396621 1_655
Na2 O37 2.618129 1_555
Na2 O18 2.673444 1_555
Na2 O60 2.896264 1_555
Na2 O8 2.944389 1_655
Na3 O65 2.393643 1_545
Na3 O55 2.396621 1_545
Na3 O36 2.618129 1_555
Na3 O19 2.673444 1_555
Na3 O61 2.896264 1_555
Na3 O9 2.944389 1_545
Mn0 O56 1.659580 1_554
Mn0 O57 1.659580 1_445
Mn0 O5 2.037867 1_454
Mn0 O7 2.037867 1_545
Mn0 O4 2.037867 1_455
Mn0 O6 2.037867 1_544
O0 Si2 1.628613 1_555
O0 Ti4 2.093434 1_555
O1 Si3 1.628613 1_555
O1 Ti4 2.093434 1_555
O2 Si0 1.628613 1_555
O2 Ti5 2.093434 1_555
O3 Si1 1.628613 1_555
O3 Ti5 2.093434 1_555
O4 Si4 1.657685 1_655
O4 Ti7 2.081103 1_555
O5 Si5 1.657685 1_545
O5 Ti7 2.081103 1_556
O6 Si6 1.657685 1_455
O6 Ti6 2.081103 1_556
O7 Si7 1.657685 1_565
O7 Ti6 2.081103 1_555
O8 Ti6 1.926920 1_555
O8 Ti1 2.013040 1_555
O9 Ti6 1.926920 1_556
O9 Ti0 2.013040 1_555
O10 Ti7 1.926920 1_556
O10 Ti3 2.013040 1_555
O11 Ti7 1.926920 1_555
O11 Ti2 2.013040 1_555
O12 Ti0 1.853231 1_555
O12 Ti4 1.913390 1_555
O13 Ti1 1.853231 1_555
O13 Ti4 1.913390 1_555
O14 Ti2 1.853231 1_555
O14 Ti5 1.913390 1_555
O15 Ti3 1.853231 1_555
O15 Ti5 1.913390 1_555
O16 Si9 1.632561 1_455
O16 Ti4 1.950616 1_555
O17 Si8 1.632561 1_565
O17 Ti4 1.950616 1_555
O18 Si11 1.632561 1_655
O18 Ti5 1.950616 1_555
O19 Si10 1.632561 1_545
O19 Ti5 1.950616 1_555
O20 Si12 1.636410 1_554
O20 Ti6 1.914614 1_555
O21 Si13 1.636410 1_556
O21 Ti6 1.914614 1_556
O22 Si14 1.636410 1_556
O22 Ti7 1.914614 1_556
O23 Si15 1.636410 1_554
O23 Ti7 1.914614 1_555
O24 Si8 1.613997 1_565
O24 Ti0 1.941095 1_555
O25 Si9 1.613997 1_455
O25 Ti1 1.941095 1_555
O26 Si10 1.613997 1_545
O26 Ti2 1.941095 1_555
O27 Si11 1.613997 1_655
O27 Ti3 1.941095 1_555
O28 Si12 1.626777 1_555
O28 Ti0 2.054098 1_555
O29 Si13 1.626777 1_555
O29 Ti1 2.054098 1_555
O30 Si14 1.626777 1_555
O30 Ti2 2.054098 1_555
O31 Si15 1.626777 1_555
O31 Ti3 2.054098 1_555
O32 Si8 1.663795 1_555
O32 Si11 1.663795 1_555
O33 Si10 1.663795 1_555
O33 Si9 1.663795 1_555
O34 Si12 1.659947 1_555
O34 Si15 1.659947 1_555
O35 Si14 1.659947 1_555
O35 Si13 1.659947 1_555
O36 Si1 1.647676 1_555
O36 Si8 1.654107 1_555
O37 Si0 1.647676 1_555
O37 Si9 1.654107 1_555
O38 Si3 1.647676 1_555
O38 Si10 1.654107 1_555
O39 Si2 1.647676 1_555
O39 Si11 1.654107 1_555
O40 Si4 1.634588 1_556
O40 Si12 1.638417 1_555
O41 Si5 1.634588 1_554
O41 Si13 1.638417 1_555
O42 Si6 1.634588 1_554
O42 Si14 1.638417 1_555
O43 Si7 1.634588 1_556
O43 Si15 1.638417 1_555
O44 Si0 1.676971 1_555
O44 Si3 1.676971 1_555
O45 Si1 1.676971 1_555
O45 Si2 1.676971 1_555
O46 Si4 1.644107 1_555
O46 Si7 1.644107 1_555
O47 Si5 1.644107 1_555
O47 Si6 1.644107 1_555
O48 Si4 1.629334 1_655
O48 Ti2 1.993154 1_555
O49 Si5 1.629334 1_545
O49 Ti3 1.993154 1_555
O50 Si6 1.629334 1_455
O50 Ti0 1.993154 1_555
O51 Si7 1.629334 1_565
O51 Ti1 1.993154 1_555
O52 Si0 1.621226 1_555
O52 Ti3 2.038958 1_555
O53 Si1 1.621226 1_555
O53 Ti2 2.038958 1_555
O54 Si2 1.621226 1_555
O54 Ti1 2.038958 1_555
O55 Si3 1.621226 1_555
O55 Ti0 2.038958 1_555
O58 O61 1.235327 1_555
O59 O60 1.235327 1_555
