# generated using pymatgen
data_B2Mo2Ru
_symmetry_space_group_name_H-M   'P 1'
_cell_length_a   3.09861200
_cell_length_b   7.53171100
_cell_length_c   9.62069700
_cell_angle_alpha   90.00000000
_cell_angle_beta   90.00000000
_cell_angle_gamma   90.00000000
_symmetry_Int_Tables_number   1
_chemical_formula_structural   B2Mo2Ru
_chemical_formula_sum   'B8 Mo8 Ru4'
_cell_volume   224.52638430
_cell_formula_units_Z   4
loop_
 _symmetry_equiv_pos_site_id
 _symmetry_equiv_pos_as_xyz
  1  'x, y, z'
loop_
 _atom_site_type_symbol
 _atom_site_label
 _atom_site_symmetry_multiplicity
 _atom_site_fract_x
 _atom_site_fract_y
 _atom_site_fract_z
 _atom_site_occupancy
  B  B0  1  0.50000000  0.11531600  0.46077000  1
  B  B1  1  0.50000000  0.88468400  0.53923000  1
  B  B2  1  0.00000000  0.38468400  0.96077000  1
  B  B3  1  0.00000000  0.61531600  0.03923000  1
  B  B4  1  0.50000000  0.12528200  0.26781900  1
  B  B5  1  0.50000000  0.87471800  0.73218100  1
  B  B6  1  0.00000000  0.37471800  0.76781900  1
  B  B7  1  0.00000000  0.62528200  0.23218100  1
  Mo  Mo0  1  0.50000000  0.80901800  0.12922100  1
  Mo  Mo1  1  0.50000000  0.19098200  0.87077900  1
  Mo  Mo2  1  0.00000000  0.69098200  0.62922100  1
  Mo  Mo3  1  0.00000000  0.30901800  0.37077900  1
  Mo  Mo4  1  0.50000000  0.57457500  0.86019700  1
  Mo  Mo5  1  0.50000000  0.42542500  0.13980300  1
  Mo  Mo6  1  0.00000000  0.92542500  0.36019700  1
  Mo  Mo7  1  0.00000000  0.07457500  0.63980300  1
  Ru  Ru0  1  0.50000000  0.62030200  0.39185400  1
  Ru  Ru1  1  0.50000000  0.37969800  0.60814600  1
  Ru  Ru2  1  0.00000000  0.87969800  0.89185400  1
  Ru  Ru3  1  0.00000000  0.12030200  0.10814600  1
loop_
_geom_bond_atom_site_label_1
_geom_bond_atom_site_label_2
_geom_bond_distance
_geom_bond_site_symmetry_2
B0 B4 1.857840 1_555
B0 B1 1.893974 1_545
B0 Mo3 2.297461 1_655
B0 Mo3 2.297461 1_555
B0 Mo6 2.319924 1_645
B0 Mo6 2.319924 1_545
B0 Mo7 2.336930 1_655
B0 Mo7 2.336930 1_555
B0 Ru1 2.444463 1_555
B1 B5 1.857840 1_555
B1 Mo2 2.297461 1_655
B1 Mo2 2.297461 1_555
B1 Mo7 2.319924 1_565
B1 Mo7 2.319924 1_665
B1 Mo6 2.336930 1_655
B1 Mo6 2.336930 1_555
B1 Ru0 2.444463 1_555
B2 B6 1.857840 1_555
B2 B3 1.893974 1_556
B2 Mo1 2.297461 1_555
B2 Mo1 2.297461 1_455
B2 Mo4 2.319924 1_455
B2 Mo4 2.319924 1_555
B2 Mo5 2.336930 1_456
B2 Mo5 2.336930 1_556
B2 Ru3 2.444463 1_556
B3 B7 1.857840 1_555
B3 Mo0 2.297461 1_555
B3 Mo0 2.297461 1_455
B3 Mo5 2.319924 1_555
B3 Mo5 2.319924 1_455
B3 Mo4 2.336930 1_554
B3 Mo4 2.336930 1_454
B3 Ru2 2.444463 1_554
B4 Ru3 2.182100 1_655
B4 Ru3 2.182100 1_555
B4 Mo3 2.301426 1_655
B4 Mo3 2.301426 1_555
B4 Mo6 2.335815 1_645
B4 Mo6 2.335815 1_545
B4 Mo5 2.574318 1_555
B4 Mo0 2.729826 1_545
B5 Ru2 2.182100 1_655
B5 Ru2 2.182100 1_555
B5 Mo2 2.301426 1_655
B5 Mo2 2.301426 1_555
B5 Mo7 2.335815 1_565
B5 Mo7 2.335815 1_665
B5 Mo4 2.574318 1_555
B5 Mo1 2.729826 1_565
B6 Ru1 2.182100 1_455
B6 Ru1 2.182100 1_555
B6 Mo1 2.301426 1_455
B6 Mo1 2.301426 1_555
B6 Mo4 2.335815 1_555
B6 Mo4 2.335815 1_455
B6 Mo7 2.574318 1_555
B6 Mo2 2.729826 1_555
B7 Ru0 2.182100 1_555
B7 Ru0 2.182100 1_455
B7 Mo0 2.301426 1_455
B7 Mo0 2.301426 1_555
B7 Mo5 2.335815 1_555
B7 Mo5 2.335815 1_455
B7 Mo6 2.574318 1_555
B7 Mo3 2.729826 1_555
