# generated using pymatgen
data_MgCu4H8(CO5)2
_symmetry_space_group_name_H-M   'P 1'
_cell_length_a   6.31341751
_cell_length_b   6.19760341
_cell_length_c   7.72216521
_cell_angle_alpha   95.77301330
_cell_angle_beta   116.09076807
_cell_angle_gamma   88.92040097
_symmetry_Int_Tables_number   1
_chemical_formula_structural   MgCu4H8(CO5)2
_chemical_formula_sum   'Mg1 Cu4 H8 C2 O10'
_cell_volume   269.87806004
_cell_formula_units_Z   1
loop_
 _symmetry_equiv_pos_site_id
 _symmetry_equiv_pos_as_xyz
  1  'x, y, z'
loop_
 _atom_site_type_symbol
 _atom_site_label
 _atom_site_symmetry_multiplicity
 _atom_site_fract_x
 _atom_site_fract_y
 _atom_site_fract_z
 _atom_site_occupancy
  Mg  Mg0  1  0.68922200  0.47841500  0.88409800  1
  Cu  Cu0  1  0.98287000  0.02195800  0.03367800  1
  Cu  Cu1  1  0.15678800  0.50394500  0.93551100  1
  Cu  Cu2  1  0.48176800  0.80288000  0.03747900  1
  Cu  Cu3  1  0.48941000  0.26633800  0.08050600  1
  H  H0  1  0.36019000  0.85600400  0.55366300  1
  H  H1  1  0.60785600  0.25142500  0.40446300  1
  H  H2  1  0.83584400  0.77285300  0.72887700  1
  H  H3  1  0.06973300  0.41747600  0.20146400  1
  H  H4  1  0.81229400  0.56414000  0.26074100  1
  H  H5  1  0.16465000  0.04048800  0.80815700  1
  H  H6  1  0.82697600  0.03039500  0.28790100  1
  H  H7  1  0.24230200  0.57240300  0.65802900  1
  C  C0  1  0.24938300  0.76074400  0.41259600  1
  C  C1  1  0.72387200  0.18328200  0.54399100  1
  O  O0  1  0.25257400  0.81985100  0.26258900  1
  O  O1  1  0.67915800  0.24210500  0.68649200  1
  O  O2  1  0.86946800  0.72574100  0.85510000  1
  O  O3  1  0.01511400  0.35019900  0.06593400  1
  O  O4  1  0.13071400  0.59896100  0.42060000  1
  O  O5  1  0.88225700  0.05656600  0.54359300  1
  O  O6  1  0.65726100  0.54252800  0.14590200  1
  O  O7  1  0.25112200  0.03525800  0.95011300  1
  O  O8  1  0.74714600  0.02788800  0.14368800  1
  O  O9  1  0.34286000  0.55478400  0.79854000  1
loop_
_geom_bond_atom_site_label_1
_geom_bond_atom_site_label_2
_geom_bond_distance
_geom_bond_site_symmetry_2
Mg0 O1 1.986480 1_555
Mg0 O2 2.013355 1_555
Mg0 O9 2.048274 1_555
Mg0 O3 2.111415 1_656
Mg0 O6 2.116611 1_556
Cu0 O8 2.010356 1_555
Cu0 O3 2.027550 1_655
Cu0 O7 2.066081 1_654
Cu0 O2 2.111007 1_544
Cu0 O0 2.304475 1_645
Cu1 O3 1.933873 1_556
Cu1 O9 1.942162 1_555
Cu1 O2 2.156989 1_455
Cu2 O7 1.975358 1_564
Cu2 O6 1.980054 1_555
Cu2 O8 2.018344 1_565
Cu2 O9 2.143495 1_554
Cu3 O6 1.931768 1_555
Cu3 O7 1.945979 1_554
Cu3 O8 2.103778 1_555
H2 O2 0.976373 1_555
H3 O3 0.994128 1_555
H4 O6 0.989928 1_555
H5 O7 0.990379 1_555
H6 O8 0.998784 1_555
H7 O9 1.003802 1_555
C0 H0 1.113773 1_555
C0 O0 1.258019 1_555
C0 O4 1.285293 1_555
C1 H1 1.123160 1_555
C1 O5 1.260670 1_555
C1 O1 1.269713 1_555
