# generated using pymatgen
data_Ba3LaTa3O12
_symmetry_space_group_name_H-M   'P 1'
_cell_length_a   9.89948442
_cell_length_b   9.89948442
_cell_length_c   9.89948440
_cell_angle_alpha   34.13943714
_cell_angle_beta   34.13943714
_cell_angle_gamma   34.13944297
_symmetry_Int_Tables_number   1
_chemical_formula_structural   Ba3LaTa3O12
_chemical_formula_sum   'Ba3 La1 Ta3 O12'
_cell_volume   272.42610640
_cell_formula_units_Z   1
loop_
 _symmetry_equiv_pos_site_id
 _symmetry_equiv_pos_as_xyz
  1  'x, y, z'
loop_
 _atom_site_type_symbol
 _atom_site_label
 _atom_site_symmetry_multiplicity
 _atom_site_fract_x
 _atom_site_fract_y
 _atom_site_fract_z
 _atom_site_occupancy
  Ba  Ba0  1  0.71036300  0.71036300  0.71036300  1
  Ba  Ba1  1  0.28802000  0.28802000  0.28802000  1
  Ba  Ba2  1  0.13314000  0.13314000  0.13314000  1
  La  La0  1  0.85393800  0.85393800  0.85393800  1
  Ta  Ta0  1  0.57636200  0.57636200  0.57636200  1
  Ta  Ta1  1  0.42338500  0.42338500  0.42338500  1
  Ta  Ta2  1  0.99931500  0.99931500  0.99931500  1
  O  O0  1  0.20833100  0.71123100  0.20833100  1
  O  O1  1  0.20833100  0.20833100  0.71123100  1
  O  O2  1  0.71123100  0.20833100  0.20833100  1
  O  O3  1  0.79583100  0.28844600  0.79583100  1
  O  O4  1  0.79583100  0.79583100  0.28844600  1
  O  O5  1  0.28844600  0.79583100  0.79583100  1
  O  O6  1  0.37954900  0.87463900  0.37954900  1
  O  O7  1  0.37954900  0.37954900  0.87463900  1
  O  O8  1  0.87463900  0.37954900  0.37954900  1
  O  O9  1  0.62376500  0.12621000  0.62376500  1
  O  O10  1  0.62376500  0.62376500  0.12621000  1
  O  O11  1  0.12621000  0.62376500  0.62376500  1
loop_
_geom_bond_atom_site_label_1
_geom_bond_atom_site_label_2
_geom_bond_distance
_geom_bond_site_symmetry_2
Ba0 O10 2.819490 1_556
Ba0 O11 2.819490 1_655
Ba0 O9 2.819490 1_565
Ba0 O4 2.891775 1_555
Ba0 O5 2.891775 1_555
Ba0 O3 2.891775 1_555
Ba0 O0 2.906015 1_655
Ba0 O2 2.906015 1_565
Ba0 O0 2.906015 1_556
Ba0 O2 2.906015 1_556
Ba0 O1 2.906016 1_655
Ba0 O1 2.906016 1_565
Ba1 O7 2.733442 1_554
Ba1 O8 2.733442 1_455
Ba1 O6 2.733442 1_545
Ba1 O5 2.909793 1_554
Ba1 O3 2.909793 1_554
Ba1 O3 2.909793 1_455
Ba1 O5 2.909793 1_545
Ba1 O4 2.909794 1_545
Ba1 O4 2.909794 1_455
Ba1 O1 2.980816 1_555
Ba1 O2 2.980816 1_555
Ba1 O0 2.980816 1_555
Ba2 O7 2.762730 1_554
Ba2 O8 2.762730 1_455
Ba2 O6 2.762730 1_545
Ba2 O11 2.915684 1_545
Ba2 O9 2.915684 1_455
Ba2 O9 2.915684 1_554
Ba2 O11 2.915684 1_554
Ba2 O10 2.915685 1_455
Ba2 O10 2.915685 1_545
Ba2 O1 3.029398 1_554
Ba2 O0 3.029398 1_545
Ba2 O2 3.029398 1_455
La0 O10 2.431139 1_556
La0 O11 2.431139 1_655
La0 O9 2.431139 1_565
O0 Ta2 2.060788 1_454
O0 Ta1 2.145438 1_555
O1 Ta2 2.060788 1_445
O1 Ta1 2.145437 1_555
O2 Ta2 2.060788 1_544
O2 Ta1 2.145438 1_555
O3 Ta2 1.984079 1_545
O3 Ta0 2.208341 1_555
O4 Ta2 1.984078 1_554
O4 Ta0 2.208341 1_555
O5 Ta2 1.984079 1_455
O5 Ta0 2.208341 1_555
O6 Ta0 1.883678 1_555
O7 Ta0 1.883678 1_555
O8 Ta0 1.883678 1_555
O9 Ta1 1.928188 1_555
O10 Ta1 1.928188 1_555
O11 Ta1 1.928188 1_555
