# generated using pymatgen
data_LiNb2Te4Cl10O
_symmetry_space_group_name_H-M   'P 1'
_cell_length_a   7.00831506
_cell_length_b   8.91026762
_cell_length_c   9.50501474
_cell_angle_alpha   81.32332801
_cell_angle_beta   88.87997431
_cell_angle_gamma   74.61286996
_symmetry_Int_Tables_number   1
_chemical_formula_structural   LiNb2Te4Cl10O
_chemical_formula_sum   'Li1 Nb2 Te4 Cl10 O1'
_cell_volume   565.59393256
_cell_formula_units_Z   1
loop_
 _symmetry_equiv_pos_site_id
 _symmetry_equiv_pos_as_xyz
  1  'x, y, z'
loop_
 _atom_site_type_symbol
 _atom_site_label
 _atom_site_symmetry_multiplicity
 _atom_site_fract_x
 _atom_site_fract_y
 _atom_site_fract_z
 _atom_site_occupancy
  Li  Li0  1  0.25803400  0.00006500  0.68835100  1
  Nb  Nb0  1  0.52458700  0.62699100  0.63110400  1
  Nb  Nb1  1  0.48094400  0.36188900  0.35637600  1
  Te  Te0  1  0.17488300  0.90669400  0.16768100  1
  Te  Te1  1  0.08632000  0.19069000  0.98849100  1
  Te  Te2  1  0.91192200  0.80646100  0.01825000  1
  Te  Te3  1  0.81872600  0.09016900  0.83879300  1
  Cl  Cl0  1  0.44869700  0.18062100  0.19917200  1
  Cl  Cl1  1  0.38753500  0.49016200  0.82180600  1
  Cl  Cl2  1  0.79456400  0.19973800  0.43136200  1
  Cl  Cl3  1  0.15280800  0.52718100  0.28891400  1
  Cl  Cl4  1  0.61184600  0.51570100  0.18098000  1
  Cl  Cl5  1  0.32190600  0.22160000  0.54604600  1
  Cl  Cl6  1  0.84812700  0.48094500  0.71503000  1
  Cl  Cl7  1  0.65597800  0.79507700  0.46559900  1
  Cl  Cl8  1  0.19162100  0.80140200  0.57493000  1
  Cl  Cl9  1  0.53686400  0.82683100  0.80918700  1
  O  O0  1  0.49834300  0.49921300  0.49935600  1
loop_
_geom_bond_atom_site_label_1
_geom_bond_atom_site_label_2
_geom_bond_distance
_geom_bond_site_symmetry_2
Li0 Te3 3.321284 1_455
Nb0 O0 1.857033 1_555
Nb1 O0 1.986551 1_555
Te0 Te2 2.751337 1_455
Te0 Te1 2.756254 1_564
Te1 Te3 2.779228 1_455
Te2 Te3 2.755515 1_564
Cl0 Nb1 2.414033 1_555
Cl1 Nb0 2.362455 1_555
Cl2 Nb1 2.343450 1_555
Cl3 Nb1 2.417468 1_555
Cl4 Nb1 2.327518 1_555
Cl5 Li0 2.359242 1_555
Cl5 Nb1 2.456800 1_555
Cl6 Nb0 2.379669 1_555
Cl7 Nb0 2.351619 1_555
Cl8 Li0 2.354758 1_565
Cl8 Nb0 2.453449 1_555
Cl9 Li0 2.339339 1_565
Cl9 Nb0 2.653223 1_555
