# generated using pymatgen
data_ZnCrO2
_symmetry_space_group_name_H-M   'P 1'
_cell_length_a   2.97532500
_cell_length_b   7.79517251
_cell_length_c   8.48893239
_cell_angle_alpha   79.41043241
_cell_angle_beta   80.46231153
_cell_angle_gamma   80.24108471
_symmetry_Int_Tables_number   1
_chemical_formula_structural   ZnCrO2
_chemical_formula_sum   'Zn4 Cr4 O8'
_cell_volume   188.88307656
_cell_formula_units_Z   4
loop_
 _symmetry_equiv_pos_site_id
 _symmetry_equiv_pos_as_xyz
  1  'x, y, z'
loop_
 _atom_site_type_symbol
 _atom_site_label
 _atom_site_symmetry_multiplicity
 _atom_site_fract_x
 _atom_site_fract_y
 _atom_site_fract_z
 _atom_site_occupancy
  Zn  Zn0  1  0.61331900  0.01738500  0.77836200  1
  Zn  Zn1  1  0.40856200  0.96338600  0.19566700  1
  Zn  Zn2  1  0.21904300  0.63081300  0.93792300  1
  Zn  Zn3  1  0.80306700  0.34930400  0.03506200  1
  Cr  Cr0  1  0.17990800  0.20410300  0.40643300  1
  Cr  Cr1  1  0.44849100  0.36618800  0.72960500  1
  Cr  Cr2  1  0.57545300  0.61492600  0.24222600  1
  Cr  Cr3  1  0.84364200  0.77587800  0.56700800  1
  O  O0  1  0.41592400  0.78244400  0.40748300  1
  O  O1  1  0.11482200  0.45994000  0.30466300  1
  O  O2  1  0.91521600  0.51742600  0.65803500  1
  O  O3  1  0.60807300  0.19688500  0.56559300  1
  O  O4  1  0.79276800  0.14769600  0.23094400  1
  O  O5  1  0.96905000  0.19260900  0.85435700  1
  O  O6  1  0.23115200  0.83199800  0.74223900  1
  O  O7  1  0.05389900  0.78835200  0.11878400  1
loop_
_geom_bond_atom_site_label_1
_geom_bond_atom_site_label_2
_geom_bond_distance
_geom_bond_site_symmetry_2
Cr0 O3 1.991507 1_455
Cr0 O3 1.992407 1_555
Cr0 O1 2.013041 1_555
Cr0 O4 2.172669 1_455
Cr0 O4 2.192333 1_555
Cr1 O2 1.923166 1_455
Cr1 O2 1.923410 1_555
Cr1 O3 2.037028 1_555
Cr1 O5 2.148081 1_455
Cr1 O5 2.158159 1_555
Cr2 O1 1.924609 1_555
Cr2 O1 1.924879 1_655
Cr2 O0 2.034948 1_555
Cr2 O7 2.142312 1_655
Cr2 O7 2.154241 1_555
Cr3 O0 1.993910 1_655
Cr3 O0 1.994876 1_555
Cr3 O2 2.009546 1_555
Cr3 O6 2.170706 1_655
Cr3 O6 2.189900 1_555
O0 Zn1 2.072071 1_555
O3 Zn0 2.072063 1_555
O4 Zn3 2.067540 1_555
O4 Zn1 2.070987 1_545
O4 Zn1 2.143526 1_645
O5 Zn3 2.078972 1_556
O5 Zn0 2.107687 1_555
O5 Zn0 2.232228 1_655
O6 Zn2 2.064463 1_555
O6 Zn0 2.076253 1_565
O6 Zn0 2.153391 1_465
O7 Zn2 2.084501 1_554
O7 Zn1 2.108258 1_555
O7 Zn1 2.235669 1_455
