# generated using pymatgen
data_Yb2(Ni7B2)3
_symmetry_space_group_name_H-M   'P 1'
_cell_length_a   7.44894149
_cell_length_b   7.44894149
_cell_length_c   7.44894149
_cell_angle_alpha   60.00000000
_cell_angle_beta   60.00000000
_cell_angle_gamma   60.00000000
_symmetry_Int_Tables_number   1
_chemical_formula_structural   Yb2(Ni7B2)3
_chemical_formula_sum   'Yb2 Ni21 B6'
_cell_volume   292.25953669
_cell_formula_units_Z   1
loop_
 _symmetry_equiv_pos_site_id
 _symmetry_equiv_pos_as_xyz
  1  'x, y, z'
loop_
 _atom_site_type_symbol
 _atom_site_label
 _atom_site_symmetry_multiplicity
 _atom_site_fract_x
 _atom_site_fract_y
 _atom_site_fract_z
 _atom_site_occupancy
  Yb  Yb0  1  0.75000000  0.75000000  0.75000000  1
  Yb  Yb1  1  0.25000000  0.25000000  0.25000000  1
  Ni  Ni0  1  0.00000000  0.00000000  0.00000000  1
  Ni  Ni1  1  0.61291265  0.61291265  0.16126106  1
  Ni  Ni2  1  0.61291265  0.16126106  0.61291265  1
  Ni  Ni3  1  0.16126106  0.61291265  0.61291265  1
  Ni  Ni4  1  0.61291265  0.61291265  0.61291265  1
  Ni  Ni5  1  0.38708735  0.38708735  0.83873894  1
  Ni  Ni6  1  0.38708735  0.83873894  0.38708735  1
  Ni  Ni7  1  0.83873894  0.38708735  0.38708735  1
  Ni  Ni8  1  0.38708735  0.38708735  0.38708735  1
  Ni  Ni9  1  0.00000000  0.00000000  0.33719110  1
  Ni  Ni10  1  0.66280890  0.00000000  0.33719110  1
  Ni  Ni11  1  0.00000000  0.66280890  0.33719110  1
  Ni  Ni12  1  0.66280890  0.33719110  0.00000000  1
  Ni  Ni13  1  0.00000000  0.33719110  0.00000000  1
  Ni  Ni14  1  0.00000000  0.33719110  0.66280890  1
  Ni  Ni15  1  0.33719110  0.66280890  0.00000000  1
  Ni  Ni16  1  0.33719110  0.00000000  0.66280890  1
  Ni  Ni17  1  0.33719110  0.00000000  0.00000000  1
  Ni  Ni18  1  0.00000000  0.00000000  0.66280890  1
  Ni  Ni19  1  0.00000000  0.66280890  0.00000000  1
  Ni  Ni20  1  0.66280890  0.00000000  0.00000000  1
  B  B0  1  0.72945919  0.72945919  0.27054081  1
  B  B1  1  0.27054081  0.72945919  0.27054081  1
  B  B2  1  0.72945919  0.27054081  0.27054081  1
  B  B3  1  0.27054081  0.27054081  0.72945919  1
  B  B4  1  0.72945919  0.27054081  0.72945919  1
  B  B5  1  0.27054081  0.72945919  0.72945919  1
loop_
_geom_bond_atom_site_label_1
_geom_bond_atom_site_label_2
_geom_bond_distance
_geom_bond_site_symmetry_2
Ni0 Ni13 2.511717 1_555
Ni0 Ni17 2.511717 1_555
Ni0 Ni9 2.511717 1_555
Ni0 Ni14 2.511717 1_554
Ni0 Ni10 2.511717 1_455
Ni0 Ni12 2.511717 1_455
Ni0 Ni11 2.511717 1_545
Ni0 Ni16 2.511717 1_554
Ni0 Ni15 2.511717 1_545
Ni0 Ni19 2.511717 1_545
Ni0 Ni18 2.511717 1_554
Ni0 Ni20 2.511717 1_455
Ni1 Yb0 2.501304 1_554
Ni2 Yb0 2.501304 1_545
Ni3 Yb0 2.501304 1_455
Ni4 Yb0 2.501310 1_555
Ni5 Yb1 2.501304 1_556
Ni6 Yb1 2.501304 1_565
Ni7 Yb1 2.501304 1_655
Ni8 Yb1 2.501310 1_555
Ni9 Yb0 2.899416 1_445
Ni9 Yb1 2.899416 1_555
Ni10 Yb1 2.899416 1_555
Ni10 Yb0 2.899416 1_545
Ni11 Yb1 2.899416 1_555
Ni11 Yb0 2.899416 1_455
Ni12 Yb1 2.899416 1_555
Ni12 Yb0 2.899416 1_554
Ni13 Yb0 2.899416 1_454
Ni13 Yb1 2.899416 1_555
Ni14 Yb1 2.899416 1_555
Ni14 Yb0 2.899416 1_455
Ni15 Yb1 2.899416 1_555
Ni15 Yb0 2.899416 1_554
Ni16 Yb1 2.899416 1_555
Ni16 Yb0 2.899416 1_545
Ni17 Yb1 2.899416 1_555
Ni17 Yb0 2.899416 1_544
Ni18 Yb0 2.899416 1_445
Ni18 Yb1 2.899416 1_555
Ni19 Yb0 2.899416 1_454
Ni19 Yb1 2.899416 1_555
Ni20 Yb1 2.899416 1_555
Ni20 Yb0 2.899416 1_544
B0 Ni11 2.075497 1_655
B0 Ni10 2.075497 1_565
B0 Ni19 2.075497 1_655
B0 Ni20 2.075497 1_565
B0 Ni7 2.082552 1_555
B0 Ni6 2.082552 1_555
B0 Ni4 2.082552 1_555
B0 Ni1 2.082558 1_555
B1 Ni17 2.075497 1_565
B1 Ni9 2.075497 1_565
B1 Ni11 2.075497 1_555
B1 Ni15 2.075497 1_555
B1 Ni3 2.082552 1_555
B1 Ni1 2.082552 1_555
B1 Ni8 2.082552 1_555
B1 Ni6 2.082558 1_555
B2 Ni9 2.075497 1_655
B2 Ni13 2.075497 1_655
B2 Ni10 2.075497 1_555
B2 Ni12 2.075497 1_555
B2 Ni1 2.082552 1_555
B2 Ni2 2.082552 1_555
B2 Ni8 2.082552 1_555
B2 Ni7 2.082558 1_555
B3 Ni13 2.075497 1_556
B3 Ni17 2.075497 1_556
B3 Ni16 2.075497 1_555
B3 Ni14 2.075497 1_555
B3 Ni3 2.082552 1_555
B3 Ni2 2.082552 1_555
B3 Ni8 2.082552 1_555
B3 Ni5 2.082558 1_555
B4 Ni12 2.075497 1_556
B4 Ni14 2.075497 1_655
B4 Ni20 2.075497 1_556
B4 Ni18 2.075497 1_655
B4 Ni7 2.082552 1_555
B4 Ni5 2.082552 1_555
B4 Ni4 2.082552 1_555
B4 Ni2 2.082558 1_555
B5 Ni16 2.075497 1_565
B5 Ni15 2.075497 1_556
B5 Ni19 2.075497 1_556
B5 Ni18 2.075497 1_565
B5 Ni5 2.082552 1_555
B5 Ni6 2.082552 1_555
B5 Ni4 2.082552 1_555
B5 Ni3 2.082558 1_555
