# generated using pymatgen
data_Sm4CrFe33C4
_symmetry_space_group_name_H-M   'P 1'
_cell_length_a   6.50403639
_cell_length_b   6.48021192
_cell_length_c   13.00634797
_cell_angle_alpha   83.55663481
_cell_angle_beta   83.54938490
_cell_angle_gamma   83.68356637
_symmetry_Int_Tables_number   1
_chemical_formula_structural   Sm4CrFe33C4
_chemical_formula_sum   'Sm4 Cr1 Fe33 C4'
_cell_volume   538.63361783
_cell_formula_units_Z   1
loop_
 _symmetry_equiv_pos_site_id
 _symmetry_equiv_pos_as_xyz
  1  'x, y, z'
loop_
 _atom_site_type_symbol
 _atom_site_label
 _atom_site_symmetry_multiplicity
 _atom_site_fract_x
 _atom_site_fract_y
 _atom_site_fract_z
 _atom_site_occupancy
  Sm  Sm0  1  0.66497100  0.65012100  0.32532100  1
  Sm  Sm1  1  0.66709800  0.65114600  0.82553300  1
  Sm  Sm2  1  0.33305500  0.34924800  0.17490000  1
  Sm  Sm3  1  0.34060000  0.35571100  0.67715900  1
  Cr  Cr0  1  0.09260000  0.09324500  0.54702200  1
  Fe  Fe0  1  0.85400000  0.34156700  0.17074200  1
  Fe  Fe1  1  0.85508400  0.34366200  0.67128800  1
  Fe  Fe2  1  0.33952700  0.34314800  0.42742800  1
  Fe  Fe3  1  0.34152900  0.34412900  0.92748300  1
  Fe  Fe4  1  0.34084000  0.85444000  0.17147100  1
  Fe  Fe5  1  0.34026300  0.85458000  0.67215000  1
  Fe  Fe6  1  0.14338100  0.65605700  0.32971900  1
  Fe  Fe7  1  0.14611800  0.65842400  0.82809300  1
  Fe  Fe8  1  0.65898300  0.65684200  0.07257200  1
  Fe  Fe9  1  0.66192800  0.65686100  0.57200700  1
  Fe  Fe10  1  0.65985600  0.14440500  0.32889800  1
  Fe  Fe11  1  0.66105900  0.14561800  0.82793600  1
  Fe  Fe12  1  0.28511800  0.71223500  0.49878400  1
  Fe  Fe13  1  0.28528200  0.71507600  0.99912600  1
  Fe  Fe14  1  0.71320000  0.00158000  0.14279600  1
  Fe  Fe15  1  0.71207200  0.00063500  0.64179200  1
  Fe  Fe16  1  0.00014200  0.28218700  0.35865200  1
  Fe  Fe17  1  0.00036700  0.28431500  0.85798600  1
  Fe  Fe18  1  0.28478000  0.99637200  0.35641200  1
  Fe  Fe19  1  0.28548100  0.99904300  0.85690600  1
  Fe  Fe20  1  0.99979500  0.71723400  0.14138600  1
  Fe  Fe21  1  0.00199800  0.71545500  0.64120400  1
  Fe  Fe22  1  0.71446800  0.28443200  0.00073100  1
  Fe  Fe23  1  0.71117800  0.28401600  0.50079900  1
  Fe  Fe24  1  0.99894000  0.99929900  0.25024000  1
  Fe  Fe25  1  0.00051300  0.00107200  0.74890500  1
  Fe  Fe26  1  0.99992300  0.49804800  0.50063200  1
  Fe  Fe27  1  0.00035500  0.50004000  0.99957200  1
  Fe  Fe28  1  0.49972300  0.00001900  0.99961600  1
  Fe  Fe29  1  0.49709100  0.99983600  0.50038200  1
  Fe  Fe30  1  0.90846800  0.90927100  0.45298900  1
  Fe  Fe31  1  0.90399900  0.90389600  0.95267700  1
  Fe  Fe32  1  0.09594900  0.09516700  0.04795800  1
  C  C0  1  0.50014500  0.50025900  0.00023500  1
  C  C1  1  0.50006400  0.50037800  0.50006200  1
  C  C2  1  0.50003600  0.00041900  0.25041300  1
  C  C3  1  0.50002200  0.00051200  0.75002000  1
loop_
_geom_bond_atom_site_label_1
_geom_bond_atom_site_label_2
_geom_bond_distance
_geom_bond_site_symmetry_2
Cr0 Fe30 2.306921 1_445
Cr0 Fe25 2.642623 1_555
Cr0 Fe26 2.643326 1_455
Cr0 Fe29 2.651234 1_545
Cr0 Fe2 2.658377 1_555
Cr0 Fe1 2.666097 1_455
Cr0 Fe5 2.666690 1_545
Cr0 Fe21 2.706184 1_545
Cr0 Fe16 2.712753 1_555
Cr0 Fe15 2.735012 1_455
Cr0 Fe23 2.745447 1_455
Cr0 Fe12 2.747449 1_545
Cr0 Fe18 2.753714 1_545
Cr0 Sm3 3.197309 1_555
Fe0 Fe24 2.474145 1_545
Fe0 Fe27 2.478487 1_654
Fe0 Fe14 2.554067 1_555
Fe0 Fe22 2.561009 1_555
Fe0 Fe8 2.573206 1_555
Fe0 Fe10 2.576766 1_555
Fe0 Fe32 2.651595 1_655
Fe0 Fe20 2.681280 1_555
Fe0 Fe16 2.693550 1_655
Fe0 Sm0 3.059022 1_555
Fe0 Sm2 3.128282 1_655
Fe0 Sm2 3.377563 1_555
Fe1 Fe26 2.460523 1_555
Fe1 Fe25 2.468183 1_655
Fe1 Fe9 2.565188 1_555
Fe1 Fe11 2.565619 1_555
Fe1 Fe15 2.584595 1_555
Fe1 Fe23 2.584721 1_555
Fe1 Fe21 2.661171 1_655
Fe1 Fe17 2.676422 1_655
Fe1 Sm1 3.049571 1_555
Fe1 Sm3 3.177025 1_655
Fe1 Sm3 3.331001 1_555
Fe2 Fe26 2.459065 1_455
Fe2 Fe29 2.478516 1_545
Fe2 Fe6 2.563375 1_555
Fe3 Fe7 2.577444 1_555
Fe3 Fe32 2.654549 1_556
Fe4 Fe6 2.591106 1_555
Fe5 Fe7 2.554039 1_555
Fe6 Sm2 3.054533 1_555
Fe6 Sm0 3.123076 1_455
Fe6 Sm0 3.382541 1_555
Fe7 Sm3 3.010348 1_555
Fe7 Sm1 3.125070 1_455
Fe7 Sm1 3.380077 1_555
Fe10 Fe24 2.459130 1_545
Fe10 Fe29 2.488308 1_545
Fe10 Fe16 2.559330 1_655
Fe11 Fe25 2.461620 1_655
Fe11 Fe28 2.489140 1_555
Fe11 Fe17 2.557333 1_655
Fe11 Fe31 2.653979 1_545
Fe12 Fe26 2.432444 1_455
Fe12 Fe29 2.440316 1_555
Fe12 Fe21 2.460959 1_555
Fe12 Fe6 2.554719 1_555
Fe13 Fe28 2.434372 1_565
Fe13 Fe27 2.437225 1_555
Fe13 Fe20 2.469746 1_456
Fe13 Fe7 2.571249 1_555
Fe13 Fe32 2.737607 1_566
Fe13 Fe31 2.741349 1_455
Fe14 Fe24 2.445375 1_545
Fe14 Fe28 2.446263 1_554
Fe14 Fe20 2.472715 1_545
Fe14 Fe31 2.746667 1_544
Fe14 Fe32 2.749696 1_655
Fe15 Fe29 2.432991 1_545
Fe15 Fe25 2.459609 1_655
Fe15 Fe21 2.490828 1_645
Fe16 Fe24 2.436102 1_445
Fe16 Fe26 2.438346 1_455
Fe16 Fe18 2.470644 1_545
Fe16 Fe23 2.483906 1_455
Fe16 Fe2 2.558042 1_555
Fe16 Fe6 2.663184 1_555
Fe16 Fe30 2.681046 1_445
Fe16 Sm2 3.065988 1_555
Fe16 Sm0 3.075986 1_455
Fe17 Fe27 2.433755 1_555
Fe17 Fe25 2.442454 1_555
Fe17 Fe19 2.470231 1_545
Fe17 Fe22 2.475672 1_456
Fe17 Fe3 2.570891 1_555
Fe17 Fe7 2.671776 1_555
Fe17 Fe31 2.733488 1_445
Fe17 Fe32 2.737089 1_556
Fe17 Sm1 3.061703 1_455
Fe17 Sm3 3.074735 1_555
Fe18 Fe24 2.434499 1_455
Fe18 Fe29 2.451719 1_555
Fe18 Fe6 2.553346 1_555
Fe19 Fe28 2.443905 1_565
Fe19 Fe25 2.446239 1_565
Fe19 Fe7 2.556630 1_555
Fe19 Fe31 2.749141 1_455
Fe19 Fe32 2.751809 1_566
Fe20 Fe24 2.433582 1_555
Fe20 Fe27 2.441947 1_654
Fe20 Fe4 2.563397 1_655
Fe20 Fe8 2.565745 1_555
Fe20 Fe6 2.691481 1_655
Fe20 Fe32 2.713680 1_665
Fe20 Fe31 2.717894 1_554
Fe20 Sm2 3.068604 1_655
Fe20 Sm0 3.075555 1_555
Fe21 Fe26 2.432213 1_455
Fe21 Fe25 2.441912 1_565
Fe21 Fe5 2.555790 1_555
Fe21 Fe9 2.560300 1_455
Fe21 Fe7 2.675417 1_555
Fe21 Fe30 2.723341 1_455
Fe21 Sm3 3.059469 1_555
Fe21 Sm1 3.077028 1_455
Fe22 Fe28 2.434100 1_554
Fe22 Fe27 2.443444 1_654
Fe22 Fe31 2.737714 1_544
Fe22 Fe32 2.746179 1_655
Fe23 Fe29 2.428652 1_545
Fe23 Fe26 2.454010 1_555
Fe24 Fe4 2.473942 1_655
Fe24 Fe6 2.478093 1_655
Fe24 Fe30 2.649923 1_555
Fe24 Fe32 2.655628 1_665
Fe24 Sm0 3.301636 1_555
Fe24 Sm2 3.306411 1_665
Fe25 Fe5 2.456869 1_545
Fe25 Fe7 2.476113 1_545
Fe25 Fe31 2.674587 1_445
Fe25 Sm1 3.305605 1_445
Fe25 Sm3 3.349373 1_555
Fe26 Fe9 2.451867 1_555
Fe26 Fe6 2.468576 1_655
Fe26 Fe30 2.683737 1_555
Fe26 Sm0 3.325013 1_555
Fe26 Sm3 3.354101 1_655
Fe27 Fe3 2.464895 1_555
Fe27 Fe8 2.471864 1_456
Fe27 Fe7 2.480273 1_555
Fe27 Fe31 2.642078 1_455
Fe27 Fe32 2.650400 1_556
Fe27 Sm1 3.304366 1_455
Fe27 Sm2 3.313723 1_556
Fe28 Fe3 2.480688 1_555
Fe28 Fe8 2.481785 1_546
Fe28 Fe4 2.485202 1_546
Fe28 Fe32 2.651777 1_556
Fe28 Fe31 2.653085 1_545
Fe28 Sm1 3.387654 1_545
Fe28 Sm2 3.399559 1_556
Fe29 Fe5 2.478871 1_555
Fe29 Fe9 2.488450 1_555
Fe29 Fe30 2.692281 1_555
Fe29 Sm0 3.401078 1_555
Fe29 Sm3 3.433432 1_565
Fe30 Fe6 2.661927 1_655
Fe31 Fe32 2.379825 1_666
Fe31 Fe8 2.641404 1_556
Fe31 Fe7 2.662670 1_655
Fe31 Sm1 3.086603 1_555
Fe32 Fe4 2.648938 1_545
Fe32 Sm2 3.091294 1_555
C0 Fe13 1.860899 1_554
C0 Fe22 1.862869 1_555
C0 Fe8 1.909285 1_555
C0 Fe3 1.909762 1_554
C0 Sm1 2.545347 1_554
C0 Sm2 2.545555 1_555
C1 Fe12 1.848594 1_555
C1 Fe23 1.851380 1_555
C1 Fe9 1.918708 1_555
C1 Fe2 1.921608 1_555
C1 Sm0 2.538436 1_555
C1 Sm3 2.540206 1_555
C2 Fe18 1.851418 1_545
C2 Fe14 1.856152 1_555
C2 Fe10 1.912788 1_555
C2 Fe4 1.921863 1_545
C2 Sm2 2.540689 1_555
C2 Sm0 2.540779 1_545
C3 Fe19 1.855777 1_545
C3 Fe15 1.856715 1_555
C3 Fe5 1.915044 1_545
C3 Fe11 1.917627 1_555
C3 Sm1 2.543702 1_545
C3 Sm3 2.545066 1_555
