# generated using pymatgen
data_YU2(BRh)12
_symmetry_space_group_name_H-M   'P 1'
_cell_length_a   5.33561700
_cell_length_b   5.33561700
_cell_length_c   22.51708400
_cell_angle_alpha   90.00000000
_cell_angle_beta   90.00000000
_cell_angle_gamma   90.00000000
_symmetry_Int_Tables_number   1
_chemical_formula_structural   YU2(BRh)12
_chemical_formula_sum   'Y2 U4 B24 Rh24'
_cell_volume   641.03455847
_cell_formula_units_Z   2
loop_
 _symmetry_equiv_pos_site_id
 _symmetry_equiv_pos_as_xyz
  1  'x, y, z'
loop_
 _atom_site_type_symbol
 _atom_site_label
 _atom_site_symmetry_multiplicity
 _atom_site_fract_x
 _atom_site_fract_y
 _atom_site_fract_z
 _atom_site_occupancy
  Y  Y0  1  0.00000000  0.00000000  0.33328800  1
  Y  Y1  1  0.00000000  0.00000000  0.66671200  1
  U  U0  1  0.50000000  0.50000000  0.83343600  1
  U  U1  1  0.50000000  0.50000000  0.16656400  1
  U  U2  1  0.50000000  0.50000000  0.50000000  1
  U  U3  1  0.00000000  0.00000000  0.00000000  1
  B  B0  1  0.33289800  0.00000000  0.88190900  1
  B  B1  1  0.33326800  0.00000000  0.21606700  1
  B  B2  1  0.33318000  0.00000000  0.54890400  1
  B  B3  1  0.66710200  0.00000000  0.88190900  1
  B  B4  1  0.66673200  0.00000000  0.21606700  1
  B  B5  1  0.66682000  0.00000000  0.54890400  1
  B  B6  1  0.50000000  0.83280400  0.04916200  1
  B  B7  1  0.50000000  0.83071600  0.38335700  1
  B  B8  1  0.50000000  0.83130500  0.71654100  1
  B  B9  1  0.50000000  0.16719600  0.04916200  1
  B  B10  1  0.50000000  0.16928400  0.38335700  1
  B  B11  1  0.50000000  0.16869500  0.71654100  1
  B  B12  1  0.16719600  0.50000000  0.95083800  1
  B  B13  1  0.16869500  0.50000000  0.28345900  1
  B  B14  1  0.16928400  0.50000000  0.61664300  1
  B  B15  1  0.83280400  0.50000000  0.95083800  1
  B  B16  1  0.83130500  0.50000000  0.28345900  1
  B  B17  1  0.83071600  0.50000000  0.61664300  1
  B  B18  1  0.00000000  0.66673200  0.78393300  1
  B  B19  1  0.00000000  0.66710200  0.11809100  1
  B  B20  1  0.00000000  0.66682000  0.45109600  1
  B  B21  1  0.00000000  0.33326800  0.78393300  1
  B  B22  1  0.00000000  0.33289800  0.11809100  1
  B  B23  1  0.00000000  0.33318000  0.45109600  1
  Rh  Rh0  1  0.74797000  0.00000000  0.78480000  1
  Rh  Rh1  1  0.74800600  0.00000000  0.11744900  1
  Rh  Rh2  1  0.74720200  0.00000000  0.45147600  1
  Rh  Rh3  1  0.25203000  0.00000000  0.78480000  1
  Rh  Rh4  1  0.25199400  0.00000000  0.11744900  1
  Rh  Rh5  1  0.25279800  0.00000000  0.45147600  1
  Rh  Rh6  1  0.50000000  0.24785600  0.95037300  1
  Rh  Rh7  1  0.50000000  0.25007400  0.28412300  1
  Rh  Rh8  1  0.50000000  0.24995300  0.61722900  1
  Rh  Rh9  1  0.50000000  0.75214400  0.95037300  1
  Rh  Rh10  1  0.50000000  0.74992600  0.28412300  1
  Rh  Rh11  1  0.50000000  0.75004700  0.61722900  1
  Rh  Rh12  1  0.75214400  0.50000000  0.04962700  1
  Rh  Rh13  1  0.75004700  0.50000000  0.38277100  1
  Rh  Rh14  1  0.74992600  0.50000000  0.71587700  1
  Rh  Rh15  1  0.24785600  0.50000000  0.04962700  1
  Rh  Rh16  1  0.24995300  0.50000000  0.38277100  1
  Rh  Rh17  1  0.25007400  0.50000000  0.71587700  1
  Rh  Rh18  1  0.00000000  0.25199400  0.88255100  1
  Rh  Rh19  1  0.00000000  0.25203000  0.21520000  1
  Rh  Rh20  1  0.00000000  0.25279800  0.54852400  1
  Rh  Rh21  1  0.00000000  0.74800600  0.88255100  1
  Rh  Rh22  1  0.00000000  0.74797000  0.21520000  1
  Rh  Rh23  1  0.00000000  0.74720200  0.54852400  1
loop_
_geom_bond_atom_site_label_1
_geom_bond_atom_site_label_2
_geom_bond_distance
_geom_bond_site_symmetry_2
B0 B3 1.783185 1_555
B0 Rh6 2.218200 1_555
B0 Rh9 2.218200 1_545
B0 Rh21 2.227768 1_545
B0 Rh18 2.227768 1_555
B0 Rh3 2.228777 1_555
B0 U0 3.017192 1_545
B0 U0 3.017192 1_555
B0 U3 3.197745 1_556
B1 B4 1.779236 1_555
B1 Rh7 2.218128 1_555
B1 Rh10 2.218128 1_545
B1 Rh22 2.229497 1_545
B1 Rh19 2.229497 1_555
B1 Rh4 2.262536 1_555
B1 U1 3.025078 1_555
B1 U1 3.025078 1_545
B1 Y0 3.182576 1_555
B2 B5 1.780175 1_555
B2 Rh8 2.222118 1_555
B2 Rh11 2.222118 1_545
B2 Rh20 2.231528 1_555
B2 Rh23 2.231528 1_545
B2 Rh5 2.235325 1_555
B2 U2 3.020272 1_545
B2 U2 3.020272 1_555
B2 Y1 3.193285 1_555
B3 Rh6 2.218200 1_555
B3 Rh9 2.218200 1_545
B3 Rh18 2.227768 1_655
B3 Rh21 2.227768 1_645
B3 Rh0 2.228777 1_555
B3 U0 3.017192 1_555
B3 U0 3.017192 1_545
B3 U3 3.197745 1_656
B4 Rh7 2.218128 1_555
B4 Rh10 2.218128 1_545
B4 Rh19 2.229497 1_655
B4 Rh22 2.229497 1_645
B4 Rh1 2.262536 1_555
B4 U1 3.025078 1_555
B4 U1 3.025078 1_545
B4 Y0 3.182576 1_655
B5 Rh8 2.222118 1_555
B5 Rh11 2.222118 1_545
B5 Rh20 2.231528 1_655
B5 Rh23 2.231528 1_645
B5 Rh2 2.235325 1_555
B5 U2 3.020272 1_545
B5 U2 3.020272 1_555
B5 Y1 3.193285 1_655
B6 B9 1.784188 1_565
B6 Rh1 2.216111 1_565
B6 Rh4 2.216111 1_565
B6 Rh12 2.227829 1_555
B6 Rh15 2.227829 1_555
B6 Rh9 2.265690 1_554
B6 U3 3.022987 1_565
B6 U3 3.022987 1_665
B6 U1 3.184576 1_555
B7 Rh13 2.212208 1_555
B7 Rh16 2.212208 1_555
B7 Rh2 2.215445 1_565
B7 Rh5 2.215445 1_565
B7 Rh10 2.275660 1_555
B7 Y0 3.033823 1_565
B7 Y0 3.033823 1_665
B7 U2 3.164177 1_555
B8 Rh14 2.214338 1_555
B8 Rh17 2.214338 1_555
B8 Rh3 2.218792 1_565
B8 Rh0 2.218792 1_565
B8 Rh11 2.277859 1_555
B8 Y1 3.030884 1_565
B8 Y1 3.030884 1_665
B8 U0 3.170639 1_555
B9 Rh1 2.216111 1_555
B9 Rh4 2.216111 1_555
B9 Rh12 2.227829 1_555
B9 Rh15 2.227829 1_555
B9 Rh6 2.265690 1_554
B9 U3 3.022987 1_555
B9 U3 3.022987 1_655
B9 U1 3.184576 1_555
B10 B7 1.806469 1_545
B10 Rh13 2.212208 1_555
B10 Rh16 2.212208 1_555
B10 Rh2 2.215445 1_555
B10 Rh5 2.215445 1_555
B10 Rh7 2.275660 1_555
B10 Y0 3.033823 1_655
B10 Y0 3.033823 1_555
B10 U2 3.164177 1_555
B11 B8 1.800184 1_545
B11 Rh14 2.214338 1_555
B11 Rh17 2.214338 1_555
B11 Rh3 2.218792 1_555
B11 Rh0 2.218792 1_555
B11 Rh8 2.277859 1_555
B11 Y1 3.030884 1_655
B11 Y1 3.030884 1_555
B11 U0 3.170639 1_555
B12 B15 1.784188 1_455
B12 Rh21 2.216111 1_555
B12 Rh18 2.216111 1_555
B12 Rh9 2.227829 1_555
B12 Rh6 2.227829 1_555
B12 Rh15 2.265690 1_556
B12 U3 3.022987 1_566
B12 U3 3.022987 1_556
B12 U0 3.184576 1_555
B13 B16 1.800184 1_455
B13 Rh10 2.214338 1_555
B13 Rh7 2.214338 1_555
B13 Rh19 2.218792 1_555
B13 Rh22 2.218792 1_555
B13 Rh16 2.277859 1_555
B13 Y0 3.030884 1_555
B13 Y0 3.030884 1_565
B13 U1 3.170639 1_555
B14 B17 1.806469 1_455
B14 Rh11 2.212208 1_555
B14 Rh8 2.212208 1_555
B14 Rh23 2.215445 1_555
B14 Rh20 2.215445 1_555
B14 Rh17 2.275660 1_555
B14 Y1 3.033823 1_565
B14 Y1 3.033823 1_555
B14 U2 3.164177 1_555
B15 Rh18 2.216111 1_655
B15 Rh21 2.216111 1_655
B15 Rh9 2.227829 1_555
B15 Rh6 2.227829 1_555
B15 Rh12 2.265690 1_556
B15 U3 3.022987 1_656
B15 U3 3.022987 1_666
B15 U0 3.184576 1_555
B16 Rh10 2.214338 1_555
B16 Rh7 2.214338 1_555
B16 Rh22 2.218792 1_655
B16 Rh19 2.218792 1_655
B16 Rh13 2.277859 1_555
B16 Y0 3.030884 1_665
B16 Y0 3.030884 1_655
B16 U1 3.170639 1_555
B17 Rh11 2.212208 1_555
B17 Rh8 2.212208 1_555
B17 Rh23 2.215445 1_655
B17 Rh20 2.215445 1_655
B17 Rh14 2.275660 1_555
B17 Y1 3.033823 1_665
B17 Y1 3.033823 1_655
B17 U2 3.164177 1_555
B18 B21 1.779236 1_555
B18 Rh17 2.218128 1_555
B18 Rh14 2.218128 1_455
B18 Rh0 2.229497 1_465
B18 Rh3 2.229497 1_565
B18 Rh21 2.262536 1_555
B18 U0 3.025078 1_555
B18 U0 3.025078 1_455
B18 Y1 3.182576 1_565
B19 B22 1.783185 1_555
B19 Rh15 2.218200 1_555
B19 Rh12 2.218200 1_455
B19 Rh4 2.227768 1_565
B19 Rh1 2.227768 1_465
B19 Rh22 2.228777 1_555
B19 U1 3.017192 1_555
B19 U1 3.017192 1_455
B19 U3 3.197745 1_565
B20 B23 1.780175 1_555
B20 Rh16 2.222118 1_555
B20 Rh13 2.222118 1_455
B20 Rh5 2.231528 1_565
B20 Rh2 2.231528 1_465
B20 Rh23 2.235325 1_555
B20 U2 3.020272 1_555
B20 U2 3.020272 1_455
B20 Y0 3.193285 1_565
B21 Rh17 2.218128 1_555
B21 Rh14 2.218128 1_455
B21 Rh0 2.229497 1_455
B21 Rh3 2.229497 1_555
B21 Rh18 2.262536 1_555
B21 U0 3.025078 1_555
B21 U0 3.025078 1_455
B21 Y1 3.182576 1_555
B22 Rh15 2.218200 1_555
B22 Rh12 2.218200 1_455
B22 Rh1 2.227768 1_455
B22 Rh4 2.227768 1_555
B22 Rh19 2.228777 1_555
B22 U1 3.017192 1_455
B22 U1 3.017192 1_555
B22 U3 3.197745 1_555
B23 Rh16 2.222118 1_555
B23 Rh13 2.222118 1_455
B23 Rh5 2.231528 1_555
B23 Rh2 2.231528 1_455
B23 Rh20 2.235325 1_555
B23 U2 3.020272 1_555
B23 U2 3.020272 1_455
B23 Y0 3.193285 1_555
Rh0 Y1 2.979695 1_655
Rh0 U0 3.172863 1_545
Rh0 U0 3.172863 1_555
Rh1 U3 2.966775 1_655
Rh1 U1 3.176682 1_555
Rh1 U1 3.176682 1_545
Rh2 Y0 2.983555 1_655
Rh2 U2 3.170286 1_545
Rh2 U2 3.170286 1_555
Rh3 Y1 2.979695 1_555
Rh3 U0 3.172863 1_545
Rh3 U0 3.172863 1_555
Rh4 U3 2.966775 1_555
Rh4 U1 3.176682 1_555
Rh4 U1 3.176682 1_545
Rh5 Y0 2.983555 1_555
Rh5 U2 3.170286 1_545
Rh5 U2 3.170286 1_555
Rh6 U0 2.956867 1_555
Rh6 U3 3.180381 1_656
Rh6 U3 3.180381 1_556
Rh7 U1 2.964003 1_555
Rh7 Y0 3.181685 1_655
Rh7 Y0 3.181685 1_555
Rh8 U2 2.957659 1_555
Rh8 Y1 3.183913 1_555
Rh8 Y1 3.183913 1_655
Rh9 U0 2.956867 1_555
Rh9 U3 3.180381 1_566
Rh9 U3 3.180381 1_666
Rh10 U1 2.964003 1_555
Rh10 Y0 3.181685 1_565
Rh10 Y0 3.181685 1_665
Rh11 U2 2.957659 1_555
Rh11 Y1 3.183913 1_565
Rh11 Y1 3.183913 1_665
Rh12 U1 2.956867 1_555
Rh12 U3 3.180381 1_655
Rh12 U3 3.180381 1_665
Rh13 U2 2.957659 1_555
Rh13 Y0 3.183913 1_655
Rh13 Y0 3.183913 1_665
Rh14 U0 2.964003 1_555
Rh14 Y1 3.181685 1_655
Rh14 Y1 3.181685 1_665
Rh15 U1 2.956867 1_555
Rh15 U3 3.180381 1_555
Rh15 U3 3.180381 1_565
Rh16 U2 2.957659 1_555
Rh16 Y0 3.183913 1_555
Rh16 Y0 3.183913 1_565
Rh17 U0 2.964003 1_555
Rh17 Y1 3.181685 1_565
Rh17 Y1 3.181685 1_555
Rh18 U3 2.966775 1_556
Rh18 U0 3.176682 1_455
Rh18 U0 3.176682 1_555
Rh19 Y0 2.979695 1_555
Rh19 U1 3.172863 1_455
Rh19 U1 3.172863 1_555
Rh20 Y1 2.983555 1_555
Rh20 U2 3.170286 1_555
Rh20 U2 3.170286 1_455
Rh21 U3 2.966775 1_566
Rh21 U0 3.176682 1_555
Rh21 U0 3.176682 1_455
Rh22 Y0 2.979695 1_565
Rh22 U1 3.172863 1_455
Rh22 U1 3.172863 1_555
Rh23 Y1 2.983555 1_565
Rh23 U2 3.170286 1_555
Rh23 U2 3.170286 1_455
