# generated using pymatgen
data_Te2Mo3WSe6
_symmetry_space_group_name_H-M   'P 1'
_cell_length_a   3.38314654
_cell_length_b   3.38314654
_cell_length_c   38.45646500
_cell_angle_alpha   90.00000000
_cell_angle_beta   90.00000000
_cell_angle_gamma   120.00001049
_symmetry_Int_Tables_number   1
_chemical_formula_structural   Te2Mo3WSe6
_chemical_formula_sum   'Te2 Mo3 W1 Se6'
_cell_volume   381.19005740
_cell_formula_units_Z   1
loop_
 _symmetry_equiv_pos_site_id
 _symmetry_equiv_pos_as_xyz
  1  'x, y, z'
loop_
 _atom_site_type_symbol
 _atom_site_label
 _atom_site_symmetry_multiplicity
 _atom_site_fract_x
 _atom_site_fract_y
 _atom_site_fract_z
 _atom_site_occupancy
  Te  Te0  1  0.33333300  0.66666700  0.33066800  1
  Te  Te1  1  0.33333300  0.66666700  0.23295100  1
  Mo  Mo0  1  0.33333300  0.66666700  0.09389500  1
  Mo  Mo1  1  0.33333300  0.66666700  0.46967200  1
  Mo  Mo2  1  0.66666700  0.33333300  0.28178800  1
  W  W0  1  0.66666700  0.33333300  0.65752700  1
  Se  Se0  1  0.33333300  0.66666700  0.70072900  1
  Se  Se1  1  0.66666700  0.33333300  0.05088500  1
  Se  Se2  1  0.66666700  0.33333300  0.42665100  1
  Se  Se3  1  0.66666700  0.33333300  0.13694700  1
  Se  Se4  1  0.66666700  0.33333300  0.51269600  1
  Se  Se5  1  0.33333300  0.66666700  0.61433800  1
loop_
_geom_bond_atom_site_label_1
_geom_bond_atom_site_label_2
_geom_bond_distance
_geom_bond_site_symmetry_2
Mo0 Se1 2.559487 1_455
Mo0 Se1 2.559487 1_565
Mo0 Se1 2.559492 1_555
Mo0 Se3 2.560532 1_455
Mo0 Se3 2.560532 1_565
Mo0 Se3 2.560536 1_555
Mo1 Se2 2.559761 1_455
Mo1 Se2 2.559761 1_565
Mo1 Se2 2.559766 1_555
Mo1 Se4 2.559835 1_455
Mo1 Se4 2.559835 1_565
Mo1 Se4 2.559840 1_555
Mo2 Te1 2.709700 1_655
Mo2 Te1 2.709700 1_545
Mo2 Te1 2.709704 1_555
Mo2 Te0 2.710846 1_545
Mo2 Te0 2.710846 1_655
Mo2 Te0 2.710850 1_555
Se0 W0 2.564265 1_565
Se0 W0 2.564265 1_455
Se0 W0 2.564270 1_555
Se5 W0 2.563941 1_455
Se5 W0 2.563941 1_565
Se5 W0 2.563946 1_555
