# generated using pymatgen
data_Te6IrCl3
_symmetry_space_group_name_H-M   'P 1'
_cell_length_a   9.07590864
_cell_length_b   9.07590864
_cell_length_c   9.07590930
_cell_angle_alpha   107.78194172
_cell_angle_beta   107.78194172
_cell_angle_gamma   107.78193982
_symmetry_Int_Tables_number   1
_chemical_formula_structural   Te6IrCl3
_chemical_formula_sum   'Te12 Ir2 Cl6'
_cell_volume   608.84139066
_cell_formula_units_Z   2
loop_
 _symmetry_equiv_pos_site_id
 _symmetry_equiv_pos_as_xyz
  1  'x, y, z'
loop_
 _atom_site_type_symbol
 _atom_site_label
 _atom_site_symmetry_multiplicity
 _atom_site_fract_x
 _atom_site_fract_y
 _atom_site_fract_z
 _atom_site_occupancy
  Te  Te0  1  0.92169691  0.17335499  0.19032441  1
  Te  Te1  1  0.19032441  0.92169691  0.17335499  1
  Te  Te2  1  0.17335499  0.19032441  0.92169691  1
  Te  Te3  1  0.69032441  0.67335499  0.42169691  1
  Te  Te4  1  0.42169691  0.69032441  0.67335499  1
  Te  Te5  1  0.67335499  0.42169691  0.69032441  1
  Te  Te6  1  0.07830309  0.82664501  0.80967559  1
  Te  Te7  1  0.80967559  0.07830309  0.82664501  1
  Te  Te8  1  0.82664501  0.80967559  0.07830309  1
  Te  Te9  1  0.30967559  0.32664501  0.57830309  1
  Te  Te10  1  0.57830309  0.30967559  0.32664501  1
  Te  Te11  1  0.32664501  0.57830309  0.30967559  1
  Ir  Ir0  1  0.25000000  0.25000000  0.25000000  1
  Ir  Ir1  1  0.75000000  0.75000000  0.75000000  1
  Cl  Cl0  1  0.98578745  0.51421255  0.25000000  1
  Cl  Cl1  1  0.25000000  0.98578745  0.51421255  1
  Cl  Cl2  1  0.51421255  0.25000000  0.98578745  1
  Cl  Cl3  1  0.75000000  0.01421255  0.48578745  1
  Cl  Cl4  1  0.48578745  0.75000000  0.01421255  1
  Cl  Cl5  1  0.01421255  0.48578745  0.75000000  1
loop_
_geom_bond_atom_site_label_1
_geom_bond_atom_site_label_2
_geom_bond_distance
_geom_bond_site_symmetry_2
Te0 Te8 2.889294 1_545
Te0 Te7 2.889294 1_554
Te1 Te8 2.889294 1_455
Te1 Te6 2.889294 1_554
Te2 Te6 2.889294 1_545
Te2 Te7 2.889294 1_455
Te4 Te9 2.889294 1_555
Te5 Te9 2.889294 1_555
Te10 Te3 2.889294 1_555
Te10 Te5 2.889294 1_555
Te11 Te3 2.889294 1_555
Te11 Te4 2.889294 1_555
Ir0 Te1 2.678382 1_545
Ir0 Te10 2.678382 1_555
Ir0 Te11 2.678382 1_555
Ir0 Te0 2.678382 1_455
Ir0 Te9 2.678382 1_555
Ir0 Te2 2.678382 1_554
Ir1 Te7 2.678382 1_565
Ir1 Te4 2.678382 1_555
Ir1 Te6 2.678382 1_655
Ir1 Te5 2.678382 1_555
Ir1 Te8 2.678382 1_556
Ir1 Te3 2.678382 1_555
Cl0 Te0 2.808395 1_555
Cl0 Te11 2.808395 1_655
Cl1 Te9 2.808395 1_565
Cl1 Te1 2.808395 1_555
Cl2 Te2 2.808395 1_555
Cl2 Te10 2.808395 1_556
Cl3 Te3 2.808395 1_545
Cl3 Te7 2.808395 1_555
Cl4 Te8 2.808395 1_555
Cl4 Te4 2.808395 1_554
Cl5 Te5 2.808395 1_455
Cl5 Te6 2.808395 1_555
