# generated using pymatgen
data_ZnCu(PO3)4
_symmetry_space_group_name_H-M   'P 1'
_cell_length_a   7.28601788
_cell_length_b   7.28601788
_cell_length_c   10.03011217
_cell_angle_alpha   67.09380316
_cell_angle_beta   67.09380316
_cell_angle_gamma   70.02027304
_symmetry_Int_Tables_number   1
_chemical_formula_structural   ZnCu(PO3)4
_chemical_formula_sum   'Zn2 Cu2 P8 O24'
_cell_volume   440.29812469
_cell_formula_units_Z   2
loop_
 _symmetry_equiv_pos_site_id
 _symmetry_equiv_pos_as_xyz
  1  'x, y, z'
loop_
 _atom_site_type_symbol
 _atom_site_label
 _atom_site_symmetry_multiplicity
 _atom_site_fract_x
 _atom_site_fract_y
 _atom_site_fract_z
 _atom_site_occupancy
  Zn  Zn0  1  0.94941200  0.05058800  0.75000000  1
  Zn  Zn1  1  0.05058800  0.94941200  0.25000000  1
  Cu  Cu0  1  0.00000000  0.50000000  0.50000000  1
  Cu  Cu1  1  0.50000000  0.00000000  0.00000000  1
  P  P0  1  0.70305600  0.68607700  0.80160600  1
  P  P1  1  0.31392300  0.29694400  0.69839400  1
  P  P2  1  0.29694400  0.31392300  0.19839400  1
  P  P3  1  0.68607700  0.70305600  0.30160600  1
  P  P4  1  0.74618900  0.26965200  0.02170400  1
  P  P5  1  0.73034800  0.25381100  0.47829600  1
  P  P6  1  0.25381100  0.73034800  0.97829600  1
  P  P7  1  0.26965200  0.74618900  0.52170400  1
  O  O0  1  0.46630600  0.68270600  0.84524300  1
  O  O1  1  0.31729400  0.53369400  0.65475700  1
  O  O2  1  0.53369400  0.31729400  0.15475700  1
  O  O3  1  0.68270600  0.46630600  0.34524300  1
  O  O4  1  0.79082100  0.49461600  0.92819000  1
  O  O5  1  0.50538400  0.20917900  0.57181000  1
  O  O6  1  0.20917900  0.50538400  0.07181000  1
  O  O7  1  0.49461600  0.79082100  0.42819000  1
  O  O8  1  0.80825600  0.66370300  0.64717000  1
  O  O9  1  0.33629700  0.19174400  0.85283000  1
  O  O10  1  0.19174400  0.33629700  0.35283000  1
  O  O11  1  0.66370300  0.80825600  0.14717000  1
  O  O12  1  0.71119300  0.87715000  0.82500800  1
  O  O13  1  0.12285000  0.28880700  0.67499200  1
  O  O14  1  0.28880700  0.12285000  0.17499200  1
  O  O15  1  0.87715000  0.71119300  0.32500800  1
  O  O16  1  0.71018000  0.18917600  0.91635800  1
  O  O17  1  0.81082400  0.28982000  0.58364200  1
  O  O18  1  0.28982000  0.81082400  0.08364200  1
  O  O19  1  0.18917600  0.71018000  0.41635800  1
  O  O20  1  0.90860200  0.14929300  0.09511200  1
  O  O21  1  0.85070700  0.09139800  0.40488800  1
  O  O22  1  0.09139800  0.85070700  0.90488800  1
  O  O23  1  0.14929300  0.90860200  0.59511200  1
loop_
_geom_bond_atom_site_label_1
_geom_bond_atom_site_label_2
_geom_bond_distance
_geom_bond_site_symmetry_2
Cu0 O8 2.044470 1_455
Cu0 O10 2.044470 1_555
Cu0 O13 2.104508 1_555
Cu0 O15 2.104508 1_455
Cu0 O19 2.119184 1_555
Cu0 O17 2.119184 1_455
Cu1 O11 2.044470 1_545
Cu1 O9 2.044470 1_554
Cu1 O14 2.104508 1_555
Cu1 O12 2.104508 1_544
Cu1 O16 2.119184 1_554
Cu1 O18 2.119184 1_545
O0 P0 1.612619 1_555
O0 P6 1.638129 1_555
O1 P1 1.612619 1_555
O1 P7 1.638129 1_555
O2 P2 1.612619 1_555
O2 P4 1.638129 1_555
O3 P3 1.612619 1_555
O3 P5 1.638129 1_555
O4 P4 1.613122 1_556
O4 P0 1.615730 1_555
O5 P5 1.613122 1_555
O5 P1 1.615730 1_555
O6 P6 1.613122 1_554
O6 P2 1.615730 1_555
O7 P7 1.613122 1_555
O7 P3 1.615730 1_555
O8 P0 1.483390 1_555
O9 P1 1.483390 1_555
O10 P2 1.483390 1_555
O11 P3 1.483390 1_555
O12 P0 1.522608 1_555
O12 Zn0 2.217589 1_565
O13 P1 1.522608 1_555
O13 Zn0 2.217589 1_455
O14 P2 1.522608 1_555
O14 Zn1 2.217589 1_545
O15 P3 1.522608 1_555
O15 Zn1 2.217589 1_655
O16 P4 1.527197 1_556
O16 Zn0 2.164892 1_555
O17 P5 1.527197 1_555
O17 Zn0 2.164892 1_555
O18 P6 1.527197 1_554
O18 Zn1 2.164892 1_555
O19 P7 1.527197 1_555
O19 Zn1 2.164892 1_555
O20 P4 1.475776 1_555
O20 Zn1 2.016166 1_645
O21 P5 1.475776 1_555
O21 Zn1 2.016166 1_645
O22 P6 1.475776 1_555
O22 Zn0 2.016166 1_465
O23 P7 1.475776 1_555
O23 Zn0 2.016166 1_465
