# generated using pymatgen
data_NaLi3Fe4(SiO3)8
_symmetry_space_group_name_H-M   'P 1'
_cell_length_a   5.36065200
_cell_length_b   6.58642575
_cell_length_c   12.92520906
_cell_angle_alpha   90.43662251
_cell_angle_beta   99.26644175
_cell_angle_gamma   104.40846518
_symmetry_Int_Tables_number   1
_chemical_formula_structural   NaLi3Fe4(SiO3)8
_chemical_formula_sum   'Na1 Li3 Fe4 Si8 O24'
_cell_volume   435.69195160
_cell_formula_units_Z   1
loop_
 _symmetry_equiv_pos_site_id
 _symmetry_equiv_pos_as_xyz
  1  'x, y, z'
loop_
 _atom_site_type_symbol
 _atom_site_label
 _atom_site_symmetry_multiplicity
 _atom_site_fract_x
 _atom_site_fract_y
 _atom_site_fract_z
 _atom_site_occupancy
  Na  Na0  1  0.10429400  0.70829200  0.85428600  1
  Li  Li0  1  0.61474800  0.72963000  0.36436300  1
  Li  Li1  1  0.38533800  0.27023700  0.63528600  1
  Li  Li2  1  0.88520500  0.27089700  0.13529900  1
  Fe  Fe0  1  0.80110000  0.10061600  0.54987400  1
  Fe  Fe1  1  0.30004600  0.10167100  0.05135900  1
  Fe  Fe2  1  0.70018400  0.90084300  0.95109600  1
  Fe  Fe3  1  0.20009900  0.89968100  0.44916800  1
  Si  Si0  1  0.84523000  0.61512200  0.60083200  1
  Si  Si1  1  0.34593800  0.61673600  0.10408400  1
  Si  Si2  1  0.06196000  0.20443700  0.80790600  1
  Si  Si3  1  0.56770600  0.20534500  0.30805200  1
  Si  Si4  1  0.64971700  0.38236500  0.89835200  1
  Si  Si5  1  0.15737800  0.38483600  0.39779000  1
  Si  Si6  1  0.43905100  0.79735800  0.69063600  1
  Si  Si7  1  0.93353100  0.79493000  0.19297700  1
  O  O0  1  0.63504800  0.64582800  0.67650100  1
  O  O1  1  0.13127100  0.64564400  0.17781100  1
  O  O2  1  0.36402300  0.35443900  0.82233400  1
  O  O3  1  0.86962200  0.35406500  0.32333800  1
  O  O4  1  0.86066500  0.35243900  0.82223900  1
  O  O5  1  0.36952900  0.35413200  0.32333100  1
  O  O6  1  0.13620600  0.64689000  0.67430300  1
  O  O7  1  0.63237000  0.64449900  0.17924800  1
  O  O8  1  0.86640300  0.79865100  0.51399600  1
  O  O9  1  0.37446200  0.80448000  0.01944800  1
  O  O10  1  0.04650900  0.03726700  0.90249800  1
  O  O11  1  0.54750200  0.02959600  0.39909100  1
  O  O12  1  0.63118000  0.19990800  0.98551600  1
  O  O13  1  0.13352600  0.20202600  0.48550000  1
  O  O14  1  0.45390200  0.97144500  0.59928900  1
  O  O15  1  0.95341400  0.97054200  0.10169100  1
  O  O16  1  0.73157200  0.37586500  0.55462800  1
  O  O17  1  0.23191300  0.37875900  0.05520600  1
  O  O18  1  0.01102800  0.10845300  0.68875300  1
  O  O19  1  0.51292200  0.11116800  0.18852000  1
  O  O20  1  0.75287600  0.61922500  0.94869400  1
  O  O21  1  0.26905200  0.62391400  0.44511800  1
  O  O22  1  0.50478600  0.89677500  0.80944400  1
  O  O23  1  0.98869400  0.89099400  0.31214500  1
loop_
_geom_bond_atom_site_label_1
_geom_bond_atom_site_label_2
_geom_bond_distance
_geom_bond_site_symmetry_2
Na0 O10 2.356857 1_565
Na0 O22 2.360415 1_555
Na0 O9 2.362862 1_556
Na0 O20 2.362877 1_455
Na0 O4 2.378707 1_455
Na0 O6 2.398506 1_555
Li0 O8 2.146671 1_555
Li0 O11 2.151248 1_565
Li0 O23 2.233802 1_555
Li0 O21 2.236142 1_555
Li0 O7 2.475237 1_555
Li0 O5 2.502692 1_555
Li1 O13 2.148360 1_555
Li1 O14 2.150714 1_545
Li1 O16 2.237709 1_555
Li1 O18 2.243433 1_555
Li1 O2 2.503128 1_555
Li1 O0 2.509505 1_555
Li2 O15 2.152665 1_545
Li2 O12 2.154361 1_554
Li2 O19 2.229575 1_555
Li2 O17 2.237061 1_655
Li2 O1 2.501942 1_655
Li2 O3 2.506384 1_555
Fe0 O16 1.941977 1_555
Fe0 O18 1.952016 1_655
Fe0 O14 2.049129 1_545
Fe0 O13 2.051258 1_655
Fe0 O8 2.162849 1_545
Fe0 O11 2.163680 1_555
Fe1 O19 1.939159 1_555
Fe1 O17 1.950067 1_555
Fe1 O12 2.053578 1_554
Fe1 O15 2.054543 1_445
Fe1 O10 2.141875 1_554
Fe1 O9 2.142443 1_545
Fe2 O20 1.945232 1_555
Fe2 O22 1.953889 1_555
Fe2 O9 2.045962 1_556
Fe2 O10 2.050027 1_665
Fe2 O12 2.148721 1_565
Fe2 O15 2.160448 1_556
Fe3 O23 1.934941 1_455
Fe3 O21 1.943524 1_555
Fe3 O11 2.054969 1_565
Fe3 O8 2.060007 1_455
Fe3 O14 2.157599 1_555
Fe3 O13 2.169526 1_565
O0 Si6 1.647506 1_555
O0 Si0 1.652943 1_555
O1 Si7 1.646677 1_455
O1 Si1 1.651670 1_555
O2 Si4 1.648388 1_555
O2 Si2 1.654281 1_555
O3 Si5 1.646203 1_655
O3 Si3 1.650168 1_555
O4 Si2 1.653504 1_655
O4 Si4 1.658813 1_555
O5 Si3 1.646415 1_555
O5 Si5 1.650595 1_555
O6 Si0 1.654123 1_455
O6 Si6 1.657726 1_555
O7 Si1 1.646835 1_555
O7 Si7 1.651828 1_555
O8 Si0 1.651432 1_555
O9 Si1 1.652136 1_555
O10 Si2 1.649765 1_555
O11 Si3 1.653995 1_555
O12 Si4 1.649414 1_555
O13 Si5 1.655958 1_555
O14 Si6 1.649404 1_555
O15 Si7 1.655687 1_555
O16 Si0 1.613014 1_555
O17 Si1 1.616565 1_555
O18 Si2 1.615516 1_555
O19 Si3 1.614488 1_555
O20 Si4 1.613161 1_555
O21 Si5 1.615678 1_555
O22 Si6 1.614508 1_555
O23 Si7 1.614175 1_555
