# generated using pymatgen
data_MgSi2
_symmetry_space_group_name_H-M   'P 1'
_cell_length_a   3.72466336
_cell_length_b   5.23124541
_cell_length_c   12.95067035
_cell_angle_alpha   104.97129835
_cell_angle_beta   74.05516358
_cell_angle_gamma   96.18719202
_symmetry_Int_Tables_number   1
_chemical_formula_structural   MgSi2
_chemical_formula_sum   'Mg4 Si8'
_cell_volume   234.21054202
_cell_formula_units_Z   4
loop_
 _symmetry_equiv_pos_site_id
 _symmetry_equiv_pos_as_xyz
  1  'x, y, z'
loop_
 _atom_site_type_symbol
 _atom_site_label
 _atom_site_symmetry_multiplicity
 _atom_site_fract_x
 _atom_site_fract_y
 _atom_site_fract_z
 _atom_site_occupancy
  Mg  Mg0  1  0.33695800  0.98558900  0.93540800  1
  Mg  Mg1  1  0.63007100  0.60260900  0.05994600  1
  Mg  Mg2  1  0.83553400  0.95955700  0.28566600  1
  Mg  Mg3  1  0.10490800  0.02930200  0.71168800  1
  Si  Si0  1  0.98644500  0.42157400  0.19396100  1
  Si  Si1  1  0.84644300  0.59311600  0.79850900  1
  Si  Si2  1  0.91180000  0.41806400  0.60436200  1
  Si  Si3  1  0.84979200  0.51224400  0.39039700  1
  Si  Si4  1  0.23948600  0.43429600  0.88490200  1
  Si  Si5  1  0.50371800  0.12751500  0.13930300  1
  Si  Si6  1  0.46228800  0.19239400  0.50985500  1
  Si  Si7  1  0.29275900  0.72402100  0.48626200  1
loop_
_geom_bond_atom_site_label_1
_geom_bond_atom_site_label_2
_geom_bond_distance
_geom_bond_site_symmetry_2
Mg0 Si4 2.678966 1_565
Mg0 Si5 2.774611 1_566
Mg0 Si4 2.794093 1_555
Mg0 Si1 2.840836 1_555
Mg0 Si1 3.128411 1_455
Mg1 Si5 2.715233 1_565
Mg1 Si4 2.763863 1_654
Mg1 Si0 2.780288 1_455
Mg1 Si0 2.838485 1_555
Mg1 Si5 2.873400 1_555
Mg1 Si4 2.921519 1_554
Mg2 Si0 2.809650 1_555
Mg2 Si6 2.857654 1_565
Mg2 Si3 2.860438 1_565
Mg2 Si5 2.876461 1_565
Mg2 Si5 2.890691 1_665
Mg2 Si0 2.896795 1_565
Mg2 Si3 3.004043 1_555
Mg3 Si1 2.766765 1_445
Mg3 Si4 2.775843 1_555
Mg3 Si7 2.876223 1_545
Mg3 Si6 2.885808 1_555
Mg3 Si2 2.985018 1_455
Mg3 Si1 3.032188 1_455
Si0 Si5 2.375011 1_555
Si0 Si3 2.381815 1_555
Si0 Si5 2.430311 1_655
Si1 Si4 2.393247 1_655
Si1 Si4 2.395540 1_555
Si1 Si2 2.396217 1_555
Si2 Si6 2.343538 1_655
Si2 Si6 2.376589 1_555
Si2 Si7 2.548978 1_655
Si3 Si7 2.333009 1_555
Si3 Si7 2.347696 1_655
Si3 Si6 2.620359 1_555
Si6 Si7 2.425105 1_545
