# generated using pymatgen
data_Li(CoO2)2
_symmetry_space_group_name_H-M   'P 1'
_cell_length_a   5.72944164
_cell_length_b   5.72944164
_cell_length_c   9.40425100
_cell_angle_alpha   90.00000000
_cell_angle_beta   90.00000000
_cell_angle_gamma   119.87882781
_symmetry_Int_Tables_number   1
_chemical_formula_structural   Li(CoO2)2
_chemical_formula_sum   'Li4 Co8 O16'
_cell_volume   267.67537989
_cell_formula_units_Z   4
loop_
 _symmetry_equiv_pos_site_id
 _symmetry_equiv_pos_as_xyz
  1  'x, y, z'
loop_
 _atom_site_type_symbol
 _atom_site_label
 _atom_site_symmetry_multiplicity
 _atom_site_fract_x
 _atom_site_fract_y
 _atom_site_fract_z
 _atom_site_occupancy
  Li  Li0  1  0.33221200  0.66778800  0.39484100  1
  Li  Li1  1  0.00073600  0.99926400  0.49582500  1
  Li  Li2  1  0.99926400  0.00073600  0.99582500  1
  Li  Li3  1  0.66778800  0.33221200  0.89484100  1
  Co  Co0  1  0.17020400  0.33808800  0.71247200  1
  Co  Co1  1  0.33489900  0.66510100  0.98699600  1
  Co  Co2  1  0.66191200  0.82979600  0.71247200  1
  Co  Co3  1  0.16906800  0.83093200  0.71326300  1
  Co  Co4  1  0.83093200  0.16906800  0.21326300  1
  Co  Co5  1  0.66510100  0.33489900  0.48699600  1
  Co  Co6  1  0.33808800  0.17020400  0.21247200  1
  Co  Co7  1  0.82979600  0.66191200  0.21247200  1
  O  O0  1  0.17074600  0.32664600  0.10527300  1
  O  O1  1  0.48209100  0.51790900  0.83408200  1
  O  O2  1  0.33359100  0.66640900  0.61086700  1
  O  O3  1  0.00010900  0.99989100  0.80631400  1
  O  O4  1  0.99989100  0.00010900  0.30631400  1
  O  O5  1  0.67335400  0.82925400  0.10527300  1
  O  O6  1  0.04038200  0.51132300  0.83714800  1
  O  O7  1  0.48867700  0.95961800  0.83714800  1
  O  O8  1  0.83649300  0.16350700  0.60477300  1
  O  O9  1  0.16350700  0.83649300  0.10477300  1
  O  O10  1  0.51132300  0.04038200  0.33714800  1
  O  O11  1  0.95961800  0.48867700  0.33714800  1
  O  O12  1  0.66640900  0.33359100  0.11086700  1
  O  O13  1  0.32664600  0.17074600  0.60527300  1
  O  O14  1  0.51790900  0.48209100  0.33408200  1
  O  O15  1  0.82925400  0.67335400  0.60527300  1
loop_
_geom_bond_atom_site_label_1
_geom_bond_atom_site_label_2
_geom_bond_distance
_geom_bond_site_symmetry_2
Li0 O14 1.928276 1_555
Li0 O11 1.929244 1_455
Li0 O10 1.929244 1_565
Li0 O2 2.031609 1_555
Li1 O4 1.782229 1_465
Li1 O15 1.919265 1_455
Li1 O13 1.919265 1_565
Li1 O8 1.924335 1_465
Li2 O3 1.782229 1_645
Li2 O5 1.919265 1_546
Li2 O0 1.919265 1_656
Li2 O9 1.924335 1_646
Li3 O1 1.928276 1_555
Li3 O7 1.929244 1_545
Li3 O6 1.929244 1_655
Li3 O12 2.031609 1_556
Co0 O2 1.890339 1_555
Co0 O13 1.896100 1_555
Co0 O3 1.897824 1_545
Co0 O6 1.910146 1_555
Co0 O1 1.930871 1_555
Co0 O8 1.943331 1_455
Co1 O0 2.016186 1_556
Co1 O5 2.016186 1_556
Co1 O9 2.028820 1_556
Co1 O6 2.031809 1_555
Co1 O7 2.031809 1_555
Co1 O1 2.049137 1_555
Co2 O2 1.890339 1_555
Co2 O15 1.896100 1_555
Co2 O3 1.897824 1_655
Co2 O7 1.910146 1_555
Co2 O1 1.930871 1_555
Co2 O8 1.943331 1_565
Co3 O3 1.890405 1_555
Co3 O2 1.894639 1_555
Co3 O13 1.971230 1_565
Co3 O15 1.971230 1_455
Co3 O7 1.977116 1_555
Co3 O6 1.977116 1_555
Co4 O4 1.890405 1_555
Co4 O12 1.894639 1_555
Co4 O0 1.971230 1_655
Co4 O5 1.971230 1_545
Co4 O11 1.977116 1_555
Co4 O10 1.977116 1_555
Co5 O13 2.016186 1_555
Co5 O15 2.016186 1_555
Co5 O8 2.028820 1_555
Co5 O10 2.031809 1_555
Co5 O11 2.031809 1_555
Co5 O14 2.049137 1_555
Co6 O12 1.890339 1_555
Co6 O0 1.896100 1_555
Co6 O4 1.897824 1_455
Co6 O10 1.910146 1_555
Co6 O14 1.930871 1_555
Co6 O9 1.943331 1_545
Co7 O12 1.890339 1_555
Co7 O5 1.896100 1_555
Co7 O4 1.897824 1_565
Co7 O11 1.910146 1_555
Co7 O14 1.930871 1_555
Co7 O9 1.943331 1_655
