# generated using pymatgen
data_Rb4Th(MoO4)4
_symmetry_space_group_name_H-M   'P 1'
_cell_length_a   6.51718500
_cell_length_b   11.57476368
_cell_length_c   14.04506204
_cell_angle_alpha   113.21533410
_cell_angle_beta   103.41542586
_cell_angle_gamma   90.00000000
_symmetry_Int_Tables_number   1
_chemical_formula_structural   Rb4Th(MoO4)4
_chemical_formula_sum   'Rb8 Th2 Mo8 O32'
_cell_volume   942.16226276
_cell_formula_units_Z   2
loop_
 _symmetry_equiv_pos_site_id
 _symmetry_equiv_pos_as_xyz
  1  'x, y, z'
loop_
 _atom_site_type_symbol
 _atom_site_label
 _atom_site_symmetry_multiplicity
 _atom_site_fract_x
 _atom_site_fract_y
 _atom_site_fract_z
 _atom_site_occupancy
  Rb  Rb0  1  0.02875700  0.85105100  0.54864800  1
  Rb  Rb1  1  0.48010900  0.64894900  0.45135200  1
  Rb  Rb2  1  0.97124300  0.14894900  0.45135200  1
  Rb  Rb3  1  0.51989100  0.35105100  0.54864800  1
  Rb  Rb4  1  0.85730100  0.70273400  0.21929400  1
  Rb  Rb5  1  0.63800700  0.79726600  0.78070600  1
  Rb  Rb6  1  0.14269900  0.29726600  0.78070600  1
  Rb  Rb7  1  0.36199300  0.20273400  0.21929400  1
  Th  Th0  1  0.24972500  0.75000000  0.00000000  1
  Th  Th1  1  0.75027500  0.25000000  0.00000000  1
  Mo  Mo0  1  0.20198600  0.02718400  0.89907000  1
  Mo  Mo1  1  0.30291600  0.47281600  0.10093000  1
  Mo  Mo2  1  0.79801400  0.97281600  0.10093000  1
  Mo  Mo3  1  0.69708400  0.52718400  0.89907000  1
  Mo  Mo4  1  0.44436400  0.91605200  0.32644400  1
  Mo  Mo5  1  0.11792100  0.58394800  0.67355600  1
  Mo  Mo6  1  0.55563600  0.08394800  0.67355600  1
  Mo  Mo7  1  0.88207900  0.41605200  0.32644400  1
  O  O0  1  0.11008300  0.90785100  0.93771600  1
  O  O1  1  0.17236700  0.59214900  0.06228400  1
  O  O2  1  0.88991700  0.09214900  0.06228400  1
  O  O3  1  0.82763300  0.40785100  0.93771600  1
  O  O4  1  0.99779100  0.86630400  0.10891400  1
  O  O5  1  0.88887700  0.63369600  0.89108600  1
  O  O6  1  0.00220900  0.13369600  0.89108600  1
  O  O7  1  0.11112300  0.36630400  0.10891400  1
  O  O8  1  0.54787400  0.61939200  0.99269200  1
  O  O9  1  0.55518200  0.88060800  0.00730800  1
  O  O10  1  0.45212600  0.38060800  0.00730800  1
  O  O11  1  0.44481800  0.11939200  0.99269200  1
  O  O12  1  0.24713100  0.94647800  0.77173100  1
  O  O13  1  0.47539900  0.55352200  0.22826900  1
  O  O14  1  0.75286900  0.05352200  0.22826900  1
  O  O15  1  0.52460100  0.44647800  0.77173100  1
  O  O16  1  0.42851100  0.83823100  0.18048700  1
  O  O17  1  0.24802400  0.66176900  0.81951300  1
  O  O18  1  0.57148900  0.16176900  0.81951300  1
  O  O19  1  0.75197600  0.33823100  0.18048700  1
  O  O20  1  0.40643500  0.07989900  0.36779900  1
  O  O21  1  0.03863700  0.42010100  0.63220100  1
  O  O22  1  0.59356500  0.92010100  0.63220100  1
  O  O23  1  0.96136300  0.57989900  0.36779900  1
  O  O24  1  0.25223200  0.83980900  0.36004600  1
  O  O25  1  0.89218600  0.66019100  0.63995400  1
  O  O26  1  0.74776800  0.16019100  0.63995400  1
  O  O27  1  0.10781400  0.33980900  0.36004600  1
  O  O28  1  0.70234400  0.89884000  0.39487700  1
  O  O29  1  0.30746700  0.60116000  0.60512300  1
  O  O30  1  0.29765600  0.10116000  0.60512300  1
  O  O31  1  0.69253300  0.39884000  0.39487700  1
loop_
_geom_bond_atom_site_label_1
_geom_bond_atom_site_label_2
_geom_bond_distance
_geom_bond_site_symmetry_2
Mo0 O12 1.756388 1_545
Mo0 O6 1.808011 1_555
Mo0 O11 1.816775 1_555
Mo0 O0 1.817451 1_545
Mo1 O13 1.756385 1_555
Mo1 O7 1.808011 1_555
Mo1 O10 1.816775 1_555
Mo1 O1 1.817451 1_555
Mo2 O14 1.756388 1_565
Mo2 O4 1.808011 1_555
Mo2 O9 1.816775 1_555
Mo2 O2 1.817451 1_565
Mo3 O15 1.756385 1_555
Mo3 O5 1.808011 1_555
Mo3 O8 1.816775 1_555
Mo3 O3 1.817451 1_555
Mo4 O24 1.781008 1_555
Mo4 O28 1.786446 1_555
Mo4 O20 1.786991 1_565
Mo4 O16 1.862901 1_555
Mo5 O25 1.781013 1_455
Mo5 O29 1.786441 1_555
Mo5 O21 1.786991 1_555
Mo5 O17 1.862899 1_555
Mo6 O26 1.781008 1_555
Mo6 O30 1.786446 1_555
Mo6 O22 1.786991 1_545
Mo6 O18 1.862901 1_555
Mo7 O27 1.781013 1_655
Mo7 O31 1.786441 1_555
Mo7 O23 1.786991 1_555
Mo7 O19 1.862899 1_555
O0 Th0 2.412961 1_556
O0 Rb5 3.254746 1_455
O1 Th0 2.412961 1_555
O1 Rb4 3.254746 1_455
O2 Th1 2.412961 1_555
O2 Rb7 3.254746 1_655
O3 Th1 2.412961 1_556
O3 Rb6 3.254746 1_655
O4 Th0 2.527849 1_655
O4 Rb4 3.130321 1_555
O5 Th0 2.527849 1_656
O5 Rb5 3.130321 1_555
O6 Th1 2.527849 1_456
O6 Rb6 3.130321 1_555
O7 Th1 2.527849 1_455
O7 Rb7 3.130321 1_555
O8 Th0 2.458000 1_556
O8 Rb4 3.118949 1_556
O9 Th0 2.458000 1_555
O9 Rb5 3.118949 1_554
O10 Th1 2.458000 1_555
O10 Rb6 3.118949 1_554
O11 Th1 2.458000 1_556
O11 Rb7 3.118949 1_556
O12 Rb0 2.874889 1_555
O12 Rb5 3.083939 1_555
O13 Rb1 2.874887 1_555
O13 Rb4 3.083944 1_555
O14 Rb2 2.874889 1_555
O14 Rb7 3.083939 1_555
O15 Rb3 2.874887 1_555
O15 Rb6 3.083944 1_555
O16 Th0 2.327026 1_555
O16 Rb4 3.245488 1_555
O17 Th0 2.327026 1_556
O17 Rb5 3.245488 1_555
O18 Th1 2.327026 1_556
O18 Rb6 3.245488 1_555
O19 Th1 2.327026 1_555
O19 Rb7 3.245488 1_555
O20 Rb7 2.917770 1_555
O20 Rb3 3.113268 1_555
O20 Rb2 3.296220 1_455
O21 Rb6 2.917770 1_555
O21 Rb2 3.113267 1_455
O21 Rb3 3.296226 1_455
O22 Rb5 2.917770 1_555
O22 Rb1 3.113268 1_555
O22 Rb0 3.296220 1_655
O23 Rb4 2.917770 1_555
O23 Rb0 3.113267 1_655
O23 Rb1 3.296226 1_655
O24 Rb4 2.866398 1_455
O24 Rb1 3.174942 1_555
O24 Rb0 3.267011 1_555
O25 Rb5 2.866398 1_555
O25 Rb0 3.174942 1_655
O25 Rb1 3.267011 1_555
O26 Rb6 2.866398 1_655
O26 Rb3 3.174942 1_555
O26 Rb2 3.267011 1_555
O27 Rb7 2.866398 1_555
O27 Rb2 3.174942 1_455
O27 Rb3 3.267011 1_555
O28 Rb0 2.881962 1_655
O28 Rb4 2.999379 1_555
O28 Rb2 3.102534 1_565
O29 Rb1 2.881962 1_555
O29 Rb5 2.999379 1_555
O29 Rb3 3.102534 1_555
O30 Rb2 2.881962 1_455
O30 Rb6 2.999379 1_555
O30 Rb0 3.102534 1_545
O31 Rb3 2.881962 1_555
O31 Rb7 2.999379 1_555
O31 Rb1 3.102534 1_555
