# generated using pymatgen
data_K6MnS4
_symmetry_space_group_name_H-M   'P 1'
_cell_length_a   9.85162435
_cell_length_b   9.85161611
_cell_length_c   7.70603713
_cell_angle_alpha   90.00009717
_cell_angle_beta   89.99994944
_cell_angle_gamma   119.99965623
_symmetry_Int_Tables_number   1
_chemical_formula_structural   K6MnS4
_chemical_formula_sum   'K12 Mn2 S8'
_cell_volume   647.70694995
_cell_formula_units_Z   2
loop_
 _symmetry_equiv_pos_site_id
 _symmetry_equiv_pos_as_xyz
  1  'x, y, z'
loop_
 _atom_site_type_symbol
 _atom_site_label
 _atom_site_symmetry_multiplicity
 _atom_site_fract_x
 _atom_site_fract_y
 _atom_site_fract_z
 _atom_site_occupancy
  K  K0  1  0.52986176  0.05972487  0.36653431  1
  K  K1  1  0.47012931  0.52987059  0.86653883  1
  K  K2  1  0.94027509  0.47013814  0.36653459  1
  K  K3  1  0.52986184  0.47013832  0.36653430  1
  K  K4  1  0.14665897  0.85334172  0.54200907  1
  K  K5  1  0.29331273  0.14665668  0.04201315  1
  K  K6  1  0.05974237  0.52987054  0.86653897  1
  K  K7  1  0.85334420  0.70668716  0.04201331  1
  K  K8  1  0.85334383  0.14665673  0.04201302  1
  K  K9  1  0.70668245  0.85334199  0.54200903  1
  K  K10  1  0.14665890  0.29331734  0.54200891  1
  K  K11  1  0.47012929  0.94025886  0.86653928  1
  Mn  Mn0  1  0.66666683  0.33333276  0.75222821  1
  Mn  Mn1  1  0.33333351  0.66666664  0.25223210  1
  S  S0  1  0.80371688  0.19628320  0.65278533  1
  S  S1  1  0.60743478  0.80371746  0.15278724  1
  S  S2  1  0.19628289  0.39256487  0.15278608  1
  S  S3  1  0.80371703  0.60743518  0.65278493  1
  S  S4  1  0.39256438  0.19628279  0.65278480  1
  S  S5  1  0.19628320  0.80371649  0.15278900  1
  S  S6  1  0.66666655  0.33333308  0.07146367  1
  S  S7  1  0.33333322  0.66666660  0.57146688  1
loop_
_geom_bond_atom_site_label_1
_geom_bond_atom_site_label_2
_geom_bond_distance
_geom_bond_site_symmetry_2
K0 S4 3.213231 1_555
K0 S0 3.213245 1_555
K0 S6 3.258766 1_555
K0 S1 3.403737 1_545
K0 S5 3.403741 1_545
K1 S2 3.213171 1_556
K1 S1 3.213177 1_556
K1 S7 3.258667 1_555
K1 S4 3.403852 1_555
K1 S3 3.403856 1_555
K2 S3 3.213229 1_555
K2 S0 3.213243 1_555
K2 S6 3.258769 1_555
K2 S5 3.403741 1_655
K2 S2 3.403749 1_655
K3 S3 3.213244 1_555
K3 S4 3.213246 1_555
K3 S6 3.258764 1_555
K3 S1 3.403738 1_555
K3 S2 3.403740 1_555
K4 S5 3.116581 1_555
K4 S4 3.134859 1_565
K4 S3 3.134870 1_455
K4 S7 3.193398 1_555
K5 S4 3.116650 1_554
K5 S2 3.134821 1_555
K5 S5 3.134858 1_545
K5 S6 3.193449 1_555
K6 S2 3.213162 1_556
K6 S5 3.213179 1_556
K6 S7 3.258667 1_555
K6 S0 3.403865 1_455
K6 S3 3.403870 1_455
K7 S3 3.116650 1_554
K7 S1 3.134839 1_555
K7 S5 3.134849 1_655
K7 S6 3.193449 1_555
K8 S0 3.116649 1_554
K8 S2 3.134848 1_655
K8 S1 3.134853 1_545
K8 S6 3.193430 1_555
K9 S1 3.116592 1_555
K9 S3 3.134849 1_555
K9 S0 3.134855 1_565
K9 S7 3.193414 1_555
K10 S2 3.116601 1_555
K10 S4 3.134838 1_555
K10 S0 3.134867 1_455
K10 S7 3.193412 1_555
K11 S1 3.213171 1_556
K11 S5 3.213182 1_556
K11 S7 3.258673 1_555
K11 S4 3.403861 1_565
K11 S0 3.403868 1_565
Mn0 S6 2.460040 1_556
Mn0 S0 2.460899 1_555
Mn0 S3 2.460936 1_555
Mn0 S4 2.460937 1_555
Mn1 S7 2.460035 1_555
Mn1 S5 2.460906 1_555
Mn1 S1 2.460931 1_555
Mn1 S2 2.460935 1_555
