# generated using pymatgen
data_H8S(NO2)2
_symmetry_space_group_name_H-M   'P 1'
_cell_length_a   6.10096900
_cell_length_b   7.79249100
_cell_length_c   10.72154100
_cell_angle_alpha   90.00000000
_cell_angle_beta   90.00000000
_cell_angle_gamma   90.00000000
_symmetry_Int_Tables_number   1
_chemical_formula_structural   H8S(NO2)2
_chemical_formula_sum   'H32 S4 N8 O16'
_cell_volume   509.72077921
_cell_formula_units_Z   4
loop_
 _symmetry_equiv_pos_site_id
 _symmetry_equiv_pos_as_xyz
  1  'x, y, z'
loop_
 _atom_site_type_symbol
 _atom_site_label
 _atom_site_symmetry_multiplicity
 _atom_site_fract_x
 _atom_site_fract_y
 _atom_site_fract_z
 _atom_site_occupancy
  H  H0  1  0.38709200  0.89007500  0.31826600  1
  H  H1  1  0.88709200  0.10992500  0.68173400  1
  H  H2  1  0.11290800  0.39007500  0.18173400  1
  H  H3  1  0.61290800  0.60992500  0.81826600  1
  H  H4  1  0.61290800  0.10992500  0.68173400  1
  H  H5  1  0.11290800  0.89007500  0.31826600  1
  H  H6  1  0.88709200  0.60992500  0.81826600  1
  H  H7  1  0.38709200  0.39007500  0.18173400  1
  H  H8  1  0.75000000  0.00666100  0.79495400  1
  H  H9  1  0.25000000  0.99333900  0.20504600  1
  H  H10  1  0.75000000  0.50666100  0.70504600  1
  H  H11  1  0.25000000  0.49333900  0.29495400  1
  H  H12  1  0.75000000  0.92423600  0.64826500  1
  H  H13  1  0.25000000  0.07576400  0.35173500  1
  H  H14  1  0.75000000  0.18726600  0.36896000  1
  H  H15  1  0.75000000  0.42423600  0.85173500  1
  H  H16  1  0.38838700  0.67518700  0.53929500  1
  H  H17  1  0.88838700  0.32481300  0.46070500  1
  H  H18  1  0.11161300  0.17518700  0.96070500  1
  H  H19  1  0.61161300  0.82481300  0.03929500  1
  H  H20  1  0.61161300  0.32481300  0.46070500  1
  H  H21  1  0.11161300  0.67518700  0.53929500  1
  H  H22  1  0.88838700  0.82481300  0.03929500  1
  H  H23  1  0.38838700  0.17518700  0.96070500  1
  H  H24  1  0.75000000  0.40156800  0.33662900  1
  H  H25  1  0.25000000  0.59843200  0.66337100  1
  H  H26  1  0.75000000  0.90156800  0.16337100  1
  H  H27  1  0.25000000  0.09843200  0.83662900  1
  H  H28  1  0.25000000  0.31273400  0.86896000  1
  H  H29  1  0.75000000  0.68726600  0.13104000  1
  H  H30  1  0.25000000  0.81273400  0.63104000  1
  H  H31  1  0.25000000  0.57576400  0.14826500  1
  S  S0  1  0.75000000  0.75747600  0.41947300  1
  S  S1  1  0.25000000  0.24252400  0.58052700  1
  S  S2  1  0.75000000  0.25747600  0.08052700  1
  S  S3  1  0.25000000  0.74252400  0.91947300  1
  N  N0  1  0.75000000  0.03700200  0.70188700  1
  N  N1  1  0.25000000  0.96299800  0.29811300  1
  N  N2  1  0.75000000  0.53700200  0.79811300  1
  N  N3  1  0.25000000  0.46299800  0.20188700  1
  N  N4  1  0.75000000  0.30976200  0.40565400  1
  N  N5  1  0.25000000  0.69023800  0.59434600  1
  N  N6  1  0.75000000  0.80976200  0.09434600  1
  N  N7  1  0.25000000  0.19023800  0.90565400  1
  O  O0  1  0.45155300  0.32422300  0.63302800  1
  O  O1  1  0.95155300  0.67577700  0.36697200  1
  O  O2  1  0.04844700  0.82422300  0.86697200  1
  O  O3  1  0.54844700  0.17577700  0.13302800  1
  O  O4  1  0.54844700  0.67577700  0.36697200  1
  O  O5  1  0.04844700  0.32422300  0.63302800  1
  O  O6  1  0.95155300  0.17577700  0.13302800  1
  O  O7  1  0.45155300  0.82422300  0.86697200  1
  O  O8  1  0.75000000  0.73257300  0.55852300  1
  O  O9  1  0.25000000  0.26742700  0.44147700  1
  O  O10  1  0.75000000  0.23257300  0.94147700  1
  O  O11  1  0.25000000  0.76742700  0.05852300  1
  O  O12  1  0.75000000  0.94316500  0.38748100  1
  O  O13  1  0.25000000  0.05683500  0.61251900  1
  O  O14  1  0.75000000  0.44316500  0.11251900  1
  O  O15  1  0.25000000  0.55683500  0.88748100  1
loop_
_geom_bond_atom_site_label_1
_geom_bond_atom_site_label_2
_geom_bond_distance
_geom_bond_site_symmetry_2
H0 N1 1.033998 1_555
H1 N0 1.033998 1_555
H2 N3 1.033998 1_555
H3 N2 1.033998 1_555
H4 N0 1.033998 1_555
H5 N1 1.033998 1_555
H6 N2 1.033998 1_555
H7 N3 1.033998 1_555
H8 N0 1.025450 1_555
H9 N1 1.025450 1_555
H10 N2 1.025450 1_555
H11 N3 1.025450 1_555
H12 N0 1.050088 1_565
H13 N1 1.050088 1_545
H14 N4 1.032444 1_555
H15 N2 1.050088 1_555
H16 N5 1.036804 1_555
H17 N4 1.036804 1_555
H18 N7 1.036804 1_555
H19 N6 1.036804 1_555
H20 N4 1.036804 1_555
H21 N5 1.036804 1_555
H22 N6 1.036804 1_555
H23 N7 1.036804 1_555
H24 N4 1.029308 1_555
H25 N5 1.029308 1_555
H26 N6 1.029308 1_555
H27 N7 1.029308 1_555
H28 N7 1.032444 1_555
H29 N6 1.032444 1_555
H30 N5 1.032444 1_555
H31 N3 1.050088 1_555
O0 S1 1.494738 1_555
O1 S0 1.494738 1_555
O2 S3 1.494738 1_555
O3 S2 1.494738 1_555
O4 S0 1.494738 1_555
O5 S1 1.494738 1_555
O6 S2 1.494738 1_555
O7 S3 1.494738 1_555
O8 S0 1.503407 1_555
O9 S1 1.503407 1_555
O10 S2 1.503407 1_556
O11 S3 1.503407 1_554
O12 S0 1.487078 1_555
O13 S1 1.487078 1_555
O14 S2 1.487078 1_555
O15 S3 1.487078 1_555
