# generated using pymatgen
data_Y6Ga17Pt5
_symmetry_space_group_name_H-M   'P 1'
_cell_length_a   8.11900182
_cell_length_b   8.11900182
_cell_length_c   15.63976875
_cell_angle_alpha   77.19919537
_cell_angle_beta   77.19919537
_cell_angle_gamma   31.01343326
_symmetry_Int_Tables_number   1
_chemical_formula_structural   Y6Ga17Pt5
_chemical_formula_sum   'Y6 Ga17 Pt5'
_cell_volume   516.95108882
_cell_formula_units_Z   1
loop_
 _symmetry_equiv_pos_site_id
 _symmetry_equiv_pos_as_xyz
  1  'x, y, z'
loop_
 _atom_site_type_symbol
 _atom_site_label
 _atom_site_symmetry_multiplicity
 _atom_site_fract_x
 _atom_site_fract_y
 _atom_site_fract_z
 _atom_site_occupancy
  Y  Y0  1  0.75021700  0.75021700  0.74794200  1
  Y  Y1  1  0.24978300  0.24978300  0.25205800  1
  Y  Y2  1  0.89857400  0.89857400  0.90022500  1
  Y  Y3  1  0.40598900  0.40598900  0.40309700  1
  Y  Y4  1  0.59401100  0.59401100  0.59690300  1
  Y  Y5  1  0.10142600  0.10142600  0.09977500  1
  Ga  Ga0  1  0.67919800  0.67919800  0.96092300  1
  Ga  Ga1  1  0.17292300  0.17292300  0.45929400  1
  Ga  Ga2  1  0.82707700  0.82707700  0.54070600  1
  Ga  Ga3  1  0.32080200  0.32080200  0.03907700  1
  Ga  Ga4  1  0.95763200  0.95763200  0.67343600  1
  Ga  Ga5  1  0.46024200  0.46024200  0.17817600  1
  Ga  Ga6  1  0.53975800  0.53975800  0.82182400  1
  Ga  Ga7  1  0.04236800  0.04236800  0.32656400  1
  Ga  Ga8  1  0.23310000  0.23310000  0.60364300  1
  Ga  Ga9  1  0.73939600  0.73939600  0.10761300  1
  Ga  Ga10  1  0.26060400  0.26060400  0.89238700  1
  Ga  Ga11  1  0.76690000  0.76690000  0.39635700  1
  Ga  Ga12  1  0.10285300  0.10285300  0.73736900  1
  Ga  Ga13  1  0.60721000  0.60721000  0.23430100  1
  Ga  Ga14  1  0.39279000  0.39279000  0.76569900  1
  Ga  Ga15  1  0.89714700  0.89714700  0.26263100  1
  Ga  Ga16  1  0.50000000  0.50000000  0.00000000  1
  Pt  Pt0  1  0.39601000  0.39601000  0.60241500  1
  Pt  Pt1  1  0.90704600  0.90704600  0.09429100  1
  Pt  Pt2  1  0.09295400  0.09295400  0.90570900  1
  Pt  Pt3  1  0.60399000  0.60399000  0.39758500  1
  Pt  Pt4  1  0.00000000  0.00000000  0.50000000  1
loop_
_geom_bond_atom_site_label_1
_geom_bond_atom_site_label_2
_geom_bond_distance
_geom_bond_site_symmetry_2
Ga0 Ga10 2.618233 1_655
Ga0 Ga10 2.618233 1_565
Ga0 Ga9 2.672879 1_556
Ga0 Ga16 2.728978 1_556
Ga0 Pt2 2.795391 1_655
Ga0 Pt2 2.795391 1_565
Ga0 Y5 3.113375 1_656
Ga0 Y5 3.113375 1_566
Ga0 Y0 3.260068 1_555
Ga0 Y2 3.344422 1_555
Ga1 Pt4 2.633258 1_555
Ga1 Ga8 2.638334 1_555
Ga1 Ga11 2.679016 1_455
Ga1 Ga11 2.679016 1_545
Ga1 Pt3 2.699096 1_545
Ga1 Pt3 2.699096 1_455
Ga1 Y4 3.105802 1_455
Ga1 Y4 3.105802 1_545
Ga1 Y1 3.187272 1_555
Ga2 Pt4 2.633258 1_665
Ga2 Ga8 2.679016 1_655
Ga2 Ga8 2.679016 1_565
Ga2 Pt0 2.699096 1_655
Ga2 Pt0 2.699096 1_565
Ga2 Y3 3.105802 1_565
Ga2 Y3 3.105802 1_655
Ga2 Y0 3.187272 1_555
Ga3 Ga9 2.618233 1_545
Ga3 Ga9 2.618233 1_455
Ga3 Pt1 2.795391 1_455
Ga3 Pt1 2.795391 1_545
Ga3 Y2 3.113375 1_544
Ga3 Y2 3.113375 1_454
Ga3 Y1 3.260068 1_555
Ga3 Y5 3.344422 1_555
Ga4 Pt4 2.640114 1_665
Ga4 Pt0 2.714326 1_655
Ga4 Pt0 2.714326 1_565
Ga4 Y4 3.085988 1_565
Ga4 Y4 3.085988 1_655
Ga4 Y0 3.186128 1_555
Ga4 Y2 3.453599 1_555
Ga5 Pt1 2.761846 1_545
Ga5 Pt1 2.761846 1_455
Ga5 Y5 3.138403 1_565
Ga5 Y5 3.138403 1_655
Ga5 Y1 3.229464 1_555
Ga5 Y3 3.423696 1_555
Ga6 Pt2 2.761846 1_565
Ga6 Pt2 2.761846 1_655
Ga6 Y2 3.138403 1_545
Ga6 Y2 3.138403 1_455
Ga6 Y0 3.229464 1_555
Ga6 Y4 3.423696 1_555
Ga7 Pt4 2.640114 1_555
Ga7 Pt3 2.714326 1_545
Ga7 Pt3 2.714326 1_455
Ga7 Y3 3.085988 1_455
Ga7 Y3 3.085988 1_545
Ga7 Y1 3.186128 1_555
Ga7 Y5 3.453599 1_555
Ga8 Pt0 2.544693 1_555
Ga8 Y4 3.092665 1_545
Ga8 Y4 3.092665 1_455
Ga8 Y0 3.186607 1_455
Ga8 Y0 3.186607 1_545
Ga9 Pt1 2.583271 1_555
Ga9 Y5 3.083632 1_655
Ga9 Y5 3.083632 1_565
Ga9 Y1 3.163913 1_565
Ga9 Y1 3.163913 1_655
Ga10 Ga14 2.513793 1_555
Ga10 Pt2 2.583271 1_555
Ga10 Ga3 2.672879 1_556
Ga10 Y2 3.083632 1_455
Ga10 Y2 3.083632 1_545
Ga10 Y0 3.163913 1_545
Ga10 Y0 3.163913 1_455
Ga11 Pt3 2.544693 1_555
Ga11 Ga15 2.562687 1_555
Ga11 Ga2 2.638334 1_555
Ga11 Y3 3.092665 1_655
Ga11 Y3 3.092665 1_565
Ga11 Y1 3.186607 1_565
Ga11 Y1 3.186607 1_655
Ga12 Ga8 2.562687 1_555
Ga12 Pt2 2.601555 1_555
Ga12 Ga6 2.613668 1_455
Ga12 Ga6 2.613668 1_545
Ga12 Ga4 2.684734 1_445
Ga12 Y4 3.113953 1_545
Ga12 Y4 3.113953 1_455
Ga12 Y0 3.198591 1_545
Ga12 Y0 3.198591 1_455
Ga13 Ga9 2.513793 1_555
Ga13 Pt3 2.542612 1_555
Ga13 Ga5 2.643276 1_555
Ga13 Ga7 2.673932 1_655
Ga13 Ga7 2.673932 1_565
Ga13 Y5 3.038750 1_655
Ga13 Y5 3.038750 1_565
Ga13 Y1 3.170212 1_655
Ga13 Y1 3.170212 1_565
Ga14 Pt0 2.542612 1_555
Ga14 Ga6 2.643276 1_555
Ga14 Ga4 2.673932 1_455
Ga14 Ga4 2.673932 1_545
Ga14 Y2 3.038750 1_455
Ga14 Y2 3.038750 1_545
Ga14 Y0 3.170212 1_455
Ga14 Y0 3.170212 1_545
Ga15 Pt1 2.601555 1_555
Ga15 Ga5 2.613668 1_655
Ga15 Ga5 2.613668 1_565
Ga15 Ga7 2.684734 1_665
Ga15 Y3 3.113953 1_655
Ga15 Y3 3.113953 1_565
Ga15 Y1 3.198591 1_565
Ga15 Y1 3.198591 1_655
Ga16 Ga6 2.712033 1_554
Ga16 Ga5 2.712033 1_555
Ga16 Ga3 2.728978 1_555
Ga16 Pt2 2.831147 1_654
Ga16 Pt2 2.831147 1_564
Ga16 Pt1 2.831147 1_455
Ga16 Pt1 2.831147 1_545
Ga16 Y2 3.286954 1_544
Ga16 Y2 3.286954 1_454
Ga16 Y5 3.286954 1_565
Ga16 Y5 3.286954 1_655
Pt0 Y4 3.079428 1_555
Pt0 Y3 3.085130 1_555
Pt1 Y5 3.062308 1_665
Pt1 Y2 3.068341 1_554
Pt2 Y2 3.062308 1_445
Pt2 Y5 3.068341 1_556
Pt3 Y3 3.079428 1_555
Pt3 Y4 3.085130 1_555
Pt4 Y4 3.193347 1_455
Pt4 Y4 3.193347 1_545
Pt4 Y3 3.193347 1_455
Pt4 Y3 3.193347 1_545
