# generated using pymatgen
data_La3IrO7
_symmetry_space_group_name_H-M   'P 1'
_cell_length_a   5.79081100
_cell_length_b   8.91757700
_cell_length_c   25.32727593
_cell_angle_alpha   75.37150434
_cell_angle_beta   90.00000000
_cell_angle_gamma   90.00000000
_symmetry_Int_Tables_number   1
_chemical_formula_structural   La3IrO7
_chemical_formula_sum   'La24 Ir8 O56'
_cell_volume   1265.50328791
_cell_formula_units_Z   8
loop_
 _symmetry_equiv_pos_site_id
 _symmetry_equiv_pos_as_xyz
  1  'x, y, z'
loop_
 _atom_site_type_symbol
 _atom_site_label
 _atom_site_symmetry_multiplicity
 _atom_site_fract_x
 _atom_site_fract_y
 _atom_site_fract_z
 _atom_site_occupancy
  La  La0  1  0.74398100  0.98443500  0.45128800  1
  La  La1  1  0.75601900  0.98443500  0.95128800  1
  La  La2  1  0.25601900  0.01556500  0.54871200  1
  La  La3  1  0.24398100  0.01556500  0.04871200  1
  La  La4  1  0.77928600  0.57395600  0.44009700  1
  La  La5  1  0.72071400  0.57395600  0.94009700  1
  La  La6  1  0.22071400  0.42604400  0.55990300  1
  La  La7  1  0.27928600  0.42604400  0.05990300  1
  La  La8  1  0.26495500  0.29138500  0.41079500  1
  La  La9  1  0.23504500  0.29138500  0.91079500  1
  La  La10  1  0.73504500  0.70861500  0.58920500  1
  La  La11  1  0.76495500  0.70861500  0.08920500  1
  La  La12  1  0.78069700  0.99721000  0.30762400  1
  La  La13  1  0.71930300  0.99721000  0.80762400  1
  La  La14  1  0.21930300  0.00279000  0.69237600  1
  La  La15  1  0.28069700  0.00279000  0.19237600  1
  La  La16  1  0.29434400  0.70079800  0.33776900  1
  La  La17  1  0.20565600  0.70079800  0.83776900  1
  La  La18  1  0.70565600  0.29920200  0.66223100  1
  La  La19  1  0.79434400  0.29920200  0.16223100  1
  La  La20  1  0.76673500  0.42961000  0.30939700  1
  La  La21  1  0.73326500  0.42961000  0.80939700  1
  La  La22  1  0.23326500  0.57039000  0.69060300  1
  La  La23  1  0.26673500  0.57039000  0.19060300  1
  Ir  Ir0  1  0.23948200  0.79377800  0.45380900  1
  Ir  Ir1  1  0.26051800  0.79377800  0.95380900  1
  Ir  Ir2  1  0.76051800  0.20622200  0.54619100  1
  Ir  Ir3  1  0.73948200  0.20622200  0.04619100  1
  Ir  Ir4  1  0.82086700  0.78635200  0.20896900  1
  Ir  Ir5  1  0.67913300  0.78635200  0.70896900  1
  Ir  Ir6  1  0.17913300  0.21364800  0.79103100  1
  Ir  Ir7  1  0.32086700  0.21364800  0.29103100  1
  O  O0  1  0.17650000  0.01176500  0.45145400  1
  O  O1  1  0.32350000  0.01176500  0.95145400  1
  O  O2  1  0.82350000  0.98823500  0.54854600  1
  O  O3  1  0.67650000  0.98823500  0.04854600  1
  O  O4  1  0.96134700  0.74183200  0.50355200  1
  O  O5  1  0.53865300  0.74183200  0.00355200  1
  O  O6  1  0.03865300  0.25816800  0.49644800  1
  O  O7  1  0.46134700  0.25816800  0.99644800  1
  O  O8  1  0.46012500  0.80906400  0.51464700  1
  O  O9  1  0.03987500  0.80906400  0.01464700  1
  O  O10  1  0.53987500  0.19093600  0.48535300  1
  O  O11  1  0.96012500  0.19093600  0.98535300  1
  O  O12  1  0.52984100  0.81954700  0.40481700  1
  O  O13  1  0.97015900  0.81954700  0.90481700  1
  O  O14  1  0.47015900  0.18045300  0.59518300  1
  O  O15  1  0.02984100  0.18045300  0.09518300  1
  O  O16  1  0.00277300  0.81595200  0.39179800  1
  O  O17  1  0.49722700  0.81595200  0.89179800  1
  O  O18  1  0.99722700  0.18404800  0.60820200  1
  O  O19  1  0.50277300  0.18404800  0.10820200  1
  O  O20  1  0.28041300  0.57332600  0.46362500  1
  O  O21  1  0.21958700  0.57332600  0.96362500  1
  O  O22  1  0.71958700  0.42667400  0.53637500  1
  O  O23  1  0.78041300  0.42667400  0.03637500  1
  O  O24  1  0.83131300  0.00740000  0.21010600  1
  O  O25  1  0.66868700  0.00740000  0.71010600  1
  O  O26  1  0.16868700  0.99260000  0.78989400  1
  O  O27  1  0.33131300  0.99260000  0.28989400  1
  O  O28  1  0.65171400  0.74364700  0.27956600  1
  O  O29  1  0.84828600  0.74364700  0.77956600  1
  O  O30  1  0.34828600  0.25635300  0.72043400  1
  O  O31  1  0.15171400  0.25635300  0.22043400  1
  O  O32  1  0.12065800  0.75919900  0.24918700  1
  O  O33  1  0.37934200  0.75919900  0.74918700  1
  O  O34  1  0.87934200  0.24080100  0.75081300  1
  O  O35  1  0.62065800  0.24080100  0.25081300  1
  O  O36  1  0.04060800  0.83075300  0.14233000  1
  O  O37  1  0.45939200  0.83075300  0.64233000  1
  O  O38  1  0.95939200  0.16924700  0.85767000  1
  O  O39  1  0.54060800  0.16924700  0.35767000  1
  O  O40  1  0.52745500  0.80961700  0.16439200  1
  O  O41  1  0.97254500  0.80961700  0.66439200  1
  O  O42  1  0.47254500  0.19038300  0.83560800  1
  O  O43  1  0.02745500  0.19038300  0.33560800  1
  O  O44  1  0.82146600  0.56386600  0.21228500  1
  O  O45  1  0.67853400  0.56386600  0.71228500  1
  O  O46  1  0.17853400  0.43613400  0.78771500  1
  O  O47  1  0.32146600  0.43613400  0.28771500  1
  O  O48  1  0.01426700  0.49993200  0.37393900  1
  O  O49  1  0.48573300  0.49993200  0.87393900  1
  O  O50  1  0.98573300  0.50006800  0.62606100  1
  O  O51  1  0.51426700  0.50006800  0.12606100  1
  O  O52  1  0.53984800  0.49043500  0.37983300  1
  O  O53  1  0.96015200  0.49043500  0.87983300  1
  O  O54  1  0.46015200  0.50956500  0.62016700  1
  O  O55  1  0.03984800  0.50956500  0.12016700  1
loop_
_geom_bond_atom_site_label_1
_geom_bond_atom_site_label_2
_geom_bond_distance
_geom_bond_site_symmetry_2
La0 O12 2.441153 1_555
La0 O2 2.514578 1_555
La0 O0 2.516572 1_665
La0 O10 2.516930 1_565
La0 O8 2.540703 1_555
La0 O4 2.563306 1_555
La0 O39 2.784130 1_565
La0 O16 2.813695 1_655
La1 O13 2.441153 1_555
La1 O3 2.514578 1_556
La1 O1 2.516572 1_565
La1 O11 2.516930 1_565
La1 O9 2.540703 1_656
La1 O5 2.563306 1_556
La1 O38 2.784130 1_565
La1 O17 2.813695 1_555
La2 O14 2.441153 1_555
La2 O0 2.514578 1_555
La2 O2 2.516572 1_445
La2 O8 2.516930 1_545
La2 O10 2.540703 1_555
La2 O6 2.563306 1_555
La2 O37 2.784130 1_545
La2 O18 2.813695 1_455
La3 O15 2.441153 1_555
La3 O1 2.514578 1_554
La3 O3 2.516572 1_545
La3 O9 2.516930 1_545
La3 O11 2.540703 1_454
La3 O7 2.563306 1_554
La3 O36 2.784130 1_545
La3 O19 2.813695 1_555
La4 O52 2.319719 1_555
La4 O48 2.377744 1_655
La4 O22 2.484540 1_555
La4 O16 2.548517 1_655
La4 O12 2.587075 1_555
La4 O4 2.674102 1_555
La4 O20 2.949417 1_555
La4 O20 2.962203 1_655
La4 O6 3.192638 1_655
La5 O53 2.319719 1_555
La5 O49 2.377744 1_555
La5 O23 2.484540 1_556
La5 O17 2.548517 1_555
La5 O13 2.587075 1_555
La5 O5 2.674102 1_556
La5 O21 2.949417 1_655
La5 O21 2.962203 1_555
La5 O7 3.192638 1_555
La6 O54 2.319719 1_555
La6 O50 2.377744 1_455
La6 O20 2.484540 1_555
La6 O18 2.548517 1_455
La6 O14 2.587075 1_555
La6 O6 2.674102 1_555
La6 O22 2.949417 1_555
La6 O22 2.962203 1_455
La6 O4 3.192638 1_455
La7 O55 2.319719 1_555
La7 O51 2.377744 1_555
La7 O21 2.484540 1_554
La7 O19 2.548517 1_555
La7 O15 2.587075 1_555
La7 O7 2.674102 1_554
La7 O23 2.949417 1_455
La7 O23 2.962203 1_555
La7 O5 3.192638 1_555
La8 O48 2.358072 1_555
La8 O52 2.365722 1_555
La8 O10 2.459343 1_555
La8 O6 2.487291 1_555
La8 O0 2.498707 1_555
La8 O39 2.506982 1_555
La8 O43 2.682419 1_555
La9 O49 2.358072 1_555
La9 O53 2.365722 1_455
La9 O11 2.459343 1_455
La9 O7 2.487291 1_555
La9 O1 2.498707 1_555
La9 O38 2.506982 1_455
La9 O42 2.682419 1_555
La10 O50 2.358072 1_555
La10 O54 2.365722 1_555
La10 O8 2.459343 1_555
La10 O4 2.487291 1_555
La10 O2 2.498707 1_555
La10 O37 2.506982 1_555
La10 O41 2.682419 1_555
La11 O51 2.358072 1_555
La11 O55 2.365722 1_655
La11 O9 2.459343 1_655
La11 O5 2.487291 1_555
La11 O3 2.498707 1_555
La11 O36 2.506982 1_655
La11 O40 2.682419 1_555
La12 O35 2.463559 1_565
La12 O24 2.465977 1_565
La12 O43 2.475549 1_665
La12 O39 2.622104 1_565
La12 O27 2.642843 1_555
La12 O28 2.643367 1_555
La12 O16 2.659120 1_655
La12 O12 2.951277 1_555
La12 O27 3.221689 1_655
La13 O34 2.463559 1_565
La13 O25 2.465977 1_565
La13 O42 2.475549 1_565
La13 O38 2.622104 1_565
La13 O26 2.642843 1_655
La13 O29 2.643367 1_555
La13 O17 2.659120 1_555
La13 O13 2.951277 1_555
La13 O26 3.221689 1_555
La14 O33 2.463559 1_545
La14 O26 2.465977 1_545
La14 O41 2.475549 1_445
La14 O37 2.622104 1_545
La14 O25 2.642843 1_555
La14 O30 2.643367 1_555
La14 O18 2.659120 1_455
La14 O14 2.951277 1_555
La14 O25 3.221689 1_455
La15 O32 2.463559 1_545
La15 O27 2.465977 1_545
La15 O40 2.475549 1_545
La15 O36 2.622104 1_545
La15 O24 2.642843 1_455
La15 O31 2.643367 1_555
La15 O19 2.659120 1_555
La15 O15 2.951277 1_555
La15 O24 3.221689 1_555
La16 O52 2.380290 1_555
La16 O32 2.392933 1_555
La16 O48 2.418550 1_555
La16 O28 2.513406 1_555
La16 O16 2.547083 1_555
La16 O27 2.587209 1_555
La16 O12 2.602518 1_555
La17 O53 2.380290 1_455
La17 O33 2.392933 1_555
La17 O49 2.418550 1_555
La17 O29 2.513406 1_455
La17 O17 2.547083 1_555
La17 O26 2.587209 1_555
La17 O13 2.602518 1_455
La18 O54 2.380290 1_555
La18 O34 2.392933 1_555
La18 O50 2.418550 1_555
La18 O30 2.513406 1_555
La18 O18 2.547083 1_555
La18 O25 2.587209 1_555
La18 O14 2.602518 1_555
La19 O55 2.380290 1_655
La19 O35 2.392933 1_555
La19 O51 2.418550 1_555
La19 O31 2.513406 1_655
La19 O19 2.547083 1_555
La19 O24 2.587209 1_555
La19 O15 2.602518 1_655
La20 O48 2.374418 1_655
La20 O52 2.385724 1_555
La20 O44 2.469008 1_555
La20 O43 2.560446 1_655
La20 O47 2.633877 1_555
La20 O35 2.648380 1_555
La20 O39 2.677023 1_555
La20 O28 2.790749 1_555
La21 O49 2.374418 1_555
La21 O53 2.385724 1_555
La21 O45 2.469008 1_555
La21 O42 2.560446 1_555
La21 O46 2.633877 1_655
La21 O34 2.648380 1_555
La21 O38 2.677023 1_555
La21 O29 2.790749 1_555
La22 O50 2.374418 1_455
La22 O54 2.385724 1_555
La22 O46 2.469008 1_555
La22 O41 2.560446 1_455
La22 O45 2.633877 1_555
La22 O33 2.648380 1_555
La22 O37 2.677023 1_555
La22 O30 2.790749 1_555
La23 O51 2.374418 1_555
La23 O55 2.385724 1_555
La23 O47 2.469008 1_555
La23 O40 2.560446 1_555
La23 O44 2.633877 1_455
La23 O32 2.648380 1_555
La23 O36 2.677023 1_555
La23 O31 2.790749 1_555
Ir0 O20 1.932841 1_555
Ir0 O0 1.963879 1_565
Ir0 O4 2.025132 1_455
Ir0 O8 2.032596 1_555
Ir0 O16 2.056172 1_555
Ir0 O12 2.067753 1_555
Ir1 O21 1.932841 1_555
Ir1 O1 1.963879 1_565
Ir1 O5 2.025132 1_556
Ir1 O9 2.032596 1_556
Ir1 O17 2.056172 1_555
Ir1 O13 2.067753 1_455
Ir2 O22 1.932841 1_555
Ir2 O2 1.963879 1_545
Ir2 O6 2.025132 1_655
Ir2 O10 2.032596 1_555
Ir2 O18 2.056172 1_555
Ir2 O14 2.067753 1_555
Ir3 O23 1.932841 1_555
Ir3 O3 1.963879 1_545
Ir3 O7 2.025132 1_554
Ir3 O11 2.032596 1_554
Ir3 O19 2.056172 1_555
Ir3 O15 2.067753 1_655
Ir4 O44 1.964510 1_555
Ir4 O24 1.979606 1_565
Ir4 O28 1.989378 1_555
Ir4 O32 1.996355 1_655
Ir4 O40 2.021465 1_555
Ir4 O36 2.070518 1_655
Ir5 O45 1.964510 1_555
Ir5 O25 1.979606 1_565
Ir5 O29 1.989378 1_555
Ir5 O33 1.996355 1_555
Ir5 O41 2.021465 1_555
Ir5 O37 2.070518 1_555
Ir6 O46 1.964510 1_555
Ir6 O26 1.979606 1_545
Ir6 O30 1.989378 1_555
Ir6 O34 1.996355 1_455
Ir6 O42 2.021465 1_555
Ir6 O38 2.070518 1_455
Ir7 O47 1.964510 1_555
Ir7 O27 1.979606 1_545
Ir7 O31 1.989378 1_555
Ir7 O35 1.996355 1_555
Ir7 O43 2.021465 1_555
Ir7 O39 2.070518 1_555
