# generated using pymatgen
data_Er3ScS6
_symmetry_space_group_name_H-M   'P 1'
_cell_length_a   3.83547498
_cell_length_b   10.72927631
_cell_length_c   11.06674501
_cell_angle_alpha   71.47206509
_cell_angle_beta   90.00000000
_cell_angle_gamma   90.00000000
_symmetry_Int_Tables_number   1
_chemical_formula_structural   Er3ScS6
_chemical_formula_sum   'Er6 Sc2 S12'
_cell_volume   431.81245598
_cell_formula_units_Z   2
loop_
 _symmetry_equiv_pos_site_id
 _symmetry_equiv_pos_as_xyz
  1  'x, y, z'
loop_
 _atom_site_type_symbol
 _atom_site_label
 _atom_site_symmetry_multiplicity
 _atom_site_fract_x
 _atom_site_fract_y
 _atom_site_fract_z
 _atom_site_occupancy
  Er  Er0  1  0.25000000  0.81641207  0.00713402  1
  Er  Er1  1  0.75000000  0.18358793  0.99286598  1
  Er  Er2  1  0.25000000  0.45384032  0.19566657  1
  Er  Er3  1  0.75000000  0.54615968  0.80433343  1
  Er  Er4  1  0.25000000  0.06213622  0.33425389  1
  Er  Er5  1  0.75000000  0.93786378  0.66574611  1
  Sc  Sc0  1  0.25000000  0.34512719  0.58285674  1
  Sc  Sc1  1  0.75000000  0.65487281  0.41714326  1
  S  S0  1  0.25000000  0.11228836  0.56027461  1
  S  S1  1  0.75000000  0.88771164  0.43972539  1
  S  S2  1  0.25000000  0.75539049  0.77518825  1
  S  S3  1  0.75000000  0.24460951  0.22481175  1
  S  S4  1  0.25000000  0.02100943  0.11367071  1
  S  S5  1  0.75000000  0.97899057  0.88632929  1
  S  S6  1  0.25000000  0.69040957  0.25988734  1
  S  S7  1  0.75000000  0.30959043  0.74011266  1
  S  S8  1  0.25000000  0.38932515  0.95981884  1
  S  S9  1  0.75000000  0.61067485  0.04018116  1
  S  S10  1  0.25000000  0.58033494  0.59237232  1
  S  S11  1  0.75000000  0.41966506  0.40762768  1
loop_
_geom_bond_atom_site_label_1
_geom_bond_atom_site_label_2
_geom_bond_distance
_geom_bond_site_symmetry_2
Er0 S5 2.650607 1_554
Er0 S5 2.650607 1_454
Er0 S6 2.692299 1_555
Er0 S4 2.802455 1_565
Er0 S2 2.843522 1_554
Er0 S9 2.858508 1_455
Er0 S9 2.858508 1_555
Er1 S4 2.650607 1_656
Er1 S4 2.650607 1_556
Er1 S7 2.692299 1_555
Er1 S5 2.802455 1_545
Er1 S3 2.843522 1_556
Er1 S8 2.858508 1_655
Er1 S8 2.858508 1_555
Er2 S9 2.762237 1_455
Er2 S9 2.762237 1_555
Er2 S6 2.845019 1_555
Er2 S3 2.891562 1_455
Er2 S3 2.891562 1_555
Er2 S8 2.905134 1_554
Er2 S11 2.961070 1_455
Er2 S11 2.961070 1_555
Er3 S8 2.762237 1_555
Er3 S8 2.762237 1_655
Er3 S7 2.845019 1_555
Er3 S2 2.891562 1_655
Er3 S2 2.891562 1_555
Er3 S9 2.905134 1_556
Er3 S10 2.961070 1_555
Er3 S10 2.961070 1_655
Er4 S4 2.615043 1_555
Er4 S1 2.674732 1_445
Er4 S1 2.674732 1_545
Er4 S0 2.720572 1_555
Er4 S3 2.733249 1_455
Er4 S3 2.733249 1_555
Er5 S5 2.615043 1_555
Er5 S0 2.674732 1_565
Er5 S0 2.674732 1_665
Er5 S1 2.720572 1_555
Er5 S2 2.733249 1_555
Er5 S2 2.733249 1_655
S0 Sc0 2.588474 1_555
S1 Sc1 2.588474 1_555
S6 Sc1 2.535758 1_455
S6 Sc1 2.535758 1_555
S7 Sc0 2.535758 1_555
S7 Sc0 2.535758 1_655
S10 Sc0 2.559021 1_555
S10 Sc1 2.663124 1_555
S10 Sc1 2.663124 1_455
S11 Sc1 2.559021 1_555
S11 Sc0 2.663124 1_655
S11 Sc0 2.663124 1_555
