# generated using pymatgen
data_CeMn5Co7
_symmetry_space_group_name_H-M   'P 1'
_cell_length_a   4.59334400
_cell_length_b   6.34044607
_cell_length_c   6.34044607
_cell_angle_alpha   97.92693847
_cell_angle_beta   111.23694195
_cell_angle_gamma   68.76305805
_symmetry_Int_Tables_number   1
_chemical_formula_structural   CeMn5Co7
_chemical_formula_sum   'Ce1 Mn5 Co7'
_cell_volume   160.42490284
_cell_formula_units_Z   1
loop_
 _symmetry_equiv_pos_site_id
 _symmetry_equiv_pos_as_xyz
  1  'x, y, z'
loop_
 _atom_site_type_symbol
 _atom_site_label
 _atom_site_symmetry_multiplicity
 _atom_site_fract_x
 _atom_site_fract_y
 _atom_site_fract_z
 _atom_site_occupancy
  Ce  Ce0  1  0.99674800  0.00325200  0.99674800  1
  Mn  Mn0  1  0.49869600  0.99794900  0.49711800  1
  Mn  Mn1  1  0.00047400  0.99794900  0.49711800  1
  Mn  Mn2  1  0.49869600  0.50288200  0.00205100  1
  Mn  Mn3  1  0.00047400  0.50288200  0.00205100  1
  Mn  Mn4  1  0.73067500  0.76932500  0.23067500  1
  Co  Co0  1  0.64136700  0.35863300  0.64136700  1
  Co  Co1  1  0.35781000  0.64219000  0.35781000  1
  Co  Co2  1  0.00051900  0.35674100  0.35777900  1
  Co  Co3  1  0.00051900  0.64222100  0.64325900  1
  Co  Co4  1  0.27215600  0.22784400  0.77215600  1
  Co  Co5  1  0.50093300  0.77247400  0.77434000  1
  Co  Co6  1  0.50093300  0.22566000  0.22752600  1
loop_
_geom_bond_atom_site_label_1
_geom_bond_atom_site_label_2
_geom_bond_distance
_geom_bond_site_symmetry_2
Ce0 Co4 2.970755 1_555
Ce0 Co4 2.970755 1_655
Ce0 Co5 2.972344 1_645
Ce0 Co6 2.972344 1_656
Ce0 Co5 2.972344 1_545
Ce0 Co6 2.972344 1_556
Ce0 Co3 2.974541 1_645
Ce0 Co2 2.974541 1_656
Ce0 Co0 2.981645 1_555
Ce0 Mn4 3.021040 1_646
Ce0 Mn4 3.021040 1_546
Ce0 Co1 3.029309 1_646
Ce0 Mn0 3.169596 1_545
Ce0 Mn2 3.169596 1_556
Ce0 Mn1 3.169598 1_645
Ce0 Mn3 3.169598 1_656
Ce0 Mn1 3.171165 1_646
Ce0 Mn3 3.171165 1_646
Ce0 Mn0 3.171167 1_646
Ce0 Mn2 3.171167 1_646
Mn0 Mn1 2.288505 1_555
Mn0 Mn1 2.304839 1_655
Mn0 Mn4 2.366498 1_555
Mn1 Mn4 2.366500 1_455
Mn2 Mn3 2.288505 1_555
Mn2 Mn3 2.304839 1_655
Mn2 Mn4 2.366498 1_555
Mn3 Mn4 2.366500 1_455
Co0 Co1 2.379042 1_555
Co0 Co4 2.545351 1_555
Co0 Co4 2.545351 1_655
Co0 Co5 2.563120 1_555
Co0 Co6 2.563120 1_555
Co0 Mn2 2.563292 1_556
Co0 Mn0 2.563292 1_545
Co0 Mn1 2.563295 1_645
Co0 Mn3 2.563295 1_656
Co0 Co2 2.843133 1_655
Co0 Co3 2.843133 1_655
Co0 Co2 2.843133 1_555
Co0 Co3 2.843133 1_555
Co1 Mn3 2.526038 1_555
Co1 Mn1 2.526038 1_555
Co1 Mn0 2.526040 1_555
Co1 Mn2 2.526040 1_555
Co1 Mn4 2.532286 1_555
Co1 Mn4 2.532286 1_455
Co1 Co5 2.573569 1_555
Co1 Co6 2.573569 1_555
Co1 Co3 2.849658 1_555
Co1 Co2 2.849658 1_555
Co1 Co2 2.849658 1_655
Co1 Co3 2.849658 1_655
Co2 Co3 2.376768 1_555
Co2 Co6 2.541294 1_555
Co2 Co6 2.541294 1_455
Co2 Mn1 2.551572 1_545
Co2 Mn0 2.551574 1_545
Co2 Mn2 2.553763 1_455
Co2 Mn3 2.553765 1_555
Co2 Mn4 2.556933 1_455
Co2 Co4 2.570262 1_555
Co3 Co5 2.541294 1_555
Co3 Co5 2.541294 1_455
Co3 Mn3 2.551572 1_556
Co3 Mn2 2.551574 1_556
Co3 Mn0 2.553763 1_455
Co3 Mn1 2.553765 1_555
Co3 Mn4 2.556933 1_455
Co3 Co4 2.570262 1_555
Co4 Mn1 2.400669 1_545
Co4 Mn3 2.400669 1_556
Co4 Mn0 2.400671 1_545
Co4 Mn2 2.400671 1_556
Co4 Co5 2.691308 1_545
Co4 Co6 2.691308 1_556
Co5 Mn2 2.389692 1_556
Co5 Mn3 2.389694 1_656
Co5 Mn1 2.408901 1_555
Co5 Mn0 2.408903 1_555
Co5 Mn4 2.697088 1_556
Co6 Mn0 2.389692 1_545
Co6 Mn1 2.389694 1_645
Co6 Mn3 2.408901 1_555
Co6 Mn2 2.408903 1_555
Co6 Mn4 2.697088 1_545
