# generated using pymatgen
data_HoSnIr
_symmetry_space_group_name_H-M   'P 1'
_cell_length_a   7.48774543
_cell_length_b   7.48774543
_cell_length_c   3.85391733
_cell_angle_alpha   90.00000000
_cell_angle_beta   90.00000000
_cell_angle_gamma   119.99999569
_symmetry_Int_Tables_number   1
_chemical_formula_structural   HoSnIr
_chemical_formula_sum   'Ho3 Sn3 Ir3'
_cell_volume   187.12645347
_cell_formula_units_Z   3
loop_
 _symmetry_equiv_pos_site_id
 _symmetry_equiv_pos_as_xyz
  1  'x, y, z'
loop_
 _atom_site_type_symbol
 _atom_site_label
 _atom_site_symmetry_multiplicity
 _atom_site_fract_x
 _atom_site_fract_y
 _atom_site_fract_z
 _atom_site_occupancy
  Ho  Ho0  1  0.40551912  0.40551912  0.50000000  1
  Ho  Ho1  1  0.59448088  0.00000000  0.50000000  1
  Ho  Ho2  1  0.00000000  0.59448088  0.50000000  1
  Sn  Sn0  1  0.73769670  0.73769670  -0.00000000  1
  Sn  Sn1  1  0.26230330  1.00000000  -0.00000000  1
  Sn  Sn2  1  1.00000000  0.26230330  0.00000000  1
  Ir  Ir0  1  0.66666700  0.33333300  -0.00000000  1
  Ir  Ir1  1  0.33333300  0.66666700  -0.00000000  1
  Ir  Ir2  1  0.00000000  -0.00000000  0.50000000  1
loop_
_geom_bond_atom_site_label_1
_geom_bond_atom_site_label_2
_geom_bond_distance
_geom_bond_site_symmetry_2
Ho0 Ir1 2.980917 1_555
Ho0 Ir0 2.980917 1_556
Ho0 Ir1 2.980917 1_556
Ho0 Ir0 2.980917 1_555
Ho0 Ir2 3.036424 1_555
Ho0 Sn0 3.146369 1_555
Ho0 Sn0 3.146369 1_556
Ho0 Sn1 3.290418 1_546
Ho0 Sn1 3.290418 1_545
Ho0 Sn2 3.290418 1_456
Ho0 Sn2 3.290418 1_455
Ho1 Ir0 2.980911 1_556
Ho1 Ir0 2.980911 1_555
Ho1 Ir1 2.980913 1_545
Ho1 Ir1 2.980913 1_546
Ho1 Ir2 3.036424 1_655
Ho1 Sn1 3.146369 1_545
Ho1 Sn1 3.146369 1_546
Ho1 Sn0 3.290418 1_545
Ho1 Sn0 3.290418 1_546
Ho1 Sn2 3.290419 1_556
Ho1 Sn2 3.290419 1_555
Ho2 Ir1 2.980911 1_556
Ho2 Ir1 2.980911 1_555
Ho2 Ir0 2.980913 1_456
Ho2 Ir0 2.980913 1_455
Ho2 Ir2 3.036424 1_565
Ho2 Sn2 3.146369 1_456
Ho2 Sn2 3.146369 1_455
Ho2 Sn0 3.290418 1_455
Ho2 Sn0 3.290418 1_456
Ho2 Sn1 3.290419 1_555
Ho2 Sn1 3.290419 1_556
Ir0 Sn2 2.799983 1_555
Ir0 Sn1 2.799988 1_545
Ir0 Sn0 2.799990 1_555
Ir1 Sn1 2.799983 1_555
Ir1 Sn2 2.799988 1_455
Ir1 Sn0 2.799990 1_555
Ir2 Sn2 2.751491 1_455
Ir2 Sn1 2.751491 1_545
Ir2 Sn1 2.751491 1_546
Ir2 Sn2 2.751491 1_456
Ir2 Sn0 2.751491 1_446
Ir2 Sn0 2.751491 1_445
