# generated using pymatgen
data_MgFe4Si2Sn7O16
_symmetry_space_group_name_H-M   'P 1'
_cell_length_a   6.95339081
_cell_length_b   6.95744377
_cell_length_c   10.63478450
_cell_angle_alpha   90.64238008
_cell_angle_beta   89.27008903
_cell_angle_gamma   120.17692592
_symmetry_Int_Tables_number   1
_chemical_formula_structural   MgFe4Si2Sn7O16
_chemical_formula_sum   'Mg1 Fe4 Si2 Sn7 O16'
_cell_volume   444.72001521
_cell_formula_units_Z   1
loop_
 _symmetry_equiv_pos_site_id
 _symmetry_equiv_pos_as_xyz
  1  'x, y, z'
loop_
 _atom_site_type_symbol
 _atom_site_label
 _atom_site_symmetry_multiplicity
 _atom_site_fract_x
 _atom_site_fract_y
 _atom_site_fract_z
 _atom_site_occupancy
  Mg  Mg0  1  0.25125323  0.75242616  0.03547561  1
  Fe  Fe0  1  0.50128219  0.00467991  0.50068136  1
  Fe  Fe1  1  0.00825147  0.99253280  0.00125160  1
  Fe  Fe2  1  0.99526828  0.49832242  0.50070868  1
  Fe  Fe3  1  0.49849579  0.50102794  0.50593217  1
  Si  Si0  1  0.34244390  0.65998426  0.26167080  1
  Si  Si1  1  0.66012301  0.33755044  0.73762103  1
  Sn  Sn0  1  0.15647616  0.32915941  0.80464225  1
  Sn  Sn1  1  0.99731790  0.00210701  0.50070857  1
  Sn  Sn2  1  0.15049522  0.84636337  0.78631528  1
  Sn  Sn3  1  0.67077204  0.84228518  0.80484329  1
  Sn  Sn4  1  0.32880780  0.16862489  0.20642613  1
  Sn  Sn5  1  0.84425771  0.15771403  0.19539107  1
  Sn  Sn6  1  0.83225894  0.67086186  0.20643687  1
  O  O0  1  0.46481814  0.89931745  0.18631722  1
  O  O1  1  0.46991694  0.52951999  0.21583293  1
  O  O2  1  0.32276347  0.67581714  0.86500390  1
  O  O3  1  0.52873912  0.07944295  0.78687619  1
  O  O4  1  0.10219231  0.53989517  0.18737233  1
  O  O5  1  0.84530461  0.15584603  0.39762559  1
  O  O6  1  0.91907755  0.46917909  0.78560182  1
  O  O7  1  0.15199540  0.32048364  0.59973332  1
  O  O8  1  0.52923615  0.46942295  0.78229032  1
  O  O9  1  0.66158855  0.33407993  0.58073841  1
  O  O10  1  0.84350123  0.68421233  0.40566816  1
  O  O11  1  0.67409859  0.32634803  0.19121601  1
  O  O12  1  0.31405464  0.15650923  0.40554538  1
  O  O13  1  0.33471346  0.67046204  0.41429470  1
  O  O14  1  0.16044813  0.83753866  0.59048816  1
  O  O15  1  0.68079005  0.84754570  0.60015285  1
loop_
_geom_bond_atom_site_label_1
_geom_bond_atom_site_label_2
_geom_bond_distance
_geom_bond_site_symmetry_2
Mg0 O2 2.009941 1_554
Mg0 O0 2.078752 1_555
Mg0 O4 2.083348 1_555
Fe0 O9 2.152165 1_555
Fe0 O13 2.205476 1_545
Fe0 O14 2.253369 1_545
Fe0 O12 2.296617 1_555
Fe0 O15 2.302974 1_545
Fe0 O5 2.336512 1_555
Fe1 Sn5 2.843954 1_465
Fe1 Sn2 2.852873 1_554
Fe1 Sn0 2.923610 1_564
Fe1 Sn4 2.923845 1_565
Fe1 Sn6 2.925043 1_455
Fe1 Sn3 2.927815 1_454
Fe1 Mg0 2.940277 1_555
Fe2 O9 2.172444 1_555
Fe2 O13 2.231011 1_655
Fe2 O14 2.247890 1_655
Fe2 O10 2.288345 1_555
Fe2 O7 2.289463 1_655
Fe2 O5 2.332236 1_555
Fe3 O9 2.153159 1_555
Fe3 O13 2.245005 1_555
Fe3 O7 2.302648 1_555
Fe3 O15 2.308464 1_555
Fe3 O10 2.325469 1_555
Fe3 O12 2.327442 1_555
O0 Si0 1.651376 1_555
O0 Sn5 2.331617 1_565
O0 Sn4 2.493633 1_565
O1 Si0 1.623307 1_555
O1 Sn4 2.190303 1_555
O1 Sn6 2.197692 1_555
O2 Sn0 2.178671 1_555
O2 Sn3 2.183100 1_555
O2 Sn2 2.240491 1_555
O3 Si1 1.641144 1_555
O3 Sn2 2.293341 1_545
O3 Sn3 2.320469 1_545
O4 Si0 1.651905 1_555
O4 Sn5 2.345424 1_455
O4 Sn6 2.469797 1_455
O5 Sn5 2.151033 1_555
O5 Sn1 2.157693 1_555
O6 Si1 1.642067 1_555
O6 Sn2 2.287039 1_655
O6 Sn0 2.311830 1_655
O7 Sn0 2.179507 1_555
O7 Sn1 2.180330 1_455
O8 Si1 1.647561 1_555
O8 Sn0 2.274553 1_555
O8 Sn3 2.276214 1_555
O9 Si1 1.668292 1_555
O10 Sn6 2.120491 1_555
O10 Sn1 2.157894 1_565
O11 Sn5 2.043659 1_555
O11 Sn6 2.080065 1_555
O11 Sn4 2.083314 1_555
O12 Sn4 2.119338 1_555
O12 Sn1 2.148908 1_455
O13 Si0 1.625359 1_555
O14 Sn2 2.084089 1_555
O14 Sn1 2.206137 1_465
O15 Sn1 2.169272 1_565
O15 Sn3 2.177195 1_555
