# generated using pymatgen
data_Hf2Tl
_symmetry_space_group_name_H-M   'P 1'
_cell_length_a   3.52113284
_cell_length_b   3.52113284
_cell_length_c   5.88983715
_cell_angle_alpha   107.39250578
_cell_angle_beta   107.39250578
_cell_angle_gamma   90.00000000
_symmetry_Int_Tables_number   1
_chemical_formula_structural   Hf2Tl
_chemical_formula_sum   'Hf2 Tl1'
_cell_volume   66.17875845
_cell_formula_units_Z   1
loop_
 _symmetry_equiv_pos_site_id
 _symmetry_equiv_pos_as_xyz
  1  'x, y, z'
loop_
 _atom_site_type_symbol
 _atom_site_label
 _atom_site_symmetry_multiplicity
 _atom_site_fract_x
 _atom_site_fract_y
 _atom_site_fract_z
 _atom_site_occupancy
  Hf  Hf0  1  0.83278230  0.83278230  0.66556560  1
  Hf  Hf1  1  0.16721770  0.16721770  0.33443440  1
  Tl  Tl0  1  0.50000000  0.50000000  0.00000000  1
loop_
_geom_bond_atom_site_label_1
_geom_bond_atom_site_label_2
_geom_bond_distance
_geom_bond_site_symmetry_2
Hf0 Tl0 3.063624 1_556
Hf0 Tl0 3.063626 1_566
Hf0 Tl0 3.063626 1_656
Hf0 Tl0 3.063628 1_666
Hf1 Tl0 3.063624 1_555
Hf1 Tl0 3.063626 1_455
Hf1 Tl0 3.063626 1_545
Hf1 Tl0 3.063628 1_445
