# generated using pymatgen
data_CeMg(NiH)4
_symmetry_space_group_name_H-M   'P 1'
_cell_length_a   5.28323600
_cell_length_b   5.28323600
_cell_length_c   5.28323600
_cell_angle_alpha   60.00000000
_cell_angle_beta   60.00000000
_cell_angle_gamma   60.00000000
_symmetry_Int_Tables_number   1
_chemical_formula_structural   CeMg(NiH)4
_chemical_formula_sum   'Ce1 Mg1 Ni4 H4'
_cell_volume   104.27616102
_cell_formula_units_Z   1
loop_
 _symmetry_equiv_pos_site_id
 _symmetry_equiv_pos_as_xyz
  1  'x, y, z'
loop_
 _atom_site_type_symbol
 _atom_site_label
 _atom_site_symmetry_multiplicity
 _atom_site_fract_x
 _atom_site_fract_y
 _atom_site_fract_z
 _atom_site_occupancy
  Ce  Ce0  1  0.00000000  0.00000000  0.00000000  1
  Mg  Mg0  1  0.75000000  0.75000000  0.75000000  1
  Ni  Ni0  1  0.38249800  0.38249800  0.38249800  1
  Ni  Ni1  1  0.38249800  0.38249800  0.85250700  1
  Ni  Ni2  1  0.38249800  0.85250700  0.38249800  1
  Ni  Ni3  1  0.85250700  0.38249800  0.38249800  1
  H  H0  1  0.16409800  0.16409800  0.16409800  1
  H  H1  1  0.16409800  0.16409800  0.50770500  1
  H  H2  1  0.16409800  0.50770500  0.16409800  1
  H  H3  1  0.50770500  0.16409800  0.16409800  1
loop_
_geom_bond_atom_site_label_1
_geom_bond_atom_site_label_2
_geom_bond_distance
_geom_bond_site_symmetry_2
Ce0 H0 2.123630 1_555
Ce0 H1 2.123635 1_554
Ce0 H2 2.123635 1_545
Ce0 H3 2.123635 1_455
Ce0 Mg0 3.235308 1_444
Ce0 Mg0 3.235308 1_445
Ce0 Mg0 3.235308 1_454
Ce0 Mg0 3.235308 1_544
Mg0 Ni1 3.082159 1_555
Mg0 Ni3 3.082159 1_555
Mg0 Ni2 3.082159 1_555
Mg0 Ni0 3.082162 1_556
Mg0 Ni0 3.082162 1_565
Mg0 Ni0 3.082162 1_655
Mg0 Ni1 3.082164 1_565
Mg0 Ni3 3.082164 1_565
Mg0 Ni3 3.082164 1_556
Mg0 Ni2 3.082164 1_556
Mg0 Ni1 3.082164 1_655
Mg0 Ni2 3.082164 1_655
H0 Ni3 1.704461 1_455
H0 Ni1 1.704461 1_554
H0 Ni2 1.704461 1_545
H1 Ni2 1.704456 1_545
H1 Ni3 1.704456 1_455
H1 Ni0 1.704464 1_555
H2 Ni1 1.704456 1_554
H2 Ni3 1.704456 1_455
H2 Ni0 1.704464 1_555
H3 Ni1 1.704456 1_554
H3 Ni2 1.704456 1_545
H3 Ni0 1.704464 1_555
