# generated using pymatgen
data_MgU(MoO4)4
_symmetry_space_group_name_H-M   'P 1'
_cell_length_a   6.62741900
_cell_length_b   7.98077300
_cell_length_c   14.04670477
_cell_angle_alpha   55.72267063
_cell_angle_beta   90.00000000
_cell_angle_gamma   90.00000000
_symmetry_Int_Tables_number   1
_chemical_formula_structural   MgU(MoO4)4
_chemical_formula_sum   'Mg2 U2 Mo8 O32'
_cell_volume   613.92135249
_cell_formula_units_Z   2
loop_
 _symmetry_equiv_pos_site_id
 _symmetry_equiv_pos_as_xyz
  1  'x, y, z'
loop_
 _atom_site_type_symbol
 _atom_site_label
 _atom_site_symmetry_multiplicity
 _atom_site_fract_x
 _atom_site_fract_y
 _atom_site_fract_z
 _atom_site_occupancy
  Mg  Mg0  1  0.70230400  0.50000000  0.25000000  1
  Mg  Mg1  1  0.29769600  0.50000000  0.75000000  1
  U  U0  1  0.29528700  0.00000000  0.75000000  1
  U  U1  1  0.70471300  0.00000000  0.25000000  1
  Mo  Mo0  1  0.82864300  0.80304700  0.91088700  1
  Mo  Mo1  1  0.17135700  0.19695300  0.08911300  1
  Mo  Mo2  1  0.82864300  0.19695300  0.58911300  1
  Mo  Mo3  1  0.17135700  0.80304700  0.41088700  1
  Mo  Mo4  1  0.82197400  0.31253700  0.90145000  1
  Mo  Mo5  1  0.17802600  0.68746300  0.09855000  1
  Mo  Mo6  1  0.82197400  0.68746300  0.59855000  1
  Mo  Mo7  1  0.17802600  0.31253700  0.40145000  1
  O  O0  1  0.84672700  0.81321200  0.43406600  1
  O  O1  1  0.15327300  0.18678800  0.56593400  1
  O  O2  1  0.84797900  0.91303700  0.59589400  1
  O  O3  1  0.15202100  0.08696300  0.40410600  1
  O  O4  1  0.84324800  0.58954300  0.90361600  1
  O  O5  1  0.15675200  0.41045700  0.09638400  1
  O  O6  1  0.94268200  0.50000000  0.75000000  1
  O  O7  1  0.05731800  0.50000000  0.25000000  1
  O  O8  1  0.29768100  0.76912500  0.74838200  1
  O  O9  1  0.70231900  0.23087500  0.25161800  1
  O  O10  1  0.43330600  0.36919000  0.36794600  1
  O  O11  1  0.56669400  0.63081000  0.63205400  1
  O  O12  1  0.15327300  0.81321200  0.93406600  1
  O  O13  1  0.84672700  0.18678800  0.06593400  1
  O  O14  1  0.29768100  0.23087500  0.75161800  1
  O  O15  1  0.70231900  0.76912500  0.24838200  1
  O  O16  1  0.84239400  0.68289900  0.06760000  1
  O  O17  1  0.15760600  0.31710100  0.93240000  1
  O  O18  1  0.56998200  0.87543800  0.87232800  1
  O  O19  1  0.43001800  0.12456200  0.12767200  1
  O  O20  1  0.56669400  0.36919000  0.86794600  1
  O  O21  1  0.43330600  0.63081000  0.13205400  1
  O  O22  1  0.15675200  0.58954300  0.40361600  1
  O  O23  1  0.84324800  0.41045700  0.59638400  1
  O  O24  1  0.94151600  0.00000000  0.75000000  1
  O  O25  1  0.05848400  0.00000000  0.25000000  1
  O  O26  1  0.56998200  0.12456200  0.62767200  1
  O  O27  1  0.43001800  0.87543800  0.37232800  1
  O  O28  1  0.84797900  0.08696300  0.90410600  1
  O  O29  1  0.15202100  0.91303700  0.09589400  1
  O  O30  1  0.84239400  0.31710100  0.43240000  1
  O  O31  1  0.15760600  0.68289900  0.56760000  1
loop_
_geom_bond_atom_site_label_1
_geom_bond_atom_site_label_2
_geom_bond_distance
_geom_bond_site_symmetry_2
Mg0 O15 2.135108 1_555
Mg0 O9 2.135108 1_555
Mg0 O21 2.250494 1_555
Mg0 O10 2.250494 1_555
Mg0 O16 2.311823 1_555
Mg0 O30 2.311823 1_555
Mg0 O7 2.352827 1_655
Mg1 O8 2.135108 1_555
Mg1 O14 2.135108 1_555
Mg1 O20 2.250494 1_555
Mg1 O11 2.250494 1_555
Mg1 O31 2.311823 1_555
Mg1 O17 2.311823 1_555
Mg1 O6 2.352827 1_455
Mo0 O4 1.766124 1_555
Mo0 O18 1.792579 1_555
Mo0 O16 1.842798 1_556
Mo0 O24 2.033792 1_565
Mo0 O12 2.184289 1_655
Mo0 O28 2.217330 1_565
Mo1 O5 1.766124 1_555
Mo1 O19 1.792579 1_555
Mo1 O17 1.842798 1_554
Mo1 O25 2.033792 1_555
Mo1 O13 2.184289 1_455
Mo1 O29 2.217330 1_545
Mo2 O23 1.766124 1_555
Mo2 O26 1.792579 1_555
Mo2 O30 1.842798 1_555
Mo2 O24 2.033792 1_555
Mo2 O1 2.184289 1_655
Mo2 O2 2.217330 1_545
Mo3 O22 1.766124 1_555
Mo3 O27 1.792579 1_555
Mo3 O31 1.842798 1_555
Mo3 O25 2.033792 1_565
Mo3 O0 2.184289 1_455
Mo3 O3 2.217330 1_565
Mo4 O20 1.746018 1_555
Mo4 O28 1.787836 1_555
Mo4 O13 1.939199 1_556
Mo4 O6 1.954212 1_555
Mo4 O4 2.232456 1_555
Mo4 O17 2.270684 1_655
Mo5 O21 1.746018 1_555
Mo5 O29 1.787836 1_555
Mo5 O12 1.939199 1_554
Mo5 O7 1.954212 1_555
Mo5 O5 2.232456 1_555
Mo5 O16 2.270684 1_455
Mo6 O11 1.746018 1_555
Mo6 O2 1.787836 1_555
Mo6 O0 1.939199 1_555
Mo6 O6 1.954212 1_555
Mo6 O23 2.232456 1_555
Mo6 O31 2.270684 1_655
Mo7 O10 1.746018 1_555
Mo7 O3 1.787836 1_555
Mo7 O1 1.939199 1_555
Mo7 O7 1.954212 1_555
Mo7 O22 2.232456 1_555
Mo7 O30 2.270684 1_455
O0 U1 2.334852 1_565
O1 U0 2.334852 1_555
O8 U0 1.855524 1_565
O9 U1 1.855524 1_555
O12 U0 2.334852 1_565
O13 U1 2.334852 1_555
O14 U0 1.855524 1_555
O15 U1 1.855524 1_565
O18 U0 2.308900 1_565
O19 U1 2.308900 1_555
O24 U0 2.344589 1_655
O25 U1 2.344589 1_455
O26 U0 2.308900 1_555
O27 U1 2.308900 1_565
