# generated using pymatgen
data_Ca3Mg4Zn11
_symmetry_space_group_name_H-M   'P 1'
_cell_length_a   9.34448887
_cell_length_b   9.34448887
_cell_length_c   9.35371000
_cell_angle_alpha   90.00000000
_cell_angle_beta   90.00000000
_cell_angle_gamma   120.00000617
_symmetry_Int_Tables_number   1
_chemical_formula_structural   Ca3Mg4Zn11
_chemical_formula_sum   'Ca6 Mg8 Zn22'
_cell_volume   707.33574902
_cell_formula_units_Z   2
loop_
 _symmetry_equiv_pos_site_id
 _symmetry_equiv_pos_as_xyz
  1  'x, y, z'
loop_
 _atom_site_type_symbol
 _atom_site_label
 _atom_site_symmetry_multiplicity
 _atom_site_fract_x
 _atom_site_fract_y
 _atom_site_fract_z
 _atom_site_occupancy
  Ca  Ca0  1  0.80029600  0.19970400  0.25000000  1
  Ca  Ca1  1  0.19970400  0.39940800  0.75000000  1
  Ca  Ca2  1  0.60059200  0.80029600  0.75000000  1
  Ca  Ca3  1  0.39940800  0.19970400  0.25000000  1
  Ca  Ca4  1  0.80029600  0.60059200  0.25000000  1
  Ca  Ca5  1  0.19970400  0.80029600  0.75000000  1
  Mg  Mg0  1  0.00000000  0.00000000  0.25000000  1
  Mg  Mg1  1  0.50000000  0.50000000  0.00000000  1
  Mg  Mg2  1  0.50000000  0.00000000  0.50000000  1
  Mg  Mg3  1  0.00000000  0.50000000  0.50000000  1
  Mg  Mg4  1  0.00000000  0.50000000  0.00000000  1
  Mg  Mg5  1  0.50000000  0.00000000  0.00000000  1
  Mg  Mg6  1  0.50000000  0.50000000  0.50000000  1
  Mg  Mg7  1  0.00000000  0.00000000  0.75000000  1
  Zn  Zn0  1  0.84589400  0.15410600  0.91161200  1
  Zn  Zn1  1  0.69178900  0.84589400  0.08838800  1
  Zn  Zn2  1  0.15410600  0.84589400  0.08838800  1
  Zn  Zn3  1  0.15410600  0.30821100  0.08838800  1
  Zn  Zn4  1  0.30821100  0.15410600  0.58838800  1
  Zn  Zn5  1  0.42718500  0.85437000  0.25000000  1
  Zn  Zn6  1  0.14563000  0.57281500  0.25000000  1
  Zn  Zn7  1  0.85437000  0.42718500  0.75000000  1
  Zn  Zn8  1  0.57281500  0.14563000  0.75000000  1
  Zn  Zn9  1  0.42718500  0.57281500  0.25000000  1
  Zn  Zn10  1  0.33333300  0.66666700  0.00716100  1
  Zn  Zn11  1  0.66666700  0.33333300  0.50716100  1
  Zn  Zn12  1  0.66666700  0.33333300  0.99283900  1
  Zn  Zn13  1  0.33333300  0.66666700  0.49283900  1
  Zn  Zn14  1  0.84589400  0.69178900  0.58838800  1
  Zn  Zn15  1  0.84589400  0.15410600  0.58838800  1
  Zn  Zn16  1  0.15410600  0.30821100  0.41161200  1
  Zn  Zn17  1  0.69178900  0.84589400  0.41161200  1
  Zn  Zn18  1  0.30821100  0.15410600  0.91161200  1
  Zn  Zn19  1  0.84589400  0.69178900  0.91161200  1
  Zn  Zn20  1  0.15410600  0.84589400  0.41161200  1
  Zn  Zn21  1  0.57281500  0.42718500  0.75000000  1
loop_
_geom_bond_atom_site_label_1
_geom_bond_atom_site_label_2
_geom_bond_distance
_geom_bond_site_symmetry_2
Ca0 Mg0 3.232235 1_655
Ca0 Zn11 3.234766 1_555
Ca0 Zn12 3.234766 1_554
Ca0 Zn0 3.250084 1_554
Ca0 Zn15 3.250084 1_555
Ca0 Zn3 3.300264 1_655
Ca0 Zn16 3.300264 1_655
Ca0 Zn1 3.300264 1_545
Ca0 Zn17 3.300264 1_545
Ca0 Zn5 3.364268 1_545
Ca0 Zn6 3.364268 1_655
Ca0 Mg3 3.404171 1_655
Ca0 Mg4 3.404171 1_655
Ca0 Mg5 3.404171 1_555
Ca0 Mg2 3.404171 1_555
Ca0 Ca3 3.746093 1_555
Ca0 Ca4 3.746093 1_555
Ca1 Mg7 3.232235 1_555
Ca1 Zn10 3.234771 1_556
Ca1 Zn13 3.234771 1_555
Ca1 Zn3 3.250085 1_556
Ca1 Zn16 3.250085 1_555
Ca1 Zn18 3.300257 1_555
Ca1 Zn4 3.300257 1_555
Ca1 Zn0 3.300262 1_455
Ca1 Zn15 3.300262 1_455
Ca1 Zn21 3.364269 1_555
Ca1 Zn7 3.364269 1_455
Ca1 Mg6 3.404171 1_555
Ca1 Mg1 3.404171 1_556
Ca1 Mg4 3.404171 1_556
Ca1 Mg3 3.404171 1_555
Ca1 Ca2 3.746093 1_555
Ca1 Ca5 3.746093 1_555
Ca2 Mg7 3.232235 1_665
Ca2 Zn10 3.234771 1_556
Ca2 Zn13 3.234771 1_555
Ca2 Zn1 3.250085 1_556
Ca2 Zn17 3.250085 1_555
Ca2 Zn19 3.300257 1_555
Ca2 Zn14 3.300257 1_555
Ca2 Zn15 3.300262 1_565
Ca2 Zn0 3.300262 1_565
Ca2 Zn21 3.364269 1_555
Ca2 Zn8 3.364269 1_565
Ca2 Mg6 3.404171 1_555
Ca2 Mg1 3.404171 1_556
Ca2 Mg2 3.404171 1_565
Ca2 Mg5 3.404171 1_566
Ca2 Ca5 3.746093 1_555
Ca3 Mg0 3.232235 1_555
Ca3 Zn11 3.234771 1_555
Ca3 Zn12 3.234771 1_554
Ca3 Zn4 3.250085 1_555
Ca3 Zn18 3.250085 1_554
Ca3 Zn3 3.300257 1_555
Ca3 Zn16 3.300257 1_555
Ca3 Zn2 3.300262 1_545
Ca3 Zn20 3.300262 1_545
Ca3 Zn9 3.364269 1_555
Ca3 Zn5 3.364269 1_545
Ca3 Mg6 3.404171 1_555
Ca3 Mg1 3.404171 1_555
Ca3 Mg2 3.404171 1_555
Ca3 Mg5 3.404171 1_555
Ca3 Ca4 3.746093 1_555
Ca4 Mg0 3.232235 1_665
Ca4 Zn11 3.234771 1_555
Ca4 Zn12 3.234771 1_554
Ca4 Zn14 3.250085 1_555
Ca4 Zn19 3.250085 1_554
Ca4 Zn1 3.300257 1_555
Ca4 Zn17 3.300257 1_555
Ca4 Zn20 3.300262 1_655
Ca4 Zn2 3.300262 1_655
Ca4 Zn9 3.364269 1_555
Ca4 Zn6 3.364269 1_655
Ca4 Mg6 3.404171 1_555
Ca4 Mg1 3.404171 1_555
Ca4 Mg4 3.404171 1_655
Ca4 Mg3 3.404171 1_655
Ca5 Mg7 3.232235 1_565
Ca5 Zn10 3.234766 1_556
Ca5 Zn13 3.234766 1_555
Ca5 Zn2 3.250084 1_556
Ca5 Zn20 3.250084 1_555
Ca5 Zn4 3.300264 1_565
Ca5 Zn18 3.300264 1_565
Ca5 Zn14 3.300264 1_455
Ca5 Zn19 3.300264 1_455
Ca5 Zn8 3.364268 1_565
Ca5 Zn7 3.364268 1_455
Ca5 Mg4 3.404171 1_556
Ca5 Mg2 3.404171 1_565
Ca5 Mg5 3.404171 1_566
Ca5 Mg3 3.404171 1_555
Mg0 Zn16 2.916551 1_555
Mg0 Zn17 2.916551 1_445
Mg0 Zn1 2.916551 1_445
Mg0 Zn3 2.916551 1_555
Mg0 Zn20 2.916558 1_545
Mg0 Zn2 2.916558 1_545
Mg1 Zn9 2.618617 1_555
Mg1 Zn21 2.618617 1_554
Mg1 Zn10 2.698359 1_555
Mg1 Zn12 2.698359 1_554
Mg1 Zn19 2.924017 1_554
Mg1 Zn1 2.924017 1_555
Mg1 Zn18 2.924017 1_554
Mg1 Zn3 2.924017 1_555
Mg2 Zn5 2.618617 1_545
Mg2 Zn8 2.618617 1_555
Mg2 Zn11 2.698350 1_555
Mg2 Zn13 2.698350 1_545
Mg2 Zn15 2.924016 1_555
Mg2 Zn20 2.924016 1_545
Mg2 Zn4 2.924025 1_555
Mg2 Zn17 2.924025 1_545
Mg3 Zn7 2.618617 1_455
Mg3 Zn6 2.618617 1_555
Mg3 Zn11 2.698350 1_455
Mg3 Zn13 2.698350 1_555
Mg3 Zn20 2.924016 1_555
Mg3 Zn15 2.924016 1_455
Mg3 Zn16 2.924025 1_555
Mg3 Zn14 2.924025 1_455
Mg4 Zn7 2.618617 1_454
Mg4 Zn6 2.618617 1_555
Mg4 Zn10 2.698350 1_555
Mg4 Zn12 2.698350 1_454
Mg4 Zn2 2.924016 1_555
Mg4 Zn0 2.924016 1_454
Mg4 Zn3 2.924025 1_555
Mg4 Zn19 2.924025 1_454
Mg5 Zn5 2.618617 1_545
Mg5 Zn8 2.618617 1_554
Mg5 Zn10 2.698350 1_545
Mg5 Zn12 2.698350 1_554
Mg5 Zn0 2.924016 1_554
Mg5 Zn2 2.924016 1_545
Mg5 Zn18 2.924025 1_554
Mg5 Zn1 2.924025 1_545
Mg6 Zn21 2.618617 1_555
Mg6 Zn9 2.618617 1_555
Mg6 Zn13 2.698359 1_555
Mg6 Zn11 2.698359 1_555
Mg6 Zn14 2.924017 1_555
Mg6 Zn17 2.924017 1_555
Mg6 Zn4 2.924017 1_555
Mg6 Zn16 2.924017 1_555
Mg7 Zn4 2.916551 1_555
Mg7 Zn14 2.916551 1_445
Mg7 Zn18 2.916551 1_555
Mg7 Zn19 2.916551 1_445
Mg7 Zn15 2.916558 1_455
Mg7 Zn0 2.916558 1_455
Zn0 Zn8 2.932731 1_555
Zn0 Zn7 2.932731 1_555
Zn0 Zn1 2.992534 1_546
Zn0 Zn3 2.992534 1_656
Zn0 Zn12 2.998661 1_555
Zn0 Zn15 3.023344 1_555
Zn1 Zn9 2.932735 1_555
Zn1 Zn5 2.932739 1_555
Zn1 Zn19 2.992521 1_554
Zn1 Zn10 2.998676 1_555
Zn1 Zn17 3.023344 1_555
Zn2 Zn6 2.932731 1_555
Zn2 Zn5 2.932731 1_555
Zn2 Zn20 3.023344 1_555
Zn3 Zn9 2.932735 1_555
Zn3 Zn6 2.932739 1_555
Zn4 Zn8 2.932739 1_555
Zn5 Zn6 2.630987 1_555
Zn5 Zn9 2.630988 1_555
Zn6 Zn9 2.630988 1_555
Zn7 Zn8 2.630987 1_555
Zn10 Zn6 2.732549 1_555
Zn10 Zn5 2.732549 1_555
Zn10 Zn9 2.732553 1_555
Zn10 Zn2 2.998661 1_555
Zn10 Zn3 2.998676 1_555
Zn11 Zn8 2.732549 1_555
Zn11 Zn7 2.732549 1_555
Zn11 Zn21 2.732553 1_555
Zn11 Zn15 2.998661 1_555
Zn11 Zn4 2.998676 1_555
Zn11 Zn14 2.998676 1_555
Zn12 Zn7 2.732549 1_555
Zn12 Zn8 2.732549 1_555
Zn12 Zn21 2.732553 1_555
Zn12 Zn19 2.998676 1_555
Zn12 Zn18 2.998676 1_555
Zn13 Zn5 2.732549 1_555
Zn13 Zn6 2.732549 1_555
Zn13 Zn9 2.732553 1_555
Zn13 Zn20 2.998661 1_555
Zn13 Zn16 2.998676 1_555
Zn13 Zn17 2.998676 1_555
Zn14 Zn21 2.932735 1_555
Zn14 Zn7 2.932739 1_555
Zn14 Zn17 2.992521 1_555
Zn14 Zn20 2.992534 1_655
Zn14 Zn19 3.023344 1_555
Zn15 Zn8 2.932731 1_555
Zn15 Zn7 2.932731 1_555
Zn15 Zn17 2.992534 1_545
Zn15 Zn16 2.992534 1_655
Zn16 Zn9 2.932735 1_555
Zn16 Zn6 2.932739 1_555
Zn16 Zn4 2.992521 1_555
Zn16 Zn3 3.023344 1_555
Zn17 Zn9 2.932735 1_555
Zn17 Zn5 2.932739 1_555
Zn18 Zn21 2.932735 1_555
Zn18 Zn8 2.932739 1_555
Zn18 Zn3 2.992521 1_556
Zn18 Zn2 2.992534 1_546
Zn18 Zn4 3.023344 1_555
Zn19 Zn21 2.932735 1_555
Zn19 Zn7 2.932739 1_555
Zn19 Zn2 2.992534 1_656
Zn20 Zn6 2.932731 1_555
Zn20 Zn5 2.932731 1_555
Zn20 Zn4 2.992534 1_565
Zn21 Zn8 2.630988 1_555
Zn21 Zn7 2.630988 1_555
Zn21 Zn4 2.932735 1_555
