# generated using pymatgen
data_Zn(W2O3)2
_symmetry_space_group_name_H-M   'P 1'
_cell_length_a   5.67953131
_cell_length_b   5.67953131
_cell_length_c   16.54218600
_cell_angle_alpha   90.00000000
_cell_angle_beta   90.00000000
_cell_angle_gamma   146.67951243
_symmetry_Int_Tables_number   1
_chemical_formula_structural   Zn(W2O3)2
_chemical_formula_sum   'Zn2 W8 O12'
_cell_volume   293.11943170
_cell_formula_units_Z   2
loop_
 _symmetry_equiv_pos_site_id
 _symmetry_equiv_pos_as_xyz
  1  'x, y, z'
loop_
 _atom_site_type_symbol
 _atom_site_label
 _atom_site_symmetry_multiplicity
 _atom_site_fract_x
 _atom_site_fract_y
 _atom_site_fract_z
 _atom_site_occupancy
  Zn  Zn0  1  0.30787200  0.69212800  0.75000000  1
  Zn  Zn1  1  0.69212800  0.30787200  0.25000000  1
  W  W0  1  0.13827600  0.86172400  0.04973000  1
  W  W1  1  0.61369600  0.38630400  0.63343400  1
  W  W2  1  0.86172400  0.13827600  0.95027000  1
  W  W3  1  0.38630400  0.61369600  0.36656600  1
  W  W4  1  0.13827600  0.86172400  0.45027000  1
  W  W5  1  0.86172400  0.13827600  0.54973000  1
  W  W6  1  0.38630400  0.61369600  0.13343400  1
  W  W7  1  0.61369600  0.38630400  0.86656600  1
  O  O0  1  0.50000000  0.50000000  0.50000000  1
  O  O1  1  0.50000000  0.50000000  0.00000000  1
  O  O2  1  0.99212700  0.00787300  0.85610400  1
  O  O3  1  0.00787300  0.99212700  0.14389600  1
  O  O4  1  0.00787300  0.99212700  0.35610400  1
  O  O5  1  0.99212700  0.00787300  0.64389600  1
  O  O6  1  0.26836400  0.73163600  0.87616600  1
  O  O7  1  0.73163600  0.26836400  0.12383400  1
  O  O8  1  0.73163600  0.26836400  0.37616600  1
  O  O9  1  0.26836400  0.73163600  0.62383400  1
  O  O10  1  0.69317200  0.30682800  0.75000000  1
  O  O11  1  0.30682800  0.69317200  0.25000000  1
loop_
_geom_bond_atom_site_label_1
_geom_bond_atom_site_label_2
_geom_bond_distance
_geom_bond_site_symmetry_2
O0 W4 2.364819 1_655
O0 W5 2.364819 1_565
O0 W4 2.364819 1_545
O0 W5 2.364819 1_455
O0 W1 2.530406 1_555
O0 W3 2.530406 1_555
O1 W2 2.364819 1_564
O1 W0 2.364819 1_655
O1 W2 2.364819 1_454
O1 W0 2.364819 1_545
O1 W6 2.530406 1_555
O1 W7 2.530406 1_554
O2 W7 2.105108 1_545
O2 W7 2.105108 1_655
O2 W2 2.107188 1_555
O3 W6 2.105108 1_565
O3 W6 2.105108 1_455
O3 W0 2.107188 1_555
O4 W3 2.105108 1_455
O4 W3 2.105108 1_565
O4 W4 2.107188 1_555
O5 W1 2.105108 1_655
O5 W1 2.105108 1_545
O5 W5 2.107188 1_555
O6 Zn0 2.130885 1_555
O6 W2 2.277329 1_565
O6 W2 2.277329 1_455
O6 W7 2.347234 1_565
O6 W7 2.347234 1_455
O7 Zn1 2.130885 1_555
O7 W0 2.277329 1_655
O7 W0 2.277329 1_545
O7 W6 2.347234 1_655
O7 W6 2.347234 1_545
O8 Zn1 2.130885 1_555
O8 W4 2.277329 1_655
O8 W4 2.277329 1_545
O8 W3 2.347234 1_655
O8 W3 2.347234 1_545
O9 Zn0 2.130885 1_555
O9 W5 2.277329 1_565
O9 W5 2.277329 1_455
O9 W1 2.347234 1_565
O9 W1 2.347234 1_455
O10 Zn0 2.051667 1_655
O10 Zn0 2.051667 1_545
O10 W7 2.113335 1_555
O10 W1 2.113335 1_555
O11 Zn1 2.051667 1_565
O11 Zn1 2.051667 1_455
O11 W3 2.113335 1_555
O11 W6 2.113335 1_555
