# generated using pymatgen
data_ThCrSe3
_symmetry_space_group_name_H-M   'P 1'
_cell_length_a   6.51892700
_cell_length_b   7.75356900
_cell_length_c   9.37690900
_cell_angle_alpha   90.00000000
_cell_angle_beta   90.00000000
_cell_angle_gamma   90.00000000
_symmetry_Int_Tables_number   1
_chemical_formula_structural   ThCrSe3
_chemical_formula_sum   'Th4 Cr4 Se12'
_cell_volume   473.95539938
_cell_formula_units_Z   4
loop_
 _symmetry_equiv_pos_site_id
 _symmetry_equiv_pos_as_xyz
  1  'x, y, z'
loop_
 _atom_site_type_symbol
 _atom_site_label
 _atom_site_symmetry_multiplicity
 _atom_site_fract_x
 _atom_site_fract_y
 _atom_site_fract_z
 _atom_site_occupancy
  Th  Th0  1  0.44343000  0.87898300  0.25000000  1
  Th  Th1  1  0.05657000  0.37898300  0.25000000  1
  Th  Th2  1  0.55657000  0.12101700  0.75000000  1
  Th  Th3  1  0.94343000  0.62101700  0.75000000  1
  Cr  Cr0  1  0.50000000  0.50000000  0.00000000  1
  Cr  Cr1  1  0.00000000  0.00000000  0.50000000  1
  Cr  Cr2  1  0.50000000  0.50000000  0.50000000  1
  Cr  Cr3  1  0.00000000  0.00000000  0.00000000  1
  Se  Se0  1  0.64126500  0.54078500  0.25000000  1
  Se  Se1  1  0.85873500  0.04078500  0.25000000  1
  Se  Se2  1  0.35873500  0.45921500  0.75000000  1
  Se  Se3  1  0.14126500  0.95921500  0.75000000  1
  Se  Se4  1  0.66757900  0.82772400  0.55611900  1
  Se  Se5  1  0.83242100  0.32772400  0.94388100  1
  Se  Se6  1  0.33242100  0.17227600  0.05611900  1
  Se  Se7  1  0.16757900  0.67227600  0.44388100  1
  Se  Se8  1  0.33242100  0.17227600  0.44388100  1
  Se  Se9  1  0.16757900  0.67227600  0.05611900  1
  Se  Se10  1  0.66757900  0.82772400  0.94388100  1
  Se  Se11  1  0.83242100  0.32772400  0.55611900  1
loop_
_geom_bond_atom_site_label_1
_geom_bond_atom_site_label_2
_geom_bond_distance
_geom_bond_site_symmetry_2
Cr0 Se2 2.538396 1_554
Cr0 Se0 2.538396 1_555
Cr0 Se5 2.599454 1_554
Cr0 Se9 2.599454 1_555
Cr0 Se10 2.815522 1_554
Cr0 Se6 2.815522 1_555
Cr1 Se3 2.538396 1_545
Cr1 Se1 2.538396 1_455
Cr1 Se4 2.599454 1_445
Cr1 Se8 2.599454 1_555
Cr1 Se11 2.815522 1_455
Cr1 Se7 2.815522 1_545
Cr2 Se2 2.538396 1_555
Cr2 Se0 2.538396 1_555
Cr2 Se11 2.599454 1_555
Cr2 Se7 2.599454 1_555
Cr2 Se4 2.815522 1_555
Cr2 Se8 2.815522 1_555
Cr3 Se3 2.538396 1_544
Cr3 Se1 2.538396 1_455
Cr3 Se10 2.599454 1_444
Cr3 Se6 2.599454 1_555
Cr3 Se9 2.815522 1_545
Cr3 Se5 2.815522 1_454
Se0 Th0 2.922226 1_555
Se0 Th1 2.983887 1_655
Se1 Th1 2.922226 1_655
Se1 Th0 2.983887 1_545
Se2 Th2 2.922226 1_555
Se2 Th3 2.983887 1_455
Se3 Th3 2.922226 1_455
Se3 Th2 2.983887 1_565
Se4 Th2 3.000034 1_565
Se4 Th3 3.017872 1_555
Se4 Th0 3.245394 1_555
Se5 Th3 3.000034 1_555
Se5 Th2 3.017872 1_555
Se5 Th1 3.245394 1_656
Se6 Th0 3.000034 1_545
Se6 Th1 3.017872 1_555
Se6 Th2 3.245394 1_554
Se7 Th1 3.000034 1_555
Se7 Th0 3.017872 1_555
Se7 Th3 3.245394 1_455
Se8 Th0 3.000034 1_545
Se8 Th1 3.017872 1_555
Se8 Th2 3.245394 1_555
Se9 Th1 3.000034 1_555
Se9 Th0 3.017872 1_555
Se9 Th3 3.245394 1_454
Se10 Th2 3.000034 1_565
Se10 Th3 3.017872 1_555
Se10 Th0 3.245394 1_556
Se11 Th3 3.000034 1_555
Se11 Th2 3.017872 1_555
Se11 Th1 3.245394 1_655
