# generated using pymatgen
data_Sb(PO3)4
_symmetry_space_group_name_H-M   'P 1'
_cell_length_a   7.43561400
_cell_length_b   7.93687579
_cell_length_c   10.03217462
_cell_angle_alpha   95.17751538
_cell_angle_beta   109.07237491
_cell_angle_gamma   113.02695348
_symmetry_Int_Tables_number   1
_chemical_formula_structural   Sb(PO3)4
_chemical_formula_sum   'Sb2 P8 O24'
_cell_volume   498.52391965
_cell_formula_units_Z   2
loop_
 _symmetry_equiv_pos_site_id
 _symmetry_equiv_pos_as_xyz
  1  'x, y, z'
loop_
 _atom_site_type_symbol
 _atom_site_label
 _atom_site_symmetry_multiplicity
 _atom_site_fract_x
 _atom_site_fract_y
 _atom_site_fract_z
 _atom_site_occupancy
  Sb  Sb0  1  0.00000000  0.00000000  0.50000000  1
  Sb  Sb1  1  0.00000000  0.50000000  0.00000000  1
  P  P0  1  0.72127400  0.73232200  0.96635100  1
  P  P1  1  0.26865600  0.73074300  0.52276600  1
  P  P2  1  0.00951300  0.35089300  0.31543400  1
  P  P3  1  0.73134400  0.26925700  0.47723400  1
  P  P4  1  0.27872600  0.26767800  0.03364900  1
  P  P5  1  0.51246600  0.68018100  0.18188900  1
  P  P6  1  0.48753400  0.31981900  0.81811100  1
  P  P7  1  0.99048700  0.64910700  0.68456600  1
  O  O0  1  0.52820200  0.53432600  0.85054400  1
  O  O1  1  0.04418700  0.63028400  0.84400800  1
  O  O2  1  0.95581300  0.36971600  0.15599200  1
  O  O3  1  0.88636600  0.66892800  0.06238900  1
  O  O4  1  0.89350000  0.20966900  0.56896500  1
  O  O5  1  0.82183600  0.35762800  0.35354800  1
  O  O6  1  0.96713900  0.82659800  0.66913000  1
  O  O7  1  0.77845100  0.46917500  0.58024900  1
  O  O8  1  0.61078900  0.77132500  0.07180000  1
  O  O9  1  0.50279600  0.14877500  0.40604600  1
  O  O10  1  0.47179800  0.46567400  0.14945600  1
  O  O11  1  0.65954700  0.78095200  0.33501600  1
  O  O12  1  0.70514200  0.31356000  0.86200800  1
  O  O13  1  0.21787500  0.11459400  0.10350000  1
  O  O14  1  0.78212500  0.88540600  0.89650000  1
  O  O15  1  0.10650000  0.79033100  0.43103500  1
  O  O16  1  0.34045300  0.21904800  0.66498400  1
  O  O17  1  0.11363400  0.33107200  0.93761100  1
  O  O18  1  0.49720400  0.85122500  0.59395400  1
  O  O19  1  0.38921100  0.22867500  0.92820000  1
  O  O20  1  0.22154900  0.53082500  0.41975100  1
  O  O21  1  0.03286100  0.17340200  0.33087000  1
  O  O22  1  0.17816400  0.64237200  0.64645200  1
  O  O23  1  0.29485800  0.68644000  0.13799200  1
loop_
_geom_bond_atom_site_label_1
_geom_bond_atom_site_label_2
_geom_bond_distance
_geom_bond_site_symmetry_2
O0 P6 1.590228 1_555
O0 P0 1.641888 1_555
O1 P7 1.553291 1_455
O1 Sb1 1.997132 1_556
O2 P2 1.553291 1_655
O2 Sb1 1.997132 1_655
O3 P0 1.576737 1_554
O3 Sb1 1.995929 1_655
O4 P3 1.524423 1_555
O4 Sb0 2.248616 1_655
O5 P2 1.581091 1_655
O5 P3 1.678654 1_555
O6 P7 1.500585 1_555
O6 Sb0 2.293921 1_665
O7 P7 1.584584 1_555
O7 P3 1.655626 1_555
O8 P5 1.592388 1_555
O8 P0 1.611726 1_554
O9 P3 1.457623 1_555
O10 P5 1.590228 1_555
O10 P4 1.641888 1_555
O11 P5 1.480416 1_555
O11 Sb0 2.338750 1_665
O12 P6 1.554234 1_555
O12 Sb1 2.005393 1_656
O13 P4 1.450113 1_555
O14 P0 1.450113 1_555
O15 P1 1.524423 1_555
O15 Sb0 2.248616 1_565
O16 P6 1.480416 1_555
O16 Sb0 2.338750 1_555
O17 P4 1.576737 1_556
O17 Sb1 1.995929 1_556
O18 P1 1.457623 1_555
O19 P6 1.592388 1_555
O19 P4 1.611726 1_556
O20 P2 1.584584 1_555
O20 P1 1.655626 1_555
O21 P2 1.500585 1_555
O21 Sb0 2.293921 1_555
O22 P7 1.581091 1_455
O22 P1 1.678654 1_555
O23 P5 1.554234 1_555
O23 Sb1 2.005393 1_555
