# generated using pymatgen
data_KMg14W
_symmetry_space_group_name_H-M   'P 1'
_cell_length_a   6.46176422
_cell_length_b   6.46176368
_cell_length_c   10.29404816
_cell_angle_alpha   90.00000000
_cell_angle_beta   90.00000000
_cell_angle_gamma   120.00000274
_symmetry_Int_Tables_number   1
_chemical_formula_structural   KMg14W
_chemical_formula_sum   'K1 Mg14 W1'
_cell_volume   372.23653248
_cell_formula_units_Z   1
loop_
 _symmetry_equiv_pos_site_id
 _symmetry_equiv_pos_as_xyz
  1  'x, y, z'
loop_
 _atom_site_type_symbol
 _atom_site_label
 _atom_site_symmetry_multiplicity
 _atom_site_fract_x
 _atom_site_fract_y
 _atom_site_fract_z
 _atom_site_occupancy
  K  K0  1  0.16666700  0.33333300  0.12500000  1
  Mg  Mg0  1  0.17728161  0.83864031  0.12500000  1
  Mg  Mg1  1  0.16034135  0.83017018  0.62500000  1
  Mg  Mg2  1  0.66135969  0.32271839  0.12500000  1
  Mg  Mg3  1  0.66982982  0.33965865  0.62500000  1
  Mg  Mg4  1  0.66135969  0.83864031  0.12500000  1
  Mg  Mg5  1  0.66982982  0.83017018  0.62500000  1
  Mg  Mg6  1  0.33068917  0.16931083  0.39888120  1
  Mg  Mg7  1  0.33068917  0.16931083  0.85111880  1
  Mg  Mg8  1  0.33068917  0.66137935  0.39888120  1
  Mg  Mg9  1  0.33068917  0.66137935  0.85111880  1
  Mg  Mg10  1  0.83862065  0.16931083  0.39888120  1
  Mg  Mg11  1  0.83862065  0.16931083  0.85111880  1
  Mg  Mg12  1  0.83333300  0.66666700  0.36930401  1
  Mg  Mg13  1  0.83333300  0.66666700  0.88069599  1
  W  W0  1  0.16666700  0.33333300  0.62500000  1
loop_
_geom_bond_atom_site_label_1
_geom_bond_atom_site_label_2
_geom_bond_distance
_geom_bond_site_symmetry_2
K0 Mg0 3.231428 1_545
K0 Mg4 3.231428 1_555
K0 Mg4 3.231428 1_445
K0 Mg0 3.231428 1_555
K0 Mg2 3.231428 1_555
K0 Mg2 3.231428 1_455
K0 Mg6 3.364328 1_555
K0 Mg7 3.364328 1_554
K0 Mg8 3.364334 1_555
K0 Mg9 3.364334 1_554
K0 Mg10 3.364334 1_455
K0 Mg11 3.364334 1_454
Mg0 Mg2 3.127998 1_565
Mg0 Mg4 3.127998 1_555
Mg0 Mg12 3.166905 1_455
Mg0 Mg13 3.166905 1_454
Mg0 Mg2 3.333766 1_455
Mg0 Mg4 3.333766 1_455
Mg0 Mg8 3.373244 1_555
Mg0 Mg9 3.373244 1_554
Mg0 Mg6 3.373250 1_565
Mg0 Mg7 3.373250 1_564
Mg1 Mg9 3.003314 1_555
Mg1 Mg8 3.003314 1_555
Mg1 Mg7 3.003321 1_565
Mg1 Mg6 3.003321 1_565
Mg1 Mg3 3.169570 1_455
Mg1 Mg5 3.169570 1_455
Mg1 Mg12 3.205766 1_455
Mg1 Mg13 3.205766 1_455
Mg1 W0 3.231076 1_565
Mg1 W0 3.231076 1_555
Mg1 Mg3 3.292194 1_565
Mg1 Mg5 3.292194 1_555
Mg2 Mg4 3.127998 1_545
Mg2 Mg4 3.333766 1_555
Mg2 Mg6 3.373250 1_555
Mg2 Mg7 3.373250 1_554
Mg3 Mg6 3.003321 1_555
Mg3 Mg7 3.003321 1_555
Mg3 Mg5 3.169570 1_555
Mg3 W0 3.231076 1_555
Mg3 W0 3.231076 1_655
Mg3 Mg5 3.292194 1_545
Mg4 Mg8 3.373250 1_555
Mg4 Mg9 3.373250 1_554
Mg5 Mg8 3.003321 1_555
Mg5 Mg9 3.003321 1_555
Mg5 W0 3.231076 1_665
Mg5 W0 3.231076 1_555
Mg6 W0 2.964469 1_555
Mg7 W0 2.964469 1_555
Mg8 W0 2.964475 1_555
Mg9 W0 2.964475 1_555
Mg10 W0 2.964475 1_655
Mg10 Mg3 3.003314 1_555
Mg10 Mg5 3.003321 1_545
Mg10 Mg12 3.245331 1_555
Mg10 Mg12 3.245331 1_545
Mg10 Mg2 3.373244 1_555
Mg10 Mg4 3.373250 1_545
Mg11 W0 2.964475 1_655
Mg11 Mg3 3.003314 1_555
Mg11 Mg5 3.003321 1_545
Mg11 Mg13 3.245331 1_555
Mg11 Mg13 3.245331 1_545
Mg11 Mg2 3.373244 1_556
Mg11 Mg4 3.373250 1_546
Mg12 Mg4 3.166898 1_555
Mg12 Mg2 3.166905 1_555
Mg12 Mg5 3.205759 1_555
Mg12 Mg3 3.205766 1_555
Mg12 Mg6 3.245331 1_665
Mg12 Mg6 3.245331 1_555
Mg12 Mg8 3.245331 1_655
Mg12 Mg8 3.245331 1_555
Mg13 Mg4 3.166898 1_556
Mg13 Mg2 3.166905 1_556
Mg13 Mg5 3.205759 1_555
Mg13 Mg3 3.205766 1_555
Mg13 Mg7 3.245331 1_665
Mg13 Mg7 3.245331 1_555
Mg13 Mg9 3.245331 1_655
Mg13 Mg9 3.245331 1_555
