# generated using pymatgen
data_MoW(SeS)2
_symmetry_space_group_name_H-M   'P 1'
_cell_length_a   3.25324764
_cell_length_b   3.25324764
_cell_length_c   36.89383700
_cell_angle_alpha   90.00000000
_cell_angle_beta   90.00000000
_cell_angle_gamma   119.99999273
_symmetry_Int_Tables_number   1
_chemical_formula_structural   MoW(SeS)2
_chemical_formula_sum   'Mo2 W2 Se4 S4'
_cell_volume   338.15727543
_cell_formula_units_Z   2
loop_
 _symmetry_equiv_pos_site_id
 _symmetry_equiv_pos_as_xyz
  1  'x, y, z'
loop_
 _atom_site_type_symbol
 _atom_site_label
 _atom_site_symmetry_multiplicity
 _atom_site_fract_x
 _atom_site_fract_y
 _atom_site_fract_z
 _atom_site_occupancy
  Mo  Mo0  1  0.00000000  0.00000000  0.09392100  1
  Mo  Mo1  1  0.33333300  0.66666700  0.65754300  1
  W  W0  1  0.00000000  0.00000000  0.46965700  1
  W  W1  1  0.33333300  0.66666700  0.28180100  1
  Se  Se0  1  0.00000000  0.00000000  0.70356900  1
  Se  Se1  1  0.33333300  0.66666700  0.42330200  1
  Se  Se2  1  0.33333300  0.66666700  0.51601400  1
  Se  Se3  1  0.00000000  0.00000000  0.61153500  1
  S  S0  1  0.00000000  0.00000000  0.32379800  1
  S  S1  1  0.33333300  0.66666700  0.05198300  1
  S  S2  1  0.33333300  0.66666700  0.13584900  1
  S  S3  1  0.00000000  0.00000000  0.23977500  1
loop_
_geom_bond_atom_site_label_1
_geom_bond_atom_site_label_2
_geom_bond_distance
_geom_bond_site_symmetry_2
Mo0 S2 2.433253 1_545
Mo0 S2 2.433255 1_445
Mo0 S2 2.433255 1_555
Mo0 S1 2.433487 1_545
Mo0 S1 2.433490 1_445
Mo0 S1 2.433490 1_555
Mo1 Se3 2.531615 1_565
Mo1 Se3 2.531617 1_555
Mo1 Se3 2.531617 1_665
Mo1 Se0 2.532060 1_565
Mo1 Se0 2.532062 1_555
Mo1 Se0 2.532062 1_665
Se1 W0 2.540216 1_565
Se1 W0 2.540218 1_555
Se1 W0 2.540218 1_665
Se2 W0 2.540266 1_565
Se2 W0 2.540268 1_555
Se2 W0 2.540268 1_665
S0 W1 2.434872 1_545
S0 W1 2.434874 1_445
S0 W1 2.434874 1_555
S3 W1 2.435553 1_545
S3 W1 2.435555 1_445
S3 W1 2.435555 1_555
