# generated using pymatgen
data_Rb3Pm
_symmetry_space_group_name_H-M   'P 1'
_cell_length_a   8.24614361
_cell_length_b   8.24614361
_cell_length_c   8.24614361
_cell_angle_alpha   136.19072627
_cell_angle_beta   136.19072627
_cell_angle_gamma   63.68560689
_symmetry_Int_Tables_number   1
_chemical_formula_structural   Rb3Pm
_chemical_formula_sum   'Rb3 Pm1'
_cell_volume   265.17922077
_cell_formula_units_Z   1
loop_
 _symmetry_equiv_pos_site_id
 _symmetry_equiv_pos_as_xyz
  1  'x, y, z'
loop_
 _atom_site_type_symbol
 _atom_site_label
 _atom_site_symmetry_multiplicity
 _atom_site_fract_x
 _atom_site_fract_y
 _atom_site_fract_z
 _atom_site_occupancy
  Rb  Rb0  1  0.75000000  0.25000000  0.50000000  1
  Rb  Rb1  1  0.25000000  0.75000000  0.50000000  1
  Rb  Rb2  1  0.50000000  0.50000000  0.00000000  1
  Pm  Pm0  1  0.00000000  0.00000000  0.00000000  1
loop_
_geom_bond_atom_site_label_1
_geom_bond_atom_site_label_2
_geom_bond_distance
_geom_bond_site_symmetry_2
Rb0 Rb1 4.350588 1_555
Rb0 Rb1 4.350588 1_645
Rb0 Rb1 4.350588 1_656
Rb0 Rb1 4.350588 1_544
Rb0 Rb2 4.661719 1_545
Rb0 Rb2 4.661719 1_555
Rb0 Rb2 4.661719 1_656
Rb0 Rb2 4.661719 1_556
Rb1 Rb2 4.661719 1_555
Rb1 Rb2 4.661719 1_566
Rb1 Rb2 4.661719 1_455
Rb1 Rb2 4.661719 1_556
Pm0 Rb2 4.350588 1_444
Pm0 Rb2 4.350588 1_545
Pm0 Rb2 4.350588 1_455
Pm0 Rb2 4.350588 1_556
Pm0 Rb0 4.661719 1_555
Pm0 Rb1 4.661719 1_555
Pm0 Rb0 4.661719 1_454
Pm0 Rb0 4.661719 1_444
Pm0 Rb1 4.661719 1_545
Pm0 Rb1 4.661719 1_444
Pm0 Rb1 4.661719 1_544
Pm0 Rb0 4.661719 1_455
