# generated using pymatgen
data_Tm2Mn(GeO3)4
_symmetry_space_group_name_H-M   'P 1'
_cell_length_a   4.99877200
_cell_length_b   9.95749682
_cell_length_c   9.95749682
_cell_angle_alpha   90.47852991
_cell_angle_beta   90.00000000
_cell_angle_gamma   90.00000000
_symmetry_Int_Tables_number   1
_chemical_formula_structural   Tm2Mn(GeO3)4
_chemical_formula_sum   'Tm4 Mn2 Ge8 O24'
_cell_volume   495.61967013
_cell_formula_units_Z   2
loop_
 _symmetry_equiv_pos_site_id
 _symmetry_equiv_pos_as_xyz
  1  'x, y, z'
loop_
 _atom_site_type_symbol
 _atom_site_label
 _atom_site_symmetry_multiplicity
 _atom_site_fract_x
 _atom_site_fract_y
 _atom_site_fract_z
 _atom_site_occupancy
  Tm  Tm0  1  0.50000000  0.00000000  0.50000000  1
  Tm  Tm1  1  0.50000000  0.50000000  0.00000000  1
  Tm  Tm2  1  0.50000000  0.75000000  0.75000000  1
  Tm  Tm3  1  0.50000000  0.25000000  0.25000000  1
  Mn  Mn0  1  0.50000000  0.50000000  0.50000000  1
  Mn  Mn1  1  0.50000000  0.00000000  0.00000000  1
  Ge  Ge0  1  0.99617400  0.74708900  0.48003700  1
  Ge  Ge1  1  0.00382600  0.25291100  0.51996300  1
  Ge  Ge2  1  0.00382600  0.24708900  0.98003700  1
  Ge  Ge3  1  0.99617400  0.75291100  0.01996300  1
  Ge  Ge4  1  0.00382600  0.48003700  0.74708900  1
  Ge  Ge5  1  0.99617400  0.51996300  0.25291100  1
  Ge  Ge6  1  0.99617400  0.98003700  0.24708900  1
  Ge  Ge7  1  0.00382600  0.01996300  0.75291100  1
  O  O0  1  0.26165600  0.56611800  0.66827900  1
  O  O1  1  0.25546700  0.06404400  0.33097500  1
  O  O2  1  0.25546700  0.43595600  0.16902500  1
  O  O3  1  0.26165600  0.93388200  0.83172100  1
  O  O4  1  0.73834400  0.43388200  0.33172100  1
  O  O5  1  0.74453300  0.93595600  0.66902500  1
  O  O6  1  0.74453300  0.56404400  0.83097500  1
  O  O7  1  0.73834400  0.06611800  0.16827900  1
  O  O8  1  0.73834400  0.66827900  0.56611800  1
  O  O9  1  0.74453300  0.33097500  0.06404400  1
  O  O10  1  0.74453300  0.16902500  0.43595600  1
  O  O11  1  0.73834400  0.83172100  0.93388200  1
  O  O12  1  0.26165600  0.33172100  0.43388200  1
  O  O13  1  0.25546700  0.66902500  0.93595600  1
  O  O14  1  0.25546700  0.83097500  0.56404400  1
  O  O15  1  0.26165600  0.16827900  0.06611800  1
  O  O16  1  0.83141400  0.36952300  0.63047700  1
  O  O17  1  0.82821200  0.87392500  0.37392500  1
  O  O18  1  0.82821200  0.62607500  0.12607500  1
  O  O19  1  0.83141400  0.13047700  0.86952300  1
  O  O20  1  0.16858600  0.63047700  0.36952300  1
  O  O21  1  0.17178800  0.12607500  0.62607500  1
  O  O22  1  0.17178800  0.37392500  0.87392500  1
  O  O23  1  0.16858600  0.86952300  0.13047700  1
loop_
_geom_bond_atom_site_label_1
_geom_bond_atom_site_label_2
_geom_bond_distance
_geom_bond_site_symmetry_2
Mn0 O0 2.154596 1_555
Mn0 O8 2.154596 1_555
Mn0 O12 2.154596 1_555
Mn0 O4 2.154596 1_555
Mn0 O16 2.479656 1_555
Mn0 O20 2.479656 1_555
Mn1 O7 2.154596 1_555
Mn1 O15 2.154596 1_555
Mn1 O11 2.154596 1_544
Mn1 O3 2.154596 1_544
Mn1 O19 2.479656 1_554
Mn1 O23 2.479656 1_545
Ge0 O8 1.738640 1_555
Ge0 O14 1.750935 1_655
Ge0 O20 1.811274 1_655
Ge0 O17 1.854384 1_555
Ge1 O12 1.738640 1_555
Ge1 O10 1.750935 1_455
Ge1 O16 1.811274 1_455
Ge1 O21 1.854384 1_555
Ge2 O15 1.738640 1_556
Ge2 O9 1.750935 1_456
Ge2 O19 1.811274 1_455
Ge2 O22 1.854384 1_555
Ge3 O11 1.738640 1_554
Ge3 O13 1.750935 1_654
Ge3 O23 1.811274 1_655
Ge3 O18 1.854384 1_555
Ge4 O0 1.738640 1_555
Ge4 O6 1.750935 1_455
Ge4 O16 1.811274 1_455
Ge4 O22 1.854384 1_555
Ge5 O4 1.738640 1_555
Ge5 O2 1.750935 1_655
Ge5 O20 1.811274 1_655
Ge5 O18 1.854384 1_555
Ge6 O7 1.738640 1_565
Ge6 O1 1.750935 1_665
Ge6 O23 1.811274 1_655
Ge6 O17 1.854384 1_555
Ge7 O3 1.738640 1_545
Ge7 O5 1.750935 1_445
Ge7 O19 1.811274 1_455
Ge7 O21 1.854384 1_555
O0 Tm2 2.325802 1_555
O1 Tm0 2.179793 1_555
O1 Tm3 2.365984 1_555
O2 Tm1 2.179793 1_555
O2 Tm3 2.365984 1_555
O3 Tm2 2.325802 1_555
O4 Tm3 2.325802 1_555
O5 Tm0 2.179793 1_565
O5 Tm2 2.365984 1_555
O6 Tm1 2.179793 1_556
O6 Tm2 2.365984 1_555
O7 Tm3 2.325802 1_555
O8 Tm2 2.325802 1_555
O9 Tm1 2.179793 1_555
O9 Tm3 2.365984 1_555
O10 Tm0 2.179793 1_555
O10 Tm3 2.365984 1_555
O11 Tm2 2.325802 1_555
O12 Tm3 2.325802 1_555
O13 Tm1 2.179793 1_556
O13 Tm2 2.365984 1_555
O14 Tm0 2.179793 1_565
O14 Tm2 2.365984 1_555
O15 Tm3 2.325802 1_555
O17 Tm0 2.411938 1_565
O18 Tm1 2.411938 1_555
O21 Tm0 2.411938 1_555
O22 Tm1 2.411938 1_556
