# generated using pymatgen
data_BiO2
_symmetry_space_group_name_H-M   'P 1'
_cell_length_a   6.19172204
_cell_length_b   6.96445637
_cell_length_c   12.50118850
_cell_angle_alpha   89.88079951
_cell_angle_beta   90.18576896
_cell_angle_gamma   89.99497757
_symmetry_Int_Tables_number   1
_chemical_formula_structural   BiO2
_chemical_formula_sum   'Bi8 O16'
_cell_volume   539.07197240
_cell_formula_units_Z   8
loop_
 _symmetry_equiv_pos_site_id
 _symmetry_equiv_pos_as_xyz
  1  'x, y, z'
loop_
 _atom_site_type_symbol
 _atom_site_label
 _atom_site_symmetry_multiplicity
 _atom_site_fract_x
 _atom_site_fract_y
 _atom_site_fract_z
 _atom_site_occupancy
  Bi  Bi0  1  0.50806000  0.75006800  0.47524300  1
  Bi  Bi1  1  0.50687000  0.74993100  0.01962700  1
  Bi  Bi2  1  0.49218300  0.24989700  0.52485700  1
  Bi  Bi3  1  0.49288800  0.25006500  0.98044300  1
  Bi  Bi4  1  0.00022500  0.49997400  0.49997400  1
  Bi  Bi5  1  0.99982500  0.00000300  0.99997100  1
  Bi  Bi6  1  0.00022000  0.00002800  0.49996900  1
  Bi  Bi7  1  0.99981900  0.50003400  0.99995800  1
  O  O0  1  0.87775300  0.75035600  0.40646900  1
  O  O1  1  0.87343100  0.74968100  0.09165000  1
  O  O2  1  0.12237000  0.24962800  0.59350000  1
  O  O3  1  0.12640600  0.25032700  0.90829500  1
  O  O4  1  0.16980900  0.74971300  0.57575400  1
  O  O5  1  0.16492400  0.75030300  0.92247200  1
  O  O6  1  0.83028300  0.25027900  0.42422600  1
  O  O7  1  0.83493900  0.24972800  0.07747400  1
  O  O8  1  0.69673700  0.52722400  0.57712200  1
  O  O9  1  0.69655700  0.97790200  0.92135500  1
  O  O10  1  0.30368900  0.02775900  0.42297900  1
  O  O11  1  0.30309900  0.47734600  0.07865300  1
  O  O12  1  0.30359600  0.47274300  0.42292600  1
  O  O13  1  0.30311300  0.02209500  0.07866900  1
  O  O14  1  0.69665400  0.97222900  0.57706500  1
  O  O15  1  0.69655100  0.52268600  0.92135100  1
loop_
_geom_bond_atom_site_label_1
_geom_bond_atom_site_label_2
_geom_bond_distance
_geom_bond_site_symmetry_2
Bi0 O14 2.318757 1_555
Bi0 O8 2.318906 1_555
Bi0 O10 2.399442 1_565
Bi0 O12 2.400241 1_555
Bi0 O4 2.445853 1_555
Bi0 O0 2.447780 1_555
Bi1 O15 2.326065 1_554
Bi1 O9 2.326160 1_554
Bi1 O13 2.395976 1_565
Bi1 O11 2.396025 1_555
Bi1 O5 2.437445 1_554
Bi1 O1 2.438996 1_555
Bi2 O10 2.318723 1_555
Bi2 O12 2.318991 1_555
Bi2 O14 2.399451 1_545
Bi2 O8 2.400368 1_555
Bi2 O6 2.445826 1_555
Bi2 O2 2.447896 1_555
Bi3 O13 2.326127 1_556
Bi3 O11 2.326136 1_556
Bi3 O9 2.395862 1_545
Bi3 O15 2.396125 1_555
Bi3 O7 2.437241 1_556
Bi3 O3 2.439114 1_555
Bi4 O12 2.122376 1_555
Bi4 O8 2.123601 1_455
Bi4 O2 2.228092 1_555
Bi4 O0 2.228836 1_455
Bi4 O4 2.241844 1_555
Bi4 O6 2.242474 1_455
Bi5 O9 2.122319 1_545
Bi5 O13 2.122896 1_656
Bi5 O1 2.227786 1_546
Bi5 O3 2.228186 1_655
Bi5 O7 2.240301 1_556
Bi5 O5 2.240747 1_645
Bi6 O10 2.122565 1_555
Bi6 O14 2.123745 1_445
Bi6 O2 2.227981 1_555
Bi6 O0 2.228833 1_445
Bi6 O4 2.241796 1_545
Bi6 O6 2.242237 1_455
Bi7 O15 2.122224 1_555
Bi7 O11 2.122815 1_656
Bi7 O1 2.227802 1_556
Bi7 O3 2.228376 1_655
Bi7 O7 2.240505 1_556
Bi7 O5 2.240780 1_655
