# generated using pymatgen
data_BaSbTe3
_symmetry_space_group_name_H-M   'P 1'
_cell_length_a   4.68859283
_cell_length_b   17.31061770
_cell_length_c   18.23603710
_cell_angle_alpha   90.00000000
_cell_angle_beta   90.00000000
_cell_angle_gamma   90.00000000
_symmetry_Int_Tables_number   1
_chemical_formula_structural   BaSbTe3
_chemical_formula_sum   'Ba8 Sb8 Te24'
_cell_volume   1480.08123106
_cell_formula_units_Z   8
loop_
 _symmetry_equiv_pos_site_id
 _symmetry_equiv_pos_as_xyz
  1  'x, y, z'
loop_
 _atom_site_type_symbol
 _atom_site_label
 _atom_site_symmetry_multiplicity
 _atom_site_fract_x
 _atom_site_fract_y
 _atom_site_fract_z
 _atom_site_occupancy
  Ba  Ba0  1  0.26325146  0.53994224  0.66792511  1
  Ba  Ba1  1  0.76325146  0.96005776  0.33207489  1
  Ba  Ba2  1  0.73674854  0.03994224  0.83207489  1
  Ba  Ba3  1  0.23674854  0.46005776  0.16792511  1
  Ba  Ba4  1  0.26702709  0.39561830  0.90519721  1
  Ba  Ba5  1  0.76702709  0.10438170  0.09480279  1
  Ba  Ba6  1  0.73297291  0.89561830  0.59480279  1
  Ba  Ba7  1  0.23297291  0.60438170  0.40519721  1
  Sb  Sb0  1  0.78530666  0.28432430  0.69848367  1
  Sb  Sb1  1  0.28530666  0.21567570  0.30151633  1
  Sb  Sb2  1  0.21469334  0.78432430  0.80151633  1
  Sb  Sb3  1  0.71469334  0.71567570  0.19848367  1
  Sb  Sb4  1  0.71252255  0.62922908  0.97235646  1
  Sb  Sb5  1  0.21252255  0.87077092  0.02764354  1
  Sb  Sb6  1  0.28747745  0.12922908  0.52764354  1
  Sb  Sb7  1  0.78747745  0.37077092  0.47235646  1
  Te  Te0  1  0.75101797  0.47428456  0.02629165  1
  Te  Te1  1  0.25101797  0.02571544  0.97370835  1
  Te  Te2  1  0.24898203  0.97428456  0.47370835  1
  Te  Te3  1  0.74898203  0.52571544  0.52629165  1
  Te  Te4  1  0.67383987  0.28792134  0.19306750  1
  Te  Te5  1  0.17383987  0.21207866  0.80693250  1
  Te  Te6  1  0.32616013  0.78792134  0.30693250  1
  Te  Te7  1  0.82616013  0.71207866  0.69306750  1
  Te  Te8  1  0.28593893  0.67760417  0.09214220  1
  Te  Te9  1  0.78593893  0.82239583  0.90785780  1
  Te  Te10  1  0.71406107  0.17760417  0.40785780  1
  Te  Te11  1  0.21406107  0.32239583  0.59214220  1
  Te  Te12  1  0.20392331  0.73693812  0.56126502  1
  Te  Te13  1  0.70392331  0.76306188  0.43873498  1
  Te  Te14  1  0.79607669  0.23693812  0.93873498  1
  Te  Te15  1  0.29607669  0.26306188  0.06126502  1
  Te  Te16  1  0.23612772  0.39747620  0.36961000  1
  Te  Te17  1  0.73612772  0.10252380  0.63039000  1
  Te  Te18  1  0.76387228  0.89747620  0.13039000  1
  Te  Te19  1  0.26387228  0.60252380  0.86961000  1
  Te  Te20  1  0.73382241  0.56681598  0.26776923  1
  Te  Te21  1  0.23382241  0.93318402  0.73223077  1
  Te  Te22  1  0.26617759  0.06681598  0.23223077  1
  Te  Te23  1  0.76617759  0.43318402  0.76776923  1
loop_
_geom_bond_atom_site_label_1
_geom_bond_atom_site_label_2
_geom_bond_distance
_geom_bond_site_symmetry_2
Ba0 Te3 3.452274 1_555
Ba0 Te23 3.487413 1_455
Ba0 Te23 3.505810 1_555
Ba0 Te3 3.541972 1_455
Ba0 Te7 3.645430 1_455
Ba0 Te19 3.834162 1_555
Ba0 Te12 3.935676 1_555
Ba0 Te7 4.006868 1_555
Ba0 Te11 4.018057 1_555
Ba1 Te2 3.452274 1_655
Ba1 Te22 3.487413 1_565
Ba1 Te22 3.505810 1_665
Ba1 Te2 3.541972 1_555
Ba1 Te6 3.645430 1_555
Ba1 Te18 3.834162 1_555
Ba1 Te13 3.935676 1_555
Ba1 Te6 4.006868 1_655
Ba1 Te10 4.018057 1_565
Ba2 Te1 3.452274 1_555
Ba2 Te21 3.487413 1_645
Ba2 Te21 3.505810 1_545
Ba2 Te1 3.541972 1_655
Ba2 Te5 3.645430 1_655
Ba2 Te17 3.834162 1_555
Ba2 Te14 3.935676 1_555
Ba2 Te5 4.006868 1_555
Ba2 Te9 4.018057 1_545
Ba3 Te0 3.452274 1_455
Ba3 Te20 3.487413 1_555
Ba3 Te20 3.505810 1_455
Ba3 Te0 3.541972 1_555
Ba3 Te4 3.645430 1_555
Ba3 Te16 3.834162 1_555
Ba3 Te15 3.935676 1_555
Ba3 Te4 4.006868 1_455
Ba3 Te8 4.018057 1_555
Ba4 Te0 3.446787 1_556
Ba4 Te23 3.490084 1_555
Ba4 Te23 3.495430 1_455
Ba4 Te0 3.547421 1_456
Ba4 Te14 3.577000 1_455
Ba4 Te19 3.640011 1_555
Ba4 Te15 3.658407 1_556
Ba4 Te5 3.673760 1_555
Ba4 Te14 3.751282 1_555
Ba5 Te1 3.446787 1_654
Ba5 Te22 3.490084 1_655
Ba5 Te22 3.495430 1_555
Ba5 Te1 3.547421 1_554
Ba5 Te15 3.577000 1_555
Ba5 Te18 3.640011 1_545
Ba5 Te14 3.658407 1_554
Ba5 Te4 3.673760 1_555
Ba5 Te15 3.751282 1_655
Ba6 Te2 3.446787 1_555
Ba6 Te21 3.490084 1_555
Ba6 Te21 3.495430 1_655
Ba6 Te2 3.547421 1_655
Ba6 Te12 3.577000 1_655
Ba6 Te17 3.640011 1_565
Ba6 Te13 3.658407 1_555
Ba6 Te7 3.673760 1_555
Ba6 Te12 3.751282 1_555
Ba7 Te3 3.446787 1_455
Ba7 Te20 3.490084 1_455
Ba7 Te20 3.495430 1_555
Ba7 Te3 3.547421 1_555
Ba7 Te13 3.577000 1_555
Ba7 Te16 3.640011 1_555
Ba7 Te12 3.658407 1_555
Ba7 Te6 3.673760 1_555
Ba7 Te13 3.751282 1_455
Sb0 Te11 2.869867 1_655
Sb0 Te23 2.871347 1_555
Sb0 Te5 2.965425 1_655
Sb0 Te11 3.371722 1_555
Sb0 Te17 3.391053 1_555
Sb1 Te10 2.869867 1_555
Sb1 Te22 2.871347 1_555
Sb1 Te4 2.965425 1_555
Sb1 Te10 3.371722 1_455
Sb1 Te16 3.391053 1_555
Sb2 Te9 2.869867 1_455
Sb2 Te21 2.871347 1_555
Sb2 Te7 2.965425 1_455
Sb2 Te9 3.371722 1_555
Sb2 Te19 3.391053 1_555
Sb3 Te8 2.869867 1_555
Sb3 Te20 2.871347 1_555
Sb3 Te6 2.965425 1_555
Sb3 Te8 3.371722 1_655
Sb3 Te18 3.391053 1_555
Sb4 Te19 2.854696 1_555
Sb4 Te0 2.862533 1_556
Sb4 Te8 3.077861 1_556
Sb4 Te19 3.225976 1_655
Sb5 Te18 2.854696 1_455
Sb5 Te1 2.862533 1_564
Sb5 Te9 3.077861 1_454
Sb5 Te18 3.225976 1_555
Sb6 Te17 2.854696 1_555
Sb6 Te2 2.862533 1_545
Sb6 Te10 3.077861 1_555
Sb6 Te17 3.225976 1_455
Sb7 Te16 2.854696 1_655
Sb7 Te3 2.862533 1_555
Sb7 Te11 3.077861 1_655
Sb7 Te16 3.225976 1_555
Te12 Te7 3.016510 1_455
Te12 Te13 3.270023 1_555
Te12 Te13 3.270023 1_455
Te13 Te6 3.016510 1_555
Te14 Te5 3.016510 1_655
Te14 Te15 3.270023 1_556
Te14 Te15 3.270023 1_656
Te15 Te4 3.016510 1_555
