# generated using pymatgen
data_CaWO2
_symmetry_space_group_name_H-M   'P 1'
_cell_length_a   9.36626652
_cell_length_b   9.36626652
_cell_length_c   9.95475715
_cell_angle_alpha   66.51916051
_cell_angle_beta   66.51916051
_cell_angle_gamma   20.36074581
_symmetry_Int_Tables_number   1
_chemical_formula_structural   CaWO2
_chemical_formula_sum   'Ca4 W4 O8'
_cell_volume   277.83743041
_cell_formula_units_Z   4
loop_
 _symmetry_equiv_pos_site_id
 _symmetry_equiv_pos_as_xyz
  1  'x, y, z'
loop_
 _atom_site_type_symbol
 _atom_site_label
 _atom_site_symmetry_multiplicity
 _atom_site_fract_x
 _atom_site_fract_y
 _atom_site_fract_z
 _atom_site_occupancy
  Ca  Ca0  1  0.65817100  0.65817100  0.31047500  1
  Ca  Ca1  1  0.34182900  0.34182900  0.68952500  1
  Ca  Ca2  1  0.98928900  0.98928900  0.22847600  1
  Ca  Ca3  1  0.01071100  0.01071100  0.77152400  1
  W  W0  1  0.34528800  0.34528800  0.99632300  1
  W  W1  1  0.81050700  0.81050700  0.35450700  1
  W  W2  1  0.18949300  0.18949300  0.64549300  1
  W  W3  1  0.65471200  0.65471200  0.00367700  1
  O  O0  1  0.19610500  0.19610500  0.85599300  1
  O  O1  1  0.60589400  0.60589400  0.68529000  1
  O  O2  1  0.39410600  0.39410600  0.31471000  1
  O  O3  1  0.80389500  0.80389500  0.14400700  1
  O  O4  1  0.87536600  0.87536600  0.82810400  1
  O  O5  1  0.22077700  0.22077700  0.40630700  1
  O  O6  1  0.12463400  0.12463400  0.17189600  1
  O  O7  1  0.77922300  0.77922300  0.59369300  1
loop_
_geom_bond_atom_site_label_1
_geom_bond_atom_site_label_2
_geom_bond_distance
_geom_bond_site_symmetry_2
Ca0 O6 2.390945 1_655
Ca0 O6 2.390945 1_565
Ca0 O5 2.423763 1_655
Ca0 O5 2.423763 1_565
Ca0 O3 2.521948 1_555
Ca1 O4 2.390945 1_545
Ca1 O4 2.390945 1_455
Ca1 O7 2.423763 1_455
Ca1 O7 2.423763 1_545
Ca1 O0 2.521948 1_555
Ca2 O2 2.310325 1_565
Ca2 O2 2.310325 1_655
Ca2 O6 2.325186 1_665
Ca3 O1 2.310325 1_545
Ca3 O1 2.310325 1_455
Ca3 O4 2.325186 1_445
O0 W3 2.139153 1_456
O0 W3 2.139153 1_546
O0 W2 2.147722 1_555
O1 W2 2.186076 1_655
O1 W2 2.186076 1_565
O2 W1 2.186076 1_545
O2 W1 2.186076 1_455
O3 W0 2.139153 1_654
O3 W0 2.139153 1_564
O3 W1 2.147722 1_555
O4 W0 2.258417 1_565
O4 W0 2.258417 1_655
O5 W2 2.211359 1_555
O5 W1 2.247849 1_455
O5 W1 2.247849 1_545
O6 W3 2.258417 1_545
O6 W3 2.258417 1_455
O7 W1 2.211359 1_555
O7 W2 2.247849 1_565
O7 W2 2.247849 1_655
