# generated using pymatgen
data_LaFe(Ni2Ge)4
_symmetry_space_group_name_H-M   'P 1'
_cell_length_a   8.13715393
_cell_length_b   8.11031766
_cell_length_c   7.93748307
_cell_angle_alpha   60.92472840
_cell_angle_beta   60.58667890
_cell_angle_gamma   58.48859270
_symmetry_Int_Tables_number   1
_chemical_formula_structural   LaFe(Ni2Ge)4
_chemical_formula_sum   'La2 Fe2 Ni16 Ge8'
_cell_volume   370.01855787
_cell_formula_units_Z   2
loop_
 _symmetry_equiv_pos_site_id
 _symmetry_equiv_pos_as_xyz
  1  'x, y, z'
loop_
 _atom_site_type_symbol
 _atom_site_label
 _atom_site_symmetry_multiplicity
 _atom_site_fract_x
 _atom_site_fract_y
 _atom_site_fract_z
 _atom_site_occupancy
  La  La0  1  0.24748100  0.24748100  0.25251900  1
  La  La1  1  0.74748100  0.74748100  0.75251900  1
  Fe  Fe0  1  0.80199300  0.55820800  0.19800700  1
  Fe  Fe1  1  0.55820800  0.80199300  0.44179200  1
  Ni  Ni0  1  0.06958900  0.93057200  0.29706700  1
  Ni  Ni1  1  0.93057200  0.06958900  0.70277200  1
  Ni  Ni2  1  0.56948800  0.43207200  0.20309000  1
  Ni  Ni3  1  0.43207200  0.56948800  0.79534900  1
  Ni  Ni4  1  0.79691000  0.20465100  0.43051200  1
  Ni  Ni5  1  0.20465100  0.79691000  0.56792800  1
  Ni  Ni6  1  0.70293300  0.29722800  0.93041100  1
  Ni  Ni7  1  0.29722800  0.70293300  0.06942800  1
  Ni  Ni8  1  0.00154900  0.00154900  0.99845100  1
  Ni  Ni9  1  0.49981100  0.49981100  0.50018900  1
  Ni  Ni10  1  0.30676500  0.05577300  0.94422700  1
  Ni  Ni11  1  0.05577300  0.30676500  0.69323500  1
  Ni  Ni12  1  0.19209000  0.44472300  0.80791000  1
  Ni  Ni13  1  0.44472300  0.19209000  0.55527700  1
  Ni  Ni14  1  0.69504600  0.94570600  0.05429400  1
  Ni  Ni15  1  0.94570600  0.69504600  0.30495400  1
  Ge  Ge0  1  0.29559700  0.94777100  0.70440300  1
  Ge  Ge1  1  0.94777100  0.29559700  0.05222900  1
  Ge  Ge2  1  0.79533100  0.45195700  0.54804300  1
  Ge  Ge3  1  0.45195700  0.79533100  0.20466900  1
  Ge  Ge4  1  0.70507200  0.04818500  0.29492800  1
  Ge  Ge5  1  0.04818500  0.70507200  0.95181500  1
  Ge  Ge6  1  0.20643400  0.54958200  0.45041800  1
  Ge  Ge7  1  0.54958200  0.20643400  0.79356600  1
loop_
_geom_bond_atom_site_label_1
_geom_bond_atom_site_label_2
_geom_bond_distance
_geom_bond_site_symmetry_2
La0 Ni10 3.223759 1_554
La0 Ni11 3.223759 1_555
La0 Ni14 3.244401 1_545
La0 Ni15 3.244401 1_455
La0 Ni13 3.246274 1_555
La0 Ni12 3.246274 1_554
La0 Ni4 3.365340 1_455
La0 Ni5 3.365341 1_545
La0 Ni0 3.365949 1_545
La0 Ni1 3.365949 1_455
La0 Ni6 3.418812 1_554
La0 Ni7 3.418812 1_555
La0 Ni2 3.432304 1_555
La0 Ni3 3.432308 1_554
La1 Ni11 3.223759 1_655
La1 Ni10 3.223759 1_565
La1 Ni15 3.244401 1_555
La1 Ni14 3.244401 1_556
La1 Ni13 3.246274 1_565
La1 Ni12 3.246274 1_655
La1 Ni2 3.365343 1_556
La1 Ni3 3.365347 1_555
La1 Ni6 3.365949 1_555
La1 Ni7 3.365949 1_556
La1 Ni0 3.418812 1_655
La1 Ni1 3.418812 1_565
La1 Ni4 3.432310 1_565
La1 Ni5 3.432312 1_655
Fe0 Ge5 2.374372 1_654
Fe0 Ge1 2.385036 1_555
Fe0 Ge2 2.457427 1_555
Fe0 Ge3 2.457427 1_555
Fe0 Ni9 2.518725 1_555
Fe0 Ni4 2.556488 1_555
Fe0 Ni2 2.556495 1_555
Fe0 Ni14 2.562644 1_555
Fe0 Ni15 2.562644 1_555
Fe0 Fe1 2.727073 1_555
Fe0 La1 3.257305 1_554
Fe0 La0 3.257305 1_655
Fe1 Ge4 2.374372 1_565
Fe1 Ge0 2.385036 1_555
Fe1 Ge2 2.457427 1_555
Fe1 Ge3 2.457427 1_555
Fe1 Ni9 2.518725 1_555
Fe1 Ni5 2.556487 1_555
Fe1 Ni3 2.556490 1_555
Fe1 Ni15 2.562644 1_555
Fe1 Ni14 2.562644 1_555
Fe1 La1 3.257305 1_555
Fe1 La0 3.257305 1_565
Ni0 Ni4 2.410493 1_465
Ni0 Ni5 2.411540 1_555
Ni0 Ni8 2.426049 1_564
Ni0 Ni7 2.546458 1_555
Ni0 Ni15 2.550214 1_455
Ni0 Ni10 2.564185 1_564
Ni1 Ni5 2.410489 1_645
Ni1 Ni4 2.411533 1_555
Ni1 Ni8 2.426049 1_655
Ni1 Ni6 2.546458 1_555
Ni1 Ni14 2.550214 1_546
Ni1 Ni11 2.564185 1_655
Ni2 Ni9 2.409313 1_555
Ni2 Ni6 2.410487 1_554
Ni2 Ni7 2.411535 1_555
Ni2 Ni4 2.561698 1_555
Ni3 Ni9 2.409305 1_555
Ni3 Ni7 2.410495 1_556
Ni3 Ni6 2.411539 1_555
Ni3 Ni5 2.561687 1_555
Ni4 Ni9 2.409308 1_555
Ni5 Ni9 2.409310 1_555
Ni6 Ni8 2.426049 1_655
Ni7 Ni8 2.426049 1_564
Ni10 Ni8 2.540612 1_555
Ni10 Ni7 2.564185 1_546
Ni11 Ni8 2.540612 1_555
Ni11 Ni6 2.564185 1_455
Ni12 Ni9 2.556761 1_555
Ni12 Ni3 2.573604 1_555
Ni12 Ni5 2.573610 1_555
Ni13 Ni9 2.556761 1_555
Ni13 Ni2 2.573608 1_555
Ni13 Ni4 2.573611 1_555
Ni14 Ni6 2.550214 1_564
Ni14 Ni8 2.553777 1_664
Ni14 Ni15 2.823452 1_555
Ni15 Ni7 2.550214 1_655
Ni15 Ni8 2.553777 1_664
Ge0 Ni13 2.371294 1_565
Ge0 Ni8 2.403352 1_565
Ge0 Ni5 2.498052 1_555
Ge0 Ni3 2.498059 1_555
Ge0 Ni11 2.504580 1_565
Ge0 Ni10 2.504580 1_565
Ge0 Ni7 2.599322 1_556
Ge0 Ni1 2.599322 1_465
Ge0 La1 3.292083 1_555
Ge0 La0 3.292083 1_565
Ge1 Ni12 2.371294 1_654
Ge1 Ni8 2.403352 1_654
Ge1 Ni2 2.498059 1_555
Ge1 Ni4 2.498059 1_555
Ge1 Ni10 2.504580 1_654
Ge1 Ni11 2.504580 1_654
Ge1 Ni0 2.599322 1_645
Ge1 Ni6 2.599322 1_554
Ge1 La1 3.292083 1_554
Ge1 La0 3.292083 1_655
Ge2 Ni15 2.369119 1_555
Ge2 Ni11 2.382710 1_655
Ge2 Ni9 2.419860 1_555
Ge2 Ni1 2.528789 1_555
Ge2 Ni6 2.528789 1_555
Ge2 Ni4 2.583275 1_555
Ge2 Ni3 2.583279 1_555
Ge2 La1 3.273378 1_555
Ge2 La0 3.273378 1_655
Ge3 Ni14 2.369119 1_555
Ge3 Ni10 2.382710 1_564
Ge3 Ni9 2.419860 1_555
Ge3 Ni0 2.528789 1_555
Ge3 Ni7 2.528789 1_555
Ge3 Ni5 2.583280 1_555
Ge3 Ni2 2.583282 1_555
Ge3 La1 3.273378 1_554
Ge3 La0 3.273378 1_565
Ge4 Ni13 2.362233 1_555
Ge4 Ni8 2.415788 1_654
Ge4 Ni15 2.472347 1_545
Ge4 Ni14 2.472347 1_545
Ge4 Ni2 2.536833 1_555
Ge4 Ni4 2.536840 1_555
Ge4 Ni0 2.604655 1_645
Ge4 Ni6 2.604655 1_554
Ge4 La1 3.316811 1_545
Ge4 La0 3.316811 1_555
Ge5 Ni12 2.362233 1_555
Ge5 Ni8 2.415788 1_565
Ge5 Ni15 2.472347 1_456
Ge5 Ni14 2.472347 1_456
Ge5 Ni5 2.536834 1_555
Ge5 Ni3 2.536834 1_555
Ge5 Ni1 2.604655 1_465
Ge5 Ni7 2.604655 1_556
Ge5 La1 3.316811 1_455
Ge5 La0 3.316811 1_556
Ge6 Ni11 2.368509 1_555
Ge6 Ni15 2.385747 1_455
Ge6 Ni9 2.404579 1_555
Ge6 Ni12 2.494353 1_555
Ge6 Ni13 2.494353 1_555
Ge6 Ni0 2.519603 1_555
Ge6 Ni7 2.519603 1_555
Ge6 Ni2 2.582357 1_555
Ge6 Ni5 2.582362 1_555
Ge6 La0 3.309387 1_555
Ge6 La1 3.309387 1_455
Ge7 Ni10 2.368509 1_555
Ge7 Ni14 2.385747 1_546
Ge7 Ni9 2.404579 1_555
Ge7 Ni13 2.494353 1_555
Ge7 Ni12 2.494353 1_555
Ge7 Ni6 2.519603 1_555
Ge7 Ni1 2.519603 1_555
Ge7 Ni3 2.582354 1_555
Ge7 Ni4 2.582356 1_555
Ge7 La0 3.309387 1_556
Ge7 La1 3.309387 1_545
