# generated using pymatgen
data_Na2ZnFeF7
_symmetry_space_group_name_H-M   'P 1'
_cell_length_a   7.41292246
_cell_length_b   7.41292246
_cell_length_c   24.92823890
_cell_angle_alpha   81.76709746
_cell_angle_beta   81.76709746
_cell_angle_gamma   60.55547468
_symmetry_Int_Tables_number   1
_chemical_formula_structural   Na2ZnFeF7
_chemical_formula_sum   'Na16 Zn8 Fe8 F56'
_cell_volume   1176.38873120
_cell_formula_units_Z   8
loop_
 _symmetry_equiv_pos_site_id
 _symmetry_equiv_pos_as_xyz
  1  'x, y, z'
loop_
 _atom_site_type_symbol
 _atom_site_label
 _atom_site_symmetry_multiplicity
 _atom_site_fract_x
 _atom_site_fract_y
 _atom_site_fract_z
 _atom_site_occupancy
  Na  Na0  1  0.00000000  0.00000000  0.00000000  1
  Na  Na1  1  0.00000000  0.00000000  0.50000000  1
  Na  Na2  1  0.50000000  0.50000000  0.00000000  1
  Na  Na3  1  0.50000000  0.50000000  0.50000000  1
  Na  Na4  1  0.00000000  0.50000000  0.50000000  1
  Na  Na5  1  0.50000000  0.00000000  0.00000000  1
  Na  Na6  1  0.21363700  0.78636300  0.75000000  1
  Na  Na7  1  0.78636300  0.21363700  0.25000000  1
  Na  Na8  1  0.20345600  0.30064300  0.75153200  1
  Na  Na9  1  0.69935700  0.79654400  0.74846800  1
  Na  Na10  1  0.79654400  0.69935700  0.24846800  1
  Na  Na11  1  0.30064300  0.20345600  0.25153200  1
  Na  Na12  1  0.86134900  0.88709800  0.87844700  1
  Na  Na13  1  0.11290200  0.13865100  0.62155300  1
  Na  Na14  1  0.13865100  0.11290200  0.12155300  1
  Na  Na15  1  0.88709800  0.86134900  0.37844700  1
  Zn  Zn0  1  0.38669400  0.86539900  0.37446100  1
  Zn  Zn1  1  0.13460100  0.61330600  0.12553900  1
  Zn  Zn2  1  0.61330600  0.13460100  0.62553900  1
  Zn  Zn3  1  0.86539900  0.38669400  0.87446100  1
  Zn  Zn4  1  0.38576900  0.36923800  0.37197900  1
  Zn  Zn5  1  0.63076200  0.61423100  0.12802100  1
  Zn  Zn6  1  0.61423100  0.63076200  0.62802100  1
  Zn  Zn7  1  0.36923800  0.38576900  0.87197900  1
  Fe  Fe0  1  0.88826000  0.36357800  0.37484800  1
  Fe  Fe1  1  0.63642200  0.11174000  0.12515200  1
  Fe  Fe2  1  0.11174000  0.63642200  0.62515200  1
  Fe  Fe3  1  0.36357800  0.88826000  0.87484800  1
  Fe  Fe4  1  0.24714500  0.75285500  0.25000000  1
  Fe  Fe5  1  0.75285500  0.24714500  0.75000000  1
  Fe  Fe6  1  0.50000000  0.00000000  0.50000000  1
  Fe  Fe7  1  0.00000000  0.50000000  0.00000000  1
  F  F0  1  0.81417300  0.36370900  0.45452800  1
  F  F1  1  0.63629100  0.18582700  0.04547200  1
  F  F2  1  0.18582700  0.63629100  0.54547200  1
  F  F3  1  0.36370900  0.81417300  0.95452800  1
  F  F4  1  0.96963600  0.36048600  0.29568100  1
  F  F5  1  0.63951400  0.03036400  0.20431900  1
  F  F6  1  0.03036400  0.63951400  0.70431900  1
  F  F7  1  0.36048600  0.96963600  0.79568100  1
  F  F8  1  0.13907200  0.02597100  0.20954300  1
  F  F9  1  0.97402900  0.86092800  0.29045700  1
  F  F10  1  0.86092800  0.97402900  0.79045700  1
  F  F11  1  0.02597100  0.13907200  0.70954300  1
  F  F12  1  0.79360000  0.86652700  0.46821900  1
  F  F13  1  0.13347300  0.20640000  0.03178100  1
  F  F14  1  0.20640000  0.13347300  0.53178100  1
  F  F15  1  0.86652700  0.79360000  0.96821900  1
  F  F16  1  0.30682800  0.64213600  0.39998600  1
  F  F17  1  0.35786400  0.69317200  0.10001400  1
  F  F18  1  0.69317200  0.35786400  0.60001400  1
  F  F19  1  0.64213600  0.30682800  0.89998600  1
  F  F20  1  0.45640900  0.09470000  0.34606400  1
  F  F21  1  0.36180400  0.86182100  0.29419300  1
  F  F22  1  0.90530000  0.54359100  0.15393600  1
  F  F23  1  0.09470000  0.45640900  0.84606400  1
  F  F24  1  0.69849600  0.66090200  0.35995200  1
  F  F25  1  0.33909800  0.30150400  0.14004800  1
  F  F26  1  0.30150400  0.33909800  0.64004800  1
  F  F27  1  0.66090200  0.69849600  0.85995200  1
  F  F28  1  0.07382600  0.06589800  0.39118700  1
  F  F29  1  0.93410200  0.92617400  0.10881300  1
  F  F30  1  0.92617400  0.93410200  0.60881300  1
  F  F31  1  0.06589800  0.07382600  0.89118700  1
  F  F32  1  0.25524600  0.42095300  0.95264100  1
  F  F33  1  0.57904700  0.74475400  0.54735900  1
  F  F34  1  0.74475400  0.57904700  0.04735900  1
  F  F35  1  0.42095300  0.25524600  0.45264100  1
  F  F36  1  0.47427300  0.36208800  0.79044400  1
  F  F37  1  0.63791200  0.52572700  0.70955600  1
  F  F38  1  0.52572700  0.63791200  0.20955600  1
  F  F39  1  0.36208800  0.47427300  0.29044400  1
  F  F40  1  0.27017900  0.69854300  0.85837400  1
  F  F41  1  0.30145700  0.72982100  0.64162600  1
  F  F42  1  0.72982100  0.30145700  0.14162600  1
  F  F43  1  0.69854300  0.27017900  0.35837400  1
  F  F44  1  0.46179600  0.07538000  0.89011100  1
  F  F45  1  0.92462000  0.53820400  0.60988900  1
  F  F46  1  0.53820400  0.92462000  0.10988900  1
  F  F47  1  0.07538000  0.46179600  0.39011100  1
  F  F48  1  0.86354900  0.41680400  0.95483000  1
  F  F49  1  0.58319600  0.13645100  0.54517000  1
  F  F50  1  0.13645100  0.58319600  0.04517000  1
  F  F51  1  0.41680400  0.86354900  0.45483000  1
  F  F52  1  0.86182100  0.36180400  0.79419300  1
  F  F53  1  0.63819600  0.13817900  0.70580700  1
  F  F54  1  0.13817900  0.63819600  0.20580700  1
  F  F55  1  0.54359100  0.90530000  0.65393600  1
loop_
_geom_bond_atom_site_label_1
_geom_bond_atom_site_label_2
_geom_bond_distance
_geom_bond_site_symmetry_2
F0 Fe0 1.983570 1_555
F0 Na3 2.233425 1_555
F0 Na4 2.519263 1_655
F0 Na1 2.524310 1_655
F1 Fe1 1.983570 1_555
F1 Na2 2.233425 1_555
F1 Na5 2.519263 1_555
F1 Na0 2.524310 1_655
F2 Fe2 1.983570 1_555
F2 Na3 2.233425 1_555
F2 Na4 2.519263 1_555
F2 Na1 2.524310 1_565
F3 Fe3 1.983570 1_555
F3 Na2 2.233425 1_556
F3 Na5 2.519263 1_566
F3 Na0 2.524310 1_566
F4 Fe0 1.979270 1_555
F4 Na11 2.317835 1_655
F4 Na10 2.399722 1_555
F4 Na7 2.565081 1_555
F5 Fe1 1.979270 1_555
F5 Na10 2.317835 1_545
F5 Na11 2.399722 1_555
F5 Na7 2.565081 1_555
F6 Fe2 1.979270 1_555
F6 Na9 2.317835 1_455
F6 Na8 2.399722 1_555
F6 Na6 2.565081 1_555
F7 Fe3 1.979270 1_555
F7 Na8 2.317835 1_565
F7 Na9 2.399722 1_555
F7 Na6 2.565081 1_555
F8 Fe4 1.951885 1_545
F8 Na14 2.195816 1_555
F8 Na7 2.420565 1_455
F8 Na11 2.562004 1_555
F9 Fe4 1.951885 1_655
F9 Na15 2.195816 1_555
F9 Na7 2.420565 1_565
F9 Na10 2.562004 1_555
F10 Fe5 1.951885 1_565
F10 Na12 2.195816 1_555
F10 Na6 2.420565 1_655
F10 Na9 2.562004 1_555
F11 Fe5 1.951885 1_455
F11 Na13 2.195816 1_555
F11 Na6 2.420565 1_545
F11 Na8 2.562004 1_555
F12 Fe6 1.989220 1_565
F12 Na15 2.245906 1_555
F12 Na4 2.448358 1_655
F12 Na1 2.451041 1_665
F13 Fe7 1.989220 1_555
F13 Na14 2.245906 1_555
F13 Na5 2.448358 1_555
F13 Na0 2.451041 1_555
F14 Fe6 1.989220 1_555
F14 Na13 2.245906 1_555
F14 Na4 2.448358 1_555
F14 Na1 2.451041 1_555
F15 Fe7 1.989220 1_656
F15 Na12 2.245906 1_555
F15 Na5 2.448358 1_566
F15 Na0 2.451041 1_666
F16 Zn4 2.011442 1_555
F16 Zn0 2.012056 1_555
F16 Na3 2.857161 1_555
F17 Zn5 2.011442 1_555
F17 Zn1 2.012056 1_555
F17 Na2 2.857161 1_555
F18 Zn6 2.011442 1_555
F18 Zn2 2.012056 1_555
F18 Na3 2.857161 1_555
F19 Zn7 2.011442 1_555
F19 Zn3 2.012056 1_555
F19 Na2 2.857161 1_556
F20 Zn4 2.016232 1_555
F20 Zn0 2.017854 1_545
F20 Na11 2.618468 1_555
F21 Fe4 1.945909 1_555
F21 Zn0 2.040650 1_555
F21 Na11 2.447046 1_565
F22 Zn5 2.016232 1_555
F22 Zn1 2.017854 1_655
F22 Na10 2.618468 1_555
F23 Zn7 2.016232 1_555
F23 Zn3 2.017854 1_455
F23 Na8 2.618468 1_555
F24 Fe0 1.959969 1_555
F24 Zn0 2.060096 1_555
F24 Na15 2.607368 1_555
F24 Na10 2.780513 1_555
F25 Fe1 1.959969 1_555
F25 Zn1 2.060096 1_555
F25 Na14 2.607368 1_555
F25 Na11 2.780513 1_555
F26 Fe2 1.959969 1_555
F26 Zn2 2.060096 1_555
F26 Na13 2.607368 1_555
F26 Na8 2.780513 1_555
F27 Fe3 1.959969 1_555
F27 Zn3 2.060096 1_555
F27 Na12 2.607368 1_555
F27 Na9 2.780513 1_555
F28 Fe0 1.961187 1_455
F28 Zn0 2.067213 1_545
F28 Na15 2.577479 1_445
F28 Na1 2.711840 1_555
F29 Fe1 1.961187 1_565
F29 Zn1 2.067213 1_655
F29 Na14 2.577479 1_665
F29 Na0 2.711840 1_665
F30 Fe2 1.961187 1_655
F30 Zn2 2.067213 1_565
F30 Na13 2.577479 1_665
F30 Na1 2.711840 1_665
F31 Fe3 1.961187 1_545
F31 Zn3 2.067213 1_455
F31 Na12 2.577479 1_445
F31 Na0 2.711840 1_556
F32 Fe7 1.945651 1_556
F32 Zn7 2.066913 1_555
F32 Na2 2.624076 1_556
F32 Na5 2.900886 1_556
F33 Fe6 1.945651 1_565
F33 Zn6 2.066913 1_555
F33 Na3 2.624076 1_555
F33 Na4 2.900886 1_655
F34 Fe7 1.945651 1_655
F34 Zn5 2.066913 1_555
F34 Na2 2.624076 1_555
F34 Na5 2.900886 1_565
F35 Fe6 1.945651 1_555
F35 Zn4 2.066913 1_555
F35 Na3 2.624076 1_555
F35 Na4 2.900886 1_555
F36 Fe5 1.981644 1_555
F36 Zn7 2.069488 1_555
F36 Na8 2.600361 1_555
F36 Na6 2.883852 1_555
F37 Fe5 1.981644 1_555
F37 Zn6 2.069488 1_555
F37 Na9 2.600361 1_555
F37 Na6 2.883852 1_555
F38 Fe4 1.981644 1_555
F38 Zn5 2.069488 1_555
F38 Na10 2.600361 1_555
F38 Na7 2.883852 1_555
F39 Fe4 1.981644 1_555
F39 Zn4 2.069488 1_555
F39 Na11 2.600361 1_555
F39 Na7 2.883852 1_555
F40 Fe3 1.957038 1_555
F40 Zn7 2.049935 1_555
F40 Na12 2.643870 1_455
F40 Na6 2.729527 1_555
F41 Fe2 1.957038 1_555
F41 Zn6 2.049935 1_555
F41 Na13 2.643870 1_565
F41 Na6 2.729527 1_555
F42 Fe1 1.957038 1_555
F42 Zn5 2.049935 1_555
F42 Na14 2.643870 1_655
F42 Na7 2.729527 1_555
F43 Fe0 1.957038 1_555
F43 Zn4 2.049935 1_555
F43 Na15 2.643870 1_545
F43 Na7 2.729527 1_555
F44 Fe3 1.955081 1_545
F44 Zn7 2.051345 1_555
F44 Na12 2.571077 1_545
F44 Na5 2.743107 1_556
F45 Fe2 1.955081 1_655
F45 Zn6 2.051345 1_555
F45 Na13 2.571077 1_655
F45 Na4 2.743107 1_655
F46 Fe1 1.955081 1_565
F46 Zn5 2.051345 1_555
F46 Na14 2.571077 1_565
F46 Na5 2.743107 1_565
F47 Fe0 1.955081 1_455
F47 Zn4 2.051345 1_555
F47 Na15 2.571077 1_455
F47 Na4 2.743107 1_555
F48 Fe7 1.951863 1_656
F48 Zn3 2.044759 1_555
F48 Na2 2.570369 1_556
F48 Na0 2.845111 1_656
F49 Fe6 1.951863 1_555
F49 Zn2 2.044759 1_555
F49 Na3 2.570369 1_555
F49 Na1 2.845111 1_655
F50 Fe7 1.951863 1_555
F50 Zn1 2.044759 1_555
F50 Na2 2.570369 1_555
F50 Na0 2.845111 1_565
F51 Fe6 1.951863 1_565
F51 Zn0 2.044759 1_555
F51 Na3 2.570369 1_555
F51 Na1 2.845111 1_565
F52 Fe5 1.945909 1_555
F52 Zn3 2.040650 1_555
F52 Na8 2.447046 1_655
F53 Fe5 1.945909 1_555
F53 Zn2 2.040650 1_555
F53 Na9 2.447046 1_545
F54 Fe4 1.945909 1_555
F54 Zn1 2.040650 1_555
F54 Na10 2.447046 1_455
F55 Zn6 2.016232 1_555
F55 Zn2 2.017854 1_565
F55 Na9 2.618468 1_555
