# generated using pymatgen
data_Nd3Ni7P5
_symmetry_space_group_name_H-M   'P 1'
_cell_length_a   3.92349900
_cell_length_b   16.55505500
_cell_length_c   16.57713210
_cell_angle_alpha   60.08679465
_cell_angle_beta   90.00000000
_cell_angle_gamma   90.00000000
_symmetry_Int_Tables_number   1
_chemical_formula_structural   Nd3Ni7P5
_chemical_formula_sum   'Nd12 Ni28 P20'
_cell_volume   933.30453127
_cell_formula_units_Z   4
loop_
 _symmetry_equiv_pos_site_id
 _symmetry_equiv_pos_as_xyz
  1  'x, y, z'
loop_
 _atom_site_type_symbol
 _atom_site_label
 _atom_site_symmetry_multiplicity
 _atom_site_fract_x
 _atom_site_fract_y
 _atom_site_fract_z
 _atom_site_occupancy
  Nd  Nd0  1  0.00000000  0.38383800  0.44078100  1
  Nd  Nd1  1  0.00000000  0.44106300  0.17585300  1
  Nd  Nd2  1  0.00000000  0.17514600  0.38405800  1
  Nd  Nd3  1  0.50000000  0.61638500  0.55841300  1
  Nd  Nd4  1  0.50000000  0.55910800  0.82481200  1
  Nd  Nd5  1  0.50000000  0.82457500  0.61636900  1
  Nd  Nd6  1  0.00000000  0.11959300  0.64697200  1
  Nd  Nd7  1  0.00000000  0.64660400  0.23386200  1
  Nd  Nd8  1  0.00000000  0.23585500  0.12033700  1
  Nd  Nd9  1  0.50000000  0.87846500  0.35530900  1
  Nd  Nd10  1  0.50000000  0.35427900  0.76528800  1
  Nd  Nd11  1  0.50000000  0.76612900  0.88012900  1
  Ni  Ni0  1  0.00000000  0.30033800  0.65649800  1
  Ni  Ni1  1  0.00000000  0.65781600  0.04264100  1
  Ni  Ni2  1  0.00000000  0.04153700  0.30192800  1
  Ni  Ni3  1  0.50000000  0.69644100  0.34667000  1
  Ni  Ni4  1  0.50000000  0.34408800  0.95779200  1
  Ni  Ni5  1  0.50000000  0.95678800  0.69679700  1
  Ni  Ni6  1  0.00000000  0.93252400  0.82599300  1
  Ni  Ni7  1  0.00000000  0.82541100  0.24185000  1
  Ni  Ni8  1  0.00000000  0.24853200  0.92631000  1
  Ni  Ni9  1  0.50000000  0.07421900  0.17534400  1
  Ni  Ni10  1  0.50000000  0.17622000  0.75137500  1
  Ni  Ni11  1  0.50000000  0.75031200  0.07380300  1
  Ni  Ni12  1  0.00000000  0.98695500  0.56561000  1
  Ni  Ni13  1  0.00000000  0.56559000  0.44722200  1
  Ni  Ni14  1  0.00000000  0.44674600  0.98669700  1
  Ni  Ni15  1  0.50000000  0.01353000  0.43296200  1
  Ni  Ni16  1  0.50000000  0.43363500  0.55284800  1
  Ni  Ni17  1  0.50000000  0.55382100  0.01397200  1
  Ni  Ni18  1  0.00000000  0.71677100  0.77409600  1
  Ni  Ni19  1  0.00000000  0.77415200  0.50893000  1
  Ni  Ni20  1  0.00000000  0.50991200  0.71620100  1
  Ni  Ni21  1  0.50000000  0.28414500  0.22571100  1
  Ni  Ni22  1  0.50000000  0.22570700  0.49118000  1
  Ni  Ni23  1  0.50000000  0.49091200  0.28336400  1
  Ni  Ni24  1  0.00000000  0.08851100  0.05868300  1
  Ni  Ni25  1  0.50000000  0.94121600  0.14961200  1
  Ni  Ni26  1  0.50000000  0.14995600  0.91029800  1
  Ni  Ni27  1  0.50000000  0.90531000  0.93786700  1
  P  P0  1  0.00000000  0.66707900  0.66637100  1
  P  P1  1  0.50000000  0.33328000  0.33345500  1
  P  P2  1  0.00000000  0.81964100  0.98264400  1
  P  P3  1  0.00000000  0.97831300  0.20229900  1
  P  P4  1  0.00000000  0.19819000  0.81789100  1
  P  P5  1  0.50000000  0.18207000  0.02110700  1
  P  P6  1  0.50000000  0.01904800  0.79521500  1
  P  P7  1  0.50000000  0.79534300  0.18606100  1
  P  P8  1  0.00000000  0.87264900  0.72310400  1
  P  P9  1  0.00000000  0.72311200  0.40439700  1
  P  P10  1  0.00000000  0.40572400  0.87145100  1
  P  P11  1  0.50000000  0.12872300  0.27713200  1
  P  P12  1  0.50000000  0.27727700  0.59480100  1
  P  P13  1  0.50000000  0.59446200  0.12849400  1
  P  P14  1  0.00000000  0.60888600  0.92898200  1
  P  P15  1  0.00000000  0.92870300  0.46263000  1
  P  P16  1  0.00000000  0.46266100  0.60880700  1
  P  P17  1  0.50000000  0.39236300  0.07107700  1
  P  P18  1  0.50000000  0.07079700  0.53803100  1
  P  P19  1  0.50000000  0.53774500  0.39091400  1
loop_
_geom_bond_atom_site_label_1
_geom_bond_atom_site_label_2
_geom_bond_distance
_geom_bond_site_symmetry_2
Nd0 P19 2.987152 1_455
Nd0 P19 2.987152 1_555
Nd0 P12 2.997852 1_555
Nd0 P12 2.997852 1_455
Nd0 Ni23 3.030956 1_455
Nd0 Ni23 3.030956 1_555
Nd0 P1 3.033091 1_555
Nd0 P1 3.033091 1_455
Nd0 Ni22 3.036164 1_455
Nd0 Ni22 3.036164 1_555
Nd0 Ni13 3.063559 1_555
Nd0 Ni16 3.083312 1_555
Nd0 Ni16 3.083312 1_455
Nd0 Ni0 3.125409 1_555
Nd1 P17 2.985280 1_455
Nd1 P17 2.985280 1_555
Nd1 P13 2.987561 1_555
Nd1 P13 2.987561 1_455
Nd1 Ni21 3.023015 1_455
Nd1 Ni21 3.023015 1_555
Nd1 Ni23 3.028655 1_555
Nd1 Ni23 3.028655 1_455
Nd1 P1 3.034544 1_455
Nd1 P1 3.034544 1_555
Nd1 Ni17 3.088391 1_455
Nd1 Ni17 3.088391 1_555
Nd1 Ni14 3.089823 1_554
Nd1 Ni1 3.138393 1_555
Nd2 P11 2.989922 1_455
Nd2 P11 2.989922 1_555
Nd2 P18 2.991634 1_555
Nd2 P18 2.991634 1_455
Nd2 Ni22 3.030672 1_555
Nd2 Ni22 3.030672 1_455
Nd2 P1 3.035678 1_455
Nd2 P1 3.035678 1_555
Nd2 Ni21 3.044783 1_455
Nd2 Ni21 3.044783 1_555
Nd2 Ni12 3.067949 1_545
Nd2 Ni15 3.082362 1_555
Nd2 Ni15 3.082362 1_455
Nd2 Ni2 3.122452 1_555
Nd3 P16 2.983704 1_555
Nd3 P16 2.983704 1_655
Nd3 P9 2.998267 1_555
Nd3 P9 2.998267 1_655
Nd3 Ni20 3.032943 1_555
Nd3 Ni20 3.032943 1_655
Nd3 Ni19 3.034174 1_555
Nd3 Ni19 3.034174 1_655
Nd3 P0 3.041968 1_555
Nd3 P0 3.041968 1_655
Nd3 Ni3 3.072039 1_555
Nd3 Ni16 3.072482 1_555
Nd3 Ni13 3.082047 1_555
Nd3 Ni13 3.082047 1_655
Nd4 P14 2.988119 1_655
Nd4 P14 2.988119 1_555
Nd4 P10 2.989329 1_655
Nd4 P10 2.989329 1_555
Nd4 Ni18 3.029748 1_555
Nd4 Ni18 3.029748 1_655
Nd4 Ni20 3.035778 1_555
Nd4 Ni20 3.035778 1_655
Nd4 P0 3.042948 1_555
Nd4 P0 3.042948 1_655
Nd4 Ni14 3.087313 1_555
Nd4 Ni14 3.087313 1_655
Nd4 Ni17 3.093012 1_556
Nd4 Ni4 3.115173 1_555
Nd5 P15 2.988886 1_555
Nd5 P15 2.988886 1_655
Nd5 P8 3.002829 1_555
Nd5 P8 3.002829 1_655
Nd5 P0 3.029568 1_655
Nd5 P0 3.029568 1_555
Nd5 Ni19 3.033178 1_555
Nd5 Ni19 3.033178 1_655
Nd5 Ni18 3.035776 1_555
Nd5 Ni18 3.035776 1_655
Nd5 Ni5 3.078798 1_555
Nd5 Ni12 3.086572 1_555
Nd5 Ni12 3.086572 1_655
Nd5 Ni15 3.089242 1_565
Nd6 P6 2.928890 1_555
Nd6 P6 2.928890 1_455
Nd6 Ni22 3.013188 1_455
Nd6 Ni22 3.013188 1_555
Nd6 P12 3.026423 1_455
Nd6 P12 3.026423 1_555
Nd6 P18 3.036026 1_555
Nd6 P18 3.036026 1_455
Nd6 Ni6 3.038335 1_545
Nd6 Ni10 3.056279 1_555
Nd6 Ni10 3.056279 1_455
Nd6 Ni0 3.074042 1_555
Nd6 Ni5 3.094302 1_445
Nd6 Ni5 3.094302 1_545
Nd6 Ni12 3.097521 1_545
Nd7 P7 2.931486 1_555
Nd7 P7 2.931486 1_455
Nd7 Ni23 3.009279 1_555
Nd7 Ni23 3.009279 1_455
Nd7 P13 3.024628 1_555
Nd7 P13 3.024628 1_455
Nd7 Ni7 3.028371 1_555
Nd7 P19 3.032286 1_555
Nd7 P19 3.032286 1_455
Nd7 Ni11 3.048406 1_555
Nd7 Ni11 3.048406 1_455
Nd7 Ni1 3.081535 1_555
Nd7 Ni3 3.092738 1_455
Nd7 Ni3 3.092738 1_555
Nd7 Ni13 3.094710 1_555
Nd8 P5 2.967827 1_455
Nd8 P5 2.967827 1_555
Nd8 Ni21 2.988591 1_455
Nd8 Ni21 2.988591 1_555
Nd8 P17 3.019656 1_455
Nd8 P17 3.019656 1_555
Nd8 P11 3.025250 1_455
Nd8 P11 3.025250 1_555
Nd8 Ni14 3.063148 1_554
Nd8 Ni9 3.067038 1_455
Nd8 Ni9 3.067038 1_555
Nd8 Ni24 3.079160 1_555
Nd8 Ni4 3.082875 1_454
Nd8 Ni4 3.082875 1_554
Nd8 Ni8 3.117065 1_554
Nd8 Ni2 3.122815 1_555
Nd9 P3 2.971995 1_655
Nd9 P3 2.971995 1_555
Nd9 Ni19 2.988248 1_555
Nd9 Ni19 2.988248 1_655
Nd9 P9 3.006301 1_555
Nd9 P9 3.006301 1_655
Nd9 Ni25 3.028756 1_555
Nd9 P15 3.030023 1_555
Nd9 P15 3.030023 1_655
Nd9 Ni15 3.086675 1_565
Nd9 Ni3 3.087331 1_555
Nd9 Ni2 3.088210 1_565
Nd9 Ni2 3.088210 1_665
Nd9 Ni9 3.124050 1_565
Nd9 Ni7 3.131295 1_655
Nd9 Ni7 3.131295 1_555
Nd10 P4 3.006464 1_655
Nd10 P4 3.006464 1_555
Nd10 Ni20 3.009645 1_555
Nd10 Ni20 3.009645 1_655
Nd10 Ni26 3.018355 1_555
Nd10 P16 3.025658 1_555
Nd10 P16 3.025658 1_655
Nd10 P10 3.027522 1_655
Nd10 P10 3.027522 1_555
Nd10 Ni8 3.062285 1_555
Nd10 Ni8 3.062285 1_655
Nd10 Ni10 3.069310 1_555
Nd10 Ni0 3.082933 1_655
Nd10 Ni0 3.082933 1_555
Nd10 Ni16 3.084399 1_555
Nd10 Ni4 3.110469 1_555
Nd11 Ni27 2.902548 1_555
Nd11 P2 3.003795 1_655
Nd11 P2 3.003795 1_555
Nd11 Ni18 3.006369 1_655
Nd11 Ni18 3.006369 1_555
Nd11 P8 3.025838 1_655
Nd11 P8 3.025838 1_555
Nd11 P14 3.029548 1_555
Nd11 P14 3.029548 1_655
Nd11 Ni17 3.081967 1_556
Nd11 Ni1 3.082748 1_656
Nd11 Ni1 3.082748 1_556
Nd11 Ni11 3.088329 1_556
Nd11 Ni5 3.103468 1_555
Nd11 Ni6 3.126734 1_655
Nd11 Ni6 3.126734 1_555
Ni0 P12 2.330170 1_555
Ni0 P12 2.330170 1_455
Ni0 P4 2.346314 1_555
Ni0 P16 2.393218 1_555
Ni1 P13 2.342055 1_555
Ni1 P13 2.342055 1_455
Ni1 P2 2.347092 1_554
Ni1 P14 2.393401 1_554
Ni2 P11 2.347126 1_555
Ni2 P11 2.347126 1_455
Ni2 P3 2.355272 1_545
Ni2 P15 2.371271 1_545
Ni3 P9 2.319610 1_555
Ni3 P9 2.319610 1_655
Ni3 P7 2.328427 1_555
Ni3 P19 2.349122 1_555
Ni4 P10 2.341281 1_655
Ni4 P10 2.341281 1_555
Ni4 P5 2.342668 1_556
Ni4 P17 2.379553 1_556
Ni5 P8 2.317979 1_555
Ni5 P8 2.317979 1_655
Ni5 P6 2.324075 1_565
Ni5 P18 2.352604 1_565
Ni6 P2 2.322861 1_555
Ni6 P6 2.330592 1_565
Ni6 P6 2.330592 1_465
Ni6 P8 2.361747 1_555
Ni7 P3 2.276418 1_555
Ni7 P7 2.326088 1_455
Ni7 P7 2.326088 1_555
Ni7 P9 2.361651 1_555
Ni8 P10 2.288831 1_555
Ni8 P4 2.327816 1_555
Ni8 P5 2.409162 1_556
Ni8 P5 2.409162 1_456
Ni9 P5 2.274215 1_555
Ni9 P11 2.275932 1_555
Ni9 P3 2.421036 1_645
Ni9 P3 2.421036 1_545
Ni10 P12 2.281414 1_555
Ni10 P6 2.326478 1_555
Ni10 P4 2.365707 1_655
Ni10 P4 2.365707 1_555
Ni11 P13 2.268451 1_555
Ni11 P7 2.324310 1_555
Ni11 P2 2.391548 1_654
Ni11 P2 2.391548 1_554
Ni11 Ni27 2.427999 1_554
Ni12 P18 2.313253 1_465
Ni12 P18 2.313253 1_565
Ni12 P8 2.338733 1_555
Ni12 P15 2.342263 1_555
Ni13 P19 2.315469 1_555
Ni13 P19 2.315469 1_455
Ni13 P9 2.336253 1_555
Ni13 P16 2.350790 1_555
Ni14 P17 2.315075 1_456
Ni14 P17 2.315075 1_556
Ni14 P10 2.324874 1_555
Ni14 P14 2.357773 1_555
Ni15 P15 2.318102 1_545
Ni15 P15 2.318102 1_645
Ni15 P11 2.323020 1_555
Ni15 P18 2.362080 1_555
Ni16 P16 2.320446 1_555
Ni16 P16 2.320446 1_655
Ni16 P12 2.321334 1_555
Ni16 P19 2.358406 1_555
Ni17 P13 2.308836 1_555
Ni17 P14 2.320232 1_554
Ni17 P14 2.320232 1_654
Ni17 P17 2.348850 1_555
Ni18 P8 2.279964 1_555
Ni18 P14 2.282235 1_555
Ni18 P0 2.308886 1_555
Ni19 P15 2.275280 1_555
Ni19 P9 2.275332 1_555
Ni19 P0 2.310756 1_555
Ni20 P16 2.273824 1_555
Ni20 P10 2.274003 1_555
Ni20 P0 2.304047 1_555
Ni21 P11 2.271458 1_555
Ni21 P17 2.280402 1_555
Ni21 P1 2.302352 1_555
Ni22 P12 2.267635 1_555
Ni22 P18 2.278934 1_555
Ni22 P1 2.315965 1_555
Ni23 P13 2.267215 1_555
Ni23 P19 2.271217 1_555
Ni23 P1 2.310479 1_555
Ni24 P3 2.159689 1_545
Ni24 P5 2.381851 1_555
Ni24 P5 2.381851 1_455
Ni25 P7 2.177538 1_555
Ni25 P3 2.350201 1_555
Ni25 P3 2.350201 1_655
Ni26 P5 2.151942 1_556
Ni26 P4 2.369101 1_655
Ni26 P4 2.369101 1_555
Ni27 P6 2.167150 1_565
Ni27 P2 2.315364 1_655
Ni27 P2 2.315364 1_555
Ni27 Ni6 2.580205 1_655
Ni27 Ni6 2.580205 1_555
