# generated using pymatgen
data_Gd(NO3)3
_symmetry_space_group_name_H-M   'P 1'
_cell_length_a   6.28722900
_cell_length_b   9.79529000
_cell_length_c   11.20050971
_cell_angle_alpha   86.66990368
_cell_angle_beta   90.00000000
_cell_angle_gamma   90.00000000
_symmetry_Int_Tables_number   1
_chemical_formula_structural   Gd(NO3)3
_chemical_formula_sum   'Gd4 N12 O36'
_cell_volume   688.62123812
_cell_formula_units_Z   4
loop_
 _symmetry_equiv_pos_site_id
 _symmetry_equiv_pos_as_xyz
  1  'x, y, z'
loop_
 _atom_site_type_symbol
 _atom_site_label
 _atom_site_symmetry_multiplicity
 _atom_site_fract_x
 _atom_site_fract_y
 _atom_site_fract_z
 _atom_site_occupancy
  Gd  Gd0  1  0.67551000  0.29279900  0.73703400  1
  Gd  Gd1  1  0.17551000  0.20720100  0.26296600  1
  Gd  Gd2  1  0.32449000  0.70720100  0.26296600  1
  Gd  Gd3  1  0.82449000  0.79279900  0.73703400  1
  N  N0  1  0.38507200  0.16938700  0.49361500  1
  N  N1  1  0.88507200  0.33061300  0.50638500  1
  N  N2  1  0.61492800  0.83061300  0.50638500  1
  N  N3  1  0.11492800  0.66938700  0.49361500  1
  N  N4  1  0.72626500  0.19692000  0.20888700  1
  N  N5  1  0.22626500  0.30308000  0.79111300  1
  N  N6  1  0.27373500  0.80308000  0.79111300  1
  N  N7  1  0.77373500  0.69692000  0.20888700  1
  N  N8  1  0.72348100  0.53299300  0.88604200  1
  N  N9  1  0.22348100  0.96700700  0.11395800  1
  N  N10  1  0.27651900  0.46700700  0.11395800  1
  N  N11  1  0.77651900  0.03299300  0.88604200  1
  O  O0  1  0.42763000  0.27251200  0.42252500  1
  O  O1  1  0.92763000  0.22748800  0.57747500  1
  O  O2  1  0.57237000  0.72748800  0.57747500  1
  O  O3  1  0.07237000  0.77251200  0.42252500  1
  O  O4  1  0.26127700  0.07883700  0.45583900  1
  O  O5  1  0.76127700  0.42116300  0.54416100  1
  O  O6  1  0.73872300  0.92116300  0.54416100  1
  O  O7  1  0.23872300  0.57883700  0.45583900  1
  O  O8  1  0.46064400  0.15726500  0.59712000  1
  O  O9  1  0.96064400  0.34273500  0.40288000  1
  O  O10  1  0.53935600  0.84273500  0.40288000  1
  O  O11  1  0.03935600  0.65726500  0.59712000  1
  O  O12  1  0.81326400  0.10069400  0.27297600  1
  O  O13  1  0.31326400  0.39930600  0.72702400  1
  O  O14  1  0.18673600  0.89930600  0.72702400  1
  O  O15  1  0.68673600  0.60069400  0.27297600  1
  O  O16  1  0.53195100  0.19400900  0.18344600  1
  O  O17  1  0.03195100  0.30599100  0.81655400  1
  O  O18  1  0.46804900  0.80599100  0.81655400  1
  O  O19  1  0.96804900  0.69400900  0.18344600  1
  O  O20  1  0.84189500  0.29554700  0.16963600  1
  O  O21  1  0.34189500  0.20445300  0.83036400  1
  O  O22  1  0.15810500  0.70445300  0.83036400  1
  O  O23  1  0.65810500  0.79554700  0.16963600  1
  O  O24  1  0.73709700  0.54455100  0.76873700  1
  O  O25  1  0.23709700  0.95544900  0.23126300  1
  O  O26  1  0.26290300  0.45544900  0.23126300  1
  O  O27  1  0.76290300  0.04455100  0.76873700  1
  O  O28  1  0.66627700  0.41929100  0.93174700  1
  O  O29  1  0.16627700  0.08070900  0.06825300  1
  O  O30  1  0.33372300  0.58070900  0.06825300  1
  O  O31  1  0.83372300  0.91929100  0.93174700  1
  O  O32  1  0.76860200  0.63461500  0.94232200  1
  O  O33  1  0.26860200  0.86538500  0.05767800  1
  O  O34  1  0.23139800  0.36538500  0.05767800  1
  O  O35  1  0.73139800  0.13461500  0.94232200  1
loop_
_geom_bond_atom_site_label_1
_geom_bond_atom_site_label_2
_geom_bond_distance
_geom_bond_site_symmetry_2
Gd0 O17 2.417757 1_655
Gd0 O21 2.477112 1_555
Gd0 O5 2.494587 1_555
Gd0 O27 2.498131 1_555
Gd0 O1 2.499725 1_555
Gd0 O13 2.504895 1_555
Gd0 O8 2.506991 1_555
Gd0 O24 2.541422 1_555
Gd0 O28 2.570748 1_555
Gd0 O35 2.719798 1_555
Gd1 O16 2.417757 1_555
Gd1 O20 2.477112 1_455
Gd1 O4 2.494587 1_555
Gd1 O26 2.498131 1_555
Gd1 O0 2.499725 1_555
Gd1 O12 2.504895 1_455
Gd1 O9 2.506991 1_455
Gd1 O25 2.541422 1_545
Gd1 O29 2.570748 1_555
Gd1 O34 2.719798 1_555
Gd2 O19 2.417757 1_455
Gd2 O23 2.477112 1_555
Gd2 O7 2.494587 1_555
Gd2 O25 2.498131 1_555
Gd2 O3 2.499725 1_555
Gd2 O15 2.504895 1_555
Gd2 O10 2.506991 1_555
Gd2 O26 2.541422 1_555
Gd2 O30 2.570748 1_555
Gd2 O33 2.719798 1_555
Gd3 O18 2.417757 1_555
Gd3 O22 2.477112 1_655
Gd3 O6 2.494587 1_555
Gd3 O24 2.498131 1_555
Gd3 O2 2.499725 1_555
Gd3 O14 2.504895 1_655
Gd3 O11 2.506991 1_655
Gd3 O27 2.541422 1_565
Gd3 O31 2.570748 1_555
Gd3 O32 2.719798 1_555
N0 O8 1.252142 1_555
N0 O4 1.270874 1_555
N0 O0 1.277708 1_555
N1 O9 1.252142 1_555
N1 O5 1.270874 1_555
N1 O1 1.277708 1_555
N2 O10 1.252142 1_555
N2 O6 1.270874 1_555
N2 O2 1.277708 1_555
N3 O11 1.252142 1_555
N3 O7 1.270874 1_555
N3 O3 1.277708 1_555
N4 O16 1.255188 1_555
N4 O20 1.267186 1_555
N4 O12 1.274475 1_555
N5 O17 1.255188 1_555
N5 O21 1.267186 1_555
N5 O13 1.274475 1_555
N6 O18 1.255188 1_555
N6 O22 1.267186 1_555
N6 O14 1.274475 1_555
N7 O19 1.255188 1_555
N7 O23 1.267186 1_555
N7 O15 1.274475 1_555
N8 O32 1.241608 1_555
N8 O28 1.251240 1_555
N8 O24 1.314966 1_555
N9 O33 1.241608 1_555
N9 O29 1.251240 1_565
N9 O25 1.314966 1_555
N10 O34 1.241608 1_555
N10 O30 1.251240 1_555
N10 O26 1.314966 1_555
N11 O35 1.241608 1_555
N11 O31 1.251240 1_545
N11 O27 1.314966 1_555
