# generated using pymatgen
data_TiV(PO4)3
_symmetry_space_group_name_H-M   'P 1'
_cell_length_a   8.74400275
_cell_length_b   8.74400275
_cell_length_c   8.74400276
_cell_angle_alpha   58.83952008
_cell_angle_beta   58.83952008
_cell_angle_gamma   58.83952368
_symmetry_Int_Tables_number   1
_chemical_formula_structural   TiV(PO4)3
_chemical_formula_sum   'Ti2 V2 P6 O24'
_cell_volume   460.20753347
_cell_formula_units_Z   2
loop_
 _symmetry_equiv_pos_site_id
 _symmetry_equiv_pos_as_xyz
  1  'x, y, z'
loop_
 _atom_site_type_symbol
 _atom_site_label
 _atom_site_symmetry_multiplicity
 _atom_site_fract_x
 _atom_site_fract_y
 _atom_site_fract_z
 _atom_site_occupancy
  Ti  Ti0  1  0.13835000  0.13835000  0.13835000  1
  Ti  Ti1  1  0.63835000  0.63835000  0.63835000  1
  V  V0  1  0.36113300  0.36113300  0.36113300  1
  V  V1  1  0.86113300  0.86113300  0.86113300  1
  P  P0  1  0.03328900  0.74536700  0.47157900  1
  P  P1  1  0.47157900  0.03328900  0.74536700  1
  P  P2  1  0.74536700  0.47157900  0.03328900  1
  P  P3  1  0.24536700  0.53328900  0.97157900  1
  P  P4  1  0.53328900  0.97157900  0.24536700  1
  P  P5  1  0.97157900  0.24536700  0.53328900  1
  O  O0  1  0.14489000  0.27668700  0.50440600  1
  O  O1  1  0.27668700  0.50440600  0.14489000  1
  O  O2  1  0.06650500  0.91431400  0.28894500  1
  O  O3  1  0.50440600  0.14489000  0.27668700  1
  O  O4  1  0.00440600  0.77668700  0.64489000  1
  O  O5  1  0.21741900  0.56783400  0.44497700  1
  O  O6  1  0.28894500  0.06650500  0.91431400  1
  O  O7  1  0.44497700  0.21741900  0.56783400  1
  O  O8  1  0.20616000  0.36728700  0.00260000  1
  O  O9  1  0.56783400  0.44497700  0.21741900  1
  O  O10  1  0.06783400  0.71741900  0.94497700  1
  O  O11  1  0.36728700  0.00260000  0.20616000  1
  O  O12  1  0.64489000  0.00440600  0.77668700  1
  O  O13  1  0.91431400  0.28894500  0.06650500  1
  O  O14  1  0.41431400  0.56650500  0.78894500  1
  O  O15  1  0.77668700  0.64489000  0.00440600  1
  O  O16  1  0.56650500  0.78894500  0.41431400  1
  O  O17  1  0.71741900  0.94497700  0.06783400  1
  O  O18  1  0.78894500  0.41431400  0.56650500  1
  O  O19  1  0.00260000  0.20616000  0.36728700  1
  O  O20  1  0.50260000  0.86728700  0.70616000  1
  O  O21  1  0.94497700  0.06783400  0.71741900  1
  O  O22  1  0.70616000  0.50260000  0.86728700  1
  O  O23  1  0.86728700  0.70616000  0.50260000  1
loop_
_geom_bond_atom_site_label_1
_geom_bond_atom_site_label_2
_geom_bond_distance
_geom_bond_site_symmetry_2
O0 P5 1.548276 1_455
O0 V0 1.930307 1_555
O1 P3 1.548276 1_554
O1 V0 1.930307 1_555
O2 P0 1.529565 1_555
O2 Ti0 1.927210 1_565
O3 P4 1.548276 1_545
O3 V0 1.930307 1_555
O4 P0 1.548276 1_555
O4 V1 1.930307 1_455
O5 P0 1.567074 1_555
O5 V0 1.857608 1_555
O6 P1 1.529565 1_555
O6 Ti0 1.927210 1_556
O7 P1 1.567074 1_555
O7 V0 1.857608 1_555
O8 P3 1.519641 1_554
O8 Ti0 1.951613 1_555
O9 P2 1.567074 1_555
O9 V0 1.857608 1_555
O10 P3 1.567074 1_555
O10 V1 1.857608 1_455
O11 P4 1.519641 1_545
O11 Ti0 1.951613 1_555
O12 P1 1.548276 1_555
O12 V1 1.930307 1_545
O13 P2 1.529565 1_555
O13 Ti0 1.927210 1_655
O14 P3 1.529565 1_555
O14 Ti1 1.927210 1_555
O15 P2 1.548276 1_555
O15 V1 1.930307 1_554
O16 P4 1.529565 1_555
O16 Ti1 1.927210 1_555
O17 P4 1.567074 1_555
O17 V1 1.857608 1_554
O18 P5 1.529565 1_555
O18 Ti1 1.927210 1_555
O19 P5 1.519641 1_455
O19 Ti0 1.951613 1_555
O20 P1 1.519641 1_565
O20 Ti1 1.951613 1_555
O21 P5 1.567074 1_555
O21 V1 1.857608 1_545
O22 P2 1.519641 1_556
O22 Ti1 1.951613 1_555
O23 P0 1.519641 1_655
O23 Ti1 1.951613 1_555
