# generated using pymatgen
data_KV5NiO22
_symmetry_space_group_name_H-M   'P 1'
_cell_length_a   9.12103500
_cell_length_b   10.87138409
_cell_length_c   11.08259641
_cell_angle_alpha   65.67860243
_cell_angle_beta   78.46997568
_cell_angle_gamma   70.42610657
_symmetry_Int_Tables_number   1
_chemical_formula_structural   KV5NiO22
_chemical_formula_sum   'K2 V10 Ni2 O44'
_cell_volume   941.07439512
_cell_formula_units_Z   2
loop_
 _symmetry_equiv_pos_site_id
 _symmetry_equiv_pos_as_xyz
  1  'x, y, z'
loop_
 _atom_site_type_symbol
 _atom_site_label
 _atom_site_symmetry_multiplicity
 _atom_site_fract_x
 _atom_site_fract_y
 _atom_site_fract_z
 _atom_site_occupancy
  K  K0  1  0.76804400  0.43140700  0.27383000  1
  K  K1  1  0.23195600  0.56859300  0.72617000  1
  V  V0  1  0.16671100  0.99528000  0.02974000  1
  V  V1  1  0.83328900  0.00472000  0.97026000  1
  V  V2  1  0.19124400  0.23620100  0.75066300  1
  V  V3  1  0.80875600  0.76379900  0.24933700  1
  V  V4  1  0.86201800  0.24166600  0.68762200  1
  V  V5  1  0.13798200  0.75833400  0.31237800  1
  V  V6  1  0.89262300  0.29578200  0.94173000  1
  V  V7  1  0.10737700  0.70421800  0.05827000  1
  V  V8  1  0.86157800  0.04110200  0.24110000  1
  V  V9  1  0.13842200  0.95889800  0.75890000  1
  Ni  Ni0  1  0.29028000  0.24400500  0.27086900  1
  Ni  Ni1  1  0.70972000  0.75599500  0.72913100  1
  O  O0  1  0.01641300  0.13499400  0.09561100  1
  O  O1  1  0.98358700  0.86500600  0.90438900  1
  O  O2  1  0.28250100  0.10024300  0.92487600  1
  O  O3  1  0.71749900  0.89975700  0.07512400  1
  O  O4  1  0.25855900  0.88797700  0.17524200  1
  O  O5  1  0.74144100  0.11202300  0.82475800  1
  O  O6  1  0.01130400  0.10027200  0.88272300  1
  O  O7  1  0.98869600  0.89972800  0.11727700  1
  O  O8  1  0.03431000  0.30908900  0.63769200  1
  O  O9  1  0.96569000  0.69091100  0.36230800  1
  O  O10  1  0.26312700  0.07289400  0.70594700  1
  O  O11  1  0.73687300  0.92710600  0.29405300  1
  O  O12  1  0.68089600  0.67558100  0.32316500  1
  O  O13  1  0.31910400  0.32441900  0.67683500  1
  O  O14  1  0.75470100  0.32610100  0.56068700  1
  O  O15  1  0.24529900  0.67389900  0.43931300  1
  O  O16  1  0.80756000  0.41045100  0.01354500  1
  O  O17  1  0.19244000  0.58954900  0.98645500  1
  O  O18  1  0.06728700  0.34351500  0.85419100  1
  O  O19  1  0.93271300  0.65648500  0.14580900  1
  O  O20  1  0.78448300  0.34754100  0.80126900  1
  O  O21  1  0.21551700  0.65245900  0.19873100  1
  O  O22  1  0.78127400  0.14060500  0.05334300  1
  O  O23  1  0.21872600  0.85939500  0.94665700  1
  O  O24  1  0.77512900  0.16595800  0.30034100  1
  O  O25  1  0.22487100  0.83404200  0.69965900  1
  O  O26  1  0.02002900  0.92512500  0.34296400  1
  O  O27  1  0.97997100  0.07487500  0.65703600  1
  O  O28  1  0.45618000  0.35082100  0.10380400  1
  O  O29  1  0.54382000  0.64917900  0.89619600  1
  O  O30  1  0.11219600  0.22405300  0.40693300  1
  O  O31  1  0.88780400  0.77594700  0.59306700  1
  O  O32  1  0.34870300  0.10521000  0.19204500  1
  O  O33  1  0.65129700  0.89479000  0.80795500  1
  O  O34  1  0.23216900  0.20779300  0.13130100  1
  O  O35  1  0.76783100  0.79220700  0.86869900  1
  O  O36  1  0.11617300  0.35473800  0.34236600  1
  O  O37  1  0.88382700  0.64526200  0.65763400  1
  O  O38  1  0.44097600  0.21886200  0.41282700  1
  O  O39  1  0.55902400  0.78113800  0.58717300  1
  O  O40  1  0.52855700  0.65007300  0.00915300  1
  O  O41  1  0.47144300  0.34992700  0.99084700  1
  O  O42  1  0.47165400  0.31070500  0.43279100  1
  O  O43  1  0.52834600  0.68929500  0.56720900  1
loop_
_geom_bond_atom_site_label_1
_geom_bond_atom_site_label_2
_geom_bond_distance
_geom_bond_site_symmetry_2
K0 O12 2.754119 1_555
K0 O24 2.757274 1_555
K0 O14 2.893615 1_555
K0 O16 2.928070 1_555
K0 O19 3.001199 1_555
K0 O36 3.165989 1_655
K0 O42 3.271479 1_555
K1 O13 2.754119 1_555
K1 O25 2.757274 1_555
K1 O15 2.893615 1_555
K1 O17 2.928070 1_555
K1 O18 3.001199 1_555
K1 O37 3.165989 1_455
K1 O43 3.271479 1_555
Ni0 O36 1.897539 1_555
Ni0 O32 1.919573 1_555
Ni0 O34 1.948733 1_555
Ni0 O30 1.986658 1_555
Ni0 O38 2.167403 1_555
Ni0 O28 2.313579 1_555
Ni1 O37 1.897539 1_555
Ni1 O33 1.919573 1_555
Ni1 O35 1.948733 1_555
Ni1 O31 1.986658 1_555
Ni1 O39 2.167403 1_555
Ni1 O29 2.313579 1_555
O0 V0 1.958914 1_545
O0 V6 2.056830 1_454
O0 V8 2.082329 1_455
O1 V1 1.958914 1_565
O1 V7 2.056830 1_656
O1 V9 2.082329 1_655
O2 V0 1.729913 1_546
O2 V2 2.018082 1_555
O3 V1 1.729913 1_564
O3 V3 2.018082 1_555
O4 V0 1.731668 1_555
O4 V5 2.027753 1_555
O5 V1 1.731668 1_555
O5 V4 2.027753 1_555
O6 V0 2.067382 1_546
O6 V1 2.080120 1_455
O6 V6 2.331807 1_455
O6 V9 2.344535 1_545
O6 V2 2.429552 1_555
O6 V4 2.434938 1_455
O7 V1 2.067382 1_564
O7 V0 2.080120 1_655
O7 V7 2.331807 1_655
O7 V8 2.344535 1_565
O7 V3 2.429552 1_555
O7 V5 2.434938 1_655
O8 V2 1.839451 1_555
O8 V4 1.844748 1_455
O9 V3 1.839451 1_555
O9 V5 1.844748 1_655
O10 V9 1.803498 1_545
O10 V2 1.908479 1_555
O11 V8 1.803498 1_565
O11 V3 1.908479 1_555
O12 V3 1.634288 1_555
O13 V2 1.634288 1_555
O14 V4 1.632327 1_555
O15 V5 1.632327 1_555
O16 V6 1.646752 1_554
O17 V7 1.646752 1_556
O18 V6 1.808284 1_455
O18 V2 1.912067 1_555
O19 V7 1.808284 1_655
O19 V3 1.912067 1_555
O20 V6 1.798096 1_555
O20 V4 1.924563 1_555
O21 V7 1.798096 1_555
O21 V5 1.924563 1_555
O22 V1 1.931681 1_554
O22 V8 2.064174 1_555
O22 V6 2.081926 1_554
O23 V0 1.931681 1_556
O23 V9 2.064174 1_555
O23 V7 2.081926 1_556
O24 V8 1.644743 1_555
O25 V9 1.644743 1_555
O26 V8 1.792120 1_465
O26 V5 1.900952 1_555
O27 V9 1.792120 1_645
O27 V4 1.900952 1_555
O28 O41 1.235341 1_554
O29 O40 1.235341 1_556
O30 O36 1.310942 1_555
O31 O37 1.310942 1_555
O32 O34 1.303869 1_555
O33 O35 1.303869 1_555
O38 O42 1.232108 1_555
O39 O43 1.232108 1_555
