# generated using pymatgen
data_Hf2Si4Ni3
_symmetry_space_group_name_H-M   'P 1'
_cell_length_a   5.14665097
_cell_length_b   6.82630280
_cell_length_c   7.25593768
_cell_angle_alpha   90.00000000
_cell_angle_beta   110.77206201
_cell_angle_gamma   90.00000000
_symmetry_Int_Tables_number   1
_chemical_formula_structural   Hf2Si4Ni3
_chemical_formula_sum   'Hf4 Si8 Ni6'
_cell_volume   238.34981853
_cell_formula_units_Z   2
loop_
 _symmetry_equiv_pos_site_id
 _symmetry_equiv_pos_as_xyz
  1  'x, y, z'
loop_
 _atom_site_type_symbol
 _atom_site_label
 _atom_site_symmetry_multiplicity
 _atom_site_fract_x
 _atom_site_fract_y
 _atom_site_fract_z
 _atom_site_occupancy
  Hf  Hf0  1  0.39598818  0.90191688  0.79197535  1
  Hf  Hf1  1  0.60401182  0.09808312  0.20802465  1
  Hf  Hf2  1  0.10401182  0.40191688  0.20802465  1
  Hf  Hf3  1  0.89598818  0.59808312  0.79197535  1
  Si  Si0  1  0.31850575  0.52192531  0.63701149  1
  Si  Si1  1  0.68149425  0.47807469  0.36298851  1
  Si  Si2  1  0.18149425  0.02192531  0.36298851  1
  Si  Si3  1  0.81850575  0.97807469  0.63701149  1
  Si  Si4  1  0.31187404  0.75000000  0.12374709  1
  Si  Si5  1  0.18812596  0.25000000  0.87625291  1
  Si  Si6  1  0.81187404  0.75000000  0.12374709  1
  Si  Si7  1  0.68812596  0.25000000  0.87625291  1
  Ni  Ni0  1  0.97934295  0.75000000  0.45868691  1
  Ni  Ni1  1  0.52065705  0.25000000  0.54131309  1
  Ni  Ni2  1  0.50000000  0.50000000  0.00000000  1
  Ni  Ni3  1  -0.00000000  0.00000000  0.00000000  1
  Ni  Ni4  1  0.02065705  0.25000000  0.54131309  1
  Ni  Ni5  1  0.47934295  0.75000000  0.45868691  1
loop_
_geom_bond_atom_site_label_1
_geom_bond_atom_site_label_2
_geom_bond_distance
_geom_bond_site_symmetry_2
Hf0 Si7 2.761947 1_565
Hf0 Si5 2.761952 1_565
Hf0 Si6 2.792346 1_556
Hf0 Si4 2.792347 1_556
Hf0 Si0 2.798890 1_555
Hf0 Ni5 2.800645 1_555
Hf0 Ni0 2.800650 1_455
Hf0 Si3 2.827992 1_555
Hf0 Si3 2.827996 1_455
Hf0 Ni3 3.010324 1_666
Hf0 Ni3 3.010328 1_566
Hf0 Si2 3.023471 1_565
Hf0 Ni2 3.085311 1_556
Hf0 Ni4 3.192707 1_565
Hf0 Ni1 3.192707 1_565
Hf1 Si4 2.761947 1_545
Hf1 Si6 2.761952 1_545
Hf1 Si5 2.792346 1_554
Hf1 Si7 2.792347 1_554
Hf1 Si1 2.798890 1_555
Hf1 Ni1 2.800645 1_555
Hf1 Ni4 2.800650 1_655
Hf1 Si2 2.827992 1_555
Hf1 Si2 2.827996 1_655
Hf1 Ni3 3.010324 1_555
Hf1 Ni3 3.010328 1_655
Hf1 Si3 3.023471 1_545
Hf1 Ni2 3.085311 1_555
Hf1 Ni0 3.192707 1_545
Hf1 Ni5 3.192707 1_545
Hf2 Si6 2.761947 1_455
Hf2 Si4 2.761952 1_555
Hf2 Si7 2.792346 1_454
Hf2 Si5 2.792347 1_554
Hf2 Si2 2.798890 1_555
Hf2 Ni4 2.800645 1_555
Hf2 Ni1 2.800650 1_555
Hf2 Si1 2.827992 1_455
Hf2 Si1 2.827996 1_555
Hf2 Ni2 3.010324 1_455
Hf2 Ni2 3.010328 1_555
Hf2 Si0 3.023471 1_555
Hf2 Ni3 3.085311 1_555
Hf2 Ni5 3.192707 1_555
Hf2 Ni0 3.192707 1_455
Hf3 Si5 2.761947 1_655
Hf3 Si7 2.761952 1_555
Hf3 Si4 2.792346 1_656
Hf3 Si6 2.792347 1_556
Hf3 Si3 2.798890 1_555
Hf3 Ni0 2.800645 1_555
Hf3 Ni5 2.800650 1_555
Hf3 Si0 2.827992 1_655
Hf3 Si0 2.827996 1_555
Hf3 Ni2 3.010324 1_656
Hf3 Ni2 3.010328 1_556
Hf3 Si1 3.023471 1_555
Hf3 Ni3 3.085311 1_666
Hf3 Ni1 3.192707 1_555
Hf3 Ni4 3.192707 1_655
Si0 Si7 2.781284 1_555
Si0 Si5 2.781286 1_555
Si1 Si4 2.781284 1_555
Si1 Si6 2.781286 1_555
Si2 Si6 2.781284 1_445
Si2 Si4 2.781286 1_545
Si3 Si5 2.781284 1_665
Si3 Si7 2.781286 1_565
Ni0 Si6 2.272330 1_555
Ni0 Si1 2.350034 1_555
Ni0 Si2 2.350037 1_665
Ni0 Si3 2.354376 1_555
Ni0 Si0 2.354378 1_655
Ni0 Ni5 2.573325 1_655
Ni0 Ni5 2.573325 1_555
Ni1 Si7 2.272330 1_555
Ni1 Si3 2.350034 1_545
Ni1 Si0 2.350037 1_555
Ni1 Si1 2.354376 1_555
Ni1 Si2 2.354378 1_555
Ni1 Ni4 2.573325 1_655
Ni1 Ni4 2.573325 1_555
Ni2 Si4 2.296240 1_555
Ni2 Si7 2.296240 1_554
Ni2 Si6 2.296242 1_555
Ni2 Si5 2.296242 1_554
Ni2 Si1 2.467164 1_555
Ni2 Si0 2.467164 1_554
Ni3 Si5 2.296240 1_554
Ni3 Si6 2.296240 1_445
Ni3 Si7 2.296242 1_454
Ni3 Si4 2.296242 1_545
Ni3 Si3 2.467164 1_444
Ni3 Si2 2.467164 1_555
Ni4 Si5 2.272330 1_555
Ni4 Si0 2.350034 1_555
Ni4 Si3 2.350037 1_445
Ni4 Si2 2.354376 1_555
Ni4 Si1 2.354378 1_455
Ni5 Si4 2.272330 1_555
Ni5 Si2 2.350034 1_565
Ni5 Si1 2.350037 1_555
Ni5 Si0 2.354376 1_555
Ni5 Si3 2.354378 1_555
