# generated using pymatgen
data_Ba2MnAl2CuF14
_symmetry_space_group_name_H-M   'P 1'
_cell_length_a   7.44198828
_cell_length_b   7.44198828
_cell_length_c   14.55157252
_cell_angle_alpha   88.01146768
_cell_angle_beta   88.01146768
_cell_angle_gamma   41.41195651
_symmetry_Int_Tables_number   1
_chemical_formula_structural   Ba2MnAl2CuF14
_chemical_formula_sum   'Ba4 Mn2 Al4 Cu2 F28'
_cell_volume   532.71872748
_cell_formula_units_Z   2
loop_
 _symmetry_equiv_pos_site_id
 _symmetry_equiv_pos_as_xyz
  1  'x, y, z'
loop_
 _atom_site_type_symbol
 _atom_site_label
 _atom_site_symmetry_multiplicity
 _atom_site_fract_x
 _atom_site_fract_y
 _atom_site_fract_z
 _atom_site_occupancy
  Ba  Ba0  1  0.62895700  0.74874700  0.87880400  1
  Ba  Ba1  1  0.37104300  0.25125300  0.12119600  1
  Ba  Ba2  1  0.25125300  0.37104300  0.62119600  1
  Ba  Ba3  1  0.74874700  0.62895700  0.37880400  1
  Mn  Mn0  1  0.92500100  0.07499900  0.75000000  1
  Mn  Mn1  1  0.07499900  0.92500100  0.25000000  1
  Al  Al0  1  0.60159800  0.63553600  0.62594300  1
  Al  Al1  1  0.39840200  0.36446400  0.37405700  1
  Al  Al2  1  0.36446400  0.39840200  0.87405700  1
  Al  Al3  1  0.63553600  0.60159800  0.12594300  1
  Cu  Cu0  1  0.00000000  0.00000000  0.50000000  1
  Cu  Cu1  1  0.00000000  0.00000000  0.00000000  1
  F  F0  1  0.57461400  0.42002500  0.65592500  1
  F  F1  1  0.42538600  0.57997500  0.34407500  1
  F  F2  1  0.57997500  0.42538600  0.84407500  1
  F  F3  1  0.42002500  0.57461400  0.15592500  1
  F  F4  1  0.65966900  0.82721500  0.59587500  1
  F  F5  1  0.34033100  0.17278500  0.40412500  1
  F  F6  1  0.17278500  0.34033100  0.90412500  1
  F  F7  1  0.82721500  0.65966900  0.09587500  1
  F  F8  1  0.32669500  0.90210200  0.70396700  1
  F  F9  1  0.67330500  0.09789800  0.29603300  1
  F  F10  1  0.09789800  0.67330500  0.79603300  1
  F  F11  1  0.90210200  0.32669500  0.20396700  1
  F  F12  1  0.62530800  0.10977800  0.95269200  1
  F  F13  1  0.37469200  0.89022200  0.04730800  1
  F  F14  1  0.89022200  0.37469200  0.54730800  1
  F  F15  1  0.10977800  0.62530800  0.45269200  1
  F  F16  1  0.37921100  0.78796100  0.52474600  1
  F  F17  1  0.62078900  0.21203900  0.47525400  1
  F  F18  1  0.21203900  0.62078900  0.97525400  1
  F  F19  1  0.78796100  0.37921100  0.02474600  1
  F  F20  1  0.53747500  0.14752600  0.78018900  1
  F  F21  1  0.46252500  0.85247400  0.21981100  1
  F  F22  1  0.85247400  0.46252500  0.71981100  1
  F  F23  1  0.14752600  0.53747500  0.28018900  1
  F  F24  1  0.89410400  0.99124500  0.12078500  1
  F  F25  1  0.10589600  0.00875500  0.87921500  1
  F  F26  1  0.00875500  0.10589600  0.37921500  1
  F  F27  1  0.99124500  0.89410400  0.62078500  1
loop_
_geom_bond_atom_site_label_1
_geom_bond_atom_site_label_2
_geom_bond_distance
_geom_bond_site_symmetry_2
Ba0 F6 2.707074 1_655
Ba0 F22 2.723453 1_555
Ba0 F13 2.751410 1_556
Ba0 F2 2.755396 1_555
Ba0 F25 2.756453 1_565
Ba0 F20 2.841079 1_565
Ba0 F19 2.891571 1_556
Ba0 F12 2.909400 1_565
Ba0 F6 2.941230 1_565
Ba0 F8 3.029875 1_555
Ba1 F7 2.707074 1_455
Ba1 F23 2.723453 1_555
Ba1 F12 2.751410 1_554
Ba1 F3 2.755396 1_555
Ba1 F24 2.756453 1_545
Ba1 F21 2.841079 1_545
Ba1 F18 2.891571 1_554
Ba1 F13 2.909400 1_545
Ba1 F7 2.941230 1_545
Ba1 F9 3.029875 1_555
Ba2 F4 2.707074 1_545
Ba2 F20 2.723453 1_555
Ba2 F15 2.751410 1_555
Ba2 F0 2.755396 1_555
Ba2 F27 2.756453 1_455
Ba2 F22 2.841079 1_455
Ba2 F17 2.891571 1_555
Ba2 F14 2.909400 1_455
Ba2 F4 2.941230 1_455
Ba2 F10 3.029875 1_555
Ba3 F5 2.707074 1_565
Ba3 F21 2.723453 1_555
Ba3 F14 2.751410 1_555
Ba3 F1 2.755396 1_555
Ba3 F26 2.756453 1_655
Ba3 F23 2.841079 1_655
Ba3 F16 2.891571 1_555
Ba3 F15 2.909400 1_655
Ba3 F5 2.941230 1_655
Ba3 F11 3.029875 1_555
Al0 F0 1.797608 1_555
Al0 F4 1.811426 1_555
Al0 F8 1.821396 1_555
Al0 F14 1.849506 1_555
Al0 F16 1.852442 1_555
Al0 F22 1.859714 1_555
Al1 F1 1.797608 1_555
Al1 F5 1.811426 1_555
Al1 F9 1.821396 1_555
Al1 F15 1.849506 1_555
Al1 F17 1.852442 1_555
Al1 F23 1.859714 1_555
Al2 F2 1.797608 1_555
Al2 F6 1.811426 1_555
Al2 F10 1.821396 1_555
Al2 F12 1.849506 1_555
Al2 F18 1.852442 1_555
Al2 F20 1.859714 1_555
Al3 F3 1.797608 1_555
Al3 F7 1.811426 1_555
Al3 F11 1.821396 1_555
Al3 F13 1.849506 1_555
Al3 F19 1.852442 1_555
Al3 F21 1.859714 1_555
Cu0 F26 1.920274 1_555
Cu0 F27 1.920274 1_445
Cu0 F17 1.983778 1_455
Cu0 F16 1.983778 1_545
Cu0 F14 2.365166 1_455
Cu0 F15 2.365166 1_545
Cu1 F24 1.920274 1_445
Cu1 F25 1.920274 1_554
Cu1 F18 1.983778 1_544
Cu1 F19 1.983778 1_455
Cu1 F13 2.365166 1_545
Cu1 F12 2.365166 1_454
F0 Mn0 2.286361 1_555
F1 Mn1 2.286361 1_555
F2 Mn0 2.286361 1_555
F3 Mn1 2.286361 1_555
F8 Mn0 2.278637 1_465
F9 Mn1 2.278637 1_645
F10 Mn0 2.278637 1_465
F11 Mn1 2.278637 1_645
F20 Mn0 2.528886 1_555
F21 Mn1 2.528886 1_555
F22 Mn0 2.528886 1_555
F23 Mn1 2.528886 1_555
F24 Mn1 2.169486 1_655
F25 Mn0 2.169486 1_455
F26 Mn1 2.169486 1_545
F27 Mn0 2.169486 1_565
