# generated using pymatgen
data_DyGaAg
_symmetry_space_group_name_H-M   'P 1'
_cell_length_a   5.67878441
_cell_length_b   5.67878441
_cell_length_c   7.13744274
_cell_angle_alpha   52.21365739
_cell_angle_beta   52.21365739
_cell_angle_gamma   46.77823160
_symmetry_Int_Tables_number   1
_chemical_formula_structural   DyGaAg
_chemical_formula_sum   'Dy2 Ga2 Ag2'
_cell_volume   124.88139204
_cell_formula_units_Z   2
loop_
 _symmetry_equiv_pos_site_id
 _symmetry_equiv_pos_as_xyz
  1  'x, y, z'
loop_
 _atom_site_type_symbol
 _atom_site_label
 _atom_site_symmetry_multiplicity
 _atom_site_fract_x
 _atom_site_fract_y
 _atom_site_fract_z
 _atom_site_occupancy
  Dy  Dy0  1  0.53343673  0.53343673  0.70979562  1
  Dy  Dy1  1  0.46656327  0.46656327  0.29020438  1
  Ga  Ga0  1  0.84181005  0.84181005  0.11829696  1
  Ga  Ga1  1  0.15818995  0.15818995  0.88170304  1
  Ag  Ag0  1  0.17330600  0.17330600  0.27883860  1
  Ag  Ag1  1  0.82669400  0.82669400  0.72116140  1
loop_
_geom_bond_atom_site_label_1
_geom_bond_atom_site_label_2
_geom_bond_distance
_geom_bond_site_symmetry_2
Dy0 Ga0 3.130037 1_546
Dy0 Ga0 3.130037 1_456
Dy0 Ga0 3.168183 1_555
Dy0 Ga1 3.224700 1_555
Dy0 Ga1 3.226315 1_565
Dy0 Ga1 3.226315 1_655
Dy0 Dy1 3.498891 1_555
Dy1 Ga1 3.130037 1_564
Dy1 Ga1 3.130037 1_654
Dy1 Ga1 3.168183 1_555
Dy1 Ga0 3.224700 1_555
Dy1 Ga0 3.226315 1_455
Dy1 Ga0 3.226315 1_545
Ga0 Ga1 2.508557 1_664
Ag0 Ga0 2.606358 1_455
Ag0 Ga0 2.606358 1_545
Ag0 Ag1 2.791430 1_445
Ag0 Ga1 2.942065 1_554
Ag0 Dy1 3.082179 1_455
Ag0 Dy1 3.082179 1_545
Ag0 Dy1 3.111749 1_555
Ag0 Dy0 3.198715 1_554
Ag0 Dy0 3.268228 1_455
Ag0 Dy0 3.268228 1_545
Ag1 Ga1 2.606358 1_565
Ag1 Ga1 2.606358 1_655
Ag1 Ga0 2.942065 1_556
Ag1 Dy0 3.082179 1_655
Ag1 Dy0 3.082179 1_565
Ag1 Dy0 3.111749 1_555
Ag1 Dy1 3.198715 1_556
Ag1 Dy1 3.268228 1_655
Ag1 Dy1 3.268228 1_565
