# generated using pymatgen
data_Er14Ag51
_symmetry_space_group_name_H-M   'P 1'
_cell_length_a   12.72477440
_cell_length_b   12.72477440
_cell_length_c   9.34994000
_cell_angle_alpha   90.00000000
_cell_angle_beta   90.00000000
_cell_angle_gamma   120.00000206
_symmetry_Int_Tables_number   1
_chemical_formula_structural   Er14Ag51
_chemical_formula_sum   'Er14 Ag51'
_cell_volume   1311.11150755
_cell_formula_units_Z   1
loop_
 _symmetry_equiv_pos_site_id
 _symmetry_equiv_pos_as_xyz
  1  'x, y, z'
loop_
 _atom_site_type_symbol
 _atom_site_label
 _atom_site_symmetry_multiplicity
 _atom_site_fract_x
 _atom_site_fract_y
 _atom_site_fract_z
 _atom_site_occupancy
  Er  Er0  1  0.46733100  0.32955000  0.50000000  1
  Er  Er1  1  0.86222000  0.53266900  0.50000000  1
  Er  Er2  1  0.67045000  0.13778000  0.50000000  1
  Er  Er3  1  0.53272500  0.67165200  0.50000000  1
  Er  Er4  1  0.13892700  0.46727500  0.50000000  1
  Er  Er5  1  0.32834800  0.86107300  0.50000000  1
  Er  Er6  1  0.11287900  0.72702300  0.00000000  1
  Er  Er7  1  0.61414300  0.88712100  0.00000000  1
  Er  Er8  1  0.27297700  0.38585700  0.00000000  1
  Er  Er9  1  0.88307500  0.28342600  0.00000000  1
  Er  Er10  1  0.40035100  0.11692500  0.00000000  1
  Er  Er11  1  0.71657400  0.59964900  0.00000000  1
  Er  Er12  1  0.00000000  0.00000000  0.69162100  1
  Er  Er13  1  0.00000000  0.00000000  0.30837900  1
  Ag  Ag0  1  0.49276100  0.37785600  0.84822300  1
  Ag  Ag1  1  0.88509500  0.50723900  0.84822300  1
  Ag  Ag2  1  0.62214400  0.11490500  0.84822300  1
  Ag  Ag3  1  0.50513400  0.62073600  0.84873900  1
  Ag  Ag4  1  0.11560200  0.49486600  0.84873900  1
  Ag  Ag5  1  0.37926400  0.88439800  0.84873900  1
  Ag  Ag6  1  0.50513400  0.62073600  0.15126100  1
  Ag  Ag7  1  0.11560200  0.49486600  0.15126100  1
  Ag  Ag8  1  0.37926400  0.88439800  0.15126100  1
  Ag  Ag9  1  0.49276100  0.37785600  0.15177700  1
  Ag  Ag10  1  0.88509500  0.50723900  0.15177700  1
  Ag  Ag11  1  0.62214400  0.11490500  0.15177700  1
  Ag  Ag12  1  0.05937100  0.82170200  0.50000000  1
  Ag  Ag13  1  0.76233100  0.94062900  0.50000000  1
  Ag  Ag14  1  0.17829800  0.23766900  0.50000000  1
  Ag  Ag15  1  0.93980600  0.17832400  0.50000000  1
  Ag  Ag16  1  0.23851800  0.06019400  0.50000000  1
  Ag  Ag17  1  0.82167600  0.76148200  0.50000000  1
  Ag  Ag18  1  0.66666700  0.33333300  0.00000000  1
  Ag  Ag19  1  0.33333300  0.66666700  0.00000000  1
  Ag  Ag20  1  0.10506900  0.66568700  0.66712800  1
  Ag  Ag21  1  0.56061800  0.89493100  0.66712800  1
  Ag  Ag22  1  0.33431300  0.43938200  0.66712800  1
  Ag  Ag23  1  0.89440300  0.33495100  0.66662400  1
  Ag  Ag24  1  0.44054800  0.10559700  0.66662400  1
  Ag  Ag25  1  0.66504900  0.55945200  0.66662400  1
  Ag  Ag26  1  0.89440300  0.33495100  0.33337600  1
  Ag  Ag27  1  0.44054800  0.10559700  0.33337600  1
  Ag  Ag28  1  0.66504900  0.55945200  0.33337600  1
  Ag  Ag29  1  0.10506900  0.66568700  0.33287200  1
  Ag  Ag30  1  0.56061800  0.89493100  0.33287200  1
  Ag  Ag31  1  0.33431300  0.43938200  0.33287200  1
  Ag  Ag32  1  0.19140000  0.92290300  0.76175000  1
  Ag  Ag33  1  0.73150300  0.80860000  0.76175000  1
  Ag  Ag34  1  0.07709700  0.26849700  0.76175000  1
  Ag  Ag35  1  0.81050200  0.07402300  0.76825200  1
  Ag  Ag36  1  0.26352100  0.18949800  0.76825200  1
  Ag  Ag37  1  0.92597700  0.73647900  0.76825200  1
  Ag  Ag38  1  0.81050200  0.07402300  0.23174800  1
  Ag  Ag39  1  0.26352100  0.18949800  0.23174800  1
  Ag  Ag40  1  0.92597700  0.73647900  0.23174800  1
  Ag  Ag41  1  0.19140000  0.92290300  0.23825000  1
  Ag  Ag42  1  0.73150300  0.80860000  0.23825000  1
  Ag  Ag43  1  0.07709700  0.26849700  0.23825000  1
  Ag  Ag44  1  0.66666700  0.33333300  0.69459100  1
  Ag  Ag45  1  0.33333300  0.66666700  0.69479000  1
  Ag  Ag46  1  0.33333300  0.66666700  0.30521000  1
  Ag  Ag47  1  0.66666700  0.33333300  0.30540900  1
  Ag  Ag48  1  0.13545000  0.02033600  0.00000000  1
  Ag  Ag49  1  0.88488600  0.86455000  0.00000000  1
  Ag  Ag50  1  0.97966400  0.11511400  0.00000000  1
loop_
_geom_bond_atom_site_label_1
_geom_bond_atom_site_label_2
_geom_bond_distance
_geom_bond_site_symmetry_2
Ag0 Ag36 2.796656 1_555
Ag0 Ag25 2.821876 1_555
Ag0 Ag9 2.838212 1_556
Ag0 Ag18 2.912995 1_556
Ag0 Ag44 2.921484 1_555
Ag0 Ag3 3.014960 1_555
Ag0 Ag22 3.020527 1_555
Ag0 Er11 3.170528 1_556
Ag0 Er8 3.182845 1_556
Ag0 Er10 3.242930 1_556
Ag0 Er0 3.299135 1_555
Ag1 Ag37 2.796656 1_555
Ag1 Ag23 2.821876 1_555
Ag1 Ag10 2.838212 1_556
Ag1 Ag18 2.912988 1_556
Ag1 Ag44 2.921477 1_555
Ag1 Ag4 3.014960 1_655
Ag1 Ag20 3.020527 1_655
Ag1 Er9 3.170528 1_556
Ag1 Er6 3.182839 1_656
Ag1 Er11 3.242930 1_556
Ag1 Er1 3.299133 1_555
Ag2 Ag35 2.796656 1_555
Ag2 Ag24 2.821876 1_555
Ag2 Ag44 2.921473 1_555
Ag2 Ag5 3.014960 1_545
Ag2 Ag21 3.020527 1_545
Ag2 Er10 3.170528 1_556
Ag2 Er7 3.182834 1_546
Ag2 Er9 3.242929 1_556
Ag2 Er2 3.299135 1_555
Ag3 Ag33 2.790608 1_555
Ag3 Ag6 2.828563 1_556
Ag3 Ag45 2.910391 1_555
Ag3 Er11 3.167501 1_556
Ag3 Er7 3.272978 1_556
Ag3 Er8 3.291001 1_556
Ag3 Er3 3.308724 1_555
Ag4 Ag7 2.828563 1_556
Ag4 Ag45 2.910384 1_555
Ag4 Er9 3.167501 1_456
Ag4 Er8 3.272967 1_556
Ag4 Er6 3.291007 1_556
Ag4 Er4 3.308724 1_555
Ag5 Ag8 2.828563 1_556
Ag5 Er10 3.167501 1_566
Ag5 Er6 3.272976 1_556
Ag5 Er7 3.290996 1_556
Ag5 Er5 3.308724 1_555
Ag6 Ag9 3.014960 1_555
Ag6 Er11 3.167501 1_555
Ag6 Er7 3.272978 1_555
Ag6 Er8 3.291001 1_555
Ag6 Er3 3.308724 1_555
Ag7 Er9 3.167501 1_455
Ag7 Er8 3.272967 1_555
Ag7 Er6 3.291007 1_555
Ag7 Er4 3.308724 1_555
Ag8 Er10 3.167501 1_565
Ag8 Er6 3.272976 1_555
Ag8 Er7 3.290996 1_555
Ag8 Er5 3.308724 1_555
Ag9 Er11 3.170528 1_555
Ag9 Er8 3.182845 1_555
Ag9 Er10 3.242930 1_555
Ag9 Er0 3.299135 1_555
Ag10 Ag40 2.796656 1_555
Ag10 Ag26 2.821876 1_555
Ag10 Ag18 2.912988 1_555
Ag10 Ag47 2.921477 1_555
Ag10 Ag7 3.014960 1_655
Ag10 Ag29 3.020527 1_655
Ag10 Er9 3.170528 1_555
Ag10 Er6 3.182839 1_655
Ag10 Er11 3.242930 1_555
Ag10 Er1 3.299133 1_555
Ag11 Ag38 2.796656 1_555
Ag11 Ag27 2.821876 1_555
Ag11 Ag2 2.838212 1_554
Ag11 Ag18 2.912984 1_555
Ag11 Ag47 2.921473 1_555
Ag11 Ag8 3.014960 1_545
Ag11 Ag30 3.020527 1_545
Ag11 Er10 3.170528 1_555
Ag11 Er7 3.182834 1_545
Ag11 Er9 3.242929 1_555
Ag11 Er2 3.299135 1_555
Ag12 Ag17 2.723559 1_455
Ag12 Ag16 2.736476 1_565
Ag12 Ag20 2.806356 1_555
Ag12 Ag29 2.806356 1_555
Ag12 Ag32 2.882165 1_555
Ag12 Ag41 2.882165 1_555
Ag12 Ag40 2.916717 1_455
Ag12 Ag37 2.916717 1_455
Ag12 Er5 3.201711 1_555
Ag12 Er1 3.254793 1_455
Ag12 Er13 3.262246 1_565
Ag12 Er12 3.262246 1_565
Ag13 Ag15 2.723559 1_565
Ag13 Ag17 2.736476 1_555
Ag13 Ag21 2.806356 1_555
Ag13 Ag30 2.806356 1_555
Ag13 Ag33 2.882165 1_555
Ag13 Ag42 2.882165 1_555
Ag13 Ag38 2.916717 1_565
Ag13 Ag35 2.916717 1_565
Ag13 Er3 3.201711 1_555
Ag13 Er2 3.254784 1_565
Ag13 Er13 3.262246 1_665
Ag13 Er12 3.262246 1_665
Ag14 Ag16 2.723559 1_555
Ag14 Ag15 2.736476 1_455
Ag14 Ag31 2.806356 1_555
Ag14 Ag22 2.806356 1_555
Ag14 Ag34 2.882165 1_555
Ag14 Ag43 2.882165 1_555
Ag14 Ag39 2.916717 1_555
Ag14 Ag36 2.916717 1_555
Ag14 Er4 3.201711 1_555
Ag14 Er0 3.254796 1_555
Ag14 Er13 3.262246 1_555
Ag14 Er12 3.262246 1_555
Ag15 Ag23 2.807954 1_555
Ag15 Ag26 2.807954 1_555
Ag15 Ag43 2.890250 1_655
Ag15 Ag34 2.890250 1_655
Ag15 Ag38 2.928435 1_555
Ag15 Ag35 2.928435 1_555
Ag15 Er2 3.200874 1_555
Ag15 Er4 3.259272 1_655
Ag15 Er12 3.268592 1_655
Ag15 Er13 3.268592 1_655
Ag16 Ag27 2.807954 1_555
Ag16 Ag24 2.807954 1_555
Ag16 Ag32 2.890250 1_545
Ag16 Ag41 2.890250 1_545
Ag16 Ag39 2.928435 1_555
Ag16 Ag36 2.928435 1_555
Ag16 Er0 3.200879 1_555
Ag16 Er5 3.259273 1_545
Ag16 Er12 3.268592 1_555
Ag16 Er13 3.268592 1_555
Ag17 Ag28 2.807954 1_555
Ag17 Ag25 2.807954 1_555
Ag17 Ag33 2.890250 1_555
Ag17 Ag42 2.890250 1_555
Ag17 Ag40 2.928435 1_555
Ag17 Ag37 2.928435 1_555
Ag17 Er1 3.200887 1_555
Ag17 Er3 3.259273 1_555
Ag17 Er13 3.268592 1_665
Ag17 Er12 3.268592 1_665
Ag18 Ag47 2.855556 1_555
Ag18 Ag44 2.855556 1_554
Ag18 Ag2 2.912984 1_554
Ag18 Ag9 2.912995 1_555
Ag18 Er9 3.120124 1_555
Ag18 Er10 3.120132 1_555
Ag18 Er11 3.120137 1_555
Ag19 Ag45 2.853695 1_554
Ag19 Ag46 2.853695 1_555
Ag19 Ag5 2.898032 1_554
Ag19 Ag8 2.898032 1_555
Ag19 Ag4 2.898036 1_554
Ag19 Ag7 2.898036 1_555
Ag19 Ag6 2.898043 1_555
Ag19 Ag3 2.898043 1_554
Ag19 Er7 3.257854 1_555
Ag19 Er8 3.257854 1_555
Ag19 Er6 3.257854 1_555
Ag20 Ag4 2.813800 1_555
Ag20 Ag45 2.909910 1_555
Ag20 Ag37 2.991942 1_455
Ag20 Ag32 3.017713 1_555
Ag20 Er1 3.102514 1_455
Ag20 Er5 3.103492 1_555
Ag20 Ag29 3.125274 1_555
Ag20 Er4 3.176406 1_555
Ag20 Er6 3.198138 1_556
Ag21 Ag5 2.813800 1_555
Ag21 Ag45 2.909916 1_555
Ag21 Ag35 2.991941 1_565
Ag21 Ag33 3.017713 1_555
Ag21 Er2 3.102513 1_565
Ag21 Er3 3.103492 1_555
Ag21 Ag30 3.125274 1_555
Ag21 Er5 3.176406 1_555
Ag21 Er7 3.198135 1_556
Ag22 Ag3 2.813800 1_555
Ag22 Ag45 2.909922 1_555
Ag22 Ag36 2.991942 1_555
Ag22 Ag34 3.017713 1_555
Ag22 Er0 3.102523 1_555
Ag22 Er4 3.103492 1_555
Ag22 Ag31 3.125274 1_555
Ag22 Er3 3.176406 1_555
Ag22 Er8 3.198137 1_556
Ag23 Ag44 2.899465 1_555
Ag23 Ag34 2.979325 1_655
Ag23 Ag4 3.038936 1_655
Ag23 Ag35 3.085776 1_555
Ag23 Er2 3.113386 1_555
Ag23 Er4 3.115230 1_655
Ag23 Ag26 3.115849 1_555
Ag23 Er1 3.155154 1_555
Ag23 Er9 3.173659 1_556
Ag24 Ag44 2.899471 1_555
Ag24 Ag32 2.979325 1_545
Ag24 Ag5 3.038936 1_545
Ag24 Ag36 3.085776 1_555
Ag24 Er0 3.113381 1_555
Ag24 Er5 3.115230 1_545
Ag24 Ag27 3.115849 1_555
Ag24 Er2 3.155165 1_555
Ag24 Er10 3.173659 1_556
Ag25 Ag44 2.899478 1_555
Ag25 Ag33 2.979325 1_555
Ag25 Ag3 3.038936 1_555
Ag25 Ag37 3.085776 1_555
Ag25 Er1 3.113392 1_555
Ag25 Er3 3.115230 1_555
Ag25 Ag28 3.115849 1_555
Ag25 Er0 3.155161 1_555
Ag25 Er11 3.173659 1_556
Ag26 Ag47 2.899465 1_555
Ag26 Ag43 2.979325 1_655
Ag26 Ag7 3.038936 1_655
Ag26 Ag38 3.085776 1_555
Ag26 Er2 3.113386 1_555
Ag26 Er4 3.115230 1_655
Ag26 Er1 3.155154 1_555
Ag26 Er9 3.173659 1_555
Ag27 Ag47 2.899471 1_555
Ag27 Ag41 2.979325 1_545
Ag27 Ag8 3.038936 1_545
Ag27 Ag39 3.085776 1_555
Ag27 Er0 3.113381 1_555
Ag27 Er5 3.115230 1_545
Ag27 Er2 3.155165 1_555
Ag27 Er10 3.173659 1_555
Ag28 Ag9 2.821876 1_555
Ag28 Ag47 2.899478 1_555
Ag28 Ag42 2.979325 1_555
Ag28 Ag6 3.038936 1_555
Ag28 Ag40 3.085776 1_555
Ag28 Er1 3.113392 1_555
Ag28 Er3 3.115230 1_555
Ag28 Er0 3.155161 1_555
Ag28 Er11 3.173659 1_555
Ag29 Ag7 2.813800 1_555
Ag29 Ag46 2.909910 1_555
Ag29 Ag40 2.991942 1_455
Ag29 Ag41 3.017713 1_555
Ag29 Er1 3.102514 1_455
Ag29 Er5 3.103492 1_555
Ag29 Er4 3.176406 1_555
Ag29 Er6 3.198138 1_555
Ag30 Ag8 2.813800 1_555
Ag30 Ag46 2.909916 1_555
Ag30 Ag38 2.991941 1_565
Ag30 Ag42 3.017713 1_555
Ag30 Er2 3.102513 1_565
Ag30 Er3 3.103492 1_555
Ag30 Er5 3.176406 1_555
Ag30 Er7 3.198135 1_555
Ag31 Ag6 2.813800 1_555
Ag31 Ag46 2.909922 1_555
Ag31 Ag39 2.991942 1_555
Ag31 Ag43 3.017713 1_555
Ag31 Ag9 3.020527 1_555
Ag31 Er0 3.102523 1_555
Ag31 Er4 3.103492 1_555
Ag31 Er3 3.176406 1_555
Ag31 Er8 3.198137 1_555
Ag32 Ag5 2.790608 1_555
Ag32 Ag48 2.808737 1_566
Ag32 Ag37 3.004364 1_455
Ag32 Ag36 3.039865 1_565
Ag32 Er6 3.111734 1_556
Ag32 Er12 3.116649 1_565
Ag32 Er5 3.319087 1_555
Ag32 Er10 3.400412 1_566
Ag33 Ag49 2.808737 1_556
Ag33 Ag35 3.004364 1_565
Ag33 Ag37 3.039865 1_555
Ag33 Er7 3.111742 1_556
Ag33 Er12 3.116649 1_665
Ag33 Er3 3.319087 1_555
Ag33 Er11 3.400412 1_556
Ag34 Ag4 2.790608 1_555
Ag34 Ag50 2.808737 1_456
Ag34 Ag36 3.004364 1_555
Ag34 Ag35 3.039865 1_455
Ag34 Er8 3.111735 1_556
Ag34 Er12 3.116649 1_555
Ag34 Er4 3.319087 1_555
Ag34 Er9 3.400412 1_456
Ag35 Ag50 2.911443 1_556
Ag35 Er12 3.079989 1_655
Ag35 Er9 3.191768 1_556
Ag35 Er7 3.263752 1_546
Ag35 Er2 3.401585 1_555
Ag36 Ag48 2.911443 1_556
Ag36 Er12 3.079989 1_555
Ag36 Er10 3.191768 1_556
Ag36 Er8 3.263756 1_556
Ag36 Er0 3.401592 1_555
Ag37 Ag49 2.911443 1_556
Ag37 Er12 3.079989 1_665
Ag37 Er11 3.191768 1_556
Ag37 Er6 3.263747 1_656
Ag37 Er1 3.401593 1_555
Ag38 Ag50 2.911443 1_555
Ag38 Ag42 3.004364 1_545
Ag38 Ag43 3.039865 1_655
Ag38 Er13 3.079989 1_655
Ag38 Er9 3.191768 1_555
Ag38 Er7 3.263752 1_545
Ag38 Er2 3.401585 1_555
Ag39 Ag9 2.796656 1_555
Ag39 Ag48 2.911443 1_555
Ag39 Ag43 3.004364 1_555
Ag39 Ag41 3.039865 1_545
Ag39 Er13 3.079989 1_555
Ag39 Er10 3.191768 1_555
Ag39 Er8 3.263756 1_555
Ag39 Er0 3.401592 1_555
Ag40 Ag49 2.911443 1_555
Ag40 Ag41 3.004364 1_655
Ag40 Ag42 3.039865 1_555
Ag40 Er13 3.079989 1_665
Ag40 Er11 3.191768 1_555
Ag40 Er6 3.263747 1_655
Ag40 Er1 3.401593 1_555
Ag41 Ag8 2.790608 1_555
Ag41 Ag48 2.808737 1_565
Ag41 Er6 3.111734 1_555
Ag41 Er13 3.116649 1_565
Ag41 Er5 3.319087 1_555
Ag41 Er10 3.400412 1_565
Ag42 Ag6 2.790608 1_555
Ag42 Ag49 2.808737 1_555
Ag42 Er7 3.111742 1_555
Ag42 Er13 3.116649 1_665
Ag42 Er3 3.319087 1_555
Ag42 Er11 3.400412 1_555
Ag43 Ag7 2.790608 1_555
Ag43 Ag50 2.808737 1_455
Ag43 Er8 3.111735 1_555
Ag43 Er13 3.116649 1_555
Ag43 Er4 3.319087 1_555
Ag43 Er9 3.400412 1_455
Ag44 Er1 3.102313 1_555
Ag44 Er0 3.102313 1_555
Ag44 Er2 3.102313 1_555
Ag45 Ag5 2.910380 1_555
Ag45 Er5 3.097989 1_555
Ag45 Er4 3.097994 1_555
Ag45 Er3 3.097999 1_555
Ag46 Ag8 2.910380 1_555
Ag46 Ag7 2.910384 1_555
Ag46 Ag6 2.910391 1_555
Ag46 Er5 3.097989 1_555
Ag46 Er4 3.097994 1_555
Ag46 Er3 3.097999 1_555
Ag47 Ag9 2.921484 1_555
Ag47 Er1 3.102313 1_555
Ag47 Er0 3.102313 1_555
Ag47 Er2 3.102313 1_555
Ag48 Ag49 2.788359 1_445
Ag48 Ag50 2.788359 1_455
Ag48 Er10 2.954655 1_555
Ag48 Er12 3.302304 1_554
Ag48 Er13 3.302304 1_555
Ag48 Er6 3.597346 1_545
Ag49 Ag50 2.788359 1_565
Ag49 Er11 2.954655 1_555
Ag49 Er12 3.302304 1_664
Ag49 Er13 3.302304 1_665
Ag49 Er7 3.597358 1_555
Ag50 Er9 2.954655 1_555
Ag50 Er12 3.302304 1_654
Ag50 Er13 3.302304 1_655
Ag50 Er8 3.597351 1_655
