# generated using pymatgen
data_CaSb4H6(SO8)2
_symmetry_space_group_name_H-M   'P 1'
_cell_length_a   12.92188472
_cell_length_b   12.92188472
_cell_length_c   10.28301930
_cell_angle_alpha   83.46896887
_cell_angle_beta   83.46896887
_cell_angle_gamma   25.58644877
_symmetry_Int_Tables_number   1
_chemical_formula_structural   CaSb4H6(SO8)2
_chemical_formula_sum   'Ca2 Sb8 H12 S4 O32'
_cell_volume   736.46733464
_cell_formula_units_Z   2
loop_
 _symmetry_equiv_pos_site_id
 _symmetry_equiv_pos_as_xyz
  1  'x, y, z'
loop_
 _atom_site_type_symbol
 _atom_site_label
 _atom_site_symmetry_multiplicity
 _atom_site_fract_x
 _atom_site_fract_y
 _atom_site_fract_z
 _atom_site_occupancy
  Ca  Ca0  1  0.68179600  0.31820400  0.25000000  1
  Ca  Ca1  1  0.31820400  0.68179600  0.75000000  1
  Sb  Sb0  1  0.21173400  0.20614800  0.51472800  1
  Sb  Sb1  1  0.79385200  0.78826600  0.98527200  1
  Sb  Sb2  1  0.78826600  0.79385200  0.48527200  1
  Sb  Sb3  1  0.20614800  0.21173400  0.01472800  1
  Sb  Sb4  1  0.74559700  0.62042200  0.27001500  1
  Sb  Sb5  1  0.37957800  0.25440300  0.22998500  1
  Sb  Sb6  1  0.25440300  0.37957800  0.72998500  1
  Sb  Sb7  1  0.62042200  0.74559700  0.77001500  1
  H  H0  1  0.20037100  0.91147900  0.22399900  1
  H  H1  1  0.08852100  0.79962900  0.27600100  1
  H  H2  1  0.79962900  0.08852100  0.77600100  1
  H  H3  1  0.91147900  0.20037100  0.72399900  1
  H  H4  1  0.14997900  0.95079600  0.37752900  1
  H  H5  1  0.04920400  0.85002100  0.12247100  1
  H  H6  1  0.85002100  0.04920400  0.62247100  1
  H  H7  1  0.95079600  0.14997900  0.87752900  1
  H  H8  1  0.04107100  0.19719000  0.28169200  1
  H  H9  1  0.80281000  0.95892900  0.21830800  1
  H  H10  1  0.95892900  0.80281000  0.71830800  1
  H  H11  1  0.19719000  0.04107100  0.78169200  1
  S  S0  1  0.56433200  0.59385900  0.51713400  1
  S  S1  1  0.40614100  0.43566800  0.98286600  1
  S  S2  1  0.43566800  0.40614100  0.48286600  1
  S  S3  1  0.59385900  0.56433200  0.01713400  1
  O  O0  1  0.64494800  0.63120700  0.52890100  1
  O  O1  1  0.36879300  0.35505200  0.97109900  1
  O  O2  1  0.35505200  0.36879300  0.47109900  1
  O  O3  1  0.63120700  0.64494800  0.02890100  1
  O  O4  1  0.62212900  0.52012800  0.38071300  1
  O  O5  1  0.47987200  0.37787100  0.11928700  1
  O  O6  1  0.37787100  0.47987200  0.61928700  1
  O  O7  1  0.52012800  0.62212900  0.88071300  1
  O  O8  1  0.68618300  0.40912500  0.61522600  1
  O  O9  1  0.59087500  0.31381700  0.88477400  1
  O  O10  1  0.31381700  0.59087500  0.38477400  1
  O  O11  1  0.40912500  0.68618300  0.11522600  1
  O  O12  1  0.30127700  0.82027900  0.54593700  1
  O  O13  1  0.17972100  0.69872300  0.95406300  1
  O  O14  1  0.69872300  0.17972100  0.45406300  1
  O  O15  1  0.82027900  0.30127700  0.04593700  1
  O  O16  1  0.07595300  0.03639700  0.29163600  1
  O  O17  1  0.96360300  0.92404700  0.20836400  1
  O  O18  1  0.92404700  0.96360300  0.70836400  1
  O  O19  1  0.03639700  0.07595300  0.79163600  1
  O  O20  1  0.92261200  0.55387000  0.38838400  1
  O  O21  1  0.44613000  0.07738800  0.11161600  1
  O  O22  1  0.07738800  0.44613000  0.61161600  1
  O  O23  1  0.55387000  0.92261200  0.88838400  1
  O  O24  1  0.92030800  0.55386900  0.11549600  1
  O  O25  1  0.44613100  0.07969200  0.38450400  1
  O  O26  1  0.07969200  0.44613100  0.88450400  1
  O  O27  1  0.55386900  0.92030800  0.61549600  1
  O  O28  1  0.05388300  0.26430700  0.27068600  1
  O  O29  1  0.73569300  0.94611700  0.22931400  1
  O  O30  1  0.94611700  0.73569300  0.72931400  1
  O  O31  1  0.26430700  0.05388300  0.77068600  1
loop_
_geom_bond_atom_site_label_1
_geom_bond_atom_site_label_2
_geom_bond_distance
_geom_bond_site_symmetry_2
Ca0 O16 2.463732 1_655
Ca0 O17 2.463732 1_545
Ca0 O4 2.478384 1_555
Ca0 O5 2.478384 1_555
Ca0 O15 2.489458 1_555
Ca0 O14 2.489458 1_555
Ca0 O11 2.516959 1_555
Ca0 O10 2.516959 1_555
Ca1 O19 2.463732 1_565
Ca1 O18 2.463732 1_455
Ca1 O7 2.478384 1_555
Ca1 O6 2.478384 1_555
Ca1 O12 2.489458 1_555
Ca1 O13 2.489458 1_555
Ca1 O8 2.516959 1_555
Ca1 O9 2.516959 1_555
H0 O16 0.996889 1_565
H0 O11 1.700407 1_555
H1 O17 0.996889 1_455
H1 O10 1.700407 1_555
H2 O18 0.996889 1_545
H2 O9 1.700407 1_555
H3 O19 0.996889 1_655
H3 O8 1.700407 1_555
H4 O16 0.989925 1_565
H5 O17 0.989925 1_455
H6 O18 0.989925 1_545
H7 O19 0.989925 1_655
H8 O28 1.012325 1_555
H8 O16 1.674349 1_555
H9 O29 1.012325 1_555
H9 O17 1.674349 1_555
H10 O30 1.012325 1_555
H10 O18 1.674349 1_555
H11 O31 1.012325 1_555
H11 O19 1.674349 1_555
O0 S0 1.510477 1_555
O1 S1 1.510477 1_555
O2 S2 1.510477 1_555
O3 S3 1.510477 1_555
O4 S0 1.488476 1_555
O5 S1 1.488476 1_554
O6 S2 1.488476 1_555
O7 S3 1.488476 1_556
O8 S0 1.492794 1_555
O9 S1 1.492794 1_555
O10 S2 1.492794 1_555
O11 S3 1.492794 1_555
O12 S0 1.493481 1_555
O13 S1 1.493481 1_555
O14 S2 1.493481 1_555
O15 S3 1.493481 1_555
O20 Sb2 2.054532 1_555
O20 Sb4 2.073652 1_555
O20 Sb0 2.308656 1_655
O21 Sb3 2.054532 1_555
O21 Sb5 2.073652 1_555
O21 Sb1 2.308656 1_544
O22 Sb0 2.054532 1_555
O22 Sb6 2.073652 1_555
O22 Sb2 2.308656 1_455
O23 Sb1 2.054532 1_555
O23 Sb7 2.073652 1_555
O23 Sb3 2.308656 1_566
O24 Sb1 2.069896 1_554
O24 Sb4 2.086527 1_555
O24 Sb3 2.230931 1_655
O25 Sb0 2.069896 1_555
O25 Sb5 2.086527 1_555
O25 Sb2 2.230931 1_545
O26 Sb3 2.069896 1_556
O26 Sb6 2.086527 1_555
O26 Sb1 2.230931 1_455
O27 Sb2 2.069896 1_555
O27 Sb7 2.086527 1_555
O27 Sb0 2.230931 1_565
O28 Sb4 1.994092 1_455
O29 Sb5 1.994092 1_565
O30 Sb6 1.994092 1_655
O31 Sb7 1.994092 1_545
