# generated using pymatgen
data_CsEuCl3
_symmetry_space_group_name_H-M   'P 1'
_cell_length_a   5.63313725
_cell_length_b   5.63314140
_cell_length_c   5.63314140
_cell_angle_alpha   90.00000000
_cell_angle_beta   90.00000000
_cell_angle_gamma   90.00000000
_symmetry_Int_Tables_number   1
_chemical_formula_structural   CsEuCl3
_chemical_formula_sum   'Cs1 Eu1 Cl3'
_cell_volume   178.75229994
_cell_formula_units_Z   1
loop_
 _symmetry_equiv_pos_site_id
 _symmetry_equiv_pos_as_xyz
  1  'x, y, z'
loop_
 _atom_site_type_symbol
 _atom_site_label
 _atom_site_symmetry_multiplicity
 _atom_site_fract_x
 _atom_site_fract_y
 _atom_site_fract_z
 _atom_site_occupancy
  Cs  Cs0  1  0.00000000  0.00000000  0.00000000  1
  Eu  Eu0  1  0.50000000  0.50000000  0.50000000  1
  Cl  Cl0  1  0.50000000  0.50000000  0.00000000  1
  Cl  Cl1  1  0.50000000  0.00000000  0.50000000  1
  Cl  Cl2  1  0.00000000  0.50000000  0.50000000  1
loop_
_geom_bond_atom_site_label_1
_geom_bond_atom_site_label_2
_geom_bond_distance
_geom_bond_site_symmetry_2
Cl0 Eu0 2.816571 1_554
Cl0 Eu0 2.816571 1_555
Cl0 Cs0 3.983231 1_565
Cl0 Cs0 3.983231 1_555
Cl0 Cs0 3.983231 1_655
Cl0 Cs0 3.983231 1_665
Cl1 Eu0 2.816571 1_555
Cl1 Eu0 2.816571 1_545
Cl1 Cs0 3.983231 1_656
Cl1 Cs0 3.983231 1_555
Cl1 Cs0 3.983231 1_655
Cl1 Cs0 3.983231 1_556
Cl2 Eu0 2.816569 1_455
Cl2 Eu0 2.816569 1_555
Cl2 Cs0 3.983232 1_555
Cl2 Cs0 3.983232 1_556
Cl2 Cs0 3.983232 1_565
Cl2 Cs0 3.983232 1_566
