# generated using pymatgen
data_KDy3F10
_symmetry_space_group_name_H-M   'P 1'
_cell_length_a   8.13989860
_cell_length_b   8.13989860
_cell_length_c   8.13989860
_cell_angle_alpha   60.00000000
_cell_angle_beta   60.00000000
_cell_angle_gamma   60.00000000
_symmetry_Int_Tables_number   1
_chemical_formula_structural   KDy3F10
_chemical_formula_sum   'K2 Dy6 F20'
_cell_volume   381.36601354
_cell_formula_units_Z   2
loop_
 _symmetry_equiv_pos_site_id
 _symmetry_equiv_pos_as_xyz
  1  'x, y, z'
loop_
 _atom_site_type_symbol
 _atom_site_label
 _atom_site_symmetry_multiplicity
 _atom_site_fract_x
 _atom_site_fract_y
 _atom_site_fract_z
 _atom_site_occupancy
  K  K0  1  0.25000000  0.25000000  0.25000000  1
  K  K1  1  0.75000000  0.75000000  0.75000000  1
  Dy  Dy0  1  0.75995344  0.24004656  0.24004656  1
  Dy  Dy1  1  0.24004656  0.75995344  0.75995344  1
  Dy  Dy2  1  0.24004656  0.75995344  0.24004656  1
  Dy  Dy3  1  0.75995344  0.24004656  0.75995344  1
  Dy  Dy4  1  0.24004656  0.24004656  0.75995344  1
  Dy  Dy5  1  0.75995344  0.75995344  0.24004656  1
  F  F0  1  0.83195226  0.50000000  0.50000000  1
  F  F1  1  0.16804774  0.50000000  0.50000000  1
  F  F2  1  0.50000000  0.83195226  0.16804774  1
  F  F3  1  0.50000000  0.16804774  0.83195226  1
  F  F4  1  0.50000000  0.83195226  0.50000000  1
  F  F5  1  0.16804774  0.50000000  0.83195226  1
  F  F6  1  0.50000000  0.16804774  0.50000000  1
  F  F7  1  0.83195226  0.50000000  0.16804774  1
  F  F8  1  0.50000000  0.50000000  0.83195226  1
  F  F9  1  0.50000000  0.50000000  0.16804774  1
  F  F10  1  0.16804774  0.83195226  0.50000000  1
  F  F11  1  0.83195226  0.16804774  0.50000000  1
  F  F12  1  0.11210486  0.11210486  0.11210486  1
  F  F13  1  0.88789514  0.88789514  0.88789514  1
  F  F14  1  0.11210486  0.11210486  0.66368543  1
  F  F15  1  0.11210486  0.66368543  0.11210486  1
  F  F16  1  0.88789514  0.88789514  0.33631457  1
  F  F17  1  0.88789514  0.33631457  0.88789514  1
  F  F18  1  0.66368543  0.11210486  0.11210486  1
  F  F19  1  0.33631457  0.88789514  0.88789514  1
loop_
_geom_bond_atom_site_label_1
_geom_bond_atom_site_label_2
_geom_bond_distance
_geom_bond_site_symmetry_2
Dy0 F11 2.195656 1_555
Dy0 F6 2.195656 1_555
Dy0 F9 2.195656 1_555
Dy0 F7 2.195656 1_555
Dy0 F18 2.345197 1_555
Dy0 F12 2.345197 1_655
Dy0 F17 2.345197 1_554
Dy0 F16 2.345197 1_545
Dy1 F5 2.195656 1_555
Dy1 F8 2.195656 1_555
Dy1 F10 2.195656 1_555
Dy1 F4 2.195656 1_555
Dy1 F19 2.345197 1_555
Dy1 F13 2.345197 1_455
Dy1 F15 2.345197 1_556
Dy1 F14 2.345197 1_565
Dy2 F2 2.195656 1_555
Dy2 F9 2.195656 1_555
Dy2 F10 2.195656 1_555
Dy2 F1 2.195656 1_555
Dy2 F15 2.345197 1_555
Dy2 F12 2.345197 1_565
Dy2 F16 2.345197 1_455
Dy2 F19 2.345197 1_554
Dy3 F11 2.195656 1_555
Dy3 F8 2.195656 1_555
Dy3 F0 2.195656 1_555
Dy3 F3 2.195656 1_555
Dy3 F17 2.345197 1_555
Dy3 F13 2.345197 1_545
Dy3 F18 2.345197 1_556
Dy3 F14 2.345197 1_655
Dy4 F5 2.195656 1_555
Dy4 F6 2.195656 1_555
Dy4 F3 2.195656 1_555
Dy4 F1 2.195656 1_555
Dy4 F14 2.345197 1_555
Dy4 F12 2.345197 1_556
Dy4 F19 2.345197 1_545
Dy4 F17 2.345197 1_455
Dy5 F2 2.195656 1_555
Dy5 F0 2.195656 1_555
Dy5 F7 2.195656 1_555
Dy5 F4 2.195656 1_555
Dy5 F16 2.345197 1_555
Dy5 F13 2.345197 1_554
Dy5 F15 2.345197 1_655
Dy5 F18 2.345197 1_565
F12 K0 2.749436 1_555
F13 K1 2.749436 1_555
F14 K0 2.749436 1_555
F15 K0 2.749436 1_555
F16 K1 2.749436 1_555
F17 K1 2.749436 1_555
F18 K0 2.749436 1_555
F19 K1 2.749436 1_555
