# generated using pymatgen
data_Tb9Ga5S21
_symmetry_space_group_name_H-M   'P 1'
_cell_length_a   11.48723714
_cell_length_b   11.48723714
_cell_length_c   11.48723729
_cell_angle_alpha   94.79301855
_cell_angle_beta   94.79301855
_cell_angle_gamma   94.79301755
_symmetry_Int_Tables_number   1
_chemical_formula_structural   Tb9Ga5S21
_chemical_formula_sum   'Tb18 Ga10 S42'
_cell_volume   1498.96461008
_cell_formula_units_Z   2
loop_
 _symmetry_equiv_pos_site_id
 _symmetry_equiv_pos_as_xyz
  1  'x, y, z'
loop_
 _atom_site_type_symbol
 _atom_site_label
 _atom_site_symmetry_multiplicity
 _atom_site_fract_x
 _atom_site_fract_y
 _atom_site_fract_z
 _atom_site_occupancy
  Tb  Tb0  1  0.25802100  0.11979200  0.88458400  1
  Tb  Tb1  1  0.91911100  0.77547100  0.54260300  1
  Tb  Tb2  1  0.59837600  0.45096900  0.22303800  1
  Tb  Tb3  1  0.45096900  0.22303800  0.59837600  1
  Tb  Tb4  1  0.11979200  0.88458400  0.25802100  1
  Tb  Tb5  1  0.77547100  0.54260300  0.91911000  1
  Tb  Tb6  1  0.54260300  0.91911100  0.77547100  1
  Tb  Tb7  1  0.22303800  0.59837600  0.45096900  1
  Tb  Tb8  1  0.88458400  0.25802100  0.11979200  1
  Tb  Tb9  1  0.41645100  0.55882300  0.78965500  1
  Tb  Tb10  1  0.07149600  0.21622900  0.44890500  1
  Tb  Tb11  1  0.75094900  0.89338800  0.12584900  1
  Tb  Tb12  1  0.21622900  0.44890500  0.07149600  1
  Tb  Tb13  1  0.89338800  0.12584900  0.75094900  1
  Tb  Tb14  1  0.55882300  0.78965500  0.41645100  1
  Tb  Tb15  1  0.12584900  0.75094900  0.89338800  1
  Tb  Tb16  1  0.78965500  0.41645100  0.55882300  1
  Tb  Tb17  1  0.44890500  0.07149600  0.21622900  1
  Ga  Ga0  1  0.94635100  0.60942600  0.27713500  1
  Ga  Ga1  1  0.60942600  0.27713600  0.94635100  1
  Ga  Ga2  1  0.27713500  0.94635100  0.60942600  1
  Ga  Ga3  1  0.44578300  0.77527000  0.11176300  1
  Ga  Ga4  1  0.11176300  0.44578300  0.77527000  1
  Ga  Ga5  1  0.77527000  0.11176300  0.44578300  1
  Ga  Ga6  1  0.14296200  0.14296200  0.14296200  1
  Ga  Ga7  1  0.84184600  0.84184600  0.84184600  1
  Ga  Ga8  1  0.34244200  0.34244200  0.34244200  1
  Ga  Ga9  1  0.64277000  0.64277000  0.64277000  1
  S  S0  1  0.98445900  0.55199300  0.46136300  1
  S  S1  1  0.64267000  0.21873200  0.12984100  1
  S  S2  1  0.30572300  0.89285000  0.79715200  1
  S  S3  1  0.89285000  0.79715200  0.30572300  1
  S  S4  1  0.55199300  0.46136300  0.98445900  1
  S  S5  1  0.21873200  0.12984100  0.64267000  1
  S  S6  1  0.12984100  0.64267000  0.21873200  1
  S  S7  1  0.79715200  0.30572300  0.89285000  1
  S  S8  1  0.46136300  0.98445900  0.55199300  1
  S  S9  1  0.52447100  0.93637200  0.03254900  1
  S  S10  1  0.18765700  0.61095900  0.70061100  1
  S  S11  1  0.84500500  0.27859800  0.36790400  1
  S  S12  1  0.61095900  0.70061100  0.18765700  1
  S  S13  1  0.27859800  0.36790400  0.84500500  1
  S  S14  1  0.93637200  0.03254900  0.52447100  1
  S  S15  1  0.36790400  0.84500500  0.27859800  1
  S  S16  1  0.03254900  0.52447100  0.93637200  1
  S  S17  1  0.70061100  0.18765700  0.61095900  1
  S  S18  1  0.82157500  0.48671400  0.15314500  1
  S  S19  1  0.48671400  0.15314500  0.82157500  1
  S  S20  1  0.15314500  0.82157500  0.48671400  1
  S  S21  1  0.65334500  0.98696600  0.32106900  1
  S  S22  1  0.32106900  0.65334500  0.98696600  1
  S  S23  1  0.98696600  0.32106900  0.65334500  1
  S  S24  1  0.69119700  0.59391100  0.44008400  1
  S  S25  1  0.33706900  0.24257900  0.10365900  1
  S  S26  1  0.00812700  0.90644500  0.76144600  1
  S  S27  1  0.90644500  0.76144600  0.00812700  1
  S  S28  1  0.59391100  0.44008400  0.69119700  1
  S  S29  1  0.24257900  0.10365900  0.33706900  1
  S  S30  1  0.10365900  0.33706900  0.24257900  1
  S  S31  1  0.76144600  0.00812700  0.90644500  1
  S  S32  1  0.44008400  0.69119700  0.59391100  1
  S  S33  1  0.61921400  0.71255300  0.85196200  1
  S  S34  1  0.27556300  0.37848100  0.52261400  1
  S  S35  1  0.95899900  0.05546600  0.21006800  1
  S  S36  1  0.37848100  0.52261400  0.27556300  1
  S  S37  1  0.05546600  0.21006800  0.95899900  1
  S  S38  1  0.71255300  0.85196200  0.61921400  1
  S  S39  1  0.21006800  0.95899900  0.05546600  1
  S  S40  1  0.85196200  0.61921400  0.71255300  1
  S  S41  1  0.52261400  0.27556300  0.37848100  1
loop_
_geom_bond_atom_site_label_1
_geom_bond_atom_site_label_2
_geom_bond_distance
_geom_bond_site_symmetry_2
Ga0 S18 2.248508 1_555
Ga0 S6 2.276693 1_655
Ga0 S0 2.287415 1_555
Ga0 S3 2.296236 1_555
Ga1 S19 2.248514 1_555
Ga1 S1 2.276698 1_556
Ga1 S4 2.287405 1_555
Ga1 S7 2.296235 1_555
Ga2 S20 2.248508 1_555
Ga2 S5 2.276693 1_565
Ga2 S8 2.287415 1_555
Ga2 S2 2.296236 1_555
Ga3 S22 2.248355 1_554
Ga3 S9 2.282359 1_555
Ga3 S12 2.283904 1_555
Ga3 S15 2.294478 1_555
Ga4 S23 2.248355 1_455
Ga4 S16 2.282359 1_555
Ga4 S10 2.283904 1_555
Ga4 S13 2.294478 1_555
Ga5 S21 2.248355 1_545
Ga5 S14 2.282359 1_555
Ga5 S17 2.283904 1_555
Ga5 S11 2.294478 1_555
Ga6 S39 2.473240 1_545
Ga6 S37 2.473240 1_554
Ga6 S35 2.473240 1_455
Ga6 S30 2.512625 1_555
Ga6 S25 2.512625 1_555
Ga6 S29 2.512625 1_555
Ga7 S31 2.285746 1_565
Ga7 S27 2.285746 1_556
Ga7 S26 2.285746 1_655
Ga7 S40 2.864187 1_555
Ga7 S33 2.864187 1_555
Ga7 S38 2.864187 1_555
Ga8 S41 2.284918 1_555
Ga8 S36 2.284918 1_555
Ga8 S34 2.284918 1_555
Ga8 S30 2.877085 1_555
Ga8 S29 2.877085 1_555
Ga8 S25 2.877085 1_555
Ga9 S32 2.468948 1_555
Ga9 S28 2.468948 1_555
Ga9 S24 2.468948 1_555
Ga9 S40 2.512648 1_555
Ga9 S38 2.512648 1_555
Ga9 S33 2.512648 1_555
S0 Tb7 2.762318 1_655
S0 Tb1 2.839611 1_555
S0 Tb16 2.968656 1_555
S1 Tb8 2.791443 1_555
S1 Tb2 2.891810 1_555
S1 Tb17 2.969878 1_555
S2 Tb6 2.747004 1_555
S2 Tb0 2.828118 1_565
S2 Tb15 2.875514 1_555
S3 Tb1 2.747004 1_555
S3 Tb4 2.828118 1_655
S3 Tb11 2.875514 1_555
S4 Tb2 2.762318 1_556
S4 Tb5 2.839616 1_555
S4 Tb9 2.968656 1_555
S5 Tb0 2.791443 1_555
S5 Tb3 2.891810 1_555
S5 Tb10 2.969878 1_555
S6 Tb4 2.791443 1_555
S6 Tb7 2.891810 1_555
S6 Tb12 2.969878 1_555
S7 Tb5 2.747003 1_555
S7 Tb8 2.828118 1_556
S7 Tb13 2.875514 1_555
S8 Tb3 2.762318 1_565
S8 Tb6 2.839611 1_555
S8 Tb14 2.968656 1_555
S9 Tb17 2.756584 1_565
S9 Tb11 2.828070 1_555
S9 Tb6 2.969079 1_554
S10 Tb15 2.802219 1_555
S10 Tb9 2.868553 1_555
S10 Tb7 2.923198 1_555
S11 Tb16 2.746386 1_555
S11 Tb10 2.857720 1_655
S11 Tb8 2.916796 1_555
S12 Tb11 2.802219 1_555
S12 Tb14 2.868553 1_555
S12 Tb2 2.923198 1_555
S13 Tb9 2.746386 1_555
S13 Tb12 2.857720 1_556
S13 Tb0 2.916796 1_555
S14 Tb10 2.756584 1_655
S14 Tb13 2.828070 1_555
S14 Tb1 2.969079 1_545
S15 Tb14 2.746386 1_555
S15 Tb17 2.857720 1_565
S15 Tb4 2.916796 1_555
S16 Tb12 2.756584 1_556
S16 Tb15 2.828070 1_555
S16 Tb5 2.969079 1_455
S17 Tb13 2.802219 1_555
S17 Tb16 2.868553 1_555
S17 Tb3 2.923198 1_555
S18 Tb2 2.758653 1_555
S18 Tb8 2.787108 1_555
S18 Tb5 2.833295 1_554
S19 Tb3 2.758653 1_555
S19 Tb0 2.787108 1_555
S19 Tb6 2.833284 1_545
S20 Tb7 2.758653 1_555
S20 Tb4 2.787108 1_555
S20 Tb1 2.833284 1_455
S21 Tb11 2.767731 1_555
S21 Tb14 2.778363 1_555
S21 Tb17 2.830609 1_565
S22 Tb15 2.767731 1_555
S22 Tb9 2.778363 1_555
S22 Tb12 2.830609 1_556
S23 Tb13 2.767731 1_555
S23 Tb16 2.778363 1_555
S23 Tb10 2.830609 1_655
S24 Tb16 2.808446 1_555
S24 Tb14 2.836615 1_555
S24 Tb2 2.937421 1_555
S24 Tb1 3.279171 1_555
S25 Tb17 2.784575 1_555
S25 Tb0 2.820996 1_554
S25 Tb12 2.879454 1_555
S26 Tb15 2.798224 1_555
S26 Tb1 2.882738 1_455
S26 Tb13 2.946737 1_465
S27 Tb11 2.798224 1_555
S27 Tb5 2.882741 1_554
S27 Tb15 2.946737 1_654
S28 Tb9 2.808446 1_555
S28 Tb16 2.836615 1_555
S28 Tb3 2.937421 1_555
S28 Tb5 3.279163 1_555
S29 Tb10 2.784575 1_555
S29 Tb4 2.820996 1_545
S29 Tb17 2.879454 1_555
S30 Tb12 2.784575 1_555
S30 Tb8 2.820996 1_455
S30 Tb10 2.879454 1_555
S31 Tb13 2.798224 1_555
S31 Tb6 2.882738 1_545
S31 Tb11 2.946737 1_546
S32 Tb14 2.808446 1_555
S32 Tb9 2.836615 1_555
S32 Tb7 2.937421 1_555
S32 Tb6 3.279171 1_555
S33 Tb6 2.782945 1_555
S33 Tb9 2.806907 1_555
S33 Tb5 2.869501 1_555
S34 Tb7 2.817998 1_555
S34 Tb10 2.891425 1_555
S34 Tb3 2.928082 1_555
S35 Tb8 2.794209 1_555
S35 Tb4 2.860924 1_645
S35 Tb11 2.946708 1_545
S35 Tb10 3.281705 1_655
S36 Tb2 2.817998 1_555
S36 Tb12 2.891425 1_555
S36 Tb7 2.928082 1_555
S37 Tb0 2.794209 1_555
S37 Tb8 2.860924 1_456
S37 Tb13 2.946708 1_455
S37 Tb12 3.281704 1_556
S38 Tb1 2.782945 1_555
S38 Tb14 2.806907 1_555
S38 Tb6 2.869505 1_555
S39 Tb4 2.794209 1_555
S39 Tb0 2.860924 1_564
S39 Tb15 2.946708 1_554
S39 Tb17 3.281704 1_565
S40 Tb5 2.782935 1_555
S40 Tb16 2.806907 1_555
S40 Tb1 2.869505 1_555
S41 Tb3 2.817998 1_555
S41 Tb17 2.891425 1_555
S41 Tb2 2.928082 1_555
