# generated using pymatgen
data_Mg6CoSb
_symmetry_space_group_name_H-M   'P 1'
_cell_length_a   4.88115200
_cell_length_b   6.22721300
_cell_length_c   10.65454300
_cell_angle_alpha   90.00000000
_cell_angle_beta   90.00000000
_cell_angle_gamma   90.00000000
_symmetry_Int_Tables_number   1
_chemical_formula_structural   Mg6CoSb
_chemical_formula_sum   'Mg12 Co2 Sb2'
_cell_volume   323.85520337
_cell_formula_units_Z   2
loop_
 _symmetry_equiv_pos_site_id
 _symmetry_equiv_pos_as_xyz
  1  'x, y, z'
loop_
 _atom_site_type_symbol
 _atom_site_label
 _atom_site_symmetry_multiplicity
 _atom_site_fract_x
 _atom_site_fract_y
 _atom_site_fract_z
 _atom_site_occupancy
  Mg  Mg0  1  0.00000000  0.24167200  0.07964500  1
  Mg  Mg1  1  0.00000000  0.75832800  0.07964500  1
  Mg  Mg2  1  0.00000000  0.50000000  0.83401400  1
  Mg  Mg3  1  0.50000000  0.23624500  0.91124000  1
  Mg  Mg4  1  0.50000000  0.76375500  0.91124000  1
  Mg  Mg5  1  0.50000000  0.50000000  0.66925100  1
  Mg  Mg6  1  0.00000000  0.74167200  0.57964500  1
  Mg  Mg7  1  0.00000000  0.25832800  0.57964500  1
  Mg  Mg8  1  0.00000000  0.00000000  0.33401400  1
  Mg  Mg9  1  0.50000000  0.73624500  0.41124000  1
  Mg  Mg10  1  0.50000000  0.26375500  0.41124000  1
  Mg  Mg11  1  0.50000000  0.00000000  0.16925100  1
  Co  Co0  1  0.00000000  0.50000000  0.34217500  1
  Co  Co1  1  0.00000000  0.00000000  0.84217500  1
  Sb  Sb0  1  0.50000000  0.50000000  0.17278900  1
  Sb  Sb1  1  0.50000000  0.00000000  0.67278900  1
loop_
_geom_bond_atom_site_label_1
_geom_bond_atom_site_label_2
_geom_bond_distance
_geom_bond_site_symmetry_2
Mg0 Mg1 3.009886 1_545
Mg0 Mg11 3.022042 1_555
Mg0 Mg11 3.022042 1_455
Mg0 Mg3 3.029354 1_554
Mg0 Mg3 3.029354 1_454
Mg0 Mg2 3.071960 1_554
Mg0 Sb0 3.086921 1_455
Mg0 Sb0 3.086921 1_555
Mg0 Mg8 3.099993 1_555
Mg0 Mg1 3.217327 1_555
Mg1 Mg11 3.022042 1_565
Mg1 Mg11 3.022042 1_465
Mg1 Mg4 3.029354 1_554
Mg1 Mg4 3.029354 1_454
Mg1 Mg2 3.071960 1_554
Mg1 Sb0 3.086921 1_455
Mg1 Sb0 3.086921 1_555
Mg1 Mg8 3.099993 1_565
Mg2 Mg5 3.006344 1_555
Mg2 Mg5 3.006344 1_455
Mg2 Mg3 3.054684 1_455
Mg2 Mg4 3.054684 1_455
Mg2 Mg3 3.054684 1_555
Mg2 Mg4 3.054684 1_555
Mg2 Mg6 3.099993 1_555
Mg2 Mg7 3.099993 1_555
Mg3 Sb1 2.935789 1_555
Mg3 Mg4 2.942296 1_545
Mg3 Mg5 3.056994 1_555
Mg3 Sb0 3.234700 1_556
Mg3 Mg4 3.284917 1_555
Mg4 Sb1 2.935789 1_565
Mg4 Mg5 3.056994 1_555
Mg4 Sb0 3.234700 1_556
Mg5 Mg6 3.022042 1_655
Mg5 Mg7 3.022042 1_655
Mg5 Mg6 3.022042 1_555
Mg5 Mg7 3.022042 1_555
Mg5 Sb1 3.113835 1_555
Mg5 Sb1 3.113835 1_565
Mg5 Mg9 3.117887 1_555
Mg6 Mg7 3.009886 1_555
Mg6 Mg9 3.029354 1_455
Mg6 Mg9 3.029354 1_555
Mg6 Mg8 3.071960 1_565
Mg6 Sb1 3.086921 1_565
Mg6 Sb1 3.086921 1_465
Mg6 Mg7 3.217327 1_565
Mg7 Mg8 3.071960 1_555
Mg7 Sb1 3.086921 1_455
Mg7 Sb1 3.086921 1_555
Mg8 Mg9 3.054684 1_545
Mg8 Mg9 3.054684 1_445
Mg9 Sb0 2.935789 1_555
Mg9 Sb1 3.234700 1_565
Mg10 Sb0 2.935789 1_555
Mg10 Mg9 2.942296 1_555
Mg10 Mg7 3.029354 1_655
Mg10 Mg7 3.029354 1_555
Mg10 Mg8 3.054684 1_655
Mg10 Mg8 3.054684 1_555
Mg10 Mg11 3.056994 1_555
Mg10 Mg5 3.117887 1_555
Mg10 Sb1 3.234700 1_555
Mg10 Mg9 3.284917 1_545
Mg11 Mg8 3.006344 1_655
Mg11 Mg8 3.006344 1_555
Mg11 Mg9 3.056994 1_545
Mg11 Sb0 3.113835 1_545
Mg11 Sb0 3.113835 1_555
Mg11 Mg3 3.117887 1_554
Mg11 Mg4 3.117887 1_544
Co0 Mg9 2.943157 1_455
Co0 Mg9 2.943157 1_555
Co0 Mg10 2.943157 1_455
Co0 Mg10 2.943157 1_555
Co0 Mg6 2.943881 1_555
Co0 Mg7 2.943881 1_555
Co0 Sb0 3.035369 1_455
Co0 Sb0 3.035369 1_555
Co0 Mg8 3.114820 1_565
Co0 Mg8 3.114820 1_555
Co0 Mg1 3.226728 1_555
Co0 Mg0 3.226728 1_555
Co1 Mg3 2.943157 1_455
Co1 Mg3 2.943157 1_555
Co1 Mg4 2.943157 1_445
Co1 Mg4 2.943157 1_545
Co1 Mg1 2.943881 1_546
Co1 Mg0 2.943881 1_556
Co1 Sb1 3.035369 1_455
Co1 Sb1 3.035369 1_555
Co1 Mg2 3.114820 1_545
Co1 Mg2 3.114820 1_555
Co1 Mg6 3.226728 1_545
Co1 Mg7 3.226728 1_555
