# generated using pymatgen
data_Sr6Ti3FeO14
_symmetry_space_group_name_H-M   'P 1'
_cell_length_a   5.58104957
_cell_length_b   5.58109554
_cell_length_c   20.37150500
_cell_angle_alpha   90.00003644
_cell_angle_beta   89.99999602
_cell_angle_gamma   90.00050089
_symmetry_Int_Tables_number   1
_chemical_formula_structural   Sr6Ti3FeO14
_chemical_formula_sum   'Sr12 Ti6 Fe2 O28'
_cell_volume   634.53919280
_cell_formula_units_Z   2
loop_
 _symmetry_equiv_pos_site_id
 _symmetry_equiv_pos_as_xyz
  1  'x, y, z'
loop_
 _atom_site_type_symbol
 _atom_site_label
 _atom_site_symmetry_multiplicity
 _atom_site_fract_x
 _atom_site_fract_y
 _atom_site_fract_z
 _atom_site_occupancy
  Sr  Sr0  1  0.49999800  0.99999700  0.18630200  1
  Sr  Sr1  1  0.00000300  0.50000000  0.18628700  1
  Sr  Sr2  1  0.00000100  0.00000100  0.68237000  1
  Sr  Sr3  1  0.50000000  0.50000300  0.68236700  1
  Sr  Sr4  1  0.00000400  0.00000500  0.31938900  1
  Sr  Sr5  1  0.50000000  0.50000100  0.31938900  1
  Sr  Sr6  1  0.49999900  0.99999600  0.81512800  1
  Sr  Sr7  1  0.99999700  0.49999900  0.81512800  1
  Sr  Sr8  1  0.49999600  0.99999800  0.00076200  1
  Sr  Sr9  1  0.99999700  0.49999300  0.00076900  1
  Sr  Sr10  1  0.00000000  0.00000000  0.49626400  1
  Sr  Sr11  1  0.50000300  0.49999800  0.49626500  1
  Ti  Ti0  1  0.99999700  0.99999100  0.90219900  1
  Ti  Ti1  1  0.49999400  0.49999500  0.90219900  1
  Ti  Ti2  1  0.99999800  0.99999600  0.09944900  1
  Ti  Ti3  1  0.49999400  0.49999800  0.09944900  1
  Ti  Ti4  1  0.49999900  0.00000000  0.59595200  1
  Ti  Ti5  1  0.00000100  0.50000200  0.59591600  1
  Fe  Fe0  1  0.99999600  0.49999400  0.40246300  1
  Fe  Fe1  1  0.50001600  0.99997800  0.40249400  1
  O  O0  1  0.50000000  0.00000600  0.30770900  1
  O  O1  1  0.00000700  0.49999300  0.30766300  1
  O  O2  1  0.99999800  0.00000200  0.80530300  1
  O  O3  1  0.50000200  0.50000100  0.80530200  1
  O  O4  1  0.99999600  0.00000400  0.19563100  1
  O  O5  1  0.50000100  0.50000500  0.19563100  1
  O  O6  1  0.50000200  0.00000100  0.69209000  1
  O  O7  1  0.99999600  0.50000300  0.69208600  1
  O  O8  1  0.00000600  0.99999600  0.00057500  1
  O  O9  1  0.49999700  0.50000700  0.00057600  1
  O  O10  1  0.50000100  0.00000500  0.49785400  1
  O  O11  1  0.00000100  0.50000300  0.49787100  1
  O  O12  1  0.23717800  0.26284300  0.40423600  1
  O  O13  1  0.76282300  0.73715900  0.40423600  1
  O  O14  1  0.26278100  0.76280400  0.40423300  1
  O  O15  1  0.73721700  0.23720200  0.40423300  1
  O  O16  1  0.25001400  0.75001500  0.90340500  1
  O  O17  1  0.74998800  0.24998900  0.90340600  1
  O  O18  1  0.24999600  0.25000600  0.90340600  1
  O  O19  1  0.75000400  0.74999800  0.90340600  1
  O  O20  1  0.24999100  0.74999500  0.09787600  1
  O  O21  1  0.75001100  0.25001100  0.09787500  1
  O  O22  1  0.25001500  0.24998800  0.09787600  1
  O  O23  1  0.74998600  0.75001700  0.09787600  1
  O  O24  1  0.25032200  0.24967700  0.59477500  1
  O  O25  1  0.74967600  0.75032200  0.59477500  1
  O  O26  1  0.24970200  0.74970900  0.59477800  1
  O  O27  1  0.75029700  0.25029600  0.59477900  1
loop_
_geom_bond_atom_site_label_1
_geom_bond_atom_site_label_2
_geom_bond_distance
_geom_bond_site_symmetry_2
Fe0 O12 1.872271 1_655
Fe0 O13 1.872291 1_555
Fe0 O1 1.931219 1_655
Fe0 O11 1.943605 1_655
Fe0 O15 2.074425 1_555
Fe0 O14 2.074520 1_655
Fe1 O14 1.872541 1_555
Fe1 O15 1.872605 1_565
Fe1 O0 1.930913 1_565
Fe1 O10 1.942627 1_565
Fe1 O13 2.074651 1_555
Fe1 O12 2.074954 1_565
O0 Sr0 2.473243 1_545
O0 Sr4 2.800628 1_555
O0 Sr5 2.800646 1_555
O0 Sr4 2.800673 1_655
O0 Sr5 2.800701 1_545
O1 Sr1 2.472612 1_555
O1 Sr4 2.800687 1_555
O1 Sr5 2.800691 1_555
O1 Sr5 2.800769 1_455
O1 Sr4 2.800820 1_565
O2 Ti0 1.973917 1_545
O2 Sr2 2.504330 1_655
O2 Sr6 2.797688 1_545
O2 Sr6 2.797699 1_645
O2 Sr7 2.797700 1_555
O2 Sr7 2.797733 1_545
O3 Ti1 1.973938 1_555
O3 Sr3 2.504371 1_555
O3 Sr7 2.797667 1_555
O3 Sr6 2.797690 1_555
O3 Sr7 2.797723 1_455
O3 Sr6 2.797746 1_545
O4 Ti2 1.959372 1_545
O4 Sr4 2.521137 1_655
O4 Sr0 2.796978 1_545
O4 Sr0 2.797000 1_645
O4 Sr1 2.797010 1_655
O4 Sr1 2.797055 1_645
O5 Ti3 1.959372 1_555
O5 Sr5 2.521137 1_555
O5 Sr0 2.796967 1_555
O5 Sr1 2.796998 1_555
O5 Sr1 2.797021 1_655
O5 Sr0 2.797056 1_545
O6 Ti4 1.958476 1_555
O6 Sr6 2.506469 1_545
O6 Sr2 2.797536 1_655
O6 Sr2 2.797547 1_555
O6 Sr3 2.797557 1_545
O6 Sr3 2.797580 1_555
O7 Ti5 1.959128 1_655
O7 Sr7 2.506551 1_555
O7 Sr3 2.797518 1_555
O7 Sr2 2.797547 1_665
O7 Sr3 2.797562 1_655
O7 Sr2 2.797569 1_655
O8 Ti0 2.004067 1_454
O8 Ti2 2.014212 1_455
O8 Sr8 2.790472 1_555
O8 Sr9 2.790534 1_465
O8 Sr9 2.790567 1_455
O8 Sr8 2.790583 1_455
O9 Ti1 2.004088 1_554
O9 Ti3 2.014192 1_555
O9 Sr8 2.790500 1_555
O9 Sr9 2.790528 1_455
O9 Sr9 2.790528 1_555
O9 Sr8 2.790601 1_545
O10 Ti4 1.998404 1_555
O10 Sr11 2.790696 1_555
O10 Sr10 2.790707 1_655
O10 Sr10 2.790718 1_555
O10 Sr11 2.790775 1_545
O11 Ti5 1.997324 1_555
O11 Sr11 2.790705 1_455
O11 Sr10 2.790723 1_565
O11 Sr11 2.790728 1_555
O11 Sr10 2.790757 1_555
O12 Sr5 2.625078 1_555
O12 Sr4 2.625173 1_555
O12 Sr11 2.723640 1_555
O12 Sr10 2.723745 1_555
O13 Sr5 2.625080 1_555
O13 Sr4 2.625219 1_665
O13 Sr11 2.723643 1_555
O13 Sr10 2.723735 1_665
O14 Sr4 2.625032 1_565
O14 Sr5 2.625163 1_555
O14 Sr10 2.723660 1_565
O14 Sr11 2.723822 1_555
O15 Sr4 2.625050 1_655
O15 Sr5 2.625147 1_555
O15 Sr10 2.723683 1_655
O15 Sr11 2.723769 1_555
O16 Ti0 1.973341 1_455
O16 Ti1 1.973369 1_555
O16 Sr6 2.669643 1_555
O16 Sr7 2.669838 1_455
O16 Sr8 2.797584 1_556
O16 Sr9 2.797892 1_456
O17 Ti1 1.973369 1_555
O17 Ti0 1.973397 1_545
O17 Sr6 2.669703 1_545
O17 Sr7 2.669812 1_555
O17 Sr8 2.797621 1_546
O17 Sr9 2.797804 1_556
O18 Ti1 1.973300 1_555
O18 Ti0 1.973407 1_445
O18 Sr7 2.669746 1_455
O18 Sr6 2.669806 1_545
O18 Sr8 2.797703 1_546
O18 Sr9 2.797741 1_456
O19 Ti0 1.973296 1_555
O19 Ti1 1.973403 1_555
O19 Sr7 2.669744 1_555
O19 Sr6 2.669778 1_555
O19 Sr8 2.797701 1_556
O19 Sr9 2.797776 1_556
O20 Ti2 1.973452 1_455
O20 Ti3 1.973476 1_555
O20 Sr1 2.671533 1_555
O20 Sr0 2.671813 1_555
O20 Sr9 2.794062 1_455
O20 Sr8 2.794198 1_555
O21 Ti2 1.973484 1_545
O21 Ti3 1.973492 1_555
O21 Sr1 2.671539 1_655
O21 Sr0 2.671881 1_545
O21 Sr9 2.793971 1_555
O21 Sr8 2.794238 1_545
O22 Ti3 1.973415 1_555
O22 Ti2 1.973494 1_445
O22 Sr1 2.671664 1_555
O22 Sr0 2.671725 1_545
O22 Sr8 2.794106 1_545
O22 Sr9 2.794151 1_455
O23 Ti2 1.973423 1_555
O23 Ti3 1.973502 1_555
O23 Sr1 2.671694 1_655
O23 Sr0 2.671706 1_555
O23 Sr8 2.794107 1_555
O23 Sr9 2.794183 1_555
O24 Ti4 1.970812 1_555
O24 Ti5 1.975902 1_555
O24 Sr3 2.660375 1_555
O24 Sr2 2.660396 1_555
O24 Sr11 2.814389 1_555
O24 Sr10 2.814394 1_555
O25 Ti4 1.970816 1_565
O25 Ti5 1.975898 1_655
O25 Sr3 2.660349 1_555
O25 Sr2 2.660416 1_665
O25 Sr11 2.814374 1_555
O25 Sr10 2.814404 1_665
O26 Ti5 1.970999 1_555
O26 Ti4 1.975664 1_565
O26 Sr3 2.660347 1_555
O26 Sr2 2.660355 1_565
O26 Sr10 2.814435 1_565
O26 Sr11 2.814471 1_555
O27 Ti5 1.971006 1_655
O27 Ti4 1.975687 1_555
O27 Sr3 2.660332 1_555
O27 Sr2 2.660360 1_655
O27 Sr11 2.814443 1_555
O27 Sr10 2.814464 1_655
