# generated using pymatgen
data_RbMg6GaO8
_symmetry_space_group_name_H-M   'P 1'
_cell_length_a   8.81526727
_cell_length_b   4.52405943
_cell_length_c   4.52405943
_cell_angle_alpha   90.00000000
_cell_angle_beta   90.00000000
_cell_angle_gamma   90.00000000
_symmetry_Int_Tables_number   1
_chemical_formula_structural   RbMg6GaO8
_chemical_formula_sum   'Rb1 Mg6 Ga1 O8'
_cell_volume   180.42307774
_cell_formula_units_Z   1
loop_
 _symmetry_equiv_pos_site_id
 _symmetry_equiv_pos_as_xyz
  1  'x, y, z'
loop_
 _atom_site_type_symbol
 _atom_site_label
 _atom_site_symmetry_multiplicity
 _atom_site_fract_x
 _atom_site_fract_y
 _atom_site_fract_z
 _atom_site_occupancy
  Rb  Rb0  1  0.00000000  0.00000000  0.00000000  1
  Mg  Mg0  1  0.50000000  0.00000000  0.00000000  1
  Mg  Mg1  1  0.50000000  0.50000000  0.50000000  1
  Mg  Mg2  1  0.25856927  0.00000000  0.50000000  1
  Mg  Mg3  1  0.74143073  -0.00000000  0.50000000  1
  Mg  Mg4  1  0.25856927  0.50000000  0.00000000  1
  Mg  Mg5  1  0.74143073  0.50000000  -0.00000000  1
  Ga  Ga0  1  0.00000000  0.50000000  0.50000000  1
  O  O0  1  0.28140980  0.00000000  0.00000000  1
  O  O1  1  0.71859020  -0.00000000  -0.00000000  1
  O  O2  1  0.24097340  0.50000000  0.50000000  1
  O  O3  1  0.75902660  0.50000000  0.50000000  1
  O  O4  1  0.00000000  0.00000000  0.50000000  1
  O  O5  1  0.50000000  0.00000000  0.50000000  1
  O  O6  1  0.00000000  0.50000000  0.00000000  1
  O  O7  1  0.50000000  0.50000000  0.00000000  1
loop_
_geom_bond_atom_site_label_1
_geom_bond_atom_site_label_2
_geom_bond_distance
_geom_bond_site_symmetry_2
Mg0 O1 1.926931 1_555
Mg0 O0 1.926931 1_555
Mg0 O7 2.262030 1_555
Mg0 O5 2.262030 1_554
Mg0 O5 2.262030 1_555
Mg0 O7 2.262030 1_545
Mg1 O7 2.262030 1_555
Mg1 O7 2.262030 1_556
Mg1 O5 2.262030 1_555
Mg1 O5 2.262030 1_565
Mg1 O2 2.283389 1_555
Mg1 O3 2.283389 1_555
Mg2 O5 2.128276 1_555
Mg2 O2 2.267342 1_555
Mg2 O2 2.267342 1_545
Mg2 O0 2.270973 1_555
Mg2 O0 2.270973 1_556
Mg2 O4 2.279357 1_555
Mg3 O5 2.128276 1_555
Mg3 O3 2.267342 1_545
Mg3 O3 2.267342 1_555
Mg3 O1 2.270973 1_555
Mg3 O1 2.270973 1_556
Mg3 O4 2.279357 1_655
Mg4 O7 2.128276 1_555
Mg4 O2 2.267342 1_554
Mg4 O2 2.267342 1_555
Mg4 O0 2.270973 1_565
Mg4 O0 2.270973 1_555
Mg4 O6 2.279357 1_555
Mg5 O7 2.128276 1_555
Mg5 O3 2.267342 1_555
Mg5 O3 2.267342 1_554
Mg5 O1 2.270973 1_555
Mg5 O1 2.270973 1_565
Mg5 O6 2.279357 1_655
Ga0 O2 2.124245 1_555
Ga0 O3 2.124245 1_455
Ga0 O4 2.262030 1_555
Ga0 O4 2.262030 1_565
Ga0 O6 2.262030 1_556
Ga0 O6 2.262030 1_555
O0 Rb0 2.480703 1_555
O1 Rb0 2.480703 1_655
O4 Rb0 2.262030 1_555
O4 Rb0 2.262030 1_556
O6 Rb0 2.262030 1_565
O6 Rb0 2.262030 1_555
