# generated using pymatgen
data_Er4NiSn8
_symmetry_space_group_name_H-M   'P 1'
_cell_length_a   4.39037500
_cell_length_b   4.38600600
_cell_length_c   16.91011600
_cell_angle_alpha   90.00000000
_cell_angle_beta   90.00000000
_cell_angle_gamma   90.00000000
_symmetry_Int_Tables_number   1
_chemical_formula_structural   Er4NiSn8
_chemical_formula_sum   'Er4 Ni1 Sn8'
_cell_volume   325.62476329
_cell_formula_units_Z   1
loop_
 _symmetry_equiv_pos_site_id
 _symmetry_equiv_pos_as_xyz
  1  'x, y, z'
loop_
 _atom_site_type_symbol
 _atom_site_label
 _atom_site_symmetry_multiplicity
 _atom_site_fract_x
 _atom_site_fract_y
 _atom_site_fract_z
 _atom_site_occupancy
  Er  Er0  1  0.25000000  0.00000000  0.09555000  1
  Er  Er1  1  0.25000000  0.50000000  0.60193800  1
  Er  Er2  1  0.75000000  0.50000000  0.39599400  1
  Er  Er3  1  0.75000000  0.00000000  0.89884200  1
  Ni  Ni0  1  0.25000000  0.00000000  0.30915500  1
  Sn  Sn0  1  0.25000000  0.50000000  0.23364800  1
  Sn  Sn1  1  0.25000000  0.00000000  0.74501400  1
  Sn  Sn2  1  0.75000000  0.00000000  0.23543700  1
  Sn  Sn3  1  0.75000000  0.50000000  0.75473100  1
  Sn  Sn4  1  0.25000000  0.00000000  0.45464500  1
  Sn  Sn5  1  0.25000000  0.50000000  0.93417200  1
  Sn  Sn6  1  0.75000000  0.50000000  0.05707000  1
  Sn  Sn7  1  0.75000000  0.00000000  0.57180300  1
loop_
_geom_bond_atom_site_label_1
_geom_bond_atom_site_label_2
_geom_bond_distance
_geom_bond_site_symmetry_2
Er0 Sn6 3.170414 1_555
Er0 Sn6 3.170414 1_455
Er0 Sn6 3.170414 1_545
Er0 Sn6 3.170414 1_445
Er0 Sn0 3.203540 1_545
Er0 Sn0 3.203540 1_555
Er0 Sn2 3.227145 1_455
Er0 Sn2 3.227145 1_555
Er0 Sn5 3.500896 1_554
Er0 Sn5 3.500896 1_544
Er1 Sn7 3.144485 1_565
Er1 Sn7 3.144485 1_455
Er1 Sn7 3.144485 1_555
Er1 Sn7 3.144485 1_465
Er1 Sn1 3.265411 1_565
Er1 Sn1 3.265411 1_555
Er1 Sn4 3.318593 1_555
Er1 Sn4 3.318593 1_565
Er1 Sn3 3.390368 1_555
Er1 Sn3 3.390368 1_455
Er2 Sn4 3.257571 1_655
Er2 Sn4 3.257571 1_665
Er2 Sn4 3.257571 1_565
Er2 Sn4 3.257571 1_555
Er2 Ni0 3.432853 1_665
Er2 Ni0 3.432853 1_655
Er2 Ni0 3.432853 1_565
Er2 Ni0 3.432853 1_555
Er2 Sn2 3.490085 1_565
Er2 Sn2 3.490085 1_555
Er2 Sn0 3.515034 1_655
Er2 Sn0 3.515034 1_555
Er2 Sn7 3.694279 1_565
Er2 Sn7 3.694279 1_555
Er3 Sn5 3.159911 1_655
Er3 Sn5 3.159911 1_545
Er3 Sn5 3.159911 1_645
Er3 Sn5 3.159911 1_555
Er3 Sn3 3.278400 1_555
Er3 Sn3 3.278400 1_545
Er3 Sn1 3.403725 1_655
Er3 Sn1 3.403725 1_555
Er3 Sn6 3.459535 1_546
Er3 Sn6 3.459535 1_556
Ni0 Sn4 2.460253 1_555
Ni0 Sn2 2.524442 1_555
Ni0 Sn2 2.524442 1_455
Ni0 Sn0 2.537629 1_545
Ni0 Sn0 2.537629 1_555
Sn0 Sn2 3.103067 1_455
Sn0 Sn2 3.103067 1_565
Sn0 Sn2 3.103067 1_555
Sn0 Sn2 3.103067 1_465
Sn1 Sn3 3.107267 1_455
Sn1 Sn3 3.107267 1_555
Sn1 Sn3 3.107267 1_445
Sn1 Sn3 3.107267 1_545
Sn4 Sn7 2.956996 1_455
Sn4 Sn7 2.956996 1_555
Sn5 Sn6 3.022887 1_556
Sn5 Sn6 3.022887 1_456
