# generated using pymatgen
data_Mg2Ga3MoS8
_symmetry_space_group_name_H-M   'P 1'
_cell_length_a   7.33658194
_cell_length_b   7.41486469
_cell_length_c   7.33672600
_cell_angle_alpha   60.34822747
_cell_angle_beta   59.99835468
_cell_angle_gamma   60.34867564
_symmetry_Int_Tables_number   1
_chemical_formula_structural   Mg2Ga3MoS8
_chemical_formula_sum   'Mg2 Ga3 Mo1 S8'
_cell_volume   283.69144712
_cell_formula_units_Z   1
loop_
 _symmetry_equiv_pos_site_id
 _symmetry_equiv_pos_as_xyz
  1  'x, y, z'
loop_
 _atom_site_type_symbol
 _atom_site_label
 _atom_site_symmetry_multiplicity
 _atom_site_fract_x
 _atom_site_fract_y
 _atom_site_fract_z
 _atom_site_occupancy
  Mg  Mg0  1  0.87431500  0.87702600  0.87433700  1
  Mg  Mg1  1  0.12566800  0.12303600  0.12564700  1
  Ga  Ga0  1  0.50000500  0.50001400  0.49997400  1
  Ga  Ga1  1  0.50000400  0.49998500  0.99999800  1
  Ga  Ga2  1  0.99999900  0.49998200  0.50002200  1
  Mo  Mo0  1  0.50000100  0.99999500  0.50000900  1
  S  S0  1  0.73818800  0.73908700  0.73818800  1
  S  S1  1  0.26180900  0.26091000  0.71546700  1
  S  S2  1  0.26064800  0.71805000  0.26065700  1
  S  S3  1  0.71547200  0.26090900  0.26181000  1
  S  S4  1  0.73934400  0.28194300  0.73933900  1
  S  S5  1  0.28453000  0.73907500  0.73819500  1
  S  S6  1  0.26181300  0.26089800  0.26182600  1
  S  S7  1  0.73820700  0.73908500  0.28453200  1
loop_
_geom_bond_atom_site_label_1
_geom_bond_atom_site_label_2
_geom_bond_distance
_geom_bond_site_symmetry_2
Mg0 S7 2.461678 1_556
Mg0 S5 2.461761 1_655
Mg0 S0 2.461815 1_555
Mg0 S4 2.464295 1_565
Mg1 S1 2.461582 1_554
Mg1 S6 2.461636 1_555
Mg1 S3 2.461641 1_455
Mg1 S2 2.464715 1_545
Ga0 S7 2.495039 1_555
Ga0 S3 2.495052 1_555
Ga0 S5 2.495113 1_555
Ga0 S1 2.495163 1_555
Ga0 S2 2.499209 1_555
Ga0 S4 2.499358 1_555
Ga1 S6 2.495061 1_556
Ga1 S0 2.495093 1_555
Ga1 S5 2.495134 1_555
Ga1 S3 2.495152 1_556
Ga1 S4 2.499305 1_555
Ga1 S2 2.499421 1_556
Ga2 S1 2.495023 1_655
Ga2 S0 2.495058 1_555
Ga2 S6 2.495101 1_655
Ga2 S7 2.495149 1_555
Ga2 S4 2.499225 1_555
Ga2 S2 2.499339 1_655
Mo0 S1 2.492742 1_565
Mo0 S0 2.492748 1_555
Mo0 S3 2.492762 1_565
Mo0 S6 2.492769 1_565
Mo0 S5 2.492795 1_555
Mo0 S7 2.492808 1_555
