# generated using pymatgen
data_CsRbMo3P3O17
_symmetry_space_group_name_H-M   'P 1'
_cell_length_a   9.71158500
_cell_length_b   10.99892800
_cell_length_c   16.02131593
_cell_angle_alpha   68.56286102
_cell_angle_beta   90.00000000
_cell_angle_gamma   90.00000000
_symmetry_Int_Tables_number   1
_chemical_formula_structural   CsRbMo3P3O17
_chemical_formula_sum   'Cs4 Rb4 Mo12 P12 O68'
_cell_volume   1592.95662031
_cell_formula_units_Z   4
loop_
 _symmetry_equiv_pos_site_id
 _symmetry_equiv_pos_as_xyz
  1  'x, y, z'
loop_
 _atom_site_type_symbol
 _atom_site_label
 _atom_site_symmetry_multiplicity
 _atom_site_fract_x
 _atom_site_fract_y
 _atom_site_fract_z
 _atom_site_occupancy
  Cs  Cs0  1  0.38265400  0.81999500  0.51045500  1
  Cs  Cs1  1  0.61734600  0.18000500  0.48954500  1
  Cs  Cs2  1  0.88265400  0.18000500  0.98954500  1
  Cs  Cs3  1  0.11734600  0.81999500  0.01045500  1
  Rb  Rb0  1  0.87062500  0.38835900  0.21049200  1
  Rb  Rb1  1  0.12937500  0.61164100  0.78950800  1
  Rb  Rb2  1  0.37062500  0.61164100  0.28950800  1
  Rb  Rb3  1  0.62937500  0.38835900  0.71049200  1
  Mo  Mo0  1  0.12123300  0.95310600  0.24514000  1
  Mo  Mo1  1  0.87876700  0.04689400  0.75486000  1
  Mo  Mo2  1  0.62123300  0.04689400  0.25486000  1
  Mo  Mo3  1  0.37876700  0.95310600  0.74514000  1
  Mo  Mo4  1  0.62348400  0.75361900  0.06064700  1
  Mo  Mo5  1  0.37651600  0.24638100  0.93935300  1
  Mo  Mo6  1  0.12348400  0.24638100  0.43935300  1
  Mo  Mo7  1  0.87651600  0.75361900  0.56064700  1
  Mo  Mo8  1  0.75866900  0.57672500  0.40019800  1
  Mo  Mo9  1  0.24133100  0.42327500  0.59980200  1
  Mo  Mo10  1  0.25866900  0.42327500  0.09980200  1
  Mo  Mo11  1  0.74133100  0.57672500  0.90019800  1
  P  P0  1  0.40316300  0.95591600  0.12224300  1
  P  P1  1  0.59683700  0.04408400  0.87775700  1
  P  P2  1  0.90316300  0.04408400  0.37775700  1
  P  P3  1  0.09683700  0.95591600  0.62224300  1
  P  P4  1  0.82654000  0.83842900  0.20051300  1
  P  P5  1  0.17346000  0.16157100  0.79948700  1
  P  P6  1  0.32654000  0.16157100  0.29948700  1
  P  P7  1  0.67346000  0.83842900  0.70051300  1
  P  P8  1  0.59574800  0.33176700  0.06818300  1
  P  P9  1  0.40425200  0.66823300  0.93181700  1
  P  P10  1  0.09574800  0.66823300  0.43181700  1
  P  P11  1  0.90425200  0.33176700  0.56818300  1
  O  O0  1  0.44433300  0.73223400  0.00107800  1
  O  O1  1  0.55566700  0.26776600  0.99892200  1
  O  O2  1  0.94433300  0.26776600  0.49892200  1
  O  O3  1  0.05566700  0.73223400  0.50107800  1
  O  O4  1  0.57686400  0.90315500  0.33877500  1
  O  O5  1  0.42313600  0.09684500  0.66122500  1
  O  O6  1  0.07686400  0.09684500  0.16122500  1
  O  O7  1  0.92313600  0.90315500  0.83877500  1
  O  O8  1  0.97553900  0.95675400  0.33460000  1
  O  O9  1  0.02446100  0.04324600  0.66540000  1
  O  O10  1  0.47553900  0.04324600  0.16540000  1
  O  O11  1  0.52446100  0.95675400  0.83460000  1
  O  O12  1  0.70698200  0.43958600  0.02373100  1
  O  O13  1  0.29301800  0.56041400  0.97626900  1
  O  O14  1  0.20698200  0.56041400  0.47626900  1
  O  O15  1  0.79301800  0.43958600  0.52373100  1
  O  O16  1  0.58532600  0.59478300  0.41998400  1
  O  O17  1  0.41467400  0.40521700  0.58001600  1
  O  O18  1  0.08532600  0.40521700  0.08001600  1
  O  O19  1  0.91467400  0.59478300  0.91998400  1
  O  O20  1  0.27111100  0.89321300  0.17767600  1
  O  O21  1  0.72888900  0.10678700  0.82232400  1
  O  O22  1  0.77111100  0.10678700  0.32232400  1
  O  O23  1  0.22888900  0.89321300  0.67767600  1
  O  O24  1  0.49417100  0.83624300  0.12972400  1
  O  O25  1  0.50582900  0.16375700  0.87027600  1
  O  O26  1  0.99417100  0.16375700  0.37027600  1
  O  O27  1  0.00582900  0.83624300  0.62972400  1
  O  O28  1  0.61692200  0.60488600  0.14889500  1
  O  O29  1  0.38307800  0.39511400  0.85110500  1
  O  O30  1  0.11692200  0.39511400  0.35110500  1
  O  O31  1  0.88307800  0.60488600  0.64889500  1
  O  O32  1  0.97186600  0.60809600  0.40221300  1
  O  O33  1  0.02813400  0.39190400  0.59778700  1
  O  O34  1  0.47186600  0.39190400  0.09778700  1
  O  O35  1  0.52813400  0.60809600  0.90221300  1
  O  O36  1  0.98583800  0.84177400  0.20135900  1
  O  O37  1  0.01416200  0.15822600  0.79864100  1
  O  O38  1  0.48583800  0.15822600  0.29864100  1
  O  O39  1  0.51416200  0.84177400  0.70135900  1
  O  O40  1  0.76583000  0.97212700  0.19174800  1
  O  O41  1  0.23417000  0.02787300  0.80825200  1
  O  O42  1  0.26583000  0.02787300  0.30825200  1
  O  O43  1  0.73417000  0.97212700  0.69174800  1
  O  O44  1  0.76611800  0.73085300  0.28399700  1
  O  O45  1  0.23388200  0.26914700  0.71600300  1
  O  O46  1  0.26611800  0.26914700  0.21600300  1
  O  O47  1  0.73388200  0.73085300  0.78399700  1
  O  O48  1  0.79142800  0.80998900  0.11458200  1
  O  O49  1  0.20857200  0.19001100  0.88541800  1
  O  O50  1  0.29142800  0.19001100  0.38541800  1
  O  O51  1  0.70857200  0.80998900  0.61458200  1
  O  O52  1  0.67179400  0.23165900  0.14794800  1
  O  O53  1  0.32820600  0.76834100  0.85205200  1
  O  O54  1  0.17179400  0.76834100  0.35205200  1
  O  O55  1  0.82820600  0.23165900  0.64794800  1
  O  O56  1  0.86257800  0.96204900  0.47400400  1
  O  O57  1  0.13742200  0.03795100  0.52599600  1
  O  O58  1  0.36257800  0.03795100  0.02599600  1
  O  O59  1  0.63742200  0.96204900  0.97400400  1
  O  O60  1  0.78392800  0.71391700  0.47874300  1
  O  O61  1  0.21607200  0.28608300  0.52125700  1
  O  O62  1  0.28392800  0.28608300  0.02125700  1
  O  O63  1  0.71607200  0.71391700  0.97874300  1
  O  O64  1  0.75681100  0.46008500  0.35051200  1
  O  O65  1  0.24318900  0.53991500  0.64948800  1
  O  O66  1  0.25681100  0.53991500  0.14948800  1
  O  O67  1  0.74318900  0.46008500  0.85051200  1
loop_
_geom_bond_atom_site_label_1
_geom_bond_atom_site_label_2
_geom_bond_distance
_geom_bond_site_symmetry_2
Cs0 O4 3.181263 1_555
Cs0 O3 3.338341 1_555
Cs0 O65 3.357132 1_555
Cs0 O39 3.402744 1_555
Cs0 O42 3.405211 1_565
Cs0 O23 3.410739 1_555
Cs0 O57 3.452136 1_565
Cs0 O54 3.465643 1_555
Cs0 O14 3.536285 1_555
Cs0 O51 3.560806 1_555
Cs1 O5 3.181263 1_555
Cs1 O2 3.338341 1_555
Cs1 O64 3.357132 1_555
Cs1 O38 3.402744 1_555
Cs1 O43 3.405211 1_545
Cs1 O22 3.410739 1_555
Cs1 O56 3.452136 1_545
Cs1 O55 3.465643 1_555
Cs1 O15 3.536285 1_555
Cs1 O50 3.560806 1_555
Cs2 O6 3.181263 1_656
Cs2 O1 3.338341 1_555
Cs2 O67 3.357132 1_555
Cs2 O37 3.402744 1_655
Cs2 O40 3.405211 1_546
Cs2 O21 3.410739 1_555
Cs2 O59 3.452136 1_545
Cs2 O52 3.465643 1_556
Cs2 O12 3.536285 1_556
Cs2 O49 3.560806 1_655
Cs3 O7 3.181263 1_454
Cs3 O0 3.338341 1_555
Cs3 O66 3.357132 1_555
Cs3 O36 3.402744 1_455
Cs3 O41 3.405211 1_564
Cs3 O20 3.410739 1_555
Cs3 O58 3.452136 1_565
Cs3 O53 3.465643 1_554
Cs3 O13 3.536285 1_554
Cs3 O48 3.560806 1_455
Mo0 O6 1.714344 1_565
Mo0 O8 2.024821 1_455
Mo0 O20 2.059448 1_555
Mo0 O42 2.068438 1_565
Mo0 O36 2.085254 1_455
Mo0 O54 2.181862 1_555
Mo1 O7 1.714344 1_545
Mo1 O9 2.024821 1_655
Mo1 O21 2.059448 1_555
Mo1 O43 2.068438 1_545
Mo1 O37 2.085254 1_655
Mo1 O55 2.181862 1_555
Mo2 O4 1.714344 1_545
Mo2 O10 2.024821 1_555
Mo2 O22 2.059448 1_555
Mo2 O40 2.068438 1_545
Mo2 O38 2.085254 1_555
Mo2 O52 2.181862 1_555
Mo3 O5 1.714344 1_565
Mo3 O11 2.024821 1_555
Mo3 O23 2.059448 1_555
Mo3 O41 2.068438 1_565
Mo3 O39 2.085254 1_555
Mo3 O53 2.181862 1_555
Mo4 O28 1.728744 1_555
Mo4 O63 1.771991 1_554
Mo4 O0 2.038942 1_555
Mo4 O48 2.045210 1_555
Mo4 O24 2.088767 1_555
Mo4 O59 2.207869 1_554
Mo5 O29 1.728744 1_555
Mo5 O62 1.771991 1_556
Mo5 O1 2.038942 1_555
Mo5 O49 2.045210 1_555
Mo5 O25 2.088767 1_555
Mo5 O58 2.207869 1_556
Mo6 O30 1.728744 1_555
Mo6 O61 1.771991 1_555
Mo6 O2 2.038942 1_455
Mo6 O50 2.045210 1_555
Mo6 O26 2.088767 1_455
Mo6 O57 2.207869 1_555
Mo7 O31 1.728744 1_555
Mo7 O60 1.771991 1_555
Mo7 O3 2.038942 1_655
Mo7 O51 2.045210 1_555
Mo7 O27 2.088767 1_655
Mo7 O56 2.207869 1_555
Mo8 O16 1.737790 1_555
Mo8 O64 1.739643 1_555
Mo8 O44 2.009491 1_555
Mo8 O15 2.030127 1_555
Mo8 O32 2.101222 1_555
Mo8 O60 2.304063 1_555
Mo9 O17 1.737790 1_555
Mo9 O65 1.739643 1_555
Mo9 O45 2.009491 1_555
Mo9 O14 2.030127 1_555
Mo9 O33 2.101222 1_555
Mo9 O61 2.304063 1_555
Mo10 O18 1.737790 1_555
Mo10 O66 1.739643 1_555
Mo10 O46 2.009491 1_555
Mo10 O13 2.030127 1_554
Mo10 O34 2.101222 1_555
Mo10 O62 2.304063 1_555
Mo11 O19 1.737790 1_555
Mo11 O67 1.739643 1_555
Mo11 O47 2.009491 1_555
Mo11 O12 2.030127 1_556
Mo11 O35 2.101222 1_555
Mo11 O63 2.304063 1_555
O0 P9 1.565042 1_554
O1 P8 1.565042 1_556
O2 P11 1.565042 1_555
O3 P10 1.565042 1_555
O8 P2 1.542796 1_565
O9 P3 1.542796 1_545
O10 P0 1.542796 1_545
O11 P1 1.542796 1_565
O12 P8 1.569444 1_555
O12 Rb0 3.250200 1_555
O13 P9 1.569444 1_555
O13 Rb1 3.250200 1_555
O14 P10 1.569444 1_555
O14 Rb2 3.250200 1_555
O15 P11 1.569444 1_555
O15 Rb3 3.250200 1_555
O16 Rb2 2.910053 1_555
O17 Rb3 2.910053 1_555
O18 Rb0 2.910053 1_455
O19 Rb1 2.910053 1_655
O20 P0 1.568854 1_555
O20 Rb2 3.111194 1_555
O21 P1 1.568854 1_555
O21 Rb3 3.111194 1_555
O22 P2 1.568854 1_555
O22 Rb0 3.111194 1_555
O23 P3 1.568854 1_555
O23 Rb1 3.111194 1_555
O24 P0 1.553314 1_555
O24 Rb2 3.077837 1_555
O25 P1 1.553314 1_555
O25 Rb3 3.077837 1_555
O26 P2 1.553314 1_555
O26 Rb0 3.077837 1_555
O27 P3 1.553314 1_555
O27 Rb1 3.077837 1_555
O28 Rb2 3.305200 1_555
O28 Rb0 3.316382 1_555
O29 Rb3 3.305200 1_555
O29 Rb1 3.316382 1_555
O30 Rb0 3.305200 1_455
O30 Rb2 3.316382 1_555
O31 Rb1 3.305200 1_655
O31 Rb3 3.316382 1_555
O32 P10 1.529446 1_655
O33 P11 1.529446 1_455
O34 P8 1.529446 1_555
O35 P9 1.529446 1_555
O36 P4 1.547651 1_555
O37 P5 1.547651 1_555
O38 P6 1.547651 1_555
O39 P7 1.547651 1_555
O40 P4 1.542356 1_555
O41 P5 1.542356 1_555
O42 P6 1.542356 1_555
O43 P7 1.542356 1_555
O44 P4 1.541590 1_555
O45 P5 1.541590 1_555
O46 P6 1.541590 1_555
O47 P7 1.541590 1_555
O48 P4 1.557015 1_555
O49 P5 1.557015 1_555
O50 P6 1.557015 1_555
O51 P7 1.557015 1_555
O52 P8 1.537006 1_555
O52 Rb0 2.994272 1_555
O53 P9 1.537006 1_555
O53 Rb1 2.994272 1_555
O54 P10 1.537006 1_555
O54 Rb2 2.994272 1_555
O55 P11 1.537006 1_555
O55 Rb3 2.994272 1_555
O56 P2 1.526515 1_565
O57 P3 1.526515 1_545
O58 P0 1.526515 1_545
O59 P1 1.526515 1_565
O64 Rb0 2.858346 1_555
O65 Rb1 2.858346 1_555
O66 Rb2 2.858346 1_555
O67 Rb3 2.858346 1_555
