# generated using pymatgen
data_CeMgPt
_symmetry_space_group_name_H-M   'P 1'
_cell_length_a   7.56304187
_cell_length_b   7.55460952
_cell_length_c   4.12524885
_cell_angle_alpha   90.00000000
_cell_angle_beta   90.00000000
_cell_angle_gamma   119.96085132
_symmetry_Int_Tables_number   1
_chemical_formula_structural   CeMgPt
_chemical_formula_sum   'Ce3 Mg3 Pt3'
_cell_volume   204.20223842
_cell_formula_units_Z   3
loop_
 _symmetry_equiv_pos_site_id
 _symmetry_equiv_pos_as_xyz
  1  'x, y, z'
loop_
 _atom_site_type_symbol
 _atom_site_label
 _atom_site_symmetry_multiplicity
 _atom_site_fract_x
 _atom_site_fract_y
 _atom_site_fract_z
 _atom_site_occupancy
  Ce  Ce0  1  0.58463364  0.58423241  0.00000000  1
  Ce  Ce1  1  0.41537442  0.99946449  0.00000000  1
  Ce  Ce2  1  0.00005489  0.41515070  0.00000000  1
  Mg  Mg0  1  0.00011295  0.76324832  0.50000000  1
  Mg  Mg1  1  0.23736471  0.23692044  0.50000000  1
  Mg  Mg2  1  0.76262826  0.99960768  0.50000000  1
  Pt  Pt0  1  0.33202652  0.66619541  0.50000000  1
  Pt  Pt1  1  -0.00007805  0.00104365  -0.00000000  1
  Pt  Pt2  1  0.66788366  0.33413590  0.50000000  1
loop_
_geom_bond_atom_site_label_1
_geom_bond_atom_site_label_2
_geom_bond_distance
_geom_bond_site_symmetry_2
Ce0 Pt2 3.067376 1_555
Ce0 Pt2 3.067376 1_554
Ce0 Pt0 3.077226 1_554
Ce0 Pt0 3.077226 1_555
Ce0 Pt1 3.146713 1_665
Ce0 Mg1 3.339726 1_554
Ce0 Mg1 3.339726 1_555
Ce0 Mg2 3.419699 1_554
Ce0 Mg2 3.419699 1_555
Ce0 Mg0 3.422394 1_655
Ce0 Mg0 3.422394 1_654
Ce1 Pt0 3.066836 1_554
Ce1 Pt0 3.066836 1_555
Ce1 Pt2 3.077528 1_565
Ce1 Pt2 3.077528 1_564
Ce1 Pt1 3.148059 1_565
Ce1 Mg2 3.339013 1_555
Ce1 Mg2 3.339013 1_554
Ce1 Mg1 3.420117 1_565
Ce1 Mg1 3.420117 1_564
Ce1 Mg0 3.421206 1_554
Ce1 Mg0 3.421206 1_555
Ce2 Pt0 3.065770 1_554
Ce2 Pt0 3.065770 1_555
Ce2 Pt2 3.066681 1_455
Ce2 Pt2 3.066681 1_454
Ce2 Pt1 3.127915 1_555
Ce2 Mg0 3.341977 1_555
Ce2 Mg0 3.341977 1_554
Ce2 Mg1 3.420872 1_554
Ce2 Mg1 3.420872 1_555
Ce2 Mg2 3.421027 1_444
Ce2 Mg2 3.421027 1_445
Mg0 Pt1 2.735736 1_566
Mg0 Pt1 2.735736 1_565
Mg0 Pt0 2.945745 1_555
Mg0 Pt2 2.947328 1_455
Mg0 Mg1 3.100222 1_565
Mg0 Mg2 3.101244 1_455
Mg1 Pt1 2.731011 1_555
Mg1 Pt1 2.731011 1_556
Mg1 Pt0 2.951376 1_555
Mg1 Pt2 2.958488 1_555
Mg1 Mg2 3.110648 1_445
Mg2 Pt1 2.730550 1_666
Mg2 Pt1 2.730550 1_665
Mg2 Pt2 2.951120 1_565
Mg2 Pt0 2.959226 1_555
