# generated using pymatgen
data_CuH4C2S2(NO)2
_symmetry_space_group_name_H-M   'P 1'
_cell_length_a   15.48547100
_cell_length_b   5.47685900
_cell_length_c   8.89804000
_cell_angle_alpha   90.00000000
_cell_angle_beta   90.00000000
_cell_angle_gamma   90.00000000
_symmetry_Int_Tables_number   1
_chemical_formula_structural   CuH4C2S2(NO)2
_chemical_formula_sum   'Cu4 H16 C8 S8 N8 O8'
_cell_volume   754.65826581
_cell_formula_units_Z   4
loop_
 _symmetry_equiv_pos_site_id
 _symmetry_equiv_pos_as_xyz
  1  'x, y, z'
loop_
 _atom_site_type_symbol
 _atom_site_label
 _atom_site_symmetry_multiplicity
 _atom_site_fract_x
 _atom_site_fract_y
 _atom_site_fract_z
 _atom_site_occupancy
  Cu  Cu0  1  0.67818300  0.25000000  0.89375200  1
  Cu  Cu1  1  0.17818300  0.25000000  0.60624800  1
  Cu  Cu2  1  0.32181700  0.75000000  0.10624800  1
  Cu  Cu3  1  0.82181700  0.75000000  0.39375200  1
  H  H0  1  0.53199900  0.10546200  0.73157800  1
  H  H1  1  0.03199900  0.39453800  0.76842200  1
  H  H2  1  0.46800100  0.60546200  0.26842200  1
  H  H3  1  0.96800100  0.89453800  0.23157800  1
  H  H4  1  0.46800100  0.89453800  0.26842200  1
  H  H5  1  0.96800100  0.60546200  0.23157800  1
  H  H6  1  0.53199900  0.39453800  0.73157800  1
  H  H7  1  0.03199900  0.10546200  0.76842200  1
  H  H8  1  0.84951300  0.10830600  0.95312600  1
  H  H9  1  0.34951300  0.39169400  0.54687400  1
  H  H10  1  0.15048700  0.60830600  0.04687400  1
  H  H11  1  0.65048700  0.89169400  0.45312600  1
  H  H12  1  0.15048700  0.89169400  0.04687400  1
  H  H13  1  0.65048700  0.60830600  0.45312600  1
  H  H14  1  0.84951300  0.39169400  0.95312600  1
  H  H15  1  0.34951300  0.10830600  0.54687400  1
  C  C0  1  0.76771400  0.25000000  0.58667800  1
  C  C1  1  0.26771400  0.25000000  0.91332200  1
  C  C2  1  0.23228600  0.75000000  0.41332200  1
  C  C3  1  0.73228600  0.75000000  0.08667800  1
  C  C4  1  0.59476900  0.25000000  0.20394100  1
  C  C5  1  0.09476900  0.25000000  0.29605900  1
  C  C6  1  0.40523100  0.75000000  0.79605900  1
  C  C7  1  0.90523100  0.75000000  0.70394100  1
  S  S0  1  0.81662000  0.25000000  0.42430900  1
  S  S1  1  0.31662000  0.25000000  0.07569100  1
  S  S2  1  0.18338000  0.75000000  0.57569100  1
  S  S3  1  0.68338000  0.75000000  0.92430900  1
  S  S4  1  0.54388300  0.25000000  0.36463900  1
  S  S5  1  0.04388300  0.25000000  0.13536100  1
  S  S6  1  0.45611700  0.75000000  0.63536100  1
  S  S7  1  0.95611700  0.75000000  0.86463900  1
  N  N0  1  0.72917000  0.25000000  0.70110000  1
  N  N1  1  0.22917000  0.25000000  0.79890000  1
  N  N2  1  0.27083000  0.75000000  0.29890000  1
  N  N3  1  0.77083000  0.75000000  0.20110000  1
  N  N4  1  0.63161500  0.25000000  0.08827100  1
  N  N5  1  0.13161500  0.25000000  0.41172900  1
  N  N6  1  0.36838500  0.75000000  0.91172900  1
  N  N7  1  0.86838500  0.75000000  0.58827100  1
  O  O0  1  0.54576500  0.25000000  0.79304800  1
  O  O1  1  0.04576500  0.25000000  0.70695200  1
  O  O2  1  0.45423500  0.75000000  0.20695200  1
  O  O3  1  0.95423500  0.75000000  0.29304800  1
  O  O4  1  0.81885400  0.25000000  0.99446000  1
  O  O5  1  0.31885400  0.25000000  0.50554000  1
  O  O6  1  0.18114600  0.75000000  0.00554000  1
  O  O7  1  0.68114600  0.75000000  0.49446000  1
loop_
_geom_bond_atom_site_label_1
_geom_bond_atom_site_label_2
_geom_bond_distance
_geom_bond_site_symmetry_2
Cu0 N4 1.875053 1_556
Cu0 N0 1.887318 1_555
Cu0 O0 2.237792 1_555
Cu0 O4 2.355470 1_555
Cu0 S3 2.753071 1_555
Cu0 S3 2.753071 1_545
Cu1 N5 1.875053 1_555
Cu1 N1 1.887318 1_555
Cu1 O1 2.237792 1_555
Cu1 O5 2.355470 1_555
Cu1 S2 2.753071 1_545
Cu1 S2 2.753071 1_555
Cu2 N6 1.875053 1_554
Cu2 N2 1.887318 1_555
Cu2 O2 2.237792 1_555
Cu2 O6 2.355470 1_555
Cu2 S1 2.753071 1_555
Cu2 S1 2.753071 1_565
Cu3 N7 1.875053 1_555
Cu3 N3 1.887318 1_555
Cu3 O3 2.237792 1_555
Cu3 O7 2.355470 1_555
Cu3 S0 2.753071 1_565
Cu3 S0 2.753071 1_555
H0 O0 0.985527 1_555
H1 O1 0.985527 1_555
H2 O2 0.985527 1_555
H3 O3 0.985527 1_555
H4 O2 0.985527 1_555
H5 O3 0.985527 1_555
H6 O0 0.985527 1_555
H7 O1 0.985527 1_555
H8 O4 0.981280 1_555
H9 O5 0.981280 1_555
H10 O6 0.981280 1_555
H11 O7 0.981280 1_555
H12 O6 0.981280 1_555
H13 O7 0.981280 1_555
H14 O4 0.981280 1_555
H15 O5 0.981280 1_555
C0 N0 1.180190 1_555
C0 S0 1.631227 1_555
C1 N1 1.180190 1_555
C1 S1 1.631227 1_556
C2 N2 1.180190 1_555
C2 S2 1.631227 1_555
C3 N3 1.180190 1_555
C3 S3 1.631227 1_554
C4 N4 1.176812 1_555
C4 S4 1.632648 1_555
C5 N5 1.176812 1_555
C5 S5 1.632648 1_555
C6 N6 1.176812 1_555
C6 S6 1.632648 1_555
C7 N7 1.176812 1_555
C7 S7 1.632648 1_555
