# generated using pymatgen
data_Ni3Te2MoO10
_symmetry_space_group_name_H-M   'P 1'
_cell_length_a   5.02144000
_cell_length_b   10.33544000
_cell_length_c   17.94644000
_cell_angle_alpha   90.00000000
_cell_angle_beta   90.00000000
_cell_angle_gamma   90.00000000
_symmetry_Int_Tables_number   1
_chemical_formula_structural   Ni3Te2MoO10
_chemical_formula_sum   'Ni12 Te8 Mo4 O40'
_cell_volume   931.39855371
_cell_formula_units_Z   4
loop_
 _symmetry_equiv_pos_site_id
 _symmetry_equiv_pos_as_xyz
  1  'x, y, z'
loop_
 _atom_site_type_symbol
 _atom_site_label
 _atom_site_symmetry_multiplicity
 _atom_site_fract_x
 _atom_site_fract_y
 _atom_site_fract_z
 _atom_site_occupancy
  Ni  Ni0  1  0.24927300  0.38933000  0.21702800  1
  Ni  Ni1  1  0.25072700  0.61067000  0.71702800  1
  Ni  Ni2  1  0.74927300  0.11067000  0.78297200  1
  Ni  Ni3  1  0.75072700  0.88933000  0.28297200  1
  Ni  Ni4  1  0.75180000  0.53638100  0.27134000  1
  Ni  Ni5  1  0.74820000  0.46361900  0.77134000  1
  Ni  Ni6  1  0.25180000  0.96361900  0.72866000  1
  Ni  Ni7  1  0.24820000  0.03638100  0.22866000  1
  Ni  Ni8  1  0.20295900  0.21701700  0.06640400  1
  Ni  Ni9  1  0.29704100  0.78298300  0.56640400  1
  Ni  Ni10  1  0.70295900  0.28298300  0.93359600  1
  Ni  Ni11  1  0.79704100  0.71701700  0.43359600  1
  Te  Te0  1  0.19184700  0.71928000  0.18537100  1
  Te  Te1  1  0.30815300  0.28072000  0.68537100  1
  Te  Te2  1  0.69184700  0.78072000  0.81462900  1
  Te  Te3  1  0.80815300  0.21928000  0.31462900  1
  Te  Te4  1  0.69450000  0.46390900  0.08399100  1
  Te  Te5  1  0.80550000  0.53609100  0.58399100  1
  Te  Te6  1  0.19450000  0.03609100  0.91600900  1
  Te  Te7  1  0.30550000  0.96390900  0.41600900  1
  Mo  Mo0  1  0.29356000  0.48480900  0.39856000  1
  Mo  Mo1  1  0.20644000  0.51519100  0.89856000  1
  Mo  Mo2  1  0.79356000  0.01519100  0.60144000  1
  Mo  Mo3  1  0.70644000  0.98480900  0.10144000  1
  O  O0  1  0.42687100  0.85498800  0.21543500  1
  O  O1  1  0.07312900  0.14501200  0.71543500  1
  O  O2  1  0.92687100  0.64501200  0.78456500  1
  O  O3  1  0.57312900  0.35498800  0.28456500  1
  O  O4  1  0.95289300  0.71134700  0.26908400  1
  O  O5  1  0.54710700  0.28865300  0.76908400  1
  O  O6  1  0.45289300  0.78865300  0.73091600  1
  O  O7  1  0.04710700  0.21134700  0.23091600  1
  O  O8  1  0.42205700  0.57773600  0.20920100  1
  O  O9  1  0.07794300  0.42226400  0.70920100  1
  O  O10  1  0.92205700  0.92226400  0.79079900  1
  O  O11  1  0.57794300  0.07773600  0.29079900  1
  O  O12  1  0.42725300  0.34798200  0.11866900  1
  O  O13  1  0.07274700  0.65201800  0.61866900  1
  O  O14  1  0.92725300  0.15201800  0.88133100  1
  O  O15  1  0.57274700  0.84798200  0.38133100  1
  O  O16  1  0.91969400  0.47748300  0.16998300  1
  O  O17  1  0.58030600  0.52251700  0.66998300  1
  O  O18  1  0.41969500  0.02251700  0.83001700  1
  O  O19  1  0.08030600  0.97748300  0.33001700  1
  O  O20  1  0.90201900  0.33946300  0.03023500  1
  O  O21  1  0.59798100  0.66053700  0.53023500  1
  O  O22  1  0.40201900  0.16053700  0.96976500  1
  O  O23  1  0.09798100  0.83946300  0.46976500  1
  O  O24  1  0.07767400  0.44000500  0.31893700  1
  O  O25  1  0.42232600  0.55999500  0.81893700  1
  O  O26  1  0.57767400  0.05999500  0.68106300  1
  O  O27  1  0.92232600  0.94000500  0.18106300  1
  O  O28  1  0.06982700  0.57686100  0.45631700  1
  O  O29  1  0.43017300  0.42313900  0.95631700  1
  O  O30  1  0.56982700  0.92313900  0.54368300  1
  O  O31  1  0.93017300  0.07686100  0.04368300  1
  O  O32  1  0.58401800  0.58324600  0.37329100  1
  O  O33  1  0.91598200  0.41675400  0.87329100  1
  O  O34  1  0.08401800  0.91675400  0.62670900  1
  O  O35  1  0.41598200  0.08324600  0.12670900  1
  O  O36  1  0.38612800  0.34967100  0.44993400  1
  O  O37  1  0.11387200  0.65032900  0.94993400  1
  O  O38  1  0.88612800  0.15032900  0.55006600  1
  O  O39  1  0.61387200  0.84967100  0.05006600  1
loop_
_geom_bond_atom_site_label_1
_geom_bond_atom_site_label_2
_geom_bond_distance
_geom_bond_site_symmetry_2
Ni0 O12 2.024170 1_555
Ni0 O3 2.059040 1_555
Ni0 O16 2.069257 1_455
Ni0 O24 2.088464 1_555
Ni0 O7 2.115788 1_555
Ni0 O8 2.136427 1_555
Ni1 O13 2.024170 1_555
Ni1 O2 2.059040 1_455
Ni1 O17 2.069257 1_555
Ni1 O25 2.088464 1_555
Ni1 O6 2.115788 1_555
Ni1 O9 2.136427 1_555
Ni2 O14 2.024170 1_555
Ni2 O1 2.059040 1_655
Ni2 O18 2.069253 1_555
Ni2 O26 2.088464 1_555
Ni2 O5 2.115788 1_555
Ni2 O10 2.136427 1_545
Ni3 O15 2.024170 1_555
Ni3 O0 2.059040 1_555
Ni3 O19 2.069257 1_655
Ni3 O27 2.088464 1_555
Ni3 O4 2.115788 1_555
Ni3 O11 2.136427 1_565
Ni4 O8 2.041550 1_555
Ni4 O4 2.071574 1_555
Ni4 O32 2.071734 1_555
Ni4 O3 2.091903 1_555
Ni4 O16 2.095251 1_555
Ni4 O24 2.097500 1_655
Ni5 O9 2.041550 1_655
Ni5 O5 2.071574 1_555
Ni5 O33 2.071734 1_555
Ni5 O2 2.091903 1_555
Ni5 O17 2.095251 1_555
Ni5 O25 2.097500 1_555
Ni6 O10 2.041550 1_455
Ni6 O6 2.071574 1_555
Ni6 O34 2.071734 1_555
Ni6 O1 2.091903 1_565
Ni6 O18 2.095253 1_565
Ni6 O26 2.097500 1_565
Ni7 O11 2.041550 1_555
Ni7 O7 2.071574 1_555
Ni7 O35 2.071734 1_555
Ni7 O0 2.091903 1_545
Ni7 O19 2.095251 1_545
Ni7 O27 2.097500 1_445
Ni8 O12 1.995113 1_555
Ni8 O31 2.034927 1_455
Ni8 O35 2.055977 1_555
Ni8 O20 2.075209 1_455
Ni8 O22 2.085133 1_554
Ni9 O13 1.995113 1_555
Ni9 O30 2.034927 1_555
Ni9 O34 2.055977 1_555
Ni9 O21 2.075209 1_555
Ni9 O23 2.085133 1_555
Ni10 O14 1.995113 1_555
Ni10 O29 2.034927 1_555
Ni10 O33 2.055977 1_555
Ni10 O22 2.075209 1_555
Ni10 O20 2.085133 1_556
Ni11 O15 1.995113 1_555
Ni11 O28 2.034927 1_655
Ni11 O32 2.055977 1_555
Ni11 O23 2.075209 1_655
Ni11 O21 2.085133 1_555
Mo0 O36 1.736926 1_555
Mo0 O28 1.800479 1_555
Mo0 O32 1.835213 1_555
Mo0 O24 1.852434 1_555
Mo1 O37 1.736926 1_555
Mo1 O29 1.800479 1_555
Mo1 O33 1.835213 1_455
Mo1 O25 1.852434 1_555
Mo2 O38 1.736926 1_555
Mo2 O30 1.800479 1_545
Mo2 O34 1.835213 1_645
Mo2 O26 1.852434 1_555
Mo3 O39 1.736926 1_555
Mo3 O31 1.800479 1_565
Mo3 O35 1.835213 1_565
Mo3 O27 1.852434 1_555
O0 Te0 1.910804 1_555
O1 Te1 1.910804 1_555
O2 Te2 1.910804 1_555
O3 Te3 1.910804 1_555
O4 Te0 1.924454 1_655
O5 Te1 1.924454 1_555
O6 Te2 1.924454 1_555
O7 Te3 1.924454 1_455
O8 Te0 1.912938 1_555
O9 Te1 1.912938 1_555
O10 Te2 1.912938 1_555
O11 Te3 1.912938 1_555
O12 Te4 1.903619 1_555
O13 Te5 1.903619 1_455
O14 Te6 1.903619 1_655
O15 Te7 1.903619 1_555
O16 Te4 1.918335 1_555
O17 Te5 1.918335 1_555
O18 Te6 1.918338 1_555
O19 Te7 1.918335 1_555
O20 Te4 1.915954 1_555
O21 Te5 1.915954 1_555
O22 Te6 1.915954 1_555
O23 Te7 1.915954 1_555
