# generated using pymatgen
data_Ba3Tm
_symmetry_space_group_name_H-M   'P 1'
_cell_length_a   8.34140867
_cell_length_b   8.34140867
_cell_length_c   6.72874800
_cell_angle_alpha   90.00000000
_cell_angle_beta   90.00000000
_cell_angle_gamma   120.00000528
_symmetry_Int_Tables_number   1
_chemical_formula_structural   Ba3Tm
_chemical_formula_sum   'Ba6 Tm2'
_cell_volume   405.45594255
_cell_formula_units_Z   2
loop_
 _symmetry_equiv_pos_site_id
 _symmetry_equiv_pos_as_xyz
  1  'x, y, z'
loop_
 _atom_site_type_symbol
 _atom_site_label
 _atom_site_symmetry_multiplicity
 _atom_site_fract_x
 _atom_site_fract_y
 _atom_site_fract_z
 _atom_site_occupancy
  Ba  Ba0  1  0.17144900  0.34289700  0.25000000  1
  Ba  Ba1  1  0.65710300  0.82855100  0.25000000  1
  Ba  Ba2  1  0.17144900  0.82855100  0.25000000  1
  Ba  Ba3  1  0.82855100  0.65710300  0.75000000  1
  Ba  Ba4  1  0.34289700  0.17144900  0.75000000  1
  Ba  Ba5  1  0.82855100  0.17144900  0.75000000  1
  Tm  Tm0  1  0.33333300  0.66666700  0.75000000  1
  Tm  Tm1  1  0.66666700  0.33333300  0.25000000  1
loop_
_geom_bond_atom_site_label_1
_geom_bond_atom_site_label_2
_geom_bond_distance
_geom_bond_site_symmetry_2
Ba0 Ba1 4.051038 1_555
Ba0 Ba2 4.051038 1_555
Ba0 Tm0 4.097480 1_554
Ba0 Tm0 4.097480 1_555
Ba0 Tm1 4.171277 1_455
Ba0 Tm1 4.171277 1_555
Ba0 Ba4 4.177885 1_555
Ba0 Ba4 4.177885 1_554
Ba0 Ba5 4.177894 1_454
Ba0 Ba5 4.177894 1_455
Ba0 Ba1 4.290370 1_445
Ba0 Ba2 4.290370 1_545
Ba1 Ba2 4.051038 1_555
Ba1 Tm0 4.097480 1_554
Ba1 Tm0 4.097480 1_555
Ba1 Tm1 4.171277 1_565
Ba1 Tm1 4.171277 1_555
Ba1 Ba3 4.177885 1_555
Ba1 Ba3 4.177885 1_554
Ba1 Ba5 4.177894 1_564
Ba1 Ba5 4.177894 1_565
Ba1 Ba2 4.290370 1_655
Ba2 Tm0 4.097471 1_555
Ba2 Tm0 4.097471 1_554
Ba2 Tm1 4.171276 1_455
Ba2 Tm1 4.171276 1_565
Ba2 Ba3 4.177894 1_455
Ba2 Ba3 4.177894 1_454
Ba2 Ba4 4.177894 1_565
Ba2 Ba4 4.177894 1_564
Ba3 Ba4 4.051038 1_555
Ba3 Ba5 4.051038 1_555
Ba3 Tm1 4.097480 1_556
Ba3 Tm1 4.097480 1_555
Ba3 Tm0 4.171277 1_655
Ba3 Tm0 4.171277 1_555
Ba3 Ba4 4.290370 1_665
Ba3 Ba5 4.290370 1_565
Ba4 Ba5 4.051038 1_555
Ba4 Tm1 4.097480 1_556
Ba4 Tm1 4.097480 1_555
Ba4 Tm0 4.171277 1_545
Ba4 Tm0 4.171277 1_555
Ba4 Ba5 4.290370 1_455
Ba5 Tm1 4.097471 1_556
Ba5 Tm1 4.097471 1_555
Ba5 Tm0 4.171276 1_655
Ba5 Tm0 4.171276 1_545
