# generated using pymatgen
data_Yb3Sm
_symmetry_space_group_name_H-M   'P 1'
_cell_length_a   7.57664608
_cell_length_b   7.57664608
_cell_length_c   6.11945800
_cell_angle_alpha   90.00000000
_cell_angle_beta   90.00000000
_cell_angle_gamma   120.00000067
_symmetry_Int_Tables_number   1
_chemical_formula_structural   Yb3Sm
_chemical_formula_sum   'Yb6 Sm2'
_cell_volume   304.22688364
_cell_formula_units_Z   2
loop_
 _symmetry_equiv_pos_site_id
 _symmetry_equiv_pos_as_xyz
  1  'x, y, z'
loop_
 _atom_site_type_symbol
 _atom_site_label
 _atom_site_symmetry_multiplicity
 _atom_site_fract_x
 _atom_site_fract_y
 _atom_site_fract_z
 _atom_site_occupancy
  Yb  Yb0  1  0.17018700  0.34037300  0.25000000  1
  Yb  Yb1  1  0.65962700  0.82981300  0.25000000  1
  Yb  Yb2  1  0.17018700  0.82981300  0.25000000  1
  Yb  Yb3  1  0.82981300  0.65962700  0.75000000  1
  Yb  Yb4  1  0.34037300  0.17018700  0.75000000  1
  Yb  Yb5  1  0.82981300  0.17018700  0.75000000  1
  Sm  Sm0  1  0.33333300  0.66666700  0.75000000  1
  Sm  Sm1  1  0.66666700  0.33333300  0.25000000  1
loop_
_geom_bond_atom_site_label_1
_geom_bond_atom_site_label_2
_geom_bond_distance
_geom_bond_site_symmetry_2
Yb0 Yb1 3.708314 1_555
Yb0 Yb2 3.708314 1_555
Yb0 Yb4 3.788126 1_555
Yb0 Yb4 3.788126 1_554
Yb0 Yb5 3.788134 1_455
Yb0 Yb5 3.788134 1_454
Yb0 Yb1 3.868332 1_445
Yb0 Yb2 3.868332 1_545
Yb1 Yb2 3.708314 1_555
Yb1 Yb3 3.788126 1_554
Yb1 Yb3 3.788126 1_555
Yb1 Yb5 3.788134 1_565
Yb1 Yb5 3.788134 1_564
Yb1 Yb2 3.868332 1_655
Yb2 Yb3 3.788134 1_455
Yb2 Yb3 3.788134 1_454
Yb2 Yb4 3.788134 1_564
Yb2 Yb4 3.788134 1_565
Yb3 Yb4 3.708314 1_555
Yb3 Yb5 3.708314 1_555
Yb3 Yb4 3.868332 1_665
Yb3 Yb5 3.868332 1_565
Yb4 Yb5 3.708314 1_555
Yb4 Yb5 3.868332 1_455
Sm0 Yb2 3.734403 1_556
Sm0 Yb2 3.734403 1_555
Sm0 Yb1 3.734411 1_556
Sm0 Yb1 3.734411 1_555
Sm0 Yb0 3.734411 1_555
Sm0 Yb0 3.734411 1_556
Sm0 Yb5 3.788605 1_455
Sm0 Yb5 3.788605 1_565
Sm0 Yb3 3.788605 1_455
Sm0 Yb4 3.788605 1_565
Sm0 Yb4 3.788605 1_555
Sm0 Yb3 3.788605 1_555
Sm1 Yb5 3.734403 1_555
Sm1 Yb5 3.734403 1_554
Sm1 Yb3 3.734411 1_555
Sm1 Yb4 3.734411 1_555
Sm1 Yb4 3.734411 1_554
Sm1 Yb3 3.734411 1_554
Sm1 Yb2 3.788605 1_545
Sm1 Yb2 3.788605 1_655
Sm1 Yb1 3.788605 1_545
Sm1 Yb0 3.788605 1_655
Sm1 Yb0 3.788605 1_555
Sm1 Yb1 3.788605 1_555
