# generated using pymatgen
data_Ce5P12Ru19
_symmetry_space_group_name_H-M   'P 1'
_cell_length_a   12.63595969
_cell_length_b   12.63595969
_cell_length_c   3.98236500
_cell_angle_alpha   90.00000000
_cell_angle_beta   90.00000000
_cell_angle_gamma   119.99999836
_symmetry_Int_Tables_number   1
_chemical_formula_structural   Ce5P12Ru19
_chemical_formula_sum   'Ce5 P12 Ru19'
_cell_volume   550.66587593
_cell_formula_units_Z   1
loop_
 _symmetry_equiv_pos_site_id
 _symmetry_equiv_pos_as_xyz
  1  'x, y, z'
loop_
 _atom_site_type_symbol
 _atom_site_label
 _atom_site_symmetry_multiplicity
 _atom_site_fract_x
 _atom_site_fract_y
 _atom_site_fract_z
 _atom_site_occupancy
  Ce  Ce0  1  0.18558900  0.18558900  0.50000000  1
  Ce  Ce1  1  0.81441100  0.00000000  0.50000000  1
  Ce  Ce2  1  0.00000000  0.81441100  0.50000000  1
  Ce  Ce3  1  0.33333300  0.66666700  0.00000000  1
  Ce  Ce4  1  0.66666700  0.33333300  0.00000000  1
  P  P0  1  0.81420400  0.81420400  0.00000000  1
  P  P1  1  0.18579600  0.00000000  0.00000000  1
  P  P2  1  0.00000000  0.18579600  0.00000000  1
  P  P3  1  0.17014000  0.47663200  0.50000000  1
  P  P4  1  0.52336800  0.69350800  0.50000000  1
  P  P5  1  0.30649200  0.82986000  0.50000000  1
  P  P6  1  0.69350800  0.52336800  0.50000000  1
  P  P7  1  0.82986000  0.30649200  0.50000000  1
  P  P8  1  0.47663200  0.17014000  0.50000000  1
  P  P9  1  0.37374900  0.37374900  0.00000000  1
  P  P10  1  0.62625100  0.00000000  0.00000000  1
  P  P11  1  0.00000000  0.62625100  0.00000000  1
  Ru  Ru0  1  0.55466400  0.55466400  0.00000000  1
  Ru  Ru1  1  0.44533600  0.00000000  0.00000000  1
  Ru  Ru2  1  0.00000000  0.44533600  0.00000000  1
  Ru  Ru3  1  0.71629500  0.71629500  0.50000000  1
  Ru  Ru4  1  0.28370500  0.00000000  0.50000000  1
  Ru  Ru5  1  0.00000000  0.28370500  0.50000000  1
  Ru  Ru6  1  0.18367900  0.37643700  0.00000000  1
  Ru  Ru7  1  0.62356300  0.80724200  0.00000000  1
  Ru  Ru8  1  0.19275800  0.81632100  0.00000000  1
  Ru  Ru9  1  0.80724200  0.62356300  0.00000000  1
  Ru  Ru10  1  0.81632100  0.19275800  0.00000000  1
  Ru  Ru11  1  0.37643700  0.18367900  0.00000000  1
  Ru  Ru12  1  0.36562800  0.49187700  0.50000000  1
  Ru  Ru13  1  0.50812300  0.87375100  0.50000000  1
  Ru  Ru14  1  0.12624900  0.63437200  0.50000000  1
  Ru  Ru15  1  0.87375100  0.50812300  0.50000000  1
  Ru  Ru16  1  0.63437200  0.12624900  0.50000000  1
  Ru  Ru17  1  0.49187700  0.36562800  0.50000000  1
  Ru  Ru18  1  0.00000000  0.00000000  0.00000000  1
loop_
_geom_bond_atom_site_label_1
_geom_bond_atom_site_label_2
_geom_bond_distance
_geom_bond_site_symmetry_2
Ce0 Ru18 3.076407 1_556
Ce0 Ru18 3.076407 1_555
Ce0 P2 3.077405 1_556
Ce0 P1 3.077405 1_555
Ce0 P2 3.077405 1_555
Ce0 P1 3.077405 1_556
Ce0 P9 3.101242 1_556
Ce0 P9 3.101242 1_555
Ce0 Ru6 3.136743 1_555
Ce0 Ru6 3.136743 1_556
Ce0 Ru11 3.136743 1_556
Ce0 Ru11 3.136743 1_555
Ce0 Ru5 3.153407 1_555
Ce0 Ru4 3.153407 1_555
Ce0 Ru12 3.368914 1_555
Ce0 Ru17 3.368914 1_555
Ce1 Ru18 3.076407 1_655
Ce1 Ru18 3.076407 1_656
Ce1 P0 3.077405 1_545
Ce1 P0 3.077405 1_546
Ce1 P2 3.077405 1_656
Ce1 P2 3.077405 1_655
Ce1 P10 3.101242 1_555
Ce1 P10 3.101242 1_556
Ce1 Ru10 3.136743 1_555
Ce1 Ru10 3.136743 1_556
Ce1 Ru7 3.136743 1_545
Ce1 Ru7 3.136743 1_546
Ce1 Ru3 3.153407 1_545
Ce1 Ru5 3.153407 1_655
Ce1 Ru16 3.368914 1_555
Ce1 Ru13 3.368914 1_545
Ce2 Ru18 3.076407 1_565
Ce2 Ru18 3.076407 1_566
Ce2 P0 3.077405 1_455
Ce2 P0 3.077405 1_456
Ce2 P1 3.077405 1_565
Ce2 P1 3.077405 1_566
Ce2 P11 3.101242 1_556
Ce2 P11 3.101242 1_555
Ce2 Ru8 3.136743 1_555
Ce2 Ru8 3.136743 1_556
Ce2 Ru9 3.136743 1_456
Ce2 Ru9 3.136743 1_455
Ce2 Ru3 3.153407 1_455
Ce2 Ru4 3.153407 1_565
Ce2 Ru14 3.368914 1_555
Ce2 Ru15 3.368914 1_455
Ce3 P5 3.005242 1_554
Ce3 P5 3.005242 1_555
Ce3 P3 3.005248 1_555
Ce3 P3 3.005248 1_554
Ce3 P4 3.005252 1_555
Ce3 P4 3.005252 1_554
Ce3 Ru14 3.148120 1_555
Ce3 Ru14 3.148120 1_554
Ce3 Ru13 3.148124 1_555
Ce3 Ru13 3.148124 1_554
Ce3 Ru12 3.148130 1_554
Ce3 Ru12 3.148130 1_555
Ce3 Ru8 3.176512 1_555
Ce3 Ru6 3.176523 1_555
Ce3 Ru7 3.176523 1_555
Ce4 P7 3.005242 1_554
Ce4 P7 3.005242 1_555
Ce4 P8 3.005248 1_554
Ce4 P8 3.005248 1_555
Ce4 P6 3.005252 1_555
Ce4 P6 3.005252 1_554
Ce4 Ru16 3.148120 1_555
Ce4 Ru16 3.148120 1_554
Ce4 Ru15 3.148124 1_554
Ce4 Ru15 3.148124 1_555
Ce4 Ru17 3.148130 1_555
Ce4 Ru17 3.148130 1_554
Ce4 Ru10 3.176512 1_555
Ce4 Ru11 3.176523 1_555
Ce4 Ru9 3.176523 1_555
P0 Ru3 2.344229 1_555
P0 Ru3 2.344229 1_554
P0 Ru18 2.347711 1_665
P0 Ru9 2.366173 1_555
P0 Ru7 2.366173 1_555
P1 Ru4 2.344229 1_554
P1 Ru4 2.344229 1_555
P1 Ru18 2.347711 1_555
P1 Ru8 2.366173 1_545
P1 Ru11 2.366173 1_555
P2 Ru5 2.344229 1_555
P2 Ru5 2.344229 1_554
P2 Ru18 2.347711 1_555
P2 Ru10 2.366173 1_455
P2 Ru6 2.366173 1_555
P3 Ru5 2.307364 1_555
P3 Ru14 2.320744 1_555
P3 Ru12 2.379716 1_555
P3 Ru6 2.411136 1_556
P3 Ru6 2.411136 1_555
P3 Ru2 2.809449 1_556
P3 Ru2 2.809449 1_555
P4 Ru3 2.307364 1_555
P4 Ru12 2.320744 1_555
P4 Ru13 2.379716 1_555
P4 Ru7 2.411136 1_555
P4 Ru7 2.411136 1_556
P4 Ru0 2.809449 1_555
P4 Ru0 2.809449 1_556
P5 Ru4 2.307364 1_565
P5 Ru13 2.320744 1_555
P5 Ru14 2.379716 1_555
P5 Ru8 2.411136 1_555
P5 Ru8 2.411136 1_556
P5 Ru1 2.809449 1_565
P5 Ru1 2.809449 1_566
P6 Ru3 2.307364 1_555
P6 Ru17 2.320744 1_555
P6 Ru15 2.379716 1_555
P6 Ru9 2.411136 1_555
P6 Ru9 2.411136 1_556
P6 Ru0 2.809449 1_555
P6 Ru0 2.809449 1_556
P7 Ru5 2.307364 1_655
P7 Ru15 2.320744 1_555
P7 Ru16 2.379716 1_555
P7 Ru10 2.411136 1_555
P7 Ru10 2.411136 1_556
P7 Ru2 2.809449 1_655
P7 Ru2 2.809449 1_656
P8 Ru4 2.307364 1_555
P8 Ru16 2.320744 1_555
P8 Ru17 2.379716 1_555
P8 Ru11 2.411136 1_556
P8 Ru11 2.411136 1_555
P8 Ru1 2.809449 1_556
P8 Ru1 2.809449 1_555
P9 Ru0 2.286035 1_555
P9 Ru6 2.418878 1_555
P9 Ru11 2.418878 1_555
P9 Ru17 2.521219 1_554
P9 Ru12 2.521219 1_555
P9 Ru12 2.521219 1_554
P9 Ru17 2.521219 1_555
P10 Ru1 2.286035 1_555
P10 Ru7 2.418878 1_545
P10 Ru10 2.418879 1_555
P10 Ru16 2.521219 1_554
P10 Ru16 2.521219 1_555
P10 Ru13 2.521219 1_544
P10 Ru13 2.521219 1_545
P11 Ru2 2.286035 1_555
P11 Ru9 2.418878 1_455
P11 Ru8 2.418879 1_555
P11 Ru14 2.521219 1_554
P11 Ru14 2.521219 1_555
P11 Ru15 2.521219 1_454
P11 Ru15 2.521219 1_455
Ru0 Ru9 2.857525 1_555
Ru0 Ru7 2.857525 1_555
Ru0 Ru17 2.899105 1_554
Ru0 Ru12 2.899105 1_555
Ru0 Ru12 2.899105 1_554
Ru0 Ru17 2.899105 1_555
Ru1 Ru11 2.857525 1_555
Ru1 Ru8 2.857525 1_545
Ru1 Ru13 2.899105 1_545
Ru1 Ru13 2.899105 1_544
Ru1 Ru16 2.899105 1_555
Ru1 Ru16 2.899105 1_554
Ru2 Ru6 2.857525 1_555
Ru3 Ru9 2.829325 1_555
Ru3 Ru7 2.829325 1_555
Ru3 Ru7 2.829325 1_556
Ru3 Ru9 2.829325 1_556
Ru4 Ru8 2.829325 1_546
Ru4 Ru8 2.829325 1_545
Ru5 Ru6 2.829325 1_556
Ru5 Ru6 2.829325 1_555
Ru10 Ru5 2.829325 1_654
Ru10 Ru5 2.829325 1_655
Ru10 Ru16 2.832803 1_555
Ru10 Ru16 2.832803 1_554
Ru10 Ru2 2.857525 1_655
Ru11 Ru4 2.829325 1_555
Ru11 Ru4 2.829325 1_554
Ru11 Ru17 2.832803 1_555
Ru11 Ru17 2.832803 1_554
Ru12 Ru17 2.763101 1_555
Ru12 Ru6 2.832803 1_555
Ru12 Ru6 2.832803 1_556
Ru13 Ru16 2.763101 1_565
Ru13 Ru7 2.832803 1_555
Ru13 Ru7 2.832803 1_556
Ru14 Ru15 2.763101 1_455
Ru14 Ru8 2.832803 1_555
Ru14 Ru8 2.832803 1_556
Ru14 Ru2 2.899105 1_556
Ru14 Ru2 2.899105 1_555
Ru15 Ru9 2.832803 1_555
Ru15 Ru9 2.832803 1_556
Ru15 Ru2 2.899105 1_655
Ru15 Ru2 2.899105 1_656
