# generated using pymatgen
data_NdHoZr2O7
_symmetry_space_group_name_H-M   'P 1'
_cell_length_a   7.56430448
_cell_length_b   7.56430448
_cell_length_c   7.56430448
_cell_angle_alpha   120.06525812
_cell_angle_beta   120.00236564
_cell_angle_gamma   89.94145471
_symmetry_Int_Tables_number   1
_chemical_formula_structural   NdHoZr2O7
_chemical_formula_sum   'Nd2 Ho2 Zr4 O14'
_cell_volume   305.89303434
_cell_formula_units_Z   2
loop_
 _symmetry_equiv_pos_site_id
 _symmetry_equiv_pos_as_xyz
  1  'x, y, z'
loop_
 _atom_site_type_symbol
 _atom_site_label
 _atom_site_symmetry_multiplicity
 _atom_site_fract_x
 _atom_site_fract_y
 _atom_site_fract_z
 _atom_site_occupancy
  Nd  Nd0  1  0.50000000  0.50000000  0.50000000  1
  Nd  Nd1  1  0.50000000  0.00000000  0.00000000  1
  Ho  Ho0  1  0.50000000  0.50000000  0.00000000  1
  Ho  Ho1  1  0.00000000  0.50000000  0.50000000  1
  Zr  Zr0  1  0.00000000  0.00000000  0.50000000  1
  Zr  Zr1  1  0.00000000  0.50000000  0.00000000  1
  Zr  Zr2  1  0.00000000  0.00000000  0.00000000  1
  Zr  Zr3  1  0.50000000  0.00000000  0.50000000  1
  O  O0  1  0.36595600  0.61595600  0.75000000  1
  O  O1  1  0.63404400  0.38404400  0.25000000  1
  O  O2  1  0.33804400  0.08804400  0.25000000  1
  O  O3  1  0.91205900  0.66205900  0.25000000  1
  O  O4  1  0.33806900  0.66149500  0.24688700  1
  O  O5  1  0.91460800  0.09118200  0.25311300  1
  O  O6  1  0.33806900  0.09118200  0.67657400  1
  O  O7  1  0.91460800  0.66149500  0.82342600  1
  O  O8  1  0.66195600  0.91195600  0.75000000  1
  O  O9  1  0.08794100  0.33794100  0.75000000  1
  O  O10  1  0.66193100  0.33850500  0.75311300  1
  O  O11  1  0.08539200  0.90881800  0.74688700  1
  O  O12  1  0.66193100  0.90881800  0.32342600  1
  O  O13  1  0.08539200  0.33850500  0.17657400  1
loop_
_geom_bond_atom_site_label_1
_geom_bond_atom_site_label_2
_geom_bond_distance
_geom_bond_site_symmetry_2
Nd0 O0 2.372215 1_555
Nd0 O1 2.372215 1_555
Nd0 O8 2.563952 1_555
Nd0 O2 2.563952 1_555
Nd0 O7 2.579443 1_555
Nd0 O13 2.579443 1_555
Nd0 O10 2.579443 1_555
Nd0 O4 2.579443 1_555
Nd1 O1 2.372215 1_555
Nd1 O0 2.372215 1_544
Nd1 O2 2.563952 1_555
Nd1 O8 2.563952 1_544
Nd1 O11 2.579443 1_544
Nd1 O6 2.579443 1_554
Nd1 O5 2.579443 1_555
Nd1 O12 2.579443 1_545
Ho0 O0 2.261899 1_554
Ho0 O1 2.261899 1_555
Ho0 O6 2.545407 1_554
Ho0 O12 2.545407 1_555
Ho0 O4 2.545407 1_555
Ho0 O10 2.545407 1_554
Ho0 O3 2.566022 1_555
Ho0 O9 2.566022 1_554
Ho1 O1 2.261899 1_455
Ho1 O0 2.261899 1_555
Ho1 O5 2.545407 1_455
Ho1 O7 2.545407 1_455
Ho1 O13 2.545407 1_555
Ho1 O11 2.545407 1_555
Ho1 O3 2.566022 1_455
Ho1 O9 2.566022 1_555
O2 Zr3 2.112797 1_555
O2 Zr2 2.112797 1_555
O3 Zr1 2.110696 1_655
O3 Zr0 2.110696 1_665
O4 Zr1 2.112806 1_555
O4 Zr3 2.114581 1_565
O5 Zr0 2.112806 1_655
O5 Zr2 2.114581 1_655
O6 Zr0 2.112806 1_555
O6 Zr3 2.114581 1_555
O7 Zr1 2.112806 1_656
O7 Zr2 2.114581 1_666
O8 Zr2 2.112797 1_666
O8 Zr3 2.112797 1_565
O9 Zr0 2.110696 1_555
O9 Zr1 2.110696 1_556
O10 Zr1 2.112806 1_656
O10 Zr3 2.114581 1_555
O11 Zr0 2.112806 1_565
O11 Zr2 2.114581 1_566
O12 Zr0 2.112806 1_665
O12 Zr3 2.114581 1_565
O13 Zr1 2.112806 1_555
O13 Zr2 2.114581 1_555
