# generated using pymatgen
data_ThFe4Co
_symmetry_space_group_name_H-M   'P 1'
_cell_length_a   4.05268500
_cell_length_b   5.07227355
_cell_length_c   5.06188357
_cell_angle_alpha   59.98531845
_cell_angle_beta   90.00000000
_cell_angle_gamma   90.00000000
_symmetry_Int_Tables_number   1
_chemical_formula_structural   ThFe4Co
_chemical_formula_sum   'Th1 Fe4 Co1'
_cell_volume   90.09984207
_cell_formula_units_Z   1
loop_
 _symmetry_equiv_pos_site_id
 _symmetry_equiv_pos_as_xyz
  1  'x, y, z'
loop_
 _atom_site_type_symbol
 _atom_site_label
 _atom_site_symmetry_multiplicity
 _atom_site_fract_x
 _atom_site_fract_y
 _atom_site_fract_z
 _atom_site_occupancy
  Th  Th0  1  0.00000000  0.00004200  0.99995700  1
  Fe  Fe0  1  0.00000000  0.66644800  0.66687300  1
  Fe  Fe1  1  0.50000000  0.50025100  0.50015000  1
  Fe  Fe2  1  0.50000000  0.50024000  0.99958700  1
  Fe  Fe3  1  0.50000000  0.99959700  0.50018500  1
  Co  Co0  1  0.00000000  0.33332200  0.33334800  1
loop_
_geom_bond_atom_site_label_1
_geom_bond_atom_site_label_2
_geom_bond_distance
_geom_bond_site_symmetry_2
Fe0 Fe2 2.496544 1_555
Fe0 Fe2 2.496544 1_455
Fe0 Fe1 2.498135 1_455
Fe0 Fe1 2.498135 1_555
Fe0 Fe3 2.499412 1_555
Fe0 Fe3 2.499412 1_455
Fe0 Th0 2.923142 1_564
Fe0 Th0 2.925749 1_565
Fe0 Th0 2.926904 1_555
Fe1 Fe2 2.528064 1_555
Fe1 Fe3 2.532908 1_555
Fe1 Fe2 2.533820 1_554
Fe1 Fe3 2.539365 1_545
Fe1 Th0 3.243738 1_564
Fe1 Th0 3.243738 1_664
Fe1 Th0 3.243807 1_555
Fe1 Th0 3.243807 1_655
Fe2 Fe3 2.529837 1_555
Fe2 Fe3 2.536125 1_546
Fe2 Th0 3.246185 1_665
Fe2 Th0 3.246185 1_565
Fe2 Th0 3.246290 1_555
Fe2 Th0 3.246290 1_655
Fe3 Th0 3.242161 1_665
Fe3 Th0 3.242161 1_565
Fe3 Th0 3.242200 1_664
Fe3 Th0 3.242200 1_564
Co0 Fe2 2.499227 1_554
Co0 Fe2 2.499227 1_454
Co0 Fe1 2.500220 1_455
Co0 Fe1 2.500220 1_555
Co0 Fe3 2.500894 1_545
Co0 Fe3 2.500894 1_445
Co0 Fe0 2.921208 1_554
Co0 Th0 2.921796 1_555
Co0 Fe0 2.925625 1_555
Co0 Th0 2.925714 1_554
Co0 Th0 2.928282 1_564
Co0 Fe0 2.928958 1_545
