# generated using pymatgen
data_HfAs2O9
_symmetry_space_group_name_H-M   'P 1'
_cell_length_a   5.48508500
_cell_length_b   9.31220800
_cell_length_c   16.44966987
_cell_angle_alpha   68.80505012
_cell_angle_beta   90.00000000
_cell_angle_gamma   90.00000000
_symmetry_Int_Tables_number   1
_chemical_formula_structural   HfAs2O9
_chemical_formula_sum   'Hf4 As8 O36'
_cell_volume   783.38424587
_cell_formula_units_Z   4
loop_
 _symmetry_equiv_pos_site_id
 _symmetry_equiv_pos_as_xyz
  1  'x, y, z'
loop_
 _atom_site_type_symbol
 _atom_site_label
 _atom_site_symmetry_multiplicity
 _atom_site_fract_x
 _atom_site_fract_y
 _atom_site_fract_z
 _atom_site_occupancy
  Hf  Hf0  1  0.76314800  0.76151500  0.47822600  1
  Hf  Hf1  1  0.23685200  0.23848500  0.52177400  1
  Hf  Hf2  1  0.26314800  0.23848500  0.02177400  1
  Hf  Hf3  1  0.73685200  0.76151500  0.97822600  1
  As  As0  1  0.73178200  0.46031900  0.39295700  1
  As  As1  1  0.26821800  0.53968100  0.60704300  1
  As  As2  1  0.23178200  0.53968100  0.10704300  1
  As  As3  1  0.76821800  0.46031900  0.89295700  1
  As  As4  1  0.76321100  0.99221500  0.11792100  1
  As  As5  1  0.23678900  0.00778500  0.88207900  1
  As  As6  1  0.26321100  0.00778500  0.38207900  1
  As  As7  1  0.73678900  0.99221500  0.61792100  1
  O  O0  1  0.43604700  0.68158100  0.05603800  1
  O  O1  1  0.56395300  0.31841900  0.94396200  1
  O  O2  1  0.93604700  0.31841900  0.44396200  1
  O  O3  1  0.06395300  0.68158100  0.55603800  1
  O  O4  1  0.81011900  0.86433800  0.22431900  1
  O  O5  1  0.18988100  0.13566200  0.77568100  1
  O  O6  1  0.31011900  0.13566200  0.27568100  1
  O  O7  1  0.68988100  0.86433800  0.72431900  1
  O  O8  1  0.94555000  0.58547100  0.06468700  1
  O  O9  1  0.05445000  0.41452900  0.93531300  1
  O  O10  1  0.44555000  0.41452900  0.43531300  1
  O  O11  1  0.55445000  0.58547100  0.56468700  1
  O  O12  1  0.82630200  0.62745300  0.40387400  1
  O  O13  1  0.17369800  0.37254700  0.59612600  1
  O  O14  1  0.32630200  0.37254700  0.09612600  1
  O  O15  1  0.67369800  0.62745300  0.90387400  1
  O  O16  1  0.71873400  0.48186000  0.28247300  1
  O  O17  1  0.28126600  0.51814000  0.71752700  1
  O  O18  1  0.21873400  0.51814000  0.21752700  1
  O  O19  1  0.78126600  0.48186000  0.78247300  1
  O  O20  1  0.62957200  0.26486700  0.25641500  1
  O  O21  1  0.37042800  0.73513300  0.74358500  1
  O  O22  1  0.12957200  0.73513300  0.24358500  1
  O  O23  1  0.87042800  0.26486700  0.75641500  1
  O  O24  1  0.45884100  0.85576000  0.40402300  1
  O  O25  1  0.54115900  0.14424000  0.59597700  1
  O  O26  1  0.95884100  0.14424000  0.09597700  1
  O  O27  1  0.04115900  0.85576000  0.90402300  1
  O  O28  1  0.82241200  0.88935900  0.05289900  1
  O  O29  1  0.17758800  0.11064100  0.94710100  1
  O  O30  1  0.32241200  0.11064100  0.44710100  1
  O  O31  1  0.67758800  0.88935900  0.55289900  1
  O  O32  1  0.96937700  0.94200200  0.39486600  1
  O  O33  1  0.03062300  0.05799800  0.60513400  1
  O  O34  1  0.46937700  0.05799800  0.10513400  1
  O  O35  1  0.53062300  0.94200200  0.89486600  1
loop_
_geom_bond_atom_site_label_1
_geom_bond_atom_site_label_2
_geom_bond_distance
_geom_bond_site_symmetry_2
Hf0 O31 2.050318 1_555
Hf0 O3 2.055675 1_655
Hf0 O24 2.066783 1_555
Hf0 O12 2.068452 1_555
Hf0 O32 2.078042 1_555
Hf0 O11 2.082011 1_555
Hf1 O30 2.050318 1_555
Hf1 O2 2.055675 1_455
Hf1 O25 2.066783 1_555
Hf1 O13 2.068452 1_555
Hf1 O33 2.078042 1_555
Hf1 O10 2.082011 1_555
Hf2 O29 2.050318 1_554
Hf2 O1 2.055675 1_554
Hf2 O26 2.066783 1_455
Hf2 O14 2.068452 1_555
Hf2 O34 2.078042 1_555
Hf2 O9 2.082011 1_554
Hf3 O28 2.050318 1_556
Hf3 O0 2.055675 1_556
Hf3 O27 2.066783 1_655
Hf3 O15 2.068452 1_555
Hf3 O35 2.078042 1_555
Hf3 O8 2.082011 1_556
As0 O2 1.704026 1_555
As0 O10 1.708031 1_555
As0 O12 1.710403 1_555
As0 O16 1.756355 1_555
As1 O3 1.704026 1_555
As1 O11 1.708031 1_555
As1 O13 1.710403 1_555
As1 O17 1.756355 1_555
As2 O0 1.704026 1_555
As2 O8 1.708031 1_455
As2 O14 1.710403 1_555
As2 O18 1.756355 1_555
As3 O1 1.704026 1_555
As3 O9 1.708031 1_655
As3 O15 1.710403 1_555
As3 O19 1.756355 1_555
As4 O28 1.705186 1_555
As4 O26 1.707745 1_565
As4 O34 1.709949 1_565
As4 O4 1.743688 1_555
As5 O29 1.705186 1_555
As5 O27 1.707745 1_545
As5 O35 1.709949 1_545
As5 O5 1.743688 1_555
As6 O30 1.705186 1_555
As6 O24 1.707745 1_545
As6 O32 1.709949 1_445
As6 O6 1.743688 1_555
As7 O31 1.705186 1_555
As7 O25 1.707745 1_565
As7 O33 1.709949 1_665
As7 O7 1.743688 1_555
O20 O6 2.083907 1_555
O21 O7 2.083907 1_555
O22 O4 2.083907 1_455
O23 O5 2.083907 1_655
