# generated using pymatgen
data_Zn3Si4(BiO7)2
_symmetry_space_group_name_H-M   'P 1'
_cell_length_a   9.49637824
_cell_length_b   9.49637824
_cell_length_c   10.55283865
_cell_angle_alpha   59.73588143
_cell_angle_beta   59.73588143
_cell_angle_gamma   53.04917691
_symmetry_Int_Tables_number   1
_chemical_formula_structural   Zn3Si4(BiO7)2
_chemical_formula_sum   'Zn6 Si8 Bi4 O28'
_cell_volume   628.39981775
_cell_formula_units_Z   2
loop_
 _symmetry_equiv_pos_site_id
 _symmetry_equiv_pos_as_xyz
  1  'x, y, z'
loop_
 _atom_site_type_symbol
 _atom_site_label
 _atom_site_symmetry_multiplicity
 _atom_site_fract_x
 _atom_site_fract_y
 _atom_site_fract_z
 _atom_site_occupancy
  Zn  Zn0  1  0.07208200  0.29500200  0.06870500  1
  Zn  Zn1  1  0.70499800  0.92791800  0.43129500  1
  Zn  Zn2  1  0.29500200  0.07208200  0.56870500  1
  Zn  Zn3  1  0.38535600  0.61464400  0.75000000  1
  Zn  Zn4  1  0.92791800  0.70499800  0.93129500  1
  Zn  Zn5  1  0.61464400  0.38535600  0.25000000  1
  Si  Si0  1  0.51105300  0.09619500  0.71344500  1
  Si  Si1  1  0.09619500  0.51105300  0.21344500  1
  Si  Si2  1  0.49643200  0.26288500  0.11187000  1
  Si  Si3  1  0.26288500  0.49643200  0.61187000  1
  Si  Si4  1  0.90380500  0.48894700  0.78655500  1
  Si  Si5  1  0.50356800  0.73711500  0.88813000  1
  Si  Si6  1  0.73711500  0.50356800  0.38813000  1
  Si  Si7  1  0.48894700  0.90380500  0.28655500  1
  Bi  Bi0  1  0.76801300  0.23198700  0.75000000  1
  Bi  Bi1  1  0.23198700  0.76801300  0.25000000  1
  Bi  Bi2  1  0.00000000  0.00000000  0.00000000  1
  Bi  Bi3  1  0.00000000  0.00000000  0.50000000  1
  O  O0  1  0.79563400  0.33382200  0.33253800  1
  O  O1  1  0.93651800  0.88190000  0.40496400  1
  O  O2  1  0.50211000  0.61136700  0.06650600  1
  O  O3  1  0.88190000  0.93651800  0.90496400  1
  O  O4  1  0.28800800  0.92726400  0.32480000  1
  O  O5  1  0.06640500  0.51967800  0.63029300  1
  O  O6  1  0.61136700  0.50211000  0.56650600  1
  O  O7  1  0.07273600  0.71199200  0.17520000  1
  O  O8  1  0.93359500  0.48032200  0.36970700  1
  O  O9  1  0.64675900  0.69972200  0.25788100  1
  O  O10  1  0.06348200  0.11810000  0.59503600  1
  O  O11  1  0.71199200  0.07273600  0.67520000  1
  O  O12  1  0.48032200  0.93359500  0.86970700  1
  O  O13  1  0.33382200  0.79563400  0.83253800  1
  O  O14  1  0.69972200  0.64675900  0.75788100  1
  O  O15  1  0.92726400  0.28800800  0.82480000  1
  O  O16  1  0.91358500  0.51007800  0.92760300  1
  O  O17  1  0.35324100  0.30027800  0.74211900  1
  O  O18  1  0.48992200  0.08641500  0.57239700  1
  O  O19  1  0.30027800  0.35324100  0.24211900  1
  O  O20  1  0.51967800  0.06640500  0.13029300  1
  O  O21  1  0.11810000  0.06348200  0.09503600  1
  O  O22  1  0.51007800  0.91358500  0.42760300  1
  O  O23  1  0.49789000  0.38863300  0.93349400  1
  O  O24  1  0.08641500  0.48992200  0.07239700  1
  O  O25  1  0.38863300  0.49789000  0.43349400  1
  O  O26  1  0.66617800  0.20436600  0.16746200  1
  O  O27  1  0.20436600  0.66617800  0.66746200  1
loop_
_geom_bond_atom_site_label_1
_geom_bond_atom_site_label_2
_geom_bond_distance
_geom_bond_site_symmetry_2
Bi0 O3 2.286079 1_545
Bi0 O10 2.286079 1_655
Bi0 O11 2.405615 1_555
Bi0 O15 2.405615 1_555
Bi0 O23 2.419012 1_555
Bi0 O6 2.419012 1_555
Bi1 O1 2.286079 1_455
Bi1 O21 2.286079 1_565
Bi1 O7 2.405615 1_555
Bi1 O4 2.405615 1_555
Bi1 O2 2.419012 1_555
Bi1 O25 2.419012 1_555
Bi2 O21 2.276635 1_555
Bi2 O3 2.276635 1_444
Bi2 O15 2.301033 1_454
Bi2 O7 2.301033 1_545
Bi2 O26 2.711539 1_455
Bi2 O13 2.711539 1_544
Bi3 O10 2.276635 1_555
Bi3 O1 2.276635 1_445
Bi3 O4 2.301033 1_545
Bi3 O11 2.301033 1_455
Bi3 O27 2.711539 1_545
Bi3 O0 2.711539 1_455
O0 Si6 1.673036 1_555
O0 Zn5 2.005075 1_555
O1 Zn1 1.858362 1_555
O2 Si5 1.642365 1_554
O2 Zn5 2.153432 1_555
O3 Zn4 1.858362 1_555
O4 Si7 1.630028 1_555
O5 Si4 1.636707 1_455
O5 Si3 1.658414 1_555
O6 Si6 1.642365 1_555
O6 Zn3 2.153432 1_555
O7 Si1 1.630028 1_555
O8 Si1 1.636707 1_655
O8 Si6 1.658414 1_555
O9 Si7 1.653982 1_555
O9 Si6 1.667860 1_555
O10 Zn2 1.858362 1_555
O11 Si0 1.630028 1_555
O12 Si0 1.636707 1_565
O12 Si5 1.658414 1_555
O13 Si5 1.673036 1_555
O13 Zn3 2.005075 1_555
O14 Si4 1.653982 1_555
O14 Si5 1.667860 1_555
O15 Si4 1.630028 1_555
O16 Si4 1.651427 1_555
O16 Zn4 1.956353 1_555
O16 Zn0 2.037611 1_656
O17 Si0 1.653982 1_555
O17 Si3 1.667860 1_555
O18 Si0 1.651427 1_555
O18 Zn2 1.956353 1_555
O18 Zn1 2.037611 1_545
O19 Si1 1.653982 1_555
O19 Si2 1.667860 1_555
O20 Si7 1.636707 1_545
O20 Si2 1.658414 1_555
O21 Zn0 1.858362 1_555
O22 Si7 1.651427 1_555
O22 Zn1 1.956353 1_555
O22 Zn2 2.037611 1_565
O23 Si2 1.642365 1_556
O23 Zn3 2.153432 1_555
O24 Si1 1.651427 1_555
O24 Zn0 1.956353 1_555
O24 Zn4 2.037611 1_454
O25 Si3 1.642365 1_555
O25 Zn5 2.153432 1_555
O26 Si2 1.673036 1_555
O26 Zn5 2.005075 1_555
O27 Si3 1.673036 1_555
O27 Zn3 2.005075 1_555
