# generated using pymatgen
data_Na2ZnSiO4
_symmetry_space_group_name_H-M   'P 1'
_cell_length_a   5.21160092
_cell_length_b   7.04738132
_cell_length_c   10.80950953
_cell_angle_alpha   90.00000000
_cell_angle_beta   90.00000000
_cell_angle_gamma   90.00000000
_symmetry_Int_Tables_number   1
_chemical_formula_structural   Na2ZnSiO4
_chemical_formula_sum   'Na8 Zn4 Si4 O16'
_cell_volume   397.01316823
_cell_formula_units_Z   4
loop_
 _symmetry_equiv_pos_site_id
 _symmetry_equiv_pos_as_xyz
  1  'x, y, z'
loop_
 _atom_site_type_symbol
 _atom_site_label
 _atom_site_symmetry_multiplicity
 _atom_site_fract_x
 _atom_site_fract_y
 _atom_site_fract_z
 _atom_site_occupancy
  Na  Na0  1  0.25160565  0.49819710  0.09095101  1
  Na  Na1  1  0.71148488  0.74536957  0.15776297  1
  Na  Na2  1  0.21148488  0.24536957  0.34223703  1
  Na  Na3  1  0.78851512  0.74536957  0.65776297  1
  Na  Na4  1  0.74839435  0.99819710  0.90904899  1
  Na  Na5  1  0.24839435  0.49819710  0.59095101  1
  Na  Na6  1  0.75160565  0.99819710  0.40904899  1
  Na  Na7  1  0.28851512  0.24536957  0.84223703  1
  Zn  Zn0  1  0.70341212  0.24779081  0.15673157  1
  Zn  Zn1  1  0.29658788  0.74779081  0.84326843  1
  Zn  Zn2  1  0.79658788  0.24779081  0.65673157  1
  Zn  Zn3  1  0.20341212  0.74779081  0.34326843  1
  Si  Si0  1  0.19784437  0.99607191  0.09384872  1
  Si  Si1  1  0.30215563  0.99607191  0.59384872  1
  Si  Si2  1  0.80215563  0.49607191  0.90615128  1
  Si  Si3  1  0.69784437  0.49607191  0.40615128  1
  O  O0  1  0.26612177  0.97180183  0.94679228  1
  O  O1  1  0.73387823  0.47180183  0.05320772  1
  O  O2  1  0.23387823  0.97180183  0.44679228  1
  O  O3  1  0.76612177  0.47180183  0.55320772  1
  O  O4  1  0.71866438  0.30365039  0.83107409  1
  O  O5  1  0.28133562  0.80365039  0.16892591  1
  O  O6  1  0.78133562  0.30365039  0.33107509  1
  O  O7  1  0.21866438  0.80365039  0.66892591  1
  O  O8  1  0.88712308  0.02232558  0.10816408  1
  O  O9  1  0.11287692  0.52232558  0.89183592  1
  O  O10  1  0.61287692  0.02232558  0.60816408  1
  O  O11  1  0.16482722  0.18779480  0.64621930  1
  O  O12  1  0.66482722  0.68779480  0.85378070  1
  O  O13  1  0.33517278  0.18779480  0.14621930  1
  O  O14  1  0.83517278  0.68779480  0.35378070  1
  O  O15  1  0.38712308  0.52232558  0.39183592  1
loop_
_geom_bond_atom_site_label_1
_geom_bond_atom_site_label_2
_geom_bond_distance
_geom_bond_site_symmetry_2
Na0 O9 2.276883 1_554
Na0 O13 2.309080 1_555
Na0 O5 2.316964 1_555
Na0 O1 2.553095 1_555
Na0 O1 2.735192 1_455
Na1 O8 2.221464 1_565
Na1 O1 2.237831 1_555
Na1 O14 2.251601 1_555
Na1 O5 2.282274 1_555
Na2 O15 2.221464 1_555
Na2 O2 2.237831 1_545
Na2 O13 2.251601 1_555
Na2 O6 2.282273 1_455
Na3 O10 2.221464 1_565
Na3 O3 2.237831 1_555
Na3 O12 2.251601 1_555
Na3 O7 2.282274 1_655
Na4 O8 2.276883 1_566
Na4 O12 2.309080 1_555
Na4 O4 2.316964 1_565
Na4 O0 2.553095 1_555
Na4 O0 2.735192 1_655
Na5 O15 2.276883 1_555
Na5 O11 2.309080 1_555
Na5 O7 2.316964 1_555
Na5 O3 2.553095 1_455
Na5 O3 2.735192 1_555
Na6 O10 2.276883 1_565
Na6 O14 2.309080 1_555
Na6 O6 2.316960 1_565
Na6 O2 2.553095 1_655
Na6 O2 2.735192 1_555
Na7 O9 2.221464 1_555
Na7 O0 2.237831 1_545
Na7 O11 2.251601 1_555
Na7 O4 2.282274 1_555
O0 Si0 1.637903 1_556
O0 Zn1 1.941579 1_555
O1 Si2 1.637903 1_554
O1 Zn0 1.941579 1_555
O2 Si1 1.637903 1_555
O2 Zn3 1.941579 1_555
O3 Si3 1.637903 1_555
O3 Zn2 1.941579 1_555
O4 Si2 1.639165 1_555
O4 Zn2 1.967600 1_555
O5 Si0 1.639165 1_555
O5 Zn3 1.967600 1_555
O6 Si3 1.639160 1_555
O6 Zn0 1.967610 1_555
O7 Si1 1.639165 1_555
O7 Zn1 1.967600 1_555
O8 Si0 1.637220 1_645
O8 Zn0 1.927956 1_555
O9 Si2 1.637220 1_455
O9 Zn1 1.927956 1_555
O10 Si1 1.637220 1_545
O10 Zn2 1.927956 1_555
O11 Si1 1.630426 1_545
O11 Zn2 1.968424 1_455
O12 Si2 1.630426 1_555
O12 Zn1 1.968424 1_555
O13 Si0 1.630426 1_545
O13 Zn0 1.968424 1_555
O14 Si3 1.630426 1_555
O14 Zn3 1.968424 1_655
O15 Si3 1.637220 1_555
O15 Zn3 1.927956 1_555
