# generated using pymatgen
data_LaZnAg2
_symmetry_space_group_name_H-M   'P 1'
_cell_length_a   13.23566237
_cell_length_b   13.23566237
_cell_length_c   13.23566237
_cell_angle_alpha   127.26541006
_cell_angle_beta   116.55100011
_cell_angle_gamma   86.99045660
_symmetry_Int_Tables_number   1
_chemical_formula_structural   LaZnAg2
_chemical_formula_sum   'La1 Zn1 Ag2'
_cell_volume   1571.25785591
_cell_formula_units_Z   1
loop_
 _symmetry_equiv_pos_site_id
 _symmetry_equiv_pos_as_xyz
  1  'x, y, z'
loop_
 _atom_site_type_symbol
 _atom_site_label
 _atom_site_symmetry_multiplicity
 _atom_site_fract_x
 _atom_site_fract_y
 _atom_site_fract_z
 _atom_site_occupancy
  La  La0  1  0.00000000  0.50000000  0.50000000  1
  Zn  Zn0  1  0.00000000  0.00000000  0.00000000  1
  Ag  Ag0  1  0.00000000  0.23446400  0.23446400  1
  Ag  Ag1  1  0.00000000  0.76553600  0.76553600  1
loop_
_geom_bond_atom_site_label_1
_geom_bond_atom_site_label_2
_geom_bond_distance
_geom_bond_site_symmetry_2
Ag0 Zn0 2.756487 1_555
Ag0 La0 3.121786 1_555
Ag1 Zn0 2.756487 1_566
Ag1 La0 3.121786 1_555
