# generated using pymatgen
data_Te2Mo3W(SeS2)2
_symmetry_space_group_name_H-M   'P 1'
_cell_length_a   3.30550226
_cell_length_b   3.30550226
_cell_length_c   38.65057800
_cell_angle_alpha   90.00000000
_cell_angle_beta   90.00000000
_cell_angle_gamma   120.00000513
_symmetry_Int_Tables_number   1
_chemical_formula_structural   Te2Mo3W(SeS2)2
_chemical_formula_sum   'Te2 Mo3 W1 Se2 S4'
_cell_volume   365.73078492
_cell_formula_units_Z   1
loop_
 _symmetry_equiv_pos_site_id
 _symmetry_equiv_pos_as_xyz
  1  'x, y, z'
loop_
 _atom_site_type_symbol
 _atom_site_label
 _atom_site_symmetry_multiplicity
 _atom_site_fract_x
 _atom_site_fract_y
 _atom_site_fract_z
 _atom_site_occupancy
  Te  Te0  1  0.33333300  0.66666700  0.33028100  1
  Te  Te1  1  0.33333300  0.66666700  0.23123700  1
  Mo  Mo0  1  0.33333300  0.66666700  0.09297000  1
  Mo  Mo1  1  0.33333300  0.66666700  0.47129100  1
  Mo  Mo2  1  0.66666700  0.33333300  0.28075000  1
  W  W0  1  0.66666700  0.33333300  0.65790500  1
  Se  Se0  1  0.66666700  0.33333300  0.42784600  1
  Se  Se1  1  0.66666700  0.33333300  0.51469400  1
  S  S0  1  0.33333300  0.66666700  0.69759100  1
  S  S1  1  0.66666700  0.33333300  0.05341400  1
  S  S2  1  0.66666700  0.33333300  0.13256500  1
  S  S3  1  0.33333300  0.66666700  0.61820300  1
loop_
_geom_bond_atom_site_label_1
_geom_bond_atom_site_label_2
_geom_bond_distance
_geom_bond_site_symmetry_2
Mo0 S1 2.445307 1_565
Mo0 S1 2.445307 1_455
Mo0 S1 2.445312 1_555
Mo0 S2 2.446250 1_455
Mo0 S2 2.446250 1_565
Mo0 S2 2.446254 1_555
Mo1 Se1 2.540922 1_455
Mo1 Se1 2.540922 1_565
Mo1 Se1 2.540926 1_555
Mo1 Se0 2.541994 1_455
Mo1 Se0 2.541994 1_565
Mo1 Se0 2.541998 1_555
Mo2 Te1 2.702661 1_545
Mo2 Te1 2.702661 1_655
Mo2 Te1 2.702665 1_555
Mo2 Te0 2.703154 1_545
Mo2 Te0 2.703154 1_655
Mo2 Te0 2.703158 1_555
S0 W0 2.448452 1_565
S0 W0 2.448452 1_455
S0 W0 2.448456 1_555
S3 W0 2.448839 1_455
S3 W0 2.448839 1_565
S3 W0 2.448844 1_555
