# generated using pymatgen
data_NaCa3ScZn3(SiO3)8
_symmetry_space_group_name_H-M   'P 1'
_cell_length_a   9.09709400
_cell_length_b   5.33214300
_cell_length_c   9.89849195
_cell_angle_alpha   75.01418524
_cell_angle_beta   90.00000000
_cell_angle_gamma   90.00000000
_symmetry_Int_Tables_number   1
_chemical_formula_structural   NaCa3ScZn3(SiO3)8
_chemical_formula_sum   'Na1 Ca3 Sc1 Zn3 Si8 O24'
_cell_volume   463.81637666
_cell_formula_units_Z   1
loop_
 _symmetry_equiv_pos_site_id
 _symmetry_equiv_pos_as_xyz
  1  'x, y, z'
loop_
 _atom_site_type_symbol
 _atom_site_label
 _atom_site_symmetry_multiplicity
 _atom_site_fract_x
 _atom_site_fract_y
 _atom_site_fract_z
 _atom_site_occupancy
  Na  Na0  1  0.80354000  0.50000000  0.50000000  1
  Ca  Ca0  1  0.29569700  0.00000000  0.00000000  1
  Ca  Ca1  1  0.19696200  0.00000000  0.50000000  1
  Ca  Ca2  1  0.70403200  0.50000000  0.00000000  1
  Sc  Sc0  1  0.60332100  0.00000000  0.50000000  1
  Zn  Zn0  1  0.40050000  0.50000000  0.50000000  1
  Zn  Zn1  1  0.90483200  0.00000000  0.00000000  1
  Zn  Zn2  1  0.09445900  0.50000000  0.00000000  1
  Si  Si0  1  0.09012200  0.69424500  0.28761900  1
  Si  Si1  1  0.59217700  0.19570000  0.78708500  1
  Si  Si2  1  0.09012200  0.30575500  0.71238100  1
  Si  Si3  1  0.59217700  0.80430000  0.21291500  1
  Si  Si4  1  0.90967900  0.80364300  0.71312700  1
  Si  Si5  1  0.40799900  0.30531400  0.21215300  1
  Si  Si6  1  0.90967900  0.19635700  0.28687300  1
  Si  Si7  1  0.40799900  0.69468600  0.78784700  1
  O  O0  1  0.08876000  0.77815900  0.11699300  1
  O  O1  1  0.58425800  0.27476900  0.61741600  1
  O  O2  1  0.08876000  0.22184100  0.88300700  1
  O  O3  1  0.58425800  0.72523100  0.38258400  1
  O  O4  1  0.91000700  0.72077500  0.88323300  1
  O  O5  1  0.41393400  0.21854900  0.38294000  1
  O  O6  1  0.91000700  0.27922500  0.11676700  1
  O  O7  1  0.41393400  0.78145100  0.61706000  1
  O  O8  1  0.24677800  0.71034500  0.36133400  1
  O  O9  1  0.74690700  0.21125100  0.86179600  1
  O  O10  1  0.24677800  0.28965500  0.63866600  1
  O  O11  1  0.74690700  0.78874900  0.13820400  1
  O  O12  1  0.75139200  0.79752800  0.63999500  1
  O  O13  1  0.25242200  0.28893700  0.13880800  1
  O  O14  1  0.75139200  0.20247200  0.36000500  1
  O  O15  1  0.25242200  0.71106300  0.86119200  1
  O  O16  1  0.01805700  0.39764800  0.34883900  1
  O  O17  1  0.51651000  0.89944500  0.85000800  1
  O  O18  1  0.01805700  0.60235200  0.65116100  1
  O  O19  1  0.51651000  0.10055500  0.14999200  1
  O  O20  1  0.98592900  0.09611800  0.65098000  1
  O  O21  1  0.48339700  0.59951600  0.15057900  1
  O  O22  1  0.98592900  0.90388200  0.34902000  1
  O  O23  1  0.48339700  0.40048400  0.84942100  1
loop_
_geom_bond_atom_site_label_1
_geom_bond_atom_site_label_2
_geom_bond_distance
_geom_bond_site_symmetry_2
Na0 O12 2.408137 1_555
Na0 O14 2.408137 1_555
Na0 O1 2.459798 1_555
Na0 O3 2.459798 1_555
Na0 O16 2.601394 1_655
Na0 O18 2.601394 1_655
Na0 O22 2.821310 1_555
Na0 O20 2.821310 1_555
Ca0 O13 2.347592 1_555
Ca0 O15 2.347592 1_544
Ca0 O2 2.361310 1_554
Ca0 O0 2.361310 1_545
Ca0 O19 2.634120 1_555
Ca0 O17 2.634120 1_544
Ca0 O23 2.837478 1_554
Ca0 O21 2.837478 1_545
Ca1 O8 2.360324 1_545
Ca1 O10 2.360324 1_555
Ca1 O5 2.428633 1_555
Ca1 O7 2.428633 1_545
Ca1 O22 2.564726 1_445
Ca1 O20 2.564726 1_455
Ca1 O16 2.782560 1_555
Ca1 O18 2.782560 1_545
Ca2 O11 2.341662 1_555
Ca2 O9 2.341662 1_554
Ca2 O6 2.351401 1_555
Ca2 O4 2.351401 1_554
Ca2 O21 2.634541 1_555
Ca2 O23 2.634541 1_554
Ca2 O17 2.831167 1_554
Ca2 O19 2.831167 1_555
O0 Si0 1.631581 1_555
O0 Zn2 2.105205 1_555
O0 Zn1 2.198071 1_465
O1 Si1 1.623996 1_555
O1 Sc0 2.099534 1_555
O1 Zn0 2.205838 1_555
O2 Si2 1.631581 1_555
O2 Zn2 2.105205 1_556
O2 Zn1 2.198071 1_456
O3 Si3 1.623996 1_555
O3 Sc0 2.099534 1_565
O3 Zn0 2.205838 1_555
O4 Si4 1.626542 1_555
O4 Zn1 2.108273 1_566
O4 Zn2 2.198560 1_656
O5 Si5 1.634130 1_555
O5 Zn0 2.123459 1_555
O5 Sc0 2.229484 1_555
O6 Si6 1.626542 1_555
O6 Zn1 2.108273 1_555
O6 Zn2 2.198560 1_655
O7 Si7 1.634130 1_555
O7 Zn0 2.123459 1_555
O7 Sc0 2.229484 1_565
O8 Si0 1.613422 1_555
O8 Zn0 2.073978 1_555
O9 Si1 1.602126 1_555
O9 Zn1 2.099368 1_556
O10 Si2 1.613422 1_555
O10 Zn0 2.073978 1_555
O11 Si3 1.602126 1_555
O11 Zn1 2.099368 1_565
O12 Si4 1.615784 1_555
O12 Sc0 2.031399 1_565
O13 Si5 1.603298 1_555
O13 Zn2 2.102309 1_555
O14 Si6 1.615784 1_555
O14 Sc0 2.031399 1_555
O15 Si7 1.603298 1_555
O15 Zn2 2.102309 1_556
O16 Si0 1.674071 1_555
O16 Si6 1.685448 1_455
O17 Si1 1.687691 1_565
O17 Si7 1.700731 1_555
O18 Si2 1.674071 1_555
O18 Si4 1.685448 1_455
O19 Si3 1.687691 1_545
O19 Si5 1.700731 1_555
O20 Si4 1.671986 1_545
O20 Si2 1.693717 1_655
O21 Si5 1.675821 1_555
O21 Si3 1.703165 1_555
O22 Si6 1.671986 1_565
O22 Si0 1.693717 1_655
O23 Si7 1.675821 1_555
O23 Si1 1.703165 1_555
