# generated using pymatgen
data_Sb2C4O
_symmetry_space_group_name_H-M   'P 1'
_cell_length_a   4.18352800
_cell_length_b   9.24473700
_cell_length_c   15.09691300
_cell_angle_alpha   90.00000000
_cell_angle_beta   90.00000000
_cell_angle_gamma   90.00000000
_symmetry_Int_Tables_number   1
_chemical_formula_structural   Sb2C4O
_chemical_formula_sum   'Sb8 C16 O4'
_cell_volume   583.88241136
_cell_formula_units_Z   4
loop_
 _symmetry_equiv_pos_site_id
 _symmetry_equiv_pos_as_xyz
  1  'x, y, z'
loop_
 _atom_site_type_symbol
 _atom_site_label
 _atom_site_symmetry_multiplicity
 _atom_site_fract_x
 _atom_site_fract_y
 _atom_site_fract_z
 _atom_site_occupancy
  Sb  Sb0  1  0.61276200  0.31996400  0.57390500  1
  Sb  Sb1  1  0.88723800  0.68003600  0.07390500  1
  Sb  Sb2  1  0.11276200  0.18003600  0.42609500  1
  Sb  Sb3  1  0.38723800  0.81996400  0.92609500  1
  Sb  Sb4  1  0.30986300  0.24840500  0.84372300  1
  Sb  Sb5  1  0.19013700  0.75159500  0.34372300  1
  Sb  Sb6  1  0.80986300  0.25159500  0.15627700  1
  Sb  Sb7  1  0.69013700  0.74840500  0.65627700  1
  C  C0  1  0.35551900  0.74651700  0.54164100  1
  C  C1  1  0.14448100  0.25348300  0.04164100  1
  C  C2  1  0.85551900  0.75348300  0.45835900  1
  C  C3  1  0.64448100  0.24651700  0.95835900  1
  C  C4  1  0.02542100  0.74783400  0.54144700  1
  C  C5  1  0.47457900  0.25216600  0.04144700  1
  C  C6  1  0.52542100  0.75216600  0.45855300  1
  C  C7  1  0.97457900  0.24783400  0.95855300  1
  C  C8  1  0.62893400  0.11136200  0.62765700  1
  C  C9  1  0.87106600  0.88863800  0.12765700  1
  C  C10  1  0.12893400  0.38863800  0.37234300  1
  C  C11  1  0.37106600  0.61136200  0.87234300  1
  C  C12  1  0.66522400  0.97948300  0.63677900  1
  C  C13  1  0.83477600  0.02051700  0.13677900  1
  C  C14  1  0.16522400  0.52051700  0.36322100  1
  C  C15  1  0.33477600  0.47948300  0.86322100  1
  O  O0  1  0.60501500  0.44412200  0.67240800  1
  O  O1  1  0.89498500  0.55587800  0.17240800  1
  O  O2  1  0.10501500  0.05587800  0.32759200  1
  O  O3  1  0.39498500  0.94412200  0.82759200  1
loop_
_geom_bond_atom_site_label_1
_geom_bond_atom_site_label_2
_geom_bond_distance
_geom_bond_site_symmetry_2
C0 C4 1.381031 1_555
C0 C6 1.442706 1_555
C0 Sb7 2.226012 1_555
C1 C5 1.381031 1_555
C1 C7 1.442706 1_454
C1 Sb6 2.226012 1_455
C2 C6 1.381031 1_555
C2 C4 1.442706 1_655
C2 Sb5 2.226012 1_655
C3 C7 1.381031 1_555
C3 C5 1.442706 1_556
C3 Sb4 2.226012 1_555
C4 Sb7 2.229979 1_455
C5 Sb6 2.229979 1_555
C6 Sb5 2.229979 1_555
C7 Sb4 2.229979 1_655
C8 Sb0 2.093344 1_555
C9 Sb1 2.093344 1_555
C10 C14 1.236297 1_555
C10 Sb2 2.093344 1_555
C11 C15 1.236297 1_555
C11 Sb3 2.093344 1_555
C12 C8 1.236297 1_565
C12 Sb7 2.158957 1_555
C13 C9 1.236297 1_545
C13 Sb6 2.158957 1_555
C14 Sb5 2.158957 1_555
C15 Sb4 2.158957 1_555
O0 Sb0 1.878817 1_555
O1 Sb1 1.878817 1_555
O2 Sb2 1.878817 1_555
O3 Sb3 1.878817 1_555
