# generated using pymatgen
data_Li4Zn(PS4)2
_symmetry_space_group_name_H-M   'P 1'
_cell_length_a   6.14516300
_cell_length_b   10.35847368
_cell_length_c   10.38677433
_cell_angle_alpha   101.24255881
_cell_angle_beta   103.13053454
_cell_angle_gamma   93.06469820
_symmetry_Int_Tables_number   1
_chemical_formula_structural   Li4Zn(PS4)2
_chemical_formula_sum   'Li8 Zn2 P4 S16'
_cell_volume   628.20731418
_cell_formula_units_Z   2
loop_
 _symmetry_equiv_pos_site_id
 _symmetry_equiv_pos_as_xyz
  1  'x, y, z'
loop_
 _atom_site_type_symbol
 _atom_site_label
 _atom_site_symmetry_multiplicity
 _atom_site_fract_x
 _atom_site_fract_y
 _atom_site_fract_z
 _atom_site_occupancy
  Li  Li0  1  0.64338600  0.87733800  0.24957100  1
  Li  Li1  1  0.48177100  0.16856000  0.06965700  1
  Li  Li2  1  0.88144500  0.92542700  0.70240500  1
  Li  Li3  1  0.05515400  0.91854800  0.08360100  1
  Li  Li4  1  0.26235100  0.75715100  0.48339300  1
  Li  Li5  1  0.37948500  0.13910200  0.73163400  1
  Li  Li6  1  0.87689200  0.61642100  0.72899600  1
  Li  Li7  1  0.12361600  0.38824700  0.23255000  1
  Zn  Zn0  1  0.51773600  0.51575900  0.98705300  1
  Zn  Zn1  1  0.77163300  0.25808900  0.48496300  1
  P  P0  1  0.68346000  0.56248400  0.36081100  1
  P  P1  1  0.44432000  0.82554600  0.86063000  1
  P  P2  1  0.96838100  0.32261600  0.86458500  1
  P  P3  1  0.20875100  0.07797000  0.36552400  1
  S  S0  1  0.15864100  0.46445300  0.02385000  1
  S  S1  1  0.41979000  0.20638200  0.52746200  1
  S  S2  1  0.64109400  0.94656400  0.03423600  1
  S  S3  1  0.90527900  0.68256600  0.52290400  1
  S  S4  1  0.47376500  0.90678300  0.69791200  1
  S  S5  1  0.71832200  0.64400000  0.19680400  1
  S  S6  1  0.97762300  0.39329900  0.69325100  1
  S  S7  1  0.16452600  0.15052600  0.19254700  1
  S  S8  1  0.64903100  0.30702800  0.90569400  1
  S  S9  1  0.91049800  0.05199800  0.42723800  1
  S  S10  1  0.11454500  0.81185800  0.87206700  1
  S  S11  1  0.38135100  0.54679200  0.40342100  1
  S  S12  1  0.77665700  0.36991700  0.30903100  1
  S  S13  1  0.08569300  0.14103600  0.85714300  1
  S  S14  1  0.28612400  0.88768900  0.31238000  1
  S  S15  1  0.53868100  0.63585500  0.81868700  1
loop_
_geom_bond_atom_site_label_1
_geom_bond_atom_site_label_2
_geom_bond_distance
_geom_bond_site_symmetry_2
Li0 S14 2.430156 1_555
Li0 S5 2.464061 1_555
Li0 S2 2.475698 1_555
Li0 S9 2.525354 1_565
Li1 S2 2.540928 1_545
Li1 S7 2.578650 1_555
Li1 S8 2.757577 1_554
Li1 S13 2.849074 1_554
Li1 S12 3.056577 1_555
Li2 S4 2.491472 1_555
Li2 S10 2.526448 1_655
Li2 S13 2.555505 1_665
Li2 S3 2.856705 1_555
Li3 S10 2.375435 1_554
Li3 S7 2.434716 1_565
Li3 S2 2.523024 1_455
Li3 S14 2.564317 1_555
Li4 S11 2.390268 1_555
Li4 S3 2.435490 1_455
Li4 S14 2.457270 1_555
Li4 S4 2.485511 1_555
Li5 S1 2.416782 1_555
Li5 S13 2.454046 1_555
Li5 S8 2.478518 1_555
Li5 S4 2.482350 1_545
Li6 S6 2.405302 1_555
Li6 S3 2.410592 1_555
Li6 S10 2.442181 1_655
Li6 S15 2.465623 1_555
Li7 S11 2.379856 1_555
Li7 S12 2.449102 1_455
Li7 S7 2.452364 1_555
Li7 S0 2.495894 1_555
P0 S11 2.009482 1_555
P0 S3 2.049217 1_555
P0 S5 2.090010 1_555
P0 S12 2.107100 1_555
P1 S10 2.055778 1_555
P1 S2 2.061796 1_556
P1 S4 2.067501 1_555
P1 S15 2.071165 1_555
P2 S13 2.043781 1_655
P2 S0 2.062037 1_656
P2 S6 2.062968 1_555
P2 S8 2.105552 1_555
P3 S7 2.047748 1_555
P3 S14 2.052050 1_545
P3 S1 2.057285 1_555
P3 S9 2.095418 1_455
S0 Zn0 2.373822 1_554
S1 Zn1 2.357657 1_555
S5 Zn0 2.346651 1_554
S6 Zn1 2.372575 1_555
S8 Zn0 2.413252 1_555
S9 Zn1 2.360757 1_555
S12 Zn1 2.351430 1_555
S15 Zn0 2.357072 1_555
