# generated using pymatgen
data_La3SbO7
_symmetry_space_group_name_H-M   'P 1'
_cell_length_a   7.60883856
_cell_length_b   7.75253044
_cell_length_c   11.16754597
_cell_angle_alpha   90.00000000
_cell_angle_beta   90.00000000
_cell_angle_gamma   90.00000000
_symmetry_Int_Tables_number   1
_chemical_formula_structural   La3SbO7
_chemical_formula_sum   'La12 Sb4 O28'
_cell_volume   658.74843826
_cell_formula_units_Z   4
loop_
 _symmetry_equiv_pos_site_id
 _symmetry_equiv_pos_as_xyz
  1  'x, y, z'
loop_
 _atom_site_type_symbol
 _atom_site_label
 _atom_site_symmetry_multiplicity
 _atom_site_fract_x
 _atom_site_fract_y
 _atom_site_fract_z
 _atom_site_occupancy
  La  La0  1  0.75146407  0.49974528  0.25000000  1
  La  La1  1  0.24853593  0.50025472  0.75000000  1
  La  La2  1  0.25146407  0.00025472  0.75000000  1
  La  La3  1  0.74853593  0.99974528  0.25000000  1
  La  La4  1  0.45319448  0.25025140  0.02245065  1
  La  La5  1  0.54680552  0.74974860  0.97754935  1
  La  La6  1  0.95319448  0.24974860  0.97754935  1
  La  La7  1  0.54680552  0.74974860  0.52245065  1
  La  La8  1  0.04680552  0.75025140  0.02245065  1
  La  La9  1  0.45319448  0.25025140  0.47754935  1
  La  La10  1  0.04680552  0.75025140  0.47754935  1
  La  La11  1  0.95319448  0.24974860  0.52245065  1
  Sb  Sb0  1  0.25021829  0.00036393  0.25000000  1
  Sb  Sb1  1  0.74978171  0.99963607  0.75000000  1
  Sb  Sb2  1  0.75021829  0.49963607  0.75000000  1
  Sb  Sb3  1  0.24978171  0.50036393  0.25000000  1
  O  O0  1  0.32642496  0.25044489  0.25000000  1
  O  O1  1  0.67357504  0.74955511  0.75000000  1
  O  O2  1  0.82642496  0.24955511  0.75000000  1
  O  O3  1  0.17357504  0.75044489  0.25000000  1
  O  O4  1  0.06745501  0.03517899  0.12518884  1
  O  O5  1  0.93254499  0.96482101  0.87481116  1
  O  O6  1  0.56745501  0.46482101  0.87481116  1
  O  O7  1  0.93254499  0.96482101  0.62518884  1
  O  O8  1  0.43254499  0.53517899  0.12518884  1
  O  O9  1  0.06745501  0.03517899  0.37481116  1
  O  O10  1  0.43254499  0.53517899  0.37481116  1
  O  O11  1  0.56745501  0.46482101  0.62518884  1
  O  O12  1  0.22632822  0.25006273  0.61957948  1
  O  O13  1  0.77367178  0.74993727  0.38042052  1
  O  O14  1  0.72632822  0.24993727  0.38042052  1
  O  O15  1  0.77367178  0.74993727  0.11957948  1
  O  O16  1  0.27367178  0.75006273  0.61957948  1
  O  O17  1  0.22632822  0.25006273  0.88042052  1
  O  O18  1  0.27367178  0.75006273  0.88042052  1
  O  O19  1  0.72632822  0.24993727  0.11957948  1
  O  O20  1  0.06582093  0.46551686  0.12572738  1
  O  O21  1  0.93417907  0.53448314  0.87427262  1
  O  O22  1  0.56582093  0.03448314  0.87427262  1
  O  O23  1  0.93417907  0.53448314  0.62572738  1
  O  O24  1  0.43417907  0.96551686  0.12572738  1
  O  O25  1  0.06582093  0.46551686  0.37427262  1
  O  O26  1  0.43417907  0.96551686  0.37427262  1
  O  O27  1  0.56582093  0.03448314  0.62572738  1
loop_
_geom_bond_atom_site_label_1
_geom_bond_atom_site_label_2
_geom_bond_distance
_geom_bond_site_symmetry_2
La0 O19 2.430740 1_555
La0 O14 2.430740 1_555
La0 O15 2.431462 1_555
La0 O13 2.431462 1_555
La0 O20 2.778057 1_655
La0 O25 2.778057 1_655
La0 O8 2.811875 1_555
La0 O10 2.811875 1_555
La1 O18 2.430740 1_555
La1 O16 2.430740 1_555
La1 O12 2.431462 1_555
La1 O17 2.431462 1_555
La1 O23 2.778057 1_455
La1 O21 2.778057 1_455
La1 O6 2.811875 1_555
La1 O11 2.811875 1_555
La2 O12 2.430740 1_555
La2 O17 2.430740 1_555
La2 O18 2.431462 1_545
La2 O16 2.431462 1_545
La2 O27 2.778057 1_555
La2 O22 2.778057 1_555
La2 O7 2.811875 1_445
La2 O5 2.811875 1_445
La3 O15 2.430740 1_555
La3 O13 2.430740 1_555
La3 O14 2.431462 1_565
La3 O19 2.431462 1_565
La3 O26 2.778057 1_555
La3 O24 2.778057 1_555
La3 O4 2.811875 1_665
La3 O9 2.811875 1_665
La4 O17 2.344255 1_554
La4 O19 2.344270 1_555
La4 O8 2.494062 1_555
La4 O24 2.494758 1_545
La4 O6 2.498274 1_554
La4 O22 2.504153 1_554
La4 O0 2.718075 1_555
La5 O15 2.344255 1_556
La5 O18 2.344270 1_555
La5 O6 2.494062 1_555
La5 O22 2.494758 1_565
La5 O8 2.498274 1_556
La5 O24 2.504153 1_556
La5 O1 2.718075 1_555
La6 O19 2.344255 1_556
La6 O17 2.344270 1_655
La6 O5 2.494062 1_545
La6 O21 2.494758 1_555
La6 O4 2.498274 1_656
La6 O20 2.504153 1_656
La6 O2 2.718075 1_555
La7 O13 2.344255 1_555
La7 O16 2.344270 1_555
La7 O11 2.494062 1_555
La7 O27 2.494758 1_565
La7 O10 2.498274 1_555
La7 O26 2.504153 1_555
La7 O1 2.718075 1_555
La8 O18 2.344255 1_554
La8 O15 2.344270 1_455
La8 O4 2.494062 1_565
La8 O20 2.494758 1_555
La8 O5 2.498274 1_454
La8 O21 2.504153 1_454
La8 O3 2.718075 1_555
La9 O12 2.344255 1_555
La9 O14 2.344270 1_555
La9 O10 2.494062 1_555
La9 O26 2.494758 1_545
La9 O11 2.498274 1_555
La9 O27 2.504153 1_555
La9 O0 2.718075 1_555
La10 O16 2.344255 1_555
La10 O13 2.344270 1_455
La10 O9 2.494062 1_565
La10 O25 2.494758 1_555
La10 O7 2.498274 1_455
La10 O23 2.504153 1_455
La10 O3 2.718075 1_555
La11 O14 2.344255 1_555
La11 O12 2.344270 1_655
La11 O7 2.494062 1_545
La11 O23 2.494758 1_555
La11 O9 2.498274 1_655
La11 O25 2.504153 1_655
La11 O2 2.718075 1_555
O0 Sb3 2.023366 1_555
O0 Sb0 2.023613 1_555
O1 Sb2 2.023366 1_555
O1 Sb1 2.023613 1_555
O2 Sb1 2.023366 1_545
O2 Sb2 2.023613 1_555
O3 Sb0 2.023366 1_565
O3 Sb3 2.023613 1_555
O4 Sb0 1.987319 1_555
O5 Sb1 1.987319 1_555
O6 Sb2 1.987319 1_555
O7 Sb1 1.987319 1_555
O8 Sb3 1.987319 1_555
O9 Sb0 1.987319 1_555
O10 Sb3 1.987319 1_555
O11 Sb2 1.987319 1_555
O20 Sb3 1.989539 1_555
O21 Sb2 1.989539 1_555
O22 Sb1 1.989539 1_545
O23 Sb2 1.989539 1_555
O24 Sb0 1.989539 1_565
O25 Sb3 1.989539 1_555
O26 Sb0 1.989539 1_565
O27 Sb1 1.989539 1_545
