# generated using pymatgen
data_Er2Co12Ni5
_symmetry_space_group_name_H-M   'P 1'
_cell_length_a   8.04852800
_cell_length_b   8.28656005
_cell_length_c   8.28656005
_cell_angle_alpha   120.00670681
_cell_angle_beta   90.00000000
_cell_angle_gamma   90.00000000
_symmetry_Int_Tables_number   1
_chemical_formula_structural   Er2Co12Ni5
_chemical_formula_sum   'Er4 Co24 Ni10'
_cell_volume   478.59295378
_cell_formula_units_Z   2
loop_
 _symmetry_equiv_pos_site_id
 _symmetry_equiv_pos_as_xyz
  1  'x, y, z'
loop_
 _atom_site_type_symbol
 _atom_site_label
 _atom_site_symmetry_multiplicity
 _atom_site_fract_x
 _atom_site_fract_y
 _atom_site_fract_z
 _atom_site_occupancy
  Er  Er0  1  0.75000000  0.00001100  0.99998900  1
  Er  Er1  1  0.25000000  0.99998900  0.00001100  1
  Er  Er2  1  0.25000000  0.66652600  0.33347400  1
  Er  Er3  1  0.75000000  0.33347400  0.66652600  1
  Co  Co0  1  0.75000000  0.67338900  0.04862800  1
  Co  Co1  1  0.75000000  0.37524600  0.32666800  1
  Co  Co2  1  0.75000000  0.95129900  0.62474000  1
  Co  Co3  1  0.75000000  0.37526000  0.04870100  1
  Co  Co4  1  0.75000000  0.95137200  0.32661100  1
  Co  Co5  1  0.75000000  0.67333200  0.62475400  1
  Co  Co6  1  0.25000000  0.32661100  0.95137200  1
  Co  Co7  1  0.25000000  0.62475400  0.67333200  1
  Co  Co8  1  0.25000000  0.04870100  0.37526000  1
  Co  Co9  1  0.25000000  0.62474000  0.95129900  1
  Co  Co10  1  0.25000000  0.04862800  0.67338900  1
  Co  Co11  1  0.25000000  0.32666800  0.37524600  1
  Co  Co12  1  0.47576800  0.83763100  0.67538700  1
  Co  Co13  1  0.47574600  0.83773600  0.16226400  1
  Co  Co14  1  0.47576800  0.32461300  0.16236900  1
  Co  Co15  1  0.52423200  0.16236900  0.32461300  1
  Co  Co16  1  0.52425400  0.16226400  0.83773600  1
  Co  Co17  1  0.52423200  0.67538700  0.83763100  1
  Co  Co18  1  0.97576800  0.16236900  0.32461300  1
  Co  Co19  1  0.97574600  0.16226400  0.83773600  1
  Co  Co20  1  0.97576800  0.67538700  0.83763100  1
  Co  Co21  1  0.02423200  0.83763100  0.67538700  1
  Co  Co22  1  0.02425400  0.83773600  0.16226400  1
  Co  Co23  1  0.02423200  0.32461300  0.16236900  1
  Ni  Ni0  1  0.59885400  0.66663100  0.33336900  1
  Ni  Ni1  1  0.40114600  0.33336900  0.66663100  1
  Ni  Ni2  1  0.09885400  0.33336900  0.66663100  1
  Ni  Ni3  1  0.90114600  0.66663100  0.33336900  1
  Ni  Ni4  1  0.50000000  0.50000000  0.00000000  1
  Ni  Ni5  1  0.50000000  0.50000000  0.50000000  1
  Ni  Ni6  1  0.50000000  0.00000000  0.50000000  1
  Ni  Ni7  1  0.00000000  0.50000000  0.00000000  1
  Ni  Ni8  1  0.00000000  0.50000000  0.50000000  1
  Ni  Ni9  1  0.00000000  0.00000000  0.50000000  1
loop_
_geom_bond_atom_site_label_1
_geom_bond_atom_site_label_2
_geom_bond_distance
_geom_bond_site_symmetry_2
Er2 Ni0 2.807762 1_555
Er2 Ni3 2.807762 1_455
Er2 Ni8 3.124366 1_555
Er2 Ni5 3.124366 1_555
Er2 Ni4 3.126498 1_555
Er2 Ni9 3.126498 1_565
Er2 Ni6 3.126498 1_565
Er2 Ni7 3.126498 1_555
Er3 Ni2 2.807762 1_655
Er3 Ni1 2.807762 1_555
Er3 Ni5 3.124366 1_555
Er3 Ni8 3.124366 1_655
Er3 Ni7 3.126498 1_656
Er3 Ni4 3.126498 1_556
Er3 Ni6 3.126498 1_555
Er3 Ni9 3.126498 1_655
Co0 Co4 2.303289 1_555
Co0 Ni7 2.386703 1_655
Co0 Ni4 2.386703 1_555
Co0 Co3 2.470766 1_555
Co0 Co13 2.516165 1_555
Co0 Co22 2.516165 1_655
Co0 Co20 2.527473 1_554
Co0 Co17 2.527473 1_554
Co0 Ni3 2.680024 1_555
Co0 Ni0 2.680024 1_555
Co0 Er0 2.929009 1_564
Co0 Er3 3.006498 1_554
Co1 Co3 2.303448 1_555
Co1 Ni5 2.386475 1_555
Co1 Ni8 2.386475 1_655
Co1 Co5 2.469857 1_555
Co1 Co23 2.515923 1_655
Co1 Co14 2.515923 1_555
Co1 Co18 2.526630 1_555
Co1 Co15 2.526630 1_555
Co1 Ni3 2.679375 1_555
Co1 Ni0 2.679375 1_555
Co1 Er0 2.928736 1_554
Co1 Er3 3.004353 1_555
Co2 Co5 2.303448 1_555
Co2 Ni6 2.386889 1_565
Co2 Ni9 2.386889 1_665
Co2 Co4 2.470766 1_555
Co2 Co21 2.516011 1_655
Co2 Ni3 2.679054 1_555
Co2 Ni0 2.679054 1_555
Co2 Er0 2.928591 1_565
Co2 Er3 3.008729 1_565
Co3 Ni7 2.386889 1_655
Co3 Ni4 2.386889 1_555
Co3 Ni3 2.679054 1_555
Co3 Ni0 2.679054 1_555
Co3 Er0 2.928591 1_554
Co3 Er3 3.008729 1_554
Co4 Ni9 2.386703 1_665
Co4 Ni6 2.386703 1_565
Co4 Ni3 2.680024 1_555
Co4 Ni0 2.680024 1_555
Co4 Er0 2.929009 1_564
Co4 Er3 3.006498 1_565
Co5 Ni8 2.386475 1_655
Co5 Ni5 2.386475 1_555
Co5 Ni3 2.679375 1_555
Co5 Ni0 2.679375 1_555
Co5 Er0 2.928736 1_565
Co5 Er3 3.004353 1_555
Co6 Ni7 2.386703 1_556
Co6 Ni4 2.386703 1_556
Co6 Co9 2.470766 1_555
Co6 Ni2 2.680024 1_555
Co6 Ni1 2.680024 1_555
Co6 Er1 2.929009 1_546
Co6 Er2 3.006498 1_556
Co7 Co9 2.303448 1_555
Co7 Ni8 2.386475 1_555
Co7 Ni5 2.386475 1_555
Co7 Ni2 2.679375 1_555
Co7 Ni1 2.679375 1_555
Co7 Er1 2.928736 1_556
Co7 Er2 3.004353 1_555
Co8 Ni6 2.386889 1_555
Co8 Ni9 2.386889 1_555
Co8 Ni2 2.679054 1_555
Co8 Ni1 2.679054 1_555
Co8 Er1 2.928591 1_545
Co8 Er2 3.008729 1_545
Co9 Ni7 2.386889 1_556
Co9 Ni4 2.386889 1_556
Co9 Ni2 2.679054 1_555
Co9 Ni1 2.679054 1_555
Co9 Er1 2.928591 1_556
Co9 Er2 3.008729 1_556
Co10 Co6 2.303289 1_555
Co10 Ni9 2.386703 1_555
Co10 Ni6 2.386703 1_555
Co10 Co8 2.470766 1_555
Co10 Co19 2.516165 1_455
Co10 Co16 2.516165 1_555
Co10 Co21 2.527473 1_545
Co10 Co12 2.527473 1_545
Co10 Ni2 2.680024 1_555
Co10 Ni1 2.680024 1_555
Co10 Er1 2.929009 1_546
Co10 Er2 3.006498 1_545
Co11 Co8 2.303448 1_555
Co11 Ni8 2.386475 1_555
Co11 Ni5 2.386475 1_555
Co11 Co7 2.469857 1_555
Co11 Co15 2.515923 1_555
Co11 Co18 2.515923 1_455
Co11 Co14 2.526630 1_555
Co11 Co23 2.526630 1_555
Co11 Ni2 2.679375 1_555
Co11 Ni1 2.679375 1_555
Co11 Er1 2.928736 1_545
Co11 Er2 3.004353 1_555
Co12 Co17 2.361167 1_555
Co12 Co16 2.361990 1_565
Co12 Ni5 2.431243 1_555
Co12 Ni6 2.432376 1_565
Co12 Co5 2.515923 1_555
Co12 Co2 2.516011 1_555
Co12 Co7 2.526630 1_555
Co12 Ni0 2.646679 1_555
Co12 Er1 2.954363 1_556
Co12 Er2 3.053139 1_555
Co12 Er0 3.208932 1_565
Co13 Co17 2.361990 1_554
Co13 Co15 2.361990 1_565
Co13 Ni4 2.432026 1_555
Co13 Ni6 2.432026 1_565
Co13 Co4 2.516165 1_555
Co13 Co9 2.527133 1_554
Co13 Co8 2.527133 1_565
Co13 Ni0 2.648254 1_555
Co13 Er1 2.953772 1_555
Co13 Er2 3.056158 1_555
Co13 Er0 3.208954 1_564
Co14 Co15 2.361167 1_555
Co14 Co16 2.361990 1_554
Co14 Ni5 2.431243 1_555
Co14 Ni4 2.432376 1_555
Co14 Co3 2.516011 1_555
Co14 Co6 2.527473 1_554
Co14 Ni0 2.646679 1_555
Co14 Er1 2.954363 1_545
Co14 Er2 3.053139 1_555
Co14 Er0 3.208932 1_554
Co15 Ni5 2.431243 1_555
Co15 Ni6 2.432376 1_555
Co15 Co8 2.516011 1_555
Co15 Co4 2.527473 1_545
Co15 Ni1 2.646679 1_555
Co15 Er0 2.954363 1_554
Co15 Er3 3.053139 1_555
Co15 Er1 3.208932 1_545
Co16 Ni4 2.432026 1_556
Co16 Ni6 2.432026 1_555
Co16 Co6 2.516165 1_555
Co16 Co3 2.527133 1_556
Co16 Co2 2.527133 1_545
Co16 Ni1 2.648254 1_555
Co16 Er0 2.953772 1_555
Co16 Er3 3.056158 1_555
Co16 Er1 3.208954 1_546
Co17 Ni5 2.431243 1_555
Co17 Ni4 2.432376 1_556
Co17 Co7 2.515923 1_555
Co17 Co9 2.516011 1_555
Co17 Co5 2.526630 1_555
Co17 Ni1 2.646679 1_555
Co17 Er0 2.954363 1_565
Co17 Er3 3.053139 1_555
Co17 Er1 3.208932 1_556
Co18 Co23 2.361167 1_655
Co18 Co22 2.361990 1_645
Co18 Ni8 2.431243 1_655
Co18 Ni9 2.432376 1_655
Co18 Co8 2.516011 1_655
Co18 Co4 2.527473 1_545
Co18 Ni2 2.646679 1_655
Co18 Er0 2.954363 1_554
Co18 Er3 3.053139 1_555
Co18 Er1 3.208932 1_645
Co19 Co21 2.361990 1_645
Co19 Co23 2.361990 1_656
Co19 Ni7 2.432026 1_656
Co19 Ni9 2.432026 1_655
Co19 Co6 2.516165 1_655
Co19 Co3 2.527133 1_556
Co19 Co2 2.527133 1_545
Co19 Ni2 2.648254 1_655
Co19 Er0 2.953772 1_555
Co19 Er3 3.056158 1_555
Co19 Er1 3.208954 1_646
Co20 Co21 2.361167 1_655
Co20 Co22 2.361990 1_656
Co20 Ni8 2.431243 1_655
Co20 Ni7 2.432376 1_656
Co20 Co7 2.515923 1_655
Co20 Co9 2.516011 1_655
Co20 Co5 2.526630 1_555
Co20 Ni2 2.646679 1_655
Co20 Er0 2.954363 1_565
Co20 Er3 3.053139 1_555
Co20 Er1 3.208932 1_656
Co21 Ni8 2.431243 1_555
Co21 Ni9 2.432376 1_565
Co21 Co5 2.515923 1_455
Co21 Co7 2.526630 1_555
Co21 Ni3 2.646679 1_455
Co21 Er1 2.954363 1_556
Co21 Er2 3.053139 1_555
Co21 Er0 3.208932 1_465
Co22 Ni9 2.432026 1_565
Co22 Ni7 2.432026 1_555
Co22 Co4 2.516165 1_455
Co22 Co8 2.527133 1_565
Co22 Co9 2.527133 1_554
Co22 Ni3 2.648254 1_455
Co22 Er1 2.953772 1_555
Co22 Er2 3.056158 1_555
Co22 Er0 3.208954 1_464
Co23 Ni8 2.431243 1_555
Co23 Ni7 2.432376 1_555
Co23 Co3 2.516011 1_455
Co23 Co6 2.527473 1_554
Co23 Ni3 2.646679 1_455
Co23 Er1 2.954363 1_545
Co23 Er2 3.053139 1_555
Co23 Er0 3.208932 1_454
Ni0 Ni3 2.433006 1_555
Ni0 Ni5 2.520559 1_555
Ni0 Ni4 2.521058 1_555
Ni0 Ni6 2.521058 1_565
Ni1 Ni2 2.433006 1_555
Ni1 Ni5 2.520559 1_555
Ni1 Ni4 2.521058 1_556
Ni1 Ni6 2.521058 1_555
Ni2 Ni8 2.520559 1_555
Ni2 Ni9 2.521058 1_555
Ni2 Ni7 2.521058 1_556
Ni3 Ni8 2.520559 1_655
Ni3 Ni7 2.521058 1_655
Ni3 Ni9 2.521058 1_665
