# generated using pymatgen
data_NaUN3O11
_symmetry_space_group_name_H-M   'P 1'
_cell_length_a   10.80357499
_cell_length_b   10.80357499
_cell_length_c   10.80357499
_cell_angle_alpha   90.00000000
_cell_angle_beta   90.00000000
_cell_angle_gamma   90.00000000
_symmetry_Int_Tables_number   1
_chemical_formula_structural   NaUN3O11
_chemical_formula_sum   'Na4 U4 N12 O44'
_cell_volume   1260.96337464
_cell_formula_units_Z   4
loop_
 _symmetry_equiv_pos_site_id
 _symmetry_equiv_pos_as_xyz
  1  'x, y, z'
loop_
 _atom_site_type_symbol
 _atom_site_label
 _atom_site_symmetry_multiplicity
 _atom_site_fract_x
 _atom_site_fract_y
 _atom_site_fract_z
 _atom_site_occupancy
  Na  Na0  1  0.32599507  0.32599507  0.32599507  1
  Na  Na1  1  0.67400493  0.82599507  0.17400493  1
  Na  Na2  1  0.82599507  0.17400493  0.67400493  1
  Na  Na3  1  0.17400493  0.67400493  0.82599507  1
  U  U0  1  0.57078019  0.07078019  0.42921981  1
  U  U1  1  0.07078019  0.42921981  0.57078019  1
  U  U2  1  0.42921981  0.57078019  0.07078019  1
  U  U3  1  0.92921981  0.92921981  0.92921981  1
  N  N0  1  0.52058091  0.28062827  0.59688316  1
  N  N1  1  0.40311684  0.02058091  0.21937173  1
  N  N2  1  0.78062827  0.90311684  0.47941909  1
  N  N3  1  0.02058091  0.21937173  0.40311684  1
  N  N4  1  0.90311684  0.47941909  0.78062827  1
  N  N5  1  0.28062827  0.59688316  0.52058091  1
  N  N6  1  0.47941909  0.78062827  0.90311684  1
  N  N7  1  0.59688316  0.52058091  0.28062827  1
  N  N8  1  0.21937173  0.40311684  0.02058091  1
  N  N9  1  0.97941909  0.71937173  0.09688316  1
  N  N10  1  0.09688316  0.97941909  0.71937173  1
  N  N11  1  0.71937173  0.09688316  0.97941909  1
  O  O0  1  0.49656432  0.36346615  0.66865904  1
  O  O1  1  0.33134096  0.99656432  0.13653385  1
  O  O2  1  0.86346615  0.83134096  0.50343568  1
  O  O3  1  0.99656432  0.13653385  0.33134096  1
  O  O4  1  0.83134096  0.50343568  0.86346615  1
  O  O5  1  0.36346615  0.66865904  0.49656432  1
  O  O6  1  0.50343568  0.86346615  0.83134096  1
  O  O7  1  0.66865904  0.49656432  0.36346615  1
  O  O8  1  0.13653385  0.33134096  0.99656432  1
  O  O9  1  0.00343568  0.63653385  0.16865904  1
  O  O10  1  0.16865904  0.00343568  0.63653385  1
  O  O11  1  0.63653385  0.16865904  0.00343568  1
  O  O12  1  0.45357162  0.25493753  0.50028208  1
  O  O13  1  0.49971792  0.95357162  0.24506247  1
  O  O14  1  0.75493753  0.99971792  0.54642838  1
  O  O15  1  0.95357162  0.24506247  0.49971792  1
  O  O16  1  0.99971792  0.54642838  0.75493753  1
  O  O17  1  0.25493753  0.50028208  0.45357162  1
  O  O18  1  0.54642838  0.75493753  0.99971792  1
  O  O19  1  0.50028208  0.45357162  0.25493753  1
  O  O20  1  0.24506247  0.49971792  0.95357162  1
  O  O21  1  0.04642838  0.74506247  0.00028208  1
  O  O22  1  0.00028208  0.04642838  0.74506247  1
  O  O23  1  0.74506247  0.00028208  0.04642838  1
  O  O24  1  0.61529451  0.20725899  0.60946362  1
  O  O25  1  0.39053638  0.11529451  0.29274101  1
  O  O26  1  0.70725899  0.89053638  0.38470549  1
  O  O27  1  0.11529451  0.29274101  0.39053638  1
  O  O28  1  0.89053638  0.38470549  0.70725899  1
  O  O29  1  0.20725899  0.60946362  0.61529451  1
  O  O30  1  0.38470549  0.70725899  0.89053638  1
  O  O31  1  0.60946362  0.61529451  0.20725899  1
  O  O32  1  0.29274101  0.39053638  0.11529451  1
  O  O33  1  0.88470549  0.79274101  0.10946362  1
  O  O34  1  0.10946362  0.88470549  0.79274101  1
  O  O35  1  0.79274101  0.10946362  0.88470549  1
  O  O36  1  0.47515082  0.97515082  0.52484918  1
  O  O37  1  0.97515082  0.52484918  0.47515082  1
  O  O38  1  0.52484918  0.47515082  0.97515082  1
  O  O39  1  0.02484918  0.02484918  0.02484918  1
  O  O40  1  0.66688706  0.16688706  0.33311294  1
  O  O41  1  0.16688706  0.33311294  0.66688706  1
  O  O42  1  0.33311294  0.66688706  0.16688706  1
  O  O43  1  0.83311294  0.83311294  0.83311294  1
loop_
_geom_bond_atom_site_label_1
_geom_bond_atom_site_label_2
_geom_bond_distance
_geom_bond_site_symmetry_2
Na0 O32 2.407674 1_555
Na0 O27 2.407674 1_555
Na0 O25 2.407674 1_555
Na0 O17 2.456499 1_555
Na0 O12 2.456499 1_555
Na0 O19 2.456499 1_555
Na1 O26 2.407674 1_555
Na1 O31 2.407674 1_555
Na1 O33 2.407674 1_555
Na1 O13 2.456499 1_555
Na1 O18 2.456499 1_554
Na1 O23 2.456499 1_565
Na2 O28 2.407674 1_555
Na2 O24 2.407674 1_555
Na2 O35 2.407674 1_555
Na2 O14 2.456499 1_545
Na2 O15 2.456499 1_555
Na2 O22 2.456499 1_655
Na3 O30 2.407674 1_555
Na3 O29 2.407674 1_555
Na3 O34 2.407674 1_555
Na3 O20 2.456499 1_555
Na3 O16 2.456499 1_455
Na3 O21 2.456499 1_556
N0 O0 1.212250 1_555
N0 O12 1.300116 1_555
N0 O24 1.301460 1_555
N1 O1 1.212250 1_545
N1 O13 1.300116 1_545
N1 O25 1.301460 1_555
N2 O2 1.212250 1_555
N2 O14 1.300116 1_555
N2 O26 1.301460 1_555
N3 O3 1.212250 1_455
N3 O15 1.300116 1_455
N3 O27 1.301460 1_555
N4 O4 1.212250 1_555
N4 O16 1.300116 1_555
N4 O28 1.301460 1_555
N5 O5 1.212250 1_555
N5 O17 1.300116 1_555
N5 O29 1.301460 1_555
N6 O6 1.212250 1_555
N6 O18 1.300116 1_555
N6 O30 1.301460 1_555
N7 O7 1.212250 1_555
N7 O19 1.300116 1_555
N7 O31 1.301460 1_555
N8 O8 1.212250 1_554
N8 O20 1.300116 1_554
N8 O32 1.301460 1_555
N9 O9 1.212250 1_655
N9 O21 1.300116 1_655
N9 O33 1.301460 1_555
N10 O10 1.212250 1_565
N10 O22 1.300116 1_565
N10 O34 1.301460 1_555
N11 O11 1.212250 1_556
N11 O23 1.300116 1_556
N11 O35 1.301460 1_555
O12 U0 2.480159 1_555
O13 U0 2.480159 1_565
O14 U0 2.480159 1_565
O15 U1 2.480159 1_655
O16 U1 2.480159 1_655
O17 U1 2.480159 1_555
O18 U2 2.480159 1_556
O19 U2 2.480159 1_555
O20 U2 2.480159 1_556
O21 U3 2.480159 1_454
O22 U3 2.480159 1_445
O23 U3 2.480159 1_544
O24 U0 2.489417 1_555
O25 U0 2.489417 1_555
O26 U0 2.489417 1_565
O27 U1 2.489417 1_555
O28 U1 2.489417 1_655
O29 U1 2.489417 1_555
O30 U2 2.489417 1_556
O31 U2 2.489417 1_555
O32 U2 2.489417 1_555
O33 U3 2.489417 1_554
O34 U3 2.489417 1_455
O35 U3 2.489417 1_545
O36 U0 1.789449 1_565
O37 U1 1.789449 1_655
O38 U2 1.789449 1_556
O39 U3 1.789449 1_444
O40 U0 1.798385 1_555
O41 U1 1.798385 1_555
O42 U2 1.798385 1_555
O43 U3 1.798385 1_555
