# generated using pymatgen
data_NdRu2
_symmetry_space_group_name_H-M   'P 1'
_cell_length_a   5.39858948
_cell_length_b   5.39862517
_cell_length_c   5.39862091
_cell_angle_alpha   60.00001339
_cell_angle_beta   59.99979475
_cell_angle_gamma   59.99994059
_symmetry_Int_Tables_number   1
_chemical_formula_structural   NdRu2
_chemical_formula_sum   'Nd2 Ru4'
_cell_volume   111.25780537
_cell_formula_units_Z   2
loop_
 _symmetry_equiv_pos_site_id
 _symmetry_equiv_pos_as_xyz
  1  'x, y, z'
loop_
 _atom_site_type_symbol
 _atom_site_label
 _atom_site_symmetry_multiplicity
 _atom_site_fract_x
 _atom_site_fract_y
 _atom_site_fract_z
 _atom_site_occupancy
  Nd  Nd0  1  0.12500100  0.12500000  0.12500000  1
  Nd  Nd1  1  0.87499900  0.87500000  0.87500000  1
  Ru  Ru0  1  0.50000000  0.00000000  0.50000000  1
  Ru  Ru1  1  0.00000000  0.50000000  0.50000000  1
  Ru  Ru2  1  0.50000000  0.50000000  0.50000000  1
  Ru  Ru3  1  0.50000000  0.50000000  0.00000000  1
loop_
_geom_bond_atom_site_label_1
_geom_bond_atom_site_label_2
_geom_bond_distance
_geom_bond_site_symmetry_2
Nd0 Ru0 3.165204 1_455
Nd0 Ru2 3.165208 1_455
Nd0 Ru3 3.165209 1_555
Nd0 Ru3 3.165210 1_455
Nd0 Ru2 3.165210 1_554
Nd0 Ru0 3.165211 1_555
Nd0 Ru0 3.165215 1_554
Nd0 Ru2 3.165218 1_545
Nd0 Ru1 3.165221 1_555
Nd0 Ru3 3.165221 1_545
Nd0 Ru1 3.165225 1_545
Nd0 Ru1 3.165225 1_554
Nd0 Nd1 3.305932 1_544
Nd0 Nd1 3.305962 1_445
Nd0 Nd1 3.305970 1_454
Nd0 Nd1 3.305972 1_444
Nd1 Ru0 3.165204 1_665
Nd1 Ru2 3.165208 1_655
Nd1 Ru3 3.165209 1_556
Nd1 Ru3 3.165210 1_656
Nd1 Ru2 3.165210 1_556
Nd1 Ru0 3.165211 1_565
Nd1 Ru0 3.165215 1_566
Nd1 Ru2 3.165218 1_565
Nd1 Ru1 3.165221 1_655
Nd1 Ru3 3.165221 1_566
Nd1 Ru1 3.165225 1_665
Nd1 Ru1 3.165225 1_656
Ru0 Ru1 2.699301 1_555
Ru0 Ru1 2.699301 1_645
Ru0 Ru3 2.699312 1_546
Ru0 Ru3 2.699312 1_555
Ru0 Ru2 2.699313 1_545
Ru0 Ru2 2.699313 1_555
Ru1 Ru3 2.699294 1_555
Ru1 Ru3 2.699294 1_456
Ru1 Ru2 2.699295 1_455
Ru1 Ru2 2.699295 1_555
Ru2 Ru3 2.699310 1_556
Ru2 Ru3 2.699310 1_555
