# generated using pymatgen
data_Dy5B2(O2F3)3
_symmetry_space_group_name_H-M   'P 1'
_cell_length_a   6.13807900
_cell_length_b   8.29811604
_cell_length_c   10.74116437
_cell_angle_alpha   99.66949744
_cell_angle_beta   106.60230602
_cell_angle_gamma   90.00000000
_symmetry_Int_Tables_number   1
_chemical_formula_structural   Dy5B2(O2F3)3
_chemical_formula_sum   'Dy10 B4 O12 F18'
_cell_volume   516.17201255
_cell_formula_units_Z   2
loop_
 _symmetry_equiv_pos_site_id
 _symmetry_equiv_pos_as_xyz
  1  'x, y, z'
loop_
 _atom_site_type_symbol
 _atom_site_label
 _atom_site_symmetry_multiplicity
 _atom_site_fract_x
 _atom_site_fract_y
 _atom_site_fract_z
 _atom_site_occupancy
  Dy  Dy0  1  0.18738300  0.68123100  0.61176100  1
  Dy  Dy1  1  0.57562200  0.81876900  0.38823900  1
  Dy  Dy2  1  0.81261700  0.31876900  0.38823900  1
  Dy  Dy3  1  0.42437800  0.18123100  0.61176100  1
  Dy  Dy4  1  0.00081100  0.09563900  0.78041300  1
  Dy  Dy5  1  0.22039700  0.40436100  0.21958700  1
  Dy  Dy6  1  0.99918900  0.90436100  0.21958700  1
  Dy  Dy7  1  0.77960300  0.59563900  0.78041300  1
  Dy  Dy8  1  0.39119800  0.75000000  0.00000000  1
  Dy  Dy9  1  0.60880200  0.25000000  0.00000000  1
  B  B0  1  0.48477000  0.93842400  0.77711000  1
  B  B1  1  0.70766000  0.56157600  0.22289000  1
  B  B2  1  0.51523000  0.06157600  0.22289000  1
  B  B3  1  0.29234000  0.43842400  0.77711000  1
  O  O0  1  0.64719800  0.06532100  0.81745700  1
  O  O1  1  0.82974000  0.43467900  0.18254300  1
  O  O2  1  0.35280200  0.93467900  0.18254300  1
  O  O3  1  0.17026000  0.56532100  0.81745700  1
  O  O4  1  0.28234800  0.96179100  0.68265100  1
  O  O5  1  0.59969700  0.53820900  0.31734900  1
  O  O6  1  0.71765200  0.03820900  0.31734900  1
  O  O7  1  0.40030300  0.46179100  0.68265100  1
  O  O8  1  0.30313200  0.28544600  0.81394100  1
  O  O9  1  0.48919100  0.21455400  0.18605900  1
  O  O10  1  0.69686800  0.71455400  0.18605900  1
  O  O11  1  0.51080900  0.78544600  0.81394100  1
  F  F0  1  0.86684100  0.52045600  0.57860900  1
  F  F1  1  0.28823100  0.97954400  0.42139100  1
  F  F2  1  0.13315900  0.47954400  0.42139100  1
  F  F3  1  0.71176900  0.02045600  0.57860900  1
  F  F4  1  0.94651800  0.81546900  0.73666600  1
  F  F5  1  0.20985200  0.68453100  0.26333400  1
  F  F6  1  0.05348200  0.18453100  0.26333400  1
  F  F7  1  0.79014800  0.31546900  0.73666600  1
  F  F8  1  0.01609700  0.75000000  0.00000000  1
  F  F9  1  0.98390300  0.25000000  0.00000000  1
  F  F10  1  0.50044700  0.71246100  0.55176100  1
  F  F11  1  0.94868600  0.78753900  0.44823900  1
  F  F12  1  0.49955300  0.28753900  0.44823900  1
  F  F13  1  0.05131400  0.21246100  0.55176100  1
  F  F14  1  0.28802300  0.01739100  0.93677100  1
  F  F15  1  0.35125200  0.48260900  0.06322900  1
  F  F16  1  0.71197700  0.98260900  0.06322900  1
  F  F17  1  0.64874800  0.51739100  0.93677100  1
loop_
_geom_bond_atom_site_label_1
_geom_bond_atom_site_label_2
_geom_bond_distance
_geom_bond_site_symmetry_2
Dy0 F10 2.222363 1_555
Dy0 F11 2.249391 1_455
Dy0 F0 2.284261 1_455
Dy0 O4 2.343194 1_555
Dy0 O7 2.345368 1_555
Dy0 F2 2.356786 1_555
Dy0 F4 2.420341 1_455
Dy0 O11 2.512064 1_555
Dy0 O3 2.581524 1_555
Dy1 F11 2.222363 1_555
Dy1 F10 2.249391 1_555
Dy1 F1 2.284266 1_555
Dy1 O5 2.343194 1_555
Dy1 O6 2.345368 1_565
Dy1 F3 2.356786 1_565
Dy1 F5 2.420340 1_555
Dy1 O10 2.512064 1_555
Dy1 O2 2.581526 1_555
Dy2 F12 2.222363 1_555
Dy2 F13 2.249391 1_655
Dy2 F2 2.284261 1_655
Dy2 O6 2.343194 1_555
Dy2 O5 2.345368 1_555
Dy2 F0 2.356786 1_555
Dy2 F6 2.420341 1_655
Dy2 O9 2.512064 1_555
Dy2 O1 2.581524 1_555
Dy3 F13 2.222363 1_555
Dy3 F12 2.249391 1_555
Dy3 F3 2.284266 1_555
Dy3 O7 2.343194 1_555
Dy3 O4 2.345368 1_545
Dy3 F1 2.356786 1_545
Dy3 F7 2.420340 1_555
Dy3 O8 2.512064 1_555
Dy3 O0 2.581526 1_555
Dy4 F14 2.241543 1_555
Dy4 F7 2.271820 1_455
Dy4 F4 2.297927 1_445
Dy4 O0 2.336634 1_455
Dy4 O8 2.341265 1_555
Dy4 F3 2.362941 1_455
Dy4 O4 2.442906 1_545
Dy4 F9 2.517849 1_456
Dy5 F15 2.241547 1_555
Dy5 F6 2.271817 1_555
Dy5 F5 2.297927 1_555
Dy5 O1 2.336634 1_455
Dy5 O9 2.341269 1_555
Dy5 F2 2.362941 1_555
Dy5 O5 2.442911 1_555
Dy5 F9 2.517847 1_455
Dy6 F16 2.241543 1_555
Dy6 F5 2.271820 1_655
Dy6 F6 2.297927 1_665
Dy6 O2 2.336634 1_655
Dy6 O10 2.341265 1_555
Dy6 F1 2.362941 1_655
Dy6 O6 2.442906 1_565
Dy6 F8 2.517849 1_655
Dy7 F17 2.241547 1_555
Dy7 F4 2.271817 1_555
Dy7 F7 2.297927 1_555
Dy7 O3 2.336634 1_655
Dy7 O11 2.341269 1_555
Dy7 F0 2.362941 1_555
Dy7 O7 2.442911 1_555
Dy7 F8 2.517847 1_656
Dy8 F8 2.302400 1_555
Dy8 O3 2.345883 1_554
Dy8 O2 2.345885 1_555
Dy8 O10 2.378116 1_555
Dy8 O11 2.378117 1_554
Dy8 F14 2.458863 1_564
Dy8 F15 2.458863 1_555
Dy8 F16 2.619022 1_555
Dy8 F17 2.619022 1_554
Dy9 F9 2.302400 1_555
Dy9 O1 2.345883 1_555
Dy9 O0 2.345885 1_554
Dy9 O8 2.378116 1_554
Dy9 O9 2.378117 1_555
Dy9 F16 2.458863 1_545
Dy9 F17 2.458863 1_554
Dy9 F14 2.619022 1_554
Dy9 F15 2.619022 1_555
B0 O0 1.374928 1_565
B0 O11 1.387830 1_555
B0 O4 1.398740 1_555
B1 O1 1.374924 1_555
B1 O10 1.387830 1_555
B1 O5 1.398740 1_555
B2 O2 1.374928 1_545
B2 O9 1.387830 1_555
B2 O6 1.398740 1_555
B3 O3 1.374924 1_555
B3 O8 1.387830 1_555
B3 O7 1.398740 1_555
