# generated using pymatgen
data_Ta4(CuNi3)3
_symmetry_space_group_name_H-M   'P 1'
_cell_length_a   4.31832100
_cell_length_b   4.48253900
_cell_length_c   10.36349700
_cell_angle_alpha   90.00000000
_cell_angle_beta   90.00000000
_cell_angle_gamma   90.00000000
_symmetry_Int_Tables_number   1
_chemical_formula_structural   Ta4(CuNi3)3
_chemical_formula_sum   'Ta4 Cu3 Ni9'
_cell_volume   200.60664977
_cell_formula_units_Z   1
loop_
 _symmetry_equiv_pos_site_id
 _symmetry_equiv_pos_as_xyz
  1  'x, y, z'
loop_
 _atom_site_type_symbol
 _atom_site_label
 _atom_site_symmetry_multiplicity
 _atom_site_fract_x
 _atom_site_fract_y
 _atom_site_fract_z
 _atom_site_occupancy
  Ta  Ta0  1  0.50000000  0.66233000  0.25506000  1
  Ta  Ta1  1  0.50000000  0.66233000  0.74494000  1
  Ta  Ta2  1  0.00000000  0.33625600  0.00000000  1
  Ta  Ta3  1  0.00000000  0.35014400  0.50000000  1
  Cu  Cu0  1  0.00000000  0.31303300  0.24992100  1
  Cu  Cu1  1  0.00000000  0.31303300  0.75007900  1
  Cu  Cu2  1  0.50000000  0.68685900  0.00000000  1
  Ni  Ni0  1  0.50000000  0.67593200  0.50000000  1
  Ni  Ni1  1  0.50000000  0.16513900  0.37744900  1
  Ni  Ni2  1  0.50000000  0.16835800  0.87491900  1
  Ni  Ni3  1  0.50000000  0.16835800  0.12508100  1
  Ni  Ni4  1  0.50000000  0.16513900  0.62255100  1
  Ni  Ni5  1  0.00000000  0.83650300  0.37535800  1
  Ni  Ni6  1  0.00000000  0.83004200  0.87344800  1
  Ni  Ni7  1  0.00000000  0.83004200  0.12655200  1
  Ni  Ni8  1  0.00000000  0.83650300  0.62464200  1
loop_
_geom_bond_atom_site_label_1
_geom_bond_atom_site_label_2
_geom_bond_distance
_geom_bond_site_symmetry_2
Cu0 Ni5 2.500536 1_545
Cu0 Ni7 2.514356 1_545
Cu0 Ta2 2.592147 1_555
Cu0 Ta3 2.597026 1_555
Cu0 Ni3 2.599309 1_555
Cu0 Ni3 2.599309 1_455
Cu0 Ni1 2.616904 1_555
Cu0 Ni1 2.616904 1_455
Cu0 Ni7 2.646794 1_555
Cu0 Ta0 2.667648 1_455
Cu0 Ta0 2.667648 1_555
Cu0 Ni5 2.682509 1_555
Cu1 Ni8 2.500536 1_545
Cu1 Ni6 2.514356 1_545
Cu1 Ta2 2.592147 1_556
Cu1 Ta3 2.597026 1_555
Cu1 Ni2 2.599309 1_455
Cu1 Ni2 2.599309 1_555
Cu1 Ni4 2.616904 1_455
Cu1 Ni4 2.616904 1_555
Cu1 Ni6 2.646794 1_555
Cu1 Ta1 2.667648 1_455
Cu1 Ta1 2.667648 1_555
Cu1 Ni8 2.682509 1_555
Cu2 Ni2 2.517689 1_564
Cu2 Ni3 2.517689 1_565
Cu2 Ni6 2.606530 1_654
Cu2 Ni7 2.606530 1_655
Cu2 Ni7 2.606530 1_555
Cu2 Ni6 2.606530 1_554
Cu2 Ta0 2.645599 1_555
Cu2 Ta1 2.645599 1_554
Cu2 Ni3 2.661248 1_555
Cu2 Ni2 2.661248 1_554
Cu2 Ta2 2.670557 1_555
Cu2 Ta2 2.670557 1_655
Ni0 Ni4 2.534129 1_565
Ni0 Ni1 2.534129 1_565
Ni0 Ta0 2.539167 1_555
Ni0 Ta1 2.539167 1_555
Ni0 Ta3 2.606649 1_555
Ni0 Ta3 2.606649 1_655
Ni0 Ni8 2.616982 1_655
Ni0 Ni5 2.616982 1_655
Ni0 Ni8 2.616982 1_555
Ni0 Ni5 2.616982 1_555
Ni0 Ni4 2.618309 1_555
Ni0 Ni1 2.618309 1_555
Ni1 Ni4 2.540114 1_555
Ni1 Ta0 2.564330 1_555
Ni1 Ta0 2.586247 1_545
Ni1 Ni5 2.613912 1_545
Ni1 Ni5 2.613912 1_645
Ni1 Ni3 2.615455 1_555
Ni1 Ta3 2.638701 1_555
Ni1 Ta3 2.638701 1_655
Ni2 Ta1 2.591796 1_555
Ni2 Ni3 2.592553 1_556
Ni2 Ni4 2.615455 1_555
Ni2 Ta2 2.628446 1_556
Ni2 Ta2 2.628446 1_656
Ni2 Ta1 2.638115 1_545
Ni2 Ni6 2.638565 1_645
Ni2 Ni6 2.638565 1_545
Ni3 Ta0 2.591796 1_555
Ni3 Ta2 2.628446 1_555
Ni3 Ta2 2.628446 1_655
Ni3 Ta0 2.638115 1_545
Ni3 Ni7 2.638565 1_645
Ni3 Ni7 2.638565 1_545
Ni4 Ta1 2.564330 1_555
Ni4 Ta1 2.586247 1_545
Ni4 Ni8 2.613912 1_645
Ni4 Ni8 2.613912 1_545
Ni4 Ta3 2.638701 1_655
Ni4 Ta3 2.638701 1_555
Ni5 Ta3 2.534067 1_555
Ni5 Ni7 2.578663 1_555
Ni5 Ni8 2.583454 1_555
Ni5 Ta0 2.612624 1_455
Ni5 Ta0 2.612624 1_555
Ni5 Ta3 2.640015 1_565
Ni6 Ta2 2.572799 1_556
Ni6 Ni8 2.578663 1_555
Ni6 Ta2 2.620880 1_566
Ni6 Ni7 2.623043 1_556
Ni6 Ta1 2.645905 1_555
Ni6 Ta1 2.645905 1_455
Ni7 Ta2 2.572799 1_555
Ni7 Ta2 2.620880 1_565
Ni7 Ta0 2.645905 1_555
Ni7 Ta0 2.645905 1_455
Ni8 Ta3 2.534067 1_555
Ni8 Ta1 2.612624 1_555
Ni8 Ta1 2.612624 1_455
Ni8 Ta3 2.640015 1_565
