# generated using pymatgen
data_BaSrYSbO6
_symmetry_space_group_name_H-M   'P 1'
_cell_length_a   8.45491907
_cell_length_b   8.44814352
_cell_length_c   8.44701580
_cell_angle_alpha   90.00000000
_cell_angle_beta   90.00000000
_cell_angle_gamma   90.00000000
_symmetry_Int_Tables_number   1
_chemical_formula_structural   BaSrYSbO6
_chemical_formula_sum   'Ba4 Sr4 Y4 Sb4 O24'
_cell_volume   603.35656787
_cell_formula_units_Z   4
loop_
 _symmetry_equiv_pos_site_id
 _symmetry_equiv_pos_as_xyz
  1  'x, y, z'
loop_
 _atom_site_type_symbol
 _atom_site_label
 _atom_site_symmetry_multiplicity
 _atom_site_fract_x
 _atom_site_fract_y
 _atom_site_fract_z
 _atom_site_occupancy
  Ba  Ba0  1  -0.00000000  -0.00000000  0.00000000  1
  Ba  Ba1  1  0.50000000  0.50000000  0.50000000  1
  Ba  Ba2  1  -0.00000000  0.50000000  0.00000000  1
  Ba  Ba3  1  -0.00000000  0.00000000  0.50000000  1
  Sr  Sr0  1  -0.00000000  0.50000000  0.50000000  1
  Sr  Sr1  1  0.50000000  0.00000000  0.50000000  1
  Sr  Sr2  1  0.50000000  0.50000000  0.00000000  1
  Sr  Sr3  1  0.50000000  0.00000000  0.00000000  1
  Y  Y0  1  0.25220906  0.25051862  0.25052563  1
  Y  Y1  1  0.74779094  0.74948138  0.25052563  1
  Y  Y2  1  0.74779094  0.25051862  0.74947437  1
  Y  Y3  1  0.25220906  0.74948138  0.74947437  1
  Sb  Sb0  1  0.74671689  0.74920037  0.75013172  1
  Sb  Sb1  1  0.25328311  0.25079963  0.75013172  1
  Sb  Sb2  1  0.25328311  0.74920037  0.24986828  1
  Sb  Sb3  1  0.74671689  0.25079963  0.24986828  1
  O  O0  1  0.98484358  0.22993913  0.26880507  1
  O  O1  1  0.01515642  0.77006087  0.26880507  1
  O  O2  1  0.01515642  0.22993913  0.73119493  1
  O  O3  1  0.98484358  0.77006087  0.73119493  1
  O  O4  1  0.27903249  0.98618975  0.22454020  1
  O  O5  1  0.27903249  0.01381025  0.77545980  1
  O  O6  1  0.72096751  0.01381025  0.22454020  1
  O  O7  1  0.72096751  0.98618975  0.77545980  1
  O  O8  1  0.23324450  0.27231968  0.98688817  1
  O  O9  1  0.76675550  0.27231968  0.01311183  1
  O  O10  1  0.23324450  0.72768032  0.01311183  1
  O  O11  1  0.76675550  0.72768032  0.98688817  1
  O  O12  1  0.51247252  0.28190100  0.22280828  1
  O  O13  1  0.48752748  0.71809900  0.22280828  1
  O  O14  1  0.48752748  0.28190100  0.77719172  1
  O  O15  1  0.51247252  0.71809900  0.77719172  1
  O  O16  1  0.22554967  0.51369209  0.28178293  1
  O  O17  1  0.22554967  0.48630791  0.71821707  1
  O  O18  1  0.77445033  0.48630791  0.28178293  1
  O  O19  1  0.77445033  0.51369209  0.71821707  1
  O  O20  1  0.28085573  0.22093435  0.51448088  1
  O  O21  1  0.71914427  0.22093435  0.48551912  1
  O  O22  1  0.28085573  0.77906565  0.48551912  1
  O  O23  1  0.71914427  0.77906565  0.51448088  1
loop_
_geom_bond_atom_site_label_1
_geom_bond_atom_site_label_2
_geom_bond_distance
_geom_bond_site_symmetry_2
Ba0 O3 2.990917 1_444
Ba0 O2 2.990917 1_554
Ba0 O1 2.990917 1_545
Ba0 O0 2.990917 1_455
Ba0 O6 3.029336 1_455
Ba0 O4 3.029336 1_545
Ba0 O7 3.029336 1_444
Ba0 O5 3.029336 1_554
Ba0 O10 3.032168 1_545
Ba0 O8 3.032168 1_554
Ba0 O11 3.032168 1_444
Ba0 O9 3.032168 1_455
Ba1 O17 2.965735 1_555
Ba1 O18 2.965735 1_555
Ba1 O16 2.965735 1_555
Ba1 O19 2.965735 1_555
Ba1 O13 2.981342 1_555
Ba1 O15 2.981342 1_555
Ba1 O14 2.981342 1_555
Ba1 O12 2.981342 1_555
Ba1 O22 3.001036 1_555
Ba1 O20 3.001036 1_555
Ba1 O21 3.001036 1_555
Ba1 O23 3.001036 1_555
Ba2 O8 2.757002 1_554
Ba2 O10 2.757002 1_555
Ba2 O9 2.757002 1_455
Ba2 O11 2.757002 1_454
Ba2 O16 3.052133 1_555
Ba2 O17 3.052133 1_554
Ba2 O18 3.052133 1_455
Ba2 O19 3.052133 1_454
Ba2 O0 3.221390 1_455
Ba2 O2 3.221390 1_554
Ba2 O3 3.221390 1_454
Ba2 O1 3.221390 1_555
Ba3 O1 2.757499 1_545
Ba3 O3 2.757499 1_445
Ba3 O2 2.757499 1_555
Ba3 O0 2.757499 1_455
Ba3 O23 3.022832 1_445
Ba3 O22 3.022832 1_545
Ba3 O21 3.022832 1_455
Ba3 O20 3.022832 1_555
Ba3 O5 3.315642 1_555
Ba3 O7 3.315642 1_445
Ba3 O6 3.315642 1_455
Ba3 O4 3.315642 1_545
O0 Sb3 2.027360 1_555
O0 Y0 2.272481 1_655
O0 Sr0 3.005922 1_655
O1 Sb2 2.027360 1_555
O1 Y1 2.272481 1_455
O1 Sr0 3.005922 1_555
O2 Sb1 2.027360 1_555
O2 Y2 2.272481 1_455
O2 Sr0 3.005922 1_555
O3 Sb0 2.027360 1_555
O3 Y3 2.272481 1_655
O3 Sr0 3.005922 1_655
O4 Sb2 2.025255 1_555
O4 Y0 2.255282 1_565
O4 Sr3 2.664858 1_565
O4 Sr1 2.986315 1_565
O5 Sb1 2.025255 1_555
O5 Y3 2.255282 1_545
O5 Sr3 2.664858 1_556
O5 Sr1 2.986315 1_555
O6 Sb3 2.025255 1_555
O6 Y1 2.255282 1_545
O6 Sr3 2.664858 1_555
O6 Sr1 2.986315 1_555
O7 Sb0 2.025255 1_555
O7 Y2 2.255282 1_565
O7 Sr3 2.664858 1_566
O7 Sr1 2.986315 1_565
O8 Sb1 2.015267 1_555
O8 Y0 2.240298 1_556
O8 Sr2 2.966284 1_556
O8 Sr3 3.223635 1_556
O9 Sb3 2.015267 1_555
O9 Y2 2.240298 1_554
O9 Sr2 2.966284 1_555
O9 Sr3 3.223635 1_555
O10 Sb2 2.015267 1_555
O10 Y3 2.240298 1_554
O10 Sr2 2.966284 1_555
O10 Sr3 3.223635 1_565
O11 Sb0 2.015267 1_555
O11 Y1 2.240298 1_556
O11 Sr2 2.966284 1_556
O11 Sr3 3.223635 1_566
O12 Sb3 2.010903 1_555
O12 Y0 2.228752 1_555
O12 Sr2 2.635946 1_555
O12 Sr3 3.037272 1_555
O13 Sb2 2.010903 1_555
O13 Y1 2.228752 1_555
O13 Sr2 2.635946 1_555
O13 Sr3 3.037272 1_565
O14 Sb1 2.010903 1_555
O14 Y2 2.228752 1_555
O14 Sr2 2.635946 1_556
O14 Sr3 3.037272 1_556
O15 Sb0 2.010903 1_555
O15 Y3 2.228752 1_555
O15 Sr2 2.635946 1_556
O15 Sr3 3.037272 1_566
O16 Sb2 2.021434 1_555
O16 Y0 2.250267 1_555
O16 Sr0 2.654758 1_555
O17 Sb1 2.021434 1_555
O17 Y3 2.250267 1_555
O17 Sr0 2.654758 1_555
O18 Sb3 2.021434 1_555
O18 Y1 2.250267 1_555
O18 Sr0 2.654758 1_655
O19 Sb0 2.021434 1_555
O19 Y2 2.250267 1_555
O19 Sr0 2.654758 1_655
O20 Sb1 2.019970 1_555
O20 Y0 2.256634 1_555
O20 Sr1 2.632826 1_555
O21 Sb3 2.019970 1_555
O21 Y2 2.256634 1_555
O21 Sr1 2.632826 1_555
O22 Sb2 2.019970 1_555
O22 Y3 2.256634 1_555
O22 Sr1 2.632826 1_565
O23 Sb0 2.019970 1_555
O23 Y1 2.256634 1_555
O23 Sr1 2.632826 1_565
