# generated using pymatgen
data_UNbO5
_symmetry_space_group_name_H-M   'P 1'
_cell_length_a   4.10479361
_cell_length_b   6.48407000
_cell_length_c   7.49428493
_cell_angle_alpha   90.00000000
_cell_angle_beta   90.00000000
_cell_angle_gamma   90.00000000
_symmetry_Int_Tables_number   1
_chemical_formula_structural   UNbO5
_chemical_formula_sum   'U2 Nb2 O10'
_cell_volume   199.46615729
_cell_formula_units_Z   2
loop_
 _symmetry_equiv_pos_site_id
 _symmetry_equiv_pos_as_xyz
  1  'x, y, z'
loop_
 _atom_site_type_symbol
 _atom_site_label
 _atom_site_symmetry_multiplicity
 _atom_site_fract_x
 _atom_site_fract_y
 _atom_site_fract_z
 _atom_site_occupancy
  U  U0  1  -0.00000000  0.54263167  0.25000000  1
  U  U1  1  -0.00000000  0.45736833  0.75000000  1
  Nb  Nb0  1  0.91815355  -0.00000000  0.50000000  1
  Nb  Nb1  1  0.08184645  -0.00000000  0.00000000  1
  O  O0  1  -0.00000000  0.91025946  0.25000000  1
  O  O1  1  -0.00000000  0.08974054  0.75000000  1
  O  O2  1  0.50000000  0.55040233  0.25000000  1
  O  O3  1  0.50000000  0.44959767  0.75000000  1
  O  O4  1  0.98895427  0.69412040  0.54514982  1
  O  O5  1  0.98895427  0.30587960  0.45485018  1
  O  O6  1  0.01104573  0.69412040  0.95485018  1
  O  O7  1  0.01104573  0.30587960  0.04514982  1
  O  O8  1  0.51821354  -0.00000000  0.00000000  1
  O  O9  1  0.48178646  -0.00000000  0.50000000  1
loop_
_geom_bond_atom_site_label_1
_geom_bond_atom_site_label_2
_geom_bond_distance
_geom_bond_site_symmetry_2
Nb0 O9 1.791197 1_555
Nb0 O1 1.990409 1_655
Nb0 O0 1.990409 1_645
Nb0 O5 2.032882 1_555
Nb0 O4 2.032882 1_545
Nb0 O9 2.313597 1_655
Nb1 O8 1.791197 1_555
Nb1 O0 1.990409 1_545
Nb1 O1 1.990409 1_554
Nb1 O6 2.032882 1_544
Nb1 O7 2.032882 1_555
Nb1 O8 2.313597 1_455
O0 U0 2.383724 1_555
O1 U1 2.383724 1_555
O2 U0 2.053015 1_655
O2 U0 2.053015 1_555
O3 U1 2.053015 1_655
O3 U1 2.053015 1_555
O4 U1 2.171519 1_655
O4 U0 2.420653 1_655
O5 U0 2.171519 1_655
O5 U1 2.420653 1_655
O6 U1 2.171519 1_555
O6 U0 2.420653 1_556
O7 U0 2.171519 1_555
O7 U1 2.420653 1_554
