# generated using pymatgen
data_CeMgAg
_symmetry_space_group_name_H-M   'P 1'
_cell_length_a   7.88576987
_cell_length_b   7.88576987
_cell_length_c   4.36336700
_cell_angle_alpha   90.00000000
_cell_angle_beta   90.00000000
_cell_angle_gamma   119.99999892
_symmetry_Int_Tables_number   1
_chemical_formula_structural   CeMgAg
_chemical_formula_sum   'Ce3 Mg3 Ag3'
_cell_volume   234.98523630
_cell_formula_units_Z   3
loop_
 _symmetry_equiv_pos_site_id
 _symmetry_equiv_pos_as_xyz
  1  'x, y, z'
loop_
 _atom_site_type_symbol
 _atom_site_label
 _atom_site_symmetry_multiplicity
 _atom_site_fract_x
 _atom_site_fract_y
 _atom_site_fract_z
 _atom_site_occupancy
  Ce  Ce0  1  0.41599900  0.00000000  0.50000000  1
  Ce  Ce1  1  0.00000000  0.41599900  0.50000000  1
  Ce  Ce2  1  0.58400100  0.58400100  0.50000000  1
  Mg  Mg0  1  0.76005200  0.00000000  0.00000000  1
  Mg  Mg1  1  0.00000000  0.76005200  0.00000000  1
  Mg  Mg2  1  0.23994800  0.23994800  0.00000000  1
  Ag  Ag0  1  0.33333300  0.66666700  0.00000000  1
  Ag  Ag1  1  0.66666700  0.33333300  0.00000000  1
  Ag  Ag2  1  0.00000000  0.00000000  0.50000000  1
loop_
_geom_bond_atom_site_label_1
_geom_bond_atom_site_label_2
_geom_bond_distance
_geom_bond_site_symmetry_2
Ce0 Mg0 3.481491 1_556
Ce0 Mg0 3.481491 1_555
Ce0 Mg2 3.590869 1_556
Ce0 Mg2 3.590869 1_555
Ce0 Mg1 3.590869 1_545
Ce0 Mg1 3.590869 1_546
Ce1 Mg1 3.481491 1_555
Ce1 Mg1 3.481491 1_556
Ce1 Mg2 3.590869 1_556
Ce1 Mg2 3.590869 1_555
Ce1 Mg0 3.590869 1_456
Ce1 Mg0 3.590869 1_455
Ce2 Mg2 3.481491 1_555
Ce2 Mg2 3.481491 1_556
Ce2 Mg0 3.590869 1_566
Ce2 Mg0 3.590869 1_565
Ce2 Mg1 3.590869 1_655
Ce2 Mg1 3.590869 1_656
Mg0 Mg1 3.277343 1_645
Mg0 Mg2 3.277343 1_655
Mg1 Mg2 3.277343 1_565
Ag0 Mg1 3.063903 1_555
Ag0 Mg0 3.063908 1_565
Ag0 Mg2 3.063910 1_555
Ag0 Ce0 3.221899 1_565
Ag0 Ce0 3.221899 1_564
Ag0 Ce1 3.221900 1_554
Ag0 Ce1 3.221900 1_555
Ag0 Ce2 3.221904 1_554
Ag0 Ce2 3.221904 1_555
Ag1 Mg0 3.063903 1_555
Ag1 Mg1 3.063908 1_655
Ag1 Mg2 3.063910 1_555
Ag1 Ce1 3.221899 1_655
Ag1 Ce1 3.221899 1_654
Ag1 Ce0 3.221900 1_555
Ag1 Ce0 3.221900 1_554
Ag1 Ce2 3.221904 1_554
Ag1 Ce2 3.221904 1_555
Ag2 Mg0 2.887918 1_456
Ag2 Mg0 2.887918 1_455
Ag2 Mg1 2.887918 1_545
Ag2 Mg1 2.887918 1_546
Ag2 Mg2 2.887918 1_556
Ag2 Mg2 2.887918 1_555
Ag2 Ce0 3.280472 1_555
Ag2 Ce1 3.280472 1_555
Ag2 Ce2 3.280472 1_445
