# generated using pymatgen
data_EuYAl6(BO3)8
_symmetry_space_group_name_H-M   'P 1'
_cell_length_a   5.93389245
_cell_length_b   5.93389245
_cell_length_c   11.17814543
_cell_angle_alpha   81.92525178
_cell_angle_beta   81.92525178
_cell_angle_gamma   104.15257103
_symmetry_Int_Tables_number   1
_chemical_formula_structural   EuYAl6(BO3)8
_chemical_formula_sum   'Eu1 Y1 Al6 B8 O24'
_cell_volume   371.54749488
_cell_formula_units_Z   1
loop_
 _symmetry_equiv_pos_site_id
 _symmetry_equiv_pos_as_xyz
  1  'x, y, z'
loop_
 _atom_site_type_symbol
 _atom_site_label
 _atom_site_symmetry_multiplicity
 _atom_site_fract_x
 _atom_site_fract_y
 _atom_site_fract_z
 _atom_site_occupancy
  Eu  Eu0  1  0.49912300  0.50087700  0.00000000  1
  Y  Y0  1  0.99996800  0.00003200  0.50000000  1
  Al  Al0  1  0.27753000  0.83427500  0.22264700  1
  Al  Al1  1  0.77832100  0.33336000  0.72152200  1
  Al  Al2  1  0.66664000  0.22167900  0.27847800  1
  Al  Al3  1  0.16572500  0.72247000  0.77735300  1
  Al  Al4  1  0.05663200  0.94336800  0.00000000  1
  Al  Al5  1  0.55580700  0.44419300  0.50000000  1
  B  B0  1  0.97085700  0.41247700  0.02943700  1
  B  B1  1  0.47101200  0.91376900  0.52874900  1
  B  B2  1  0.08623100  0.52898800  0.47125100  1
  B  B3  1  0.58752300  0.02914300  0.97056300  1
  B  B4  1  0.19188700  0.30776000  0.25128900  1
  B  B5  1  0.69224000  0.80811300  0.74871100  1
  B  B6  1  0.74990800  0.74974600  0.25018100  1
  B  B7  1  0.25025400  0.25009200  0.74981900  1
  O  O0  1  0.54548700  0.13672600  0.45460600  1
  O  O1  1  0.04548900  0.63539900  0.95486000  1
  O  O2  1  0.36460100  0.95451100  0.04514000  1
  O  O3  1  0.86327400  0.45451300  0.54539400  1
  O  O4  1  0.34129200  0.15950400  0.24994000  1
  O  O5  1  0.84049600  0.65870800  0.75006000  1
  O  O6  1  0.67579500  0.52701800  0.32466200  1
  O  O7  1  0.17566000  0.02706600  0.82419800  1
  O  O8  1  0.97293400  0.82434000  0.17580200  1
  O  O9  1  0.47298200  0.32420500  0.67533800  1
  O  O10  1  0.60120600  0.89834400  0.25020700  1
  O  O11  1  0.10165600  0.39879400  0.74979300  1
  O  O12  1  0.76643800  0.35792000  0.11363900  1
  O  O13  1  0.26085500  0.86049900  0.61020500  1
  O  O14  1  0.23574800  0.38673600  0.48566300  1
  O  O15  1  0.74087000  0.89231000  0.98572600  1
  O  O16  1  0.27997600  0.53593500  0.19070400  1
  O  O17  1  0.78753600  0.03606500  0.68496200  1
  O  O18  1  0.96393500  0.21246400  0.31503800  1
  O  O19  1  0.46406500  0.72002400  0.80929600  1
  O  O20  1  0.13950100  0.73914500  0.38979500  1
  O  O21  1  0.64208000  0.23356200  0.88636100  1
  O  O22  1  0.10769000  0.25913000  0.01427400  1
  O  O23  1  0.61326400  0.76425200  0.51433700  1
loop_
_geom_bond_atom_site_label_1
_geom_bond_atom_site_label_2
_geom_bond_distance
_geom_bond_site_symmetry_2
Eu0 O15 2.383384 1_554
Eu0 O22 2.383384 1_555
Eu0 O16 2.399298 1_555
Eu0 O19 2.399298 1_554
Eu0 O12 2.402211 1_555
Eu0 O21 2.402211 1_554
Al0 O16 1.857530 1_555
Al0 O20 1.878331 1_555
Al0 O8 1.940867 1_455
Al0 O10 1.941759 1_555
Al0 O4 1.949721 1_565
Al0 O2 1.961393 1_555
Al1 O21 1.854800 1_555
Al1 O17 1.877642 1_555
Al1 O11 1.942240 1_655
Al1 O9 1.942880 1_555
Al1 O3 1.947667 1_555
Al1 O5 1.955195 1_555
Al2 O12 1.854800 1_555
Al2 O18 1.877642 1_555
Al2 O10 1.942240 1_545
Al2 O6 1.942880 1_555
Al2 O0 1.947667 1_555
Al2 O4 1.955195 1_555
Al3 O19 1.857530 1_555
Al3 O13 1.878331 1_555
Al3 O7 1.940867 1_565
Al3 O11 1.941759 1_555
Al3 O5 1.949721 1_455
Al3 O1 1.961393 1_555
Al4 O15 1.856869 1_454
Al4 O22 1.856869 1_565
Al4 O8 1.942074 1_455
Al4 O7 1.942074 1_564
Al4 O1 1.951383 1_554
Al4 O2 1.951383 1_555
Al5 O23 1.879650 1_555
Al5 O14 1.879650 1_555
Al5 O6 1.938077 1_555
Al5 O9 1.938077 1_555
Al5 O3 1.950413 1_555
Al5 O0 1.950413 1_555
B0 O12 1.365176 1_555
B0 O22 1.371844 1_655
B0 O1 1.393156 1_654
B1 O13 1.375319 1_555
B1 O23 1.376154 1_555
B1 O0 1.391286 1_565
B2 O20 1.375319 1_555
B2 O14 1.376154 1_555
B2 O3 1.391286 1_455
B3 O21 1.365176 1_555
B3 O15 1.371844 1_545
B3 O2 1.393156 1_546
B4 O16 1.364535 1_555
B4 O18 1.378105 1_455
B4 O4 1.393378 1_555
B5 O19 1.364535 1_555
B5 O17 1.378105 1_565
B5 O5 1.393378 1_555
B6 O10 1.391611 1_555
B6 O6 1.391796 1_555
B6 O8 1.392714 1_555
B7 O11 1.391611 1_555
B7 O9 1.391796 1_555
B7 O7 1.392714 1_555
O13 Y0 2.340006 1_465
O14 Y0 2.347844 1_455
O17 Y0 2.330926 1_555
O18 Y0 2.330926 1_555
O20 Y0 2.340006 1_465
O23 Y0 2.347844 1_565
