# generated using pymatgen
data_CsHfMg30O31
_symmetry_space_group_name_H-M   'P 1'
_cell_length_a   8.77762600
_cell_length_b   8.77762600
_cell_length_c   8.64800000
_cell_angle_alpha   90.00000000
_cell_angle_beta   90.00000000
_cell_angle_gamma   90.00000000
_symmetry_Int_Tables_number   1
_chemical_formula_structural   CsHfMg30O31
_chemical_formula_sum   'Cs1 Hf1 Mg30 O31'
_cell_volume   666.30001896
_cell_formula_units_Z   1
loop_
 _symmetry_equiv_pos_site_id
 _symmetry_equiv_pos_as_xyz
  1  'x, y, z'
loop_
 _atom_site_type_symbol
 _atom_site_label
 _atom_site_symmetry_multiplicity
 _atom_site_fract_x
 _atom_site_fract_y
 _atom_site_fract_z
 _atom_site_occupancy
  Cs  Cs0  1  0.00000000  0.00000000  0.04267100  1
  Hf  Hf0  1  0.50000000  0.50000000  0.99796300  1
  Mg  Mg0  1  0.50000000  0.00000000  0.99462700  1
  Mg  Mg1  1  0.00000000  0.50000000  0.99462700  1
  Mg  Mg2  1  0.00000000  0.00000000  0.48830000  1
  Mg  Mg3  1  0.50000000  0.00000000  0.50469300  1
  Mg  Mg4  1  0.00000000  0.50000000  0.50469300  1
  Mg  Mg5  1  0.50000000  0.50000000  0.50121400  1
  Mg  Mg6  1  0.24713200  0.24713200  0.99802700  1
  Mg  Mg7  1  0.75286800  0.24713200  0.99802700  1
  Mg  Mg8  1  0.24713200  0.75286800  0.99802700  1
  Mg  Mg9  1  0.75286800  0.75286800  0.99802700  1
  Mg  Mg10  1  0.24864500  0.24864500  0.50114100  1
  Mg  Mg11  1  0.75135500  0.24864500  0.50114100  1
  Mg  Mg12  1  0.24864500  0.75135500  0.50114100  1
  Mg  Mg13  1  0.75135500  0.75135500  0.50114100  1
  Mg  Mg14  1  0.26412000  0.00000000  0.26068700  1
  Mg  Mg15  1  0.73588000  0.00000000  0.26068700  1
  Mg  Mg16  1  0.24585500  0.50000000  0.25687700  1
  Mg  Mg17  1  0.75414500  0.50000000  0.25687700  1
  Mg  Mg18  1  0.24851600  0.00000000  0.74643600  1
  Mg  Mg19  1  0.75148400  0.00000000  0.74643600  1
  Mg  Mg20  1  0.24195800  0.50000000  0.74241800  1
  Mg  Mg21  1  0.75804200  0.50000000  0.74241800  1
  Mg  Mg22  1  0.00000000  0.26412000  0.26068700  1
  Mg  Mg23  1  0.50000000  0.24585500  0.25687700  1
  Mg  Mg24  1  0.00000000  0.73588000  0.26068700  1
  Mg  Mg25  1  0.50000000  0.75414500  0.25687700  1
  Mg  Mg26  1  0.00000000  0.24851600  0.74643600  1
  Mg  Mg27  1  0.50000000  0.24195800  0.74241800  1
  Mg  Mg28  1  0.00000000  0.75148400  0.74643600  1
  Mg  Mg29  1  0.50000000  0.75804200  0.74241800  1
  O  O0  1  0.50000000  0.00000000  0.25461000  1
  O  O1  1  0.00000000  0.50000000  0.25461000  1
  O  O2  1  0.50000000  0.50000000  0.24360200  1
  O  O3  1  0.00000000  0.00000000  0.72175500  1
  O  O4  1  0.50000000  0.00000000  0.74561200  1
  O  O5  1  0.00000000  0.50000000  0.74561200  1
  O  O6  1  0.50000000  0.50000000  0.75510200  1
  O  O7  1  0.25259300  0.25259300  0.24756400  1
  O  O8  1  0.74740700  0.25259300  0.24756400  1
  O  O9  1  0.25259300  0.74740700  0.24756400  1
  O  O10  1  0.74740700  0.74740700  0.24756400  1
  O  O11  1  0.25140600  0.25140600  0.75046800  1
  O  O12  1  0.74859400  0.25140600  0.75046800  1
  O  O13  1  0.25140600  0.74859400  0.75046800  1
  O  O14  1  0.74859400  0.74859400  0.75046800  1
  O  O15  1  0.28267200  0.00000000  0.99417500  1
  O  O16  1  0.71732800  0.00000000  0.99417500  1
  O  O17  1  0.26113500  0.50000000  0.99932300  1
  O  O18  1  0.73886500  0.50000000  0.99932300  1
  O  O19  1  0.26288500  0.00000000  0.50327600  1
  O  O20  1  0.73711500  0.00000000  0.50327600  1
  O  O21  1  0.25464900  0.50000000  0.49968600  1
  O  O22  1  0.74535100  0.50000000  0.49968600  1
  O  O23  1  0.00000000  0.28267200  0.99417500  1
  O  O24  1  0.50000000  0.26113500  0.99932300  1
  O  O25  1  0.00000000  0.71732800  0.99417500  1
  O  O26  1  0.50000000  0.73886500  0.99932300  1
  O  O27  1  0.00000000  0.26288500  0.50327600  1
  O  O28  1  0.50000000  0.25464900  0.49968600  1
  O  O29  1  0.00000000  0.73711500  0.50327600  1
  O  O30  1  0.50000000  0.74535100  0.49968600  1
loop_
_geom_bond_atom_site_label_1
_geom_bond_atom_site_label_2
_geom_bond_distance
_geom_bond_site_symmetry_2
Cs0 O15 2.516384 1_554
Cs0 O23 2.516384 1_554
Cs0 O16 2.516384 1_454
Cs0 O25 2.516384 1_544
Cs0 O3 2.775282 1_554
Hf0 O17 2.096701 1_555
Hf0 O24 2.096701 1_555
Hf0 O18 2.096701 1_555
Hf0 O26 2.096701 1_555
Hf0 O6 2.100262 1_555
Hf0 O2 2.124286 1_556
Mg0 O16 1.907628 1_555
Mg0 O15 1.907628 1_555
Mg0 O4 2.153482 1_555
Mg0 O0 2.248333 1_556
Mg0 O24 2.292505 1_555
Mg0 O26 2.292505 1_545
Mg1 O25 1.907628 1_555
Mg1 O23 1.907628 1_555
Mg1 O5 2.153482 1_555
Mg1 O1 2.248333 1_556
Mg1 O18 2.292505 1_455
Mg1 O17 2.292505 1_555
Mg2 O3 2.018919 1_555
Mg2 O27 2.311138 1_555
Mg2 O19 2.311138 1_555
Mg2 O29 2.311138 1_545
Mg2 O20 2.311138 1_455
Mg3 O20 2.081343 1_555
Mg3 O19 2.081343 1_555
Mg3 O4 2.083468 1_555
Mg3 O0 2.162718 1_555
Mg3 O28 2.235633 1_555
Mg3 O30 2.235633 1_545
Mg4 O29 2.081343 1_555
Mg4 O27 2.081343 1_555
Mg4 O5 2.083468 1_555
Mg4 O1 2.162718 1_555
Mg4 O21 2.235633 1_555
Mg4 O22 2.235633 1_455
Mg5 O28 2.153640 1_555
Mg5 O22 2.153640 1_555
Mg5 O30 2.153640 1_555
Mg5 O21 2.153640 1_555
Mg5 O6 2.195623 1_555
Mg5 O2 2.227829 1_555
Mg6 O11 2.141548 1_555
Mg6 O7 2.159060 1_556
Mg6 O15 2.191802 1_555
Mg6 O23 2.191802 1_555
Mg6 O17 2.223010 1_555
Mg6 O24 2.223010 1_555
Mg7 O12 2.141548 1_555
Mg7 O8 2.159060 1_556
Mg7 O16 2.191802 1_555
Mg7 O23 2.191802 1_655
Mg7 O18 2.223010 1_555
Mg7 O24 2.223010 1_555
Mg8 O13 2.141548 1_555
Mg8 O9 2.159060 1_556
Mg8 O25 2.191802 1_555
Mg8 O15 2.191802 1_565
Mg8 O26 2.223010 1_555
Mg8 O17 2.223010 1_555
Mg9 O14 2.141548 1_555
Mg9 O10 2.159060 1_556
Mg9 O16 2.191802 1_565
Mg9 O25 2.191802 1_655
Mg9 O26 2.223010 1_555
Mg9 O18 2.223010 1_555
Mg10 O11 2.156452 1_555
Mg10 O27 2.186167 1_555
Mg10 O19 2.186167 1_555
Mg10 O7 2.193481 1_555
Mg10 O21 2.206965 1_555
Mg10 O28 2.206965 1_555
Mg11 O12 2.156452 1_555
Mg11 O20 2.186167 1_555
Mg11 O27 2.186167 1_655
Mg11 O8 2.193481 1_555
Mg11 O28 2.206965 1_555
Mg11 O22 2.206965 1_555
Mg12 O13 2.156452 1_555
Mg12 O29 2.186167 1_555
Mg12 O19 2.186167 1_565
Mg12 O9 2.193481 1_555
Mg12 O21 2.206965 1_555
Mg12 O30 2.206965 1_555
Mg13 O14 2.156452 1_555
Mg13 O29 2.186167 1_655
Mg13 O20 2.186167 1_565
Mg13 O10 2.193481 1_555
Mg13 O30 2.206965 1_555
Mg13 O22 2.206965 1_555
Mg14 O0 2.071133 1_555
Mg14 O19 2.097938 1_555
Mg14 O7 2.222374 1_555
Mg14 O9 2.222374 1_545
Mg14 O15 2.310541 1_554
Mg15 O0 2.071133 1_555
Mg15 O20 2.097938 1_555
Mg15 O8 2.222374 1_555
Mg15 O10 2.222374 1_545
Mg15 O16 2.310541 1_554
Mg16 O21 2.101231 1_555
Mg16 O1 2.158112 1_555
Mg16 O9 2.173944 1_555
Mg16 O7 2.173944 1_555
Mg16 O17 2.231362 1_554
Mg16 O2 2.233742 1_555
Mg17 O22 2.101231 1_555
Mg17 O1 2.158112 1_655
Mg17 O10 2.173944 1_555
Mg17 O8 2.173944 1_555
Mg17 O18 2.231362 1_554
Mg17 O2 2.233742 1_555
Mg18 O19 2.106627 1_555
Mg18 O15 2.163322 1_555
Mg18 O3 2.191798 1_555
Mg18 O11 2.207169 1_555
Mg18 O13 2.207169 1_545
Mg18 O4 2.207444 1_555
Mg19 O20 2.106627 1_555
Mg19 O16 2.163322 1_555
Mg19 O3 2.191798 1_655
Mg19 O12 2.207169 1_555
Mg19 O14 2.207169 1_545
Mg19 O4 2.207444 1_555
Mg20 O21 2.102100 1_555
Mg20 O5 2.123996 1_555
Mg20 O13 2.184750 1_555
Mg20 O11 2.184750 1_555
Mg20 O17 2.228082 1_555
Mg20 O6 2.267651 1_555
Mg21 O22 2.102100 1_555
Mg21 O5 2.123996 1_655
Mg21 O14 2.184750 1_555
Mg21 O12 2.184750 1_555
Mg21 O18 2.228082 1_555
Mg21 O6 2.267651 1_555
Mg22 O1 2.071133 1_555
Mg22 O27 2.097938 1_555
Mg22 O7 2.222374 1_555
Mg22 O8 2.222374 1_455
Mg22 O23 2.310541 1_554
Mg23 O28 2.101231 1_555
Mg23 O0 2.158112 1_555
Mg23 O8 2.173944 1_555
Mg23 O7 2.173944 1_555
Mg23 O24 2.231362 1_554
Mg23 O2 2.233742 1_555
Mg24 O1 2.071133 1_555
Mg24 O29 2.097938 1_555
Mg24 O9 2.222374 1_555
Mg24 O10 2.222374 1_455
Mg24 O25 2.310541 1_554
Mg25 O30 2.101231 1_555
Mg25 O0 2.158112 1_565
Mg25 O10 2.173944 1_555
Mg25 O9 2.173944 1_555
Mg25 O26 2.231362 1_554
Mg25 O2 2.233742 1_555
Mg26 O27 2.106627 1_555
Mg26 O23 2.163322 1_555
Mg26 O3 2.191798 1_555
Mg26 O11 2.207169 1_555
Mg26 O12 2.207169 1_455
Mg26 O5 2.207444 1_555
Mg27 O28 2.102100 1_555
Mg27 O4 2.123996 1_555
Mg27 O12 2.184750 1_555
Mg27 O11 2.184750 1_555
Mg27 O24 2.228082 1_555
Mg27 O6 2.267651 1_555
Mg28 O29 2.106627 1_555
Mg28 O25 2.163322 1_555
Mg28 O3 2.191798 1_565
Mg28 O13 2.207169 1_555
Mg28 O14 2.207169 1_455
Mg28 O5 2.207444 1_555
Mg29 O30 2.102100 1_555
Mg29 O4 2.123996 1_565
Mg29 O14 2.184750 1_555
Mg29 O13 2.184750 1_555
Mg29 O26 2.228082 1_555
Mg29 O6 2.267651 1_555
