# generated using pymatgen
data_SrLaEuSbO6
_symmetry_space_group_name_H-M   'P 1'
_cell_length_a   5.90749204
_cell_length_b   6.08614590
_cell_length_c   8.50019046
_cell_angle_alpha   90.12170857
_cell_angle_beta   90.62727504
_cell_angle_gamma   89.97446534
_symmetry_Int_Tables_number   1
_chemical_formula_structural   SrLaEuSbO6
_chemical_formula_sum   'Sr2 La2 Eu2 Sb2 O12'
_cell_volume   305.59561268
_cell_formula_units_Z   2
loop_
 _symmetry_equiv_pos_site_id
 _symmetry_equiv_pos_as_xyz
  1  'x, y, z'
loop_
 _atom_site_type_symbol
 _atom_site_label
 _atom_site_symmetry_multiplicity
 _atom_site_fract_x
 _atom_site_fract_y
 _atom_site_fract_z
 _atom_site_occupancy
  Sr  Sr0  1  0.98568155  0.05231283  0.25138685  1
  Sr  Sr1  1  0.01431845  0.94768717  0.74861315  1
  La  La0  1  0.00000000  0.50000000  0.00000000  1
  La  La1  1  0.50000000  -0.00000000  0.50000000  1
  Eu  Eu0  1  0.51509151  0.55295105  0.24826768  1
  Eu  Eu1  1  0.48490849  0.44704895  0.75173232  1
  Sb  Sb0  1  0.50000000  -0.00000000  0.00000000  1
  Sb  Sb1  1  0.00000000  0.50000000  0.50000000  1
  O  O0  1  0.22366025  0.18341029  0.94682629  1
  O  O1  1  0.27744118  0.68082260  0.55641771  1
  O  O2  1  0.77633975  0.81658971  0.05317371  1
  O  O3  1  0.72255882  0.31917740  0.44358229  1
  O  O4  1  0.32652543  0.71961852  0.94413624  1
  O  O5  1  0.17659899  0.22239675  0.55488788  1
  O  O6  1  0.67347457  0.28038148  0.05586376  1
  O  O7  1  0.82340101  0.77760325  0.44511212  1
  O  O8  1  0.40191444  0.96228150  0.22686882  1
  O  O9  1  0.10655902  0.46746597  0.27339332  1
  O  O10  1  0.59808556  0.03771850  0.77313118  1
  O  O11  1  0.89344098  0.53253403  0.72660668  1
loop_
_geom_bond_atom_site_label_1
_geom_bond_atom_site_label_2
_geom_bond_distance
_geom_bond_site_symmetry_2
La0 O0 2.381125 1_554
La0 O2 2.381125 1_455
La0 O4 2.399573 1_554
La0 O6 2.399573 1_455
La0 O9 2.409518 1_555
La0 O11 2.409518 1_454
La1 O5 2.390448 1_555
La1 O7 2.390448 1_545
La1 O10 2.397287 1_555
La1 O8 2.397287 1_545
La1 O1 2.398367 1_545
La1 O3 2.398367 1_555
Eu0 O9 2.480663 1_555
Eu0 O3 2.499332 1_555
Eu0 O6 2.514505 1_555
Eu0 O8 2.585378 1_555
Eu0 O2 2.788553 1_555
Eu0 O7 2.812846 1_555
Eu0 O4 2.983292 1_554
Eu0 O1 3.083576 1_555
Eu1 O11 2.480663 1_555
Eu1 O1 2.499332 1_555
Eu1 O4 2.514505 1_555
Eu1 O10 2.585378 1_555
Eu1 O0 2.788553 1_555
Eu1 O5 2.812846 1_555
Eu1 O6 2.983292 1_556
Eu1 O3 3.083576 1_555
O0 Sb0 2.024764 1_556
O0 Sr1 2.524283 1_545
O0 Sr0 3.066678 1_456
O1 Sb1 2.027196 1_555
O1 Sr1 2.786601 1_555
O2 Sb0 2.024764 1_565
O2 Sr0 2.524283 1_565
O2 Sr1 3.066678 1_654
O3 Sb1 2.027196 1_655
O3 Sr0 2.786601 1_555
O4 Sb0 2.043308 1_566
O4 Sr1 2.833896 1_555
O5 Sb1 2.037574 1_555
O5 Sr1 2.544345 1_545
O5 Sr0 2.987477 1_455
O6 Sb0 2.043308 1_555
O6 Sr0 2.833896 1_555
O7 Sb1 2.037574 1_655
O7 Sr0 2.544345 1_565
O7 Sr1 2.987477 1_655
O8 Sb0 2.033162 1_565
O8 Sr0 2.529696 1_465
O9 Sb1 2.042189 1_555
O9 Sr0 2.631674 1_455
O10 Sb0 2.033162 1_556
O10 Sr1 2.529696 1_645
O11 Sb1 2.042189 1_655
O11 Sr1 2.631674 1_655
