# generated using pymatgen
data_CdGa(AgSe2)2
_symmetry_space_group_name_H-M   'P 1'
_cell_length_a   7.10374000
_cell_length_b   7.48249500
_cell_length_c   8.15865900
_cell_angle_alpha   90.00000000
_cell_angle_beta   90.00000000
_cell_angle_gamma   90.00000000
_symmetry_Int_Tables_number   1
_chemical_formula_structural   CdGa(AgSe2)2
_chemical_formula_sum   'Cd2 Ga2 Ag4 Se8'
_cell_volume   433.66290499
_cell_formula_units_Z   2
loop_
 _symmetry_equiv_pos_site_id
 _symmetry_equiv_pos_as_xyz
  1  'x, y, z'
loop_
 _atom_site_type_symbol
 _atom_site_label
 _atom_site_symmetry_multiplicity
 _atom_site_fract_x
 _atom_site_fract_y
 _atom_site_fract_z
 _atom_site_occupancy
  Cd  Cd0  1  0.50828900  0.34996900  0.00000000  1
  Cd  Cd1  1  0.00828900  0.65003100  0.50000000  1
  Ga  Ga0  1  0.99740100  0.66953200  0.00000000  1
  Ga  Ga1  1  0.49740100  0.33046800  0.50000000  1
  Ag  Ag0  1  0.51657200  0.82657500  0.75221800  1
  Ag  Ag1  1  0.01657200  0.17342500  0.74778200  1
  Ag  Ag2  1  0.01657200  0.17342500  0.25221800  1
  Ag  Ag3  1  0.51657200  0.82657500  0.24778200  1
  Se  Se0  1  0.88899600  0.35786900  0.00000000  1
  Se  Se1  1  0.38899600  0.64213100  0.50000000  1
  Se  Se2  1  0.88865100  0.83524000  0.76099700  1
  Se  Se3  1  0.38865100  0.16476000  0.73900300  1
  Se  Se4  1  0.38865100  0.16476000  0.26099700  1
  Se  Se5  1  0.88865100  0.83524000  0.23900300  1
  Se  Se6  1  0.34736800  0.67402800  0.00000000  1
  Se  Se7  1  0.84736800  0.32597200  0.50000000  1
loop_
_geom_bond_atom_site_label_1
_geom_bond_atom_site_label_2
_geom_bond_distance
_geom_bond_site_symmetry_2
Cd0 Se4 2.679008 1_555
Cd0 Se3 2.679008 1_554
Cd0 Se6 2.680724 1_555
Cd0 Se0 2.705089 1_555
Cd1 Se2 2.679008 1_455
Cd1 Se5 2.679008 1_455
Cd1 Se7 2.680724 1_455
Cd1 Se1 2.705089 1_555
Ga0 Se5 2.436486 1_555
Ga0 Se2 2.436486 1_554
Ga0 Se0 2.455876 1_555
Ga0 Se6 2.486302 1_655
Ga1 Se3 2.436486 1_555
Ga1 Se4 2.436486 1_555
Ga1 Se1 2.455876 1_555
Ga1 Se7 2.486302 1_555
Ag0 Se6 2.614262 1_556
Ag0 Se1 2.638253 1_555
Ag0 Se2 2.644918 1_555
Ag0 Se3 2.690847 1_565
Ag1 Se7 2.614262 1_455
Ag1 Se0 2.638253 1_456
Ag1 Se3 2.644918 1_555
Ag1 Se2 2.690847 1_445
Ag2 Se7 2.614262 1_455
Ag2 Se0 2.638253 1_455
Ag2 Se4 2.644918 1_555
Ag2 Se5 2.690847 1_445
Ag3 Se6 2.614262 1_555
Ag3 Se1 2.638253 1_555
Ag3 Se5 2.644918 1_555
Ag3 Se4 2.690847 1_565
