# generated using pymatgen
data_CaCr4(HgO4)2
_symmetry_space_group_name_H-M   'P 1'
_cell_length_a   6.79788026
_cell_length_b   6.79664953
_cell_length_c   6.79672483
_cell_angle_alpha   54.56387926
_cell_angle_beta   54.55952254
_cell_angle_gamma   54.56074156
_symmetry_Int_Tables_number   1
_chemical_formula_structural   CaCr4(HgO4)2
_chemical_formula_sum   'Ca1 Cr4 Hg2 O8'
_cell_volume   193.90339964
_cell_formula_units_Z   1
loop_
 _symmetry_equiv_pos_site_id
 _symmetry_equiv_pos_as_xyz
  1  'x, y, z'
loop_
 _atom_site_type_symbol
 _atom_site_label
 _atom_site_symmetry_multiplicity
 _atom_site_fract_x
 _atom_site_fract_y
 _atom_site_fract_z
 _atom_site_occupancy
  Ca  Ca0  1  0.49999700  0.49998900  0.49998700  1
  Cr  Cr0  1  0.99999400  0.50001900  0.00000700  1
  Cr  Cr1  1  0.50002300  0.99999400  0.00000100  1
  Cr  Cr2  1  0.99999200  0.99999300  0.50001400  1
  Cr  Cr3  1  0.00001800  0.00003900  0.00005000  1
  Hg  Hg0  1  0.65976000  0.65978800  0.65965500  1
  Hg  Hg1  1  0.34023400  0.34021700  0.34030900  1
  O  O0  1  0.78405600  0.78398200  0.78401800  1
  O  O1  1  0.24075900  0.24070600  0.80431400  1
  O  O2  1  0.24072600  0.80432100  0.24066100  1
  O  O3  1  0.80450400  0.24056100  0.24056300  1
  O  O4  1  0.75926000  0.19569700  0.75930100  1
  O  O5  1  0.19552300  0.75942500  0.75940900  1
  O  O6  1  0.21593300  0.21598600  0.21600500  1
  O  O7  1  0.75922200  0.75928100  0.19570300  1
loop_
_geom_bond_atom_site_label_1
_geom_bond_atom_site_label_2
_geom_bond_distance
_geom_bond_site_symmetry_2
Ca0 O7 2.374188 1_555
Ca0 O1 2.374209 1_555
Ca0 O4 2.374523 1_555
Ca0 O2 2.374617 1_555
Ca0 O3 2.375401 1_555
Ca0 O5 2.375426 1_555
Cr0 O0 1.990720 1_554
Cr0 O6 1.990815 1_655
Cr0 O7 2.097987 1_555
Cr0 O1 2.098239 1_654
Cr0 O5 2.098339 1_654
Cr0 O3 2.098450 1_555
Cr1 O0 1.990777 1_554
Cr1 O6 1.990826 1_565
Cr1 O7 2.098118 1_555
Cr1 O4 2.098269 1_564
Cr1 O1 2.098384 1_564
Cr1 O2 2.098462 1_555
Cr2 O6 1.990733 1_665
Cr2 O0 1.990783 1_555
Cr2 O4 2.098171 1_565
Cr2 O5 2.098360 1_655
Cr2 O2 2.098364 1_655
Cr2 O3 2.098453 1_565
Cr3 O3 2.273892 1_455
Cr3 O5 2.275099 1_544
Cr3 O2 2.275513 1_545
Cr3 O1 2.275910 1_554
Cr3 O4 2.276633 1_454
Cr3 O7 2.276841 1_445
Hg0 O0 2.150268 1_555
Hg0 O7 2.538311 1_555
Hg0 O4 2.538787 1_555
Hg0 O5 2.539722 1_555
Hg1 O6 2.150170 1_555
Hg1 O1 2.538584 1_555
Hg1 O2 2.538849 1_555
Hg1 O3 2.539909 1_555
