# generated using pymatgen
data_Mg14ZrMn
_symmetry_space_group_name_H-M   'P 1'
_cell_length_a   6.38395609
_cell_length_b   6.27917689
_cell_length_c   10.13679360
_cell_angle_alpha   90.00000000
_cell_angle_beta   90.00000000
_cell_angle_gamma   119.45854015
_symmetry_Int_Tables_number   1
_chemical_formula_structural   Mg14ZrMn
_chemical_formula_sum   'Mg14 Zr1 Mn1'
_cell_volume   353.80799127
_cell_formula_units_Z   1
loop_
 _symmetry_equiv_pos_site_id
 _symmetry_equiv_pos_as_xyz
  1  'x, y, z'
loop_
 _atom_site_type_symbol
 _atom_site_label
 _atom_site_symmetry_multiplicity
 _atom_site_fract_x
 _atom_site_fract_y
 _atom_site_fract_z
 _atom_site_occupancy
  Mg  Mg0  1  0.16614937  0.33307419  0.62500000  1
  Mg  Mg1  1  0.16752351  0.83376125  0.62500000  1
  Mg  Mg2  1  0.66016094  0.33607497  0.12500000  1
  Mg  Mg3  1  0.66546001  0.33116669  0.62500000  1
  Mg  Mg4  1  0.66016094  0.82408497  0.12500000  1
  Mg  Mg5  1  0.66546001  0.83429232  0.62500000  1
  Mg  Mg6  1  0.32958362  0.16634976  0.36839721  1
  Mg  Mg7  1  0.32958362  0.16634976  0.88160279  1
  Mg  Mg8  1  0.32958362  0.66323485  0.36839721  1
  Mg  Mg9  1  0.32958362  0.66323485  0.88160279  1
  Mg  Mg10  1  0.84307520  0.17153810  0.36379902  1
  Mg  Mg11  1  0.84307520  0.17153810  0.88620098  1
  Mg  Mg12  1  0.83679173  0.66839636  0.37612891  1
  Mg  Mg13  1  0.83679173  0.66839636  0.87387109  1
  Zr  Zr0  1  0.15658833  0.82829367  0.12500000  1
  Mn  Mn0  1  0.18042856  0.34021378  0.12500000  1
loop_
_geom_bond_atom_site_label_1
_geom_bond_atom_site_label_2
_geom_bond_distance
_geom_bond_site_symmetry_2
Mg0 Mg1 3.139598 1_555
Mg0 Mg1 3.139598 1_545
Mg0 Mg6 3.166198 1_555
Mg0 Mg7 3.166198 1_555
Mg0 Mg9 3.166204 1_555
Mg0 Mg8 3.166204 1_555
Mg0 Mg5 3.190505 1_445
Mg0 Mg3 3.190505 1_455
Mg0 Mg5 3.193484 1_555
Mg0 Mg3 3.193485 1_555
Mg0 Mg10 3.199305 1_455
Mg0 Mg11 3.199305 1_455
Mg1 Mg12 3.121540 1_455
Mg1 Mg13 3.121540 1_455
Mg1 Mg8 3.173704 1_555
Mg1 Mg9 3.173704 1_555
Mg1 Mg7 3.173710 1_565
Mg1 Mg6 3.173710 1_565
Mg1 Mg3 3.177166 1_565
Mg1 Mg5 3.177166 1_555
Mg1 Mg3 3.206792 1_455
Mg1 Mg5 3.206793 1_455
Mg2 Mg4 3.064301 1_555
Mg2 Mn0 3.075455 1_555
Mg2 Mg7 3.076483 1_554
Mg2 Mg6 3.076483 1_555
Mg2 Zr0 3.156258 1_655
Mg2 Mg4 3.214876 1_545
Mg2 Zr0 3.227864 1_545
Mg2 Mn0 3.308662 1_655
Mg3 Mg5 3.119962 1_545
Mg3 Mg5 3.159215 1_555
Mg3 Mg7 3.201865 1_555
Mg3 Mg6 3.201865 1_555
Mg4 Mn0 3.075454 1_555
Mg4 Mg8 3.076483 1_555
Mg4 Mg9 3.076483 1_554
Mg4 Zr0 3.156258 1_655
Mg4 Zr0 3.227864 1_555
Mg4 Mn0 3.308662 1_665
Mg5 Mg8 3.201865 1_555
Mg5 Mg9 3.201865 1_555
Mg6 Mn0 3.034539 1_555
Mg6 Zr0 3.083370 1_545
Mg6 Mg8 3.120029 1_555
Mg6 Mg8 3.159148 1_545
Mg7 Mn0 3.034539 1_556
Mg7 Zr0 3.083370 1_546
Mg7 Mg9 3.120029 1_555
Mg7 Mg9 3.159148 1_545
Mg8 Mn0 3.034545 1_555
Mg8 Zr0 3.083364 1_555
Mg9 Mn0 3.034545 1_556
Mg9 Zr0 3.083364 1_556
Mg10 Mn0 3.062022 1_655
Mg10 Mg2 3.078503 1_555
Mg10 Mg4 3.078510 1_545
Mg10 Mg8 3.122347 1_655
Mg10 Mg6 3.122347 1_655
Mg10 Mg12 3.142269 1_555
Mg10 Mg12 3.142269 1_545
Mg10 Mg3 3.227815 1_555
Mg10 Mg5 3.227821 1_545
Mg10 Mg8 3.262542 1_545
Mg10 Mg6 3.262542 1_555
Mg11 Mn0 3.062022 1_656
Mg11 Mg2 3.078503 1_556
Mg11 Mg4 3.078510 1_546
Mg11 Mg9 3.122347 1_655
Mg11 Mg7 3.122347 1_655
Mg11 Mg13 3.142269 1_555
Mg11 Mg13 3.142269 1_545
Mg11 Mg3 3.227815 1_555
Mg11 Mg5 3.227821 1_545
Mg11 Mg9 3.262542 1_545
Mg11 Mg7 3.262542 1_555
Mg12 Zr0 3.104869 1_655
Mg12 Mg5 3.125128 1_555
Mg12 Mg3 3.125134 1_555
Mg12 Mg4 3.129173 1_555
Mg12 Mg2 3.129179 1_555
Mg12 Mg6 3.162998 1_665
Mg12 Mg8 3.162998 1_655
Mg12 Mg6 3.223132 1_555
Mg12 Mg8 3.223132 1_555
Mg13 Zr0 3.104869 1_656
Mg13 Mg5 3.125128 1_555
Mg13 Mg3 3.125134 1_555
Mg13 Mg4 3.129173 1_556
Mg13 Mg2 3.129179 1_556
Mg13 Mg7 3.162998 1_665
Mg13 Mg9 3.162998 1_655
Mg13 Mg7 3.223132 1_555
Mg13 Mg9 3.223132 1_555
Mn0 Zr0 3.142384 1_545
Mn0 Zr0 3.142384 1_555
