# generated using pymatgen
data_ZnBi2O5
_symmetry_space_group_name_H-M   'P 1'
_cell_length_a   11.80711600
_cell_length_b   5.49137000
_cell_length_c   8.91857934
_cell_angle_alpha   68.18394328
_cell_angle_beta   90.00000000
_cell_angle_gamma   90.00000000
_symmetry_Int_Tables_number   1
_chemical_formula_structural   ZnBi2O5
_chemical_formula_sum   'Zn4 Bi8 O20'
_cell_volume   536.84238370
_cell_formula_units_Z   4
loop_
 _symmetry_equiv_pos_site_id
 _symmetry_equiv_pos_as_xyz
  1  'x, y, z'
loop_
 _atom_site_type_symbol
 _atom_site_label
 _atom_site_symmetry_multiplicity
 _atom_site_fract_x
 _atom_site_fract_y
 _atom_site_fract_z
 _atom_site_occupancy
  Zn  Zn0  1  0.08942700  0.53792700  0.85130300  1
  Zn  Zn1  1  0.91057300  0.46207300  0.14869700  1
  Zn  Zn2  1  0.58942700  0.46207300  0.64869700  1
  Zn  Zn3  1  0.41057300  0.53792700  0.35130300  1
  Bi  Bi0  1  0.38504700  0.15211900  0.05531400  1
  Bi  Bi1  1  0.61495300  0.84788100  0.94468600  1
  Bi  Bi2  1  0.88504700  0.84788100  0.44468600  1
  Bi  Bi3  1  0.11495300  0.15211900  0.55531400  1
  Bi  Bi4  1  0.89458300  0.06301900  0.85072000  1
  Bi  Bi5  1  0.10541700  0.93698100  0.14928000  1
  Bi  Bi6  1  0.60541700  0.06301900  0.35072000  1
  Bi  Bi7  1  0.39458300  0.93698100  0.64928000  1
  O  O0  1  0.95359200  0.88495900  0.65418200  1
  O  O1  1  0.03826400  0.35497600  0.68358100  1
  O  O2  1  0.80737000  0.18827700  0.29325300  1
  O  O3  1  0.48063200  0.74768800  0.48990500  1
  O  O4  1  0.71792000  0.71926200  0.51962300  1
  O  O5  1  0.78208000  0.71926200  0.01962300  1
  O  O6  1  0.46173600  0.35497600  0.18358100  1
  O  O7  1  0.53826400  0.64502400  0.81641900  1
  O  O8  1  0.51936800  0.25231200  0.51009500  1
  O  O9  1  0.45359200  0.11504100  0.84581800  1
  O  O10  1  0.28208000  0.28073800  0.48037700  1
  O  O11  1  0.04640800  0.11504100  0.34581800  1
  O  O12  1  0.54640800  0.88495900  0.15418200  1
  O  O13  1  0.21792000  0.28073800  0.98037700  1
  O  O14  1  0.98063200  0.25231200  0.01009500  1
  O  O15  1  0.01936800  0.74768800  0.98990500  1
  O  O16  1  0.19263000  0.81172300  0.70674700  1
  O  O17  1  0.96173600  0.64502400  0.31641900  1
  O  O18  1  0.30737000  0.81172300  0.20674700  1
  O  O19  1  0.69263000  0.18827700  0.79325300  1
loop_
_geom_bond_atom_site_label_1
_geom_bond_atom_site_label_2
_geom_bond_distance
_geom_bond_site_symmetry_2
Bi0 O18 2.069508 1_545
Bi0 O6 2.077642 1_555
Bi0 O9 2.114273 1_554
Bi0 O13 2.118617 1_554
Bi0 O12 2.366040 1_545
Bi1 O19 2.069508 1_565
Bi1 O7 2.077642 1_555
Bi1 O12 2.114273 1_556
Bi1 O5 2.118617 1_556
Bi1 O9 2.366040 1_565
Bi2 O2 2.069508 1_565
Bi2 O17 2.077642 1_555
Bi2 O0 2.114273 1_555
Bi2 O4 2.118617 1_555
Bi2 O11 2.366040 1_665
Bi3 O16 2.069508 1_545
Bi3 O1 2.077642 1_555
Bi3 O11 2.114273 1_555
Bi3 O10 2.118617 1_555
Bi3 O0 2.366040 1_445
Bi4 O15 2.261080 1_645
Bi4 O14 2.287202 1_556
Bi4 O5 2.341695 1_546
Bi4 O0 2.405791 1_545
Bi4 O1 2.427776 1_655
Bi4 O19 2.481841 1_555
Bi5 O14 2.261080 1_465
Bi5 O15 2.287202 1_554
Bi5 O13 2.341695 1_564
Bi5 O11 2.405791 1_565
Bi5 O17 2.427776 1_455
Bi5 O18 2.481841 1_555
Bi6 O3 2.261080 1_545
Bi6 O8 2.287202 1_555
Bi6 O4 2.341695 1_545
Bi6 O12 2.405791 1_545
Bi6 O6 2.427776 1_555
Bi6 O2 2.481841 1_555
Bi7 O8 2.261080 1_565
Bi7 O3 2.287202 1_555
Bi7 O10 2.341695 1_565
Bi7 O9 2.405791 1_565
Bi7 O7 2.427776 1_555
Bi7 O16 2.481841 1_555
O1 Zn0 2.174570 1_555
O2 Zn1 1.991678 1_555
O3 Zn2 2.112989 1_555
O3 Zn3 2.144153 1_555
O4 Zn2 2.100741 1_555
O5 Zn1 2.100741 1_555
O6 Zn3 2.174570 1_555
O7 Zn2 2.174570 1_555
O8 Zn3 2.112989 1_555
O8 Zn2 2.144153 1_555
O10 Zn3 2.100741 1_555
O13 Zn0 2.100741 1_555
O14 Zn0 2.112989 1_654
O14 Zn1 2.144153 1_555
O15 Zn1 2.112989 1_456
O15 Zn0 2.144153 1_555
O16 Zn0 1.991678 1_555
O17 Zn1 2.174570 1_555
O18 Zn3 1.991678 1_555
O19 Zn2 1.991678 1_555
