# generated using pymatgen
data_LiV(SiO3)2
_symmetry_space_group_name_H-M   'P 1'
_cell_length_a   5.31848735
_cell_length_b   6.45267639
_cell_length_c   6.45219045
_cell_angle_alpha   83.49396820
_cell_angle_beta   75.27010662
_cell_angle_gamma   75.26112600
_symmetry_Int_Tables_number   1
_chemical_formula_structural   LiV(SiO3)2
_chemical_formula_sum   'Li2 V2 Si4 O12'
_cell_volume   206.82552302
_cell_formula_units_Z   2
loop_
 _symmetry_equiv_pos_site_id
 _symmetry_equiv_pos_as_xyz
  1  'x, y, z'
loop_
 _atom_site_type_symbol
 _atom_site_label
 _atom_site_symmetry_multiplicity
 _atom_site_fract_x
 _atom_site_fract_y
 _atom_site_fract_z
 _atom_site_occupancy
  Li  Li0  1  0.75013520  0.25860950  0.74163198  1
  Li  Li1  1  0.25011153  0.74159259  0.25855812  1
  V  V0  1  0.75021624  0.90438536  0.09539883  1
  V  V1  1  0.25014819  0.09552883  0.90456480  1
  Si  Si0  1  0.77265604  0.79314683  0.61292176  1
  Si  Si1  1  0.22712992  0.20690914  0.38703774  1
  Si  Si2  1  0.27266315  0.61295583  0.79313416  1
  Si  Si3  1  0.72711876  0.38698442  0.20687856  1
  O  O0  1  0.15798642  0.79688546  0.96967870  1
  O  O1  1  0.43716518  0.35928451  0.35181538  1
  O  O2  1  0.06195293  0.64754170  0.64142659  1
  O  O3  1  0.56194664  0.64145605  0.64754591  1
  O  O4  1  0.93715289  0.35182676  0.35928360  1
  O  O5  1  0.16938893  0.11123130  0.62951957  1
  O  O6  1  0.84216625  0.20300371  0.03037738  1
  O  O7  1  0.65802601  0.96974200  0.79683388  1
  O  O8  1  0.33125590  0.37046042  0.88874075  1
  O  O9  1  0.83128516  0.88869479  0.37040964  1
  O  O10  1  0.66933883  0.62942681  0.11111641  1
  O  O11  1  0.34215783  0.03032900  0.20312623  1
loop_
_geom_bond_atom_site_label_1
_geom_bond_atom_site_label_2
_geom_bond_distance
_geom_bond_site_symmetry_2
Li0 O6 2.015468 1_556
Li0 O7 2.016598 1_545
Li0 O8 2.155629 1_555
Li0 O5 2.157849 1_655
Li0 O4 2.481428 1_555
Li0 O3 2.486786 1_555
Li1 O11 2.015652 1_565
Li1 O0 2.016498 1_554
Li1 O9 2.155358 1_455
Li1 O10 2.157889 1_555
Li1 O1 2.481267 1_555
Li1 O2 2.486859 1_555
O0 Si2 1.631830 1_555
O0 V0 2.076046 1_456
O0 V1 2.079114 1_565
O1 Si1 1.626457 1_555
O1 Si3 1.628989 1_555
O2 Si2 1.626312 1_555
O2 Si0 1.628836 1_455
O3 Si0 1.626383 1_555
O3 Si2 1.628875 1_555
O4 Si3 1.626457 1_555
O4 Si1 1.629011 1_655
O5 Si1 1.598905 1_555
O5 V1 1.915421 1_555
O6 Si3 1.631896 1_555
O6 V1 2.077094 1_654
O6 V0 2.078463 1_545
O7 Si0 1.631969 1_555
O7 V1 2.076762 1_565
O7 V0 2.078526 1_556
O8 Si2 1.599053 1_555
O8 V1 1.915643 1_555
O9 Si0 1.599009 1_555
O9 V0 1.915948 1_555
O10 Si3 1.598891 1_555
O10 V0 1.915340 1_555
O11 Si1 1.631925 1_555
O11 V0 2.077751 1_545
O11 V1 2.078063 1_554
