# generated using pymatgen
data_RbSO2
_symmetry_space_group_name_H-M   'P 1'
_cell_length_a   6.46027300
_cell_length_b   8.17114200
_cell_length_c   7.46510100
_cell_angle_alpha   90.00000000
_cell_angle_beta   90.00000000
_cell_angle_gamma   90.00000000
_symmetry_Int_Tables_number   1
_chemical_formula_structural   RbSO2
_chemical_formula_sum   'Rb4 S4 O8'
_cell_volume   394.06631860
_cell_formula_units_Z   4
loop_
 _symmetry_equiv_pos_site_id
 _symmetry_equiv_pos_as_xyz
  1  'x, y, z'
loop_
 _atom_site_type_symbol
 _atom_site_label
 _atom_site_symmetry_multiplicity
 _atom_site_fract_x
 _atom_site_fract_y
 _atom_site_fract_z
 _atom_site_occupancy
  Rb  Rb0  1  0.75000000  0.85716500  0.35783900  1
  Rb  Rb1  1  0.25000000  0.14283500  0.64216100  1
  Rb  Rb2  1  0.25000000  0.64283500  0.85783900  1
  Rb  Rb3  1  0.75000000  0.35716500  0.14216100  1
  S  S0  1  0.75000000  0.89479100  0.84885700  1
  S  S1  1  0.25000000  0.10520900  0.15114300  1
  S  S2  1  0.25000000  0.60520900  0.34885700  1
  S  S3  1  0.75000000  0.39479100  0.65114300  1
  O  O0  1  0.94566600  0.88930300  0.73393900  1
  O  O1  1  0.05433400  0.11069700  0.26606100  1
  O  O2  1  0.05433400  0.61069700  0.23393900  1
  O  O3  1  0.44566600  0.11069700  0.26606100  1
  O  O4  1  0.94566600  0.38930300  0.76606100  1
  O  O5  1  0.55433400  0.88930300  0.73393900  1
  O  O6  1  0.55433400  0.38930300  0.76606100  1
  O  O7  1  0.44566600  0.61069700  0.23393900  1
loop_
_geom_bond_atom_site_label_1
_geom_bond_atom_site_label_2
_geom_bond_distance
_geom_bond_site_symmetry_2
O0 S0 1.528331 1_555
O0 Rb1 2.937107 1_665
O0 Rb2 2.962576 1_655
O0 Rb0 3.090235 1_555
O1 S1 1.528331 1_555
O1 Rb0 2.937107 1_445
O1 Rb3 2.962576 1_455
O1 Rb1 3.090235 1_555
O2 S2 1.528331 1_555
O2 Rb3 2.937107 1_455
O2 Rb0 2.962576 1_455
O2 Rb2 3.090235 1_554
O3 S1 1.528331 1_555
O3 Rb0 2.937107 1_545
O3 Rb3 2.962576 1_555
O3 Rb1 3.090235 1_555
O4 S3 1.528331 1_555
O4 Rb2 2.937107 1_655
O4 Rb1 2.962576 1_655
O4 Rb3 3.090235 1_556
O5 S0 1.528331 1_555
O5 Rb1 2.937107 1_565
O5 Rb2 2.962576 1_555
O5 Rb0 3.090235 1_555
O6 S3 1.528331 1_555
O6 Rb2 2.937107 1_555
O6 Rb1 2.962576 1_555
O6 Rb3 3.090235 1_556
O7 S2 1.528331 1_555
O7 Rb3 2.937107 1_555
O7 Rb0 2.962576 1_555
O7 Rb2 3.090235 1_554
