# generated using pymatgen
data_RbMg14TiO16
_symmetry_space_group_name_H-M   'P 1'
_cell_length_a   8.70865111
_cell_length_b   8.64579951
_cell_length_c   4.46952187
_cell_angle_alpha   90.00000000
_cell_angle_beta   90.00000000
_cell_angle_gamma   90.00000000
_symmetry_Int_Tables_number   1
_chemical_formula_structural   RbMg14TiO16
_chemical_formula_sum   'Rb1 Mg14 Ti1 O16'
_cell_volume   336.52483424
_cell_formula_units_Z   1
loop_
 _symmetry_equiv_pos_site_id
 _symmetry_equiv_pos_as_xyz
  1  'x, y, z'
loop_
 _atom_site_type_symbol
 _atom_site_label
 _atom_site_symmetry_multiplicity
 _atom_site_fract_x
 _atom_site_fract_y
 _atom_site_fract_z
 _atom_site_occupancy
  Rb  Rb0  1  -0.00000000  0.50000000  0.00000000  1
  Mg  Mg0  1  0.50000000  0.00000000  0.00000000  1
  Mg  Mg1  1  0.50000000  0.50000000  0.00000000  1
  Mg  Mg2  1  -0.00000000  0.25298108  0.50000000  1
  Mg  Mg3  1  -0.00000000  0.74701892  0.50000000  1
  Mg  Mg4  1  0.50000000  0.25079217  0.50000000  1
  Mg  Mg5  1  0.50000000  0.74920783  0.50000000  1
  Mg  Mg6  1  0.25224287  0.00000000  0.50000000  1
  Mg  Mg7  1  0.25482162  0.50000000  0.50000000  1
  Mg  Mg8  1  0.74775713  0.00000000  0.50000000  1
  Mg  Mg9  1  0.74517838  0.50000000  0.50000000  1
  Mg  Mg10  1  0.25898990  0.25153962  -0.00000000  1
  Mg  Mg11  1  0.25898990  0.74846038  -0.00000000  1
  Mg  Mg12  1  0.74101010  0.25153962  0.00000000  1
  Mg  Mg13  1  0.74101010  0.74846038  0.00000000  1
  Ti  Ti0  1  -0.00000000  0.00000000  0.00000000  1
  O  O0  1  0.25232931  0.00000000  0.00000000  1
  O  O1  1  0.28059140  0.50000000  0.00000000  1
  O  O2  1  0.74767069  0.00000000  0.00000000  1
  O  O3  1  0.71940860  0.50000000  0.00000000  1
  O  O4  1  0.24881904  0.24898835  0.50000000  1
  O  O5  1  0.24881904  0.75101165  0.50000000  1
  O  O6  1  0.75118096  0.24898835  0.50000000  1
  O  O7  1  0.75118096  0.75101165  0.50000000  1
  O  O8  1  -0.00000000  0.00000000  0.50000000  1
  O  O9  1  -0.00000000  0.50000000  0.50000000  1
  O  O10  1  0.50000000  0.00000000  0.50000000  1
  O  O11  1  0.50000000  0.50000000  0.50000000  1
  O  O12  1  -0.00000000  0.21804732  -0.00000000  1
  O  O13  1  -0.00000000  0.78195268  0.00000000  1
  O  O14  1  0.50000000  0.24157666  0.00000000  1
  O  O15  1  0.50000000  0.75842334  0.00000000  1
loop_
_geom_bond_atom_site_label_1
_geom_bond_atom_site_label_2
_geom_bond_distance
_geom_bond_site_symmetry_2
Mg0 O15 2.088623 1_545
Mg0 O14 2.088623 1_555
Mg0 O2 2.156878 1_555
Mg0 O0 2.156878 1_555
Mg0 O10 2.234761 1_555
Mg0 O10 2.234761 1_554
Mg1 O3 1.910753 1_555
Mg1 O1 1.910753 1_555
Mg1 O14 2.234276 1_555
Mg1 O15 2.234276 1_555
Mg1 O11 2.234761 1_554
Mg1 O11 2.234761 1_555
Mg2 O9 2.135676 1_555
Mg2 O4 2.167153 1_555
Mg2 O6 2.167153 1_455
Mg2 O8 2.187224 1_555
Mg2 O12 2.255078 1_556
Mg2 O12 2.255078 1_555
Mg3 O9 2.135676 1_555
Mg3 O5 2.167153 1_555
Mg3 O7 2.167153 1_455
Mg3 O8 2.187224 1_565
Mg3 O13 2.255078 1_555
Mg3 O13 2.255078 1_556
Mg4 O11 2.154601 1_555
Mg4 O10 2.168299 1_555
Mg4 O6 2.187503 1_555
Mg4 O4 2.187503 1_555
Mg4 O14 2.236181 1_555
Mg4 O14 2.236181 1_556
Mg5 O11 2.154601 1_555
Mg5 O10 2.168299 1_565
Mg5 O7 2.187503 1_555
Mg5 O5 2.187503 1_555
Mg5 O15 2.236181 1_555
Mg5 O15 2.236181 1_556
Mg6 O5 2.152910 1_545
Mg6 O4 2.152910 1_555
Mg6 O10 2.157630 1_555
Mg6 O8 2.196695 1_555
Mg6 O0 2.234761 1_555
Mg6 O0 2.234761 1_556
Mg7 O11 2.135173 1_555
Mg7 O4 2.170826 1_555
Mg7 O5 2.170826 1_555
Mg7 O9 2.219153 1_555
Mg7 O1 2.246001 1_556
Mg7 O1 2.246001 1_555
Mg8 O7 2.152910 1_545
Mg8 O6 2.152910 1_555
Mg8 O10 2.157630 1_555
Mg8 O8 2.196695 1_655
Mg8 O2 2.234761 1_556
Mg8 O2 2.234761 1_555
Mg9 O11 2.135173 1_555
Mg9 O6 2.170826 1_555
Mg9 O7 2.170826 1_555
Mg9 O9 2.219153 1_655
Mg9 O3 2.246001 1_556
Mg9 O3 2.246001 1_555
Mg10 O14 2.100640 1_555
Mg10 O1 2.156360 1_555
Mg10 O0 2.175535 1_555
Mg10 O4 2.236624 1_554
Mg10 O4 2.236624 1_555
Mg10 O12 2.273965 1_555
Mg11 O15 2.100640 1_555
Mg11 O1 2.156360 1_555
Mg11 O0 2.175535 1_565
Mg11 O5 2.236624 1_554
Mg11 O5 2.236624 1_555
Mg11 O13 2.273965 1_555
Mg12 O14 2.100640 1_555
Mg12 O3 2.156360 1_555
Mg12 O2 2.175535 1_555
Mg12 O6 2.236624 1_555
Mg12 O6 2.236624 1_554
Mg12 O12 2.273965 1_655
Mg13 O15 2.100640 1_555
Mg13 O3 2.156360 1_555
Mg13 O2 2.175535 1_565
Mg13 O7 2.236624 1_555
Mg13 O7 2.236624 1_554
Mg13 O13 2.273965 1_655
O0 Ti0 2.197448 1_555
O1 Rb0 2.443573 1_555
O2 Ti0 2.197448 1_655
O3 Rb0 2.443573 1_655
O8 Ti0 2.234761 1_555
O8 Ti0 2.234761 1_556
O9 Rb0 2.234761 1_555
O9 Rb0 2.234761 1_556
O12 Ti0 1.885193 1_555
O12 Rb0 2.437706 1_555
O13 Ti0 1.885193 1_565
O13 Rb0 2.437706 1_555
