# generated using pymatgen
data_Li8PO3
_symmetry_space_group_name_H-M   'P 1'
_cell_length_a   5.03409900
_cell_length_b   5.03409900
_cell_length_c   5.03409900
_cell_angle_alpha   90.00000000
_cell_angle_beta   90.00000000
_cell_angle_gamma   90.00000000
_symmetry_Int_Tables_number   1
_chemical_formula_structural   Li8PO3
_chemical_formula_sum   'Li8 P1 O3'
_cell_volume   127.57490578
_cell_formula_units_Z   1
loop_
 _symmetry_equiv_pos_site_id
 _symmetry_equiv_pos_as_xyz
  1  'x, y, z'
loop_
 _atom_site_type_symbol
 _atom_site_label
 _atom_site_symmetry_multiplicity
 _atom_site_fract_x
 _atom_site_fract_y
 _atom_site_fract_z
 _atom_site_occupancy
  Li  Li0  1  0.26612700  0.26612700  0.26612700  1
  Li  Li1  1  0.73387300  0.73387300  0.26612700  1
  Li  Li2  1  0.73387300  0.26612700  0.73387300  1
  Li  Li3  1  0.26612700  0.73387300  0.73387300  1
  Li  Li4  1  0.26612700  0.26612700  0.73387300  1
  Li  Li5  1  0.73387300  0.73387300  0.73387300  1
  Li  Li6  1  0.73387300  0.26612700  0.26612700  1
  Li  Li7  1  0.26612700  0.73387300  0.26612700  1
  P  P0  1  0.00000000  0.00000000  0.00000000  1
  O  O0  1  0.00000000  0.50000000  0.50000000  1
  O  O1  1  0.50000000  0.50000000  0.00000000  1
  O  O2  1  0.50000000  0.00000000  0.50000000  1
loop_
_geom_bond_atom_site_label_1
_geom_bond_atom_site_label_2
_geom_bond_distance
_geom_bond_site_symmetry_2
Li0 O1 2.137073 1_555
Li0 O0 2.137073 1_555
Li0 O2 2.137073 1_555
Li0 P0 2.320445 1_555
Li1 O1 2.137073 1_555
Li1 O0 2.137073 1_655
Li1 O2 2.137073 1_565
Li1 P0 2.320445 1_665
Li2 O1 2.137073 1_556
Li2 O0 2.137073 1_655
Li2 O2 2.137073 1_555
Li2 P0 2.320445 1_656
Li3 O1 2.137073 1_556
Li3 O0 2.137073 1_555
Li3 O2 2.137073 1_565
Li3 P0 2.320445 1_566
Li4 O1 2.137073 1_556
Li4 O0 2.137073 1_555
Li4 O2 2.137073 1_555
Li4 P0 2.320445 1_556
Li5 O1 2.137073 1_556
Li5 O2 2.137073 1_565
Li5 O0 2.137073 1_655
Li5 P0 2.320445 1_666
Li6 O1 2.137073 1_555
Li6 O0 2.137073 1_655
Li6 O2 2.137073 1_555
Li6 P0 2.320445 1_655
Li7 O1 2.137073 1_555
Li7 O0 2.137073 1_555
Li7 O2 2.137073 1_565
Li7 P0 2.320445 1_565
