# generated using pymatgen
data_Ho3Sb4Au3
_symmetry_space_group_name_H-M   'P 1'
_cell_length_a   8.53594629
_cell_length_b   8.53594629
_cell_length_c   8.53594629
_cell_angle_alpha   109.47122063
_cell_angle_beta   109.47122063
_cell_angle_gamma   109.47122063
_symmetry_Int_Tables_number   1
_chemical_formula_structural   Ho3Sb4Au3
_chemical_formula_sum   'Ho6 Sb8 Au6'
_cell_volume   478.77683663
_cell_formula_units_Z   2
loop_
 _symmetry_equiv_pos_site_id
 _symmetry_equiv_pos_as_xyz
  1  'x, y, z'
loop_
 _atom_site_type_symbol
 _atom_site_label
 _atom_site_symmetry_multiplicity
 _atom_site_fract_x
 _atom_site_fract_y
 _atom_site_fract_z
 _atom_site_occupancy
  Ho  Ho0  1  0.25000000  0.12500000  0.87500000  1
  Ho  Ho1  1  0.75000000  0.37500000  0.62500000  1
  Ho  Ho2  1  0.87500000  0.25000000  0.12500000  1
  Ho  Ho3  1  0.12500000  0.87500000  0.25000000  1
  Ho  Ho4  1  0.62500000  0.75000000  0.37500000  1
  Ho  Ho5  1  0.37500000  0.62500000  0.75000000  1
  Sb  Sb0  1  0.32416947  0.32416947  0.32416947  1
  Sb  Sb1  1  0.50000000  0.00000000  0.17583053  1
  Sb  Sb2  1  0.17583053  0.50000000  0.00000000  1
  Sb  Sb3  1  0.00000000  0.17583053  0.50000000  1
  Sb  Sb4  1  0.82416947  0.82416947  0.82416947  1
  Sb  Sb5  1  0.50000000  0.00000000  0.67583053  1
  Sb  Sb6  1  -0.00000000  0.67583053  0.50000000  1
  Sb  Sb7  1  0.67583053  0.50000000  -0.00000000  1
  Au  Au0  1  0.37500000  0.25000000  0.62500000  1
  Au  Au1  1  0.75000000  0.87500000  0.12500000  1
  Au  Au2  1  0.25000000  0.62500000  0.37500000  1
  Au  Au3  1  0.62500000  0.37500000  0.25000000  1
  Au  Au4  1  0.12500000  0.75000000  0.87500000  1
  Au  Au5  1  0.87500000  0.12500000  0.75000000  1
loop_
_geom_bond_atom_site_label_1
_geom_bond_atom_site_label_2
_geom_bond_distance
_geom_bond_site_symmetry_2
Ho0 Sb2 3.363036 1_556
Ho0 Sb5 3.363036 1_555
Ho0 Sb6 3.363036 1_545
Ho0 Sb0 3.363036 1_556
Ho0 Sb3 3.460883 1_555
Ho0 Sb1 3.460883 1_556
Ho0 Sb7 3.460883 1_556
Ho0 Sb4 3.460883 1_445
Ho1 Sb3 3.363036 1_655
Ho1 Sb7 3.363036 1_556
Ho1 Sb1 3.363036 1_555
Ho1 Sb4 3.363036 1_555
Ho1 Sb0 3.460883 1_555
Ho1 Sb6 3.460883 1_655
Ho1 Sb5 3.460883 1_555
Ho1 Sb2 3.460883 1_656
Ho2 Sb7 3.363036 1_555
Ho2 Sb5 3.363036 1_554
Ho2 Sb3 3.363036 1_655
Ho2 Sb0 3.363036 1_655
Ho2 Sb6 3.460883 1_655
Ho2 Sb4 3.460883 1_544
Ho2 Sb2 3.460883 1_655
Ho2 Sb1 3.460883 1_555
Ho3 Sb0 3.363036 1_565
Ho3 Sb6 3.363036 1_555
Ho3 Sb1 3.363036 1_565
Ho3 Sb7 3.363036 1_455
Ho3 Sb3 3.460883 1_565
Ho3 Sb4 3.460883 1_454
Ho3 Sb5 3.460883 1_565
Ho3 Sb2 3.460883 1_555
Ho4 Sb4 3.363036 1_555
Ho4 Sb2 3.363036 1_555
Ho4 Sb1 3.363036 1_565
Ho4 Sb6 3.363036 1_655
Ho4 Sb0 3.460883 1_555
Ho4 Sb5 3.460883 1_565
Ho4 Sb7 3.460883 1_555
Ho4 Sb3 3.460883 1_665
Ho5 Sb2 3.363036 1_556
Ho5 Sb3 3.363036 1_555
Ho5 Sb5 3.363036 1_565
Ho5 Sb4 3.363036 1_555
Ho5 Sb0 3.460883 1_555
Ho5 Sb6 3.460883 1_555
Ho5 Sb7 3.460883 1_556
Ho5 Sb1 3.460883 1_566
Au0 Sb0 2.776190 1_555
Au0 Sb5 2.776190 1_555
Au0 Sb3 2.776190 1_555
Au0 Sb7 2.776190 1_556
Au0 Ho3 3.017913 1_545
Au0 Ho0 3.017913 1_555
Au0 Ho1 3.017913 1_555
Au0 Ho5 3.017913 1_555
Au1 Sb7 2.776190 1_555
Au1 Sb1 2.776190 1_565
Au1 Sb4 2.776190 1_554
Au1 Sb3 2.776190 1_665
Au1 Ho3 3.017913 1_655
Au1 Ho5 3.017913 1_554
Au1 Ho4 3.017913 1_555
Au1 Ho2 3.017913 1_565
Au2 Sb0 2.776190 1_555
Au2 Sb6 2.776190 1_555
Au2 Sb5 2.776190 1_565
Au2 Sb2 2.776190 1_555
Au2 Ho2 3.017913 1_455
Au2 Ho3 3.017913 1_555
Au2 Ho4 3.017913 1_555
Au2 Ho5 3.017913 1_555
Au3 Sb0 2.776190 1_555
Au3 Sb6 2.776190 1_655
Au3 Sb7 2.776190 1_555
Au3 Sb1 2.776190 1_555
Au3 Ho0 3.017913 1_554
Au3 Ho4 3.017913 1_555
Au3 Ho2 3.017913 1_555
Au3 Ho1 3.017913 1_555
Au4 Sb2 2.776190 1_556
Au4 Sb1 2.776190 1_566
Au4 Sb6 2.776190 1_555
Au4 Sb4 2.776190 1_455
Au4 Ho0 3.017913 1_565
Au4 Ho5 3.017913 1_555
Au4 Ho1 3.017913 1_455
Au4 Ho3 3.017913 1_556
Au5 Sb5 2.776190 1_555
Au5 Sb2 2.776190 1_656
Au5 Sb3 2.776190 1_655
Au5 Sb4 2.776190 1_545
Au5 Ho2 3.017913 1_556
Au5 Ho4 3.017913 1_545
Au5 Ho1 3.017913 1_555
Au5 Ho0 3.017913 1_655
