# generated using pymatgen
data_BaPbF6
_symmetry_space_group_name_H-M   'P 1'
_cell_length_a   5.07302221
_cell_length_b   5.07302315
_cell_length_c   5.07302196
_cell_angle_alpha   97.24926959
_cell_angle_beta   97.24926140
_cell_angle_gamma   97.24926435
_symmetry_Int_Tables_number   1
_chemical_formula_structural   BaPbF6
_chemical_formula_sum   'Ba1 Pb1 F6'
_cell_volume   127.13150999
_cell_formula_units_Z   1
loop_
 _symmetry_equiv_pos_site_id
 _symmetry_equiv_pos_as_xyz
  1  'x, y, z'
loop_
 _atom_site_type_symbol
 _atom_site_label
 _atom_site_symmetry_multiplicity
 _atom_site_fract_x
 _atom_site_fract_y
 _atom_site_fract_z
 _atom_site_occupancy
  Ba  Ba0  1  0.50000000  0.50000000  0.50000000  1
  Pb  Pb0  1  -0.00000000  -0.00000000  -0.00000000  1
  F  F0  1  0.70400318  0.70400318  0.06818463  1
  F  F1  1  0.70400318  0.06818463  0.70400318  1
  F  F2  1  0.29599682  0.93181537  0.29599682  1
  F  F3  1  0.29599682  0.29599682  0.93181537  1
  F  F4  1  0.93181537  0.29599682  0.29599682  1
  F  F5  1  0.06818463  0.70400318  0.70400318  1
loop_
_geom_bond_atom_site_label_1
_geom_bond_atom_site_label_2
_geom_bond_distance
_geom_bond_site_symmetry_2
Ba0 F4 2.795506 1_555
Ba0 F5 2.795506 1_555
Ba0 F3 2.795506 1_555
Ba0 F0 2.795506 1_555
Ba0 F2 2.795507 1_555
Ba0 F1 2.795507 1_555
Ba0 F3 2.945236 1_554
Ba0 F0 2.945236 1_556
Ba0 F4 2.945236 1_455
Ba0 F5 2.945236 1_655
Ba0 F2 2.945236 1_545
Ba0 F1 2.945236 1_565
F0 Pb0 2.079029 1_665
F1 Pb0 2.079029 1_656
F2 Pb0 2.079029 1_565
F3 Pb0 2.079029 1_556
F4 Pb0 2.079029 1_655
F5 Pb0 2.079029 1_566
