# generated using pymatgen
data_CeSiGeRh2
_symmetry_space_group_name_H-M   'P 1'
_cell_length_a   5.92397610
_cell_length_b   5.92397610
_cell_length_c   5.92397610
_cell_angle_alpha   139.14803885
_cell_angle_beta   139.14803885
_cell_angle_gamma   59.14919448
_symmetry_Int_Tables_number   1
_chemical_formula_structural   CeSiGeRh2
_chemical_formula_sum   'Ce1 Si1 Ge1 Rh2'
_cell_volume   88.08859852
_cell_formula_units_Z   1
loop_
 _symmetry_equiv_pos_site_id
 _symmetry_equiv_pos_as_xyz
  1  'x, y, z'
loop_
 _atom_site_type_symbol
 _atom_site_label
 _atom_site_symmetry_multiplicity
 _atom_site_fract_x
 _atom_site_fract_y
 _atom_site_fract_z
 _atom_site_occupancy
  Ce  Ce0  1  0.99873400  0.99873400  0.00000000  1
  Si  Si0  1  0.37250100  0.37250100  0.00000000  1
  Ge  Ge0  1  0.61847800  0.61847800  0.00000000  1
  Rh  Rh0  1  0.75514400  0.25514400  0.50000000  1
  Rh  Rh1  1  0.25514400  0.75514400  0.50000000  1
loop_
_geom_bond_atom_site_label_1
_geom_bond_atom_site_label_2
_geom_bond_distance
_geom_bond_site_symmetry_2
Ce0 Ge0 3.173509 1_554
Ce0 Ge0 3.173509 1_565
Ce0 Ge0 3.173509 1_655
Ce0 Ge0 3.173509 1_666
Ce0 Si0 3.200100 1_554
Ce0 Si0 3.200100 1_565
Ce0 Si0 3.200100 1_655
Ce0 Si0 3.200100 1_666
Ce0 Rh0 3.251862 1_554
Ce0 Rh1 3.251862 1_554
Ce0 Rh1 3.251862 1_655
Ce0 Rh0 3.251862 1_565
Ce0 Rh1 3.354879 1_665
Ce0 Rh0 3.354879 1_665
Ce0 Rh1 3.354879 1_654
Ce0 Rh0 3.354879 1_564
Ge0 Rh0 2.501504 1_554
Ge0 Rh1 2.501504 1_554
Ge0 Rh1 2.501504 1_655
Ge0 Rh0 2.501504 1_565
Ge0 Si0 2.534628 1_555
Rh0 Si0 2.395145 1_555
Rh0 Si0 2.395145 1_656
Rh1 Si0 2.395145 1_555
Rh1 Si0 2.395145 1_566
