# generated using pymatgen
data_MgV6O5F19
_symmetry_space_group_name_H-M   'P 1'
_cell_length_a   5.48028183
_cell_length_b   5.39507650
_cell_length_c   15.43076901
_cell_angle_alpha   89.97418449
_cell_angle_beta   100.14024646
_cell_angle_gamma   90.78974010
_symmetry_Int_Tables_number   1
_chemical_formula_structural   MgV6O5F19
_chemical_formula_sum   'Mg1 V6 O5 F19'
_cell_volume   449.06438357
_cell_formula_units_Z   1
loop_
 _symmetry_equiv_pos_site_id
 _symmetry_equiv_pos_as_xyz
  1  'x, y, z'
loop_
 _atom_site_type_symbol
 _atom_site_label
 _atom_site_symmetry_multiplicity
 _atom_site_fract_x
 _atom_site_fract_y
 _atom_site_fract_z
 _atom_site_occupancy
  Mg  Mg0  1  0.32176900  0.76225900  0.15197500  1
  V  V0  1  0.03023800  0.96982500  0.98721400  1
  V  V1  1  0.14357200  0.47366700  0.34236100  1
  V  V2  1  0.26372200  0.03585100  0.66435600  1
  V  V3  1  0.53026900  0.47020600  0.99071400  1
  V  V4  1  0.67628700  0.00681700  0.34504500  1
  V  V5  1  0.76825800  0.48672100  0.66492700  1
  O  O0  1  0.02089300  0.21793200  0.64562000  1
  O  O1  1  0.52405600  0.29801800  0.64698100  1
  O  O2  1  0.73071400  0.24756200  0.99462600  1
  O  O3  1  0.26832800  0.76432800  0.00843000  1
  O  O4  1  0.89696100  0.26646300  0.32334100  1
  F  F0  1  0.23801700  0.26863700  0.96980500  1
  F  F1  1  0.12752000  0.74158100  0.68928500  1
  F  F2  1  0.09736000  0.04098400  0.11379400  1
  F  F3  1  0.24856200  0.45523100  0.45891900  1
  F  F4  1  0.38803700  0.08748900  0.77717200  1
  F  F5  1  0.12433100  0.57507300  0.21809200  1
  F  F6  1  0.29929000  0.93838900  0.55804000  1
  F  F7  1  0.48021700  0.56242200  0.88011700  1
  F  F8  1  0.39786200  0.23077700  0.32175400  1
  F  F9  1  0.44261900  0.73313300  0.34994700  1
  F  F10  1  0.62995500  0.77413800  0.68919400  1
  F  F11  1  0.51458500  0.47675700  0.11243600  1
  F  F12  1  0.71507600  0.05389200  0.45852300  1
  F  F13  1  0.89736700  0.43488300  0.77702200  1
  F  F14  1  0.60043000  0.93653700  0.22061100  1
  F  F15  1  0.80438400  0.57782400  0.55778500  1
  F  F16  1  0.89080300  0.96921600  0.87420500  1
  F  F17  1  0.77111500  0.73267800  0.01744800  1
  F  F18  1  0.94311500  0.77320600  0.35544600  1
loop_
_geom_bond_atom_site_label_1
_geom_bond_atom_site_label_2
_geom_bond_distance
_geom_bond_site_symmetry_2
Mg0 O3 2.182616 1_555
O0 V2 1.649193 1_555
O0 V5 2.075934 1_455
O1 V5 1.654201 1_555
O1 V2 2.046129 1_555
O2 V3 1.632829 1_555
O2 V0 2.255400 1_645
O3 V0 1.711132 1_554
O3 V3 2.203351 1_554
O4 V1 1.726651 1_655
O4 V4 1.905903 1_555
F0 V3 1.903222 1_555
F0 V0 2.006091 1_545
F1 V2 1.814804 1_565
F1 V5 2.360833 1_455
F2 V0 1.959996 1_544
F2 Mg0 1.978856 1_545
F3 V1 1.792446 1_555
F4 V2 1.774787 1_555
F5 Mg0 1.894507 1_555
F5 V1 1.979125 1_555
F6 V2 1.766930 1_565
F7 V3 1.753110 1_555
F8 V4 1.942848 1_555
F8 V1 1.991759 1_555
F9 V4 1.951319 1_565
F9 V1 2.128022 1_555
F10 V5 1.803337 1_555
F10 V2 2.444502 1_565
F11 V3 1.895654 1_554
F11 Mg0 2.033247 1_555
F12 V4 1.744626 1_555
F13 V5 1.773366 1_555
F14 V4 1.928383 1_565
F14 Mg0 1.931249 1_555
F15 V5 1.768039 1_555
F16 V0 1.776387 1_655
F17 V3 1.916982 1_554
F17 V0 2.013414 1_654
F18 V4 1.928866 1_565
F18 V1 1.996625 1_655
