# generated using pymatgen
data_BaNa6Th(CO4)6
_symmetry_space_group_name_H-M   'P 1'
_cell_length_a   8.52362932
_cell_length_b   8.52362932
_cell_length_c   8.52362924
_cell_angle_alpha   109.09798598
_cell_angle_beta   109.09798598
_cell_angle_gamma   109.09799065
_symmetry_Int_Tables_number   1
_chemical_formula_structural   BaNa6Th(CO4)6
_chemical_formula_sum   'Ba1 Na6 Th1 C6 O24'
_cell_volume   483.18240523
_cell_formula_units_Z   1
loop_
 _symmetry_equiv_pos_site_id
 _symmetry_equiv_pos_as_xyz
  1  'x, y, z'
loop_
 _atom_site_type_symbol
 _atom_site_label
 _atom_site_symmetry_multiplicity
 _atom_site_fract_x
 _atom_site_fract_y
 _atom_site_fract_z
 _atom_site_occupancy
  Ba  Ba0  1  0.50000000  0.50000000  0.50000000  1
  Na  Na0  1  0.95013200  0.19629800  0.46333200  1
  Na  Na1  1  0.19629800  0.46333200  0.95013200  1
  Na  Na2  1  0.46333200  0.95013200  0.19629800  1
  Na  Na3  1  0.04986800  0.80370200  0.53666800  1
  Na  Na4  1  0.80370200  0.53666800  0.04986800  1
  Na  Na5  1  0.53666800  0.04986800  0.80370200  1
  Th  Th0  1  0.00000000  0.00000000  0.00000000  1
  C  C0  1  0.01539900  0.37335500  0.21528300  1
  C  C1  1  0.37335500  0.21528300  0.01539900  1
  C  C2  1  0.21528300  0.01539900  0.37335500  1
  C  C3  1  0.98460100  0.62664500  0.78471700  1
  C  C4  1  0.62664500  0.78471700  0.98460100  1
  C  C5  1  0.78471700  0.98460100  0.62664500  1
  O  O0  1  0.29812700  0.03169500  0.93682800  1
  O  O1  1  0.03169500  0.93682800  0.29812700  1
  O  O2  1  0.93682800  0.29812700  0.03169500  1
  O  O3  1  0.70187300  0.96830500  0.06317200  1
  O  O4  1  0.96830500  0.06317200  0.70187300  1
  O  O5  1  0.06317200  0.70187300  0.96830500  1
  O  O6  1  0.28944800  0.29336000  0.09006900  1
  O  O7  1  0.29336000  0.09006900  0.28944800  1
  O  O8  1  0.09006900  0.28944800  0.29336000  1
  O  O9  1  0.71055200  0.70664000  0.90993100  1
  O  O10  1  0.70664000  0.90993100  0.71055200  1
  O  O11  1  0.90993100  0.71055200  0.70664000  1
  O  O12  1  0.98273500  0.47377000  0.68569600  1
  O  O13  1  0.47377000  0.68569600  0.98273500  1
  O  O14  1  0.68569600  0.98273500  0.47377000  1
  O  O15  1  0.01726500  0.52623000  0.31430400  1
  O  O16  1  0.52623000  0.31430400  0.01726500  1
  O  O17  1  0.31430400  0.01726500  0.52623000  1
  O  O18  1  0.27399600  0.67137500  0.60274400  1
  O  O19  1  0.67137500  0.60274400  0.27399600  1
  O  O20  1  0.60274400  0.27399600  0.67137500  1
  O  O21  1  0.72600400  0.32862500  0.39725600  1
  O  O22  1  0.32862500  0.39725600  0.72600400  1
  O  O23  1  0.39725600  0.72600400  0.32862500  1
loop_
_geom_bond_atom_site_label_1
_geom_bond_atom_site_label_2
_geom_bond_distance
_geom_bond_site_symmetry_2
Ba0 O11 2.886666 1_555
Ba0 O8 2.886666 1_555
Ba0 O7 2.886666 1_555
Ba0 O10 2.886666 1_555
Ba0 O6 2.886666 1_555
Ba0 O9 2.886666 1_555
Ba0 O22 2.952931 1_555
Ba0 O19 2.952931 1_555
Ba0 O23 2.952931 1_555
Ba0 O20 2.952931 1_555
Ba0 O21 2.952931 1_555
Ba0 O18 2.952931 1_555
Na0 O8 2.327200 1_655
Na0 O12 2.356922 1_555
Na0 O14 2.440122 1_545
Na0 O21 2.522014 1_555
Na0 O4 2.619975 1_555
Na0 O1 2.639378 1_645
Na0 O22 2.739082 1_655
Na0 O3 2.852494 1_545
Na1 O6 2.327200 1_556
Na1 O13 2.356922 1_555
Na1 O12 2.440122 1_455
Na1 O22 2.522014 1_555
Na1 O5 2.619975 1_555
Na1 O2 2.639378 1_456
Na1 O23 2.739082 1_556
Na1 O4 2.852494 1_455
Na2 O7 2.327200 1_565
Na2 O14 2.356922 1_555
Na2 O13 2.440122 1_554
Na2 O23 2.522014 1_555
Na2 O3 2.619975 1_555
Na2 O0 2.639378 1_564
Na2 O21 2.739082 1_565
Na2 O5 2.852494 1_554
Na3 O11 2.327200 1_455
Na3 O15 2.356922 1_555
Na3 O17 2.440122 1_565
Na3 O18 2.522014 1_555
Na3 O1 2.619975 1_555
Na3 O4 2.639378 1_465
Na3 O19 2.739082 1_455
Na3 O0 2.852494 1_565
Na4 O9 2.327200 1_554
Na4 O16 2.356922 1_555
Na4 O15 2.440122 1_655
Na4 O19 2.522014 1_555
Na4 O2 2.619975 1_555
Na4 O5 2.639378 1_654
Na4 O20 2.739082 1_554
Na4 O1 2.852494 1_655
Na5 O10 2.327200 1_545
Na5 O17 2.356922 1_555
Na5 O16 2.440122 1_556
Na5 O20 2.522014 1_555
Na5 O0 2.619975 1_555
Na5 O3 2.639378 1_546
Na5 O18 2.739082 1_545
Na5 O2 2.852494 1_556
C0 O15 1.291719 1_555
C0 O2 1.298081 1_455
C0 O8 1.300623 1_555
C1 O16 1.291719 1_555
C1 O0 1.298081 1_554
C1 O6 1.300623 1_555
C2 O17 1.291719 1_555
C2 O1 1.298081 1_545
C2 O7 1.300623 1_555
C3 O12 1.291719 1_555
C3 O5 1.298081 1_655
C3 O11 1.300623 1_555
C4 O13 1.291719 1_555
C4 O3 1.298081 1_556
C4 O9 1.300623 1_555
C5 O14 1.291719 1_555
C5 O4 1.298081 1_565
C5 O10 1.300623 1_555
O0 Th0 2.713218 1_556
O1 Th0 2.713218 1_565
O2 Th0 2.713218 1_655
O3 Th0 2.713218 1_665
O4 Th0 2.713218 1_656
O5 Th0 2.713218 1_566
O6 Th0 2.529074 1_555
O7 Th0 2.529074 1_555
O8 Th0 2.529074 1_555
O9 Th0 2.529074 1_666
O10 Th0 2.529074 1_666
O11 Th0 2.529074 1_666
