# generated using pymatgen
data_Rb(CrS2)2
_symmetry_space_group_name_H-M   'P 1'
_cell_length_a   13.18030800
_cell_length_b   3.45359200
_cell_length_c   14.84680600
_cell_angle_alpha   90.00000000
_cell_angle_beta   90.00000000
_cell_angle_gamma   90.00000000
_symmetry_Int_Tables_number   1
_chemical_formula_structural   Rb(CrS2)2
_chemical_formula_sum   'Rb4 Cr8 S16'
_cell_volume   675.81779407
_cell_formula_units_Z   4
loop_
 _symmetry_equiv_pos_site_id
 _symmetry_equiv_pos_as_xyz
  1  'x, y, z'
loop_
 _atom_site_type_symbol
 _atom_site_label
 _atom_site_symmetry_multiplicity
 _atom_site_fract_x
 _atom_site_fract_y
 _atom_site_fract_z
 _atom_site_occupancy
  Rb  Rb0  1  0.11158200  0.75000000  0.38481600  1
  Rb  Rb1  1  0.88841800  0.25000000  0.61518400  1
  Rb  Rb2  1  0.38841800  0.25000000  0.88481600  1
  Rb  Rb3  1  0.61158200  0.75000000  0.11518400  1
  Cr  Cr0  1  0.09142700  0.25000000  0.05483500  1
  Cr  Cr1  1  0.90857300  0.75000000  0.94516500  1
  Cr  Cr2  1  0.40857300  0.75000000  0.55483500  1
  Cr  Cr3  1  0.59142700  0.25000000  0.44516500  1
  Cr  Cr4  1  0.22125500  0.25000000  0.64221300  1
  Cr  Cr5  1  0.77874500  0.75000000  0.35778700  1
  Cr  Cr6  1  0.27874500  0.75000000  0.14221300  1
  Cr  Cr7  1  0.72125500  0.25000000  0.85778700  1
  S  S0  1  0.10608900  0.75000000  0.63243500  1
  S  S1  1  0.89391100  0.25000000  0.36756500  1
  S  S2  1  0.39391100  0.25000000  0.13243500  1
  S  S3  1  0.60608900  0.75000000  0.86756500  1
  S  S4  1  0.02190400  0.25000000  0.90824100  1
  S  S5  1  0.97809600  0.75000000  0.09175900  1
  S  S6  1  0.47809600  0.75000000  0.40824100  1
  S  S7  1  0.52190400  0.25000000  0.59175900  1
  S  S8  1  0.17051800  0.25000000  0.20089500  1
  S  S9  1  0.82948200  0.75000000  0.79910500  1
  S  S10  1  0.32948200  0.75000000  0.70089500  1
  S  S11  1  0.67051800  0.25000000  0.29910500  1
  S  S12  1  0.20912800  0.75000000  0.00626700  1
  S  S13  1  0.79087200  0.25000000  0.99373300  1
  S  S14  1  0.29087200  0.25000000  0.50626700  1
  S  S15  1  0.70912800  0.75000000  0.49373300  1
loop_
_geom_bond_atom_site_label_1
_geom_bond_atom_site_label_2
_geom_bond_distance
_geom_bond_site_symmetry_2
Rb0 S8 3.322894 1_555
Rb0 S8 3.322894 1_565
Rb0 S1 3.358335 1_455
Rb0 S1 3.358335 1_465
Rb0 S14 3.437650 1_555
Rb0 S14 3.437650 1_565
Rb0 S0 3.677064 1_555
Rb1 S9 3.322894 1_555
Rb1 S9 3.322894 1_545
Rb1 S0 3.358335 1_655
Rb1 S0 3.358335 1_645
Rb1 S15 3.437650 1_555
Rb1 S15 3.437650 1_545
Rb1 S1 3.677064 1_555
Rb2 S10 3.322894 1_545
Rb2 S10 3.322894 1_555
Rb2 S3 3.358335 1_555
Rb2 S3 3.358335 1_545
Rb2 S12 3.437650 1_546
Rb2 S12 3.437650 1_556
Rb2 S2 3.677064 1_556
Rb3 S11 3.322894 1_565
Rb3 S11 3.322894 1_555
Rb3 S2 3.358335 1_555
Rb3 S2 3.358335 1_565
Rb3 S13 3.437650 1_554
Rb3 S13 3.437650 1_564
Rb3 S3 3.677064 1_554
Cr0 S5 2.348106 1_445
Cr0 S5 2.348106 1_455
Cr0 S4 2.361486 1_554
Cr0 S8 2.406073 1_555
Cr0 S12 2.430725 1_555
Cr0 S12 2.430725 1_545
Cr1 S4 2.348106 1_655
Cr1 S4 2.348106 1_665
Cr1 S5 2.361486 1_556
Cr1 S9 2.406073 1_555
Cr1 S13 2.430725 1_565
Cr1 S13 2.430725 1_555
Cr2 S7 2.348106 1_555
Cr2 S7 2.348106 1_565
Cr2 S6 2.361486 1_555
Cr2 S10 2.406073 1_555
Cr2 S14 2.430725 1_565
Cr2 S14 2.430725 1_555
Cr3 S6 2.348106 1_555
Cr3 S6 2.348106 1_545
Cr3 S7 2.361486 1_555
Cr3 S11 2.406073 1_555
Cr3 S15 2.430725 1_555
Cr3 S15 2.430725 1_545
Cr4 S14 2.217145 1_555
Cr4 S0 2.303691 1_555
Cr4 S0 2.303691 1_545
Cr4 S10 2.403266 1_545
Cr4 S10 2.403266 1_555
Cr5 S15 2.217145 1_555
Cr5 S1 2.303691 1_565
Cr5 S1 2.303691 1_555
Cr5 S11 2.403266 1_565
Cr5 S11 2.403266 1_555
Cr6 S12 2.217145 1_555
Cr6 S2 2.303691 1_565
Cr6 S2 2.303691 1_555
Cr6 S8 2.403266 1_555
Cr6 S8 2.403266 1_565
Cr7 S13 2.217145 1_555
Cr7 S3 2.303691 1_555
Cr7 S3 2.303691 1_545
Cr7 S9 2.403266 1_555
Cr7 S9 2.403266 1_545
