# generated using pymatgen
data_YbGaNi
_symmetry_space_group_name_H-M   'P 1'
_cell_length_a   4.18120200
_cell_length_b   6.92660300
_cell_length_c   7.32715100
_cell_angle_alpha   90.00000000
_cell_angle_beta   90.00000000
_cell_angle_gamma   90.00000000
_symmetry_Int_Tables_number   1
_chemical_formula_structural   YbGaNi
_chemical_formula_sum   'Yb4 Ga4 Ni4'
_cell_volume   212.20547651
_cell_formula_units_Z   4
loop_
 _symmetry_equiv_pos_site_id
 _symmetry_equiv_pos_as_xyz
  1  'x, y, z'
loop_
 _atom_site_type_symbol
 _atom_site_label
 _atom_site_symmetry_multiplicity
 _atom_site_fract_x
 _atom_site_fract_y
 _atom_site_fract_z
 _atom_site_occupancy
  Yb  Yb0  1  0.25000000  0.01885900  0.31375300  1
  Yb  Yb1  1  0.25000000  0.51885900  0.18624700  1
  Yb  Yb2  1  0.75000000  0.98114100  0.68624700  1
  Yb  Yb3  1  0.75000000  0.48114100  0.81375300  1
  Ga  Ga0  1  0.25000000  0.16677800  0.92282700  1
  Ga  Ga1  1  0.25000000  0.66677800  0.57717300  1
  Ga  Ga2  1  0.75000000  0.83322200  0.07717300  1
  Ga  Ga3  1  0.75000000  0.33322200  0.42282700  1
  Ni  Ni0  1  0.25000000  0.30245800  0.60435700  1
  Ni  Ni1  1  0.25000000  0.80245800  0.89564300  1
  Ni  Ni2  1  0.75000000  0.69754200  0.39564300  1
  Ni  Ni3  1  0.75000000  0.19754200  0.10435700  1
loop_
_geom_bond_atom_site_label_1
_geom_bond_atom_site_label_2
_geom_bond_distance
_geom_bond_site_symmetry_2
Ga0 Ni3 2.487002 1_456
Ga0 Ni3 2.487002 1_556
Ga0 Ni0 2.515620 1_555
Ga0 Ni1 2.531349 1_545
Ga0 Yb2 3.004805 1_445
Ga0 Yb2 3.004805 1_545
Ga0 Yb0 3.042104 1_556
Ga0 Yb1 3.110102 1_556
Ga0 Yb3 3.122611 1_555
Ga0 Yb3 3.122611 1_455
Ga1 Ni2 2.487002 1_555
Ga1 Ni2 2.487002 1_455
Ga1 Ni1 2.515620 1_555
Ga1 Ni0 2.531349 1_555
Ga1 Yb3 3.004805 1_455
Ga1 Yb3 3.004805 1_555
Ga1 Yb1 3.042104 1_555
Ga1 Yb0 3.110102 1_565
Ga1 Yb2 3.122611 1_555
Ga1 Yb2 3.122611 1_455
Ga2 Ni1 2.487002 1_654
Ga2 Ni1 2.487002 1_554
Ga2 Ni2 2.515620 1_555
Ga2 Ni3 2.531349 1_565
Ga2 Yb0 3.004805 1_565
Ga2 Yb0 3.004805 1_665
Ga2 Yb2 3.042104 1_554
Ga2 Yb3 3.110102 1_554
Ga2 Yb1 3.122611 1_555
Ga2 Yb1 3.122611 1_655
Ga3 Ni0 2.487002 1_555
Ga3 Ni0 2.487002 1_655
Ga3 Ni3 2.515620 1_555
Ga3 Ni2 2.531349 1_555
Ga3 Yb1 3.004805 1_655
Ga3 Yb1 3.004805 1_555
Ga3 Yb3 3.042104 1_555
Ga3 Yb2 3.110102 1_545
Ga3 Yb0 3.122611 1_655
Ga3 Yb0 3.122611 1_555
Ni0 Yb3 2.873401 1_455
Ni0 Yb3 2.873401 1_555
Ni0 Yb0 2.897015 1_555
Ni0 Yb2 3.111927 1_445
Ni0 Yb2 3.111927 1_545
Ni1 Yb2 2.873401 1_555
Ni1 Yb2 2.873401 1_455
Ni1 Yb1 2.897015 1_556
Ni1 Yb3 3.111927 1_555
Ni1 Yb3 3.111927 1_455
Ni2 Yb1 2.873401 1_655
Ni2 Yb1 2.873401 1_555
Ni2 Yb2 2.897015 1_555
Ni2 Yb0 3.111927 1_565
Ni2 Yb0 3.111927 1_665
Ni3 Yb0 2.873401 1_555
Ni3 Yb0 2.873401 1_655
Ni3 Yb3 2.897015 1_554
Ni3 Yb1 3.111927 1_555
Ni3 Yb1 3.111927 1_655
