# generated using pymatgen
data_Mg6MnCr
_symmetry_space_group_name_H-M   'P 1'
_cell_length_a   4.95500700
_cell_length_b   6.14929800
_cell_length_c   10.70917100
_cell_angle_alpha   90.00000000
_cell_angle_beta   90.00000000
_cell_angle_gamma   90.00000000
_symmetry_Int_Tables_number   1
_chemical_formula_structural   Mg6MnCr
_chemical_formula_sum   'Mg12 Mn2 Cr2'
_cell_volume   326.30645527
_cell_formula_units_Z   2
loop_
 _symmetry_equiv_pos_site_id
 _symmetry_equiv_pos_as_xyz
  1  'x, y, z'
loop_
 _atom_site_type_symbol
 _atom_site_label
 _atom_site_symmetry_multiplicity
 _atom_site_fract_x
 _atom_site_fract_y
 _atom_site_fract_z
 _atom_site_occupancy
  Mg  Mg0  1  0.00000000  0.25785800  0.08668700  1
  Mg  Mg1  1  0.00000000  0.74214200  0.08668700  1
  Mg  Mg2  1  0.00000000  0.00000000  0.33316900  1
  Mg  Mg3  1  0.50000000  0.74161300  0.41334000  1
  Mg  Mg4  1  0.50000000  0.25838700  0.41334000  1
  Mg  Mg5  1  0.50000000  0.00000000  0.16678200  1
  Mg  Mg6  1  0.00000000  0.75785800  0.58668700  1
  Mg  Mg7  1  0.00000000  0.24214200  0.58668700  1
  Mg  Mg8  1  0.00000000  0.50000000  0.83316900  1
  Mg  Mg9  1  0.50000000  0.24161300  0.91334000  1
  Mg  Mg10  1  0.50000000  0.75838700  0.91334000  1
  Mg  Mg11  1  0.50000000  0.50000000  0.66678200  1
  Mn  Mn0  1  0.00000000  0.50000000  0.33334100  1
  Mn  Mn1  1  0.00000000  0.00000000  0.83334100  1
  Cr  Cr0  1  0.50000000  0.50000000  0.16665400  1
  Cr  Cr1  1  0.50000000  0.00000000  0.66665400  1
loop_
_geom_bond_atom_site_label_1
_geom_bond_atom_site_label_2
_geom_bond_distance
_geom_bond_site_symmetry_2
Mg0 Mg1 2.978007 1_555
Mg0 Mn0 3.032234 1_555
Mg0 Mg5 3.063990 1_455
Mg0 Mg5 3.063990 1_555
Mg0 Mg2 3.079262 1_555
Mg0 Mg8 3.096479 1_554
Mg0 Mg9 3.097456 1_554
Mg0 Mg9 3.097456 1_454
Mg0 Mn1 3.142503 1_554
Mg0 Mg1 3.171291 1_545
Mg1 Mn0 3.032234 1_555
Mg1 Mg5 3.063990 1_465
Mg1 Mg5 3.063990 1_565
Mg1 Mg2 3.079262 1_565
Mg1 Mg8 3.096479 1_554
Mg1 Mg10 3.097456 1_454
Mg1 Mg10 3.097456 1_554
Mg1 Mn1 3.142503 1_564
Mg2 Mg5 3.051733 1_455
Mg2 Mg5 3.051733 1_555
Mg2 Mg4 3.065902 1_555
Mg2 Mg4 3.065902 1_455
Mg2 Mg3 3.065902 1_545
Mg2 Mg3 3.065902 1_445
Mg2 Mn0 3.074650 1_545
Mg2 Mn0 3.074650 1_555
Mg2 Mg7 3.096479 1_555
Mg2 Mg6 3.096479 1_545
Mg3 Mg4 2.971501 1_555
Mg3 Mn0 3.013213 1_655
Mg3 Mn0 3.013213 1_555
Mg3 Mg5 3.081636 1_565
Mg3 Mg6 3.097456 1_655
Mg3 Mg6 3.097456 1_555
Mg3 Mg4 3.177797 1_565
Mg4 Mn0 3.013213 1_555
Mg4 Mn0 3.013213 1_655
Mg4 Mg5 3.081636 1_555
Mg4 Mg7 3.097456 1_555
Mg4 Mg7 3.097456 1_655
Mg5 Mg9 3.094202 1_554
Mg6 Mg7 2.978007 1_565
Mg6 Mn1 3.032234 1_565
Mg6 Mg8 3.079262 1_555
Mg6 Mn0 3.142503 1_555
Mg6 Mg7 3.171291 1_555
Mg7 Mn1 3.032234 1_555
Mg7 Mg8 3.079262 1_555
Mg7 Mn0 3.142503 1_555
Mg8 Mg9 3.065902 1_555
Mg8 Mg9 3.065902 1_455
Mg8 Mn1 3.074650 1_565
Mg8 Mn1 3.074650 1_555
Mg9 Mn1 3.013213 1_555
Mg9 Mn1 3.013213 1_655
Mg10 Mg9 2.971501 1_565
Mg10 Mn1 3.013213 1_665
Mg10 Mn1 3.013213 1_565
Mg10 Mg8 3.065902 1_555
Mg10 Mg8 3.065902 1_655
Mg10 Mg11 3.081636 1_555
Mg10 Mg5 3.094202 1_566
Mg10 Mg9 3.177797 1_555
Mg11 Mg8 3.051733 1_655
Mg11 Mg8 3.051733 1_555
Mg11 Mg6 3.063990 1_555
Mg11 Mg6 3.063990 1_655
Mg11 Mg7 3.063990 1_655
Mg11 Mg7 3.063990 1_555
Mg11 Mg9 3.081636 1_555
Mg11 Mg3 3.094202 1_555
Mg11 Mg4 3.094202 1_555
Cr0 Mg1 3.014721 1_555
Cr0 Mg0 3.014721 1_655
Cr0 Mg1 3.014721 1_655
Cr0 Mg0 3.014721 1_555
Cr0 Mg4 3.030936 1_555
Cr0 Mg3 3.030936 1_555
Cr0 Mn0 3.053610 1_555
Cr0 Mn0 3.053610 1_655
Cr0 Mg5 3.074649 1_565
Cr0 Mg5 3.074649 1_555
Cr0 Mg10 3.143850 1_554
Cr0 Mg9 3.143850 1_554
Cr1 Mg7 3.014721 1_555
Cr1 Mg7 3.014721 1_655
Cr1 Mg6 3.014721 1_645
Cr1 Mg6 3.014721 1_545
Cr1 Mg9 3.030936 1_555
Cr1 Mg10 3.030936 1_545
Cr1 Mn1 3.053610 1_655
Cr1 Mn1 3.053610 1_555
Cr1 Mg11 3.074649 1_555
Cr1 Mg11 3.074649 1_545
Cr1 Mg3 3.143850 1_545
Cr1 Mg4 3.143850 1_555
