# generated using pymatgen
data_CsMg15
_symmetry_space_group_name_H-M   'P 1'
_cell_length_a   6.63446728
_cell_length_b   6.63446728
_cell_length_c   10.77688400
_cell_angle_alpha   90.00000000
_cell_angle_beta   90.00000000
_cell_angle_gamma   119.99999284
_symmetry_Int_Tables_number   1
_chemical_formula_structural   CsMg15
_chemical_formula_sum   'Cs1 Mg15'
_cell_volume   410.80524957
_cell_formula_units_Z   1
loop_
 _symmetry_equiv_pos_site_id
 _symmetry_equiv_pos_as_xyz
  1  'x, y, z'
loop_
 _atom_site_type_symbol
 _atom_site_label
 _atom_site_symmetry_multiplicity
 _atom_site_fract_x
 _atom_site_fract_y
 _atom_site_fract_z
 _atom_site_occupancy
  Cs  Cs0  1  0.66666700  0.33333300  0.00000000  1
  Mg  Mg0  1  0.66666700  0.33333300  0.50000000  1
  Mg  Mg1  1  0.16971600  0.33943100  0.00000000  1
  Mg  Mg2  1  0.16498100  0.32996100  0.50000000  1
  Mg  Mg3  1  0.16971600  0.83028400  0.00000000  1
  Mg  Mg4  1  0.16498100  0.83501900  0.50000000  1
  Mg  Mg5  1  0.66056900  0.83028400  0.00000000  1
  Mg  Mg6  1  0.67003900  0.83501900  0.50000000  1
  Mg  Mg7  1  0.01129600  0.50564800  0.26713800  1
  Mg  Mg8  1  0.01129600  0.50564800  0.73286200  1
  Mg  Mg9  1  0.49435200  0.50564800  0.26713800  1
  Mg  Mg10  1  0.49435200  0.50564800  0.73286200  1
  Mg  Mg11  1  0.49435200  0.98870400  0.26713800  1
  Mg  Mg12  1  0.49435200  0.98870400  0.73286200  1
  Mg  Mg13  1  0.00000000  0.00000000  0.24718300  1
  Mg  Mg14  1  0.00000000  0.00000000  0.75281700  1
loop_
_geom_bond_atom_site_label_1
_geom_bond_atom_site_label_2
_geom_bond_distance
_geom_bond_site_symmetry_2
Cs0 Mg5 3.317419 1_555
Cs0 Mg1 3.317419 1_555
Cs0 Mg1 3.317419 1_655
Cs0 Mg5 3.317419 1_545
Cs0 Mg3 3.317419 1_655
Cs0 Mg3 3.317419 1_545
Cs0 Mg7 3.494134 1_655
Cs0 Mg8 3.494134 1_654
Cs0 Mg11 3.494134 1_545
Cs0 Mg12 3.494134 1_544
Cs0 Mg9 3.494137 1_555
Cs0 Mg10 3.494137 1_554
Mg0 Mg7 3.196646 1_655
Mg0 Mg8 3.196646 1_655
Mg0 Mg11 3.196646 1_545
Mg0 Mg12 3.196646 1_545
Mg0 Mg9 3.196650 1_555
Mg0 Mg10 3.196650 1_555
Mg0 Mg6 3.317290 1_545
Mg0 Mg2 3.317290 1_655
Mg0 Mg2 3.317290 1_555
Mg0 Mg6 3.317290 1_555
Mg0 Mg4 3.317291 1_655
Mg0 Mg4 3.317291 1_545
Mg1 Mg3 3.256548 1_555
Mg1 Mg5 3.256549 1_555
Mg1 Mg13 3.301455 1_555
Mg1 Mg14 3.301455 1_554
Mg1 Mg3 3.377919 1_545
Mg1 Mg5 3.377919 1_445
Mg1 Mg9 3.430440 1_555
Mg1 Mg10 3.430440 1_554
Mg1 Mg8 3.430443 1_554
Mg1 Mg7 3.430443 1_555
Mg2 Mg9 3.143943 1_555
Mg2 Mg7 3.143947 1_555
Mg2 Mg8 3.143947 1_555
Mg2 Mg4 3.283677 1_545
Mg2 Mg6 3.283677 1_445
Mg2 Mg4 3.350791 1_555
Mg2 Mg6 3.350791 1_555
Mg3 Mg5 3.256548 1_555
Mg3 Mg5 3.377919 1_455
Mg3 Mg7 3.430440 1_555
Mg3 Mg8 3.430440 1_554
Mg4 Mg7 3.143943 1_555
Mg4 Mg8 3.143943 1_555
Mg4 Mg6 3.283677 1_455
Mg4 Mg6 3.350791 1_555
Mg5 Mg9 3.430440 1_555
Mg6 Mg9 3.143943 1_555
Mg7 Mg9 3.204819 1_555
Mg7 Mg9 3.429648 1_455
Mg10 Mg2 3.143943 1_555
Mg10 Mg6 3.143943 1_555
Mg10 Mg12 3.204819 1_555
Mg10 Mg8 3.204819 1_555
Mg10 Mg14 3.324831 1_555
Mg10 Mg14 3.324831 1_665
Mg10 Mg8 3.429648 1_655
Mg10 Mg12 3.429648 1_545
Mg10 Mg5 3.430440 1_556
Mg11 Mg4 3.143943 1_555
Mg11 Mg6 3.143947 1_555
Mg11 Mg9 3.204819 1_555
Mg11 Mg7 3.204820 1_555
Mg11 Mg13 3.324831 1_565
Mg11 Mg13 3.324831 1_665
Mg11 Mg9 3.429648 1_565
Mg11 Mg7 3.429648 1_665
Mg11 Mg3 3.430440 1_555
Mg11 Mg5 3.430443 1_555
Mg12 Mg4 3.143943 1_555
Mg12 Mg6 3.143947 1_555
Mg12 Mg8 3.204820 1_555
Mg12 Mg14 3.324831 1_565
Mg12 Mg14 3.324831 1_665
Mg12 Mg8 3.429648 1_665
Mg12 Mg3 3.430440 1_556
Mg12 Mg5 3.430443 1_556
Mg13 Mg5 3.301455 1_445
Mg13 Mg3 3.301458 1_545
Mg13 Mg2 3.319263 1_555
Mg13 Mg6 3.319263 1_445
Mg13 Mg4 3.319266 1_545
Mg13 Mg7 3.324831 1_545
Mg13 Mg7 3.324831 1_555
Mg13 Mg9 3.324831 1_555
Mg13 Mg9 3.324831 1_445
Mg14 Mg5 3.301455 1_446
Mg14 Mg3 3.301458 1_546
Mg14 Mg2 3.319263 1_555
Mg14 Mg6 3.319263 1_445
Mg14 Mg4 3.319266 1_545
Mg14 Mg8 3.324831 1_545
Mg14 Mg8 3.324831 1_555
