# generated using pymatgen
data_KAgSnSe3
_symmetry_space_group_name_H-M   'P 1'
_cell_length_a   8.28800668
_cell_length_b   8.28800668
_cell_length_c   20.47347469
_cell_angle_alpha   90.00000000
_cell_angle_beta   90.00000000
_cell_angle_gamma   90.00000000
_symmetry_Int_Tables_number   1
_chemical_formula_structural   KAgSnSe3
_chemical_formula_sum   'K8 Ag8 Sn8 Se24'
_cell_volume   1406.34457040
_cell_formula_units_Z   8
loop_
 _symmetry_equiv_pos_site_id
 _symmetry_equiv_pos_as_xyz
  1  'x, y, z'
loop_
 _atom_site_type_symbol
 _atom_site_label
 _atom_site_symmetry_multiplicity
 _atom_site_fract_x
 _atom_site_fract_y
 _atom_site_fract_z
 _atom_site_occupancy
  K  K0  1  -0.00000000  0.00000000  0.40464696  1
  K  K1  1  -0.00000000  0.00000000  0.90464696  1
  K  K2  1  -0.00000000  0.00000000  0.59454348  1
  K  K3  1  -0.00000000  0.00000000  0.09454348  1
  K  K4  1  0.50000000  0.50000000  0.23904903  1
  K  K5  1  0.50000000  0.50000000  0.73904903  1
  K  K6  1  0.50000000  0.50000000  0.44594648  1
  K  K7  1  0.50000000  0.50000000  0.94594648  1
  Ag  Ag0  1  0.31799026  0.00656191  0.24992063  1
  Ag  Ag1  1  0.68200974  0.99343809  0.24992063  1
  Ag  Ag2  1  0.99343809  0.31799026  0.24992063  1
  Ag  Ag3  1  0.00656191  0.68200974  0.24992063  1
  Ag  Ag4  1  0.68200974  0.00656191  0.74992063  1
  Ag  Ag5  1  0.31799026  0.99343809  0.74992063  1
  Ag  Ag6  1  0.00656191  0.31799026  0.74992063  1
  Ag  Ag7  1  0.99343809  0.68200974  0.74992063  1
  Sn  Sn0  1  0.50000000  0.00000000  0.41335120  1
  Sn  Sn1  1  -0.00000000  0.50000000  0.41335120  1
  Sn  Sn2  1  0.50000000  0.00000000  0.91335120  1
  Sn  Sn3  1  -0.00000000  0.50000000  0.91335120  1
  Sn  Sn4  1  0.50000000  0.00000000  0.58830740  1
  Sn  Sn5  1  -0.00000000  0.50000000  0.58830740  1
  Sn  Sn6  1  0.50000000  0.00000000  0.08830740  1
  Sn  Sn7  1  -0.00000000  0.50000000  0.08830740  1
  Se  Se0  1  0.33152224  0.84602396  0.50047187  1
  Se  Se1  1  0.66847776  0.15397604  0.50047187  1
  Se  Se2  1  0.15397604  0.33152224  0.50047187  1
  Se  Se3  1  0.84602396  0.66847776  0.50047187  1
  Se  Se4  1  0.66847776  0.84602396  0.00047187  1
  Se  Se5  1  0.33152224  0.15397604  0.00047187  1
  Se  Se6  1  0.84602396  0.33152224  0.00047187  1
  Se  Se7  1  0.15397604  0.66847776  0.00047187  1
  Se  Se8  1  0.32868016  0.19209151  0.34644152  1
  Se  Se9  1  0.67131984  0.80790849  0.34644152  1
  Se  Se10  1  0.80790849  0.32868016  0.34644152  1
  Se  Se11  1  0.19209151  0.67131984  0.34644152  1
  Se  Se12  1  0.67131984  0.19209151  0.84644152  1
  Se  Se13  1  0.32868016  0.80790849  0.84644152  1
  Se  Se14  1  0.19209151  0.32868016  0.84644152  1
  Se  Se15  1  0.80790849  0.67131984  0.84644152  1
  Se  Se16  1  0.67758514  0.81550187  0.65551444  1
  Se  Se17  1  0.32241486  0.18449813  0.65551444  1
  Se  Se18  1  0.18449813  0.67758514  0.65551444  1
  Se  Se19  1  0.81550187  0.32241486  0.65551444  1
  Se  Se20  1  0.32241486  0.81550187  0.15551444  1
  Se  Se21  1  0.67758514  0.18449813  0.15551444  1
  Se  Se22  1  0.81550187  0.67758514  0.15551444  1
  Se  Se23  1  0.18449813  0.32241486  0.15551444  1
loop_
_geom_bond_atom_site_label_1
_geom_bond_atom_site_label_2
_geom_bond_distance
_geom_bond_site_symmetry_2
K0 Se9 3.372751 1_445
K0 Se10 3.372751 1_455
K0 Se8 3.372751 1_555
K0 Se11 3.372751 1_545
K0 Se1 3.609311 1_455
K0 Se3 3.609311 1_445
K0 Se2 3.609311 1_555
K0 Se0 3.609311 1_545
K1 Se15 3.372751 1_445
K1 Se12 3.372751 1_455
K1 Se14 3.372751 1_555
K1 Se13 3.372751 1_545
K1 Se4 3.609311 1_446
K1 Se7 3.609311 1_546
K1 Se6 3.609311 1_456
K1 Se5 3.609311 1_556
K2 Se16 3.322192 1_445
K2 Se18 3.322192 1_545
K2 Se17 3.322192 1_555
K2 Se19 3.322192 1_455
K2 Se1 3.589926 1_455
K2 Se3 3.589926 1_445
K2 Se2 3.589926 1_555
K2 Se0 3.589926 1_545
K3 Se21 3.322192 1_455
K3 Se22 3.322192 1_445
K3 Se23 3.322192 1_555
K3 Se20 3.322192 1_545
K3 Se6 3.589926 1_455
K3 Se4 3.589926 1_445
K3 Se7 3.589926 1_545
K3 Se5 3.589926 1_555
K4 Se23 3.453811 1_555
K4 Se20 3.453811 1_555
K4 Se21 3.453811 1_555
K4 Se22 3.453811 1_555
K4 Se9 3.655520 1_555
K4 Se10 3.655520 1_555
K4 Se8 3.655520 1_555
K4 Se11 3.655520 1_555
K5 Se17 3.453811 1_555
K5 Se19 3.453811 1_555
K5 Se18 3.453811 1_555
K5 Se16 3.453811 1_555
K5 Se12 3.655520 1_555
K5 Se15 3.655520 1_555
K5 Se13 3.655520 1_555
K5 Se14 3.655520 1_555
K6 Se2 3.379425 1_555
K6 Se0 3.379425 1_555
K6 Se3 3.379425 1_555
K6 Se1 3.379425 1_555
K6 Se9 3.560728 1_555
K6 Se10 3.560728 1_555
K6 Se8 3.560728 1_555
K6 Se11 3.560728 1_555
K7 Se5 3.379425 1_556
K7 Se6 3.379425 1_556
K7 Se7 3.379425 1_556
K7 Se4 3.379425 1_556
K7 Se12 3.560728 1_555
K7 Se15 3.560728 1_555
K7 Se14 3.560728 1_555
K7 Se13 3.560728 1_555
Ag0 Se20 2.498928 1_545
Ag0 Se8 2.505459 1_555
Ag1 Se21 2.498928 1_565
Ag1 Se9 2.505459 1_555
Ag2 Se23 2.498928 1_655
Ag2 Se10 2.505459 1_555
Ag3 Se22 2.498928 1_455
Ag3 Se11 2.505459 1_555
Ag4 Se16 2.498928 1_545
Ag4 Se12 2.505459 1_555
Ag5 Se17 2.498928 1_565
Ag5 Se13 2.505459 1_555
Ag6 Se19 2.498928 1_455
Ag6 Se14 2.505459 1_555
Ag7 Se18 2.498928 1_655
Ag7 Se15 2.505459 1_555
Se0 Sn0 2.599962 1_565
Se0 Sn4 2.610024 1_565
Se1 Sn0 2.599962 1_555
Se1 Sn4 2.610024 1_555
Se2 Sn1 2.599962 1_555
Se2 Sn5 2.610024 1_555
Se3 Sn1 2.599962 1_655
Se3 Sn5 2.610024 1_655
Se4 Sn2 2.599962 1_564
Se4 Sn6 2.610024 1_565
Se5 Sn2 2.599962 1_554
Se5 Sn6 2.610024 1_555
Se6 Sn3 2.599962 1_654
Se6 Sn7 2.610024 1_655
Se7 Sn3 2.599962 1_554
Se7 Sn7 2.610024 1_555
Se8 Sn0 2.535214 1_555
Se9 Sn0 2.535214 1_565
Se10 Sn1 2.535214 1_655
Se11 Sn1 2.535214 1_555
Se12 Sn2 2.535214 1_555
Se13 Sn2 2.535214 1_565
Se14 Sn3 2.535214 1_555
Se15 Sn3 2.535214 1_655
Se16 Sn4 2.529379 1_565
Se17 Sn4 2.529379 1_555
Se18 Sn5 2.529379 1_555
Se19 Sn5 2.529379 1_655
Se20 Sn6 2.529379 1_565
Se21 Sn6 2.529379 1_555
Se22 Sn7 2.529379 1_655
Se23 Sn7 2.529379 1_555
