# generated using pymatgen
data_YMg14SnO16
_symmetry_space_group_name_H-M   'P 1'
_cell_length_a   8.84251300
_cell_length_b   8.84251300
_cell_length_c   4.45105900
_cell_angle_alpha   90.00000000
_cell_angle_beta   90.00000000
_cell_angle_gamma   90.00000000
_symmetry_Int_Tables_number   1
_chemical_formula_structural   YMg14SnO16
_chemical_formula_sum   'Y1 Mg14 Sn1 O16'
_cell_volume   348.02846414
_cell_formula_units_Z   1
loop_
 _symmetry_equiv_pos_site_id
 _symmetry_equiv_pos_as_xyz
  1  'x, y, z'
loop_
 _atom_site_type_symbol
 _atom_site_label
 _atom_site_symmetry_multiplicity
 _atom_site_fract_x
 _atom_site_fract_y
 _atom_site_fract_z
 _atom_site_occupancy
  Y  Y0  1  0.00000000  0.00000000  0.00000000  1
  Mg  Mg0  1  0.50000000  0.00000000  0.00000000  1
  Mg  Mg1  1  0.00000000  0.50000000  0.00000000  1
  Mg  Mg2  1  0.26244400  0.00000000  0.50000000  1
  Mg  Mg3  1  0.73755600  0.00000000  0.50000000  1
  Mg  Mg4  1  0.24284900  0.50000000  0.50000000  1
  Mg  Mg5  1  0.75715100  0.50000000  0.50000000  1
  Mg  Mg6  1  0.00000000  0.26244400  0.50000000  1
  Mg  Mg7  1  0.50000000  0.24284900  0.50000000  1
  Mg  Mg8  1  0.00000000  0.73755600  0.50000000  1
  Mg  Mg9  1  0.50000000  0.75715100  0.50000000  1
  Mg  Mg10  1  0.25340100  0.25340100  0.00000000  1
  Mg  Mg11  1  0.74659900  0.25340100  0.00000000  1
  Mg  Mg12  1  0.25340100  0.74659900  0.00000000  1
  Mg  Mg13  1  0.74659900  0.74659900  0.00000000  1
  Sn  Sn0  1  0.50000000  0.50000000  0.00000000  1
  O  O0  1  0.00000000  0.25559700  0.00000000  1
  O  O1  1  0.50000000  0.22743600  0.00000000  1
  O  O2  1  0.00000000  0.74440300  0.00000000  1
  O  O3  1  0.50000000  0.77256400  0.00000000  1
  O  O4  1  0.25085400  0.25085400  0.50000000  1
  O  O5  1  0.74914600  0.25085400  0.50000000  1
  O  O6  1  0.25085400  0.74914600  0.50000000  1
  O  O7  1  0.74914600  0.74914600  0.50000000  1
  O  O8  1  0.00000000  0.00000000  0.50000000  1
  O  O9  1  0.50000000  0.00000000  0.50000000  1
  O  O10  1  0.00000000  0.50000000  0.50000000  1
  O  O11  1  0.50000000  0.50000000  0.50000000  1
  O  O12  1  0.25559700  0.00000000  0.00000000  1
  O  O13  1  0.74440300  0.00000000  0.00000000  1
  O  O14  1  0.22743600  0.50000000  0.00000000  1
  O  O15  1  0.77256400  0.50000000  0.00000000  1
loop_
_geom_bond_atom_site_label_1
_geom_bond_atom_site_label_2
_geom_bond_distance
_geom_bond_site_symmetry_2
Mg0 O1 2.011106 1_555
Mg0 O3 2.011106 1_545
Mg0 O13 2.161137 1_555
Mg0 O12 2.161137 1_555
Mg0 O9 2.225529 1_554
Mg0 O9 2.225529 1_555
Mg1 O14 2.011106 1_555
Mg1 O15 2.011106 1_455
Mg1 O2 2.161137 1_555
Mg1 O0 2.161137 1_555
Mg1 O10 2.225529 1_555
Mg1 O10 2.225529 1_554
Mg2 O9 2.100592 1_555
Mg2 O4 2.220546 1_555
Mg2 O6 2.220546 1_545
Mg2 O12 2.226353 1_556
Mg2 O12 2.226353 1_555
Mg2 O8 2.320664 1_555
Mg3 O9 2.100592 1_555
Mg3 O5 2.220546 1_555
Mg3 O7 2.220546 1_545
Mg3 O13 2.226353 1_555
Mg3 O13 2.226353 1_556
Mg3 O8 2.320664 1_655
Mg4 O10 2.147395 1_555
Mg4 O6 2.204214 1_555
Mg4 O4 2.204214 1_555
Mg4 O14 2.229699 1_556
Mg4 O14 2.229699 1_555
Mg4 O11 2.273861 1_555
Mg5 O10 2.147395 1_655
Mg5 O7 2.204214 1_555
Mg5 O5 2.204214 1_555
Mg5 O15 2.229699 1_556
Mg5 O15 2.229699 1_555
Mg5 O11 2.273861 1_555
Mg6 O10 2.100592 1_555
Mg6 O4 2.220546 1_555
Mg6 O5 2.220546 1_455
Mg6 O0 2.226353 1_556
Mg6 O0 2.226353 1_555
Mg6 O8 2.320664 1_555
Mg7 O9 2.147395 1_555
Mg7 O5 2.204214 1_555
Mg7 O4 2.204214 1_555
Mg7 O1 2.229699 1_556
Mg7 O1 2.229699 1_555
Mg7 O11 2.273861 1_555
Mg8 O10 2.100592 1_555
Mg8 O6 2.220546 1_555
Mg8 O7 2.220546 1_455
Mg8 O2 2.226353 1_556
Mg8 O2 2.226353 1_555
Mg8 O8 2.320664 1_565
Mg9 O9 2.147395 1_565
Mg9 O7 2.204214 1_555
Mg9 O6 2.204214 1_555
Mg9 O3 2.229699 1_556
Mg9 O3 2.229699 1_555
Mg9 O11 2.273861 1_555
Mg10 O1 2.192609 1_555
Mg10 O14 2.192609 1_555
Mg10 O4 2.225757 1_554
Mg10 O4 2.225757 1_555
Mg10 O0 2.240786 1_555
Mg10 O12 2.240786 1_555
Mg11 O15 2.192609 1_555
Mg11 O1 2.192609 1_555
Mg11 O5 2.225757 1_554
Mg11 O5 2.225757 1_555
Mg11 O13 2.240786 1_555
Mg11 O0 2.240786 1_655
Mg12 O3 2.192609 1_555
Mg12 O14 2.192609 1_555
Mg12 O6 2.225757 1_555
Mg12 O6 2.225757 1_554
Mg12 O12 2.240786 1_565
Mg12 O2 2.240786 1_555
Mg13 O15 2.192609 1_555
Mg13 O3 2.192609 1_555
Mg13 O7 2.225757 1_555
Mg13 O7 2.225757 1_554
Mg13 O13 2.240786 1_565
Mg13 O2 2.240786 1_655
O0 Y0 2.260120 1_555
O1 Sn0 2.410151 1_555
O2 Y0 2.260120 1_565
O3 Sn0 2.410151 1_555
O8 Y0 2.225529 1_556
O8 Y0 2.225529 1_555
O11 Sn0 2.225529 1_556
O11 Sn0 2.225529 1_555
O12 Y0 2.260120 1_555
O13 Y0 2.260120 1_655
O14 Sn0 2.410151 1_555
O15 Sn0 2.410151 1_555
