# generated using pymatgen
data_DyCo3P2
_symmetry_space_group_name_H-M   'P 1'
_cell_length_a   3.68371308
_cell_length_b   10.41624137
_cell_length_c   12.10360557
_cell_angle_alpha   90.00000000
_cell_angle_beta   90.00000000
_cell_angle_gamma   90.00000000
_symmetry_Int_Tables_number   1
_chemical_formula_structural   DyCo3P2
_chemical_formula_sum   'Dy6 Co18 P12'
_cell_volume   464.42072673
_cell_formula_units_Z   6
loop_
 _symmetry_equiv_pos_site_id
 _symmetry_equiv_pos_as_xyz
  1  'x, y, z'
loop_
 _atom_site_type_symbol
 _atom_site_label
 _atom_site_symmetry_multiplicity
 _atom_site_fract_x
 _atom_site_fract_y
 _atom_site_fract_z
 _atom_site_occupancy
  Dy  Dy0  1  0.00000000  0.50000000  0.52136661  1
  Dy  Dy1  1  0.50000000  -0.00000000  0.47863339  1
  Dy  Dy2  1  0.50000000  0.81744458  0.20604313  1
  Dy  Dy3  1  0.50000000  0.18255542  0.20604313  1
  Dy  Dy4  1  -0.00000000  0.68255542  0.79395687  1
  Dy  Dy5  1  0.00000000  0.31744458  0.79395687  1
  Co  Co0  1  0.50000000  0.50000000  0.15520102  1
  Co  Co1  1  -0.00000000  -0.00000000  0.84479898  1
  Co  Co2  1  0.50000000  0.50000000  0.70345732  1
  Co  Co3  1  0.00000000  -0.00000000  0.29654268  1
  Co  Co4  1  0.00000000  0.50000000  0.98686008  1
  Co  Co5  1  0.50000000  -0.00000000  0.01313992  1
  Co  Co6  1  0.50000000  0.33320367  0.99522952  1
  Co  Co7  1  0.50000000  0.66679633  0.99522952  1
  Co  Co8  1  -0.00000000  0.16679633  0.00477048  1
  Co  Co9  1  0.00000000  0.83320367  0.00477048  1
  Co  Co10  1  0.50000000  0.29654352  0.43075791  1
  Co  Co11  1  0.50000000  0.70345648  0.43075791  1
  Co  Co12  1  0.00000000  0.20345648  0.56924209  1
  Co  Co13  1  -0.00000000  0.79654352  0.56924209  1
  Co  Co14  1  0.50000000  0.88021524  0.70996515  1
  Co  Co15  1  0.50000000  0.11978476  0.70996515  1
  Co  Co16  1  -0.00000000  0.61978476  0.29003485  1
  Co  Co17  1  -0.00000000  0.38021524  0.29003485  1
  P  P0  1  0.50000000  0.50000000  0.88245502  1
  P  P1  1  0.00000000  -0.00000000  0.11754498  1
  P  P2  1  0.50000000  0.50000000  0.34309712  1
  P  P3  1  -0.00000000  -0.00000000  0.65690288  1
  P  P4  1  0.50000000  0.31030800  0.61523595  1
  P  P5  1  0.50000000  0.68969200  0.61523595  1
  P  P6  1  -0.00000000  0.18969200  0.38476405  1
  P  P7  1  -0.00000000  0.81030800  0.38476405  1
  P  P8  1  0.50000000  0.84632206  0.89374442  1
  P  P9  1  0.50000000  0.15367794  0.89374442  1
  P  P10  1  0.00000000  0.65367794  0.10625558  1
  P  P11  1  -0.00000000  0.34632206  0.10625558  1
loop_
_geom_bond_atom_site_label_1
_geom_bond_atom_site_label_2
_geom_bond_distance
_geom_bond_site_symmetry_2
Dy0 P2 2.836921 1_555
Dy0 P2 2.836921 1_455
Dy0 P5 2.930423 1_555
Dy0 P5 2.930423 1_455
Dy0 P4 2.930423 1_555
Dy0 P4 2.930423 1_455
Dy1 P3 2.836921 1_655
Dy1 P3 2.836921 1_555
Dy1 P7 2.930423 1_645
Dy1 P7 2.930423 1_545
Dy1 P6 2.930423 1_655
Dy1 P6 2.930423 1_555
Dy2 P10 2.785867 1_655
Dy2 P10 2.785867 1_555
Dy2 P7 2.842051 1_655
Dy2 P7 2.842051 1_555
Dy2 P1 2.855810 1_665
Dy2 P1 2.855810 1_565
Dy3 P11 2.785867 1_655
Dy3 P11 2.785867 1_555
Dy3 P6 2.842051 1_655
Dy3 P6 2.842051 1_555
Dy3 P1 2.855810 1_655
Dy3 P1 2.855810 1_555
Dy4 P8 2.785867 1_455
Dy4 P8 2.785867 1_555
Dy4 P5 2.842051 1_555
Dy4 P5 2.842051 1_455
Dy4 P0 2.855810 1_555
Dy4 P0 2.855810 1_455
Dy5 P9 2.785867 1_455
Dy5 P9 2.785867 1_555
Dy5 P4 2.842051 1_555
Dy5 P4 2.842051 1_455
Dy5 P0 2.855810 1_555
Dy5 P0 2.855810 1_455
Co0 P2 2.274220 1_555
Co0 P10 2.511132 1_655
Co0 P10 2.511132 1_555
Co0 P11 2.511132 1_655
Co0 P11 2.511132 1_555
Co1 P3 2.274220 1_555
Co1 P9 2.511132 1_455
Co1 P8 2.511132 1_445
Co1 P8 2.511132 1_545
Co1 P9 2.511132 1_555
Co2 P0 2.166518 1_555
Co2 P5 2.245948 1_555
Co2 P4 2.245948 1_555
Co2 Dy5 2.864984 1_555
Co2 Dy4 2.864984 1_655
Co2 Dy5 2.864984 1_655
Co2 Dy4 2.864984 1_555
Co2 Dy0 2.872255 1_555
Co2 Dy0 2.872255 1_655
Co3 P1 2.166518 1_555
Co3 P6 2.245948 1_555
Co3 P7 2.245948 1_545
Co3 Dy2 2.864984 1_545
Co3 Dy3 2.864984 1_555
Co3 Dy3 2.864984 1_455
Co3 Dy2 2.864984 1_445
Co3 Dy1 2.872255 1_455
Co3 Dy1 2.872255 1_555
Co4 P10 2.156560 1_556
Co4 P11 2.156560 1_556
Co4 P0 2.233678 1_555
Co4 P0 2.233678 1_455
Co4 Dy4 3.011190 1_555
Co4 Dy5 3.011190 1_555
Co5 P9 2.156560 1_554
Co5 P8 2.156560 1_544
Co5 P1 2.233678 1_655
Co5 P1 2.233678 1_555
Co5 Dy3 3.011190 1_555
Co5 Dy2 3.011190 1_545
Co6 P0 2.209455 1_555
Co6 P9 2.237330 1_555
Co6 P11 2.284064 1_556
Co6 P11 2.284064 1_656
Co6 Dy3 2.995503 1_556
Co6 Dy5 3.058445 1_655
Co6 Dy5 3.058445 1_555
Co7 P0 2.209455 1_555
Co7 P8 2.237330 1_555
Co7 P10 2.284064 1_656
Co7 P10 2.284064 1_556
Co7 Dy2 2.995503 1_556
Co7 Dy4 3.058445 1_655
Co7 Dy4 3.058445 1_555
Co8 P1 2.209455 1_555
Co8 P11 2.237330 1_555
Co8 P9 2.284064 1_554
Co8 P9 2.284064 1_454
Co8 Dy5 2.995503 1_554
Co8 Dy3 3.058445 1_455
Co8 Dy3 3.058445 1_555
Co9 P1 2.209455 1_565
Co9 P10 2.237330 1_555
Co9 P8 2.284064 1_454
Co9 P8 2.284064 1_554
Co9 Dy4 2.995503 1_554
Co9 Dy2 3.058445 1_555
Co9 Dy2 3.058445 1_455
Co10 P6 2.222856 1_555
Co10 P6 2.222856 1_655
Co10 P4 2.237448 1_555
Co10 P2 2.370016 1_555
Co10 Dy3 2.967723 1_555
Co10 Dy0 3.014365 1_655
Co10 Dy0 3.014365 1_555
Co10 Dy1 3.142752 1_555
Co11 P7 2.222856 1_555
Co11 P7 2.222856 1_655
Co11 P5 2.237448 1_555
Co11 P2 2.370016 1_555
Co11 Dy2 2.967723 1_555
Co11 Dy0 3.014365 1_655
Co11 Dy0 3.014365 1_555
Co11 Dy1 3.142752 1_565
Co12 P4 2.222856 1_555
Co12 P4 2.222856 1_455
Co12 P6 2.237448 1_555
Co12 P3 2.370016 1_555
Co12 Dy5 2.967723 1_555
Co12 Dy1 3.014365 1_455
Co12 Dy1 3.014365 1_555
Co12 Dy0 3.142752 1_555
Co13 P5 2.222856 1_455
Co13 P5 2.222856 1_555
Co13 P7 2.237448 1_555
Co13 P3 2.370016 1_565
Co13 Dy4 2.967723 1_555
Co13 Dy1 3.014365 1_465
Co13 Dy1 3.014365 1_565
Co13 Dy0 3.142752 1_555
Co14 P8 2.252234 1_555
Co14 P5 2.291941 1_555
Co14 P3 2.315532 1_665
Co14 P3 2.315532 1_565
Co14 Dy4 2.943615 1_655
Co14 Dy4 2.943615 1_555
Co14 Dy1 3.065368 1_565
Co15 P9 2.252234 1_555
Co15 P4 2.291941 1_555
Co15 P3 2.315532 1_555
Co15 P3 2.315532 1_655
Co15 Dy5 2.943615 1_655
Co15 Dy5 2.943615 1_555
Co15 Dy1 3.065368 1_555
Co16 P10 2.252234 1_555
Co16 P7 2.291941 1_555
Co16 P2 2.315532 1_555
Co16 P2 2.315532 1_455
Co16 Dy2 2.943615 1_455
Co16 Dy2 2.943615 1_555
Co16 Dy0 3.065368 1_555
Co17 P11 2.252234 1_555
Co17 P6 2.291941 1_555
Co17 P2 2.315532 1_555
Co17 P2 2.315532 1_455
Co17 Dy3 2.943615 1_455
Co17 Dy3 2.943615 1_555
Co17 Dy0 3.065368 1_555
