# generated using pymatgen
data_BaMg6Nb
_symmetry_space_group_name_H-M   'P 1'
_cell_length_a   6.75994100
_cell_length_b   6.75994100
_cell_length_c   4.50426800
_cell_angle_alpha   90.00000000
_cell_angle_beta   90.00000000
_cell_angle_gamma   90.00000000
_symmetry_Int_Tables_number   1
_chemical_formula_structural   BaMg6Nb
_chemical_formula_sum   'Ba1 Mg6 Nb1'
_cell_volume   205.83064441
_cell_formula_units_Z   1
loop_
 _symmetry_equiv_pos_site_id
 _symmetry_equiv_pos_as_xyz
  1  'x, y, z'
loop_
 _atom_site_type_symbol
 _atom_site_label
 _atom_site_symmetry_multiplicity
 _atom_site_fract_x
 _atom_site_fract_y
 _atom_site_fract_z
 _atom_site_occupancy
  Ba  Ba0  1  0.50000000  0.50000000  0.50000000  1
  Mg  Mg0  1  0.50000000  0.00000000  0.50000000  1
  Mg  Mg1  1  0.00000000  0.50000000  0.50000000  1
  Mg  Mg2  1  0.21545200  0.78454800  0.00000000  1
  Mg  Mg3  1  0.78454800  0.21545200  0.00000000  1
  Mg  Mg4  1  0.21545200  0.21545200  0.00000000  1
  Mg  Mg5  1  0.78454800  0.78454800  0.00000000  1
  Nb  Nb0  1  0.00000000  0.00000000  0.50000000  1
loop_
_geom_bond_atom_site_label_1
_geom_bond_atom_site_label_2
_geom_bond_distance
_geom_bond_site_symmetry_2
Ba0 Mg0 3.379970 1_555
Ba0 Mg1 3.379970 1_555
Ba0 Mg0 3.379970 1_565
Ba0 Mg1 3.379970 1_655
Ba0 Mg5 3.531575 1_555
Ba0 Mg5 3.531575 1_556
Ba0 Mg2 3.531575 1_555
Ba0 Mg3 3.531575 1_555
Ba0 Mg3 3.531575 1_556
Ba0 Mg2 3.531575 1_556
Ba0 Mg4 3.531575 1_555
Ba0 Mg4 3.531575 1_556
Mg0 Mg3 3.300499 1_555
Mg0 Mg3 3.300499 1_556
Mg0 Mg5 3.300499 1_545
Mg0 Mg5 3.300499 1_546
Mg0 Mg4 3.300499 1_556
Mg0 Mg4 3.300499 1_555
Mg0 Mg2 3.300499 1_545
Mg0 Mg2 3.300499 1_546
Mg0 Nb0 3.379970 1_555
Mg0 Nb0 3.379970 1_655
Mg1 Mg2 3.300499 1_556
Mg1 Mg2 3.300499 1_555
Mg1 Mg5 3.300499 1_455
Mg1 Mg5 3.300499 1_456
Mg1 Mg4 3.300499 1_556
Mg1 Mg4 3.300499 1_555
Mg1 Mg3 3.300499 1_455
Mg1 Mg3 3.300499 1_456
Mg1 Nb0 3.379970 1_555
Mg1 Nb0 3.379970 1_565
Mg2 Mg5 2.912886 1_455
Mg2 Mg4 2.912886 1_565
Mg2 Nb0 3.051976 1_565
Mg2 Nb0 3.051976 1_564
Mg3 Mg5 2.912886 1_545
Mg3 Mg4 2.912886 1_655
Mg3 Nb0 3.051976 1_655
Mg3 Nb0 3.051976 1_654
Mg4 Nb0 3.051976 1_555
Mg4 Nb0 3.051976 1_554
Mg5 Nb0 3.051976 1_664
Mg5 Nb0 3.051976 1_665
