# generated using pymatgen
data_Y(VFe5)2
_symmetry_space_group_name_H-M   'P 1'
_cell_length_a   4.69016600
_cell_length_b   6.43861639
_cell_length_c   6.43861639
_cell_angle_alpha   97.26026129
_cell_angle_beta   111.35968493
_cell_angle_gamma   68.64031507
_symmetry_Int_Tables_number   1
_chemical_formula_structural   Y(VFe5)2
_chemical_formula_sum   'Y1 V2 Fe10'
_cell_volume   168.63690714
_cell_formula_units_Z   1
loop_
 _symmetry_equiv_pos_site_id
 _symmetry_equiv_pos_as_xyz
  1  'x, y, z'
loop_
 _atom_site_type_symbol
 _atom_site_label
 _atom_site_symmetry_multiplicity
 _atom_site_fract_x
 _atom_site_fract_y
 _atom_site_fract_z
 _atom_site_occupancy
  Y  Y0  1  0.00000000  0.00000000  0.00000000  1
  V  V0  1  0.00000000  0.35911100  0.35911100  1
  V  V1  1  0.00000000  0.64088900  0.64088900  1
  Fe  Fe0  1  0.72620200  0.77379800  0.22620200  1
  Fe  Fe1  1  0.27379800  0.22620200  0.77379800  1
  Fe  Fe2  1  0.50000000  0.77090200  0.77090200  1
  Fe  Fe3  1  0.50000000  0.22909800  0.22909800  1
  Fe  Fe4  1  0.50000000  0.00000000  0.50000000  1
  Fe  Fe5  1  0.00000000  0.00000000  0.50000000  1
  Fe  Fe6  1  0.50000000  0.50000000  0.00000000  1
  Fe  Fe7  1  0.00000000  0.50000000  0.00000000  1
  Fe  Fe8  1  0.64057100  0.35942900  0.64057100  1
  Fe  Fe9  1  0.35942900  0.64057100  0.35942900  1
loop_
_geom_bond_atom_site_label_1
_geom_bond_atom_site_label_2
_geom_bond_distance
_geom_bond_site_symmetry_2
V0 V1 2.398152 1_555
V0 Y0 3.056317 1_555
V1 Y0 3.056317 1_566
Fe0 Fe5 2.437699 1_665
Fe0 Fe6 2.437699 1_555
Fe0 Fe7 2.437699 1_655
Fe0 Fe4 2.437699 1_565
Fe0 Fe9 2.601265 1_655
Fe0 Fe9 2.601265 1_555
Fe0 V1 2.605707 1_655
Fe0 V0 2.605707 1_655
Fe0 Fe3 2.730325 1_565
Fe0 Fe2 2.730325 1_554
Fe0 Y0 3.025286 1_665
Fe0 Y0 3.025286 1_565
Fe1 Fe6 2.437699 1_556
Fe1 Fe7 2.437699 1_556
Fe1 Fe4 2.437699 1_555
Fe1 Fe5 2.437699 1_555
Fe1 Fe8 2.601265 1_455
Fe1 Fe8 2.601265 1_555
Fe1 V1 2.605707 1_555
Fe1 V0 2.605707 1_555
Fe1 Fe2 2.730325 1_545
Fe1 Fe3 2.730325 1_556
Fe1 Y0 3.025286 1_656
Fe1 Y0 3.025286 1_556
Fe2 Fe6 2.422498 1_556
Fe2 Fe4 2.422498 1_565
Fe2 Fe7 2.422498 1_656
Fe2 Fe5 2.422498 1_565
Fe2 V1 2.593026 1_555
Fe2 V1 2.593026 1_655
Fe2 Fe9 2.593542 1_555
Fe2 Fe8 2.593542 1_555
Fe2 Y0 3.049779 1_666
Fe2 Y0 3.049779 1_566
Fe3 Fe4 2.422498 1_555
Fe3 Fe5 2.422498 1_655
Fe3 Fe7 2.422498 1_555
Fe3 Fe6 2.422498 1_555
Fe3 V0 2.593026 1_555
Fe3 V0 2.593026 1_655
Fe3 Fe9 2.593542 1_555
Fe3 Fe8 2.593542 1_555
Fe3 Y0 3.049779 1_555
Fe3 Y0 3.049779 1_655
Fe4 Fe5 2.345083 1_555
Fe4 Fe5 2.345083 1_655
Fe4 V0 2.588279 1_555
Fe4 V1 2.588279 1_645
Fe4 Fe9 2.599393 1_545
Fe4 Fe8 2.599393 1_555
Fe4 Y0 3.219308 1_555
Fe4 Y0 3.219308 1_656
Fe5 V0 2.588279 1_555
Fe5 V1 2.588279 1_545
Fe5 Fe8 2.599393 1_455
Fe5 Fe9 2.599393 1_545
Fe5 Y0 3.219308 1_556
Fe5 Y0 3.219308 1_555
Fe6 Fe7 2.345083 1_555
Fe6 Fe7 2.345083 1_655
Fe6 V0 2.588279 1_655
Fe6 V1 2.588279 1_554
Fe6 Fe8 2.599393 1_554
Fe6 Fe9 2.599393 1_555
Fe6 Y0 3.219308 1_655
Fe6 Y0 3.219308 1_565
Fe7 V0 2.588279 1_555
Fe7 V1 2.588279 1_554
Fe7 Fe8 2.599393 1_454
Fe7 Fe9 2.599393 1_555
Fe7 Y0 3.219308 1_555
Fe7 Y0 3.219308 1_565
Fe8 Fe9 2.375475 1_555
Fe8 V1 2.889276 1_655
Fe8 V1 2.889276 1_555
Fe8 V0 2.889276 1_655
Fe8 V0 2.889276 1_555
Fe8 Y0 3.036951 1_656
Fe9 V1 2.889276 1_655
Fe9 V1 2.889276 1_555
Fe9 V0 2.889276 1_655
Fe9 V0 2.889276 1_555
Fe9 Y0 3.036951 1_565
