# generated using pymatgen
data_SrLaPt2
_symmetry_space_group_name_H-M   'P 1'
_cell_length_a   5.17718271
_cell_length_b   5.17718271
_cell_length_c   5.17718271
_cell_angle_alpha   60.00000000
_cell_angle_beta   60.00000000
_cell_angle_gamma   60.00000000
_symmetry_Int_Tables_number   1
_chemical_formula_structural   SrLaPt2
_chemical_formula_sum   'Sr1 La1 Pt2'
_cell_volume   98.12179353
_cell_formula_units_Z   1
loop_
 _symmetry_equiv_pos_site_id
 _symmetry_equiv_pos_as_xyz
  1  'x, y, z'
loop_
 _atom_site_type_symbol
 _atom_site_label
 _atom_site_symmetry_multiplicity
 _atom_site_fract_x
 _atom_site_fract_y
 _atom_site_fract_z
 _atom_site_occupancy
  Sr  Sr0  1  0.00000000  0.00000000  0.00000000  1
  La  La0  1  0.50000000  0.50000000  0.50000000  1
  Pt  Pt0  1  0.25000000  0.25000000  0.25000000  1
  Pt  Pt1  1  0.75000000  0.75000000  0.75000000  1
loop_
_geom_bond_atom_site_label_1
_geom_bond_atom_site_label_2
_geom_bond_distance
_geom_bond_site_symmetry_2
La0 Pt0 3.170364 1_655
La0 Pt1 3.170364 1_455
La0 Pt1 3.170364 1_554
La0 Pt0 3.170364 1_555
La0 Pt0 3.170364 1_556
La0 Pt0 3.170364 1_565
La0 Pt1 3.170364 1_555
La0 Pt1 3.170364 1_545
Pt0 Sr0 3.170364 1_655
Pt0 Sr0 3.170364 1_556
Pt0 Sr0 3.170364 1_565
Pt0 Sr0 3.170364 1_555
Pt1 Sr0 3.170364 1_566
Pt1 Sr0 3.170364 1_656
Pt1 Sr0 3.170364 1_665
Pt1 Sr0 3.170364 1_666
