# generated using pymatgen
data_Mg6ZrZn
_symmetry_space_group_name_H-M   'P 1'
_cell_length_a   4.96991700
_cell_length_b   6.06954900
_cell_length_c   11.37696500
_cell_angle_alpha   90.00000000
_cell_angle_beta   90.00000000
_cell_angle_gamma   90.00000000
_symmetry_Int_Tables_number   1
_chemical_formula_structural   Mg6ZrZn
_chemical_formula_sum   'Mg12 Zr2 Zn2'
_cell_volume   343.18790989
_cell_formula_units_Z   2
loop_
 _symmetry_equiv_pos_site_id
 _symmetry_equiv_pos_as_xyz
  1  'x, y, z'
loop_
 _atom_site_type_symbol
 _atom_site_label
 _atom_site_symmetry_multiplicity
 _atom_site_fract_x
 _atom_site_fract_y
 _atom_site_fract_z
 _atom_site_occupancy
  Mg  Mg0  1  0.50000000  0.24977800  0.42513700  1
  Mg  Mg1  1  0.50000000  0.75022200  0.42513700  1
  Mg  Mg2  1  0.00000000  0.74626800  0.08085700  1
  Mg  Mg3  1  0.00000000  0.25373200  0.08085700  1
  Mg  Mg4  1  0.00000000  0.00000000  0.31764500  1
  Mg  Mg5  1  0.00000000  0.50000000  0.33125800  1
  Mg  Mg6  1  0.50000000  0.74977800  0.92513700  1
  Mg  Mg7  1  0.50000000  0.25022200  0.92513700  1
  Mg  Mg8  1  0.00000000  0.24626800  0.58085700  1
  Mg  Mg9  1  0.00000000  0.75373200  0.58085700  1
  Mg  Mg10  1  0.00000000  0.50000000  0.81764500  1
  Mg  Mg11  1  0.00000000  0.00000000  0.83125800  1
  Zr  Zr0  1  0.50000000  0.50000000  0.17724700  1
  Zr  Zr1  1  0.50000000  0.00000000  0.67724700  1
  Zn  Zn0  1  0.50000000  0.00000000  0.16185900  1
  Zn  Zn1  1  0.50000000  0.50000000  0.66185900  1
loop_
_geom_bond_atom_site_label_1
_geom_bond_atom_site_label_2
_geom_bond_distance
_geom_bond_site_symmetry_2
Mg0 Mg1 3.032080 1_545
Mg0 Mg1 3.037469 1_555
Mg0 Mg8 3.051903 1_655
Mg0 Mg8 3.051903 1_555
Mg0 Zn1 3.091887 1_555
Mg0 Mg5 3.101987 1_555
Mg0 Mg5 3.101987 1_655
Mg0 Mg4 3.157366 1_655
Mg0 Mg4 3.157366 1_555
Mg0 Zr0 3.203168 1_555
Mg0 Zr1 3.244259 1_555
Mg0 Zn0 3.357116 1_555
Mg1 Mg9 3.051903 1_655
Mg1 Mg9 3.051903 1_555
Mg1 Zn1 3.091887 1_555
Mg1 Mg5 3.101987 1_555
Mg1 Mg5 3.101987 1_655
Mg1 Mg4 3.157366 1_565
Mg1 Mg4 3.157366 1_665
Mg1 Zr0 3.203168 1_555
Mg1 Zr1 3.244259 1_565
Mg1 Zn0 3.357116 1_565
Mg2 Mg3 2.989471 1_555
Mg2 Mg6 3.051903 1_554
Mg2 Mg6 3.051903 1_454
Mg2 Zn0 3.065290 1_465
Mg2 Zn0 3.065290 1_565
Mg2 Mg3 3.080078 1_565
Mg2 Zr0 3.100297 1_455
Mg2 Zr0 3.100297 1_555
Mg2 Mg4 3.103058 1_565
Mg2 Mg5 3.217128 1_555
Mg3 Mg7 3.051903 1_454
Mg3 Mg7 3.051903 1_554
Mg3 Zn0 3.065290 1_555
Mg3 Zn0 3.065290 1_455
Mg3 Zr0 3.100297 1_455
Mg3 Zr0 3.100297 1_555
Mg3 Mg4 3.103058 1_555
Mg3 Mg5 3.217128 1_555
Mg4 Mg5 3.038724 1_545
Mg4 Mg5 3.038724 1_555
Mg4 Zn0 3.052265 1_455
Mg4 Zn0 3.052265 1_555
Mg4 Mg8 3.346877 1_555
Mg4 Mg9 3.346877 1_545
Mg5 Zr0 3.040583 1_455
Mg5 Zr0 3.040583 1_555
Mg5 Mg9 3.230402 1_555
Mg5 Mg8 3.230402 1_555
Mg6 Mg7 3.032080 1_555
Mg6 Mg7 3.037469 1_565
Mg6 Zn0 3.091887 1_566
Mg6 Zr1 3.203168 1_565
Mg6 Zr0 3.244259 1_556
Mg6 Zn1 3.357116 1_555
Mg7 Zn0 3.091887 1_556
Mg7 Zr1 3.203168 1_555
Mg7 Zr0 3.244259 1_556
Mg7 Zn1 3.357116 1_555
Mg8 Mg9 2.989471 1_545
Mg8 Zn1 3.065290 1_455
Mg8 Zn1 3.065290 1_555
Mg8 Mg9 3.080078 1_555
Mg8 Zr1 3.100297 1_455
Mg8 Zr1 3.100297 1_555
Mg9 Zn1 3.065290 1_455
Mg9 Zn1 3.065290 1_555
Mg9 Zr1 3.100297 1_565
Mg9 Zr1 3.100297 1_465
Mg10 Mg11 3.038724 1_555
Mg10 Mg11 3.038724 1_565
Mg10 Zn1 3.052265 1_455
Mg10 Zn1 3.052265 1_555
Mg10 Mg9 3.103058 1_555
Mg10 Mg8 3.103058 1_555
Mg10 Mg6 3.157366 1_555
Mg10 Mg6 3.157366 1_455
Mg10 Mg7 3.157366 1_455
Mg10 Mg7 3.157366 1_555
Mg10 Mg3 3.346877 1_556
Mg10 Mg2 3.346877 1_556
Mg11 Zr1 3.040583 1_455
Mg11 Zr1 3.040583 1_555
Mg11 Mg6 3.101987 1_445
Mg11 Mg7 3.101987 1_455
Mg11 Mg6 3.101987 1_545
Mg11 Mg7 3.101987 1_555
Mg11 Mg8 3.217128 1_555
Mg11 Mg9 3.217128 1_545
Mg11 Mg2 3.230402 1_546
Mg11 Mg3 3.230402 1_556
Zn0 Zr0 3.039820 1_555
Zn0 Zr0 3.039820 1_545
Zn1 Zr1 3.039820 1_565
Zn1 Zr1 3.039820 1_555
