# generated using pymatgen
data_CaPrCrO4
_symmetry_space_group_name_H-M   'P 1'
_cell_length_a   6.59461371
_cell_length_b   6.59461371
_cell_length_c   5.61068900
_cell_angle_alpha   90.00000000
_cell_angle_beta   90.00000000
_cell_angle_gamma   131.18393611
_symmetry_Int_Tables_number   1
_chemical_formula_structural   CaPrCrO4
_chemical_formula_sum   'Ca2 Pr2 Cr2 O8'
_cell_volume   183.63644469
_cell_formula_units_Z   2
loop_
 _symmetry_equiv_pos_site_id
 _symmetry_equiv_pos_as_xyz
  1  'x, y, z'
loop_
 _atom_site_type_symbol
 _atom_site_label
 _atom_site_symmetry_multiplicity
 _atom_site_fract_x
 _atom_site_fract_y
 _atom_site_fract_z
 _atom_site_occupancy
  Ca  Ca0  1  0.89637100  0.10362900  0.51861100  1
  Ca  Ca1  1  0.10362900  0.89637100  0.01861100  1
  Pr  Pr0  1  0.61200000  0.38800000  0.48329500  1
  Pr  Pr1  1  0.38800000  0.61200000  0.98329500  1
  Cr  Cr0  1  0.24904500  0.75095500  0.49875000  1
  Cr  Cr1  1  0.75095500  0.24904500  0.99875000  1
  O  O0  1  0.08159100  0.91840900  0.44230400  1
  O  O1  1  0.42138200  0.57861800  0.55383000  1
  O  O2  1  0.91840900  0.08159100  0.94230400  1
  O  O3  1  0.57861800  0.42138200  0.05383000  1
  O  O4  1  0.52135400  0.98432400  0.25160500  1
  O  O5  1  0.47864600  0.01567600  0.75160500  1
  O  O6  1  0.98432400  0.52135400  0.75160500  1
  O  O7  1  0.01567600  0.47864600  0.25160500  1
loop_
_geom_bond_atom_site_label_1
_geom_bond_atom_site_label_2
_geom_bond_distance
_geom_bond_site_symmetry_2
Ca0 O0 2.265400 1_645
Ca0 O2 2.391900 1_555
Ca0 O7 2.533176 1_655
Ca0 O4 2.533176 1_545
Ca0 O6 2.744027 1_555
Ca0 O5 2.744027 1_555
Ca0 O1 2.748724 1_655
Ca0 O1 2.748724 1_545
Ca1 O2 2.265400 1_464
Ca1 O0 2.391900 1_555
Ca1 O6 2.533176 1_454
Ca1 O5 2.533176 1_564
Ca1 O7 2.744027 1_555
Ca1 O4 2.744027 1_555
Ca1 O3 2.748724 1_565
Ca1 O3 2.748724 1_455
Cr0 O5 1.967686 1_565
Cr0 O6 1.967686 1_455
Cr0 O7 1.968870 1_555
Cr0 O4 1.968870 1_555
Cr0 O0 2.035980 1_555
Cr0 O1 2.092788 1_555
Cr1 O7 1.967686 1_656
Cr1 O4 1.967686 1_546
Cr1 O6 1.968870 1_555
Cr1 O5 1.968870 1_555
Cr1 O2 2.035980 1_555
Cr1 O3 2.092788 1_556
O0 Pr0 2.759074 1_455
O0 Pr0 2.759074 1_565
O1 Pr0 2.323361 1_555
O1 Pr1 2.442722 1_555
O2 Pr1 2.759074 1_545
O2 Pr1 2.759074 1_655
O3 Pr1 2.323361 1_554
O3 Pr0 2.442722 1_555
O4 Pr1 2.494919 1_554
O4 Pr0 2.652956 1_565
O5 Pr0 2.494919 1_555
O5 Pr1 2.652956 1_545
O6 Pr0 2.494919 1_555
O6 Pr1 2.652956 1_655
O7 Pr1 2.494919 1_554
O7 Pr0 2.652956 1_455
