# generated using pymatgen
data_Rb3SbS3
_symmetry_space_group_name_H-M   'P 1'
_cell_length_a   9.89316684
_cell_length_b   9.89316684
_cell_length_c   9.89316684
_cell_angle_alpha   90.00000000
_cell_angle_beta   90.00000000
_cell_angle_gamma   90.00000000
_symmetry_Int_Tables_number   1
_chemical_formula_structural   Rb3SbS3
_chemical_formula_sum   'Rb12 Sb4 S12'
_cell_volume   968.29123240
_cell_formula_units_Z   4
loop_
 _symmetry_equiv_pos_site_id
 _symmetry_equiv_pos_as_xyz
  1  'x, y, z'
loop_
 _atom_site_type_symbol
 _atom_site_label
 _atom_site_symmetry_multiplicity
 _atom_site_fract_x
 _atom_site_fract_y
 _atom_site_fract_z
 _atom_site_occupancy
  Rb  Rb0  1  0.44100614  0.94100614  0.55899386  1
  Rb  Rb1  1  0.94100614  0.55899386  0.44100614  1
  Rb  Rb2  1  0.55899386  0.44100614  0.94100614  1
  Rb  Rb3  1  0.05899386  0.05899386  0.05899386  1
  Rb  Rb4  1  0.93689104  0.43689104  0.06310896  1
  Rb  Rb5  1  0.43689104  0.06310896  0.93689104  1
  Rb  Rb6  1  0.06310896  0.93689104  0.43689104  1
  Rb  Rb7  1  0.56310896  0.56310896  0.56310896  1
  Rb  Rb8  1  0.67817944  0.17817944  0.32182056  1
  Rb  Rb9  1  0.17817944  0.32182056  0.67817944  1
  Rb  Rb10  1  0.32182056  0.67817944  0.17817944  1
  Rb  Rb11  1  0.82182056  0.82182056  0.82182056  1
  Sb  Sb0  1  0.22324371  0.72324371  0.77675629  1
  Sb  Sb1  1  0.72324371  0.77675629  0.22324371  1
  Sb  Sb2  1  0.77675629  0.22324371  0.72324371  1
  Sb  Sb3  1  0.27675629  0.27675629  0.27675629  1
  S  S0  1  0.15473222  0.95907058  0.75568068  1
  S  S1  1  0.24431932  0.65473222  0.54092942  1
  S  S2  1  0.45907058  0.74431932  0.84526778  1
  S  S3  1  0.65473222  0.54092942  0.24431932  1
  S  S4  1  0.74431932  0.84526778  0.45907058  1
  S  S5  1  0.95907058  0.75568068  0.15473222  1
  S  S6  1  0.84526778  0.45907058  0.74431932  1
  S  S7  1  0.75568068  0.15473222  0.95907058  1
  S  S8  1  0.54092942  0.24431932  0.65473222  1
  S  S9  1  0.34526778  0.04092942  0.25568068  1
  S  S10  1  0.25568068  0.34526778  0.04092942  1
  S  S11  1  0.04092942  0.25568068  0.34526778  1
loop_
_geom_bond_atom_site_label_1
_geom_bond_atom_site_label_2
_geom_bond_distance
_geom_bond_site_symmetry_2
Rb0 S8 3.298290 1_565
Rb0 S9 3.298290 1_565
Rb0 S4 3.298290 1_555
Rb0 S1 3.440843 1_555
Rb0 S0 3.440843 1_555
Rb0 S2 3.440843 1_555
Rb1 S1 3.298290 1_655
Rb1 S11 3.298290 1_655
Rb1 S6 3.298290 1_555
Rb1 S5 3.440843 1_555
Rb1 S3 3.440843 1_555
Rb1 S4 3.440843 1_555
Rb2 S2 3.298290 1_555
Rb2 S3 3.298290 1_556
Rb2 S10 3.298290 1_556
Rb2 S8 3.440843 1_555
Rb2 S7 3.440843 1_555
Rb2 S6 3.440843 1_555
Rb3 S0 3.298290 1_544
Rb3 S5 3.298290 1_445
Rb3 S7 3.298290 1_454
Rb3 S9 3.440843 1_555
Rb3 S10 3.440843 1_555
Rb3 S11 3.440843 1_555
Rb4 S6 3.288843 1_554
Rb4 S10 3.288843 1_655
Rb4 S5 3.288843 1_555
Rb4 S3 3.473541 1_555
Rb4 S7 3.473541 1_554
Rb4 S11 3.473541 1_655
Rb5 S9 3.288843 1_556
Rb5 S2 3.288843 1_545
Rb5 S7 3.288843 1_555
Rb5 S8 3.473541 1_555
Rb5 S10 3.473541 1_556
Rb5 S0 3.473541 1_545
Rb6 S0 3.288843 1_555
Rb6 S4 3.288843 1_455
Rb6 S11 3.288843 1_565
Rb6 S1 3.473541 1_555
Rb6 S9 3.473541 1_565
Rb6 S5 3.473541 1_455
Rb7 S3 3.288843 1_555
Rb7 S8 3.288843 1_555
Rb7 S1 3.288843 1_555
Rb7 S2 3.473541 1_555
Rb7 S6 3.473541 1_555
Rb7 S4 3.473541 1_555
Rb8 S4 3.622064 1_545
Rb8 S9 3.622064 1_555
Rb8 S8 3.622064 1_555
Rb8 S7 3.677062 1_554
Rb8 S3 3.677062 1_555
Rb8 S11 3.677062 1_655
Rb9 S11 3.622064 1_555
Rb9 S1 3.622064 1_555
Rb9 S6 3.622064 1_455
Rb9 S0 3.677062 1_545
Rb9 S8 3.677062 1_555
Rb9 S10 3.677062 1_556
Rb10 S3 3.622064 1_555
Rb10 S10 3.622064 1_555
Rb10 S2 3.622064 1_554
Rb10 S5 3.677062 1_455
Rb10 S1 3.677062 1_555
Rb10 S9 3.677062 1_565
Rb11 S7 3.622064 1_565
Rb11 S5 3.622064 1_556
Rb11 S0 3.622064 1_655
Rb11 S4 3.677062 1_555
Rb11 S2 3.677062 1_555
Rb11 S6 3.677062 1_555
S0 Sb0 2.438466 1_555
S1 Sb0 2.438466 1_555
S2 Sb0 2.438466 1_555
S3 Sb1 2.438466 1_555
S4 Sb1 2.438466 1_555
S5 Sb1 2.438466 1_555
S6 Sb2 2.438466 1_555
S7 Sb2 2.438466 1_555
S8 Sb2 2.438466 1_555
S9 Sb3 2.438466 1_555
S10 Sb3 2.438466 1_555
S11 Sb3 2.438466 1_555
