# generated using pymatgen
data_SrCaCr2O6
_symmetry_space_group_name_H-M   'P 1'
_cell_length_a   3.82021700
_cell_length_b   3.82021700
_cell_length_c   7.87187100
_cell_angle_alpha   90.00000000
_cell_angle_beta   90.00000000
_cell_angle_gamma   90.00000000
_symmetry_Int_Tables_number   1
_chemical_formula_structural   SrCaCr2O6
_chemical_formula_sum   'Sr1 Ca1 Cr2 O6'
_cell_volume   114.88254137
_cell_formula_units_Z   1
loop_
 _symmetry_equiv_pos_site_id
 _symmetry_equiv_pos_as_xyz
  1  'x, y, z'
loop_
 _atom_site_type_symbol
 _atom_site_label
 _atom_site_symmetry_multiplicity
 _atom_site_fract_x
 _atom_site_fract_y
 _atom_site_fract_z
 _atom_site_occupancy
  Sr  Sr0  1  0.50000000  0.50000000  0.00000000  1
  Ca  Ca0  1  0.50000000  0.50000000  0.50000000  1
  Cr  Cr0  1  0.00000000  0.00000000  0.25274700  1
  Cr  Cr1  1  0.00000000  0.00000000  0.74725300  1
  O  O0  1  0.00000000  0.00000000  0.00000000  1
  O  O1  1  0.00000000  0.00000000  0.50000000  1
  O  O2  1  0.50000000  0.00000000  0.74475100  1
  O  O3  1  0.50000000  0.00000000  0.25524900  1
  O  O4  1  0.00000000  0.50000000  0.25524900  1
  O  O5  1  0.00000000  0.50000000  0.74475100  1
loop_
_geom_bond_atom_site_label_1
_geom_bond_atom_site_label_2
_geom_bond_distance
_geom_bond_site_symmetry_2
Ca0 O1 2.701301 1_665
Ca0 O1 2.701301 1_555
Ca0 O1 2.701301 1_655
Ca0 O1 2.701301 1_565
Ca0 O5 2.713022 1_555
Ca0 O5 2.713022 1_655
Ca0 O2 2.713022 1_555
Ca0 O2 2.713022 1_565
Ca0 O3 2.713022 1_565
Ca0 O4 2.713022 1_555
Ca0 O4 2.713022 1_655
Ca0 O3 2.713022 1_555
Cr0 O4 1.910210 1_555
Cr0 O4 1.910210 1_545
Cr0 O3 1.910210 1_455
Cr0 O3 1.910210 1_555
Cr0 O1 1.946344 1_555
Cr0 O0 1.989592 1_555
Cr1 O5 1.910210 1_545
Cr1 O2 1.910210 1_455
Cr1 O5 1.910210 1_555
Cr1 O2 1.910210 1_555
Cr1 O1 1.946344 1_555
Cr1 O0 1.989592 1_556
O0 Sr0 2.701301 1_445
O0 Sr0 2.701301 1_555
O0 Sr0 2.701301 1_545
O0 Sr0 2.701301 1_455
O2 Sr0 2.772318 1_556
O2 Sr0 2.772318 1_546
O3 Sr0 2.772318 1_555
O3 Sr0 2.772318 1_545
O4 Sr0 2.772318 1_455
O4 Sr0 2.772318 1_555
O5 Sr0 2.772318 1_456
O5 Sr0 2.772318 1_556
