# generated using pymatgen
data_ReB4
_symmetry_space_group_name_H-M   'P 1'
_cell_length_a   5.45434806
_cell_length_b   5.45434806
_cell_length_c   6.18578600
_cell_angle_alpha   90.00000000
_cell_angle_beta   90.00000000
_cell_angle_gamma   120.00000074
_symmetry_Int_Tables_number   1
_chemical_formula_structural   ReB4
_chemical_formula_sum   'Re4 B16'
_cell_volume   159.37170413
_cell_formula_units_Z   4
loop_
 _symmetry_equiv_pos_site_id
 _symmetry_equiv_pos_as_xyz
  1  'x, y, z'
loop_
 _atom_site_type_symbol
 _atom_site_label
 _atom_site_symmetry_multiplicity
 _atom_site_fract_x
 _atom_site_fract_y
 _atom_site_fract_z
 _atom_site_occupancy
  Re  Re0  1  0.33333300  0.66666700  0.25000000  1
  Re  Re1  1  0.66666700  0.33333300  0.75000000  1
  Re  Re2  1  0.00000000  0.00000000  0.25000000  1
  Re  Re3  1  0.00000000  0.00000000  0.75000000  1
  B  B0  1  0.33758300  0.33758300  0.50000000  1
  B  B1  1  0.66241700  0.00000000  0.50000000  1
  B  B2  1  0.00000000  0.66241700  0.50000000  1
  B  B3  1  0.66241700  0.66241700  0.50000000  1
  B  B4  1  0.00000000  0.33758300  0.50000000  1
  B  B5  1  0.33758300  0.00000000  0.50000000  1
  B  B6  1  0.66241700  0.66241700  0.00000000  1
  B  B7  1  0.33758300  0.00000000  0.00000000  1
  B  B8  1  0.00000000  0.33758300  0.00000000  1
  B  B9  1  0.33758300  0.33758300  0.00000000  1
  B  B10  1  0.00000000  0.66241700  0.00000000  1
  B  B11  1  0.66241700  0.00000000  0.00000000  1
  B  B12  1  0.33333300  0.66666700  0.88684200  1
  B  B13  1  0.66666700  0.33333300  0.11315800  1
  B  B14  1  0.66666700  0.33333300  0.38684200  1
  B  B15  1  0.33333300  0.66666700  0.61315800  1
loop_
_geom_bond_atom_site_label_1
_geom_bond_atom_site_label_2
_geom_bond_distance
_geom_bond_site_symmetry_2
B0 B3 1.771758 1_555
B0 B4 1.841295 1_555
B0 B5 1.841295 1_555
B0 B15 1.937501 1_555
B0 B14 1.937501 1_555
B0 Re1 2.378118 1_555
B0 Re0 2.378118 1_555
B0 Re3 2.404551 1_555
B0 Re2 2.404551 1_555
B1 B5 1.771758 1_555
B1 B4 1.841295 1_655
B1 B3 1.841295 1_545
B1 B14 1.937496 1_555
B1 B15 1.937498 1_545
B1 Re1 2.378114 1_555
B1 Re0 2.378116 1_545
B1 Re2 2.404551 1_655
B1 Re3 2.404551 1_655
B2 B4 1.771758 1_555
B2 B5 1.841295 1_565
B2 B3 1.841295 1_455
B2 Re0 2.378114 1_555
B2 Re1 2.378116 1_455
B2 Re2 2.404551 1_565
B2 Re3 2.404551 1_565
B3 Re1 2.378118 1_555
B3 Re0 2.378118 1_555
B3 Re3 2.404551 1_665
B3 Re2 2.404551 1_665
B4 Re1 2.378114 1_455
B4 Re0 2.378116 1_555
B4 Re3 2.404551 1_555
B4 Re2 2.404551 1_555
B5 Re0 2.378114 1_545
B5 Re1 2.378116 1_555
B5 Re3 2.404551 1_555
B5 Re2 2.404551 1_555
B6 B9 1.771758 1_555
B6 Re1 2.378118 1_554
B6 Re0 2.378118 1_555
B6 Re3 2.404551 1_664
B6 Re2 2.404551 1_665
B7 B9 1.841295 1_555
B7 Re0 2.378114 1_545
B7 Re1 2.378116 1_554
B7 Re3 2.404551 1_554
B7 Re2 2.404551 1_555
B8 B9 1.841295 1_555
B8 Re1 2.378114 1_454
B8 Re0 2.378116 1_555
B8 Re3 2.404551 1_554
B8 Re2 2.404551 1_555
B9 Re1 2.378118 1_554
B9 Re0 2.378118 1_555
B9 Re2 2.404551 1_555
B9 Re3 2.404551 1_554
B10 B8 1.771758 1_555
B10 B7 1.841295 1_565
B10 B6 1.841295 1_455
B10 B12 1.937496 1_554
B10 B13 1.937498 1_455
B10 Re0 2.378114 1_555
B10 Re1 2.378116 1_454
B10 Re2 2.404551 1_565
B10 Re3 2.404551 1_564
B11 B7 1.771758 1_555
B11 B8 1.841295 1_655
B11 B6 1.841295 1_545
B11 B13 1.937496 1_555
B11 B12 1.937498 1_544
B11 Re1 2.378114 1_554
B11 Re0 2.378116 1_545
B11 Re3 2.404551 1_654
B11 Re2 2.404551 1_655
B12 B15 1.692951 1_555
B12 B7 1.937496 1_566
B12 B8 1.937498 1_556
B12 B6 1.937501 1_556
B12 B9 1.937501 1_556
B12 Re0 2.246418 1_556
B13 B14 1.692951 1_555
B13 B8 1.937496 1_655
B13 B7 1.937498 1_555
B13 B6 1.937501 1_555
B13 B9 1.937501 1_555
B13 Re1 2.246418 1_554
B14 B4 1.937496 1_655
B14 B2 1.937498 1_655
B14 B5 1.937498 1_555
B14 B3 1.937501 1_555
B14 Re1 2.246418 1_555
B15 B2 1.937496 1_555
B15 B5 1.937496 1_565
B15 B4 1.937498 1_555
B15 B3 1.937501 1_555
B15 Re0 2.246418 1_555
