# generated using pymatgen
data_Mn(GeO3)2
_symmetry_space_group_name_H-M   'P 1'
_cell_length_a   5.53404582
_cell_length_b   9.51289532
_cell_length_c   8.73598428
_cell_angle_alpha   90.00066638
_cell_angle_beta   89.99947227
_cell_angle_gamma   102.12682162
_symmetry_Int_Tables_number   1
_chemical_formula_structural   Mn(GeO3)2
_chemical_formula_sum   'Mn4 Ge8 O24'
_cell_volume   449.64137296
_cell_formula_units_Z   4
loop_
 _symmetry_equiv_pos_site_id
 _symmetry_equiv_pos_as_xyz
  1  'x, y, z'
loop_
 _atom_site_type_symbol
 _atom_site_label
 _atom_site_symmetry_multiplicity
 _atom_site_fract_x
 _atom_site_fract_y
 _atom_site_fract_z
 _atom_site_occupancy
  Mn  Mn0  1  0.75001800  0.99999500  0.08812700  1
  Mn  Mn1  1  0.74997000  0.49998600  0.41189700  1
  Mn  Mn2  1  0.25001200  0.49999400  0.58808400  1
  Mn  Mn3  1  0.25005500  0.00000900  0.91193700  1
  Ge  Ge0  1  0.05900700  0.29708600  0.90757800  1
  Ge  Ge1  1  0.55901600  0.79714300  0.40760500  1
  Ge  Ge2  1  0.44097200  0.70290100  0.90756800  1
  Ge  Ge3  1  0.94096900  0.20287500  0.40758700  1
  Ge  Ge4  1  0.94096300  0.70287300  0.09237200  1
  Ge  Ge5  1  0.44095800  0.20286700  0.59244500  1
  Ge  Ge6  1  0.55901300  0.29714500  0.09236700  1
  Ge  Ge7  1  0.05902900  0.79711300  0.59245700  1
  O  O0  1  0.80832200  0.36640200  0.97239500  1
  O  O1  1  0.30827000  0.86639100  0.47240200  1
  O  O2  1  0.69171400  0.63363000  0.97235900  1
  O  O3  1  0.19167600  0.13360000  0.47242400  1
  O  O4  1  0.19171500  0.63362000  0.02758200  1
  O  O5  1  0.69167800  0.13360500  0.52759500  1
  O  O6  1  0.30827400  0.36639700  0.02758100  1
  O  O7  1  0.80830900  0.86638300  0.52761100  1
  O  O8  1  0.59531700  0.35202100  0.28488400  1
  O  O9  1  0.09537400  0.85205000  0.78489600  1
  O  O10  1  0.90463700  0.64794600  0.28486000  1
  O  O11  1  0.40468100  0.14797400  0.78490800  1
  O  O12  1  0.40465000  0.64798800  0.71508700  1
  O  O13  1  0.90470700  0.14796400  0.21512000  1
  O  O14  1  0.09534600  0.35202400  0.71511200  1
  O  O15  1  0.59532500  0.85202400  0.21511300  1
  O  O16  1  0.97439100  0.10227000  0.92099900  1
  O  O17  1  0.47436400  0.60226100  0.42097600  1
  O  O18  1  0.52564200  0.89773800  0.92100200  1
  O  O19  1  0.02559200  0.39772500  0.42098800  1
  O  O20  1  0.02562900  0.89772400  0.07904200  1
  O  O21  1  0.52560600  0.39771400  0.57901000  1
  O  O22  1  0.47441100  0.10228300  0.07903000  1
  O  O23  1  0.97439200  0.60228100  0.57900100  1
loop_
_geom_bond_atom_site_label_1
_geom_bond_atom_site_label_2
_geom_bond_distance
_geom_bond_site_symmetry_2
Mn0 O15 1.854365 1_555
Mn0 O13 1.854372 1_565
Mn0 O20 1.975512 1_655
Mn0 O22 1.975605 1_565
Mn0 O18 2.027858 1_554
Mn0 O16 2.027928 1_564
Mn1 O8 1.854391 1_555
Mn1 O10 1.854519 1_555
Mn1 O19 1.975508 1_655
Mn1 O17 1.975511 1_555
Mn1 O21 2.027798 1_555
Mn1 O23 2.027983 1_555
Mn2 O12 1.854496 1_555
Mn2 O14 1.854533 1_555
Mn2 O21 1.975482 1_555
Mn2 O23 1.975657 1_455
Mn2 O17 2.027716 1_555
Mn2 O19 2.027840 1_555
Mn3 O11 1.854440 1_555
Mn3 O9 1.854546 1_545
Mn3 O18 1.975391 1_545
Mn3 O16 1.975699 1_455
Mn3 O22 2.027657 1_556
Mn3 O20 2.027967 1_546
Ge0 O6 1.747720 1_556
Ge0 O0 1.750532 1_455
Ge0 O14 1.759678 1_555
Ge0 O16 1.817414 1_455
Ge1 O7 1.747696 1_555
Ge1 O1 1.750419 1_555
Ge1 O15 1.759739 1_555
Ge1 O17 1.818001 1_555
Ge2 O4 1.747672 1_556
Ge2 O2 1.750514 1_555
Ge2 O12 1.759726 1_555
Ge2 O18 1.817625 1_555
Ge3 O5 1.747752 1_555
Ge3 O3 1.750496 1_655
Ge3 O13 1.759586 1_555
Ge3 O19 1.817715 1_655
Ge4 O2 1.747565 1_554
Ge4 O4 1.750454 1_655
Ge4 O10 1.759830 1_555
Ge4 O20 1.817697 1_655
Ge5 O3 1.747785 1_555
Ge5 O5 1.750515 1_555
Ge5 O11 1.759519 1_555
Ge5 O21 1.817715 1_555
Ge6 O0 1.747608 1_554
Ge6 O6 1.750388 1_555
Ge6 O8 1.759925 1_555
Ge6 O22 1.817784 1_555
Ge7 O1 1.747818 1_555
Ge7 O7 1.750559 1_455
Ge7 O9 1.759444 1_555
Ge7 O23 1.817584 1_455
