# generated using pymatgen
data_Th2Al4Si2Au3
_symmetry_space_group_name_H-M   'P 1'
_cell_length_a   12.07360281
_cell_length_b   12.07360281
_cell_length_c   4.28657800
_cell_angle_alpha   90.00000000
_cell_angle_beta   90.00000000
_cell_angle_gamma   159.37606578
_symmetry_Int_Tables_number   1
_chemical_formula_structural   Th2Al4Si2Au3
_chemical_formula_sum   'Th2 Al4 Si2 Au3'
_cell_volume   220.09698629
_cell_formula_units_Z   1
loop_
 _symmetry_equiv_pos_site_id
 _symmetry_equiv_pos_as_xyz
  1  'x, y, z'
loop_
 _atom_site_type_symbol
 _atom_site_label
 _atom_site_symmetry_multiplicity
 _atom_site_fract_x
 _atom_site_fract_y
 _atom_site_fract_z
 _atom_site_occupancy
  Th  Th0  1  0.82152700  0.17847300  0.00000000  1
  Th  Th1  1  0.17847300  0.82152700  0.00000000  1
  Al  Al0  1  0.56328800  0.43671200  0.00000000  1
  Al  Al1  1  0.43671200  0.56328800  0.00000000  1
  Al  Al2  1  0.93704300  0.06295700  0.50000000  1
  Al  Al3  1  0.06295700  0.93704300  0.50000000  1
  Si  Si0  1  0.72687700  0.27312300  0.50000000  1
  Si  Si1  1  0.27312300  0.72687700  0.50000000  1
  Au  Au0  1  0.62319400  0.37680600  0.50000000  1
  Au  Au1  1  0.37680600  0.62319400  0.50000000  1
  Au  Au2  1  0.00000000  0.00000000  0.00000000  1
loop_
_geom_bond_atom_site_label_1
_geom_bond_atom_site_label_2
_geom_bond_distance
_geom_bond_site_symmetry_2
Al0 Au0 2.572776 1_555
Al0 Au0 2.572776 1_554
Al0 Au2 2.632817 1_555
Al0 Au2 2.632817 1_665
Al0 Th1 3.487025 1_655
Al0 Th1 3.487025 1_545
Al1 Au1 2.572776 1_555
Al1 Au1 2.572776 1_554
Al1 Au2 2.632817 1_555
Al1 Au2 2.632817 1_665
Al1 Th0 3.487025 1_565
Al1 Th0 3.487025 1_455
Al2 Au1 2.592106 1_655
Al2 Au1 2.592106 1_545
Al2 Au2 2.613570 1_656
Al2 Au2 2.613570 1_655
Al2 Th0 3.482105 1_555
Al2 Th0 3.482105 1_556
Al3 Au0 2.592106 1_565
Al3 Au0 2.592106 1_455
Al3 Au2 2.613570 1_565
Al3 Au2 2.613570 1_566
Al3 Th1 3.482105 1_555
Al3 Th1 3.482105 1_556
Si0 Th0 3.106439 1_555
Si0 Th0 3.106439 1_556
Si0 Th1 3.253788 1_656
Si0 Th1 3.253788 1_545
Si0 Th1 3.253788 1_655
Si0 Th1 3.253788 1_546
Si1 Th1 3.106439 1_556
Si1 Th1 3.106439 1_555
Si1 Th0 3.253788 1_566
Si1 Th0 3.253788 1_455
Si1 Th0 3.253788 1_456
Si1 Th0 3.253788 1_565
Au0 Si0 2.463215 1_555
Au0 Th1 3.315034 1_656
Au0 Th1 3.315034 1_655
Au0 Th1 3.315034 1_545
Au0 Th1 3.315034 1_546
Au1 Si1 2.463215 1_555
Au1 Th0 3.315034 1_565
Au1 Th0 3.315034 1_566
Au1 Th0 3.315034 1_455
Au1 Th0 3.315034 1_456
