# generated using pymatgen
data_Ca3Dy
_symmetry_space_group_name_H-M   'P 1'
_cell_length_a   7.54413873
_cell_length_b   7.54413873
_cell_length_c   6.23692800
_cell_angle_alpha   90.00000000
_cell_angle_beta   90.00000000
_cell_angle_gamma   120.00000640
_symmetry_Int_Tables_number   1
_chemical_formula_structural   Ca3Dy
_chemical_formula_sum   'Ca6 Dy2'
_cell_volume   307.41189377
_cell_formula_units_Z   2
loop_
 _symmetry_equiv_pos_site_id
 _symmetry_equiv_pos_as_xyz
  1  'x, y, z'
loop_
 _atom_site_type_symbol
 _atom_site_label
 _atom_site_symmetry_multiplicity
 _atom_site_fract_x
 _atom_site_fract_y
 _atom_site_fract_z
 _atom_site_occupancy
  Ca  Ca0  1  0.17047100  0.34094100  0.25000000  1
  Ca  Ca1  1  0.65905900  0.82952900  0.25000000  1
  Ca  Ca2  1  0.17047100  0.82952900  0.25000000  1
  Ca  Ca3  1  0.82952900  0.65905900  0.75000000  1
  Ca  Ca4  1  0.34094100  0.17047100  0.75000000  1
  Ca  Ca5  1  0.82952900  0.17047100  0.75000000  1
  Dy  Dy0  1  0.33333300  0.66666700  0.75000000  1
  Dy  Dy1  1  0.66666700  0.33333300  0.25000000  1
loop_
_geom_bond_atom_site_label_1
_geom_bond_atom_site_label_2
_geom_bond_distance
_geom_bond_site_symmetry_2
Ca0 Ca1 3.685975 1_555
Ca0 Ca2 3.685976 1_555
Ca0 Dy1 3.772397 1_455
Ca0 Dy1 3.772397 1_555
Ca0 Dy0 3.775399 1_555
Ca0 Dy0 3.775399 1_554
Ca0 Ca4 3.832308 1_554
Ca0 Ca4 3.832308 1_555
Ca0 Ca5 3.832316 1_455
Ca0 Ca5 3.832316 1_454
Ca0 Ca1 3.858163 1_445
Ca0 Ca2 3.858163 1_545
Ca1 Ca2 3.685976 1_555
Ca1 Dy1 3.772397 1_565
Ca1 Dy1 3.772397 1_555
Ca1 Dy0 3.775399 1_555
Ca1 Dy0 3.775399 1_554
Ca1 Ca3 3.832308 1_555
Ca1 Ca3 3.832308 1_554
Ca1 Ca5 3.832316 1_564
Ca1 Ca5 3.832316 1_565
Ca1 Ca2 3.858163 1_655
Ca2 Dy1 3.772396 1_455
Ca2 Dy1 3.772396 1_565
Ca2 Dy0 3.775392 1_554
Ca2 Dy0 3.775392 1_555
Ca2 Ca4 3.832316 1_565
Ca2 Ca4 3.832316 1_564
Ca2 Ca3 3.832316 1_455
Ca2 Ca3 3.832316 1_454
Ca3 Ca4 3.685975 1_555
Ca3 Ca5 3.685976 1_555
Ca3 Dy0 3.772397 1_655
Ca3 Dy0 3.772397 1_555
Ca3 Dy1 3.775399 1_556
Ca3 Dy1 3.775399 1_555
Ca3 Ca4 3.858163 1_665
Ca3 Ca5 3.858163 1_565
Ca4 Ca5 3.685976 1_555
Ca4 Dy0 3.772397 1_545
Ca4 Dy0 3.772397 1_555
Ca4 Dy1 3.775399 1_556
Ca4 Dy1 3.775399 1_555
Ca4 Ca5 3.858163 1_455
Ca5 Dy0 3.772396 1_545
Ca5 Dy0 3.772396 1_655
Ca5 Dy1 3.775392 1_555
Ca5 Dy1 3.775392 1_556
