# generated using pymatgen
data_FeSiN2
_symmetry_space_group_name_H-M   'P 1'
_cell_length_a   5.11182000
_cell_length_b   10.19310700
_cell_length_c   13.15097500
_cell_angle_alpha   90.00000000
_cell_angle_beta   90.00000000
_cell_angle_gamma   90.00000000
_symmetry_Int_Tables_number   1
_chemical_formula_structural   FeSiN2
_chemical_formula_sum   'Fe16 Si16 N32'
_cell_volume   685.23586885
_cell_formula_units_Z   16
loop_
 _symmetry_equiv_pos_site_id
 _symmetry_equiv_pos_as_xyz
  1  'x, y, z'
loop_
 _atom_site_type_symbol
 _atom_site_label
 _atom_site_symmetry_multiplicity
 _atom_site_fract_x
 _atom_site_fract_y
 _atom_site_fract_z
 _atom_site_occupancy
  Fe  Fe0  1  0.68955600  0.96272700  0.43439100  1
  Fe  Fe1  1  0.18955600  0.53727300  0.56560900  1
  Fe  Fe2  1  0.31044400  0.46272700  0.06560900  1
  Fe  Fe3  1  0.81044400  0.03727300  0.93439100  1
  Fe  Fe4  1  0.31044400  0.03727300  0.56560900  1
  Fe  Fe5  1  0.81044400  0.46272700  0.43439100  1
  Fe  Fe6  1  0.68955600  0.53727300  0.93439100  1
  Fe  Fe7  1  0.18955600  0.96272700  0.06560900  1
  Fe  Fe8  1  0.79021900  0.28009700  0.31237800  1
  Fe  Fe9  1  0.29021800  0.21990300  0.68762200  1
  Fe  Fe10  1  0.20978200  0.78009700  0.18762200  1
  Fe  Fe11  1  0.70978100  0.71990300  0.81237800  1
  Fe  Fe12  1  0.20978200  0.71990300  0.68762200  1
  Fe  Fe13  1  0.70978100  0.78009700  0.31237800  1
  Fe  Fe14  1  0.79021900  0.21990300  0.81237800  1
  Fe  Fe15  1  0.29021800  0.28009700  0.18762200  1
  Si  Si0  1  0.66104100  0.03780800  0.18630800  1
  Si  Si1  1  0.16104100  0.46219200  0.81369200  1
  Si  Si2  1  0.33895900  0.53780800  0.31369200  1
  Si  Si3  1  0.83895900  0.96219200  0.68630800  1
  Si  Si4  1  0.33895900  0.96219200  0.81369200  1
  Si  Si5  1  0.83895900  0.53780800  0.18630800  1
  Si  Si6  1  0.66104100  0.46219200  0.68630800  1
  Si  Si7  1  0.16104100  0.03780800  0.31369200  1
  Si  Si8  1  0.78684800  0.28910900  0.06155800  1
  Si  Si9  1  0.28684800  0.21089100  0.93844200  1
  Si  Si10  1  0.21315200  0.78910900  0.43844200  1
  Si  Si11  1  0.71315200  0.71089100  0.56155800  1
  Si  Si12  1  0.21315200  0.71089100  0.93844200  1
  Si  Si13  1  0.71315200  0.78910900  0.06155800  1
  Si  Si14  1  0.78684800  0.21089100  0.56155800  1
  Si  Si15  1  0.28684800  0.28910900  0.43844200  1
  N  N0  1  0.66485200  0.49151300  0.29496800  1
  N  N1  1  0.16485200  0.00848700  0.70503200  1
  N  N2  1  0.33514800  0.99151300  0.20503200  1
  N  N3  1  0.83514800  0.50848700  0.79496800  1
  N  N4  1  0.33514800  0.50848700  0.70503200  1
  N  N5  1  0.83514800  0.99151300  0.29496800  1
  N  N6  1  0.66485200  0.00848700  0.79496800  1
  N  N7  1  0.16485200  0.49151300  0.20503200  1
  N  N8  1  0.62653900  0.27062100  0.45356400  1
  N  N9  1  0.12653900  0.22937900  0.54643600  1
  N  N10  1  0.37346100  0.77062100  0.04643600  1
  N  N11  1  0.87346100  0.72937900  0.95356400  1
  N  N12  1  0.37346100  0.72937900  0.54643600  1
  N  N13  1  0.87346100  0.77062100  0.45356400  1
  N  N14  1  0.62653900  0.22937900  0.95356400  1
  N  N15  1  0.12653900  0.27062100  0.04643600  1
  N  N16  1  0.71945200  0.45689700  0.07818300  1
  N  N17  1  0.21945200  0.04310300  0.92181700  1
  N  N18  1  0.28054800  0.95689700  0.42181700  1
  N  N19  1  0.78054800  0.54310300  0.57818300  1
  N  N20  1  0.28054800  0.54310300  0.92181700  1
  N  N21  1  0.78054800  0.95689700  0.07818300  1
  N  N22  1  0.71945200  0.04310300  0.57818300  1
  N  N23  1  0.21945200  0.45689700  0.42181700  1
  N  N24  1  0.67393500  0.20864100  0.17093100  1
  N  N25  1  0.17393500  0.29135900  0.82906900  1
  N  N26  1  0.32606500  0.70864100  0.32906900  1
  N  N27  1  0.82606500  0.79135900  0.67093100  1
  N  N28  1  0.32606500  0.79135900  0.82906900  1
  N  N29  1  0.82606500  0.70864100  0.17093100  1
  N  N30  1  0.67393500  0.29135900  0.67093100  1
  N  N31  1  0.17393500  0.20864100  0.32906900  1
loop_
_geom_bond_atom_site_label_1
_geom_bond_atom_site_label_2
_geom_bond_distance
_geom_bond_site_symmetry_2
Fe0 N5 2.000472 1_555
Fe0 N22 2.066513 1_565
Fe0 N18 2.098146 1_555
Fe0 N13 2.186715 1_555
Fe1 N4 2.000472 1_555
Fe1 N23 2.066513 1_555
Fe1 N19 2.098146 1_455
Fe1 N12 2.186715 1_555
Fe2 N7 2.000472 1_555
Fe2 N20 2.066513 1_554
Fe2 N16 2.098146 1_555
Fe2 N15 2.186715 1_555
Fe3 N6 2.000472 1_555
Fe3 N21 2.066513 1_546
Fe3 N17 2.098146 1_655
Fe3 N14 2.186715 1_555
Fe4 N1 2.000472 1_555
Fe4 N18 2.066513 1_545
Fe4 N22 2.098146 1_555
Fe4 N9 2.186715 1_555
Fe5 N0 2.000472 1_555
Fe5 N19 2.066513 1_555
Fe5 N23 2.098146 1_655
Fe5 N8 2.186715 1_555
Fe6 N3 2.000472 1_555
Fe6 N16 2.066513 1_556
Fe6 N20 2.098146 1_555
Fe6 N11 2.186715 1_555
Fe7 N2 2.000472 1_555
Fe7 N17 2.066513 1_564
Fe7 N21 2.098146 1_455
Fe7 N10 2.186715 1_555
Fe8 N8 2.038838 1_555
Fe8 N24 2.084241 1_555
Fe8 N31 2.103834 1_655
Fe8 N0 2.259885 1_555
Fe9 N9 2.038836 1_555
Fe9 N25 2.084240 1_555
Fe9 N30 2.103839 1_555
Fe9 N1 2.259883 1_555
Fe10 N10 2.038836 1_555
Fe10 N26 2.084240 1_555
Fe10 N29 2.103839 1_455
Fe10 N2 2.259883 1_555
Fe11 N11 2.038838 1_555
Fe11 N27 2.084241 1_555
Fe11 N28 2.103834 1_555
Fe11 N3 2.259885 1_555
Fe12 N12 2.038836 1_555
Fe12 N28 2.084240 1_555
Fe12 N27 2.103839 1_455
Fe12 N4 2.259883 1_555
Fe13 N13 2.038838 1_555
Fe13 N29 2.084241 1_555
Fe13 N26 2.103834 1_555
Fe13 N5 2.259885 1_555
Fe14 N14 2.038838 1_555
Fe14 N30 2.084241 1_555
Fe14 N25 2.103834 1_655
Fe14 N6 2.259885 1_555
Fe15 N15 2.038836 1_555
Fe15 N31 2.084240 1_555
Fe15 N24 2.103839 1_555
Fe15 N7 2.259883 1_555
N0 Si5 1.748366 1_555
N0 Si2 1.748873 1_555
N1 Si4 1.748366 1_545
N1 Si3 1.748873 1_445
N2 Si7 1.748366 1_565
N2 Si0 1.748873 1_565
N3 Si6 1.748366 1_555
N3 Si1 1.748873 1_655
N4 Si1 1.748366 1_555
N4 Si6 1.748873 1_555
N5 Si0 1.748366 1_565
N5 Si7 1.748873 1_665
N6 Si3 1.748366 1_545
N6 Si4 1.748873 1_545
N7 Si2 1.748366 1_555
N7 Si5 1.748873 1_455
N8 Si14 1.749072 1_555
N8 Si15 1.757920 1_555
N9 Si15 1.749072 1_555
N9 Si14 1.757920 1_455
N10 Si12 1.749072 1_554
N10 Si13 1.757920 1_555
N11 Si13 1.749072 1_556
N11 Si12 1.757920 1_655
N12 Si10 1.749072 1_555
N12 Si11 1.757920 1_555
N13 Si11 1.749072 1_555
N13 Si10 1.757920 1_655
N14 Si8 1.749072 1_556
N14 Si9 1.757920 1_555
N15 Si9 1.749072 1_554
N15 Si8 1.757920 1_455
N16 Si5 1.753660 1_555
N16 Si8 1.758282 1_555
N17 Si4 1.753660 1_545
N17 Si9 1.758282 1_555
N18 Si7 1.753660 1_565
N18 Si10 1.758282 1_555
N19 Si6 1.753660 1_555
N19 Si11 1.758282 1_555
N20 Si1 1.753660 1_555
N20 Si12 1.758282 1_555
N21 Si0 1.753660 1_565
N21 Si13 1.758282 1_555
N22 Si3 1.753660 1_545
N22 Si14 1.758282 1_555
N23 Si2 1.753660 1_555
N23 Si15 1.758282 1_555
N24 Si8 1.753509 1_555
N24 Si0 1.754261 1_555
N25 Si9 1.753509 1_555
N25 Si1 1.754261 1_555
N26 Si10 1.753509 1_555
N26 Si2 1.754261 1_555
N27 Si11 1.753509 1_555
N27 Si3 1.754261 1_555
N28 Si12 1.753509 1_555
N28 Si4 1.754261 1_555
N29 Si13 1.753509 1_555
N29 Si5 1.754261 1_555
N30 Si14 1.753509 1_555
N30 Si6 1.754261 1_555
N31 Si15 1.753509 1_555
N31 Si7 1.754261 1_555
