# generated using pymatgen
data_SrNdCr4O12
_symmetry_space_group_name_H-M   'P 1'
_cell_length_a   5.41839492
_cell_length_b   5.41839492
_cell_length_c   7.42934765
_cell_angle_alpha   90.00000000
_cell_angle_beta   90.00000000
_cell_angle_gamma   87.55111616
_symmetry_Int_Tables_number   1
_chemical_formula_structural   SrNdCr4O12
_chemical_formula_sum   'Sr1 Nd1 Cr4 O12'
_cell_volume   217.91904507
_cell_formula_units_Z   1
loop_
 _symmetry_equiv_pos_site_id
 _symmetry_equiv_pos_as_xyz
  1  'x, y, z'
loop_
 _atom_site_type_symbol
 _atom_site_label
 _atom_site_symmetry_multiplicity
 _atom_site_fract_x
 _atom_site_fract_y
 _atom_site_fract_z
 _atom_site_occupancy
  Sr  Sr0  1  0.00108948  0.00108948  0.00000000  1
  Nd  Nd0  1  0.48467970  0.48467970  0.50000000  1
  Cr  Cr0  1  0.48422033  0.98446562  0.74996924  1
  Cr  Cr1  1  0.48422033  0.98446562  0.25003076  1
  Cr  Cr2  1  0.98446562  0.48422033  0.25003076  1
  Cr  Cr3  1  0.98446562  0.48422033  0.74996924  1
  O  O0  1  0.77489152  0.24274945  0.74159197  1
  O  O1  1  0.24274945  0.77489152  0.74159197  1
  O  O2  1  0.24274945  0.77489152  0.25840803  1
  O  O3  1  0.77489152  0.24274945  0.25840803  1
  O  O4  1  0.72781182  0.72781182  0.71761283  1
  O  O5  1  0.27854941  0.27854941  0.77276528  1
  O  O6  1  0.27854941  0.27854941  0.22723472  1
  O  O7  1  0.72781182  0.72781182  0.28238717  1
  O  O8  1  0.52895814  0.97753404  0.00000000  1
  O  O9  1  0.48276361  0.04159873  0.50000000  1
  O  O10  1  0.97753404  0.52895814  0.00000000  1
  O  O11  1  0.04159873  0.48276361  0.50000000  1
loop_
_geom_bond_atom_site_label_1
_geom_bond_atom_site_label_2
_geom_bond_distance
_geom_bond_site_symmetry_2
Nd0 O11 2.401254 1_555
Nd0 O9 2.401254 1_555
Nd0 O7 2.496619 1_555
Nd0 O4 2.496619 1_555
Nd0 O5 2.589997 1_555
Nd0 O6 2.589997 1_555
Nd0 O1 2.690074 1_555
Nd0 O2 2.690074 1_555
Nd0 O3 2.690074 1_555
Nd0 O0 2.690074 1_555
Cr0 O1 1.769801 1_555
Cr0 O8 1.873484 1_556
Cr0 O9 1.882694 1_565
Cr0 O4 1.891273 1_555
Cr0 O5 1.912578 1_565
Cr0 O0 2.152050 1_565
Cr1 O2 1.769801 1_555
Cr1 O8 1.873484 1_555
Cr1 O9 1.882694 1_565
Cr1 O7 1.891273 1_555
Cr1 O6 1.912578 1_565
Cr1 O3 2.152050 1_565
Cr2 O3 1.769801 1_555
Cr2 O10 1.873484 1_555
Cr2 O11 1.882694 1_655
Cr2 O7 1.891273 1_555
Cr2 O6 1.912578 1_655
Cr2 O2 2.152050 1_655
Cr3 O0 1.769801 1_555
Cr3 O10 1.873484 1_556
Cr3 O11 1.882694 1_655
Cr3 O4 1.891273 1_555
Cr3 O5 1.912578 1_655
Cr3 O1 2.152050 1_655
O0 Sr0 2.601004 1_656
O1 Sr0 2.601004 1_566
O2 Sr0 2.601004 1_565
O3 Sr0 2.601004 1_655
O4 Sr0 2.995642 1_666
O5 Sr0 2.750188 1_556
O6 Sr0 2.750188 1_555
O7 Sr0 2.995642 1_665
O8 Sr0 2.566817 1_665
O8 Sr0 2.857594 1_565
O10 Sr0 2.566817 1_665
O10 Sr0 2.857594 1_655
