# generated using pymatgen
data_CeAg(PO3)4
_symmetry_space_group_name_H-M   'P 1'
_cell_length_a   13.35584900
_cell_length_b   7.37579900
_cell_length_c   12.48904033
_cell_angle_alpha   54.31814184
_cell_angle_beta   90.00000000
_cell_angle_gamma   90.00000000
_symmetry_Int_Tables_number   1
_chemical_formula_structural   CeAg(PO3)4
_chemical_formula_sum   'Ce4 Ag4 P16 O48'
_cell_volume   999.33045333
_cell_formula_units_Z   4
loop_
 _symmetry_equiv_pos_site_id
 _symmetry_equiv_pos_as_xyz
  1  'x, y, z'
loop_
 _atom_site_type_symbol
 _atom_site_label
 _atom_site_symmetry_multiplicity
 _atom_site_fract_x
 _atom_site_fract_y
 _atom_site_fract_z
 _atom_site_occupancy
  Ce  Ce0  1  0.21630200  0.03685800  0.97667900  1
  Ce  Ce1  1  0.71630200  0.96314200  0.52332100  1
  Ce  Ce2  1  0.78369800  0.96314200  0.02332100  1
  Ce  Ce3  1  0.28369800  0.03685800  0.47667900  1
  Ag  Ag0  1  0.22280600  0.43333900  0.06701000  1
  Ag  Ag1  1  0.72280600  0.56666100  0.43299000  1
  Ag  Ag2  1  0.77719400  0.56666100  0.93299000  1
  Ag  Ag3  1  0.27719400  0.43333900  0.56701000  1
  P  P0  1  0.09877700  0.50661100  0.24595500  1
  P  P1  1  0.59877700  0.49338900  0.25404500  1
  P  P2  1  0.90122300  0.49338900  0.75404500  1
  P  P3  1  0.40122300  0.50661100  0.74595500  1
  P  P4  1  0.37352300  0.83992400  0.80514900  1
  P  P5  1  0.87352300  0.16007600  0.69485100  1
  P  P6  1  0.62647700  0.16007600  0.19485100  1
  P  P7  1  0.12647700  0.83992400  0.30514900  1
  P  P8  1  0.41084400  0.06844100  0.19812200  1
  P  P9  1  0.91084400  0.93155900  0.30187800  1
  P  P10  1  0.58915600  0.93155900  0.80187800  1
  P  P11  1  0.08915600  0.06844100  0.69812200  1
  P  P12  1  0.11395400  0.61764000  0.76200300  1
  P  P13  1  0.61395400  0.38236000  0.73799700  1
  P  P14  1  0.88604600  0.38236000  0.23799700  1
  P  P15  1  0.38604600  0.61764000  0.26200300  1
  O  O0  1  0.29198200  0.82259500  0.89399200  1
  O  O1  1  0.79198200  0.17740500  0.60600800  1
  O  O2  1  0.70801800  0.17740500  0.10600800  1
  O  O3  1  0.20801800  0.82259500  0.39399200  1
  O  O4  1  0.36747000  0.01755900  0.65962000  1
  O  O5  1  0.86747000  0.98244100  0.84038000  1
  O  O6  1  0.63253000  0.98244100  0.34038000  1
  O  O7  1  0.13253000  0.01755900  0.15962000  1
  O  O8  1  0.98591500  0.42069800  0.29341900  1
  O  O9  1  0.48591500  0.57930200  0.20658100  1
  O  O10  1  0.01408500  0.57930200  0.70658100  1
  O  O11  1  0.51408500  0.42069800  0.79341900  1
  O  O12  1  0.14189500  0.40999600  0.89440200  1
  O  O13  1  0.64189500  0.59000400  0.60559800  1
  O  O14  1  0.85810500  0.59000400  0.10559800  1
  O  O15  1  0.35810500  0.40999600  0.39440200  1
  O  O16  1  0.18947600  0.71605100  0.65321800  1
  O  O17  1  0.68947600  0.28394900  0.84678200  1
  O  O18  1  0.81052400  0.28394900  0.34678200  1
  O  O19  1  0.31052400  0.71605100  0.15321800  1
  O  O20  1  0.10409400  0.69090400  0.10060600  1
  O  O21  1  0.60409400  0.30909600  0.39939400  1
  O  O22  1  0.89590600  0.30909600  0.89939400  1
  O  O23  1  0.39590600  0.69090400  0.60060600  1
  O  O24  1  0.52184300  0.14613900  0.13519100  1
  O  O25  1  0.02184300  0.85386100  0.36480900  1
  O  O26  1  0.47815700  0.85386100  0.86480900  1
  O  O27  1  0.97815700  0.14613900  0.63519100  1
  O  O28  1  0.16442700  0.30437100  0.29764200  1
  O  O29  1  0.66442700  0.69562900  0.20235800  1
  O  O30  1  0.83557300  0.69562900  0.70235800  1
  O  O31  1  0.33557300  0.30437100  0.79764200  1
  O  O32  1  0.12009200  0.59632100  0.33428600  1
  O  O33  1  0.62009200  0.40367900  0.16571400  1
  O  O34  1  0.87990800  0.40367900  0.66571400  1
  O  O35  1  0.37990800  0.59632100  0.83428600  1
  O  O36  1  0.42085700  0.79974000  0.28688400  1
  O  O37  1  0.92085700  0.20026000  0.21311600  1
  O  O38  1  0.57914300  0.20026000  0.71311600  1
  O  O39  1  0.07914300  0.79974000  0.78688400  1
  O  O40  1  0.34081000  0.15231900  0.08383000  1
  O  O41  1  0.84081000  0.84768100  0.41617000  1
  O  O42  1  0.65919000  0.84768100  0.91617000  1
  O  O43  1  0.15919000  0.15231900  0.58383000  1
  O  O44  1  0.39119300  0.13209600  0.29062700  1
  O  O45  1  0.89119300  0.86790400  0.20937300  1
  O  O46  1  0.60880700  0.86790400  0.70937300  1
  O  O47  1  0.10880700  0.13209600  0.79062700  1
loop_
_geom_bond_atom_site_label_1
_geom_bond_atom_site_label_2
_geom_bond_distance
_geom_bond_site_symmetry_2
Ce0 O19 2.440838 1_546
Ce0 O47 2.459613 1_555
Ce0 O7 2.472407 1_556
Ce0 O31 2.506724 1_555
Ce0 O12 2.513744 1_555
Ce0 O0 2.547445 1_545
Ce0 O20 2.558383 1_546
Ce0 O40 2.571150 1_556
Ce1 O18 2.440838 1_565
Ce1 O46 2.459613 1_555
Ce1 O6 2.472407 1_555
Ce1 O30 2.506724 1_555
Ce1 O13 2.513744 1_555
Ce1 O1 2.547445 1_565
Ce1 O21 2.558383 1_565
Ce1 O41 2.571150 1_555
Ce2 O17 2.440838 1_564
Ce2 O45 2.459613 1_555
Ce2 O5 2.472407 1_554
Ce2 O29 2.506724 1_555
Ce2 O14 2.513744 1_555
Ce2 O2 2.547445 1_565
Ce2 O22 2.558383 1_564
Ce2 O42 2.571150 1_554
Ce3 O16 2.440838 1_545
Ce3 O44 2.459613 1_555
Ce3 O4 2.472407 1_555
Ce3 O28 2.506724 1_555
Ce3 O15 2.513744 1_555
Ce3 O3 2.547445 1_545
Ce3 O23 2.558383 1_545
Ce3 O43 2.571150 1_555
Ag0 O12 2.505488 1_554
Ag0 O40 2.513241 1_555
Ag0 O0 2.555108 1_554
Ag0 O28 2.571580 1_555
Ag0 O20 2.688637 1_555
Ag0 O7 2.838731 1_555
Ag1 O13 2.505488 1_555
Ag1 O41 2.513241 1_555
Ag1 O1 2.555108 1_555
Ag1 O29 2.571580 1_555
Ag1 O21 2.688637 1_555
Ag1 O6 2.838731 1_555
Ag2 O14 2.505488 1_556
Ag2 O42 2.513241 1_555
Ag2 O2 2.555108 1_556
Ag2 O30 2.571580 1_555
Ag2 O22 2.688637 1_555
Ag2 O5 2.838731 1_555
Ag3 O15 2.505488 1_555
Ag3 O43 2.513241 1_555
Ag3 O3 2.555108 1_555
Ag3 O31 2.571580 1_555
Ag3 O23 2.688637 1_555
Ag3 O4 2.838731 1_555
O0 P4 1.506006 1_555
O1 P5 1.506006 1_555
O2 P6 1.506006 1_555
O3 P7 1.506006 1_555
O4 P4 1.499522 1_545
O5 P5 1.499522 1_565
O6 P6 1.499522 1_565
O7 P7 1.499522 1_545
O8 P14 1.602030 1_555
O8 P0 1.608382 1_655
O9 P15 1.602030 1_555
O9 P1 1.608382 1_555
O10 P12 1.602030 1_555
O10 P2 1.608382 1_455
O11 P13 1.602030 1_555
O11 P3 1.608382 1_555
O12 P12 1.504917 1_555
O13 P13 1.504917 1_555
O14 P14 1.504917 1_555
O15 P15 1.504917 1_555
O16 P12 1.496558 1_555
O17 P13 1.496558 1_555
O18 P14 1.496558 1_555
O19 P15 1.496558 1_555
O20 P0 1.506468 1_555
O21 P1 1.506468 1_555
O22 P2 1.506468 1_555
O23 P3 1.506468 1_555
O24 P6 1.614938 1_555
O24 P8 1.618167 1_555
O25 P7 1.614938 1_555
O25 P9 1.618167 1_455
O26 P4 1.614938 1_555
O26 P10 1.618167 1_555
O27 P5 1.614938 1_555
O27 P11 1.618167 1_655
O28 P0 1.512385 1_555
O29 P1 1.512385 1_555
O30 P2 1.512385 1_555
O31 P3 1.512385 1_555
O32 P0 1.608535 1_555
O32 P7 1.614101 1_555
O33 P1 1.608535 1_555
O33 P6 1.614101 1_555
O34 P2 1.608535 1_555
O34 P5 1.614101 1_555
O35 P3 1.608535 1_555
O35 P4 1.614101 1_555
O36 P15 1.613571 1_555
O36 P8 1.616064 1_565
O37 P14 1.613571 1_555
O37 P9 1.616064 1_545
O38 P13 1.613571 1_555
O38 P10 1.616064 1_545
O39 P12 1.613571 1_555
O39 P11 1.616064 1_565
O40 P8 1.504972 1_555
O41 P9 1.504972 1_555
O42 P10 1.504972 1_555
O43 P11 1.504972 1_555
O44 P8 1.502266 1_555
O45 P9 1.502266 1_555
O46 P10 1.502266 1_555
O47 P11 1.502266 1_555
