# generated using pymatgen
data_Sm3AlCoS7
_symmetry_space_group_name_H-M   'P 1'
_cell_length_a   9.73339583
_cell_length_b   9.73339583
_cell_length_c   6.17256400
_cell_angle_alpha   90.00000000
_cell_angle_beta   90.00000000
_cell_angle_gamma   119.99999882
_symmetry_Int_Tables_number   1
_chemical_formula_structural   Sm3AlCoS7
_chemical_formula_sum   'Sm6 Al2 Co2 S14'
_cell_volume   506.43651160
_cell_formula_units_Z   2
loop_
 _symmetry_equiv_pos_site_id
 _symmetry_equiv_pos_as_xyz
  1  'x, y, z'
loop_
 _atom_site_type_symbol
 _atom_site_label
 _atom_site_symmetry_multiplicity
 _atom_site_fract_x
 _atom_site_fract_y
 _atom_site_fract_z
 _atom_site_occupancy
  Sm  Sm0  1  0.84967000  0.22396600  0.27384300  1
  Sm  Sm1  1  0.77603400  0.62570500  0.27384300  1
  Sm  Sm2  1  0.37429500  0.15033000  0.27384300  1
  Sm  Sm3  1  0.15033000  0.77603400  0.77384300  1
  Sm  Sm4  1  0.22396600  0.37429500  0.77384300  1
  Sm  Sm5  1  0.62570500  0.84967000  0.77384300  1
  Al  Al0  1  0.66666700  0.33333300  0.84913900  1
  Al  Al1  1  0.33333300  0.66666700  0.34913900  1
  Co  Co0  1  0.00000000  0.00000000  0.43734700  1
  Co  Co1  1  0.00000000  0.00000000  0.93734700  1
  S  S0  1  0.91058400  0.12703000  0.68144200  1
  S  S1  1  0.87297000  0.78355300  0.68144200  1
  S  S2  1  0.21644700  0.08941600  0.68144200  1
  S  S3  1  0.08941600  0.87297000  0.18144200  1
  S  S4  1  0.12703000  0.21644700  0.18144200  1
  S  S5  1  0.78355300  0.91058400  0.18144200  1
  S  S6  1  0.57394600  0.09345700  0.99769300  1
  S  S7  1  0.90654300  0.48048900  0.99769300  1
  S  S8  1  0.51951100  0.42605400  0.99769300  1
  S  S9  1  0.42605400  0.90654300  0.49769300  1
  S  S10  1  0.09345700  0.51951100  0.49769300  1
  S  S11  1  0.48048900  0.57394600  0.49769300  1
  S  S12  1  0.66666700  0.33333300  0.48754800  1
  S  S13  1  0.33333300  0.66666700  0.98754800  1
loop_
_geom_bond_atom_site_label_1
_geom_bond_atom_site_label_2
_geom_bond_distance
_geom_bond_site_symmetry_2
Al0 S12 2.231944 1_555
Al0 S6 2.235954 1_555
Al0 S7 2.235955 1_555
Al0 S8 2.235962 1_555
Al1 S13 2.231944 1_554
Al1 S9 2.235954 1_555
Al1 S10 2.235955 1_555
Al1 S11 2.235962 1_555
Co0 S0 2.373277 1_455
Co0 S1 2.373283 1_445
Co0 S2 2.373283 1_555
Co0 S3 2.420212 1_545
Co0 S4 2.420218 1_555
Co0 S5 2.420219 1_445
Co1 S3 2.373277 1_546
Co1 S4 2.373283 1_556
Co1 S5 2.373283 1_446
Co1 S0 2.420212 1_455
Co1 S1 2.420218 1_445
Co1 S2 2.420219 1_555
S0 Sm5 2.795777 1_545
S0 Sm4 2.842643 1_655
S0 Sm0 2.851504 1_555
S1 Sm3 2.795777 1_655
S1 Sm5 2.842643 1_555
S1 Sm1 2.851496 1_555
S2 Sm4 2.795777 1_555
S2 Sm3 2.842643 1_545
S2 Sm2 2.851495 1_555
S3 Sm2 2.795777 1_565
S3 Sm1 2.842643 1_455
S3 Sm3 2.851504 1_554
S4 Sm0 2.795777 1_455
S4 Sm2 2.842643 1_555
S4 Sm4 2.851496 1_554
S5 Sm1 2.795777 1_555
S5 Sm0 2.842643 1_565
S5 Sm5 2.851495 1_554
S6 Sm2 2.839722 1_556
S6 Sm0 2.883129 1_556
S6 Sm5 2.998158 1_545
S7 Sm0 2.839715 1_556
S7 Sm1 2.883136 1_556
S7 Sm3 2.998152 1_655
S8 Sm1 2.839717 1_556
S8 Sm2 2.883129 1_556
S8 Sm4 2.998149 1_555
S9 Sm5 2.839722 1_555
S9 Sm3 2.883129 1_555
S9 Sm2 2.998158 1_565
S10 Sm3 2.839715 1_555
S10 Sm4 2.883136 1_555
S10 Sm0 2.998152 1_455
S11 Sm4 2.839717 1_555
S11 Sm5 2.883129 1_555
S11 Sm1 2.998149 1_555
S12 Sm0 2.818191 1_555
S12 Sm2 2.818205 1_555
S12 Sm1 2.818207 1_555
S13 Sm3 2.818191 1_555
S13 Sm5 2.818205 1_555
S13 Sm4 2.818207 1_555
