# generated using pymatgen
data_K4MgV6O16
_symmetry_space_group_name_H-M   'P 1'
_cell_length_a   6.01396479
_cell_length_b   8.96274134
_cell_length_c   8.96274134
_cell_angle_alpha   92.98282195
_cell_angle_beta   89.23849394
_cell_angle_gamma   90.76150606
_symmetry_Int_Tables_number   1
_chemical_formula_structural   K4MgV6O16
_chemical_formula_sum   'K4 Mg1 V6 O16'
_cell_volume   482.37066428
_cell_formula_units_Z   1
loop_
 _symmetry_equiv_pos_site_id
 _symmetry_equiv_pos_as_xyz
  1  'x, y, z'
loop_
 _atom_site_type_symbol
 _atom_site_label
 _atom_site_symmetry_multiplicity
 _atom_site_fract_x
 _atom_site_fract_y
 _atom_site_fract_z
 _atom_site_occupancy
  K  K0  1  0.17894500  0.63140700  0.21061500  1
  K  K1  1  0.05550400  0.81331900  0.68668100  1
  K  K2  1  0.18269600  0.16483500  0.33516500  1
  K  K3  1  0.17894500  0.28938500  0.86859300  1
  Mg  Mg0  1  0.54598900  0.83541000  0.66459000  1
  V  V0  1  0.67671200  0.87512800  0.34465900  1
  V  V1  1  0.62857300  0.35733800  0.14266200  1
  V  V2  1  0.67671200  0.15534100  0.62487200  1
  V  V3  1  0.68817100  0.61220900  0.88779100  1
  V  V4  1  0.64971500  0.00094300  0.98135500  1
  V  V5  1  0.64971500  0.51864500  0.49905700  1
  O  O0  1  0.92233500  0.53097000  0.47049400  1
  O  O1  1  0.92233500  0.02950600  0.96903000  1
  O  O2  1  0.52780900  0.48880800  0.01119200  1
  O  O3  1  0.57579000  0.02113000  0.47887000  1
  O  O4  1  0.96918000  0.61092400  0.88907600  1
  O  O5  1  0.95617600  0.13905400  0.63187900  1
  O  O6  1  0.95617600  0.86812100  0.36094600  1
  O  O7  1  0.90655600  0.35286400  0.14713600  1
  O  O8  1  0.58642000  0.61437400  0.69093300  1
  O  O9  1  0.51262100  0.41980400  0.31486900  1
  O  O10  1  0.51262100  0.18513100  0.08019600  1
  O  O11  1  0.56975200  0.90323600  0.16829800  1
  O  O12  1  0.53603800  0.05241400  0.77535100  1
  O  O13  1  0.58642000  0.80906700  0.88562600  1
  O  O14  1  0.56975200  0.33170200  0.59676400  1
  O  O15  1  0.53603800  0.72464900  0.44758600  1
loop_
_geom_bond_atom_site_label_1
_geom_bond_atom_site_label_2
_geom_bond_distance
_geom_bond_site_symmetry_2
K0 O6 2.800280 1_455
K0 O0 2.950083 1_455
K0 O9 2.971923 1_555
K0 O2 2.993975 1_555
K0 O7 3.001332 1_455
K0 O15 3.116112 1_555
K0 O4 3.156855 1_454
K0 O11 3.394664 1_555
K1 O4 2.672679 1_455
K1 Mg0 2.958465 1_555
K1 O5 3.053659 1_465
K1 O6 3.053659 1_455
K1 Mg0 3.082871 1_455
K1 O1 3.205762 1_465
K1 O0 3.205762 1_455
K1 O13 3.318091 1_455
K1 O8 3.318091 1_455
K2 O7 2.980343 1_455
K2 O6 2.990109 1_445
K2 O5 2.990109 1_455
K2 O9 3.017508 1_555
K2 O10 3.017508 1_555
K2 O3 3.039919 1_555
K3 O5 2.800280 1_455
K3 O1 2.950083 1_455
K3 O10 2.971923 1_556
K3 O2 2.993975 1_556
K3 O7 3.001332 1_456
K3 O12 3.116112 1_555
K3 O4 3.156855 1_455
K3 O14 3.394664 1_555
Mg0 O13 2.025485 1_555
Mg0 O8 2.025485 1_555
Mg0 O12 2.138336 1_565
Mg0 O15 2.138336 1_555
Mg0 O3 2.417880 1_565
O0 V5 1.659145 1_555
O1 V4 1.659145 1_555
O2 V1 1.823902 1_555
O2 V3 1.856668 1_554
O3 V2 1.834558 1_555
O3 V0 1.834558 1_545
O4 V3 1.690367 1_555
O5 V2 1.691225 1_555
O6 V0 1.691225 1_555
O7 V1 1.673856 1_555
O8 V3 1.876292 1_555
O8 V5 1.917357 1_555
O9 V1 1.753222 1_555
O9 V5 2.013544 1_555
O10 V1 1.753222 1_555
O10 V4 2.013544 1_554
O11 V0 1.746013 1_555
O11 V4 1.981317 1_564
O12 V2 1.861227 1_555
O12 V4 2.054221 1_555
O13 V3 1.876292 1_555
O13 V4 1.917357 1_565
O14 V2 1.746013 1_555
O14 V5 1.981317 1_555
O15 V0 1.861227 1_555
O15 V5 2.054221 1_555
