# generated using pymatgen
data_CsMg14Fe
_symmetry_space_group_name_H-M   'P 1'
_cell_length_a   6.45700709
_cell_length_b   6.45710421
_cell_length_c   10.69952468
_cell_angle_alpha   89.98914157
_cell_angle_beta   90.00209081
_cell_angle_gamma   119.97135093
_symmetry_Int_Tables_number   1
_chemical_formula_structural   CsMg14Fe
_chemical_formula_sum   'Cs1 Mg14 Fe1'
_cell_volume   386.44658101
_cell_formula_units_Z   1
loop_
 _symmetry_equiv_pos_site_id
 _symmetry_equiv_pos_as_xyz
  1  'x, y, z'
loop_
 _atom_site_type_symbol
 _atom_site_label
 _atom_site_symmetry_multiplicity
 _atom_site_fract_x
 _atom_site_fract_y
 _atom_site_fract_z
 _atom_site_occupancy
  Cs  Cs0  1  0.16661383  0.33332254  0.62500023  1
  Mg  Mg0  1  0.15660384  0.82837227  0.12499537  1
  Mg  Mg1  1  0.17318096  0.83656303  0.62500067  1
  Mg  Mg2  1  0.67164185  0.34336564  0.12500739  1
  Mg  Mg3  1  0.66343630  0.32687558  0.62500018  1
  Mg  Mg4  1  0.67173176  0.82833003  0.12499727  1
  Mg  Mg5  1  0.66340285  0.83653789  0.62500008  1
  Mg  Mg6  1  0.33279194  0.16720123  0.34340523  1
  Mg  Mg7  1  0.33277892  0.16719842  0.90659198  1
  Mg  Mg8  1  0.33280033  0.66560119  0.34343063  1
  Mg  Mg9  1  0.33280185  0.66561759  0.90657465  1
  Mg  Mg10  1  0.83440135  0.16719777  0.34342600  1
  Mg  Mg11  1  0.83440637  0.16719600  0.90657063  1
  Mg  Mg12  1  0.83335281  0.66668381  0.38263100  1
  Mg  Mg13  1  0.83335313  0.66668381  0.86736901  1
  Fe  Fe0  1  0.16670190  0.33325321  0.12499969  1
loop_
_geom_bond_atom_site_label_1
_geom_bond_atom_site_label_2
_geom_bond_distance
_geom_bond_site_symmetry_2
Cs0 Mg3 3.228426 1_455
Cs0 Mg1 3.228502 1_555
Cs0 Mg3 3.228984 1_555
Cs0 Mg1 3.229021 1_545
Cs0 Mg5 3.230111 1_445
Cs0 Mg5 3.230140 1_555
Cs0 Mg7 3.539467 1_555
Cs0 Mg11 3.539548 1_455
Cs0 Mg8 3.539558 1_555
Cs0 Mg10 3.539810 1_455
Cs0 Mg6 3.539939 1_555
Cs0 Mg9 3.540275 1_555
Mg0 Mg7 3.008817 1_564
Mg0 Mg8 3.009138 1_555
Mg0 Mg9 3.009340 1_554
Mg0 Mg6 3.009461 1_565
Mg0 Mg4 3.130686 1_455
Mg0 Mg2 3.132927 1_455
Mg0 Mg12 3.296567 1_455
Mg0 Mg13 3.296686 1_454
Mg0 Mg4 3.326321 1_555
Mg0 Mg2 3.326925 1_565
Mg1 Mg13 3.215177 1_455
Mg1 Mg12 3.215395 1_455
Mg2 Mg6 3.009019 1_555
Mg2 Mg7 3.009421 1_554
Mg2 Mg4 3.131176 1_555
Mg2 Mg4 3.325929 1_545
Mg4 Mg8 3.009586 1_555
Mg4 Mg9 3.009678 1_554
Mg10 Mg2 3.008848 1_555
Mg10 Mg4 3.009729 1_545
Mg10 Mg12 3.255552 1_545
Mg10 Mg12 3.255836 1_555
Mg11 Mg4 3.009120 1_546
Mg11 Mg2 3.009417 1_556
Mg11 Mg13 3.255679 1_545
Mg11 Mg13 3.255700 1_555
Mg12 Mg5 3.214930 1_555
Mg12 Mg3 3.214936 1_555
Mg12 Mg8 3.255580 1_655
Mg12 Mg8 3.255699 1_555
Mg12 Mg6 3.256882 1_665
Mg12 Mg6 3.257288 1_555
Mg12 Mg4 3.296082 1_555
Mg12 Mg2 3.297081 1_555
Mg13 Mg5 3.214529 1_555
Mg13 Mg3 3.215539 1_555
Mg13 Mg9 3.255512 1_655
Mg13 Mg9 3.255781 1_555
Mg13 Mg7 3.256954 1_665
Mg13 Mg7 3.257208 1_555
Mg13 Mg4 3.296429 1_556
Mg13 Mg2 3.296615 1_556
Fe0 Mg6 2.984685 1_555
Fe0 Mg7 2.985047 1_554
Fe0 Mg10 2.985995 1_455
Fe0 Mg9 2.986034 1_554
Fe0 Mg11 2.986196 1_454
Fe0 Mg8 2.986601 1_555
Fe0 Mg0 3.227990 1_545
Fe0 Mg2 3.228276 1_555
Fe0 Mg2 3.229722 1_455
Fe0 Mg4 3.230062 1_445
Fe0 Mg0 3.230103 1_555
Fe0 Mg4 3.230749 1_555
