# generated using pymatgen
data_Dy2Ti2O7
_symmetry_space_group_name_H-M   'P 1'
_cell_length_a   7.24948713
_cell_length_b   6.95676824
_cell_length_c   7.39477281
_cell_angle_alpha   90.00000000
_cell_angle_beta   59.33481068
_cell_angle_gamma   118.67306294
_symmetry_Int_Tables_number   1
_chemical_formula_structural   Dy2Ti2O7
_chemical_formula_sum   'Dy4 Ti4 O14'
_cell_volume   266.24419831
_cell_formula_units_Z   2
loop_
 _symmetry_equiv_pos_site_id
 _symmetry_equiv_pos_as_xyz
  1  'x, y, z'
loop_
 _atom_site_type_symbol
 _atom_site_label
 _atom_site_symmetry_multiplicity
 _atom_site_fract_x
 _atom_site_fract_y
 _atom_site_fract_z
 _atom_site_occupancy
  Dy  Dy0  1  0.50000000  0.00000000  0.50000000  1
  Dy  Dy1  1  0.50000000  0.50000000  0.50000000  1
  Dy  Dy2  1  0.50000000  0.50000000  0.00000000  1
  Dy  Dy3  1  0.50000000  0.00000000  0.00000000  1
  Ti  Ti0  1  0.00000000  0.50000000  0.00000000  1
  Ti  Ti1  1  0.00000000  0.50000000  0.50000000  1
  Ti  Ti2  1  0.00000000  0.00000000  0.50000000  1
  Ti  Ti3  1  0.00000000  0.00000000  0.00000000  1
  O  O0  1  0.23236300  0.11618100  0.13381900  1
  O  O1  1  0.76763700  0.88381900  0.86618100  1
  O  O2  1  0.77091700  0.88545900  0.36454100  1
  O  O3  1  0.90165900  0.45083000  0.79917000  1
  O  O4  1  0.24064400  0.84511400  0.86893900  1
  O  O5  1  0.24064400  0.39553000  0.39041700  1
  O  O6  1  0.24064400  0.39553000  0.86893900  1
  O  O7  1  0.24064400  0.84511400  0.39041700  1
  O  O8  1  0.22908300  0.11454100  0.63545900  1
  O  O9  1  0.09834100  0.54917000  0.20083000  1
  O  O10  1  0.75935600  0.15488600  0.13106100  1
  O  O11  1  0.75935600  0.60447000  0.60958300  1
  O  O12  1  0.75935600  0.60447000  0.13106100  1
  O  O13  1  0.75935600  0.15488600  0.60958300  1
loop_
_geom_bond_atom_site_label_1
_geom_bond_atom_site_label_2
_geom_bond_distance
_geom_bond_site_symmetry_2
Dy0 O13 2.227741 1_555
Dy0 O10 2.227741 1_555
Dy0 O4 2.227741 1_545
Dy0 O7 2.227741 1_545
Dy0 O8 2.233989 1_555
Dy0 O2 2.233989 1_545
Dy1 O6 2.227741 1_555
Dy1 O11 2.227741 1_555
Dy1 O5 2.227741 1_555
Dy1 O12 2.227741 1_555
Dy1 O8 2.233994 1_555
Dy1 O2 2.233994 1_555
Dy2 O0 2.223379 1_555
Dy2 O1 2.223379 1_554
Dy2 O5 2.355858 1_555
Dy2 O6 2.355858 1_554
Dy2 O11 2.355858 1_554
Dy2 O12 2.355858 1_555
Dy2 O3 2.710358 1_554
Dy2 O9 2.710358 1_555
Dy3 O0 2.223374 1_555
Dy3 O1 2.223374 1_544
Dy3 O7 2.355858 1_545
Dy3 O10 2.355858 1_555
Dy3 O4 2.355858 1_544
Dy3 O13 2.355858 1_554
Dy3 O9 2.710362 1_545
Dy3 O3 2.710362 1_554
O0 Ti2 2.205415 1_555
O0 Ti3 2.205422 1_555
O1 Ti2 2.205415 1_665
O1 Ti3 2.205422 1_666
O2 Ti3 2.196205 1_665
O2 Ti2 2.196211 1_665
O3 Ti1 1.917470 1_655
O3 Ti0 1.917477 1_656
O4 Ti0 2.000744 1_556
O4 Ti3 2.285380 1_566
O5 Ti1 2.000744 1_555
O5 Ti2 2.285380 1_555
O6 Ti0 2.000744 1_556
O6 Ti3 2.285380 1_556
O7 Ti1 2.000744 1_555
O7 Ti2 2.285380 1_565
O8 Ti3 2.196205 1_556
O8 Ti2 2.196211 1_555
O9 Ti1 1.917470 1_555
O9 Ti0 1.917477 1_555
O10 Ti0 2.000744 1_655
O10 Ti3 2.285380 1_655
O11 Ti1 2.000744 1_655
O11 Ti2 2.285380 1_665
O12 Ti0 2.000744 1_655
O12 Ti3 2.285380 1_665
O13 Ti1 2.000744 1_655
O13 Ti2 2.285380 1_655
