# generated using pymatgen
data_MgTe(ClO)6
_symmetry_space_group_name_H-M   'P 1'
_cell_length_a   6.82036878
_cell_length_b   6.82036878
_cell_length_c   6.82036886
_cell_angle_alpha   79.65596693
_cell_angle_beta   79.65596693
_cell_angle_gamma   79.65596879
_symmetry_Int_Tables_number   1
_chemical_formula_structural   MgTe(ClO)6
_chemical_formula_sum   'Mg1 Te1 Cl6 O6'
_cell_volume   303.45875064
_cell_formula_units_Z   1
loop_
 _symmetry_equiv_pos_site_id
 _symmetry_equiv_pos_as_xyz
  1  'x, y, z'
loop_
 _atom_site_type_symbol
 _atom_site_label
 _atom_site_symmetry_multiplicity
 _atom_site_fract_x
 _atom_site_fract_y
 _atom_site_fract_z
 _atom_site_occupancy
  Mg  Mg0  1  0.50000000  0.50000000  0.50000000  1
  Te  Te0  1  0.00000000  0.00000000  0.00000000  1
  Cl  Cl0  1  0.84437200  0.16640000  0.31364700  1
  Cl  Cl1  1  0.31364700  0.84437200  0.16640000  1
  Cl  Cl2  1  0.16640000  0.31364700  0.84437200  1
  Cl  Cl3  1  0.15562800  0.83360000  0.68635300  1
  Cl  Cl4  1  0.68635300  0.15562800  0.83360000  1
  Cl  Cl5  1  0.83360000  0.68635300  0.15562800  1
  O  O0  1  0.54045900  0.65491800  0.74050500  1
  O  O1  1  0.74050500  0.54045900  0.65491800  1
  O  O2  1  0.65491800  0.74050500  0.54045900  1
  O  O3  1  0.45954100  0.34508200  0.25949500  1
  O  O4  1  0.25949500  0.45954100  0.34508200  1
  O  O5  1  0.34508200  0.25949500  0.45954100  1
loop_
_geom_bond_atom_site_label_1
_geom_bond_atom_site_label_2
_geom_bond_distance
_geom_bond_site_symmetry_2
Mg0 O2 2.184698 1_555
Mg0 O5 2.184698 1_555
Mg0 O1 2.184698 1_555
Mg0 O4 2.184698 1_555
Mg0 O3 2.184698 1_555
Mg0 O0 2.184698 1_555
Cl0 Te0 2.571893 1_655
Cl1 Te0 2.571893 1_565
Cl2 Te0 2.571893 1_556
Cl3 Te0 2.571893 1_566
Cl4 Te0 2.571893 1_656
Cl5 Te0 2.571893 1_665
O0 O2 1.518832 1_555
O0 O1 1.518832 1_555
O1 O2 1.518832 1_555
O3 O5 1.518832 1_555
O3 O4 1.518832 1_555
O4 O5 1.518832 1_555
