# generated using pymatgen
data_EuMg149
_symmetry_space_group_name_H-M   'P 1'
_cell_length_a   15.99243032
_cell_length_b   15.99243368
_cell_length_c   15.66774057
_cell_angle_alpha   90.00000000
_cell_angle_beta   90.00000000
_cell_angle_gamma   120.00001312
_symmetry_Int_Tables_number   1
_chemical_formula_structural   EuMg149
_chemical_formula_sum   'Eu1 Mg149'
_cell_volume   3470.29161963
_cell_formula_units_Z   1
loop_
 _symmetry_equiv_pos_site_id
 _symmetry_equiv_pos_as_xyz
  1  'x, y, z'
loop_
 _atom_site_type_symbol
 _atom_site_label
 _atom_site_symmetry_multiplicity
 _atom_site_fract_x
 _atom_site_fract_y
 _atom_site_fract_z
 _atom_site_occupancy
  Eu  Eu0  1  0.00000000  0.00000000  -0.00000000  1
  Mg  Mg0  1  0.60017438  0.20034976  -0.00000000  1
  Mg  Mg1  1  0.40140650  0.20070325  -0.00000000  1
  Mg  Mg2  1  0.79929675  0.20070325  -0.00000000  1
  Mg  Mg3  1  0.20492166  0.20820471  -0.00000000  1
  Mg  Mg4  1  0.00328305  0.20820571  -0.00000000  1
  Mg  Mg5  1  0.60017438  0.39982462  -0.00000000  1
  Mg  Mg6  1  0.79965024  0.39982462  -0.00000000  1
  Mg  Mg7  1  0.00030541  0.40140329  -0.00000000  1
  Mg  Mg8  1  0.40109788  0.40140329  -0.00000000  1
  Mg  Mg9  1  0.20191990  0.40383980  -0.00000000  1
  Mg  Mg10  1  0.79929675  0.59859350  -0.00000000  1
  Mg  Mg11  1  0.00030541  0.59890312  -0.00000000  1
  Mg  Mg12  1  0.59859771  0.59890312  -0.00000000  1
  Mg  Mg13  1  0.20079857  0.60039979  -0.00000000  1
  Mg  Mg14  1  0.39960021  0.60039979  -0.00000000  1
  Mg  Mg15  1  0.79179529  0.79507834  -0.00000000  1
  Mg  Mg16  1  0.00328305  0.79507834  -0.00000000  1
  Mg  Mg17  1  0.20191990  0.79808010  -0.00000000  1
  Mg  Mg18  1  0.59616020  0.79808010  -0.00000000  1
  Mg  Mg19  1  0.39960021  0.79920043  -0.00000000  1
  Mg  Mg20  1  0.20492166  0.99671595  -0.00000000  1
  Mg  Mg21  1  0.79179529  0.99671695  -0.00000000  1
  Mg  Mg22  1  0.59859771  0.99969459  -0.00000000  1
  Mg  Mg23  1  0.40109788  0.99969459  -0.00000000  1
  Mg  Mg24  1  0.86854522  0.13145478  0.16452441  1
  Mg  Mg25  1  0.26290857  0.13145478  0.16452441  1
  Mg  Mg26  1  0.86854522  0.73709143  0.16452441  1
  Mg  Mg27  1  0.66666600  0.33333300  0.16620712  1
  Mg  Mg28  1  0.46551142  0.13289995  0.16655848  1
  Mg  Mg29  1  0.66738853  0.13290095  0.16655848  1
  Mg  Mg30  1  0.46551142  0.33261147  0.16655848  1
  Mg  Mg31  1  0.86710005  0.33261147  0.16655848  1
  Mg  Mg32  1  0.66738853  0.53448858  0.16655848  1
  Mg  Mg33  1  0.86710005  0.53448858  0.16655848  1
  Mg  Mg34  1  0.26715068  0.53430236  0.16736032  1
  Mg  Mg35  1  0.26715068  0.73284832  0.16736032  1
  Mg  Mg36  1  0.46569664  0.73284832  0.16736032  1
  Mg  Mg37  1  0.46664453  0.53335547  0.16744819  1
  Mg  Mg38  1  0.06671094  0.53335547  0.16744819  1
  Mg  Mg39  1  0.46664453  0.93328806  0.16744819  1
  Mg  Mg40  1  0.26817644  0.33613801  0.16797538  1
  Mg  Mg41  1  0.06796157  0.33613801  0.16797538  1
  Mg  Mg42  1  0.06796157  0.73182356  0.16797538  1
  Mg  Mg43  1  0.66386199  0.73182356  0.16797538  1
  Mg  Mg44  1  0.26817644  0.93203843  0.16797538  1
  Mg  Mg45  1  0.66386199  0.93203843  0.16797538  1
  Mg  Mg46  1  0.06899435  0.13798970  0.17214794  1
  Mg  Mg47  1  0.86200930  0.93100465  0.17214794  1
  Mg  Mg48  1  0.06899435  0.93100465  0.17214794  1
  Mg  Mg49  1  0.80010327  0.19989573  0.33274417  1
  Mg  Mg50  1  0.39979246  0.19989673  0.33274417  1
  Mg  Mg51  1  0.80010327  0.60020754  0.33274417  1
  Mg  Mg52  1  0.60006072  0.20012244  0.33295047  1
  Mg  Mg53  1  0.60006072  0.39993828  0.33295047  1
  Mg  Mg54  1  0.79987756  0.39993928  0.33295047  1
  Mg  Mg55  1  0.19995270  0.59997635  0.33374637  1
  Mg  Mg56  1  0.40002365  0.59997635  0.33374637  1
  Mg  Mg57  1  0.40002365  0.80004830  0.33374637  1
  Mg  Mg58  1  0.40060710  0.00018804  0.33386341  1
  Mg  Mg59  1  0.59958094  0.00018904  0.33386341  1
  Mg  Mg60  1  0.40060710  0.40041906  0.33386341  1
  Mg  Mg61  1  0.99981196  0.40041906  0.33386341  1
  Mg  Mg62  1  0.59958094  0.59939290  0.33386341  1
  Mg  Mg63  1  0.99981196  0.59939290  0.33386341  1
  Mg  Mg64  1  0.20022187  0.40044374  0.33409057  1
  Mg  Mg65  1  0.20022187  0.79977713  0.33409057  1
  Mg  Mg66  1  0.59955526  0.79977813  0.33409057  1
  Mg  Mg67  1  0.00000000  0.00000000  0.33427628  1
  Mg  Mg68  1  0.20114285  0.00024703  0.33437271  1
  Mg  Mg69  1  0.79910418  0.00024803  0.33437271  1
  Mg  Mg70  1  0.20114285  0.20089582  0.33437271  1
  Mg  Mg71  1  0.99975297  0.20089582  0.33437271  1
  Mg  Mg72  1  0.99975297  0.79885615  0.33437271  1
  Mg  Mg73  1  0.79910418  0.79885715  0.33437271  1
  Mg  Mg74  1  0.86638797  0.13361203  0.50000000  1
  Mg  Mg75  1  0.26722406  0.13361203  0.50000000  1
  Mg  Mg76  1  0.06678794  0.13357689  0.50000000  1
  Mg  Mg77  1  0.66704338  0.13406738  0.50000000  1
  Mg  Mg78  1  0.46702400  0.13406738  0.50000000  1
  Mg  Mg79  1  0.86593262  0.33295662  0.50000000  1
  Mg  Mg80  1  0.46702400  0.33295662  0.50000000  1
  Mg  Mg81  1  0.66666600  0.33333300  0.50000000  1
  Mg  Mg82  1  0.06696466  0.33385604  0.50000000  1
  Mg  Mg83  1  0.26689138  0.33385604  0.50000000  1
  Mg  Mg84  1  0.66704338  0.53297600  0.50000000  1
  Mg  Mg85  1  0.86593262  0.53297600  0.50000000  1
  Mg  Mg86  1  0.46674170  0.53325730  0.50000000  1
  Mg  Mg87  1  0.06651560  0.53325830  0.50000000  1
  Mg  Mg88  1  0.26684631  0.53369161  0.50000000  1
  Mg  Mg89  1  0.86638797  0.73277594  0.50000000  1
  Mg  Mg90  1  0.06696466  0.73310862  0.50000000  1
  Mg  Mg91  1  0.66614396  0.73310862  0.50000000  1
  Mg  Mg92  1  0.46630839  0.73315469  0.50000000  1
  Mg  Mg93  1  0.26684631  0.73315469  0.50000000  1
  Mg  Mg94  1  0.26689138  0.93303534  0.50000000  1
  Mg  Mg95  1  0.66614396  0.93303534  0.50000000  1
  Mg  Mg96  1  0.06678794  0.93321106  0.50000000  1
  Mg  Mg97  1  0.86642311  0.93321206  0.50000000  1
  Mg  Mg98  1  0.46674170  0.93348440  0.50000000  1
  Mg  Mg99  1  0.20114285  0.00024703  0.66562729  1
  Mg  Mg100  1  0.79910418  0.00024803  0.66562729  1
  Mg  Mg101  1  0.20114285  0.20089582  0.66562729  1
  Mg  Mg102  1  0.99975297  0.20089582  0.66562729  1
  Mg  Mg103  1  0.99975297  0.79885615  0.66562729  1
  Mg  Mg104  1  0.79910418  0.79885715  0.66562729  1
  Mg  Mg105  1  0.00000000  0.00000000  0.66572372  1
  Mg  Mg106  1  0.20022187  0.40044374  0.66591043  1
  Mg  Mg107  1  0.20022187  0.79977713  0.66591043  1
  Mg  Mg108  1  0.59955526  0.79977813  0.66591043  1
  Mg  Mg109  1  0.40060710  0.00018804  0.66613759  1
  Mg  Mg110  1  0.59958094  0.00018904  0.66613759  1
  Mg  Mg111  1  0.40060710  0.40041906  0.66613759  1
  Mg  Mg112  1  0.99981196  0.40041906  0.66613759  1
  Mg  Mg113  1  0.59958094  0.59939290  0.66613759  1
  Mg  Mg114  1  0.99981196  0.59939290  0.66613759  1
  Mg  Mg115  1  0.19995270  0.59997635  0.66625363  1
  Mg  Mg116  1  0.40002365  0.59997635  0.66625363  1
  Mg  Mg117  1  0.40002365  0.80004830  0.66625363  1
  Mg  Mg118  1  0.60006072  0.20012244  0.66704953  1
  Mg  Mg119  1  0.60006072  0.39993828  0.66704953  1
  Mg  Mg120  1  0.79987756  0.39993928  0.66704953  1
  Mg  Mg121  1  0.80010327  0.19989573  0.66725583  1
  Mg  Mg122  1  0.39979246  0.19989673  0.66725583  1
  Mg  Mg123  1  0.80010327  0.60020754  0.66725583  1
  Mg  Mg124  1  0.06899435  0.13798970  0.82785206  1
  Mg  Mg125  1  0.86200930  0.93100465  0.82785206  1
  Mg  Mg126  1  0.06899435  0.93100465  0.82785206  1
  Mg  Mg127  1  0.26817644  0.33613801  0.83202462  1
  Mg  Mg128  1  0.06796157  0.33613801  0.83202462  1
  Mg  Mg129  1  0.06796157  0.73182356  0.83202462  1
  Mg  Mg130  1  0.66386199  0.73182356  0.83202462  1
  Mg  Mg131  1  0.26817644  0.93203843  0.83202462  1
  Mg  Mg132  1  0.66386199  0.93203843  0.83202462  1
  Mg  Mg133  1  0.46664453  0.53335547  0.83255281  1
  Mg  Mg134  1  0.06671094  0.53335547  0.83255281  1
  Mg  Mg135  1  0.46664453  0.93328806  0.83255281  1
  Mg  Mg136  1  0.26715068  0.53430236  0.83263968  1
  Mg  Mg137  1  0.26715068  0.73284832  0.83263968  1
  Mg  Mg138  1  0.46569664  0.73284832  0.83263968  1
  Mg  Mg139  1  0.46551142  0.13289995  0.83344152  1
  Mg  Mg140  1  0.66738853  0.13290095  0.83344152  1
  Mg  Mg141  1  0.46551142  0.33261147  0.83344152  1
  Mg  Mg142  1  0.86710005  0.33261147  0.83344152  1
  Mg  Mg143  1  0.66738853  0.53448858  0.83344152  1
  Mg  Mg144  1  0.86710005  0.53448858  0.83344152  1
  Mg  Mg145  1  0.66666600  0.33333300  0.83379288  1
  Mg  Mg146  1  0.86854522  0.13145478  0.83547559  1
  Mg  Mg147  1  0.26290857  0.13145478  0.83547559  1
  Mg  Mg148  1  0.86854522  0.73709143  0.83547559  1
loop_
_geom_bond_atom_site_label_1
_geom_bond_atom_site_label_2
_geom_bond_distance
_geom_bond_site_symmetry_2
Eu0 Mg15 3.303760 1_445
Eu0 Mg3 3.303760 1_555
Eu0 Mg21 3.303760 1_445
Eu0 Mg16 3.303761 1_545
Eu0 Mg20 3.303768 1_545
Eu0 Mg4 3.303777 1_555
Eu0 Mg46 3.305626 1_555
Eu0 Mg124 3.305626 1_554
Eu0 Mg48 3.305627 1_545
Eu0 Mg126 3.305627 1_544
Eu0 Mg125 3.305634 1_444
Eu0 Mg47 3.305634 1_445
Mg0 Mg1 3.181612 1_555
Mg0 Mg2 3.181628 1_555
Mg0 Mg27 3.189593 1_555
Mg0 Mg145 3.189593 1_554
Mg0 Mg5 3.190088 1_555
Mg0 Mg6 3.190095 1_555
Mg0 Mg23 3.196415 1_545
Mg0 Mg22 3.196432 1_545
Mg0 Mg139 3.207561 1_554
Mg0 Mg28 3.207561 1_555
Mg0 Mg140 3.207561 1_554
Mg0 Mg29 3.207561 1_555
Mg1 Mg5 3.181612 1_555
Mg1 Mg141 3.185665 1_554
Mg1 Mg30 3.185665 1_555
Mg1 Mg139 3.185665 1_554
Mg1 Mg28 3.185665 1_555
Mg1 Mg3 3.203938 1_555
Mg1 Mg20 3.203946 1_545
Mg1 Mg23 3.212153 1_545
Mg1 Mg8 3.212153 1_555
Mg1 Mg147 3.213109 1_554
Mg1 Mg25 3.213109 1_555
Mg2 Mg6 3.181612 1_555
Mg2 Mg29 3.185664 1_555
Mg2 Mg31 3.185665 1_555
Mg2 Mg4 3.203931 1_655
Mg2 Mg21 3.203939 1_545
Mg2 Mg22 3.212144 1_545
Mg2 Mg7 3.212152 1_655
Mg2 Mg24 3.213101 1_555
Mg3 Mg8 3.113797 1_555
Mg3 Mg9 3.152958 1_555
Mg3 Mg40 3.172688 1_555
Mg3 Mg4 3.224699 1_555
Mg3 Mg46 3.289392 1_555
Mg4 Mg7 3.113782 1_555
Mg4 Mg9 3.152949 1_555
Mg4 Mg41 3.172681 1_555
Mg4 Mg46 3.289392 1_555
Mg5 Mg6 3.190104 1_555
Mg5 Mg8 3.196415 1_555
Mg6 Mg7 3.196415 1_655
Mg7 Mg9 3.205000 1_555
Mg8 Mg9 3.205000 1_555
Mg10 Mg5 3.181628 1_555
Mg10 Mg6 3.181628 1_555
Mg10 Mg143 3.185664 1_554
Mg10 Mg32 3.185664 1_555
Mg10 Mg144 3.185665 1_554
Mg10 Mg33 3.185665 1_555
Mg10 Mg16 3.203938 1_655
Mg10 Mg15 3.203939 1_555
Mg10 Mg11 3.212144 1_655
Mg10 Mg12 3.212144 1_555
Mg10 Mg148 3.213109 1_554
Mg10 Mg26 3.213109 1_555
Mg11 Mg16 3.113782 1_555
Mg11 Mg7 3.158503 1_555
Mg11 Mg13 3.194472 1_555
Mg11 Mg144 3.196056 1_454
Mg11 Mg33 3.196056 1_455
Mg11 Mg6 3.196431 1_455
Mg11 Mg134 3.197307 1_554
Mg11 Mg38 3.197320 1_555
Mg11 Mg17 3.204992 1_555
Mg11 Mg42 3.211810 1_555
Mg11 Mg129 3.211810 1_554
Mg12 Mg15 3.113782 1_555
Mg12 Mg8 3.158502 1_555
Mg12 Mg14 3.194489 1_555
Mg12 Mg143 3.196056 1_554
Mg12 Mg32 3.196056 1_555
Mg12 Mg5 3.196432 1_555
Mg12 Mg133 3.197307 1_554
Mg12 Mg37 3.197320 1_555
Mg12 Mg18 3.204993 1_555
Mg12 Mg130 3.211810 1_554
Mg12 Mg43 3.211810 1_555
Mg13 Mg17 3.152461 1_555
Mg13 Mg9 3.152477 1_555
Mg13 Mg19 3.179313 1_555
Mg13 Mg14 3.179321 1_555
Mg13 Mg7 3.194472 1_555
Mg13 Mg35 3.200111 1_555
Mg13 Mg137 3.200111 1_554
Mg13 Mg34 3.200120 1_555
Mg13 Mg136 3.200120 1_554
Mg13 Mg134 3.214288 1_554
Mg13 Mg38 3.214301 1_555
Mg14 Mg9 3.152468 1_555
Mg14 Mg18 3.152468 1_555
Mg14 Mg19 3.179306 1_555
Mg14 Mg8 3.194481 1_555
Mg14 Mg36 3.200111 1_555
Mg14 Mg34 3.200119 1_555
Mg14 Mg37 3.214309 1_555
Mg15 Mg18 3.152957 1_555
Mg15 Mg43 3.172688 1_555
Mg15 Mg26 3.185821 1_555
Mg15 Mg21 3.224692 1_555
Mg15 Mg47 3.289384 1_555
Mg15 Mg16 3.382203 1_655
Mg16 Mg17 3.152957 1_555
Mg16 Mg42 3.172688 1_555
Mg16 Mg26 3.185829 1_455
Mg16 Mg20 3.224683 1_555
Mg16 Mg48 3.289384 1_555
Mg17 Mg19 3.152468 1_555
Mg17 Mg20 3.152942 1_555
Mg17 Mg35 3.184424 1_555
Mg17 Mg23 3.205000 1_555
Mg17 Mg42 3.220035 1_555
Mg17 Mg44 3.220035 1_555
Mg18 Mg19 3.152469 1_555
Mg18 Mg21 3.152957 1_555
Mg18 Mg36 3.184431 1_555
Mg18 Mg22 3.204993 1_555
Mg18 Mg45 3.220035 1_555
Mg18 Mg43 3.220035 1_555
Mg19 Mg23 3.194481 1_555
Mg19 Mg22 3.194488 1_555
Mg19 Mg36 3.200112 1_555
Mg19 Mg35 3.200119 1_555
Mg19 Mg39 3.214301 1_555
Mg20 Mg23 3.113790 1_555
Mg20 Mg44 3.172681 1_555
Mg20 Mg25 3.185838 1_565
Mg20 Mg48 3.289392 1_555
Mg20 Mg3 3.382220 1_565
Mg21 Mg22 3.113782 1_555
Mg21 Mg45 3.172688 1_555
Mg21 Mg24 3.185828 1_565
Mg21 Mg47 3.289384 1_555
Mg21 Mg4 3.382211 1_665
Mg22 Mg23 3.158502 1_555
Mg22 Mg29 3.196064 1_565
Mg22 Mg39 3.197320 1_555
Mg22 Mg45 3.211811 1_555
Mg23 Mg28 3.196056 1_565
Mg23 Mg39 3.197320 1_555
Mg23 Mg44 3.211818 1_555
Mg24 Mg46 3.156973 1_655
Mg24 Mg47 3.156982 1_545
Mg24 Mg4 3.185829 1_655
Mg24 Mg69 3.222983 1_555
Mg24 Mg71 3.222991 1_555
Mg24 Mg31 3.228760 1_555
Mg24 Mg29 3.228768 1_555
Mg24 Mg45 3.232542 1_545
Mg24 Mg41 3.232542 1_655
Mg24 Mg49 3.246629 1_555
Mg25 Mg46 3.156973 1_555
Mg25 Mg48 3.156981 1_545
Mg25 Mg3 3.185821 1_555
Mg25 Mg70 3.222984 1_555
Mg25 Mg68 3.222991 1_555
Mg25 Mg30 3.228767 1_555
Mg25 Mg28 3.228775 1_555
Mg25 Mg40 3.232536 1_555
Mg25 Mg44 3.232552 1_545
Mg25 Mg50 3.246637 1_555
Mg26 Mg48 3.156965 1_655
Mg26 Mg47 3.156966 1_555
Mg26 Mg73 3.222984 1_555
Mg26 Mg72 3.222992 1_555
Mg26 Mg32 3.228767 1_555
Mg26 Mg33 3.228776 1_555
Mg26 Mg43 3.232535 1_555
Mg26 Mg42 3.232551 1_655
Mg26 Mg51 3.246637 1_555
Mg27 Mg5 3.189593 1_555
Mg27 Mg6 3.189601 1_555
Mg27 Mg52 3.198271 1_555
Mg27 Mg53 3.198271 1_555
Mg27 Mg54 3.198279 1_555
Mg27 Mg29 3.211194 1_555
Mg27 Mg28 3.211201 1_555
Mg27 Mg30 3.211201 1_555
Mg27 Mg32 3.211210 1_555
Mg27 Mg33 3.211217 1_555
Mg27 Mg31 3.211217 1_555
Mg28 Mg44 3.184517 1_545
Mg28 Mg50 3.187198 1_555
Mg28 Mg30 3.193873 1_555
Mg28 Mg39 3.201409 1_545
Mg28 Mg58 3.201577 1_555
Mg28 Mg52 3.204523 1_555
Mg28 Mg29 3.228498 1_555
Mg29 Mg45 3.184534 1_545
Mg29 Mg49 3.187189 1_555
Mg29 Mg31 3.193864 1_555
Mg29 Mg39 3.201408 1_545
Mg29 Mg59 3.201577 1_555
Mg29 Mg52 3.204523 1_555
Mg30 Mg40 3.184517 1_555
Mg30 Mg50 3.187189 1_555
Mg30 Mg8 3.196056 1_555
Mg30 Mg37 3.201393 1_555
Mg30 Mg60 3.201577 1_555
Mg30 Mg53 3.204523 1_555
Mg30 Mg5 3.207561 1_555
Mg30 Mg32 3.228505 1_555
Mg31 Mg41 3.184517 1_655
Mg31 Mg49 3.187198 1_555
Mg31 Mg7 3.196056 1_655
Mg31 Mg38 3.201392 1_655
Mg31 Mg61 3.201577 1_555
Mg31 Mg54 3.204531 1_555
Mg31 Mg6 3.207561 1_555
Mg31 Mg33 3.228506 1_555
Mg32 Mg43 3.184518 1_555
Mg32 Mg51 3.187189 1_555
Mg32 Mg33 3.193873 1_555
Mg32 Mg37 3.201393 1_555
Mg32 Mg62 3.201577 1_555
Mg32 Mg53 3.204531 1_555
Mg32 Mg5 3.207569 1_555
Mg33 Mg42 3.184517 1_655
Mg33 Mg51 3.187198 1_555
Mg33 Mg38 3.201393 1_655
Mg33 Mg63 3.201577 1_555
Mg33 Mg54 3.204523 1_555
Mg33 Mg6 3.207569 1_555
Mg34 Mg36 3.175232 1_555
Mg34 Mg35 3.175233 1_555
Mg34 Mg41 3.177370 1_555
Mg34 Mg40 3.177379 1_555
Mg34 Mg9 3.184424 1_555
Mg34 Mg55 3.191017 1_555
Mg34 Mg56 3.191025 1_555
Mg34 Mg38 3.197974 1_555
Mg34 Mg37 3.197990 1_555
Mg34 Mg64 3.203290 1_555
Mg35 Mg36 3.175232 1_555
Mg35 Mg42 3.177370 1_555
Mg35 Mg44 3.177379 1_555
Mg35 Mg55 3.191017 1_555
Mg35 Mg57 3.191025 1_555
Mg35 Mg38 3.197974 1_555
Mg35 Mg39 3.197982 1_555
Mg35 Mg65 3.203282 1_555
Mg36 Mg45 3.177386 1_555
Mg36 Mg43 3.177386 1_555
Mg36 Mg56 3.191017 1_555
Mg36 Mg57 3.191025 1_555
Mg36 Mg39 3.197967 1_555
Mg36 Mg37 3.197983 1_555
Mg36 Mg66 3.203290 1_555
Mg37 Mg40 3.164045 1_555
Mg37 Mg43 3.164045 1_555
Mg37 Mg62 3.191889 1_555
Mg37 Mg60 3.191889 1_555
Mg37 Mg56 3.192826 1_555
Mg37 Mg8 3.197312 1_555
Mg38 Mg42 3.164046 1_555
Mg38 Mg41 3.164046 1_555
Mg38 Mg61 3.191889 1_455
Mg38 Mg63 3.191889 1_455
Mg38 Mg55 3.192826 1_555
Mg38 Mg7 3.197312 1_555
Mg39 Mg45 3.164037 1_555
Mg39 Mg44 3.164053 1_555
Mg39 Mg59 3.191889 1_565
Mg39 Mg58 3.191897 1_565
Mg39 Mg57 3.192810 1_555
Mg40 Mg46 3.177844 1_555
Mg40 Mg60 3.181244 1_555
Mg40 Mg64 3.182778 1_555
Mg40 Mg41 3.201922 1_555
Mg40 Mg70 3.210194 1_555
Mg40 Mg8 3.211818 1_555
Mg40 Mg9 3.220035 1_555
Mg41 Mg46 3.177837 1_555
Mg41 Mg61 3.181245 1_455
Mg41 Mg64 3.182778 1_555
Mg41 Mg71 3.210194 1_455
Mg41 Mg7 3.211818 1_555
Mg41 Mg9 3.220035 1_555
Mg42 Mg48 3.177837 1_555
Mg42 Mg63 3.181245 1_455
Mg42 Mg65 3.182778 1_555
Mg42 Mg44 3.201922 1_555
Mg42 Mg72 3.210186 1_455
Mg43 Mg47 3.177828 1_555
Mg43 Mg62 3.181245 1_555
Mg43 Mg66 3.182786 1_555
Mg43 Mg45 3.201923 1_555
Mg43 Mg73 3.210194 1_555
Mg44 Mg48 3.177844 1_555
Mg44 Mg58 3.181244 1_565
Mg44 Mg65 3.182786 1_555
Mg44 Mg68 3.210195 1_565
Mg45 Mg47 3.177828 1_555
Mg45 Mg59 3.181253 1_565
Mg45 Mg66 3.182778 1_555
Mg45 Mg69 3.210194 1_565
Mg46 Mg71 3.132491 1_455
Mg46 Mg70 3.132499 1_555
Mg46 Mg67 3.178834 1_555
Mg46 Mg47 3.310194 1_445
Mg46 Mg48 3.310195 1_545
Mg47 Mg73 3.132491 1_555
Mg47 Mg69 3.132500 1_565
Mg47 Mg67 3.178842 1_665
Mg47 Mg48 3.310194 1_655
Mg48 Mg72 3.132499 1_455
Mg48 Mg68 3.132499 1_565
Mg48 Mg67 3.178834 1_565
Mg49 Mg69 3.184996 1_555
Mg49 Mg71 3.185019 1_555
Mg49 Mg74 3.199722 1_555
Mg49 Mg59 3.200385 1_555
Mg49 Mg61 3.200409 1_555
Mg49 Mg52 3.200983 1_555
Mg49 Mg54 3.200991 1_555
Mg49 Mg77 3.203652 1_555
Mg49 Mg79 3.203660 1_555
Mg50 Mg70 3.185011 1_555
Mg50 Mg68 3.185019 1_555
Mg50 Mg75 3.199722 1_555
Mg50 Mg60 3.200394 1_555
Mg50 Mg58 3.200410 1_555
Mg50 Mg53 3.200966 1_555
Mg50 Mg52 3.200975 1_555
Mg50 Mg80 3.203652 1_555
Mg50 Mg78 3.203660 1_555
Mg51 Mg72 3.185011 1_555
Mg51 Mg73 3.185012 1_555
Mg51 Mg89 3.199722 1_555
Mg51 Mg62 3.200393 1_555
Mg51 Mg63 3.200409 1_555
Mg51 Mg54 3.200975 1_555
Mg51 Mg53 3.200982 1_555
Mg51 Mg84 3.203652 1_555
Mg51 Mg85 3.203660 1_555
Mg52 Mg59 3.193624 1_555
Mg52 Mg58 3.193631 1_555
Mg52 Mg53 3.195542 1_555
Mg52 Mg54 3.195557 1_555
Mg52 Mg78 3.200813 1_555
Mg52 Mg77 3.200821 1_555
Mg52 Mg81 3.202191 1_555
Mg53 Mg60 3.193632 1_555
Mg53 Mg62 3.193640 1_555
Mg53 Mg54 3.195549 1_555
Mg53 Mg80 3.200813 1_555
Mg53 Mg84 3.200821 1_555
Mg53 Mg81 3.202191 1_555
Mg54 Mg63 3.193631 1_555
Mg54 Mg61 3.193639 1_555
Mg54 Mg85 3.200813 1_555
Mg54 Mg79 3.200821 1_555
Mg54 Mg81 3.202199 1_555
Mg55 Mg93 3.191753 1_555
Mg55 Mg88 3.191753 1_555
Mg55 Mg65 3.193155 1_555
Mg55 Mg64 3.193171 1_555
Mg55 Mg87 3.193821 1_555
Mg55 Mg61 3.196082 1_455
Mg55 Mg63 3.196082 1_455
Mg55 Mg56 3.199621 1_555
Mg55 Mg57 3.199628 1_555
Mg56 Mg88 3.191745 1_555
Mg56 Mg92 3.191753 1_555
Mg56 Mg66 3.193162 1_555
Mg56 Mg64 3.193170 1_555
Mg56 Mg86 3.193822 1_555
Mg56 Mg62 3.196082 1_555
Mg56 Mg60 3.196083 1_555
Mg56 Mg57 3.199637 1_555
Mg57 Mg93 3.191745 1_555
Mg57 Mg92 3.191753 1_555
Mg57 Mg65 3.193154 1_555
Mg57 Mg66 3.193162 1_555
Mg57 Mg98 3.193813 1_555
Mg57 Mg58 3.196067 1_565
Mg57 Mg59 3.196082 1_565
Mg58 Mg59 3.182067 1_555
Mg58 Mg98 3.187535 1_545
Mg58 Mg68 3.190400 1_555
Mg58 Mg94 3.194565 1_545
Mg58 Mg78 3.195887 1_555
Mg58 Mg65 3.204854 1_545
Mg59 Mg98 3.187543 1_545
Mg59 Mg69 3.190400 1_555
Mg59 Mg95 3.194573 1_545
Mg59 Mg77 3.195879 1_555
Mg59 Mg66 3.204855 1_545
Mg60 Mg62 3.182075 1_555
Mg60 Mg86 3.187535 1_555
Mg60 Mg70 3.190400 1_555
Mg60 Mg83 3.194565 1_555
Mg60 Mg80 3.195887 1_555
Mg60 Mg64 3.204846 1_555
Mg61 Mg63 3.182076 1_555
Mg61 Mg87 3.187543 1_655
Mg61 Mg71 3.190401 1_555
Mg61 Mg82 3.194565 1_655
Mg61 Mg79 3.195886 1_555
Mg61 Mg64 3.204846 1_655
Mg62 Mg86 3.187543 1_555
Mg62 Mg73 3.190400 1_555
Mg62 Mg91 3.194565 1_555
Mg62 Mg84 3.195887 1_555
Mg62 Mg66 3.204855 1_555
Mg63 Mg87 3.187535 1_655
Mg63 Mg72 3.190385 1_555
Mg63 Mg90 3.194565 1_655
Mg63 Mg85 3.195886 1_555
Mg63 Mg65 3.204838 1_655
Mg64 Mg88 3.187907 1_555
Mg64 Mg82 3.187982 1_555
Mg64 Mg83 3.187982 1_555
Mg64 Mg71 3.198649 1_455
Mg64 Mg70 3.198650 1_555
Mg65 Mg93 3.187899 1_555
Mg65 Mg90 3.187982 1_555
Mg65 Mg94 3.187990 1_555
Mg65 Mg72 3.198649 1_455
Mg65 Mg68 3.198666 1_565
Mg66 Mg92 3.187899 1_555
Mg66 Mg95 3.187982 1_555
Mg66 Mg91 3.187990 1_555
Mg66 Mg69 3.198665 1_565
Mg66 Mg73 3.198665 1_555
Mg67 Mg97 3.188177 1_445
Mg67 Mg76 3.188177 1_555
Mg67 Mg96 3.188177 1_545
Mg67 Mg70 3.214790 1_555
Mg67 Mg73 3.214790 1_445
Mg67 Mg68 3.214790 1_555
Mg67 Mg71 3.214791 1_455
Mg67 Mg69 3.214798 1_455
Mg67 Mg72 3.214807 1_445
Mg68 Mg94 3.182018 1_545
Mg68 Mg75 3.185258 1_555
Mg68 Mg96 3.193214 1_545
Mg68 Mg70 3.208862 1_555
Mg68 Mg72 3.220721 1_445
Mg69 Mg95 3.182017 1_545
Mg69 Mg74 3.185250 1_555
Mg69 Mg97 3.193214 1_545
Mg69 Mg71 3.208853 1_555
Mg69 Mg73 3.220730 1_545
Mg70 Mg83 3.182018 1_555
Mg70 Mg75 3.185258 1_555
Mg70 Mg76 3.193214 1_555
Mg70 Mg71 3.220714 1_455
Mg71 Mg82 3.182018 1_655
Mg71 Mg74 3.185258 1_555
Mg71 Mg76 3.193206 1_655
Mg72 Mg90 3.182010 1_655
Mg72 Mg89 3.185258 1_555
Mg72 Mg96 3.193214 1_655
Mg72 Mg73 3.208870 1_555
Mg73 Mg91 3.182017 1_555
Mg73 Mg89 3.185258 1_555
Mg73 Mg97 3.193214 1_555
Mg74 Mg77 3.191652 1_555
Mg74 Mg79 3.191652 1_555
Mg74 Mg82 3.205052 1_655
Mg74 Mg95 3.205052 1_545
Mg74 Mg76 3.205164 1_655
Mg74 Mg97 3.205164 1_545
Mg75 Mg99 3.185258 1_555
Mg75 Mg80 3.191651 1_555
Mg75 Mg78 3.191652 1_555
Mg75 Mg94 3.205053 1_545
Mg75 Mg83 3.205053 1_555
Mg75 Mg96 3.205179 1_545
Mg75 Mg76 3.205180 1_555
Mg76 Mg82 3.201539 1_555
Mg76 Mg83 3.201546 1_555
Mg76 Mg97 3.204320 1_445
Mg76 Mg96 3.204337 1_545
Mg77 Mg79 3.180722 1_555
Mg77 Mg81 3.189764 1_555
Mg77 Mg78 3.198796 1_555
Mg77 Mg98 3.205562 1_545
Mg77 Mg95 3.207824 1_545
Mg78 Mg80 3.180723 1_555
Mg78 Mg81 3.189755 1_555
Mg78 Mg98 3.205555 1_545
Mg78 Mg94 3.207823 1_545
Mg79 Mg81 3.189771 1_555
Mg79 Mg85 3.198797 1_555
Mg79 Mg87 3.205562 1_655
Mg79 Mg82 3.207823 1_655
Mg80 Mg81 3.189755 1_555
Mg80 Mg84 3.198796 1_555
Mg80 Mg86 3.205555 1_555
Mg80 Mg83 3.207823 1_555
Mg81 Mg84 3.189764 1_555
Mg81 Mg85 3.189771 1_555
Mg82 Mg87 3.192524 1_555
Mg82 Mg88 3.196225 1_555
Mg82 Mg83 3.197314 1_555
Mg83 Mg86 3.192507 1_555
Mg83 Mg88 3.196218 1_555
Mg84 Mg85 3.180722 1_555
Mg84 Mg89 3.191651 1_555
Mg84 Mg86 3.205562 1_555
Mg84 Mg91 3.207824 1_555
Mg85 Mg89 3.191652 1_555
Mg85 Mg87 3.205554 1_655
Mg85 Mg90 3.207823 1_655
Mg86 Mg91 3.192523 1_555
Mg86 Mg88 3.200292 1_555
Mg86 Mg92 3.200316 1_555
Mg87 Mg90 3.192508 1_555
Mg87 Mg93 3.200307 1_555
Mg87 Mg88 3.200316 1_555
Mg88 Mg92 3.189891 1_555
Mg88 Mg93 3.189900 1_555
Mg89 Mg90 3.205052 1_655
Mg89 Mg91 3.205052 1_555
Mg89 Mg96 3.205163 1_655
Mg89 Mg97 3.205180 1_555
Mg90 Mg93 3.196225 1_555
Mg90 Mg94 3.197314 1_555
Mg90 Mg96 3.201539 1_555
Mg91 Mg92 3.196225 1_555
Mg91 Mg95 3.197315 1_555
Mg91 Mg97 3.201546 1_555
Mg92 Mg93 3.189883 1_555
Mg92 Mg95 3.196217 1_555
Mg92 Mg98 3.200300 1_555
Mg93 Mg94 3.196218 1_555
Mg93 Mg98 3.200291 1_555
Mg94 Mg99 3.182018 1_565
Mg94 Mg98 3.192508 1_555
Mg94 Mg96 3.201546 1_555
Mg95 Mg98 3.192524 1_555
Mg95 Mg97 3.201538 1_555
Mg96 Mg99 3.193214 1_565
Mg96 Mg97 3.204329 1_455
Mg100 Mg125 3.132500 1_545
Mg100 Mg95 3.182017 1_545
Mg100 Mg121 3.184996 1_555
Mg100 Mg74 3.185250 1_555
Mg100 Mg110 3.190400 1_555
Mg100 Mg97 3.193214 1_545
Mg100 Mg108 3.198665 1_545
Mg100 Mg102 3.208853 1_555
Mg100 Mg132 3.210194 1_545
Mg100 Mg105 3.214798 1_655
Mg100 Mg104 3.220730 1_545
Mg100 Mg146 3.222983 1_555
Mg101 Mg124 3.132499 1_555
Mg101 Mg83 3.182018 1_555
Mg101 Mg122 3.185011 1_555
Mg101 Mg75 3.185258 1_555
Mg101 Mg111 3.190400 1_555
Mg101 Mg76 3.193214 1_555
Mg101 Mg106 3.198650 1_555
Mg101 Mg99 3.208862 1_555
Mg101 Mg127 3.210194 1_555
Mg101 Mg105 3.214790 1_555
Mg101 Mg102 3.220714 1_455
Mg101 Mg147 3.222984 1_555
Mg102 Mg124 3.132491 1_655
Mg102 Mg82 3.182018 1_655
Mg102 Mg121 3.185019 1_555
Mg102 Mg74 3.185258 1_555
Mg102 Mg112 3.190401 1_555
Mg102 Mg76 3.193206 1_655
Mg102 Mg106 3.198649 1_655
Mg102 Mg128 3.210194 1_655
Mg102 Mg105 3.214791 1_655
Mg102 Mg146 3.222991 1_555
Mg103 Mg126 3.132499 1_655
Mg103 Mg90 3.182010 1_655
Mg103 Mg123 3.185011 1_555
Mg103 Mg89 3.185258 1_555
Mg103 Mg114 3.190385 1_555
Mg103 Mg96 3.193214 1_655
Mg103 Mg107 3.198649 1_655
Mg103 Mg104 3.208870 1_555
Mg103 Mg129 3.210186 1_655
Mg103 Mg105 3.214807 1_665
Mg103 Mg99 3.220721 1_665
Mg103 Mg148 3.222992 1_555
Mg104 Mg125 3.132491 1_555
Mg104 Mg91 3.182017 1_555
Mg104 Mg123 3.185012 1_555
Mg104 Mg89 3.185258 1_555
Mg104 Mg113 3.190400 1_555
Mg104 Mg97 3.193214 1_555
Mg104 Mg108 3.198665 1_555
Mg104 Mg130 3.210194 1_555
Mg104 Mg105 3.214790 1_665
Mg104 Mg148 3.222984 1_555
Mg105 Mg124 3.178834 1_555
Mg105 Mg126 3.178834 1_545
Mg105 Mg125 3.178842 1_445
Mg105 Mg97 3.188177 1_445
Mg105 Mg76 3.188177 1_555
Mg105 Mg96 3.188177 1_545
Mg105 Mg99 3.214790 1_555
Mg106 Mg128 3.182765 1_555
Mg106 Mg127 3.182765 1_555
Mg106 Mg88 3.187920 1_555
Mg106 Mg82 3.187994 1_555
Mg106 Mg83 3.187995 1_555
Mg106 Mg116 3.193170 1_555
Mg106 Mg115 3.193171 1_555
Mg106 Mg136 3.203277 1_555
Mg106 Mg112 3.204846 1_455
Mg106 Mg111 3.204846 1_555
Mg107 Mg129 3.182765 1_555
Mg107 Mg131 3.182773 1_555
Mg107 Mg93 3.187912 1_555
Mg107 Mg90 3.187994 1_555
Mg107 Mg94 3.188003 1_555
Mg107 Mg117 3.193154 1_555
Mg107 Mg115 3.193155 1_555
Mg107 Mg99 3.198666 1_565
Mg107 Mg137 3.203269 1_555
Mg107 Mg114 3.204838 1_455
Mg107 Mg109 3.204854 1_565
Mg108 Mg132 3.182765 1_555
Mg108 Mg130 3.182773 1_555
Mg108 Mg92 3.187911 1_555
Mg108 Mg95 3.187995 1_555
Mg108 Mg91 3.188003 1_555
Mg108 Mg116 3.193162 1_555
Mg108 Mg117 3.193162 1_555
Mg108 Mg138 3.203277 1_555
Mg108 Mg110 3.204855 1_565
Mg108 Mg113 3.204855 1_555
Mg109 Mg131 3.181232 1_545
Mg109 Mg110 3.182067 1_555
Mg109 Mg98 3.187548 1_545
Mg109 Mg99 3.190400 1_555
Mg109 Mg135 3.191897 1_545
Mg109 Mg118 3.193631 1_555
Mg109 Mg94 3.194578 1_545
Mg109 Mg78 3.195899 1_555
Mg109 Mg117 3.196067 1_545
Mg109 Mg122 3.200410 1_555
Mg109 Mg139 3.201564 1_555
Mg110 Mg132 3.181240 1_545
Mg110 Mg98 3.187555 1_545
Mg110 Mg135 3.191889 1_545
Mg110 Mg118 3.193624 1_555
Mg110 Mg95 3.194586 1_545
Mg110 Mg77 3.195891 1_555
Mg110 Mg117 3.196082 1_545
Mg110 Mg121 3.200385 1_555
Mg110 Mg140 3.201564 1_555
Mg111 Mg127 3.181232 1_555
Mg111 Mg113 3.182075 1_555
Mg111 Mg86 3.187548 1_555
Mg111 Mg133 3.191889 1_555
Mg111 Mg119 3.193631 1_555
Mg111 Mg83 3.194578 1_555
Mg111 Mg80 3.195900 1_555
Mg111 Mg116 3.196083 1_555
Mg111 Mg122 3.200394 1_555
Mg111 Mg141 3.201564 1_555
Mg112 Mg128 3.181232 1_655
Mg112 Mg114 3.182076 1_555
Mg112 Mg87 3.187556 1_655
Mg112 Mg134 3.191889 1_655
Mg112 Mg120 3.193639 1_555
Mg112 Mg82 3.194578 1_655
Mg112 Mg79 3.195899 1_555
Mg112 Mg115 3.196082 1_655
Mg112 Mg121 3.200409 1_555
Mg112 Mg142 3.201564 1_555
Mg113 Mg130 3.181232 1_555
Mg113 Mg86 3.187555 1_555
Mg113 Mg133 3.191889 1_555
Mg113 Mg119 3.193640 1_555
Mg113 Mg91 3.194578 1_555
Mg113 Mg84 3.195900 1_555
Mg113 Mg116 3.196082 1_555
Mg113 Mg123 3.200393 1_555
Mg113 Mg143 3.201564 1_555
Mg114 Mg129 3.181232 1_655
Mg114 Mg87 3.187548 1_655
Mg114 Mg134 3.191889 1_655
Mg114 Mg120 3.193631 1_555
Mg114 Mg90 3.194578 1_655
Mg114 Mg85 3.195899 1_555
Mg114 Mg115 3.196082 1_655
Mg114 Mg123 3.200409 1_555
Mg114 Mg144 3.201564 1_555
Mg115 Mg137 3.191017 1_555
Mg115 Mg136 3.191017 1_555
Mg115 Mg93 3.191753 1_555
Mg115 Mg88 3.191753 1_555
Mg115 Mg134 3.192839 1_555
Mg115 Mg87 3.193821 1_555
Mg115 Mg116 3.199621 1_555
Mg115 Mg117 3.199628 1_555
Mg116 Mg138 3.191017 1_555
Mg116 Mg136 3.191025 1_555
Mg116 Mg88 3.191745 1_555
Mg116 Mg92 3.191753 1_555
Mg116 Mg133 3.192839 1_555
Mg116 Mg86 3.193822 1_555
Mg116 Mg117 3.199637 1_555
Mg117 Mg137 3.191025 1_555
Mg117 Mg138 3.191025 1_555
Mg117 Mg93 3.191745 1_555
Mg117 Mg92 3.191753 1_555
Mg117 Mg135 3.192823 1_555
Mg117 Mg98 3.193813 1_555
Mg118 Mg119 3.195542 1_555
Mg118 Mg120 3.195557 1_555
Mg118 Mg145 3.198271 1_555
Mg118 Mg78 3.200813 1_555
Mg118 Mg77 3.200821 1_555
Mg118 Mg122 3.200975 1_555
Mg118 Mg121 3.200983 1_555
Mg118 Mg81 3.202191 1_555
Mg118 Mg139 3.204523 1_555
Mg118 Mg140 3.204523 1_555
Mg119 Mg120 3.195549 1_555
Mg119 Mg145 3.198271 1_555
Mg119 Mg80 3.200813 1_555
Mg119 Mg84 3.200821 1_555
Mg119 Mg122 3.200966 1_555
Mg119 Mg123 3.200982 1_555
Mg119 Mg81 3.202191 1_555
Mg119 Mg141 3.204523 1_555
Mg119 Mg143 3.204531 1_555
Mg120 Mg145 3.198279 1_555
Mg120 Mg85 3.200813 1_555
Mg120 Mg79 3.200821 1_555
Mg120 Mg123 3.200975 1_555
Mg120 Mg121 3.200991 1_555
Mg120 Mg81 3.202199 1_555
Mg120 Mg144 3.204523 1_555
Mg120 Mg142 3.204531 1_555
Mg121 Mg140 3.187189 1_555
Mg121 Mg142 3.187198 1_555
Mg121 Mg74 3.199722 1_555
Mg121 Mg77 3.203652 1_555
Mg121 Mg79 3.203660 1_555
Mg121 Mg146 3.246629 1_555
Mg122 Mg99 3.185019 1_555
Mg122 Mg141 3.187189 1_555
Mg122 Mg139 3.187198 1_555
Mg122 Mg75 3.199722 1_555
Mg122 Mg80 3.203652 1_555
Mg122 Mg78 3.203660 1_555
Mg122 Mg147 3.246637 1_555
Mg123 Mg143 3.187189 1_555
Mg123 Mg144 3.187198 1_555
Mg123 Mg89 3.199722 1_555
Mg123 Mg84 3.203652 1_555
Mg123 Mg85 3.203660 1_555
Mg123 Mg148 3.246637 1_555
Mg124 Mg146 3.156973 1_455
Mg124 Mg147 3.156973 1_555
Mg124 Mg128 3.177837 1_555
Mg124 Mg127 3.177844 1_555
Mg124 Mg3 3.289392 1_556
Mg124 Mg4 3.289392 1_556
Mg124 Mg125 3.310194 1_445
Mg124 Mg126 3.310195 1_545
Mg125 Mg148 3.156966 1_555
Mg125 Mg146 3.156982 1_565
Mg125 Mg130 3.177828 1_555
Mg125 Mg132 3.177828 1_555
Mg125 Mg15 3.289384 1_556
Mg125 Mg21 3.289384 1_556
Mg125 Mg126 3.310194 1_655
Mg126 Mg99 3.132499 1_565
Mg126 Mg148 3.156965 1_455
Mg126 Mg147 3.156981 1_565
Mg126 Mg129 3.177837 1_555
Mg126 Mg131 3.177844 1_555
Mg126 Mg16 3.289384 1_556
Mg126 Mg20 3.289392 1_556
Mg127 Mg133 3.164045 1_555
Mg127 Mg3 3.172688 1_556
Mg127 Mg136 3.177379 1_555
Mg127 Mg141 3.184517 1_555
Mg127 Mg128 3.201922 1_555
Mg127 Mg8 3.211818 1_556
Mg127 Mg9 3.220035 1_556
Mg127 Mg147 3.232536 1_555
Mg128 Mg134 3.164046 1_555
Mg128 Mg4 3.172681 1_556
Mg128 Mg136 3.177370 1_555
Mg128 Mg142 3.184517 1_455
Mg128 Mg7 3.211818 1_556
Mg128 Mg9 3.220035 1_556
Mg128 Mg146 3.232542 1_455
Mg129 Mg134 3.164046 1_555
Mg129 Mg16 3.172688 1_556
Mg129 Mg137 3.177370 1_555
Mg129 Mg144 3.184517 1_455
Mg129 Mg131 3.201922 1_555
Mg129 Mg17 3.220035 1_556
Mg129 Mg148 3.232551 1_455
Mg130 Mg133 3.164045 1_555
Mg130 Mg15 3.172688 1_556
Mg130 Mg138 3.177386 1_555
Mg130 Mg143 3.184518 1_555
Mg130 Mg132 3.201923 1_555
Mg130 Mg18 3.220035 1_556
Mg130 Mg148 3.232535 1_555
Mg131 Mg135 3.164053 1_555
Mg131 Mg20 3.172681 1_556
Mg131 Mg137 3.177379 1_555
Mg131 Mg139 3.184517 1_565
Mg131 Mg99 3.210195 1_565
Mg131 Mg23 3.211818 1_556
Mg131 Mg17 3.220035 1_556
Mg131 Mg147 3.232552 1_565
Mg132 Mg135 3.164037 1_555
Mg132 Mg21 3.172688 1_556
Mg132 Mg138 3.177386 1_555
Mg132 Mg140 3.184534 1_565
Mg132 Mg22 3.211811 1_556
Mg132 Mg18 3.220035 1_556
Mg132 Mg146 3.232542 1_565
Mg133 Mg8 3.197299 1_556
Mg133 Mg138 3.197983 1_555
Mg133 Mg136 3.197990 1_555
Mg133 Mg143 3.201393 1_555
Mg133 Mg141 3.201393 1_555
Mg133 Mg14 3.214297 1_556
Mg134 Mg7 3.197299 1_556
Mg134 Mg137 3.197974 1_555
Mg134 Mg136 3.197974 1_555
Mg134 Mg142 3.201392 1_455
Mg134 Mg144 3.201393 1_455
Mg135 Mg22 3.197307 1_556
Mg135 Mg23 3.197307 1_556
Mg135 Mg138 3.197967 1_555
Mg135 Mg137 3.197982 1_555
Mg135 Mg140 3.201408 1_565
Mg135 Mg139 3.201409 1_565
Mg135 Mg19 3.214288 1_556
Mg136 Mg138 3.175232 1_555
Mg136 Mg137 3.175233 1_555
Mg136 Mg9 3.184424 1_556
Mg136 Mg14 3.200119 1_556
Mg137 Mg138 3.175232 1_555
Mg137 Mg17 3.184424 1_556
Mg137 Mg19 3.200119 1_556
Mg138 Mg18 3.184431 1_556
Mg138 Mg14 3.200111 1_556
Mg138 Mg19 3.200112 1_556
Mg139 Mg141 3.193873 1_555
Mg139 Mg23 3.196056 1_546
Mg139 Mg145 3.211201 1_555
Mg139 Mg140 3.228498 1_555
Mg139 Mg147 3.228775 1_555
Mg140 Mg2 3.185664 1_556
Mg140 Mg142 3.193864 1_555
Mg140 Mg22 3.196064 1_546
Mg140 Mg145 3.211194 1_555
Mg140 Mg146 3.228768 1_555
Mg141 Mg8 3.196056 1_556
Mg141 Mg5 3.207561 1_556
Mg141 Mg145 3.211201 1_555
Mg141 Mg143 3.228505 1_555
Mg141 Mg147 3.228767 1_555
Mg142 Mg2 3.185665 1_556
Mg142 Mg7 3.196056 1_656
Mg142 Mg6 3.207561 1_556
Mg142 Mg145 3.211217 1_555
Mg142 Mg144 3.228506 1_555
Mg142 Mg146 3.228760 1_555
Mg143 Mg144 3.193873 1_555
Mg143 Mg5 3.207569 1_556
Mg143 Mg145 3.211210 1_555
Mg143 Mg148 3.228767 1_555
Mg144 Mg6 3.207569 1_556
Mg144 Mg145 3.211217 1_555
Mg144 Mg148 3.228776 1_555
Mg145 Mg5 3.189593 1_556
Mg145 Mg6 3.189601 1_556
Mg146 Mg21 3.185828 1_546
Mg146 Mg4 3.185829 1_656
Mg146 Mg2 3.213101 1_556
Mg147 Mg3 3.185821 1_556
Mg147 Mg20 3.185838 1_546
Mg147 Mg99 3.222991 1_555
Mg148 Mg15 3.185821 1_556
Mg148 Mg16 3.185829 1_656
