# generated using pymatgen
data_Pt(C4N3)2
_symmetry_space_group_name_H-M   'P 1'
_cell_length_a   5.20911100
_cell_length_b   7.08546000
_cell_length_c   14.60248000
_cell_angle_alpha   90.00000000
_cell_angle_beta   90.00000000
_cell_angle_gamma   90.00000000
_symmetry_Int_Tables_number   1
_chemical_formula_structural   Pt(C4N3)2
_chemical_formula_sum   'Pt2 C16 N12'
_cell_volume   538.96216953
_cell_formula_units_Z   2
loop_
 _symmetry_equiv_pos_site_id
 _symmetry_equiv_pos_as_xyz
  1  'x, y, z'
loop_
 _atom_site_type_symbol
 _atom_site_label
 _atom_site_symmetry_multiplicity
 _atom_site_fract_x
 _atom_site_fract_y
 _atom_site_fract_z
 _atom_site_occupancy
  Pt  Pt0  1  0.00000000  0.50000000  0.50000000  1
  Pt  Pt1  1  0.00000000  0.00000000  0.00000000  1
  C  C0  1  0.44001300  0.00000000  0.70625200  1
  C  C1  1  0.44001300  0.50000000  0.79374800  1
  C  C2  1  0.55998700  0.00000000  0.29374800  1
  C  C3  1  0.55998700  0.50000000  0.20625200  1
  C  C4  1  0.62759800  0.00000000  0.63618500  1
  C  C5  1  0.62759800  0.50000000  0.86381500  1
  C  C6  1  0.37240200  0.00000000  0.36381500  1
  C  C7  1  0.37240200  0.50000000  0.13618500  1
  C  C8  1  0.72805900  0.16664400  0.60026000  1
  C  C9  1  0.72805900  0.33335600  0.89974000  1
  C  C10  1  0.27194100  0.16664400  0.39974000  1
  C  C11  1  0.72805900  0.66664400  0.89974000  1
  C  C12  1  0.27194100  0.83335600  0.39974000  1
  C  C13  1  0.27194100  0.66664400  0.10026000  1
  C  C14  1  0.72805900  0.83335600  0.60026000  1
  C  C15  1  0.27194100  0.33335600  0.10026000  1
  N  N0  1  0.81960500  0.29971200  0.56603700  1
  N  N1  1  0.81960500  0.20028800  0.93396300  1
  N  N2  1  0.18039500  0.29971200  0.43396300  1
  N  N3  1  0.81960500  0.79971200  0.93396300  1
  N  N4  1  0.18039500  0.70028800  0.43396300  1
  N  N5  1  0.18039500  0.79971200  0.06603700  1
  N  N6  1  0.81960500  0.70028800  0.56603700  1
  N  N7  1  0.18039500  0.20028800  0.06603700  1
  N  N8  1  0.28453400  0.00000000  0.76413600  1
  N  N9  1  0.28453400  0.50000000  0.73586400  1
  N  N10  1  0.71546600  0.00000000  0.23586400  1
  N  N11  1  0.71546600  0.50000000  0.26413600  1
loop_
_geom_bond_atom_site_label_1
_geom_bond_atom_site_label_2
_geom_bond_distance
_geom_bond_site_symmetry_2
C0 N8 1.170640 1_555
C0 C4 1.414802 1_555
C1 N9 1.170640 1_555
C1 C5 1.414802 1_555
C2 N10 1.170640 1_555
C2 C6 1.414802 1_555
C3 N11 1.170640 1_555
C3 C7 1.414802 1_555
C4 C8 1.393996 1_555
C5 C9 1.393996 1_555
C8 N0 1.168808 1_555
C9 N1 1.168808 1_555
C10 N2 1.168808 1_555
C10 C6 1.393996 1_555
C11 N3 1.168808 1_555
C11 C5 1.393996 1_555
C12 N4 1.168808 1_555
C12 C6 1.393996 1_565
C13 N5 1.168808 1_555
C13 C7 1.393996 1_555
C14 N6 1.168808 1_555
C14 C4 1.393996 1_565
C15 N7 1.168808 1_555
C15 C7 1.393996 1_555
N0 Pt0 1.956234 1_655
N1 Pt1 1.956234 1_656
N2 Pt0 1.956234 1_555
N3 Pt1 1.956234 1_666
N4 Pt0 1.956234 1_555
N5 Pt1 1.956234 1_565
N6 Pt0 1.956234 1_655
N7 Pt1 1.956234 1_555
