# generated using pymatgen
data_CsMg6Sb
_symmetry_space_group_name_H-M   'P 1'
_cell_length_a   18.64613605
_cell_length_b   18.64613605
_cell_length_c   8.52742000
_cell_angle_alpha   90.00000000
_cell_angle_beta   90.00000000
_cell_angle_gamma   136.98289029
_symmetry_Int_Tables_number   1
_chemical_formula_structural   CsMg6Sb
_chemical_formula_sum   'Cs8 Mg48 Sb8'
_cell_volume   2022.63591566
_cell_formula_units_Z   8
loop_
 _symmetry_equiv_pos_site_id
 _symmetry_equiv_pos_as_xyz
  1  'x, y, z'
loop_
 _atom_site_type_symbol
 _atom_site_label
 _atom_site_symmetry_multiplicity
 _atom_site_fract_x
 _atom_site_fract_y
 _atom_site_fract_z
 _atom_site_occupancy
  Cs  Cs0_0  1  0.35954350  0.14045650  0.25000000  1
  Cs  Cs0_1  1  0.35954350  0.14045650  0.75000000  1
  Cs  Cs0_2  1  0.35954350  0.64045650  0.25000000  1
  Cs  Cs0_3  1  0.35954350  0.64045650  0.75000000  1
  Cs  Cs0_4  1  0.85954350  0.14045650  0.25000000  1
  Cs  Cs0_5  1  0.85954350  0.14045650  0.75000000  1
  Cs  Cs0_6  1  0.85954350  0.64045650  0.25000000  1
  Cs  Cs0_7  1  0.85954350  0.64045650  0.75000000  1
  Mg  Mg0_0  1  0.10227300  0.18253350  0.25000000  1
  Mg  Mg0_1  1  0.10227300  0.18253350  0.75000000  1
  Mg  Mg0_2  1  0.10227300  0.68253350  0.25000000  1
  Mg  Mg0_3  1  0.10227300  0.68253350  0.75000000  1
  Mg  Mg0_4  1  0.60227300  0.18253350  0.25000000  1
  Mg  Mg0_5  1  0.60227300  0.18253350  0.75000000  1
  Mg  Mg0_6  1  0.60227300  0.68253350  0.25000000  1
  Mg  Mg0_7  1  0.60227300  0.68253350  0.75000000  1
  Mg  Mg1_0  1  0.31746650  0.39772700  0.25000000  1
  Mg  Mg1_1  1  0.31746650  0.39772700  0.75000000  1
  Mg  Mg1_2  1  0.31746650  0.89772700  0.25000000  1
  Mg  Mg1_3  1  0.31746650  0.89772700  0.75000000  1
  Mg  Mg1_4  1  0.81746650  0.39772700  0.25000000  1
  Mg  Mg1_5  1  0.81746650  0.39772700  0.75000000  1
  Mg  Mg1_6  1  0.81746650  0.89772700  0.25000000  1
  Mg  Mg1_7  1  0.81746650  0.89772700  0.75000000  1
  Mg  Mg2_0  1  0.06950900  0.43049100  0.25000000  1
  Mg  Mg2_1  1  0.06950900  0.43049100  0.75000000  1
  Mg  Mg2_2  1  0.06950900  0.93049100  0.25000000  1
  Mg  Mg2_3  1  0.06950900  0.93049100  0.75000000  1
  Mg  Mg2_4  1  0.56950900  0.43049100  0.25000000  1
  Mg  Mg2_5  1  0.56950900  0.43049100  0.75000000  1
  Mg  Mg2_6  1  0.56950900  0.93049100  0.25000000  1
  Mg  Mg2_7  1  0.56950900  0.93049100  0.75000000  1
  Mg  Mg3_0  1  0.15279400  0.10356700  0.00000000  1
  Mg  Mg3_1  1  0.15279400  0.10356700  0.50000000  1
  Mg  Mg3_2  1  0.15279400  0.60356700  0.00000000  1
  Mg  Mg3_3  1  0.15279400  0.60356700  0.50000000  1
  Mg  Mg3_4  1  0.65279400  0.10356700  0.00000000  1
  Mg  Mg3_5  1  0.65279400  0.10356700  0.50000000  1
  Mg  Mg3_6  1  0.65279400  0.60356700  0.00000000  1
  Mg  Mg3_7  1  0.65279400  0.60356700  0.50000000  1
  Mg  Mg4_0  1  0.39643300  0.34720600  0.00000000  1
  Mg  Mg4_1  1  0.39643300  0.34720600  0.50000000  1
  Mg  Mg4_2  1  0.39643300  0.84720600  0.00000000  1
  Mg  Mg4_3  1  0.39643300  0.84720600  0.50000000  1
  Mg  Mg4_4  1  0.89643300  0.34720600  0.00000000  1
  Mg  Mg4_5  1  0.89643300  0.34720600  0.50000000  1
  Mg  Mg4_6  1  0.89643300  0.84720600  0.00000000  1
  Mg  Mg4_7  1  0.89643300  0.84720600  0.50000000  1
  Mg  Mg5_0  1  0.15080200  0.34919800  0.00000000  1
  Mg  Mg5_1  1  0.15080200  0.34919800  0.50000000  1
  Mg  Mg5_2  1  0.15080200  0.84919800  0.00000000  1
  Mg  Mg5_3  1  0.15080200  0.84919800  0.50000000  1
  Mg  Mg5_4  1  0.65080200  0.34919800  0.00000000  1
  Mg  Mg5_5  1  0.65080200  0.34919800  0.50000000  1
  Mg  Mg5_6  1  0.65080200  0.84919800  0.00000000  1
  Mg  Mg5_7  1  0.65080200  0.84919800  0.50000000  1
  Sb  Sb0_0  1  0.45112800  0.04887200  0.00000000  1
  Sb  Sb0_1  1  0.45112800  0.04887200  0.50000000  1
  Sb  Sb0_2  1  0.45112800  0.54887200  0.00000000  1
  Sb  Sb0_3  1  0.45112800  0.54887200  0.50000000  1
  Sb  Sb0_4  1  0.95112800  0.04887200  0.00000000  1
  Sb  Sb0_5  1  0.95112800  0.04887200  0.50000000  1
  Sb  Sb0_6  1  0.95112800  0.54887200  0.00000000  1
  Sb  Sb0_7  1  0.95112800  0.54887200  0.50000000  1
loop_
_geom_bond_atom_site_label_1
_geom_bond_atom_site_label_2
_geom_bond_distance
_geom_bond_site_symmetry_2
Cs0_0 Mg2_4 3.689650 1_555
Cs0_0 Mg2_2 3.689650 1_545
Cs0_0 Sb0_0 3.826443 1_555
Cs0_0 Sb0_1 3.826443 1_555
Cs0_0 Mg1_2 3.988405 1_545
Cs0_0 Mg0_4 3.988405 1_555
Cs0_0 Mg3_0 4.000249 1_555
Cs0_0 Mg3_1 4.000249 1_555
Cs0_0 Mg4_0 4.000249 1_555
Cs0_0 Mg4_1 4.000249 1_555
Cs0_0 Cs0_1 4.263710 1_555
Cs0_0 Cs0_1 4.263710 1_554
Cs0_0 Mg5_4 4.275290 1_555
Cs0_0 Mg5_5 4.275290 1_555
Cs0_0 Mg5_2 4.275290 1_545
Cs0_0 Mg5_3 4.275290 1_545
Cs0_1 Mg2_5 3.689650 1_555
Cs0_1 Mg2_3 3.689650 1_545
Cs0_1 Sb0_1 3.826443 1_555
Cs0_1 Sb0_0 3.826443 1_556
Cs0_1 Mg1_3 3.988405 1_545
Cs0_1 Mg0_5 3.988405 1_555
Cs0_1 Mg3_1 4.000249 1_555
Cs0_1 Mg3_0 4.000249 1_556
Cs0_1 Mg4_0 4.000249 1_556
Cs0_1 Mg4_1 4.000249 1_555
Cs0_1 Mg5_4 4.275290 1_556
Cs0_1 Mg5_5 4.275290 1_555
Cs0_1 Mg5_3 4.275290 1_545
Cs0_1 Mg5_2 4.275290 1_546
Cs0_2 Mg2_6 3.689650 1_555
Cs0_2 Mg2_0 3.689650 1_555
Cs0_2 Sb0_2 3.826443 1_555
Cs0_2 Sb0_3 3.826443 1_555
Cs0_2 Mg0_6 3.988405 1_555
Cs0_2 Mg1_0 3.988405 1_555
Cs0_2 Mg4_2 4.000249 1_555
Cs0_2 Mg4_3 4.000249 1_555
Cs0_2 Mg3_2 4.000249 1_555
Cs0_2 Mg3_3 4.000249 1_555
Cs0_2 Cs0_3 4.263710 1_554
Cs0_2 Cs0_3 4.263710 1_555
Cs0_2 Mg5_6 4.275290 1_555
Cs0_2 Mg5_7 4.275290 1_555
Cs0_2 Mg5_1 4.275290 1_555
Cs0_2 Mg5_0 4.275290 1_555
Cs0_3 Mg2_7 3.689650 1_555
Cs0_3 Mg2_1 3.689650 1_555
Cs0_3 Sb0_2 3.826443 1_556
Cs0_3 Sb0_3 3.826443 1_555
Cs0_3 Mg0_7 3.988405 1_555
Cs0_3 Mg1_1 3.988405 1_555
Cs0_3 Mg4_3 4.000249 1_555
Cs0_3 Mg4_2 4.000249 1_556
Cs0_3 Mg3_2 4.000249 1_556
Cs0_3 Mg3_3 4.000249 1_555
Cs0_3 Mg5_7 4.275290 1_555
Cs0_3 Mg5_6 4.275290 1_556
Cs0_3 Mg5_0 4.275290 1_556
Cs0_3 Mg5_1 4.275290 1_555
Cs0_4 Mg2_0 3.689650 1_655
Cs0_4 Mg2_6 3.689650 1_545
Cs0_4 Sb0_5 3.826443 1_555
Cs0_4 Sb0_4 3.826443 1_555
Cs0_4 Mg1_6 3.988405 1_545
Cs0_4 Mg0_0 3.988405 1_655
Cs0_4 Mg4_4 4.000249 1_555
Cs0_4 Mg4_5 4.000249 1_555
Cs0_4 Mg3_4 4.000249 1_555
Cs0_4 Mg3_5 4.000249 1_555
Cs0_4 Cs0_5 4.263710 1_555
Cs0_4 Cs0_5 4.263710 1_554
Cs0_4 Mg5_1 4.275290 1_655
Cs0_4 Mg5_0 4.275290 1_655
Cs0_4 Mg5_6 4.275290 1_545
Cs0_4 Mg5_7 4.275290 1_545
Cs0_5 Mg2_1 3.689650 1_655
Cs0_5 Mg2_7 3.689650 1_545
Cs0_5 Sb0_5 3.826443 1_555
Cs0_5 Sb0_4 3.826443 1_556
Cs0_5 Mg1_7 3.988405 1_545
Cs0_5 Mg0_1 3.988405 1_655
Cs0_5 Mg4_5 4.000249 1_555
Cs0_5 Mg4_4 4.000249 1_556
Cs0_5 Mg3_5 4.000249 1_555
Cs0_5 Mg3_4 4.000249 1_556
Cs0_5 Mg5_1 4.275290 1_655
Cs0_5 Mg5_0 4.275290 1_656
Cs0_5 Mg5_6 4.275290 1_546
Cs0_5 Mg5_7 4.275290 1_545
Cs0_6 Mg2_2 3.689650 1_655
Cs0_6 Mg2_4 3.689650 1_555
Cs0_6 Sb0_6 3.826443 1_555
Cs0_6 Sb0_7 3.826443 1_555
Cs0_6 Mg1_4 3.988405 1_555
Cs0_6 Mg0_2 3.988405 1_655
Cs0_6 Mg4_6 4.000249 1_555
Cs0_6 Mg4_7 4.000249 1_555
Cs0_6 Mg3_6 4.000249 1_555
Cs0_6 Mg3_7 4.000249 1_555
Cs0_6 Cs0_7 4.263710 1_554
Cs0_6 Cs0_7 4.263710 1_555
Cs0_6 Mg5_4 4.275290 1_555
Cs0_6 Mg5_5 4.275290 1_555
Cs0_6 Mg5_3 4.275290 1_655
Cs0_6 Mg5_2 4.275290 1_655
Cs0_7 Mg2_5 3.689650 1_555
Cs0_7 Mg2_3 3.689650 1_655
Cs0_7 Sb0_6 3.826443 1_556
Cs0_7 Sb0_7 3.826443 1_555
Cs0_7 Mg1_5 3.988405 1_555
Cs0_7 Mg0_3 3.988405 1_655
Cs0_7 Mg4_6 4.000249 1_556
Cs0_7 Mg4_7 4.000249 1_555
Cs0_7 Mg3_6 4.000249 1_556
Cs0_7 Mg3_7 4.000249 1_555
Cs0_7 Mg5_4 4.275290 1_556
Cs0_7 Mg5_5 4.275290 1_555
Cs0_7 Mg5_2 4.275290 1_656
Cs0_7 Mg5_3 4.275290 1_655
Mg0_0 Sb0_4 2.903072 1_455
Mg0_0 Sb0_5 2.903072 1_455
Mg0_0 Mg5_1 3.302884 1_555
Mg0_0 Mg5_0 3.302884 1_555
Mg0_1 Sb0_4 2.903072 1_456
Mg0_1 Sb0_5 2.903072 1_455
Mg0_1 Mg5_1 3.302884 1_555
Mg0_1 Mg5_0 3.302884 1_556
Mg0_2 Sb0_7 2.903072 1_455
Mg0_2 Sb0_6 2.903072 1_455
Mg0_2 Mg5_3 3.302884 1_555
Mg0_2 Mg5_2 3.302884 1_555
Mg0_3 Sb0_7 2.903072 1_455
Mg0_3 Sb0_6 2.903072 1_456
Mg0_3 Mg5_2 3.302884 1_556
Mg0_3 Mg5_3 3.302884 1_555
Mg0_4 Sb0_1 2.903072 1_555
Mg0_4 Sb0_0 2.903072 1_555
Mg0_4 Mg5_4 3.302884 1_555
Mg0_4 Mg5_5 3.302884 1_555
Mg0_5 Sb0_1 2.903072 1_555
Mg0_5 Sb0_0 2.903072 1_556
Mg0_5 Mg5_5 3.302884 1_555
Mg0_5 Mg5_4 3.302884 1_556
Mg0_6 Sb0_3 2.903072 1_555
Mg0_6 Sb0_2 2.903072 1_555
Mg0_6 Mg5_6 3.302884 1_555
Mg0_6 Mg5_7 3.302884 1_555
Mg0_7 Sb0_2 2.903072 1_556
Mg0_7 Sb0_3 2.903072 1_555
Mg0_7 Mg5_6 3.302884 1_556
Mg0_7 Mg5_7 3.302884 1_555
Mg1_0 Sb0_2 2.903072 1_555
Mg1_0 Sb0_3 2.903072 1_555
Mg1_0 Mg5_1 3.302884 1_555
Mg1_0 Mg5_0 3.302884 1_555
Mg1_1 Sb0_3 2.903072 1_555
Mg1_1 Sb0_2 2.903072 1_556
Mg1_1 Mg5_1 3.302884 1_555
Mg1_1 Mg5_0 3.302884 1_556
Mg1_2 Sb0_0 2.903072 1_565
Mg1_2 Sb0_1 2.903072 1_565
Mg1_2 Mg5_3 3.302884 1_555
Mg1_2 Mg5_2 3.302884 1_555
Mg1_3 Sb0_0 2.903072 1_566
Mg1_3 Sb0_1 2.903072 1_565
Mg1_3 Mg5_2 3.302884 1_556
Mg1_3 Mg5_3 3.302884 1_555
Mg1_4 Sb0_6 2.903072 1_555
Mg1_4 Sb0_7 2.903072 1_555
Mg1_4 Mg5_4 3.302884 1_555
Mg1_4 Mg5_5 3.302884 1_555
Mg1_5 Sb0_7 2.903072 1_555
Mg1_5 Sb0_6 2.903072 1_556
Mg1_5 Mg5_4 3.302884 1_556
Mg1_5 Mg5_5 3.302884 1_555
Mg1_6 Sb0_4 2.903072 1_565
Mg1_6 Sb0_5 2.903072 1_565
Mg1_6 Mg5_6 3.302884 1_555
Mg1_6 Mg5_7 3.302884 1_555
Mg1_7 Sb0_4 2.903072 1_566
Mg1_7 Sb0_5 2.903072 1_565
Mg1_7 Mg5_7 3.302884 1_555
Mg1_7 Mg5_6 3.302884 1_556
Mg2_0 Mg3_2 3.169023 1_555
Mg2_0 Mg3_3 3.169023 1_555
Mg2_0 Mg4_4 3.169023 1_455
Mg2_0 Mg4_5 3.169023 1_455
Mg2_0 Mg5_0 3.535528 1_555
Mg2_0 Mg5_1 3.535528 1_555
Mg2_1 Mg3_2 3.169023 1_556
Mg2_1 Mg3_3 3.169023 1_555
Mg2_1 Mg4_4 3.169023 1_456
Mg2_1 Mg4_5 3.169023 1_455
Mg2_1 Mg5_0 3.535528 1_556
Mg2_1 Mg5_1 3.535528 1_555
Mg2_2 Mg3_0 3.169023 1_565
Mg2_2 Mg3_1 3.169023 1_565
Mg2_2 Mg4_6 3.169023 1_455
Mg2_2 Mg4_7 3.169023 1_455
Mg2_2 Mg5_3 3.535528 1_555
Mg2_2 Mg5_2 3.535528 1_555
Mg2_3 Mg3_0 3.169023 1_566
Mg2_3 Mg3_1 3.169023 1_565
Mg2_3 Mg4_6 3.169023 1_456
Mg2_3 Mg4_7 3.169023 1_455
Mg2_3 Mg5_3 3.535528 1_555
Mg2_3 Mg5_2 3.535528 1_556
Mg2_4 Mg3_6 3.169023 1_555
Mg2_4 Mg3_7 3.169023 1_555
Mg2_4 Mg4_0 3.169023 1_555
Mg2_4 Mg4_1 3.169023 1_555
Mg2_4 Mg5_5 3.535528 1_555
Mg2_4 Mg5_4 3.535528 1_555
Mg2_5 Mg3_7 3.169023 1_555
Mg2_5 Mg3_6 3.169023 1_556
Mg2_5 Mg4_1 3.169023 1_555
Mg2_5 Mg4_0 3.169023 1_556
Mg2_5 Mg5_5 3.535528 1_555
Mg2_5 Mg5_4 3.535528 1_556
Mg2_6 Mg3_5 3.169023 1_565
Mg2_6 Mg3_4 3.169023 1_565
Mg2_6 Mg4_2 3.169023 1_555
Mg2_6 Mg4_3 3.169023 1_555
Mg2_6 Mg5_7 3.535528 1_555
Mg2_6 Mg5_6 3.535528 1_555
Mg2_7 Mg3_4 3.169023 1_566
Mg2_7 Mg3_5 3.169023 1_565
Mg2_7 Mg4_2 3.169023 1_556
Mg2_7 Mg4_3 3.169023 1_555
Mg2_7 Mg5_6 3.535528 1_556
Mg2_7 Mg5_7 3.535528 1_555
Mg3_0 Sb0_4 3.093875 1_455
Mg3_1 Sb0_5 3.093875 1_455
Mg3_2 Sb0_6 3.093875 1_455
Mg3_3 Sb0_7 3.093875 1_455
Mg3_4 Sb0_0 3.093875 1_555
Mg3_5 Sb0_1 3.093875 1_555
Mg3_6 Sb0_2 3.093875 1_555
Mg3_7 Sb0_3 3.093875 1_555
Mg4_0 Sb0_2 3.093875 1_555
Mg4_1 Sb0_3 3.093875 1_555
Mg4_2 Sb0_0 3.093875 1_565
Mg4_3 Sb0_1 3.093875 1_565
Mg4_4 Sb0_6 3.093875 1_555
Mg4_5 Sb0_7 3.093875 1_555
Mg4_6 Sb0_4 3.093875 1_565
Mg4_7 Sb0_5 3.093875 1_565
