# generated using pymatgen
data_AsOsSe
_symmetry_space_group_name_H-M   'P 1'
_cell_length_a   6.09320751
_cell_length_b   6.13118455
_cell_length_c   6.20217030
_cell_angle_alpha   112.36321567
_cell_angle_beta   90.00000000
_cell_angle_gamma   90.00000000
_symmetry_Int_Tables_number   1
_chemical_formula_structural   AsOsSe
_chemical_formula_sum   'As4 Os4 Se4'
_cell_volume   214.27790960
_cell_formula_units_Z   4
loop_
 _symmetry_equiv_pos_site_id
 _symmetry_equiv_pos_as_xyz
  1  'x, y, z'
loop_
 _atom_site_type_symbol
 _atom_site_label
 _atom_site_symmetry_multiplicity
 _atom_site_fract_x
 _atom_site_fract_y
 _atom_site_fract_z
 _atom_site_occupancy
  As  As0  1  0.36743176  0.64381135  0.88139487  1
  As  As1  1  0.63256824  0.35618865  0.11860513  1
  As  As2  1  0.86743176  0.35618865  0.61860513  1
  As  As3  1  0.13256824  0.64381135  0.38139487  1
  Os  Os0  1  0.00295141  0.77397396  0.79406164  1
  Os  Os1  1  0.99704859  0.22602604  0.20593836  1
  Os  Os2  1  0.50295141  0.22602604  0.70593836  1
  Os  Os3  1  0.49704859  0.77397396  0.29406164  1
  Se  Se0  1  0.62790655  0.84130802  0.68831948  1
  Se  Se1  1  0.37209345  0.15869198  0.31168052  1
  Se  Se2  1  0.12790655  0.15869198  0.81168052  1
  Se  Se3  1  0.87209345  0.84130802  0.18831948  1
loop_
_geom_bond_atom_site_label_1
_geom_bond_atom_site_label_2
_geom_bond_distance
_geom_bond_site_symmetry_2
As0 Os0 2.488254 1_555
As0 Os3 2.501406 1_556
As0 Os2 2.511236 1_555
As0 Se0 2.553937 1_555
As1 Os1 2.488254 1_555
As1 Os2 2.501406 1_554
As1 Os3 2.511236 1_555
As1 Se1 2.553937 1_555
As2 Os2 2.488254 1_555
As2 Os1 2.501406 1_555
As2 Os0 2.511236 1_655
As2 Se2 2.553937 1_655
As3 Os3 2.488254 1_555
As3 Os0 2.501406 1_555
As3 Os1 2.511236 1_455
As3 Se3 2.553937 1_455
Os0 Se2 2.441173 1_565
Os0 Se3 2.453015 1_456
Os0 Se0 2.455369 1_455
Os1 Se3 2.441173 1_545
Os1 Se2 2.453015 1_654
Os1 Se1 2.455369 1_655
Os2 Se0 2.441173 1_545
Os2 Se1 2.453015 1_555
Os2 Se2 2.455369 1_555
Os3 Se1 2.441173 1_565
Os3 Se0 2.453015 1_555
Os3 Se3 2.455369 1_555
