# generated using pymatgen
data_Te2Mo3W(Se2S)2
_symmetry_space_group_name_H-M   'P 1'
_cell_length_a   3.34618506
_cell_length_b   3.34618506
_cell_length_c   38.00556600
_cell_angle_alpha   90.00000000
_cell_angle_beta   90.00000000
_cell_angle_gamma   119.99998148
_symmetry_Int_Tables_number   1
_chemical_formula_structural   Te2Mo3W(Se2S)2
_chemical_formula_sum   'Te2 Mo3 W1 Se4 S2'
_cell_volume   368.53422827
_cell_formula_units_Z   1
loop_
 _symmetry_equiv_pos_site_id
 _symmetry_equiv_pos_as_xyz
  1  'x, y, z'
loop_
 _atom_site_type_symbol
 _atom_site_label
 _atom_site_symmetry_multiplicity
 _atom_site_fract_x
 _atom_site_fract_y
 _atom_site_fract_z
 _atom_site_occupancy
  Te  Te0  1  0.33333300  0.66666700  0.70768800  1
  Te  Te1  1  0.33333300  0.66666700  0.60741400  1
  Mo  Mo0  1  0.33333300  0.66666700  0.09392700  1
  Mo  Mo1  1  0.33333300  0.66666700  0.46963000  1
  Mo  Mo2  1  0.66666700  0.33333300  0.28181500  1
  W  W0  1  0.66666700  0.33333300  0.65757400  1
  Se  Se0  1  0.66666700  0.33333300  0.05015200  1
  Se  Se1  1  0.66666700  0.33333300  0.42585000  1
  Se  Se2  1  0.66666700  0.33333300  0.13769700  1
  Se  Se3  1  0.66666700  0.33333300  0.51341100  1
  S  S0  1  0.33333300  0.66666700  0.32173800  1
  S  S1  1  0.33333300  0.66666700  0.24185100  1
loop_
_geom_bond_atom_site_label_1
_geom_bond_atom_site_label_2
_geom_bond_distance
_geom_bond_site_symmetry_2
Te0 W0 2.712905 1_455
Te0 W0 2.712905 1_565
Te0 W0 2.712909 1_555
Te1 W0 2.714133 1_455
Te1 W0 2.714133 1_565
Te1 W0 2.714137 1_555
Mo0 Se2 2.549423 1_565
Mo0 Se2 2.549423 1_455
Mo0 Se2 2.549427 1_555
Mo0 Se0 2.549547 1_565
Mo0 Se0 2.549547 1_455
Mo0 Se0 2.549551 1_555
Mo1 Se1 2.549671 1_565
Mo1 Se1 2.549671 1_455
Mo1 Se1 2.549675 1_555
Mo1 Se3 2.549696 1_455
Mo1 Se3 2.549696 1_565
Mo1 Se3 2.549700 1_555
Mo2 S0 2.456522 1_655
Mo2 S0 2.456522 1_545
Mo2 S0 2.456526 1_555
Mo2 S1 2.457485 1_545
Mo2 S1 2.457485 1_655
Mo2 S1 2.457489 1_555
