# generated using pymatgen
data_Nd(Al5Ru)2
_symmetry_space_group_name_H-M   'P 1'
_cell_length_a   6.83967284
_cell_length_b   6.83967284
_cell_length_c   9.13514664
_cell_angle_alpha   90.00000000
_cell_angle_beta   90.00000000
_cell_angle_gamma   96.97222331
_symmetry_Int_Tables_number   1
_chemical_formula_structural   Nd(Al5Ru)2
_chemical_formula_sum   'Nd2 Al20 Ru4'
_cell_volume   424.19221118
_cell_formula_units_Z   2
loop_
 _symmetry_equiv_pos_site_id
 _symmetry_equiv_pos_as_xyz
  1  'x, y, z'
loop_
 _atom_site_type_symbol
 _atom_site_label
 _atom_site_symmetry_multiplicity
 _atom_site_fract_x
 _atom_site_fract_y
 _atom_site_fract_z
 _atom_site_occupancy
  Nd  Nd0  1  0.87613141  0.12386859  0.75000000  1
  Nd  Nd1  1  0.12386859  0.87613141  0.25000000  1
  Al  Al0  1  0.62275910  0.37724090  0.55053574  1
  Al  Al1  1  0.37724090  0.62275910  0.44946426  1
  Al  Al2  1  0.37724090  0.62275910  0.05053574  1
  Al  Al3  1  0.62275910  0.37724090  0.94946426  1
  Al  Al4  1  0.22868001  0.22868001  0.50000000  1
  Al  Al5  1  0.77131999  0.77131999  0.50000000  1
  Al  Al6  1  0.77131999  0.77131999  0.00000000  1
  Al  Al7  1  0.22868001  0.22868001  0.00000000  1
  Al  Al8  1  0.83875166  0.16124834  0.10154064  1
  Al  Al9  1  0.16124834  0.83875166  0.89845936  1
  Al  Al10  1  0.16124834  0.83875166  0.60154064  1
  Al  Al11  1  0.83875166  0.16124834  0.39845936  1
  Al  Al12  1  0.86120004  0.59115687  0.75000000  1
  Al  Al13  1  0.13879996  0.40884313  0.25000000  1
  Al  Al14  1  0.40884313  0.13879996  0.75000000  1
  Al  Al15  1  0.59115687  0.86120004  0.25000000  1
  Al  Al16  1  0.22002345  0.48226964  0.75000000  1
  Al  Al17  1  0.77997655  0.51773036  0.25000000  1
  Al  Al18  1  0.51773036  0.77997655  0.75000000  1
  Al  Al19  1  0.48226964  0.22002345  0.25000000  1
  Ru  Ru0  1  0.00000000  0.50000000  0.50000000  1
  Ru  Ru1  1  0.00000000  0.50000000  0.00000000  1
  Ru  Ru2  1  0.50000000  -0.00000000  0.00000000  1
  Ru  Ru3  1  0.50000000  -0.00000000  0.50000000  1
loop_
_geom_bond_atom_site_label_1
_geom_bond_atom_site_label_2
_geom_bond_distance
_geom_bond_site_symmetry_2
Nd0 Ru1 3.467372 1_656
Nd0 Ru0 3.467372 1_655
Nd0 Ru3 3.467372 1_555
Nd0 Ru2 3.467372 1_556
Nd1 Ru2 3.467372 1_565
Nd1 Ru3 3.467372 1_565
Nd1 Ru1 3.467372 1_555
Nd1 Ru0 3.467372 1_555
Al0 Al11 2.612428 1_555
Al0 Ru0 2.655109 1_655
Al0 Ru3 2.655109 1_555
Al0 Al1 2.678984 1_555
Al0 Al14 2.746140 1_555
Al0 Al12 2.746140 1_555
Al0 Al4 2.801020 1_555
Al0 Al5 2.801020 1_555
Al0 Al17 3.060427 1_555
Al0 Al19 3.060427 1_555
Al0 Nd0 3.171081 1_555
Al1 Al10 2.612428 1_555
Al1 Ru0 2.655109 1_555
Al1 Ru3 2.655109 1_565
Al1 Al13 2.746140 1_555
Al1 Al15 2.746140 1_555
Al1 Al4 2.801020 1_555
Al1 Al5 2.801020 1_555
Al1 Al18 3.060427 1_555
Al1 Al16 3.060427 1_555
Al1 Nd1 3.171081 1_555
Al2 Al9 2.612428 1_554
Al2 Ru1 2.655109 1_555
Al2 Ru2 2.655109 1_565
Al2 Al3 2.678984 1_554
Al2 Al7 2.801020 1_555
Al2 Al6 2.801020 1_555
Al2 Nd1 3.171081 1_555
Al3 Al8 2.612428 1_556
Al3 Ru1 2.655109 1_656
Al3 Ru2 2.655109 1_556
Al3 Al7 2.801020 1_556
Al3 Al6 2.801020 1_556
Al3 Nd0 3.171081 1_555
Al4 Ru3 2.568042 1_555
Al4 Ru0 2.568042 1_555
Al4 Nd0 3.335322 1_455
Al4 Nd1 3.335322 1_545
Al5 Ru0 2.568042 1_655
Al5 Ru3 2.568042 1_565
Al5 Nd1 3.335322 1_655
Al5 Nd0 3.335322 1_565
Al6 Ru2 2.568042 1_565
Al6 Ru1 2.568042 1_655
Al6 Al8 2.808435 1_565
Al6 Al9 2.808435 1_654
Al6 Nd1 3.335322 1_655
Al6 Nd0 3.335322 1_564
Al7 Ru1 2.568042 1_555
Al7 Ru2 2.568042 1_555
Al7 Al9 2.808435 1_544
Al7 Al8 2.808435 1_455
Al7 Nd0 3.335322 1_454
Al7 Nd1 3.335322 1_545
Al8 Ru1 2.612406 1_655
Al8 Ru2 2.612406 1_555
Al8 Nd1 3.219994 1_645
Al8 Nd0 3.234120 1_554
Al9 Ru1 2.612406 1_556
Al9 Ru2 2.612406 1_566
Al9 Nd0 3.219994 1_465
Al9 Nd1 3.234120 1_556
Al10 Ru0 2.612406 1_555
Al10 Ru3 2.612406 1_565
Al10 Al9 2.712396 1_555
Al10 Al4 2.808435 1_565
Al10 Al5 2.808435 1_455
Al10 Al12 2.841658 1_455
Al10 Al14 2.841658 1_565
Al10 Al16 2.860727 1_555
Al10 Al18 2.860727 1_555
Al10 Nd0 3.219994 1_465
Al10 Nd1 3.234120 1_555
Al11 Ru3 2.612406 1_555
Al11 Ru0 2.612406 1_655
Al11 Al8 2.712396 1_555
Al11 Al5 2.808435 1_545
Al11 Al4 2.808435 1_655
Al11 Al15 2.841658 1_545
Al11 Al13 2.841658 1_655
Al11 Al19 2.860727 1_555
Al11 Al17 2.860727 1_555
Al11 Nd1 3.219994 1_645
Al11 Nd0 3.234120 1_555
Al12 Ru1 2.578637 1_656
Al12 Ru0 2.578637 1_655
Al12 Al16 2.649844 1_655
Al12 Al6 2.701105 1_556
Al12 Al5 2.701105 1_555
Al12 Al3 2.746140 1_555
Al12 Al18 2.814833 1_555
Al12 Al9 2.841658 1_655
Al12 Nd0 3.210097 1_555
Al12 Nd0 3.632592 1_565
Al13 Ru0 2.578637 1_555
Al13 Ru1 2.578637 1_555
Al13 Al17 2.649844 1_455
Al13 Al7 2.701105 1_555
Al13 Al4 2.701105 1_555
Al13 Al2 2.746140 1_555
Al13 Al19 2.814833 1_555
Al13 Al8 2.841658 1_455
Al13 Nd1 3.210097 1_555
Al13 Nd1 3.632592 1_545
Al14 Ru3 2.578637 1_555
Al14 Ru2 2.578637 1_556
Al14 Al18 2.649844 1_545
Al14 Al4 2.701105 1_555
Al14 Al7 2.701105 1_556
Al14 Al3 2.746140 1_555
Al14 Al16 2.814833 1_555
Al14 Al9 2.841658 1_545
Al14 Nd0 3.210097 1_555
Al14 Nd0 3.632592 1_455
Al15 Ru2 2.578637 1_565
Al15 Ru3 2.578637 1_565
Al15 Al19 2.649844 1_565
Al15 Al6 2.701105 1_555
Al15 Al5 2.701105 1_555
Al15 Al2 2.746140 1_555
Al15 Al17 2.814833 1_555
Al15 Al8 2.841658 1_565
Al15 Nd1 3.210097 1_555
Al15 Nd1 3.632592 1_655
Al16 Al18 2.699217 1_555
Al16 Ru0 2.745794 1_555
Al16 Ru1 2.745794 1_556
Al16 Al9 2.860727 1_555
Al16 Al7 2.872717 1_556
Al16 Al4 2.872717 1_555
Al16 Al2 3.060427 1_556
Al16 Nd0 3.184605 1_455
Al17 Al19 2.699217 1_555
Al17 Ru1 2.745794 1_655
Al17 Ru0 2.745794 1_655
Al17 Al8 2.860727 1_555
Al17 Al6 2.872717 1_555
Al17 Al5 2.872717 1_555
Al17 Al3 3.060427 1_554
Al17 Nd1 3.184605 1_655
Al18 Ru3 2.745794 1_565
Al18 Ru2 2.745794 1_566
Al18 Al9 2.860727 1_555
Al18 Al6 2.872717 1_556
Al18 Al5 2.872717 1_555
Al18 Al2 3.060427 1_556
Al18 Nd0 3.184605 1_565
Al19 Ru2 2.745794 1_555
Al19 Ru3 2.745794 1_555
Al19 Al8 2.860727 1_555
Al19 Al7 2.872717 1_555
Al19 Al4 2.872717 1_555
Al19 Al3 3.060427 1_554
Al19 Nd1 3.184605 1_545
