# generated using pymatgen
data_K4Zr3Te17
_symmetry_space_group_name_H-M   'P 1'
_cell_length_a   10.41000500
_cell_length_b   11.95038593
_cell_length_c   30.95807513
_cell_angle_alpha   90.00000000
_cell_angle_beta   90.00000000
_cell_angle_gamma   115.75476866
_symmetry_Int_Tables_number   1
_chemical_formula_structural   K4Zr3Te17
_chemical_formula_sum   'K16 Zr12 Te68'
_cell_volume   3468.71561949
_cell_formula_units_Z   4
loop_
 _symmetry_equiv_pos_site_id
 _symmetry_equiv_pos_as_xyz
  1  'x, y, z'
loop_
 _atom_site_type_symbol
 _atom_site_label
 _atom_site_symmetry_multiplicity
 _atom_site_fract_x
 _atom_site_fract_y
 _atom_site_fract_z
 _atom_site_occupancy
  K  K0  1  0.72826743  0.97814756  0.43060664  1
  K  K1  1  0.27173257  0.02185244  0.56939336  1
  K  K2  1  0.27173257  0.52185244  0.93060664  1
  K  K3  1  0.72826743  0.47814756  0.06939336  1
  K  K4  1  0.19675623  0.93547211  0.72092517  1
  K  K5  1  0.80324377  0.06452789  0.27907483  1
  K  K6  1  0.80324377  0.56452789  0.22092517  1
  K  K7  1  0.19675623  0.43547211  0.77907483  1
  K  K8  1  0.76691820  0.96144310  0.98102297  1
  K  K9  1  0.23308180  0.03855690  0.01897703  1
  K  K10  1  0.23308180  0.53855690  0.48102297  1
  K  K11  1  0.76691820  0.46144310  0.51897703  1
  K  K12  1  0.74287260  0.96598365  0.79557526  1
  K  K13  1  0.25712740  0.03401635  0.20442474  1
  K  K14  1  0.25712740  0.53401635  0.29557526  1
  K  K15  1  0.74287260  0.46598365  0.70442474  1
  Zr  Zr0  1  0.61813142  0.82434629  0.61840076  1
  Zr  Zr1  1  0.38186858  0.17565371  0.38159924  1
  Zr  Zr2  1  0.38186858  0.67565371  0.11840076  1
  Zr  Zr3  1  0.61813142  0.32434629  0.88159924  1
  Zr  Zr4  1  0.94831873  0.66413656  0.88297531  1
  Zr  Zr5  1  0.05168127  0.33586344  0.11702469  1
  Zr  Zr6  1  0.05168127  0.83586344  0.38297531  1
  Zr  Zr7  1  0.94831873  0.16413656  0.61702469  1
  Zr  Zr8  1  0.28595529  0.99352600  0.88090785  1
  Zr  Zr9  1  0.71404471  0.00647400  0.11909215  1
  Zr  Zr10  1  0.71404471  0.50647400  0.38090785  1
  Zr  Zr11  1  0.28595529  0.49352600  0.61909215  1
  Te  Te0  1  0.29913741  0.74040378  0.59921539  1
  Te  Te1  1  0.70086259  0.25959622  0.40078461  1
  Te  Te2  1  0.70086259  0.75959622  0.09921539  1
  Te  Te3  1  0.29913741  0.24040378  0.90078461  1
  Te  Te4  1  0.49965532  0.83992314  0.52853786  1
  Te  Te5  1  0.50034468  0.16007686  0.47146214  1
  Te  Te6  1  0.50034468  0.66007686  0.02853786  1
  Te  Te7  1  0.49965532  0.33992314  0.97146214  1
  Te  Te8  1  0.89641490  0.70602427  0.79219576  1
  Te  Te9  1  0.10358510  0.29397573  0.20780424  1
  Te  Te10  1  0.10358510  0.79397573  0.29219576  1
  Te  Te11  1  0.89641490  0.20602427  0.70780424  1
  Te  Te12  1  0.87329254  0.91084113  0.17669320  1
  Te  Te13  1  0.12670746  0.08915887  0.82330680  1
  Te  Te14  1  0.12670746  0.58915887  0.67669320  1
  Te  Te15  1  0.87329254  0.41084113  0.32330680  1
  Te  Te16  1  0.97612961  0.92546049  0.89321390  1
  Te  Te17  1  0.02387039  0.07453951  0.10678610  1
  Te  Te18  1  0.02387039  0.57453951  0.39321390  1
  Te  Te19  1  0.97612961  0.42546049  0.60678610  1
  Te  Te20  1  0.87677124  0.95125393  0.67646999  1
  Te  Te21  1  0.12322876  0.04874607  0.32353001  1
  Te  Te22  1  0.12322876  0.54874607  0.17646999  1
  Te  Te23  1  0.87677124  0.45125393  0.82353001  1
  Te  Te24  1  0.49326973  0.84631549  0.70589551  1
  Te  Te25  1  0.50673027  0.15368451  0.29410449  1
  Te  Te26  1  0.50673027  0.65368451  0.20589551  1
  Te  Te27  1  0.49326973  0.34631549  0.79410449  1
  Te  Te28  1  0.88331014  0.94960647  0.55961276  1
  Te  Te29  1  0.11668986  0.05039353  0.44038724  1
  Te  Te30  1  0.11668986  0.55039353  0.05961276  1
  Te  Te31  1  0.88331014  0.44960647  0.94038724  1
  Te  Te32  1  0.51369501  0.62048389  0.68419884  1
  Te  Te33  1  0.48630499  0.37951611  0.31580116  1
  Te  Te34  1  0.48630499  0.87951611  0.18419884  1
  Te  Te35  1  0.51369501  0.12048389  0.81580116  1
  Te  Te36  1  0.62964475  0.58562707  0.88748352  1
  Te  Te37  1  0.37035525  0.41437293  0.11251648  1
  Te  Te38  1  0.37035525  0.91437293  0.38748352  1
  Te  Te39  1  0.62964475  0.08562707  0.61251648  1
  Te  Te40  1  0.81184744  0.73183220  0.32119999  1
  Te  Te41  1  0.18815256  0.26816780  0.67880001  1
  Te  Te42  1  0.18815256  0.76816780  0.82119999  1
  Te  Te43  1  0.81184744  0.23183220  0.17880001  1
  Te  Te44  1  0.87724154  0.75946681  0.61697619  1
  Te  Te45  1  0.12275846  0.24053319  0.38302381  1
  Te  Te46  1  0.12275846  0.74053319  0.11697619  1
  Te  Te47  1  0.87724154  0.25946681  0.88302381  1
  Te  Te48  1  0.48522328  0.87794657  0.89424562  1
  Te  Te49  1  0.51477672  0.12205343  0.10575438  1
  Te  Te50  1  0.51477672  0.62205343  0.39424562  1
  Te  Te51  1  0.48522328  0.37794657  0.60575438  1
  Te  Te52  1  0.52296508  0.60570462  0.55618654  1
  Te  Te53  1  0.47703492  0.39429538  0.44381346  1
  Te  Te54  1  0.47703492  0.89429538  0.05618654  1
  Te  Te55  1  0.52296508  0.10570462  0.94381346  1
  Te  Te56  1  0.90738501  0.71590250  0.97524507  1
  Te  Te57  1  0.09261499  0.28409750  0.02475493  1
  Te  Te58  1  0.09261499  0.78409750  0.47524507  1
  Te  Te59  1  0.90738501  0.21590250  0.52475493  1
  Te  Te60  1  0.56092604  0.63508023  0.80394735  1
  Te  Te61  1  0.43907396  0.36491977  0.19605265  1
  Te  Te62  1  0.43907396  0.86491977  0.30394735  1
  Te  Te63  1  0.56092604  0.13508023  0.69605265  1
  Te  Te64  1  0.80131235  0.71605255  0.44542575  1
  Te  Te65  1  0.19868765  0.28394745  0.55457425  1
  Te  Te66  1  0.19868765  0.78394745  0.94542575  1
  Te  Te67  1  0.80131235  0.21605255  0.05457425  1
loop_
_geom_bond_atom_site_label_1
_geom_bond_atom_site_label_2
_geom_bond_distance
_geom_bond_site_symmetry_2
K0 Te64 3.559315 1_555
K0 Te1 3.616658 1_565
K0 Te38 3.711799 1_555
K0 Te29 3.762045 1_665
K0 Te4 3.763979 1_555
K0 Te59 3.929465 1_565
K0 Te50 4.012028 1_555
K0 Te5 4.054516 1_565
K1 Te65 3.559315 1_555
K1 Te0 3.616658 1_545
K1 Te39 3.711799 1_555
K1 Te28 3.762045 1_445
K1 Te5 3.763979 1_555
K1 Te58 3.929465 1_545
K1 Te51 4.012028 1_555
K1 Te4 4.054516 1_545
K2 Te66 3.559315 1_555
K2 Te3 3.616658 1_555
K2 Te36 3.711799 1_555
K2 Te31 3.762045 1_455
K2 Te6 3.763979 1_556
K2 Te57 3.929465 1_556
K2 Te48 4.012028 1_555
K2 Te7 4.054516 1_555
K3 Te67 3.559315 1_555
K3 Te2 3.616658 1_555
K3 Te37 3.711799 1_555
K3 Te30 3.762045 1_655
K3 Te7 3.763979 1_554
K3 Te56 3.929465 1_554
K3 Te49 4.012028 1_555
K3 Te6 4.054516 1_555
K4 Te63 3.577148 1_565
K4 Te42 3.672408 1_555
K4 Te20 3.683944 1_455
K4 Te24 3.706414 1_555
K4 Te8 3.835595 1_455
K4 Te13 3.887771 1_565
K4 Te14 4.112418 1_555
K5 Te62 3.577148 1_545
K5 Te43 3.672408 1_555
K5 Te21 3.683944 1_655
K5 Te25 3.706414 1_555
K5 Te9 3.835595 1_655
K5 Te12 3.887771 1_545
K5 Te15 4.112418 1_555
K6 Te61 3.577148 1_555
K6 Te40 3.672408 1_555
K6 Te22 3.683944 1_655
K6 Te26 3.706414 1_555
K6 Te10 3.835595 1_655
K6 Te15 3.887771 1_555
K6 Te12 4.112418 1_555
K7 Te60 3.577148 1_555
K7 Te41 3.672408 1_555
K7 Te23 3.683944 1_455
K7 Te27 3.706414 1_555
K7 Te11 3.835595 1_455
K7 Te14 3.887771 1_555
K7 Te13 4.112418 1_555
K8 Te54 3.613932 1_556
K8 Te16 3.623766 1_555
K8 Te67 3.691086 1_566
K8 Te6 3.761602 1_556
K8 Te48 3.777445 1_555
K8 Te56 3.809088 1_555
K8 Te55 3.814862 1_565
K8 Te57 4.103023 1_666
K9 Te55 3.613932 1_554
K9 Te17 3.623766 1_555
K9 Te66 3.691086 1_544
K9 Te7 3.761602 1_554
K9 Te49 3.777445 1_555
K9 Te57 3.809088 1_555
K9 Te54 3.814862 1_545
K9 Te56 4.103023 1_444
K10 Te52 3.613932 1_555
K10 Te18 3.623766 1_555
K10 Te65 3.691086 1_555
K10 Te4 3.761602 1_555
K10 Te50 3.777445 1_555
K10 Te58 3.809088 1_555
K10 Te53 3.814862 1_555
K10 Te59 4.103023 1_455
K11 Te53 3.613932 1_555
K11 Te19 3.623766 1_555
K11 Te64 3.691086 1_555
K11 Te5 3.761602 1_555
K11 Te51 3.777445 1_555
K11 Te59 3.809088 1_555
K11 Te52 3.814862 1_555
K11 Te58 4.103023 1_655
K12 Te60 3.575342 1_555
K12 Te24 3.643530 1_555
K12 Te35 3.649768 1_565
K12 Te13 3.709205 1_665
K12 Te11 3.765930 1_565
K12 Te48 3.896059 1_555
K12 Te20 3.972794 1_555
K12 Te16 4.036007 1_555
K12 Te8 4.065964 1_555
K12 Te47 4.162097 1_565
K13 Te61 3.575342 1_555
K13 Te25 3.643530 1_555
K13 Te34 3.649768 1_545
K13 Te12 3.709205 1_445
K13 Te10 3.765930 1_545
K13 Te49 3.896059 1_555
K13 Te21 3.972794 1_555
K13 Te17 4.036007 1_555
K13 Te9 4.065964 1_555
K13 Te46 4.162097 1_545
K14 Te62 3.575342 1_555
K14 Te26 3.643530 1_555
K14 Te33 3.649768 1_555
K14 Te15 3.709205 1_455
K14 Te9 3.765930 1_555
K14 Te50 3.896059 1_555
K14 Te22 3.972794 1_555
K14 Te18 4.036007 1_555
K14 Te10 4.065964 1_555
K14 Te45 4.162097 1_555
K15 Te63 3.575342 1_555
K15 Te27 3.643530 1_555
K15 Te32 3.649768 1_555
K15 Te14 3.709205 1_655
K15 Te8 3.765930 1_555
K15 Te51 3.896059 1_555
K15 Te23 3.972794 1_555
K15 Te19 4.036007 1_555
K15 Te11 4.065964 1_555
K15 Te44 4.162097 1_555
Te0 Te4 2.898575 1_555
Te0 Zr11 2.958011 1_555
Te0 Te14 3.069606 1_555
Te0 Zr0 3.080809 1_555
Te1 Te5 2.898575 1_555
Te1 Zr10 2.958011 1_555
Te1 Te15 3.069606 1_555
Te1 Zr1 3.080809 1_555
Te2 Te6 2.898575 1_555
Te2 Zr9 2.958011 1_565
Te2 Zr2 3.080809 1_555
Te3 Te7 2.898575 1_555
Te3 Zr8 2.958011 1_545
Te3 Zr3 3.080809 1_555
Te4 Te52 3.035817 1_555
Te4 Zr0 3.081350 1_555
Te5 Te53 3.035817 1_555
Te5 Zr1 3.081350 1_555
Te6 Zr2 3.081350 1_555
Te7 Zr3 3.081350 1_555
Te8 Zr4 2.945453 1_555
Te9 Zr5 2.945453 1_555
Te10 Te40 2.936163 1_455
Te10 Zr6 2.945453 1_555
Te10 Te21 3.116306 1_565
Te10 Te62 3.236528 1_555
Te11 Te41 2.936163 1_655
Te11 Zr7 2.945453 1_555
Te11 Te20 3.116306 1_545
Te11 Te63 3.236528 1_555
Te12 Te17 2.881473 1_665
Te12 Zr9 2.980041 1_565
Te12 Te2 3.069606 1_555
Te13 Te16 2.881473 1_445
Te13 Zr8 2.980041 1_545
Te13 Te3 3.069606 1_555
Te14 Te19 2.881473 1_455
Te14 Zr11 2.980041 1_555
Te15 Te18 2.881473 1_655
Te15 Zr10 2.980041 1_555
Te16 Zr8 2.988200 1_655
Te16 Zr4 3.025096 1_555
Te16 Te56 3.416926 1_555
Te17 Zr9 2.988200 1_455
Te17 Zr5 3.025096 1_555
Te17 Te57 3.416926 1_555
Te18 Zr10 2.988200 1_455
Te18 Zr6 3.025096 1_555
Te18 Te58 3.416926 1_555
Te19 Zr11 2.988200 1_655
Te19 Zr7 3.025096 1_555
Te19 Te59 3.416926 1_555
Te20 Te44 2.941937 1_555
Te20 Zr7 2.960896 1_565
Te20 Zr0 3.038500 1_555
Te21 Te45 2.941937 1_555
Te21 Zr6 2.960896 1_545
Te21 Zr1 3.038500 1_555
Te22 Te46 2.941937 1_555
Te22 Zr5 2.960896 1_555
Te22 Zr2 3.038500 1_555
Te22 Te9 3.116306 1_555
Te23 Te47 2.941937 1_555
Te23 Zr4 2.960896 1_555
Te23 Zr3 3.038500 1_555
Te23 Te8 3.116306 1_555
Te24 Te32 2.877228 1_555
Te24 Zr0 3.064618 1_555
Te24 Te63 3.222593 1_565
Te25 Te33 2.877228 1_555
Te25 Zr1 3.064618 1_555
Te25 Te62 3.222593 1_545
Te26 Te34 2.877228 1_555
Te26 Zr2 3.064618 1_555
Te26 Te61 3.222593 1_555
Te27 Te35 2.877228 1_555
Te27 Zr3 3.064618 1_555
Te27 Te60 3.222593 1_555
Te28 Te44 2.862868 1_555
Te28 Zr7 2.946504 1_565
Te28 Zr0 3.095537 1_555
Te28 Te59 3.265198 1_565
Te29 Te45 2.862868 1_555
Te29 Zr6 2.946504 1_545
Te29 Zr1 3.095537 1_555
Te29 Te58 3.265198 1_545
Te30 Te46 2.862868 1_555
Te30 Zr5 2.946504 1_555
Te30 Zr2 3.095537 1_555
Te30 Te57 3.265198 1_555
Te31 Te47 2.862868 1_555
Te31 Zr4 2.946504 1_555
Te31 Zr3 3.095537 1_555
Te31 Te56 3.265198 1_555
Te32 Zr11 2.976428 1_555
Te32 Zr0 2.994116 1_555
Te33 Zr10 2.976428 1_555
Te33 Zr1 2.994116 1_555
Te34 Zr9 2.976428 1_565
Te34 Zr2 2.994116 1_555
Te35 Zr8 2.976428 1_545
Te35 Zr3 2.994116 1_555
Te36 Te60 2.813613 1_555
Te36 Zr4 3.033154 1_555
Te36 Zr3 3.077620 1_555
Te37 Te61 2.813613 1_555
Te37 Zr5 3.033154 1_555
Te37 Zr2 3.077620 1_555
Te38 Te62 2.813613 1_555
Te38 Zr6 3.033154 1_555
Te38 Zr1 3.077620 1_565
Te39 Te63 2.813613 1_555
Te39 Zr7 3.033154 1_555
Te39 Zr0 3.077620 1_545
Te40 Zr6 2.956177 1_655
Te40 Zr10 3.053415 1_555
Te41 Zr7 2.956177 1_455
Te41 Zr11 3.053415 1_555
Te42 Te8 2.936163 1_455
Te42 Zr4 2.956177 1_455
Te42 Zr8 3.053415 1_555
Te43 Te9 2.936163 1_655
Te43 Zr5 2.956177 1_655
Te43 Zr9 3.053415 1_555
Te44 Zr0 3.113869 1_555
Te45 Zr1 3.113869 1_555
Te46 Zr2 3.113869 1_555
Te47 Zr3 3.113869 1_555
Te48 Zr8 2.978468 1_555
Te48 Te55 2.997996 1_565
Te48 Te66 3.123737 1_555
Te49 Zr9 2.978468 1_555
Te49 Te54 2.997996 1_545
Te49 Te67 3.123737 1_555
Te50 Zr10 2.978468 1_555
Te50 Te53 2.997996 1_555
Te50 Te64 3.123737 1_555
Te51 Zr11 2.978468 1_555
Te51 Te52 2.997996 1_555
Te51 Te65 3.123737 1_555
Te52 Zr11 2.966931 1_555
Te52 Zr0 3.044427 1_555
Te53 Zr10 2.966931 1_555
Te53 Zr1 3.044427 1_555
Te54 Zr9 2.966931 1_565
Te54 Te6 3.035817 1_555
Te54 Zr2 3.044427 1_555
Te55 Zr8 2.966931 1_545
Te55 Te7 3.035817 1_555
Te55 Zr3 3.044427 1_555
Te56 Te66 2.926826 1_655
Te56 Zr4 2.992143 1_555
Te57 Te67 2.926826 1_455
Te57 Zr5 2.992143 1_555
Te58 Te64 2.926826 1_455
Te58 Zr6 2.992143 1_555
Te59 Te65 2.926826 1_655
Te59 Zr7 2.992143 1_555
Te60 Te8 3.236528 1_555
Te61 Te9 3.236528 1_555
Te64 Zr10 3.018301 1_555
Te64 Zr6 3.055787 1_655
Te65 Zr11 3.018301 1_555
Te65 Zr7 3.055787 1_455
Te66 Zr8 3.018301 1_555
Te66 Zr4 3.055787 1_455
Te67 Zr9 3.018301 1_555
Te67 Zr5 3.055787 1_655
