# generated using pymatgen
data_NaMg3
_symmetry_space_group_name_H-M   'P 1'
_cell_length_a   6.32650000
_cell_length_b   10.86885000
_cell_length_c   11.81820000
_cell_angle_alpha   90.00000000
_cell_angle_beta   90.00000000
_cell_angle_gamma   90.00000000
_symmetry_Int_Tables_number   1
_chemical_formula_structural   NaMg3
_chemical_formula_sum   'Na8 Mg24'
_cell_volume   812.64046278
_cell_formula_units_Z   8
loop_
 _symmetry_equiv_pos_site_id
 _symmetry_equiv_pos_as_xyz
  1  'x, y, z'
loop_
 _atom_site_type_symbol
 _atom_site_label
 _atom_site_symmetry_multiplicity
 _atom_site_fract_x
 _atom_site_fract_y
 _atom_site_fract_z
 _atom_site_occupancy
  Na  Na0_0  1  0.25000000  0.00000000  0.08013100  1
  Na  Na0_1  1  0.25000000  0.00000000  0.58013100  1
  Na  Na0_2  1  0.25000000  0.50000000  0.08013100  1
  Na  Na0_3  1  0.25000000  0.50000000  0.58013100  1
  Na  Na0_4  1  0.75000000  0.00000000  0.08013100  1
  Na  Na0_5  1  0.75000000  0.00000000  0.58013100  1
  Na  Na0_6  1  0.75000000  0.50000000  0.08013100  1
  Na  Na0_7  1  0.75000000  0.50000000  0.58013100  1
  Mg  Mg0_0  1  0.00000000  0.00000000  0.33070550  1
  Mg  Mg0_1  1  0.00000000  0.00000000  0.83070550  1
  Mg  Mg0_2  1  0.00000000  0.50000000  0.33070550  1
  Mg  Mg0_3  1  0.00000000  0.50000000  0.83070550  1
  Mg  Mg0_4  1  0.50000000  0.00000000  0.33070550  1
  Mg  Mg0_5  1  0.50000000  0.00000000  0.83070550  1
  Mg  Mg0_6  1  0.50000000  0.50000000  0.33070550  1
  Mg  Mg0_7  1  0.50000000  0.50000000  0.83070550  1
  Mg  Mg1_0  1  0.00000000  0.25000000  0.17496050  1
  Mg  Mg1_1  1  0.00000000  0.25000000  0.67496050  1
  Mg  Mg1_2  1  0.00000000  0.75000000  0.17496050  1
  Mg  Mg1_3  1  0.00000000  0.75000000  0.67496050  1
  Mg  Mg1_4  1  0.50000000  0.25000000  0.17496050  1
  Mg  Mg1_5  1  0.50000000  0.25000000  0.67496050  1
  Mg  Mg1_6  1  0.50000000  0.75000000  0.17496050  1
  Mg  Mg1_7  1  0.50000000  0.75000000  0.67496050  1
  Mg  Mg2_0  1  0.25000000  0.25000000  0.41420350  1
  Mg  Mg2_1  1  0.25000000  0.25000000  0.91420350  1
  Mg  Mg2_2  1  0.25000000  0.75000000  0.41420350  1
  Mg  Mg2_3  1  0.25000000  0.75000000  0.91420350  1
  Mg  Mg2_4  1  0.75000000  0.25000000  0.41420350  1
  Mg  Mg2_5  1  0.75000000  0.25000000  0.91420350  1
  Mg  Mg2_6  1  0.75000000  0.75000000  0.41420350  1
  Mg  Mg2_7  1  0.75000000  0.75000000  0.91420350  1
loop_
_geom_bond_atom_site_label_1
_geom_bond_atom_site_label_2
_geom_bond_distance
_geom_bond_site_symmetry_2
Na0_0 Na0_4 3.163250 1_455
Na0_0 Na0_4 3.163250 1_555
Na0_1 Na0_5 3.163250 1_455
Na0_1 Na0_5 3.163250 1_555
Na0_2 Na0_6 3.163250 1_555
Na0_2 Na0_6 3.163250 1_455
Na0_3 Na0_7 3.163250 1_455
Na0_3 Na0_7 3.163250 1_555
Mg0_0 Mg0_4 3.163250 1_555
Mg0_0 Mg0_4 3.163250 1_455
Mg0_0 Mg1_0 3.281942 1_555
Mg0_0 Mg1_2 3.281942 1_545
Mg0_0 Mg2_4 3.295231 1_455
Mg0_0 Mg2_0 3.295231 1_555
Mg0_0 Mg2_2 3.295231 1_545
Mg0_0 Mg2_6 3.295231 1_445
Mg0_0 Na0_5 3.345270 1_455
Mg0_0 Na0_1 3.345270 1_555
Mg0_0 Na0_0 3.357241 1_555
Mg0_0 Na0_4 3.357241 1_455
Mg0_1 Mg0_5 3.163250 1_555
Mg0_1 Mg0_5 3.163250 1_455
Mg0_1 Mg1_1 3.281942 1_555
Mg0_1 Mg1_3 3.281942 1_545
Mg0_1 Mg2_1 3.295231 1_555
Mg0_1 Mg2_5 3.295231 1_455
Mg0_1 Mg2_3 3.295231 1_545
Mg0_1 Mg2_7 3.295231 1_445
Mg0_1 Na0_4 3.345270 1_456
Mg0_1 Na0_0 3.345270 1_556
Mg0_1 Na0_5 3.357241 1_455
Mg0_1 Na0_1 3.357241 1_555
Mg0_2 Mg0_6 3.163250 1_555
Mg0_2 Mg0_6 3.163250 1_455
Mg0_2 Mg1_2 3.281942 1_555
Mg0_2 Mg1_0 3.281942 1_555
Mg0_2 Mg2_4 3.295231 1_455
Mg0_2 Mg2_2 3.295231 1_555
Mg0_2 Mg2_6 3.295231 1_455
Mg0_2 Mg2_0 3.295231 1_555
Mg0_2 Na0_3 3.345270 1_555
Mg0_2 Na0_7 3.345270 1_455
Mg0_2 Na0_6 3.357241 1_455
Mg0_2 Na0_2 3.357241 1_555
Mg0_3 Mg0_7 3.163250 1_555
Mg0_3 Mg0_7 3.163250 1_455
Mg0_3 Mg1_1 3.281942 1_555
Mg0_3 Mg1_3 3.281942 1_555
Mg0_3 Mg2_3 3.295231 1_555
Mg0_3 Mg2_7 3.295231 1_455
Mg0_3 Mg2_1 3.295231 1_555
Mg0_3 Mg2_5 3.295231 1_455
Mg0_3 Na0_2 3.345270 1_556
Mg0_3 Na0_6 3.345270 1_456
Mg0_3 Na0_3 3.357241 1_555
Mg0_3 Na0_7 3.357241 1_455
Mg0_4 Mg1_4 3.281942 1_555
Mg0_4 Mg1_6 3.281942 1_545
Mg0_4 Mg2_0 3.295231 1_555
Mg0_4 Mg2_4 3.295231 1_555
Mg0_4 Mg2_2 3.295231 1_545
Mg0_4 Mg2_6 3.295231 1_545
Mg0_4 Na0_1 3.345270 1_555
Mg0_4 Na0_5 3.345270 1_555
Mg0_4 Na0_0 3.357241 1_555
Mg0_4 Na0_4 3.357241 1_555
Mg0_5 Mg1_5 3.281942 1_555
Mg0_5 Mg1_7 3.281942 1_545
Mg0_5 Mg2_1 3.295231 1_555
Mg0_5 Mg2_5 3.295231 1_555
Mg0_5 Mg2_3 3.295231 1_545
Mg0_5 Mg2_7 3.295231 1_545
Mg0_5 Na0_0 3.345270 1_556
Mg0_5 Na0_4 3.345270 1_556
Mg0_5 Na0_1 3.357241 1_555
Mg0_5 Na0_5 3.357241 1_555
Mg0_6 Mg1_6 3.281942 1_555
Mg0_6 Mg1_4 3.281942 1_555
Mg0_6 Mg2_2 3.295231 1_555
Mg0_6 Mg2_0 3.295231 1_555
Mg0_6 Mg2_6 3.295231 1_555
Mg0_6 Mg2_4 3.295231 1_555
Mg0_6 Na0_3 3.345270 1_555
Mg0_6 Na0_7 3.345270 1_555
Mg0_6 Na0_2 3.357241 1_555
Mg0_6 Na0_6 3.357241 1_555
Mg0_7 Mg1_7 3.281942 1_555
Mg0_7 Mg1_5 3.281942 1_555
Mg0_7 Mg2_3 3.295231 1_555
Mg0_7 Mg2_1 3.295231 1_555
Mg0_7 Mg2_7 3.295231 1_555
Mg0_7 Mg2_5 3.295231 1_555
Mg0_7 Na0_2 3.345270 1_556
Mg0_7 Na0_6 3.345270 1_556
Mg0_7 Na0_3 3.357241 1_555
Mg0_7 Na0_7 3.357241 1_555
Mg1_0 Mg1_4 3.163250 1_555
Mg1_0 Mg1_4 3.163250 1_455
Mg1_0 Mg2_0 3.239730 1_555
Mg1_0 Mg2_4 3.239730 1_455
Mg1_0 Na0_2 3.337781 1_555
Mg1_0 Na0_6 3.337781 1_455
Mg1_0 Na0_0 3.337781 1_555
Mg1_0 Na0_4 3.337781 1_455
Mg1_0 Mg2_1 3.463853 1_554
Mg1_0 Mg2_5 3.463853 1_454
Mg1_1 Mg1_5 3.163250 1_555
Mg1_1 Mg1_5 3.163250 1_455
Mg1_1 Mg2_1 3.239730 1_555
Mg1_1 Mg2_5 3.239730 1_455
Mg1_1 Na0_7 3.337781 1_455
Mg1_1 Na0_3 3.337781 1_555
Mg1_1 Na0_5 3.337781 1_455
Mg1_1 Na0_1 3.337781 1_555
Mg1_1 Mg2_4 3.463853 1_455
Mg1_1 Mg2_0 3.463853 1_555
Mg1_2 Mg1_6 3.163250 1_555
Mg1_2 Mg1_6 3.163250 1_455
Mg1_2 Mg2_2 3.239730 1_555
Mg1_2 Mg2_6 3.239730 1_455
Mg1_2 Na0_2 3.337781 1_555
Mg1_2 Na0_6 3.337781 1_455
Mg1_2 Na0_0 3.337781 1_565
Mg1_2 Na0_4 3.337781 1_465
Mg1_2 Mg2_7 3.463853 1_454
Mg1_2 Mg2_3 3.463853 1_554
Mg1_3 Mg1_7 3.163250 1_555
Mg1_3 Mg1_7 3.163250 1_455
Mg1_3 Mg2_7 3.239730 1_455
Mg1_3 Mg2_3 3.239730 1_555
Mg1_3 Na0_7 3.337781 1_455
Mg1_3 Na0_3 3.337781 1_555
Mg1_3 Na0_1 3.337781 1_565
Mg1_3 Na0_5 3.337781 1_465
Mg1_3 Mg2_2 3.463853 1_555
Mg1_3 Mg2_6 3.463853 1_455
Mg1_4 Mg2_0 3.239730 1_555
Mg1_4 Mg2_4 3.239730 1_555
Mg1_4 Na0_2 3.337781 1_555
Mg1_4 Na0_0 3.337781 1_555
Mg1_4 Na0_4 3.337781 1_555
Mg1_4 Na0_6 3.337781 1_555
Mg1_4 Mg2_1 3.463853 1_554
Mg1_4 Mg2_5 3.463853 1_554
Mg1_5 Mg2_1 3.239730 1_555
Mg1_5 Mg2_5 3.239730 1_555
Mg1_5 Na0_3 3.337781 1_555
Mg1_5 Na0_1 3.337781 1_555
Mg1_5 Na0_7 3.337781 1_555
Mg1_5 Na0_5 3.337781 1_555
Mg1_5 Mg2_0 3.463853 1_555
Mg1_5 Mg2_4 3.463853 1_555
Mg1_6 Mg2_2 3.239730 1_555
Mg1_6 Mg2_6 3.239730 1_555
Mg1_6 Na0_2 3.337781 1_555
Mg1_6 Na0_6 3.337781 1_555
Mg1_6 Na0_0 3.337781 1_565
Mg1_6 Na0_4 3.337781 1_565
Mg1_6 Mg2_7 3.463853 1_554
Mg1_6 Mg2_3 3.463853 1_554
Mg1_7 Mg2_3 3.239730 1_555
Mg1_7 Mg2_7 3.239730 1_555
Mg1_7 Na0_3 3.337781 1_555
Mg1_7 Na0_7 3.337781 1_555
Mg1_7 Na0_1 3.337781 1_565
Mg1_7 Na0_5 3.337781 1_565
Mg1_7 Mg2_2 3.463853 1_555
Mg1_7 Mg2_6 3.463853 1_555
Mg2_0 Mg2_4 3.163250 1_455
Mg2_0 Mg2_4 3.163250 1_555
Mg2_0 Na0_3 3.350914 1_555
Mg2_0 Na0_1 3.350914 1_555
Mg2_1 Mg2_5 3.163250 1_455
Mg2_1 Mg2_5 3.163250 1_555
Mg2_1 Na0_2 3.350914 1_556
Mg2_1 Na0_0 3.350914 1_556
Mg2_2 Mg2_6 3.163250 1_455
Mg2_2 Mg2_6 3.163250 1_555
Mg2_2 Na0_3 3.350914 1_555
Mg2_2 Na0_1 3.350914 1_565
Mg2_3 Mg2_7 3.163250 1_555
Mg2_3 Mg2_7 3.163250 1_455
Mg2_3 Na0_2 3.350914 1_556
Mg2_3 Na0_0 3.350914 1_566
Mg2_4 Na0_7 3.350914 1_555
Mg2_4 Na0_5 3.350914 1_555
Mg2_5 Na0_4 3.350914 1_556
Mg2_5 Na0_6 3.350914 1_556
Mg2_6 Na0_7 3.350914 1_555
Mg2_6 Na0_5 3.350914 1_565
Mg2_7 Na0_6 3.350914 1_556
Mg2_7 Na0_4 3.350914 1_566
