# generated using pymatgen
data_NaBH34(C3N)4
_symmetry_space_group_name_H-M   'P 1'
_cell_length_a   10.71021228
_cell_length_b   10.71021228
_cell_length_c   10.64610800
_cell_angle_alpha   90.00000000
_cell_angle_beta   90.00000000
_cell_angle_gamma   120.00000176
_symmetry_Int_Tables_number   1
_chemical_formula_structural   NaBH34(C3N)4
_chemical_formula_sum   'Na2 B2 H68 C24 N8'
_cell_volume   1057.59076412
_cell_formula_units_Z   2
loop_
 _symmetry_equiv_pos_site_id
 _symmetry_equiv_pos_as_xyz
  1  'x, y, z'
loop_
 _atom_site_type_symbol
 _atom_site_label
 _atom_site_symmetry_multiplicity
 _atom_site_fract_x
 _atom_site_fract_y
 _atom_site_fract_z
 _atom_site_occupancy
  Na  Na0  1  0.33333300  0.66666700  0.48957500  1
  Na  Na1  1  0.66666700  0.33333300  0.98957500  1
  B  B0  1  0.33333300  0.66666700  0.24077900  1
  B  B1  1  0.66666700  0.33333300  0.74077900  1
  H  H0  1  0.12495300  0.93832800  0.52226200  1
  H  H1  1  0.06167200  0.18662500  0.52226200  1
  H  H2  1  0.81337500  0.87504700  0.52226200  1
  H  H3  1  0.87504700  0.06167200  0.02226200  1
  H  H4  1  0.93832800  0.81337500  0.02226200  1
  H  H5  1  0.18662500  0.12495300  0.02226200  1
  H  H6  1  0.18907400  0.87293200  0.39740300  1
  H  H7  1  0.12706800  0.31614200  0.39740300  1
  H  H8  1  0.68385800  0.81092600  0.39740300  1
  H  H9  1  0.81092600  0.12706800  0.89740300  1
  H  H10  1  0.87293200  0.68385800  0.89740300  1
  H  H11  1  0.31614200  0.18907400  0.89740300  1
  H  H12  1  0.31179500  0.99097500  0.51370500  1
  H  H13  1  0.00902500  0.32082000  0.51370500  1
  H  H14  1  0.67918000  0.68820500  0.51370500  1
  H  H15  1  0.68820500  0.00902500  0.01370500  1
  H  H16  1  0.99097500  0.67918000  0.01370500  1
  H  H17  1  0.32082000  0.31179500  0.01370500  1
  H  H18  1  0.95042300  0.69696200  0.58632900  1
  H  H19  1  0.30303800  0.25346100  0.58632900  1
  H  H20  1  0.74653900  0.04957700  0.58632900  1
  H  H21  1  0.04957700  0.30303800  0.08632900  1
  H  H22  1  0.69696200  0.74653900  0.08632900  1
  H  H23  1  0.25346100  0.95042300  0.08632900  1
  H  H24  1  0.00197400  0.56414900  0.60770900  1
  H  H25  1  0.43585100  0.43782400  0.60770900  1
  H  H26  1  0.56217600  0.99802600  0.60770900  1
  H  H27  1  0.99802600  0.43585100  0.10770900  1
  H  H28  1  0.56414900  0.56217600  0.10770900  1
  H  H29  1  0.43782400  0.00197400  0.10770900  1
  H  H30  1  0.00750300  0.63395100  0.45463900  1
  H  H31  1  0.36604900  0.37355200  0.45463900  1
  H  H32  1  0.62644800  0.99249700  0.45463900  1
  H  H33  1  0.99249700  0.36604900  0.95463900  1
  H  H34  1  0.63395100  0.62644800  0.95463900  1
  H  H35  1  0.37355200  0.00750300  0.95463900  1
  H  H36  1  0.12851100  0.83207500  0.75070800  1
  H  H37  1  0.16792500  0.29643600  0.75070800  1
  H  H38  1  0.70356400  0.87148900  0.75070800  1
  H  H39  1  0.87148900  0.16792500  0.25070800  1
  H  H40  1  0.83207500  0.70356400  0.25070800  1
  H  H41  1  0.29643600  0.12851100  0.25070800  1
  H  H42  1  0.31316400  0.91757900  0.70799200  1
  H  H43  1  0.08242100  0.39558600  0.70799200  1
  H  H44  1  0.60441400  0.68683600  0.70799200  1
  H  H45  1  0.68683600  0.08242100  0.20799200  1
  H  H46  1  0.91757900  0.60441400  0.20799200  1
  H  H47  1  0.39558600  0.31316400  0.20799200  1
  H  H48  1  0.24331400  0.73896200  0.88112500  1
  H  H49  1  0.26103800  0.50435200  0.88112500  1
  H  H50  1  0.49564800  0.75668600  0.88112500  1
  H  H51  1  0.75668600  0.26103800  0.38112500  1
  H  H52  1  0.73896200  0.49564800  0.38112500  1
  H  H53  1  0.50435200  0.24331400  0.38112500  1
  H  H54  1  0.11832300  0.60010300  0.78242600  1
  H  H55  1  0.39989700  0.51822000  0.78242600  1
  H  H56  1  0.48178000  0.88167700  0.78242600  1
  H  H57  1  0.88167700  0.39989700  0.28242600  1
  H  H58  1  0.60010300  0.48178000  0.28242600  1
  H  H59  1  0.51822000  0.11832300  0.28242600  1
  H  H60  1  0.33333300  0.66666700  0.12554700  1
  H  H61  1  0.66666700  0.33333300  0.62554700  1
  H  H62  1  0.35679700  0.57110700  0.27998400  1
  H  H63  1  0.42889300  0.78569000  0.27998400  1
  H  H64  1  0.21431000  0.64320300  0.27998400  1
  H  H65  1  0.64320300  0.42889300  0.77998400  1
  H  H66  1  0.57110700  0.21431000  0.77998400  1
  H  H67  1  0.78569000  0.35679700  0.77998400  1
  C  C0  1  0.21129200  0.81384500  0.70427600  1
  C  C1  1  0.18615500  0.39744700  0.70427600  1
  C  C2  1  0.60255300  0.78870800  0.70427600  1
  C  C3  1  0.78870800  0.18615500  0.20427600  1
  C  C4  1  0.81384500  0.60255300  0.20427600  1
  C  C5  1  0.39744700  0.21129200  0.20427600  1
  C  C6  1  0.22295300  0.70050900  0.78250600  1
  C  C7  1  0.29949100  0.52244400  0.78250600  1
  C  C8  1  0.47755600  0.77704700  0.78250600  1
  C  C9  1  0.77704700  0.29949100  0.28250600  1
  C  C10  1  0.70050900  0.47755600  0.28250600  1
  C  C11  1  0.52244400  0.22295300  0.28250600  1
  C  C12  1  0.20188000  0.90111600  0.49748400  1
  C  C13  1  0.09888400  0.30076400  0.49748400  1
  C  C14  1  0.69923600  0.79812000  0.49748400  1
  C  C15  1  0.79812000  0.09888400  0.99748400  1
  C  C16  1  0.90111600  0.69923600  0.99748400  1
  C  C17  1  0.30076400  0.20188000  0.99748400  1
  C  C18  1  0.02665700  0.66158600  0.55467800  1
  C  C19  1  0.33841400  0.36507000  0.55467800  1
  C  C20  1  0.63493000  0.97334300  0.55467800  1
  C  C21  1  0.97334300  0.33841400  0.05467800  1
  C  C22  1  0.66158600  0.63493000  0.05467800  1
  C  C23  1  0.36507000  0.02665700  0.05467800  1
  N  N0  1  0.17683100  0.77556300  0.57165900  1
  N  N1  1  0.22443700  0.40126800  0.57165900  1
  N  N2  1  0.59873200  0.82316900  0.57165900  1
  N  N3  1  0.82316900  0.22443700  0.07165900  1
  N  N4  1  0.77556300  0.59873200  0.07165900  1
  N  N5  1  0.40126800  0.17683100  0.07165900  1
  N  N6  1  0.33333300  0.66666700  0.73910400  1
  N  N7  1  0.66666700  0.33333300  0.23910400  1
loop_
_geom_bond_atom_site_label_1
_geom_bond_atom_site_label_2
_geom_bond_distance
_geom_bond_site_symmetry_2
B0 H60 1.226772 1_555
B0 H64 1.241783 1_555
B0 H63 1.241786 1_555
B0 H62 1.241793 1_555
B1 H61 1.226772 1_555
B1 H67 1.241783 1_555
B1 H66 1.241786 1_555
B1 H65 1.241793 1_555
H62 Na0 2.519260 1_555
H63 Na0 2.519256 1_555
H64 Na0 2.519255 1_555
H65 Na1 2.519260 1_555
H66 Na1 2.519256 1_555
H67 Na1 2.519255 1_555
C0 H42 1.101888 1_555
C0 H36 1.114291 1_555
C0 N0 1.465038 1_555
C1 H43 1.101893 1_555
C1 H37 1.114291 1_555
C1 N1 1.465038 1_555
C2 H44 1.101882 1_555
C2 H38 1.114291 1_555
C2 N2 1.465038 1_555
C3 H45 1.101888 1_555
C3 H39 1.114291 1_555
C3 N3 1.465038 1_555
C4 H46 1.101893 1_555
C4 H40 1.114291 1_555
C4 N4 1.465038 1_555
C5 H47 1.101882 1_555
C5 H41 1.114291 1_555
C5 N5 1.465038 1_555
C6 H54 1.098689 1_555
C6 H48 1.108902 1_555
C6 N6 1.473414 1_555
C7 H55 1.098689 1_555
C7 H49 1.108902 1_555
C7 N6 1.473424 1_555
C8 H56 1.098689 1_555
C8 H50 1.108902 1_555
C8 N6 1.473421 1_555
C9 H57 1.098689 1_555
C9 H51 1.108902 1_555
C9 N7 1.473414 1_555
C10 H58 1.098689 1_555
C10 H52 1.108902 1_555
C10 N7 1.473424 1_555
C11 H59 1.098689 1_555
C11 H53 1.108902 1_555
C11 N7 1.473421 1_555
C12 H6 1.097160 1_555
C12 H12 1.099510 1_555
C12 H0 1.111580 1_555
C12 N0 1.463906 1_555
C13 H7 1.097160 1_555
C13 H13 1.099510 1_555
C13 H1 1.111580 1_555
C13 N1 1.463906 1_555
C14 H8 1.097160 1_555
C14 H14 1.099510 1_555
C14 H2 1.111580 1_555
C14 N2 1.463906 1_555
C15 H9 1.097160 1_555
C15 H15 1.099510 1_556
C15 H3 1.111580 1_556
C15 N3 1.463906 1_556
C16 H10 1.097160 1_555
C16 H16 1.099510 1_556
C16 H4 1.111580 1_556
C16 N4 1.463906 1_556
C17 H11 1.097160 1_555
C17 H17 1.099510 1_556
C17 H5 1.111580 1_556
C17 N5 1.463906 1_556
C18 H24 1.096263 1_555
C18 H30 1.096927 1_555
C18 H18 1.110446 1_455
C18 N0 1.465050 1_555
C19 H25 1.096263 1_555
C19 H31 1.096926 1_555
C19 H19 1.110437 1_555
C19 N1 1.465058 1_555
C20 H26 1.096263 1_555
C20 H32 1.096929 1_555
C20 H20 1.110439 1_565
C20 N2 1.465047 1_555
C21 H27 1.096263 1_555
C21 H33 1.096927 1_554
C21 H21 1.110446 1_655
C21 N3 1.465050 1_555
C22 H28 1.096263 1_555
C22 H34 1.096926 1_554
C22 H22 1.110437 1_555
C22 N4 1.465058 1_555
C23 H29 1.096263 1_555
C23 H35 1.096929 1_554
C23 H23 1.110439 1_545
C23 N5 1.465047 1_555
N0 Na0 2.624571 1_555
N1 Na0 2.624580 1_555
N2 Na0 2.624579 1_555
N3 Na1 2.624571 1_554
N4 Na1 2.624580 1_554
N5 Na1 2.624579 1_554
N6 Na0 2.656513 1_555
N7 Na1 2.656513 1_554
