# generated using pymatgen
data_Ba2GdGaTe5
_symmetry_space_group_name_H-M   'P 1'
_cell_length_a   7.88687200
_cell_length_b   9.38563543
_cell_length_c   10.21431839
_cell_angle_alpha   103.46426365
_cell_angle_beta   103.16181235
_cell_angle_gamma   107.37670960
_symmetry_Int_Tables_number   1
_chemical_formula_structural   Ba2GdGaTe5
_chemical_formula_sum   'Ba4 Gd2 Ga2 Te10'
_cell_volume   664.79707649
_cell_formula_units_Z   2
loop_
 _symmetry_equiv_pos_site_id
 _symmetry_equiv_pos_as_xyz
  1  'x, y, z'
loop_
 _atom_site_type_symbol
 _atom_site_label
 _atom_site_symmetry_multiplicity
 _atom_site_fract_x
 _atom_site_fract_y
 _atom_site_fract_z
 _atom_site_occupancy
  Ba  Ba0  1  0.35498400  0.51443600  0.71151600  1
  Ba  Ba1  1  0.64501600  0.48556400  0.28848400  1
  Ba  Ba2  1  0.63851600  0.98087800  0.29180000  1
  Ba  Ba3  1  0.36148400  0.01912200  0.70820000  1
  Gd  Gd0  1  0.99871200  0.73334100  0.99868400  1
  Gd  Gd1  1  0.00128800  0.26665900  0.00131600  1
  Ga  Ga0  1  0.80820600  0.87346100  0.68811100  1
  Ga  Ga1  1  0.19179400  0.12653900  0.31188900  1
  Te  Te0  1  0.48383200  0.74100700  0.49086900  1
  Te  Te1  1  0.51616800  0.25899300  0.50913100  1
  Te  Te2  1  0.98724400  0.67433800  0.68021800  1
  Te  Te3  1  0.01275600  0.32566200  0.31978200  1
  Te  Te4  1  0.98716200  0.16034400  0.68290000  1
  Te  Te5  1  0.01283800  0.83965600  0.31710000  1
  Te  Te6  1  0.69770700  0.40819600  0.94265400  1
  Te  Te7  1  0.30229300  0.59180400  0.05734600  1
  Te  Te8  1  0.70772400  0.90931700  0.92996500  1
  Te  Te9  1  0.29227600  0.09068300  0.07003500  1
loop_
_geom_bond_atom_site_label_1
_geom_bond_atom_site_label_2
_geom_bond_distance
_geom_bond_site_symmetry_2
Ba0 Te1 3.513788 1_555
Ba0 Te0 3.552215 1_555
Ba0 Te7 3.582210 1_556
Ba0 Te4 3.598436 1_455
Ba0 Te2 3.628703 1_455
Ba0 Te8 3.690220 1_555
Ba0 Te6 3.697896 1_555
Ba0 Te3 3.919004 1_555
Ba1 Te0 3.513788 1_555
Ba1 Te1 3.552215 1_555
Ba1 Te6 3.582210 1_554
Ba1 Te5 3.598436 1_655
Ba1 Te3 3.628703 1_655
Ba1 Te9 3.690220 1_555
Ba1 Te7 3.697896 1_555
Ba1 Te2 3.919004 1_555
Ba2 Te0 3.508891 1_555
Ba2 Te1 3.529052 1_565
Ba2 Te5 3.562112 1_655
Ba2 Te3 3.570064 1_665
Ba2 Te7 3.654233 1_555
Ba2 Te9 3.687992 1_565
Ba2 Te8 3.793471 1_554
Ba2 Te4 3.931200 1_565
Ba3 Te1 3.508891 1_555
Ba3 Te0 3.529052 1_545
Ba3 Te4 3.562112 1_455
Ba3 Te2 3.570064 1_445
Ba3 Te6 3.654233 1_555
Ba3 Te8 3.687992 1_545
Ba3 Te9 3.793471 1_556
Ba3 Te5 3.931200 1_545
Gd0 Te7 3.077912 1_656
Gd0 Te6 3.084939 1_555
Gd0 Te5 3.137435 1_656
Gd0 Te2 3.145397 1_555
Gd0 Te8 3.249298 1_555
Gd0 Te9 3.255051 1_666
Gd1 Te6 3.077912 1_454
Gd1 Te7 3.084939 1_555
Gd1 Te4 3.137435 1_454
Gd1 Te3 3.145397 1_555
Gd1 Te9 3.249298 1_555
Gd1 Te8 3.255051 1_444
Ga0 Te0 2.595399 1_555
Ga0 Te2 2.655393 1_555
Ga0 Te4 2.660052 1_565
Ga0 Te8 2.740029 1_555
Ga1 Te1 2.595399 1_555
Ga1 Te3 2.655393 1_555
Ga1 Te5 2.660052 1_545
Ga1 Te9 2.740029 1_555
