# generated using pymatgen
data_Lu2Cu(B2O5)2
_symmetry_space_group_name_H-M   'P 1'
_cell_length_a   7.20626200
_cell_length_b   4.56130200
_cell_length_c   9.29799775
_cell_angle_alpha   89.91702644
_cell_angle_beta   90.00000000
_cell_angle_gamma   90.00000000
_symmetry_Int_Tables_number   1
_chemical_formula_structural   Lu2Cu(B2O5)2
_chemical_formula_sum   'Lu4 Cu2 B8 O20'
_cell_volume   305.62428233
_cell_formula_units_Z   2
loop_
 _symmetry_equiv_pos_site_id
 _symmetry_equiv_pos_as_xyz
  1  'x, y, z'
loop_
 _atom_site_type_symbol
 _atom_site_label
 _atom_site_symmetry_multiplicity
 _atom_site_fract_x
 _atom_site_fract_y
 _atom_site_fract_z
 _atom_site_occupancy
  Lu  Lu0  1  0.60206000  0.99813300  0.16400500  1
  Lu  Lu1  1  0.10206000  0.00186700  0.33599500  1
  Lu  Lu2  1  0.89794000  0.99813300  0.66400500  1
  Lu  Lu3  1  0.39794000  0.00186700  0.83599500  1
  Cu  Cu0  1  0.00000000  0.00000000  0.00000000  1
  Cu  Cu1  1  0.50000000  0.00000000  0.50000000  1
  B  B0  1  0.22955200  0.53871300  0.57861900  1
  B  B1  1  0.72955200  0.46128700  0.92138100  1
  B  B2  1  0.77044800  0.46128700  0.42138100  1
  B  B3  1  0.27044800  0.53871300  0.07861900  1
  B  B4  1  0.40235600  0.47114300  0.33547000  1
  B  B5  1  0.90235600  0.52885700  0.16453000  1
  B  B6  1  0.09764400  0.47114300  0.83547000  1
  B  B7  1  0.59764400  0.52885700  0.66453000  1
  O  O0  1  0.08981900  0.67802400  0.13887400  1
  O  O1  1  0.58981900  0.32197600  0.36112600  1
  O  O2  1  0.89125300  0.22685200  0.46018600  1
  O  O3  1  0.39125300  0.77314800  0.03981400  1
  O  O4  1  0.10874700  0.77314800  0.53981400  1
  O  O5  1  0.60874700  0.22685200  0.96018600  1
  O  O6  1  0.08961500  0.78751300  0.83139000  1
  O  O7  1  0.58961500  0.21248700  0.66861000  1
  O  O8  1  0.91038500  0.21248700  0.16861000  1
  O  O9  1  0.41038500  0.78751300  0.33139000  1
  O  O10  1  0.16185900  0.33878200  0.69639500  1
  O  O11  1  0.66185900  0.66121800  0.80360500  1
  O  O12  1  0.83814100  0.66121800  0.30360500  1
  O  O13  1  0.33814100  0.33878200  0.19639500  1
  O  O14  1  0.22422900  0.35722800  0.94930900  1
  O  O15  1  0.72422900  0.64277200  0.55069100  1
  O  O16  1  0.77577100  0.64277200  0.05069100  1
  O  O17  1  0.27577100  0.35722800  0.44930900  1
  O  O18  1  0.91018100  0.32197600  0.86112600  1
  O  O19  1  0.41018100  0.67802400  0.63887400  1
loop_
_geom_bond_atom_site_label_1
_geom_bond_atom_site_label_2
_geom_bond_distance
_geom_bond_site_symmetry_2
Lu0 O5 2.162502 1_564
Lu0 O3 2.167423 1_555
Lu0 O9 2.291006 1_555
Lu0 O16 2.304207 1_555
Lu0 O1 2.357297 1_565
Lu0 O8 2.427885 1_565
Lu0 O13 2.474564 1_565
Lu0 O12 2.633436 1_555
Lu1 O4 2.162502 1_545
Lu1 O2 2.167423 1_455
Lu1 O8 2.291006 1_455
Lu1 O17 2.304207 1_555
Lu1 O0 2.357297 1_545
Lu1 O9 2.427885 1_545
Lu1 O12 2.474564 1_445
Lu1 O13 2.633436 1_555
Lu2 O2 2.162502 1_565
Lu2 O4 2.167423 1_655
Lu2 O6 2.291006 1_655
Lu2 O15 2.304207 1_555
Lu2 O18 2.357297 1_565
Lu2 O7 2.427885 1_565
Lu2 O10 2.474564 1_665
Lu2 O11 2.633436 1_555
Lu3 O3 2.162502 1_546
Lu3 O5 2.167423 1_555
Lu3 O7 2.291006 1_555
Lu3 O14 2.304207 1_555
Lu3 O19 2.357297 1_545
Lu3 O6 2.427885 1_545
Lu3 O11 2.474564 1_545
Lu3 O10 2.633436 1_555
Cu0 O8 1.954129 1_455
Cu0 O6 1.954129 1_544
Cu0 O0 2.058556 1_545
Cu0 O18 2.058556 1_454
Cu0 O14 2.342206 1_554
Cu0 O16 2.342206 1_445
Cu1 O9 1.954129 1_545
Cu1 O7 1.954129 1_555
Cu1 O1 2.058556 1_555
Cu1 O19 2.058556 1_545
Cu1 O15 2.342206 1_545
Cu1 O17 2.342206 1_555
B0 O4 1.424918 1_555
B0 O17 1.498221 1_555
B0 O10 1.505296 1_555
B0 O19 1.553388 1_555
B1 O5 1.424918 1_555
B1 O16 1.498221 1_556
B1 O11 1.505296 1_555
B1 O18 1.553388 1_555
B2 O2 1.424918 1_555
B2 O15 1.498221 1_555
B2 O12 1.505296 1_555
B2 O1 1.553388 1_555
B3 O3 1.424918 1_555
B3 O14 1.498221 1_554
B3 O13 1.505296 1_555
B3 O0 1.553388 1_555
B4 O9 1.444662 1_555
B4 O17 1.490261 1_555
B4 O13 1.501018 1_555
B4 O1 1.531119 1_555
B5 O8 1.444662 1_555
B5 O16 1.490261 1_555
B5 O12 1.501018 1_555
B5 O0 1.531119 1_655
B6 O6 1.444662 1_555
B6 O14 1.490261 1_555
B6 O10 1.501018 1_555
B6 O18 1.531119 1_455
B7 O7 1.444662 1_555
B7 O15 1.490261 1_555
B7 O11 1.501018 1_555
B7 O19 1.531119 1_555
