# generated using pymatgen
data_Rb3TmO3
_symmetry_space_group_name_H-M   'P 1'
_cell_length_a   7.17717613
_cell_length_b   7.17717613
_cell_length_c   7.16923783
_cell_angle_alpha   84.98459698
_cell_angle_beta   84.98459698
_cell_angle_gamma   115.98312666
_symmetry_Int_Tables_number   1
_chemical_formula_structural   Rb3TmO3
_chemical_formula_sum   'Rb6 Tm2 O6'
_cell_volume   327.42635020
_cell_formula_units_Z   2
loop_
 _symmetry_equiv_pos_site_id
 _symmetry_equiv_pos_as_xyz
  1  'x, y, z'
loop_
 _atom_site_type_symbol
 _atom_site_label
 _atom_site_symmetry_multiplicity
 _atom_site_fract_x
 _atom_site_fract_y
 _atom_site_fract_z
 _atom_site_occupancy
  Rb  Rb0  1  0.63814135  0.63814135  0.64088156  1
  Rb  Rb1  1  0.20499296  0.79500704  0.50000000  1
  Rb  Rb2  1  0.79500704  0.20499296  0.50000000  1
  Rb  Rb3  1  0.74015434  0.25984566  -0.00000000  1
  Rb  Rb4  1  0.25984566  0.74015434  -0.00000000  1
  Rb  Rb5  1  0.36185865  0.36185865  0.35911844  1
  Tm  Tm0  1  0.82381641  0.82381641  0.14890004  1
  Tm  Tm1  1  0.17618359  0.17618359  0.85109996  1
  O  O0  1  0.89719953  0.89719953  0.84646465  1
  O  O1  1  0.83400958  0.55604919  0.26828106  1
  O  O2  1  0.55604919  0.83400958  0.26828106  1
  O  O3  1  0.16599042  0.44395081  0.73171894  1
  O  O4  1  0.44395081  0.16599042  0.73171894  1
  O  O5  1  0.10280047  0.10280047  0.15353535  1
loop_
_geom_bond_atom_site_label_1
_geom_bond_atom_site_label_2
_geom_bond_distance
_geom_bond_site_symmetry_2
O0 Tm1 2.128367 1_665
O0 Tm0 2.147934 1_556
O0 Rb0 2.648689 1_555
O1 Tm0 2.068279 1_555
O1 Rb2 2.784833 1_555
O1 Rb3 2.891241 1_555
O1 Rb5 3.027718 1_555
O1 Rb4 3.126591 1_655
O1 Rb0 3.131030 1_555
O1 Rb1 3.171901 1_655
O2 Tm0 2.068279 1_555
O2 Rb1 2.784833 1_555
O2 Rb4 2.891241 1_555
O2 Rb5 3.027718 1_555
O2 Rb3 3.126591 1_565
O2 Rb0 3.131030 1_555
O2 Rb2 3.171901 1_565
O3 Tm1 2.068279 1_555
O3 Rb1 2.784833 1_555
O3 Rb4 2.891241 1_556
O3 Rb0 3.027718 1_555
O3 Rb3 3.126591 1_456
O3 Rb5 3.131030 1_555
O3 Rb2 3.171901 1_455
O4 Tm1 2.068279 1_555
O4 Rb2 2.784833 1_555
O4 Rb3 2.891241 1_556
O4 Rb0 3.027718 1_555
O4 Rb4 3.126591 1_546
O4 Rb5 3.131030 1_555
O4 Rb1 3.171901 1_545
O5 Tm0 2.128367 1_445
O5 Tm1 2.147934 1_554
O5 Rb5 2.648689 1_555
