# generated using pymatgen
data_U(GeRh)2
_symmetry_space_group_name_H-M   'P 1'
_cell_length_a   4.20445300
_cell_length_b   4.20445300
_cell_length_c   10.18036100
_cell_angle_alpha   90.00000000
_cell_angle_beta   90.00000000
_cell_angle_gamma   90.00000000
_symmetry_Int_Tables_number   1
_chemical_formula_structural   U(GeRh)2
_chemical_formula_sum   'U2 Ge4 Rh4'
_cell_volume   179.96256835
_cell_formula_units_Z   2
loop_
 _symmetry_equiv_pos_site_id
 _symmetry_equiv_pos_as_xyz
  1  'x, y, z'
loop_
 _atom_site_type_symbol
 _atom_site_label
 _atom_site_symmetry_multiplicity
 _atom_site_fract_x
 _atom_site_fract_y
 _atom_site_fract_z
 _atom_site_occupancy
  U  U0  1  0.00000000  0.50000000  0.25639900  1
  U  U1  1  0.50000000  0.00000000  0.74360100  1
  Ge  Ge0  1  0.00000000  0.00000000  0.50000000  1
  Ge  Ge1  1  0.50000000  0.50000000  0.50000000  1
  Ge  Ge2  1  0.00000000  0.50000000  0.86850300  1
  Ge  Ge3  1  0.50000000  0.00000000  0.13149700  1
  Rh  Rh0  1  0.00000000  0.00000000  0.00000000  1
  Rh  Rh1  1  0.50000000  0.50000000  0.00000000  1
  Rh  Rh2  1  0.00000000  0.50000000  0.63067800  1
  Rh  Rh3  1  0.50000000  0.00000000  0.36932200  1
loop_
_geom_bond_atom_site_label_1
_geom_bond_atom_site_label_2
_geom_bond_distance
_geom_bond_site_symmetry_2
Ge0 Rh2 2.487807 1_555
Ge0 Rh2 2.487807 1_545
Ge0 Rh3 2.487807 1_555
Ge0 Rh3 2.487807 1_455
Ge0 U1 3.251075 1_455
Ge0 U1 3.251075 1_555
Ge0 U0 3.251075 1_555
Ge0 U0 3.251075 1_545
Ge1 Rh2 2.487807 1_555
Ge1 Rh2 2.487807 1_655
Ge1 Rh3 2.487807 1_565
Ge1 Rh3 2.487807 1_555
Ge1 U1 3.251075 1_565
Ge1 U1 3.251075 1_555
Ge1 U0 3.251075 1_555
Ge1 U0 3.251075 1_655
Ge2 Rh2 2.421144 1_555
Ge2 Rh0 2.492276 1_556
Ge2 Rh1 2.492276 1_456
Ge2 Rh1 2.492276 1_556
Ge2 Rh0 2.492276 1_566
Ge2 U1 3.233504 1_465
Ge2 U1 3.233504 1_455
Ge2 U1 3.233504 1_555
Ge2 U1 3.233504 1_565
Ge3 Rh3 2.421144 1_555
Ge3 Rh1 2.492276 1_555
Ge3 Rh1 2.492276 1_545
Ge3 Rh0 2.492276 1_655
Ge3 Rh0 2.492276 1_555
Ge3 U0 3.233504 1_655
Ge3 U0 3.233504 1_545
Ge3 U0 3.233504 1_555
Ge3 U0 3.233504 1_645
Rh0 U0 3.351519 1_545
Rh0 U0 3.351519 1_555
Rh0 U1 3.351519 1_554
Rh0 U1 3.351519 1_454
Rh1 U0 3.351519 1_655
Rh1 U0 3.351519 1_555
Rh1 U1 3.351519 1_554
Rh1 U1 3.351519 1_564
Rh2 U1 3.187520 1_455
Rh2 U1 3.187520 1_555
Rh2 U1 3.187520 1_565
Rh2 U1 3.187520 1_465
Rh3 U0 3.187520 1_555
Rh3 U0 3.187520 1_655
Rh3 U0 3.187520 1_645
Rh3 U0 3.187520 1_545
