# generated using pymatgen
data_MgV4(PO5)4
_symmetry_space_group_name_H-M   'P 1'
_cell_length_a   5.23894667
_cell_length_b   10.21104341
_cell_length_c   7.35025009
_cell_angle_alpha   71.04308972
_cell_angle_beta   70.35907679
_cell_angle_gamma   75.54010834
_symmetry_Int_Tables_number   1
_chemical_formula_structural   MgV4(PO5)4
_chemical_formula_sum   'Mg1 V4 P4 O20'
_cell_volume   345.85465081
_cell_formula_units_Z   1
loop_
 _symmetry_equiv_pos_site_id
 _symmetry_equiv_pos_as_xyz
  1  'x, y, z'
loop_
 _atom_site_type_symbol
 _atom_site_label
 _atom_site_symmetry_multiplicity
 _atom_site_fract_x
 _atom_site_fract_y
 _atom_site_fract_z
 _atom_site_occupancy
  Mg  Mg0  1  0.00000000  0.75000000  0.75000000  1
  V  V0  1  0.03627900  0.48124100  0.01777100  1
  V  V1  1  0.00000000  0.75000000  0.25000000  1
  V  V2  1  0.50000000  0.24999900  0.75000000  1
  V  V3  1  0.96372200  0.01875900  0.48222900  1
  P  P0  1  0.59994600  0.05250400  0.18622000  1
  P  P1  1  0.40005500  0.44749700  0.31378000  1
  P  P2  1  0.35278300  0.94432300  0.81340100  1
  P  P3  1  0.64721800  0.55567800  0.68659900  1
  O  O0  1  0.29065300  0.06962700  0.28969600  1
  O  O1  1  0.24266300  0.40005800  0.21150400  1
  O  O2  1  0.03527100  0.83439400  0.42573900  1
  O  O3  1  0.27193000  0.85496600  0.03145000  1
  O  O4  1  0.28540100  0.60221800  0.32086500  1
  O  O5  1  0.29689200  0.10278800  0.80225000  1
  O  O6  1  0.35830600  0.35173000  0.52922600  1
  O  O7  1  0.19772700  0.33928700  0.90643700  1
  O  O8  1  0.75733800  0.09994200  0.28849600  1
  O  O9  1  0.18066900  0.91833500  0.69550400  1
  O  O10  1  0.70934800  0.43037300  0.21030500  1
  O  O11  1  0.33645600  0.59690000  0.78076900  1
  O  O12  1  0.80227200  0.16071300  0.59356400  1
  O  O13  1  0.64169300  0.14827000  0.97077500  1
  O  O14  1  0.81933100  0.58166600  0.80449600  1
  O  O15  1  0.71460000  0.89778100  0.17913500  1
  O  O16  1  0.72807000  0.64503500  0.46855000  1
  O  O17  1  0.96473000  0.66560500  0.07426100  1
  O  O18  1  0.66354500  0.90309900  0.71923000  1
  O  O19  1  0.70310900  0.39721200  0.69775000  1
loop_
_geom_bond_atom_site_label_1
_geom_bond_atom_site_label_2
_geom_bond_distance
_geom_bond_site_symmetry_2
Mg0 O14 2.030057 1_455
Mg0 O9 2.030066 1_555
Mg0 O18 2.064993 1_455
Mg0 O11 2.065000 1_555
Mg0 O2 2.215031 1_555
Mg0 O17 2.215033 1_456
O0 P0 1.533319 1_555
O0 V3 1.882381 1_455
O1 P1 1.527242 1_555
O1 V0 1.924697 1_555
O2 V1 1.846218 1_555
O2 V3 1.976806 1_465
O3 P2 1.538558 1_554
O3 V1 1.965785 1_555
O4 P1 1.554987 1_555
O4 V1 1.915758 1_555
O5 P2 1.550494 1_545
O5 V2 1.920490 1_555
O6 P1 1.542620 1_555
O6 V2 1.895496 1_555
O7 V0 1.783035 1_556
O7 V2 1.843137 1_555
O8 P0 1.527236 1_555
O8 V3 1.924697 1_555
O9 P2 1.558400 1_555
O9 V3 2.090948 1_465
O10 P1 1.533318 1_555
O10 V0 1.882384 1_655
O11 P3 1.548023 1_555
O11 V0 2.156783 1_556
O12 V3 1.783041 1_555
O12 V2 1.843121 1_555
O13 P0 1.542611 1_556
O13 V2 1.895495 1_555
O14 P3 1.558396 1_555
O14 V0 2.090952 1_656
O15 P0 1.555006 1_565
O15 V1 1.915749 1_655
O16 P3 1.538558 1_555
O16 V1 1.965780 1_655
O17 V1 1.846223 1_655
O17 V0 1.976796 1_655
O18 P2 1.548027 1_555
O18 V3 2.156785 1_565
O19 P3 1.550504 1_555
O19 V2 1.920511 1_555
