# generated using pymatgen
data_Li9Mn2Co5O16
_symmetry_space_group_name_H-M   'P 1'
_cell_length_a   3.02531000
_cell_length_b   5.06431151
_cell_length_c   19.12054897
_cell_angle_alpha   91.94924583
_cell_angle_beta   93.81774477
_cell_angle_gamma   91.90892968
_symmetry_Int_Tables_number   1
_chemical_formula_structural   Li9Mn2Co5O16
_chemical_formula_sum   'Li9 Mn2 Co5 O16'
_cell_volume   291.94289502
_cell_formula_units_Z   1
loop_
 _symmetry_equiv_pos_site_id
 _symmetry_equiv_pos_as_xyz
  1  'x, y, z'
loop_
 _atom_site_type_symbol
 _atom_site_label
 _atom_site_symmetry_multiplicity
 _atom_site_fract_x
 _atom_site_fract_y
 _atom_site_fract_z
 _atom_site_occupancy
  Li  Li0  1  0.51014200  0.37034900  0.62476200  1
  Li  Li1  1  0.00000000  0.50000000  0.50000000  1
  Li  Li2  1  0.48985800  0.62965100  0.37523800  1
  Li  Li3  1  0.99591300  0.75114400  0.25101600  1
  Li  Li4  1  0.49876000  0.87464500  0.12524400  1
  Li  Li5  1  0.00000000  0.00000000  0.00000000  1
  Li  Li6  1  0.50124000  0.12535500  0.87475600  1
  Li  Li7  1  0.00408700  0.24885600  0.74898400  1
  Li  Li8  1  0.50000000  0.00000000  0.50000000  1
  Mn  Mn0  1  0.50284700  0.75344500  0.74991100  1
  Mn  Mn1  1  0.49715300  0.24655500  0.25008900  1
  Co  Co0  1  0.01440200  0.87537100  0.61923900  1
  Co  Co1  1  0.98559800  0.12462900  0.38076100  1
  Co  Co2  1  0.01438000  0.37488400  0.12411500  1
  Co  Co3  1  0.50000000  0.50000000  0.00000000  1
  Co  Co4  1  0.98562000  0.62511600  0.87588500  1
  O  O0  1  0.02614900  0.59471900  0.68527900  1
  O  O1  1  0.53118600  0.69823400  0.56712700  1
  O  O2  1  0.99928500  0.84370000  0.43031900  1
  O  O3  1  0.52048800  0.95452300  0.31292100  1
  O  O4  1  0.02589000  0.08173000  0.18567100  1
  O  O5  1  0.54699200  0.20864000  0.06230200  1
  O  O6  1  0.97984500  0.33908100  0.93787500  1
  O  O7  1  0.52205900  0.45870700  0.81339500  1
  O  O8  1  0.00071500  0.15630000  0.56968100  1
  O  O9  1  0.46881400  0.30176600  0.43287300  1
  O  O10  1  0.97385100  0.40528100  0.31472100  1
  O  O11  1  0.47794100  0.54129300  0.18660500  1
  O  O12  1  0.02015500  0.66091900  0.06212500  1
  O  O13  1  0.45300800  0.79136000  0.93769800  1
  O  O14  1  0.97411000  0.91827000  0.81432900  1
  O  O15  1  0.47951200  0.04547700  0.68707900  1
loop_
_geom_bond_atom_site_label_1
_geom_bond_atom_site_label_2
_geom_bond_distance
_geom_bond_site_symmetry_2
Li0 O1 2.025480 1_555
Li0 O8 2.062613 1_555
Li0 O15 2.067150 1_555
Li0 O0 2.149154 1_655
Li0 O8 2.173611 1_655
Li0 O0 2.240768 1_555
Li1 O1 2.183550 1_555
Li1 O9 2.183550 1_455
Li1 O1 2.217308 1_455
Li1 O9 2.217308 1_555
Li1 O8 2.227659 1_555
Li1 O2 2.227659 1_455
Li2 O9 2.025480 1_555
Li2 O2 2.062613 1_555
Li2 O3 2.067150 1_555
Li2 O10 2.149154 1_455
Li2 O2 2.173611 1_455
Li2 O10 2.240768 1_555
Li3 O4 2.125910 1_665
Li3 O3 2.130372 1_655
Li3 O11 2.155179 1_555
Li3 O10 2.168938 1_555
Li3 O3 2.184741 1_555
Li3 O11 2.241914 1_655
Li4 O12 2.073304 1_555
Li4 O11 2.089978 1_555
Li4 O5 2.115682 1_565
Li4 O4 2.130436 1_665
Li4 O4 2.172324 1_565
Li4 O12 2.322626 1_655
Li5 O12 2.121238 1_545
Li5 O6 2.121238 1_454
Li5 O5 2.154532 1_455
Li5 O13 2.154532 1_544
Li5 O5 2.193016 1_555
Li5 O13 2.193016 1_444
Li6 O6 2.073304 1_555
Li6 O7 2.089978 1_555
Li6 O13 2.115682 1_545
Li6 O14 2.130436 1_445
Li6 O14 2.172324 1_545
Li6 O6 2.322626 1_455
Li7 O14 2.125910 1_445
Li7 O15 2.130372 1_455
Li7 O7 2.155179 1_555
Li7 O0 2.168938 1_555
Li7 O15 2.184741 1_555
Li7 O7 2.241914 1_455
Li8 O1 2.029461 1_545
Li8 O9 2.029461 1_555
Li8 O8 2.067841 1_655
Li8 O2 2.067841 1_445
Li8 O2 2.226920 1_545
Li8 O8 2.226920 1_555
Mn0 O15 1.937034 1_565
Mn0 O7 1.955617 1_555
Mn0 O14 1.965569 1_555
Mn0 O0 1.967495 1_555
Mn0 O0 2.226535 1_655
Mn0 O14 2.248099 1_455
Mn1 O3 1.937034 1_545
Mn1 O11 1.955617 1_555
Mn1 O4 1.965569 1_555
Mn1 O10 1.967495 1_555
Mn1 O10 2.226535 1_455
Mn1 O4 2.248099 1_655
Co0 O8 1.736127 1_565
Co0 O1 1.895394 1_455
Co0 O0 1.932700 1_555
Co0 O15 2.001200 1_565
Co0 O1 2.117068 1_555
Co0 O15 2.310773 1_465
Co1 O2 1.736127 1_545
Co1 O9 1.895394 1_655
Co1 O10 1.932700 1_555
Co1 O3 2.001200 1_545
Co1 O9 2.117068 1_555
Co1 O3 2.310773 1_645
Co2 O12 1.903006 1_555
Co2 O4 1.925479 1_555
Co2 O11 1.932423 1_555
Co2 O5 1.932751 1_455
Co2 O5 2.231217 1_555
Co2 O11 2.247776 1_455
Co3 O5 1.930672 1_555
Co3 O13 1.930672 1_554
Co3 O12 2.037463 1_655
Co3 O6 2.037463 1_454
Co3 O12 2.103597 1_555
Co3 O6 2.103597 1_554
Co4 O6 1.903006 1_555
Co4 O14 1.925479 1_555
Co4 O7 1.932423 1_555
Co4 O13 1.932751 1_655
Co4 O13 2.231217 1_555
Co4 O7 2.247776 1_655
