# generated using pymatgen
data_YbNi4Au
_symmetry_space_group_name_H-M   'P 1'
_cell_length_a   4.84040801
_cell_length_b   4.84040801
_cell_length_c   4.84040801
_cell_angle_alpha   60.00000000
_cell_angle_beta   60.00000000
_cell_angle_gamma   60.00000000
_symmetry_Int_Tables_number   1
_chemical_formula_structural   YbNi4Au
_chemical_formula_sum   'Yb1 Ni4 Au1'
_cell_volume   80.19197577
_cell_formula_units_Z   1
loop_
 _symmetry_equiv_pos_site_id
 _symmetry_equiv_pos_as_xyz
  1  'x, y, z'
loop_
 _atom_site_type_symbol
 _atom_site_label
 _atom_site_symmetry_multiplicity
 _atom_site_fract_x
 _atom_site_fract_y
 _atom_site_fract_z
 _atom_site_occupancy
  Yb  Yb0  1  0.25000000  0.25000000  0.25000000  1
  Ni  Ni0  1  0.62558142  0.62558142  0.62558142  1
  Ni  Ni1  1  0.62558142  0.62558142  0.12325573  1
  Ni  Ni2  1  0.62558142  0.12325573  0.62558142  1
  Ni  Ni3  1  0.12325573  0.62558142  0.62558142  1
  Au  Au0  1  0.00000000  0.00000000  0.00000000  1
loop_
_geom_bond_atom_site_label_1
_geom_bond_atom_site_label_2
_geom_bond_distance
_geom_bond_site_symmetry_2
Ni0 Ni2 2.408947 1_565
Ni0 Ni1 2.408947 1_556
Ni0 Ni3 2.408947 1_655
Ni0 Ni1 2.431461 1_555
Ni0 Ni2 2.431461 1_555
Ni0 Ni3 2.431461 1_555
Ni0 Yb0 2.839149 1_556
Ni0 Yb0 2.839149 1_655
Ni0 Yb0 2.839149 1_565
Ni1 Ni3 2.408947 1_654
Ni1 Ni2 2.408947 1_564
Ni1 Ni2 2.431461 1_555
Ni1 Ni3 2.431461 1_555
Ni1 Yb0 2.839149 1_655
Ni1 Yb0 2.839149 1_565
Ni1 Yb0 2.839149 1_555
Ni2 Ni3 2.408947 1_645
Ni2 Ni3 2.431461 1_555
Ni2 Yb0 2.839149 1_556
Ni2 Yb0 2.839149 1_655
Ni2 Yb0 2.839149 1_555
Ni3 Yb0 2.839149 1_556
Ni3 Yb0 2.839149 1_565
Ni3 Yb0 2.839149 1_555
Au0 Ni2 2.836749 1_454
Au0 Ni3 2.836749 1_544
Au0 Ni1 2.836749 1_445
Au0 Ni0 2.836749 1_445
Au0 Ni0 2.836749 1_454
Au0 Ni0 2.836749 1_544
Au0 Ni1 2.836749 1_455
Au0 Ni2 2.836749 1_554
Au0 Ni2 2.836749 1_455
Au0 Ni3 2.836749 1_554
Au0 Ni1 2.836749 1_545
Au0 Ni3 2.836749 1_545
Au0 Yb0 2.964132 1_545
Au0 Yb0 2.964132 1_555
Au0 Yb0 2.964132 1_554
Au0 Yb0 2.964132 1_455
