# generated using pymatgen
data_Zr2BN
_symmetry_space_group_name_H-M   'P 1'
_cell_length_a   5.86086492
_cell_length_b   5.86086492
_cell_length_c   5.86086461
_cell_angle_alpha   33.06532848
_cell_angle_beta   33.06532848
_cell_angle_gamma   33.06533389
_symmetry_Int_Tables_number   1
_chemical_formula_structural   Zr2BN
_chemical_formula_sum   'Zr2 B1 N1'
_cell_volume   53.33591231
_cell_formula_units_Z   1
loop_
 _symmetry_equiv_pos_site_id
 _symmetry_equiv_pos_as_xyz
  1  'x, y, z'
loop_
 _atom_site_type_symbol
 _atom_site_label
 _atom_site_symmetry_multiplicity
 _atom_site_fract_x
 _atom_site_fract_y
 _atom_site_fract_z
 _atom_site_occupancy
  Zr  Zr0  1  0.25246418  0.25246418  0.25246418  1
  Zr  Zr1  1  0.74753582  0.74753582  0.74753582  1
  B  B0  1  0.50000000  0.50000000  0.50000000  1
  N  N0  1  -0.00000000  -0.00000000  0.00000000  1
loop_
_geom_bond_atom_site_label_1
_geom_bond_atom_site_label_2
_geom_bond_distance
_geom_bond_site_symmetry_2
B0 Zr0 2.395548 1_556
B0 Zr1 2.395548 1_554
B0 Zr0 2.395548 1_655
B0 Zr0 2.395548 1_565
B0 Zr1 2.395548 1_455
B0 Zr1 2.395548 1_545
N0 Zr1 2.347793 1_445
N0 Zr0 2.347793 1_554
N0 Zr1 2.347794 1_544
N0 Zr1 2.347794 1_454
N0 Zr0 2.347794 1_545
N0 Zr0 2.347794 1_455
