# generated using pymatgen
data_BaSi3SnO9
_symmetry_space_group_name_H-M   'P 1'
_cell_length_a   6.83229745
_cell_length_b   6.83229745
_cell_length_c   9.99143800
_cell_angle_alpha   90.00000000
_cell_angle_beta   90.00000000
_cell_angle_gamma   119.99999468
_symmetry_Int_Tables_number   1
_chemical_formula_structural   BaSi3SnO9
_chemical_formula_sum   'Ba2 Si6 Sn2 O18'
_cell_volume   403.91704812
_cell_formula_units_Z   2
loop_
 _symmetry_equiv_pos_site_id
 _symmetry_equiv_pos_as_xyz
  1  'x, y, z'
loop_
 _atom_site_type_symbol
 _atom_site_label
 _atom_site_symmetry_multiplicity
 _atom_site_fract_x
 _atom_site_fract_y
 _atom_site_fract_z
 _atom_site_occupancy
  Ba  Ba0  1  0.33333300  0.66666700  0.50000000  1
  Ba  Ba1  1  0.33333300  0.66666700  0.00000000  1
  Si  Si0  1  0.73123100  0.11552700  0.75000000  1
  Si  Si1  1  0.88447300  0.61570400  0.75000000  1
  Si  Si2  1  0.38429600  0.26876900  0.75000000  1
  Si  Si3  1  0.38429600  0.11552700  0.25000000  1
  Si  Si4  1  0.88447300  0.26876900  0.25000000  1
  Si  Si5  1  0.73123100  0.61570400  0.25000000  1
  Sn  Sn0  1  0.00000000  0.00000000  0.50000000  1
  Sn  Sn1  1  0.00000000  0.00000000  0.00000000  1
  O  O0  1  0.24750200  0.25773300  0.61428900  1
  O  O1  1  0.74226700  0.75249800  0.38571100  1
  O  O2  1  0.74226700  0.98976900  0.61428900  1
  O  O3  1  0.01023100  0.75249800  0.61428900  1
  O  O4  1  0.74226700  0.98976900  0.88571100  1
  O  O5  1  0.01023100  0.75249800  0.88571100  1
  O  O6  1  0.24750200  0.25773300  0.88571100  1
  O  O7  1  0.01023100  0.25773300  0.11428900  1
  O  O8  1  0.24750200  0.98976900  0.11428900  1
  O  O9  1  0.24750200  0.98976900  0.38571100  1
  O  O10  1  0.91576400  0.52625700  0.25000000  1
  O  O11  1  0.61049300  0.08423600  0.25000000  1
  O  O12  1  0.47374300  0.38950700  0.25000000  1
  O  O13  1  0.47374300  0.08423600  0.75000000  1
  O  O14  1  0.61049300  0.52625700  0.75000000  1
  O  O15  1  0.91576400  0.38950700  0.75000000  1
  O  O16  1  0.74226700  0.75249800  0.11428900  1
  O  O17  1  0.01023100  0.25773300  0.38571100  1
loop_
_geom_bond_atom_site_label_1
_geom_bond_atom_site_label_2
_geom_bond_distance
_geom_bond_site_symmetry_2
Ba0 O3 2.795636 1_555
Ba0 O9 2.795636 1_555
Ba0 O17 2.795641 1_555
Ba0 O2 2.795641 1_555
Ba0 O0 2.795643 1_555
Ba0 O1 2.795643 1_555
Ba1 O5 2.795636 1_554
Ba1 O8 2.795636 1_555
Ba1 O4 2.795641 1_554
Ba1 O7 2.795641 1_555
Ba1 O16 2.795643 1_555
Ba1 O6 2.795643 1_554
O0 Si2 1.627058 1_555
O0 Sn0 2.070400 1_555
O1 Si5 1.627058 1_555
O1 Sn0 2.070400 1_665
O2 Si0 1.627058 1_565
O2 Sn0 2.070400 1_665
O3 Si1 1.627058 1_455
O3 Sn0 2.070400 1_565
O4 Si0 1.627058 1_565
O4 Sn1 2.070400 1_666
O5 Si1 1.627058 1_455
O5 Sn1 2.070400 1_566
O6 Si2 1.627058 1_555
O6 Sn1 2.070400 1_556
O7 Si4 1.627058 1_455
O7 Sn1 2.070400 1_555
O8 Si3 1.627058 1_565
O8 Sn1 2.070400 1_565
O9 Si3 1.627058 1_565
O9 Sn0 2.070400 1_565
O10 Si5 1.653347 1_555
O10 Si4 1.662681 1_555
O11 Si4 1.653347 1_555
O11 Si3 1.662681 1_555
O12 Si3 1.653347 1_555
O12 Si5 1.662681 1_555
O13 Si2 1.653347 1_555
O13 Si0 1.662681 1_555
O14 Si1 1.653347 1_555
O14 Si2 1.662681 1_555
O15 Si0 1.653347 1_555
O15 Si1 1.662681 1_555
O16 Si5 1.627058 1_555
O16 Sn1 2.070400 1_665
O17 Si4 1.627058 1_455
O17 Sn0 2.070400 1_555
