# generated using pymatgen
data_Yb(BRu)4
_symmetry_space_group_name_H-M   'P 1'
_cell_length_a   9.23402406
_cell_length_b   9.23402406
_cell_length_c   9.23402406
_cell_angle_alpha   132.68933014
_cell_angle_beta   132.68933014
_cell_angle_gamma   69.14245970
_symmetry_Int_Tables_number   1
_chemical_formula_structural   Yb(BRu)4
_chemical_formula_sum   'Yb4 B16 Ru16'
_cell_volume   417.49403010
_cell_formula_units_Z   4
loop_
 _symmetry_equiv_pos_site_id
 _symmetry_equiv_pos_as_xyz
  1  'x, y, z'
loop_
 _atom_site_type_symbol
 _atom_site_label
 _atom_site_symmetry_multiplicity
 _atom_site_fract_x
 _atom_site_fract_y
 _atom_site_fract_z
 _atom_site_occupancy
  Yb  Yb0  1  0.75000000  0.75000000  0.00000000  1
  Yb  Yb1  1  0.25000000  0.25000000  0.00000000  1
  Yb  Yb2  1  0.00000000  0.50000000  0.50000000  1
  Yb  Yb3  1  0.50000000  0.00000000  0.50000000  1
  B  B0  1  0.71865300  0.41349000  0.96947400  1
  B  B1  1  0.21865300  0.24917800  0.30516300  1
  B  B2  1  0.66349000  0.46865300  0.46947400  1
  B  B3  1  0.16349000  0.69401500  0.19483700  1
  B  B4  1  0.03134700  0.83651000  0.53052600  1
  B  B5  1  0.53134700  0.00082200  0.19483700  1
  B  B6  1  0.08651000  0.78134700  0.03052600  1
  B  B7  1  0.58651000  0.55598500  0.30516300  1
  B  B8  1  0.94401500  0.91349000  0.69483700  1
  B  B9  1  0.44401500  0.74917800  0.03052600  1
  B  B10  1  0.49917800  0.96865300  0.80516300  1
  B  B11  1  0.99917800  0.19401500  0.53052600  1
  B  B12  1  0.80598500  0.33651000  0.80516300  1
  B  B13  1  0.30598500  0.50082200  0.46947400  1
  B  B14  1  0.25082200  0.28134700  0.69483700  1
  B  B15  1  0.75082200  0.05598500  0.96947400  1
  Ru  Ru0  1  0.03648900  0.57263500  0.23168800  1
  Ru  Ru1  1  0.53648900  0.30480200  0.46385500  1
  Ru  Ru2  1  0.82263500  0.78648900  0.73168800  1
  Ru  Ru3  1  0.32263500  0.59094700  0.03614500  1
  Ru  Ru4  1  0.71351100  0.67736500  0.26831200  1
  Ru  Ru5  1  0.21351100  0.94519800  0.03614500  1
  Ru  Ru6  1  0.92736500  0.46351100  0.76831200  1
  Ru  Ru7  1  0.42736500  0.65905300  0.46385500  1
  Ru  Ru8  1  0.84094700  0.07263500  0.53614500  1
  Ru  Ru9  1  0.34094700  0.80480200  0.76831200  1
  Ru  Ru10  1  0.55480200  0.28648900  0.96385500  1
  Ru  Ru11  1  0.05480200  0.09094700  0.26831200  1
  Ru  Ru12  1  0.90905300  0.17736500  0.96385500  1
  Ru  Ru13  1  0.40905300  0.44519800  0.73168800  1
  Ru  Ru14  1  0.19519800  0.96351100  0.53614500  1
  Ru  Ru15  1  0.69519800  0.15905300  0.23168800  1
loop_
_geom_bond_atom_site_label_1
_geom_bond_atom_site_label_2
_geom_bond_distance
_geom_bond_site_symmetry_2
B0 B12 1.801705 1_555
B0 Ru4 2.128758 1_556
B0 Ru10 2.177544 1_555
B0 Ru13 2.200787 1_555
B0 Ru12 2.255749 1_555
B0 Ru0 2.290335 1_656
B0 Yb3 2.936502 1_555
B0 Yb0 3.026700 1_556
B0 Yb2 3.209232 1_656
B1 B13 1.801716 1_555
B1 Ru5 2.128760 1_545
B1 Ru11 2.177529 1_555
B1 Ru12 2.200789 1_454
B1 Ru13 2.255749 1_555
B1 Ru1 2.290336 1_555
B1 Yb2 2.936503 1_555
B1 Yb1 3.026706 1_555
B1 Yb3 3.209225 1_555
B2 B7 1.801705 1_555
B2 Ru6 2.128758 1_555
B2 Ru1 2.177544 1_555
B2 Ru15 2.200787 1_555
B2 Ru7 2.255749 1_555
B2 Ru2 2.290335 1_555
B2 Yb1 2.936502 1_555
B2 Yb2 3.026700 1_655
B2 Yb0 3.209232 1_556
B3 B6 1.801705 1_555
B3 Ru7 2.128757 1_555
B3 Ru0 2.177537 1_555
B3 Ru14 2.200791 1_555
B3 Ru6 2.255748 1_454
B3 Ru3 2.290344 1_555
B3 Yb0 2.936503 1_455
B3 Yb3 3.026706 1_565
B3 Yb1 3.209225 1_555
B4 B8 1.801705 1_455
B4 Ru0 2.128758 1_555
B4 Ru14 2.177544 1_555
B4 Ru9 2.200787 1_555
B4 Ru8 2.255749 1_465
B4 Ru4 2.290335 1_455
B4 Yb1 2.936502 1_566
B4 Yb2 3.026700 1_555
B4 Yb0 3.209232 1_455
B5 B9 1.801716 1_545
B5 Ru1 2.128760 1_555
B5 Ru15 2.177529 1_555
B5 Ru8 2.200789 1_555
B5 Ru9 2.255749 1_544
B5 Ru5 2.290336 1_545
B5 Yb0 2.936503 1_545
B5 Yb3 3.026706 1_555
B5 Yb1 3.209225 1_555
B6 Ru2 2.128758 1_454
B6 Ru5 2.177544 1_555
B6 Ru11 2.200787 1_565
B6 Ru3 2.255749 1_555
B6 Ru6 2.290335 1_454
B6 Yb3 2.936502 1_565
B6 Yb0 3.026700 1_455
B6 Yb2 3.209232 1_554
B7 Ru3 2.128757 1_555
B7 Ru4 2.177537 1_555
B7 Ru10 2.200791 1_554
B7 Ru2 2.255748 1_555
B7 Ru7 2.290344 1_555
B7 Yb2 2.936503 1_655
B7 Yb1 3.026706 1_555
B7 Yb3 3.209225 1_565
B8 Ru12 2.128757 1_565
B8 Ru2 2.177537 1_555
B8 Ru5 2.200791 1_656
B8 Ru4 2.255748 1_555
B8 Ru8 2.290344 1_565
B8 Yb2 2.936503 1_655
B8 Yb1 3.026706 1_666
B8 Yb3 3.209225 1_565
B9 Ru13 2.128760 1_554
B9 Ru3 2.177522 1_555
B9 Ru4 2.200789 1_555
B9 Ru5 2.255741 1_555
B9 Ru9 2.290353 1_554
B9 Yb3 2.936496 1_565
B9 Yb0 3.026713 1_555
B9 Yb2 3.209226 1_554
B10 B15 1.801716 1_565
B10 Ru14 2.128760 1_555
B10 Ru9 2.177529 1_555
B10 Ru7 2.200789 1_555
B10 Ru15 2.255749 1_566
B10 Ru10 2.290336 1_565
B10 Yb0 2.936503 1_556
B10 Yb3 3.026706 1_565
B10 Yb1 3.209225 1_566
B11 B14 1.801716 1_655
B11 Ru15 2.128760 1_555
B11 Ru8 2.177522 1_555
B11 Ru6 2.200789 1_555
B11 Ru14 2.255741 1_645
B11 Ru11 2.290353 1_655
B11 Yb1 2.936496 1_656
B11 Yb2 3.026713 1_655
B11 Yb0 3.209226 1_545
B12 Ru8 2.128757 1_555
B12 Ru6 2.177537 1_555
B12 Ru1 2.200791 1_555
B12 Ru0 2.255748 1_656
B12 Ru12 2.290344 1_555
B12 Yb0 2.936503 1_556
B12 Yb3 3.026706 1_555
B12 Yb1 3.209225 1_656
B13 Ru9 2.128760 1_555
B13 Ru7 2.177522 1_555
B13 Ru0 2.200789 1_555
B13 Ru1 2.255741 1_555
B13 Ru13 2.290353 1_555
B13 Yb1 2.936496 1_555
B13 Yb2 3.026713 1_555
B13 Yb0 3.209226 1_556
B14 Ru10 2.128760 1_555
B14 Ru13 2.177529 1_555
B14 Ru3 2.200789 1_556
B14 Ru11 2.255749 1_555
B14 Ru14 2.290336 1_545
B14 Yb2 2.936503 1_555
B14 Yb1 3.026706 1_556
B14 Yb3 3.209225 1_555
B15 Ru11 2.128760 1_656
B15 Ru12 2.177522 1_555
B15 Ru2 2.200789 1_545
B15 Ru10 2.255741 1_555
B15 Ru15 2.290353 1_556
B15 Yb3 2.936496 1_555
B15 Yb0 3.026713 1_546
B15 Yb2 3.209226 1_656
Ru0 Yb0 2.872145 1_455
Ru0 Yb1 3.199052 1_555
Ru0 Yb2 3.201291 1_555
Ru1 Yb1 2.872148 1_555
Ru1 Yb0 3.199045 1_556
Ru1 Yb3 3.201293 1_555
Ru2 Yb2 2.872145 1_655
Ru2 Yb3 3.199052 1_565
Ru2 Yb0 3.201291 1_556
Ru3 Yb3 2.872147 1_565
Ru3 Yb2 3.199045 1_554
Ru3 Yb1 3.201297 1_555
Ru4 Yb2 2.872145 1_655
Ru4 Yb3 3.199052 1_565
Ru4 Yb0 3.201291 1_555
Ru5 Yb3 2.872148 1_565
Ru5 Yb2 3.199045 1_554
Ru5 Yb1 3.201293 1_565
Ru6 Yb0 2.872145 1_556
Ru6 Yb1 3.199052 1_656
Ru6 Yb2 3.201291 1_655
Ru7 Yb1 2.872147 1_555
Ru7 Yb0 3.199045 1_556
Ru7 Yb3 3.201297 1_565
Ru8 Yb1 2.872147 1_656
Ru8 Yb0 3.199045 1_545
Ru8 Yb3 3.201297 1_555
Ru9 Yb0 2.872147 1_556
Ru9 Yb1 3.199045 1_566
Ru9 Yb2 3.201297 1_555
Ru10 Yb3 2.872148 1_555
Ru10 Yb2 3.199045 1_656
Ru10 Yb1 3.201293 1_556
Ru11 Yb2 2.872147 1_555
Ru11 Yb3 3.199045 1_555
Ru11 Yb0 3.201297 1_445
Ru12 Yb3 2.872147 1_555
Ru12 Yb2 3.199045 1_656
Ru12 Yb1 3.201297 1_656
Ru13 Yb2 2.872147 1_555
Ru13 Yb3 3.199045 1_555
Ru13 Yb0 3.201297 1_556
Ru14 Yb1 2.872148 1_566
Ru14 Yb0 3.199045 1_455
Ru14 Yb3 3.201293 1_565
Ru15 Yb0 2.872147 1_545
Ru15 Yb1 3.199045 1_555
Ru15 Yb2 3.201297 1_655
