# generated using pymatgen
data_BaSr7Ti5Mn3O20
_symmetry_space_group_name_H-M   'P 1'
_cell_length_a   11.27344039
_cell_length_b   11.45050761
_cell_length_c   18.03916757
_cell_angle_alpha   108.72217613
_cell_angle_beta   108.14421007
_cell_angle_gamma   89.73795273
_symmetry_Int_Tables_number   1
_chemical_formula_structural   BaSr7Ti5Mn3O20
_chemical_formula_sum   'Ba4 Sr28 Ti20 Mn12 O80'
_cell_volume   2083.93416720
_cell_formula_units_Z   4
loop_
 _symmetry_equiv_pos_site_id
 _symmetry_equiv_pos_as_xyz
  1  'x, y, z'
loop_
 _atom_site_type_symbol
 _atom_site_label
 _atom_site_symmetry_multiplicity
 _atom_site_fract_x
 _atom_site_fract_y
 _atom_site_fract_z
 _atom_site_occupancy
  Ba  Ba0  1  0.30825900  0.06227300  0.11587700  1
  Ba  Ba1  1  0.31488400  0.56082200  0.11696800  1
  Ba  Ba2  1  0.81042700  0.06689200  0.11708700  1
  Ba  Ba3  1  0.05813600  0.80145200  0.11270500  1
  Sr  Sr0  1  0.30686200  0.06180300  0.61010500  1
  Sr  Sr1  1  0.31302500  0.55902600  0.61122200  1
  Sr  Sr2  1  0.80711500  0.06384600  0.60773100  1
  Sr  Sr3  1  0.80501800  0.55952400  0.10752900  1
  Sr  Sr4  1  0.80306000  0.55816200  0.61105500  1
  Sr  Sr5  1  0.20083300  0.44026200  0.39344600  1
  Sr  Sr6  1  0.19827200  0.43757400  0.88884400  1
  Sr  Sr7  1  0.20147900  0.93470300  0.39464400  1
  Sr  Sr8  1  0.20417200  0.93823800  0.89002500  1
  Sr  Sr9  1  0.70009600  0.43708400  0.39578100  1
  Sr  Sr10  1  0.69639500  0.44215300  0.88597900  1
  Sr  Sr11  1  0.69846500  0.93839600  0.38800500  1
  Sr  Sr12  1  0.68988800  0.93489900  0.88869400  1
  Sr  Sr13  1  0.05602800  0.29657500  0.10653200  1
  Sr  Sr14  1  0.05362000  0.29443400  0.61027800  1
  Sr  Sr15  1  0.05775400  0.80608200  0.61228100  1
  Sr  Sr16  1  0.55227600  0.29352000  0.10294500  1
  Sr  Sr17  1  0.56094400  0.29630000  0.60877700  1
  Sr  Sr18  1  0.56139000  0.79951000  0.11157100  1
  Sr  Sr19  1  0.56038300  0.79848000  0.60988900  1
  Sr  Sr20  1  0.44831200  0.20401800  0.39333300  1
  Sr  Sr21  1  0.44204200  0.19418200  0.88731600  1
  Sr  Sr22  1  0.44962200  0.69951300  0.39108300  1
  Sr  Sr23  1  0.44898400  0.70515600  0.88976800  1
  Sr  Sr24  1  0.94686700  0.20807000  0.39313400  1
  Sr  Sr25  1  0.95059300  0.19856300  0.88664300  1
  Sr  Sr26  1  0.94829100  0.70330500  0.39329500  1
  Sr  Sr27  1  0.94539300  0.69779800  0.88837400  1
  Ti  Ti0  1  0.99484400  0.99010900  0.98179400  1
  Ti  Ti1  1  0.00327000  0.99970100  0.49844200  1
  Ti  Ti2  1  0.99709500  0.49098600  0.98578200  1
  Ti  Ti3  1  0.00967100  0.50831800  0.51111200  1
  Ti  Ti4  1  0.50308600  0.99889300  0.00089400  1
  Ti  Ti5  1  0.50564900  0.99874700  0.49877100  1
  Ti  Ti6  1  0.49834600  0.49162500  0.98505000  1
  Ti  Ti7  1  0.50414900  0.49924800  0.49978600  1
  Ti  Ti8  1  0.25237600  0.24887900  0.99775800  1
  Ti  Ti9  1  0.25908200  0.25298600  0.50843200  1
  Ti  Ti10  1  0.25552900  0.74913300  0.99768100  1
  Ti  Ti11  1  0.26237400  0.75468300  0.51386900  1
  Ti  Ti12  1  0.74769600  0.24783800  0.98864300  1
  Ti  Ti13  1  0.75306300  0.24759400  0.49822600  1
  Ti  Ti14  1  0.75102700  0.74896400  0.99839400  1
  Ti  Ti15  1  0.76012000  0.75366700  0.50855800  1
  Ti  Ti16  1  0.11546800  0.09400400  0.25980200  1
  Ti  Ti17  1  0.10861900  0.58232700  0.24989200  1
  Ti  Ti18  1  0.63124500  0.58375900  0.25443800  1
  Ti  Ti19  1  0.83798100  0.42104600  0.25056400  1
  Mn  Mn0  1  0.10896400  0.09410500  0.74870800  1
  Mn  Mn1  1  0.10959400  0.59297100  0.75152700  1
  Mn  Mn2  1  0.61419300  0.10071000  0.25214600  1
  Mn  Mn3  1  0.60657600  0.09125300  0.74643900  1
  Mn  Mn4  1  0.60836900  0.59374400  0.74862800  1
  Mn  Mn5  1  0.36939200  0.39664400  0.25194000  1
  Mn  Mn6  1  0.35587400  0.40895100  0.74833100  1
  Mn  Mn7  1  0.37318200  0.90634500  0.25358800  1
  Mn  Mn8  1  0.36042700  0.90899200  0.75240500  1
  Mn  Mn9  1  0.85688500  0.40499500  0.74524400  1
  Mn  Mn10  1  0.85981400  0.89388200  0.25200300  1
  Mn  Mn11  1  0.85420300  0.90960500  0.74640700  1
  O  O0  1  0.12605600  0.12370200  0.49014900  1
  O  O1  1  0.12024700  0.12180100  0.99138700  1
  O  O2  1  0.12607500  0.62190800  0.49012000  1
  O  O3  1  0.12257300  0.61819100  0.99139700  1
  O  O4  1  0.62581800  0.12109200  0.49127800  1
  O  O5  1  0.62698700  0.12807700  0.99249300  1
  O  O6  1  0.62711700  0.62285600  0.49070000  1
  O  O7  1  0.62426500  0.61946000  0.99224300  1
  O  O8  1  0.12739400  0.37726400  0.00486100  1
  O  O9  1  0.13050100  0.37739200  0.50332500  1
  O  O10  1  0.12618000  0.87862900  0.00232200  1
  O  O11  1  0.13609200  0.87307100  0.50629400  1
  O  O12  1  0.63250900  0.37975600  0.00589400  1
  O  O13  1  0.63242700  0.37774300  0.50695400  1
  O  O14  1  0.63138700  0.87471100  0.00568100  1
  O  O15  1  0.63508000  0.87346200  0.50564400  1
  O  O16  1  0.37234300  0.12019800  0.49068900  1
  O  O17  1  0.37378200  0.12160700  0.99137400  1
  O  O18  1  0.37278400  0.62154700  0.49100300  1
  O  O19  1  0.37976200  0.61819300  0.99328300  1
  O  O20  1  0.87747900  0.11819900  0.49176600  1
  O  O21  1  0.87724500  0.12395200  0.99484100  1
  O  O22  1  0.87743300  0.62109600  0.49303800  1
  O  O23  1  0.87532600  0.61566300  0.99201300  1
  O  O24  1  0.38456400  0.37864400  0.00327900  1
  O  O25  1  0.38184000  0.37975000  0.50849200  1
  O  O26  1  0.38300600  0.87683100  0.00375300  1
  O  O27  1  0.38078700  0.87509400  0.50682500  1
  O  O28  1  0.88326900  0.38022100  0.00699600  1
  O  O29  1  0.88675000  0.38460200  0.50801300  1
  O  O30  1  0.88085900  0.88149800  0.00244600  1
  O  O31  1  0.88323000  0.87840600  0.50767700  1
  O  O32  1  0.08678300  0.11197300  0.15837300  1
  O  O33  1  0.07510400  0.07740000  0.62334400  1
  O  O34  1  0.08004400  0.59078900  0.14601800  1
  O  O35  1  0.07618700  0.58483000  0.62608000  1
  O  O36  1  0.56799600  0.08033700  0.12339600  1
  O  O37  1  0.57037700  0.07762300  0.62211900  1
  O  O38  1  0.59538000  0.60061500  0.15161100  1
  O  O39  1  0.57006500  0.58274400  0.62397200  1
  O  O40  1  0.44228000  0.41800500  0.37598600  1
  O  O41  1  0.44716700  0.41490400  0.87041100  1
  O  O42  1  0.44778800  0.91325100  0.37530900  1
  O  O43  1  0.44919800  0.92299500  0.87512700  1
  O  O44  1  0.92707900  0.41400300  0.35620400  1
  O  O45  1  0.94295400  0.41611700  0.87075000  1
  O  O46  1  0.94929700  0.91324000  0.37512500  1
  O  O47  1  0.94349000  0.91824100  0.86876600  1
  O  O48  1  0.31789400  0.30434600  0.12420000  1
  O  O49  1  0.32030400  0.29510300  0.62472900  1
  O  O50  1  0.32256000  0.80336000  0.12582800  1
  O  O51  1  0.32266600  0.79252200  0.62769600  1
  O  O52  1  0.81903700  0.31934100  0.14068200  1
  O  O53  1  0.82307800  0.29439000  0.62287000  1
  O  O54  1  0.81847800  0.79406900  0.12525600  1
  O  O55  1  0.82243700  0.79158400  0.62522300  1
  O  O56  1  0.19574200  0.21246100  0.36091700  1
  O  O57  1  0.19345200  0.20577900  0.87409300  1
  O  O58  1  0.19376600  0.70275200  0.34882900  1
  O  O59  1  0.19816800  0.70288100  0.87591000  1
  O  O60  1  0.70537200  0.20818200  0.37718800  1
  O  O61  1  0.69713500  0.20694700  0.87326500  1
  O  O62  1  0.70325600  0.70403000  0.35811500  1
  O  O63  1  0.69670800  0.70104000  0.87462800  1
  O  O64  1  0.44098100  0.07471400  0.26034000  1
  O  O65  1  0.42552400  0.07417700  0.74816600  1
  O  O66  1  0.46585100  0.55582000  0.26001500  1
  O  O67  1  0.42576600  0.57506500  0.75029400  1
  O  O68  1  0.95814000  0.05873500  0.26143000  1
  O  O69  1  0.92426200  0.07443900  0.74665400  1
  O  O70  1  0.94880600  0.55880400  0.25287600  1
  O  O71  1  0.92661000  0.57422100  0.74931500  1
  O  O72  1  0.18270000  0.43940300  0.25039300  1
  O  O73  1  0.17432100  0.42339100  0.74871300  1
  O  O74  1  0.19277100  0.95319400  0.26008700  1
  O  O75  1  0.17758200  0.92630000  0.75079700  1
  O  O76  1  0.66586000  0.41065200  0.24949000  1
  O  O77  1  0.67566400  0.42435800  0.74710100  1
  O  O78  1  0.68342000  0.93398600  0.24992700  1
  O  O79  1  0.67428600  0.92495300  0.74998700  1
loop_
_geom_bond_atom_site_label_1
_geom_bond_atom_site_label_2
_geom_bond_distance
_geom_bond_site_symmetry_2
Ba0 O64 2.526926 1_555
Ba0 O48 2.728182 1_555
Ba0 O10 2.736200 1_545
Ba0 O26 2.756439 1_545
Ba0 O1 2.829336 1_554
Ba0 O32 2.836292 1_555
Ba0 O17 2.840570 1_554
Ba0 O36 2.894010 1_555
Ba0 O50 3.027675 1_545
Ba1 O66 2.630069 1_555
Ba1 O24 2.723340 1_555
Ba1 O50 2.730278 1_555
Ba1 O8 2.761290 1_555
Ba1 O19 2.811819 1_554
Ba1 O34 2.853368 1_555
Ba1 O3 2.854202 1_554
Ba1 O48 2.980794 1_555
Ba1 O38 3.032654 1_555
Ba2 O68 2.648738 1_555
Ba2 O30 2.757300 1_545
Ba2 O14 2.762331 1_545
Ba2 O36 2.772137 1_555
Ba2 O52 2.780925 1_555
Ba2 O21 2.796659 1_554
Ba2 O5 2.814569 1_554
Ba2 O32 2.974921 1_655
Ba2 O54 3.173908 1_545
Ba3 O74 2.633718 1_555
Ba3 O34 2.659607 1_555
Ba3 O10 2.724240 1_555
Ba3 O30 2.732776 1_455
Ba3 O3 2.783521 1_554
Ba3 O54 2.784480 1_455
Ba3 O23 2.790224 1_454
Ba3 O50 2.915554 1_555
Mn0 O75 2.075217 1_545
Mn0 O69 2.082938 1_455
Mn0 O57 2.114455 1_555
Mn0 O33 2.117035 1_555
Mn1 O71 2.061640 1_455
Mn1 O73 2.062126 1_555
Mn1 O59 2.102079 1_555
Mn1 O35 2.146068 1_555
Mn2 O64 2.033913 1_555
Mn2 O78 2.052317 1_545
Mn2 O60 2.108196 1_555
Mn2 O36 2.149373 1_555
Mn3 O79 2.060905 1_545
Mn3 O65 2.062127 1_555
Mn3 O37 2.103847 1_555
Mn3 O61 2.154862 1_555
Mn4 O77 2.074473 1_555
Mn4 O67 2.081111 1_555
Mn4 O39 2.114909 1_555
Mn4 O63 2.115697 1_555
Mn5 O40 2.060959 1_555
Mn5 O66 2.067555 1_555
Mn5 O48 2.091153 1_555
Mn5 O72 2.152408 1_555
Mn6 O67 2.047710 1_555
Mn6 O73 2.054613 1_555
Mn6 O41 2.099121 1_555
Mn6 O49 2.100869 1_555
Mn7 O64 2.029932 1_565
Mn7 O42 2.067337 1_555
Mn7 O50 2.114271 1_555
Mn7 O74 2.129842 1_555
Mn8 O75 2.061979 1_555
Mn8 O65 2.064582 1_565
Mn8 O43 2.078917 1_555
Mn8 O51 2.122132 1_555
Mn9 O77 2.063438 1_555
Mn9 O71 2.065104 1_555
Mn9 O53 2.075580 1_555
Mn9 O45 2.128694 1_555
Mn10 O78 2.030513 1_555
Mn10 O46 2.071294 1_555
Mn10 O54 2.101144 1_555
Mn10 O68 2.125210 1_565
Mn11 O69 2.047501 1_565
Mn11 O79 2.054270 1_555
Mn11 O55 2.086559 1_555
Mn11 O47 2.090926 1_555
O0 Ti9 1.986976 1_555
O0 Ti1 2.058592 1_545
O0 Sr7 2.622330 1_545
O0 Sr24 2.634837 1_455
O0 Sr14 2.748208 1_555
O0 Sr0 2.750244 1_555
O1 Ti0 2.000514 1_445
O1 Ti8 2.038419 1_555
O1 Sr25 2.607830 1_455
O1 Sr13 2.664276 1_556
O1 Sr8 2.692303 1_545
O2 Ti11 2.012271 1_555
O2 Ti3 2.049019 1_555
O2 Sr5 2.578465 1_555
O2 Sr26 2.604631 1_455
O2 Sr1 2.803752 1_555
O2 Sr15 2.820588 1_555
O3 Ti2 1.991917 1_455
O3 Ti10 2.076812 1_555
O3 Sr6 2.634181 1_555
O3 Sr27 2.652044 1_455
O4 Ti13 1.990511 1_555
O4 Ti5 2.017189 1_545
O4 Sr20 2.623997 1_555
O4 Sr11 2.636355 1_545
O4 Sr2 2.686559 1_555
O4 Sr17 2.697156 1_555
O5 Ti12 1.968303 1_555
O5 Ti4 2.111098 1_546
O5 Sr16 2.622129 1_556
O5 Sr21 2.638854 1_555
O5 Sr12 2.656221 1_545
O6 Ti15 2.001372 1_555
O6 Ti7 2.064046 1_555
O6 Sr9 2.580075 1_555
O6 Sr22 2.600120 1_555
O6 Sr19 2.729610 1_555
O6 Sr4 2.744741 1_555
O7 Ti6 1.989203 1_555
O7 Ti14 2.017035 1_555
O7 Sr10 2.629646 1_555
O7 Sr23 2.675148 1_555
O7 Sr3 2.685584 1_556
O7 Sr18 2.733944 1_556
O8 Ti2 1.981709 1_454
O8 Ti8 2.033549 1_554
O8 Sr13 2.622661 1_555
O8 Sr25 2.701142 1_454
O8 Sr6 2.733087 1_554
O9 Ti3 2.021893 1_555
O9 Ti9 2.030050 1_555
O9 Sr5 2.641174 1_555
O9 Sr24 2.644924 1_455
O9 Sr1 2.700744 1_555
O9 Sr14 2.757066 1_555
O10 Ti0 1.975721 1_454
O10 Ti10 2.075723 1_554
O10 Sr8 2.710167 1_554
O10 Sr27 2.713579 1_454
O11 Ti11 1.965493 1_555
O11 Ti1 2.084341 1_555
O11 Sr7 2.634347 1_555
O11 Sr15 2.650099 1_555
O11 Sr0 2.660464 1_565
O11 Sr26 2.687433 1_455
O12 Ti12 1.999189 1_554
O12 Ti6 2.001775 1_554
O12 Sr3 2.602666 1_555
O12 Sr16 2.638635 1_555
O12 Sr10 2.770501 1_554
O12 Sr21 2.822157 1_554
O13 Ti7 2.006077 1_555
O13 Ti13 2.014807 1_555
O13 Sr4 2.605900 1_555
O13 Sr9 2.626393 1_555
O13 Sr17 2.630843 1_555
O13 Sr20 2.690160 1_555
O14 Ti14 1.969972 1_554
O14 Ti4 2.025751 1_555
O14 Sr18 2.648362 1_555
O14 Sr23 2.668792 1_554
O14 Sr12 2.677342 1_554
O15 Ti15 1.963128 1_555
O15 Ti5 2.045681 1_555
O15 Sr19 2.647998 1_555
O15 Sr2 2.672475 1_565
O15 Sr22 2.704424 1_555
O15 Sr11 2.743902 1_555
O16 Ti9 1.992238 1_555
O16 Ti5 2.046527 1_545
O16 Sr20 2.601027 1_555
O16 Sr7 2.611520 1_545
O16 Sr0 2.748099 1_555
O16 Sr17 2.754153 1_555
O17 Ti8 1.995618 1_555
O17 Ti4 2.027081 1_546
O17 Sr21 2.590995 1_555
O17 Sr8 2.608136 1_545
O17 Sr16 2.635396 1_556
O18 Ti11 1.985492 1_555
O18 Ti7 2.038794 1_555
O18 Sr5 2.594358 1_555
O18 Sr22 2.609367 1_555
O18 Sr1 2.753257 1_555
O18 Sr19 2.757121 1_555
O19 Ti6 1.969102 1_555
O19 Ti10 2.046805 1_555
O19 Sr6 2.673867 1_555
O19 Sr23 2.682498 1_555
O19 Sr18 2.744071 1_556
O20 Ti1 1.961508 1_645
O20 Ti13 2.036678 1_555
O20 Sr24 2.624153 1_555
O20 Sr11 2.650757 1_545
O20 Sr14 2.684941 1_655
O20 Sr2 2.695643 1_555
O21 Ti0 2.026317 1_545
O21 Ti12 2.034435 1_555
O21 Sr13 2.641853 1_656
O21 Sr25 2.702823 1_555
O21 Sr12 2.770520 1_545
O22 Ti3 1.986529 1_655
O22 Ti15 2.017721 1_555
O22 Sr26 2.598264 1_555
O22 Sr9 2.644869 1_555
O22 Sr15 2.763536 1_655
O22 Sr4 2.802987 1_555
O23 Ti2 1.977458 1_555
O23 Ti14 2.067540 1_555
O23 Sr10 2.620862 1_555
O23 Sr27 2.656881 1_555
O23 Sr3 2.697589 1_556
O24 Ti6 1.994519 1_554
O24 Ti8 2.066712 1_554
O24 Sr16 2.597730 1_555
O24 Sr21 2.693026 1_554
O24 Sr6 2.703415 1_554
O25 Ti9 2.009606 1_555
O25 Ti7 2.021938 1_555
O25 Sr1 2.586262 1_555
O25 Sr17 2.660768 1_555
O25 Sr20 2.682974 1_555
O25 Sr5 2.687691 1_555
O26 Ti4 1.973767 1_555
O26 Ti10 2.008403 1_554
O26 Sr23 2.643818 1_554
O26 Sr8 2.665501 1_554
O26 Sr18 2.695171 1_555
O27 Ti11 1.983460 1_555
O27 Ti5 2.070005 1_555
O27 Sr7 2.640744 1_555
O27 Sr19 2.647982 1_555
O27 Sr0 2.670213 1_565
O27 Sr22 2.702524 1_555
O28 Ti2 2.008485 1_554
O28 Ti12 2.031555 1_554
O28 Sr13 2.615991 1_655
O28 Sr3 2.621438 1_555
O28 Sr25 2.780116 1_554
O28 Sr10 2.796892 1_554
O29 Ti3 1.961903 1_655
O29 Ti13 2.107565 1_555
O29 Sr4 2.645462 1_555
O29 Sr9 2.646504 1_555
O29 Sr24 2.648183 1_555
O29 Sr14 2.655490 1_655
O30 Ti0 1.986680 1_554
O30 Ti14 2.081622 1_554
O30 Sr12 2.694723 1_554
O30 Sr27 2.707018 1_554
O31 Ti15 2.003247 1_555
O31 Ti1 2.023419 1_655
O31 Sr15 2.606432 1_655
O31 Sr2 2.643919 1_565
O31 Sr26 2.662467 1_555
O31 Sr11 2.758464 1_555
O32 Ti16 1.835006 1_555
O32 Sr13 2.554054 1_555
O33 Ti1 2.026637 1_545
O33 Sr14 2.573937 1_555
O33 Sr0 2.696693 1_555
O33 Sr2 2.945688 1_455
O33 Sr15 3.051734 1_545
O34 Ti17 1.834287 1_555
O34 Ti2 2.596400 1_454
O34 Sr3 2.955183 1_455
O35 Ti3 1.871370 1_555
O35 Sr15 2.625130 1_555
O35 Sr1 2.770483 1_555
O35 Sr4 3.013825 1_455
O36 Ti4 1.991146 1_545
O36 Sr16 2.580638 1_555
O36 Sr18 3.153278 1_545
O37 Ti5 2.000977 1_545
O37 Sr17 2.589897 1_555
O37 Sr2 2.759766 1_555
O37 Sr0 2.912679 1_555
O37 Sr19 3.132572 1_545
O38 Ti18 1.844843 1_555
O38 Sr18 2.594407 1_555
O38 Sr3 2.712791 1_555
O39 Ti7 2.019792 1_555
O39 Sr19 2.561621 1_555
O39 Sr4 2.713884 1_555
O39 Sr1 2.841738 1_555
O40 Ti7 2.010323 1_555
O40 Sr20 2.565885 1_555
O40 Sr9 2.816408 1_555
O40 Sr5 2.837107 1_555
O40 Sr22 3.145829 1_555
O41 Ti6 1.864534 1_555
O41 Sr21 2.644062 1_555
O41 Sr10 2.744217 1_555
O41 Sr6 2.927467 1_555
O42 Ti5 2.011327 1_555
O42 Sr22 2.552282 1_555
O42 Sr11 2.771929 1_555
O42 Sr7 2.904185 1_555
O43 Ti4 2.037686 1_556
O43 Sr23 2.591331 1_555
O43 Sr12 2.647529 1_555
O43 Sr8 2.856702 1_555
O43 Sr21 3.044297 1_565
O44 Ti19 1.884861 1_555
O44 Ti3 2.508656 1_655
O44 Sr24 2.639126 1_555
O44 Sr9 2.852703 1_555
O44 Sr5 2.941695 1_655
O44 Sr26 3.156463 1_555
O45 Ti2 1.867456 1_555
O45 Sr25 2.595448 1_555
O45 Sr6 2.796684 1_655
O45 Sr10 2.881974 1_555
O45 Sr27 3.137206 1_555
O46 Ti1 2.011868 1_655
O46 Sr26 2.528733 1_555
O46 Sr7 2.755753 1_655
O46 Sr11 2.914078 1_555
O47 Ti0 1.833481 1_555
O47 Sr27 2.658011 1_555
O47 Sr8 2.843203 1_655
O47 Sr12 2.988378 1_555
O47 Sr25 3.120124 1_565
O48 Ti8 2.043653 1_554
O48 Sr16 2.782366 1_555
O48 Sr13 2.867536 1_555
O49 Ti9 1.887291 1_555
O49 Sr0 2.599106 1_555
O49 Sr17 2.816305 1_555
O49 Sr14 2.935564 1_555
O49 Sr1 3.107552 1_555
O50 Ti10 2.072498 1_554
O50 Sr18 2.782123 1_555
O51 Ti11 1.851558 1_555
O51 Sr1 2.592488 1_555
O51 Sr19 2.800273 1_555
O51 Sr15 2.920049 1_555
O51 Sr0 3.198079 1_565
O52 Ti19 1.894097 1_555
O52 Ti12 2.455607 1_554
O52 Sr16 2.863329 1_555
O52 Sr13 2.915661 1_655
O52 Sr3 2.989879 1_555
O53 Ti13 2.022585 1_555
O53 Sr2 2.566453 1_555
O53 Sr14 2.678466 1_655
O53 Sr17 2.886711 1_555
O53 Sr4 3.097703 1_555
O54 Ti14 2.059889 1_554
O54 Sr3 2.600044 1_555
O54 Sr18 2.833263 1_555
O55 Ti15 1.899082 1_555
O55 Sr4 2.605559 1_555
O55 Sr15 2.744855 1_655
O55 Sr19 2.883275 1_555
O56 Ti16 1.838675 1_555
O56 Ti9 2.415216 1_555
O56 Sr5 2.479791 1_555
O56 Sr20 2.730453 1_555
O56 Sr24 3.041005 1_455
O57 Ti8 2.008643 1_555
O57 Sr6 2.580175 1_555
O57 Sr21 2.743889 1_555
O57 Sr25 2.820294 1_455
O57 Sr8 3.165803 1_545
O58 Ti17 1.836676 1_555
O58 Sr7 2.508571 1_555
O58 Sr22 2.747702 1_555
O58 Sr26 3.111392 1_455
O59 Ti10 1.973705 1_555
O59 Sr8 2.623477 1_555
O59 Sr23 2.759441 1_555
O59 Sr27 2.929740 1_455
O59 Sr6 3.120591 1_555
O60 Ti13 1.974487 1_555
O60 Sr9 2.536248 1_555
O60 Sr24 2.647092 1_555
O60 Sr20 3.003507 1_555
O60 Sr11 3.160039 1_545
O61 Ti12 1.874564 1_555
O61 Sr10 2.628802 1_555
O61 Sr25 2.795490 1_555
O61 Sr21 2.972761 1_555
O61 Sr12 3.218849 1_545
O62 Ti18 1.861342 1_555
O62 Ti15 2.455331 1_555
O62 Sr11 2.565797 1_555
O62 Sr26 2.635323 1_555
O62 Sr22 3.100373 1_555
O63 Ti14 2.006449 1_555
O63 Sr12 2.610557 1_555
O63 Sr27 2.737638 1_555
O63 Sr23 2.888177 1_555
O63 Sr10 3.036403 1_555
O64 Sr20 2.356255 1_555
O65 Sr0 2.390066 1_555
O65 Sr21 2.391793 1_555
O66 Ti18 1.931838 1_555
O66 Sr22 2.469851 1_555
O67 Sr1 2.379783 1_555
O67 Sr23 2.409381 1_555
O68 Ti16 1.832026 1_655
O68 Sr24 2.482487 1_555
O69 Sr25 2.391261 1_555
O69 Sr2 2.405031 1_555
O70 Ti17 1.842691 1_655
O70 Ti19 1.998553 1_555
O70 Sr26 2.544123 1_555
O70 Sr3 2.620862 1_555
O71 Sr27 2.394359 1_555
O71 Sr4 2.395547 1_555
O72 Ti17 1.835252 1_555
O72 Sr5 2.521177 1_555
O72 Sr13 2.537186 1_555
O73 Sr6 2.408536 1_555
O73 Sr14 2.408944 1_555
O74 Ti16 1.829980 1_565
O74 Sr7 2.475391 1_555
O75 Sr15 2.381167 1_555
O75 Sr8 2.393228 1_555
O76 Ti19 1.938271 1_555
O76 Ti18 1.997563 1_555
O76 Sr16 2.461341 1_555
O76 Sr9 2.461440 1_555
O77 Sr10 2.383371 1_555
O77 Sr17 2.389061 1_555
O78 Sr11 2.427278 1_555
O78 Sr18 2.430336 1_555
O79 Sr19 2.404040 1_555
O79 Sr12 2.418233 1_555
