# generated using pymatgen
data_LiTaNb(AgO3)2
_symmetry_space_group_name_H-M   'P 1'
_cell_length_a   4.09663467
_cell_length_b   4.09659306
_cell_length_c   8.07562999
_cell_angle_alpha   90.16666458
_cell_angle_beta   89.83109051
_cell_angle_gamma   90.29954024
_symmetry_Int_Tables_number   1
_chemical_formula_structural   LiTaNb(AgO3)2
_chemical_formula_sum   'Li1 Ta1 Nb1 Ag2 O6'
_cell_volume   135.52419397
_cell_formula_units_Z   1
loop_
 _symmetry_equiv_pos_site_id
 _symmetry_equiv_pos_as_xyz
  1  'x, y, z'
loop_
 _atom_site_type_symbol
 _atom_site_label
 _atom_site_symmetry_multiplicity
 _atom_site_fract_x
 _atom_site_fract_y
 _atom_site_fract_z
 _atom_site_occupancy
  Li  Li0  1  0.91496800  0.08502400  0.23963100  1
  Ta  Ta0  1  0.51733400  0.48266700  0.73733100  1
  Nb  Nb0  1  0.43194700  0.56805400  0.23694100  1
  Ag  Ag0  1  0.02762000  0.97237600  0.93719200  1
  Ag  Ag1  1  0.03177500  0.96827400  0.53993100  1
  O  O0  1  0.42455900  0.06235100  0.23709800  1
  O  O1  1  0.52347000  0.99985600  0.73817600  1
  O  O2  1  0.46984700  0.53014500  0.98354700  1
  O  O3  1  0.47070300  0.52929200  0.49155100  1
  O  O4  1  0.93764400  0.57543500  0.23709400  1
  O  O5  1  0.00013300  0.47652600  0.73817600  1
loop_
_geom_bond_atom_site_label_1
_geom_bond_atom_site_label_2
_geom_bond_distance
_geom_bond_site_symmetry_2
Li0 O4 2.010837 1_555
Li0 O0 2.010849 1_555
Li0 O4 2.090168 1_545
Li0 O0 2.090196 1_655
Nb0 O0 2.025315 1_565
Nb0 O4 2.025359 1_455
Nb0 O2 2.057222 1_554
Nb0 O3 2.069349 1_555
Nb0 O4 2.071722 1_555
Nb0 O0 2.071726 1_555
Ag0 Li0 2.525907 1_466
Ag0 O1 2.588698 1_555
Ag0 O5 2.588735 1_555
Ag0 O2 2.597400 1_555
Ag0 O5 2.623732 1_565
Ag0 O1 2.623794 1_455
Ag1 Li0 2.520888 1_465
Ag1 O3 2.577883 1_555
Ag1 O1 2.579197 1_555
Ag1 O5 2.579310 1_555
Ag1 O5 2.626253 1_565
Ag1 O1 2.626383 1_455
O1 Ta0 1.978203 1_565
O1 Ta0 2.118722 1_555
O2 Ta0 2.006258 1_555
O3 Ta0 2.004331 1_555
O5 Ta0 1.978175 1_455
O5 Ta0 2.118792 1_555
