# generated using pymatgen
data_Cu9As4
_symmetry_space_group_name_H-M   'P 1'
_cell_length_a   8.99056400
_cell_length_b   8.99056400
_cell_length_c   8.99056400
_cell_angle_alpha   90.00000000
_cell_angle_beta   90.00000000
_cell_angle_gamma   90.00000000
_symmetry_Int_Tables_number   1
_chemical_formula_structural   Cu9As4
_chemical_formula_sum   'Cu36 As16'
_cell_volume   726.70945519
_cell_formula_units_Z   4
loop_
 _symmetry_equiv_pos_site_id
 _symmetry_equiv_pos_as_xyz
  1  'x, y, z'
loop_
 _atom_site_type_symbol
 _atom_site_label
 _atom_site_symmetry_multiplicity
 _atom_site_fract_x
 _atom_site_fract_y
 _atom_site_fract_z
 _atom_site_occupancy
  Cu  Cu0  1  0.32901000  0.67099000  0.67099000  1
  Cu  Cu1  1  0.64359900  0.00000000  0.00000000  1
  Cu  Cu2  1  0.00000000  0.00000000  0.35640100  1
  Cu  Cu3  1  0.00000000  0.00000000  0.64359900  1
  Cu  Cu4  1  0.00000000  0.64359900  0.00000000  1
  Cu  Cu5  1  0.00000000  0.35640100  0.00000000  1
  Cu  Cu6  1  0.85349600  0.50000000  0.50000000  1
  Cu  Cu7  1  0.14650400  0.50000000  0.50000000  1
  Cu  Cu8  1  0.50000000  0.50000000  0.85349600  1
  Cu  Cu9  1  0.50000000  0.50000000  0.14650400  1
  Cu  Cu10  1  0.35640100  0.00000000  0.00000000  1
  Cu  Cu11  1  0.50000000  0.85349600  0.50000000  1
  Cu  Cu12  1  0.32020700  0.32020700  0.02778500  1
  Cu  Cu13  1  0.67979300  0.02778500  0.67979300  1
  Cu  Cu14  1  0.67979300  0.97221500  0.32020700  1
  Cu  Cu15  1  0.97221500  0.67979300  0.32020700  1
  Cu  Cu16  1  0.02778500  0.67979300  0.67979300  1
  Cu  Cu17  1  0.32020700  0.67979300  0.97221500  1
  Cu  Cu18  1  0.67979300  0.32020700  0.97221500  1
  Cu  Cu19  1  0.02778500  0.32020700  0.32020700  1
  Cu  Cu20  1  0.32020700  0.02778500  0.32020700  1
  Cu  Cu21  1  0.97221500  0.32020700  0.67979300  1
  Cu  Cu22  1  0.32020700  0.97221500  0.67979300  1
  Cu  Cu23  1  0.67979300  0.67979300  0.02778500  1
  Cu  Cu24  1  0.67099000  0.67099000  0.32901000  1
  Cu  Cu25  1  0.67099000  0.32901000  0.67099000  1
  Cu  Cu26  1  0.32901000  0.32901000  0.32901000  1
  Cu  Cu27  1  0.83036400  0.16963600  0.16963600  1
  Cu  Cu28  1  0.16963600  0.16963600  0.83036400  1
  Cu  Cu29  1  0.16963600  0.83036400  0.16963600  1
  Cu  Cu30  1  0.83036400  0.83036400  0.83036400  1
  Cu  Cu31  1  0.60209200  0.39790800  0.39790800  1
  Cu  Cu32  1  0.39790800  0.39790800  0.60209200  1
  Cu  Cu33  1  0.39790800  0.60209200  0.39790800  1
  Cu  Cu34  1  0.60209200  0.60209200  0.60209200  1
  Cu  Cu35  1  0.50000000  0.14650400  0.50000000  1
  As  As0  1  0.12736100  0.12736100  0.12736100  1
  As  As1  1  0.87263900  0.12736100  0.87263900  1
  As  As2  1  0.87263900  0.87263900  0.12736100  1
  As  As3  1  0.12736100  0.87263900  0.87263900  1
  As  As4  1  0.80616200  0.46727900  0.19383800  1
  As  As5  1  0.46727900  0.80616200  0.19383800  1
  As  As6  1  0.80616200  0.53272100  0.80616200  1
  As  As7  1  0.53272100  0.80616200  0.80616200  1
  As  As8  1  0.19383800  0.80616200  0.46727900  1
  As  As9  1  0.80616200  0.19383800  0.46727900  1
  As  As10  1  0.53272100  0.19383800  0.19383800  1
  As  As11  1  0.46727900  0.19383800  0.80616200  1
  As  As12  1  0.19383800  0.46727900  0.80616200  1
  As  As13  1  0.19383800  0.53272100  0.19383800  1
  As  As14  1  0.80616200  0.80616200  0.53272100  1
  As  As15  1  0.19383800  0.19383800  0.53272100  1
loop_
_geom_bond_atom_site_label_1
_geom_bond_atom_site_label_2
_geom_bond_distance
_geom_bond_site_symmetry_2
Cu0 Cu34 2.606762 1_555
Cu0 Cu32 2.606762 1_555
Cu0 Cu33 2.606762 1_555
Cu0 Cu8 2.723764 1_555
Cu0 Cu11 2.723764 1_555
Cu0 Cu7 2.723764 1_555
Cu1 Cu10 2.582072 1_555
Cu1 Cu27 2.733396 1_555
Cu1 Cu30 2.733396 1_544
Cu1 Cu18 2.907923 1_554
Cu1 Cu14 2.907923 1_545
Cu1 Cu13 2.907923 1_554
Cu1 Cu23 2.907923 1_545
Cu2 Cu3 2.582072 1_555
Cu2 Cu29 2.733396 1_545
Cu2 Cu27 2.733396 1_455
Cu2 Cu20 2.907923 1_555
Cu3 Cu30 2.733396 1_445
Cu4 Cu5 2.582072 1_555
Cu6 Cu7 2.634307 1_655
Cu8 Cu9 2.634307 1_556
Cu10 Cu28 2.733396 1_554
Cu10 Cu29 2.733396 1_545
Cu10 Cu12 2.907923 1_555
Cu10 Cu20 2.907923 1_555
Cu10 Cu17 2.907923 1_544
Cu10 Cu22 2.907923 1_544
Cu11 Cu22 2.522895 1_555
Cu11 Cu14 2.522895 1_555
Cu11 Cu34 2.606481 1_555
Cu11 Cu33 2.606481 1_555
Cu11 Cu35 2.634307 1_565
Cu11 Cu24 2.723764 1_555
Cu11 Cu13 2.771482 1_565
Cu11 Cu20 2.771482 1_565
Cu12 Cu9 2.522895 1_555
Cu12 Cu28 2.610645 1_554
Cu12 Cu8 2.771482 1_554
Cu12 Cu5 2.907923 1_555
Cu13 Cu35 2.522895 1_555
Cu13 Cu30 2.610645 1_545
Cu13 Cu3 2.907923 1_655
Cu14 Cu27 2.610645 1_565
Cu14 Cu35 2.771482 1_565
Cu14 Cu2 2.907923 1_665
Cu15 Cu6 2.522895 1_555
Cu15 Cu29 2.610645 1_655
Cu15 Cu7 2.771482 1_655
Cu15 Cu4 2.907923 1_655
Cu15 Cu2 2.907923 1_665
Cu16 Cu7 2.522895 1_555
Cu16 Cu30 2.610645 1_455
Cu16 Cu6 2.771482 1_455
Cu16 Cu3 2.907923 1_565
Cu16 Cu4 2.907923 1_556
Cu17 Cu8 2.522895 1_555
Cu17 Cu29 2.610645 1_556
Cu17 Cu9 2.771482 1_556
Cu17 Cu4 2.907923 1_556
Cu18 Cu8 2.522895 1_555
Cu18 Cu27 2.610645 1_556
Cu18 Cu9 2.771482 1_556
Cu18 Cu5 2.907923 1_656
Cu19 Cu7 2.522895 1_555
Cu19 Cu27 2.610645 1_455
Cu19 Cu6 2.771482 1_455
Cu19 Cu5 2.907923 1_555
Cu19 Cu2 2.907923 1_555
Cu20 Cu35 2.522895 1_555
Cu20 Cu29 2.610645 1_545
Cu21 Cu6 2.522895 1_555
Cu21 Cu28 2.610645 1_655
Cu21 Cu7 2.771482 1_655
Cu21 Cu3 2.907923 1_655
Cu21 Cu5 2.907923 1_656
Cu22 Cu28 2.610645 1_565
Cu22 Cu35 2.771482 1_565
Cu22 Cu3 2.907923 1_565
Cu23 Cu9 2.522895 1_555
Cu23 Cu30 2.610645 1_554
Cu23 Cu8 2.771482 1_554
Cu23 Cu4 2.907923 1_655
Cu24 Cu34 2.606762 1_555
Cu24 Cu31 2.606762 1_555
Cu24 Cu33 2.606762 1_555
Cu24 Cu6 2.723764 1_555
Cu24 Cu9 2.723764 1_555
Cu25 Cu34 2.606762 1_555
Cu25 Cu32 2.606762 1_555
Cu25 Cu31 2.606762 1_555
Cu25 Cu6 2.723764 1_555
Cu25 Cu8 2.723764 1_555
Cu25 Cu35 2.723764 1_555
Cu26 Cu33 2.606762 1_555
Cu26 Cu32 2.606762 1_555
Cu26 Cu31 2.606762 1_555
Cu26 Cu9 2.723764 1_555
Cu26 Cu35 2.723764 1_555
Cu26 Cu7 2.723764 1_555
Cu27 Cu5 2.733396 1_655
Cu28 Cu3 2.733396 1_555
Cu28 Cu5 2.733396 1_556
Cu29 Cu4 2.733396 1_555
Cu30 Cu4 2.733396 1_656
Cu31 Cu34 2.596113 1_555
Cu31 Cu33 2.596113 1_555
Cu31 Cu32 2.596113 1_555
Cu31 Cu6 2.606481 1_555
Cu31 Cu9 2.606481 1_555
Cu31 Cu35 2.606481 1_555
Cu32 Cu34 2.596113 1_555
Cu32 Cu33 2.596113 1_555
Cu32 Cu8 2.606481 1_555
Cu32 Cu7 2.606481 1_555
Cu32 Cu35 2.606481 1_555
Cu33 Cu34 2.596113 1_555
Cu33 Cu7 2.606481 1_555
Cu33 Cu9 2.606481 1_555
Cu34 Cu6 2.606481 1_555
Cu34 Cu8 2.606481 1_555
As0 Cu12 2.610277 1_555
As0 Cu20 2.610277 1_555
As0 Cu19 2.610277 1_555
As0 Cu10 2.619650 1_555
As0 Cu5 2.619650 1_555
As0 Cu2 2.619650 1_555
As0 Cu28 2.723734 1_554
As0 Cu29 2.723734 1_545
As0 Cu27 2.723734 1_455
As1 Cu21 2.610277 1_555
As1 Cu18 2.610277 1_555
As1 Cu13 2.610277 1_555
As1 Cu5 2.619650 1_656
As1 Cu3 2.619650 1_655
As1 Cu1 2.619650 1_556
As1 Cu28 2.723734 1_655
As1 Cu27 2.723734 1_556
As1 Cu30 2.723734 1_545
As2 Cu15 2.610277 1_555
As2 Cu14 2.610277 1_555
As2 Cu23 2.610277 1_555
As2 Cu2 2.619650 1_665
As2 Cu1 2.619650 1_565
As2 Cu4 2.619650 1_655
As2 Cu29 2.723734 1_655
As2 Cu30 2.723734 1_554
As2 Cu27 2.723734 1_565
As3 Cu22 2.610277 1_555
As3 Cu17 2.610277 1_555
As3 Cu16 2.610277 1_555
As3 Cu10 2.619650 1_566
As3 Cu3 2.619650 1_565
As3 Cu4 2.619650 1_556
As3 Cu29 2.723734 1_556
As3 Cu28 2.723734 1_565
As3 Cu30 2.723734 1_455
As4 Cu24 2.511589 1_555
As4 Cu18 2.647504 1_554
As4 Cu19 2.647504 1_655
As4 Cu5 2.658537 1_655
As4 Cu31 2.668569 1_555
As4 Cu23 2.677693 1_555
As4 Cu15 2.677693 1_555
As4 Cu27 2.693613 1_555
As4 Cu9 2.800764 1_555
As4 Cu6 2.800764 1_555
As4 Cu4 2.930360 1_655
As5 Cu24 2.511589 1_555
As5 Cu17 2.647504 1_554
As5 Cu20 2.647504 1_565
As5 Cu10 2.658537 1_565
As5 Cu33 2.668569 1_555
As5 Cu23 2.677693 1_555
As5 Cu14 2.677693 1_555
As5 Cu29 2.693613 1_555
As5 Cu9 2.800764 1_555
As5 Cu11 2.800764 1_555
As5 Cu1 2.930360 1_565
As6 Cu25 2.511589 1_555
As6 Cu23 2.647504 1_556
As6 Cu16 2.647504 1_655
As6 Cu4 2.658537 1_656
As6 Cu34 2.668569 1_555
As6 Cu21 2.677693 1_555
As6 Cu18 2.677693 1_555
As6 Cu30 2.693613 1_555
As6 Cu8 2.800764 1_555
As6 Cu6 2.800764 1_555
As6 Cu5 2.930360 1_656
As7 Cu0 2.511589 1_555
As7 Cu23 2.647504 1_556
As7 Cu13 2.647504 1_565
As7 Cu1 2.658537 1_566
As7 Cu34 2.668569 1_555
As7 Cu22 2.677693 1_555
As7 Cu17 2.677693 1_555
As7 Cu30 2.693613 1_555
As7 Cu8 2.800764 1_555
As7 Cu11 2.800764 1_555
As7 Cu10 2.930360 1_566
As8 Cu0 2.511589 1_555
As8 Cu15 2.647504 1_455
As8 Cu20 2.647504 1_565
As8 Cu2 2.658537 1_565
As8 Cu33 2.668569 1_555
As8 Cu16 2.677693 1_555
As8 Cu22 2.677693 1_555
As8 Cu29 2.693613 1_555
As8 Cu7 2.800764 1_555
As8 Cu11 2.800764 1_555
As8 Cu3 2.930360 1_565
As9 Cu25 2.511589 1_555
As9 Cu14 2.647504 1_545
As9 Cu19 2.647504 1_655
As9 Cu2 2.658537 1_655
As9 Cu31 2.668569 1_555
As9 Cu13 2.677693 1_555
As9 Cu21 2.677693 1_555
As9 Cu27 2.693613 1_555
As9 Cu35 2.800764 1_555
As9 Cu6 2.800764 1_555
As9 Cu3 2.930360 1_655
As10 Cu26 2.511589 1_555
As10 Cu18 2.647504 1_554
As10 Cu14 2.647504 1_545
As10 Cu1 2.658537 1_555
As10 Cu31 2.668569 1_555
As10 Cu20 2.677693 1_555
As10 Cu12 2.677693 1_555
As10 Cu27 2.693613 1_555
As10 Cu9 2.800764 1_555
As10 Cu35 2.800764 1_555
As10 Cu10 2.930360 1_555
As11 Cu25 2.511589 1_555
As11 Cu22 2.647504 1_545
As11 Cu12 2.647504 1_556
As11 Cu10 2.658537 1_556
As11 Cu32 2.668569 1_555
As11 Cu13 2.677693 1_555
As11 Cu18 2.677693 1_555
As11 Cu28 2.693613 1_555
As11 Cu35 2.800764 1_555
As11 Cu8 2.800764 1_555
As11 Cu1 2.930360 1_556
As12 Cu0 2.511589 1_555
As12 Cu21 2.647504 1_455
As12 Cu12 2.647504 1_556
As12 Cu5 2.658537 1_556
As12 Cu32 2.668569 1_555
As12 Cu16 2.677693 1_555
As12 Cu17 2.677693 1_555
As12 Cu28 2.693613 1_555
As12 Cu7 2.800764 1_555
As12 Cu8 2.800764 1_555
As12 Cu4 2.930360 1_556
As13 Cu26 2.511589 1_555
As13 Cu17 2.647504 1_554
As13 Cu15 2.647504 1_455
As13 Cu4 2.658537 1_555
As13 Cu33 2.668569 1_555
As13 Cu12 2.677693 1_555
As13 Cu19 2.677693 1_555
As13 Cu29 2.693613 1_555
As13 Cu7 2.800764 1_555
As13 Cu9 2.800764 1_555
As13 Cu5 2.930360 1_555
As14 Cu24 2.511589 1_555
As14 Cu13 2.647504 1_565
As14 Cu16 2.647504 1_655
As14 Cu3 2.658537 1_665
As14 Cu34 2.668569 1_555
As14 Cu14 2.677693 1_555
As14 Cu15 2.677693 1_555
As14 Cu30 2.693613 1_555
As14 Cu6 2.800764 1_555
As14 Cu11 2.800764 1_555
As14 Cu2 2.930360 1_665
As15 Cu26 2.511589 1_555
As15 Cu22 2.647504 1_545
As15 Cu21 2.647504 1_455
As15 Cu3 2.658537 1_555
As15 Cu32 2.668569 1_555
As15 Cu19 2.677693 1_555
As15 Cu20 2.677693 1_555
As15 Cu28 2.693613 1_555
As15 Cu7 2.800764 1_555
As15 Cu35 2.800764 1_555
As15 Cu2 2.930360 1_555
