# generated using pymatgen
data_Er3Ge13Ru4
_symmetry_space_group_name_H-M   'P 1'
_cell_length_a   9.04462500
_cell_length_b   9.04462500
_cell_length_c   9.04462500
_cell_angle_alpha   90.00000000
_cell_angle_beta   90.00000000
_cell_angle_gamma   90.00000000
_symmetry_Int_Tables_number   1
_chemical_formula_structural   Er3Ge13Ru4
_chemical_formula_sum   'Er6 Ge26 Ru8'
_cell_volume   739.89773141
_cell_formula_units_Z   2
loop_
 _symmetry_equiv_pos_site_id
 _symmetry_equiv_pos_as_xyz
  1  'x, y, z'
loop_
 _atom_site_type_symbol
 _atom_site_label
 _atom_site_symmetry_multiplicity
 _atom_site_fract_x
 _atom_site_fract_y
 _atom_site_fract_z
 _atom_site_occupancy
  Er  Er0  1  0.00000000  0.50000000  0.75000000  1
  Er  Er1  1  0.50000000  0.25000000  0.00000000  1
  Er  Er2  1  0.75000000  0.00000000  0.50000000  1
  Er  Er3  1  0.00000000  0.50000000  0.25000000  1
  Er  Er4  1  0.50000000  0.75000000  0.00000000  1
  Er  Er5  1  0.25000000  0.00000000  0.50000000  1
  Ge  Ge0  1  0.50000000  0.50000000  0.50000000  1
  Ge  Ge1  1  0.00000000  0.00000000  0.00000000  1
  Ge  Ge2  1  0.80710000  0.35051200  0.50000000  1
  Ge  Ge3  1  0.64948800  0.50000000  0.80710000  1
  Ge  Ge4  1  0.50000000  0.19290000  0.64948800  1
  Ge  Ge5  1  0.19290000  0.64948800  0.50000000  1
  Ge  Ge6  1  0.35051200  0.50000000  0.19290000  1
  Ge  Ge7  1  0.50000000  0.80710000  0.35051200  1
  Ge  Ge8  1  0.80710000  0.64948800  0.50000000  1
  Ge  Ge9  1  0.64948800  0.50000000  0.19290000  1
  Ge  Ge10  1  0.19290000  0.35051200  0.50000000  1
  Ge  Ge11  1  0.35051200  0.50000000  0.80710000  1
  Ge  Ge12  1  0.50000000  0.80710000  0.64948800  1
  Ge  Ge13  1  0.50000000  0.19290000  0.35051200  1
  Ge  Ge14  1  0.30710000  0.00000000  0.85051200  1
  Ge  Ge15  1  0.14948800  0.30710000  0.00000000  1
  Ge  Ge16  1  0.00000000  0.14948800  0.69290000  1
  Ge  Ge17  1  0.69290000  0.00000000  0.14948800  1
  Ge  Ge18  1  0.85051200  0.69290000  0.00000000  1
  Ge  Ge19  1  0.00000000  0.85051200  0.30710000  1
  Ge  Ge20  1  0.30710000  0.00000000  0.14948800  1
  Ge  Ge21  1  0.14948800  0.69290000  0.00000000  1
  Ge  Ge22  1  0.69290000  0.00000000  0.85051200  1
  Ge  Ge23  1  0.85051200  0.30710000  0.00000000  1
  Ge  Ge24  1  0.00000000  0.14948800  0.30710000  1
  Ge  Ge25  1  0.00000000  0.85051200  0.69290000  1
  Ru  Ru0  1  0.75000000  0.25000000  0.75000000  1
  Ru  Ru1  1  0.25000000  0.75000000  0.25000000  1
  Ru  Ru2  1  0.75000000  0.75000000  0.25000000  1
  Ru  Ru3  1  0.25000000  0.25000000  0.75000000  1
  Ru  Ru4  1  0.25000000  0.75000000  0.75000000  1
  Ru  Ru5  1  0.75000000  0.25000000  0.25000000  1
  Ru  Ru6  1  0.25000000  0.25000000  0.25000000  1
  Ru  Ru7  1  0.75000000  0.75000000  0.75000000  1
loop_
_geom_bond_atom_site_label_1
_geom_bond_atom_site_label_2
_geom_bond_distance
_geom_bond_site_symmetry_2
Er0 Ge8 3.159891 1_455
Er0 Ge5 3.159891 1_555
Er0 Ge21 3.159891 1_556
Er0 Ge23 3.159891 1_456
Er0 Ge10 3.159891 1_555
Er0 Ge2 3.159891 1_455
Er0 Ge18 3.159891 1_456
Er0 Ge15 3.159891 1_556
Er0 Ru4 3.197758 1_555
Er0 Ru0 3.197758 1_455
Er0 Ru7 3.197758 1_455
Er0 Ru3 3.197758 1_555
Er0 Ge11 3.212040 1_555
Er0 Ge16 3.212040 1_555
Er0 Ge3 3.212040 1_455
Er0 Ge25 3.212040 1_555
Er1 Ge11 3.159891 1_554
Er1 Ge17 3.159891 1_555
Er1 Ge22 3.159891 1_554
Er1 Ge6 3.159891 1_555
Er1 Ge3 3.159891 1_554
Er1 Ge9 3.159891 1_555
Er1 Ge14 3.159891 1_554
Er1 Ge20 3.159891 1_555
Er1 Ru0 3.197758 1_554
Er1 Ru3 3.197758 1_554
Er1 Ru5 3.197758 1_555
Er1 Ru6 3.197758 1_555
Er1 Ge13 3.212040 1_555
Er1 Ge15 3.212040 1_555
Er1 Ge4 3.212040 1_554
Er1 Ge23 3.212040 1_555
Er2 Ge7 3.159891 1_545
Er2 Ge19 3.159891 1_645
Er2 Ge24 3.159891 1_655
Er2 Ge12 3.159891 1_545
Er2 Ge13 3.159891 1_555
Er2 Ge25 3.159891 1_645
Er2 Ge4 3.159891 1_555
Er2 Ge16 3.159891 1_655
Er2 Ru0 3.197758 1_555
Er2 Ru5 3.197758 1_555
Er2 Ru7 3.197758 1_545
Er2 Ru2 3.197758 1_545
Er2 Ge2 3.212040 1_555
Er2 Ge17 3.212040 1_555
Er2 Ge22 3.212040 1_555
Er2 Ge8 3.212040 1_545
Er3 Ge8 3.159891 1_455
Er3 Ge15 3.159891 1_555
Er3 Ge5 3.159891 1_555
Er3 Ge21 3.159891 1_555
Er3 Ge23 3.159891 1_455
Er3 Ge10 3.159891 1_555
Er3 Ge2 3.159891 1_455
Er3 Ge18 3.159891 1_455
Er3 Ru2 3.197758 1_455
Er3 Ru1 3.197758 1_555
Er3 Ru6 3.197758 1_555
Er3 Ru5 3.197758 1_455
Er3 Ge24 3.212040 1_555
Er3 Ge6 3.212040 1_555
Er3 Ge9 3.212040 1_455
Er3 Ge19 3.212040 1_555
Er4 Ge14 3.159891 1_564
Er4 Ge17 3.159891 1_565
Er4 Ge11 3.159891 1_554
Er4 Ge6 3.159891 1_555
Er4 Ge3 3.159891 1_554
Er4 Ge9 3.159891 1_555
Er4 Ge22 3.159891 1_564
Er4 Ge20 3.159891 1_565
Er4 Ru1 3.197758 1_555
Er4 Ru2 3.197758 1_555
Er4 Ru7 3.197758 1_554
Er4 Ru4 3.197758 1_554
Er4 Ge21 3.212040 1_555
Er4 Ge7 3.212040 1_555
Er4 Ge12 3.212040 1_554
Er4 Ge18 3.212040 1_555
Er5 Ge7 3.159891 1_545
Er5 Ge16 3.159891 1_555
Er5 Ge25 3.159891 1_545
Er5 Ge13 3.159891 1_555
Er5 Ge19 3.159891 1_545
Er5 Ge4 3.159891 1_555
Er5 Ge12 3.159891 1_545
Er5 Ge24 3.159891 1_555
Er5 Ru4 3.197758 1_545
Er5 Ru1 3.197758 1_545
Er5 Ru3 3.197758 1_555
Er5 Ru6 3.197758 1_555
Er5 Ge10 3.212040 1_555
Er5 Ge20 3.212040 1_555
Er5 Ge14 3.212040 1_555
Er5 Ge5 3.212040 1_545
Ge0 Ge6 3.089201 1_555
Ge0 Ge2 3.089201 1_555
Ge0 Ge4 3.089201 1_555
Ge0 Ge11 3.089201 1_555
Ge0 Ge9 3.089201 1_555
Ge0 Ge13 3.089201 1_555
Ge0 Ge10 3.089201 1_555
Ge0 Ge3 3.089201 1_555
Ge0 Ge8 3.089201 1_555
Ge0 Ge5 3.089201 1_555
Ge0 Ge12 3.089201 1_555
Ge0 Ge7 3.089201 1_555
Ge1 Ge19 3.089201 1_545
Ge1 Ge23 3.089201 1_455
Ge1 Ge16 3.089201 1_554
Ge1 Ge17 3.089201 1_455
Ge1 Ge14 3.089201 1_554
Ge1 Ge18 3.089201 1_445
Ge1 Ge20 3.089201 1_555
Ge1 Ge22 3.089201 1_454
Ge1 Ge21 3.089201 1_545
Ge1 Ge25 3.089201 1_544
Ge1 Ge24 3.089201 1_555
Ge1 Ge15 3.089201 1_555
Ge2 Ru0 2.491184 1_555
Ge2 Ru5 2.491184 1_555
Ge2 Ge8 2.704126 1_555
Ge3 Ru0 2.491184 1_555
Ge3 Ru7 2.491184 1_555
Ge4 Ru3 2.491184 1_555
Ge4 Ru0 2.491184 1_555
Ge5 Ru4 2.491184 1_555
Ge5 Ru1 2.491184 1_555
Ge6 Ru6 2.491184 1_555
Ge6 Ru1 2.491184 1_555
Ge6 Ge9 2.704126 1_555
Ge7 Ru2 2.491184 1_555
Ge7 Ru1 2.491184 1_555
Ge8 Ru2 2.491184 1_555
Ge8 Ru7 2.491184 1_555
Ge9 Ru5 2.491184 1_555
Ge9 Ru2 2.491184 1_555
Ge10 Ru3 2.491184 1_555
Ge10 Ru6 2.491184 1_555
Ge10 Ge5 2.704126 1_555
Ge11 Ru3 2.491184 1_555
Ge11 Ru4 2.491184 1_555
Ge11 Ge3 2.704126 1_555
Ge12 Ru7 2.491184 1_555
Ge12 Ru4 2.491184 1_555
Ge12 Ge7 2.704126 1_555
Ge13 Ru6 2.491184 1_555
Ge13 Ru5 2.491184 1_555
Ge13 Ge4 2.704126 1_555
Ge14 Ru3 2.491184 1_555
Ge14 Ru4 2.491184 1_545
Ge14 Ge20 2.704126 1_556
Ge15 Ru6 2.491184 1_555
Ge15 Ru3 2.491184 1_554
Ge15 Ge23 2.704126 1_455
Ge16 Ru3 2.491184 1_555
Ge16 Ru0 2.491184 1_455
Ge16 Ge25 2.704126 1_545
Ge17 Ru5 2.491184 1_555
Ge17 Ru2 2.491184 1_545
Ge17 Ge22 2.704126 1_554
Ge18 Ru2 2.491184 1_555
Ge18 Ru7 2.491184 1_554
Ge18 Ge21 2.704126 1_655
Ge19 Ru2 2.491184 1_455
Ge19 Ru1 2.491184 1_555
Ge19 Ge24 2.704126 1_565
Ge20 Ru6 2.491184 1_555
Ge20 Ru1 2.491184 1_545
Ge21 Ru1 2.491184 1_555
Ge21 Ru4 2.491184 1_554
Ge22 Ru7 2.491184 1_545
Ge22 Ru0 2.491184 1_555
Ge23 Ru0 2.491184 1_554
Ge23 Ru5 2.491184 1_555
Ge24 Ru5 2.491184 1_455
Ge24 Ru6 2.491184 1_555
Ge25 Ru7 2.491184 1_455
Ge25 Ru4 2.491184 1_555
