# generated using pymatgen
data_Y4Ga21Ni10
_symmetry_space_group_name_H-M   'P 1'
_cell_length_a   10.63320482
_cell_length_b   10.63320482
_cell_length_c   15.50686931
_cell_angle_alpha   56.95088262
_cell_angle_beta   56.95088262
_cell_angle_gamma   22.11660149
_symmetry_Int_Tables_number   1
_chemical_formula_structural   Y4Ga21Ni10
_chemical_formula_sum   'Y4 Ga21 Ni10'
_cell_volume   548.80589668
_cell_formula_units_Z   1
loop_
 _symmetry_equiv_pos_site_id
 _symmetry_equiv_pos_as_xyz
  1  'x, y, z'
loop_
 _atom_site_type_symbol
 _atom_site_label
 _atom_site_symmetry_multiplicity
 _atom_site_fract_x
 _atom_site_fract_y
 _atom_site_fract_z
 _atom_site_occupancy
  Y  Y0  1  0.87987400  0.87987400  0.33390600  1
  Y  Y1  1  0.12012600  0.12012600  0.66609400  1
  Y  Y2  1  0.23005600  0.23005600  0.17528100  1
  Y  Y3  1  0.76994400  0.76994400  0.82471900  1
  Ga  Ga0  1  0.46092500  0.46092500  0.36752600  1
  Ga  Ga1  1  0.53907500  0.53907500  0.63247400  1
  Ga  Ga2  1  0.79847900  0.79847900  0.00341200  1
  Ga  Ga3  1  0.20152100  0.20152100  0.99658800  1
  Ga  Ga4  1  0.70257900  0.70257900  0.49675000  1
  Ga  Ga5  1  0.29742100  0.29742100  0.50325000  1
  Ga  Ga6  1  0.88361500  0.88361500  0.55178400  1
  Ga  Ga7  1  0.11638500  0.11638500  0.44821600  1
  Ga  Ga8  1  0.61389500  0.61389500  0.29743400  1
  Ga  Ga9  1  0.38610500  0.38610500  0.70256600  1
  Ga  Ga10  1  0.75278100  0.75278100  0.29416100  1
  Ga  Ga11  1  0.24721900  0.24721900  0.70583900  1
  Ga  Ga12  1  0.60181700  0.60181700  0.00303200  1
  Ga  Ga13  1  0.39818300  0.39818300  0.99696800  1
  Ga  Ga14  1  0.99387900  0.99387900  0.09033400  1
  Ga  Ga15  1  0.00612100  0.00612100  0.90966600  1
  Ga  Ga16  1  0.93528600  0.93528600  0.79588600  1
  Ga  Ga17  1  0.06471400  0.06471400  0.20411400  1
  Ga  Ga18  1  0.50000000  0.50000000  0.50000000  1
  Ga  Ga19  1  0.37282100  0.37282100  0.19559800  1
  Ga  Ga20  1  0.62717900  0.62717900  0.80440200  1
  Ni  Ni0  1  0.49861100  0.49861100  0.18445600  1
  Ni  Ni1  1  0.50138900  0.50138900  0.81554400  1
  Ni  Ni2  1  0.86667200  0.86667200  0.10521900  1
  Ni  Ni3  1  0.13332800  0.13332800  0.89478100  1
  Ni  Ni4  1  0.75089400  0.75089400  0.61428000  1
  Ni  Ni5  1  0.24910600  0.24910600  0.38572000  1
  Ni  Ni6  1  0.65268700  0.65268700  0.11348300  1
  Ni  Ni7  1  0.34731300  0.34731300  0.88651700  1
  Ni  Ni8  1  0.97564100  0.97564100  0.60665200  1
  Ni  Ni9  1  0.02435900  0.02435900  0.39334800  1
loop_
_geom_bond_atom_site_label_1
_geom_bond_atom_site_label_2
_geom_bond_distance
_geom_bond_site_symmetry_2
Ga0 Ni0 2.489204 1_555
Ga0 Ni9 2.581100 1_565
Ga0 Ni9 2.581100 1_655
Ga0 Ga18 2.597502 1_555
Ga0 Ga5 2.844859 1_555
Ga0 Y0 2.876340 1_545
Ga0 Y0 2.876340 1_455
Ga1 Ni1 2.489204 1_555
Ga1 Ni8 2.581100 1_545
Ga1 Ni8 2.581100 1_455
Ga1 Ga18 2.597502 1_555
Ga1 Ga4 2.844859 1_555
Ga1 Y1 2.876340 1_655
Ga1 Y1 2.876340 1_565
Ga2 Ni6 2.529919 1_555
Ga2 Ni7 2.535952 1_564
Ga2 Ni7 2.535952 1_654
Ga2 Ni2 2.648631 1_555
Ga2 Ga3 2.916176 1_564
Ga2 Ga3 2.916176 1_654
Ga2 Y2 3.012021 1_565
Ga2 Y2 3.012021 1_655
Ga2 Y3 3.141184 1_554
Ga3 Ni7 2.529919 1_555
Ga3 Ni6 2.535952 1_456
Ga3 Ni6 2.535952 1_546
Ga3 Ni3 2.648631 1_555
Ga3 Y3 3.012021 1_455
Ga3 Y3 3.012021 1_545
Ga3 Y2 3.141184 1_556
Ga4 Ni5 2.491771 1_565
Ga4 Ni5 2.491771 1_655
Ga4 Ni4 2.526058 1_555
Ga4 Ga5 2.882708 1_655
Ga4 Ga5 2.882708 1_565
Ga4 Y1 2.999128 1_565
Ga4 Y1 2.999128 1_655
Ga4 Ga7 3.076886 1_565
Ga4 Ga7 3.076886 1_655
Ga4 Y0 3.112066 1_555
Ga5 Ni4 2.491771 1_545
Ga5 Ni4 2.491771 1_455
Ga5 Ni5 2.526058 1_555
Ga5 Y0 2.999128 1_455
Ga5 Y0 2.999128 1_545
Ga5 Ga6 3.076886 1_545
Ga5 Ga6 3.076886 1_455
Ga5 Y1 3.112066 1_555
Ga6 Ni4 2.372579 1_555
Ga6 Ni8 2.495853 1_555
Ga6 Ni9 2.577700 1_665
Ga6 Y0 3.422609 1_555
Ga7 Ni5 2.372579 1_555
Ga7 Ni9 2.495853 1_555
Ga7 Ni8 2.577700 1_445
Ga7 Y1 3.422609 1_555
Ga8 Ni6 2.495119 1_555
Ga8 Ni9 2.602908 1_655
Ga8 Ni9 2.602908 1_565
Ga8 Y2 2.919232 1_565
Ga8 Y2 2.919232 1_655
Ga9 Ni7 2.495119 1_555
Ga9 Ni8 2.602908 1_455
Ga9 Ni8 2.602908 1_545
Ga9 Y3 2.919232 1_545
Ga9 Y3 2.919232 1_455
Ga10 Ni5 2.461779 1_655
Ga10 Ni5 2.461779 1_565
Ga10 Ni2 2.548471 1_555
Ga10 Ga4 2.703485 1_555
Ga10 Ga8 2.870873 1_555
Ga10 Ga19 2.918415 1_565
Ga10 Ga19 2.918415 1_655
Ga10 Y2 2.958836 1_655
Ga10 Y2 2.958836 1_565
Ga10 Y0 3.038617 1_555
Ga11 Ni4 2.461779 1_545
Ga11 Ni4 2.461779 1_455
Ga11 Ni3 2.548471 1_555
Ga11 Ga5 2.703485 1_555
Ga11 Ga9 2.870873 1_555
Ga11 Ga20 2.918415 1_455
Ga11 Ga20 2.918415 1_545
Ga11 Y3 2.958836 1_545
Ga11 Y3 2.958836 1_455
Ga11 Y1 3.038617 1_555
Ga12 Ni0 2.412446 1_555
Ga12 Ni6 2.466124 1_555
Ga12 Ni3 2.486585 1_564
Ga12 Ni3 2.486585 1_654
Ga12 Ga14 2.770960 1_545
Ga12 Ga14 2.770960 1_455
Ga12 Ga20 2.820532 1_554
Ga12 Ga3 2.875593 1_564
Ga12 Ga3 2.875593 1_654
Ga12 Y3 3.029184 1_554
Ga13 Ni1 2.412446 1_555
Ga13 Ni7 2.466124 1_555
Ga13 Ni2 2.486585 1_456
Ga13 Ni2 2.486585 1_546
Ga13 Ga15 2.770960 1_655
Ga13 Ga15 2.770960 1_565
Ga13 Ga19 2.820532 1_556
Ga13 Ga2 2.875593 1_546
Ga13 Ga2 2.875593 1_456
Ga13 Y2 3.029184 1_556
Ga14 Ni2 2.534023 1_555
Ga14 Ni0 2.541632 1_565
Ga14 Ni0 2.541632 1_655
Ga14 Ga15 2.668085 1_664
Ga14 Ni3 2.803210 1_664
Ga14 Ga17 2.863171 1_665
Ga14 Ga19 2.936771 1_565
Ga14 Ga19 2.936771 1_655
Ga14 Y0 3.152745 1_555
Ga15 Ni3 2.534023 1_555
Ga15 Ni1 2.541632 1_545
Ga15 Ni1 2.541632 1_455
Ga15 Ni2 2.803210 1_446
Ga15 Ga16 2.863171 1_445
Ga15 Ga20 2.936771 1_545
Ga15 Ga20 2.936771 1_455
Ga15 Y1 3.152745 1_555
Ga16 Ni8 2.563881 1_555
Ga16 Ni1 2.573617 1_655
Ga16 Ni1 2.573617 1_565
Ga16 Ni7 2.576505 1_565
Ga16 Ni7 2.576505 1_655
Ga16 Ga2 2.880485 1_556
Ga16 Y1 3.210130 1_665
Ga16 Y3 3.223997 1_555
Ga17 Ni9 2.563881 1_555
Ga17 Ni0 2.573617 1_455
Ga17 Ni0 2.573617 1_545
Ga17 Ni6 2.576505 1_455
Ga17 Ni6 2.576505 1_545
Ga17 Ga3 2.880485 1_554
Ga17 Y0 3.210130 1_445
Ga17 Y2 3.223997 1_555
Ga18 Ni8 2.493771 1_545
Ga18 Ni8 2.493771 1_455
Ga18 Ni9 2.493771 1_655
Ga18 Ni9 2.493771 1_565
Ga18 Ga9 2.686875 1_555
Ga18 Ga8 2.686875 1_555
Ga18 Ga7 2.921881 1_565
Ga18 Ga7 2.921881 1_655
Ga18 Ga6 2.921881 1_545
Ga18 Ga6 2.921881 1_455
Ga19 Ni2 2.517984 1_545
Ga19 Ni2 2.517984 1_455
Ga19 Ni0 2.533499 1_555
Ga19 Ni5 2.626585 1_555
Ga19 Y0 3.021932 1_545
Ga19 Y0 3.021932 1_455
Ga19 Y2 3.165649 1_555
Ga20 Ni3 2.517984 1_655
Ga20 Ni3 2.517984 1_565
Ga20 Ni1 2.533499 1_555
Ga20 Ni4 2.626585 1_555
Ga20 Y1 3.021932 1_655
Ga20 Y1 3.021932 1_565
Ga20 Y3 3.165649 1_555
Ni0 Ni6 2.760315 1_555
Ni0 Y0 3.047834 1_455
Ni0 Y0 3.047834 1_545
Ni1 Ni7 2.760315 1_555
Ni1 Y1 3.047834 1_565
Ni1 Y1 3.047834 1_655
Ni2 Y2 3.166644 1_565
Ni2 Y2 3.166644 1_655
Ni3 Y3 3.166644 1_455
Ni3 Y3 3.166644 1_545
Ni4 Y1 3.133268 1_565
Ni4 Y1 3.133268 1_655
Ni5 Y0 3.133268 1_545
Ni5 Y0 3.133268 1_455
Ni6 Y2 3.066822 1_655
Ni6 Y2 3.066822 1_565
Ni7 Y3 3.066822 1_455
Ni7 Y3 3.066822 1_545
