# generated using pymatgen
data_Rb3RuF6
_symmetry_space_group_name_H-M   'P 1'
_cell_length_a   6.99357900
_cell_length_b   7.09168910
_cell_length_c   7.17646625
_cell_angle_alpha   100.14255716
_cell_angle_beta   108.15781553
_cell_angle_gamma   100.12068668
_symmetry_Int_Tables_number   1
_chemical_formula_structural   Rb3RuF6
_chemical_formula_sum   'Rb3 Ru1 F6'
_cell_volume   322.64025903
_cell_formula_units_Z   1
loop_
 _symmetry_equiv_pos_site_id
 _symmetry_equiv_pos_as_xyz
  1  'x, y, z'
loop_
 _atom_site_type_symbol
 _atom_site_label
 _atom_site_symmetry_multiplicity
 _atom_site_fract_x
 _atom_site_fract_y
 _atom_site_fract_z
 _atom_site_occupancy
  Rb  Rb0  1  0.00000000  0.50000000  0.00000000  1
  Rb  Rb1  1  0.50000000  0.00000000  0.00000000  1
  Rb  Rb2  1  0.00000000  0.00000000  0.50000000  1
  Ru  Ru0  1  0.00000000  0.00000000  0.00000000  1
  F  F0  1  0.02630400  0.78785600  0.78766300  1
  F  F1  1  0.97369600  0.21214400  0.21233700  1
  F  F2  1  0.80598000  0.79985100  0.08010900  1
  F  F3  1  0.19402000  0.20014900  0.91989100  1
  F  F4  1  0.76684900  0.07019700  0.79117700  1
  F  F5  1  0.23315100  0.92980300  0.20882300  1
loop_
_geom_bond_atom_site_label_1
_geom_bond_atom_site_label_2
_geom_bond_distance
_geom_bond_site_symmetry_2
F0 Ru0 2.020855 1_566
F0 Rb2 2.741063 1_565
F0 Rb0 2.767937 1_556
F0 Rb1 3.139249 1_566
F1 Ru0 2.020855 1_655
F1 Rb2 2.741063 1_655
F1 Rb0 2.767937 1_655
F1 Rb1 3.139249 1_555
F2 Ru0 2.069559 1_665
F2 Rb1 2.740882 1_565
F2 Rb0 2.786243 1_655
F2 Rb2 2.864325 1_665
F3 Ru0 2.069559 1_556
F3 Rb1 2.740882 1_556
F3 Rb0 2.786243 1_556
F3 Rb2 2.864325 1_555
F4 Ru0 2.043868 1_656
F4 Rb1 2.766920 1_556
F4 Rb2 3.052149 1_655
F4 Rb0 3.052310 1_656
F5 Ru0 2.043868 1_565
F5 Rb1 2.766920 1_565
F5 Rb2 3.052149 1_565
F5 Rb0 3.052310 1_555
