# generated using pymatgen
data_Ba2Y2Mg(Fe2O5)2
_symmetry_space_group_name_H-M   'P 1'
_cell_length_a   4.04893471
_cell_length_b   9.63094119
_cell_length_c   7.64970606
_cell_angle_alpha   80.30199667
_cell_angle_beta   89.75166779
_cell_angle_gamma   78.21614732
_symmetry_Int_Tables_number   1
_chemical_formula_structural   Ba2Y2Mg(Fe2O5)2
_chemical_formula_sum   'Ba2 Y2 Mg1 Fe4 O10'
_cell_volume   287.70114511
_cell_formula_units_Z   1
loop_
 _symmetry_equiv_pos_site_id
 _symmetry_equiv_pos_as_xyz
  1  'x, y, z'
loop_
 _atom_site_type_symbol
 _atom_site_label
 _atom_site_symmetry_multiplicity
 _atom_site_fract_x
 _atom_site_fract_y
 _atom_site_fract_z
 _atom_site_occupancy
  Ba  Ba0  1  0.15169800  0.07082700  0.56324700  1
  Ba  Ba1  1  0.17599900  0.04807400  0.06974300  1
  Y  Y0  1  0.96032400  0.46396700  0.99257300  1
  Y  Y1  1  0.96027100  0.45685400  0.49865500  1
  Mg  Mg0  1  0.79116600  0.80692700  0.89299200  1
  Fe  Fe0  1  0.35252200  0.68030100  0.18642700  1
  Fe  Fe1  1  0.55704600  0.26391800  0.79370000  1
  Fe  Fe2  1  0.55733000  0.26549400  0.27070600  1
  Fe  Fe3  1  0.35547700  0.67659400  0.68340200  1
  O  O0  1  0.38500400  0.61458000  0.44823600  1
  O  O1  1  0.52959300  0.31319300  0.52421200  1
  O  O2  1  0.30448700  0.77970800  0.90722600  1
  O  O3  1  0.50331600  0.37656700  0.00247100  1
  O  O4  1  0.87258800  0.64089400  0.73205200  1
  O  O5  1  0.02261400  0.33671300  0.27083500  1
  O  O6  1  0.86120300  0.66263400  0.13941800  1
  O  O7  1  0.04006100  0.30436400  0.78149800  1
  O  O8  1  0.66707500  0.05487200  0.30172400  1
  O  O9  1  0.68555100  0.02518500  0.82421500  1
loop_
_geom_bond_atom_site_label_1
_geom_bond_atom_site_label_2
_geom_bond_distance
_geom_bond_site_symmetry_2
Ba0 O9 2.784130 1_455
Ba0 O8 2.852528 1_455
Ba0 O9 2.864343 1_555
Ba0 O8 2.883879 1_555
Ba0 O7 2.982265 1_555
Ba0 O1 3.016421 1_555
Ba0 O1 3.041812 1_455
Ba0 O5 3.060678 1_555
Ba1 O8 2.688832 1_555
Ba1 O8 2.711431 1_455
Ba1 O9 2.784420 1_554
Ba1 O9 2.805403 1_454
Ba1 O7 2.979841 1_554
Ba1 O2 3.004034 1_544
Mg0 O9 2.034800 1_565
Mg0 O2 2.040363 1_555
Mg0 O2 2.042093 1_655
Mg0 O6 2.127500 1_556
Mg0 O4 2.150768 1_555
Fe0 O0 1.992531 1_555
Fe0 O6 2.066723 1_555
Fe0 O6 2.068990 1_455
Fe0 O2 2.180531 1_554
Fe1 O1 2.034257 1_555
Fe1 O7 2.049025 1_555
Fe1 O3 2.063790 1_556
Fe1 O7 2.069424 1_655
Fe1 O9 2.223342 1_555
Fe2 O8 1.959366 1_555
Fe2 O1 2.064341 1_555
Fe2 O5 2.132507 1_655
Fe2 O5 2.133424 1_555
Fe2 O3 2.138072 1_555
Fe3 O0 1.984486 1_555
Fe3 O4 2.074758 1_455
Fe3 O4 2.076082 1_555
Fe3 O2 2.108669 1_555
O0 Y1 2.499356 1_555
O0 Y1 2.505501 1_455
O1 Y1 2.424119 1_455
O1 Y1 2.425838 1_555
O3 Y0 2.179842 1_554
O3 Y0 2.184479 1_454
O4 Y0 2.369854 1_555
O4 Y1 2.694275 1_555
O5 Y1 2.235173 1_455
O5 Y0 2.257467 1_454
O6 Y0 2.343161 1_554
O6 Y1 3.080654 1_555
O7 Y1 2.384193 1_455
O7 Y0 2.388117 1_455
