# generated using pymatgen
data_CsNbWO6
_symmetry_space_group_name_H-M   'P 1'
_cell_length_a   7.47338743
_cell_length_b   7.47338743
_cell_length_c   7.47338743
_cell_angle_alpha   120.36787284
_cell_angle_beta   119.78326927
_cell_angle_gamma   89.86990417
_symmetry_Int_Tables_number   1
_chemical_formula_structural   CsNbWO6
_chemical_formula_sum   'Cs2 Nb2 W2 O12'
_cell_volume   294.79882841
_cell_formula_units_Z   2
loop_
 _symmetry_equiv_pos_site_id
 _symmetry_equiv_pos_as_xyz
  1  'x, y, z'
loop_
 _atom_site_type_symbol
 _atom_site_label
 _atom_site_symmetry_multiplicity
 _atom_site_fract_x
 _atom_site_fract_y
 _atom_site_fract_z
 _atom_site_occupancy
  Cs  Cs0  1  0.62400100  0.87400100  0.75000000  1
  Cs  Cs1  1  0.37599900  0.12599900  0.25000000  1
  Nb  Nb0  1  0.50000000  0.50000000  0.00000000  1
  Nb  Nb1  1  0.00000000  0.50000000  0.50000000  1
  W  W0  1  0.00000000  0.50000000  0.00000000  1
  W  W1  1  0.00000000  0.00000000  0.50000000  1
  O  O0  1  0.05953700  0.80953700  0.25000000  1
  O  O1  1  0.68832000  0.43832000  0.25000000  1
  O  O2  1  0.05957500  0.81706300  0.62128800  1
  O  O3  1  0.69577500  0.43828600  0.87871200  1
  O  O4  1  0.69577500  0.81706300  0.25748800  1
  O  O5  1  0.05957500  0.43828600  0.24251200  1
  O  O6  1  0.94046300  0.19046300  0.75000000  1
  O  O7  1  0.31168000  0.56168000  0.75000000  1
  O  O8  1  0.94042500  0.18293700  0.37871200  1
  O  O9  1  0.30422500  0.56171400  0.12128800  1
  O  O10  1  0.30422500  0.18293700  0.74251200  1
  O  O11  1  0.94042500  0.56171400  0.75748800  1
loop_
_geom_bond_atom_site_label_1
_geom_bond_atom_site_label_2
_geom_bond_distance
_geom_bond_site_symmetry_2
Cs0 O7 3.304655 1_555
Cs0 O11 3.319271 1_555
Cs0 O10 3.319276 1_565
Cs0 O8 3.319276 1_566
Cs0 O9 3.319276 1_555
Cs0 O6 3.348471 1_565
Cs1 O1 3.304655 1_555
Cs1 O5 3.319271 1_555
Cs1 O4 3.319276 1_545
Cs1 O2 3.319276 1_544
Cs1 O3 3.319276 1_555
Cs1 O0 3.348471 1_545
Nb0 O7 1.984829 1_554
Nb0 O1 1.984829 1_555
Nb0 O9 2.016618 1_555
Nb0 O3 2.016618 1_554
Nb0 O10 2.016618 1_554
Nb0 O4 2.016618 1_555
Nb1 O1 1.984829 1_455
Nb1 O7 1.984829 1_555
Nb1 O5 2.016616 1_555
Nb1 O11 2.016616 1_455
Nb1 O8 2.016618 1_455
Nb1 O2 2.016618 1_555
O0 W0 1.961841 1_555
O0 W1 1.961841 1_565
O2 W1 1.933463 1_565
O3 W0 1.933463 1_656
O4 W1 1.933463 1_665
O5 W0 1.933468 1_555
O6 W1 1.961841 1_655
O6 W0 1.961841 1_656
O8 W1 1.933463 1_655
O9 W0 1.933463 1_555
O10 W1 1.933463 1_555
O11 W0 1.933468 1_656
