# generated using pymatgen
data_CsNd(PO3)4
_symmetry_space_group_name_H-M   'P 1'
_cell_length_a   9.31677000
_cell_length_b   7.23109600
_cell_length_c   8.91329429
_cell_angle_alpha   80.39738517
_cell_angle_beta   90.00000000
_cell_angle_gamma   90.00000000
_symmetry_Int_Tables_number   1
_chemical_formula_structural   CsNd(PO3)4
_chemical_formula_sum   'Cs2 Nd2 P8 O24'
_cell_volume   592.07887240
_cell_formula_units_Z   2
loop_
 _symmetry_equiv_pos_site_id
 _symmetry_equiv_pos_as_xyz
  1  'x, y, z'
loop_
 _atom_site_type_symbol
 _atom_site_label
 _atom_site_symmetry_multiplicity
 _atom_site_fract_x
 _atom_site_fract_y
 _atom_site_fract_z
 _atom_site_occupancy
  Cs  Cs0  1  0.82721000  0.16928000  0.82659100  1
  Cs  Cs1  1  0.32721000  0.83072000  0.17340900  1
  Nd  Nd0  1  0.99247400  0.29985900  0.30230300  1
  Nd  Nd1  1  0.49247400  0.70014100  0.69769700  1
  P  P0  1  0.91893000  0.80839300  0.22598100  1
  P  P1  1  0.41893000  0.19160700  0.77401900  1
  P  P2  1  0.71773600  0.58337300  0.07138400  1
  P  P3  1  0.21773600  0.41662700  0.92861600  1
  P  P4  1  0.60192900  0.43940300  0.37615100  1
  P  P5  1  0.10192900  0.56059700  0.62384900  1
  P  P6  1  0.36496700  0.14460600  0.45786900  1
  P  P7  1  0.86496700  0.85539400  0.54213100  1
  O  O0  1  0.02939700  0.65625100  0.23158400  1
  O  O1  1  0.52939700  0.34374900  0.76841600  1
  O  O2  1  0.96307400  0.01032800  0.18287400  1
  O  O3  1  0.46307400  0.98967200  0.81712600  1
  O  O4  1  0.79137300  0.77600600  0.10992000  1
  O  O5  1  0.29137300  0.22399400  0.89008000  1
  O  O6  1  0.82362600  0.42448700  0.09254800  1
  O  O7  1  0.32362600  0.57551300  0.90745200  1
  O  O8  1  0.14476000  0.36084500  0.07746000  1
  O  O9  1  0.64476000  0.63915500  0.92254000  1
  O  O10  1  0.59347400  0.54733500  0.20015700  1
  O  O11  1  0.09347400  0.45266500  0.79984300  1
  O  O12  1  0.83304800  0.77591200  0.38641300  1
  O  O13  1  0.33304800  0.22408800  0.61358700  1
  O  O14  1  0.93680500  0.04298800  0.50727600  1
  O  O15  1  0.43680500  0.95701200  0.49272400  1
  O  O16  1  0.22927100  0.16176600  0.36708100  1
  O  O17  1  0.72927100  0.83823400  0.63291900  1
  O  O18  1  0.97785300  0.71212800  0.63668600  1
  O  O19  1  0.47785300  0.28787200  0.36331400  1
  O  O20  1  0.24562200  0.65187400  0.59391900  1
  O  O21  1  0.74562200  0.34812600  0.40608100  1
  O  O22  1  0.04785200  0.42502200  0.52727600  1
  O  O23  1  0.54785200  0.57497800  0.47272400  1
loop_
_geom_bond_atom_site_label_1
_geom_bond_atom_site_label_2
_geom_bond_distance
_geom_bond_site_symmetry_2
Cs0 O1 3.056301 1_555
Cs0 O11 3.201090 1_655
Cs0 O6 3.238171 1_556
Cs0 O14 3.293068 1_555
Cs0 O17 3.304790 1_545
Cs0 O2 3.433717 1_556
Cs0 O4 3.490027 1_546
Cs1 O0 3.056301 1_555
Cs1 O10 3.201090 1_555
Cs1 O7 3.238171 1_554
Cs1 O15 3.293068 1_555
Cs1 O16 3.304790 1_565
Cs1 O3 3.433717 1_554
Cs1 O5 3.490027 1_564
Nd0 O22 2.389951 1_655
Nd0 O14 2.434101 1_555
Nd0 O8 2.434961 1_655
Nd0 O16 2.450590 1_655
Nd0 O6 2.494026 1_555
Nd0 O2 2.516947 1_555
Nd0 O21 2.524783 1_555
Nd0 O0 2.571998 1_655
Nd1 O23 2.389951 1_555
Nd1 O15 2.434101 1_555
Nd1 O9 2.434961 1_555
Nd1 O17 2.450590 1_555
Nd1 O7 2.494026 1_555
Nd1 O3 2.516947 1_555
Nd1 O20 2.524783 1_555
Nd1 O1 2.571998 1_555
O0 P0 1.501248 1_455
O1 P1 1.501248 1_555
O2 P0 1.503933 1_545
O3 P1 1.503933 1_565
O4 P0 1.618078 1_555
O4 P2 1.639691 1_555
O5 P1 1.618078 1_555
O5 P3 1.639691 1_555
O6 P2 1.502192 1_555
O7 P3 1.502192 1_555
O8 P3 1.485442 1_554
O9 P2 1.485442 1_556
O10 P2 1.620451 1_555
O10 P4 1.633293 1_555
O11 P3 1.620451 1_555
O11 P5 1.633293 1_555
O12 P7 1.615964 1_555
O12 P0 1.621165 1_555
O13 P6 1.615964 1_555
O13 P1 1.621165 1_555
O14 P7 1.497998 1_545
O15 P6 1.497998 1_565
O16 P6 1.495011 1_555
O17 P7 1.495011 1_555
O18 P5 1.609926 1_655
O18 P7 1.611952 1_555
O19 P4 1.609926 1_555
O19 P6 1.611952 1_555
O20 P5 1.496773 1_555
O21 P4 1.496773 1_555
O22 P5 1.495802 1_555
O23 P4 1.495802 1_555
