# generated using pymatgen
data_Mg(InS2)2
_symmetry_space_group_name_H-M   'P 1'
_cell_length_a   3.72760800
_cell_length_b   12.38999500
_cell_length_c   12.67383600
_cell_angle_alpha   90.00000000
_cell_angle_beta   90.00000000
_cell_angle_gamma   90.00000000
_symmetry_Int_Tables_number   1
_chemical_formula_structural   Mg(InS2)2
_chemical_formula_sum   'Mg4 In8 S16'
_cell_volume   585.34167942
_cell_formula_units_Z   4
loop_
 _symmetry_equiv_pos_site_id
 _symmetry_equiv_pos_as_xyz
  1  'x, y, z'
loop_
 _atom_site_type_symbol
 _atom_site_label
 _atom_site_symmetry_multiplicity
 _atom_site_fract_x
 _atom_site_fract_y
 _atom_site_fract_z
 _atom_site_occupancy
  Mg  Mg0  1  0.75000000  0.12458800  0.42536300  1
  Mg  Mg1  1  0.25000000  0.87541200  0.57463700  1
  Mg  Mg2  1  0.25000000  0.37541200  0.92536300  1
  Mg  Mg3  1  0.75000000  0.62458800  0.07463700  1
  In  In0  1  0.25000000  0.10941100  0.08711600  1
  In  In1  1  0.75000000  0.89058900  0.91288400  1
  In  In2  1  0.75000000  0.39058900  0.58711600  1
  In  In3  1  0.25000000  0.60941100  0.41288400  1
  In  In4  1  0.25000000  0.14523900  0.70222500  1
  In  In5  1  0.75000000  0.85476100  0.29777500  1
  In  In6  1  0.75000000  0.35476100  0.20222500  1
  In  In7  1  0.25000000  0.64523900  0.79777500  1
  S  S0  1  0.75000000  0.02532100  0.60948300  1
  S  S1  1  0.25000000  0.97467900  0.39051700  1
  S  S2  1  0.25000000  0.47467900  0.10948300  1
  S  S3  1  0.75000000  0.52532100  0.89051700  1
  S  S4  1  0.25000000  0.03222900  0.88171100  1
  S  S5  1  0.75000000  0.96777100  0.11828900  1
  S  S6  1  0.75000000  0.46777100  0.38171100  1
  S  S7  1  0.25000000  0.53222900  0.61828900  1
  S  S8  1  0.25000000  0.21450600  0.26493400  1
  S  S9  1  0.75000000  0.78549400  0.73506600  1
  S  S10  1  0.75000000  0.28549400  0.76493400  1
  S  S11  1  0.25000000  0.71450600  0.23506600  1
  S  S12  1  0.75000000  0.25066300  0.02275400  1
  S  S13  1  0.25000000  0.74933700  0.97724600  1
  S  S14  1  0.25000000  0.24933700  0.52275400  1
  S  S15  1  0.75000000  0.75066300  0.47724600  1
loop_
_geom_bond_atom_site_label_1
_geom_bond_atom_site_label_2
_geom_bond_distance
_geom_bond_site_symmetry_2
Mg0 S0 2.637793 1_555
Mg0 S1 2.668077 1_545
Mg0 S1 2.668077 1_645
Mg0 S14 2.717776 1_555
Mg0 S14 2.717776 1_655
Mg0 S8 2.974736 1_555
Mg0 S8 2.974736 1_655
Mg1 S1 2.637793 1_555
Mg1 S0 2.668077 1_465
Mg1 S0 2.668077 1_565
Mg1 S15 2.717776 1_455
Mg1 S15 2.717776 1_555
Mg1 S9 2.974736 1_555
Mg1 S9 2.974736 1_455
Mg2 S2 2.637793 1_556
Mg2 S3 2.668077 1_555
Mg2 S3 2.668077 1_455
Mg2 S12 2.717776 1_456
Mg2 S12 2.717776 1_556
Mg2 S10 2.974736 1_455
Mg2 S10 2.974736 1_555
Mg3 S3 2.637793 1_554
Mg3 S2 2.668077 1_555
Mg3 S2 2.668077 1_655
Mg3 S13 2.717776 1_554
Mg3 S13 2.717776 1_654
Mg3 S11 2.974736 1_555
Mg3 S11 2.974736 1_655
In0 S5 2.590289 1_545
In0 S5 2.590289 1_445
In0 S8 2.602770 1_555
In0 S12 2.683662 1_555
In0 S12 2.683662 1_455
In0 S4 2.773354 1_554
In1 S4 2.590289 1_565
In1 S4 2.590289 1_665
In1 S9 2.602770 1_555
In1 S13 2.683662 1_655
In1 S13 2.683662 1_555
In1 S5 2.773354 1_556
In2 S7 2.590289 1_555
In2 S7 2.590289 1_655
In2 S10 2.602770 1_555
In2 S14 2.683662 1_555
In2 S14 2.683662 1_655
In2 S6 2.773354 1_555
In3 S6 2.590289 1_455
In3 S6 2.590289 1_555
In3 S11 2.602770 1_555
In3 S15 2.683662 1_555
In3 S15 2.683662 1_455
In3 S7 2.773354 1_555
In4 S14 2.614815 1_555
In4 S0 2.657607 1_455
In4 S0 2.657607 1_555
In4 S10 2.669311 1_455
In4 S10 2.669311 1_555
In4 S4 2.671170 1_555
In5 S15 2.614815 1_555
In5 S1 2.657607 1_555
In5 S1 2.657607 1_655
In5 S11 2.669311 1_655
In5 S11 2.669311 1_555
In5 S5 2.671170 1_555
In6 S12 2.614815 1_555
In6 S2 2.657607 1_555
In6 S2 2.657607 1_655
In6 S8 2.669311 1_655
In6 S8 2.669311 1_555
In6 S6 2.671170 1_555
In7 S13 2.614815 1_555
In7 S3 2.657607 1_555
In7 S3 2.657607 1_455
In7 S9 2.669311 1_455
In7 S9 2.669311 1_555
In7 S7 2.671170 1_555
