# generated using pymatgen
data_K4MgMn4O8
_symmetry_space_group_name_H-M   'P 1'
_cell_length_a   3.08588211
_cell_length_b   6.58370528
_cell_length_c   13.68211302
_cell_angle_alpha   79.03660676
_cell_angle_beta   89.79687388
_cell_angle_gamma   89.97751053
_symmetry_Int_Tables_number   1
_chemical_formula_structural   K4MgMn4O8
_chemical_formula_sum   'K4 Mg1 Mn4 O8'
_cell_volume   272.89812943
_cell_formula_units_Z   1
loop_
 _symmetry_equiv_pos_site_id
 _symmetry_equiv_pos_as_xyz
  1  'x, y, z'
loop_
 _atom_site_type_symbol
 _atom_site_label
 _atom_site_symmetry_multiplicity
 _atom_site_fract_x
 _atom_site_fract_y
 _atom_site_fract_z
 _atom_site_occupancy
  K  K0  1  0.24272500  0.43624100  0.09913400  1
  K  K1  1  0.24961400  0.06805400  0.65801800  1
  K  K2  1  0.74862400  0.50139600  0.84272500  1
  K  K3  1  0.75213400  0.02062700  0.36529600  1
  Mg  Mg0  1  0.25466700  0.65418800  0.28097000  1
  Mn  Mn0  1  0.24617000  0.95200400  0.09600200  1
  Mn  Mn1  1  0.74912400  0.00907000  0.90760100  1
  Mn  Mn2  1  0.75244600  0.44897300  0.42799800  1
  Mn  Mn3  1  0.25013200  0.59507800  0.59164800  1
  O  O0  1  0.75540800  0.76972600  0.19832800  1
  O  O1  1  0.24972800  0.16471100  0.83677400  1
  O  O2  1  0.25323100  0.35298000  0.33625400  1
  O  O3  1  0.74931100  0.73999500  0.64122400  1
  O  O4  1  0.74556800  0.15545500  0.03900200  1
  O  O5  1  0.24879300  0.81394300  0.95802400  1
  O  O6  1  0.75049500  0.39604800  0.58139500  1
  O  O7  1  0.25204300  0.69234400  0.42532400  1
loop_
_geom_bond_atom_site_label_1
_geom_bond_atom_site_label_2
_geom_bond_distance
_geom_bond_site_symmetry_2
K0 O4 2.652848 1_455
K0 O4 2.658810 1_555
K0 O5 2.843434 1_554
K0 O2 3.186114 1_555
K1 O1 2.641722 1_555
K1 O3 2.697989 1_545
K1 O6 2.698379 1_555
K1 O6 2.698551 1_455
K1 O3 2.700959 1_445
K2 O1 2.713389 1_555
K2 O1 2.715945 1_655
K2 O3 2.901918 1_555
K2 O4 3.173742 1_556
K2 O5 3.211983 1_555
K2 O5 3.218626 1_655
K3 O2 2.643284 1_555
K3 O2 2.646592 1_655
K3 O7 2.654397 1_545
K3 O7 2.656469 1_645
K3 O0 3.063126 1_545
Mg0 O0 1.976423 1_555
Mg0 O0 1.978645 1_455
Mg0 O2 1.983469 1_555
Mg0 O7 2.037809 1_555
Mn0 O4 2.091189 1_565
Mn0 O4 2.097226 1_465
Mn0 O0 2.245239 1_455
Mn0 O5 2.245604 1_554
Mn0 O0 2.290145 1_555
Mn1 O1 1.997106 1_655
Mn1 O1 1.998913 1_555
Mn1 O5 2.041327 1_545
Mn1 O5 2.042718 1_645
Mn1 O4 2.195470 1_556
Mn2 O6 2.061101 1_555
Mn2 O2 2.156488 1_655
Mn2 O2 2.159742 1_555
Mn2 O7 2.219171 1_655
Mn2 O7 2.220206 1_555
Mn3 O3 1.999111 1_455
Mn3 O3 1.999490 1_555
Mn3 O6 2.046206 1_455
Mn3 O6 2.046370 1_555
Mn3 O7 2.243740 1_555
