# generated using pymatgen
data_Ca2(Ni7B2)3
_symmetry_space_group_name_H-M   'P 1'
_cell_length_a   7.55120180
_cell_length_b   7.55120180
_cell_length_c   7.55120180
_cell_angle_alpha   60.00000000
_cell_angle_beta   60.00000000
_cell_angle_gamma   60.00000000
_symmetry_Int_Tables_number   1
_chemical_formula_structural   Ca2(Ni7B2)3
_chemical_formula_sum   'Ca2 Ni21 B6'
_cell_volume   304.46209558
_cell_formula_units_Z   1
loop_
 _symmetry_equiv_pos_site_id
 _symmetry_equiv_pos_as_xyz
  1  'x, y, z'
loop_
 _atom_site_type_symbol
 _atom_site_label
 _atom_site_symmetry_multiplicity
 _atom_site_fract_x
 _atom_site_fract_y
 _atom_site_fract_z
 _atom_site_occupancy
  Ca  Ca0  1  0.75000000  0.75000000  0.75000000  1
  Ca  Ca1  1  0.25000000  0.25000000  0.25000000  1
  Ni  Ni0  1  0.00000000  0.00000000  0.33468600  1
  Ni  Ni1  1  0.66531400  0.00000000  0.33468600  1
  Ni  Ni2  1  0.00000000  0.66531400  0.33468600  1
  Ni  Ni3  1  0.66531400  0.33468600  0.00000000  1
  Ni  Ni4  1  0.00000000  0.33468600  0.00000000  1
  Ni  Ni5  1  0.00000000  0.33468600  0.66531400  1
  Ni  Ni6  1  0.33468600  0.66531400  0.00000000  1
  Ni  Ni7  1  0.33468600  0.00000000  0.66531400  1
  Ni  Ni8  1  0.33468600  0.00000000  0.00000000  1
  Ni  Ni9  1  0.00000000  0.00000000  0.66531400  1
  Ni  Ni10  1  0.00000000  0.66531400  0.00000000  1
  Ni  Ni11  1  0.66531400  0.00000000  0.00000000  1
  Ni  Ni12  1  0.61214500  0.61214500  0.16356400  1
  Ni  Ni13  1  0.61214500  0.16356400  0.61214500  1
  Ni  Ni14  1  0.16356400  0.61214500  0.61214500  1
  Ni  Ni15  1  0.61214500  0.61214500  0.61214500  1
  Ni  Ni16  1  0.38785500  0.38785500  0.83643600  1
  Ni  Ni17  1  0.38785500  0.83643600  0.38785500  1
  Ni  Ni18  1  0.83643600  0.38785500  0.38785500  1
  Ni  Ni19  1  0.38785500  0.38785500  0.38785500  1
  Ni  Ni20  1  0.00000000  0.00000000  0.00000000  1
  B  B0  1  0.72786500  0.72786500  0.27213500  1
  B  B1  1  0.27213500  0.72786500  0.27213500  1
  B  B2  1  0.72786500  0.27213500  0.27213500  1
  B  B3  1  0.27213500  0.27213500  0.72786500  1
  B  B4  1  0.72786500  0.27213500  0.72786500  1
  B  B5  1  0.27213500  0.72786500  0.72786500  1
loop_
_geom_bond_atom_site_label_1
_geom_bond_atom_site_label_2
_geom_bond_distance
_geom_bond_site_symmetry_2
Ca0 Ni14 2.549841 1_655
Ca0 Ni13 2.549841 1_565
Ca0 Ni12 2.549841 1_556
Ca0 Ni15 2.549848 1_555
Ca0 Ni6 2.947182 1_556
Ca0 Ni10 2.947182 1_656
Ca0 Ni11 2.947182 1_566
Ca0 Ni9 2.947182 1_665
Ca0 Ni5 2.947182 1_655
Ca0 Ni8 2.947182 1_566
Ca0 Ni4 2.947182 1_656
Ca0 Ni2 2.947182 1_655
Ca0 Ni1 2.947182 1_565
Ca0 Ni3 2.947182 1_556
Ca0 Ni0 2.947182 1_665
Ca0 Ni7 2.947182 1_565
Ca1 Ni17 2.549841 1_545
Ca1 Ni16 2.549841 1_554
Ca1 Ni18 2.549841 1_455
Ca1 Ni19 2.549848 1_555
Ca1 Ni5 2.947182 1_555
Ca1 Ni7 2.947182 1_555
Ca1 Ni3 2.947182 1_555
Ca1 Ni6 2.947182 1_555
Ca1 Ni1 2.947182 1_555
Ca1 Ni2 2.947182 1_555
Ca1 Ni8 2.947182 1_555
Ca1 Ni9 2.947182 1_555
Ca1 Ni0 2.947182 1_555
Ca1 Ni4 2.947182 1_555
Ca1 Ni10 2.947182 1_555
Ca1 Ni11 2.947182 1_555
Ni0 Ni20 2.527282 1_555
Ni1 Ni20 2.527282 1_655
Ni2 Ni20 2.527282 1_565
Ni10 Ni20 2.527282 1_565
Ni11 Ni20 2.527282 1_655
Ni20 Ni5 2.527282 1_554
Ni20 Ni4 2.527282 1_555
Ni20 Ni3 2.527282 1_455
Ni20 Ni9 2.527282 1_554
Ni20 Ni8 2.527282 1_555
Ni20 Ni7 2.527282 1_554
Ni20 Ni6 2.527282 1_545
B0 Ni17 2.096574 1_555
B0 Ni18 2.096574 1_555
B0 Ni15 2.096574 1_555
B0 Ni12 2.096580 1_555
B0 Ni2 2.108531 1_655
B0 Ni1 2.108531 1_565
B0 Ni10 2.108531 1_655
B0 Ni11 2.108531 1_565
B1 Ni14 2.096574 1_555
B1 Ni12 2.096574 1_555
B1 Ni19 2.096574 1_555
B1 Ni17 2.096580 1_555
B1 Ni8 2.108531 1_565
B1 Ni0 2.108531 1_565
B1 Ni2 2.108531 1_555
B1 Ni6 2.108531 1_555
B2 Ni13 2.096574 1_555
B2 Ni12 2.096574 1_555
B2 Ni19 2.096574 1_555
B2 Ni18 2.096580 1_555
B2 Ni4 2.108531 1_655
B2 Ni0 2.108531 1_655
B2 Ni1 2.108531 1_555
B2 Ni3 2.108531 1_555
B3 Ni13 2.096574 1_555
B3 Ni14 2.096574 1_555
B3 Ni19 2.096574 1_555
B3 Ni16 2.096580 1_555
B3 Ni4 2.108531 1_556
B3 Ni8 2.108531 1_556
B3 Ni7 2.108531 1_555
B3 Ni5 2.108531 1_555
B4 Ni16 2.096574 1_555
B4 Ni18 2.096574 1_555
B4 Ni15 2.096574 1_555
B4 Ni13 2.096580 1_555
B4 Ni5 2.108531 1_655
B4 Ni3 2.108531 1_556
B4 Ni9 2.108531 1_655
B4 Ni11 2.108531 1_556
B5 Ni16 2.096574 1_555
B5 Ni17 2.096574 1_555
B5 Ni15 2.096574 1_555
B5 Ni14 2.096580 1_555
B5 Ni6 2.108531 1_556
B5 Ni7 2.108531 1_565
B5 Ni9 2.108531 1_565
B5 Ni10 2.108531 1_556
