# generated using pymatgen
data_NaTbCl4
_symmetry_space_group_name_H-M   'P 1'
_cell_length_a   6.61914121
_cell_length_b   6.72307669
_cell_length_c   6.94806244
_cell_angle_alpha   89.52089034
_cell_angle_beta   91.84297700
_cell_angle_gamma   101.06817525
_symmetry_Int_Tables_number   1
_chemical_formula_structural   NaTbCl4
_chemical_formula_sum   'Na2 Tb2 Cl8'
_cell_volume   303.28675358
_cell_formula_units_Z   2
loop_
 _symmetry_equiv_pos_site_id
 _symmetry_equiv_pos_as_xyz
  1  'x, y, z'
loop_
 _atom_site_type_symbol
 _atom_site_label
 _atom_site_symmetry_multiplicity
 _atom_site_fract_x
 _atom_site_fract_y
 _atom_site_fract_z
 _atom_site_occupancy
  Na  Na0  1  0.23133280  0.80496737  0.46451896  1
  Na  Na1  1  0.76866720  0.19503263  0.53548104  1
  Tb  Tb0  1  0.78952398  0.70024626  0.94507365  1
  Tb  Tb1  1  0.21047602  0.29975374  0.05492635  1
  Cl  Cl0  1  0.60791210  0.79366424  0.63125737  1
  Cl  Cl1  1  0.39208790  0.20633576  0.36874263  1
  Cl  Cl2  1  0.09660996  0.99795766  0.79087744  1
  Cl  Cl3  1  0.90339004  0.00204234  0.20912256  1
  Cl  Cl4  1  0.04870729  0.49781113  0.75354714  1
  Cl  Cl5  1  0.95129271  0.50218887  0.24645286  1
  Cl  Cl6  1  0.56877527  0.31180881  0.87966905  1
  Cl  Cl7  1  0.43122473  0.68819119  0.12033095  1
loop_
_geom_bond_atom_site_label_1
_geom_bond_atom_site_label_2
_geom_bond_distance
_geom_bond_site_symmetry_2
Cl0 Tb0 2.586916 1_555
Cl0 Na0 2.728854 1_555
Cl0 Na1 2.787411 1_565
Cl1 Tb1 2.586916 1_555
Cl1 Na1 2.728854 1_555
Cl1 Na0 2.787411 1_545
Cl2 Tb1 2.727069 1_566
Cl2 Tb0 2.797811 1_455
Cl2 Na0 2.871242 1_555
Cl2 Na1 3.230095 1_465
Cl3 Tb0 2.727069 1_544
Cl3 Tb1 2.797811 1_655
Cl3 Na1 2.871242 1_555
Cl3 Na0 3.230095 1_645
Cl4 Tb0 2.764045 1_455
Cl4 Tb1 2.767854 1_556
Cl4 Na1 2.880526 1_455
Cl4 Na0 2.981069 1_555
Cl5 Tb1 2.764045 1_655
Cl5 Tb0 2.767854 1_554
Cl5 Na0 2.880526 1_655
Cl5 Na1 2.981069 1_555
Cl6 Tb1 2.687807 1_556
Cl6 Tb0 2.770101 1_555
Cl6 Na1 2.952922 1_555
Cl7 Tb0 2.687807 1_554
Cl7 Tb1 2.770101 1_555
Cl7 Na0 2.952922 1_555
