# generated using pymatgen
data_Ca3Sc2N4
_symmetry_space_group_name_H-M   'P 1'
_cell_length_a   5.88687500
_cell_length_b   11.28470700
_cell_length_c   9.33264500
_cell_angle_alpha   90.00000000
_cell_angle_beta   90.00000000
_cell_angle_gamma   90.00000000
_symmetry_Int_Tables_number   1
_chemical_formula_structural   Ca3Sc2N4
_chemical_formula_sum   'Ca12 Sc8 N16'
_cell_volume   619.98309507
_cell_formula_units_Z   4
loop_
 _symmetry_equiv_pos_site_id
 _symmetry_equiv_pos_as_xyz
  1  'x, y, z'
loop_
 _atom_site_type_symbol
 _atom_site_label
 _atom_site_symmetry_multiplicity
 _atom_site_fract_x
 _atom_site_fract_y
 _atom_site_fract_z
 _atom_site_occupancy
  Ca  Ca0  1  0.64602300  0.16769300  0.40095100  1
  Ca  Ca1  1  0.85397700  0.83230700  0.40095100  1
  Ca  Ca2  1  0.64602300  0.33230700  0.09904900  1
  Ca  Ca3  1  0.85397700  0.66769300  0.09904900  1
  Ca  Ca4  1  0.35397700  0.83230700  0.59904900  1
  Ca  Ca5  1  0.14602300  0.16769300  0.59904900  1
  Ca  Ca6  1  0.35397700  0.66769300  0.90095100  1
  Ca  Ca7  1  0.14602300  0.33230700  0.90095100  1
  Ca  Ca8  1  0.75000000  0.50000000  0.42500600  1
  Ca  Ca9  1  0.75000000  0.00000000  0.07499400  1
  Ca  Ca10  1  0.25000000  0.50000000  0.57499400  1
  Ca  Ca11  1  0.25000000  0.00000000  0.92500600  1
  Sc  Sc0  1  0.75000000  0.50000000  0.77279100  1
  Sc  Sc1  1  0.75000000  0.00000000  0.72720900  1
  Sc  Sc2  1  0.25000000  0.50000000  0.22720900  1
  Sc  Sc3  1  0.25000000  0.00000000  0.27279100  1
  Sc  Sc4  1  0.69385300  0.25000000  0.75000000  1
  Sc  Sc5  1  0.80614700  0.75000000  0.75000000  1
  Sc  Sc6  1  0.30614700  0.75000000  0.25000000  1
  Sc  Sc7  1  0.19385300  0.25000000  0.25000000  1
  N  N0  1  0.93325300  0.37339800  0.65072600  1
  N  N1  1  0.56674700  0.62660200  0.65072600  1
  N  N2  1  0.93325300  0.12660200  0.84927400  1
  N  N3  1  0.56674700  0.87339800  0.84927400  1
  N  N4  1  0.06674700  0.62660200  0.34927400  1
  N  N5  1  0.43325300  0.37339800  0.34927400  1
  N  N6  1  0.06674700  0.87339800  0.15072600  1
  N  N7  1  0.43325300  0.12660200  0.15072600  1
  N  N8  1  0.52489900  0.37787600  0.86620000  1
  N  N9  1  0.97510100  0.62212400  0.86620000  1
  N  N10  1  0.52489900  0.12212400  0.63380000  1
  N  N11  1  0.97510100  0.87787600  0.63380000  1
  N  N12  1  0.47510100  0.62212400  0.13380000  1
  N  N13  1  0.02489900  0.37787600  0.13380000  1
  N  N14  1  0.47510100  0.87787600  0.36620000  1
  N  N15  1  0.02489900  0.12212400  0.36620000  1
loop_
_geom_bond_atom_site_label_1
_geom_bond_atom_site_label_2
_geom_bond_distance
_geom_bond_site_symmetry_2
Ca0 N15 2.311770 1_655
Ca0 N10 2.344187 1_555
Ca0 N5 2.681419 1_555
Ca0 N7 2.690231 1_555
Ca1 N14 2.311770 1_555
Ca1 N11 2.344187 1_555
Ca1 N4 2.681419 1_655
Ca1 N6 2.690231 1_655
Ca2 N13 2.311770 1_655
Ca2 N8 2.344187 1_554
Ca2 N7 2.681419 1_555
Ca2 N5 2.690231 1_555
Ca3 N12 2.311770 1_555
Ca3 N9 2.344187 1_554
Ca3 N6 2.681419 1_655
Ca3 N4 2.690231 1_655
Ca4 N11 2.311770 1_455
Ca4 N14 2.344187 1_555
Ca4 N1 2.681419 1_555
Ca4 N3 2.690231 1_555
Ca5 N10 2.311770 1_555
Ca5 N15 2.344187 1_555
Ca5 N0 2.681419 1_455
Ca5 N2 2.690231 1_455
Ca6 N9 2.311770 1_455
Ca6 N12 2.344187 1_556
Ca6 N3 2.681419 1_555
Ca6 N1 2.690231 1_555
Ca7 N8 2.311770 1_555
Ca7 N13 2.344187 1_556
Ca7 N2 2.681419 1_455
Ca7 N0 2.690231 1_455
Ca8 N4 2.453069 1_655
Ca8 N5 2.453069 1_555
Ca8 N1 2.764504 1_555
Ca8 N0 2.764504 1_555
Ca9 N6 2.453069 1_645
Ca9 N7 2.453069 1_555
Ca9 N2 2.764504 1_554
Ca9 N3 2.764504 1_544
Ca10 N0 2.453069 1_455
Ca10 N1 2.453069 1_555
Ca10 N5 2.764504 1_555
Ca10 N4 2.764504 1_555
Ca11 N2 2.453069 1_455
Ca11 N3 2.453069 1_545
Ca11 N7 2.764504 1_556
Ca11 N6 2.764504 1_546
N0 Sc0 2.121938 1_555
N0 Sc4 2.187154 1_555
N1 Sc0 2.121938 1_555
N1 Sc5 2.187154 1_555
N2 Sc1 2.121938 1_555
N2 Sc4 2.187154 1_555
N3 Sc1 2.121938 1_565
N3 Sc5 2.187154 1_555
N4 Sc2 2.121938 1_555
N4 Sc6 2.187154 1_555
N5 Sc2 2.121938 1_555
N5 Sc7 2.187154 1_555
N6 Sc3 2.121938 1_565
N6 Sc6 2.187154 1_555
N7 Sc3 2.121938 1_555
N7 Sc7 2.187154 1_555
N8 Sc4 2.060986 1_555
N8 Sc0 2.101239 1_555
N9 Sc5 2.060986 1_555
N9 Sc0 2.101239 1_555
N10 Sc4 2.060986 1_555
N10 Sc1 2.101239 1_555
N11 Sc5 2.060986 1_555
N11 Sc1 2.101239 1_565
N12 Sc6 2.060986 1_555
N12 Sc2 2.101239 1_555
N13 Sc7 2.060986 1_555
N13 Sc2 2.101239 1_555
N14 Sc6 2.060986 1_555
N14 Sc3 2.101239 1_565
N15 Sc7 2.060986 1_555
N15 Sc3 2.101239 1_555
