# generated using pymatgen
data_Na3Li3Fe2P2(CO7)2
_symmetry_space_group_name_H-M   'P 1'
_cell_length_a   6.64184000
_cell_length_b   8.77414012
_cell_length_c   10.19776150
_cell_angle_alpha   91.86809769
_cell_angle_beta   90.00275867
_cell_angle_gamma   90.52484893
_symmetry_Int_Tables_number   1
_chemical_formula_structural   Na3Li3Fe2P2(CO7)2
_chemical_formula_sum   'Na6 Li6 Fe4 P4 C4 O28'
_cell_volume   593.94837568
_cell_formula_units_Z   2
loop_
 _symmetry_equiv_pos_site_id
 _symmetry_equiv_pos_as_xyz
  1  'x, y, z'
loop_
 _atom_site_type_symbol
 _atom_site_label
 _atom_site_symmetry_multiplicity
 _atom_site_fract_x
 _atom_site_fract_y
 _atom_site_fract_z
 _atom_site_occupancy
  Na  Na0  1  0.24741000  0.91723100  0.87904000  1
  Na  Na1  1  0.24711900  0.91559400  0.38104800  1
  Na  Na2  1  0.99912200  0.74017000  0.12108700  1
  Na  Na3  1  0.50062900  0.74068600  0.12218200  1
  Na  Na4  1  0.50200100  0.25418300  0.87575700  1
  Na  Na5  1  0.50228800  0.25948300  0.37631000  1
  Li  Li0  1  0.02260900  0.72617100  0.61868300  1
  Li  Li1  1  0.47603300  0.72539400  0.61975800  1
  Li  Li2  1  0.98120100  0.27189300  0.88285200  1
  Li  Li3  1  0.98305700  0.27410100  0.38258000  1
  Li  Li4  1  0.76657000  0.09061600  0.62463700  1
  Li  Li5  1  0.76514000  0.09386500  0.12664800  1
  Fe  Fe0  1  0.74916900  0.64301200  0.88110700  1
  Fe  Fe1  1  0.74991300  0.65115600  0.39762300  1
  Fe  Fe2  1  0.24407700  0.34819800  0.61194800  1
  Fe  Fe3  1  0.24424200  0.35187300  0.10741200  1
  P  P0  1  0.24441700  0.58695300  0.84724300  1
  P  P1  1  0.24404600  0.58259100  0.35950000  1
  P  P2  1  0.75383600  0.40871800  0.64936000  1
  P  P3  1  0.75225700  0.40818100  0.14543200  1
  C  C0  1  0.75854000  0.95364700  0.86160700  1
  C  C1  1  0.75988200  0.95520100  0.36400100  1
  C  C2  1  0.24683600  0.04788300  0.63485800  1
  C  C3  1  0.24602500  0.05982900  0.13760900  1
  O  O0  1  0.25038200  0.89971700  0.63945100  1
  O  O1  1  0.25227200  0.91336900  0.14748500  1
  O  O2  1  0.75222100  0.91957000  0.98507300  1
  O  O3  1  0.75365200  0.91487400  0.48553800  1
  O  O4  1  0.74606100  0.84519800  0.77100000  1
  O  O5  1  0.74917400  0.84990200  0.27012500  1
  O  O6  1  0.06301300  0.68636900  0.88998300  1
  O  O7  1  0.43463900  0.67590900  0.89465400  1
  O  O8  1  0.06298000  0.68367200  0.40565300  1
  O  O9  1  0.43579200  0.67142300  0.41037800  1
  O  O10  1  0.24882800  0.57221800  0.69262000  1
  O  O11  1  0.75254000  0.57412900  0.59723900  1
  O  O12  1  0.24892100  0.56814600  0.20681300  1
  O  O13  1  0.74719800  0.56417700  0.07913700  1
  O  O14  1  0.23262500  0.42483700  0.90356000  1
  O  O15  1  0.77742600  0.42225800  0.80196700  1
  O  O16  1  0.22984200  0.42096800  0.41448100  1
  O  O17  1  0.77454600  0.43323200  0.29726100  1
  O  O18  1  0.55948000  0.31680600  0.61466900  1
  O  O19  1  0.92680900  0.30930200  0.59039700  1
  O  O20  1  0.55942600  0.31103300  0.11512600  1
  O  O21  1  0.92850800  0.30715300  0.09162500  1
  O  O22  1  0.23841500  0.13345400  0.74127500  1
  O  O23  1  0.23485200  0.14890200  0.24179500  1
  O  O24  1  0.25104500  0.11517200  0.52288500  1
  O  O25  1  0.25055900  0.12037300  0.02265700  1
  O  O26  1  0.77649600  0.09410000  0.82616600  1
  O  O27  1  0.77587600  0.09710400  0.33270400  1
loop_
_geom_bond_atom_site_label_1
_geom_bond_atom_site_label_2
_geom_bond_distance
_geom_bond_site_symmetry_2
Na0 O25 2.269684 1_566
Na0 O6 2.363229 1_555
Na0 O22 2.398415 1_565
Na0 O0 2.443187 1_555
Na0 O7 2.474937 1_555
Na0 O1 2.739045 1_556
Na1 O24 2.234564 1_565
Na1 O1 2.381513 1_555
Na1 O8 2.384816 1_555
Na1 O9 2.518050 1_555
Na1 O23 2.531073 1_565
Na1 O0 2.643441 1_555
Na2 O1 2.266140 1_655
Na2 O13 2.297124 1_555
Na2 O6 2.426600 1_654
Na2 O12 2.434520 1_655
Na2 O5 2.434553 1_555
Na2 O2 2.698188 1_554
Na3 O1 2.259113 1_555
Na3 O13 2.296821 1_555
Na3 O5 2.407505 1_555
Na3 O7 2.410016 1_554
Na3 O12 2.422932 1_555
Na3 O2 2.702977 1_554
Na4 O14 2.354769 1_555
Na4 O26 2.356523 1_555
Na4 O22 2.436985 1_555
Na4 O15 2.471948 1_555
Na4 O20 2.503985 1_556
Na4 O25 2.547667 1_556
Na4 O18 2.761932 1_555
Na5 O16 2.333373 1_555
Na5 O27 2.352822 1_555
Na5 O23 2.420669 1_555
Na5 O18 2.494475 1_555
Na5 O17 2.504718 1_555
Na5 O24 2.589798 1_555
Na5 O20 2.741950 1_555
Li0 O0 2.142177 1_555
Li0 O10 2.180411 1_555
Li0 O8 2.208952 1_555
Li0 O11 2.232070 1_455
Li0 O4 2.608994 1_455
Li1 O0 2.155927 1_555
Li1 O10 2.159563 1_555
Li1 O9 2.187807 1_555
Li1 O11 2.282950 1_555
Li1 O4 2.561216 1_555
Li2 O15 2.087186 1_555
Li2 O26 2.125686 1_555
Li2 O14 2.138806 1_655
Li2 O21 2.170259 1_556
Li2 O22 2.530293 1_655
Li3 O16 2.094515 1_655
Li3 O27 2.115024 1_555
Li3 O19 2.164665 1_555
Li3 O17 2.176911 1_555
Li3 O23 2.448646 1_655
Li4 O26 2.055421 1_555
Li4 O3 2.062080 1_545
Li4 O19 2.223206 1_555
Li4 O18 2.429835 1_555
Li5 O2 2.069814 1_544
Li5 O27 2.101773 1_555
Li5 O21 2.193979 1_555
Li5 O20 2.360869 1_555
Fe0 O15 2.083986 1_555
Fe0 O7 2.115429 1_555
Fe0 O6 2.116901 1_655
Fe0 O4 2.130458 1_555
Fe0 O13 2.155869 1_556
Fe1 O8 2.097463 1_655
Fe1 O9 2.099209 1_555
Fe1 O17 2.146747 1_555
Fe1 O11 2.165825 1_555
Fe1 O5 2.208944 1_555
Fe1 O3 2.454020 1_555
Fe2 O10 2.105882 1_555
Fe2 O18 2.115685 1_555
Fe2 O16 2.134620 1_555
Fe2 O19 2.141760 1_455
Fe2 O24 2.210908 1_555
Fe2 O22 2.334882 1_555
Fe3 O12 2.122008 1_555
Fe3 O20 2.128964 1_555
Fe3 O21 2.135016 1_455
Fe3 O25 2.182138 1_555
Fe3 O14 2.196591 1_554
Fe3 O23 2.282670 1_555
C0 O26 1.299959 1_565
C0 O2 1.304130 1_555
C0 O4 1.306633 1_555
C1 O27 1.298789 1_565
C1 O3 1.300525 1_555
C1 O5 1.310061 1_555
C2 O22 1.300843 1_555
C2 O24 1.302647 1_555
C2 O0 1.302826 1_545
C3 O1 1.293313 1_545
C3 O23 1.300797 1_555
C3 O25 1.302916 1_555
O6 P0 1.548242 1_555
O7 P0 1.548054 1_555
O8 P1 1.564213 1_555
O9 P1 1.566526 1_555
O10 P0 1.578189 1_555
O11 P2 1.561888 1_555
O12 P1 1.558454 1_555
O13 P3 1.546862 1_555
O14 P0 1.552575 1_555
O15 P2 1.564659 1_555
O16 P1 1.543915 1_555
O17 P3 1.563555 1_555
O18 P2 1.550539 1_555
O19 P2 1.557738 1_555
O20 P3 1.557304 1_555
O21 P3 1.563517 1_555
