# generated using pymatgen
data_La(Ni2Sn)2
_symmetry_space_group_name_H-M   'P 1'
_cell_length_a   6.77462388
_cell_length_b   6.77462388
_cell_length_c   6.77462388
_cell_angle_alpha   108.39264290
_cell_angle_beta   110.01318655
_cell_angle_gamma   110.01318655
_symmetry_Int_Tables_number   1
_chemical_formula_structural   La(Ni2Sn)2
_chemical_formula_sum   'La2 Ni8 Sn4'
_cell_volume   239.28666565
_cell_formula_units_Z   2
loop_
 _symmetry_equiv_pos_site_id
 _symmetry_equiv_pos_as_xyz
  1  'x, y, z'
loop_
 _atom_site_type_symbol
 _atom_site_label
 _atom_site_symmetry_multiplicity
 _atom_site_fract_x
 _atom_site_fract_y
 _atom_site_fract_z
 _atom_site_occupancy
  La  La0  1  0.50000000  0.00000000  0.50000000  1
  La  La1  1  0.50000000  0.50000000  0.00000000  1
  Ni  Ni0  1  0.72380500  0.44782700  0.44805400  1
  Ni  Ni1  1  0.27619500  0.72424900  0.72402200  1
  Ni  Ni2  1  0.99977300  0.94782700  0.22402200  1
  Ni  Ni3  1  0.00022700  0.22424900  0.94805400  1
  Ni  Ni4  1  0.00022700  0.27597800  0.55217300  1
  Ni  Ni5  1  0.99977300  0.55194600  0.27575100  1
  Ni  Ni6  1  0.27619500  0.05194600  0.05217300  1
  Ni  Ni7  1  0.72380500  0.77597800  0.77575100  1
  Sn  Sn0  1  0.31842900  0.40921400  0.40921400  1
  Sn  Sn1  1  0.68157100  0.09078600  0.09078600  1
  Sn  Sn2  1  0.00000000  0.90921400  0.59078600  1
  Sn  Sn3  1  0.00000000  0.59078600  0.90921400  1
loop_
_geom_bond_atom_site_label_1
_geom_bond_atom_site_label_2
_geom_bond_distance
_geom_bond_site_symmetry_2
La0 Ni7 3.085035 1_545
La0 Ni6 3.085035 1_555
La0 Ni1 3.085035 1_545
La0 Ni0 3.085035 1_555
La0 Ni4 3.087255 1_655
La0 Ni3 3.087255 1_655
La0 Ni5 3.087255 1_445
La0 Ni2 3.087255 1_445
La0 Sn0 3.531164 1_555
La0 Sn1 3.531164 1_555
La0 Sn2 3.531168 1_545
La0 Sn3 3.531168 1_655
La0 Sn2 3.531168 1_645
La0 Sn3 3.531168 1_544
La0 Sn1 3.531168 1_556
La0 Sn0 3.531168 1_545
La0 La1 3.963221 1_545
La0 La1 3.963221 1_556
La1 Ni5 3.085035 1_555
La1 Ni2 3.085035 1_555
La1 Ni4 3.085035 1_554
La1 Ni3 3.085035 1_554
La1 Ni0 3.087255 1_555
La1 Ni7 3.087255 1_554
La1 Ni1 3.087255 1_554
La1 Ni6 3.087255 1_555
La1 Sn0 3.531164 1_555
La1 Sn1 3.531164 1_555
La1 Sn2 3.531168 1_655
La1 Sn3 3.531168 1_554
La1 Sn3 3.531168 1_654
La1 Sn2 3.531168 1_544
La1 Sn1 3.531168 1_565
La1 Sn0 3.531168 1_554
Ni0 Ni5 2.542859 1_555
Ni0 Ni4 2.542859 1_655
Ni0 Sn0 2.578739 1_555
Ni0 Ni7 2.599272 1_555
Ni0 Sn3 2.654914 1_655
Ni0 Sn2 2.656557 1_655
Ni0 Sn1 2.673671 1_555
Ni0 Ni6 2.812250 1_555
Ni0 Ni1 3.035051 1_655
Ni1 Ni4 2.542859 1_555
Ni1 Ni5 2.542859 1_455
Ni1 Sn1 2.578743 1_566
Ni1 Ni6 2.599272 1_566
Ni1 Sn2 2.654914 1_555
Ni1 Sn3 2.656557 1_555
Ni1 Sn0 2.673679 1_555
Ni1 Ni7 2.812250 1_555
Ni2 Ni7 2.542859 1_554
Ni2 Ni6 2.542859 1_665
Ni2 Sn2 2.578746 1_655
Ni2 Ni4 2.599272 1_665
Ni2 Sn1 2.654919 1_565
Ni2 Sn0 2.656559 1_665
Ni2 Sn3 2.673674 1_654
Ni2 Ni5 2.812250 1_555
Ni2 Ni3 3.035051 1_664
Ni3 Ni6 2.542859 1_556
Ni3 Ni7 2.542859 1_445
Ni3 Sn3 2.578746 1_555
Ni3 Ni5 2.599272 1_456
Ni3 Sn0 2.654916 1_556
Ni3 Sn1 2.656563 1_456
Ni3 Sn2 2.673674 1_545
Ni3 Ni4 2.812250 1_555
Ni4 Sn2 2.578746 1_545
Ni4 Sn0 2.654919 1_555
Ni4 Sn1 2.656559 1_455
Ni4 Sn3 2.673674 1_555
Ni4 Ni5 3.035051 1_455
Ni5 Sn3 2.578746 1_654
Ni5 Sn1 2.654916 1_555
Ni5 Sn0 2.656563 1_655
Ni5 Sn2 2.673674 1_655
Ni6 Sn1 2.578739 1_555
Ni6 Sn3 2.654914 1_544
Ni6 Sn2 2.656557 1_544
Ni6 Sn0 2.673671 1_555
Ni6 Ni7 3.035051 1_444
Ni7 Sn0 2.578743 1_555
Ni7 Sn2 2.654914 1_655
Ni7 Sn3 2.656557 1_655
Ni7 Sn1 2.673679 1_566
