# generated using pymatgen
data_Nd5Ru2
_symmetry_space_group_name_H-M   'P 1'
_cell_length_a   6.61774499
_cell_length_b   7.32926313
_cell_length_c   8.88126446
_cell_angle_alpha   95.92804696
_cell_angle_beta   111.87406292
_cell_angle_gamma   90.00000000
_symmetry_Int_Tables_number   1
_chemical_formula_structural   Nd5Ru2
_chemical_formula_sum   'Nd10 Ru4'
_cell_volume   397.27305169
_cell_formula_units_Z   2
loop_
 _symmetry_equiv_pos_site_id
 _symmetry_equiv_pos_as_xyz
  1  'x, y, z'
loop_
 _atom_site_type_symbol
 _atom_site_label
 _atom_site_symmetry_multiplicity
 _atom_site_fract_x
 _atom_site_fract_y
 _atom_site_fract_z
 _atom_site_occupancy
  Nd  Nd0  1  0.98223406  0.90913094  0.18561978  1
  Nd  Nd1  1  0.79661328  0.59086906  0.81438022  1
  Nd  Nd2  1  0.01776594  0.09086906  0.81438022  1
  Nd  Nd3  1  0.20338672  0.40913094  0.18561978  1
  Nd  Nd4  1  0.64216582  0.81412796  0.43132350  1
  Nd  Nd5  1  0.21084232  0.68587204  0.56867650  1
  Nd  Nd6  1  0.35783418  0.18587204  0.56867650  1
  Nd  Nd7  1  0.78915768  0.31412796  0.43132350  1
  Nd  Nd8  1  0.42523373  0.75000000  -0.00000000  1
  Nd  Nd9  1  0.57476627  0.25000000  -0.00000000  1
  Ru  Ru0  1  0.82800595  0.57264022  0.22182223  1
  Ru  Ru1  1  0.60618472  0.92735978  0.77817777  1
  Ru  Ru2  1  0.17199405  0.42735978  0.77817777  1
  Ru  Ru3  1  0.39381528  0.07264022  0.22182223  1
loop_
_geom_bond_atom_site_label_1
_geom_bond_atom_site_label_2
_geom_bond_distance
_geom_bond_site_symmetry_2
Nd0 Ru0 2.763275 1_555
Nd0 Ru3 2.868129 1_665
Nd0 Ru1 3.563001 1_554
Nd1 Ru1 2.763270 1_555
Nd1 Ru2 2.868141 1_655
Nd1 Ru0 3.563001 1_556
Nd2 Ru2 2.763275 1_555
Nd2 Ru1 2.868129 1_445
Nd2 Ru3 3.563001 1_556
Nd3 Ru3 2.763270 1_555
Nd3 Ru0 2.868141 1_455
Nd3 Ru2 3.563001 1_554
Nd4 Ru3 2.864019 1_565
Nd4 Ru0 3.021915 1_555
Nd4 Ru1 3.202099 1_555
Nd5 Ru2 2.864017 1_555
Nd5 Ru1 3.021919 1_555
Nd5 Ru0 3.202102 1_455
Nd6 Ru1 2.864019 1_545
Nd6 Ru2 3.021915 1_555
Nd6 Ru3 3.202099 1_555
Nd7 Ru0 2.864017 1_555
Nd7 Ru3 3.021919 1_555
Nd7 Ru2 3.202102 1_655
Nd8 Ru2 2.976437 1_554
Nd8 Ru3 2.976439 1_565
Nd8 Ru0 3.048233 1_555
Nd8 Ru1 3.048237 1_554
Nd9 Ru0 2.976437 1_555
Nd9 Ru1 2.976439 1_544
Nd9 Ru2 3.048233 1_554
Nd9 Ru3 3.048237 1_555
