# generated using pymatgen
data_Be2Tl2Ni(O3F4)2
_symmetry_space_group_name_H-M   'P 1'
_cell_length_a   5.47339493
_cell_length_b   9.32658485
_cell_length_c   13.88111200
_cell_angle_alpha   90.00000000
_cell_angle_beta   90.00000000
_cell_angle_gamma   117.90737503
_symmetry_Int_Tables_number   1
_chemical_formula_structural   Be2Tl2Ni(O3F4)2
_chemical_formula_sum   'Be4 Tl4 Ni2 O12 F16'
_cell_volume   626.19730470
_cell_formula_units_Z   2
loop_
 _symmetry_equiv_pos_site_id
 _symmetry_equiv_pos_as_xyz
  1  'x, y, z'
loop_
 _atom_site_type_symbol
 _atom_site_label
 _atom_site_symmetry_multiplicity
 _atom_site_fract_x
 _atom_site_fract_y
 _atom_site_fract_z
 _atom_site_occupancy
  Be  Be0  1  0.73890400  0.55602500  0.86763200  1
  Be  Be1  1  0.26109600  0.44397500  0.13236800  1
  Be  Be2  1  0.26109600  0.94397500  0.36763200  1
  Be  Be3  1  0.73890400  0.05602500  0.63236800  1
  Tl  Tl0  1  0.96276800  0.72965900  0.11558200  1
  Tl  Tl1  1  0.03723200  0.27034100  0.88441800  1
  Tl  Tl2  1  0.03723200  0.77034100  0.61558200  1
  Tl  Tl3  1  0.96276800  0.22965900  0.38441800  1
  Ni  Ni0  1  0.50000000  0.00000000  0.00000000  1
  Ni  Ni1  1  0.50000000  0.50000000  0.50000000  1
  O  O0  1  0.80169700  0.04077200  0.93309200  1
  O  O1  1  0.19830300  0.95922800  0.06690800  1
  O  O2  1  0.19830300  0.45922800  0.43309200  1
  O  O3  1  0.80169700  0.54077200  0.56690800  1
  O  O4  1  0.33888700  0.56617700  0.61714200  1
  O  O5  1  0.66111300  0.43382300  0.38285800  1
  O  O6  1  0.66111300  0.93382300  0.11714200  1
  O  O7  1  0.33888700  0.06617700  0.88285800  1
  O  O8  1  0.20617700  0.95208400  0.82671600  1
  O  O9  1  0.79382300  0.04791600  0.17328400  1
  O  O10  1  0.79382300  0.54791600  0.32671600  1
  O  O11  1  0.20617700  0.45208400  0.67328400  1
  F  F0  1  0.89025100  0.64370800  0.77513300  1
  F  F1  1  0.10974900  0.35629200  0.22486700  1
  F  F2  1  0.10974900  0.85629200  0.27513300  1
  F  F3  1  0.89025100  0.14370800  0.72486700  1
  F  F4  1  0.80696600  0.66667500  0.95653200  1
  F  F5  1  0.19303400  0.33332500  0.04346800  1
  F  F6  1  0.19303400  0.83332500  0.45653200  1
  F  F7  1  0.80696600  0.16667500  0.54346800  1
  F  F8  1  0.77374500  0.90082900  0.60859500  1
  F  F9  1  0.22625500  0.09917100  0.39140500  1
  F  F10  1  0.22625500  0.59917100  0.10859500  1
  F  F11  1  0.77374500  0.40082900  0.89140500  1
  F  F12  1  0.39918200  0.48371000  0.84814400  1
  F  F13  1  0.60081800  0.51629000  0.15185600  1
  F  F14  1  0.60081800  0.01629000  0.34814400  1
  F  F15  1  0.39918200  0.98371000  0.65185600  1
loop_
_geom_bond_atom_site_label_1
_geom_bond_atom_site_label_2
_geom_bond_distance
_geom_bond_site_symmetry_2
Be0 F4 1.538419 1_555
Be0 F0 1.539309 1_555
Be0 F11 1.580745 1_555
Be0 F12 1.676785 1_555
Be1 F5 1.538419 1_555
Be1 F1 1.539309 1_555
Be1 F10 1.580745 1_555
Be1 F13 1.676785 1_555
Be2 F6 1.538419 1_555
Be2 F2 1.539309 1_555
Be2 F9 1.580745 1_565
Be2 F14 1.676785 1_565
Be3 F7 1.538419 1_555
Be3 F3 1.539309 1_555
Be3 F8 1.580745 1_545
Be3 F15 1.676785 1_545
Ni0 O0 1.773755 1_554
Ni0 O1 1.773755 1_545
Ni0 O7 2.076569 1_554
Ni0 O6 2.076569 1_545
Ni1 O3 1.773755 1_555
Ni1 O2 1.773755 1_555
Ni1 O4 2.076569 1_555
Ni1 O5 2.076569 1_555
O0 Tl1 2.029515 1_655
O1 Tl0 2.029515 1_455
O2 Tl3 2.029515 1_455
O3 Tl2 2.029515 1_655
O6 O9 1.242466 1_565
O7 O8 1.242466 1_545
O10 O5 1.242466 1_555
O11 O4 1.242466 1_555
F0 Tl2 2.461253 1_655
F1 Tl3 2.461253 1_455
F2 Tl0 2.461253 1_455
F3 Tl1 2.461253 1_655
F4 Tl0 2.340448 1_556
F5 Tl1 2.340448 1_554
F6 Tl2 2.340448 1_555
F7 Tl3 2.340448 1_555
F8 Tl2 2.283269 1_655
F9 Tl3 2.283269 1_455
F10 Tl0 2.283269 1_455
F11 Tl1 2.283269 1_655
F12 Tl1 2.109022 1_555
F13 Tl0 2.109022 1_555
F14 Tl3 2.109022 1_555
F15 Tl2 2.109022 1_555
