# generated using pymatgen
data_Ta3B2Ru5
_symmetry_space_group_name_H-M   'P 1'
_cell_length_a   9.40653491
_cell_length_b   9.40653491
_cell_length_c   2.99713038
_cell_angle_alpha   90.00000000
_cell_angle_beta   90.00000000
_cell_angle_gamma   90.00000000
_symmetry_Int_Tables_number   1
_chemical_formula_structural   Ta3B2Ru5
_chemical_formula_sum   'Ta6 B4 Ru10'
_cell_volume   265.19478474
_cell_formula_units_Z   2
loop_
 _symmetry_equiv_pos_site_id
 _symmetry_equiv_pos_as_xyz
  1  'x, y, z'
loop_
 _atom_site_type_symbol
 _atom_site_label
 _atom_site_symmetry_multiplicity
 _atom_site_fract_x
 _atom_site_fract_y
 _atom_site_fract_z
 _atom_site_occupancy
  Ta  Ta0  1  0.82378952  0.67621048  -0.00000000  1
  Ta  Ta1  1  0.17621048  0.32378952  0.00000000  1
  Ta  Ta2  1  0.32378952  0.82378952  0.00000000  1
  Ta  Ta3  1  0.67621048  0.17621048  -0.00000000  1
  Ta  Ta4  1  0.50000000  0.50000000  -0.00000000  1
  Ta  Ta5  1  -0.00000000  -0.00000000  -0.00000000  1
  B  B0  1  0.62135017  0.87864983  -0.00000000  1
  B  B1  1  0.37864983  0.12135017  0.00000000  1
  B  B2  1  0.12135017  0.62135017  0.00000000  1
  B  B3  1  0.87864983  0.37864983  -0.00000000  1
  Ru  Ru0  1  0.57126751  0.71826849  0.50000000  1
  Ru  Ru1  1  0.42873249  0.28173151  0.50000000  1
  Ru  Ru2  1  0.07126751  0.78173151  0.50000000  1
  Ru  Ru3  1  0.92873249  0.21826849  0.50000000  1
  Ru  Ru4  1  0.28173151  0.57126751  0.50000000  1
  Ru  Ru5  1  0.71826849  0.42873249  0.50000000  1
  Ru  Ru6  1  0.21826849  0.07126751  0.50000000  1
  Ru  Ru7  1  0.78173151  0.92873249  0.50000000  1
  Ru  Ru8  1  0.50000000  -0.00000000  0.50000000  1
  Ru  Ru9  1  -0.00000000  0.50000000  0.50000000  1
loop_
_geom_bond_atom_site_label_1
_geom_bond_atom_site_label_2
_geom_bond_distance
_geom_bond_site_symmetry_2
B0 Ru7 2.177983 1_554
B0 Ru0 2.177983 1_554
B0 Ru0 2.177983 1_555
B0 Ru7 2.177983 1_555
B0 Ru8 2.202651 1_564
B0 Ru8 2.202651 1_565
B0 Ta0 2.693020 1_555
B0 Ta3 2.846188 1_565
B0 Ta2 2.846188 1_555
B1 Ru6 2.177983 1_555
B1 Ru1 2.177983 1_555
B1 Ru6 2.177983 1_554
B1 Ru1 2.177983 1_554
B1 Ru8 2.202651 1_555
B1 Ru8 2.202651 1_554
B1 Ta1 2.693020 1_555
B1 Ta3 2.846188 1_555
B1 Ta2 2.846188 1_545
B2 Ru2 2.177983 1_555
B2 Ru2 2.177983 1_554
B2 Ru4 2.177983 1_554
B2 Ru4 2.177983 1_555
B2 Ru9 2.202651 1_554
B2 Ru9 2.202651 1_555
B2 Ta2 2.693020 1_555
B2 Ta0 2.846188 1_455
B2 Ta1 2.846188 1_555
B3 Ru5 2.177983 1_555
B3 Ru5 2.177983 1_554
B3 Ru3 2.177983 1_555
B3 Ru3 2.177983 1_554
B3 Ru9 2.202651 1_654
B3 Ru9 2.202651 1_655
B3 Ta3 2.693020 1_555
B3 Ta0 2.846188 1_555
B3 Ta1 2.846188 1_655
Ru0 Ta4 2.628789 1_555
Ru0 Ta4 2.628789 1_556
Ru0 Ta0 2.836289 1_556
Ru0 Ta0 2.836289 1_555
Ru0 Ta2 2.941104 1_555
Ru0 Ta2 2.941104 1_556
Ru1 Ta4 2.628789 1_555
Ru1 Ta4 2.628789 1_556
Ru1 Ta1 2.836289 1_555
Ru1 Ta1 2.836289 1_556
Ru1 Ta3 2.941104 1_555
Ru1 Ta3 2.941104 1_556
Ru2 Ta5 2.628789 1_566
Ru2 Ta5 2.628789 1_565
Ru2 Ta2 2.836289 1_555
Ru2 Ta2 2.836289 1_556
Ru2 Ta0 2.941104 1_455
Ru2 Ta0 2.941104 1_456
Ru3 Ta5 2.628789 1_656
Ru3 Ta5 2.628789 1_655
Ru3 Ta3 2.836289 1_555
Ru3 Ta3 2.836289 1_556
Ru3 Ta1 2.941104 1_655
Ru3 Ta1 2.941104 1_656
Ru4 Ta4 2.628789 1_555
Ru4 Ta4 2.628789 1_556
Ru4 Ta2 2.836289 1_555
Ru4 Ta2 2.836289 1_556
Ru4 Ta1 2.941104 1_555
Ru4 Ta1 2.941104 1_556
Ru5 Ta4 2.628789 1_555
Ru5 Ta4 2.628789 1_556
Ru5 Ta3 2.836289 1_555
Ru5 Ta3 2.836289 1_556
Ru5 Ta0 2.941104 1_556
Ru5 Ta0 2.941104 1_555
Ru6 Ta5 2.628789 1_555
Ru6 Ta5 2.628789 1_556
Ru6 Ta1 2.836289 1_555
Ru6 Ta1 2.836289 1_556
Ru6 Ta2 2.941104 1_545
Ru6 Ta2 2.941104 1_546
Ru7 Ta5 2.628789 1_665
Ru7 Ta5 2.628789 1_666
Ru7 Ta0 2.836289 1_556
Ru7 Ta0 2.836289 1_555
Ru7 Ta3 2.941104 1_566
Ru7 Ta3 2.941104 1_565
Ru8 Ta2 2.782177 1_545
Ru8 Ta3 2.782177 1_555
Ru8 Ta3 2.782177 1_556
Ru8 Ta2 2.782177 1_546
Ru9 Ta0 2.782177 1_456
Ru9 Ta0 2.782177 1_455
Ru9 Ta1 2.782177 1_555
Ru9 Ta1 2.782177 1_556
