# generated using pymatgen
data_Na3V3O8
_symmetry_space_group_name_H-M   'P 1'
_cell_length_a   5.62576232
_cell_length_b   8.87041848
_cell_length_c   8.90707564
_cell_angle_alpha   66.40844622
_cell_angle_beta   71.62970167
_cell_angle_gamma   71.52992269
_symmetry_Int_Tables_number   1
_chemical_formula_structural   Na3V3O8
_chemical_formula_sum   'Na6 V6 O16'
_cell_volume   377.17552544
_cell_formula_units_Z   2
loop_
 _symmetry_equiv_pos_site_id
 _symmetry_equiv_pos_as_xyz
  1  'x, y, z'
loop_
 _atom_site_type_symbol
 _atom_site_label
 _atom_site_symmetry_multiplicity
 _atom_site_fract_x
 _atom_site_fract_y
 _atom_site_fract_z
 _atom_site_occupancy
  Na  Na0  1  0.50163300  0.49630600  0.50029800  1
  Na  Na1  1  0.99845700  0.00381500  0.99966200  1
  Na  Na2  1  0.83080900  0.50433700  0.83418400  1
  Na  Na3  1  0.32992100  0.00335800  0.33608800  1
  Na  Na4  1  0.16991500  0.49666900  0.16394500  1
  Na  Na5  1  0.66908500  0.99571400  0.66583500  1
  V  V0  1  0.75003000  0.24997900  0.24993200  1
  V  V1  1  0.11281900  0.22044000  0.55375900  1
  V  V2  1  0.38725500  0.27950900  0.94628800  1
  V  V3  1  0.25003600  0.74993400  0.74994900  1
  V  V4  1  0.61344300  0.72017500  0.05307300  1
  V  V5  1  0.88648800  0.77977600  0.44695600  1
  O  O0  1  0.99064500  0.34239700  0.67579800  1
  O  O1  1  0.49193800  0.84187000  0.17500400  1
  O  O2  1  0.00794100  0.65809000  0.32494800  1
  O  O3  1  0.50923200  0.15753100  0.82417600  1
  O  O4  1  0.41029000  0.75562300  0.92151200  1
  O  O5  1  0.90956000  0.25636200  0.42215800  1
  O  O6  1  0.66263100  0.50291200  0.17141200  1
  O  O7  1  0.16138200  0.00400600  0.67267700  1
  O  O8  1  0.08869200  0.24355300  0.07769700  1
  O  O9  1  0.58730200  0.74472400  0.57852000  1
  O  O10  1  0.91262100  0.75531400  0.92150300  1
  O  O11  1  0.41129200  0.25653900  0.42227400  1
  O  O12  1  0.33858300  0.49595300  0.82738500  1
  O  O13  1  0.83728700  0.99706000  0.32862800  1
  O  O14  1  0.59043100  0.24364800  0.07788500  1
  O  O15  1  0.08968300  0.74441000  0.57845500  1
loop_
_geom_bond_atom_site_label_1
_geom_bond_atom_site_label_2
_geom_bond_distance
_geom_bond_site_symmetry_2
Na0 O11 2.712071 1_555
Na0 O5 2.713881 1_555
Na0 O6 2.762079 1_555
Na0 O12 2.763931 1_555
Na0 O15 2.770693 1_555
Na0 O9 2.772526 1_555
Na1 O8 2.711581 1_656
Na1 O14 2.713784 1_556
Na1 O13 2.762360 1_546
Na1 O7 2.763523 1_655
Na1 O4 2.770833 1_645
Na1 O10 2.773350 1_545
Na2 O0 2.205973 1_555
Na3 O1 2.221457 1_545
Na4 O2 2.220438 1_555
Na5 O3 2.204815 1_565
O0 V1 1.680332 1_655
O1 V4 1.677787 1_555
O2 V5 1.678258 1_455
O3 V2 1.680980 1_555
O4 V4 1.760615 1_556
O4 V3 2.027173 1_555
O5 V1 1.760149 1_655
O5 V0 2.032592 1_555
O6 V4 1.766839 1_555
O6 V0 2.006616 1_555
O7 V1 1.762042 1_555
O7 V3 2.016010 1_545
O8 V2 1.759084 1_554
O8 V0 2.036057 1_455
O9 V5 1.760574 1_555
O9 V3 2.026943 1_555
O10 V4 1.760718 1_556
O10 V3 2.028085 1_655
O11 V1 1.759152 1_555
O11 V0 2.036840 1_555
O12 V2 1.762084 1_555
O12 V3 2.015241 1_555
O13 V5 1.766967 1_555
O13 V0 2.006470 1_565
O14 V2 1.759904 1_554
O14 V0 2.031200 1_555
O15 V5 1.760577 1_455
O15 V3 2.026318 1_555
