# generated using pymatgen
data_Li6AsS5I
_symmetry_space_group_name_H-M   'P 1'
_cell_length_a   7.30158577
_cell_length_b   7.30158577
_cell_length_c   12.73374114
_cell_angle_alpha   73.55246201
_cell_angle_beta   73.55246201
_cell_angle_gamma   60.07982720
_symmetry_Int_Tables_number   1
_chemical_formula_structural   Li6AsS5I
_chemical_formula_sum   'Li12 As2 S10 I2'
_cell_volume   556.03433097
_cell_formula_units_Z   2
loop_
 _symmetry_equiv_pos_site_id
 _symmetry_equiv_pos_as_xyz
  1  'x, y, z'
loop_
 _atom_site_type_symbol
 _atom_site_label
 _atom_site_symmetry_multiplicity
 _atom_site_fract_x
 _atom_site_fract_y
 _atom_site_fract_z
 _atom_site_occupancy
  Li  Li0  1  0.48005900  0.52602700  0.50748100  1
  Li  Li1  1  0.52602700  0.48005900  0.00748100  1
  Li  Li2  1  0.04316100  0.53641400  0.49024400  1
  Li  Li3  1  0.53641400  0.04316100  0.99024400  1
  Li  Li4  1  0.34636200  0.65897900  0.72972100  1
  Li  Li5  1  0.65897900  0.34636200  0.22972100  1
  Li  Li6  1  0.13999400  0.30812500  0.72735400  1
  Li  Li7  1  0.30812500  0.13999400  0.22735400  1
  Li  Li8  1  0.97573600  0.02867000  0.99964100  1
  Li  Li9  1  0.02867000  0.97573600  0.49964100  1
  Li  Li10  1  0.79942900  0.85678500  0.72954000  1
  Li  Li11  1  0.85678500  0.79942900  0.22954000  1
  As  As0  1  0.01576000  0.51461400  0.99010200  1
  As  As1  1  0.51461400  0.01576000  0.49010200  1
  S  S0  1  0.20262100  0.69548800  0.92722000  1
  S  S1  1  0.69548800  0.20262100  0.42722000  1
  S  S2  1  0.19511300  0.21256300  0.92448300  1
  S  S3  1  0.21256300  0.19511300  0.42448300  1
  S  S4  1  0.45086000  0.96001400  0.67133200  1
  S  S5  1  0.96001400  0.45086000  0.17133200  1
  S  S6  1  0.13540300  0.64204100  0.61926700  1
  S  S7  1  0.64204100  0.13540300  0.11926700  1
  S  S8  1  0.71126100  0.70162200  0.92693700  1
  S  S9  1  0.70162200  0.71126100  0.42693700  1
  I  I0  1  0.75606500  0.26683400  0.74267900  1
  I  I1  1  0.26683400  0.75606500  0.24267900  1
loop_
_geom_bond_atom_site_label_1
_geom_bond_atom_site_label_2
_geom_bond_distance
_geom_bond_site_symmetry_2
Li0 S6 2.367375 1_555
Li0 S1 2.417798 1_555
Li0 S9 2.440487 1_555
Li1 S7 2.367375 1_555
Li1 S0 2.417798 1_554
Li1 S8 2.440487 1_554
Li2 S6 2.368552 1_555
Li2 S9 2.424504 1_455
Li2 S3 2.441639 1_555
Li3 S7 2.368552 1_556
Li3 S8 2.424504 1_545
Li3 S2 2.441639 1_555
Li4 S6 2.425182 1_555
Li4 S0 2.470461 1_555
Li4 S4 2.528377 1_555
Li5 S7 2.425182 1_555
Li5 S1 2.470461 1_555
Li5 S5 2.528377 1_555
Li6 S6 2.425742 1_555
Li6 S2 2.499999 1_555
Li6 S4 2.544792 1_545
Li7 S7 2.425742 1_555
Li7 S3 2.499999 1_555
Li7 S5 2.544792 1_455
Li8 S7 2.353842 1_556
Li8 S2 2.415440 1_655
Li8 S0 2.428583 1_645
Li9 S6 2.353842 1_555
Li9 S3 2.415440 1_565
Li9 S1 2.428583 1_465
Li10 S6 2.430466 1_655
Li10 S8 2.492954 1_555
Li10 S4 2.536385 1_555
Li11 S7 2.430466 1_565
Li11 S9 2.492954 1_555
Li11 S5 2.536385 1_555
As0 S5 2.181007 1_456
As0 S8 2.194720 1_455
As0 S2 2.195417 1_555
As0 S0 2.197025 1_555
As1 S4 2.181007 1_545
As1 S9 2.194720 1_545
As1 S3 2.195417 1_555
As1 S1 2.197025 1_555
I0 Li10 2.898327 1_545
I0 Li6 2.913322 1_655
I0 Li4 2.939689 1_555
I1 Li11 2.898327 1_455
I1 Li7 2.913322 1_565
I1 Li5 2.939689 1_555
