# generated using pymatgen
data_Mg14ZrCu
_symmetry_space_group_name_H-M   'P 1'
_cell_length_a   6.35188052
_cell_length_b   6.35188001
_cell_length_c   10.02331684
_cell_angle_alpha   90.00000000
_cell_angle_beta   90.00000000
_cell_angle_gamma   120.00000267
_symmetry_Int_Tables_number   1
_chemical_formula_structural   Mg14ZrCu
_chemical_formula_sum   'Mg14 Zr1 Cu1'
_cell_volume   350.22462938
_cell_formula_units_Z   1
loop_
 _symmetry_equiv_pos_site_id
 _symmetry_equiv_pos_as_xyz
  1  'x, y, z'
loop_
 _atom_site_type_symbol
 _atom_site_label
 _atom_site_symmetry_multiplicity
 _atom_site_fract_x
 _atom_site_fract_y
 _atom_site_fract_z
 _atom_site_occupancy
  Mg  Mg0  1  0.17768617  0.83884259  0.12500000  1
  Mg  Mg1  1  0.16344006  0.83171953  0.62500000  1
  Mg  Mg2  1  0.66115741  0.32231383  0.12500000  1
  Mg  Mg3  1  0.66828047  0.33655994  0.62500000  1
  Mg  Mg4  1  0.66115741  0.83884259  0.12500000  1
  Mg  Mg5  1  0.66828047  0.83171953  0.62500000  1
  Mg  Mg6  1  0.32589727  0.17410273  0.38420134  1
  Mg  Mg7  1  0.32589727  0.17410273  0.86579866  1
  Mg  Mg8  1  0.32589727  0.65179553  0.38420134  1
  Mg  Mg9  1  0.32589727  0.65179553  0.86579866  1
  Mg  Mg10  1  0.84820447  0.17410273  0.38420134  1
  Mg  Mg11  1  0.84820447  0.17410273  0.86579866  1
  Mg  Mg12  1  0.83333300  0.66666700  0.36992626  1
  Mg  Mg13  1  0.83333300  0.66666700  0.88007374  1
  Zr  Zr0  1  0.16666700  0.33333300  0.12500000  1
  Cu  Cu0  1  0.16666700  0.33333300  0.62500000  1
loop_
_geom_bond_atom_site_label_1
_geom_bond_atom_site_label_2
_geom_bond_distance
_geom_bond_site_symmetry_2
Mg0 Mg2 3.070951 1_565
Mg0 Mg4 3.070952 1_555
Mg0 Mg13 3.100818 1_454
Mg0 Mg12 3.100818 1_455
Mg0 Zr0 3.176518 1_565
Mg0 Zr0 3.176518 1_555
Mg0 Mg9 3.188456 1_554
Mg0 Mg8 3.188456 1_555
Mg0 Mg7 3.188463 1_564
Mg0 Mg6 3.188463 1_565
Mg0 Mg2 3.280929 1_455
Mg0 Mg4 3.280929 1_455
Mg1 Mg8 3.061984 1_555
Mg1 Mg9 3.061984 1_555
Mg1 Mg6 3.061991 1_565
Mg1 Mg7 3.061991 1_565
Mg1 Mg12 3.135932 1_455
Mg1 Mg13 3.135932 1_455
Mg1 Mg3 3.145194 1_455
Mg1 Mg5 3.145195 1_455
Mg1 Mg3 3.206686 1_565
Mg1 Mg5 3.206686 1_555
Mg2 Mg4 3.070951 1_545
Mg2 Zr0 3.176519 1_555
Mg2 Zr0 3.176519 1_655
Mg2 Mg6 3.188463 1_555
Mg2 Mg7 3.188463 1_554
Mg2 Mg4 3.280929 1_555
Mg3 Mg6 3.061991 1_555
Mg3 Mg7 3.061991 1_555
Mg3 Mg5 3.145194 1_555
Mg3 Mg5 3.206686 1_545
Mg4 Zr0 3.176518 1_555
Mg4 Zr0 3.176518 1_665
Mg4 Mg9 3.188463 1_554
Mg4 Mg8 3.188463 1_555
Mg5 Mg8 3.061991 1_555
Mg5 Mg9 3.061991 1_555
Mg6 Zr0 3.133490 1_555
Mg7 Zr0 3.133490 1_556
Mg8 Zr0 3.133496 1_555
Mg9 Zr0 3.133496 1_556
Mg10 Mg3 3.061984 1_555
Mg10 Mg5 3.061991 1_545
Mg10 Zr0 3.133496 1_655
Mg10 Mg12 3.180214 1_545
Mg10 Mg12 3.180214 1_555
Mg10 Mg2 3.188456 1_555
Mg10 Mg4 3.188462 1_545
Mg11 Mg3 3.061984 1_555
Mg11 Mg5 3.061991 1_545
Mg11 Zr0 3.133496 1_656
Mg11 Mg13 3.180214 1_545
Mg11 Mg13 3.180214 1_555
Mg11 Mg2 3.188456 1_556
Mg11 Mg4 3.188462 1_546
Mg12 Mg4 3.100812 1_555
Mg12 Mg2 3.100818 1_555
Mg12 Mg5 3.135925 1_555
Mg12 Mg3 3.135932 1_555
Mg12 Mg6 3.180214 1_665
Mg12 Mg6 3.180214 1_555
Mg12 Mg8 3.180214 1_555
Mg12 Mg8 3.180214 1_655
Mg13 Mg4 3.100812 1_556
Mg13 Mg2 3.100818 1_556
Mg13 Mg5 3.135925 1_555
Mg13 Mg3 3.135932 1_555
Mg13 Mg7 3.180214 1_665
Mg13 Mg7 3.180214 1_555
Mg13 Mg9 3.180214 1_555
Mg13 Mg9 3.180214 1_655
Cu0 Mg6 2.982337 1_555
Cu0 Mg7 2.982337 1_555
Cu0 Mg8 2.982343 1_555
Cu0 Mg9 2.982343 1_555
Cu0 Mg10 2.982343 1_455
Cu0 Mg11 2.982343 1_455
Cu0 Mg5 3.175990 1_445
Cu0 Mg1 3.175990 1_545
Cu0 Mg1 3.175990 1_555
Cu0 Mg5 3.175990 1_555
Cu0 Mg3 3.175990 1_455
Cu0 Mg3 3.175990 1_555
