# generated using pymatgen
data_CaMn3V4O12
_symmetry_space_group_name_H-M   'P 1'
_cell_length_a   6.54060643
_cell_length_b   6.52461972
_cell_length_c   6.53693348
_cell_angle_alpha   70.18518318
_cell_angle_beta   71.18751642
_cell_angle_gamma   109.85228054
_symmetry_Int_Tables_number   1
_chemical_formula_structural   CaMn3V4O12
_chemical_formula_sum   'Ca1 Mn3 V4 O12'
_cell_volume   214.55427348
_cell_formula_units_Z   1
loop_
 _symmetry_equiv_pos_site_id
 _symmetry_equiv_pos_as_xyz
  1  'x, y, z'
loop_
 _atom_site_type_symbol
 _atom_site_label
 _atom_site_symmetry_multiplicity
 _atom_site_fract_x
 _atom_site_fract_y
 _atom_site_fract_z
 _atom_site_occupancy
  Ca  Ca0  1  0.99982800  0.99985100  0.00008100  1
  Mn  Mn0  1  0.49980300  0.49994000  0.99993300  1
  Mn  Mn1  1  0.00038600  0.50015800  0.49987500  1
  Mn  Mn2  1  0.50001000  0.00031500  0.50025900  1
  V  V0  1  0.49997500  0.00003900  0.00000600  1
  V  V1  1  0.00001800  0.00000500  0.49999000  1
  V  V2  1  0.00000500  0.49985500  0.00008800  1
  V  V3  1  0.49998800  0.49997000  0.50006500  1
  O  O0  1  0.10320700  0.80203200  0.71356000  1
  O  O1  1  0.48430000  0.19779200  0.69895700  1
  O  O2  1  0.51547800  0.80211800  0.30120100  1
  O  O3  1  0.89686800  0.19797100  0.28643600  1
  O  O4  1  0.70238500  0.89600900  0.80585300  1
  O  O5  1  0.70479000  0.51449100  0.19019800  1
  O  O6  1  0.29513100  0.48553700  0.80969500  1
  O  O7  1  0.29759400  0.10401400  0.19401500  1
  O  O8  1  0.18555600  0.29006400  0.51072800  1
  O  O9  1  0.80063300  0.28967600  0.89542900  1
  O  O10  1  0.19942800  0.71034200  0.10443800  1
  O  O11  1  0.81461700  0.70982200  0.48919200  1
loop_
_geom_bond_atom_site_label_1
_geom_bond_atom_site_label_2
_geom_bond_distance
_geom_bond_site_symmetry_2
Ca0 O5 2.632756 1_555
Ca0 O6 2.634441 1_664
Ca0 O0 2.654428 1_654
Ca0 O3 2.654641 1_565
Ca0 O2 2.656236 1_555
Ca0 O1 2.656639 1_664
Ca0 O9 2.666913 1_564
Ca0 O10 2.667105 1_655
Ca0 O11 2.667247 1_555
Ca0 O8 2.668125 1_664
Ca0 O4 2.671495 1_554
Ca0 O7 2.671996 1_665
Mn0 O7 2.099389 1_556
Mn0 O4 2.100190 1_555
Mn0 O6 2.101147 1_555
Mn0 O5 2.102993 1_556
Mn1 O8 2.113758 1_555
Mn1 O10 2.114508 1_555
Mn1 O11 2.114579 1_455
Mn1 O9 2.115181 1_455
Mn2 O1 2.120429 1_555
Mn2 O0 2.125156 1_545
Mn2 O3 2.125761 1_555
Mn2 O2 2.126136 1_545
O0 V2 1.904758 1_556
O0 V1 2.012535 1_565
O1 V3 1.904414 1_555
O1 V0 2.011612 1_556
O2 V3 1.904873 1_555
O2 V0 2.012056 1_565
O3 V2 1.903170 1_655
O3 V1 2.012252 1_655
O4 V1 1.980020 1_665
O4 V0 1.983648 1_566
O5 V2 1.984925 1_655
O5 V3 1.984954 1_555
O6 V2 1.983851 1_556
O6 V3 1.984157 1_555
O7 V1 1.980213 1_555
O7 V0 1.982748 1_555
O8 V1 1.909025 1_555
O8 V3 2.009941 1_555
O9 V0 1.907553 1_556
O9 V2 2.011458 1_656
O10 V0 1.907630 1_565
O10 V2 2.011218 1_555
O11 V1 1.909611 1_665
O11 V3 2.010112 1_555
