# generated using pymatgen
data_VZn2WO6
_symmetry_space_group_name_H-M   'P 1'
_cell_length_a   5.59281959
_cell_length_b   5.59281959
_cell_length_c   5.59281957
_cell_angle_alpha   56.55914068
_cell_angle_beta   56.55914068
_cell_angle_gamma   56.55914525
_symmetry_Int_Tables_number   1
_chemical_formula_structural   VZn2WO6
_chemical_formula_sum   'V1 Zn2 W1 O6'
_cell_volume   113.86686453
_cell_formula_units_Z   1
loop_
 _symmetry_equiv_pos_site_id
 _symmetry_equiv_pos_as_xyz
  1  'x, y, z'
loop_
 _atom_site_type_symbol
 _atom_site_label
 _atom_site_symmetry_multiplicity
 _atom_site_fract_x
 _atom_site_fract_y
 _atom_site_fract_z
 _atom_site_occupancy
  V  V0  1  0.49631900  0.49631900  0.49631900  1
  Zn  Zn0  1  0.77838900  0.77838900  0.77838900  1
  Zn  Zn1  1  0.25295500  0.25295500  0.25295500  1
  W  W0  1  0.99982800  0.99982800  0.99982800  1
  O  O0  1  0.62464600  0.22034600  0.89546200  1
  O  O1  1  0.36946400  0.75979700  0.09685300  1
  O  O2  1  0.09685300  0.36946400  0.75979700  1
  O  O3  1  0.75979700  0.09685300  0.36946400  1
  O  O4  1  0.22034600  0.89546200  0.62464600  1
  O  O5  1  0.89546200  0.62464600  0.22034600  1
loop_
_geom_bond_atom_site_label_1
_geom_bond_atom_site_label_2
_geom_bond_distance
_geom_bond_site_symmetry_2
O0 Zn1 1.937877 1_556
O0 W0 1.992227 1_545
O0 V0 2.151308 1_555
O0 Zn0 2.469527 1_545
O1 W0 1.935241 1_454
O1 Zn0 1.995527 1_554
O1 V0 2.152305 1_555
O2 W0 1.935241 1_445
O2 Zn0 1.995527 1_455
O2 V0 2.152304 1_555
O3 W0 1.935241 1_544
O3 Zn0 1.995527 1_545
O3 V0 2.152305 1_555
O4 Zn1 1.937877 1_565
O4 W0 1.992227 1_455
O4 V0 2.151308 1_555
O4 Zn0 2.469526 1_455
O5 Zn1 1.937877 1_655
O5 W0 1.992227 1_554
O5 V0 2.151308 1_555
O5 Zn0 2.469527 1_554
