# generated using pymatgen
data_Rb3H(SeO4)2
_symmetry_space_group_name_H-M   'P 1'
_cell_length_a   6.22001800
_cell_length_b   8.51987458
_cell_length_c   10.73544492
_cell_angle_alpha   101.66030794
_cell_angle_beta   90.00000000
_cell_angle_gamma   68.59057693
_symmetry_Int_Tables_number   1
_chemical_formula_structural   Rb3H(SeO4)2
_chemical_formula_sum   'Rb6 H2 Se4 O16'
_cell_volume   517.02314223
_cell_formula_units_Z   2
loop_
 _symmetry_equiv_pos_site_id
 _symmetry_equiv_pos_as_xyz
  1  'x, y, z'
loop_
 _atom_site_type_symbol
 _atom_site_label
 _atom_site_symmetry_multiplicity
 _atom_site_fract_x
 _atom_site_fract_y
 _atom_site_fract_z
 _atom_site_occupancy
  Rb  Rb0  1  0.75663800  0.99704200  0.24976000  1
  Rb  Rb1  1  0.24631900  0.99704200  0.74976000  1
  Rb  Rb2  1  0.92636800  0.61335500  0.84807800  1
  Rb  Rb3  1  0.46027700  0.61335500  0.34807800  1
  Rb  Rb4  1  0.07228700  0.38895800  0.15218900  1
  Rb  Rb5  1  0.53875500  0.38895800  0.65218900  1
  H  H0  1  0.02391000  0.00063100  0.49205600  1
  H  H1  1  0.97545900  0.00063100  0.99205600  1
  Se  Se0  1  0.34018800  0.76949600  0.03674800  1
  Se  Se1  1  0.89031500  0.76949600  0.53674800  1
  Se  Se2  1  0.65777500  0.23520900  0.96416600  1
  Se  Se3  1  0.10701600  0.23520900  0.46416600  1
  O  O0  1  0.17464600  0.68448500  0.09996100  1
  O  O1  1  0.14086800  0.68448500  0.59996100  1
  O  O2  1  0.82923100  0.31280300  0.89970300  1
  O  O3  1  0.85796600  0.31280300  0.39970300  1
  O  O4  1  0.17776200  0.98563200  0.05543300  1
  O  O5  1  0.83660600  0.98563200  0.55543300  1
  O  O6  1  0.81855400  0.01162300  0.94245300  1
  O  O7  1  0.16982400  0.01162300  0.44245300  1
  O  O8  1  0.58225100  0.74385700  0.11103200  1
  O  O9  1  0.67389200  0.74385700  0.61103200  1
  O  O10  1  0.42155300  0.25158800  0.88871300  1
  O  O11  1  0.32685900  0.25158800  0.38871300  1
  O  O12  1  0.39805600  0.68956700  0.87979300  1
  O  O13  1  0.91237700  0.68956700  0.37979300  1
  O  O14  1  0.60471100  0.30775300  0.12091400  1
  O  O15  1  0.08753600  0.30775300  0.62091400  1
loop_
_geom_bond_atom_site_label_1
_geom_bond_atom_site_label_2
_geom_bond_distance
_geom_bond_site_symmetry_2
H0 O7 1.094652 1_555
H0 O5 1.407263 1_445
H1 O6 1.094647 1_555
H1 O4 1.407263 1_646
O0 Se0 1.669874 1_555
O0 Rb4 2.966528 1_555
O0 Rb0 3.106733 1_455
O0 Rb2 3.175684 1_454
O0 Rb3 3.238078 1_555
O1 Se1 1.669874 1_455
O1 Rb5 2.966531 1_555
O1 Rb1 3.106733 1_555
O1 Rb3 3.175688 1_555
O1 Rb2 3.238075 1_455
O2 Se2 1.659198 1_555
O2 Rb2 2.988707 1_555
O2 Rb1 3.116596 1_645
O2 Rb4 3.171572 1_656
O2 Rb5 3.253768 1_555
O3 Se3 1.659198 1_655
O3 Rb3 2.988707 1_555
O3 Rb0 3.116599 1_545
O3 Rb5 3.171572 1_555
O3 Rb4 3.253768 1_655
O4 Se0 1.715912 1_555
O4 Rb4 3.198246 1_565
O5 Se1 1.715914 1_555
O5 Rb5 3.198246 1_565
O6 Se2 1.764343 1_555
O6 Rb2 3.152631 1_545
O7 Se3 1.764342 1_555
O7 Rb3 3.152629 1_545
O8 Se0 1.667610 1_555
O8 Rb0 2.908142 1_555
O8 Rb3 3.169758 1_555
O8 Rb2 3.283349 1_554
O8 Rb4 3.527041 1_655
O9 Se1 1.667604 1_555
O9 Rb1 2.908146 1_555
O9 Rb2 3.169758 1_555
O9 Rb3 3.283349 1_555
O9 Rb5 3.527041 1_555
O10 Se2 1.652413 1_555
O10 Rb1 2.921392 1_545
O10 Rb5 3.189490 1_555
O10 Rb4 3.300834 1_556
O11 Se3 1.652413 1_555
O11 Rb0 2.921388 1_545
O11 Rb4 3.189490 1_555
O11 Rb5 3.300834 1_555
O12 Se0 1.670238 1_556
O12 Rb5 3.021554 1_555
O12 Rb1 3.061896 1_555
O12 Rb2 3.112707 1_555
O12 Rb2 3.232147 1_455
O13 Se1 1.670237 1_555
O13 Rb4 3.021554 1_655
O13 Rb0 3.061896 1_555
O13 Rb3 3.112707 1_555
O13 Rb3 3.232147 1_655
O14 Se2 1.659302 1_554
O14 Rb3 3.042903 1_555
O14 Rb0 3.076991 1_545
O14 Rb4 3.129224 1_555
O14 Rb4 3.228758 1_655
O15 Se3 1.659302 1_555
O15 Rb2 3.042903 1_455
O15 Rb1 3.076991 1_545
O15 Rb5 3.129224 1_555
O15 Rb5 3.228758 1_455
