# generated using pymatgen
data_Mn2CrN3
_symmetry_space_group_name_H-M   'P 1'
_cell_length_a   5.26181520
_cell_length_b   5.04566791
_cell_length_c   5.04058600
_cell_angle_alpha   90.00000000
_cell_angle_beta   90.00000000
_cell_angle_gamma   118.65018307
_symmetry_Int_Tables_number   1
_chemical_formula_structural   Mn2CrN3
_chemical_formula_sum   'Mn4 Cr2 N6'
_cell_volume   117.43938583
_cell_formula_units_Z   2
loop_
 _symmetry_equiv_pos_site_id
 _symmetry_equiv_pos_as_xyz
  1  'x, y, z'
loop_
 _atom_site_type_symbol
 _atom_site_label
 _atom_site_symmetry_multiplicity
 _atom_site_fract_x
 _atom_site_fract_y
 _atom_site_fract_z
 _atom_site_occupancy
  Mn  Mn0  1  0.37569400  0.36535800  0.47679700  1
  Mn  Mn1  1  0.62430600  0.98966400  0.47679700  1
  Mn  Mn2  1  0.62430600  0.63464200  0.97679700  1
  Mn  Mn3  1  0.37569400  0.01033600  0.97679700  1
  Cr  Cr0  1  0.00000000  0.65872700  0.53429800  1
  Cr  Cr1  1  0.00000000  0.34127300  0.03429800  1
  N  N0  1  0.29218900  0.31242600  0.83978900  1
  N  N1  1  0.70781100  0.02023600  0.83978900  1
  N  N2  1  0.70781100  0.68757400  0.33978900  1
  N  N3  1  0.29218900  0.97976400  0.33978900  1
  N  N4  1  0.00000000  0.68544500  0.90452900  1
  N  N5  1  0.00000000  0.31455500  0.40452900  1
loop_
_geom_bond_atom_site_label_1
_geom_bond_atom_site_label_2
_geom_bond_distance
_geom_bond_site_symmetry_2
Mn0 N2 1.857310 1_555
Mn0 N0 1.870731 1_555
Mn0 N5 1.902723 1_555
Mn0 N3 1.906705 1_545
Mn1 N3 1.857312 1_555
Mn1 N1 1.870732 1_565
Mn1 N5 1.902723 1_665
Mn1 N2 1.906709 1_555
Mn2 N0 1.857310 1_555
Mn2 N2 1.870731 1_556
Mn2 N4 1.902723 1_655
Mn2 N1 1.906705 1_565
Mn3 N1 1.857312 1_555
Mn3 N3 1.870732 1_546
Mn3 N4 1.902723 1_545
Mn3 N0 1.906709 1_555
Cr0 N5 1.855684 1_555
Cr0 N4 1.871044 1_555
Cr0 N2 1.887000 1_455
Cr0 N3 1.887002 1_555
Cr1 N4 1.855684 1_554
Cr1 N5 1.871044 1_555
Cr1 N0 1.887000 1_554
Cr1 N1 1.887002 1_454
