# generated using pymatgen
data_Cs3Mo2N5
_symmetry_space_group_name_H-M   'P 1'
_cell_length_a   10.97350255
_cell_length_b   13.79741901
_cell_length_c   10.04661773
_cell_angle_alpha   89.99946873
_cell_angle_beta   62.75773101
_cell_angle_gamma   128.95270223
_symmetry_Int_Tables_number   1
_chemical_formula_structural   Cs3Mo2N5
_chemical_formula_sum   'Cs12 Mo8 N20'
_cell_volume   956.27320765
_cell_formula_units_Z   4
loop_
 _symmetry_equiv_pos_site_id
 _symmetry_equiv_pos_as_xyz
  1  'x, y, z'
loop_
 _atom_site_type_symbol
 _atom_site_label
 _atom_site_symmetry_multiplicity
 _atom_site_fract_x
 _atom_site_fract_y
 _atom_site_fract_z
 _atom_site_occupancy
  Cs  Cs0  1  0.58859500  0.71563700  0.94615500  1
  Cs  Cs1  1  0.41141300  0.28436600  0.53474700  1
  Cs  Cs2  1  0.84268200  0.62704000  0.06911600  1
  Cs  Cs3  1  0.15730400  0.37294300  0.91180300  1
  Cs  Cs4  1  0.52404300  0.17607800  0.80568200  1
  Cs  Cs5  1  0.47595100  0.82391300  0.32972700  1
  Cs  Cs6  1  0.82813000  0.15204200  0.40363700  1
  Cs  Cs7  1  0.17187700  0.84796800  0.23176600  1
  Cs  Cs8  1  0.00000400  0.00000100  0.51666700  1
  Cs  Cs9  1  0.00000500  0.50000100  0.76666400  1
  Cs  Cs10  1  0.99999500  0.49999300  0.28025600  1
  Cs  Cs11  1  0.99999300  0.99999300  0.03025600  1
  Mo  Mo0  1  0.24539000  0.42985500  0.44155800  1
  Mo  Mo1  1  0.75461600  0.57015300  0.68695000  1
  Mo  Mo2  1  0.61430600  0.68446000  0.50710200  1
  Mo  Mo3  1  0.38569200  0.31554500  0.12140700  1
  Mo  Mo4  1  0.44317400  0.82453600  0.73849100  1
  Mo  Mo5  1  0.55681100  0.17545500  0.18166700  1
  Mo  Mo6  1  0.20591700  0.88136500  0.60711900  1
  Mo  Mo7  1  0.79409500  0.11863600  0.81303600  1
  N  N0  1  0.28102500  0.54895000  0.32039300  1
  N  N1  1  0.71897100  0.45104900  0.60141800  1
  N  N2  1  0.81687500  0.76792200  0.30246900  1
  N  N3  1  0.18312500  0.23207600  0.11933800  1
  N  N4  1  0.07983100  0.91055800  0.75456500  1
  N  N5  1  0.92016700  0.08944300  0.83439600  1
  N  N6  1  0.74129000  0.33073200  0.17383500  1
  N  N7  1  0.25871300  0.66927200  0.91512600  1
  N  N8  1  0.33920000  0.36314300  0.30609800  1
  N  N9  1  0.66080000  0.63685800  0.64529500  1
  N  N10  1  0.38708100  0.52393800  0.53215700  1
  N  N11  1  0.61292100  0.47606200  0.91924000  1
  N  N12  1  0.32959000  0.85839600  0.67157400  1
  N  N13  1  0.67041200  0.14160600  0.00115800  1
  N  N14  1  0.38720300  0.02881200  0.39276500  1
  N  N15  1  0.61280000  0.97119400  0.77996400  1
  N  N16  1  0.59720200  0.81389100  0.55444900  1
  N  N17  1  0.40279800  0.18611400  0.15165000  1
  N  N18  1  0.03058000  0.71668800  0.58776300  1
  N  N19  1  0.96942300  0.28331500  0.61834000  1
loop_
_geom_bond_atom_site_label_1
_geom_bond_atom_site_label_2
_geom_bond_distance
_geom_bond_site_symmetry_2
Cs0 N0 3.072338 1_556
Cs0 N9 3.136218 1_555
Cs0 N7 3.425192 1_555
Cs0 N11 3.480548 1_555
Cs0 N4 3.502624 1_655
Cs0 N15 3.702359 1_555
Cs0 N5 3.710019 1_565
Cs1 N1 3.072227 1_555
Cs1 N8 3.136189 1_555
Cs1 N6 3.425214 1_555
Cs1 N10 3.480549 1_555
Cs1 N5 3.502711 1_455
Cs1 N14 3.702309 1_555
Cs1 N4 3.710030 1_545
Cs2 N2 3.072335 1_555
Cs2 N11 3.136146 1_554
Cs2 N4 3.425226 1_654
Cs2 N8 3.480549 1_555
Cs2 N6 3.502535 1_555
Cs2 N12 3.702358 1_654
Cs2 N7 3.710007 1_654
Cs3 N3 3.072204 1_556
Cs3 N10 3.136254 1_555
Cs3 N5 3.425073 1_455
Cs3 N9 3.480657 1_555
Cs3 N7 3.502740 1_555
Cs3 N13 3.702243 1_456
Cs3 N6 3.710038 1_456
Cs4 N1 2.992948 1_555
Cs4 N17 3.141415 1_556
Cs4 N13 3.242094 1_556
Cs4 N19 3.479105 1_555
Cs4 N15 3.498298 1_545
Cs5 N0 2.992857 1_555
Cs5 N16 3.141363 1_555
Cs5 N12 3.242214 1_555
Cs5 N18 3.479111 1_555
Cs5 N14 3.498436 1_565
Cs6 N3 2.992894 1_655
Cs6 N19 3.141383 1_555
Cs6 N15 3.242160 1_545
Cs6 N16 3.479100 1_545
Cs6 N12 3.498349 1_545
Cs7 N2 2.992839 1_455
Cs7 N18 3.141407 1_555
Cs7 N14 3.242125 1_565
Cs7 N17 3.479058 1_565
Cs7 N13 3.498294 1_565
Cs8 N17 3.235452 1_555
Cs8 N16 3.235466 1_445
Cs8 N4 3.358376 1_545
Cs8 N5 3.358447 1_455
Cs8 N8 3.574329 1_555
Cs8 N9 3.574337 1_445
Cs8 N14 3.577018 1_555
Cs8 N15 3.577116 1_445
Cs9 N19 3.235416 1_455
Cs9 N18 3.235434 1_555
Cs9 N7 3.358390 1_555
Cs9 N6 3.358409 1_456
Cs9 N10 3.574367 1_555
Cs9 N11 3.574410 1_455
Cs9 N13 3.577022 1_456
Cs9 N12 3.577037 1_555
Cs10 N0 2.940832 1_655
Cs10 N1 2.940894 1_555
Cs10 N6 3.016481 1_555
Cs10 N7 3.016568 1_654
Cs11 N2 2.940814 1_555
Cs11 N3 2.940868 1_665
Cs11 N4 3.016560 1_654
Cs11 N5 3.016590 1_564
Mo0 N0 1.758149 1_555
Mo0 N8 1.915167 1_555
Mo0 N10 1.920679 1_555
Mo0 N19 1.946879 1_455
Mo1 N1 1.758256 1_555
Mo1 N9 1.915153 1_555
Mo1 N11 1.920704 1_555
Mo1 N18 1.946841 1_655
Mo2 N2 1.758258 1_555
Mo2 N10 1.915102 1_555
Mo2 N9 1.920694 1_555
Mo2 N16 1.946882 1_555
Mo3 N3 1.758233 1_555
Mo3 N11 1.915080 1_554
Mo3 N8 1.920720 1_555
Mo3 N17 1.946890 1_555
Mo4 N7 1.759190 1_555
Mo4 N15 1.925392 1_555
Mo4 N12 1.929530 1_555
Mo4 N16 1.936029 1_555
Mo5 N6 1.759315 1_555
Mo5 N14 1.925340 1_555
Mo5 N13 1.929578 1_555
Mo5 N17 1.935977 1_555
Mo6 N4 1.759340 1_555
Mo6 N12 1.925328 1_555
Mo6 N14 1.929522 1_565
Mo6 N18 1.936005 1_555
Mo7 N5 1.759168 1_555
Mo7 N13 1.925363 1_556
Mo7 N15 1.929555 1_545
Mo7 N19 1.936062 1_555
