# generated using pymatgen
data_CeAg(WO4)2
_symmetry_space_group_name_H-M   'P 1'
_cell_length_a   7.59613513
_cell_length_b   7.59613513
_cell_length_c   7.42265468
_cell_angle_alpha   65.23232896
_cell_angle_beta   65.23232896
_cell_angle_gamma   93.92416684
_symmetry_Int_Tables_number   1
_chemical_formula_structural   CeAg(WO4)2
_chemical_formula_sum   'Ce2 Ag2 W4 O16'
_cell_volume   337.31527747
_cell_formula_units_Z   2
loop_
 _symmetry_equiv_pos_site_id
 _symmetry_equiv_pos_as_xyz
  1  'x, y, z'
loop_
 _atom_site_type_symbol
 _atom_site_label
 _atom_site_symmetry_multiplicity
 _atom_site_fract_x
 _atom_site_fract_y
 _atom_site_fract_z
 _atom_site_occupancy
  Ce  Ce0  1  0.70206100  0.29793900  0.00000000  1
  Ce  Ce1  1  0.29793900  0.70206100  0.00000000  1
  Ag  Ag0  1  0.68984100  0.68984100  0.48024000  1
  Ag  Ag1  1  0.31015900  0.31015900  0.51976000  1
  W  W0  1  0.21458300  0.21458300  0.02770800  1
  W  W1  1  0.78541700  0.78541700  0.97229200  1
  W  W2  1  0.84023300  0.15976700  0.50000000  1
  W  W3  1  0.15976700  0.84023300  0.50000000  1
  O  O0  1  0.34748900  0.10095400  0.23982500  1
  O  O1  1  0.65251100  0.89904600  0.76017500  1
  O  O2  1  0.89904600  0.65251100  0.76017500  1
  O  O3  1  0.10095400  0.34748900  0.23982500  1
  O  O4  1  0.68906000  0.20959100  0.35925600  1
  O  O5  1  0.31094000  0.79040900  0.64074400  1
  O  O6  1  0.79040900  0.31094000  0.64074400  1
  O  O7  1  0.20959100  0.68906000  0.35925600  1
  O  O8  1  0.69840100  0.94961400  0.09301600  1
  O  O9  1  0.30159900  0.05038600  0.90698400  1
  O  O10  1  0.05038600  0.30159900  0.90698400  1
  O  O11  1  0.94961400  0.69840100  0.09301600  1
  O  O12  1  0.98074000  0.98074000  0.34038700  1
  O  O13  1  0.01926000  0.01926000  0.65961300  1
  O  O14  1  0.55673300  0.55673300  0.14318600  1
  O  O15  1  0.44326700  0.44326700  0.85681400  1
loop_
_geom_bond_atom_site_label_1
_geom_bond_atom_site_label_2
_geom_bond_distance
_geom_bond_site_symmetry_2
Ce0 O6 2.416998 1_554
Ce0 O4 2.416998 1_555
Ce0 O2 2.421038 1_554
Ce0 O0 2.421038 1_555
Ce0 O10 2.433428 1_654
Ce0 O8 2.433428 1_545
Ce0 O14 2.697652 1_555
Ce0 O15 2.697652 1_554
Ce1 O7 2.416998 1_555
Ce1 O5 2.416998 1_554
Ce1 O1 2.421038 1_554
Ce1 O3 2.421038 1_555
Ce1 O11 2.433428 1_455
Ce1 O9 2.433428 1_564
Ce1 O14 2.697652 1_555
Ce1 O15 2.697652 1_554
Ag0 O15 2.361338 1_555
Ag0 O12 2.516140 1_555
Ag0 O11 2.689410 1_555
Ag0 O8 2.689410 1_555
Ag1 O14 2.361338 1_555
Ag1 O13 2.516140 1_555
Ag1 O9 2.689410 1_555
Ag1 O10 2.689410 1_555
O0 W3 1.945925 1_545
O0 W0 2.134398 1_555
O1 W2 1.945925 1_565
O1 W1 2.134398 1_555
O2 W3 1.945925 1_655
O2 W1 2.134398 1_555
O3 W2 1.945925 1_455
O3 W0 2.134398 1_555
O4 W2 1.812913 1_555
O5 W3 1.812913 1_555
O6 W2 1.812913 1_555
O7 W3 1.812913 1_555
O8 W1 1.829911 1_554
O9 W0 1.829911 1_556
O10 W0 1.829911 1_556
O11 W1 1.829911 1_554
O12 W0 2.087273 1_665
O12 W3 2.209361 1_655
O12 W2 2.209361 1_565
O13 W1 2.087273 1_445
O13 W2 2.209361 1_455
O13 W3 2.209361 1_545
O14 W1 1.881123 1_554
O15 W0 1.881123 1_556
