# generated using pymatgen
data_YbGdS3
_symmetry_space_group_name_H-M   'P 1'
_cell_length_a   4.10236800
_cell_length_b   7.30839500
_cell_length_c   15.07539500
_cell_angle_alpha   90.00000000
_cell_angle_beta   90.00000000
_cell_angle_gamma   90.00000000
_symmetry_Int_Tables_number   1
_chemical_formula_structural   YbGdS3
_chemical_formula_sum   'Yb4 Gd4 S12'
_cell_volume   451.98635891
_cell_formula_units_Z   4
loop_
 _symmetry_equiv_pos_site_id
 _symmetry_equiv_pos_as_xyz
  1  'x, y, z'
loop_
 _atom_site_type_symbol
 _atom_site_label
 _atom_site_symmetry_multiplicity
 _atom_site_fract_x
 _atom_site_fract_y
 _atom_site_fract_z
 _atom_site_occupancy
  Yb  Yb0  1  0.25000000  0.15523300  0.78184700  1
  Yb  Yb1  1  0.25000000  0.65523300  0.71815300  1
  Yb  Yb2  1  0.75000000  0.84476700  0.21815300  1
  Yb  Yb3  1  0.75000000  0.34476700  0.28184700  1
  Gd  Gd0  1  0.25000000  0.76360300  0.46336700  1
  Gd  Gd1  1  0.25000000  0.26360300  0.03663300  1
  Gd  Gd2  1  0.75000000  0.23639700  0.53663300  1
  Gd  Gd3  1  0.75000000  0.73639700  0.96336700  1
  S  S0  1  0.25000000  0.02702000  0.60053800  1
  S  S1  1  0.25000000  0.52702000  0.89946200  1
  S  S2  1  0.75000000  0.97298000  0.39946200  1
  S  S3  1  0.75000000  0.47298000  0.10053800  1
  S  S4  1  0.25000000  0.12355800  0.21119300  1
  S  S5  1  0.25000000  0.62355800  0.28880700  1
  S  S6  1  0.75000000  0.87644200  0.78880700  1
  S  S7  1  0.75000000  0.37644200  0.71119300  1
  S  S8  1  0.25000000  0.37769100  0.42165100  1
  S  S9  1  0.25000000  0.87769100  0.07834900  1
  S  S10  1  0.75000000  0.62230900  0.57834900  1
  S  S11  1  0.75000000  0.12230900  0.92165100  1
loop_
_geom_bond_atom_site_label_1
_geom_bond_atom_site_label_2
_geom_bond_distance
_geom_bond_site_symmetry_2
Gd0 S2 2.734415 1_455
Gd0 S2 2.734415 1_555
Gd0 S5 2.823592 1_555
Gd0 S0 2.825325 1_565
Gd0 S10 2.877214 1_555
Gd0 S10 2.877214 1_455
Gd0 S8 2.889660 1_555
Gd1 S3 2.734415 1_455
Gd1 S3 2.734415 1_555
Gd1 S4 2.823592 1_555
Gd1 S1 2.825325 1_554
Gd1 S11 2.877214 1_454
Gd1 S11 2.877214 1_554
Gd1 S9 2.889660 1_545
Gd2 S0 2.734415 1_555
Gd2 S0 2.734415 1_655
Gd2 S7 2.823592 1_555
Gd2 S2 2.825325 1_545
Gd2 S8 2.877214 1_655
Gd2 S8 2.877214 1_555
Gd2 S10 2.889660 1_555
Gd3 S1 2.734415 1_655
Gd3 S1 2.734415 1_555
Gd3 S6 2.823592 1_555
Gd3 S3 2.825325 1_556
Gd3 S9 2.877214 1_556
Gd3 S9 2.877214 1_656
Gd3 S11 2.889660 1_565
S0 Yb0 2.889461 1_555
S0 Yb1 3.244511 1_545
S1 Yb1 2.889461 1_555
S1 Yb0 3.244511 1_555
S2 Yb2 2.889461 1_555
S2 Yb3 3.244511 1_565
S3 Yb3 2.889461 1_555
S3 Yb2 3.244511 1_555
S4 Yb3 2.820556 1_555
S4 Yb3 2.820556 1_455
S4 Yb2 2.893066 1_445
S4 Yb2 2.893066 1_545
S5 Yb2 2.820556 1_455
S5 Yb2 2.820556 1_555
S5 Yb3 2.893066 1_555
S5 Yb3 2.893066 1_455
S6 Yb1 2.820556 1_655
S6 Yb1 2.820556 1_555
S6 Yb0 2.893066 1_665
S6 Yb0 2.893066 1_565
S7 Yb0 2.820556 1_555
S7 Yb0 2.820556 1_655
S7 Yb1 2.893066 1_555
S7 Yb1 2.893066 1_655
S8 Yb3 2.950802 1_555
S8 Yb3 2.950802 1_455
S9 Yb2 2.950802 1_455
S9 Yb2 2.950802 1_555
S10 Yb1 2.950802 1_555
S10 Yb1 2.950802 1_655
S11 Yb0 2.950802 1_555
S11 Yb0 2.950802 1_655
