# generated using pymatgen
data_Mg2Ti5(PO4)6
_symmetry_space_group_name_H-M   'P 1'
_cell_length_a   6.47527358
_cell_length_b   8.05194562
_cell_length_c   9.47215313
_cell_angle_alpha   104.72092290
_cell_angle_beta   108.48403728
_cell_angle_gamma   101.52038422
_symmetry_Int_Tables_number   1
_chemical_formula_structural   Mg2Ti5(PO4)6
_chemical_formula_sum   'Mg2 Ti5 P6 O24'
_cell_volume   431.34645274
_cell_formula_units_Z   1
loop_
 _symmetry_equiv_pos_site_id
 _symmetry_equiv_pos_as_xyz
  1  'x, y, z'
loop_
 _atom_site_type_symbol
 _atom_site_label
 _atom_site_symmetry_multiplicity
 _atom_site_fract_x
 _atom_site_fract_y
 _atom_site_fract_z
 _atom_site_occupancy
  Mg  Mg0  1  0.28386800  0.30951100  0.78919100  1
  Mg  Mg1  1  0.71613200  0.69048900  0.21080900  1
  Ti  Ti0  1  0.04909200  0.21617700  0.02399800  1
  Ti  Ti1  1  0.95090800  0.78382300  0.97600200  1
  Ti  Ti2  1  0.59971400  0.03752900  0.38395600  1
  Ti  Ti3  1  0.40028600  0.96247100  0.61604400  1
  Ti  Ti4  1  0.00000000  0.50000000  0.50000000  1
  P  P0  1  0.22636100  0.64225100  0.26970400  1
  P  P1  1  0.77363900  0.35774900  0.73029600  1
  P  P2  1  0.07790700  0.08699800  0.33217200  1
  P  P3  1  0.92209300  0.91300200  0.66782800  1
  P  P4  1  0.60783000  0.27491900  0.13237000  1
  P  P5  1  0.39217000  0.72508100  0.86763000  1
  O  O0  1  0.38419000  0.28478800  0.00994100  1
  O  O1  1  0.61581000  0.71521200  0.99005900  1
  O  O2  1  0.20583400  0.44408800  0.20384200  1
  O  O3  1  0.79416600  0.55591200  0.79615800  1
  O  O4  1  0.54457500  0.13831100  0.21070100  1
  O  O5  1  0.45542500  0.86168900  0.78929900  1
  O  O6  1  0.73572200  0.46450400  0.26626800  1
  O  O7  1  0.26427800  0.53549600  0.73373200  1
  O  O8  1  0.05668700  0.04400600  0.15602900  1
  O  O9  1  0.94331300  0.95599400  0.84397100  1
  O  O10  1  0.75549500  0.22576500  0.03997400  1
  O  O11  1  0.24450500  0.77423500  0.96002600  1
  O  O12  1  0.29574600  0.03984600  0.41707900  1
  O  O13  1  0.70425400  0.96015400  0.58292100  1
  O  O14  1  0.54508300  0.24268200  0.72613600  1
  O  O15  1  0.45491700  0.75731800  0.27386400  1
  O  O16  1  0.09656900  0.28099700  0.41361800  1
  O  O17  1  0.90343100  0.71900300  0.58638200  1
  O  O18  1  0.13208500  0.04350300  0.66620900  1
  O  O19  1  0.86791500  0.95649700  0.33379100  1
  O  O20  1  0.01907200  0.68701400  0.16543100  1
  O  O21  1  0.98092800  0.31298600  0.83456900  1
  O  O22  1  0.22971900  0.68954400  0.44222700  1
  O  O23  1  0.77028100  0.31045600  0.55777300  1
loop_
_geom_bond_atom_site_label_1
_geom_bond_atom_site_label_2
_geom_bond_distance
_geom_bond_site_symmetry_2
Mg0 O18 2.018848 1_555
Mg0 O7 2.034405 1_555
Mg0 O0 2.058088 1_556
Mg0 O14 2.085194 1_555
Mg0 O21 2.141011 1_455
Mg1 O19 2.018848 1_555
Mg1 O6 2.034405 1_555
Mg1 O1 2.058088 1_554
Mg1 O15 2.085194 1_555
Mg1 O20 2.141011 1_655
O0 P4 1.573588 1_555
O0 Ti0 2.184708 1_555
O1 P5 1.573588 1_555
O1 Ti1 2.184708 1_555
O2 P0 1.519739 1_555
O2 Ti0 1.967409 1_555
O3 P1 1.519739 1_555
O3 Ti1 1.967409 1_555
O4 P4 1.534830 1_555
O4 Ti2 1.974896 1_555
O5 P5 1.534830 1_555
O5 Ti3 1.974896 1_555
O6 P4 1.571552 1_555
O6 Ti4 2.234373 1_655
O7 P5 1.571552 1_555
O7 Ti4 2.234373 1_555
O8 P2 1.569889 1_555
O8 Ti0 2.087507 1_555
O8 Ti1 2.153270 1_444
O9 P3 1.569889 1_555
O9 Ti1 2.087507 1_555
O9 Ti0 2.153270 1_666
O10 P4 1.530556 1_555
O10 Ti0 1.969322 1_655
O11 P5 1.530556 1_555
O11 Ti1 1.969322 1_455
O12 P2 1.558984 1_555
O12 Ti3 2.086734 1_545
O12 Ti2 2.091927 1_555
O13 P3 1.558984 1_555
O13 Ti2 2.086734 1_565
O13 Ti3 2.091927 1_555
O14 P1 1.564299 1_555
O14 Ti3 2.096776 1_545
O15 P0 1.564299 1_555
O15 Ti2 2.096776 1_565
O16 P2 1.517519 1_555
O16 Ti4 2.049795 1_555
O17 P3 1.517519 1_555
O17 Ti4 2.049795 1_655
O18 P3 1.550490 1_445
O18 Ti3 2.117978 1_545
O19 P2 1.550490 1_665
O19 Ti2 2.117978 1_565
O20 P0 1.562251 1_555
O20 Ti1 2.089985 1_454
O21 P1 1.562251 1_555
O21 Ti0 2.089985 1_656
O22 P0 1.572856 1_555
O22 Ti3 2.190575 1_555
O22 Ti4 2.207984 1_555
O23 P1 1.572856 1_555
O23 Ti2 2.190575 1_555
O23 Ti4 2.207984 1_655
