# generated using pymatgen
data_Sr2LaBeO5
_symmetry_space_group_name_H-M   'P 1'
_cell_length_a   6.69218000
_cell_length_b   7.50559600
_cell_length_c   9.76380200
_cell_angle_alpha   90.00000000
_cell_angle_beta   90.00000000
_cell_angle_gamma   90.00000000
_symmetry_Int_Tables_number   1
_chemical_formula_structural   Sr2LaBeO5
_chemical_formula_sum   'Sr8 La4 Be4 O20'
_cell_volume   490.42405242
_cell_formula_units_Z   4
loop_
 _symmetry_equiv_pos_site_id
 _symmetry_equiv_pos_as_xyz
  1  'x, y, z'
loop_
 _atom_site_type_symbol
 _atom_site_label
 _atom_site_symmetry_multiplicity
 _atom_site_fract_x
 _atom_site_fract_y
 _atom_site_fract_z
 _atom_site_occupancy
  Sr  Sr0  1  0.58584600  0.52493300  0.82658600  1
  Sr  Sr1  1  0.41415400  0.47506700  0.17341400  1
  Sr  Sr2  1  0.08584600  0.47506700  0.67341400  1
  Sr  Sr3  1  0.41415400  0.02493300  0.17341400  1
  Sr  Sr4  1  0.91415400  0.52493300  0.32658600  1
  Sr  Sr5  1  0.58584600  0.97506700  0.82658600  1
  Sr  Sr6  1  0.91415400  0.97506700  0.32658600  1
  Sr  Sr7  1  0.08584600  0.02493300  0.67341400  1
  La  La0  1  0.09610700  0.75000000  0.97054400  1
  La  La1  1  0.90389300  0.25000000  0.02945600  1
  La  La2  1  0.59610700  0.25000000  0.52945600  1
  La  La3  1  0.40389300  0.75000000  0.47054400  1
  Be  Be0  1  0.81146100  0.75000000  0.60150600  1
  Be  Be1  1  0.18853900  0.25000000  0.39849400  1
  Be  Be2  1  0.31146100  0.25000000  0.89849400  1
  Be  Be3  1  0.68853900  0.75000000  0.10150600  1
  O  O0  1  0.68954400  0.56547000  0.56445800  1
  O  O1  1  0.31045600  0.43453000  0.43554200  1
  O  O2  1  0.18954400  0.43453000  0.93554200  1
  O  O3  1  0.31045600  0.06547000  0.43554200  1
  O  O4  1  0.81045600  0.56547000  0.06445800  1
  O  O5  1  0.68954400  0.93453000  0.56445800  1
  O  O6  1  0.81045600  0.93453000  0.06445800  1
  O  O7  1  0.18954400  0.06547000  0.93554200  1
  O  O8  1  0.87117300  0.75000000  0.76808500  1
  O  O9  1  0.12882700  0.25000000  0.23191500  1
  O  O10  1  0.37117300  0.25000000  0.73191500  1
  O  O11  1  0.62882700  0.75000000  0.26808500  1
  O  O12  1  0.02572400  0.75000000  0.51279800  1
  O  O13  1  0.97427600  0.25000000  0.48720200  1
  O  O14  1  0.52572400  0.25000000  0.98720200  1
  O  O15  1  0.47427600  0.75000000  0.01279800  1
  O  O16  1  0.32775600  0.75000000  0.72183000  1
  O  O17  1  0.67224400  0.25000000  0.27817000  1
  O  O18  1  0.82775600  0.25000000  0.77817000  1
  O  O19  1  0.17224400  0.75000000  0.22183000  1
loop_
_geom_bond_atom_site_label_1
_geom_bond_atom_site_label_2
_geom_bond_distance
_geom_bond_site_symmetry_2
La0 O7 2.472695 1_565
La0 O2 2.472695 1_555
La0 O8 2.484661 1_455
La0 O19 2.505855 1_556
La0 O6 2.532465 1_456
La0 O4 2.532465 1_456
La0 O15 2.564182 1_556
La0 O16 2.881030 1_555
La1 O6 2.472695 1_545
La1 O4 2.472695 1_555
La1 O9 2.484661 1_655
La1 O18 2.505855 1_554
La1 O7 2.532465 1_654
La1 O2 2.532465 1_654
La1 O14 2.564182 1_554
La1 O17 2.881030 1_555
La2 O5 2.472695 1_545
La2 O0 2.472695 1_555
La2 O10 2.484661 1_555
La2 O17 2.505855 1_555
La2 O3 2.532465 1_555
La2 O1 2.532465 1_555
La2 O13 2.564182 1_555
La2 O18 2.881030 1_555
La3 O3 2.472695 1_565
La3 O1 2.472695 1_555
La3 O11 2.484661 1_555
La3 O16 2.505855 1_555
La3 O5 2.532465 1_555
La3 O0 2.532465 1_555
La3 O12 2.564182 1_555
La3 O19 2.881030 1_555
Be0 O5 1.647656 1_555
Be0 O0 1.647656 1_555
Be0 O8 1.674815 1_555
Be0 O12 1.675174 1_655
Be1 O3 1.647656 1_555
Be1 O1 1.647656 1_555
Be1 O9 1.674815 1_555
Be1 O13 1.675174 1_455
Be2 O7 1.647656 1_555
Be2 O2 1.647656 1_555
Be2 O10 1.674815 1_555
Be2 O14 1.675174 1_555
Be3 O4 1.647656 1_555
Be3 O6 1.647656 1_555
Be3 O11 1.674815 1_555
Be3 O15 1.675174 1_555
O0 Sr0 2.669178 1_555
O0 Sr4 2.783189 1_555
O0 Sr2 2.936986 1_655
O1 Sr1 2.669178 1_555
O1 Sr2 2.783189 1_555
O1 Sr4 2.936986 1_455
O2 Sr2 2.669178 1_555
O2 Sr1 2.783189 1_556
O2 Sr0 2.936986 1_555
O3 Sr3 2.669178 1_555
O3 Sr7 2.783189 1_555
O3 Sr6 2.936986 1_445
O4 Sr4 2.669178 1_555
O4 Sr0 2.783189 1_554
O4 Sr1 2.936986 1_555
O5 Sr5 2.669178 1_555
O5 Sr6 2.783189 1_555
O5 Sr7 2.936986 1_665
O6 Sr6 2.669178 1_555
O6 Sr5 2.783189 1_554
O6 Sr3 2.936986 1_565
O7 Sr7 2.669178 1_555
O7 Sr3 2.783189 1_556
O7 Sr5 2.936986 1_545
O8 Sr0 2.612643 1_555
O8 Sr5 2.612643 1_555
O8 Sr2 2.678901 1_655
O8 Sr7 2.678901 1_665
O9 Sr3 2.612643 1_555
O9 Sr1 2.612643 1_555
O9 Sr4 2.678901 1_455
O9 Sr6 2.678901 1_445
O10 Sr7 2.612643 1_555
O10 Sr2 2.612643 1_555
O10 Sr0 2.678901 1_555
O10 Sr5 2.678901 1_545
O11 Sr6 2.612643 1_555
O11 Sr4 2.612643 1_555
O11 Sr1 2.678901 1_555
O11 Sr3 2.678901 1_565
O12 Sr6 2.591662 1_455
O12 Sr4 2.591662 1_455
O12 Sr2 2.622859 1_555
O12 Sr7 2.622859 1_565
O13 Sr7 2.591662 1_655
O13 Sr2 2.591662 1_655
O13 Sr4 2.622859 1_555
O13 Sr6 2.622859 1_545
O14 Sr3 2.591662 1_556
O14 Sr1 2.591662 1_556
O14 Sr0 2.622859 1_555
O14 Sr5 2.622859 1_545
O15 Sr5 2.591662 1_554
O15 Sr0 2.591662 1_554
O15 Sr1 2.622859 1_555
O15 Sr3 2.622859 1_565
O16 Sr0 2.623533 1_555
O16 Sr5 2.623533 1_555
O16 Sr2 2.665052 1_555
O16 Sr7 2.665052 1_565
O17 Sr3 2.623533 1_555
O17 Sr1 2.623533 1_555
O17 Sr4 2.665052 1_555
O17 Sr6 2.665052 1_545
O18 Sr2 2.623533 1_655
O18 Sr7 2.623533 1_655
O18 Sr0 2.665052 1_555
O18 Sr5 2.665052 1_545
O19 Sr4 2.623533 1_455
O19 Sr6 2.623533 1_455
O19 Sr1 2.665052 1_555
O19 Sr3 2.665052 1_565
