# generated using pymatgen
data_HfH6O3F4
_symmetry_space_group_name_H-M   'P 1'
_cell_length_a   6.71291734
_cell_length_b   7.60497623
_cell_length_c   10.20036219
_cell_angle_alpha   90.00000000
_cell_angle_beta   90.00000000
_cell_angle_gamma   102.22965111
_symmetry_Int_Tables_number   1
_chemical_formula_structural   HfH6O3F4
_chemical_formula_sum   'Hf4 H24 O12 F16'
_cell_volume   508.92700544
_cell_formula_units_Z   4
loop_
 _symmetry_equiv_pos_site_id
 _symmetry_equiv_pos_as_xyz
  1  'x, y, z'
loop_
 _atom_site_type_symbol
 _atom_site_label
 _atom_site_symmetry_multiplicity
 _atom_site_fract_x
 _atom_site_fract_y
 _atom_site_fract_z
 _atom_site_occupancy
  Hf  Hf0  1  0.74222222  0.46228049  0.54177138  1
  Hf  Hf1  1  0.25777778  0.03771951  0.04177138  1
  Hf  Hf2  1  0.25777778  0.53771951  0.45822862  1
  Hf  Hf3  1  0.74222222  0.96228049  0.95822862  1
  H  H0  1  0.60113363  0.38874632  0.11977857  1
  H  H1  1  0.39886637  0.11125368  0.61977857  1
  H  H2  1  0.39886637  0.61125368  0.88022143  1
  H  H3  1  0.60113363  0.88874632  0.38022143  1
  H  H4  1  0.81168147  0.37758545  0.06701677  1
  H  H5  1  0.18831853  0.12241455  0.56701677  1
  H  H6  1  0.18831853  0.62241455  0.93298323  1
  H  H7  1  0.81168147  0.87758545  0.43298323  1
  H  H8  1  0.76565645  0.34275273  0.28171148  1
  H  H9  1  0.23434355  0.15724727  0.78171148  1
  H  H10  1  0.23434355  0.65724727  0.71828852  1
  H  H11  1  0.76565645  0.84275273  0.21828852  1
  H  H12  1  0.76169148  0.16417047  0.37245466  1
  H  H13  1  0.23830852  0.33582953  0.87245466  1
  H  H14  1  0.23830852  0.83582953  0.62754534  1
  H  H15  1  0.76169148  0.66417047  0.12754534  1
  H  H16  1  0.73730288  0.57479207  0.80249386  1
  H  H17  1  0.26269712  0.92520793  0.30249386  1
  H  H18  1  0.26269712  0.42520793  0.19750614  1
  H  H19  1  0.73730288  0.07479207  0.69750614  1
  H  H20  1  0.78117527  0.37681999  0.80692303  1
  H  H21  1  0.21882473  0.12318001  0.30692303  1
  H  H22  1  0.21882473  0.62318001  0.19307697  1
  H  H23  1  0.78117527  0.87681999  0.69307697  1
  O  O0  1  0.74720050  0.43861886  0.13349213  1
  O  O1  1  0.25279950  0.06138114  0.63349213  1
  O  O2  1  0.25279950  0.56138114  0.86650787  1
  O  O3  1  0.74720050  0.93861886  0.36650787  1
  O  O4  1  0.75323384  0.29259816  0.37190462  1
  O  O5  1  0.24676616  0.20740184  0.87190462  1
  O  O6  1  0.24676616  0.70740184  0.62809538  1
  O  O7  1  0.75323384  0.79259816  0.12809538  1
  O  O8  1  0.78863147  0.48415724  0.75114886  1
  O  O9  1  0.21136853  0.01584276  0.25114886  1
  O  O10  1  0.21136853  0.51584276  0.24885114  1
  O  O11  1  0.78863147  0.98415724  0.74885114  1
  F  F0  1  0.02234901  0.38846131  0.57777369  1
  F  F1  1  0.97765099  0.11153869  0.07777369  1
  F  F2  1  0.97765099  0.61153869  0.42222631  1
  F  F3  1  0.02234901  0.88846131  0.92222631  1
  F  F4  1  0.43712605  0.44987655  0.60469553  1
  F  F5  1  0.56287395  0.05012345  0.10469553  1
  F  F6  1  0.56287395  0.55012345  0.39530447  1
  F  F7  1  0.43712605  0.94987655  0.89530447  1
  F  F8  1  0.76462504  0.72466837  0.58831173  1
  F  F9  1  0.23537496  0.77533163  0.08831173  1
  F  F10  1  0.23537496  0.27533163  0.41168827  1
  F  F11  1  0.76462504  0.22466837  0.91168827  1
  F  F12  1  0.64446119  0.20355996  0.60444057  1
  F  F13  1  0.35553881  0.29644004  0.10444057  1
  F  F14  1  0.35553881  0.79644004  0.39555943  1
  F  F15  1  0.64446119  0.70355996  0.89555943  1
loop_
_geom_bond_atom_site_label_1
_geom_bond_atom_site_label_2
_geom_bond_distance
_geom_bond_site_symmetry_2
Hf0 O8 2.159654 1_555
Hf0 O4 2.171024 1_555
Hf1 O9 2.159654 1_555
Hf1 O5 2.171024 1_554
Hf2 O10 2.159654 1_555
Hf2 O6 2.171024 1_555
Hf3 O11 2.159654 1_555
Hf3 O7 2.171024 1_556
H0 O0 0.983519 1_555
H1 O1 0.983519 1_555
H2 O2 0.983519 1_555
H3 O3 0.983519 1_555
H4 O0 0.973503 1_555
H5 O1 0.973503 1_555
H6 O2 0.973503 1_555
H7 O3 0.973503 1_555
H8 O4 0.992657 1_555
H9 O5 0.992657 1_555
H10 O6 0.992657 1_555
H11 O7 0.992657 1_555
H12 O4 0.990288 1_555
H13 O5 0.990288 1_555
H14 O6 0.990288 1_555
H15 O7 0.990288 1_555
H16 O8 0.984249 1_555
H17 O9 0.984249 1_565
H18 O10 0.984249 1_555
H19 O11 0.984249 1_545
H20 O8 0.987524 1_555
H21 O9 0.987524 1_555
H22 O10 0.987524 1_555
H23 O11 0.987524 1_555
F0 Hf0 2.105573 1_455
F0 Hf2 2.124404 1_555
F1 Hf1 2.105573 1_655
F1 Hf3 2.124404 1_544
F2 Hf2 2.105573 1_655
F2 Hf0 2.124404 1_555
F3 Hf3 2.105573 1_455
F3 Hf1 2.124404 1_566
F4 Hf2 2.113908 1_555
F4 Hf0 2.129242 1_555
F5 Hf3 2.113908 1_544
F5 Hf1 2.129242 1_555
F6 Hf0 2.113908 1_555
F6 Hf2 2.129242 1_555
F7 Hf1 2.113908 1_566
F7 Hf3 2.129242 1_555
F8 H23 1.561660 1_555
F8 Hf0 2.025508 1_555
F9 H22 1.561660 1_555
F9 Hf1 2.025508 1_565
F10 H21 1.561660 1_555
F10 Hf2 2.025508 1_555
F11 H20 1.561660 1_555
F11 Hf3 2.025508 1_545
F12 H19 1.583400 1_555
F12 H1 1.656809 1_555
F12 Hf0 2.040485 1_555
F13 H18 1.583400 1_555
F13 H0 1.656809 1_555
F13 Hf1 2.040485 1_555
F14 H17 1.583400 1_555
F14 H3 1.656809 1_555
F14 Hf2 2.040485 1_555
F15 H16 1.583400 1_555
F15 H2 1.656809 1_555
F15 Hf3 2.040485 1_555
