# generated using pymatgen
data_SrCa7Mn6Cr2O21
_symmetry_space_group_name_H-M   'P 1'
_cell_length_a   10.99698345
_cell_length_b   15.51484050
_cell_length_c   10.99101734
_cell_angle_alpha   90.01747414
_cell_angle_beta   91.18018027
_cell_angle_gamma   90.53755932
_symmetry_Int_Tables_number   1
_chemical_formula_structural   SrCa7Mn6Cr2O21
_chemical_formula_sum   'Sr4 Ca28 Mn24 Cr8 O84'
_cell_volume   1874.76774701
_cell_formula_units_Z   4
loop_
 _symmetry_equiv_pos_site_id
 _symmetry_equiv_pos_as_xyz
  1  'x, y, z'
loop_
 _atom_site_type_symbol
 _atom_site_label
 _atom_site_symmetry_multiplicity
 _atom_site_fract_x
 _atom_site_fract_y
 _atom_site_fract_z
 _atom_site_occupancy
  Sr  Sr0  1  0.00021280  0.11453712  0.50393813  1
  Sr  Sr1  1  0.50950071  0.38495038  0.98620692  1
  Sr  Sr2  1  0.23806236  0.38666744  0.24607903  1
  Sr  Sr3  1  0.22867707  0.11993098  0.23837918  1
  Ca  Ca0  1  0.99535983  0.10812923  0.00404275  1
  Ca  Ca1  1  0.00892661  0.62436690  0.50948831  1
  Ca  Ca2  1  0.01414519  0.62239810  0.99187429  1
  Ca  Ca3  1  0.54528749  0.12619849  0.47910973  1
  Ca  Ca4  1  0.54638203  0.12893430  0.98680559  1
  Ca  Ca5  1  0.53032068  0.63007945  0.51111830  1
  Ca  Ca6  1  0.53289265  0.62178133  0.97423959  1
  Ca  Ca7  1  0.50216068  0.38077942  0.51555058  1
  Ca  Ca8  1  0.51768211  0.85989230  0.98629640  1
  Ca  Ca9  1  0.49429837  0.86699388  0.51026859  1
  Ca  Ca10  1  0.96369240  0.38822122  0.00633497  1
  Ca  Ca11  1  0.95771147  0.38798867  0.50022522  1
  Ca  Ca12  1  0.95614993  0.87976154  0.99914261  1
  Ca  Ca13  1  0.96879409  0.87162219  0.50894175  1
  Ca  Ca14  1  0.23295926  0.40535149  0.76014293  1
  Ca  Ca15  1  0.22688894  0.88778897  0.27152508  1
  Ca  Ca16  1  0.21886854  0.87166252  0.73748997  1
  Ca  Ca17  1  0.75285210  0.38307995  0.25069273  1
  Ca  Ca18  1  0.73419057  0.38536751  0.74913692  1
  Ca  Ca19  1  0.76348410  0.86943338  0.25666519  1
  Ca  Ca20  1  0.73966578  0.86562229  0.75015399  1
  Ca  Ca21  1  0.22270365  0.10970385  0.74103506  1
  Ca  Ca22  1  0.23694201  0.62591782  0.26065358  1
  Ca  Ca23  1  0.26759565  0.63034920  0.73797295  1
  Ca  Ca24  1  0.77681180  0.11801131  0.25167789  1
  Ca  Ca25  1  0.78182240  0.11801427  0.75302705  1
  Ca  Ca26  1  0.78169586  0.62147046  0.25259597  1
  Ca  Ca27  1  0.77224790  0.62328637  0.75680723  1
  Mn  Mn0  1  0.00173660  0.50223023  0.25122489  1
  Mn  Mn1  1  0.99548355  0.50046681  0.75406271  1
  Mn  Mn2  1  0.50713225  0.98254085  0.23341769  1
  Mn  Mn3  1  0.50787013  0.99057351  0.73695269  1
  Mn  Mn4  1  0.50753999  0.49645602  0.24527321  1
  Mn  Mn5  1  0.49604433  0.50313134  0.74625867  1
  Mn  Mn6  1  0.25143208  0.52075543  0.00777823  1
  Mn  Mn7  1  0.23637366  0.49795245  0.51007122  1
  Mn  Mn8  1  0.74297393  0.99960203  0.99687121  1
  Mn  Mn9  1  0.74483090  0.99740722  0.49720050  1
  Mn  Mn10  1  0.75217661  0.50412171  0.99974601  1
  Mn  Mn11  1  0.74464114  0.50478922  0.50118397  1
  Mn  Mn12  1  0.25889266  0.75572117  0.97412237  1
  Mn  Mn13  1  0.24955818  0.75181591  0.49812636  1
  Mn  Mn14  1  0.75619731  0.24956812  0.00320459  1
  Mn  Mn15  1  0.75071647  0.24995421  0.50235801  1
  Mn  Mn16  1  0.75382849  0.74597878  0.00004515  1
  Mn  Mn17  1  0.75355048  0.74626671  0.50523195  1
  Mn  Mn18  1  0.99767394  0.75055829  0.26139003  1
  Mn  Mn19  1  0.99708299  0.75002615  0.74898103  1
  Mn  Mn20  1  0.51539799  0.25801038  0.25727062  1
  Mn  Mn21  1  0.51623332  0.24821995  0.74885988  1
  Mn  Mn22  1  0.52083564  0.74861950  0.26328420  1
  Mn  Mn23  1  0.50331460  0.74748260  0.74819529  1
  Cr  Cr0  1  0.99404934  0.99644926  0.25211539  1
  Cr  Cr1  1  0.99498137  0.99356362  0.75427478  1
  Cr  Cr2  1  0.23866601  0.99214908  0.01203387  1
  Cr  Cr3  1  0.23938386  0.99822656  0.51697859  1
  Cr  Cr4  1  0.26677865  0.23332590  0.94051258  1
  Cr  Cr5  1  0.26948078  0.24125643  0.45915662  1
  Cr  Cr6  1  0.98296104  0.25371993  0.26553666  1
  Cr  Cr7  1  0.98827726  0.25668105  0.76836975  1
  O  O0  1  0.09940246  0.77026529  0.60741846  1
  O  O1  1  0.59006775  0.25492712  0.09530162  1
  O  O2  1  0.58758749  0.25278978  0.58731668  1
  O  O3  1  0.59618139  0.75407072  0.10868866  1
  O  O4  1  0.60387872  0.76304945  0.60444653  1
  O  O5  1  0.39547601  0.19284110  0.35937451  1
  O  O6  1  0.39466953  0.18514535  0.85419833  1
  O  O7  1  0.40640164  0.69622810  0.35977546  1
  O  O8  1  0.40959067  0.73022640  0.89735934  1
  O  O9  1  0.90508738  0.24302341  0.41603814  1
  O  O10  1  0.92030245  0.23700845  0.92350738  1
  O  O11  1  0.89350177  0.73052319  0.40659883  1
  O  O12  1  0.89748003  0.73287197  0.90065451  1
  O  O13  1  0.15220378  0.24855855  0.33215800  1
  O  O14  1  0.17240230  0.25270688  0.80668904  1
  O  O15  1  0.15899336  0.74956349  0.33598544  1
  O  O16  1  0.14494810  0.73526947  0.84710442  1
  O  O17  1  0.66055678  0.22375146  0.35367855  1
  O  O18  1  0.66188997  0.22624062  0.85504481  1
  O  O19  1  0.65800011  0.72099086  0.35557153  1
  O  O20  1  0.64947991  0.72755201  0.85528553  1
  O  O21  1  0.35706099  0.76674346  0.64354434  1
  O  O22  1  0.85371031  0.27800226  0.14865419  1
  O  O23  1  0.85843230  0.27914536  0.65088161  1
  O  O24  1  0.86585603  0.77009737  0.14078013  1
  O  O25  1  0.85347349  0.77063393  0.64695026  1
  O  O26  1  0.35987863  0.51753281  0.15860872  1
  O  O27  1  0.35323803  0.49443753  0.63912888  1
  O  O28  1  0.35215105  0.00253543  0.16161942  1
  O  O29  1  0.34948367  0.99641521  0.66927401  1
  O  O30  1  0.85962677  0.48560578  0.14405881  1
  O  O31  1  0.85500771  0.48020325  0.64591706  1
  O  O32  1  0.84587625  0.97816998  0.13996763  1
  O  O33  1  0.84513303  0.97734235  0.64347461  1
  O  O34  1  0.14487431  0.00989785  0.36421457  1
  O  O35  1  0.14933681  0.00309826  0.86069860  1
  O  O36  1  0.14917438  0.51052495  0.35715182  1
  O  O37  1  0.14752914  0.52730819  0.85931303  1
  O  O38  1  0.62999118  0.02401877  0.34491340  1
  O  O39  1  0.63079938  0.03069145  0.84719882  1
  O  O40  1  0.62480770  0.53085201  0.36255532  1
  O  O41  1  0.64091617  0.51620433  0.85780209  1
  O  O42  1  0.38739494  0.51288399  0.89814961  1
  O  O43  1  0.87921562  0.01284226  0.38810032  1
  O  O44  1  0.88402501  0.01164722  0.89479014  1
  O  O45  1  0.89137326  0.51972861  0.38892898  1
  O  O46  1  0.89266027  0.51846558  0.89604999  1
  O  O47  1  0.11082509  0.48271247  0.10389727  1
  O  O48  1  0.09656357  0.47509042  0.61665659  1
  O  O49  1  0.09956795  0.97424083  0.10844348  1
  O  O50  1  0.10119578  0.97521075  0.61220876  1
  O  O51  1  0.61455133  0.49380740  0.10925220  1
  O  O52  1  0.60254210  0.49006434  0.60957508  1
  O  O53  1  0.58971800  0.99217701  0.08104073  1
  O  O54  1  0.58939366  0.99445236  0.58229822  1
  O  O55  1  0.00228896  0.38067914  0.28544627  1
  O  O56  1  0.01563548  0.38081502  0.80141009  1
  O  O57  1  0.99888444  0.87208446  0.29091547  1
  O  O58  1  0.00316009  0.87009643  0.79347380  1
  O  O59  1  0.47219051  0.38151868  0.29776274  1
  O  O60  1  0.48955255  0.37506014  0.75984282  1
  O  O61  1  0.47742451  0.86953662  0.29307598  1
  O  O62  1  0.51872954  0.87196867  0.78026149  1
  O  O63  1  0.48745810  0.62640403  0.71940019  1
  O  O64  1  0.99385044  0.12851237  0.21723238  1
  O  O65  1  0.00089126  0.12777342  0.73027349  1
  O  O66  1  0.00589610  0.62840101  0.21529937  1
  O  O67  1  0.98565868  0.62488809  0.71575826  1
  O  O68  1  0.21839746  0.13482875  0.01643683  1
  O  O69  1  0.23837846  0.13141419  0.53714847  1
  O  O70  1  0.22592742  0.65460590  0.05474745  1
  O  O71  1  0.22985638  0.62623246  0.52369249  1
  O  O72  1  0.75359782  0.12411621  0.03843913  1
  O  O73  1  0.75410338  0.12387754  0.53901772  1
  O  O74  1  0.74824961  0.62551002  0.03730586  1
  O  O75  1  0.74637978  0.62562142  0.54539406  1
  O  O76  1  0.28095007  0.35956220  0.49918989  1
  O  O77  1  0.29088921  0.32752557  0.02456598  1
  O  O78  1  0.28348874  0.88072225  0.47325848  1
  O  O79  1  0.29521364  0.87588744  0.98899935  1
  O  O80  1  0.73819804  0.37936955  0.46447007  1
  O  O81  1  0.74867458  0.37730941  0.96605639  1
  O  O82  1  0.74388553  0.87156579  0.46478569  1
  O  O83  1  0.73932814  0.87240304  0.96595509  1
loop_
_geom_bond_atom_site_label_1
_geom_bond_atom_site_label_2
_geom_bond_distance
_geom_bond_site_symmetry_2
Ca0 O44 2.255130 1_554
Ca0 O10 2.337718 1_554
Ca0 O64 2.364737 1_555
Ca0 O68 2.484598 1_655
Ca0 O49 2.633799 1_645
Ca0 O72 2.706769 1_555
Ca0 O35 2.857429 1_654
Ca0 O32 3.006736 1_545
Ca0 O65 3.026291 1_654
Ca1 O67 2.286762 1_455
Ca1 O11 2.363021 1_455
Ca1 O71 2.431261 1_555
Ca1 O45 2.439527 1_455
Ca1 O0 2.680385 1_555
Ca1 O48 2.770715 1_555
Ca1 O36 2.908157 1_555
Ca1 O75 2.922356 1_455
Ca2 O46 2.322666 1_455
Ca2 O12 2.361836 1_455
Ca2 O66 2.460977 1_556
Ca2 O70 2.462310 1_556
Ca2 O37 2.564804 1_555
Ca2 O47 2.708142 1_556
Ca2 O16 2.777818 1_555
Ca3 O2 2.333868 1_555
Ca3 O5 2.336363 1_555
Ca3 O38 2.374703 1_555
Ca3 O73 2.376412 1_555
Ca3 O54 2.386823 1_545
Ca3 O17 2.415663 1_555
Ca4 O1 2.330504 1_556
Ca4 O72 2.338866 1_556
Ca4 O6 2.365638 1_555
Ca4 O39 2.371352 1_555
Ca4 O53 2.408682 1_546
Ca4 O18 2.455818 1_555
Ca5 O63 2.347345 1_555
Ca5 O7 2.368788 1_555
Ca5 O75 2.399646 1_555
Ca5 O4 2.428121 1_555
Ca5 O40 2.492855 1_555
Ca5 O52 2.553263 1_555
Ca5 O19 2.635695 1_555
Ca6 O8 2.319466 1_555
Ca6 O41 2.414523 1_555
Ca6 O42 2.450981 1_555
Ca6 O74 2.454045 1_556
Ca6 O20 2.465152 1_555
Ca6 O3 2.609524 1_556
Ca6 O51 2.632677 1_556
Ca6 O63 2.836057 1_555
Ca7 O52 2.253489 1_555
Ca7 O2 2.335233 1_555
Ca7 O59 2.409604 1_555
Ca7 O76 2.454669 1_555
Ca7 O80 2.667287 1_555
Ca7 O60 2.692895 1_555
Ca7 O27 2.789409 1_555
Ca8 O62 2.272585 1_555
Ca8 O3 2.287016 1_556
Ca8 O53 2.420410 1_556
Ca8 O83 2.458121 1_555
Ca8 O79 2.462138 1_555
Ca8 O8 2.514293 1_555
Ca9 O4 2.260631 1_555
Ca9 O78 2.357050 1_555
Ca9 O54 2.357331 1_555
Ca9 O61 2.390922 1_555
Ca9 O21 2.625072 1_555
Ca9 O82 2.800220 1_555
Ca10 O56 2.338069 1_654
Ca10 O81 2.401052 1_554
Ca10 O47 2.408337 1_655
Ca10 O30 2.446687 1_555
Ca10 O46 2.480905 1_554
Ca10 O10 2.553458 1_554
Ca10 O22 2.621946 1_555
Ca11 O48 2.382258 1_655
Ca11 O55 2.423704 1_655
Ca11 O80 2.440180 1_555
Ca11 O31 2.447466 1_555
Ca11 O45 2.489765 1_555
Ca11 O9 2.490350 1_555
Ca11 O23 2.612873 1_555
Ca12 O58 2.334317 1_655
Ca12 O83 2.406329 1_555
Ca12 O49 2.440655 1_656
Ca12 O44 2.475046 1_565
Ca12 O32 2.511576 1_556
Ca12 O24 2.517506 1_556
Ca12 O12 2.593044 1_555
Ca13 O0 2.384681 1_655
Ca13 O50 2.424480 1_655
Ca13 O57 2.425815 1_555
Ca13 O82 2.510645 1_555
Ca13 O25 2.531293 1_555
Ca13 O11 2.582492 1_555
Ca13 O33 2.617118 1_555
Ca13 O43 2.742870 1_565
Ca14 O27 2.338433 1_555
Ca14 O37 2.392726 1_555
Ca14 O48 2.416960 1_555
Ca14 O56 2.467788 1_555
Ca14 O14 2.509786 1_555
Ca14 O42 2.794219 1_555
Ca14 O60 2.865036 1_555
Ca14 O76 3.012902 1_555
Ca15 O78 2.293520 1_555
Ca15 O34 2.347161 1_565
Ca15 O15 2.377222 1_555
Ca15 O57 2.530263 1_455
Ca15 O28 2.559285 1_565
Ca15 O49 2.627851 1_555
Ca15 O61 2.777565 1_555
Ca16 O58 2.462787 1_555
Ca16 O50 2.473561 1_555
Ca16 O0 2.475300 1_555
Ca16 O21 2.476982 1_555
Ca16 O29 2.522820 1_555
Ca16 O16 2.569019 1_555
Ca16 O35 2.578194 1_565
Ca16 O79 2.872981 1_555
Ca17 O22 2.286870 1_555
Ca17 O30 2.303341 1_555
Ca17 O80 2.359142 1_555
Ca17 O55 2.762317 1_655
Ca17 O51 2.763027 1_555
Ca17 O17 2.902400 1_555
Ca18 O31 2.289900 1_555
Ca18 O81 2.389594 1_555
Ca18 O23 2.418861 1_555
Ca18 O41 2.585959 1_555
Ca18 O52 2.653595 1_555
Ca18 O60 2.698519 1_555
Ca18 O18 2.843467 1_555
Ca19 O82 2.302259 1_555
Ca19 O32 2.309256 1_555
Ca19 O24 2.314164 1_555
Ca19 O57 2.608177 1_555
Ca19 O19 2.799071 1_555
Ca19 O43 2.919981 1_565
Ca19 O3 3.007798 1_555
Ca20 O25 2.262072 1_555
Ca20 O83 2.374254 1_555
Ca20 O33 2.396645 1_555
Ca20 O62 2.461686 1_555
Ca20 O20 2.629906 1_555
Ca20 O4 2.680002 1_555
Ca21 O35 2.266357 1_555
Ca21 O69 2.276001 1_555
Ca21 O29 2.397011 1_545
Ca21 O14 2.405762 1_555
Ca21 O65 2.458369 1_555
Ca21 O6 2.520702 1_555
Ca21 O50 2.830610 1_545
Ca22 O15 2.271452 1_555
Ca22 O36 2.296205 1_555
Ca22 O70 2.307556 1_555
Ca22 O7 2.393148 1_555
Ca22 O26 2.453023 1_555
Ca22 O66 2.579798 1_555
Ca23 O71 2.383746 1_555
Ca23 O63 2.431952 1_555
Ca23 O16 2.452408 1_555
Ca23 O37 2.472238 1_555
Ca23 O21 2.554895 1_555
Ca23 O27 2.567425 1_555
Ca23 O8 2.783641 1_555
Ca23 O42 2.847421 1_555
Ca24 O72 2.354371 1_555
Ca24 O17 2.383263 1_555
Ca24 O38 2.410076 1_555
Ca24 O64 2.428273 1_555
Ca24 O43 2.478959 1_555
Ca24 O32 2.619026 1_545
Ca24 O22 2.856671 1_555
Ca24 O9 2.976019 1_555
Ca25 O73 2.367501 1_555
Ca25 O39 2.386314 1_555
Ca25 O65 2.430475 1_655
Ca25 O18 2.432591 1_555
Ca25 O44 2.525580 1_555
Ca25 O33 2.599871 1_545
Ca25 O23 2.867221 1_555
Ca25 O10 3.010982 1_555
Ca26 O19 2.370059 1_555
Ca26 O74 2.388107 1_555
Ca26 O45 2.480817 1_555
Ca26 O66 2.509005 1_655
Ca26 O40 2.540735 1_555
Ca26 O30 2.583669 1_555
Ca26 O11 2.667008 1_555
Ca26 O24 2.773581 1_555
Ca27 O75 2.335505 1_555
Ca27 O20 2.389811 1_555
Ca27 O67 2.398859 1_555
Ca27 O41 2.469880 1_555
Ca27 O46 2.588212 1_555
Ca27 O12 2.674264 1_555
Ca27 O31 2.706237 1_555
Ca27 O25 2.736734 1_555
Mn0 O55 1.923142 1_555
Mn0 O30 1.952587 1_455
Mn0 O45 1.979644 1_455
Mn0 O36 1.979673 1_555
Mn0 O66 1.997354 1_555
Mn0 O47 2.058992 1_555
Mn1 O48 1.936082 1_655
Mn1 O56 1.941551 1_655
Mn1 O31 1.952726 1_555
Mn1 O46 1.967318 1_555
Mn1 O67 1.979345 1_555
Mn1 O37 2.052880 1_655
Mn2 O28 1.891656 1_565
Mn2 O61 1.899820 1_555
Mn2 O38 1.912136 1_565
Mn2 O53 1.926735 1_555
Mn3 O29 1.882802 1_555
Mn3 O39 1.897220 1_565
Mn3 O62 1.905061 1_555
Mn3 O54 1.938694 1_555
Mn4 O40 1.878208 1_555
Mn4 O26 1.896709 1_555
Mn4 O59 1.913303 1_555
Mn4 O51 1.922224 1_555
Mn5 O52 1.935543 1_555
Mn5 O63 1.938173 1_555
Mn5 O27 1.946960 1_555
Mn5 O60 1.993372 1_555
Mn5 O41 1.998905 1_555
Mn5 O42 2.079159 1_555
Mn6 O42 1.944193 1_554
Mn6 O37 1.975881 1_554
Mn6 O47 1.976333 1_555
Mn6 O26 2.023048 1_555
Mn6 O70 2.161935 1_555
Mn7 O27 1.895505 1_555
Mn7 O36 1.928678 1_555
Mn7 O48 1.981482 1_555
Mn7 O71 1.997888 1_555
Mn7 O76 2.210580 1_555
Mn8 O44 1.940658 1_565
Mn8 O53 1.941690 1_556
Mn8 O32 1.949053 1_556
Mn8 O72 1.986789 1_566
Mn8 O83 2.002301 1_555
Mn8 O39 2.094907 1_565
Mn9 O43 1.935393 1_565
Mn9 O33 1.957541 1_555
Mn9 O54 1.965494 1_555
Mn9 O82 1.984435 1_555
Mn9 O73 2.016310 1_565
Mn9 O38 2.118977 1_565
Mn10 O74 1.928981 1_556
Mn10 O46 1.949728 1_555
Mn10 O51 1.958419 1_556
Mn10 O41 1.972803 1_555
Mn10 O30 1.980925 1_556
Mn10 O81 2.001771 1_555
Mn11 O75 1.936321 1_555
Mn11 O80 1.987461 1_555
Mn11 O52 1.995875 1_555
Mn11 O31 2.019560 1_555
Mn11 O40 2.036996 1_555
Mn11 O45 2.062737 1_555
Mn12 O70 1.838801 1_556
Mn12 O16 1.881486 1_555
Mn12 O79 1.909258 1_555
Mn12 O8 1.919473 1_555
Mn13 O71 1.979170 1_555
Mn13 O21 1.980552 1_555
Mn13 O15 2.023653 1_555
Mn13 O78 2.050442 1_555
Mn13 O0 2.083727 1_555
Mn13 O7 2.483179 1_555
Mn14 O18 1.944572 1_554
Mn14 O22 1.954551 1_555
Mn14 O72 1.984692 1_555
Mn14 O81 2.025734 1_554
Mn14 O10 2.033146 1_554
Mn14 O1 2.109069 1_555
Mn15 O17 1.934944 1_555
Mn15 O9 1.965523 1_555
Mn15 O73 1.997783 1_555
Mn15 O2 2.040225 1_555
Mn15 O23 2.045217 1_555
Mn15 O80 2.056014 1_555
Mn16 O74 1.914208 1_555
Mn16 O12 1.951214 1_554
Mn16 O20 1.961721 1_554
Mn16 O24 1.990707 1_555
Mn16 O83 2.004237 1_554
Mn16 O3 2.129889 1_555
Mn17 O11 1.918113 1_555
Mn17 O25 1.923004 1_555
Mn17 O75 1.924538 1_555
Mn17 O19 1.970870 1_555
Mn17 O82 1.997622 1_555
Mn17 O4 2.011924 1_555
Mn18 O57 1.912961 1_555
Mn18 O15 1.939128 1_655
Mn18 O66 1.965018 1_655
Mn18 O24 1.969734 1_555
Mn18 O11 2.006266 1_555
Mn19 O58 1.926047 1_655
Mn19 O25 1.946959 1_555
Mn19 O16 1.947955 1_655
Mn19 O0 1.962486 1_655
Mn19 O67 1.977784 1_555
Mn19 O12 2.029691 1_555
Mn20 O17 1.974867 1_555
Mn20 O1 1.976510 1_555
Mn20 O5 2.014327 1_555
Mn20 O59 2.030020 1_555
Mn21 O2 1.956952 1_555
Mn21 O18 1.994382 1_555
Mn21 O60 1.996362 1_555
Mn21 O6 2.031039 1_555
Mn22 O7 1.845374 1_555
Mn22 O19 1.853980 1_555
Mn22 O3 1.907252 1_555
Mn22 O61 1.969112 1_555
Mn23 O63 1.910656 1_555
Mn23 O4 1.960809 1_555
Mn23 O62 1.968290 1_555
Mn23 O8 1.971426 1_555
Mn23 O21 1.982956 1_555
Mn23 O20 1.999073 1_555
Cr0 O57 1.977158 1_555
Cr0 O43 1.994197 1_565
Cr0 O49 2.010330 1_655
Cr0 O32 2.040413 1_555
Cr0 O34 2.054691 1_665
Cr0 O64 2.084629 1_565
Cr1 O58 1.966030 1_655
Cr1 O50 1.991134 1_655
Cr1 O44 2.009116 1_565
Cr1 O33 2.042367 1_555
Cr1 O35 2.045680 1_665
Cr1 O65 2.099537 1_665
Cr2 O49 1.897067 1_555
Cr2 O35 1.922636 1_564
Cr2 O79 1.931755 1_554
Cr2 O28 2.048915 1_565
Cr2 O68 2.227536 1_565
Cr3 O50 1.894189 1_555
Cr3 O78 1.953295 1_555
Cr3 O34 1.965695 1_565
Cr3 O29 2.045924 1_555
Cr3 O69 2.078332 1_565
Cr4 O77 1.744002 1_556
Cr4 O14 1.809481 1_555
Cr4 O68 1.821688 1_556
Cr4 O6 1.873774 1_555
Cr5 O13 1.884995 1_555
Cr5 O76 1.889824 1_555
Cr5 O69 1.938575 1_555
Cr5 O5 1.941242 1_555
Cr6 O9 1.884949 1_555
Cr6 O22 1.935895 1_555
Cr6 O13 1.988263 1_655
Cr6 O55 1.990716 1_655
Cr6 O64 2.018951 1_555
Cr7 O10 1.899452 1_555
Cr7 O23 1.939466 1_555
Cr7 O56 1.978827 1_655
Cr7 O65 2.049775 1_655
Cr7 O14 2.061143 1_655
O1 Sr1 2.506680 1_554
O5 Sr3 2.504473 1_555
O9 Sr0 2.449525 1_655
O13 Sr3 2.412082 1_555
O13 Sr2 2.525466 1_555
O26 Sr2 2.616176 1_555
O28 Sr3 2.442451 1_555
O34 Sr3 2.387662 1_555
O34 Sr0 2.769903 1_555
O36 Sr2 2.494293 1_555
O41 Sr1 2.873622 1_555
O42 Sr1 2.584022 1_555
O43 Sr0 2.402180 1_655
O47 Sr2 2.563371 1_555
O50 Sr0 2.704467 1_565
O51 Sr1 2.431782 1_554
O55 Sr2 2.638211 1_555
O59 Sr2 2.627129 1_555
O60 Sr1 2.497664 1_555
O64 Sr3 2.592721 1_655
O65 Sr0 2.495908 1_555
O68 Sr3 2.450758 1_555
O69 Sr0 2.647489 1_555
O73 Sr0 2.746798 1_655
O76 Sr2 2.844099 1_555
O77 Sr1 2.598624 1_554
O77 Sr2 2.678409 1_555
O81 Sr1 2.647799 1_555
