# generated using pymatgen
data_La2(TlPb)3
_symmetry_space_group_name_H-M   'P 1'
_cell_length_a   4.87330336
_cell_length_b   4.85173460
_cell_length_c   9.97168468
_cell_angle_alpha   90.00000000
_cell_angle_beta   90.00000000
_cell_angle_gamma   90.00000000
_symmetry_Int_Tables_number   1
_chemical_formula_structural   La2(TlPb)3
_chemical_formula_sum   'La2 Tl3 Pb3'
_cell_volume   235.77025858
_cell_formula_units_Z   1
loop_
 _symmetry_equiv_pos_site_id
 _symmetry_equiv_pos_as_xyz
  1  'x, y, z'
loop_
 _atom_site_type_symbol
 _atom_site_label
 _atom_site_symmetry_multiplicity
 _atom_site_fract_x
 _atom_site_fract_y
 _atom_site_fract_z
 _atom_site_occupancy
  La  La0  1  0.00000000  0.00000000  0.75411497  1
  La  La1  1  0.00000000  0.00000000  0.24588503  1
  Tl  Tl0  1  0.50000000  0.00000000  0.50000000  1
  Tl  Tl1  1  0.00000000  0.50000000  -0.00000000  1
  Tl  Tl2  1  0.00000000  0.50000000  0.50000000  1
  Pb  Pb0  1  0.50000000  0.50000000  0.75084371  1
  Pb  Pb1  1  0.50000000  0.50000000  0.24915629  1
  Pb  Pb2  1  0.50000000  0.00000000  0.00000000  1
loop_
_geom_bond_atom_site_label_1
_geom_bond_atom_site_label_2
_geom_bond_distance
_geom_bond_site_symmetry_2
La0 Pb0 3.438483 1_455
La0 Pb0 3.438483 1_555
La0 Pb0 3.438483 1_445
La0 Pb0 3.438483 1_545
La0 Tl1 3.449143 1_556
La0 Tl1 3.449143 1_546
La0 Pb2 3.456736 1_556
La0 Pb2 3.456736 1_456
La0 Tl2 3.507956 1_555
La0 Tl2 3.507956 1_545
La0 Tl0 3.515423 1_455
La0 Tl0 3.515423 1_555
La1 Pb1 3.438483 1_555
La1 Pb1 3.438483 1_455
La1 Pb1 3.438483 1_445
La1 Pb1 3.438483 1_545
La1 Tl1 3.449143 1_555
La1 Tl1 3.449143 1_545
La1 Pb2 3.456736 1_555
La1 Pb2 3.456736 1_455
La1 Tl2 3.507956 1_545
La1 Tl2 3.507956 1_555
La1 Tl0 3.515423 1_555
La1 Tl0 3.515423 1_455
Tl0 Tl2 3.438329 1_555
Tl0 Tl2 3.438329 1_545
Tl0 Tl2 3.438329 1_655
Tl0 Tl2 3.438329 1_645
Pb0 Tl1 3.479950 1_656
Pb0 Tl1 3.479950 1_556
Pb0 Tl0 3.484466 1_555
Pb0 Tl0 3.484466 1_565
Pb0 Tl2 3.491983 1_555
Pb0 Tl2 3.491983 1_655
Pb1 Tl1 3.479950 1_555
Pb1 Tl1 3.479950 1_655
Pb1 Tl0 3.484466 1_555
Pb1 Tl0 3.484466 1_565
Pb1 Tl2 3.491983 1_655
Pb1 Tl2 3.491983 1_555
Pb2 Tl1 3.438329 1_655
Pb2 Tl1 3.438329 1_545
Pb2 Tl1 3.438329 1_645
Pb2 Tl1 3.438329 1_555
