# generated using pymatgen
data_PrSbPd
_symmetry_space_group_name_H-M   'P 1'
_cell_length_a   4.99674962
_cell_length_b   4.99674962
_cell_length_c   7.06474100
_cell_angle_alpha   90.00000000
_cell_angle_beta   90.00000000
_cell_angle_gamma   119.99999500
_symmetry_Int_Tables_number   1
_chemical_formula_structural   PrSbPd
_chemical_formula_sum   'Pr2 Sb2 Pd2'
_cell_volume   152.75733568
_cell_formula_units_Z   2
loop_
 _symmetry_equiv_pos_site_id
 _symmetry_equiv_pos_as_xyz
  1  'x, y, z'
loop_
 _atom_site_type_symbol
 _atom_site_label
 _atom_site_symmetry_multiplicity
 _atom_site_fract_x
 _atom_site_fract_y
 _atom_site_fract_z
 _atom_site_occupancy
  Pr  Pr0  1  0.00000000  0.00000000  0.27250700  1
  Pr  Pr1  1  0.00000000  0.00000000  0.72749300  1
  Sb  Sb0  1  0.33333300  0.66666700  0.96046300  1
  Sb  Sb1  1  0.66666700  0.33333300  0.03953700  1
  Pd  Pd0  1  0.66666700  0.33333300  0.45132500  1
  Pd  Pd1  1  0.33333300  0.66666700  0.54867500  1
loop_
_geom_bond_atom_site_label_1
_geom_bond_atom_site_label_2
_geom_bond_distance
_geom_bond_site_symmetry_2
Pr0 Pr1 3.214358 1_555
Pr0 Sb1 3.321352 1_455
Pr0 Sb1 3.321356 1_555
Pr0 Sb1 3.321356 1_445
Pr0 Sb0 3.630751 1_544
Pr0 Sb0 3.630754 1_444
Pr0 Sb0 3.630754 1_554
Pr1 Sb0 3.321352 1_545
Pr1 Sb0 3.321356 1_445
Pr1 Sb0 3.321356 1_555
Pr1 Sb1 3.630751 1_456
Pr1 Sb1 3.630754 1_556
Pr1 Sb1 3.630754 1_446
Sb0 Sb1 2.938463 1_456
Sb0 Sb1 2.938463 1_566
Sb0 Sb1 2.938471 1_556
Pd0 Sb1 2.909176 1_555
Pd0 Pd1 2.965719 1_545
Pd0 Pd1 2.965719 1_655
Pd0 Pd1 2.965727 1_555
Pd0 Pr0 3.149352 1_655
Pd0 Pr0 3.149356 1_555
Pd0 Pr0 3.149356 1_665
Pd0 Pr1 3.482686 1_655
Pd0 Pr1 3.482690 1_555
Pd0 Pr1 3.482690 1_665
Pd1 Sb0 2.909176 1_555
Pd1 Pr1 3.149352 1_565
Pd1 Pr1 3.149356 1_665
Pd1 Pr1 3.149356 1_555
Pd1 Pr0 3.482686 1_565
Pd1 Pr0 3.482690 1_555
Pd1 Pr0 3.482690 1_665
