# generated using pymatgen
data_K(B7H6)3
_symmetry_space_group_name_H-M   'P 1'
_cell_length_a   7.13902084
_cell_length_b   7.22746781
_cell_length_c   16.84699190
_cell_angle_alpha   94.24130611
_cell_angle_beta   90.00000000
_cell_angle_gamma   119.59600192
_symmetry_Int_Tables_number   1
_chemical_formula_structural   K(B7H6)3
_chemical_formula_sum   'K2 B42 H36'
_cell_volume   753.10381797
_cell_formula_units_Z   2
loop_
 _symmetry_equiv_pos_site_id
 _symmetry_equiv_pos_as_xyz
  1  'x, y, z'
loop_
 _atom_site_type_symbol
 _atom_site_label
 _atom_site_symmetry_multiplicity
 _atom_site_fract_x
 _atom_site_fract_y
 _atom_site_fract_z
 _atom_site_occupancy
  K  K0  1  0.93413902  0.00000000  0.00000000  1
  K  K1  1  0.14658313  0.00000000  0.50000000  1
  B  B0  1  0.45666821  0.30040288  0.26487484  1
  B  B1  1  0.15626633  0.69959712  0.73512516  1
  B  B2  1  0.71873753  0.50363888  0.23578488  1
  B  B3  1  0.21509865  0.49636112  0.76421512  1
  B  B4  1  0.67325273  0.23830305  0.25097949  1
  B  B5  1  0.43494968  0.76169695  0.74902051  1
  B  B6  1  0.93038733  0.47459865  0.29219012  1
  B  B7  1  0.45578768  0.52540135  0.70780988  1
  B  B8  1  0.49943803  0.14287871  0.33990286  1
  B  B9  1  0.35655932  0.85712129  0.66009714  1
  B  B10  1  0.57737562  0.57966847  0.31526566  1
  B  B11  1  0.99770715  0.42033153  0.68473434  1
  B  B12  1  0.82545381  0.37422499  0.16153072  1
  B  B13  1  0.45122882  0.62577501  0.83846928  1
  B  B14  1  0.39599019  0.03851842  0.20989063  1
  B  B15  1  0.35747178  0.96148158  0.79010937  1
  B  B16  1  0.46855030  0.47270826  0.18443915  1
  B  B17  1  0.99584204  0.52729174  0.81556085  1
  B  B18  1  0.44086941  0.35025515  0.36988524  1
  B  B19  1  0.09061426  0.64974485  0.63011476  1
  B  B20  1  0.85952095  0.67340533  0.32346724  1
  B  B21  1  0.18611562  0.32659467  0.67653276  1
  B  B22  1  0.78376413  0.24848872  0.34776447  1
  B  B23  1  0.53527641  0.75151128  0.65223553  1
  B  B24  1  0.28265648  0.19314493  0.17723436  1
  B  B25  1  0.08951155  0.80685507  0.82276564  1
  B  B26  1  0.70011761  0.51824432  0.13039294  1
  B  B27  1  0.18187329  0.48175568  0.86960706  1
  B  B28  1  0.62942417  0.09686920  0.15477817  1
  B  B29  1  0.53255597  0.90313080  0.84522183  1
  B  B30  1  0.89695963  0.51663154  0.39292679  1
  B  B31  1  0.38032809  0.48336846  0.60707321  1
  B  B32  1  0.64441298  0.32126073  0.42111359  1
  B  B33  1  0.32315225  0.67873927  0.57888641  1
  B  B34  1  0.69055670  0.57787060  0.40673056  1
  B  B35  1  0.11268610  0.42212940  0.59326944  1
  B  B36  1  0.64181488  0.26625989  0.08020184  1
  B  B37  1  0.37555499  0.73374011  0.91979816  1
  B  B38  1  0.38930778  0.07007234  0.10886408  1
  B  B39  1  0.31923444  0.92992766  0.89113592  1
  B  B40  1  0.43264439  0.32466495  0.09368237  1
  B  B41  1  0.10797944  0.67533505  0.90631763  1
  H  H0  1  0.10380188  0.52024808  0.27099604  1
  H  H1  1  0.58355480  0.47975192  0.72900396  1
  H  H2  1  0.37875029  0.96346755  0.35133721  1
  H  H3  1  0.41528274  0.03653245  0.64866279  1
  H  H4  1  0.50965658  0.69713815  0.30915645  1
  H  H5  1  0.81251743  0.30286185  0.69084355  1
  H  H6  1  0.00887632  0.43444926  0.15044626  1
  H  H7  1  0.57442706  0.56555074  0.84955374  1
  H  H8  1  0.28660635  0.86783041  0.23160941  1
  H  H9  1  0.41877693  0.13216959  0.76839059  1
  H  H10  1  0.40951743  0.59874077  0.18914564  1
  H  H11  1  0.81077666  0.40125923  0.81085436  1
  H  H12  1  0.27272927  0.31101749  0.39745519  1
  H  H13  1  0.96171278  0.68898251  0.60254481  1
  H  H14  1  0.98426352  0.85801203  0.31979407  1
  H  H15  1  0.12625149  0.14198797  0.68020593  1
  H  H16  1  0.85538441  0.13567437  0.36048934  1
  H  H17  1  0.71971004  0.86432563  0.63951066  1
  H  H18  1  0.09404263  0.12800328  0.18091645  1
  H  H19  1  0.96603935  0.87199672  0.81908355  1
  H  H20  1  0.80597190  0.68336949  0.10213737  1
  H  H21  1  0.12260241  0.31663051  0.89786263  1
  H  H22  1  0.68245270  0.96503537  0.14341621  1
  H  H23  1  0.71741732  0.03496463  0.85658379  1
  H  H24  1  0.05621466  0.59153363  0.43447298  1
  H  H25  1  0.46468102  0.40846637  0.56552702  1
  H  H26  1  0.61462650  0.24876439  0.48411999  1
  H  H27  1  0.36586212  0.75123561  0.51588001  1
  H  H28  1  0.69256239  0.69916111  0.45913920  1
  H  H29  1  0.99340128  0.30083889  0.54086080  1
  H  H30  1  0.71462479  0.25902206  0.01710885  1
  H  H31  1  0.45560373  0.74097794  0.98289115  1
  H  H32  1  0.27012270  0.91249859  0.06855899  1
  H  H33  1  0.35762411  0.08750141  0.93144101  1
  H  H34  1  0.34925477  0.36236500  0.04070058  1
  H  H35  1  0.98689077  0.63763500  0.95929942  1
loop_
_geom_bond_atom_site_label_1
_geom_bond_atom_site_label_2
_geom_bond_distance
_geom_bond_site_symmetry_2
B0 B24 1.789873 1_555
B0 B18 1.793919 1_555
B0 B2 1.813857 1_555
B0 B4 1.821242 1_555
B0 B16 1.881385 1_555
B0 B8 1.882373 1_555
B0 B14 1.886543 1_555
B0 B10 1.888299 1_555
B1 B25 1.789876 1_555
B1 B19 1.793920 1_555
B1 B3 1.813853 1_555
B1 B5 1.821235 1_555
B1 B17 1.881387 1_455
B1 B9 1.882370 1_555
B1 B15 1.886541 1_555
B1 B11 1.888299 1_455
B2 B20 1.792068 1_555
B2 B26 1.795252 1_555
B2 B4 1.818264 1_555
B2 B6 1.890195 1_555
B3 B5 1.818264 1_555
B3 B7 1.890188 1_555
B4 B6 1.869860 1_555
B4 B8 1.888699 1_555
B5 B7 1.869856 1_555
B5 B9 1.888699 1_555
B6 H0 1.176001 1_655
B7 H1 1.176014 1_555
B8 H2 1.180785 1_545
B9 H3 1.180785 1_565
B10 H4 1.176215 1_555
B10 B2 1.884752 1_555
B11 H5 1.176221 1_555
B11 B3 1.884752 1_655
B12 H6 1.178151 1_655
B12 B2 1.884399 1_555
B12 B4 1.892400 1_555
B13 H7 1.178151 1_555
B13 B3 1.884399 1_555
B13 B5 1.892400 1_555
B14 H8 1.175057 1_545
B14 B4 1.873796 1_555
B15 H9 1.175056 1_565
B15 B5 1.873796 1_555
B16 H10 1.175641 1_555
B16 B2 1.888217 1_555
B17 H11 1.175641 1_555
B17 B3 1.888217 1_655
B18 H12 1.191743 1_555
B19 H13 1.191737 1_455
B20 H14 1.189809 1_555
B21 H15 1.189809 1_555
B21 B3 1.792068 1_555
B22 H16 1.187369 1_555
B22 B4 1.792031 1_555
B23 H17 1.187363 1_555
B23 B5 1.792034 1_555
B24 H18 1.190271 1_555
B25 H19 1.190271 1_455
B26 H20 1.189603 1_555
B27 H21 1.189603 1_555
B27 B3 1.795252 1_555
B28 H22 1.190442 1_545
B28 B4 1.791232 1_555
B29 H23 1.190437 1_565
B29 B5 1.791233 1_555
B30 H24 1.188095 1_655
B31 H25 1.188095 1_555
B32 H26 1.191085 1_555
B33 H27 1.191085 1_555
B34 H28 1.192205 1_555
B35 H29 1.192205 1_455
B36 H30 1.192211 1_555
B37 H31 1.192214 1_555
B38 H32 1.187644 1_545
B39 H33 1.187642 1_565
B40 H34 1.192290 1_555
B41 H35 1.192285 1_455
H12 K1 2.724566 1_555
H13 K1 2.724566 1_665
H20 K0 2.747573 1_565
H21 K0 2.747573 1_456
H22 K0 2.961727 1_565
H23 K0 2.961728 1_556
H24 K1 2.826112 1_565
H25 K1 2.826112 1_555
H26 K1 2.933599 1_555
H27 K1 2.933599 1_565
H28 K1 2.919695 1_665
H29 K1 2.919695 1_655
H30 K0 2.976850 1_555
H31 K0 2.976844 1_566
H32 K0 3.015566 1_465
H33 K0 3.015566 1_456
H34 K0 2.860005 1_455
H35 K0 2.860009 1_566
