# generated using pymatgen
data_LiH2ClO5
_symmetry_space_group_name_H-M   'P 1'
_cell_length_a   7.80372901
_cell_length_b   7.80372901
_cell_length_c   10.51481246
_cell_angle_alpha   69.94252562
_cell_angle_beta   69.94252562
_cell_angle_gamma   40.14510281
_symmetry_Int_Tables_number   1
_chemical_formula_structural   LiH2ClO5
_chemical_formula_sum   'Li4 H8 Cl4 O20'
_cell_volume   384.33332672
_cell_formula_units_Z   4
loop_
 _symmetry_equiv_pos_site_id
 _symmetry_equiv_pos_as_xyz
  1  'x, y, z'
loop_
 _atom_site_type_symbol
 _atom_site_label
 _atom_site_symmetry_multiplicity
 _atom_site_fract_x
 _atom_site_fract_y
 _atom_site_fract_z
 _atom_site_occupancy
  Li  Li0  1  0.00000000  0.50000000  0.00000000  1
  Li  Li1  1  0.50000000  0.00000000  0.50000000  1
  Li  Li2  1  0.43435500  0.56564500  0.75000000  1
  Li  Li3  1  0.56564500  0.43435500  0.25000000  1
  H  H0  1  0.35749000  0.44470400  0.01417600  1
  H  H1  1  0.55529600  0.64251000  0.48582400  1
  H  H2  1  0.64251000  0.55529600  0.98582400  1
  H  H3  1  0.44470400  0.35749000  0.51417600  1
  H  H4  1  0.50698600  0.20989000  0.93677800  1
  H  H5  1  0.79011000  0.49301400  0.56322200  1
  H  H6  1  0.49301400  0.79011000  0.06322200  1
  H  H7  1  0.20989000  0.50698600  0.43677800  1
  Cl  Cl0  1  0.83123200  0.91198900  0.70615200  1
  Cl  Cl1  1  0.08801100  0.16876800  0.79384800  1
  Cl  Cl2  1  0.16876800  0.08801100  0.29384800  1
  Cl  Cl3  1  0.91198900  0.83123200  0.20615200  1
  O  O0  1  0.75538500  0.83463100  0.64934900  1
  O  O1  1  0.16536900  0.24461500  0.85065100  1
  O  O2  1  0.24461500  0.16536900  0.35065100  1
  O  O3  1  0.83463100  0.75538500  0.14934900  1
  O  O4  1  0.66342200  0.19771700  0.66230500  1
  O  O5  1  0.80228300  0.33657800  0.83769500  1
  O  O6  1  0.33657800  0.80228300  0.33769500  1
  O  O7  1  0.19771700  0.66342200  0.16230500  1
  O  O8  1  0.79072400  0.86533100  0.85587500  1
  O  O9  1  0.13466900  0.20927600  0.64412500  1
  O  O10  1  0.20927600  0.13466900  0.14412500  1
  O  O11  1  0.86533100  0.79072400  0.35587500  1
  O  O12  1  0.11223000  0.75512000  0.65872600  1
  O  O13  1  0.24488000  0.88777000  0.84127400  1
  O  O14  1  0.88777000  0.24488000  0.34127400  1
  O  O15  1  0.75512000  0.11223000  0.15872600  1
  O  O16  1  0.35260200  0.40529800  0.93724400  1
  O  O17  1  0.59470200  0.64739800  0.56275600  1
  O  O18  1  0.64739800  0.59470200  0.06275600  1
  O  O19  1  0.40529800  0.35260200  0.43724400  1
loop_
_geom_bond_atom_site_label_1
_geom_bond_atom_site_label_2
_geom_bond_distance
_geom_bond_site_symmetry_2
Li0 O16 2.129111 1_554
Li0 O18 2.129111 1_455
Li0 O8 2.169680 1_454
Li0 O10 2.169680 1_555
Li0 O1 2.219911 1_554
Li0 O3 2.219911 1_455
Li1 O17 2.129111 1_545
Li1 O19 2.129111 1_555
Li1 O9 2.169680 1_555
Li1 O11 2.169680 1_545
Li1 O0 2.219911 1_545
Li1 O2 2.219911 1_555
Li2 O12 2.103662 1_555
Li2 O13 2.103662 1_555
Li2 O16 2.125591 1_555
Li2 O17 2.125591 1_555
Li2 O4 2.264554 1_555
Li2 O5 2.264554 1_555
Li3 O14 2.103662 1_555
Li3 O15 2.103662 1_555
Li3 O19 2.125591 1_555
Li3 O18 2.125591 1_555
Li3 O6 2.264554 1_555
Li3 O7 2.264554 1_555
H0 O16 0.979850 1_554
H1 O17 0.979850 1_555
H2 O18 0.979850 1_556
H3 O19 0.979850 1_555
H4 O16 0.984485 1_555
H5 O17 0.984485 1_555
H6 O18 0.984485 1_555
H7 O19 0.984485 1_555
Cl0 O0 1.451749 1_555
Cl0 O12 1.456182 1_655
Cl0 O4 1.464282 1_565
Cl0 O8 1.467098 1_555
Cl1 O1 1.451749 1_555
Cl1 O13 1.456182 1_545
Cl1 O5 1.464282 1_455
Cl1 O9 1.467098 1_555
Cl2 O2 1.451749 1_555
Cl2 O14 1.456182 1_455
Cl2 O6 1.464282 1_545
Cl2 O10 1.467098 1_555
Cl3 O3 1.451749 1_555
Cl3 O15 1.456182 1_565
Cl3 O7 1.464282 1_655
Cl3 O11 1.467098 1_555
