# generated using pymatgen
data_Li4UF8
_symmetry_space_group_name_H-M   'P 1'
_cell_length_a   5.89348300
_cell_length_b   9.96480300
_cell_length_c   10.12788500
_cell_angle_alpha   90.00000000
_cell_angle_beta   90.00000000
_cell_angle_gamma   90.00000000
_symmetry_Int_Tables_number   1
_chemical_formula_structural   Li4UF8
_chemical_formula_sum   'Li16 U4 F32'
_cell_volume   594.78432396
_cell_formula_units_Z   4
loop_
 _symmetry_equiv_pos_site_id
 _symmetry_equiv_pos_as_xyz
  1  'x, y, z'
loop_
 _atom_site_type_symbol
 _atom_site_label
 _atom_site_symmetry_multiplicity
 _atom_site_fract_x
 _atom_site_fract_y
 _atom_site_fract_z
 _atom_site_occupancy
  Li  Li0  1  0.12953200  0.10053900  0.57962800  1
  Li  Li1  1  0.62953200  0.39946100  0.42037200  1
  Li  Li2  1  0.87046800  0.89946100  0.07962800  1
  Li  Li3  1  0.37046800  0.60053900  0.92037200  1
  Li  Li4  1  0.12953200  0.10053900  0.92037200  1
  Li  Li5  1  0.62953200  0.39946100  0.07962800  1
  Li  Li6  1  0.62122400  0.12793900  0.55401400  1
  Li  Li7  1  0.12122400  0.37206100  0.44598600  1
  Li  Li8  1  0.37877600  0.87206100  0.05401400  1
  Li  Li9  1  0.87877600  0.62793900  0.94598600  1
  Li  Li10  1  0.37877600  0.87206100  0.44598600  1
  Li  Li11  1  0.87877600  0.62793900  0.55401400  1
  Li  Li12  1  0.62122400  0.12793900  0.94598600  1
  Li  Li13  1  0.12122400  0.37206100  0.05401400  1
  Li  Li14  1  0.87046800  0.89946100  0.42037200  1
  Li  Li15  1  0.37046800  0.60053900  0.57962800  1
  U  U0  1  0.13116300  0.63712300  0.25000000  1
  U  U1  1  0.63116300  0.86287700  0.75000000  1
  U  U2  1  0.86883700  0.36287700  0.75000000  1
  U  U3  1  0.36883700  0.13712300  0.25000000  1
  F  F0  1  0.88959500  0.51817500  0.38411700  1
  F  F1  1  0.88959500  0.51817500  0.11588300  1
  F  F2  1  0.61040500  0.01817500  0.38411700  1
  F  F3  1  0.11040500  0.48182500  0.61588300  1
  F  F4  1  0.37420000  0.23802000  0.03148400  1
  F  F5  1  0.87420000  0.26198000  0.96851600  1
  F  F6  1  0.62580000  0.76198000  0.53148400  1
  F  F7  1  0.38959500  0.98182500  0.88411700  1
  F  F8  1  0.62580000  0.76198000  0.96851600  1
  F  F9  1  0.12580000  0.73802000  0.03148400  1
  F  F10  1  0.37420000  0.23802000  0.46851600  1
  F  F11  1  0.87420000  0.26198000  0.53148400  1
  F  F12  1  0.12186700  0.30226500  0.25000000  1
  F  F13  1  0.62186700  0.19773500  0.75000000  1
  F  F14  1  0.87813300  0.69773500  0.75000000  1
  F  F15  1  0.37813300  0.80226500  0.25000000  1
  F  F16  1  0.62456100  0.29797800  0.25000000  1
  F  F17  1  0.12456100  0.20202200  0.75000000  1
  F  F18  1  0.37543900  0.70202200  0.75000000  1
  F  F19  1  0.87543900  0.79797800  0.25000000  1
  F  F20  1  0.11040500  0.48182500  0.88411700  1
  F  F21  1  0.61040500  0.01817500  0.11588300  1
  F  F22  1  0.63780700  0.48393000  0.61065100  1
  F  F23  1  0.13780700  0.01607000  0.38934900  1
  F  F24  1  0.36219300  0.51607000  0.11065100  1
  F  F25  1  0.86219300  0.98393000  0.88934900  1
  F  F26  1  0.36219300  0.51607000  0.38934900  1
  F  F27  1  0.86219300  0.98393000  0.61065100  1
  F  F28  1  0.63780700  0.48393000  0.88934900  1
  F  F29  1  0.13780700  0.01607000  0.11065100  1
  F  F30  1  0.12580000  0.73802000  0.46851600  1
  F  F31  1  0.38959500  0.98182500  0.61588300  1
loop_
_geom_bond_atom_site_label_1
_geom_bond_atom_site_label_2
_geom_bond_distance
_geom_bond_site_symmetry_2
F0 Li1 1.970615 1_555
F0 Li11 2.039905 1_555
F0 Li7 2.091904 1_655
F0 U0 2.297132 1_655
F1 Li5 1.970615 1_555
F1 Li9 2.039905 1_554
F1 Li13 2.091904 1_655
F1 U0 2.297132 1_655
F2 Li14 1.970615 1_545
F2 Li6 2.039905 1_555
F2 Li10 2.091904 1_545
F2 U3 2.297132 1_555
F3 Li15 1.970615 1_555
F3 Li7 2.039905 1_555
F3 Li11 2.091904 1_455
F3 U2 2.297132 1_455
F4 Li13 2.014684 1_555
F4 Li12 2.018049 1_554
F4 Li5 2.256139 1_555
F4 Li4 2.285257 1_554
F4 U3 2.430987 1_555
F5 Li12 2.014684 1_555
F5 Li13 2.018049 1_656
F5 Li4 2.256139 1_655
F5 Li5 2.285257 1_556
F5 U2 2.430987 1_555
F6 Li11 2.014684 1_555
F6 Li10 2.018049 1_555
F6 Li15 2.256139 1_555
F6 Li14 2.285257 1_555
F6 U1 2.430987 1_555
F7 Li4 1.970615 1_565
F7 Li8 2.039905 1_556
F7 Li12 2.091904 1_565
F7 U1 2.297132 1_555
F8 Li9 2.014684 1_555
F8 Li8 2.018049 1_556
F8 Li3 2.256139 1_555
F8 Li2 2.285257 1_556
F8 U1 2.430987 1_555
F9 Li8 2.014684 1_555
F9 Li9 2.018049 1_454
F9 Li2 2.256139 1_455
F9 Li3 2.285257 1_554
F9 U0 2.430987 1_555
F10 Li7 2.014684 1_555
F10 Li6 2.018049 1_555
F10 Li1 2.256139 1_555
F10 Li0 2.285257 1_555
F10 U3 2.430987 1_555
F11 Li6 2.014684 1_555
F11 Li7 2.018049 1_655
F11 Li0 2.256139 1_655
F11 Li1 2.285257 1_555
F11 U2 2.430987 1_555
F12 Li7 2.103250 1_555
F12 Li13 2.103250 1_555
F12 U3 2.196940 1_555
F13 Li12 2.103250 1_555
F13 Li6 2.103250 1_555
F13 U2 2.196940 1_555
F14 Li9 2.103250 1_555
F14 Li11 2.103250 1_555
F14 U1 2.196940 1_555
F15 Li10 2.103250 1_555
F15 Li8 2.103250 1_555
F15 U0 2.196940 1_555
F16 Li1 2.000220 1_555
F16 Li5 2.000220 1_555
F16 U3 2.200140 1_555
F17 Li4 2.000220 1_555
F17 Li0 2.000220 1_555
F17 U2 2.200140 1_455
F18 Li3 2.000220 1_555
F18 Li15 2.000220 1_555
F18 U1 2.200140 1_555
F19 Li14 2.000220 1_555
F19 Li2 2.000220 1_555
F19 U0 2.200140 1_655
F20 Li3 1.970615 1_555
F20 Li13 2.039905 1_556
F20 Li9 2.091904 1_455
F20 U2 2.297132 1_455
F21 Li2 1.970615 1_545
F21 Li12 2.039905 1_554
F21 Li8 2.091904 1_545
F21 U3 2.297132 1_555
F22 Li15 1.982754 1_555
F22 Li11 2.098841 1_555
F22 Li1 2.103490 1_555
F22 U2 2.302338 1_555
F23 Li14 1.982754 1_445
F23 Li10 2.098841 1_545
F23 Li0 2.103490 1_555
F23 U3 2.302338 1_555
F24 Li5 1.982754 1_555
F24 Li13 2.098841 1_555
F24 Li3 2.103490 1_554
F24 U0 2.302338 1_555
F25 Li4 1.982754 1_665
F25 Li12 2.098841 1_565
F25 Li2 2.103490 1_556
F25 U1 2.302338 1_555
F26 Li1 1.982754 1_555
F26 Li7 2.098841 1_555
F26 Li15 2.103490 1_555
F26 U0 2.302338 1_555
F27 Li0 1.982754 1_665
F27 Li6 2.098841 1_565
F27 Li14 2.103490 1_555
F27 U1 2.302338 1_555
F28 Li3 1.982754 1_555
F28 Li9 2.098841 1_555
F28 Li5 2.103490 1_556
F28 U2 2.302338 1_555
F29 Li2 1.982754 1_445
F29 Li8 2.098841 1_545
F29 Li4 2.103490 1_554
F29 U3 2.302338 1_555
F30 Li10 2.014684 1_555
F30 Li11 2.018049 1_455
F30 Li14 2.256139 1_455
F30 Li15 2.285257 1_555
F30 U0 2.430987 1_555
F31 Li0 1.970615 1_565
F31 Li10 2.039905 1_555
F31 Li6 2.091904 1_565
F31 U1 2.297132 1_555
