# generated using pymatgen
data_CoW3
_symmetry_space_group_name_H-M   'P 1'
_cell_length_a   3.90735100
_cell_length_b   3.90735100
_cell_length_c   3.90735100
_cell_angle_alpha   90.00000000
_cell_angle_beta   90.00000000
_cell_angle_gamma   90.00000000
_symmetry_Int_Tables_number   1
_chemical_formula_structural   CoW3
_chemical_formula_sum   'Co1 W3'
_cell_volume   59.65505876
_cell_formula_units_Z   1
loop_
 _symmetry_equiv_pos_site_id
 _symmetry_equiv_pos_as_xyz
  1  'x, y, z'
loop_
 _atom_site_type_symbol
 _atom_site_label
 _atom_site_symmetry_multiplicity
 _atom_site_fract_x
 _atom_site_fract_y
 _atom_site_fract_z
 _atom_site_occupancy
  Co  Co0  1  0.00000000  0.00000000  0.00000000  1
  W  W0  1  0.00000000  0.50000000  0.50000000  1
  W  W1  1  0.50000000  0.00000000  0.50000000  1
  W  W2  1  0.50000000  0.50000000  0.00000000  1
loop_
_geom_bond_atom_site_label_1
_geom_bond_atom_site_label_2
_geom_bond_distance
_geom_bond_site_symmetry_2
Co0 W1 2.762914 1_454
Co0 W0 2.762914 1_545
Co0 W2 2.762914 1_455
Co0 W1 2.762914 1_555
Co0 W0 2.762914 1_554
Co0 W2 2.762914 1_445
Co0 W1 2.762914 1_554
Co0 W2 2.762914 1_555
Co0 W1 2.762914 1_455
Co0 W2 2.762914 1_545
Co0 W0 2.762914 1_544
Co0 W0 2.762914 1_555
W0 W2 2.762914 1_556
W0 W2 2.762914 1_456
W0 W2 2.762914 1_455
W0 W1 2.762914 1_555
W0 W1 2.762914 1_465
W0 W1 2.762914 1_565
W0 W2 2.762914 1_555
W0 W1 2.762914 1_455
W1 W2 2.762914 1_556
W1 W2 2.762914 1_546
W1 W2 2.762914 1_555
W1 W2 2.762914 1_545
