# generated using pymatgen
data_NaTbIrO4
_symmetry_space_group_name_H-M   'P 1'
_cell_length_a   3.26066100
_cell_length_b   9.64715808
_cell_length_c   9.40280281
_cell_angle_alpha   120.86344907
_cell_angle_beta   90.00000000
_cell_angle_gamma   90.00000000
_symmetry_Int_Tables_number   1
_chemical_formula_structural   NaTbIrO4
_chemical_formula_sum   'Na3 Tb3 Ir3 O12'
_cell_volume   253.89152511
_cell_formula_units_Z   3
loop_
 _symmetry_equiv_pos_site_id
 _symmetry_equiv_pos_as_xyz
  1  'x, y, z'
loop_
 _atom_site_type_symbol
 _atom_site_label
 _atom_site_symmetry_multiplicity
 _atom_site_fract_x
 _atom_site_fract_y
 _atom_site_fract_z
 _atom_site_occupancy
  Na  Na0  1  0.00000000  0.02093300  0.00000000  1
  Na  Na1  1  0.50000000  0.30117900  0.30104700  1
  Na  Na2  1  0.50000000  0.00013200  0.69895300  1
  Tb  Tb0  1  0.50000000  0.31472100  0.65699400  1
  Tb  Tb1  1  0.50000000  0.65772700  0.34300600  1
  Tb  Tb2  1  0.50000000  0.70303900  0.00000000  1
  Ir  Ir0  1  0.00000000  0.33236500  0.00000000  1
  Ir  Ir1  1  0.00000000  0.67343200  0.67637500  1
  Ir  Ir2  1  0.00000000  0.99705700  0.32362500  1
  O  O0  1  0.50000000  0.46189400  0.00000000  1
  O  O1  1  0.50000000  0.54621200  0.54617100  1
  O  O2  1  0.50000000  0.00004100  0.45382900  1
  O  O3  1  0.50000000  0.20220300  0.00000000  1
  O  O4  1  0.50000000  0.80715200  0.81986200  1
  O  O5  1  0.50000000  0.98729000  0.18013800  1
  O  O6  1  0.00000000  0.46359400  0.24984600  1
  O  O7  1  0.00000000  0.78419800  0.54374000  1
  O  O8  1  0.00000000  0.74377200  0.19502100  1
  O  O9  1  0.00000000  0.21374900  0.75015400  1
  O  O10  1  0.00000000  0.24045800  0.45626000  1
  O  O11  1  0.00000000  0.54875100  0.80497900  1
loop_
_geom_bond_atom_site_label_1
_geom_bond_atom_site_label_2
_geom_bond_distance
_geom_bond_site_symmetry_2
Na0 O3 2.390830 1_455
Na0 O3 2.390830 1_555
Na0 O4 2.489238 1_544
Na0 O4 2.489238 1_444
Na0 O5 2.489238 1_445
Na0 O5 2.489238 1_545
Na1 O1 2.304402 1_555
Na1 O10 2.451166 1_655
Na1 O10 2.451166 1_555
Na1 O6 2.473598 1_555
Na1 O6 2.473598 1_655
Na1 O3 2.480204 1_555
Na1 O5 2.632492 1_545
Na2 O2 2.304402 1_555
Na2 O7 2.451166 1_545
Na2 O7 2.451166 1_645
Na2 O9 2.473605 1_655
Na2 O9 2.473605 1_555
Na2 O3 2.480204 1_556
Na2 O4 2.632492 1_545
Ir0 O6 2.017498 1_555
Ir0 O9 2.017498 1_554
Ir0 O0 2.054129 1_455
Ir0 O0 2.054129 1_555
Ir0 O3 2.057849 1_555
Ir0 O3 2.057849 1_455
Ir1 O7 2.016064 1_555
Ir1 O1 2.030151 1_455
Ir1 O1 2.030151 1_555
Ir1 O4 2.087274 1_555
Ir1 O4 2.087274 1_455
Ir1 O11 2.097932 1_555
Ir2 O10 2.016064 1_565
Ir2 O2 2.030151 1_565
Ir2 O2 2.030151 1_465
Ir2 O5 2.087274 1_455
Ir2 O5 2.087274 1_555
Ir2 O8 2.097932 1_555
O0 Tb2 2.326364 1_555
O0 Tb1 2.778434 1_555
O0 Tb0 2.778434 1_554
O1 Tb1 2.629679 1_555
O1 Tb0 2.908743 1_555
O2 Tb0 2.629679 1_555
O2 Tb1 2.908743 1_545
O4 Tb2 2.371335 1_556
O5 Tb2 2.371335 1_555
O6 Tb1 2.291205 1_555
O6 Tb1 2.291205 1_455
O7 Tb1 2.312226 1_455
O7 Tb1 2.312226 1_555
O8 Tb2 2.331459 1_455
O8 Tb2 2.331459 1_555
O8 Tb1 2.543283 1_555
O8 Tb1 2.543283 1_455
O9 Tb0 2.291199 1_555
O9 Tb0 2.291199 1_455
O10 Tb0 2.312226 1_455
O10 Tb0 2.312226 1_555
O11 Tb2 2.331459 1_556
O11 Tb2 2.331459 1_456
O11 Tb0 2.543283 1_455
O11 Tb0 2.543283 1_555
