# generated using pymatgen
data_MgVPO5
_symmetry_space_group_name_H-M   'P 1'
_cell_length_a   5.30665900
_cell_length_b   5.45143155
_cell_length_c   7.04879895
_cell_angle_alpha   105.51309762
_cell_angle_beta   104.48203936
_cell_angle_gamma   101.23646009
_symmetry_Int_Tables_number   1
_chemical_formula_structural   MgVPO5
_chemical_formula_sum   'Mg2 V2 P2 O10'
_cell_volume   182.60163795
_cell_formula_units_Z   2
loop_
 _symmetry_equiv_pos_site_id
 _symmetry_equiv_pos_as_xyz
  1  'x, y, z'
loop_
 _atom_site_type_symbol
 _atom_site_label
 _atom_site_symmetry_multiplicity
 _atom_site_fract_x
 _atom_site_fract_y
 _atom_site_fract_z
 _atom_site_occupancy
  Mg  Mg0  1  0.78414900  0.63428500  0.23725100  1
  Mg  Mg1  1  0.17545300  0.32550800  0.70724700  1
  V  V0  1  0.50033500  0.00405500  0.49435200  1
  V  V1  1  0.50206200  0.99688000  0.99310600  1
  P  P0  1  0.17103800  0.35379900  0.25182800  1
  P  P1  1  0.83783900  0.65930100  0.73869400  1
  O  O0  1  0.39123800  0.34228000  0.14388300  1
  O  O1  1  0.18837100  0.18036300  0.39451600  1
  O  O2  1  0.63096900  0.66467200  0.85923300  1
  O  O3  1  0.82365900  0.85098200  0.61120000  1
  O  O4  1  0.78986800  0.37093400  0.59027500  1
  O  O5  1  0.13035200  0.70971800  0.88493600  1
  O  O6  1  0.19769700  0.64410800  0.38335900  1
  O  O7  1  0.88210000  0.27843400  0.09326100  1
  O  O8  1  0.40964200  0.09861000  0.74819400  1
  O  O9  1  0.59850600  0.90786900  0.24316500  1
loop_
_geom_bond_atom_site_label_1
_geom_bond_atom_site_label_2
_geom_bond_distance
_geom_bond_site_symmetry_2
Mg0 O9 1.938163 1_555
Mg0 O7 2.160359 1_555
Mg0 O6 2.161921 1_655
Mg0 O0 2.185015 1_555
Mg0 O3 2.519684 1_555
Mg0 O2 2.644509 1_554
Mg1 O8 1.941229 1_555
Mg1 O4 2.095432 1_455
Mg1 O1 2.157259 1_555
Mg1 O5 2.225971 1_555
Mg1 O2 2.512543 1_555
Mg1 O3 2.680346 1_445
O0 P0 1.547924 1_555
O0 V1 2.166684 1_544
O1 P0 1.552504 1_555
O1 V0 2.135147 1_555
O2 P1 1.547140 1_555
O2 V1 2.128303 1_555
O3 P1 1.550587 1_555
O3 V0 2.130119 1_565
O4 P1 1.568958 1_555
O4 V0 2.092221 1_555
O5 P1 1.558704 1_455
O5 V1 2.080569 1_555
O6 P0 1.564124 1_555
O6 V0 2.088996 1_565
O7 P0 1.555882 1_655
O7 V1 2.103183 1_544
O8 V1 1.929501 1_545
O8 V0 1.932066 1_555
O9 V1 1.925437 1_554
O9 V0 1.937119 1_565
