# generated using pymatgen
data_PrZn3
_symmetry_space_group_name_H-M   'P 1'
_cell_length_a   4.52779674
_cell_length_b   6.74203025
_cell_length_c   10.26978623
_cell_angle_alpha   90.00017735
_cell_angle_beta   90.00000350
_cell_angle_gamma   90.00000030
_symmetry_Int_Tables_number   1
_chemical_formula_structural   PrZn3
_chemical_formula_sum   'Pr4 Zn12'
_cell_volume   313.50106671
_cell_formula_units_Z   4
loop_
 _symmetry_equiv_pos_site_id
 _symmetry_equiv_pos_as_xyz
  1  'x, y, z'
loop_
 _atom_site_type_symbol
 _atom_site_label
 _atom_site_symmetry_multiplicity
 _atom_site_fract_x
 _atom_site_fract_y
 _atom_site_fract_z
 _atom_site_occupancy
  Pr  Pr0  1  0.25000005  0.28056903  0.65452534  1
  Pr  Pr1  1  0.24999997  0.78057188  0.84547748  1
  Pr  Pr2  1  0.75000001  0.71946754  0.34551814  1
  Pr  Pr3  1  0.74999998  0.21946728  0.15447903  1
  Zn  Zn0  1  0.24999993  0.53468237  0.10903006  1
  Zn  Zn1  1  0.25000000  0.03468301  0.39097098  1
  Zn  Zn2  1  0.74999998  0.46529765  0.89089093  1
  Zn  Zn3  1  0.75000008  0.96529667  0.60910686  1
  Zn  Zn4  1  0.24999995  0.90854810  0.14751839  1
  Zn  Zn5  1  0.24999994  0.40854875  0.35248580  1
  Zn  Zn6  1  0.75000003  0.09145028  0.85242044  1
  Zn  Zn7  1  0.75000010  0.59145007  0.64757693  1
  Zn  Zn8  1  0.24999993  0.22696076  0.95280818  1
  Zn  Zn9  1  0.24999998  0.72695890  0.54719267  1
  Zn  Zn10  1  0.74999998  0.77302393  0.04714284  1
  Zn  Zn11  1  0.75000010  0.27302379  0.45285692  1
loop_
_geom_bond_atom_site_label_1
_geom_bond_atom_site_label_2
_geom_bond_distance
_geom_bond_site_symmetry_2
Pr0 Zn11 3.068752 1_455
Pr0 Zn11 3.068753 1_555
Pr0 Zn8 3.084550 1_555
Pr0 Zn7 3.086003 1_455
Pr0 Zn7 3.086003 1_555
Pr0 Zn3 3.140202 1_445
Pr0 Zn3 3.140202 1_545
Pr0 Zn1 3.173975 1_555
Pr0 Zn9 3.205087 1_555
Pr0 Zn5 3.219656 1_555
Pr0 Zn6 3.298696 1_555
Pr0 Zn6 3.298696 1_455
Pr0 Zn2 3.545242 1_555
Pr0 Zn2 3.545242 1_455
Pr1 Zn10 3.068732 1_556
Pr1 Zn10 3.068732 1_456
Pr1 Zn9 3.084572 1_555
Pr1 Zn6 3.085989 1_465
Pr1 Zn6 3.085990 1_565
Pr1 Zn2 3.140204 1_455
Pr1 Zn2 3.140205 1_555
Pr1 Zn0 3.173980 1_556
Pr1 Zn8 3.205068 1_565
Pr1 Zn4 3.219658 1_556
Pr1 Zn7 3.298733 1_455
Pr1 Zn7 3.298734 1_555
Pr1 Zn3 3.545273 1_455
Pr1 Zn3 3.545274 1_555
Pr2 Zn9 3.068789 1_655
Pr2 Zn9 3.068789 1_555
Pr2 Zn10 3.085452 1_555
Pr2 Zn5 3.086181 1_655
Pr2 Zn5 3.086181 1_555
Pr2 Zn1 3.139994 1_665
Pr2 Zn1 3.139995 1_565
Pr2 Zn3 3.174075 1_555
Pr2 Zn11 3.205450 1_555
Pr2 Zn7 3.219915 1_555
Pr2 Zn4 3.299259 1_655
Pr2 Zn4 3.299259 1_555
Pr2 Zn0 3.546237 1_655
Pr2 Zn0 3.546237 1_555
Pr3 Zn8 3.068764 1_654
Pr3 Zn8 3.068764 1_554
Pr3 Zn11 3.085477 1_555
Pr3 Zn4 3.086180 1_645
Pr3 Zn4 3.086181 1_545
Pr3 Zn0 3.139989 1_655
Pr3 Zn0 3.139989 1_555
Pr3 Zn2 3.174083 1_554
Pr3 Zn10 3.205432 1_545
Pr3 Zn6 3.219907 1_554
Pr3 Zn5 3.299301 1_655
Pr3 Zn5 3.299301 1_555
Pr3 Zn1 3.546268 1_655
Pr3 Zn1 3.546268 1_555
Zn0 Zn4 2.551416 1_555
Zn0 Zn8 2.622635 1_554
Zn0 Zn5 2.640905 1_555
Zn0 Zn10 2.848041 1_455
Zn0 Zn10 2.848041 1_555
Zn1 Zn5 2.551414 1_555
Zn1 Zn9 2.622655 1_545
Zn1 Zn4 2.640872 1_545
Zn1 Zn11 2.848032 1_455
Zn1 Zn11 2.848033 1_555
Zn2 Zn6 2.551266 1_555
Zn2 Zn7 2.639568 1_555
Zn2 Zn8 2.848092 1_655
Zn2 Zn8 2.848092 1_555
Zn3 Zn7 2.551262 1_555
Zn3 Zn6 2.639561 1_565
Zn3 Zn9 2.848086 1_655
Zn3 Zn9 2.848086 1_555
Zn4 Zn8 2.933783 1_564
Zn5 Zn9 2.933738 1_555
Zn6 Zn8 2.650057 1_655
Zn6 Zn8 2.650058 1_555
Zn7 Zn9 2.650041 1_655
Zn7 Zn9 2.650042 1_555
Zn10 Zn2 2.622849 1_554
Zn10 Zn4 2.650040 1_655
Zn10 Zn4 2.650041 1_555
Zn10 Zn6 2.933936 1_564
Zn11 Zn3 2.622849 1_545
Zn11 Zn5 2.650026 1_655
Zn11 Zn5 2.650027 1_555
Zn11 Zn7 2.933910 1_555
