# generated using pymatgen
data_Sr2CoN2
_symmetry_space_group_name_H-M   'P 1'
_cell_length_a   8.43239345
_cell_length_b   16.58662216
_cell_length_c   11.56932137
_cell_angle_alpha   90.00000000
_cell_angle_beta   100.29712961
_cell_angle_gamma   90.00000000
_symmetry_Int_Tables_number   1
_chemical_formula_structural   Sr2CoN2
_chemical_formula_sum   'Sr32 Co16 N32'
_cell_volume   1592.08044581
_cell_formula_units_Z   16
loop_
 _symmetry_equiv_pos_site_id
 _symmetry_equiv_pos_as_xyz
  1  'x, y, z'
loop_
 _atom_site_type_symbol
 _atom_site_label
 _atom_site_symmetry_multiplicity
 _atom_site_fract_x
 _atom_site_fract_y
 _atom_site_fract_z
 _atom_site_occupancy
  Sr  Sr0  1  0.16140766  0.75000000  0.74044915  1
  Sr  Sr1  1  0.83859234  0.25000000  0.25955085  1
  Sr  Sr2  1  0.57543068  0.75000000  0.15255891  1
  Sr  Sr3  1  0.42456932  0.25000000  0.84744109  1
  Sr  Sr4  1  0.94965350  0.58947172  0.75750624  1
  Sr  Sr5  1  0.05034650  0.08947172  0.24249376  1
  Sr  Sr6  1  0.05034650  0.41052828  0.24249376  1
  Sr  Sr7  1  0.94965350  0.91052828  0.75750624  1
  Sr  Sr8  1  0.64240369  0.39221814  0.40775259  1
  Sr  Sr9  1  0.35759631  0.89221814  0.59224741  1
  Sr  Sr10  1  0.35759631  0.60778186  0.59224741  1
  Sr  Sr11  1  0.64240369  0.10778186  0.40775259  1
  Sr  Sr12  1  0.77957672  0.25000000  0.66964642  1
  Sr  Sr13  1  0.22042328  0.75000000  0.33035358  1
  Sr  Sr14  1  0.31670671  0.56023813  0.04423117  1
  Sr  Sr15  1  0.68329329  0.06023813  0.95576883  1
  Sr  Sr16  1  0.68329329  0.43976187  0.95576883  1
  Sr  Sr17  1  0.31670671  0.93976187  0.04423117  1
  Sr  Sr18  1  -0.00000000  0.50000000  0.50000000  1
  Sr  Sr19  1  -0.00000000  -0.00000000  0.50000000  1
  Sr  Sr20  1  0.40914108  0.35114500  0.12052474  1
  Sr  Sr21  1  0.59085892  0.85114500  0.87947526  1
  Sr  Sr22  1  0.59085892  0.64885500  0.87947526  1
  Sr  Sr23  1  0.40914108  0.14885500  0.12052474  1
  Sr  Sr24  1  0.08663524  0.36705112  0.85243821  1
  Sr  Sr25  1  0.91336476  0.86705112  0.14756179  1
  Sr  Sr26  1  0.91336476  0.63294888  0.14756179  1
  Sr  Sr27  1  0.08663524  0.13294888  0.85243821  1
  Sr  Sr28  1  0.69454225  0.63328716  0.42632721  1
  Sr  Sr29  1  0.30545775  0.13328716  0.57367279  1
  Sr  Sr30  1  0.30545775  0.36671284  0.57367279  1
  Sr  Sr31  1  0.69454225  0.86671284  0.42632721  1
  Co  Co0  1  0.91961994  0.75000000  0.92487017  1
  Co  Co1  1  0.08038006  0.25000000  0.07512983  1
  Co  Co2  1  0.64466642  0.51492328  0.19998702  1
  Co  Co3  1  0.35533358  0.01492328  0.80001298  1
  Co  Co4  1  0.35533358  0.48507672  0.80001298  1
  Co  Co5  1  0.64466642  0.98507672  0.19998702  1
  Co  Co6  1  0.02542114  0.25000000  0.51742804  1
  Co  Co7  1  0.97457886  0.75000000  0.48257196  1
  Co  Co8  1  0.65626310  0.46379997  0.68272440  1
  Co  Co9  1  0.34373690  0.96379997  0.31727560  1
  Co  Co10  1  0.34373690  0.53620003  0.31727560  1
  Co  Co11  1  0.65626310  0.03620003  0.68272440  1
  Co  Co12  1  0.64132219  0.75000000  0.67468213  1
  Co  Co13  1  0.35867781  0.25000000  0.32531787  1
  Co  Co14  1  0.80917551  0.25000000  0.99269680  1
  Co  Co15  1  0.19082449  0.75000000  0.00730320  1
  N  N0  1  0.55911119  0.25000000  0.30415099  1
  N  N1  1  0.44088881  0.75000000  0.69584901  1
  N  N2  1  0.81710071  0.75000000  0.77735859  1
  N  N3  1  0.18289929  0.25000000  0.22264141  1
  N  N4  1  0.46228829  0.48392712  0.23767592  1
  N  N5  1  0.53771171  0.98392712  0.76232408  1
  N  N6  1  0.53771171  0.51607288  0.76232408  1
  N  N7  1  0.46228829  0.01607288  0.23767592  1
  N  N8  1  0.37159881  0.42079728  0.92497887  1
  N  N9  1  0.62840119  0.92079728  0.07502113  1
  N  N10  1  0.62840119  0.57920272  0.07502113  1
  N  N11  1  0.37159881  0.07920272  0.92497887  1
  N  N12  1  0.82383272  0.50688645  0.30434101  1
  N  N13  1  0.17616728  0.00688645  0.69565899  1
  N  N14  1  0.17616728  0.49311355  0.69565899  1
  N  N15  1  0.82383272  0.99311355  0.30434101  1
  N  N16  1  0.61943307  0.37193752  0.61838637  1
  N  N17  1  0.38056693  0.87193752  0.38161363  1
  N  N18  1  0.38056693  0.62806248  0.38161363  1
  N  N19  1  0.61943307  0.12806248  0.61838637  1
  N  N20  1  0.07894485  0.66206307  0.96250010  1
  N  N21  1  0.92105515  0.16206307  0.03749990  1
  N  N22  1  0.92105515  0.33793693  0.03749990  1
  N  N23  1  0.07894485  0.83793693  0.96250010  1
  N  N24  1  0.76585175  0.75000000  0.01953253  1
  N  N25  1  0.23414825  0.25000000  0.98046747  1
  N  N26  1  0.99089058  0.34060294  0.43946509  1
  N  N27  1  0.00910942  0.84060294  0.56053491  1
  N  N28  1  0.00910942  0.65939706  0.56053491  1
  N  N29  1  0.99089058  0.15939706  0.43946509  1
  N  N30  1  0.85961967  0.75000000  0.33070280  1
  N  N31  1  0.14038033  0.25000000  0.66929720  1
loop_
_geom_bond_atom_site_label_1
_geom_bond_atom_site_label_2
_geom_bond_distance
_geom_bond_site_symmetry_2
Co0 N2 1.769860 1_555
Co0 N24 1.840748 1_556
Co0 N20 1.978090 1_655
Co0 N23 1.978090 1_655
Co1 N3 1.769860 1_555
Co1 N25 1.840748 1_554
Co1 N21 1.978090 1_455
Co1 N22 1.978090 1_455
Co2 N4 1.749076 1_555
Co2 N12 1.762324 1_555
Co2 N10 1.781828 1_555
Co3 N5 1.749076 1_545
Co3 N13 1.762324 1_555
Co3 N11 1.781828 1_555
Co4 N6 1.749076 1_555
Co4 N14 1.762324 1_555
Co4 N8 1.781828 1_555
Co5 N7 1.749076 1_565
Co5 N15 1.762324 1_555
Co5 N9 1.781828 1_555
Co6 N29 1.750101 1_455
Co6 N26 1.750101 1_455
Co6 N31 1.848761 1_555
Co7 N28 1.750101 1_655
Co7 N27 1.750101 1_655
Co7 N30 1.848761 1_555
Co8 N16 1.699848 1_555
Co8 N6 1.711226 1_555
Co8 Sr4 3.232479 1_555
Co9 N17 1.699848 1_555
Co9 N7 1.711226 1_565
Co9 Sr5 3.232479 1_565
Co10 N18 1.699848 1_555
Co10 N4 1.711226 1_555
Co10 Sr6 3.232479 1_555
Co11 N19 1.699848 1_555
Co11 N5 1.711226 1_545
Co11 Sr7 3.232479 1_545
Co12 N2 1.725874 1_555
Co12 N1 1.750568 1_555
Co13 N3 1.725874 1_555
Co13 N0 1.750568 1_555
Co14 N21 1.763896 1_556
Co14 N22 1.763896 1_556
Co14 Sr3 3.375453 1_555
Co15 N23 1.763896 1_554
Co15 N20 1.763896 1_554
Co15 Sr2 3.375453 1_555
N0 Sr1 2.501000 1_555
N0 Sr11 2.682066 1_555
N0 Sr8 2.682066 1_555
N0 Sr20 2.822498 1_555
N0 Sr23 2.822498 1_555
N1 Sr0 2.501000 1_555
N1 Sr9 2.682066 1_555
N1 Sr10 2.682066 1_555
N1 Sr21 2.822498 1_555
N1 Sr22 2.822498 1_555
N2 Sr4 2.912632 1_555
N2 Sr7 2.912632 1_555
N2 Sr21 2.942039 1_555
N2 Sr22 2.942039 1_555
N3 Sr5 2.912632 1_555
N3 Sr6 2.912632 1_555
N3 Sr20 2.942039 1_555
N3 Sr23 2.942039 1_555
N4 Sr20 2.582883 1_555
N4 Sr14 2.671263 1_555
N4 Sr8 2.724695 1_555
N5 Sr21 2.582883 1_555
N5 Sr15 2.671263 1_565
N5 Sr9 2.724695 1_555
N6 Sr22 2.582883 1_555
N6 Sr16 2.671263 1_555
N6 Sr10 2.724695 1_555
N7 Sr23 2.582883 1_555
N7 Sr17 2.671263 1_545
N7 Sr11 2.724695 1_555
N8 Sr20 2.509389 1_556
N8 Sr24 2.559714 1_555
N8 Sr16 2.607535 1_555
N8 Sr14 2.774046 1_556
N8 Sr3 3.028710 1_555
N9 Sr21 2.509389 1_554
N9 Sr25 2.559714 1_555
N9 Sr17 2.607535 1_555
N9 Sr15 2.774046 1_564
N9 Sr2 3.028710 1_555
N10 Sr22 2.509389 1_554
N10 Sr26 2.559714 1_555
N10 Sr14 2.607535 1_555
N10 Sr16 2.774046 1_554
N10 Sr2 3.028710 1_555
N11 Sr23 2.509389 1_556
N11 Sr27 2.559714 1_555
N11 Sr15 2.607535 1_555
N11 Sr17 2.774046 1_546
N11 Sr3 3.028710 1_555
N12 Sr18 2.478244 1_655
N12 Sr6 2.683899 1_655
N12 Sr8 2.836146 1_555
N12 Sr28 2.850613 1_555
N12 Sr26 2.953234 1_555
N13 Sr19 2.478244 1_555
N13 Sr7 2.683899 1_445
N13 Sr9 2.836146 1_545
N13 Sr29 2.850613 1_555
N13 Sr27 2.953234 1_555
N14 Sr18 2.478244 1_555
N14 Sr4 2.683899 1_455
N14 Sr10 2.836146 1_555
N14 Sr30 2.850613 1_555
N14 Sr24 2.953234 1_555
N15 Sr19 2.478244 1_665
N15 Sr5 2.683899 1_665
N15 Sr11 2.836146 1_565
N15 Sr31 2.850613 1_555
N15 Sr25 2.953234 1_555
N16 Sr12 2.445321 1_555
N16 Sr8 2.501571 1_555
N16 Sr30 2.606735 1_555
N17 Sr13 2.445321 1_555
N17 Sr9 2.501571 1_555
N17 Sr31 2.606735 1_555
N18 Sr13 2.445321 1_555
N18 Sr10 2.501571 1_555
N18 Sr28 2.606735 1_555
N19 Sr12 2.445321 1_555
N19 Sr11 2.501571 1_555
N19 Sr29 2.606735 1_555
N20 Sr14 2.662419 1_556
N20 Sr4 2.708991 1_455
N20 Sr26 2.799187 1_456
N21 Sr15 2.662419 1_554
N21 Sr5 2.708991 1_655
N21 Sr27 2.799187 1_654
N22 Sr16 2.662419 1_554
N22 Sr6 2.708991 1_655
N22 Sr24 2.799187 1_654
N23 Sr17 2.662419 1_556
N23 Sr7 2.708991 1_455
N23 Sr25 2.799187 1_456
N24 Sr2 2.414615 1_555
N24 Sr21 2.600524 1_554
N24 Sr22 2.600524 1_554
N24 Sr26 2.617615 1_555
N24 Sr25 2.617615 1_555
N25 Sr3 2.414615 1_555
N25 Sr20 2.600524 1_556
N25 Sr23 2.600524 1_556
N25 Sr24 2.617615 1_555
N25 Sr27 2.617615 1_555
N26 Sr6 2.682917 1_655
N26 Sr1 2.698998 1_555
N26 Sr18 2.732608 1_655
N26 Sr30 2.856926 1_655
N26 Sr8 3.019496 1_555
N27 Sr7 2.682917 1_455
N27 Sr0 2.698998 1_555
N27 Sr19 2.732608 1_565
N27 Sr31 2.856926 1_455
N27 Sr9 3.019496 1_555
N28 Sr4 2.682917 1_455
N28 Sr0 2.698998 1_555
N28 Sr18 2.732608 1_555
N28 Sr28 2.856926 1_455
N28 Sr10 3.019496 1_555
N29 Sr5 2.682917 1_655
N29 Sr1 2.698998 1_555
N29 Sr19 2.732608 1_655
N29 Sr29 2.856926 1_655
N29 Sr11 3.019496 1_555
N30 Sr28 2.731251 1_555
N30 Sr31 2.731251 1_555
N30 Sr2 2.867878 1_555
N30 Sr26 2.967731 1_555
N30 Sr25 2.967731 1_555
N30 Sr13 3.043163 1_655
N31 Sr29 2.731251 1_555
N31 Sr30 2.731251 1_555
N31 Sr3 2.867878 1_555
N31 Sr24 2.967731 1_555
N31 Sr27 2.967731 1_555
N31 Sr12 3.043163 1_455
