# generated using pymatgen
data_SrLa3MnO12
_symmetry_space_group_name_H-M   'P 1'
_cell_length_a   9.30508716
_cell_length_b   9.30508716
_cell_length_c   9.30508739
_cell_angle_alpha   33.53992881
_cell_angle_beta   33.53992881
_cell_angle_gamma   33.53992918
_symmetry_Int_Tables_number   1
_chemical_formula_structural   SrLa3MnO12
_chemical_formula_sum   'Sr1 La3 Mn1 O12'
_cell_volume   219.07090233
_cell_formula_units_Z   1
loop_
 _symmetry_equiv_pos_site_id
 _symmetry_equiv_pos_as_xyz
  1  'x, y, z'
loop_
 _atom_site_type_symbol
 _atom_site_label
 _atom_site_symmetry_multiplicity
 _atom_site_fract_x
 _atom_site_fract_y
 _atom_site_fract_z
 _atom_site_occupancy
  Sr  Sr0  1  0.62826300  0.62826300  0.62826300  1
  La  La0  1  0.12379700  0.12379700  0.12379700  1
  La  La1  1  0.37756600  0.37756600  0.37756600  1
  La  La2  1  0.87240000  0.87240000  0.87240000  1
  Mn  Mn0  1  0.25346000  0.25346000  0.25346000  1
  O  O0  1  0.13073700  0.62243300  0.12027500  1
  O  O1  1  0.64089600  0.11339300  0.61160700  1
  O  O2  1  0.12027500  0.13073700  0.62243300  1
  O  O3  1  0.61160700  0.64089600  0.11339300  1
  O  O4  1  0.62243300  0.12027500  0.13073700  1
  O  O5  1  0.11339300  0.61160700  0.64089600  1
  O  O6  1  0.39375600  0.33761200  0.88757200  1
  O  O7  1  0.88751700  0.86618300  0.38253500  1
  O  O8  1  0.88757200  0.39375600  0.33761200  1
  O  O9  1  0.38253500  0.88751700  0.86618300  1
  O  O10  1  0.33761200  0.88757200  0.39375600  1
  O  O11  1  0.86618300  0.38253500  0.88751700  1
loop_
_geom_bond_atom_site_label_1
_geom_bond_atom_site_label_2
_geom_bond_distance
_geom_bond_site_symmetry_2
La0 O7 2.591807 1_445
La0 O11 2.591807 1_454
La0 O9 2.591807 1_544
La0 O3 2.606912 1_545
La0 O1 2.606912 1_455
La0 O5 2.606912 1_554
La0 O6 2.633755 1_554
La0 O8 2.633755 1_455
La0 O10 2.633755 1_545
La0 O3 2.764139 1_455
La0 O5 2.764139 1_545
La0 O1 2.764139 1_554
La1 O3 2.592296 1_555
La1 O1 2.592296 1_555
La1 O5 2.592296 1_555
La1 O7 2.627761 1_455
La1 O11 2.627761 1_554
La1 O9 2.627761 1_545
La1 O7 2.742306 1_545
La1 O9 2.742306 1_554
La1 O11 2.742306 1_455
La1 O2 2.747295 1_555
La1 O4 2.747295 1_555
La1 O0 2.747295 1_555
La2 O6 2.535015 1_565
La2 O10 2.535015 1_655
La2 O8 2.535015 1_556
La2 O3 2.673590 1_556
La2 O5 2.673590 1_655
La2 O1 2.673590 1_565
La2 O2 2.736300 1_665
La2 O0 2.736300 1_656
La2 O4 2.736300 1_566
La2 O6 2.836384 1_655
La2 O8 2.836384 1_565
La2 O10 2.836384 1_556
Mn0 O0 1.832502 1_555
Mn0 O4 1.832502 1_555
Mn0 O2 1.832502 1_555
Mn0 O10 1.938957 1_545
Mn0 O8 1.938957 1_455
Mn0 O6 1.938957 1_554
O0 Sr0 2.658588 1_554
O0 Sr0 2.714726 1_455
O2 Sr0 2.658588 1_455
O2 Sr0 2.714726 1_545
O4 Sr0 2.658588 1_545
O4 Sr0 2.714726 1_554
O6 Sr0 2.842635 1_555
O7 Sr0 2.686697 1_555
O8 Sr0 2.842635 1_555
O9 Sr0 2.686697 1_555
O10 Sr0 2.842635 1_555
O11 Sr0 2.686697 1_555
