# generated using pymatgen
data_CoS3N3O2
_symmetry_space_group_name_H-M   'P 1'
_cell_length_a   15.60667700
_cell_length_b   6.36794700
_cell_length_c   7.57317343
_cell_angle_alpha   76.70725749
_cell_angle_beta   90.00000000
_cell_angle_gamma   90.00000000
_symmetry_Int_Tables_number   1
_chemical_formula_structural   CoS3N3O2
_chemical_formula_sum   'Co4 S12 N12 O8'
_cell_volume   732.47609733
_cell_formula_units_Z   4
loop_
 _symmetry_equiv_pos_site_id
 _symmetry_equiv_pos_as_xyz
  1  'x, y, z'
loop_
 _atom_site_type_symbol
 _atom_site_label
 _atom_site_symmetry_multiplicity
 _atom_site_fract_x
 _atom_site_fract_y
 _atom_site_fract_z
 _atom_site_occupancy
  Co  Co0  1  0.11854100  0.84699700  0.05274300  1
  Co  Co1  1  0.61854100  0.15300300  0.44725700  1
  Co  Co2  1  0.88145900  0.15300300  0.94725700  1
  Co  Co3  1  0.38145900  0.84699700  0.55274300  1
  S  S0  1  0.29511600  0.16700600  0.98674200  1
  S  S1  1  0.79511600  0.83299400  0.51325800  1
  S  S2  1  0.70488400  0.83299400  0.01325800  1
  S  S3  1  0.20488400  0.16700600  0.48674200  1
  S  S4  1  0.16558400  0.19176100  0.98204400  1
  S  S5  1  0.66558400  0.80823900  0.51795600  1
  S  S6  1  0.83441600  0.80823900  0.01795600  1
  S  S7  1  0.33441600  0.19176100  0.48204400  1
  S  S8  1  0.25277600  0.72274800  0.07866700  1
  S  S9  1  0.75277600  0.27725200  0.42133300  1
  S  S10  1  0.74722400  0.27725200  0.92133300  1
  S  S11  1  0.24722400  0.72274800  0.57866700  1
  N  N0  1  0.06536700  0.78766000  0.24487100  1
  N  N1  1  0.56536700  0.21234000  0.25512900  1
  N  N2  1  0.93463300  0.21234000  0.75512900  1
  N  N3  1  0.43463300  0.78766000  0.74487100  1
  N  N4  1  0.06895600  0.76907600  0.88754200  1
  N  N5  1  0.56895600  0.23092400  0.61245800  1
  N  N6  1  0.93104400  0.23092400  0.11245800  1
  N  N7  1  0.43104400  0.76907600  0.38754200  1
  N  N8  1  0.32078800  0.92112500  0.03717300  1
  N  N9  1  0.82078800  0.07887500  0.46282700  1
  N  N10  1  0.67921200  0.07887500  0.96282700  1
  N  N11  1  0.17921200  0.92112500  0.53717300  1
  O  O0  1  0.01625600  0.72614800  0.36264600  1
  O  O1  1  0.51625600  0.27385200  0.13735400  1
  O  O2  1  0.98374400  0.27385200  0.63735400  1
  O  O3  1  0.48374400  0.72614800  0.86264600  1
  O  O4  1  0.97766700  0.31300900  0.19838000  1
  O  O5  1  0.47766700  0.68699100  0.30162000  1
  O  O6  1  0.02233300  0.68699100  0.80162000  1
  O  O7  1  0.52233300  0.31300900  0.69838000  1
loop_
_geom_bond_atom_site_label_1
_geom_bond_atom_site_label_2
_geom_bond_distance
_geom_bond_site_symmetry_2
Co0 N0 1.641864 1_555
Co0 N4 1.641883 1_554
Co0 S8 2.232038 1_555
Co0 S4 2.259448 1_564
Co1 N1 1.641864 1_555
Co1 N5 1.641883 1_555
Co1 S9 2.232038 1_555
Co1 S5 2.259448 1_545
Co2 N2 1.641864 1_555
Co2 N6 1.641883 1_556
Co2 S10 2.232038 1_555
Co2 S6 2.259448 1_546
Co3 N3 1.641864 1_555
Co3 N7 1.641883 1_555
Co3 S11 2.232038 1_555
Co3 S7 2.259448 1_565
S0 S4 2.027377 1_555
S1 S5 2.027377 1_555
S2 S6 2.027377 1_555
S3 S7 2.027377 1_555
N0 O0 1.172933 1_555
N1 O1 1.172933 1_555
N2 O2 1.172933 1_555
N3 O3 1.172933 1_555
N4 O6 1.175797 1_555
N5 O7 1.175797 1_555
N6 O4 1.175797 1_555
N7 O5 1.175797 1_555
N8 S0 1.575752 1_564
N8 S8 1.624398 1_555
N9 S1 1.575752 1_545
N9 S9 1.624398 1_555
N10 S2 1.575752 1_546
N10 S10 1.624398 1_555
N11 S3 1.575752 1_565
N11 S11 1.624398 1_555
