# generated using pymatgen
data_U2Si7Ni2
_symmetry_space_group_name_H-M   'P 1'
_cell_length_a   10.84128619
_cell_length_b   10.84128619
_cell_length_c   3.97260800
_cell_angle_alpha   90.00000000
_cell_angle_beta   90.00000000
_cell_angle_gamma   158.49343129
_symmetry_Int_Tables_number   1
_chemical_formula_structural   U2Si7Ni2
_chemical_formula_sum   'U2 Si7 Ni2'
_cell_volume   171.17452920
_cell_formula_units_Z   1
loop_
 _symmetry_equiv_pos_site_id
 _symmetry_equiv_pos_as_xyz
  1  'x, y, z'
loop_
 _atom_site_type_symbol
 _atom_site_label
 _atom_site_symmetry_multiplicity
 _atom_site_fract_x
 _atom_site_fract_y
 _atom_site_fract_z
 _atom_site_occupancy
  U  U0  1  0.16575800  0.83424200  0.00000000  1
  U  U1  1  0.82854600  0.17145400  0.00000000  1
  Si  Si0  1  0.05710400  0.94289600  0.50000000  1
  Si  Si1  1  0.93783100  0.06216900  0.50000000  1
  Si  Si2  1  0.43769500  0.56230500  0.00000000  1
  Si  Si3  1  0.55555700  0.44444300  0.00000000  1
  Si  Si4  1  0.72682600  0.27317400  0.50000000  1
  Si  Si5  1  0.28083200  0.71916800  0.50000000  1
  Si  Si6  1  0.62043800  0.37956200  0.50000000  1
  Ni  Ni0  1  0.00283400  0.99716600  0.00000000  1
  Ni  Ni1  1  0.38657700  0.61342300  0.50000000  1
loop_
_geom_bond_atom_site_label_1
_geom_bond_atom_site_label_2
_geom_bond_distance
_geom_bond_site_symmetry_2
Si0 Si6 2.431410 1_565
Si0 Si6 2.431410 1_455
Si0 Si1 2.540732 1_465
Si0 U0 3.049991 1_555
Si0 U0 3.049991 1_556
Si1 U1 3.060203 1_556
Si1 U1 3.060203 1_555
Si2 Si3 2.510675 1_555
Si2 U1 3.081812 1_455
Si2 U1 3.081812 1_565
Si3 Si6 2.419826 1_554
Si3 Si6 2.419826 1_555
Si3 U0 3.098754 1_545
Si3 U0 3.098754 1_655
Si4 Si6 2.266258 1_555
Si4 Si5 2.327033 1_655
Si4 Si5 2.327033 1_545
Si4 U1 2.939476 1_556
Si4 U1 2.939476 1_555
Si4 U0 3.119173 1_655
Si4 U0 3.119173 1_656
Si4 U0 3.119173 1_546
Si4 U0 3.119173 1_545
Si5 U1 3.011655 1_456
Si5 U1 3.011655 1_455
Si5 U1 3.011655 1_565
Si5 U1 3.011655 1_566
Si5 U0 3.155029 1_556
Si5 U0 3.155029 1_555
Si6 U0 2.994829 1_545
Si6 U0 2.994829 1_655
Si6 U0 2.994829 1_656
Si6 U0 2.994829 1_546
Ni0 Si0 2.298229 1_555
Ni0 Si0 2.298229 1_554
Ni0 Si3 2.313644 1_565
Ni0 Si3 2.313644 1_455
Ni0 Si1 2.421311 1_465
Ni0 Si1 2.421311 1_464
Ni0 Si2 2.452953 1_565
Ni0 Si2 2.452953 1_455
Ni1 Si5 2.252561 1_555
Ni1 Si2 2.265198 1_556
Ni1 Si2 2.265198 1_555
Ni1 Si1 2.298616 1_565
Ni1 Si1 2.298616 1_455
Ni1 U1 3.092752 1_566
Ni1 U1 3.092752 1_565
Ni1 U1 3.092752 1_456
Ni1 U1 3.092752 1_455
