# generated using pymatgen
data_Mg2Bi
_symmetry_space_group_name_H-M   'P 1'
_cell_length_a   16.82074919
_cell_length_b   16.82074919
_cell_length_c   11.44876600
_cell_angle_alpha   90.00000000
_cell_angle_beta   90.00000000
_cell_angle_gamma   157.24880194
_symmetry_Int_Tables_number   1
_chemical_formula_structural   Mg2Bi
_chemical_formula_sum   'Mg32 Bi16'
_cell_volume   1252.73002694
_cell_formula_units_Z   16
loop_
 _symmetry_equiv_pos_site_id
 _symmetry_equiv_pos_as_xyz
  1  'x, y, z'
loop_
 _atom_site_type_symbol
 _atom_site_label
 _atom_site_symmetry_multiplicity
 _atom_site_fract_x
 _atom_site_fract_y
 _atom_site_fract_z
 _atom_site_occupancy
  Mg  Mg0_0  1  0.22022800  0.27977200  0.12500000  1
  Mg  Mg0_1  1  0.22022800  0.27977200  0.62500000  1
  Mg  Mg0_2  1  0.22022800  0.77977200  0.12500000  1
  Mg  Mg0_3  1  0.22022800  0.77977200  0.62500000  1
  Mg  Mg0_4  1  0.72022800  0.27977200  0.12500000  1
  Mg  Mg0_5  1  0.72022800  0.27977200  0.62500000  1
  Mg  Mg0_6  1  0.72022800  0.77977200  0.12500000  1
  Mg  Mg0_7  1  0.72022800  0.77977200  0.62500000  1
  Mg  Mg1_0  1  0.39010800  0.10989200  0.12500000  1
  Mg  Mg1_1  1  0.39010800  0.10989200  0.62500000  1
  Mg  Mg1_2  1  0.39010800  0.60989200  0.12500000  1
  Mg  Mg1_3  1  0.39010800  0.60989200  0.62500000  1
  Mg  Mg1_4  1  0.89010800  0.10989200  0.12500000  1
  Mg  Mg1_5  1  0.89010800  0.10989200  0.62500000  1
  Mg  Mg1_6  1  0.89010800  0.60989200  0.12500000  1
  Mg  Mg1_7  1  0.89010800  0.60989200  0.62500000  1
  Mg  Mg2_0  1  0.10989200  0.39010800  0.37500000  1
  Mg  Mg2_1  1  0.10989200  0.39010800  0.87500000  1
  Mg  Mg2_2  1  0.10989200  0.89010800  0.37500000  1
  Mg  Mg2_3  1  0.10989200  0.89010800  0.87500000  1
  Mg  Mg2_4  1  0.60989200  0.39010800  0.37500000  1
  Mg  Mg2_5  1  0.60989200  0.39010800  0.87500000  1
  Mg  Mg2_6  1  0.60989200  0.89010800  0.37500000  1
  Mg  Mg2_7  1  0.60989200  0.89010800  0.87500000  1
  Mg  Mg3_0  1  0.27977200  0.22022800  0.37500000  1
  Mg  Mg3_1  1  0.27977200  0.22022800  0.87500000  1
  Mg  Mg3_2  1  0.27977200  0.72022800  0.37500000  1
  Mg  Mg3_3  1  0.27977200  0.72022800  0.87500000  1
  Mg  Mg3_4  1  0.77977200  0.22022800  0.37500000  1
  Mg  Mg3_5  1  0.77977200  0.22022800  0.87500000  1
  Mg  Mg3_6  1  0.77977200  0.72022800  0.37500000  1
  Mg  Mg3_7  1  0.77977200  0.72022800  0.87500000  1
  Bi  Bi0_0  1  0.05535750  0.44464250  0.12500000  1
  Bi  Bi0_1  1  0.05535750  0.44464250  0.62500000  1
  Bi  Bi0_2  1  0.05535750  0.94464250  0.12500000  1
  Bi  Bi0_3  1  0.05535750  0.94464250  0.62500000  1
  Bi  Bi0_4  1  0.55535750  0.44464250  0.12500000  1
  Bi  Bi0_5  1  0.55535750  0.44464250  0.62500000  1
  Bi  Bi0_6  1  0.55535750  0.94464250  0.12500000  1
  Bi  Bi0_7  1  0.55535750  0.94464250  0.62500000  1
  Bi  Bi1_0  1  0.44464250  0.05535750  0.37500000  1
  Bi  Bi1_1  1  0.44464250  0.05535750  0.87500000  1
  Bi  Bi1_2  1  0.44464250  0.55535750  0.37500000  1
  Bi  Bi1_3  1  0.44464250  0.55535750  0.87500000  1
  Bi  Bi1_4  1  0.94464250  0.05535750  0.37500000  1
  Bi  Bi1_5  1  0.94464250  0.05535750  0.87500000  1
  Bi  Bi1_6  1  0.94464250  0.55535750  0.37500000  1
  Bi  Bi1_7  1  0.94464250  0.55535750  0.87500000  1
loop_
_geom_bond_atom_site_label_1
_geom_bond_atom_site_label_2
_geom_bond_distance
_geom_bond_site_symmetry_2
Mg0_0 Mg1_2 3.119958 1_555
Mg0_0 Mg1_4 3.119958 1_455
Mg0_0 Mg0_6 3.317722 1_555
Mg0_0 Mg0_6 3.317722 1_445
Mg0_0 Mg3_1 3.471116 1_554
Mg0_0 Mg3_0 3.471116 1_555
Mg0_1 Mg1_3 3.119958 1_555
Mg0_1 Mg1_5 3.119958 1_455
Mg0_1 Mg0_7 3.317722 1_445
Mg0_1 Mg0_7 3.317722 1_555
Mg0_1 Mg3_0 3.471116 1_555
Mg0_1 Mg3_1 3.471116 1_555
Mg0_2 Mg1_0 3.119958 1_565
Mg0_2 Mg1_6 3.119958 1_455
Mg0_2 Mg0_4 3.317722 1_455
Mg0_2 Mg0_4 3.317722 1_565
Mg0_2 Mg3_3 3.471116 1_554
Mg0_2 Mg3_2 3.471116 1_555
Mg0_3 Mg1_1 3.119958 1_565
Mg0_3 Mg1_7 3.119958 1_455
Mg0_3 Mg0_5 3.317722 1_565
Mg0_3 Mg0_5 3.317722 1_455
Mg0_3 Mg3_2 3.471116 1_555
Mg0_3 Mg3_3 3.471116 1_555
Mg0_4 Mg1_6 3.119958 1_555
Mg0_4 Mg1_0 3.119958 1_555
Mg0_4 Mg3_5 3.471116 1_554
Mg0_4 Mg3_4 3.471116 1_555
Mg0_5 Mg1_7 3.119958 1_555
Mg0_5 Mg1_1 3.119958 1_555
Mg0_5 Mg3_4 3.471116 1_555
Mg0_5 Mg3_5 3.471116 1_555
Mg0_6 Mg1_4 3.119958 1_565
Mg0_6 Mg1_2 3.119958 1_555
Mg0_6 Mg3_7 3.471116 1_554
Mg0_6 Mg3_6 3.471116 1_555
Mg0_7 Mg1_5 3.119958 1_565
Mg0_7 Mg1_3 3.119958 1_555
Mg0_7 Mg3_6 3.471116 1_555
Mg0_7 Mg3_7 3.471116 1_555
Mg1_0 Mg1_6 3.317722 1_555
Mg1_0 Mg1_6 3.317722 1_445
Mg1_0 Mg2_3 3.455005 1_544
Mg1_0 Mg2_5 3.455005 1_554
Mg1_0 Mg2_2 3.455005 1_545
Mg1_0 Mg2_4 3.455005 1_555
Mg1_1 Mg1_7 3.317722 1_445
Mg1_1 Mg1_7 3.317722 1_555
Mg1_1 Mg2_2 3.455005 1_545
Mg1_1 Mg2_4 3.455005 1_555
Mg1_1 Mg2_3 3.455005 1_545
Mg1_1 Mg2_5 3.455005 1_555
Mg1_2 Mg1_4 3.317722 1_565
Mg1_2 Mg1_4 3.317722 1_455
Mg1_2 Mg2_7 3.455005 1_554
Mg1_2 Mg2_1 3.455005 1_554
Mg1_2 Mg2_0 3.455005 1_555
Mg1_2 Mg2_6 3.455005 1_555
Mg1_3 Mg1_5 3.317722 1_565
Mg1_3 Mg1_5 3.317722 1_455
Mg1_3 Mg2_0 3.455005 1_555
Mg1_3 Mg2_6 3.455005 1_555
Mg1_3 Mg2_7 3.455005 1_555
Mg1_3 Mg2_1 3.455005 1_555
Mg1_4 Mg2_7 3.455005 1_544
Mg1_4 Mg2_1 3.455005 1_654
Mg1_4 Mg2_6 3.455005 1_545
Mg1_4 Mg2_0 3.455005 1_655
Mg1_5 Mg2_0 3.455005 1_655
Mg1_5 Mg2_6 3.455005 1_545
Mg1_5 Mg2_7 3.455005 1_545
Mg1_5 Mg2_1 3.455005 1_655
Mg1_6 Mg2_3 3.455005 1_654
Mg1_6 Mg2_5 3.455005 1_554
Mg1_6 Mg2_2 3.455005 1_655
Mg1_6 Mg2_4 3.455005 1_555
Mg1_7 Mg2_2 3.455005 1_655
Mg1_7 Mg2_4 3.455005 1_555
Mg1_7 Mg2_3 3.455005 1_655
Mg1_7 Mg2_5 3.455005 1_555
Mg2_0 Mg3_2 3.119958 1_555
Mg2_0 Mg3_4 3.119958 1_455
Mg2_0 Mg2_6 3.317722 1_445
Mg2_0 Mg2_6 3.317722 1_555
Mg2_1 Mg3_3 3.119958 1_555
Mg2_1 Mg3_5 3.119958 1_455
Mg2_1 Mg2_7 3.317722 1_445
Mg2_1 Mg2_7 3.317722 1_555
Mg2_2 Mg3_6 3.119958 1_455
Mg2_2 Mg3_0 3.119958 1_565
Mg2_2 Mg2_4 3.317722 1_565
Mg2_2 Mg2_4 3.317722 1_455
Mg2_3 Mg3_7 3.119958 1_455
Mg2_3 Mg3_1 3.119958 1_565
Mg2_3 Mg2_5 3.317722 1_455
Mg2_3 Mg2_5 3.317722 1_565
Mg2_4 Mg3_6 3.119958 1_555
Mg2_4 Mg3_0 3.119958 1_555
Mg2_5 Mg3_7 3.119958 1_555
Mg2_5 Mg3_1 3.119958 1_555
Mg2_6 Mg3_4 3.119958 1_565
Mg2_6 Mg3_2 3.119958 1_555
Mg2_7 Mg3_5 3.119958 1_565
Mg2_7 Mg3_3 3.119958 1_555
Mg3_0 Mg3_6 3.317722 1_445
Mg3_0 Mg3_6 3.317722 1_555
Mg3_1 Mg3_7 3.317722 1_555
Mg3_1 Mg3_7 3.317722 1_445
Mg3_2 Mg3_4 3.317722 1_565
Mg3_2 Mg3_4 3.317722 1_455
Mg3_3 Mg3_5 3.317722 1_565
Mg3_3 Mg3_5 3.317722 1_455
Bi0_0 Mg1_4 3.250314 1_455
Bi0_0 Mg1_2 3.250314 1_555
Bi0_0 Mg0_2 3.261069 1_555
Bi0_0 Mg0_4 3.261069 1_455
Bi0_0 Bi0_6 3.317722 1_445
Bi0_0 Bi0_6 3.317722 1_555
Bi0_0 Mg2_1 3.380390 1_554
Bi0_0 Mg2_0 3.380390 1_555
Bi0_0 Mg3_3 3.414089 1_554
Bi0_0 Mg3_5 3.414089 1_454
Bi0_0 Mg3_2 3.414089 1_555
Bi0_0 Mg3_4 3.414089 1_455
Bi0_1 Mg1_5 3.250314 1_455
Bi0_1 Mg1_3 3.250314 1_555
Bi0_1 Mg0_3 3.261069 1_555
Bi0_1 Mg0_5 3.261069 1_455
Bi0_1 Bi0_7 3.317722 1_445
Bi0_1 Bi0_7 3.317722 1_555
Bi0_1 Mg2_0 3.380390 1_555
Bi0_1 Mg2_1 3.380390 1_555
Bi0_1 Mg3_2 3.414089 1_555
Bi0_1 Mg3_4 3.414089 1_455
Bi0_1 Mg3_5 3.414089 1_455
Bi0_1 Mg3_3 3.414089 1_555
Bi0_2 Mg1_0 3.250314 1_565
Bi0_2 Mg1_6 3.250314 1_455
Bi0_2 Mg0_0 3.261069 1_565
Bi0_2 Mg0_6 3.261069 1_455
Bi0_2 Bi0_4 3.317722 1_565
Bi0_2 Bi0_4 3.317722 1_455
Bi0_2 Mg2_3 3.380390 1_554
Bi0_2 Mg2_2 3.380390 1_555
Bi0_2 Mg3_7 3.414089 1_454
Bi0_2 Mg3_1 3.414089 1_564
Bi0_2 Mg3_6 3.414089 1_455
Bi0_2 Mg3_0 3.414089 1_565
Bi0_3 Mg1_7 3.250314 1_455
Bi0_3 Mg1_1 3.250314 1_565
Bi0_3 Mg0_1 3.261069 1_565
Bi0_3 Mg0_7 3.261069 1_455
Bi0_3 Bi0_5 3.317722 1_565
Bi0_3 Bi0_5 3.317722 1_455
Bi0_3 Mg2_2 3.380390 1_555
Bi0_3 Mg2_3 3.380390 1_555
Bi0_3 Mg3_6 3.414089 1_455
Bi0_3 Mg3_0 3.414089 1_565
Bi0_3 Mg3_7 3.414089 1_455
Bi0_3 Mg3_1 3.414089 1_565
Bi0_4 Mg1_0 3.250314 1_555
Bi0_4 Mg1_6 3.250314 1_555
Bi0_4 Mg0_0 3.261069 1_555
Bi0_4 Mg0_6 3.261069 1_555
Bi0_4 Mg2_5 3.380390 1_554
Bi0_4 Mg2_4 3.380390 1_555
Bi0_4 Mg3_1 3.414089 1_554
Bi0_4 Mg3_7 3.414089 1_554
Bi0_4 Mg3_6 3.414089 1_555
Bi0_4 Mg3_0 3.414089 1_555
Bi0_5 Mg1_1 3.250314 1_555
Bi0_5 Mg1_7 3.250314 1_555
Bi0_5 Mg0_1 3.261069 1_555
Bi0_5 Mg0_7 3.261069 1_555
Bi0_5 Mg2_4 3.380390 1_555
Bi0_5 Mg2_5 3.380390 1_555
Bi0_5 Mg3_6 3.414089 1_555
Bi0_5 Mg3_0 3.414089 1_555
Bi0_5 Mg3_1 3.414089 1_555
Bi0_5 Mg3_7 3.414089 1_555
Bi0_6 Mg1_4 3.250314 1_565
Bi0_6 Mg1_2 3.250314 1_555
Bi0_6 Mg0_2 3.261069 1_555
Bi0_6 Mg0_4 3.261069 1_565
Bi0_6 Mg2_7 3.380390 1_554
Bi0_6 Mg2_6 3.380390 1_555
Bi0_6 Mg3_5 3.414089 1_564
Bi0_6 Mg3_3 3.414089 1_554
Bi0_6 Mg3_4 3.414089 1_565
Bi0_6 Mg3_2 3.414089 1_555
Bi0_7 Mg1_5 3.250314 1_565
Bi0_7 Mg1_3 3.250314 1_555
Bi0_7 Mg0_3 3.261069 1_555
Bi0_7 Mg0_5 3.261069 1_565
Bi0_7 Mg2_6 3.380390 1_555
Bi0_7 Mg2_7 3.380390 1_555
Bi0_7 Mg3_4 3.414089 1_565
Bi0_7 Mg3_2 3.414089 1_555
Bi0_7 Mg3_5 3.414089 1_565
Bi0_7 Mg3_3 3.414089 1_555
Bi1_0 Mg2_2 3.250314 1_545
Bi1_0 Mg2_4 3.250314 1_555
Bi1_0 Mg3_4 3.261069 1_555
Bi1_0 Mg3_2 3.261069 1_545
Bi1_0 Bi1_6 3.317722 1_445
Bi1_0 Bi1_6 3.317722 1_555
Bi1_0 Mg1_1 3.380390 1_555
Bi1_0 Mg1_0 3.380390 1_555
Bi1_0 Mg0_5 3.414089 1_555
Bi1_0 Mg0_3 3.414089 1_545
Bi1_0 Mg0_4 3.414089 1_555
Bi1_0 Mg0_2 3.414089 1_545
Bi1_1 Mg2_3 3.250314 1_545
Bi1_1 Mg2_5 3.250314 1_555
Bi1_1 Mg3_5 3.261069 1_555
Bi1_1 Mg3_3 3.261069 1_545
Bi1_1 Bi1_7 3.317722 1_445
Bi1_1 Bi1_7 3.317722 1_555
Bi1_1 Mg1_0 3.380390 1_556
Bi1_1 Mg1_1 3.380390 1_555
Bi1_1 Mg0_4 3.414089 1_556
Bi1_1 Mg0_2 3.414089 1_546
Bi1_1 Mg0_5 3.414089 1_555
Bi1_1 Mg0_3 3.414089 1_545
Bi1_2 Mg2_6 3.250314 1_555
Bi1_2 Mg2_0 3.250314 1_555
Bi1_2 Mg3_0 3.261069 1_555
Bi1_2 Mg3_6 3.261069 1_555
Bi1_2 Bi1_4 3.317722 1_455
Bi1_2 Bi1_4 3.317722 1_565
Bi1_2 Mg1_3 3.380390 1_555
Bi1_2 Mg1_2 3.380390 1_555
Bi1_2 Mg0_7 3.414089 1_555
Bi1_2 Mg0_1 3.414089 1_555
Bi1_2 Mg0_0 3.414089 1_555
Bi1_2 Mg0_6 3.414089 1_555
Bi1_3 Mg2_1 3.250314 1_555
Bi1_3 Mg2_7 3.250314 1_555
Bi1_3 Mg3_1 3.261069 1_555
Bi1_3 Mg3_7 3.261069 1_555
Bi1_3 Bi1_5 3.317722 1_455
Bi1_3 Bi1_5 3.317722 1_565
Bi1_3 Mg1_2 3.380390 1_556
Bi1_3 Mg1_3 3.380390 1_555
Bi1_3 Mg0_6 3.414089 1_556
Bi1_3 Mg0_0 3.414089 1_556
Bi1_3 Mg0_7 3.414089 1_555
Bi1_3 Mg0_1 3.414089 1_555
Bi1_4 Mg2_0 3.250314 1_655
Bi1_4 Mg2_6 3.250314 1_545
Bi1_4 Mg3_6 3.261069 1_545
Bi1_4 Mg3_0 3.261069 1_655
Bi1_4 Mg1_5 3.380390 1_555
Bi1_4 Mg1_4 3.380390 1_555
Bi1_4 Mg0_7 3.414089 1_545
Bi1_4 Mg0_1 3.414089 1_655
Bi1_4 Mg0_6 3.414089 1_545
Bi1_4 Mg0_0 3.414089 1_655
Bi1_5 Mg2_7 3.250314 1_545
Bi1_5 Mg2_1 3.250314 1_655
Bi1_5 Mg3_7 3.261069 1_545
Bi1_5 Mg3_1 3.261069 1_655
Bi1_5 Mg1_4 3.380390 1_556
Bi1_5 Mg1_5 3.380390 1_555
Bi1_5 Mg0_6 3.414089 1_546
Bi1_5 Mg0_0 3.414089 1_656
Bi1_5 Mg0_7 3.414089 1_545
Bi1_5 Mg0_1 3.414089 1_655
Bi1_6 Mg2_2 3.250314 1_655
Bi1_6 Mg2_4 3.250314 1_555
Bi1_6 Mg3_4 3.261069 1_555
Bi1_6 Mg3_2 3.261069 1_655
Bi1_6 Mg1_7 3.380390 1_555
Bi1_6 Mg1_6 3.380390 1_555
Bi1_6 Mg0_5 3.414089 1_555
Bi1_6 Mg0_3 3.414089 1_655
Bi1_6 Mg0_4 3.414089 1_555
Bi1_6 Mg0_2 3.414089 1_655
Bi1_7 Mg2_3 3.250314 1_655
Bi1_7 Mg2_5 3.250314 1_555
Bi1_7 Mg3_5 3.261069 1_555
Bi1_7 Mg3_3 3.261069 1_655
Bi1_7 Mg1_6 3.380390 1_556
Bi1_7 Mg1_7 3.380390 1_555
Bi1_7 Mg0_2 3.414089 1_656
Bi1_7 Mg0_4 3.414089 1_556
Bi1_7 Mg0_3 3.414089 1_655
Bi1_7 Mg0_5 3.414089 1_555
