# generated using pymatgen
data_ErGaIr
_symmetry_space_group_name_H-M   'P 1'
_cell_length_a   4.26142818
_cell_length_b   6.73400898
_cell_length_c   7.72532401
_cell_angle_alpha   90.00000000
_cell_angle_beta   90.00000000
_cell_angle_gamma   90.00000000
_symmetry_Int_Tables_number   1
_chemical_formula_structural   ErGaIr
_chemical_formula_sum   'Er4 Ga4 Ir4'
_cell_volume   221.68972671
_cell_formula_units_Z   4
loop_
 _symmetry_equiv_pos_site_id
 _symmetry_equiv_pos_as_xyz
  1  'x, y, z'
loop_
 _atom_site_type_symbol
 _atom_site_label
 _atom_site_symmetry_multiplicity
 _atom_site_fract_x
 _atom_site_fract_y
 _atom_site_fract_z
 _atom_site_occupancy
  Er  Er0  1  0.25000000  0.97537490  0.31409941  1
  Er  Er1  1  0.25000000  0.47537490  0.18590059  1
  Er  Er2  1  0.75000000  0.02462510  0.68590059  1
  Er  Er3  1  0.75000000  0.52462510  0.81409941  1
  Ga  Ga0  1  0.25000000  0.34664746  0.56659885  1
  Ga  Ga1  1  0.25000000  0.84664746  0.93340115  1
  Ga  Ga2  1  0.75000000  0.65335254  0.43340115  1
  Ga  Ga3  1  0.75000000  0.15335254  0.06659885  1
  Ir  Ir0  1  0.25000000  0.23337570  0.88611032  1
  Ir  Ir1  1  0.25000000  0.73337570  0.61388968  1
  Ir  Ir2  1  0.75000000  0.76662430  0.11388968  1
  Ir  Ir3  1  0.75000000  0.26662430  0.38611032  1
loop_
_geom_bond_atom_site_label_1
_geom_bond_atom_site_label_2
_geom_bond_distance
_geom_bond_site_symmetry_2
Er0 Ir1 2.831859 1_555
Er0 Ir3 2.948902 1_465
Er0 Ir3 2.948902 1_565
Er0 Ir2 2.984669 1_555
Er0 Ir2 2.984669 1_455
Er0 Ga1 3.066108 1_554
Er0 Ga3 3.103575 1_465
Er0 Ga3 3.103575 1_565
Er0 Ga0 3.171082 1_565
Er0 Ga2 3.176755 1_455
Er0 Ga2 3.176755 1_555
Er1 Ir0 2.831859 1_554
Er1 Ir2 2.948902 1_455
Er1 Ir2 2.948902 1_555
Er1 Ir3 2.984669 1_555
Er1 Ir3 2.984669 1_455
Er1 Ga0 3.066108 1_555
Er1 Ga2 3.103575 1_455
Er1 Ga2 3.103575 1_555
Er1 Ga1 3.171082 1_554
Er1 Ga3 3.176755 1_555
Er1 Ga3 3.176755 1_455
Er2 Ir3 2.831859 1_555
Er2 Ir1 2.948902 1_645
Er2 Ir1 2.948902 1_545
Er2 Ir0 2.984669 1_555
Er2 Ir0 2.984669 1_655
Er2 Ga3 3.066108 1_556
Er2 Ga1 3.103575 1_645
Er2 Ga1 3.103575 1_545
Er2 Ga2 3.171082 1_545
Er2 Ga0 3.176755 1_655
Er2 Ga0 3.176755 1_555
Er3 Ir2 2.831859 1_556
Er3 Ir0 2.948902 1_555
Er3 Ir0 2.948902 1_655
Er3 Ir1 2.984669 1_555
Er3 Ir1 2.984669 1_655
Er3 Ga2 3.066108 1_555
Er3 Ga0 3.103575 1_655
Er3 Ga0 3.103575 1_555
Er3 Ga3 3.171082 1_556
Er3 Ga1 3.176755 1_655
Er3 Ga1 3.176755 1_555
Ga0 Ir0 2.583500 1_555
Ga0 Ir3 2.602786 1_555
Ga0 Ir3 2.602786 1_455
Ga0 Ir1 2.629732 1_555
Ga1 Ir1 2.583500 1_555
Ga1 Ir2 2.602786 1_556
Ga1 Ir2 2.602786 1_456
Ga1 Ir0 2.629732 1_565
Ga2 Ir2 2.583500 1_555
Ga2 Ir1 2.602786 1_555
Ga2 Ir1 2.602786 1_655
Ga2 Ir3 2.629732 1_555
Ga3 Ir3 2.583500 1_555
Ga3 Ir0 2.602786 1_654
Ga3 Ir0 2.602786 1_554
Ga3 Ir2 2.629732 1_545
