# generated using pymatgen
data_Li7Mn4CoO12
_symmetry_space_group_name_H-M   'P 1'
_cell_length_a   2.89308200
_cell_length_b   5.25654200
_cell_length_c   14.70236383
_cell_angle_alpha   87.05336109
_cell_angle_beta   90.00000000
_cell_angle_gamma   90.00000000
_symmetry_Int_Tables_number   1
_chemical_formula_structural   Li7Mn4CoO12
_chemical_formula_sum   'Li7 Mn4 Co1 O12'
_cell_volume   223.29215363
_cell_formula_units_Z   1
loop_
 _symmetry_equiv_pos_site_id
 _symmetry_equiv_pos_as_xyz
  1  'x, y, z'
loop_
 _atom_site_type_symbol
 _atom_site_label
 _atom_site_symmetry_multiplicity
 _atom_site_fract_x
 _atom_site_fract_y
 _atom_site_fract_z
 _atom_site_occupancy
  Li  Li0  1  0.50000000  0.50723100  0.99084200  1
  Li  Li1  1  0.00000000  0.30670300  0.81975900  1
  Li  Li2  1  0.50000000  0.17052900  0.67549000  1
  Li  Li3  1  0.00000000  0.99807000  0.51110700  1
  Li  Li4  1  0.00000000  0.66683300  0.16873100  1
  Li  Li5  1  0.50000000  0.84197000  0.33830900  1
  Li  Li6  1  0.00000000  0.67197500  0.66524100  1
  Mn  Mn0  1  0.00000000  0.98865600  0.99621900  1
  Mn  Mn1  1  0.50000000  0.52547700  0.50709500  1
  Mn  Mn2  1  0.00000000  0.35117500  0.33593100  1
  Mn  Mn3  1  0.50000000  0.15701700  0.16721400  1
  Co  Co0  1  0.50000000  0.79361300  0.81634900  1
  O  O0  1  0.50000000  0.83260600  0.07194800  1
  O  O1  1  0.00000000  0.71236700  0.91923700  1
  O  O2  1  0.50000000  0.50415500  0.75908600  1
  O  O3  1  0.00000000  0.35403000  0.57220000  1
  O  O4  1  0.00000000  0.00737700  0.24295800  1
  O  O5  1  0.50000000  0.21204500  0.41287100  1
  O  O6  1  0.50000000  0.15508000  0.93066000  1
  O  O7  1  0.00000000  0.98956100  0.75374200  1
  O  O8  1  0.50000000  0.80191600  0.57569000  1
  O  O9  1  0.00000000  0.66907900  0.42677600  1
  O  O10  1  0.00000000  0.28836000  0.08637700  1
  O  O11  1  0.50000000  0.49417500  0.25616800  1
loop_
_geom_bond_atom_site_label_1
_geom_bond_atom_site_label_2
_geom_bond_distance
_geom_bond_site_symmetry_2
Li0 O1 2.060782 1_655
Li0 O1 2.060782 1_555
Li0 O6 2.092332 1_555
Li0 O0 2.134692 1_556
Li0 O10 2.285361 1_656
Li0 O10 2.285361 1_556
Li1 O2 1.967305 1_555
Li1 O2 1.967305 1_455
Li1 O7 1.971689 1_545
Li1 O6 2.291867 1_555
Li1 O6 2.291867 1_455
Li2 O7 2.051461 1_645
Li2 O7 2.051461 1_545
Li2 O2 2.192651 1_555
Li2 O3 2.275624 1_555
Li2 O3 2.275624 1_655
Li2 O8 2.489913 1_545
Li3 O8 1.989112 1_555
Li3 O8 1.989112 1_455
Li3 O3 2.116757 1_565
Li3 O9 2.179078 1_555
Li3 O5 2.297079 1_465
Li3 O5 2.297079 1_565
Li4 O11 2.109224 1_555
Li4 O11 2.109224 1_455
Li4 O4 2.143877 1_565
Li4 O0 2.179239 1_555
Li4 O0 2.179239 1_455
Li4 O10 2.381520 1_555
Li5 O9 2.118640 1_655
Li5 O9 2.118640 1_555
Li5 O4 2.165276 1_565
Li5 O4 2.165276 1_665
Li5 O11 2.242268 1_555
Li5 O5 2.281499 1_565
Li6 O8 2.049398 1_455
Li6 O8 2.049398 1_555
Li6 O2 2.156207 1_455
Li6 O2 2.156207 1_555
Li6 O7 2.168707 1_555
Li6 O3 2.213476 1_555
Mn0 O1 1.886599 1_555
Mn0 O6 1.923575 1_565
Mn0 O6 1.923575 1_465
Mn0 O0 1.977649 1_556
Mn0 O0 1.977649 1_456
Mn0 O10 2.110367 1_566
Mn1 O8 1.810883 1_555
Mn1 O3 1.931893 1_555
Mn1 O3 1.931893 1_655
Mn1 O9 1.991258 1_555
Mn1 O9 1.991258 1_655
Mn1 O5 2.206409 1_555
Mn2 O5 1.954968 1_455
Mn2 O5 1.954968 1_555
Mn2 O11 1.985477 1_555
Mn2 O11 1.985477 1_455
Mn2 O9 2.192234 1_555
Mn2 O4 2.321289 1_555
Mn3 O4 1.965015 1_555
Mn3 O4 1.965015 1_655
Mn3 O10 1.974159 1_655
Mn3 O10 1.974159 1_555
Mn3 O11 2.256042 1_555
Mn3 O0 2.261708 1_545
Co0 O2 1.776403 1_555
Co0 O7 1.975649 1_655
Co0 O7 1.975649 1_555
Co0 O1 2.120543 1_555
Co0 O1 2.120543 1_655
Co0 O6 2.600600 1_565
