# generated using pymatgen
data_Mn2CuO4
_symmetry_space_group_name_H-M   'P 1'
_cell_length_a   5.95877980
_cell_length_b   5.95877906
_cell_length_c   6.10117745
_cell_angle_alpha   120.79781246
_cell_angle_beta   120.79763494
_cell_angle_gamma   87.22966134
_symmetry_Int_Tables_number   1
_chemical_formula_structural   Mn2CuO4
_chemical_formula_sum   'Mn4 Cu2 O8'
_cell_volume   152.98455892
_cell_formula_units_Z   2
loop_
 _symmetry_equiv_pos_site_id
 _symmetry_equiv_pos_as_xyz
  1  'x, y, z'
loop_
 _atom_site_type_symbol
 _atom_site_label
 _atom_site_symmetry_multiplicity
 _atom_site_fract_x
 _atom_site_fract_y
 _atom_site_fract_z
 _atom_site_occupancy
  Mn  Mn0  1  0.00002500  0.49997300  0.99996500  1
  Mn  Mn1  1  0.00002600  0.49997200  0.50003400  1
  Mn  Mn2  1  0.00001200  0.00006400  0.50003800  1
  Mn  Mn3  1  0.49994000  0.49999000  0.99996500  1
  Cu  Cu0  1  0.37480000  0.12519900  0.25000100  1
  Cu  Cu1  1  0.62517900  0.87482100  0.74999800  1
  O  O0  1  0.21630200  0.74145200  0.47886800  1
  O  O1  1  0.24147800  0.71629600  0.97888300  1
  O  O2  1  0.23744200  0.26257600  0.52113200  1
  O  O3  1  0.23742900  0.26256000  0.97887400  1
  O  O4  1  0.76254900  0.73743200  0.47886200  1
  O  O5  1  0.76256400  0.73744800  0.02113300  1
  O  O6  1  0.78370600  0.25852300  0.52112400  1
  O  O7  1  0.75854700  0.28369600  0.02112600  1
loop_
_geom_bond_atom_site_label_1
_geom_bond_atom_site_label_2
_geom_bond_distance
_geom_bond_site_symmetry_2
Mn0 O3 1.955927 1_555
Mn0 O5 1.956445 1_456
Mn0 O6 2.070125 1_455
Mn0 O0 2.070421 1_556
Mn0 O1 2.070442 1_555
Mn0 O7 2.070721 1_456
Mn1 O2 1.955907 1_555
Mn1 O4 1.956450 1_455
Mn1 O1 2.070159 1_555
Mn1 O7 2.070444 1_455
Mn1 O6 2.070447 1_455
Mn1 O0 2.070748 1_555
Mn2 O6 1.955708 1_455
Mn2 O0 1.956304 1_545
Mn2 O3 2.070067 1_555
Mn2 O2 2.070364 1_555
Mn2 O5 2.070397 1_445
Mn2 O4 2.070703 1_445
Mn3 O1 1.955722 1_555
Mn3 O7 1.956299 1_556
Mn3 O2 2.070056 1_555
Mn3 O4 2.070362 1_556
Mn3 O3 2.070372 1_555
Mn3 O5 2.070679 1_556
Cu0 O3 2.002871 1_554
Cu0 O2 2.002872 1_555
Cu0 O1 2.004586 1_544
Cu0 O6 2.004605 1_555
Cu1 O4 2.002953 1_555
Cu1 O5 2.002967 1_556
Cu1 O7 2.004460 1_566
Cu1 O0 2.004474 1_555
