# generated using pymatgen
data_NaMo2P2O9
_symmetry_space_group_name_H-M   'P 1'
_cell_length_a   6.70454200
_cell_length_b   7.93331900
_cell_length_c   14.60701800
_cell_angle_alpha   90.00000000
_cell_angle_beta   90.00000000
_cell_angle_gamma   90.00000000
_symmetry_Int_Tables_number   1
_chemical_formula_structural   NaMo2P2O9
_chemical_formula_sum   'Na4 Mo8 P8 O36'
_cell_volume   776.93663065
_cell_formula_units_Z   4
loop_
 _symmetry_equiv_pos_site_id
 _symmetry_equiv_pos_as_xyz
  1  'x, y, z'
loop_
 _atom_site_type_symbol
 _atom_site_label
 _atom_site_symmetry_multiplicity
 _atom_site_fract_x
 _atom_site_fract_y
 _atom_site_fract_z
 _atom_site_occupancy
  Na  Na0  1  0.75000000  0.87354700  0.77534000  1
  Na  Na1  1  0.75000000  0.62645300  0.27534000  1
  Na  Na2  1  0.25000000  0.37354700  0.72466000  1
  Na  Na3  1  0.25000000  0.12645300  0.22466000  1
  Mo  Mo0  1  0.75000000  0.35408300  0.88189700  1
  Mo  Mo1  1  0.25000000  0.64591700  0.11810300  1
  Mo  Mo2  1  0.25000000  0.85408300  0.61810300  1
  Mo  Mo3  1  0.75000000  0.14591700  0.38189700  1
  Mo  Mo4  1  0.50000000  0.00000000  0.00000000  1
  Mo  Mo5  1  0.50000000  0.50000000  0.50000000  1
  Mo  Mo6  1  0.00000000  0.50000000  0.50000000  1
  Mo  Mo7  1  0.00000000  0.00000000  0.00000000  1
  P  P0  1  0.25000000  0.34928700  0.93715700  1
  P  P1  1  0.75000000  0.65071300  0.06284300  1
  P  P2  1  0.75000000  0.84928700  0.56284300  1
  P  P3  1  0.25000000  0.15071300  0.43715700  1
  P  P4  1  0.75000000  0.39628100  0.69415300  1
  P  P5  1  0.75000000  0.10371900  0.19415300  1
  P  P6  1  0.25000000  0.89628100  0.80584700  1
  P  P7  1  0.25000000  0.60371900  0.30584700  1
  O  O0  1  0.05863100  0.59368900  0.36473300  1
  O  O1  1  0.55863100  0.40631100  0.63526700  1
  O  O2  1  0.94136900  0.09368900  0.13526700  1
  O  O3  1  0.44136900  0.90631100  0.86473300  1
  O  O4  1  0.94136900  0.40631100  0.63526700  1
  O  O5  1  0.44136900  0.59368900  0.36473300  1
  O  O6  1  0.05863100  0.90631100  0.86473300  1
  O  O7  1  0.55863100  0.09368900  0.13526700  1
  O  O8  1  0.25000000  0.32805800  0.48670400  1
  O  O9  1  0.75000000  0.67194200  0.51329600  1
  O  O10  1  0.75000000  0.82805800  0.01329600  1
  O  O11  1  0.25000000  0.17194200  0.98670400  1
  O  O12  1  0.75000000  0.14212500  0.94932400  1
  O  O13  1  0.25000000  0.85787500  0.05067600  1
  O  O14  1  0.25000000  0.64212500  0.55067600  1
  O  O15  1  0.75000000  0.35787500  0.44932400  1
  O  O16  1  0.75000000  0.23119500  0.75350800  1
  O  O17  1  0.25000000  0.76880500  0.24649200  1
  O  O18  1  0.25000000  0.73119500  0.74649200  1
  O  O19  1  0.75000000  0.26880500  0.25350800  1
  O  O20  1  0.43359600  0.13903300  0.37505500  1
  O  O21  1  0.93359600  0.86096700  0.62494500  1
  O  O22  1  0.56640400  0.63903300  0.12494500  1
  O  O23  1  0.06640400  0.36096700  0.87505500  1
  O  O24  1  0.56640400  0.86096700  0.62494500  1
  O  O25  1  0.06640400  0.13903300  0.37505500  1
  O  O26  1  0.43359600  0.36096700  0.87505500  1
  O  O27  1  0.93359600  0.63903300  0.12494500  1
  O  O28  1  0.75000000  0.51863700  0.98645700  1
  O  O29  1  0.25000000  0.03374800  0.72828600  1
  O  O30  1  0.25000000  0.46625200  0.22828600  1
  O  O31  1  0.75000000  0.53374800  0.77171400  1
  O  O32  1  0.75000000  0.98136300  0.48645700  1
  O  O33  1  0.25000000  0.01863700  0.51354300  1
  O  O34  1  0.25000000  0.48136300  0.01354300  1
  O  O35  1  0.75000000  0.96625200  0.27171400  1
loop_
_geom_bond_atom_site_label_1
_geom_bond_atom_site_label_2
_geom_bond_distance
_geom_bond_site_symmetry_2
Na0 O3 2.460548 1_555
Na0 O6 2.460548 1_655
Na0 O21 2.520153 1_555
Na0 O24 2.520153 1_555
Na0 O31 2.696254 1_555
Na0 O16 2.855201 1_565
Na1 O5 2.460548 1_555
Na1 O0 2.460548 1_655
Na1 O27 2.520153 1_555
Na1 O22 2.520153 1_555
Na1 O35 2.696254 1_555
Na1 O19 2.855201 1_555
Na2 O1 2.460548 1_555
Na2 O4 2.460548 1_455
Na2 O26 2.520153 1_555
Na2 O23 2.520153 1_555
Na2 O29 2.696254 1_555
Na2 O18 2.855201 1_555
Na3 O7 2.460548 1_555
Na3 O2 2.460548 1_455
Na3 O20 2.520153 1_555
Na3 O25 2.520153 1_555
Na3 O30 2.696254 1_555
Na3 O17 2.855201 1_545
Mo0 O12 1.948740 1_555
Mo0 O28 2.009204 1_555
Mo0 O16 2.113646 1_555
Mo0 O23 2.124399 1_655
Mo0 O26 2.124399 1_555
Mo0 O31 2.149862 1_555
Mo1 O13 1.948740 1_555
Mo1 O34 2.009204 1_555
Mo1 O17 2.113646 1_555
Mo1 O22 2.124399 1_555
Mo1 O27 2.124399 1_455
Mo1 O30 2.149862 1_555
Mo2 O14 1.948740 1_555
Mo2 O33 2.009204 1_565
Mo2 O18 2.113646 1_555
Mo2 O24 2.124399 1_555
Mo2 O21 2.124399 1_455
Mo2 O29 2.149862 1_565
Mo3 O15 1.948740 1_555
Mo3 O32 2.009204 1_545
Mo3 O19 2.113646 1_555
Mo3 O25 2.124399 1_655
Mo3 O20 2.124399 1_555
Mo3 O35 2.149862 1_545
Mo4 O7 2.147310 1_555
Mo4 O3 2.147310 1_544
Mo4 O13 2.151435 1_545
Mo4 O12 2.151435 1_554
Mo4 O10 2.169755 1_545
Mo4 O11 2.169755 1_554
Mo5 O5 2.147310 1_555
Mo5 O1 2.147310 1_555
Mo5 O15 2.151435 1_555
Mo5 O14 2.151435 1_555
Mo5 O8 2.169755 1_555
Mo5 O9 2.169755 1_555
Mo6 O4 2.147310 1_455
Mo6 O0 2.147310 1_555
Mo6 O15 2.151435 1_455
Mo6 O14 2.151435 1_555
Mo6 O8 2.169755 1_555
Mo6 O9 2.169755 1_455
Mo7 O2 2.147310 1_455
Mo7 O6 2.147310 1_544
Mo7 O13 2.151435 1_545
Mo7 O12 2.151435 1_454
Mo7 O10 2.169755 1_445
Mo7 O11 2.169755 1_554
O0 P7 1.546733 1_555
O1 P4 1.546733 1_555
O2 P5 1.546733 1_555
O3 P6 1.546733 1_555
O4 P4 1.546733 1_555
O5 P7 1.546733 1_555
O6 P6 1.546733 1_555
O7 P5 1.546733 1_555
O8 P3 1.582168 1_555
O9 P2 1.582168 1_555
O10 P1 1.582168 1_555
O11 P0 1.582168 1_555
O16 P4 1.570653 1_555
O17 P7 1.570653 1_555
O18 P6 1.570653 1_555
O19 P5 1.570653 1_555
O20 P3 1.531876 1_555
O21 P2 1.531876 1_555
O22 P1 1.531876 1_555
O23 P0 1.531876 1_555
O24 P2 1.531876 1_555
O25 P3 1.531876 1_555
O26 P0 1.531876 1_555
O27 P1 1.531876 1_555
O28 P1 1.530632 1_556
O29 P6 1.572540 1_545
O30 P7 1.572540 1_555
O31 P4 1.572540 1_555
O32 P2 1.530632 1_555
O33 P3 1.530632 1_555
O34 P0 1.530632 1_554
O35 P5 1.572540 1_565
