# generated using pymatgen
data_CaNCl3
_symmetry_space_group_name_H-M   'P 1'
_cell_length_a   7.54744400
_cell_length_b   7.84664700
_cell_length_c   9.04231300
_cell_angle_alpha   90.00000000
_cell_angle_beta   90.00000000
_cell_angle_gamma   90.00000000
_symmetry_Int_Tables_number   1
_chemical_formula_structural   CaNCl3
_chemical_formula_sum   'Ca4 N4 Cl12'
_cell_volume   535.50502532
_cell_formula_units_Z   4
loop_
 _symmetry_equiv_pos_site_id
 _symmetry_equiv_pos_as_xyz
  1  'x, y, z'
loop_
 _atom_site_type_symbol
 _atom_site_label
 _atom_site_symmetry_multiplicity
 _atom_site_fract_x
 _atom_site_fract_y
 _atom_site_fract_z
 _atom_site_occupancy
  Ca  Ca0  1  0.00000000  0.00000000  0.50000000  1
  Ca  Ca1  1  0.50000000  0.50000000  0.00000000  1
  Ca  Ca2  1  0.00000000  0.00000000  0.00000000  1
  Ca  Ca3  1  0.50000000  0.50000000  0.50000000  1
  N  N0  1  0.85733900  0.42544300  0.75000000  1
  N  N1  1  0.64266100  0.92544300  0.75000000  1
  N  N2  1  0.14266100  0.57455700  0.25000000  1
  N  N3  1  0.35733900  0.07455700  0.25000000  1
  Cl  Cl0  1  0.69707000  0.80558900  0.58822000  1
  Cl  Cl1  1  0.80293000  0.30558900  0.91178000  1
  Cl  Cl2  1  0.30293000  0.19441100  0.08822000  1
  Cl  Cl3  1  0.19707000  0.69441100  0.41178000  1
  Cl  Cl4  1  0.30293000  0.19441100  0.41178000  1
  Cl  Cl5  1  0.19707000  0.69441100  0.08822000  1
  Cl  Cl6  1  0.69707000  0.80558900  0.91178000  1
  Cl  Cl7  1  0.80293000  0.30558900  0.58822000  1
  Cl  Cl8  1  0.15537900  0.92513700  0.75000000  1
  Cl  Cl9  1  0.34462100  0.42513700  0.75000000  1
  Cl  Cl10  1  0.84462100  0.07486300  0.25000000  1
  Cl  Cl11  1  0.65537900  0.57486300  0.25000000  1
loop_
_geom_bond_atom_site_label_1
_geom_bond_atom_site_label_2
_geom_bond_distance
_geom_bond_site_symmetry_2
Ca0 Cl8 2.613530 1_545
Ca0 Cl10 2.613530 1_455
Ca0 Cl0 2.861958 1_445
Ca0 Cl4 2.861958 1_555
Ca0 Cl3 2.932287 1_545
Ca0 Cl7 2.932287 1_455
Ca1 Cl11 2.613530 1_555
Ca1 Cl9 2.613530 1_554
Ca1 Cl5 2.861958 1_555
Ca1 Cl1 2.861958 1_554
Ca1 Cl2 2.932287 1_555
Ca1 Cl6 2.932287 1_554
Ca2 Cl8 2.613530 1_544
Ca2 Cl10 2.613530 1_455
Ca2 Cl6 2.861958 1_444
Ca2 Cl2 2.861958 1_555
Ca2 Cl5 2.932287 1_545
Ca2 Cl1 2.932287 1_454
Ca3 Cl11 2.613530 1_555
Ca3 Cl9 2.613530 1_555
Ca3 Cl3 2.861958 1_555
Ca3 Cl7 2.861958 1_555
Ca3 Cl4 2.932287 1_555
Ca3 Cl0 2.932287 1_555
Cl0 N1 1.786913 1_555
Cl1 N0 1.786913 1_555
Cl2 N3 1.786913 1_555
Cl3 N2 1.786913 1_555
Cl4 N3 1.786913 1_555
Cl5 N2 1.786913 1_555
Cl6 N1 1.786913 1_555
Cl7 N0 1.786913 1_555
