# generated using pymatgen
data_Li3V4O7F5
_symmetry_space_group_name_H-M   'P 1'
_cell_length_a   5.13096900
_cell_length_b   5.35381552
_cell_length_c   8.89140945
_cell_angle_alpha   106.65234312
_cell_angle_beta   88.77666531
_cell_angle_gamma   116.93787974
_symmetry_Int_Tables_number   1
_chemical_formula_structural   Li3V4O7F5
_chemical_formula_sum   'Li3 V4 O7 F5'
_cell_volume   206.92658371
_cell_formula_units_Z   1
loop_
 _symmetry_equiv_pos_site_id
 _symmetry_equiv_pos_as_xyz
  1  'x, y, z'
loop_
 _atom_site_type_symbol
 _atom_site_label
 _atom_site_symmetry_multiplicity
 _atom_site_fract_x
 _atom_site_fract_y
 _atom_site_fract_z
 _atom_site_occupancy
  Li  Li0  1  0.46430500  0.76140200  0.15407300  1
  Li  Li1  1  0.93494400  0.21682200  0.65563700  1
  Li  Li2  1  0.70589000  0.49432900  0.89845100  1
  V  V0  1  0.49249100  0.51202500  0.50358500  1
  V  V1  1  0.06997500  0.04546400  0.00089300  1
  V  V2  1  0.79513200  0.32563800  0.26373700  1
  V  V3  1  0.23825500  0.73389500  0.76031100  1
  O  O0  1  0.06611300  0.92329900  0.81777600  1
  O  O1  1  0.57245200  0.44498200  0.31302400  1
  O  O2  1  0.43731600  0.18314100  0.06681600  1
  O  O3  1  0.99556000  0.36327500  0.86916200  1
  O  O4  1  0.99190900  0.62351000  0.12522700  1
  O  O5  1  0.05114700  0.32566900  0.42970000  1
  O  O6  1  0.41530600  0.57863300  0.68238700  1
  F  F0  1  0.51934700  0.89085500  0.35936800  1
  F  F1  1  0.93353300  0.68149400  0.57097700  1
  F  F2  1  0.55936900  0.79341600  0.94420600  1
  F  F3  1  0.90315200  0.06360300  0.17437100  1
  F  F4  1  0.51117900  0.13417300  0.62942500  1
loop_
_geom_bond_atom_site_label_1
_geom_bond_atom_site_label_2
_geom_bond_distance
_geom_bond_site_symmetry_2
Li0 O4 2.186911 1_455
Li1 O3 1.807502 1_555
Li1 O5 2.244049 1_655
Li1 O6 2.306266 1_655
Li2 O3 1.895463 1_555
Li2 O4 2.259476 1_556
O0 V1 1.567933 1_566
O0 V3 1.601486 1_555
O1 V2 1.544455 1_555
O1 V0 1.709735 1_555
O2 V1 1.726325 1_555
O3 V3 2.288012 1_655
O3 V1 2.482480 1_656
O4 V2 2.166337 1_555
O5 V2 1.996376 1_455
O5 V0 2.048380 1_555
O6 V3 1.524309 1_555
O6 V0 1.608612 1_555
F0 Li0 1.735411 1_555
F1 V0 2.046779 1_555
F1 V3 2.191249 1_655
F2 Li0 1.953969 1_556
F2 Li2 1.999757 1_555
F2 V3 2.197822 1_555
F2 V1 2.324274 1_666
F3 V2 1.718566 1_555
F3 V1 1.747681 1_655
F3 Li0 2.066309 1_545
F4 Li1 2.017081 1_555
F4 Li2 2.480133 1_555
F4 V3 2.559021 1_545
F4 V0 2.613625 1_555
