# generated using pymatgen
data_KMg6Mo
_symmetry_space_group_name_H-M   'P 1'
_cell_length_a   6.58354300
_cell_length_b   6.58354300
_cell_length_c   4.36379600
_cell_angle_alpha   90.00000000
_cell_angle_beta   90.00000000
_cell_angle_gamma   90.00000000
_symmetry_Int_Tables_number   1
_chemical_formula_structural   KMg6Mo
_chemical_formula_sum   'K1 Mg6 Mo1'
_cell_volume   189.14017774
_cell_formula_units_Z   1
loop_
 _symmetry_equiv_pos_site_id
 _symmetry_equiv_pos_as_xyz
  1  'x, y, z'
loop_
 _atom_site_type_symbol
 _atom_site_label
 _atom_site_symmetry_multiplicity
 _atom_site_fract_x
 _atom_site_fract_y
 _atom_site_fract_z
 _atom_site_occupancy
  K  K0  1  0.50000000  0.50000000  0.50000000  1
  Mg  Mg0  1  0.50000000  0.00000000  0.50000000  1
  Mg  Mg1  1  0.00000000  0.50000000  0.50000000  1
  Mg  Mg2  1  0.21464700  0.78535300  0.00000000  1
  Mg  Mg3  1  0.78535300  0.21464700  0.00000000  1
  Mg  Mg4  1  0.21464700  0.21464700  0.00000000  1
  Mg  Mg5  1  0.78535300  0.78535300  0.00000000  1
  Mo  Mo0  1  0.00000000  0.00000000  0.50000000  1
loop_
_geom_bond_atom_site_label_1
_geom_bond_atom_site_label_2
_geom_bond_distance
_geom_bond_site_symmetry_2
K0 Mg1 3.291771 1_555
K0 Mg0 3.291771 1_565
K0 Mg0 3.291771 1_555
K0 Mg1 3.291771 1_655
K0 Mg5 3.437908 1_556
K0 Mg5 3.437908 1_555
K0 Mg2 3.437908 1_555
K0 Mg3 3.437908 1_555
K0 Mg3 3.437908 1_556
K0 Mg2 3.437908 1_556
K0 Mg4 3.437908 1_556
K0 Mg4 3.437908 1_555
Mg0 Mg3 3.207320 1_555
Mg0 Mg3 3.207320 1_556
Mg0 Mg5 3.207320 1_545
Mg0 Mg5 3.207320 1_546
Mg0 Mg4 3.207320 1_556
Mg0 Mg4 3.207320 1_555
Mg0 Mg2 3.207320 1_546
Mg0 Mg2 3.207320 1_545
Mg0 Mo0 3.291771 1_555
Mg0 Mo0 3.291771 1_655
Mg1 Mg2 3.207320 1_556
Mg1 Mg2 3.207320 1_555
Mg1 Mg5 3.207320 1_456
Mg1 Mg5 3.207320 1_455
Mg1 Mg4 3.207320 1_556
Mg1 Mg4 3.207320 1_555
Mg1 Mg3 3.207320 1_455
Mg1 Mg3 3.207320 1_456
Mg1 Mo0 3.291771 1_565
Mg1 Mo0 3.291771 1_555
Mg2 Mg4 2.826276 1_565
Mg2 Mg5 2.826276 1_455
Mg2 Mo0 2.958817 1_565
Mg2 Mo0 2.958817 1_564
Mg3 Mg4 2.826276 1_655
Mg3 Mg5 2.826276 1_545
Mg3 Mo0 2.958817 1_655
Mg3 Mo0 2.958817 1_654
Mg4 Mo0 2.958817 1_555
Mg4 Mo0 2.958817 1_554
Mg5 Mo0 2.958817 1_665
Mg5 Mo0 2.958817 1_664
