# generated using pymatgen
data_HoMnIn
_symmetry_space_group_name_H-M   'P 1'
_cell_length_a   9.53410204
_cell_length_b   9.53410204
_cell_length_c   7.02880000
_cell_angle_alpha   90.00000000
_cell_angle_beta   90.00000000
_cell_angle_gamma   119.99998638
_symmetry_Int_Tables_number   1
_chemical_formula_structural   HoMnIn
_chemical_formula_sum   'Ho8 Mn8 In8'
_cell_volume   553.31375727
_cell_formula_units_Z   8
loop_
 _symmetry_equiv_pos_site_id
 _symmetry_equiv_pos_as_xyz
  1  'x, y, z'
loop_
 _atom_site_type_symbol
 _atom_site_label
 _atom_site_symmetry_multiplicity
 _atom_site_fract_x
 _atom_site_fract_y
 _atom_site_fract_z
 _atom_site_occupancy
  Ho  Ho0_0  1  0.00000000  0.00000000  0.00000000  1
  Ho  Ho0_1  1  0.00000000  0.00000000  0.50000000  1
  Ho  Ho0_2  1  0.00000000  0.50000000  0.00000000  1
  Ho  Ho0_3  1  0.00000000  0.50000000  0.50000000  1
  Ho  Ho0_4  1  0.50000000  0.00000000  0.00000000  1
  Ho  Ho0_5  1  0.50000000  0.00000000  0.50000000  1
  Ho  Ho0_6  1  0.50000000  0.50000000  0.00000000  1
  Ho  Ho0_7  1  0.50000000  0.50000000  0.50000000  1
  Mn  Mn0_0  1  0.33333350  0.16666650  0.25000000  1
  Mn  Mn0_1  1  0.33333350  0.16666650  0.75000000  1
  Mn  Mn0_2  1  0.33333350  0.66666650  0.25000000  1
  Mn  Mn0_3  1  0.33333350  0.66666650  0.75000000  1
  Mn  Mn0_4  1  0.83333350  0.16666650  0.25000000  1
  Mn  Mn0_5  1  0.83333350  0.16666650  0.75000000  1
  Mn  Mn0_6  1  0.83333350  0.66666650  0.25000000  1
  Mn  Mn0_7  1  0.83333350  0.66666650  0.75000000  1
  In  In0_0  1  0.16666650  0.33333350  0.25000000  1
  In  In0_1  1  0.16666650  0.33333350  0.75000000  1
  In  In0_2  1  0.16666650  0.83333350  0.25000000  1
  In  In0_3  1  0.16666650  0.83333350  0.75000000  1
  In  In0_4  1  0.66666650  0.33333350  0.25000000  1
  In  In0_5  1  0.66666650  0.33333350  0.75000000  1
  In  In0_6  1  0.66666650  0.83333350  0.25000000  1
  In  In0_7  1  0.66666650  0.83333350  0.75000000  1
loop_
_geom_bond_atom_site_label_1
_geom_bond_atom_site_label_2
_geom_bond_distance
_geom_bond_site_symmetry_2
Ho0_0 In0_3 3.265373 1_544
Ho0_0 Mn0_4 3.265373 1_455
Ho0_0 In0_2 3.265373 1_545
Ho0_0 Mn0_5 3.265373 1_454
Ho0_0 In0_6 3.265377 1_445
Ho0_0 In0_7 3.265377 1_444
Ho0_0 Mn0_7 3.265377 1_444
Ho0_0 Mn0_6 3.265377 1_445
Ho0_0 Mn0_1 3.265377 1_554
Ho0_0 Mn0_0 3.265377 1_555
Ho0_0 In0_1 3.265377 1_554
Ho0_0 In0_0 3.265377 1_555
Ho0_0 Ho0_1 3.514400 1_554
Ho0_0 Ho0_1 3.514400 1_555
Ho0_1 In0_3 3.265373 1_545
Ho0_1 Mn0_4 3.265373 1_455
Ho0_1 In0_2 3.265373 1_545
Ho0_1 Mn0_5 3.265373 1_455
Ho0_1 Mn0_7 3.265377 1_445
Ho0_1 In0_6 3.265377 1_445
Ho0_1 In0_7 3.265377 1_445
Ho0_1 Mn0_6 3.265377 1_445
Ho0_1 In0_1 3.265377 1_555
Ho0_1 Mn0_1 3.265377 1_555
Ho0_1 Mn0_0 3.265377 1_555
Ho0_1 In0_0 3.265377 1_555
Ho0_2 In0_1 3.265373 1_554
Ho0_2 In0_0 3.265373 1_555
Ho0_2 Mn0_6 3.265373 1_455
Ho0_2 Mn0_7 3.265373 1_454
Ho0_2 In0_2 3.265377 1_555
Ho0_2 In0_3 3.265377 1_554
Ho0_2 In0_4 3.265377 1_455
Ho0_2 In0_5 3.265377 1_454
Ho0_2 Mn0_4 3.265377 1_455
Ho0_2 Mn0_5 3.265377 1_454
Ho0_2 Mn0_2 3.265377 1_555
Ho0_2 Mn0_3 3.265377 1_554
Ho0_2 Ho0_3 3.514400 1_555
Ho0_2 Ho0_3 3.514400 1_554
Ho0_3 In0_0 3.265373 1_555
Ho0_3 In0_1 3.265373 1_555
Ho0_3 Mn0_6 3.265373 1_455
Ho0_3 Mn0_7 3.265373 1_455
Ho0_3 In0_2 3.265377 1_555
Ho0_3 In0_3 3.265377 1_555
Ho0_3 In0_4 3.265377 1_455
Ho0_3 In0_5 3.265377 1_455
Ho0_3 Mn0_3 3.265377 1_555
Ho0_3 Mn0_4 3.265377 1_455
Ho0_3 Mn0_5 3.265377 1_455
Ho0_3 Mn0_2 3.265377 1_555
Ho0_4 Mn0_0 3.265373 1_555
Ho0_4 Mn0_1 3.265373 1_554
Ho0_4 In0_6 3.265373 1_545
Ho0_4 In0_7 3.265373 1_544
Ho0_4 Mn0_4 3.265377 1_555
Ho0_4 Mn0_2 3.265377 1_545
Ho0_4 Mn0_5 3.265377 1_554
Ho0_4 Mn0_3 3.265377 1_544
Ho0_4 In0_5 3.265377 1_554
Ho0_4 In0_4 3.265377 1_555
Ho0_4 In0_2 3.265377 1_545
Ho0_4 In0_3 3.265377 1_544
Ho0_4 Ho0_5 3.514400 1_554
Ho0_4 Ho0_5 3.514400 1_555
Ho0_5 Mn0_1 3.265373 1_555
Ho0_5 Mn0_0 3.265373 1_555
Ho0_5 In0_6 3.265373 1_545
Ho0_5 In0_7 3.265373 1_545
Ho0_5 Mn0_4 3.265377 1_555
Ho0_5 Mn0_5 3.265377 1_555
Ho0_5 Mn0_2 3.265377 1_545
Ho0_5 Mn0_3 3.265377 1_545
Ho0_5 In0_5 3.265377 1_555
Ho0_5 In0_4 3.265377 1_555
Ho0_5 In0_2 3.265377 1_545
Ho0_5 In0_3 3.265377 1_545
Ho0_6 In0_5 3.265373 1_554
Ho0_6 In0_4 3.265373 1_555
Ho0_6 Mn0_3 3.265373 1_554
Ho0_6 Mn0_2 3.265373 1_555
Ho0_6 In0_6 3.265377 1_555
Ho0_6 Mn0_7 3.265377 1_554
Ho0_6 Mn0_6 3.265377 1_555
Ho0_6 In0_7 3.265377 1_554
Ho0_6 In0_0 3.265377 1_555
Ho0_6 Mn0_0 3.265377 1_555
Ho0_6 In0_1 3.265377 1_554
Ho0_6 Mn0_1 3.265377 1_554
Ho0_6 Ho0_7 3.514400 1_555
Ho0_6 Ho0_7 3.514400 1_554
Ho0_7 Mn0_3 3.265373 1_555
Ho0_7 In0_4 3.265373 1_555
Ho0_7 In0_5 3.265373 1_555
Ho0_7 Mn0_2 3.265373 1_555
Ho0_7 Mn0_7 3.265377 1_555
Ho0_7 In0_7 3.265377 1_555
Ho0_7 In0_6 3.265377 1_555
Ho0_7 Mn0_6 3.265377 1_555
Ho0_7 In0_1 3.265377 1_555
Ho0_7 Mn0_1 3.265377 1_555
Ho0_7 Mn0_0 3.265377 1_555
Ho0_7 In0_0 3.265377 1_555
Mn0_0 Mn0_1 3.514400 1_554
Mn0_0 Mn0_1 3.514400 1_555
Mn0_2 Mn0_3 3.514400 1_554
Mn0_2 Mn0_3 3.514400 1_555
Mn0_4 Mn0_5 3.514400 1_555
Mn0_4 Mn0_5 3.514400 1_554
Mn0_6 Mn0_7 3.514400 1_554
Mn0_6 Mn0_7 3.514400 1_555
In0_0 Mn0_4 2.752256 1_455
In0_0 Mn0_2 2.752256 1_555
In0_0 Mn0_0 2.752264 1_555
In0_1 Mn0_5 2.752256 1_455
In0_1 Mn0_3 2.752256 1_555
In0_1 Mn0_1 2.752264 1_555
In0_2 Mn0_6 2.752256 1_455
In0_2 Mn0_0 2.752256 1_565
In0_2 Mn0_2 2.752264 1_555
In0_3 Mn0_7 2.752256 1_455
In0_3 Mn0_1 2.752256 1_565
In0_3 Mn0_3 2.752264 1_555
In0_4 Mn0_0 2.752256 1_555
In0_4 Mn0_6 2.752256 1_555
In0_4 Mn0_4 2.752264 1_555
In0_5 Mn0_1 2.752256 1_555
In0_5 Mn0_7 2.752256 1_555
In0_5 Mn0_5 2.752264 1_555
In0_6 Mn0_2 2.752256 1_555
In0_6 Mn0_4 2.752256 1_565
In0_6 Mn0_6 2.752264 1_555
In0_7 Mn0_3 2.752256 1_555
In0_7 Mn0_5 2.752256 1_565
In0_7 Mn0_7 2.752264 1_555
