# generated using pymatgen
data_NaYIn2
_symmetry_space_group_name_H-M   'P 1'
_cell_length_a   12.40515346
_cell_length_b   12.66967715
_cell_length_c   12.66967735
_cell_angle_alpha   61.47918127
_cell_angle_beta   60.68828635
_cell_angle_gamma   60.68828385
_symmetry_Int_Tables_number   1
_chemical_formula_structural   NaYIn2
_chemical_formula_sum   'Na1 Y1 In2'
_cell_volume   1438.07302066
_cell_formula_units_Z   1
loop_
 _symmetry_equiv_pos_site_id
 _symmetry_equiv_pos_as_xyz
  1  'x, y, z'
loop_
 _atom_site_type_symbol
 _atom_site_label
 _atom_site_symmetry_multiplicity
 _atom_site_fract_x
 _atom_site_fract_y
 _atom_site_fract_z
 _atom_site_occupancy
  Na  Na0  1  -0.00000000  -0.00000000  -0.00000000  1
  Y  Y0  1  0.50000000  -0.00000000  -0.00000000  1
  In  In0  1  0.74843582  1.00000000  0.00000000  1
  In  In1  1  0.25156418  0.00000000  -0.00000000  1
loop_
_geom_bond_atom_site_label_1
_geom_bond_atom_site_label_2
_geom_bond_distance
_geom_bond_site_symmetry_2
In0 Y0 3.081884 1_565
In0 Na0 3.120692 1_665
In1 Y0 3.081884 1_555
In1 Na0 3.120692 1_555
