# generated using pymatgen
data_BaNb6HO16
_symmetry_space_group_name_H-M   'P 1'
_cell_length_a   11.85095819
_cell_length_b   11.85095819
_cell_length_c   11.85095819
_cell_angle_alpha   161.25970658
_cell_angle_beta   136.21670110
_cell_angle_gamma   48.01419121
_symmetry_Int_Tables_number   1
_chemical_formula_structural   BaNb6HO16
_chemical_formula_sum   'Ba1 Nb6 H1 O16'
_cell_volume   369.18994243
_cell_formula_units_Z   1
loop_
 _symmetry_equiv_pos_site_id
 _symmetry_equiv_pos_as_xyz
  1  'x, y, z'
loop_
 _atom_site_type_symbol
 _atom_site_label
 _atom_site_symmetry_multiplicity
 _atom_site_fract_x
 _atom_site_fract_y
 _atom_site_fract_z
 _atom_site_occupancy
  Ba  Ba0  1  0.50000000  0.00000000  0.50000000  1
  Nb  Nb0  1  0.67748200  0.37111300  0.30636900  1
  Nb  Nb1  1  0.32251800  0.62888700  0.69363100  1
  Nb  Nb2  1  0.06474400  0.37111300  0.69363100  1
  Nb  Nb3  1  0.93525600  0.62888700  0.30636900  1
  Nb  Nb4  1  0.24033300  0.24033300  0.00000000  1
  Nb  Nb5  1  0.75966700  0.75966700  0.00000000  1
  H  H0  1  0.00000000  0.00000000  0.00000000  1
  O  O0  1  0.45257600  0.29551700  0.15705800  1
  O  O1  1  0.54742400  0.70448300  0.84294200  1
  O  O2  1  0.13845900  0.29551700  0.84294200  1
  O  O3  1  0.86154100  0.70448300  0.15705800  1
  O  O4  1  0.08545100  0.58545100  0.50000000  1
  O  O5  1  0.91454900  0.41454900  0.50000000  1
  O  O6  1  0.60241700  0.43257000  0.16984700  1
  O  O7  1  0.39758300  0.56743000  0.83015300  1
  O  O8  1  0.26272300  0.43257000  0.83015300  1
  O  O9  1  0.73727700  0.56743000  0.16984700  1
  O  O10  1  0.31636600  0.15317900  0.16318700  1
  O  O11  1  0.68363400  0.84682100  0.83681300  1
  O  O12  1  0.98999200  0.15317900  0.83681300  1
  O  O13  1  0.01000800  0.84682100  0.16318700  1
  O  O14  1  0.21272700  0.71272700  0.50000000  1
  O  O15  1  0.78727300  0.28727300  0.50000000  1
loop_
_geom_bond_atom_site_label_1
_geom_bond_atom_site_label_2
_geom_bond_distance
_geom_bond_site_symmetry_2
Ba0 O8 2.847343 1_555
Ba0 O8 2.847343 1_544
Ba0 O9 2.847343 1_545
Ba0 O9 2.847343 1_556
Ba0 O6 2.847343 1_545
Ba0 O6 2.847343 1_556
Ba0 O7 2.847343 1_555
Ba0 O7 2.847343 1_544
Nb0 O6 1.796168 1_555
Nb0 O5 1.952587 1_555
Nb0 O11 2.017895 1_555
Nb0 O11 2.017895 1_544
Nb0 O0 2.102399 1_555
Nb0 O15 2.494661 1_555
Nb1 O7 1.796168 1_555
Nb1 O4 1.952587 1_555
Nb1 O10 2.017895 1_566
Nb1 O10 2.017895 1_555
Nb1 O1 2.102399 1_555
Nb1 O14 2.494661 1_555
Nb2 O8 1.796168 1_555
Nb2 O5 1.952587 1_455
Nb2 O13 2.017895 1_556
Nb2 O13 2.017895 1_545
Nb2 O2 2.102411 1_555
Nb2 O15 2.494661 1_455
Nb3 O9 1.796168 1_555
Nb3 O4 1.952587 1_655
Nb3 O12 2.017895 1_565
Nb3 O12 2.017895 1_554
Nb3 O3 2.102411 1_555
Nb3 O14 2.494661 1_655
Nb4 O2 1.831410 1_554
Nb4 O0 1.831421 1_555
Nb4 O14 2.019936 1_555
Nb4 O14 2.019936 1_544
Nb4 O12 2.374996 1_454
Nb4 O10 2.374996 1_555
Nb5 O3 1.831410 1_555
Nb5 O1 1.831421 1_554
Nb5 O15 2.019936 1_565
Nb5 O15 2.019936 1_554
Nb5 O13 2.374996 1_655
Nb5 O11 2.374996 1_554
