# generated using pymatgen
data_SrV6O11
_symmetry_space_group_name_H-M   'P 1'
_cell_length_a   5.91083142
_cell_length_b   5.91083142
_cell_length_c   13.41282100
_cell_angle_alpha   90.00000000
_cell_angle_beta   90.00000000
_cell_angle_gamma   119.99999351
_symmetry_Int_Tables_number   1
_chemical_formula_structural   SrV6O11
_chemical_formula_sum   'Sr2 V12 O22'
_cell_volume   405.83353908
_cell_formula_units_Z   2
loop_
 _symmetry_equiv_pos_site_id
 _symmetry_equiv_pos_as_xyz
  1  'x, y, z'
loop_
 _atom_site_type_symbol
 _atom_site_label
 _atom_site_symmetry_multiplicity
 _atom_site_fract_x
 _atom_site_fract_y
 _atom_site_fract_z
 _atom_site_occupancy
  Sr  Sr0  1  0.66666700  0.33333300  0.75000000  1
  Sr  Sr1  1  0.33333300  0.66666700  0.25000000  1
  V  V0  1  0.33333300  0.66666700  0.75000000  1
  V  V1  1  0.66666700  0.33333300  0.25000000  1
  V  V2  1  0.00000000  0.00000000  0.35419100  1
  V  V3  1  0.00000000  0.00000000  0.85419100  1
  V  V4  1  0.00000000  0.00000000  0.64580900  1
  V  V5  1  0.00000000  0.00000000  0.14580900  1
  V  V6  1  0.50000000  0.50000000  0.50000000  1
  V  V7  1  0.00000000  0.50000000  0.00000000  1
  V  V8  1  0.50000000  0.00000000  0.00000000  1
  V  V9  1  0.50000000  0.00000000  0.50000000  1
  V  V10  1  0.00000000  0.50000000  0.50000000  1
  V  V11  1  0.50000000  0.50000000  0.00000000  1
  O  O0  1  0.66666700  0.33333300  0.08467100  1
  O  O1  1  0.33333300  0.66666700  0.58467100  1
  O  O2  1  0.33333300  0.66666700  0.91532900  1
  O  O3  1  0.66666700  0.33333300  0.41532900  1
  O  O4  1  0.85176000  0.14824000  0.25000000  1
  O  O5  1  0.70352100  0.85176000  0.75000000  1
  O  O6  1  0.14824000  0.29647900  0.75000000  1
  O  O7  1  0.85176000  0.70352100  0.25000000  1
  O  O8  1  0.29647900  0.14824000  0.25000000  1
  O  O9  1  0.14824000  0.85176000  0.75000000  1
  O  O10  1  0.17580600  0.35161100  0.42067600  1
  O  O11  1  0.64838900  0.82419400  0.42067600  1
  O  O12  1  0.17580600  0.82419400  0.42067600  1
  O  O13  1  0.82419400  0.17580600  0.92067600  1
  O  O14  1  0.17580600  0.82419400  0.07932400  1
  O  O15  1  0.35161100  0.17580600  0.57932400  1
  O  O16  1  0.82419400  0.64838900  0.57932400  1
  O  O17  1  0.17580600  0.35161100  0.07932400  1
  O  O18  1  0.64838900  0.82419400  0.07932400  1
  O  O19  1  0.35161100  0.17580600  0.92067600  1
  O  O20  1  0.82419400  0.64838900  0.92067600  1
  O  O21  1  0.82419400  0.17580600  0.57932400  1
loop_
_geom_bond_atom_site_label_1
_geom_bond_atom_site_label_2
_geom_bond_distance
_geom_bond_site_symmetry_2
O0 V7 2.049695 1_655
O0 V8 2.049695 1_555
O0 V11 2.049699 1_555
O0 V1 2.217528 1_555
O1 V9 2.049695 1_565
O1 V10 2.049695 1_555
O1 V6 2.049699 1_555
O1 V0 2.217528 1_555
O2 V7 2.049695 1_556
O2 V8 2.049695 1_566
O2 V11 2.049699 1_556
O2 V0 2.217528 1_555
O3 V10 2.049695 1_655
O3 V9 2.049695 1_555
O3 V6 2.049699 1_555
O3 V1 2.217528 1_555
O4 V1 1.894956 1_555
O4 V2 2.063077 1_655
O4 V5 2.063077 1_655
O4 Sr1 2.961431 1_655
O4 Sr1 2.961431 1_545
O5 V0 1.894967 1_555
O5 V3 2.063073 1_665
O5 V4 2.063073 1_665
O5 Sr0 2.961431 1_565
O5 Sr0 2.961431 1_555
O6 V0 1.894967 1_555
O6 V3 2.063073 1_555
O6 V4 2.063073 1_555
O6 Sr0 2.961431 1_455
O6 Sr0 2.961431 1_555
O7 V1 1.894967 1_555
O7 V2 2.063073 1_665
O7 V5 2.063073 1_665
O7 Sr1 2.961431 1_655
O7 Sr1 2.961431 1_555
O8 V1 1.894967 1_555
O8 V2 2.063073 1_555
O8 V5 2.063073 1_555
O8 Sr1 2.961431 1_545
O8 Sr1 2.961431 1_555
O9 V0 1.894956 1_555
O9 V3 2.063077 1_565
O9 V4 2.063077 1_565
O9 Sr0 2.961431 1_565
O9 Sr0 2.961431 1_455
O10 V6 1.972968 1_555
O10 V10 1.972972 1_555
O10 V2 2.008671 1_555
O10 Sr1 2.800288 1_555
O11 V6 1.972968 1_555
O11 V9 1.972972 1_565
O11 V2 2.008671 1_665
O11 Sr1 2.800288 1_555
O12 V9 1.972968 1_565
O12 V10 1.972968 1_555
O12 V2 2.008676 1_565
O12 Sr1 2.800282 1_555
O13 V7 1.972968 1_656
O13 V8 1.972968 1_556
O13 V3 2.008676 1_655
O13 Sr0 2.800282 1_555
O14 V8 1.972968 1_565
O14 V7 1.972968 1_555
O14 V5 2.008676 1_565
O14 Sr1 2.800282 1_555
O15 V6 1.972968 1_555
O15 V9 1.972972 1_555
O15 V4 2.008671 1_555
O15 Sr0 2.800288 1_555
O16 V6 1.972968 1_555
O16 V10 1.972972 1_655
O16 V4 2.008671 1_665
O16 Sr0 2.800288 1_555
O17 V11 1.972968 1_555
O17 V7 1.972972 1_555
O17 V5 2.008671 1_555
O17 Sr1 2.800288 1_555
O18 V11 1.972968 1_555
O18 V8 1.972972 1_565
O18 V5 2.008671 1_665
O18 Sr1 2.800288 1_555
O19 V11 1.972968 1_556
O19 V8 1.972972 1_556
O19 V3 2.008671 1_555
O19 Sr0 2.800288 1_555
O20 V11 1.972968 1_556
O20 V7 1.972972 1_656
O20 V3 2.008671 1_665
O20 Sr0 2.800288 1_555
O21 V10 1.972968 1_655
O21 V9 1.972968 1_555
O21 V4 2.008676 1_655
O21 Sr0 2.800282 1_555
