# generated using pymatgen
data_TaAlCu
_symmetry_space_group_name_H-M   'P 1'
_cell_length_a   5.06533219
_cell_length_b   5.06092481
_cell_length_c   7.92023000
_cell_angle_alpha   90.00000000
_cell_angle_beta   90.00000000
_cell_angle_gamma   120.02951991
_symmetry_Int_Tables_number   1
_chemical_formula_structural   TaAlCu
_chemical_formula_sum   'Ta4 Al4 Cu4'
_cell_volume   175.78304354
_cell_formula_units_Z   4
loop_
 _symmetry_equiv_pos_site_id
 _symmetry_equiv_pos_as_xyz
  1  'x, y, z'
loop_
 _atom_site_type_symbol
 _atom_site_label
 _atom_site_symmetry_multiplicity
 _atom_site_fract_x
 _atom_site_fract_y
 _atom_site_fract_z
 _atom_site_occupancy
  Ta  Ta0  1  0.66566300  0.33133700  0.56398700  1
  Ta  Ta1  1  0.33246100  0.66489600  0.43185900  1
  Ta  Ta2  1  0.33246100  0.66489600  0.06814100  1
  Ta  Ta3  1  0.66566300  0.33133700  0.93601300  1
  Al  Al0  1  0.17000500  0.33999300  0.75000000  1
  Al  Al1  1  0.16918000  0.82904000  0.75000000  1
  Al  Al2  1  0.65986600  0.82902800  0.75000000  1
  Al  Al3  1  0.83068700  0.66142000  0.25000000  1
  Cu  Cu0  1  0.83013300  0.17247500  0.25000000  1
  Cu  Cu1  1  0.34232200  0.17245500  0.25000000  1
  Cu  Cu2  1  0.00078000  0.00156200  0.50004800  1
  Cu  Cu3  1  0.00078000  0.00156200  0.99995200  1
loop_
_geom_bond_atom_site_label_1
_geom_bond_atom_site_label_2
_geom_bond_distance
_geom_bond_site_symmetry_2
Ta0 Ta3 2.946531 1_555
Ta0 Ta1 3.101923 1_545
Ta0 Ta1 3.105668 1_555
Ta0 Ta1 3.105792 1_655
Ta1 Ta2 2.880730 1_555
Ta2 Ta3 3.101923 1_564
Ta2 Ta3 3.105668 1_554
Ta2 Ta3 3.105792 1_454
Al0 Cu3 2.473461 1_555
Al0 Cu2 2.473461 1_555
Al0 Al2 2.477039 1_555
Al0 Al1 2.477124 1_555
Al0 Al1 2.583806 1_545
Al0 Al2 2.583837 1_445
Al0 Ta1 2.894089 1_555
Al0 Ta2 2.894089 1_556
Al0 Ta0 2.930186 1_555
Al0 Ta3 2.930186 1_555
Al0 Ta0 2.930308 1_455
Al0 Ta3 2.930308 1_455
Al1 Cu2 2.480829 1_565
Al1 Cu3 2.480829 1_565
Al1 Al2 2.485518 1_555
Al1 Al2 2.579814 1_455
Al1 Ta1 2.900166 1_555
Al1 Ta2 2.900166 1_556
Al1 Ta3 2.925495 1_565
Al1 Ta0 2.925495 1_565
Al1 Ta3 2.930875 1_455
Al1 Ta0 2.930875 1_455
Al2 Cu2 2.480799 1_665
Al2 Cu3 2.480799 1_665
Al2 Ta2 2.900115 1_556
Al2 Ta1 2.900115 1_555
Al2 Ta0 2.925607 1_565
Al2 Ta3 2.925607 1_565
Al2 Ta0 2.930808 1_555
Al2 Ta3 2.930808 1_555
Al3 Cu1 2.473069 1_555
Al3 Cu0 2.473111 1_555
Al3 Cu2 2.478570 1_665
Al3 Cu3 2.478570 1_664
Al3 Cu1 2.587804 1_665
Al3 Cu0 2.587816 1_565
Al3 Ta3 2.876832 1_554
Al3 Ta0 2.876832 1_555
Al3 Ta1 2.913479 1_555
Al3 Ta2 2.913479 1_555
Al3 Ta1 2.913795 1_655
Al3 Ta2 2.913795 1_655
Cu0 Cu1 2.470874 1_555
Cu0 Cu3 2.483107 1_654
Cu0 Cu2 2.483107 1_655
Cu0 Cu1 2.594458 1_655
Cu0 Ta3 2.862737 1_554
Cu0 Ta0 2.862737 1_555
Cu0 Ta1 2.900482 1_655
Cu0 Ta2 2.900482 1_655
Cu0 Ta2 2.923498 1_545
Cu0 Ta1 2.923498 1_545
Cu1 Cu2 2.483049 1_555
Cu1 Cu3 2.483049 1_554
Cu1 Ta0 2.862748 1_555
Cu1 Ta3 2.862748 1_554
Cu1 Ta1 2.900489 1_555
Cu1 Ta2 2.900489 1_555
Cu1 Ta1 2.923532 1_545
Cu1 Ta2 2.923532 1_545
Cu2 Ta1 2.956206 1_555
Cu2 Ta0 2.959474 1_555
Cu2 Ta0 2.959544 1_455
Cu2 Ta0 2.979992 1_445
Cu2 Ta1 2.980207 1_445
Cu2 Ta1 2.980359 1_545
Cu3 Ta2 2.956206 1_556
Cu3 Ta3 2.959474 1_555
Cu3 Ta3 2.959544 1_455
Cu3 Ta3 2.979992 1_445
Cu3 Ta2 2.980207 1_446
Cu3 Ta2 2.980359 1_546
