# generated using pymatgen
data_Zn10Pd3
_symmetry_space_group_name_H-M   'P 1'
_cell_length_a   7.83058785
_cell_length_b   7.83058785
_cell_length_c   7.77331586
_cell_angle_alpha   70.94937113
_cell_angle_beta   70.94937113
_cell_angle_gamma   109.63035600
_symmetry_Int_Tables_number   1
_chemical_formula_structural   Zn10Pd3
_chemical_formula_sum   'Zn20 Pd6'
_cell_volume   369.96827418
_cell_formula_units_Z   2
loop_
 _symmetry_equiv_pos_site_id
 _symmetry_equiv_pos_as_xyz
  1  'x, y, z'
loop_
 _atom_site_type_symbol
 _atom_site_label
 _atom_site_symmetry_multiplicity
 _atom_site_fract_x
 _atom_site_fract_y
 _atom_site_fract_z
 _atom_site_occupancy
  Zn  Zn0  1  0.00454168  0.00454168  0.79566073  1
  Zn  Zn1  1  0.75945902  0.75945902  0.24059548  1
  Zn  Zn2  1  0.22378080  0.00130225  0.99423673  1
  Zn  Zn3  1  0.00130225  0.22378080  0.99423673  1
  Zn  Zn4  1  0.26002751  0.26002751  0.39997252  1
  Zn  Zn5  1  0.01207155  0.73887875  0.64601941  1
  Zn  Zn6  1  0.73887875  0.01207155  0.64601941  1
  Zn  Zn7  1  0.65380947  0.65380947  0.63686913  1
  Zn  Zn8  1  0.36352927  0.64202571  0.34645567  1
  Zn  Zn9  1  0.64202571  0.36352927  0.34645567  1
  Zn  Zn10  1  0.35689249  0.73562551  0.97458709  1
  Zn  Zn11  1  0.61922500  0.26142950  0.72122497  1
  Zn  Zn12  1  0.35586360  0.00994740  0.27718404  1
  Zn  Zn13  1  0.73562551  0.35689249  0.97458709  1
  Zn  Zn14  1  0.00994740  0.35586360  0.27718404  1
  Zn  Zn15  1  0.26142950  0.61922500  0.72122497  1
  Zn  Zn16  1  0.64601417  0.64601417  0.99443022  1
  Zn  Zn17  1  0.00457497  0.65142901  0.35356484  1
  Zn  Zn18  1  0.65142901  0.00457497  0.35356484  1
  Zn  Zn19  1  0.35425124  0.35425124  0.00929611  1
  Pd  Pd0  1  0.99505245  0.35975774  0.63673863  1
  Pd  Pd1  1  0.35975774  0.99505245  0.63673863  1
  Pd  Pd2  1  0.99971704  0.99971704  0.33805826  1
  Pd  Pd3  1  0.36152713  0.36152713  0.65414318  1
  Pd  Pd4  1  0.64367907  0.98558566  0.01547630  1
  Pd  Pd5  1  0.98558566  0.64367907  0.01547630  1
loop_
_geom_bond_atom_site_label_1
_geom_bond_atom_site_label_2
_geom_bond_distance
_geom_bond_site_symmetry_2
Zn0 Zn4 2.596564 1_555
Zn0 Zn3 2.657869 1_555
Zn0 Zn2 2.657869 1_555
Zn0 Zn16 2.681753 1_445
Zn0 Zn5 2.702126 1_545
Zn0 Zn6 2.702126 1_455
Zn0 Zn1 2.861372 1_446
Zn1 Zn18 2.622441 1_565
Zn1 Zn17 2.622441 1_655
Zn1 Zn16 2.632296 1_554
Zn1 Zn9 2.657058 1_555
Zn1 Zn8 2.657058 1_555
Zn1 Zn7 2.659023 1_555
Zn1 Zn3 2.989018 1_664
Zn1 Zn2 2.989018 1_664
Zn2 Zn3 2.847690 1_555
Zn4 Zn9 2.667632 1_555
Zn4 Zn8 2.667632 1_555
Zn5 Zn7 2.687868 1_455
Zn6 Zn7 2.687868 1_545
Zn10 Zn16 2.620418 1_555
Zn10 Zn15 2.635061 1_555
Zn10 Zn2 2.645452 1_565
Zn10 Zn6 2.685016 1_565
Zn10 Zn14 2.755111 1_556
Zn10 Zn8 2.763394 1_556
Zn10 Zn19 2.901824 1_556
Zn10 Zn17 2.988095 1_556
Zn11 Zn6 2.578611 1_555
Zn11 Zn2 2.625195 1_555
Zn11 Zn13 2.635061 1_555
Zn11 Zn9 2.683636 1_555
Zn11 Zn7 2.820233 1_555
Zn11 Zn19 2.981705 1_556
Zn11 Zn17 3.013394 1_655
Zn12 Zn18 2.580145 1_555
Zn12 Zn4 2.655002 1_555
Zn12 Zn5 2.668730 1_545
Zn12 Zn2 2.728929 1_554
Zn12 Zn13 2.755111 1_554
Zn12 Zn8 2.778223 1_545
Zn12 Zn19 2.824960 1_555
Zn12 Zn17 2.908229 1_545
Zn13 Zn16 2.620418 1_555
Zn13 Zn3 2.645452 1_655
Zn13 Zn5 2.685016 1_655
Zn13 Zn9 2.763394 1_556
Zn13 Zn19 2.901824 1_556
Zn13 Zn18 2.988095 1_556
Zn14 Zn17 2.580145 1_555
Zn14 Zn4 2.655002 1_555
Zn14 Zn6 2.668730 1_455
Zn14 Zn3 2.728929 1_554
Zn14 Zn9 2.778223 1_455
Zn14 Zn19 2.824960 1_555
Zn14 Zn18 2.908229 1_455
Zn15 Zn5 2.578611 1_555
Zn15 Zn3 2.625195 1_555
Zn15 Zn8 2.683636 1_555
Zn15 Zn7 2.820233 1_555
Zn15 Zn19 2.981705 1_556
Zn15 Zn18 3.013394 1_565
Zn16 Zn19 2.569239 1_556
Zn16 Zn7 2.740200 1_555
Zn16 Zn5 2.885507 1_655
Zn16 Zn6 2.885507 1_565
Zn16 Zn8 2.885877 1_556
Zn16 Zn9 2.885877 1_556
Zn16 Zn4 3.103297 1_556
Zn17 Zn5 2.591683 1_555
Zn17 Zn2 2.639881 1_564
Zn17 Zn8 2.819490 1_555
Zn17 Zn7 2.916666 1_455
Zn17 Zn9 3.004773 1_455
Zn18 Zn6 2.591683 1_555
Zn18 Zn3 2.639881 1_654
Zn18 Zn9 2.819490 1_555
Zn18 Zn7 2.916666 1_545
Zn18 Zn8 3.004773 1_545
Zn19 Zn7 2.611989 1_554
Zn19 Zn4 2.649531 1_555
Zn19 Zn3 2.662354 1_554
Zn19 Zn2 2.662354 1_554
Pd0 Zn8 2.551728 1_655
Pd0 Zn17 2.561985 1_655
Pd0 Zn11 2.563354 1_555
Pd0 Zn3 2.655344 1_655
Pd0 Zn0 2.687799 1_655
Pd0 Zn13 2.733579 1_555
Pd0 Zn6 2.747620 1_555
Pd0 Zn14 2.769728 1_655
Pd0 Zn15 2.797884 1_655
Pd0 Zn4 2.799377 1_655
Pd0 Pd3 2.912336 1_655
Pd0 Pd4 2.913234 1_546
Pd0 Zn5 2.952396 1_655
Pd1 Zn9 2.551728 1_565
Pd1 Zn18 2.561985 1_565
Pd1 Zn15 2.563354 1_555
Pd1 Zn2 2.655344 1_565
Pd1 Zn0 2.687799 1_565
Pd1 Zn10 2.733579 1_555
Pd1 Zn5 2.747620 1_555
Pd1 Zn12 2.769728 1_565
Pd1 Zn11 2.797884 1_565
Pd1 Zn4 2.799377 1_565
Pd1 Pd3 2.912336 1_565
Pd1 Pd5 2.913234 1_456
Pd1 Zn6 2.952396 1_565
Pd2 Zn7 2.631519 1_555
Pd2 Zn12 2.640379 1_665
Pd2 Zn14 2.640379 1_665
Pd2 Zn6 2.646492 1_565
Pd2 Zn5 2.646492 1_655
Pd2 Zn4 2.651554 1_665
Pd2 Zn2 2.669099 1_664
Pd2 Zn3 2.669099 1_664
Pd2 Zn1 2.671281 1_555
Pd2 Zn18 2.704115 1_565
Pd2 Zn17 2.704115 1_655
Pd2 Zn19 2.739341 1_665
Pd3 Zn15 2.537942 1_555
Pd3 Zn11 2.537942 1_555
Pd3 Zn7 2.563946 1_555
Pd3 Zn4 2.606300 1_555
Pd3 Zn9 2.658594 1_555
Pd3 Zn8 2.658594 1_555
Pd3 Zn3 2.708361 1_555
Pd3 Zn2 2.708361 1_555
Pd3 Zn19 2.724060 1_556
Pd3 Zn0 2.751976 1_555
Pd3 Zn1 3.186077 1_555
Pd4 Zn8 2.549721 1_555
Pd4 Zn12 2.608358 1_565
Pd4 Zn10 2.625656 1_554
Pd4 Zn13 2.629451 1_564
Pd4 Zn6 2.637471 1_564
Pd4 Zn1 2.666674 1_555
Pd4 Zn11 2.696793 1_564
Pd4 Zn18 2.699204 1_565
Pd4 Zn0 2.706886 1_664
Pd4 Zn3 2.708520 1_664
Pd4 Zn16 2.722556 1_554
Pd5 Zn9 2.549721 1_555
Pd5 Zn14 2.608358 1_655
Pd5 Zn13 2.625656 1_554
Pd5 Zn10 2.629451 1_654
Pd5 Zn5 2.637471 1_654
Pd5 Zn1 2.666674 1_555
Pd5 Zn15 2.696793 1_654
Pd5 Zn17 2.699204 1_655
Pd5 Zn0 2.706886 1_664
Pd5 Zn2 2.708520 1_664
Pd5 Zn16 2.722556 1_554
