# generated using pymatgen
data_In(NF2)3
_symmetry_space_group_name_H-M   'P 1'
_cell_length_a   5.62059664
_cell_length_b   5.62059664
_cell_length_c   5.62059664
_cell_angle_alpha   60.00000000
_cell_angle_beta   60.00000000
_cell_angle_gamma   60.00000000
_symmetry_Int_Tables_number   1
_chemical_formula_structural   In(NF2)3
_chemical_formula_sum   'In1 N3 F6'
_cell_volume   125.55449366
_cell_formula_units_Z   1
loop_
 _symmetry_equiv_pos_site_id
 _symmetry_equiv_pos_as_xyz
  1  'x, y, z'
loop_
 _atom_site_type_symbol
 _atom_site_label
 _atom_site_symmetry_multiplicity
 _atom_site_fract_x
 _atom_site_fract_y
 _atom_site_fract_z
 _atom_site_occupancy
  In  In0  1  0.00000000  0.00000000  0.00000000  1
  N  N0  1  0.75000000  0.75000000  0.75000000  1
  N  N1  1  0.25000000  0.25000000  0.25000000  1
  N  N2  1  0.50000000  0.50000000  0.50000000  1
  F  F0  1  0.73072700  0.73072700  0.26927300  1
  F  F1  1  0.26927300  0.26927300  0.73072700  1
  F  F2  1  0.73072700  0.26927300  0.73072700  1
  F  F3  1  0.26927300  0.73072700  0.26927300  1
  F  F4  1  0.26927300  0.73072700  0.73072700  1
  F  F5  1  0.73072700  0.26927300  0.26927300  1
loop_
_geom_bond_atom_site_label_1
_geom_bond_atom_site_label_2
_geom_bond_distance
_geom_bond_site_symmetry_2
F0 N2 1.833985 1_555
F0 In0 2.140377 1_665
F1 N2 1.833985 1_555
F1 In0 2.140377 1_556
F2 N2 1.833985 1_555
F2 In0 2.140377 1_656
F3 N2 1.833985 1_555
F3 In0 2.140377 1_565
F4 N2 1.833985 1_555
F4 In0 2.140377 1_566
F5 N2 1.833985 1_555
F5 In0 2.140377 1_655
