# generated using pymatgen
data_Mn2BrO3
_symmetry_space_group_name_H-M   'P 1'
_cell_length_a   5.99729100
_cell_length_b   6.75421000
_cell_length_c   8.58650300
_cell_angle_alpha   90.00000000
_cell_angle_beta   90.00000000
_cell_angle_gamma   90.00000000
_symmetry_Int_Tables_number   1
_chemical_formula_structural   Mn2BrO3
_chemical_formula_sum   'Mn8 Br4 O12'
_cell_volume   347.81315799
_cell_formula_units_Z   4
loop_
 _symmetry_equiv_pos_site_id
 _symmetry_equiv_pos_as_xyz
  1  'x, y, z'
loop_
 _atom_site_type_symbol
 _atom_site_label
 _atom_site_symmetry_multiplicity
 _atom_site_fract_x
 _atom_site_fract_y
 _atom_site_fract_z
 _atom_site_occupancy
  Mn  Mn0  1  0.50000000  0.00000000  0.50000000  1
  Mn  Mn1  1  0.00000000  0.50000000  0.00000000  1
  Mn  Mn2  1  0.50000000  0.50000000  0.50000000  1
  Mn  Mn3  1  0.00000000  0.00000000  0.00000000  1
  Mn  Mn4  1  0.69304100  0.25000000  0.25075600  1
  Mn  Mn5  1  0.19304100  0.25000000  0.24924400  1
  Mn  Mn6  1  0.30695900  0.75000000  0.74924400  1
  Mn  Mn7  1  0.80695900  0.75000000  0.75075600  1
  Br  Br0  1  0.84957300  0.75000000  0.45915500  1
  Br  Br1  1  0.34957300  0.75000000  0.04084500  1
  Br  Br2  1  0.15042700  0.25000000  0.54084500  1
  Br  Br3  1  0.65042700  0.25000000  0.95915500  1
  O  O0  1  0.67504500  0.25000000  0.47921700  1
  O  O1  1  0.17504500  0.25000000  0.02078300  1
  O  O2  1  0.32495500  0.75000000  0.52078300  1
  O  O3  1  0.82495500  0.75000000  0.97921700  1
  O  O4  1  0.94717700  0.06271300  0.22354900  1
  O  O5  1  0.44717700  0.43728700  0.27645100  1
  O  O6  1  0.05282300  0.56271300  0.77645100  1
  O  O7  1  0.55282300  0.93728700  0.72354900  1
  O  O8  1  0.05282300  0.93728700  0.77645100  1
  O  O9  1  0.55282300  0.56271300  0.72354900  1
  O  O10  1  0.94717700  0.43728700  0.22354900  1
  O  O11  1  0.44717700  0.06271300  0.27645100  1
loop_
_geom_bond_atom_site_label_1
_geom_bond_atom_site_label_2
_geom_bond_distance
_geom_bond_site_symmetry_2
Mn0 O11 1.991048 1_555
Mn0 O7 1.991048 1_545
Mn0 O0 1.996278 1_555
Mn0 O2 1.996278 1_545
Mn1 O6 1.991048 1_554
Mn1 O10 1.991048 1_455
Mn1 O1 1.996278 1_555
Mn1 O3 1.996278 1_454
Mn2 O9 1.991048 1_555
Mn2 O5 1.991048 1_555
Mn2 O2 1.996278 1_555
Mn2 O0 1.996278 1_555
Mn3 O8 1.991048 1_544
Mn3 O4 1.991048 1_455
Mn3 O1 1.996278 1_555
Mn3 O3 1.996278 1_444
Mn4 O5 1.955261 1_555
Mn4 O11 1.955261 1_555
Mn4 O0 1.964648 1_555
Mn4 O10 1.994418 1_555
Mn4 O4 1.994418 1_555
Mn5 O10 1.955261 1_455
Mn5 O4 1.955261 1_455
Mn5 O1 1.964648 1_555
Mn5 O5 1.994418 1_555
Mn5 O11 1.994418 1_555
Mn6 O7 1.955261 1_555
Mn6 O9 1.955261 1_555
Mn6 O2 1.964648 1_555
Mn6 O6 1.994418 1_555
Mn6 O8 1.994418 1_555
Mn7 O6 1.955261 1_655
Mn7 O8 1.955261 1_655
Mn7 O3 1.964648 1_555
Mn7 O9 1.994418 1_555
Mn7 O7 1.994418 1_555
Br0 Mn7 2.516842 1_555
Br0 Mn0 2.714680 1_565
Br0 Mn2 2.714680 1_555
Br1 Mn6 2.516842 1_554
Br1 Mn3 2.714680 1_565
Br1 Mn1 2.714680 1_555
Br2 Mn5 2.516842 1_555
Br2 Mn0 2.714680 1_555
Br2 Mn2 2.714680 1_555
Br3 Mn4 2.516842 1_556
Br3 Mn1 2.714680 1_656
Br3 Mn3 2.714680 1_656
