# generated using pymatgen
data_Mg2Si
_symmetry_space_group_name_H-M   'P 1'
_cell_length_a   5.90256465
_cell_length_b   5.90256465
_cell_length_c   7.26646516
_cell_angle_alpha   88.87784220
_cell_angle_beta   88.87784220
_cell_angle_gamma   62.66385250
_symmetry_Int_Tables_number   1
_chemical_formula_structural   Mg2Si
_chemical_formula_sum   'Mg8 Si4'
_cell_volume   224.83489979
_cell_formula_units_Z   4
loop_
 _symmetry_equiv_pos_site_id
 _symmetry_equiv_pos_as_xyz
  1  'x, y, z'
loop_
 _atom_site_type_symbol
 _atom_site_label
 _atom_site_symmetry_multiplicity
 _atom_site_fract_x
 _atom_site_fract_y
 _atom_site_fract_z
 _atom_site_occupancy
  Mg  Mg0  1  0.50000000  0.00000000  0.50000000  1
  Mg  Mg1  1  0.00000000  0.50000000  0.50000000  1
  Mg  Mg2  1  0.17547800  0.66694200  0.82320900  1
  Mg  Mg3  1  0.82452200  0.33305800  0.17679100  1
  Mg  Mg4  1  0.33305800  0.82452200  0.17679100  1
  Mg  Mg5  1  0.66694200  0.17547800  0.82320900  1
  Mg  Mg6  1  0.16530400  0.16530400  0.84019700  1
  Mg  Mg7  1  0.83469600  0.83469600  0.15980300  1
  Si  Si0  1  0.33242500  0.33242500  0.16813200  1
  Si  Si1  1  0.66757500  0.66757500  0.83186800  1
  Si  Si2  1  0.00000000  0.00000000  0.50000000  1
  Si  Si3  1  0.50000000  0.50000000  0.50000000  1
loop_
_geom_bond_atom_site_label_1
_geom_bond_atom_site_label_2
_geom_bond_distance
_geom_bond_site_symmetry_2
Mg0 Mg5 2.946687 1_555
Mg0 Mg4 2.946687 1_545
Mg0 Si2 2.951282 1_655
Mg0 Si3 2.951282 1_555
Mg0 Si2 2.951282 1_555
Mg0 Si3 2.951282 1_545
Mg0 Si1 2.961319 1_545
Mg0 Si0 2.961319 1_555
Mg0 Mg6 3.016399 1_555
Mg0 Mg7 3.016399 1_545
Mg1 Mg3 2.946687 1_455
Mg1 Mg2 2.946687 1_555
Mg1 Si3 2.951282 1_455
Mg1 Si3 2.951282 1_555
Mg1 Si2 2.951282 1_555
Mg1 Si2 2.951282 1_565
Mg1 Si0 2.961319 1_555
Mg1 Si1 2.961319 1_455
Mg1 Mg6 3.016399 1_555
Mg1 Mg7 3.016399 1_455
Mg2 Si3 2.887375 1_555
Mg2 Si1 2.908266 1_555
Mg2 Si2 2.915092 1_565
Mg2 Mg6 2.919525 1_565
Mg2 Mg6 2.989109 1_555
Mg2 Si1 2.995646 1_455
Mg2 Mg7 3.013573 1_456
Mg2 Mg5 3.016906 1_555
Mg2 Si0 3.042358 1_556
Mg2 Mg4 3.051768 1_556
Mg2 Mg5 3.121704 1_465
Mg3 Si3 2.887375 1_555
Mg3 Si0 2.908266 1_555
Mg3 Si2 2.915092 1_655
Mg3 Mg7 2.919525 1_545
Mg3 Mg7 2.989109 1_555
Mg3 Si0 2.995646 1_655
Mg3 Mg6 3.013573 1_654
Mg3 Mg4 3.016906 1_555
Mg3 Si1 3.042358 1_554
Mg3 Mg5 3.051768 1_554
Mg3 Mg4 3.121704 1_645
Mg4 Si3 2.887375 1_555
Mg4 Si0 2.908266 1_555
Mg4 Si2 2.915092 1_565
Mg4 Mg7 2.919525 1_455
Mg4 Mg7 2.989109 1_555
Mg4 Si0 2.995646 1_565
Mg4 Mg6 3.013573 1_564
Mg4 Si1 3.042358 1_554
Mg5 Si3 2.887375 1_555
Mg5 Si1 2.908266 1_555
Mg5 Si2 2.915092 1_655
Mg5 Mg6 2.919525 1_655
Mg5 Mg6 2.989109 1_555
Mg5 Si1 2.995646 1_545
Mg5 Mg7 3.013573 1_546
Mg5 Si0 3.042358 1_556
Mg6 Si0 2.949968 1_556
Mg6 Si2 3.013019 1_555
Mg6 Si1 3.069977 1_545
Mg6 Si1 3.069977 1_455
Mg7 Si1 2.949968 1_554
Mg7 Si2 3.013019 1_665
Mg7 Si0 3.069977 1_565
Mg7 Si0 3.069977 1_655
