# generated using pymatgen
data_Na4Si2PbSe6
_symmetry_space_group_name_H-M   'P 1'
_cell_length_a   7.13254872
_cell_length_b   7.13254872
_cell_length_c   8.03462430
_cell_angle_alpha   81.42090891
_cell_angle_beta   81.42090891
_cell_angle_gamma   119.88710771
_symmetry_Int_Tables_number   1
_chemical_formula_structural   Na4Si2PbSe6
_chemical_formula_sum   'Na4 Si2 Pb1 Se6'
_cell_volume   338.30398054
_cell_formula_units_Z   1
loop_
 _symmetry_equiv_pos_site_id
 _symmetry_equiv_pos_as_xyz
  1  'x, y, z'
loop_
 _atom_site_type_symbol
 _atom_site_label
 _atom_site_symmetry_multiplicity
 _atom_site_fract_x
 _atom_site_fract_y
 _atom_site_fract_z
 _atom_site_occupancy
  Na  Na0  1  0.49985300  0.50014700  0.00000000  1
  Na  Na1  1  0.82505200  0.17494800  0.00000000  1
  Na  Na2  1  0.17511900  0.82488100  0.00000000  1
  Na  Na3  1  0.66488000  0.33512000  0.50000000  1
  Si  Si0  1  0.04989000  0.04988400  0.34657300  1
  Si  Si1  1  0.95011600  0.95011000  0.65342700  1
  Pb  Pb0  1  0.33528900  0.66471100  0.50000000  1
  Se  Se0  1  0.77531700  0.77500500  0.25371200  1
  Se  Se1  1  0.22499500  0.22468300  0.74628800  1
  Se  Se2  1  0.08112800  0.38878700  0.25370500  1
  Se  Se3  1  0.38911500  0.08196700  0.25336800  1
  Se  Se4  1  0.91803300  0.61088500  0.74663200  1
  Se  Se5  1  0.61121300  0.91887200  0.74629500  1
loop_
_geom_bond_atom_site_label_1
_geom_bond_atom_site_label_2
_geom_bond_distance
_geom_bond_site_symmetry_2
Na0 Se3 3.004222 1_555
Na0 Se4 3.004222 1_554
Na0 Se5 3.007032 1_554
Na0 Se2 3.007032 1_555
Na0 Se0 3.226079 1_555
Na0 Se1 3.226079 1_554
Na1 Se2 3.013235 1_655
Na1 Se5 3.013235 1_544
Na1 Se1 3.075634 1_654
Na1 Se0 3.075634 1_545
Na1 Se4 3.147326 1_554
Na1 Se3 3.147326 1_555
Na2 Se3 3.014579 1_565
Na2 Se4 3.014579 1_454
Na2 Se1 3.074411 1_564
Na2 Se0 3.074411 1_455
Na2 Se2 3.146758 1_555
Na2 Se5 3.146758 1_554
Na3 Se0 3.098358 1_555
Na3 Se1 3.098358 1_555
Na3 Se4 3.121972 1_555
Na3 Se3 3.121972 1_555
Na3 Se2 3.124986 1_655
Na3 Se5 3.124986 1_545
Si0 Si1 2.353661 1_445
Pb0 Se0 3.099518 1_555
Pb0 Se1 3.099518 1_555
Pb0 Se5 3.122849 1_555
Pb0 Se2 3.122849 1_555
Pb0 Se4 3.131476 1_455
Pb0 Se3 3.131476 1_565
Se0 Si0 2.298212 1_665
Se1 Si1 2.298212 1_445
Se2 Si0 2.307596 1_555
Se3 Si0 2.307346 1_555
Se4 Si1 2.307346 1_555
Se5 Si1 2.307596 1_555
