# generated using pymatgen
data_Na2ZrCd(CO3)8
_symmetry_space_group_name_H-M   'P 1'
_cell_length_a   8.33566233
_cell_length_b   8.33566233
_cell_length_c   25.94349385
_cell_angle_alpha   90.00000000
_cell_angle_beta   90.00000000
_cell_angle_gamma   120.00000453
_symmetry_Int_Tables_number   1
_chemical_formula_structural   Na2ZrCd(CO3)8
_chemical_formula_sum   'Na6 Zr3 Cd3 C24 O72'
_cell_volume   1561.13083400
_cell_formula_units_Z   3
loop_
 _symmetry_equiv_pos_site_id
 _symmetry_equiv_pos_as_xyz
  1  'x, y, z'
loop_
 _atom_site_type_symbol
 _atom_site_label
 _atom_site_symmetry_multiplicity
 _atom_site_fract_x
 _atom_site_fract_y
 _atom_site_fract_z
 _atom_site_occupancy
  Na  Na0  1  -0.00000000  0.00000000  0.50000000  1
  Na  Na1  1  -0.00000000  0.00000000  0.83333300  1
  Na  Na2  1  -0.00000000  0.00000000  0.16666700  1
  Na  Na3  1  -0.00000000  0.00000000  0.00000000  1
  Na  Na4  1  -0.00000000  0.00000000  0.33333300  1
  Na  Na5  1  -0.00000000  0.00000000  0.66666700  1
  Zr  Zr0  1  0.50000000  0.50000000  0.50000000  1
  Zr  Zr1  1  -0.00000000  0.50000000  0.83333300  1
  Zr  Zr2  1  0.50000000  0.00000000  0.16666700  1
  Cd  Cd0  1  0.50000000  0.50000000  0.00000000  1
  Cd  Cd1  1  -0.00000000  0.50000000  0.33333300  1
  Cd  Cd2  1  0.50000000  0.00000000  0.66666700  1
  C  C0  1  0.80065887  0.19734824  0.75203120  1
  C  C1  1  0.39668938  0.19934113  0.08536420  1
  C  C2  1  0.19934113  0.80265176  0.75203120  1
  C  C3  1  0.60331062  0.80265176  0.58130180  1
  C  C4  1  0.80265176  0.60331062  0.41869820  1
  C  C5  1  0.60331062  0.80065887  0.08536420  1
  C  C6  1  0.19734824  0.80065887  0.24796880  1
  C  C7  1  0.39668938  0.19734824  0.58130180  1
  C  C8  1  0.19734824  0.39668938  0.41869820  1
  C  C9  1  0.80265176  0.19934113  0.24796880  1
  C  C10  1  0.19934113  0.39668938  0.91463580  1
  C  C11  1  0.80065887  0.60331062  0.91463580  1
  C  C12  1  0.70029139  0.31261534  0.75039642  1
  C  C13  1  0.61232395  0.29970861  0.08372942  1
  C  C14  1  0.29970861  0.68738466  0.75039642  1
  C  C15  1  0.38767605  0.68738466  0.58293658  1
  C  C16  1  0.68738466  0.38767605  0.41706342  1
  C  C17  1  0.38767605  0.70029139  0.08372942  1
  C  C18  1  0.31261534  0.70029139  0.24960358  1
  C  C19  1  0.61232395  0.31261534  0.58293658  1
  C  C20  1  0.31261534  0.61232395  0.41706342  1
  C  C21  1  0.68738466  0.29970861  0.24960358  1
  C  C22  1  0.29970861  0.61232395  0.91627058  1
  C  C23  1  0.70029139  0.38767605  0.91627058  1
  O  O0  1  0.83292484  0.99076426  0.91784126  1
  O  O1  1  0.15783942  0.16707516  0.25117426  1
  O  O2  1  0.16707516  0.00923574  0.91784126  1
  O  O3  1  0.84216058  0.00923574  0.41549174  1
  O  O4  1  0.00923574  0.84216058  0.58450826  1
  O  O5  1  0.84216058  0.83292484  0.25117426  1
  O  O6  1  0.99076426  0.83292484  0.08215874  1
  O  O7  1  0.15783942  0.99076426  0.41549174  1
  O  O8  1  0.99076426  0.15783942  0.58450826  1
  O  O9  1  0.00923574  0.16707516  0.08215874  1
  O  O10  1  0.16707516  0.15783942  0.74882574  1
  O  O11  1  0.83292484  0.84216058  0.74882574  1
  O  O12  1  0.50000000  0.50000000  0.82002791  1
  O  O13  1  -0.00000000  0.50000000  0.15336091  1
  O  O14  1  -0.00000000  0.50000000  0.51330509  1
  O  O15  1  0.50000000  0.00000000  0.48669491  1
  O  O16  1  0.50000000  0.50000000  0.17997209  1
  O  O17  1  0.50000000  0.00000000  0.84663909  1
  O  O18  1  0.43109474  0.69738713  0.94659053  1
  O  O19  1  0.26629239  0.56890526  0.27992353  1
  O  O20  1  0.56890526  0.30261287  0.94659053  1
  O  O21  1  0.73370761  0.30261287  0.38674247  1
  O  O22  1  0.30261287  0.73370761  0.61325753  1
  O  O23  1  0.73370761  0.43109474  0.27992353  1
  O  O24  1  0.69738713  0.43109474  0.05340947  1
  O  O25  1  0.26629239  0.69738713  0.38674247  1
  O  O26  1  0.69738713  0.26629239  0.61325753  1
  O  O27  1  0.30261287  0.56890526  0.05340947  1
  O  O28  1  0.56890526  0.26629239  0.72007647  1
  O  O29  1  0.43109474  0.73370761  0.72007647  1
  O  O30  1  0.76897654  0.31962299  0.88494393  1
  O  O31  1  0.55064645  0.23102346  0.21827693  1
  O  O32  1  0.23102346  0.68037701  0.88494393  1
  O  O33  1  0.44935355  0.68037701  0.44838907  1
  O  O34  1  0.68037701  0.44935355  0.55161093  1
  O  O35  1  0.44935355  0.76897654  0.21827693  1
  O  O36  1  0.31962299  0.76897654  0.11505607  1
  O  O37  1  0.55064645  0.31962299  0.44838907  1
  O  O38  1  0.31962299  0.55064645  0.55161093  1
  O  O39  1  0.68037701  0.23102346  0.11505607  1
  O  O40  1  0.23102346  0.55064645  0.78172307  1
  O  O41  1  0.76897654  0.44935355  0.78172307  1
  O  O42  1  0.50000000  0.50000000  0.68263129  1
  O  O43  1  -0.00000000  0.50000000  0.01596429  1
  O  O44  1  -0.00000000  0.50000000  0.65070171  1
  O  O45  1  0.50000000  0.00000000  0.34929829  1
  O  O46  1  0.50000000  0.50000000  0.31736871  1
  O  O47  1  0.50000000  0.00000000  0.98403571  1
  O  O48  1  0.90957624  0.23430512  0.79039980  1
  O  O49  1  0.32472888  0.09042376  0.12373280  1
  O  O50  1  0.09042376  0.76569488  0.79039980  1
  O  O51  1  0.67527112  0.76569488  0.54293320  1
  O  O52  1  0.76569488  0.67527112  0.45706680  1
  O  O53  1  0.67527112  0.90957624  0.12373280  1
  O  O54  1  0.23430512  0.90957624  0.20960020  1
  O  O55  1  0.32472888  0.23430512  0.54293320  1
  O  O56  1  0.23430512  0.32472888  0.45706680  1
  O  O57  1  0.76569488  0.09042376  0.20960020  1
  O  O58  1  0.09042376  0.32472888  0.87626720  1
  O  O59  1  0.90957624  0.67527112  0.87626720  1
  O  O60  1  0.77256541  0.08343695  0.71709585  1
  O  O61  1  0.31087154  0.22743460  0.05042885  1
  O  O62  1  0.22743459  0.91656305  0.71709585  1
  O  O63  1  0.68912846  0.91656305  0.61623715  1
  O  O64  1  0.91656305  0.68912846  0.38376285  1
  O  O65  1  0.68912846  0.77256540  0.05042885  1
  O  O66  1  0.08343695  0.77256541  0.28290415  1
  O  O67  1  0.31087154  0.08343695  0.61623715  1
  O  O68  1  0.08343695  0.31087154  0.38376285  1
  O  O69  1  0.91656305  0.22743459  0.28290415  1
  O  O70  1  0.22743460  0.31087154  0.94957115  1
  O  O71  1  0.77256540  0.68912846  0.94957115  1
loop_
_geom_bond_atom_site_label_1
_geom_bond_atom_site_label_2
_geom_bond_distance
_geom_bond_site_symmetry_2
Na0 O3 2.577802 1_455
Na0 O4 2.577802 1_545
Na0 O8 2.577802 1_455
Na0 O7 2.577802 1_545
Na0 O52 2.663726 1_445
Na0 O56 2.663726 1_555
Na0 O55 2.663726 1_555
Na0 O51 2.663726 1_445
Na1 O11 2.577780 1_445
Na1 O10 2.577780 1_555
Na1 O0 2.577802 1_445
Na1 O2 2.577802 1_555
Na1 O48 2.663727 1_455
Na1 O50 2.663727 1_545
Na1 O58 2.663737 1_555
Na1 O59 2.663737 1_445
Na2 O5 2.577780 1_445
Na2 O1 2.577780 1_555
Na2 O6 2.577802 1_445
Na2 O9 2.577802 1_555
Na2 O54 2.663727 1_545
Na2 O57 2.663727 1_455
Na2 O53 2.663737 1_445
Na2 O49 2.663737 1_555
Na3 O6 2.526163 1_445
Na3 O0 2.526163 1_444
Na3 O2 2.526163 1_554
Na3 O9 2.526163 1_555
Na3 O71 2.666092 1_444
Na3 O70 2.666092 1_554
Na3 O65 2.666092 1_445
Na3 O61 2.666092 1_555
Na4 O5 2.526163 1_445
Na4 O1 2.526163 1_555
Na4 O7 2.526163 1_545
Na4 O3 2.526163 1_455
Na4 O69 2.666092 1_455
Na4 O66 2.666092 1_545
Na4 O64 2.666104 1_445
Na4 O68 2.666104 1_555
Na5 O11 2.526163 1_445
Na5 O10 2.526163 1_555
Na5 O8 2.526163 1_455
Na5 O4 2.526163 1_545
Na5 O62 2.666092 1_545
Na5 O60 2.666092 1_455
Na5 O67 2.666104 1_555
Na5 O63 2.666104 1_445
Cd0 O71 2.403586 1_554
Cd0 O61 2.403586 1_555
Cd0 O65 2.403586 1_555
Cd0 O70 2.403586 1_554
Cd0 O20 2.429423 1_554
Cd0 O18 2.429423 1_554
Cd0 O27 2.429423 1_555
Cd0 O24 2.429423 1_555
Cd1 O66 2.403586 1_555
Cd1 O69 2.403586 1_455
Cd1 O64 2.403601 1_455
Cd1 O68 2.403601 1_555
Cd1 O25 2.429423 1_555
Cd1 O21 2.429423 1_455
Cd1 O23 2.429423 1_455
Cd1 O19 2.429423 1_555
Cd2 O60 2.403586 1_555
Cd2 O62 2.403586 1_545
Cd2 O63 2.403601 1_545
Cd2 O67 2.403601 1_555
Cd2 O26 2.429423 1_555
Cd2 O22 2.429423 1_545
Cd2 O28 2.429423 1_555
Cd2 O29 2.429423 1_545
C0 O60 1.247214 1_555
C0 O48 1.276850 1_555
C1 O61 1.247214 1_555
C1 O49 1.276850 1_555
C2 O62 1.247214 1_555
C2 O50 1.276850 1_555
C3 O63 1.247214 1_555
C3 O51 1.276850 1_555
C4 O64 1.247214 1_555
C4 O52 1.276850 1_555
C5 O65 1.247214 1_555
C5 O53 1.276850 1_555
C6 O66 1.247214 1_555
C6 O54 1.276850 1_555
C7 O67 1.247214 1_555
C7 O55 1.276850 1_555
C8 O68 1.247214 1_555
C8 O56 1.276850 1_555
C9 O69 1.247214 1_555
C9 O57 1.276850 1_555
C10 O70 1.247214 1_555
C10 O58 1.276850 1_555
C11 O71 1.247214 1_555
C11 O59 1.276850 1_555
C12 O28 1.242739 1_555
C12 O41 1.278628 1_555
C13 O24 1.242739 1_555
C13 O39 1.278628 1_555
C14 O29 1.242739 1_555
C14 O40 1.278628 1_555
C15 O22 1.242755 1_555
C15 O38 1.278611 1_555
C16 O21 1.242755 1_555
C16 O37 1.278611 1_555
C17 O27 1.242739 1_555
C17 O36 1.278628 1_555
C18 O19 1.242739 1_555
C18 O35 1.278628 1_555
C19 O26 1.242755 1_555
C19 O34 1.278611 1_555
C20 O25 1.242755 1_555
C20 O33 1.278611 1_555
C21 O23 1.242739 1_555
C21 O31 1.278628 1_555
C22 O18 1.242739 1_555
C22 O32 1.278628 1_555
C23 O20 1.242739 1_555
C23 O30 1.278628 1_555
O30 Zr1 2.206020 1_655
O31 Zr2 2.206004 1_555
O32 Zr1 2.206020 1_555
O33 Zr0 2.206020 1_555
O34 Zr0 2.206020 1_555
O35 Zr2 2.206004 1_565
O36 Zr2 2.206020 1_565
O37 Zr0 2.206020 1_555
O38 Zr0 2.206020 1_555
O39 Zr2 2.206020 1_555
O40 Zr1 2.206004 1_555
O41 Zr1 2.206004 1_655
O48 Zr1 2.245997 1_655
O49 Zr2 2.246010 1_555
O50 Zr1 2.245997 1_555
O51 Zr0 2.245997 1_555
O52 Zr0 2.245997 1_555
O53 Zr2 2.246010 1_565
O54 Zr2 2.245997 1_565
O55 Zr0 2.245997 1_555
O56 Zr0 2.245997 1_555
O57 Zr2 2.245997 1_555
O58 Zr1 2.246010 1_555
O59 Zr1 2.246010 1_655
