# generated using pymatgen
data_YbCO4
_symmetry_space_group_name_H-M   'P 1'
_cell_length_a   9.79749400
_cell_length_b   9.79749400
_cell_length_c   7.83673000
_cell_angle_alpha   90.00000000
_cell_angle_beta   90.00000000
_cell_angle_gamma   90.00000000
_symmetry_Int_Tables_number   1
_chemical_formula_structural   YbCO4
_chemical_formula_sum   'Yb8 C8 O32'
_cell_volume   752.25467705
_cell_formula_units_Z   8
loop_
 _symmetry_equiv_pos_site_id
 _symmetry_equiv_pos_as_xyz
  1  'x, y, z'
loop_
 _atom_site_type_symbol
 _atom_site_label
 _atom_site_symmetry_multiplicity
 _atom_site_fract_x
 _atom_site_fract_y
 _atom_site_fract_z
 _atom_site_occupancy
  Yb  Yb0  1  0.74305100  0.25694900  0.00000000  1
  Yb  Yb1  1  0.74305100  0.74305100  0.00000000  1
  Yb  Yb2  1  0.25694900  0.25694900  0.00000000  1
  Yb  Yb3  1  0.25694900  0.74305100  0.00000000  1
  Yb  Yb4  1  0.75694900  0.24305100  0.50000000  1
  Yb  Yb5  1  0.75694900  0.75694900  0.50000000  1
  Yb  Yb6  1  0.24305100  0.24305100  0.50000000  1
  Yb  Yb7  1  0.24305100  0.75694900  0.50000000  1
  C  C0  1  0.74810200  0.00000000  0.16996500  1
  C  C1  1  0.25189800  0.00000000  0.16996500  1
  C  C2  1  0.50000000  0.24810200  0.66996500  1
  C  C3  1  0.50000000  0.75189800  0.66996500  1
  C  C4  1  0.75189800  0.50000000  0.33003500  1
  C  C5  1  0.24810200  0.50000000  0.33003500  1
  C  C6  1  0.00000000  0.25189800  0.83003500  1
  C  C7  1  0.00000000  0.74810200  0.83003500  1
  O  O0  1  0.50000000  0.27268300  0.04386700  1
  O  O1  1  0.50000000  0.72731700  0.04386700  1
  O  O2  1  0.77268300  0.00000000  0.54386700  1
  O  O3  1  0.22731700  0.00000000  0.54386700  1
  O  O4  1  0.00000000  0.22731700  0.45613300  1
  O  O5  1  0.00000000  0.77268300  0.45613300  1
  O  O6  1  0.72731700  0.50000000  0.95613300  1
  O  O7  1  0.27268300  0.50000000  0.95613300  1
  O  O8  1  0.73680300  0.00000000  0.00617300  1
  O  O9  1  0.26319700  0.00000000  0.00617300  1
  O  O10  1  0.50000000  0.23680300  0.50617300  1
  O  O11  1  0.50000000  0.76319700  0.50617300  1
  O  O12  1  0.76319700  0.50000000  0.49382700  1
  O  O13  1  0.23680300  0.50000000  0.49382700  1
  O  O14  1  0.00000000  0.26319700  0.99382700  1
  O  O15  1  0.00000000  0.73680300  0.99382700  1
  O  O16  1  0.74635300  0.38520600  0.24901300  1
  O  O17  1  0.74635300  0.61479400  0.24901300  1
  O  O18  1  0.25364700  0.38520600  0.24901300  1
  O  O19  1  0.25364700  0.61479400  0.24901300  1
  O  O20  1  0.88520600  0.24635300  0.74901300  1
  O  O21  1  0.88520600  0.75364700  0.74901300  1
  O  O22  1  0.11479400  0.24635300  0.74901300  1
  O  O23  1  0.11479400  0.75364700  0.74901300  1
  O  O24  1  0.75364700  0.11479400  0.25098700  1
  O  O25  1  0.75364700  0.88520600  0.25098700  1
  O  O26  1  0.24635300  0.11479400  0.25098700  1
  O  O27  1  0.24635300  0.88520600  0.25098700  1
  O  O28  1  0.61479400  0.25364700  0.75098700  1
  O  O29  1  0.61479400  0.74635300  0.75098700  1
  O  O30  1  0.38520600  0.25364700  0.75098700  1
  O  O31  1  0.38520600  0.74635300  0.75098700  1
loop_
_geom_bond_atom_site_label_1
_geom_bond_atom_site_label_2
_geom_bond_distance
_geom_bond_site_symmetry_2
C0 O8 1.288359 1_555
C0 O25 1.292689 1_545
C0 O24 1.292689 1_555
C1 O9 1.288359 1_555
C1 O27 1.292689 1_545
C1 O26 1.292689 1_555
C2 O10 1.288359 1_555
C2 O28 1.292689 1_555
C2 O30 1.292689 1_555
C3 O11 1.288359 1_555
C3 O29 1.292689 1_555
C3 O31 1.292689 1_555
C4 O12 1.288359 1_555
C4 O17 1.292689 1_555
C4 O16 1.292689 1_555
C5 O13 1.288359 1_555
C5 O19 1.292689 1_555
C5 O18 1.292689 1_555
C6 O14 1.288359 1_555
C6 O20 1.292689 1_455
C6 O22 1.292689 1_555
C7 O15 1.288359 1_555
C7 O21 1.292689 1_455
C7 O23 1.292689 1_555
O0 Yb0 2.410910 1_555
O0 Yb2 2.410910 1_555
O1 Yb3 2.410910 1_555
O1 Yb1 2.410910 1_555
O2 Yb4 2.410910 1_555
O2 Yb5 2.410910 1_545
O3 Yb6 2.410910 1_555
O3 Yb7 2.410910 1_545
O4 Yb6 2.410910 1_555
O4 Yb4 2.410910 1_455
O5 Yb7 2.410910 1_555
O5 Yb5 2.410910 1_455
O6 Yb1 2.410910 1_556
O6 Yb0 2.410910 1_556
O7 Yb2 2.410910 1_556
O7 Yb3 2.410910 1_556
O8 Yb0 2.518665 1_555
O8 Yb1 2.518665 1_545
O9 Yb2 2.518665 1_555
O9 Yb3 2.518665 1_545
O10 Yb6 2.518665 1_555
O10 Yb4 2.518665 1_555
O11 Yb7 2.518665 1_555
O11 Yb5 2.518665 1_555
O12 Yb4 2.518665 1_555
O12 Yb5 2.518665 1_555
O13 Yb7 2.518665 1_555
O13 Yb6 2.518665 1_555
O14 Yb2 2.518665 1_556
O14 Yb0 2.518665 1_456
O15 Yb1 2.518665 1_456
O15 Yb3 2.518665 1_556
O16 Yb0 2.321256 1_555
O16 Yb4 2.412329 1_555
O17 Yb1 2.321256 1_555
O17 Yb5 2.412329 1_555
O18 Yb2 2.321256 1_555
O18 Yb6 2.412329 1_555
O19 Yb3 2.321256 1_555
O19 Yb7 2.412329 1_555
O20 Yb4 2.321256 1_555
O20 Yb0 2.412329 1_556
O21 Yb5 2.321256 1_555
O21 Yb1 2.412329 1_556
O22 Yb6 2.321256 1_555
O22 Yb2 2.412329 1_556
O23 Yb7 2.321256 1_555
O23 Yb3 2.412329 1_556
O24 Yb4 2.321256 1_555
O24 Yb0 2.412329 1_555
O25 Yb5 2.321256 1_555
O25 Yb1 2.412329 1_555
O26 Yb6 2.321256 1_555
O26 Yb2 2.412329 1_555
O27 Yb7 2.321256 1_555
O27 Yb3 2.412329 1_555
O28 Yb0 2.321256 1_556
O28 Yb4 2.412329 1_555
O29 Yb1 2.321256 1_556
O29 Yb5 2.412329 1_555
O30 Yb2 2.321256 1_556
O30 Yb6 2.412329 1_555
O31 Yb3 2.321256 1_556
O31 Yb7 2.412329 1_555
