# generated using pymatgen
data_Sr3Ca5Mn3(FeO4)5
_symmetry_space_group_name_H-M   'P 1'
_cell_length_a   11.02106070
_cell_length_b   11.24994103
_cell_length_c   17.39674331
_cell_angle_alpha   108.91650964
_cell_angle_beta   108.52349671
_cell_angle_gamma   89.85553113
_symmetry_Int_Tables_number   1
_chemical_formula_structural   Sr3Ca5Mn3(FeO4)5
_chemical_formula_sum   'Sr12 Ca20 Mn12 Fe20 O80'
_cell_volume   1922.57973005
_cell_formula_units_Z   4
loop_
 _symmetry_equiv_pos_site_id
 _symmetry_equiv_pos_as_xyz
  1  'x, y, z'
loop_
 _atom_site_type_symbol
 _atom_site_label
 _atom_site_symmetry_multiplicity
 _atom_site_fract_x
 _atom_site_fract_y
 _atom_site_fract_z
 _atom_site_occupancy
  Sr  Sr0  1  0.30841100  0.56056100  0.61013700  1
  Sr  Sr1  1  0.80593200  0.05859300  0.60809300  1
  Sr  Sr2  1  0.80832300  0.56052200  0.61018400  1
  Sr  Sr3  1  0.19555500  0.43402500  0.38671500  1
  Sr  Sr4  1  0.19940600  0.44244100  0.89318600  1
  Sr  Sr5  1  0.69496400  0.93645500  0.38598400  1
  Sr  Sr6  1  0.05860400  0.29830300  0.60858000  1
  Sr  Sr7  1  0.05852200  0.80101600  0.61020000  1
  Sr  Sr8  1  0.55828000  0.29930500  0.61051700  1
  Sr  Sr9  1  0.44906400  0.20112300  0.89090900  1
  Sr  Sr10  1  0.94501100  0.19772900  0.38541200  1
  Sr  Sr11  1  0.94873300  0.20153700  0.89219700  1
  Ca  Ca0  1  0.30404300  0.06529600  0.10751500  1
  Ca  Ca1  1  0.30567300  0.06065700  0.60378600  1
  Ca  Ca2  1  0.30237600  0.56683500  0.10920800  1
  Ca  Ca3  1  0.80438000  0.06338000  0.10636500  1
  Ca  Ca4  1  0.80189000  0.56693400  0.10677600  1
  Ca  Ca5  1  0.20094100  0.93238100  0.39181800  1
  Ca  Ca6  1  0.20150300  0.93860300  0.89722800  1
  Ca  Ca7  1  0.69800400  0.43480900  0.39317000  1
  Ca  Ca8  1  0.70100100  0.43911700  0.89643500  1
  Ca  Ca9  1  0.70065200  0.93747200  0.89502500  1
  Ca  Ca10  1  0.05372000  0.28896500  0.10748800  1
  Ca  Ca11  1  0.05493700  0.79087200  0.10623300  1
  Ca  Ca12  1  0.55284900  0.28948000  0.10592800  1
  Ca  Ca13  1  0.55683100  0.79279100  0.10634700  1
  Ca  Ca14  1  0.55676100  0.79550000  0.60556200  1
  Ca  Ca15  1  0.44694500  0.20712500  0.39226100  1
  Ca  Ca16  1  0.44373700  0.70646000  0.39152100  1
  Ca  Ca17  1  0.45113300  0.70843500  0.89623700  1
  Ca  Ca18  1  0.94495600  0.70916600  0.39230200  1
  Ca  Ca19  1  0.95035800  0.70932900  0.89698100  1
  Mn  Mn0  1  0.11634000  0.09426100  0.75272300  1
  Mn  Mn1  1  0.11360200  0.60274000  0.75297100  1
  Mn  Mn2  1  0.60431700  0.09556400  0.24698200  1
  Mn  Mn3  1  0.60819400  0.09472300  0.75018500  1
  Mn  Mn4  1  0.61370400  0.60464500  0.75402000  1
  Mn  Mn5  1  0.35890000  0.40138100  0.24739600  1
  Mn  Mn6  1  0.36731800  0.40440500  0.75267600  1
  Mn  Mn7  1  0.35438500  0.90397900  0.24908500  1
  Mn  Mn8  1  0.36477500  0.90178400  0.75130400  1
  Mn  Mn9  1  0.86026200  0.40971200  0.75509400  1
  Mn  Mn10  1  0.85937500  0.89510300  0.24538400  1
  Mn  Mn11  1  0.85824900  0.89924200  0.75110900  1
  Fe  Fe0  1  0.00694600  0.00057300  0.00251000  1
  Fe  Fe1  1  0.00473700  0.99898700  0.49800300  1
  Fe  Fe2  1  0.00579400  0.50220500  0.00404700  1
  Fe  Fe3  1  0.00144700  0.49858000  0.49563500  1
  Fe  Fe4  1  0.50592600  0.00015600  0.00168000  1
  Fe  Fe5  1  0.50209200  0.99890500  0.49822900  1
  Fe  Fe6  1  0.50729100  0.50223600  0.00358100  1
  Fe  Fe7  1  0.50289600  0.50045800  0.49743400  1
  Fe  Fe8  1  0.25620400  0.25247300  0.00328700  1
  Fe  Fe9  1  0.25401500  0.24725500  0.49701600  1
  Fe  Fe10  1  0.25666700  0.75287000  0.00272700  1
  Fe  Fe11  1  0.25400800  0.75008200  0.49870800  1
  Fe  Fe12  1  0.75647700  0.25241500  0.00419600  1
  Fe  Fe13  1  0.75160300  0.24922200  0.49762300  1
  Fe  Fe14  1  0.75574000  0.75069500  0.00047700  1
  Fe  Fe15  1  0.75127100  0.74657000  0.49526800  1
  Fe  Fe16  1  0.10883200  0.08331800  0.24646000  1
  Fe  Fe17  1  0.10345600  0.59001000  0.24729000  1
  Fe  Fe18  1  0.60473800  0.58745800  0.24801800  1
  Fe  Fe19  1  0.85100500  0.41165300  0.24782700  1
  O  O0  1  0.12681200  0.11728400  0.48922600  1
  O  O1  1  0.12749000  0.11975100  0.99245200  1
  O  O2  1  0.11929300  0.62349400  0.48665700  1
  O  O3  1  0.12366800  0.62658200  0.99310400  1
  O  O4  1  0.61956600  0.12238300  0.48890300  1
  O  O5  1  0.62846300  0.12176800  0.99479600  1
  O  O6  1  0.62071800  0.61881700  0.48429500  1
  O  O7  1  0.62477100  0.62040100  0.98847700  1
  O  O8  1  0.13713400  0.38366400  0.01810000  1
  O  O9  1  0.13094600  0.37597200  0.50471000  1
  O  O10  1  0.13635900  0.88110100  0.01317800  1
  O  O11  1  0.13325800  0.87733800  0.50255400  1
  O  O12  1  0.63860300  0.38343200  0.01840900  1
  O  O13  1  0.62939700  0.37735500  0.50228600  1
  O  O14  1  0.63540400  0.87909200  0.01250700  1
  O  O15  1  0.62639500  0.87134800  0.50369700  1
  O  O16  1  0.37063200  0.11502300  0.48690500  1
  O  O17  1  0.37396200  0.11789000  0.99220100  1
  O  O18  1  0.37659000  0.62427900  0.48914700  1
  O  O19  1  0.37972500  0.62517200  0.99576400  1
  O  O20  1  0.87470300  0.12014100  0.49325000  1
  O  O21  1  0.87435200  0.11766800  0.99351900  1
  O  O22  1  0.86963900  0.61596000  0.48383600  1
  O  O23  1  0.87425000  0.61913300  0.99043900  1
  O  O24  1  0.38774400  0.38690400  0.01744100  1
  O  O25  1  0.38268800  0.37779600  0.50519900  1
  O  O26  1  0.38542100  0.88307500  0.01199600  1
  O  O27  1  0.38276700  0.88098300  0.50957500  1
  O  O28  1  0.88562300  0.38602400  0.01727700  1
  O  O29  1  0.87715300  0.37901100  0.50173500  1
  O  O30  1  0.88812600  0.88366900  0.01472900  1
  O  O31  1  0.88246900  0.87561200  0.50405700  1
  O  O32  1  0.09632600  0.10285300  0.14098300  1
  O  O33  1  0.08307700  0.08024600  0.63520200  1
  O  O34  1  0.08670600  0.60807500  0.14100200  1
  O  O35  1  0.07015900  0.58580200  0.63403400  1
  O  O36  1  0.57745600  0.09598900  0.13563200  1
  O  O37  1  0.57784400  0.08478300  0.63436200  1
  O  O38  1  0.59180600  0.60767200  0.14246700  1
  O  O39  1  0.57475600  0.59134300  0.63507300  1
  O  O40  1  0.43764600  0.40723600  0.36142300  1
  O  O41  1  0.44625600  0.41101900  0.86840700  1
  O  O42  1  0.43579800  0.90554000  0.36232800  1
  O  O43  1  0.45267900  0.90935600  0.86646700  1
  O  O44  1  0.93989700  0.40246000  0.35672300  1
  O  O45  1  0.94282100  0.41069500  0.86832300  1
  O  O46  1  0.94051100  0.90981600  0.36201400  1
  O  O47  1  0.94410200  0.90633600  0.86661900  1
  O  O48  1  0.33516900  0.28976000  0.13668200  1
  O  O49  1  0.32827200  0.29447300  0.63507200  1
  O  O50  1  0.33060000  0.79393100  0.13741200  1
  O  O51  1  0.32417200  0.79645900  0.63431200  1
  O  O52  1  0.83761900  0.28576900  0.14263000  1
  O  O53  1  0.82308400  0.30655400  0.63687900  1
  O  O54  1  0.83028800  0.78604900  0.13342500  1
  O  O55  1  0.82022100  0.79782800  0.63297100  1
  O  O56  1  0.19664200  0.20050000  0.35709000  1
  O  O57  1  0.19164200  0.20769300  0.86764000  1
  O  O58  1  0.19705300  0.70790300  0.35678400  1
  O  O59  1  0.19999800  0.71115600  0.86763500  1
  O  O60  1  0.68760100  0.20138600  0.36195200  1
  O  O61  1  0.68865800  0.20972100  0.86640400  1
  O  O62  1  0.69735400  0.70464900  0.35663200  1
  O  O63  1  0.70049800  0.71586900  0.86751000  1
  O  O64  1  0.42902100  0.06762400  0.24955900  1
  O  O65  1  0.42800200  0.06449500  0.74301200  1
  O  O66  1  0.43004100  0.56535000  0.24877500  1
  O  O67  1  0.44080300  0.57415800  0.75873100  1
  O  O68  1  0.93363300  0.05451800  0.23970900  1
  O  O69  1  0.93910800  0.05724800  0.75022100  1
  O  O70  1  0.92483100  0.57023300  0.24853500  1
  O  O71  1  0.93990800  0.57386100  0.76025100  1
  O  O72  1  0.17265900  0.43042700  0.24068600  1
  O  O73  1  0.19141900  0.44236300  0.75115900  1
  O  O74  1  0.17451000  0.92288900  0.24777600  1
  O  O75  1  0.19281300  0.93332700  0.76012400  1
  O  O76  1  0.67208700  0.42675400  0.24754100  1
  O  O77  1  0.68646700  0.43927900  0.75928800  1
  O  O78  1  0.68196500  0.93344700  0.24100400  1
  O  O79  1  0.67983600  0.92810500  0.75187800  1
loop_
_geom_bond_atom_site_label_1
_geom_bond_atom_site_label_2
_geom_bond_distance
_geom_bond_site_symmetry_2
Ca0 O64 2.408279 1_555
Ca0 O48 2.411390 1_555
Ca0 O10 2.507961 1_545
Ca0 O32 2.537864 1_555
Ca0 O1 2.546098 1_554
Ca0 O26 2.548935 1_545
Ca0 O17 2.592757 1_554
Ca0 O36 2.897877 1_555
Ca1 O65 2.354492 1_555
Ca1 O27 2.494397 1_545
Ca1 O49 2.503251 1_555
Ca1 O11 2.550296 1_545
Ca1 O0 2.565973 1_555
Ca1 O16 2.598962 1_555
Ca1 O33 2.671474 1_555
Ca1 O37 2.872453 1_555
Ca2 O66 2.393896 1_555
Ca2 O50 2.441076 1_555
Ca2 O8 2.478360 1_555
Ca2 O24 2.526016 1_555
Ca2 O3 2.599337 1_554
Ca2 O34 2.614247 1_555
Ca2 O19 2.638925 1_554
Ca3 O68 2.338803 1_555
Ca3 O52 2.371900 1_555
Ca3 O30 2.513250 1_545
Ca3 O14 2.514958 1_545
Ca3 O5 2.527217 1_554
Ca3 O21 2.561904 1_554
Ca3 O36 2.707743 1_555
Ca4 O54 2.357963 1_555
Ca4 O70 2.395180 1_555
Ca4 O12 2.463080 1_555
Ca4 O28 2.503367 1_555
Ca4 O7 2.579117 1_554
Ca4 O38 2.584568 1_555
Ca4 O23 2.622102 1_554
Ca4 O34 3.010482 1_655
Ca5 O58 2.395153 1_555
Ca5 O74 2.395508 1_555
Ca5 O16 2.511117 1_565
Ca5 O11 2.517918 1_555
Ca5 O0 2.540007 1_565
Ca5 O27 2.588539 1_555
Ca5 O46 2.746665 1_455
Ca5 O42 2.791668 1_555
Ca6 O75 2.337689 1_555
Ca6 O59 2.439932 1_555
Ca6 O1 2.494795 1_565
Ca6 O17 2.504769 1_565
Ca6 O26 2.591542 1_556
Ca6 O10 2.602196 1_556
Ca6 O47 2.717165 1_455
Ca6 O43 2.979968 1_555
Ca7 O76 2.428941 1_555
Ca7 O60 2.498241 1_555
Ca7 O6 2.499033 1_555
Ca7 O29 2.500503 1_555
Ca7 O22 2.501743 1_555
Ca7 O13 2.510552 1_555
Ca7 O40 2.742499 1_555
Ca7 O44 2.925937 1_555
Ca8 O77 2.340560 1_555
Ca8 O61 2.456389 1_555
Ca8 O7 2.481496 1_555
Ca8 O23 2.511892 1_555
Ca8 O28 2.646980 1_556
Ca8 O12 2.675685 1_556
Ca8 O41 2.693471 1_555
Ca8 O45 2.857746 1_555
Ca9 O63 2.381187 1_555
Ca9 O79 2.394213 1_555
Ca9 O21 2.528532 1_565
Ca9 O5 2.545597 1_565
Ca9 O43 2.618305 1_555
Ca9 O14 2.632895 1_556
Ca9 O30 2.655016 1_556
Ca9 O47 2.879460 1_555
Ca10 O72 2.304332 1_555
Ca10 O32 2.357129 1_555
Ca10 O28 2.518112 1_455
Ca10 O8 2.527010 1_555
Ca10 O21 2.569837 1_454
Ca10 O1 2.616445 1_554
Ca10 O52 2.643331 1_455
Ca10 O48 2.979231 1_555
Ca11 O34 2.320728 1_555
Ca11 O74 2.362760 1_555
Ca11 O30 2.492406 1_455
Ca11 O3 2.538669 1_554
Ca11 O10 2.539561 1_555
Ca11 O23 2.589089 1_454
Ca11 O54 2.667986 1_455
Ca11 O50 2.909778 1_555
Ca12 O76 2.380665 1_555
Ca12 O36 2.390854 1_555
Ca12 O24 2.487188 1_555
Ca12 O12 2.508238 1_555
Ca12 O17 2.567515 1_554
Ca12 O5 2.577350 1_554
Ca12 O48 2.618432 1_555
Ca12 O52 3.000462 1_555
Ca13 O78 2.334181 1_555
Ca13 O38 2.360318 1_555
Ca13 O14 2.507534 1_555
Ca13 O19 2.519379 1_554
Ca13 O26 2.528964 1_555
Ca13 O7 2.629902 1_554
Ca13 O50 2.712988 1_555
Ca13 O54 2.903536 1_555
Ca14 O79 2.428759 1_555
Ca14 O39 2.505100 1_555
Ca14 O15 2.511041 1_555
Ca14 O27 2.527404 1_555
Ca14 O18 2.586422 1_555
Ca14 O6 2.667817 1_555
Ca14 O51 2.762637 1_555
Ca14 O55 2.787754 1_555
Ca15 O64 2.414304 1_555
Ca15 O40 2.472522 1_555
Ca15 O4 2.520445 1_555
Ca15 O25 2.545505 1_555
Ca15 O16 2.546040 1_555
Ca15 O13 2.563550 1_555
Ca15 O56 2.624660 1_555
Ca15 O60 2.860498 1_555
Ca16 O66 2.432430 1_555
Ca16 O42 2.447412 1_555
Ca16 O18 2.471235 1_555
Ca16 O6 2.530496 1_555
Ca16 O15 2.545068 1_555
Ca16 O58 2.592126 1_555
Ca16 O27 2.603846 1_555
Ca17 O67 2.345665 1_555
Ca17 O43 2.478409 1_555
Ca17 O7 2.507526 1_555
Ca17 O19 2.532937 1_555
Ca17 O14 2.606417 1_556
Ca17 O26 2.606561 1_556
Ca17 O59 2.653958 1_555
Ca17 O63 2.951383 1_555
Ca18 O70 2.421193 1_555
Ca18 O46 2.475817 1_555
Ca18 O31 2.498833 1_555
Ca18 O22 2.500216 1_555
Ca18 O2 2.515459 1_655
Ca18 O11 2.588991 1_655
Ca18 O62 2.595866 1_555
Ca19 O71 2.338857 1_555
Ca19 O47 2.435350 1_555
Ca19 O3 2.506419 1_655
Ca19 O23 2.513385 1_555
Ca19 O30 2.606567 1_556
Ca19 O10 2.622405 1_656
Ca19 O63 2.641522 1_555
Ca19 O59 2.954700 1_655
Mn0 O57 1.900247 1_555
Mn0 O33 1.911603 1_555
Mn0 O69 1.982153 1_455
Mn0 O75 2.019731 1_545
Mn1 O59 1.896024 1_555
Mn1 O35 1.913676 1_555
Mn1 O73 1.991047 1_555
Mn1 O71 1.992477 1_455
Mn2 O36 1.865945 1_555
Mn2 O60 1.885565 1_555
Mn2 O64 1.974959 1_555
Mn2 O78 1.998778 1_545
Mn3 O37 1.900064 1_555
Mn3 O61 1.928350 1_555
Mn3 O65 1.973189 1_555
Mn3 O79 2.037494 1_545
Mn4 O63 1.892886 1_555
Mn4 O39 1.929710 1_555
Mn4 O67 1.968815 1_555
Mn4 O77 2.041749 1_555
Mn5 O48 1.862359 1_555
Mn5 O40 1.874643 1_555
Mn5 O66 1.996162 1_555
Mn5 O72 2.050017 1_555
Mn6 O41 1.899005 1_555
Mn6 O49 1.924371 1_555
Mn6 O73 1.977831 1_555
Mn6 O67 2.034003 1_555
Mn7 O50 1.869302 1_555
Mn7 O42 1.881760 1_555
Mn7 O74 1.986975 1_555
Mn7 O64 2.014805 1_565
Mn8 O51 1.899197 1_555
Mn8 O43 1.901628 1_555
Mn8 O75 1.971633 1_555
Mn8 O65 2.024495 1_565
Mn9 O45 1.885552 1_555
Mn9 O53 1.914062 1_555
Mn9 O77 1.963311 1_555
Mn9 O71 2.009838 1_555
Mn10 O54 1.859426 1_555
Mn10 O46 1.890493 1_555
Mn10 O78 1.984255 1_555
Mn10 O68 2.017272 1_565
Mn11 O47 1.904737 1_555
Mn11 O55 1.906834 1_555
Mn11 O79 1.995653 1_555
Mn11 O69 1.997159 1_565
Fe0 O30 1.963800 1_445
Fe0 O10 1.964445 1_545
Fe0 O21 1.968225 1_454
Fe0 O1 1.975343 1_554
Fe0 O47 2.128555 1_444
Fe0 O32 2.190485 1_555
Fe1 O11 1.968426 1_555
Fe1 O0 1.968715 1_565
Fe1 O20 1.976431 1_465
Fe1 O31 1.986891 1_455
Fe1 O46 2.122505 1_455
Fe1 O33 2.134925 1_565
Fe2 O23 1.965304 1_454
Fe2 O8 1.977443 1_555
Fe2 O28 1.978086 1_455
Fe2 O3 2.005185 1_554
Fe2 O45 2.122002 1_454
Fe2 O34 2.169302 1_555
Fe3 O22 1.967930 1_455
Fe3 O29 1.972658 1_455
Fe3 O9 1.988097 1_555
Fe3 O2 1.991595 1_555
Fe3 O35 2.155625 1_555
Fe3 O44 2.176524 1_455
Fe4 O26 1.960730 1_545
Fe4 O17 1.968817 1_554
Fe4 O14 1.977993 1_545
Fe4 O5 1.981981 1_554
Fe4 O36 2.102926 1_555
Fe4 O43 2.118720 1_544
Fe5 O16 1.954571 1_565
Fe5 O27 1.967698 1_555
Fe5 O4 1.980115 1_565
Fe5 O15 1.985159 1_555
Fe5 O37 2.122114 1_565
Fe5 O42 2.126704 1_555
Fe6 O24 1.972511 1_555
Fe6 O19 1.974461 1_554
Fe6 O12 1.980870 1_555
Fe6 O7 1.990961 1_554
Fe6 O41 2.114061 1_554
Fe6 O38 2.197679 1_555
Fe7 O13 1.964710 1_555
Fe7 O18 1.972772 1_555
Fe7 O6 1.976369 1_555
Fe7 O25 1.980259 1_555
Fe7 O40 2.128233 1_555
Fe7 O39 2.148929 1_555
Fe8 O8 1.981221 1_555
Fe8 O1 1.983822 1_554
Fe8 O17 1.993408 1_554
Fe8 O24 1.998064 1_555
Fe8 O48 2.099084 1_555
Fe8 O57 2.119654 1_554
Fe9 O16 1.964712 1_555
Fe9 O0 1.970481 1_555
Fe9 O9 1.983496 1_555
Fe9 O25 1.983611 1_555
Fe9 O49 2.155534 1_555
Fe9 O56 2.189884 1_555
Fe10 O10 1.961036 1_555
Fe10 O3 1.973682 1_554
Fe10 O26 1.974123 1_555
Fe10 O19 1.974732 1_554
Fe10 O50 2.110543 1_555
Fe10 O59 2.118328 1_554
Fe11 O11 1.951894 1_555
Fe11 O18 1.958656 1_555
Fe11 O27 1.969182 1_555
Fe11 O2 1.973748 1_555
Fe11 O51 2.116669 1_555
Fe11 O58 2.229878 1_555
Fe12 O12 1.969622 1_555
Fe12 O5 1.971165 1_554
Fe12 O28 1.979934 1_555
Fe12 O21 1.995231 1_554
Fe12 O61 2.156958 1_554
Fe12 O52 2.188101 1_555
Fe13 O13 1.970345 1_555
Fe13 O4 1.976506 1_555
Fe13 O29 1.982737 1_555
Fe13 O20 1.984734 1_555
Fe13 O60 2.116224 1_555
Fe13 O53 2.163890 1_555
Fe14 O14 1.964647 1_555
Fe14 O23 1.973472 1_554
Fe14 O7 1.973932 1_554
Fe14 O30 1.992182 1_555
Fe14 O54 2.092931 1_555
Fe14 O63 2.096134 1_554
Fe15 O6 1.957112 1_555
Fe15 O22 1.966238 1_555
Fe15 O15 1.967520 1_555
Fe15 O31 1.986905 1_555
Fe15 O55 2.144449 1_555
Fe15 O62 2.178459 1_555
Fe16 O32 1.880154 1_555
Fe16 O56 1.885861 1_555
Fe16 O68 1.918712 1_455
Fe16 O74 1.947179 1_545
Fe17 O34 1.876433 1_555
Fe17 O58 1.889947 1_555
Fe17 O72 1.932106 1_555
Fe17 O70 1.989454 1_455
Fe18 O62 1.875227 1_555
Fe18 O38 1.883644 1_555
Fe18 O66 1.946700 1_555
Fe18 O76 1.951147 1_555
Fe19 O44 1.872602 1_555
Fe19 O52 1.877667 1_555
Fe19 O70 1.957442 1_555
Fe19 O76 1.977313 1_555
O0 Sr10 2.616621 1_455
O0 Sr6 2.695542 1_555
O1 Sr11 2.572519 1_455
O2 Sr3 2.605632 1_555
O2 Sr7 2.679766 1_555
O2 Sr0 2.755693 1_555
O3 Sr4 2.566730 1_555
O4 Sr5 2.603786 1_545
O4 Sr8 2.657963 1_555
O4 Sr1 2.698983 1_555
O5 Sr9 2.596010 1_555
O6 Sr2 2.747492 1_555
O8 Sr4 2.740836 1_554
O8 Sr11 2.743875 1_454
O9 Sr6 2.570415 1_555
O9 Sr0 2.602557 1_555
O9 Sr3 2.635822 1_555
O9 Sr10 2.673495 1_455
O11 Sr7 2.636059 1_555
O12 Sr9 2.760060 1_554
O13 Sr2 2.611297 1_555
O13 Sr8 2.635069 1_555
O15 Sr1 2.628329 1_565
O15 Sr5 2.694393 1_555
O16 Sr8 2.739456 1_555
O17 Sr9 2.582157 1_555
O18 Sr3 2.650825 1_555
O18 Sr0 2.737639 1_555
O19 Sr4 2.597802 1_555
O20 Sr5 2.616899 1_545
O20 Sr10 2.621180 1_555
O20 Sr1 2.628157 1_555
O20 Sr6 2.641958 1_655
O21 Sr11 2.582556 1_555
O22 Sr2 2.740762 1_555
O22 Sr7 2.765326 1_655
O24 Sr4 2.718404 1_554
O24 Sr9 2.761436 1_554
O25 Sr8 2.582475 1_555
O25 Sr0 2.595711 1_555
O25 Sr3 2.653317 1_555
O28 Sr11 2.748165 1_554
O29 Sr2 2.590034 1_555
O29 Sr6 2.646090 1_655
O29 Sr10 2.663016 1_555
O31 Sr7 2.568804 1_655
O31 Sr1 2.601989 1_565
O31 Sr5 2.676868 1_555
O33 Sr6 2.637996 1_555
O33 Sr1 2.936886 1_455
O33 Sr7 3.028847 1_545
O35 Sr7 2.581833 1_555
O35 Sr2 2.783385 1_455
O35 Sr0 2.785953 1_555
O35 Sr6 3.116236 1_555
O37 Sr8 2.575370 1_555
O37 Sr1 2.693248 1_555
O39 Sr2 2.745966 1_555
O39 Sr0 2.832549 1_555
O39 Sr8 3.170663 1_555
O40 Sr3 2.838850 1_555
O41 Sr9 2.514218 1_555
O41 Sr4 2.890272 1_555
O42 Sr5 2.759350 1_555
O44 Sr10 2.506762 1_555
O44 Sr3 2.699656 1_655
O45 Sr11 2.515771 1_555
O45 Sr4 2.727467 1_655
O46 Sr5 2.866891 1_555
O46 Sr10 3.129287 1_565
O49 Sr8 2.704645 1_555
O49 Sr6 2.861665 1_555
O49 Sr0 3.158367 1_555
O51 Sr0 2.546006 1_555
O51 Sr7 2.825445 1_555
O53 Sr1 2.665490 1_555
O53 Sr6 2.787408 1_655
O53 Sr8 2.803692 1_555
O53 Sr2 3.035666 1_555
O55 Sr2 2.565945 1_555
O55 Sr7 2.779670 1_655
O55 Sr1 3.097684 1_565
O56 Sr3 2.508687 1_555
O56 Sr10 2.968702 1_455
O57 Sr4 2.528870 1_555
O57 Sr9 2.739870 1_555
O57 Sr11 2.846236 1_455
O60 Sr10 2.736981 1_555
O60 Sr5 3.138416 1_545
O61 Sr11 2.762926 1_555
O61 Sr9 2.811945 1_555
O62 Sr5 2.491361 1_555
O65 Sr9 2.468709 1_555
O67 Sr0 2.486568 1_555
O68 Sr10 2.487494 1_555
O69 Sr11 2.445717 1_555
O69 Sr1 2.446700 1_555
O71 Sr2 2.506541 1_555
O72 Sr3 2.458690 1_555
O73 Sr4 2.443980 1_555
O73 Sr6 2.453610 1_555
O75 Sr7 2.499990 1_555
O77 Sr8 2.493889 1_555
O78 Sr5 2.469445 1_555
