# generated using pymatgen
data_CeB2Ir2Rh
_symmetry_space_group_name_H-M   'P 1'
_cell_length_a   11.04470678
_cell_length_b   11.04470678
_cell_length_c   6.26713600
_cell_angle_alpha   90.00000000
_cell_angle_beta   90.00000000
_cell_angle_gamma   119.98123068
_symmetry_Int_Tables_number   1
_chemical_formula_structural   CeB2Ir2Rh
_chemical_formula_sum   'Ce8 B16 Ir16 Rh8'
_cell_volume   662.20162210
_cell_formula_units_Z   8
loop_
 _symmetry_equiv_pos_site_id
 _symmetry_equiv_pos_as_xyz
  1  'x, y, z'
loop_
 _atom_site_type_symbol
 _atom_site_label
 _atom_site_symmetry_multiplicity
 _atom_site_fract_x
 _atom_site_fract_y
 _atom_site_fract_z
 _atom_site_occupancy
  Ce  Ce0_0  1  0.25000000  0.25000000  0.00000000  1
  Ce  Ce0_1  1  0.25000000  0.25000000  0.50000000  1
  Ce  Ce0_2  1  0.25000000  0.75000000  0.00000000  1
  Ce  Ce0_3  1  0.25000000  0.75000000  0.50000000  1
  Ce  Ce0_4  1  0.75000000  0.25000000  0.00000000  1
  Ce  Ce0_5  1  0.75000000  0.25000000  0.50000000  1
  Ce  Ce0_6  1  0.75000000  0.75000000  0.00000000  1
  Ce  Ce0_7  1  0.75000000  0.75000000  0.50000000  1
  B  B0_0  1  0.08347800  0.41652200  0.00000000  1
  B  B0_1  1  0.08347800  0.41652200  0.50000000  1
  B  B0_2  1  0.08347800  0.91652200  0.00000000  1
  B  B0_3  1  0.08347800  0.91652200  0.50000000  1
  B  B0_4  1  0.58347800  0.41652200  0.00000000  1
  B  B0_5  1  0.58347800  0.41652200  0.50000000  1
  B  B0_6  1  0.58347800  0.91652200  0.00000000  1
  B  B0_7  1  0.58347800  0.91652200  0.50000000  1
  B  B1_0  1  0.41652200  0.08347800  0.00000000  1
  B  B1_1  1  0.41652200  0.08347800  0.50000000  1
  B  B1_2  1  0.41652200  0.58347800  0.00000000  1
  B  B1_3  1  0.41652200  0.58347800  0.50000000  1
  B  B1_4  1  0.91652200  0.08347800  0.00000000  1
  B  B1_5  1  0.91652200  0.08347800  0.50000000  1
  B  B1_6  1  0.91652200  0.58347800  0.00000000  1
  B  B1_7  1  0.91652200  0.58347800  0.50000000  1
  Ir  Ir0_0  1  0.00000000  0.25000000  0.25000000  1
  Ir  Ir0_1  1  0.00000000  0.25000000  0.75000000  1
  Ir  Ir0_2  1  0.00000000  0.75000000  0.25000000  1
  Ir  Ir0_3  1  0.00000000  0.75000000  0.75000000  1
  Ir  Ir0_4  1  0.50000000  0.25000000  0.25000000  1
  Ir  Ir0_5  1  0.50000000  0.25000000  0.75000000  1
  Ir  Ir0_6  1  0.50000000  0.75000000  0.25000000  1
  Ir  Ir0_7  1  0.50000000  0.75000000  0.75000000  1
  Ir  Ir1_0  1  0.25000000  0.00000000  0.25000000  1
  Ir  Ir1_1  1  0.25000000  0.00000000  0.75000000  1
  Ir  Ir1_2  1  0.25000000  0.50000000  0.25000000  1
  Ir  Ir1_3  1  0.25000000  0.50000000  0.75000000  1
  Ir  Ir1_4  1  0.75000000  0.00000000  0.25000000  1
  Ir  Ir1_5  1  0.75000000  0.00000000  0.75000000  1
  Ir  Ir1_6  1  0.75000000  0.50000000  0.25000000  1
  Ir  Ir1_7  1  0.75000000  0.50000000  0.75000000  1
  Rh  Rh0_0  1  0.00000000  0.00000000  0.25000000  1
  Rh  Rh0_1  1  0.00000000  0.00000000  0.75000000  1
  Rh  Rh0_2  1  0.00000000  0.50000000  0.25000000  1
  Rh  Rh0_3  1  0.00000000  0.50000000  0.75000000  1
  Rh  Rh0_4  1  0.50000000  0.00000000  0.25000000  1
  Rh  Rh0_5  1  0.50000000  0.00000000  0.75000000  1
  Rh  Rh0_6  1  0.50000000  0.50000000  0.25000000  1
  Rh  Rh0_7  1  0.50000000  0.50000000  0.75000000  1
loop_
_geom_bond_atom_site_label_1
_geom_bond_atom_site_label_2
_geom_bond_distance
_geom_bond_site_symmetry_2
Ce0_0 Ce0_1 3.133568 1_555
Ce0_0 Ce0_1 3.133568 1_554
Ce0_0 Ir1_3 3.174730 1_554
Ce0_0 Ir0_1 3.174730 1_554
Ce0_0 Ir0_4 3.174730 1_555
Ce0_0 Ir1_1 3.174730 1_554
Ce0_0 Ir0_0 3.174730 1_555
Ce0_0 Ir1_0 3.174730 1_555
Ce0_0 Ir1_2 3.174730 1_555
Ce0_0 Ir0_5 3.174730 1_554
Ce0_0 Rh0_7 3.175411 1_554
Ce0_0 Rh0_0 3.175411 1_555
Ce0_0 Rh0_6 3.175411 1_555
Ce0_0 Rh0_1 3.175411 1_554
Ce0_1 Ir1_1 3.174730 1_555
Ce0_1 Ir0_4 3.174730 1_555
Ce0_1 Ir0_5 3.174730 1_555
Ce0_1 Ir0_0 3.174730 1_555
Ce0_1 Ir1_0 3.174730 1_555
Ce0_1 Ir0_1 3.174730 1_555
Ce0_1 Ir1_2 3.174730 1_555
Ce0_1 Ir1_3 3.174730 1_555
Ce0_1 Rh0_7 3.175411 1_555
Ce0_1 Rh0_0 3.175411 1_555
Ce0_1 Rh0_6 3.175411 1_555
Ce0_1 Rh0_1 3.175411 1_555
Ce0_2 Ce0_3 3.133568 1_554
Ce0_2 Ce0_3 3.133568 1_555
Ce0_2 Ir0_2 3.174730 1_555
Ce0_2 Ir0_3 3.174730 1_554
Ce0_2 Ir1_3 3.174730 1_554
Ce0_2 Ir1_1 3.174730 1_564
Ce0_2 Ir0_7 3.174730 1_554
Ce0_2 Ir0_6 3.174730 1_555
Ce0_2 Ir1_0 3.174730 1_565
Ce0_2 Ir1_2 3.174730 1_555
Ce0_2 Rh0_3 3.175411 1_554
Ce0_2 Rh0_4 3.175411 1_565
Ce0_2 Rh0_5 3.175411 1_564
Ce0_2 Rh0_2 3.175411 1_555
Ce0_3 Ir0_2 3.174730 1_555
Ce0_3 Ir0_3 3.174730 1_555
Ce0_3 Ir0_7 3.174730 1_555
Ce0_3 Ir0_6 3.174730 1_555
Ce0_3 Ir1_1 3.174730 1_565
Ce0_3 Ir1_0 3.174730 1_565
Ce0_3 Ir1_2 3.174730 1_555
Ce0_3 Ir1_3 3.174730 1_555
Ce0_3 Rh0_4 3.175411 1_565
Ce0_3 Rh0_5 3.175411 1_565
Ce0_3 Rh0_3 3.175411 1_555
Ce0_3 Rh0_2 3.175411 1_555
Ce0_4 Ce0_5 3.133568 1_555
Ce0_4 Ce0_5 3.133568 1_554
Ce0_4 Ir1_4 3.174730 1_555
Ce0_4 Ir1_5 3.174730 1_554
Ce0_4 Ir1_7 3.174730 1_554
Ce0_4 Ir0_4 3.174730 1_555
Ce0_4 Ir0_1 3.174730 1_654
Ce0_4 Ir1_6 3.174730 1_555
Ce0_4 Ir0_0 3.174730 1_655
Ce0_4 Ir0_5 3.174730 1_554
Ce0_4 Rh0_4 3.175411 1_555
Ce0_4 Rh0_3 3.175411 1_654
Ce0_4 Rh0_5 3.175411 1_554
Ce0_4 Rh0_2 3.175411 1_655
Ce0_5 Ir1_4 3.174730 1_555
Ce0_5 Ir1_5 3.174730 1_555
Ce0_5 Ir0_4 3.174730 1_555
Ce0_5 Ir1_7 3.174730 1_555
Ce0_5 Ir0_5 3.174730 1_555
Ce0_5 Ir1_6 3.174730 1_555
Ce0_5 Ir0_1 3.174730 1_655
Ce0_5 Ir0_0 3.174730 1_655
Ce0_5 Rh0_3 3.175411 1_655
Ce0_5 Rh0_4 3.175411 1_555
Ce0_5 Rh0_2 3.175411 1_655
Ce0_5 Rh0_5 3.175411 1_555
Ce0_6 Ce0_7 3.133568 1_554
Ce0_6 Ce0_7 3.133568 1_555
Ce0_6 Ir1_7 3.174730 1_554
Ce0_6 Ir1_4 3.174730 1_565
Ce0_6 Ir0_7 3.174730 1_554
Ce0_6 Ir0_6 3.174730 1_555
Ce0_6 Ir0_2 3.174730 1_655
Ce0_6 Ir0_3 3.174730 1_654
Ce0_6 Ir1_6 3.174730 1_555
Ce0_6 Ir1_5 3.174730 1_564
Ce0_6 Rh0_7 3.175411 1_554
Ce0_6 Rh0_1 3.175411 1_664
Ce0_6 Rh0_6 3.175411 1_555
Ce0_6 Rh0_0 3.175411 1_665
Ce0_7 Ir0_7 3.174730 1_555
Ce0_7 Ir1_4 3.174730 1_565
Ce0_7 Ir1_7 3.174730 1_555
Ce0_7 Ir0_6 3.174730 1_555
Ce0_7 Ir0_2 3.174730 1_655
Ce0_7 Ir1_6 3.174730 1_555
Ce0_7 Ir0_3 3.174730 1_655
Ce0_7 Ir1_5 3.174730 1_565
Ce0_7 Rh0_7 3.175411 1_555
Ce0_7 Rh0_6 3.175411 1_555
Ce0_7 Rh0_1 3.175411 1_665
Ce0_7 Rh0_0 3.175411 1_665
B0_0 Ir0_1 2.234443 1_554
B0_0 Ir1_3 2.234443 1_554
B0_0 Ir0_0 2.234443 1_555
B0_0 Ir1_2 2.234443 1_555
B0_0 Rh0_3 2.237080 1_554
B0_0 Rh0_2 2.237080 1_555
B0_0 Ce0_0 3.185263 1_555
B0_0 Ce0_4 3.190319 1_455
B0_0 Ce0_2 3.190319 1_555
B0_1 Ir1_3 2.234443 1_555
B0_1 Ir0_1 2.234443 1_555
B0_1 Ir0_0 2.234443 1_555
B0_1 Ir1_2 2.234443 1_555
B0_1 Rh0_3 2.237080 1_555
B0_1 Rh0_2 2.237080 1_555
B0_1 Ce0_1 3.185263 1_555
B0_1 Ce0_5 3.190319 1_455
B0_1 Ce0_3 3.190319 1_555
B0_2 Ir1_1 2.234443 1_564
B0_2 Ir1_0 2.234443 1_565
B0_2 Ir0_3 2.234443 1_554
B0_2 Ir0_2 2.234443 1_555
B0_2 Rh0_1 2.237080 1_564
B0_2 Rh0_0 2.237080 1_565
B0_2 Ce0_2 3.185263 1_555
B0_2 Ce0_0 3.190319 1_565
B0_2 Ce0_6 3.190319 1_455
B0_3 Ir1_1 2.234443 1_565
B0_3 Ir1_0 2.234443 1_565
B0_3 Ir0_3 2.234443 1_555
B0_3 Ir0_2 2.234443 1_555
B0_3 Rh0_0 2.237080 1_565
B0_3 Rh0_1 2.237080 1_565
B0_3 Ce0_3 3.185263 1_555
B0_3 Ce0_1 3.190319 1_565
B0_3 Ce0_7 3.190319 1_455
B0_4 Ir1_7 2.234443 1_554
B0_4 Ir1_6 2.234443 1_555
B0_4 Ir0_4 2.234443 1_555
B0_4 Ir0_5 2.234443 1_554
B0_4 Rh0_6 2.237080 1_555
B0_4 Rh0_7 2.237080 1_554
B0_4 Ce0_4 3.185263 1_555
B0_4 Ce0_6 3.190319 1_555
B0_4 Ce0_0 3.190319 1_555
B0_5 Ir1_6 2.234443 1_555
B0_5 Ir1_7 2.234443 1_555
B0_5 Ir0_4 2.234443 1_555
B0_5 Ir0_5 2.234443 1_555
B0_5 Rh0_6 2.237080 1_555
B0_5 Rh0_7 2.237080 1_555
B0_5 Ce0_5 3.185263 1_555
B0_5 Ce0_7 3.190319 1_555
B0_5 Ce0_1 3.190319 1_555
B0_6 Ir0_6 2.234443 1_555
B0_6 Ir1_5 2.234443 1_564
B0_6 Ir0_7 2.234443 1_554
B0_6 Ir1_4 2.234443 1_565
B0_6 Rh0_5 2.237080 1_564
B0_6 Rh0_4 2.237080 1_565
B0_6 Ce0_6 3.185263 1_555
B0_6 Ce0_2 3.190319 1_555
B0_6 Ce0_4 3.190319 1_565
B0_7 Ir0_6 2.234443 1_555
B0_7 Ir1_5 2.234443 1_565
B0_7 Ir0_7 2.234443 1_555
B0_7 Ir1_4 2.234443 1_565
B0_7 Rh0_4 2.237080 1_565
B0_7 Rh0_5 2.237080 1_565
B0_7 Ce0_7 3.185263 1_555
B0_7 Ce0_3 3.190319 1_555
B0_7 Ce0_5 3.190319 1_565
B1_0 Ir0_4 2.234443 1_555
B1_0 Ir1_0 2.234443 1_555
B1_0 Ir0_5 2.234443 1_554
B1_0 Ir1_1 2.234443 1_554
B1_0 Rh0_4 2.237080 1_555
B1_0 Rh0_5 2.237080 1_554
B1_0 Ce0_0 3.185263 1_555
B1_0 Ce0_4 3.190319 1_555
B1_0 Ce0_2 3.190319 1_545
B1_1 Ir0_4 2.234443 1_555
B1_1 Ir0_5 2.234443 1_555
B1_1 Ir1_0 2.234443 1_555
B1_1 Ir1_1 2.234443 1_555
B1_1 Rh0_5 2.237080 1_555
B1_1 Rh0_4 2.237080 1_555
B1_1 Ce0_1 3.185263 1_555
B1_1 Ce0_5 3.190319 1_555
B1_1 Ce0_3 3.190319 1_545
B1_2 Ir0_6 2.234443 1_555
B1_2 Ir0_7 2.234443 1_554
B1_2 Ir1_3 2.234443 1_554
B1_2 Ir1_2 2.234443 1_555
B1_2 Rh0_6 2.237080 1_555
B1_2 Rh0_7 2.237080 1_554
B1_2 Ce0_2 3.185263 1_555
B1_2 Ce0_6 3.190319 1_555
B1_2 Ce0_0 3.190319 1_555
B1_3 Ir0_6 2.234443 1_555
B1_3 Ir0_7 2.234443 1_555
B1_3 Ir1_3 2.234443 1_555
B1_3 Ir1_2 2.234443 1_555
B1_3 Rh0_6 2.237080 1_555
B1_3 Rh0_7 2.237080 1_555
B1_3 Ce0_3 3.185263 1_555
B1_3 Ce0_7 3.190319 1_555
B1_3 Ce0_1 3.190319 1_555
B1_4 Ir0_0 2.234443 1_655
B1_4 Ir0_1 2.234443 1_654
B1_4 Ir1_4 2.234443 1_555
B1_4 Ir1_5 2.234443 1_554
B1_4 Rh0_0 2.237080 1_655
B1_4 Rh0_1 2.237080 1_654
B1_4 Ce0_4 3.185263 1_555
B1_4 Ce0_0 3.190319 1_655
B1_4 Ce0_6 3.190319 1_545
B1_5 Ir0_0 2.234443 1_655
B1_5 Ir0_1 2.234443 1_655
B1_5 Ir1_4 2.234443 1_555
B1_5 Ir1_5 2.234443 1_555
B1_5 Rh0_0 2.237080 1_655
B1_5 Rh0_1 2.237080 1_655
B1_5 Ce0_5 3.185263 1_555
B1_5 Ce0_1 3.190319 1_655
B1_5 Ce0_7 3.190319 1_545
B1_6 Ir1_7 2.234443 1_554
B1_6 Ir0_3 2.234443 1_654
B1_6 Ir0_2 2.234443 1_655
B1_6 Ir1_6 2.234443 1_555
B1_6 Rh0_3 2.237080 1_654
B1_6 Rh0_2 2.237080 1_655
B1_6 Ce0_6 3.185263 1_555
B1_6 Ce0_2 3.190319 1_655
B1_6 Ce0_4 3.190319 1_555
B1_7 Ir0_3 2.234443 1_655
B1_7 Ir0_2 2.234443 1_655
B1_7 Ir1_6 2.234443 1_555
B1_7 Ir1_7 2.234443 1_555
B1_7 Rh0_3 2.237080 1_655
B1_7 Rh0_2 2.237080 1_655
B1_7 Ce0_7 3.185263 1_555
B1_7 Ce0_5 3.190319 1_555
B1_7 Ce0_3 3.190319 1_655
