# generated using pymatgen
data_K8Mg(SiO3)8
_symmetry_space_group_name_H-M   'P 1'
_cell_length_a   8.27870833
_cell_length_b   8.26549259
_cell_length_c   10.27637925
_cell_angle_alpha   88.78746941
_cell_angle_beta   88.93043146
_cell_angle_gamma   96.33222022
_symmetry_Int_Tables_number   1
_chemical_formula_structural   K8Mg(SiO3)8
_chemical_formula_sum   'K8 Mg1 Si8 O24'
_cell_volume   698.58534627
_cell_formula_units_Z   1
loop_
 _symmetry_equiv_pos_site_id
 _symmetry_equiv_pos_as_xyz
  1  'x, y, z'
loop_
 _atom_site_type_symbol
 _atom_site_label
 _atom_site_symmetry_multiplicity
 _atom_site_fract_x
 _atom_site_fract_y
 _atom_site_fract_z
 _atom_site_occupancy
  K  K0  1  0.99249559  0.02198922  0.73514123  1
  K  K1  1  0.49218809  0.53734658  0.73982134  1
  K  K2  1  0.96774523  0.01003546  0.26212330  1
  K  K3  1  0.47888555  0.50472486  0.26344623  1
  K  K4  1  0.67662782  0.19530455  0.51624388  1
  K  K5  1  0.17245499  0.77778282  0.98405392  1
  K  K6  1  0.30506565  0.82189927  0.48407091  1
  K  K7  1  0.72705029  0.32441288  0.01589060  1
  Mg  Mg0  1  0.10825943  0.39358079  0.00067505  1
  Si  Si0  1  0.02566631  0.51557711  0.70826335  1
  Si  Si1  1  0.51266505  0.00652779  0.80718053  1
  Si  Si2  1  0.98637248  0.47343724  0.29217052  1
  Si  Si3  1  0.49373982  0.98464395  0.19280022  1
  Si  Si4  1  0.82003179  0.68089274  0.49970848  1
  Si  Si5  1  0.31232584  0.18796722  0.99711872  1
  Si  Si6  1  0.19200329  0.30762942  0.50093991  1
  Si  Si7  1  0.68854915  0.81006220  0.00188345  1
  O  O0  1  0.97662385  0.44809470  0.85454502  1
  O  O1  1  0.48610312  0.96295806  0.65651430  1
  O  O2  1  0.05207545  0.52521871  0.14589742  1
  O  O3  1  0.52395377  0.02509131  0.34350335  1
  O  O4  1  0.86560466  0.57283456  0.62966374  1
  O  O5  1  0.34622460  0.06467308  0.87534572  1
  O  O6  1  0.14511867  0.41584007  0.37254654  1
  O  O7  1  0.66373807  0.94082089  0.11967517  1
  O  O8  1  0.07850072  0.35753078  0.62476768  1
  O  O9  1  0.54871810  0.84234545  0.89297310  1
  O  O10  1  0.93285968  0.63254278  0.37381248  1
  O  O11  1  0.44247646  0.14566946  0.11149303  1
  O  O12  1  0.17143062  0.66348426  0.71392829  1
  O  O13  1  0.66632250  0.14619700  0.79345638  1
  O  O14  1  0.83750702  0.32864039  0.28600178  1
  O  O15  1  0.35291580  0.83205112  0.20702210  1
  O  O16  1  0.85021837  0.87695006  0.51703959  1
  O  O17  1  0.34514546  0.38089668  0.95930263  1
  O  O18  1  0.15921756  0.11205834  0.48323748  1
  O  O19  1  0.66233814  0.62060700  0.04708056  1
  O  O20  1  0.62510582  0.64841902  0.47855694  1
  O  O21  1  0.12150052  0.15513532  0.04070173  1
  O  O22  1  0.38639582  0.34235287  0.52256524  1
  O  O23  1  0.87444587  0.83910700  0.94883810  1
loop_
_geom_bond_atom_site_label_1
_geom_bond_atom_site_label_2
_geom_bond_distance
_geom_bond_site_symmetry_2
K0 O23 2.741559 1_545
K0 O16 2.783657 1_545
K0 O18 2.952768 1_655
K0 O8 2.981010 1_655
K0 O13 3.046609 1_555
K0 O5 3.275229 1_655
K1 O17 2.769125 1_555
K1 O22 2.874569 1_555
K1 O20 2.970635 1_555
K1 O12 2.972305 1_555
K1 O9 2.997740 1_555
K1 O4 3.252627 1_555
K2 O21 2.770516 1_655
K2 O18 2.882294 1_655
K2 O16 2.926755 1_545
K2 O7 2.942744 1_545
K2 O14 2.966728 1_555
K2 O10 3.282296 1_545
K3 O19 2.762372 1_555
K3 O20 2.767025 1_555
K3 O6 2.972116 1_555
K3 O22 3.003992 1_555
K3 O15 3.053219 1_555
K4 O3 2.554460 1_555
K4 O1 2.717286 1_545
K4 O22 2.810049 1_555
K4 O14 2.834591 1_555
K4 O13 2.867352 1_555
K4 O16 3.134176 1_545
K5 O23 2.603082 1_455
K5 O2 2.729378 1_556
K5 O15 2.776101 1_556
K5 O5 2.831240 1_565
K5 O12 2.950998 1_555
K6 O1 2.558729 1_555
K6 O3 2.705425 1_565
K6 O18 2.801453 1_565
K6 O12 2.823110 1_555
K6 O15 2.865338 1_555
K6 O20 3.148826 1_555
K7 O19 2.588338 1_555
K7 O0 2.719855 1_554
K7 O13 2.769408 1_554
K7 O11 2.789729 1_555
K7 O14 2.938385 1_555
Mg0 O2 1.944681 1_555
Mg0 O0 1.945885 1_454
Mg0 O17 2.013409 1_554
Mg0 O21 2.020041 1_555
O0 Si0 1.620950 1_655
O1 Si1 1.610630 1_565
O2 Si2 1.621551 1_455
O3 Si3 1.609559 1_545
O4 Si4 1.663192 1_555
O4 Si0 1.671646 1_655
O5 Si1 1.656682 1_555
O5 Si5 1.669494 1_555
O6 Si6 1.654465 1_555
O6 Si2 1.672700 1_455
O7 Si3 1.661644 1_555
O7 Si7 1.664508 1_555
O8 Si6 1.653904 1_555
O8 Si0 1.671379 1_555
O9 Si1 1.660266 1_565
O9 Si7 1.663662 1_556
O10 Si4 1.662861 1_555
O10 Si2 1.670611 1_555
O11 Si3 1.655432 1_545
O11 Si5 1.666622 1_554
O12 Si0 1.623080 1_555
O13 Si1 1.622739 1_555
O14 Si2 1.623577 1_555
O15 Si3 1.622588 1_555
O16 Si4 1.626275 1_555
O17 Si5 1.625432 1_555
O18 Si6 1.623981 1_555
O19 Si7 1.614151 1_555
O20 Si4 1.625869 1_555
O21 Si5 1.625988 1_554
O22 Si6 1.623525 1_555
O23 Si7 1.613970 1_556
