# generated using pymatgen
data_Ca(AgO2)2
_symmetry_space_group_name_H-M   'P 1'
_cell_length_a   3.87659600
_cell_length_b   7.09777246
_cell_length_c   8.33415139
_cell_angle_alpha   97.08345233
_cell_angle_beta   98.16295178
_cell_angle_gamma   105.53423821
_symmetry_Int_Tables_number   1
_chemical_formula_structural   Ca(AgO2)2
_chemical_formula_sum   'Ca2 Ag4 O8'
_cell_volume   215.54828372
_cell_formula_units_Z   2
loop_
 _symmetry_equiv_pos_site_id
 _symmetry_equiv_pos_as_xyz
  1  'x, y, z'
loop_
 _atom_site_type_symbol
 _atom_site_label
 _atom_site_symmetry_multiplicity
 _atom_site_fract_x
 _atom_site_fract_y
 _atom_site_fract_z
 _atom_site_occupancy
  Ca  Ca0  1  0.30701600  0.35897600  0.68037800  1
  Ca  Ca1  1  0.69298400  0.64102400  0.31962200  1
  Ag  Ag0  1  0.65952300  0.95756200  0.67148500  1
  Ag  Ag1  1  0.09225900  0.30838400  0.02446400  1
  Ag  Ag2  1  0.90774100  0.69161600  0.97553600  1
  Ag  Ag3  1  0.34047700  0.04243800  0.32851500  1
  O  O0  1  0.87774500  0.90170300  0.16142300  1
  O  O1  1  0.56413400  0.71559000  0.77516200  1
  O  O2  1  0.43586600  0.28441000  0.22483800  1
  O  O3  1  0.12225500  0.09829700  0.83857700  1
  O  O4  1  0.29484400  0.80502900  0.46073300  1
  O  O5  1  0.87697200  0.42724300  0.83671600  1
  O  O6  1  0.70515600  0.19497100  0.53926700  1
  O  O7  1  0.12302800  0.57275700  0.16328400  1
loop_
_geom_bond_atom_site_label_1
_geom_bond_atom_site_label_2
_geom_bond_distance
_geom_bond_site_symmetry_2
Ca0 O5 2.295129 1_555
Ca0 O5 2.367594 1_455
Ca0 O6 2.368588 1_455
Ca0 O3 2.415513 1_555
Ca0 O1 2.440539 1_555
Ca0 O6 2.502092 1_555
Ca1 O7 2.295129 1_555
Ca1 O7 2.367594 1_655
Ca1 O4 2.368588 1_655
Ca1 O0 2.415513 1_555
Ca1 O2 2.440539 1_555
Ca1 O4 2.502092 1_555
Ag0 O1 1.987354 1_555
Ag0 O3 2.035348 1_665
Ag0 O4 2.064423 1_555
Ag0 O6 2.106810 1_565
Ag1 O2 2.037591 1_555
Ag1 O7 2.044347 1_555
Ag1 O5 2.046568 1_454
Ag1 O3 2.052168 1_554
Ag2 O1 2.037591 1_555
Ag2 O5 2.044347 1_555
Ag2 O7 2.046568 1_656
Ag2 O0 2.052168 1_556
Ag3 O2 1.987354 1_555
Ag3 O0 2.035348 1_445
Ag3 O6 2.064423 1_555
Ag3 O4 2.106810 1_545
