# generated using pymatgen
data_CoSb3
_symmetry_space_group_name_H-M   'P 1'
_cell_length_a   7.84024960
_cell_length_b   7.84033647
_cell_length_c   7.84029276
_cell_angle_alpha   109.47142714
_cell_angle_beta   109.47099686
_cell_angle_gamma   109.47124304
_symmetry_Int_Tables_number   1
_chemical_formula_structural   CoSb3
_chemical_formula_sum   'Co4 Sb12'
_cell_volume   371.00088994
_cell_formula_units_Z   4
loop_
 _symmetry_equiv_pos_site_id
 _symmetry_equiv_pos_as_xyz
  1  'x, y, z'
loop_
 _atom_site_type_symbol
 _atom_site_label
 _atom_site_symmetry_multiplicity
 _atom_site_fract_x
 _atom_site_fract_y
 _atom_site_fract_z
 _atom_site_occupancy
  Co  Co0  1  0.49999822  0.49999926  0.49999902  1
  Co  Co1  1  0.00000049  0.50000182  0.00000076  1
  Co  Co2  1  -0.00000006  -0.00000038  0.50000115  1
  Co  Co3  1  0.50000094  0.99999966  0.00000026  1
  Sb  Sb0  1  0.49259228  0.15874925  0.33386421  1
  Sb  Sb1  1  0.15872563  0.66613460  0.82488878  1
  Sb  Sb2  1  0.33384006  0.17510957  0.84124738  1
  Sb  Sb3  1  0.84125538  0.66615262  0.50740537  1
  Sb  Sb4  1  0.66615986  0.82488727  0.15875306  1
  Sb  Sb5  1  0.84127439  0.33386662  0.17510996  1
  Sb  Sb6  1  0.66615767  0.50740536  0.84126026  1
  Sb  Sb7  1  0.33384019  0.49259228  0.15873665  1
  Sb  Sb8  1  0.15874190  0.33384632  0.49259472  1
  Sb  Sb9  1  0.82490346  0.15875423  0.66615766  1
  Sb  Sb10  1  0.17509919  0.84124991  0.33384479  1
  Sb  Sb11  1  0.50740940  0.84125260  0.66613498  1
loop_
_geom_bond_atom_site_label_1
_geom_bond_atom_site_label_2
_geom_bond_distance
_geom_bond_site_symmetry_2
Co0 Sb0 2.526073 1_555
Co0 Sb11 2.526077 1_555
Co0 Sb3 2.526122 1_555
Co0 Sb8 2.526124 1_555
Co0 Sb6 2.526174 1_555
Co0 Sb7 2.526177 1_555
Co1 Sb5 2.526014 1_455
Co1 Sb1 2.526019 1_554
Co1 Sb7 2.526050 1_555
Co1 Sb6 2.526052 1_454
Co1 Sb9 2.526077 1_454
Co1 Sb10 2.526080 1_555
Co2 Sb2 2.526036 1_555
Co2 Sb4 2.526040 1_445
Co2 Sb3 2.526108 1_445
Co2 Sb8 2.526112 1_555
Co2 Sb10 2.526118 1_545
Co2 Sb9 2.526119 1_455
Co3 Sb0 2.526234 1_565
Co3 Sb2 2.526239 1_564
Co3 Sb11 2.526239 1_554
Co3 Sb4 2.526247 1_555
Co3 Sb1 2.526256 1_554
Co3 Sb5 2.526258 1_565
