# generated using pymatgen
data_ErFe2Co2B
_symmetry_space_group_name_H-M   'P 1'
_cell_length_a   4.98146240
_cell_length_b   4.98141823
_cell_length_c   6.93962601
_cell_angle_alpha   89.99383737
_cell_angle_beta   89.99317703
_cell_angle_gamma   60.80268258
_symmetry_Int_Tables_number   1
_chemical_formula_structural   ErFe2Co2B
_chemical_formula_sum   'Er2 Fe4 Co4 B2'
_cell_volume   150.32553764
_cell_formula_units_Z   2
loop_
 _symmetry_equiv_pos_site_id
 _symmetry_equiv_pos_as_xyz
  1  'x, y, z'
loop_
 _atom_site_type_symbol
 _atom_site_label
 _atom_site_symmetry_multiplicity
 _atom_site_fract_x
 _atom_site_fract_y
 _atom_site_fract_z
 _atom_site_occupancy
  Er  Er0  1  0.99993000  0.99996900  0.00218700  1
  Er  Er1  1  0.00000400  0.00000400  0.49575500  1
  Fe  Fe0  1  0.50004000  0.50003200  0.28280800  1
  Fe  Fe1  1  0.49995000  0.99999500  0.71579400  1
  Fe  Fe2  1  0.99998300  0.49996000  0.71586300  1
  Fe  Fe3  1  0.49995300  0.49997200  0.71366000  1
  Co  Co0  1  0.66325500  0.66370900  0.00012900  1
  Co  Co1  1  0.33664800  0.33630600  0.00026600  1
  Co  Co2  1  0.50006200  0.00000000  0.28894400  1
  Co  Co3  1  0.99999600  0.50005300  0.28883100  1
  B  B0  1  0.66930900  0.66920600  0.49789700  1
  B  B1  1  0.33067100  0.33079300  0.49786600  1
loop_
_geom_bond_atom_site_label_1
_geom_bond_atom_site_label_2
_geom_bond_distance
_geom_bond_site_symmetry_2
Er1 Fe1 2.921454 1_545
Er1 Fe1 2.921640 1_445
Er1 Fe2 2.921688 1_455
Er1 Fe2 2.921869 1_445
Er1 Fe0 2.922091 1_455
Er1 Fe0 2.922097 1_545
Er1 Fe3 2.939618 1_545
Er1 Fe3 2.939671 1_455
Co0 Fe0 2.412486 1_555
Co0 Fe3 2.434585 1_554
Co0 Fe1 2.455923 1_554
Co0 Fe2 2.456667 1_554
Co0 Co2 2.481118 1_565
Co0 Co3 2.481668 1_555
Co0 Er0 2.885222 1_455
Co0 Er0 2.887025 1_545
Co0 Er0 2.891303 1_555
Co1 Fe0 2.412579 1_555
Co1 Fe3 2.434891 1_554
Co1 Fe1 2.456886 1_544
Co1 Fe2 2.457448 1_454
Co1 Co2 2.480252 1_555
Co1 Co3 2.480490 1_455
Co1 Er0 2.885043 1_545
Co1 Er0 2.886696 1_455
Co1 Er0 2.891811 1_445
Co2 Er1 2.874539 1_655
Co2 Er1 2.874727 1_555
Co3 Er1 2.874945 1_665
Co3 Er1 2.875066 1_655
B0 Co2 2.042827 1_565
B0 Co3 2.043041 1_555
B0 Fe0 2.083987 1_555
B0 Fe1 2.087448 1_555
B0 Fe2 2.087474 1_555
B0 Fe3 2.087506 1_555
B0 Er1 2.842142 1_665
B0 Er1 2.910143 1_655
B0 Er1 2.910619 1_565
B1 Co2 2.042795 1_555
B1 Co3 2.043012 1_455
B1 Fe0 2.084054 1_555
B1 Fe2 2.087511 1_455
B1 Fe1 2.087511 1_545
B1 Fe3 2.087549 1_555
B1 Er1 2.841986 1_555
B1 Er1 2.910178 1_565
B1 Er1 2.910736 1_655
