# generated using pymatgen
data_Li4MnCo2O7
_symmetry_space_group_name_H-M   'P 1'
_cell_length_a   2.91228800
_cell_length_b   10.69645671
_cell_length_c   8.32644668
_cell_angle_alpha   78.32209511
_cell_angle_beta   90.00000000
_cell_angle_gamma   82.17584150
_symmetry_Int_Tables_number   1
_chemical_formula_structural   Li4MnCo2O7
_chemical_formula_sum   'Li8 Mn2 Co4 O14'
_cell_volume   251.54339272
_cell_formula_units_Z   2
loop_
 _symmetry_equiv_pos_site_id
 _symmetry_equiv_pos_as_xyz
  1  'x, y, z'
loop_
 _atom_site_type_symbol
 _atom_site_label
 _atom_site_symmetry_multiplicity
 _atom_site_fract_x
 _atom_site_fract_y
 _atom_site_fract_z
 _atom_site_occupancy
  Li  Li0  1  0.42099500  0.15800900  0.23599400  1
  Li  Li1  1  0.28265300  0.43469200  0.62590800  1
  Li  Li2  1  0.14970400  0.70059200  0.07292900  1
  Li  Li3  1  0.99975200  0.00049600  0.50261600  1
  Li  Li4  1  0.85075800  0.29848400  0.93239000  1
  Li  Li5  1  0.71819900  0.56360300  0.35895300  1
  Li  Li6  1  0.57791300  0.84417500  0.78288100  1
  Li  Li7  1  0.85563900  0.28872200  0.42444300  1
  Mn  Mn0  1  0.99956200  0.00087500  0.99701100  1
  Mn  Mn1  1  0.42689300  0.14621400  0.70137200  1
  Co  Co0  1  0.71741700  0.56516700  0.86110800  1
  Co  Co1  1  0.57096600  0.85806800  0.28821700  1
  Co  Co2  1  0.28844700  0.42310500  0.16789500  1
  Co  Co3  1  0.14289200  0.71421600  0.57410600  1
  O  O0  1  0.43686600  0.12626700  0.95590700  1
  O  O1  1  0.28464300  0.43071400  0.38249800  1
  O  O2  1  0.14794300  0.70411600  0.82127800  1
  O  O3  1  0.00475800  0.99048400  0.23198700  1
  O  O4  1  0.86715900  0.26568100  0.68487700  1
  O  O5  1  0.71846700  0.56306400  0.10212000  1
  O  O6  1  0.57533400  0.84933300  0.53982600  1
  O  O7  1  0.43137400  0.13725300  0.48681300  1
  O  O8  1  0.28153700  0.43692700  0.88810800  1
  O  O9  1  0.13375700  0.73248800  0.32095800  1
  O  O10  1  0.99284200  0.01431600  0.75838600  1
  O  O11  1  0.85362100  0.29275800  0.17372800  1
  O  O12  1  0.70860100  0.58279800  0.60497400  1
  O  O13  1  0.56130900  0.87738200  0.02271900  1
loop_
_geom_bond_atom_site_label_1
_geom_bond_atom_site_label_2
_geom_bond_distance
_geom_bond_site_symmetry_2
Li0 O11 2.031155 1_455
Li0 O11 2.031157 1_555
Li0 O7 2.054804 1_555
Li0 O3 2.301554 1_545
Li0 O3 2.301556 1_645
Li0 O0 2.423327 1_554
Li1 O1 2.035771 1_555
Li1 O12 2.121828 1_455
Li1 O12 2.121832 1_555
Li1 O8 2.188156 1_555
Li1 O4 2.282486 1_455
Li1 O4 2.282488 1_555
Li2 O5 2.039264 1_555
Li2 O5 2.039269 1_455
Li2 O2 2.088049 1_554
Li2 O9 2.159752 1_555
Li2 O13 2.341966 1_455
Li2 O13 2.341966 1_555
Li3 O7 2.039588 1_555
Li3 O7 2.039590 1_655
Li3 O6 2.139974 1_545
Li3 O6 2.139976 1_645
Li3 O10 2.164330 1_555
Li3 O3 2.277424 1_645
Li4 O11 1.997974 1_556
Li4 O8 2.046348 1_555
Li4 O8 2.046350 1_655
Li4 O4 2.158910 1_555
Li4 O0 2.311528 1_655
Li4 O0 2.311530 1_555
Li5 O1 2.007243 1_655
Li5 O1 2.007246 1_555
Li5 O12 2.099503 1_555
Li5 O5 2.139681 1_555
Li5 O9 2.278584 1_555
Li5 O9 2.278585 1_655
Li6 O6 2.013328 1_555
Li6 O2 2.057057 1_555
Li6 O2 2.057059 1_655
Li6 O13 2.097374 1_556
Li6 O10 2.293985 1_565
Li6 O10 2.293986 1_465
Li7 O1 2.071626 1_555
Li7 O1 2.071626 1_655
Li7 O11 2.079248 1_555
Li7 O4 2.132044 1_555
Li7 O7 2.150761 1_555
Li7 O7 2.150763 1_655
Mn0 O3 1.937019 1_646
Mn0 O13 1.940166 1_546
Mn0 O13 1.940169 1_646
Mn0 O0 1.953785 1_555
Mn0 O0 1.953785 1_655
Mn0 O10 1.962756 1_555
Mn1 O7 1.808306 1_555
Mn1 O4 1.915950 1_555
Mn1 O4 1.915952 1_455
Mn1 O10 2.007030 1_455
Mn1 O10 2.007030 1_555
Mn1 O0 2.086471 1_555
Co0 O8 1.973015 1_655
Co0 O8 1.973015 1_555
Co0 O5 2.002339 1_556
Co0 O2 2.049106 1_555
Co0 O2 2.049108 1_655
Co0 O12 2.102484 1_555
Co1 O9 1.953800 1_555
Co1 O9 1.953805 1_655
Co1 O3 2.009992 1_555
Co1 O3 2.009992 1_655
Co1 O6 2.078073 1_555
Co1 O13 2.178073 1_555
Co2 O1 1.805081 1_555
Co2 O11 2.000802 1_455
Co2 O11 2.000804 1_555
Co2 O5 2.070762 1_555
Co2 O5 2.070764 1_455
Co2 O8 2.304171 1_554
Co3 O12 1.994880 1_555
Co3 O12 1.994880 1_455
Co3 O6 2.021120 1_455
Co3 O6 2.021122 1_555
Co3 O2 2.038891 1_555
Co3 O9 2.076930 1_555
