# generated using pymatgen
data_Ho4MgS7
_symmetry_space_group_name_H-M   'P 1'
_cell_length_a   6.56638947
_cell_length_b   6.56638947
_cell_length_c   11.45619974
_cell_angle_alpha   75.75748354
_cell_angle_beta   75.75748354
_cell_angle_gamma   33.57968681
_symmetry_Int_Tables_number   1
_chemical_formula_structural   Ho4MgS7
_chemical_formula_sum   'Ho4 Mg1 S7'
_cell_volume   264.03334728
_cell_formula_units_Z   1
loop_
 _symmetry_equiv_pos_site_id
 _symmetry_equiv_pos_as_xyz
  1  'x, y, z'
loop_
 _atom_site_type_symbol
 _atom_site_label
 _atom_site_symmetry_multiplicity
 _atom_site_fract_x
 _atom_site_fract_y
 _atom_site_fract_z
 _atom_site_occupancy
  Ho  Ho0  1  0.69290500  0.69290500  0.20363500  1
  Ho  Ho1  1  0.30659400  0.30659400  0.80205500  1
  Ho  Ho2  1  0.99970800  0.99970800  0.00523100  1
  Ho  Ho3  1  0.11371100  0.11371100  0.56811100  1
  Mg  Mg0  1  0.88559200  0.88559200  0.42158200  1
  S  S0  1  0.74320000  0.74320000  0.64112700  1
  S  S1  1  0.26653700  0.26653700  0.35255400  1
  S  S2  1  0.33897400  0.33897400  0.05052500  1
  S  S3  1  0.65963100  0.65963100  0.94861000  1
  S  S4  1  0.03606600  0.03606600  0.22339300  1
  S  S5  1  0.96198900  0.96198900  0.78493500  1
  S  S6  1  0.49509300  0.49509300  0.49824100  1
loop_
_geom_bond_atom_site_label_1
_geom_bond_atom_site_label_2
_geom_bond_distance
_geom_bond_site_symmetry_2
Ho0 S4 2.703350 1_565
Ho0 S4 2.703350 1_655
Ho0 S1 2.859577 1_565
Ho0 S1 2.859577 1_655
Ho0 S2 2.896832 1_655
Ho0 S2 2.896832 1_565
Ho0 S3 3.055988 1_554
Ho1 S5 2.693793 1_455
Ho1 S5 2.693793 1_545
Ho1 S3 2.869917 1_545
Ho1 S3 2.869917 1_455
Ho1 S0 2.896077 1_545
Ho1 S0 2.896077 1_455
Ho1 S2 2.977253 1_556
Ho2 S4 2.653810 1_665
Ho2 S5 2.685030 1_554
Ho2 S3 2.718661 1_654
Ho2 S3 2.718661 1_564
Ho2 S2 2.722518 1_655
Ho2 S2 2.722518 1_565
Ho3 S6 2.660121 1_545
Ho3 S6 2.660121 1_455
Ho3 S1 2.711374 1_555
Ho3 S5 2.715453 1_445
Ho3 S0 2.765501 1_455
Ho3 S0 2.765501 1_545
Mg0 S4 2.554735 1_665
Mg0 S6 2.624103 1_565
Mg0 S6 2.624103 1_655
Mg0 S1 2.659352 1_565
Mg0 S1 2.659352 1_655
Mg0 S0 2.686413 1_555
