# generated using pymatgen
data_Mg14CrCoO16
_symmetry_space_group_name_H-M   'P 1'
_cell_length_a   8.52147421
_cell_length_b   8.54669819
_cell_length_c   4.26984404
_cell_angle_alpha   90.00000000
_cell_angle_beta   90.00000000
_cell_angle_gamma   90.00000000
_symmetry_Int_Tables_number   1
_chemical_formula_structural   Mg14CrCoO16
_chemical_formula_sum   'Mg14 Cr1 Co1 O16'
_cell_volume   310.97474060
_cell_formula_units_Z   1
loop_
 _symmetry_equiv_pos_site_id
 _symmetry_equiv_pos_as_xyz
  1  'x, y, z'
loop_
 _atom_site_type_symbol
 _atom_site_label
 _atom_site_symmetry_multiplicity
 _atom_site_fract_x
 _atom_site_fract_y
 _atom_site_fract_z
 _atom_site_occupancy
  Mg  Mg0  1  0.50000000  0.00000000  0.00000000  1
  Mg  Mg1  1  0.50000000  0.50000000  0.00000000  1
  Mg  Mg2  1  0.00000000  0.24472038  0.50000000  1
  Mg  Mg3  1  0.00000000  0.75527962  0.50000000  1
  Mg  Mg4  1  0.50000000  0.24879477  0.50000000  1
  Mg  Mg5  1  0.50000000  0.75120523  0.50000000  1
  Mg  Mg6  1  0.24786683  0.00000000  0.50000000  1
  Mg  Mg7  1  0.25062547  0.50000000  0.50000000  1
  Mg  Mg8  1  0.75213317  0.00000000  0.50000000  1
  Mg  Mg9  1  0.74937453  0.50000000  0.50000000  1
  Mg  Mg10  1  0.24893609  0.24591869  0.00000000  1
  Mg  Mg11  1  0.24893609  0.75408131  0.00000000  1
  Mg  Mg12  1  0.75106391  0.24591869  0.00000000  1
  Mg  Mg13  1  0.75106391  0.75408131  0.00000000  1
  Cr  Cr0  1  0.00000000  0.50000000  0.00000000  1
  Co  Co0  1  0.00000000  0.00000000  0.00000000  1
  O  O0  1  0.25803297  0.00000000  0.00000000  1
  O  O1  1  0.24695119  0.50000000  0.00000000  1
  O  O2  1  0.74196703  0.00000000  0.00000000  1
  O  O3  1  0.75304881  0.50000000  0.00000000  1
  O  O4  1  0.24905212  0.25062689  0.50000000  1
  O  O5  1  0.24905212  0.74937311  0.50000000  1
  O  O6  1  0.75094788  0.25062689  0.50000000  1
  O  O7  1  0.75094788  0.74937311  0.50000000  1
  O  O8  1  0.00000000  0.00000000  0.50000000  1
  O  O9  1  0.00000000  0.50000000  0.50000000  1
  O  O10  1  0.50000000  0.00000000  0.50000000  1
  O  O11  1  0.50000000  0.50000000  0.50000000  1
  O  O12  1  0.00000000  0.26162672  0.00000000  1
  O  O13  1  0.00000000  0.73837328  0.00000000  1
  O  O14  1  0.50000000  0.25291792  0.00000000  1
  O  O15  1  0.50000000  0.74708208  0.00000000  1
loop_
_geom_bond_atom_site_label_1
_geom_bond_atom_site_label_2
_geom_bond_distance
_geom_bond_site_symmetry_2
Mg0 O2 2.061916 1_555
Mg0 O0 2.061916 1_555
Mg0 O10 2.134922 1_555
Mg0 O10 2.134922 1_554
Mg0 O15 2.161613 1_545
Mg0 O14 2.161613 1_555
Mg1 O14 2.111736 1_555
Mg1 O15 2.111736 1_555
Mg1 O11 2.134922 1_554
Mg1 O11 2.134922 1_555
Mg1 O1 2.156349 1_555
Mg1 O3 2.156349 1_555
Mg2 O8 2.091551 1_555
Mg2 O4 2.122892 1_555
Mg2 O6 2.122892 1_455
Mg2 O12 2.139806 1_556
Mg2 O12 2.139806 1_555
Mg2 O9 2.181798 1_555
Mg3 O8 2.091551 1_565
Mg3 O7 2.122892 1_455
Mg3 O5 2.122892 1_555
Mg3 O13 2.139806 1_555
Mg3 O13 2.139806 1_556
Mg3 O9 2.181798 1_555
Mg4 O10 2.126374 1_555
Mg4 O14 2.135213 1_555
Mg4 O14 2.135213 1_556
Mg4 O4 2.138503 1_555
Mg4 O6 2.138503 1_555
Mg4 O11 2.146975 1_555
Mg5 O10 2.126374 1_565
Mg5 O15 2.135213 1_555
Mg5 O15 2.135213 1_556
Mg5 O5 2.138503 1_555
Mg5 O7 2.138503 1_555
Mg5 O11 2.146975 1_555
Mg6 O8 2.112191 1_555
Mg6 O0 2.136679 1_555
Mg6 O0 2.136679 1_556
Mg6 O4 2.142056 1_555
Mg6 O5 2.142056 1_545
Mg6 O10 2.148546 1_555
Mg7 O11 2.125039 1_555
Mg7 O5 2.131359 1_555
Mg7 O4 2.131359 1_555
Mg7 O1 2.135152 1_556
Mg7 O1 2.135152 1_555
Mg7 O9 2.135698 1_555
Mg8 O8 2.112191 1_655
Mg8 O2 2.136679 1_556
Mg8 O2 2.136679 1_555
Mg8 O6 2.142056 1_555
Mg8 O7 2.142056 1_545
Mg8 O10 2.148546 1_555
Mg9 O11 2.125039 1_555
Mg9 O7 2.131359 1_555
Mg9 O6 2.131359 1_555
Mg9 O3 2.135152 1_556
Mg9 O3 2.135152 1_555
Mg9 O9 2.135698 1_655
Mg10 O0 2.103222 1_555
Mg10 O12 2.125546 1_555
Mg10 O4 2.135301 1_554
Mg10 O4 2.135301 1_555
Mg10 O14 2.140271 1_555
Mg10 O1 2.171622 1_555
Mg11 O0 2.103222 1_565
Mg11 O13 2.125546 1_555
Mg11 O5 2.135301 1_554
Mg11 O5 2.135301 1_555
Mg11 O15 2.140271 1_555
Mg11 O1 2.171622 1_555
Mg12 O2 2.103222 1_555
Mg12 O12 2.125546 1_655
Mg12 O6 2.135301 1_555
Mg12 O6 2.135301 1_554
Mg12 O14 2.140271 1_555
Mg12 O3 2.171622 1_555
Mg13 O2 2.103222 1_565
Mg13 O13 2.125546 1_655
Mg13 O7 2.135301 1_554
Mg13 O7 2.135301 1_555
Mg13 O15 2.140271 1_555
Mg13 O3 2.171622 1_555
Cr0 O12 2.037304 1_555
Cr0 O13 2.037304 1_555
Cr0 O1 2.104388 1_555
Cr0 O3 2.104388 1_455
Cr0 O9 2.134922 1_554
Cr0 O9 2.134922 1_555
Co0 O8 2.134922 1_554
Co0 O8 2.134922 1_555
Co0 O0 2.198821 1_555
Co0 O2 2.198821 1_455
Co0 O12 2.236045 1_555
Co0 O13 2.236045 1_545
