# generated using pymatgen
data_Li5Cu5(TeO6)2
_symmetry_space_group_name_H-M   'P 1'
_cell_length_a   5.27328536
_cell_length_b   5.27328536
_cell_length_c   9.79064712
_cell_angle_alpha   87.45512259
_cell_angle_beta   87.45512259
_cell_angle_gamma   113.47124986
_symmetry_Int_Tables_number   1
_chemical_formula_structural   Li5Cu5(TeO6)2
_chemical_formula_sum   'Li5 Cu5 Te2 O12'
_cell_volume   248.90794432
_cell_formula_units_Z   1
loop_
 _symmetry_equiv_pos_site_id
 _symmetry_equiv_pos_as_xyz
  1  'x, y, z'
loop_
 _atom_site_type_symbol
 _atom_site_label
 _atom_site_symmetry_multiplicity
 _atom_site_fract_x
 _atom_site_fract_y
 _atom_site_fract_z
 _atom_site_occupancy
  Li  Li0  1  0.83602600  0.67437500  0.25241500  1
  Li  Li1  1  0.66960600  0.83735900  0.74420400  1
  Li  Li2  1  0.32562500  0.16397400  0.74758500  1
  Li  Li3  1  0.16264100  0.33039400  0.25579600  1
  Li  Li4  1  0.08683500  0.91316500  0.50000000  1
  Cu  Cu0  1  0.91612500  0.08387500  0.00000000  1
  Cu  Cu1  1  0.00179000  0.49894400  0.74947800  1
  Cu  Cu2  1  0.50105600  0.99821000  0.25052200  1
  Cu  Cu3  1  0.59400600  0.40599400  0.00000000  1
  Cu  Cu4  1  0.40470900  0.59529100  0.50000000  1
  Te  Te0  1  0.74621700  0.25378300  0.50000000  1
  Te  Te1  1  0.25603400  0.74396600  0.00000000  1
  O  O0  1  0.99074200  0.19077900  0.63062900  1
  O  O1  1  0.80922100  0.00925800  0.36937100  1
  O  O2  1  0.94374800  0.43449700  0.09958200  1
  O  O3  1  0.56550300  0.05625200  0.90041800  1
  O  O4  1  0.69043100  0.51759200  0.62296800  1
  O  O5  1  0.48240800  0.30956900  0.37703200  1
  O  O6  1  0.50638400  0.67933200  0.12688400  1
  O  O7  1  0.32066800  0.49361600  0.87311600  1
  O  O8  1  0.43483900  0.94448100  0.59894300  1
  O  O9  1  0.05551900  0.56516100  0.40105700  1
  O  O10  1  0.19250900  0.99264300  0.12955600  1
  O  O11  1  0.00735700  0.80749100  0.87044400  1
loop_
_geom_bond_atom_site_label_1
_geom_bond_atom_site_label_2
_geom_bond_distance
_geom_bond_site_symmetry_2
Li0 O9 2.096526 1_655
Li0 O6 2.180811 1_555
Li0 O1 2.194023 1_565
Li0 O2 2.196990 1_555
Li0 O10 2.214538 1_655
Li0 O5 2.323479 1_555
Li1 O8 2.125194 1_555
Li1 O3 2.135389 1_565
Li1 O4 2.139626 1_555
Li1 O0 2.170774 1_565
Li1 O11 2.264123 1_655
Li1 O7 2.279954 1_555
Li2 O8 2.096526 1_545
Li2 O7 2.180811 1_555
Li2 O0 2.194023 1_455
Li2 O3 2.196990 1_555
Li2 O11 2.214538 1_545
Li2 O4 2.323479 1_555
Li3 O9 2.125194 1_555
Li3 O2 2.135389 1_455
Li3 O5 2.139626 1_555
Li3 O1 2.170774 1_455
Li3 O10 2.264123 1_545
Li3 O6 2.279954 1_555
Li4 O9 2.064954 1_555
Li4 O8 2.064954 1_555
Li4 O1 2.176053 1_465
Li4 O0 2.176053 1_465
Li4 O5 2.500078 1_565
Li4 O4 2.500078 1_455
Cu0 O2 2.085303 1_555
Cu0 O3 2.085303 1_554
Cu0 O10 2.152455 1_645
Cu0 O11 2.152455 1_644
Cu0 O6 2.572402 1_545
Cu0 O7 2.572402 1_654
Cu1 O0 2.024022 1_455
Cu1 O11 2.046213 1_555
Cu1 O7 2.123446 1_555
Cu1 O4 2.130262 1_455
Cu2 O1 2.024022 1_565
Cu2 O10 2.046213 1_555
Cu2 O6 2.123446 1_555
Cu2 O5 2.130262 1_565
Cu3 O2 2.080011 1_555
Cu3 O3 2.080011 1_554
Cu3 O6 2.114926 1_555
Cu3 O7 2.114926 1_554
Cu3 O10 2.585057 1_545
Cu3 O11 2.585057 1_654
Cu4 O8 2.072041 1_555
Cu4 O9 2.072041 1_555
Cu4 O5 2.120496 1_555
Cu4 O4 2.120496 1_555
Cu4 O1 2.598407 1_565
Cu4 O0 2.598407 1_455
O0 Te0 1.964365 1_555
O1 Te0 1.964365 1_555
O2 Te1 1.975094 1_655
O3 Te1 1.975094 1_546
O4 Te0 1.978521 1_555
O5 Te0 1.978521 1_555
O6 Te1 1.966907 1_555
O7 Te1 1.966907 1_556
O8 Te0 1.969746 1_565
O9 Te0 1.969746 1_455
O10 Te1 1.975012 1_555
O11 Te1 1.975012 1_556
