# generated using pymatgen
data_Li9Mn2Co5O16
_symmetry_space_group_name_H-M   'P 1'
_cell_length_a   6.57124931
_cell_length_b   6.57124931
_cell_length_c   10.13592925
_cell_angle_alpha   59.61274123
_cell_angle_beta   59.61274123
_cell_angle_gamma   52.76850934
_symmetry_Int_Tables_number   1
_chemical_formula_structural   Li9Mn2Co5O16
_chemical_formula_sum   'Li9 Mn2 Co5 O16'
_cell_volume   287.61027487
_cell_formula_units_Z   1
loop_
 _symmetry_equiv_pos_site_id
 _symmetry_equiv_pos_as_xyz
  1  'x, y, z'
loop_
 _atom_site_type_symbol
 _atom_site_label
 _atom_site_symmetry_multiplicity
 _atom_site_fract_x
 _atom_site_fract_y
 _atom_site_fract_z
 _atom_site_occupancy
  Li  Li0  1  0.49794200  0.99546600  0.25758400  1
  Li  Li1  1  0.00453400  0.50205800  0.74241600  1
  Li  Li2  1  0.25508600  0.25508600  0.49458000  1
  Li  Li3  1  0.74958000  0.74958000  0.00030600  1
  Li  Li4  1  0.25042000  0.25042000  0.99969400  1
  Li  Li5  1  0.74491400  0.74491400  0.50542000  1
  Li  Li6  1  0.99546600  0.49794200  0.25758400  1
  Li  Li7  1  0.50205800  0.00453400  0.74241600  1
  Li  Li8  1  0.50000000  0.50000000  0.50000000  1
  Mn  Mn0  1  0.00000000  0.00000000  0.00000000  1
  Mn  Mn1  1  0.00000000  0.00000000  0.50000000  1
  Co  Co0  1  0.74128100  0.25578400  0.25879200  1
  Co  Co1  1  0.25871900  0.74421600  0.74120800  1
  Co  Co2  1  0.74421600  0.25871900  0.74120800  1
  Co  Co3  1  0.25578400  0.74128100  0.25879200  1
  Co  Co4  1  0.50000000  0.50000000  0.00000000  1
  O  O0  1  0.64696500  0.12870500  0.99693800  1
  O  O1  1  0.11964700  0.65202500  0.49133600  1
  O  O2  1  0.38394800  0.38394800  0.24342600  1
  O  O3  1  0.88566500  0.88566500  0.73106200  1
  O  O4  1  0.38279300  0.38279300  0.75809800  1
  O  O5  1  0.89450100  0.89450100  0.23283300  1
  O  O6  1  0.12870500  0.64696500  0.99693800  1
  O  O7  1  0.65202500  0.11964700  0.49133600  1
  O  O8  1  0.34797500  0.88035300  0.50866400  1
  O  O9  1  0.87129500  0.35303500  0.00306200  1
  O  O10  1  0.10549900  0.10549900  0.76716700  1
  O  O11  1  0.61720700  0.61720700  0.24190200  1
  O  O12  1  0.11433500  0.11433500  0.26893800  1
  O  O13  1  0.61605200  0.61605200  0.75657400  1
  O  O14  1  0.88035300  0.34797500  0.50866400  1
  O  O15  1  0.35303500  0.87129500  0.00306200  1
loop_
_geom_bond_atom_site_label_1
_geom_bond_atom_site_label_2
_geom_bond_distance
_geom_bond_site_symmetry_2
Li0 O12 2.095829 1_565
Li0 O8 2.106474 1_555
Li0 O2 2.126668 1_565
Li0 O5 2.169945 1_555
Li0 O11 2.175838 1_555
Li0 O0 2.187503 1_564
Li1 O3 2.095829 1_455
Li1 O1 2.106474 1_555
Li1 O13 2.126668 1_455
Li1 O10 2.169945 1_555
Li1 O4 2.175838 1_555
Li1 O9 2.187503 1_456
Li2 O8 2.090544 1_545
Li2 O14 2.090544 1_455
Li2 O2 2.102520 1_555
Li2 O7 2.174982 1_555
Li2 O1 2.174982 1_555
Li2 O10 2.289150 1_555
Li3 O11 2.028679 1_555
Li3 O0 2.137048 1_564
Li3 O6 2.137048 1_654
Li3 O15 2.204003 1_555
Li3 O9 2.204003 1_555
Li3 O3 2.253171 1_554
Li4 O4 2.028679 1_555
Li4 O15 2.137048 1_546
Li4 O9 2.137048 1_456
Li4 O0 2.204003 1_555
Li4 O6 2.204003 1_555
Li4 O12 2.253171 1_556
Li5 O1 2.090544 1_655
Li5 O7 2.090544 1_565
Li5 O13 2.102520 1_555
Li5 O8 2.174982 1_555
Li5 O14 2.174982 1_555
Li5 O5 2.289150 1_555
Li6 O12 2.095829 1_655
Li6 O14 2.106474 1_555
Li6 O2 2.126668 1_655
Li6 O5 2.169945 1_555
Li6 O11 2.175838 1_555
Li6 O6 2.187503 1_654
Li7 O3 2.095829 1_545
Li7 O7 2.106474 1_555
Li7 O13 2.126668 1_545
Li7 O10 2.169945 1_555
Li7 O4 2.175838 1_555
Li7 O15 2.187503 1_546
Li8 O14 2.089154 1_555
Li8 O8 2.089154 1_555
Li8 O7 2.089154 1_555
Li8 O1 2.089154 1_555
Li8 O4 2.161287 1_555
Li8 O11 2.161287 1_555
Mn0 O15 1.941694 1_545
Mn0 O9 1.941694 1_455
Mn0 O6 1.941694 1_544
Mn0 O0 1.941694 1_454
Mn0 O5 1.949847 1_445
Mn0 O10 1.949847 1_554
Mn1 O12 1.933075 1_555
Mn1 O3 1.933075 1_445
Mn1 O14 1.952526 1_455
Mn1 O8 1.952526 1_545
Mn1 O1 1.952526 1_545
Mn1 O7 1.952526 1_455
Co0 O11 1.929088 1_555
Co0 O7 1.950144 1_555
Co0 O2 2.022747 1_555
Co0 O5 2.047119 1_545
Co0 O12 2.070055 1_655
Co0 O9 2.145118 1_555
Co1 O4 1.929088 1_555
Co1 O8 1.950144 1_555
Co1 O13 2.022747 1_555
Co1 O10 2.047119 1_565
Co1 O3 2.070055 1_455
Co1 O6 2.145118 1_555
Co2 O4 1.929088 1_555
Co2 O14 1.950144 1_555
Co2 O13 2.022747 1_555
Co2 O10 2.047119 1_655
Co2 O3 2.070055 1_545
Co2 O0 2.145118 1_555
Co3 O11 1.929088 1_555
Co3 O1 1.950144 1_555
Co3 O2 2.022747 1_555
Co3 O5 2.047119 1_455
Co3 O12 2.070055 1_565
Co3 O15 2.145118 1_555
Co4 O9 2.020297 1_555
Co4 O15 2.020297 1_555
Co4 O6 2.020297 1_554
Co4 O0 2.020297 1_554
Co4 O2 2.036538 1_555
Co4 O13 2.036538 1_554
