# generated using pymatgen
data_NaP7
_symmetry_space_group_name_H-M   'P 1'
_cell_length_a   12.55722950
_cell_length_b   12.55722950
_cell_length_c   12.55722950
_cell_angle_alpha   107.50848907
_cell_angle_beta   110.46141107
_cell_angle_gamma   110.46141107
_symmetry_Int_Tables_number   1
_chemical_formula_structural   NaP7
_chemical_formula_sum   'Na8 P56'
_cell_volume   1522.92610673
_cell_formula_units_Z   8
loop_
 _symmetry_equiv_pos_site_id
 _symmetry_equiv_pos_as_xyz
  1  'x, y, z'
loop_
 _atom_site_type_symbol
 _atom_site_label
 _atom_site_symmetry_multiplicity
 _atom_site_fract_x
 _atom_site_fract_y
 _atom_site_fract_z
 _atom_site_occupancy
  Na  Na0  1  -0.00000000  0.13415291  0.36584709  1
  Na  Na1  1  0.23169618  0.86584709  0.86584709  1
  Na  Na2  1  0.50000000  0.38415291  0.11584709  1
  Na  Na3  1  0.73169618  0.11584709  0.61584709  1
  Na  Na4  1  -0.00000000  0.36584709  0.13415291  1
  Na  Na5  1  0.76830382  0.63415291  0.63415291  1
  Na  Na6  1  0.50000000  0.61584709  0.88415291  1
  Na  Na7  1  0.26830382  0.88415291  0.38415291  1
  P  P0  1  0.22566706  0.10066706  0.37500000  1
  P  P1  1  0.27433294  0.64933294  0.87500000  1
  P  P2  1  0.72566706  0.60066706  0.37500000  1
  P  P3  1  0.77433294  0.14933294  0.87500000  1
  P  P4  1  0.27433294  0.12500000  0.89933294  1
  P  P5  1  0.22566706  0.62500000  0.35066706  1
  P  P6  1  0.77433294  0.12500000  0.39933294  1
  P  P7  1  0.72566706  0.62500000  0.85066706  1
  P  P8  1  0.37842081  0.29599047  0.53535159  1
  P  P9  1  0.23936211  0.65693178  0.03535159  1
  P  P10  1  0.87842081  0.59306822  0.33243034  1
  P  P11  1  0.73936211  0.95400953  0.83243034  1
  P  P12  1  0.62157919  0.15693178  0.91756966  1
  P  P13  1  0.76063789  0.79599047  0.41756966  1
  P  P14  1  0.12157919  0.45400953  0.71464841  1
  P  P15  1  0.26063789  0.09306822  0.21464841  1
  P  P16  1  0.23936211  0.08243034  0.70400953  1
  P  P17  1  0.37842081  0.58243034  0.34306822  1
  P  P18  1  0.73936211  0.28535159  0.40693178  1
  P  P19  1  0.87842081  0.78535159  0.04599047  1
  P  P20  1  0.76063789  0.46464841  0.84306822  1
  P  P21  1  0.62157919  0.96464841  0.20400953  1
  P  P22  1  0.26063789  0.66756966  0.54599047  1
  P  P23  1  0.12157919  0.16756966  0.90693178  1
  P  P24  1  0.58796347  0.22313255  0.46078427  1
  P  P25  1  0.23765272  0.37282081  0.96078527  1
  P  P26  1  0.08796347  0.87717919  0.61483092  1
  P  P27  1  0.73765272  0.02686745  0.11483092  1
  P  P28  1  0.41203653  0.87282081  0.63516908  1
  P  P29  1  0.76234728  0.72313255  0.13516908  1
  P  P30  1  0.91203653  0.52686745  0.78921473  1
  P  P31  1  0.26234728  0.37717919  0.28921573  1
  P  P32  1  0.23765272  0.36483092  0.77686745  1
  P  P33  1  0.58796347  0.86483092  0.62717919  1
  P  P34  1  0.73765272  0.21078427  0.12282081  1
  P  P35  1  0.08796347  0.71078527  0.97313255  1
  P  P36  1  0.76234728  0.53921473  0.12717919  1
  P  P37  1  0.41203653  0.03921573  0.27686745  1
  P  P38  1  0.26234728  0.38516908  0.47313255  1
  P  P39  1  0.91203653  0.88516908  0.62282081  1
  P  P40  1  0.52416283  0.36704178  0.47805503  1
  P  P41  1  0.11101325  0.45389220  0.97805503  1
  P  P42  1  0.02416283  0.79610780  0.40712105  1
  P  P43  1  0.61101325  0.88295822  0.90712105  1
  P  P44  1  0.47583717  0.95389220  0.84287895  1
  P  P45  1  0.88898675  0.86704178  0.34287895  1
  P  P46  1  0.97583717  0.38295822  0.77194497  1
  P  P47  1  0.38898675  0.29610780  0.27194497  1
  P  P48  1  0.11101325  0.15712105  0.63295822  1
  P  P49  1  0.52416283  0.65712105  0.54610780  1
  P  P50  1  0.61101325  0.22805503  0.20389220  1
  P  P51  1  0.02416283  0.72805503  0.11704178  1
  P  P52  1  0.88898675  0.52194497  0.04610780  1
  P  P53  1  0.47583717  0.02194497  0.13295822  1
  P  P54  1  0.38898675  0.59287895  0.61704178  1
  P  P55  1  0.97583717  0.09287895  0.70389220  1
loop_
_geom_bond_atom_site_label_1
_geom_bond_atom_site_label_2
_geom_bond_distance
_geom_bond_site_symmetry_2
Na0 P0 2.975673 1_555
Na0 P6 2.975673 1_455
Na0 P45 3.024021 1_445
Na0 P48 3.024021 1_555
Na0 P27 3.112104 1_455
Na0 P38 3.112104 1_555
Na1 P1 2.975661 1_555
Na1 P4 2.975679 1_565
Na1 P44 3.023998 1_555
Na1 P53 3.024011 1_566
Na1 P35 3.112117 1_555
Na1 P26 3.112117 1_555
Na2 P4 2.975673 1_554
Na2 P2 2.975673 1_555
Na2 P50 3.024021 1_555
Na2 P47 3.024021 1_555
Na2 P25 3.112098 1_554
Na2 P36 3.112098 1_555
Na3 P6 2.975661 1_555
Na3 P3 2.975679 1_555
Na3 P55 3.023998 1_555
Na3 P46 3.024011 1_555
Na3 P33 3.112117 1_545
Na3 P24 3.112124 1_555
Na4 P3 2.975673 1_454
Na4 P5 2.975673 1_555
Na4 P52 3.024021 1_455
Na4 P41 3.024021 1_554
Na4 P34 3.112101 1_455
Na4 P31 3.112101 1_555
Na5 P7 2.975661 1_555
Na5 P2 2.975679 1_555
Na5 P49 3.023998 1_555
Na5 P40 3.024011 1_555
Na5 P30 3.112117 1_555
Na5 P39 3.112117 1_555
Na6 P1 2.975673 1_555
Na6 P7 2.975673 1_555
Na6 P54 3.024021 1_555
Na6 P43 3.024021 1_555
Na6 P29 3.112104 1_556
Na6 P32 3.112104 1_555
Na7 P0 2.975661 1_565
Na7 P5 2.975679 1_555
Na7 P42 3.023998 1_555
Na7 P51 3.024011 1_555
Na7 P28 3.112117 1_555
Na7 P37 3.112124 1_565
P0 P15 2.188223 1_555
P0 P8 2.188232 1_555
P1 P9 2.188223 1_556
P1 P14 2.188232 1_555
P10 P2 2.188235 1_555
P10 P42 2.197340 1_655
P10 P36 2.204619 1_555
P11 P3 2.188235 1_565
P11 P43 2.197340 1_555
P11 P33 2.204621 1_555
P12 P3 2.188235 1_555
P12 P44 2.197340 1_545
P12 P34 2.204622 1_556
P13 P2 2.188235 1_555
P13 P45 2.197340 1_555
P13 P39 2.204621 1_555
P14 P46 2.197331 1_455
P14 P32 2.204626 1_555
P15 P47 2.197344 1_555
P15 P37 2.204619 1_555
P16 P4 2.188235 1_555
P16 P48 2.197340 1_555
P16 P26 2.204621 1_545
P17 P5 2.188235 1_555
P17 P49 2.197340 1_555
P17 P31 2.204622 1_555
P18 P6 2.188223 1_555
P18 P50 2.197344 1_555
P18 P24 2.204619 1_555
P19 P7 2.188232 1_554
P19 P51 2.197331 1_655
P19 P29 2.204626 1_555
P20 P7 2.188223 1_555
P20 P52 2.197344 1_556
P20 P30 2.204628 1_555
P21 P6 2.188232 1_565
P21 P53 2.197331 1_565
P21 P27 2.204626 1_565
P22 P5 2.188235 1_555
P22 P54 2.197340 1_555
P22 P28 2.204621 1_555
P23 P4 2.188235 1_555
P23 P55 2.197340 1_455
P23 P25 2.204619 1_555
P24 P40 2.202814 1_555
P24 P37 2.281309 1_555
P25 P41 2.202823 1_555
P25 P32 2.281321 1_555
P26 P42 2.202814 1_555
P26 P39 2.281309 1_455
P27 P43 2.202814 1_544
P27 P34 2.281309 1_555
P28 P44 2.202814 1_555
P28 P33 2.281309 1_555
P29 P45 2.202814 1_555
P29 P36 2.281321 1_555
P30 P46 2.202814 1_555
P30 P35 2.281318 1_655
P31 P47 2.202825 1_555
P31 P38 2.281309 1_555
P32 P48 2.202814 1_555
P33 P49 2.202814 1_555
P34 P50 2.202825 1_555
P35 P51 2.202814 1_556
P35 P9 2.204628 1_556
P36 P52 2.202823 1_555
P37 P53 2.202814 1_555
P38 P54 2.202814 1_555
P38 P8 2.204626 1_555
P39 P55 2.202814 1_565
P40 P8 2.197331 1_555
P40 P47 2.203984 1_555
P41 P9 2.197344 1_556
P41 P46 2.203984 1_455
P42 P45 2.203984 1_455
P43 P44 2.203984 1_555
P48 P55 2.203984 1_455
P49 P54 2.203984 1_555
P50 P53 2.203984 1_555
P51 P52 2.203984 1_455
