# generated using pymatgen
data_CeEu2ZrO6
_symmetry_space_group_name_H-M   'P 1'
_cell_length_a   8.61418148
_cell_length_b   8.61418148
_cell_length_c   8.61418148
_cell_angle_alpha   90.00000000
_cell_angle_beta   90.00000000
_cell_angle_gamma   90.00000000
_symmetry_Int_Tables_number   1
_chemical_formula_structural   CeEu2ZrO6
_chemical_formula_sum   'Ce4 Eu8 Zr4 O24'
_cell_volume   639.20777839
_cell_formula_units_Z   4
loop_
 _symmetry_equiv_pos_site_id
 _symmetry_equiv_pos_as_xyz
  1  'x, y, z'
loop_
 _atom_site_type_symbol
 _atom_site_label
 _atom_site_symmetry_multiplicity
 _atom_site_fract_x
 _atom_site_fract_y
 _atom_site_fract_z
 _atom_site_occupancy
  Ce  Ce0  1  0.75000000  0.75000000  0.75000000  1
  Ce  Ce1  1  0.75000000  0.25000000  0.25000000  1
  Ce  Ce2  1  0.25000000  0.75000000  0.25000000  1
  Ce  Ce3  1  0.25000000  0.25000000  0.75000000  1
  Eu  Eu0  1  0.50000000  0.50000000  0.50000000  1
  Eu  Eu1  1  0.00000000  0.00000000  0.00000000  1
  Eu  Eu2  1  0.00000000  0.00000000  0.50000000  1
  Eu  Eu3  1  0.00000000  0.50000000  0.00000000  1
  Eu  Eu4  1  0.50000000  0.00000000  0.00000000  1
  Eu  Eu5  1  0.50000000  0.50000000  -0.00000000  1
  Eu  Eu6  1  0.50000000  0.00000000  0.50000000  1
  Eu  Eu7  1  0.00000000  0.50000000  0.50000000  1
  Zr  Zr0  1  0.25000000  0.25000000  0.25000000  1
  Zr  Zr1  1  0.25000000  0.75000000  0.75000000  1
  Zr  Zr2  1  0.75000000  0.25000000  0.75000000  1
  Zr  Zr3  1  0.75000000  0.75000000  0.25000000  1
  O  O0  1  0.21248537  0.29415795  0.49169445  1
  O  O1  1  0.21248537  0.70584205  0.50830555  1
  O  O2  1  0.78751463  0.29415795  0.50830555  1
  O  O3  1  0.78751463  0.70584205  0.49169445  1
  O  O4  1  0.29415795  0.49169445  0.21248537  1
  O  O5  1  0.70584205  0.50830555  0.21248537  1
  O  O6  1  0.29415795  0.50830555  0.78751463  1
  O  O7  1  0.70584205  0.49169445  0.78751463  1
  O  O8  1  0.49169445  0.21248537  0.29415795  1
  O  O9  1  0.50830555  0.21248537  0.70584205  1
  O  O10  1  0.50830555  0.78751463  0.29415795  1
  O  O11  1  0.49169445  0.78751463  0.70584205  1
  O  O12  1  0.28751463  0.20584205  0.00830555  1
  O  O13  1  0.28751463  0.79415795  0.99169445  1
  O  O14  1  0.71248537  0.20584205  0.99169445  1
  O  O15  1  0.71248537  0.79415795  0.00830555  1
  O  O16  1  0.20584205  0.00830555  0.28751463  1
  O  O17  1  0.79415795  0.99169445  0.28751463  1
  O  O18  1  0.20584205  0.99169445  0.71248537  1
  O  O19  1  0.79415795  0.00830555  0.71248537  1
  O  O20  1  0.00830555  0.28751463  0.20584205  1
  O  O21  1  0.99169445  0.28751463  0.79415795  1
  O  O22  1  0.99169445  0.71248537  0.20584205  1
  O  O23  1  0.00830555  0.71248537  0.79415795  1
loop_
_geom_bond_atom_site_label_1
_geom_bond_atom_site_label_2
_geom_bond_distance
_geom_bond_site_symmetry_2
Ce0 O23 2.280384 1_655
Ce0 O11 2.280384 1_555
Ce0 O15 2.280384 1_556
Ce0 O7 2.280384 1_555
Ce0 O3 2.280384 1_555
Ce0 O19 2.280384 1_565
Ce1 O8 2.280384 1_555
Ce1 O20 2.280384 1_655
Ce1 O14 2.280384 1_554
Ce1 O5 2.280384 1_555
Ce1 O17 2.280384 1_545
Ce1 O2 2.280384 1_555
Ce2 O10 2.280384 1_555
Ce2 O22 2.280384 1_455
Ce2 O4 2.280384 1_555
Ce2 O13 2.280384 1_554
Ce2 O1 2.280384 1_555
Ce2 O16 2.280384 1_565
Ce3 O9 2.280384 1_555
Ce3 O21 2.280384 1_455
Ce3 O12 2.280384 1_556
Ce3 O6 2.280384 1_555
Ce3 O0 2.280384 1_555
Ce3 O18 2.280384 1_545
Eu0 O1 3.046847 1_555
Eu0 O4 3.046847 1_555
Eu0 O11 3.046847 1_555
Eu0 O8 3.046847 1_555
Eu0 O5 3.046847 1_555
Eu0 O9 3.046847 1_555
Eu0 O6 3.046847 1_555
Eu0 O7 3.046847 1_555
Eu0 O10 3.046847 1_555
Eu0 O0 3.046847 1_555
Eu0 O3 3.046847 1_555
Eu0 O2 3.046847 1_555
Eu1 O13 3.046847 1_544
Eu1 O17 3.046847 1_445
Eu1 O14 3.046847 1_454
Eu1 O23 3.046847 1_544
Eu1 O19 3.046847 1_454
Eu1 O21 3.046847 1_454
Eu1 O15 3.046847 1_445
Eu1 O12 3.046847 1_555
Eu1 O16 3.046847 1_555
Eu1 O20 3.046847 1_555
Eu1 O22 3.046847 1_445
Eu1 O18 3.046847 1_544
Eu2 O17 2.549419 1_445
Eu2 O19 2.549419 1_455
Eu2 O16 2.549419 1_555
Eu2 O18 2.549419 1_545
Eu2 O3 3.126698 1_445
Eu2 O1 3.126698 1_545
Eu2 O0 3.126698 1_555
Eu2 O2 3.126698 1_455
Eu3 O20 2.549419 1_555
Eu3 O23 2.549419 1_554
Eu3 O22 2.549419 1_455
Eu3 O21 2.549419 1_454
Eu3 O6 3.126698 1_554
Eu3 O4 3.126698 1_555
Eu3 O5 3.126698 1_455
Eu3 O7 3.126698 1_454
Eu4 O13 2.549419 1_544
Eu4 O15 2.549419 1_545
Eu4 O12 2.549419 1_555
Eu4 O14 2.549419 1_554
Eu4 O9 3.126698 1_554
Eu4 O11 3.126698 1_544
Eu4 O8 3.126698 1_555
Eu4 O10 3.126698 1_545
Eu5 O4 2.549419 1_555
Eu5 O5 2.549419 1_555
Eu5 O6 2.549419 1_554
Eu5 O7 2.549419 1_554
Eu5 O15 3.126698 1_555
Eu5 O12 3.126698 1_555
Eu5 O13 3.126698 1_554
Eu5 O14 3.126698 1_554
Eu6 O8 2.549419 1_555
Eu6 O10 2.549419 1_545
Eu6 O9 2.549419 1_555
Eu6 O11 2.549419 1_545
Eu6 O19 3.126698 1_555
Eu6 O17 3.126698 1_545
Eu6 O16 3.126698 1_555
Eu6 O18 3.126698 1_545
Eu7 O1 2.549419 1_555
Eu7 O3 2.549419 1_455
Eu7 O0 2.549419 1_555
Eu7 O2 2.549419 1_455
Eu7 O20 3.126698 1_555
Eu7 O23 3.126698 1_555
Eu7 O21 3.126698 1_455
Eu7 O22 3.126698 1_455
O0 Zr0 2.140992 1_555
O1 Zr1 2.140992 1_555
O2 Zr2 2.140992 1_555
O3 Zr3 2.140992 1_555
O4 Zr0 2.140992 1_555
O5 Zr3 2.140992 1_555
O6 Zr1 2.140992 1_555
O7 Zr2 2.140992 1_555
O8 Zr0 2.140992 1_555
O9 Zr2 2.140992 1_555
O10 Zr3 2.140992 1_555
O11 Zr1 2.140992 1_555
O12 Zr0 2.140992 1_555
O13 Zr1 2.140992 1_555
O14 Zr2 2.140992 1_555
O15 Zr3 2.140992 1_555
O16 Zr0 2.140992 1_555
O17 Zr3 2.140992 1_555
O18 Zr1 2.140992 1_555
O19 Zr2 2.140992 1_555
O20 Zr0 2.140992 1_555
O21 Zr2 2.140992 1_555
O22 Zr3 2.140992 1_555
O23 Zr1 2.140992 1_555
