# generated using pymatgen
data_KCaFe2F9
_symmetry_space_group_name_H-M   'P 1'
_cell_length_a   7.58612702
_cell_length_b   7.58612702
_cell_length_c   23.93561900
_cell_angle_alpha   90.00000000
_cell_angle_beta   90.00000000
_cell_angle_gamma   119.82004561
_symmetry_Int_Tables_number   1
_chemical_formula_structural   KCaFe2F9
_chemical_formula_sum   'K6 Ca6 Fe12 F54'
_cell_volume   1195.08882793
_cell_formula_units_Z   6
loop_
 _symmetry_equiv_pos_site_id
 _symmetry_equiv_pos_as_xyz
  1  'x, y, z'
loop_
 _atom_site_type_symbol
 _atom_site_label
 _atom_site_symmetry_multiplicity
 _atom_site_fract_x
 _atom_site_fract_y
 _atom_site_fract_z
 _atom_site_occupancy
  K  K0  1  0.49051300  0.50948700  0.75000000  1
  K  K1  1  0.50948700  0.49051300  0.25000000  1
  K  K2  1  0.53644200  0.49459100  0.58349700  1
  K  K3  1  0.46355800  0.50540900  0.08349700  1
  K  K4  1  0.50540900  0.46355800  0.91650300  1
  K  K5  1  0.49459100  0.53644200  0.41650300  1
  Ca  Ca0  1  0.01496200  0.01496200  0.50000000  1
  Ca  Ca1  1  0.98503800  0.98503800  0.00000000  1
  Ca  Ca2  1  0.99865400  0.48577000  0.83336000  1
  Ca  Ca3  1  0.00134600  0.51423000  0.33336000  1
  Ca  Ca4  1  0.51423000  0.00134600  0.66664000  1
  Ca  Ca5  1  0.48577000  0.99865400  0.16664000  1
  Fe  Fe0  1  0.02015300  0.51747000  0.50230300  1
  Fe  Fe1  1  0.97984700  0.48253000  0.00230300  1
  Fe  Fe2  1  0.48253000  0.97984700  0.99769700  1
  Fe  Fe3  1  0.51747000  0.02015300  0.49769700  1
  Fe  Fe4  1  0.01574400  0.49826400  0.66464500  1
  Fe  Fe5  1  0.98425600  0.50173600  0.16464500  1
  Fe  Fe6  1  0.50173600  0.98425600  0.83535500  1
  Fe  Fe7  1  0.49826400  0.01574400  0.33535500  1
  Fe  Fe8  1  0.98821400  0.00380100  0.16892800  1
  Fe  Fe9  1  0.01178600  0.99619900  0.66892800  1
  Fe  Fe10  1  0.99619900  0.01178600  0.33107200  1
  Fe  Fe11  1  0.00380100  0.98821400  0.83107200  1
  F  F0  1  0.17147100  0.37645500  0.51640100  1
  F  F1  1  0.82852900  0.62354500  0.01640100  1
  F  F2  1  0.62354500  0.82852900  0.98359900  1
  F  F3  1  0.37645500  0.17147100  0.48359900  1
  F  F4  1  0.72361100  0.36321200  0.67735900  1
  F  F5  1  0.27638900  0.63678800  0.17735900  1
  F  F6  1  0.63678800  0.27638900  0.82264100  1
  F  F7  1  0.36321200  0.72361100  0.32264100  1
  F  F8  1  0.97307600  0.22681200  0.65402800  1
  F  F9  1  0.02692400  0.77318800  0.15402800  1
  F  F10  1  0.77318800  0.02692400  0.84597200  1
  F  F11  1  0.22681200  0.97307600  0.34597200  1
  F  F12  1  0.07490900  0.48821300  0.74291800  1
  F  F13  1  0.92509100  0.51178700  0.24291800  1
  F  F14  1  0.51178700  0.92509100  0.75708200  1
  F  F15  1  0.48821300  0.07490900  0.25708200  1
  F  F16  1  0.04072300  0.97934100  0.58997600  1
  F  F17  1  0.95927700  0.02065900  0.08997600  1
  F  F18  1  0.02065900  0.95927700  0.91002400  1
  F  F19  1  0.97934100  0.04072300  0.41002400  1
  F  F20  1  0.24973300  0.78892300  0.51342200  1
  F  F21  1  0.75026700  0.21107700  0.01342200  1
  F  F22  1  0.21107700  0.75026700  0.98657800  1
  F  F23  1  0.78892300  0.24973300  0.48657800  1
  F  F24  1  0.98205400  0.01794600  0.75000000  1
  F  F25  1  0.01794600  0.98205400  0.25000000  1
  F  F26  1  0.91230800  0.46425900  0.92373300  1
  F  F27  1  0.08769200  0.53574100  0.42373300  1
  F  F28  1  0.53574100  0.08769200  0.57626700  1
  F  F29  1  0.46425900  0.91230800  0.07626700  1
  F  F30  1  0.16665600  0.28373900  0.83570600  1
  F  F31  1  0.83334400  0.71626100  0.33570600  1
  F  F32  1  0.71626100  0.83334400  0.66429400  1
  F  F33  1  0.28373900  0.16665600  0.16429400  1
  F  F34  1  0.14106700  0.34968700  0.99178000  1
  F  F35  1  0.85893300  0.65031300  0.49178000  1
  F  F36  1  0.65031300  0.85893300  0.50822000  1
  F  F37  1  0.34968700  0.14106700  0.00822000  1
  F  F38  1  0.84167100  0.69357700  0.82259200  1
  F  F39  1  0.15832900  0.30642300  0.32259200  1
  F  F40  1  0.30642300  0.15832900  0.67740800  1
  F  F41  1  0.69357700  0.84167100  0.17740800  1
  F  F42  1  0.04846600  0.76369800  0.67995200  1
  F  F43  1  0.95153400  0.23630200  0.17995200  1
  F  F44  1  0.23630200  0.95153400  0.82004800  1
  F  F45  1  0.76369800  0.04846600  0.32004800  1
  F  F46  1  0.30498700  0.63986800  0.64801400  1
  F  F47  1  0.69501300  0.36013200  0.14801400  1
  F  F48  1  0.36013200  0.69501300  0.85198600  1
  F  F49  1  0.63986800  0.30498700  0.35198600  1
  F  F50  1  0.95387300  0.50511700  0.58352100  1
  F  F51  1  0.04612700  0.49488300  0.08352100  1
  F  F52  1  0.49488300  0.04612700  0.91647900  1
  F  F53  1  0.50511700  0.95387300  0.41647900  1
loop_
_geom_bond_atom_site_label_1
_geom_bond_atom_site_label_2
_geom_bond_distance
_geom_bond_site_symmetry_2
Ca0 F16 2.191315 1_545
Ca0 F19 2.191315 1_455
Ca0 F35 2.415685 1_445
Ca0 F36 2.415685 1_445
Ca0 F3 2.417837 1_555
Ca0 F0 2.417837 1_555
Ca1 F17 2.191315 1_565
Ca1 F18 2.191315 1_654
Ca1 F34 2.415685 1_664
Ca1 F37 2.415685 1_665
Ca1 F2 2.417837 1_554
Ca1 F1 2.417837 1_555
Ca2 F12 2.238440 1_655
Ca2 F26 2.242439 1_555
Ca2 F6 2.405842 1_555
Ca2 F38 2.415991 1_555
Ca2 F48 2.430851 1_655
Ca2 F30 2.432922 1_655
Ca3 F13 2.238440 1_455
Ca3 F27 2.242439 1_555
Ca3 F7 2.405842 1_555
Ca3 F39 2.415991 1_555
Ca3 F49 2.430851 1_455
Ca3 F31 2.432922 1_455
Ca4 F14 2.238440 1_545
Ca4 F28 2.242439 1_555
Ca4 F4 2.405842 1_555
Ca4 F40 2.415991 1_555
Ca4 F46 2.430851 1_545
Ca4 F32 2.432922 1_545
Ca5 F15 2.238440 1_565
Ca5 F29 2.242439 1_555
Ca5 F5 2.405842 1_555
Ca5 F41 2.415991 1_555
Ca5 F47 2.430851 1_565
Ca5 F33 2.432922 1_565
F0 Fe0 1.948659 1_555
F0 K2 2.929222 1_555
F0 K5 3.200030 1_555
F1 Fe1 1.948659 1_555
F1 K3 2.929222 1_555
F1 K4 3.200030 1_554
F2 Fe2 1.948659 1_555
F2 K4 2.929222 1_555
F2 K3 3.200030 1_556
F3 Fe3 1.948659 1_555
F3 K5 2.929222 1_555
F3 K2 3.200030 1_555
F4 Fe4 1.948197 1_655
F4 K0 3.054982 1_555
F4 K2 3.076404 1_555
F5 Fe5 1.948197 1_455
F5 K1 3.054982 1_555
F5 K3 3.076404 1_555
F6 Fe6 1.948197 1_545
F6 K0 3.054982 1_555
F6 K4 3.076404 1_555
F7 Fe7 1.948197 1_565
F7 K1 3.054982 1_555
F7 K5 3.076404 1_555
F8 Fe4 1.935721 1_655
F8 Fe9 1.945504 1_645
F9 Fe5 1.935721 1_455
F9 Fe8 1.945504 1_465
F10 Fe6 1.935721 1_545
F10 Fe11 1.945504 1_645
F11 Fe7 1.935721 1_565
F11 Fe10 1.945504 1_465
F12 Fe4 1.936841 1_555
F12 K0 3.080427 1_555
F13 Fe5 1.936841 1_555
F13 K1 3.080427 1_555
F14 Fe6 1.936841 1_555
F14 K0 3.080427 1_555
F15 Fe7 1.936841 1_555
F15 K1 3.080427 1_555
F16 Fe9 1.914073 1_555
F17 Fe8 1.914073 1_555
F18 Fe11 1.914073 1_555
F19 Fe10 1.914073 1_555
F20 Fe0 1.943643 1_555
F20 Fe3 1.949507 1_565
F21 Fe1 1.943643 1_555
F21 Fe2 1.949507 1_544
F22 Fe2 1.943643 1_555
F22 Fe1 1.949507 1_456
F23 Fe3 1.943643 1_555
F23 Fe0 1.949507 1_655
F24 Fe11 1.969942 1_645
F24 Fe9 1.969942 1_645
F25 Fe10 1.969942 1_465
F25 Fe8 1.969942 1_465
F26 Fe1 1.935932 1_556
F26 K4 3.088998 1_555
F27 Fe0 1.935932 1_555
F27 K5 3.088998 1_555
F28 Fe3 1.935932 1_555
F28 K2 3.088998 1_555
F29 Fe2 1.935932 1_554
F29 K3 3.088998 1_555
F30 Fe11 1.951934 1_545
F30 K4 2.952698 1_555
F30 K0 2.998771 1_555
F31 Fe10 1.951934 1_565
F31 K5 2.952698 1_555
F31 K1 2.998771 1_555
F32 Fe9 1.951934 1_655
F32 K2 2.952698 1_555
F32 K0 2.998771 1_555
F33 Fe8 1.951934 1_455
F33 K3 2.952698 1_555
F33 K1 2.998771 1_555
F34 Fe1 1.949529 1_456
F34 K4 3.042613 1_555
F34 K3 3.053803 1_556
F35 Fe0 1.949529 1_655
F35 K5 3.042613 1_555
F35 K2 3.053803 1_555
F36 Fe3 1.949529 1_565
F36 K2 3.042613 1_555
F36 K5 3.053803 1_555
F37 Fe2 1.949529 1_544
F37 K3 3.042613 1_555
F37 K4 3.053803 1_554
F38 Fe11 1.953388 1_655
F38 K0 2.892376 1_555
F38 K4 3.190260 1_555
F39 Fe10 1.953388 1_455
F39 K1 2.892376 1_555
F39 K5 3.190260 1_555
F40 Fe9 1.953388 1_545
F40 K0 2.892376 1_555
F40 K2 3.190260 1_555
F41 Fe8 1.953388 1_565
F41 K1 2.892376 1_555
F41 K3 3.190260 1_555
F42 Fe9 1.935484 1_555
F42 Fe4 1.937364 1_555
F43 Fe8 1.935484 1_555
F43 Fe5 1.937364 1_555
F44 Fe11 1.935484 1_555
F44 Fe6 1.937364 1_555
F45 Fe10 1.935484 1_555
F45 Fe7 1.937364 1_555
F46 Fe4 1.944947 1_555
F46 K2 2.933750 1_555
F46 K0 3.209763 1_555
F47 Fe5 1.944947 1_555
F47 K3 2.933750 1_555
F47 K1 3.209763 1_555
F48 Fe6 1.944947 1_555
F48 K4 2.933750 1_555
F48 K0 3.209763 1_555
F49 Fe7 1.944947 1_555
F49 K5 2.933750 1_555
F49 K1 3.209763 1_555
F50 Fe0 1.998470 1_655
F50 Fe4 2.004414 1_655
F50 K2 3.127744 1_555
F51 Fe1 1.998470 1_455
F51 Fe5 2.004414 1_455
F51 K3 3.127744 1_555
F52 Fe2 1.998470 1_545
F52 Fe6 2.004414 1_545
F52 K4 3.127744 1_555
F53 Fe3 1.998470 1_565
F53 Fe7 2.004414 1_565
F53 K5 3.127744 1_555
