# generated using pymatgen
data_Li2FeF5
_symmetry_space_group_name_H-M   'P 1'
_cell_length_a   5.27195800
_cell_length_b   5.71172921
_cell_length_c   7.01451469
_cell_angle_alpha   106.65678388
_cell_angle_beta   93.29301517
_cell_angle_gamma   114.36611512
_symmetry_Int_Tables_number   1
_chemical_formula_structural   Li2FeF5
_chemical_formula_sum   'Li4 Fe2 F10'
_cell_volume   180.55910607
_cell_formula_units_Z   2
loop_
 _symmetry_equiv_pos_site_id
 _symmetry_equiv_pos_as_xyz
  1  'x, y, z'
loop_
 _atom_site_type_symbol
 _atom_site_label
 _atom_site_symmetry_multiplicity
 _atom_site_fract_x
 _atom_site_fract_y
 _atom_site_fract_z
 _atom_site_occupancy
  Li  Li0  1  0.50000000  0.00000000  0.50000000  1
  Li  Li1  1  0.19055500  0.33017800  0.22834300  1
  Li  Li2  1  0.80944500  0.66982200  0.77165700  1
  Li  Li3  1  0.48911900  0.99248200  0.00029500  1
  Fe  Fe0  1  0.87708200  0.74910700  0.27506100  1
  Fe  Fe1  1  0.12291800  0.25089300  0.72493900  1
  F  F0  1  0.56682000  0.39058800  0.18273900  1
  F  F1  1  0.84363600  0.34991500  0.63243800  1
  F  F2  1  0.19986000  0.15166600  0.43171200  1
  F  F3  1  0.15636400  0.65008500  0.36756200  1
  F  F4  1  0.34860500  0.06733800  0.76451900  1
  F  F5  1  0.80014000  0.84833400  0.56828800  1
  F  F6  1  0.96823800  0.21076800  0.96122700  1
  F  F7  1  0.03176200  0.78923200  0.03877300  1
  F  F8  1  0.43318000  0.60941200  0.81726100  1
  F  F9  1  0.65139500  0.93266200  0.23548100  1
loop_
_geom_bond_atom_site_label_1
_geom_bond_atom_site_label_2
_geom_bond_distance
_geom_bond_site_symmetry_2
F0 Fe0 1.908529 1_555
F0 Li1 1.930720 1_555
F0 Li3 2.116374 1_545
F1 Li2 1.895768 1_555
F1 Fe1 1.922629 1_655
F1 Li0 1.973363 1_555
F2 Li1 1.985972 1_555
F2 Fe1 2.081736 1_555
F2 Fe0 2.120906 1_445
F2 Li0 2.182996 1_555
F3 Li1 1.895768 1_555
F3 Fe0 1.922629 1_455
F3 Li0 1.973363 1_565
F4 Fe1 1.936521 1_555
F4 Li3 1.998190 1_546
F4 Li0 2.059628 1_555
F5 Li2 1.985972 1_555
F5 Fe0 2.081736 1_555
F5 Fe1 2.120906 1_665
F5 Li0 2.182996 1_565
F6 Fe1 1.919236 1_655
F6 Li1 1.924860 1_656
F6 Li3 2.384654 1_546
F7 Fe0 1.919236 1_455
F7 Li2 1.924860 1_454
F7 Li3 2.275745 1_555
F8 Fe1 1.908529 1_555
F8 Li2 1.930720 1_555
F8 Li3 2.082385 1_556
F9 Fe0 1.936521 1_555
F9 Li3 1.993086 1_555
F9 Li0 2.059628 1_565
