# generated using pymatgen
data_Na2GaAgI6
_symmetry_space_group_name_H-M   'P 1'
_cell_length_a   8.19710708
_cell_length_b   8.19710708
_cell_length_c   8.19710708
_cell_angle_alpha   60.00000000
_cell_angle_beta   60.00000000
_cell_angle_gamma   60.00000000
_symmetry_Int_Tables_number   1
_chemical_formula_structural   Na2GaAgI6
_chemical_formula_sum   'Na2 Ga1 Ag1 I6'
_cell_volume   389.46355770
_cell_formula_units_Z   1
loop_
 _symmetry_equiv_pos_site_id
 _symmetry_equiv_pos_as_xyz
  1  'x, y, z'
loop_
 _atom_site_type_symbol
 _atom_site_label
 _atom_site_symmetry_multiplicity
 _atom_site_fract_x
 _atom_site_fract_y
 _atom_site_fract_z
 _atom_site_occupancy
  Na  Na0  1  0.75000000  0.75000000  0.75000000  1
  Na  Na1  1  0.25000000  0.25000000  0.25000000  1
  Ga  Ga0  1  0.00000000  0.00000000  0.00000000  1
  Ag  Ag0  1  0.50000000  0.50000000  0.50000000  1
  I  I0  1  0.75506100  0.24493900  0.24493900  1
  I  I1  1  0.24493900  0.24493900  0.75506100  1
  I  I2  1  0.24493900  0.75506100  0.75506100  1
  I  I3  1  0.24493900  0.75506100  0.24493900  1
  I  I4  1  0.75506100  0.24493900  0.75506100  1
  I  I5  1  0.75506100  0.75506100  0.24493900  1
loop_
_geom_bond_atom_site_label_1
_geom_bond_atom_site_label_2
_geom_bond_distance
_geom_bond_site_symmetry_2
Ga0 I1 2.839446 1_554
Ga0 I3 2.839446 1_545
Ga0 I0 2.839446 1_455
Ga0 I5 2.839446 1_445
Ga0 I2 2.839446 1_544
Ga0 I4 2.839446 1_454
Ag0 I3 2.956784 1_555
Ag0 I0 2.956784 1_555
Ag0 I1 2.956784 1_555
Ag0 I4 2.956784 1_555
Ag0 I5 2.956784 1_555
Ag0 I2 2.956784 1_555
