# generated using pymatgen
data_MgV8(OF)8
_symmetry_space_group_name_H-M   'P 1'
_cell_length_a   4.91152475
_cell_length_b   10.42254544
_cell_length_c   5.74930490
_cell_angle_alpha   84.70931609
_cell_angle_beta   92.15478816
_cell_angle_gamma   89.51098947
_symmetry_Int_Tables_number   1
_chemical_formula_structural   MgV8(OF)8
_chemical_formula_sum   'Mg1 V8 O8 F8'
_cell_volume   292.82793596
_cell_formula_units_Z   1
loop_
 _symmetry_equiv_pos_site_id
 _symmetry_equiv_pos_as_xyz
  1  'x, y, z'
loop_
 _atom_site_type_symbol
 _atom_site_label
 _atom_site_symmetry_multiplicity
 _atom_site_fract_x
 _atom_site_fract_y
 _atom_site_fract_z
 _atom_site_occupancy
  Mg  Mg0  1  0.00000000  0.50000000  0.00000000  1
  V  V0  1  0.48165083  0.25685197  0.76140485  1
  V  V1  1  0.50000000  0.00000000  0.50000000  1
  V  V2  1  0.51834917  0.74314803  0.23859515  1
  V  V3  1  0.50000000  0.50000000  0.00000000  1
  V  V4  1  0.97811362  0.22724251  0.28138450  1
  V  V5  1  0.02188638  0.77275749  0.71861550  1
  V  V6  1  0.00000000  0.50000000  0.50000000  1
  V  V7  1  0.00000000  0.00000000  0.00000000  1
  O  O0  1  0.79023819  0.07404786  0.27817072  1
  O  O1  1  0.70266829  0.82362025  0.49603414  1
  O  O2  1  0.74153448  0.57591266  0.22548035  1
  O  O3  1  0.74034834  0.34038045  0.01509038  1
  O  O4  1  0.25846552  0.42408734  0.77451965  1
  O  O5  1  0.25965166  0.65961955  0.98490962  1
  O  O6  1  0.29733171  0.17637975  0.50396586  1
  O  O7  1  0.20976181  0.92595214  0.72182928  1
  F  F0  1  0.76674324  0.58643997  0.74666620  1
  F  F1  1  0.77191853  0.32554857  0.52689328  1
  F  F2  1  0.77348642  0.82680221  0.99563048  1
  F  F3  1  0.70032933  0.08435794  0.76982504  1
  F  F4  1  0.29967067  0.91564206  0.23017496  1
  F  F5  1  0.22808147  0.67445143  0.47310672  1
  F  F6  1  0.22651358  0.17319779  0.00436952  1
  F  F7  1  0.23325676  0.41356003  0.25333380  1
loop_
_geom_bond_atom_site_label_1
_geom_bond_atom_site_label_2
_geom_bond_distance
_geom_bond_site_symmetry_2
Mg0 O4 2.052761 1_554
Mg0 O2 2.052761 1_455
Mg0 O3 2.102261 1_455
Mg0 O5 2.102261 1_554
O0 V4 1.852163 1_555
O0 V1 2.056268 1_555
O0 V7 2.133709 1_655
O1 V2 1.963371 1_555
O1 V5 2.021535 1_655
O1 V1 2.085427 1_565
O2 V3 1.950226 1_555
O2 V2 2.059914 1_555
O2 V6 2.080973 1_655
O3 V3 2.025072 1_555
O3 V4 2.146463 1_555
O3 V0 2.147856 1_554
O4 V3 1.950226 1_556
O4 V0 2.059914 1_555
O4 V6 2.080973 1_555
O5 V3 2.025072 1_556
O5 V5 2.146463 1_555
O5 V2 2.147856 1_556
O6 V0 1.963371 1_555
O6 V4 2.021535 1_455
O6 V1 2.085427 1_555
O7 V5 1.852163 1_555
O7 V1 2.056268 1_565
O7 V7 2.133709 1_566
F0 Mg0 1.964804 1_656
F0 V6 2.115544 1_655
F0 V3 2.138011 1_556
F0 V5 2.316536 1_655
F1 V0 2.084932 1_555
F1 V4 2.103394 1_555
F1 V6 2.140261 1_655
F2 V2 2.051201 1_556
F2 V7 2.130141 1_666
F2 V5 2.154550 1_655
F3 V1 2.073454 1_555
F3 V7 2.075443 1_656
F3 V0 2.082109 1_555
F4 V1 2.073454 1_565
F4 V7 2.075443 1_565
F4 V2 2.082109 1_555
F5 V2 2.084932 1_555
F5 V5 2.103394 1_555
F5 V6 2.140261 1_555
F6 V0 2.051201 1_554
F6 V7 2.130141 1_555
F6 V4 2.154550 1_455
F7 Mg0 1.964804 1_555
F7 V6 2.115544 1_555
F7 V3 2.138011 1_555
F7 V4 2.316536 1_455
