# generated using pymatgen
data_Li9Mn7O16
_symmetry_space_group_name_H-M   'P 1'
_cell_length_a   3.01095000
_cell_length_b   5.09868099
_cell_length_c   19.45735591
_cell_angle_alpha   92.64061726
_cell_angle_beta   94.08591433
_cell_angle_gamma   91.83616389
_symmetry_Int_Tables_number   1
_chemical_formula_structural   Li9Mn7O16
_chemical_formula_sum   'Li9 Mn7 O16'
_cell_volume   297.44418404
_cell_formula_units_Z   1
loop_
 _symmetry_equiv_pos_site_id
 _symmetry_equiv_pos_as_xyz
  1  'x, y, z'
loop_
 _atom_site_type_symbol
 _atom_site_label
 _atom_site_symmetry_multiplicity
 _atom_site_fract_x
 _atom_site_fract_y
 _atom_site_fract_z
 _atom_site_occupancy
  Li  Li0  1  0.50000000  0.50000000  0.50000000  1
  Li  Li1  1  0.99561600  0.63256600  0.37887700  1
  Li  Li2  1  0.50315600  0.74435200  0.24965200  1
  Li  Li3  1  0.00039900  0.87536600  0.12534400  1
  Li  Li4  1  0.50000000  0.00000000  0.00000000  1
  Li  Li5  1  0.99960100  0.12463400  0.87465600  1
  Li  Li6  1  0.49684400  0.25564800  0.75034800  1
  Li  Li7  1  0.00438400  0.36743400  0.62112300  1
  Li  Li8  1  0.00000000  0.00000000  0.50000000  1
  Mn  Mn0  1  0.50296100  0.88203200  0.62013200  1
  Mn  Mn1  1  0.49703900  0.11796800  0.37986800  1
  Mn  Mn2  1  0.99188800  0.25324000  0.25215300  1
  Mn  Mn3  1  0.50013400  0.37516700  0.12582900  1
  Mn  Mn4  1  0.00000000  0.50000000  0.00000000  1
  Mn  Mn5  1  0.49986600  0.62483300  0.87417100  1
  Mn  Mn6  1  0.00811200  0.74676000  0.74784700  1
  O  O0  1  0.97624100  0.71361500  0.57080500  1
  O  O1  1  0.50830500  0.82995900  0.43171800  1
  O  O2  1  0.97481600  0.96897500  0.31840900  1
  O  O3  1  0.52905900  0.08025300  0.18778400  1
  O  O4  1  0.03284500  0.20520600  0.06175300  1
  O  O5  1  0.53191500  0.33060700  0.93609200  1
  O  O6  1  0.03053300  0.45159300  0.81090700  1
  O  O7  1  0.53399500  0.58639600  0.68740900  1
  O  O8  1  0.02375900  0.28638500  0.42919500  1
  O  O9  1  0.46600500  0.41360400  0.31259100  1
  O  O10  1  0.96946700  0.54840700  0.18909300  1
  O  O11  1  0.46808500  0.66939300  0.06390800  1
  O  O12  1  0.96715500  0.79479400  0.93824700  1
  O  O13  1  0.47094100  0.91974700  0.81221600  1
  O  O14  1  0.02518400  0.03102500  0.68159100  1
  O  O15  1  0.49169500  0.17004100  0.56828200  1
loop_
_geom_bond_atom_site_label_1
_geom_bond_atom_site_label_2
_geom_bond_distance
_geom_bond_site_symmetry_2
Li0 O8 2.149551 1_555
Li0 O0 2.149551 1_555
Li0 O15 2.191821 1_555
Li0 O1 2.191821 1_555
Li0 O0 2.419223 1_455
Li0 O8 2.419223 1_655
Li1 O1 2.007955 1_655
Li1 O8 2.058685 1_655
Li1 O1 2.106456 1_555
Li1 O2 2.124282 1_555
Li1 O9 2.216495 1_555
Li1 O9 2.268207 1_655
Li2 O10 2.118382 1_455
Li2 O9 2.133968 1_555
Li2 O10 2.138939 1_555
Li2 O3 2.140830 1_565
Li2 O2 2.145253 1_555
Li2 O2 2.431250 1_455
Li3 O10 2.126821 1_455
Li3 O4 2.137100 1_565
Li3 O3 2.145219 1_565
Li3 O11 2.145727 1_455
Li3 O11 2.175726 1_555
Li3 O3 2.192069 1_465
Li4 O11 2.143995 1_545
Li4 O5 2.143995 1_554
Li4 O12 2.148094 1_444
Li4 O4 2.148094 1_655
Li4 O12 2.176283 1_544
Li4 O4 2.176283 1_555
Li5 O6 2.126821 1_655
Li5 O12 2.137100 1_545
Li5 O13 2.145219 1_545
Li5 O5 2.145727 1_655
Li5 O5 2.175726 1_555
Li5 O13 2.192069 1_645
Li6 O6 2.118382 1_655
Li6 O7 2.133968 1_555
Li6 O6 2.138939 1_555
Li6 O13 2.140830 1_545
Li6 O14 2.145253 1_555
Li6 O14 2.431250 1_655
Li7 O15 2.007955 1_455
Li7 O0 2.058685 1_455
Li7 O15 2.106456 1_555
Li7 O14 2.124282 1_555
Li7 O7 2.216495 1_555
Li7 O7 2.268207 1_455
Li8 O0 2.056202 1_445
Li8 O8 2.056202 1_555
Li8 O15 2.059104 1_555
Li8 O1 2.059104 1_445
Li8 O15 2.264474 1_455
Li8 O1 2.264474 1_545
Mn0 O15 1.819388 1_565
Mn0 O0 1.947712 1_455
Mn0 O0 1.971448 1_555
Mn0 O14 2.012784 1_665
Mn0 O7 2.041524 1_555
Mn0 O14 2.075582 1_565
Mn1 O1 1.819388 1_545
Mn1 O8 1.947712 1_655
Mn1 O8 1.971448 1_555
Mn1 O2 2.012784 1_445
Mn1 O9 2.041524 1_555
Mn1 O2 2.075582 1_545
Mn2 O9 1.920075 1_655
Mn2 O3 1.964507 1_555
Mn2 O10 1.984894 1_555
Mn2 O2 1.985477 1_545
Mn2 O9 2.195069 1_555
Mn2 O3 2.289287 1_655
Mn3 O4 1.963997 1_555
Mn3 O10 1.965794 1_555
Mn3 O11 1.967395 1_555
Mn3 O3 1.970343 1_555
Mn3 O10 2.262519 1_455
Mn3 O4 2.269921 1_655
Mn4 O5 1.962609 1_454
Mn4 O11 1.962609 1_555
Mn4 O12 1.967662 1_454
Mn4 O4 1.967662 1_555
Mn4 O5 2.265105 1_554
Mn4 O11 2.265105 1_455
Mn5 O12 1.963997 1_555
Mn5 O6 1.965794 1_555
Mn5 O5 1.967395 1_555
Mn5 O13 1.970343 1_555
Mn5 O6 2.262519 1_655
Mn5 O12 2.269921 1_455
Mn6 O7 1.920075 1_455
Mn6 O13 1.964507 1_555
Mn6 O6 1.984894 1_555
Mn6 O14 1.985477 1_565
Mn6 O7 2.195069 1_555
Mn6 O13 2.289287 1_455
