# generated using pymatgen
data_Y(WO2)2
_symmetry_space_group_name_H-M   'P 1'
_cell_length_a   6.50498343
_cell_length_b   6.50498343
_cell_length_c   6.50498403
_cell_angle_alpha   61.94566686
_cell_angle_beta   61.94566686
_cell_angle_gamma   61.94566693
_symmetry_Int_Tables_number   1
_chemical_formula_structural   Y(WO2)2
_chemical_formula_sum   'Y2 W4 O8'
_cell_volume   203.11007136
_cell_formula_units_Z   2
loop_
 _symmetry_equiv_pos_site_id
 _symmetry_equiv_pos_as_xyz
  1  'x, y, z'
loop_
 _atom_site_type_symbol
 _atom_site_label
 _atom_site_symmetry_multiplicity
 _atom_site_fract_x
 _atom_site_fract_y
 _atom_site_fract_z
 _atom_site_occupancy
  Y  Y0  1  0.62063000  0.62063000  0.62063000  1
  Y  Y1  1  0.37937000  0.37937000  0.37937000  1
  W  W0  1  0.50000000  0.00000000  0.00000000  1
  W  W1  1  0.00000000  0.00000000  0.00000000  1
  W  W2  1  0.00000000  0.50000000  0.00000000  1
  W  W3  1  0.00000000  0.00000000  0.50000000  1
  O  O0  1  0.76359700  0.21203200  0.76359700  1
  O  O1  1  0.23640300  0.23640300  0.78796800  1
  O  O2  1  0.78796800  0.23640300  0.23640300  1
  O  O3  1  0.23725300  0.23725300  0.23725300  1
  O  O4  1  0.76359700  0.76359700  0.21203200  1
  O  O5  1  0.23640300  0.78796800  0.23640300  1
  O  O6  1  0.21203200  0.76359700  0.76359700  1
  O  O7  1  0.76274700  0.76274700  0.76274700  1
loop_
_geom_bond_atom_site_label_1
_geom_bond_atom_site_label_2
_geom_bond_distance
_geom_bond_site_symmetry_2
O0 W1 2.205958 1_656
O0 W0 2.226342 1_556
O0 W3 2.226342 1_655
O0 Y0 2.226596 1_555
O1 W1 2.205958 1_556
O1 W2 2.226342 1_556
O1 W0 2.226342 1_556
O1 Y1 2.226596 1_555
O2 W1 2.205958 1_655
O2 W2 2.226342 1_655
O2 W3 2.226342 1_655
O2 Y1 2.226596 1_555
O3 W3 2.227792 1_555
O3 W2 2.227792 1_555
O3 W0 2.227792 1_555
O3 Y1 2.230606 1_555
O4 W1 2.205958 1_665
O4 W0 2.226342 1_565
O4 W2 2.226342 1_655
O4 Y0 2.226596 1_555
O5 W1 2.205958 1_565
O5 W0 2.226342 1_565
O5 W3 2.226342 1_565
O5 Y1 2.226596 1_555
O6 W1 2.205958 1_566
O6 W2 2.226342 1_556
O6 W3 2.226342 1_565
O6 Y0 2.226596 1_555
O7 W3 2.227792 1_665
O7 W2 2.227792 1_656
O7 W0 2.227792 1_566
O7 Y0 2.230606 1_555
