# generated using pymatgen
data_SrLaAl3O7
_symmetry_space_group_name_H-M   'P 1'
_cell_length_a   7.95617405
_cell_length_b   7.95617405
_cell_length_c   5.28786100
_cell_angle_alpha   90.00000000
_cell_angle_beta   90.00000000
_cell_angle_gamma   90.16907047
_symmetry_Int_Tables_number   1
_chemical_formula_structural   SrLaAl3O7
_chemical_formula_sum   'Sr2 La2 Al6 O14'
_cell_volume   334.72387470
_cell_formula_units_Z   2
loop_
 _symmetry_equiv_pos_site_id
 _symmetry_equiv_pos_as_xyz
  1  'x, y, z'
loop_
 _atom_site_type_symbol
 _atom_site_label
 _atom_site_symmetry_multiplicity
 _atom_site_fract_x
 _atom_site_fract_y
 _atom_site_fract_z
 _atom_site_occupancy
  Sr  Sr0  1  0.66209700  0.66209700  0.48981400  1
  Sr  Sr1  1  0.33790300  0.33790300  0.48981400  1
  La  La0  1  0.83581000  0.16419000  0.51015600  1
  La  La1  1  0.16419000  0.83581000  0.51015600  1
  Al  Al0  1  0.85806100  0.85806100  0.03850900  1
  Al  Al1  1  0.64335200  0.35664800  0.96187600  1
  Al  Al2  1  0.14193900  0.14193900  0.03850900  1
  Al  Al3  1  0.35664800  0.64335200  0.96187600  1
  Al  Al4  1  0.50000000  0.00000000  0.99973300  1
  Al  Al5  1  0.00000000  0.50000000  0.99973300  1
  O  O0  1  0.66614300  0.91798700  0.18650300  1
  O  O1  1  0.83779800  0.40974200  0.80872200  1
  O  O2  1  0.33385700  0.08201300  0.18650300  1
  O  O3  1  0.16220200  0.59025800  0.80872200  1
  O  O4  1  0.40974200  0.83779800  0.80872200  1
  O  O5  1  0.08201300  0.33385700  0.18650300  1
  O  O6  1  0.59025800  0.16220200  0.80872200  1
  O  O7  1  0.91798700  0.66614300  0.18650300  1
  O  O8  1  0.86780600  0.86780600  0.70730600  1
  O  O9  1  0.65064400  0.34935600  0.29157600  1
  O  O10  1  0.13219400  0.13219400  0.70730600  1
  O  O11  1  0.34935600  0.65064400  0.29157600  1
  O  O12  1  0.50000000  0.50000000  0.83346400  1
  O  O13  1  0.00000000  0.00000000  0.18769700  1
loop_
_geom_bond_atom_site_label_1
_geom_bond_atom_site_label_2
_geom_bond_distance
_geom_bond_site_symmetry_2
La0 O9 2.385255 1_555
La0 O1 2.511845 1_555
La0 O6 2.511845 1_555
La0 O13 2.516042 1_655
La0 O10 2.591469 1_655
La0 O8 2.591469 1_545
La0 O5 2.927910 1_655
La0 O0 2.927910 1_545
La1 O11 2.385255 1_555
La1 O4 2.511845 1_555
La1 O3 2.511845 1_555
La1 O13 2.516042 1_565
La1 O10 2.591469 1_565
La1 O8 2.591469 1_455
La1 O2 2.927910 1_565
La1 O7 2.927910 1_455
Al0 O8 1.754774 1_554
Al0 O13 1.779160 1_665
Al0 O7 1.782010 1_555
Al0 O0 1.782010 1_555
Al1 O9 1.745343 1_556
Al1 O12 1.752251 1_555
Al1 O6 1.795496 1_555
Al1 O1 1.795496 1_555
Al2 O10 1.754774 1_554
Al2 O13 1.779160 1_555
Al2 O2 1.782010 1_555
Al2 O5 1.782010 1_555
Al3 O11 1.745343 1_556
Al3 O12 1.752251 1_555
Al3 O3 1.795496 1_555
Al3 O4 1.795496 1_555
Al4 O0 1.775827 1_546
Al4 O2 1.775827 1_556
Al4 O6 1.787680 1_555
Al4 O4 1.787680 1_545
Al5 O7 1.775827 1_456
Al5 O5 1.775827 1_556
Al5 O3 1.787680 1_555
Al5 O1 1.787680 1_455
O0 Sr0 2.591900 1_555
O1 Sr0 2.974162 1_555
O2 Sr1 2.591900 1_555
O3 Sr1 2.974162 1_555
O4 Sr0 2.974162 1_555
O5 Sr1 2.591900 1_555
O6 Sr1 2.974162 1_555
O7 Sr0 2.591900 1_555
O8 Sr0 2.581499 1_555
O9 Sr0 2.701306 1_555
O9 Sr1 2.701306 1_555
O10 Sr1 2.581499 1_555
O11 Sr0 2.701306 1_555
O11 Sr1 2.701306 1_555
O12 Sr0 2.572705 1_555
O12 Sr1 2.572705 1_555
