# generated using pymatgen
data_ErMnO3
_symmetry_space_group_name_H-M   'P 1'
_cell_length_a   6.07945324
_cell_length_b   6.07943060
_cell_length_c   11.38085613
_cell_angle_alpha   90.00000082
_cell_angle_beta   89.99999731
_cell_angle_gamma   119.99967307
_symmetry_Int_Tables_number   1
_chemical_formula_structural   ErMnO3
_chemical_formula_sum   'Er6 Mn6 O18'
_cell_volume   364.27924100
_cell_formula_units_Z   6
loop_
 _symmetry_equiv_pos_site_id
 _symmetry_equiv_pos_as_xyz
  1  'x, y, z'
loop_
 _atom_site_type_symbol
 _atom_site_label
 _atom_site_symmetry_multiplicity
 _atom_site_fract_x
 _atom_site_fract_y
 _atom_site_fract_z
 _atom_site_occupancy
  Er  Er0  1  0.66666674  0.33333314  0.22862984  1
  Er  Er1  1  0.33333163  0.66666516  0.72862918  1
  Er  Er2  1  0.66666477  0.33333224  0.72862964  1
  Er  Er3  1  0.33333207  0.66666552  0.22862969  1
  Er  Er4  1  0.99999854  0.99999999  0.77351893  1
  Er  Er5  1  0.99999591  -0.00000317  0.27351713  1
  Mn  Mn0  1  0.66652298  0.00000175  0.49786159  1
  Mn  Mn1  1  0.66651726  0.66652112  0.99786267  1
  Mn  Mn2  1  0.00000258  0.33348979  0.99786290  1
  Mn  Mn3  1  0.00000420  0.66651630  0.49786240  1
  Mn  Mn4  1  0.33348591  0.33348319  0.49786263  1
  Mn  Mn5  1  0.33348703  0.00000718  0.99786267  1
  O  O0  1  0.66666556  0.33333042  0.01788722  1
  O  O1  1  0.33333051  0.66666517  0.51788676  1
  O  O2  1  0.66666312  0.33333137  0.51788681  1
  O  O3  1  0.33333254  0.66666415  0.01788727  1
  O  O4  1  0.99999789  0.99999619  0.97386140  1
  O  O5  1  0.99999699  0.99999813  0.47386176  1
  O  O6  1  0.36039536  0.00000188  0.83385135  1
  O  O7  1  0.36039655  0.36039587  0.33385133  1
  O  O8  1  0.00000021  0.63960162  0.33385130  1
  O  O9  1  0.00000078  0.36039603  0.83385116  1
  O  O10  1  0.63960456  0.63960563  0.83385115  1
  O  O11  1  0.63960442  0.99999980  0.33385151  1
  O  O12  1  0.30580220  0.00000036  0.16214951  1
  O  O13  1  0.30580257  0.30580200  0.66214970  1
  O  O14  1  0.99999956  0.69419669  0.66214979  1
  O  O15  1  0.00000024  0.30580281  0.16214956  1
  O  O16  1  0.69419779  0.69419832  0.16214960  1
  O  O17  1  0.69419852  0.99999937  0.66214956  1
loop_
_geom_bond_atom_site_label_1
_geom_bond_atom_site_label_2
_geom_bond_distance
_geom_bond_site_symmetry_2
Er0 O16 2.246390 1_555
Er0 O15 2.246390 1_655
Er0 O12 2.246399 1_555
Er0 O11 2.287862 1_545
Er0 O7 2.287863 1_555
Er0 O8 2.287867 1_655
Er0 O0 2.398431 1_555
Er1 O13 2.246381 1_555
Er1 O14 2.246383 1_455
Er1 O17 2.246407 1_555
Er1 O9 2.287864 1_555
Er1 O10 2.287870 1_555
Er1 O6 2.287879 1_565
Er1 O1 2.398429 1_555
Er2 O13 2.246382 1_555
Er2 O17 2.246390 1_545
Er2 O14 2.246401 1_555
Er2 O6 2.287860 1_555
Er2 O10 2.287866 1_555
Er2 O9 2.287878 1_655
Er2 O2 2.398434 1_555
Er3 O15 2.246389 1_555
Er3 O12 2.246389 1_565
Er3 O16 2.246396 1_555
Er3 O8 2.287857 1_555
Er3 O7 2.287860 1_555
Er3 O11 2.287879 1_555
Er3 O3 2.398429 1_555
Er4 O17 2.250053 1_555
Er4 O14 2.250066 1_555
Er4 O13 2.250073 1_665
Er4 O4 2.280069 1_555
Er4 O9 2.296068 1_665
Er4 O10 2.296078 1_555
Er4 O6 2.296082 1_665
Er5 O16 2.250039 1_545
Er5 O15 2.250056 1_655
Er5 O12 2.250066 1_655
Er5 O5 2.280093 1_545
Er5 O11 2.296072 1_545
Er5 O8 2.296089 1_645
Er5 O7 2.296117 1_655
Mn0 O11 1.873735 1_545
Mn0 O17 1.877293 1_545
Mn0 O2 2.038806 1_555
Mn0 O1 2.038850 1_545
Mn0 O5 2.045667 1_545
Mn1 O10 1.873749 1_555
Mn1 O16 1.877283 1_556
Mn1 O3 2.038793 1_556
Mn1 O0 2.038838 1_556
Mn1 O4 2.045688 1_555
Mn2 O9 1.873748 1_555
Mn2 O15 1.877283 1_556
Mn2 O3 2.038774 1_556
Mn2 O0 2.038799 1_456
Mn2 O4 2.045756 1_445
Mn3 O8 1.873744 1_555
Mn3 O14 1.877290 1_455
Mn3 O1 2.038766 1_555
Mn3 O2 2.038840 1_455
Mn3 O5 2.045719 1_455
Mn4 O7 1.873746 1_555
Mn4 O13 1.877286 1_555
Mn4 O2 2.038774 1_555
Mn4 O1 2.038806 1_555
Mn4 O5 2.045743 1_445
Mn5 O6 1.873745 1_555
Mn5 O12 1.877283 1_556
Mn5 O0 2.038767 1_556
Mn5 O3 2.038843 1_546
Mn5 O4 2.045717 1_445
