# generated using pymatgen
data_RbH12AuC4(SO3)4
_symmetry_space_group_name_H-M   'P 1'
_cell_length_a   9.79266800
_cell_length_b   9.79266800
_cell_length_c   9.49648900
_cell_angle_alpha   90.00000000
_cell_angle_beta   90.00000000
_cell_angle_gamma   90.00000000
_symmetry_Int_Tables_number   1
_chemical_formula_structural   RbH12AuC4(SO3)4
_chemical_formula_sum   'Rb2 H24 Au2 C8 S8 O24'
_cell_volume   910.67860023
_cell_formula_units_Z   2
loop_
 _symmetry_equiv_pos_site_id
 _symmetry_equiv_pos_as_xyz
  1  'x, y, z'
loop_
 _atom_site_type_symbol
 _atom_site_label
 _atom_site_symmetry_multiplicity
 _atom_site_fract_x
 _atom_site_fract_y
 _atom_site_fract_z
 _atom_site_occupancy
  Rb  Rb0  1  0.00000000  0.00000000  0.50000000  1
  Rb  Rb1  1  0.50000000  0.50000000  0.00000000  1
  H  H0  1  0.58186300  0.15124700  0.76674300  1
  H  H1  1  0.08186300  0.34875300  0.73325700  1
  H  H2  1  0.41813700  0.84875300  0.76674300  1
  H  H3  1  0.91813700  0.65124700  0.73325700  1
  H  H4  1  0.84875300  0.58186300  0.23325700  1
  H  H5  1  0.65124700  0.08186300  0.26674300  1
  H  H6  1  0.15124700  0.41813700  0.23325700  1
  H  H7  1  0.34875300  0.91813700  0.26674300  1
  H  H8  1  0.57875300  0.13460600  0.95474800  1
  H  H9  1  0.07875300  0.36539400  0.54525200  1
  H  H10  1  0.42124700  0.86539400  0.95474800  1
  H  H11  1  0.92124700  0.63460600  0.54525200  1
  H  H12  1  0.86539400  0.57875300  0.04525200  1
  H  H13  1  0.63460600  0.07875300  0.45474800  1
  H  H14  1  0.13460600  0.42124700  0.04525200  1
  H  H15  1  0.36539400  0.92124700  0.45474800  1
  H  H16  1  0.65979200  0.00403200  0.84902900  1
  H  H17  1  0.15979200  0.49596800  0.65097100  1
  H  H18  1  0.34020800  0.99596800  0.84902900  1
  H  H19  1  0.84020800  0.50403200  0.65097100  1
  H  H20  1  0.99596800  0.65979200  0.15097100  1
  H  H21  1  0.50403200  0.15979200  0.34902900  1
  H  H22  1  0.00403200  0.34020800  0.15097100  1
  H  H23  1  0.49596800  0.84020800  0.34902900  1
  Au  Au0  1  0.00000000  0.00000000  0.00000000  1
  Au  Au1  1  0.50000000  0.50000000  0.50000000  1
  C  C0  1  0.63732700  0.11315400  0.85894900  1
  C  C1  1  0.13732700  0.38684600  0.64105100  1
  C  C2  1  0.36267300  0.88684600  0.85894900  1
  C  C3  1  0.86267300  0.61315400  0.64105100  1
  C  C4  1  0.88684600  0.63732700  0.14105100  1
  C  C5  1  0.61315400  0.13732700  0.35894900  1
  C  C6  1  0.11315400  0.36267300  0.14105100  1
  C  C7  1  0.38684600  0.86267300  0.35894900  1
  S  S0  1  0.79362500  0.20453400  0.86729400  1
  S  S1  1  0.29362500  0.29546600  0.63270600  1
  S  S2  1  0.20637500  0.79546600  0.86729400  1
  S  S3  1  0.70637500  0.70453400  0.63270600  1
  S  S4  1  0.79546600  0.79362500  0.13270600  1
  S  S5  1  0.70453400  0.29362500  0.36729400  1
  S  S6  1  0.20453400  0.20637500  0.13270600  1
  S  S7  1  0.29546600  0.70637500  0.36729400  1
  O  O0  1  0.86171300  0.15662800  0.00806800  1
  O  O1  1  0.36171300  0.34337200  0.49193200  1
  O  O2  1  0.13828700  0.84337200  0.00806800  1
  O  O3  1  0.63828700  0.65662800  0.49193200  1
  O  O4  1  0.84337200  0.86171300  0.99193200  1
  O  O5  1  0.65662800  0.36171300  0.50806800  1
  O  O6  1  0.15662800  0.13828700  0.99193200  1
  O  O7  1  0.34337200  0.63828700  0.50806800  1
  O  O8  1  0.87802300  0.16636300  0.74809200  1
  O  O9  1  0.37802300  0.33363700  0.75190800  1
  O  O10  1  0.12197700  0.83363700  0.74809200  1
  O  O11  1  0.62197700  0.66636300  0.75190800  1
  O  O12  1  0.83363700  0.87802300  0.25190800  1
  O  O13  1  0.66636300  0.37802300  0.24809200  1
  O  O14  1  0.16636300  0.12197700  0.25190800  1
  O  O15  1  0.33363700  0.62197700  0.24809200  1
  O  O16  1  0.76220300  0.34837100  0.88656100  1
  O  O17  1  0.26220300  0.15162900  0.61343900  1
  O  O18  1  0.23779700  0.65162900  0.88656100  1
  O  O19  1  0.73779700  0.84837100  0.61343900  1
  O  O20  1  0.65162900  0.76220300  0.11343900  1
  O  O21  1  0.84837100  0.26220300  0.38656100  1
  O  O22  1  0.34837100  0.23779700  0.11343900  1
  O  O23  1  0.15162900  0.73779700  0.38656100  1
loop_
_geom_bond_atom_site_label_1
_geom_bond_atom_site_label_2
_geom_bond_distance
_geom_bond_site_symmetry_2
Au0 O2 2.047507 1_545
Au0 O6 2.047507 1_554
Au0 O4 2.047507 1_444
Au0 O0 2.047507 1_455
Au1 O1 2.047507 1_555
Au1 O5 2.047507 1_555
Au1 O3 2.047507 1_555
Au1 O7 2.047507 1_555
C0 H16 1.095065 1_555
C0 H8 1.095808 1_555
C0 H0 1.095850 1_555
C1 H17 1.095065 1_555
C1 H9 1.095808 1_555
C1 H1 1.095850 1_555
C2 H18 1.095065 1_555
C2 H10 1.095808 1_555
C2 H2 1.095850 1_555
C3 H19 1.095065 1_555
C3 H11 1.095808 1_555
C3 H3 1.095850 1_555
C4 H20 1.095065 1_555
C4 H12 1.095808 1_555
C4 H4 1.095850 1_555
C5 H21 1.095065 1_555
C5 H13 1.095808 1_555
C5 H5 1.095850 1_555
C6 H22 1.095065 1_555
C6 H14 1.095808 1_555
C6 H6 1.095850 1_555
C7 H23 1.095065 1_555
C7 H15 1.095808 1_555
C7 H7 1.095850 1_555
O0 S0 1.565837 1_554
O1 S1 1.565837 1_555
O2 S2 1.565837 1_554
O3 S3 1.565837 1_555
O4 S4 1.565837 1_556
O5 S5 1.565837 1_555
O6 S6 1.565837 1_556
O7 S7 1.565837 1_555
O8 S0 1.450593 1_555
O8 Rb0 3.103486 1_655
O9 S1 1.450593 1_555
O9 Rb1 3.103486 1_556
O10 S2 1.450593 1_555
O10 Rb0 3.103486 1_565
O11 S3 1.450593 1_555
O11 Rb1 3.103486 1_556
O12 S4 1.450593 1_555
O12 Rb0 3.103486 1_665
O13 S5 1.450593 1_555
O13 Rb1 3.103486 1_555
O14 S6 1.450593 1_555
O14 Rb0 3.103486 1_555
O15 S7 1.450593 1_555
O15 Rb1 3.103486 1_555
O16 S0 1.453330 1_555
O16 Rb1 3.155664 1_556
O17 S1 1.453330 1_555
O17 Rb0 3.155664 1_555
O18 S2 1.453330 1_555
O18 Rb1 3.155664 1_556
O19 S3 1.453330 1_555
O19 Rb0 3.155664 1_665
O20 S4 1.453330 1_555
O20 Rb1 3.155664 1_555
O21 S5 1.453330 1_555
O21 Rb0 3.155664 1_655
O22 S6 1.453330 1_555
O22 Rb1 3.155664 1_555
O23 S7 1.453330 1_555
O23 Rb0 3.155664 1_565
