# generated using pymatgen
data_Ta5Ge2B
_symmetry_space_group_name_H-M   'P 1'
_cell_length_a   6.48713200
_cell_length_b   6.48713200
_cell_length_c   7.60376937
_cell_angle_alpha   64.74970275
_cell_angle_beta   64.74970275
_cell_angle_gamma   90.00000000
_symmetry_Int_Tables_number   1
_chemical_formula_structural   Ta5Ge2B
_chemical_formula_sum   'Ta10 Ge4 B2'
_cell_volume   255.20368171
_cell_formula_units_Z   2
loop_
 _symmetry_equiv_pos_site_id
 _symmetry_equiv_pos_as_xyz
  1  'x, y, z'
loop_
 _atom_site_type_symbol
 _atom_site_label
 _atom_site_symmetry_multiplicity
 _atom_site_fract_x
 _atom_site_fract_y
 _atom_site_fract_z
 _atom_site_occupancy
  Ta  Ta0  1  0.50000000  0.50000000  0.00000000  1
  Ta  Ta1  1  0.00000000  0.00000000  0.00000000  1
  Ta  Ta2  1  0.67752000  0.50487200  0.31760800  1
  Ta  Ta3  1  0.00487200  0.17752000  0.31760800  1
  Ta  Ta4  1  0.50487200  0.00487200  0.31760800  1
  Ta  Ta5  1  0.17752000  0.67752000  0.31760800  1
  Ta  Ta6  1  0.32247900  0.49512800  0.68239200  1
  Ta  Ta7  1  0.99512800  0.82248000  0.68239200  1
  Ta  Ta8  1  0.49512800  0.99512800  0.68239200  1
  Ta  Ta9  1  0.82248000  0.32247900  0.68239200  1
  Ge  Ge0  1  0.63490000  0.86510000  0.00000000  1
  Ge  Ge1  1  0.36510000  0.13490100  0.00000000  1
  Ge  Ge2  1  0.86510000  0.36510000  0.00000000  1
  Ge  Ge3  1  0.13490100  0.63490000  0.00000000  1
  B  B0  1  0.25000000  0.25000000  0.50000000  1
  B  B1  1  0.75000000  0.75000000  0.50000000  1
loop_
_geom_bond_atom_site_label_1
_geom_bond_atom_site_label_2
_geom_bond_distance
_geom_bond_site_symmetry_2
Ge0 Ge1 2.475201 1_565
Ge0 Ta1 2.524953 1_665
Ge0 Ta0 2.524953 1_555
Ge0 Ta7 2.669176 1_554
Ge0 Ta2 2.669176 1_555
Ge0 Ta9 2.737914 1_564
Ge0 Ta4 2.737918 1_565
Ge0 Ta5 2.737918 1_555
Ge0 Ta8 2.737918 1_554
Ge1 Ta0 2.524947 1_555
Ge1 Ta1 2.524956 1_555
Ge1 Ta3 2.669173 1_555
Ge1 Ta6 2.669176 1_554
Ge1 Ta9 2.737917 1_554
Ge1 Ta4 2.737918 1_555
Ge1 Ta5 2.737923 1_545
Ge1 Ta8 2.737923 1_544
Ge2 Ge3 2.475201 1_655
Ge2 Ta1 2.524953 1_655
Ge2 Ta0 2.524953 1_555
Ge2 Ta4 2.669176 1_555
Ge2 Ta9 2.669179 1_554
Ge2 Ta6 2.737914 1_654
Ge2 Ta3 2.737918 1_655
Ge2 Ta2 2.737918 1_555
Ge2 Ta7 2.737918 1_554
Ge3 Ta0 2.524947 1_555
Ge3 Ta1 2.524956 1_565
Ge3 Ta8 2.669173 1_554
Ge3 Ta5 2.669173 1_555
Ge3 Ta6 2.737917 1_554
Ge3 Ta3 2.737918 1_555
Ge3 Ta2 2.737923 1_455
Ge3 Ta7 2.737923 1_454
B0 Ta6 2.666637 1_555
B0 Ta9 2.666637 1_455
B0 Ta8 2.666640 1_545
B0 Ta4 2.666640 1_555
B0 Ta5 2.666640 1_555
B0 Ta2 2.666640 1_555
B0 Ta3 2.666640 1_555
B0 Ta7 2.666640 1_445
B0 Ta0 3.032156 1_555
B0 Ta1 3.032156 1_556
B1 Ta7 2.666640 1_555
B1 Ta8 2.666640 1_555
B1 Ta5 2.666640 1_655
B1 Ta3 2.666640 1_665
B1 Ta2 2.666640 1_555
B1 Ta4 2.666640 1_565
B1 Ta9 2.666645 1_555
B1 Ta6 2.666645 1_555
B1 Ta0 3.032156 1_556
B1 Ta1 3.032156 1_665
