# generated using pymatgen
data_Sr12Al14O33
_symmetry_space_group_name_H-M   'P 1'
_cell_length_a   10.77441315
_cell_length_b   10.77441315
_cell_length_c   10.77441315
_cell_angle_alpha   109.31231028
_cell_angle_beta   109.31231028
_cell_angle_gamma   109.78951098
_symmetry_Int_Tables_number   1
_chemical_formula_structural   Sr12Al14O33
_chemical_formula_sum   'Sr12 Al14 O33'
_cell_volume   962.82847199
_cell_formula_units_Z   1
loop_
 _symmetry_equiv_pos_site_id
 _symmetry_equiv_pos_as_xyz
  1  'x, y, z'
loop_
 _atom_site_type_symbol
 _atom_site_label
 _atom_site_symmetry_multiplicity
 _atom_site_fract_x
 _atom_site_fract_y
 _atom_site_fract_z
 _atom_site_occupancy
  Sr  Sr0  1  0.31712400  0.31712400  0.00000000  1
  Sr  Sr1  1  0.12362700  0.98316900  0.35102200  1
  Sr  Sr2  1  0.22739500  0.87637300  0.85954200  1
  Sr  Sr3  1  0.13230000  0.51757000  0.89519400  1
  Sr  Sr4  1  0.01683100  0.36785400  0.14045800  1
  Sr  Sr5  1  0.68287600  0.68287600  0.00000000  1
  Sr  Sr6  1  0.63214600  0.77260500  0.64897800  1
  Sr  Sr7  1  0.76289300  0.86770000  0.38527000  1
  Sr  Sr8  1  0.98034900  0.48034900  0.50000000  1
  Sr  Sr9  1  0.48243000  0.37762400  0.61473000  1
  Sr  Sr10  1  0.51965100  0.01965100  0.50000000  1
  Sr  Sr11  1  0.62237600  0.23710700  0.10480600  1
  Al  Al0  1  0.25000000  0.75000000  0.50000000  1
  Al  Al1  1  0.00000000  0.00000000  0.00000000  1
  Al  Al2  1  0.12438200  0.24838500  0.62333600  1
  Al  Al3  1  0.33889200  0.62542200  0.74815500  1
  Al  Al4  1  0.87254400  0.08896900  0.24724000  1
  Al  Al5  1  0.84172800  0.62530400  0.75276000  1
  Al  Al6  1  0.75161500  0.37495100  0.87599700  1
  Al  Al7  1  0.91103100  0.15827200  0.78357600  1
  Al  Al8  1  0.87726800  0.59073700  0.25184500  1
  Al  Al9  1  0.62504900  0.50104600  0.37666400  1
  Al  Al10  1  0.37457800  0.12273200  0.71347000  1
  Al  Al11  1  0.37469600  0.12745600  0.21642400  1
  Al  Al12  1  0.49895400  0.87561800  0.12400300  1
  Al  Al13  1  0.40926300  0.66110800  0.28653000  1
  O  O0  1  0.26675600  0.19831900  0.63048400  1
  O  O1  1  0.29194700  0.93944500  0.55112600  1
  O  O2  1  0.18812000  0.03345000  0.05993200  1
  O  O3  1  0.96655000  0.02648100  0.15466900  1
  O  O4  1  0.07092200  0.23713200  0.75979400  1
  O  O5  1  0.97351900  0.12818800  0.94006800  1
  O  O6  1  0.06055500  0.61168100  0.35250200  1
  O  O7  1  0.36372800  0.73324400  0.93156300  1
  O  O8  1  0.24139200  0.50411500  0.12919300  1
  O  O9  1  0.25917900  0.70805300  0.64749800  1
  O  O10  1  0.87181200  0.81188000  0.84533100  1
  O  O11  1  0.97271100  0.11535100  0.43371900  1
  O  O12  1  0.00097300  0.61889700  0.75013900  1
  O  O13  1  0.17889400  0.43880600  0.66290100  1
  O  O14  1  0.80168100  0.43216500  0.06843700  1
  O  O15  1  0.76286800  0.52266200  0.83379000  1
  O  O16  1  0.88464900  0.31836800  0.85736000  1
  O  O17  1  0.88780100  0.75860800  0.26272300  1
  O  O18  1  0.49588500  0.62507800  0.73727700  1
  O  O19  1  0.68163200  0.53899200  0.56628100  1
  O  O20  1  0.68887100  0.92907800  0.16621000  1
  O  O21  1  0.77590500  0.51599300  0.33709900  1
  O  O22  1  0.56783500  0.63627200  0.36951600  1
  O  O23  1  0.56119400  0.22409500  0.74008800  1
  O  O24  1  0.86875800  0.25083400  0.24986100  1
  O  O25  1  0.74916600  0.99902700  0.61792300  1
  O  O26  1  0.47733800  0.31112900  0.24020600  1
  O  O27  1  0.50000000  0.50000000  0.00000000  1
  O  O28  1  0.38110300  0.13124200  0.38207700  1
  O  O29  1  0.46100800  0.02728900  0.14264000  1
  O  O30  1  0.48400700  0.82110600  0.25991200  1
  O  O31  1  0.38831900  0.74082100  0.44887400  1
  O  O32  1  0.37492200  0.11219900  0.87080700  1
loop_
_geom_bond_atom_site_label_1
_geom_bond_atom_site_label_2
_geom_bond_distance
_geom_bond_site_symmetry_2
Al0 O31 1.772286 1_555
Al0 O1 1.772286 1_555
Al0 O6 1.772286 1_555
Al0 O9 1.772286 1_555
Al1 O3 1.772232 1_455
Al1 O10 1.772238 1_444
Al1 O5 1.772238 1_454
Al1 O2 1.772241 1_555
Al2 O4 1.771692 1_555
Al2 O0 1.777559 1_555
Al2 O11 1.779786 1_455
Al2 O13 1.782132 1_555
Al3 O18 1.734946 1_555
Al3 O13 1.800639 1_555
Al3 O9 1.801882 1_555
Al3 O7 1.802086 1_555
Al4 O24 1.749388 1_555
Al4 O3 1.777574 1_555
Al4 O20 1.788920 1_545
Al4 O11 1.806296 1_555
Al5 O12 1.749398 1_655
Al5 O10 1.777560 1_555
Al5 O15 1.788909 1_555
Al5 O19 1.806292 1_555
Al6 O15 1.771692 1_555
Al6 O14 1.777559 1_556
Al6 O16 1.779786 1_555
Al6 O23 1.782132 1_555
Al7 O25 1.749399 1_545
Al7 O5 1.777561 1_555
Al7 O4 1.788918 1_655
Al7 O16 1.806285 1_555
Al8 O17 1.734949 1_555
Al8 O21 1.800646 1_555
Al8 O6 1.801873 1_655
Al8 O14 1.802083 1_555
Al9 O26 1.771685 1_555
Al9 O22 1.777559 1_555
Al9 O19 1.779786 1_555
Al9 O21 1.782132 1_555
Al10 O32 1.734941 1_555
Al10 O23 1.800641 1_555
Al10 O1 1.801875 1_545
Al10 O0 1.802095 1_555
Al11 O28 1.749409 1_555
Al11 O2 1.777559 1_555
Al11 O26 1.788918 1_555
Al11 O29 1.806292 1_555
Al12 O20 1.771681 1_555
Al12 O7 1.777559 1_554
Al12 O29 1.779786 1_565
Al12 O30 1.782132 1_555
Al13 O8 1.734946 1_555
Al13 O30 1.800639 1_555
Al13 O31 1.801882 1_555
Al13 O22 1.802086 1_555
O0 Sr9 2.568831 1_555
O0 Sr1 2.590263 1_545
O1 Sr1 2.612156 1_555
O1 Sr10 2.615805 1_565
O2 Sr2 2.525334 1_544
O3 Sr1 2.525334 1_645
O4 Sr3 2.605497 1_555
O4 Sr0 2.629302 1_556
O5 Sr4 2.525346 1_656
O6 Sr4 2.612149 1_555
O6 Sr8 2.615805 1_455
O7 Sr3 2.568831 1_555
O7 Sr2 2.590263 1_555
O8 Sr4 2.435366 1_555
O8 Sr3 2.481143 1_554
O8 Sr0 2.583016 1_555
O9 Sr2 2.612156 1_555
O9 Sr8 2.615805 1_455
O10 Sr6 2.525347 1_555
O11 Sr7 2.591624 1_545
O11 Sr1 2.674549 1_645
O12 Sr8 2.501903 1_455
O12 Sr3 2.519627 1_555
O12 Sr2 2.527697 1_555
O13 Sr8 2.557671 1_455
O13 Sr3 2.636475 1_555
O14 Sr11 2.568824 1_555
O14 Sr4 2.590256 1_655
O15 Sr9 2.605497 1_555
O15 Sr5 2.629302 1_556
O16 Sr3 2.591619 1_655
O16 Sr4 2.674546 1_656
O17 Sr1 2.435369 1_655
O17 Sr7 2.481152 1_555
O17 Sr5 2.583016 1_555
O18 Sr6 2.435364 1_555
O18 Sr9 2.481143 1_555
O18 Sr5 2.583016 1_556
O19 Sr9 2.591619 1_555
O19 Sr6 2.674556 1_555
O20 Sr7 2.605497 1_555
O20 Sr5 2.629308 1_555
O21 Sr8 2.557671 1_555
O21 Sr11 2.636469 1_555
O22 Sr7 2.568826 1_555
O22 Sr6 2.590267 1_555
O23 Sr10 2.557671 1_555
O23 Sr9 2.636475 1_555
O24 Sr8 2.501903 1_555
O24 Sr11 2.519632 1_555
O24 Sr4 2.527702 1_655
O25 Sr10 2.501901 1_565
O25 Sr7 2.519612 1_555
O25 Sr6 2.527706 1_555
O26 Sr11 2.605497 1_555
O26 Sr0 2.629296 1_555
O27 Sr5 2.266255 1_555
O27 Sr0 2.266255 1_555
O28 Sr10 2.501898 1_555
O28 Sr9 2.519621 1_555
O28 Sr1 2.527692 1_545
O29 Sr11 2.591626 1_555
O29 Sr2 2.674549 1_544
O30 Sr10 2.557671 1_565
O30 Sr7 2.636466 1_555
O31 Sr6 2.612148 1_555
O31 Sr10 2.615805 1_565
O32 Sr2 2.435369 1_545
O32 Sr11 2.481141 1_556
O32 Sr0 2.583016 1_556
