# generated using pymatgen
data_YCoB4
_symmetry_space_group_name_H-M   'P 1'
_cell_length_a   3.40018967
_cell_length_b   5.89202747
_cell_length_c   11.41115808
_cell_angle_alpha   90.00000000
_cell_angle_beta   90.00000000
_cell_angle_gamma   90.00000000
_symmetry_Int_Tables_number   1
_chemical_formula_structural   YCoB4
_chemical_formula_sum   'Y4 Co4 B16'
_cell_volume   228.61126580
_cell_formula_units_Z   4
loop_
 _symmetry_equiv_pos_site_id
 _symmetry_equiv_pos_as_xyz
  1  'x, y, z'
loop_
 _atom_site_type_symbol
 _atom_site_label
 _atom_site_symmetry_multiplicity
 _atom_site_fract_x
 _atom_site_fract_y
 _atom_site_fract_z
 _atom_site_occupancy
  Y  Y0  1  0.50000000  0.37321178  0.15027330  1
  Y  Y1  1  0.50000000  0.62678822  0.84972670  1
  Y  Y2  1  0.50000000  0.12678822  0.65027330  1
  Y  Y3  1  0.50000000  0.87321178  0.34972670  1
  Co  Co0  1  0.50000000  0.36667678  0.41152381  1
  Co  Co1  1  0.50000000  0.63332322  0.58847619  1
  Co  Co2  1  0.50000000  0.13332322  0.91152381  1
  Co  Co3  1  0.50000000  0.86667678  0.08847619  1
  B  B0  1  -0.00000000  0.11190049  0.04616414  1
  B  B1  1  -0.00000000  0.88809951  0.95383586  1
  B  B2  1  -0.00000000  0.38809951  0.54616414  1
  B  B3  1  -0.00000000  0.61190049  0.45383586  1
  B  B4  1  -0.00000000  0.13950108  0.46724884  1
  B  B5  1  -0.00000000  0.86049892  0.53275116  1
  B  B6  1  -0.00000000  0.36049892  0.96724884  1
  B  B7  1  -0.00000000  0.63950108  0.03275116  1
  B  B8  1  -0.00000000  0.02195803  0.18991167  1
  B  B9  1  -0.00000000  0.97804197  0.81008833  1
  B  B10  1  0.00000000  0.47804197  0.68991167  1
  B  B11  1  -0.00000000  0.52195803  0.31008833  1
  B  B12  1  -0.00000000  0.21744214  0.31612483  1
  B  B13  1  -0.00000000  0.78255786  0.68387517  1
  B  B14  1  -0.00000000  0.28255786  0.81612483  1
  B  B15  1  0.00000000  0.71744214  0.18387517  1
loop_
_geom_bond_atom_site_label_1
_geom_bond_atom_site_label_2
_geom_bond_distance
_geom_bond_site_symmetry_2
B0 B1 1.687848 1_544
B0 B6 1.719423 1_554
B0 B8 1.723806 1_555
B0 Co3 2.282779 1_445
B0 Co3 2.282779 1_545
B0 Co2 2.294948 1_554
B0 Co2 2.294948 1_454
B0 Y0 2.583063 1_455
B0 Y0 2.583063 1_555
B1 B7 1.719423 1_556
B1 B9 1.723806 1_555
B1 Co2 2.282779 1_465
B1 Co2 2.282779 1_565
B1 Co3 2.294948 1_456
B1 Co3 2.294948 1_556
B1 Y1 2.583063 1_455
B1 Y1 2.583063 1_555
B2 B3 1.687848 1_555
B2 B4 1.719423 1_555
B2 Co1 2.282779 1_455
B2 Co1 2.282779 1_555
B2 Co0 2.294948 1_455
B2 Co0 2.294948 1_555
B2 Y2 2.583063 1_455
B2 Y2 2.583063 1_555
B3 B5 1.719423 1_555
B3 Co0 2.282779 1_555
B3 Co0 2.282779 1_455
B3 Co1 2.294948 1_455
B3 Co1 2.294948 1_555
B3 Y3 2.583063 1_455
B3 Y3 2.583063 1_555
B4 B5 1.805841 1_545
B4 Co0 2.255288 1_455
B4 Co0 2.255288 1_555
B4 Y3 2.674039 1_545
B4 Y3 2.674039 1_445
B4 Y2 2.694040 1_455
B4 Y2 2.694040 1_555
B5 Co1 2.255288 1_455
B5 Co1 2.255288 1_555
B5 Y2 2.674039 1_465
B5 Y2 2.674039 1_565
B5 Y3 2.694040 1_555
B5 Y3 2.694040 1_455
B6 B7 1.805841 1_556
B6 Co2 2.255288 1_555
B6 Co2 2.255288 1_455
B6 Y1 2.674039 1_555
B6 Y1 2.674039 1_455
B6 Y0 2.694040 1_456
B6 Y0 2.694040 1_556
B7 Co3 2.255288 1_455
B7 Co3 2.255288 1_555
B7 Y0 2.674039 1_455
B7 Y0 2.674039 1_555
B7 Y1 2.694040 1_554
B7 Y1 2.694040 1_454
B8 Co3 2.251044 1_445
B8 Co3 2.251044 1_545
B8 Y3 2.642767 1_445
B8 Y3 2.642767 1_545
B8 Y0 2.716274 1_455
B8 Y0 2.716274 1_555
B9 Co2 2.251044 1_565
B9 Co2 2.251044 1_465
B9 Y2 2.642767 1_465
B9 Y2 2.642767 1_565
B9 Y1 2.716274 1_455
B9 Y1 2.716274 1_555
B10 B2 1.723806 1_555
B10 B13 1.795538 1_555
B10 B14 1.844160 1_555
B10 Co1 2.251044 1_455
B10 Co1 2.251044 1_555
B10 Y1 2.642767 1_555
B10 Y1 2.642767 1_455
B10 Y2 2.716274 1_555
B10 Y2 2.716274 1_455
B11 B3 1.723806 1_555
B11 B12 1.795538 1_555
B11 B15 1.844160 1_555
B11 Co0 2.251044 1_455
B11 Co0 2.251044 1_555
B11 Y0 2.642767 1_455
B11 Y0 2.642767 1_555
B11 Y3 2.716274 1_455
B11 Y3 2.716274 1_555
B12 B4 1.784599 1_555
B12 B8 1.844160 1_555
B12 Co0 2.201944 1_555
B12 Co0 2.201944 1_455
B12 Y3 2.674136 1_545
B12 Y3 2.674136 1_445
B12 Y0 2.704525 1_455
B12 Y0 2.704525 1_555
B13 B5 1.784599 1_555
B13 B9 1.844160 1_555
B13 Co1 2.201944 1_455
B13 Co1 2.201944 1_555
B13 Y2 2.674136 1_465
B13 Y2 2.674136 1_565
B13 Y1 2.704525 1_455
B13 Y1 2.704525 1_555
B14 B6 1.784599 1_555
B14 B9 1.795538 1_545
B14 Co2 2.201944 1_555
B14 Co2 2.201944 1_455
B14 Y1 2.674136 1_555
B14 Y1 2.674136 1_455
B14 Y2 2.704525 1_455
B14 Y2 2.704525 1_555
B15 B7 1.784599 1_555
B15 B8 1.795538 1_565
B15 Co3 2.201944 1_455
B15 Co3 2.201944 1_555
B15 Y0 2.674136 1_455
B15 Y0 2.674136 1_555
B15 Y3 2.704525 1_555
B15 Y3 2.704525 1_455
