# generated using pymatgen
data_Li4MnCo2O7
_symmetry_space_group_name_H-M   'P 1'
_cell_length_a   16.90528810
_cell_length_b   16.90528810
_cell_length_c   5.13530966
_cell_angle_alpha   86.85642352
_cell_angle_beta   86.85642352
_cell_angle_gamma   9.92539977
_symmetry_Int_Tables_number   1
_chemical_formula_structural   Li4MnCo2O7
_chemical_formula_sum   'Li8 Mn2 Co4 O14'
_cell_volume   252.58289312
_cell_formula_units_Z   2
loop_
 _symmetry_equiv_pos_site_id
 _symmetry_equiv_pos_as_xyz
  1  'x, y, z'
loop_
 _atom_site_type_symbol
 _atom_site_label
 _atom_site_symmetry_multiplicity
 _atom_site_fract_x
 _atom_site_fract_y
 _atom_site_fract_z
 _atom_site_occupancy
  Li  Li0  1  0.56929300  0.56929300  0.14827200  1
  Li  Li1  1  0.14296700  0.14296700  0.28165300  1
  Li  Li2  1  0.71422100  0.71422100  0.42880000  1
  Li  Li3  1  0.28577900  0.28577900  0.57120000  1
  Li  Li4  1  0.85703300  0.85703300  0.71834700  1
  Li  Li5  1  0.00000000  0.00000000  0.00000000  1
  Li  Li6  1  0.43070700  0.43070700  0.85172800  1
  Li  Li7  1  0.50000000  0.50000000  0.50000000  1
  Mn  Mn0  1  0.06919000  0.06919000  0.63193900  1
  Mn  Mn1  1  0.93081000  0.93081000  0.36806100  1
  Co  Co0  1  0.64255100  0.64255100  0.78363900  1
  Co  Co1  1  0.21410800  0.21410800  0.92770600  1
  Co  Co2  1  0.78589200  0.78589200  0.07229400  1
  Co  Co3  1  0.35744900  0.35744900  0.21636100  1
  O  O0  1  0.54009500  0.54009500  0.80503500  1
  O  O1  1  0.10817700  0.10817700  0.92997000  1
  O  O2  1  0.67970800  0.67970800  0.08979100  1
  O  O3  1  0.25184000  0.25184000  0.23262300  1
  O  O4  1  0.82297300  0.82297300  0.37940700  1
  O  O5  1  0.96060100  0.96060100  0.65200800  1
  O  O6  1  0.39596700  0.39596700  0.51497600  1
  O  O7  1  0.60403300  0.60403300  0.48502400  1
  O  O8  1  0.17702700  0.17702700  0.62059300  1
  O  O9  1  0.74816000  0.74816000  0.76737700  1
  O  O10  1  0.32029200  0.32029200  0.91020900  1
  O  O11  1  0.89182300  0.89182300  0.07003000  1
  O  O12  1  0.03939900  0.03939900  0.34799200  1
  O  O13  1  0.45990500  0.45990500  0.19496500  1
loop_
_geom_bond_atom_site_label_1
_geom_bond_atom_site_label_2
_geom_bond_distance
_geom_bond_site_symmetry_2
Li0 O12 2.022584 1_655
Li0 O12 2.022584 1_565
Li0 O0 2.065182 1_554
Li0 O7 2.140714 1_555
Li0 O1 2.224698 1_654
Li0 O1 2.224698 1_564
Li1 O2 2.122927 1_545
Li1 O2 2.122927 1_455
Li1 O8 2.136732 1_555
Li1 O7 2.190553 1_545
Li1 O7 2.190553 1_455
Li1 O1 2.206329 1_554
Li2 O8 2.131318 1_565
Li2 O8 2.131318 1_655
Li2 O9 2.132788 1_555
Li2 O2 2.145943 1_555
Li2 O3 2.149128 1_655
Li2 O3 2.149128 1_565
Li3 O4 2.131318 1_455
Li3 O4 2.131318 1_545
Li3 O3 2.132788 1_555
Li3 O10 2.145943 1_555
Li3 O9 2.149128 1_545
Li3 O9 2.149128 1_455
Li4 O10 2.122927 1_655
Li4 O10 2.122927 1_565
Li4 O4 2.136732 1_555
Li4 O6 2.190553 1_655
Li4 O6 2.190553 1_565
Li4 O11 2.206329 1_556
Li5 O0 2.194594 1_454
Li5 O0 2.194594 1_544
Li5 O13 2.194594 1_545
Li5 O13 2.194594 1_455
Li5 O12 2.283822 1_555
Li5 O5 2.283822 1_444
Li6 O5 2.022584 1_545
Li6 O5 2.022584 1_455
Li6 O13 2.065182 1_556
Li6 O6 2.140714 1_555
Li6 O11 2.224698 1_456
Li6 O11 2.224698 1_546
Li7 O12 2.096478 1_565
Li7 O12 2.096478 1_655
Li7 O5 2.096478 1_545
Li7 O5 2.096478 1_455
Li7 O0 2.123831 1_555
Li7 O13 2.123831 1_555
Mn0 O12 1.815011 1_555
Mn0 O0 1.947666 1_455
Mn0 O0 1.947666 1_545
Mn0 O7 1.996964 1_455
Mn0 O7 1.996964 1_545
Mn0 O1 2.070801 1_555
Mn1 O5 1.815011 1_555
Mn1 O13 1.947666 1_655
Mn1 O13 1.947666 1_565
Mn1 O6 1.996964 1_565
Mn1 O6 1.996964 1_655
Mn1 O11 2.070801 1_555
Co0 O1 1.987010 1_655
Co0 O1 1.987010 1_565
Co0 O8 2.020221 1_565
Co0 O8 2.020221 1_655
Co0 O7 2.062505 1_555
Co0 O2 2.062734 1_556
Co1 O9 2.007046 1_545
Co1 O9 2.007046 1_455
Co1 O2 2.016923 1_456
Co1 O2 2.016923 1_546
Co1 O8 2.065005 1_555
Co1 O3 2.070336 1_556
Co2 O3 2.007046 1_565
Co2 O3 2.007046 1_655
Co2 O10 2.016923 1_654
Co2 O10 2.016923 1_564
Co2 O4 2.065005 1_555
Co2 O9 2.070336 1_554
Co3 O11 1.987010 1_545
Co3 O11 1.987010 1_455
Co3 O4 2.020221 1_455
Co3 O4 2.020221 1_545
Co3 O6 2.062505 1_555
Co3 O10 2.062734 1_554
