# generated using pymatgen
data_HoNiSn
_symmetry_space_group_name_H-M   'P 1'
_cell_length_a   3.89115628
_cell_length_b   7.21658554
_cell_length_c   7.21665549
_cell_angle_alpha   119.99967741
_cell_angle_beta   90.00000000
_cell_angle_gamma   90.00000000
_symmetry_Int_Tables_number   1
_chemical_formula_structural   HoNiSn
_chemical_formula_sum   'Ho3 Ni3 Sn3'
_cell_volume   175.50053871
_cell_formula_units_Z   3
loop_
 _symmetry_equiv_pos_site_id
 _symmetry_equiv_pos_as_xyz
  1  'x, y, z'
loop_
 _atom_site_type_symbol
 _atom_site_label
 _atom_site_symmetry_multiplicity
 _atom_site_fract_x
 _atom_site_fract_y
 _atom_site_fract_z
 _atom_site_occupancy
  Ho  Ho0  1  0.50000000  0.59256716  0.00000000  1
  Ho  Ho1  1  0.50000000  0.40740590  0.40741804  1
  Ho  Ho2  1  0.50000000  0.99998786  0.59258196  1
  Ni  Ni0  1  0.50000000  0.99998371  0.00000000  1
  Ni  Ni1  1  0.00000000  0.33332573  0.66666309  1
  Ni  Ni2  1  0.00000000  0.66666364  0.33333691  1
  Sn  Sn0  1  0.00000000  0.25702383  1.00000000  1
  Sn  Sn1  1  0.00000000  0.74295278  0.74296438  1
  Sn  Sn2  1  0.00000000  0.99998740  0.25703562  1
loop_
_geom_bond_atom_site_label_1
_geom_bond_atom_site_label_2
_geom_bond_distance
_geom_bond_site_symmetry_2
Ho0 Ni2 2.927747 1_555
Ho0 Ni2 2.927747 1_655
Ho0 Ni1 2.927748 1_654
Ho0 Ni1 2.927748 1_554
Ho0 Ni0 2.940156 1_555
Ho0 Sn0 3.106256 1_554
Ho0 Sn0 3.106256 1_654
Ho0 Sn2 3.227529 1_555
Ho0 Sn2 3.227529 1_655
Ho0 Sn1 3.227533 1_554
Ho0 Sn1 3.227533 1_654
Ho1 Ni1 2.927704 1_655
Ho1 Ni1 2.927704 1_555
Ho1 Ni2 2.927764 1_555
Ho1 Ni2 2.927764 1_655
Ho1 Ni0 2.940211 1_545
Ho1 Sn1 3.106293 1_555
Ho1 Sn1 3.106293 1_655
Ho1 Sn2 3.227514 1_545
Ho1 Sn2 3.227514 1_645
Ho1 Sn0 3.227535 1_554
Ho1 Sn0 3.227535 1_654
Ho2 Ni2 2.927701 1_655
Ho2 Ni2 2.927701 1_555
Ho2 Ni1 2.927759 1_565
Ho2 Ni1 2.927759 1_665
Ho2 Ni0 2.940211 1_556
Ho2 Sn2 3.106290 1_555
Ho2 Sn2 3.106290 1_655
Ho2 Sn1 3.227509 1_555
Ho2 Sn1 3.227509 1_655
Ho2 Sn0 3.227535 1_565
Ho2 Sn0 3.227535 1_665
Ni0 Sn1 2.688123 1_554
Ni0 Sn1 2.688123 1_654
Ni0 Sn2 2.688125 1_555
Ni0 Sn2 2.688125 1_655
Ni0 Sn0 2.688145 1_664
Ni0 Sn0 2.688145 1_564
Ni1 Sn1 2.722875 1_555
Ni1 Sn2 2.722938 1_545
Ni1 Sn0 2.722976 1_555
Ni2 Sn2 2.722860 1_555
Ni2 Sn1 2.722938 1_555
Ni2 Sn0 2.722981 1_554
