# generated using pymatgen
data_Li4MnCo2O7
_symmetry_space_group_name_H-M   'P 1'
_cell_length_a   3.02205300
_cell_length_b   6.42927595
_cell_length_c   13.61020226
_cell_angle_alpha   83.35003276
_cell_angle_beta   86.91845545
_cell_angle_gamma   76.59048347
_symmetry_Int_Tables_number   1
_chemical_formula_structural   Li4MnCo2O7
_chemical_formula_sum   'Li8 Mn2 Co4 O14'
_cell_volume   255.40193574
_cell_formula_units_Z   2
loop_
 _symmetry_equiv_pos_site_id
 _symmetry_equiv_pos_as_xyz
  1  'x, y, z'
loop_
 _atom_site_type_symbol
 _atom_site_label
 _atom_site_symmetry_multiplicity
 _atom_site_fract_x
 _atom_site_fract_y
 _atom_site_fract_z
 _atom_site_occupancy
  Li  Li0  1  0.79714300  0.85404900  0.56785900  1
  Li  Li1  1  0.62997600  0.43978000  0.28671000  1
  Li  Li2  1  0.50000000  0.00000000  0.00000000  1
  Li  Li3  1  0.20285700  0.14595100  0.43214100  1
  Li  Li4  1  0.07090700  0.71110400  0.14429000  1
  Li  Li5  1  0.92909300  0.28889600  0.85571000  1
  Li  Li6  1  0.37002400  0.56022000  0.71329000  1
  Li  Li7  1  0.50000000  0.50000000  0.50000000  1
  Mn  Mn0  1  0.63267300  0.93040000  0.78360200  1
  Mn  Mn1  1  0.36732700  0.06960000  0.21639800  1
  Co  Co0  1  0.20834300  0.64152300  0.92882700  1
  Co  Co1  1  0.07999500  0.22611400  0.63532800  1
  Co  Co2  1  0.92000500  0.77388600  0.36467200  1
  Co  Co3  1  0.79165700  0.35847700  0.07117300  1
  O  O0  1  0.22923200  0.91589800  0.67747300  1
  O  O1  1  0.06033500  0.49336600  0.38747600  1
  O  O2  1  0.96524500  0.04956600  0.10882400  1
  O  O3  1  0.67355100  0.18148400  0.54416500  1
  O  O4  1  0.51878500  0.76231400  0.25501100  1
  O  O5  1  0.34254800  0.33744700  0.96739100  1
  O  O6  1  0.75301500  0.62087500  0.82589300  1
  O  O7  1  0.32644900  0.81851600  0.45583500  1
  O  O8  1  0.24698500  0.37912500  0.17410700  1
  O  O9  1  0.03475500  0.95043400  0.89117600  1
  O  O10  1  0.77076800  0.08410200  0.32252700  1
  O  O11  1  0.65745200  0.66255300  0.03260900  1
  O  O12  1  0.48121500  0.23768600  0.74498900  1
  O  O13  1  0.93966500  0.50663400  0.61252400  1
loop_
_geom_bond_atom_site_label_1
_geom_bond_atom_site_label_2
_geom_bond_distance
_geom_bond_site_symmetry_2
Li0 O3 2.041142 1_565
Li0 O7 2.141136 1_655
Li0 O0 2.162539 1_655
Li0 O13 2.193535 1_555
Li0 O7 2.205624 1_555
Li0 O0 2.207919 1_555
Li1 O4 2.020966 1_555
Li1 O1 2.049404 1_655
Li1 O8 2.092577 1_555
Li1 O1 2.131568 1_555
Li1 O10 2.227272 1_555
Li1 O8 2.339136 1_655
Li2 O5 2.109780 1_554
Li2 O11 2.109780 1_545
Li2 O2 2.126032 1_455
Li2 O9 2.126032 1_644
Li2 O2 2.193879 1_555
Li2 O9 2.193879 1_544
Li3 O7 2.041142 1_545
Li3 O3 2.141136 1_455
Li3 O10 2.162539 1_455
Li3 O1 2.193535 1_555
Li3 O3 2.205624 1_555
Li3 O10 2.207919 1_555
Li4 O8 2.073466 1_555
Li4 O11 2.112825 1_455
Li4 O2 2.126319 1_465
Li4 O4 2.179941 1_555
Li4 O4 2.180152 1_455
Li4 O11 2.261288 1_555
Li5 O6 2.073466 1_555
Li5 O5 2.112825 1_655
Li5 O9 2.126319 1_645
Li5 O12 2.179941 1_555
Li5 O12 2.180152 1_655
Li5 O5 2.261288 1_555
Li6 O12 2.020966 1_555
Li6 O13 2.049404 1_455
Li6 O6 2.092577 1_555
Li6 O13 2.131568 1_555
Li6 O0 2.227272 1_555
Li6 O6 2.339136 1_455
Li7 O7 2.020057 1_555
Li7 O3 2.020057 1_555
Li7 O13 2.091134 1_555
Li7 O1 2.091134 1_555
Li7 O1 2.217547 1_655
Li7 O13 2.217547 1_455
Mn0 O12 1.937721 1_565
Mn0 O6 1.960940 1_555
Mn0 O0 1.963377 1_555
Mn0 O9 1.986010 1_655
Mn0 O0 2.240212 1_655
Mn0 O9 2.253112 1_555
Mn1 O4 1.937721 1_545
Mn1 O8 1.960940 1_555
Mn1 O10 1.963377 1_555
Mn1 O2 1.986010 1_455
Mn1 O10 2.240212 1_455
Mn1 O2 2.253112 1_555
Co0 O5 1.918184 1_555
Co0 O9 1.947363 1_555
Co0 O11 2.047183 1_556
Co0 O6 2.051535 1_455
Co0 O6 2.093679 1_555
Co0 O11 2.114723 1_456
Co1 O13 1.748910 1_455
Co1 O3 1.881562 1_455
Co1 O0 1.963657 1_545
Co1 O12 1.991336 1_555
Co1 O3 2.108032 1_555
Co1 O12 2.276065 1_455
Co2 O1 1.748910 1_655
Co2 O7 1.881562 1_655
Co2 O10 1.963657 1_565
Co2 O4 1.991336 1_555
Co2 O7 2.108032 1_555
Co2 O4 2.276065 1_655
Co3 O11 1.918184 1_555
Co3 O2 1.947363 1_555
Co3 O5 2.047183 1_554
Co3 O8 2.051535 1_655
Co3 O8 2.093679 1_555
Co3 O5 2.114723 1_654
