# generated using pymatgen
data_Sr3Ga3B4HO14
_symmetry_space_group_name_H-M   'P 1'
_cell_length_a   4.95427037
_cell_length_b   9.13139478
_cell_length_c   13.90920300
_cell_angle_alpha   90.00000000
_cell_angle_beta   90.00000000
_cell_angle_gamma   105.23107499
_symmetry_Int_Tables_number   1
_chemical_formula_structural   Sr3Ga3B4HO14
_chemical_formula_sum   'Sr6 Ga6 B8 H2 O28'
_cell_volume   607.14124955
_cell_formula_units_Z   2
loop_
 _symmetry_equiv_pos_site_id
 _symmetry_equiv_pos_as_xyz
  1  'x, y, z'
loop_
 _atom_site_type_symbol
 _atom_site_label
 _atom_site_symmetry_multiplicity
 _atom_site_fract_x
 _atom_site_fract_y
 _atom_site_fract_z
 _atom_site_occupancy
  Sr  Sr0  1  0.61504400  0.70564900  0.94868100  1
  Sr  Sr1  1  0.38495600  0.29435100  0.44868100  1
  Sr  Sr2  1  0.38243300  0.29773800  0.04744000  1
  Sr  Sr3  1  0.61756700  0.70226200  0.54744000  1
  Sr  Sr4  1  0.47444800  0.38223800  0.74882000  1
  Sr  Sr5  1  0.52555200  0.61776200  0.24882000  1
  Ga  Ga0  1  0.07679700  0.69018500  0.75028300  1
  Ga  Ga1  1  0.92320300  0.30981500  0.25028300  1
  Ga  Ga2  1  0.83298300  0.12903700  0.87054500  1
  Ga  Ga3  1  0.16701700  0.87096300  0.37054500  1
  Ga  Ga4  1  0.16660300  0.87133200  0.12923100  1
  Ga  Ga5  1  0.83339700  0.12866800  0.62923100  1
  B  B0  1  0.99495300  0.43532300  0.89639400  1
  B  B1  1  0.00504700  0.56467700  0.39639400  1
  B  B2  1  0.00492100  0.56519800  0.10296200  1
  B  B3  1  0.99507900  0.43480200  0.60296200  1
  B  B4  1  0.25079700  0.96561000  0.87831300  1
  B  B5  1  0.74920300  0.03439000  0.37831300  1
  B  B6  1  0.75006900  0.03559400  0.12270400  1
  B  B7  1  0.24993100  0.96440600  0.62270400  1
  H  H0  1  0.55904900  0.79324500  0.73800200  1
  H  H1  1  0.44095100  0.20675500  0.23800200  1
  O  O0  1  0.53000300  0.96213000  0.88529300  1
  O  O1  1  0.46999700  0.03787000  0.38529300  1
  O  O2  1  0.47034100  0.04028800  0.11776300  1
  O  O3  1  0.52965900  0.95971200  0.61776300  1
  O  O4  1  0.17877800  0.09769600  0.90495100  1
  O  O5  1  0.82122200  0.90230400  0.40495100  1
  O  O6  1  0.82056800  0.90362600  0.09513600  1
  O  O7  1  0.17943200  0.09637400  0.59513600  1
  O  O8  1  0.05100300  0.84022400  0.84881600  1
  O  O9  1  0.94899700  0.15977600  0.34881600  1
  O  O10  1  0.95178500  0.16056500  0.15191100  1
  O  O11  1  0.04821500  0.83943500  0.65191100  1
  O  O12  1  0.88424600  0.53810100  0.84631700  1
  O  O13  1  0.11575400  0.46189900  0.34631700  1
  O  O14  1  0.11471700  0.46223300  0.15333300  1
  O  O15  1  0.88528300  0.53776700  0.65333300  1
  O  O16  1  0.80051600  0.30467300  0.93533300  1
  O  O17  1  0.19948400  0.69532700  0.43533300  1
  O  O18  1  0.20184700  0.69609300  0.06495600  1
  O  O19  1  0.79815300  0.30390700  0.56495600  1
  O  O20  1  0.45988900  0.68745000  0.74986800  1
  O  O21  1  0.54011100  0.31255000  0.24986800  1
  O  O22  1  0.27376800  0.45198000  0.90747600  1
  O  O23  1  0.72623200  0.54802000  0.40747600  1
  O  O24  1  0.72686900  0.54913000  0.09057700  1
  O  O25  1  0.27313100  0.45087000  0.59057700  1
  O  O26  1  0.86689400  0.21362400  0.74989500  1
  O  O27  1  0.13310600  0.78637600  0.24989500  1
loop_
_geom_bond_atom_site_label_1
_geom_bond_atom_site_label_2
_geom_bond_distance
_geom_bond_site_symmetry_2
Ga0 O20 1.904664 1_555
Ga0 O11 1.962401 1_555
Ga0 O8 1.965633 1_555
Ga0 O12 1.981612 1_455
Ga0 O15 1.990457 1_455
Ga1 O21 1.904664 1_555
Ga1 O10 1.962401 1_555
Ga1 O9 1.965633 1_555
Ga1 O13 1.981612 1_655
Ga1 O14 1.990457 1_655
Ga2 O26 1.836522 1_555
Ga2 O0 1.848254 1_545
Ga2 O4 1.871752 1_655
Ga2 O16 1.882994 1_555
Ga3 O27 1.836522 1_555
Ga3 O1 1.848254 1_565
Ga3 O5 1.871752 1_455
Ga3 O17 1.882994 1_555
Ga4 O27 1.838079 1_555
Ga4 O2 1.857492 1_565
Ga4 O6 1.875229 1_455
Ga4 O18 1.880723 1_555
Ga5 O26 1.838079 1_555
Ga5 O3 1.857492 1_545
Ga5 O7 1.875229 1_655
Ga5 O19 1.880723 1_555
B0 O22 1.358146 1_655
B0 O12 1.391845 1_555
B0 O16 1.428542 1_555
B1 O23 1.358146 1_455
B1 O13 1.391845 1_555
B1 O17 1.428542 1_555
B2 O24 1.357437 1_455
B2 O14 1.392654 1_555
B2 O18 1.430811 1_555
B3 O25 1.357437 1_655
B3 O15 1.392654 1_555
B3 O19 1.430811 1_555
B4 O8 1.365115 1_555
B4 O4 1.394795 1_565
B4 O0 1.395330 1_555
B5 O9 1.365115 1_555
B5 O5 1.394795 1_545
B5 O1 1.395330 1_555
B6 O10 1.366303 1_555
B6 O6 1.393671 1_545
B6 O2 1.399409 1_555
B7 O11 1.366303 1_555
B7 O7 1.393671 1_565
B7 O3 1.399409 1_555
H0 O20 0.975953 1_555
H1 O21 0.975953 1_555
O0 Sr0 2.637881 1_555
O1 Sr1 2.637881 1_555
O2 Sr2 2.685333 1_555
O3 Sr3 2.685333 1_555
O4 Sr2 2.704494 1_556
O5 Sr3 2.704494 1_555
O6 Sr0 2.736316 1_554
O7 Sr1 2.736316 1_555
O8 Sr0 2.590359 1_455
O9 Sr1 2.590359 1_655
O10 Sr2 2.613109 1_655
O11 Sr3 2.613109 1_455
O12 Sr4 2.543291 1_555
O12 Sr0 2.686788 1_555
O13 Sr5 2.543291 1_555
O13 Sr1 2.686788 1_555
O14 Sr5 2.530794 1_555
O14 Sr2 2.689155 1_555
O15 Sr4 2.530794 1_555
O15 Sr3 2.689155 1_555
O16 Sr2 2.580084 1_556
O17 Sr3 2.580084 1_555
O18 Sr0 2.592290 1_554
O19 Sr1 2.592290 1_555
O20 Sr4 2.806861 1_555
O20 Sr0 2.863288 1_555
O21 Sr5 2.806861 1_555
O21 Sr1 2.863288 1_555
O22 Sr2 2.542032 1_556
O22 Sr0 2.548507 1_555
O22 Sr4 2.568384 1_555
O23 Sr3 2.542032 1_555
O23 Sr1 2.548507 1_555
O23 Sr5 2.568384 1_555
O24 Sr2 2.546232 1_555
O24 Sr5 2.561347 1_555
O24 Sr0 2.580895 1_554
O25 Sr3 2.546232 1_555
O25 Sr4 2.561347 1_555
O25 Sr1 2.580895 1_555
O26 Sr4 2.779205 1_555
O26 Sr4 2.999303 1_655
O27 Sr5 2.779205 1_555
O27 Sr5 2.999303 1_455
