# generated using pymatgen
data_Ce2Si5Pd3
_symmetry_space_group_name_H-M   'P 1'
_cell_length_a   8.28241238
_cell_length_b   8.28293792
_cell_length_c   8.28123303
_cell_angle_alpha   137.43720725
_cell_angle_beta   105.88189196
_cell_angle_gamma   89.41913981
_symmetry_Int_Tables_number   1
_chemical_formula_structural   Ce2Si5Pd3
_chemical_formula_sum   'Ce4 Si10 Pd6'
_cell_volume   353.24270215
_cell_formula_units_Z   2
loop_
 _symmetry_equiv_pos_site_id
 _symmetry_equiv_pos_as_xyz
  1  'x, y, z'
loop_
 _atom_site_type_symbol
 _atom_site_label
 _atom_site_symmetry_multiplicity
 _atom_site_fract_x
 _atom_site_fract_y
 _atom_site_fract_z
 _atom_site_occupancy
  Ce  Ce0  1  0.63903078  0.37291118  0.26740327  1
  Ce  Ce1  1  0.36100128  0.62831180  0.73380229  1
  Ce  Ce2  1  0.10538576  0.87150439  0.23249971  1
  Ce  Ce3  1  0.89460066  0.12730787  0.76631286  1
  Si  Si0  1  0.46570428  0.11401563  0.35094151  1
  Si  Si1  1  0.53425503  0.88534537  0.64841513  1
  Si  Si2  1  0.76298076  0.61495787  0.14905324  1
  Si  Si3  1  0.23707239  0.38589687  0.85179187  1
  Si  Si4  1  0.27481501  0.52486946  0.25025268  1
  Si  Si5  1  0.72523812  0.47516907  0.74979188  1
  Si  Si6  1  0.72520389  0.97548692  0.25005274  1
  Si  Si7  1  0.27469807  0.02448210  0.74986795  1
  Si  Si8  1  0.99988367  0.25002360  0.24987229  1
  Si  Si9  1  0.00013348  0.74987496  0.75009418  1
  Pd  Pd0  1  0.50004126  0.24997867  0.75004959  1
  Pd  Pd1  1  0.50002798  0.75006645  0.25004730  1
  Pd  Pd2  1  0.24669748  0.13858419  0.10897215  1
  Pd  Pd3  1  0.75327571  0.86222841  0.89173550  1
  Pd  Pd4  1  0.02947151  0.63782772  0.39102424  1
  Pd  Pd5  1  0.97048387  0.36115648  0.60802265  1
loop_
_geom_bond_atom_site_label_1
_geom_bond_atom_site_label_2
_geom_bond_distance
_geom_bond_site_symmetry_2
Ce0 Si2 3.085585 1_555
Ce0 Si0 3.151066 1_555
Ce0 Si9 3.151686 1_655
Ce0 Si8 3.154009 1_555
Ce0 Pd2 3.176617 1_555
Ce0 Si1 3.228025 1_555
Ce0 Si1 3.237314 1_544
Ce0 Pd3 3.253538 1_555
Ce0 Pd3 3.257514 1_544
Ce0 Si5 3.263796 1_555
Ce0 Si4 3.264360 1_555
Ce0 Si6 3.267722 1_545
Ce0 Si7 3.268182 1_554
Ce0 Pd4 3.367974 1_655
Ce0 Pd1 3.406334 1_555
Ce0 Pd0 3.408173 1_554
Ce0 Pd5 3.415169 1_555
Ce1 Si3 3.085568 1_555
Ce1 Si9 3.150378 1_555
Ce1 Si1 3.150655 1_555
Ce1 Si8 3.155357 1_455
Ce1 Pd3 3.176400 1_555
Ce1 Si0 3.227061 1_566
Ce1 Si0 3.238111 1_555
Ce1 Pd2 3.255442 1_566
Ce1 Pd2 3.256181 1_555
Ce1 Si6 3.263989 1_556
Ce1 Si7 3.264653 1_565
Ce1 Si4 3.266900 1_555
Ce1 Si5 3.267812 1_555
Ce1 Pd5 3.368829 1_455
Ce1 Pd1 3.405591 1_556
Ce1 Pd0 3.409915 1_555
Ce1 Pd4 3.415110 1_555
Ce2 Si0 3.085489 1_565
Ce2 Si9 3.149184 1_554
Ce2 Si2 3.149925 1_455
Ce2 Si8 3.156400 1_465
Ce2 Pd4 3.175592 1_555
Ce2 Si3 3.228115 1_554
Ce2 Si3 3.238725 1_565
Ce2 Pd5 3.254581 1_454
Ce2 Pd5 3.255603 1_465
Ce2 Si5 3.264937 1_454
Ce2 Si4 3.265202 1_555
Ce2 Si7 3.267897 1_565
Ce2 Si6 3.269422 1_455
Ce2 Pd2 3.369196 1_565
Ce2 Pd1 3.406648 1_555
Ce2 Pd0 3.410183 1_565
Ce2 Pd3 3.413967 1_454
Ce3 Si1 3.085671 1_545
Ce3 Si3 3.150432 1_655
Ce3 Si8 3.152815 1_556
Ce3 Si9 3.153698 1_645
Ce3 Pd5 3.175037 1_555
Ce3 Si2 3.227399 1_545
Ce3 Si2 3.239191 1_556
Ce3 Pd4 3.254429 1_645
Ce3 Pd4 3.255834 1_656
Ce3 Si6 3.265118 1_545
Ce3 Si7 3.265585 1_655
Ce3 Si5 3.268339 1_555
Ce3 Si4 3.268692 1_656
Ce3 Pd3 3.368468 1_545
Ce3 Pd1 3.406351 1_545
Ce3 Pd0 3.409269 1_555
Ce3 Pd2 3.413391 1_656
Si0 Si6 2.480859 1_545
Si0 Si5 2.483652 1_555
Si1 Si4 2.480770 1_555
Si1 Si7 2.483439 1_565
Si2 Si6 2.481953 1_555
Si2 Si5 2.484499 1_554
Si3 Si4 2.481651 1_556
Si3 Si7 2.484755 1_555
Pd0 Si3 2.505684 1_555
Pd0 Si1 2.505819 1_545
Pd0 Si2 2.506061 1_556
Pd0 Si0 2.506385 1_555
Pd0 Si5 2.652653 1_555
Pd0 Si7 2.652731 1_555
Pd1 Si2 2.502759 1_555
Pd1 Si3 2.503306 1_554
Pd1 Si1 2.503695 1_555
Pd1 Si0 2.503769 1_565
Pd1 Si6 2.652336 1_555
Pd1 Si4 2.652479 1_555
Pd2 Si0 2.439421 1_555
Pd2 Si4 2.451940 1_555
Pd2 Si7 2.454280 1_554
Pd2 Si8 2.464339 1_455
Pd2 Si9 2.466839 1_544
Pd3 Si1 2.438910 1_555
Pd3 Si6 2.451867 1_556
Pd3 Si5 2.455276 1_555
Pd3 Si8 2.463698 1_566
Pd3 Si9 2.467429 1_655
Pd4 Si2 2.439574 1_455
Pd4 Si4 2.452513 1_555
Pd4 Si7 2.453964 1_565
Pd4 Si8 2.464256 1_455
Pd4 Si9 2.467385 1_555
Pd5 Si3 2.439814 1_655
Pd5 Si6 2.450587 1_545
Pd5 Si5 2.455426 1_555
Pd5 Si8 2.464215 1_555
Pd5 Si9 2.467578 1_655
