# generated using pymatgen
data_CaMg2Al6O12
_symmetry_space_group_name_H-M   'P 1'
_cell_length_a   2.83089700
_cell_length_b   8.83321030
_cell_length_c   8.83322423
_cell_angle_alpha   120.00021921
_cell_angle_beta   90.00000000
_cell_angle_gamma   90.00000000
_symmetry_Int_Tables_number   1
_chemical_formula_structural   CaMg2Al6O12
_chemical_formula_sum   'Ca1 Mg2 Al6 O12'
_cell_volume   191.28969121
_cell_formula_units_Z   1
loop_
 _symmetry_equiv_pos_site_id
 _symmetry_equiv_pos_as_xyz
  1  'x, y, z'
loop_
 _atom_site_type_symbol
 _atom_site_label
 _atom_site_symmetry_multiplicity
 _atom_site_fract_x
 _atom_site_fract_y
 _atom_site_fract_z
 _atom_site_occupancy
  Ca  Ca0  1  0.75000000  0.99999900  0.99999900  1
  Mg  Mg0  1  0.75000000  0.33333700  0.66667000  1
  Mg  Mg1  1  0.25000000  0.66666200  0.33332900  1
  Al  Al0  1  0.75000000  0.64341200  0.65603900  1
  Al  Al1  1  0.75000000  0.34396000  0.98737300  1
  Al  Al2  1  0.75000000  0.01262600  0.35658600  1
  Al  Al3  1  0.25000000  0.35440900  0.34528000  1
  Al  Al4  1  0.25000000  0.65472100  0.00912700  1
  Al  Al5  1  0.25000000  0.99087200  0.64559400  1
  O  O0  1  0.75000000  0.10884600  0.79932200  1
  O  O1  1  0.75000000  0.20067300  0.30952300  1
  O  O2  1  0.75000000  0.69047600  0.89115300  1
  O  O3  1  0.25000000  0.89843100  0.18994100  1
  O  O4  1  0.25000000  0.81006500  0.70849500  1
  O  O5  1  0.25000000  0.29151000  0.10157000  1
  O  O6  1  0.75000000  0.53324000  0.40156300  1
  O  O7  1  0.75000000  0.59843700  0.13167500  1
  O  O8  1  0.75000000  0.86832400  0.46676000  1
  O  O9  1  0.25000000  0.46875300  0.59835900  1
  O  O10  1  0.25000000  0.40164200  0.87039400  1
  O  O11  1  0.25000000  0.12960600  0.53124800  1
loop_
_geom_bond_atom_site_label_1
_geom_bond_atom_site_label_2
_geom_bond_distance
_geom_bond_site_symmetry_2
Ca0 O2 2.402266 1_555
Ca0 O1 2.402268 1_566
Ca0 O0 2.402281 1_565
Ca0 O4 2.669913 1_555
Ca0 O4 2.669913 1_655
Ca0 O5 2.669960 1_566
Ca0 O5 2.669960 1_666
Ca0 O3 2.669964 1_556
Ca0 O3 2.669964 1_656
Mg0 O10 2.126055 1_555
Mg0 O10 2.126055 1_655
Mg0 O9 2.126067 1_655
Mg0 O9 2.126067 1_555
Mg0 O11 2.126090 1_555
Mg0 O11 2.126090 1_655
Mg1 O7 2.113309 1_555
Mg1 O7 2.113309 1_455
Mg1 O6 2.113311 1_555
Mg1 O6 2.113311 1_455
Mg1 O8 2.113347 1_555
Mg1 O8 2.113347 1_455
Al0 O2 1.903312 1_555
Al0 O4 1.924348 1_655
Al0 O4 1.924348 1_555
Al0 O6 1.952514 1_555
Al0 O9 1.963989 1_655
Al0 O9 1.963989 1_555
Al1 O0 1.903308 1_555
Al1 O5 1.924324 1_556
Al1 O5 1.924324 1_656
Al1 O7 1.952516 1_556
Al1 O10 1.964002 1_655
Al1 O10 1.964002 1_555
Al2 O1 1.903280 1_555
Al2 O3 1.924309 1_645
Al2 O3 1.924309 1_545
Al2 O8 1.952517 1_545
Al2 O11 1.964004 1_555
Al2 O11 1.964004 1_655
Al3 O1 1.875753 1_555
Al3 O1 1.875753 1_455
Al3 O5 1.935699 1_555
Al3 O9 1.938994 1_555
Al3 O6 1.990130 1_455
Al3 O6 1.990130 1_555
Al4 O2 1.875720 1_554
Al4 O2 1.875720 1_454
Al4 O3 1.935699 1_555
Al4 O10 1.938989 1_554
Al4 O7 1.990138 1_455
Al4 O7 1.990138 1_555
Al5 O0 1.875713 1_565
Al5 O0 1.875713 1_465
Al5 O4 1.935678 1_555
Al5 O11 1.939005 1_565
Al5 O8 1.990144 1_455
Al5 O8 1.990144 1_555
