# generated using pymatgen
data_Er6Al41Cr6
_symmetry_space_group_name_H-M   'P 1'
_cell_length_a   10.84593368
_cell_length_b   10.84593368
_cell_length_c   17.42144800
_cell_angle_alpha   90.00000000
_cell_angle_beta   90.00000000
_cell_angle_gamma   119.99999804
_symmetry_Int_Tables_number   1
_chemical_formula_structural   Er6Al41Cr6
_chemical_formula_sum   'Er12 Al82 Cr12'
_cell_volume   1774.79737671
_cell_formula_units_Z   2
loop_
 _symmetry_equiv_pos_site_id
 _symmetry_equiv_pos_as_xyz
  1  'x, y, z'
loop_
 _atom_site_type_symbol
 _atom_site_label
 _atom_site_symmetry_multiplicity
 _atom_site_fract_x
 _atom_site_fract_y
 _atom_site_fract_z
 _atom_site_occupancy
  Er  Er0  1  0.00000000  0.53277200  0.40235600  1
  Er  Er1  1  0.46722800  0.46722800  0.40235600  1
  Er  Er2  1  0.53277200  0.00000000  0.40235600  1
  Er  Er3  1  0.00000000  0.46722800  0.59764400  1
  Er  Er4  1  0.53277200  0.53277200  0.59764400  1
  Er  Er5  1  0.46722800  0.00000000  0.59764400  1
  Er  Er6  1  0.00000000  0.46454500  0.90429600  1
  Er  Er7  1  0.53545500  0.53545500  0.90429600  1
  Er  Er8  1  0.46454500  0.00000000  0.90429600  1
  Er  Er9  1  0.00000000  0.53545500  0.09570400  1
  Er  Er10  1  0.46454500  0.46454500  0.09570400  1
  Er  Er11  1  0.53545500  0.00000000  0.09570400  1
  Al  Al0  1  0.00000000  0.74911600  0.97155400  1
  Al  Al1  1  0.25088400  0.25088400  0.97155400  1
  Al  Al2  1  0.74911600  0.00000000  0.97155400  1
  Al  Al3  1  0.00000000  0.25088400  0.02844600  1
  Al  Al4  1  0.74911600  0.74911600  0.02844600  1
  Al  Al5  1  0.25088400  0.00000000  0.02844600  1
  Al  Al6  1  0.00000000  0.25172800  0.46951000  1
  Al  Al7  1  0.74827200  0.74827200  0.46951000  1
  Al  Al8  1  0.25172800  0.00000000  0.46951000  1
  Al  Al9  1  0.00000000  0.74827200  0.53049000  1
  Al  Al10  1  0.25172800  0.25172800  0.53049000  1
  Al  Al11  1  0.74827200  0.00000000  0.53049000  1
  Al  Al12  1  0.60799600  0.76724100  0.33527100  1
  Al  Al13  1  0.23275900  0.84075600  0.33527100  1
  Al  Al14  1  0.15924400  0.39200400  0.33527100  1
  Al  Al15  1  0.39200400  0.15924400  0.33527100  1
  Al  Al16  1  0.76724100  0.60799600  0.33527100  1
  Al  Al17  1  0.84075600  0.23275900  0.33527100  1
  Al  Al18  1  0.39200400  0.23275900  0.66472900  1
  Al  Al19  1  0.76724100  0.15924400  0.66472900  1
  Al  Al20  1  0.84075600  0.60799600  0.66472900  1
  Al  Al21  1  0.60799600  0.84075600  0.66472900  1
  Al  Al22  1  0.23275900  0.39200400  0.66472900  1
  Al  Al23  1  0.15924400  0.76724100  0.66472900  1
  Al  Al24  1  0.39924100  0.23430900  0.83877100  1
  Al  Al25  1  0.76569100  0.16493200  0.83877100  1
  Al  Al26  1  0.83506800  0.60075900  0.83877100  1
  Al  Al27  1  0.60075900  0.83506800  0.83877100  1
  Al  Al28  1  0.23430900  0.39924100  0.83877100  1
  Al  Al29  1  0.16493200  0.76569100  0.83877100  1
  Al  Al30  1  0.60075900  0.76569100  0.16122900  1
  Al  Al31  1  0.23430900  0.83506800  0.16122900  1
  Al  Al32  1  0.16493200  0.39924100  0.16122900  1
  Al  Al33  1  0.39924100  0.16493200  0.16122900  1
  Al  Al34  1  0.76569100  0.60075900  0.16122900  1
  Al  Al35  1  0.83506800  0.23430900  0.16122900  1
  Al  Al36  1  0.00000000  0.14958100  0.24862100  1
  Al  Al37  1  0.85041900  0.85041900  0.24862100  1
  Al  Al38  1  0.14958100  0.00000000  0.24862100  1
  Al  Al39  1  0.00000000  0.85041900  0.75137900  1
  Al  Al40  1  0.14958100  0.14958100  0.75137900  1
  Al  Al41  1  0.85041900  0.00000000  0.75137900  1
  Al  Al42  1  0.45320500  0.85020300  0.24690400  1
  Al  Al43  1  0.14979700  0.60300200  0.24690400  1
  Al  Al44  1  0.39699800  0.54679500  0.24690400  1
  Al  Al45  1  0.54679500  0.39699800  0.24690400  1
  Al  Al46  1  0.85020300  0.45320500  0.24690400  1
  Al  Al47  1  0.60300200  0.14979700  0.24690400  1
  Al  Al48  1  0.54679500  0.14979700  0.75309600  1
  Al  Al49  1  0.85020300  0.39699800  0.75309600  1
  Al  Al50  1  0.60300200  0.45320500  0.75309600  1
  Al  Al51  1  0.45320500  0.60300200  0.75309600  1
  Al  Al52  1  0.14979700  0.54679500  0.75309600  1
  Al  Al53  1  0.39699800  0.85020300  0.75309600  1
  Al  Al54  1  0.50558000  0.75279000  0.50000000  1
  Al  Al55  1  0.24721000  0.75279000  0.50000000  1
  Al  Al56  1  0.24721000  0.49442000  0.50000000  1
  Al  Al57  1  0.49442000  0.24721000  0.50000000  1
  Al  Al58  1  0.75279000  0.50558000  0.50000000  1
  Al  Al59  1  0.75279000  0.24721000  0.50000000  1
  Al  Al60  1  0.50392400  0.25196200  0.00000000  1
  Al  Al61  1  0.74803800  0.25196200  0.00000000  1
  Al  Al62  1  0.74803800  0.49607600  0.00000000  1
  Al  Al63  1  0.49607600  0.74803800  0.00000000  1
  Al  Al64  1  0.25196200  0.50392400  0.00000000  1
  Al  Al65  1  0.25196200  0.74803800  0.00000000  1
  Al  Al66  1  0.00000000  0.84501100  0.38456600  1
  Al  Al67  1  0.15498900  0.15498900  0.38456600  1
  Al  Al68  1  0.84501100  0.00000000  0.38456600  1
  Al  Al69  1  0.00000000  0.15498900  0.61543400  1
  Al  Al70  1  0.84501100  0.84501100  0.61543400  1
  Al  Al71  1  0.15498900  0.00000000  0.61543400  1
  Al  Al72  1  0.00000000  0.15504300  0.88405100  1
  Al  Al73  1  0.84495700  0.84495700  0.88405100  1
  Al  Al74  1  0.15504300  0.00000000  0.88405100  1
  Al  Al75  1  0.00000000  0.84495700  0.11594900  1
  Al  Al76  1  0.15504300  0.15504300  0.11594900  1
  Al  Al77  1  0.84495700  0.00000000  0.11594900  1
  Al  Al78  1  0.33333300  0.66666700  0.37312200  1
  Al  Al79  1  0.66666700  0.33333300  0.37312200  1
  Al  Al80  1  0.66666700  0.33333300  0.62687800  1
  Al  Al81  1  0.33333300  0.66666700  0.62687800  1
  Cr  Cr0  1  0.00000000  0.00000000  0.50000000  1
  Cr  Cr1  1  0.00000000  0.00000000  0.00000000  1
  Cr  Cr2  1  0.00000000  0.73818500  0.25146300  1
  Cr  Cr3  1  0.26181500  0.26181500  0.25146300  1
  Cr  Cr4  1  0.73818500  0.00000000  0.25146300  1
  Cr  Cr5  1  0.00000000  0.26181500  0.74853700  1
  Cr  Cr6  1  0.73818500  0.73818500  0.74853700  1
  Cr  Cr7  1  0.26181500  0.00000000  0.74853700  1
  Cr  Cr8  1  0.66666700  0.33333300  0.86569500  1
  Cr  Cr9  1  0.33333300  0.66666700  0.86569500  1
  Cr  Cr10  1  0.33333300  0.66666700  0.13430500  1
  Cr  Cr11  1  0.66666700  0.33333300  0.13430500  1
loop_
_geom_bond_atom_site_label_1
_geom_bond_atom_site_label_2
_geom_bond_distance
_geom_bond_site_symmetry_2
Er0 Er3 3.475676 1_555
Er1 Er4 3.475676 1_555
Er2 Er5 3.475676 1_555
Er6 Er9 3.422145 1_556
Er10 Er7 3.422145 1_554
Er11 Er8 3.422145 1_554
Al0 Al75 2.721878 1_556
Al0 Cr1 2.765831 1_566
Al0 Al65 2.783105 1_556
Al0 Al62 2.783105 1_456
Al0 Al73 2.824912 1_455
Al0 Al74 2.824912 1_565
Al0 Al29 2.874355 1_555
Al0 Al26 2.874355 1_455
Al0 Al4 2.895961 1_456
Al0 Al5 2.895961 1_566
Al0 Er9 3.169881 1_556
Al0 Er6 3.301372 1_555
Al1 Al76 2.721878 1_556
Al1 Cr1 2.765831 1_556
Al1 Al60 2.783105 1_556
Al1 Al64 2.783105 1_556
Al1 Al72 2.824912 1_555
Al1 Al74 2.824912 1_555
Al1 Al28 2.874355 1_555
Al1 Al24 2.874355 1_555
Al1 Al5 2.895961 1_556
Al1 Al3 2.895961 1_556
Al1 Er10 3.169881 1_556
Al1 Er7 3.301372 1_555
Al2 Al77 2.721878 1_556
Al2 Cr1 2.765831 1_656
Al2 Al61 2.783105 1_556
Al2 Al63 2.783105 1_546
Al2 Al73 2.824912 1_545
Al2 Al72 2.824912 1_655
Al2 Al25 2.874355 1_555
Al2 Al27 2.874355 1_545
Al2 Al4 2.895961 1_546
Al2 Al3 2.895961 1_656
Al2 Er11 3.169881 1_556
Al2 Er8 3.301372 1_555
Al3 Al72 2.721878 1_554
Al3 Cr1 2.765831 1_555
Al3 Al61 2.783105 1_455
Al3 Al64 2.783105 1_555
Al3 Al76 2.824912 1_555
Al3 Al77 2.824912 1_455
Al3 Al35 2.874355 1_455
Al3 Al32 2.874355 1_555
Al3 Er6 3.169881 1_554
Al3 Er9 3.301372 1_555
Al4 Al73 2.721878 1_554
Al4 Cr1 2.765831 1_665
Al4 Al62 2.783105 1_555
Al4 Al63 2.783105 1_555
Al4 Al75 2.824912 1_655
Al4 Al77 2.824912 1_565
Al4 Er7 3.169881 1_554
Al4 Er10 3.301372 1_555
Al5 Al74 2.721878 1_554
Al5 Cr1 2.765831 1_555
Al5 Al65 2.783105 1_545
Al5 Al60 2.783105 1_555
Al5 Al76 2.824912 1_555
Al5 Al75 2.824912 1_545
Al5 Er8 3.169881 1_554
Al5 Er11 3.301372 1_555
Al6 Al69 2.750217 1_555
Al6 Cr0 2.781417 1_555
Al6 Al67 2.807193 1_555
Al6 Al68 2.807193 1_455
Al6 Er3 3.232033 1_555
Al6 Er0 3.264987 1_555
Al7 Al70 2.750217 1_555
Al7 Cr0 2.781417 1_665
Al7 Al9 2.929631 1_655
Al7 Er4 3.232033 1_555
Al7 Er1 3.264987 1_555
Al8 Cr0 2.781417 1_555
Al8 Al9 2.929631 1_545
Al8 Er5 3.232033 1_555
Al8 Er2 3.264987 1_555
Al9 Cr0 2.781417 1_565
Al9 Er0 3.232033 1_555
Al9 Er3 3.264987 1_555
Al10 Al56 2.709636 1_555
Al10 Al57 2.709636 1_555
Al10 Al67 2.750217 1_555
Al10 Cr0 2.781417 1_555
Al10 Al71 2.807193 1_555
Al10 Al69 2.807193 1_555
Al10 Al18 2.852946 1_555
Al10 Al22 2.852946 1_555
Al10 Al8 2.929631 1_555
Al10 Al6 2.929631 1_555
Al10 Er1 3.232033 1_555
Al10 Er4 3.264987 1_555
Al11 Al59 2.709636 1_555
Al11 Al54 2.709636 1_545
Al11 Al68 2.750217 1_555
Al11 Cr0 2.781417 1_655
Al11 Al70 2.807193 1_545
Al11 Al69 2.807193 1_655
Al11 Al19 2.852939 1_555
Al11 Al21 2.852942 1_545
Al11 Al7 2.929631 1_545
Al11 Al6 2.929631 1_655
Al11 Er2 3.232033 1_555
Al11 Er5 3.264987 1_555
Al12 Cr4 2.633245 1_565
Al12 Al68 2.688722 1_565
Al12 Al78 2.692489 1_555
Al12 Al42 2.740223 1_555
Al12 Al37 2.762949 1_555
Al12 Al44 2.802161 1_555
Al12 Al7 2.852946 1_555
Al12 Al16 2.991530 1_555
Al12 Al30 3.032909 1_555
Al12 Er1 3.052367 1_555
Al12 Al54 3.052899 1_555
Al12 Er2 3.234851 1_565
Al13 Cr2 2.633245 1_555
Al13 Al66 2.688717 1_555
Al13 Al78 2.692489 1_555
Al13 Al43 2.740231 1_555
Al13 Al38 2.762941 1_565
Al13 Al42 2.802165 1_555
Al13 Al8 2.852939 1_565
Al13 Al15 2.991511 1_565
Al13 Al31 3.032909 1_555
Al13 Er2 3.052367 1_565
Al13 Al55 3.052902 1_555
Al13 Er0 3.234858 1_555
Al14 Cr3 2.633253 1_555
Al14 Al67 2.688727 1_555
Al14 Al78 2.692489 1_555
Al14 Al44 2.740230 1_555
Al14 Al36 2.762948 1_555
Al14 Al43 2.802156 1_555
Al14 Al6 2.852942 1_555
Al14 Al17 2.991511 1_455
Al14 Al32 3.032909 1_555
Al14 Er0 3.052358 1_555
Al14 Al56 3.052900 1_555
Al14 Er1 3.234861 1_555
Al15 Cr3 2.633253 1_555
Al15 Al67 2.688727 1_555
Al15 Al79 2.692489 1_555
Al15 Al45 2.740230 1_555
Al15 Al38 2.762948 1_555
Al15 Al47 2.802156 1_555
Al15 Al8 2.852942 1_555
Al15 Al33 3.032909 1_555
Al15 Er2 3.052358 1_555
Al15 Al57 3.052900 1_555
Al15 Er1 3.234861 1_555
Al16 Cr2 2.633245 1_655
Al16 Al66 2.688722 1_655
Al16 Al79 2.692489 1_555
Al16 Al46 2.740223 1_555
Al16 Al37 2.762949 1_555
Al16 Al45 2.802161 1_555
Al16 Al7 2.852946 1_555
Al16 Al34 3.032909 1_555
Al16 Er1 3.052367 1_555
Al16 Al58 3.052899 1_555
Al16 Er0 3.234851 1_655
Al17 Cr4 2.633245 1_555
Al17 Al68 2.688717 1_555
Al17 Al79 2.692489 1_555
Al17 Al47 2.740231 1_555
Al17 Al36 2.762941 1_655
Al17 Al46 2.802165 1_555
Al17 Al6 2.852939 1_655
Al17 Al35 3.032909 1_555
Al17 Er0 3.052367 1_655
Al17 Al59 3.052902 1_555
Al17 Er2 3.234858 1_555
Al18 Cr7 2.633245 1_555
Al18 Al71 2.688722 1_555
Al18 Al80 2.692489 1_555
Al18 Al48 2.740223 1_555
Al18 Al40 2.762949 1_555
Al18 Al50 2.802161 1_555
Al18 Al22 2.991530 1_555
Al18 Al24 3.032909 1_555
Al18 Er4 3.052367 1_555
Al18 Al57 3.052899 1_555
Al18 Er5 3.234851 1_555
Al19 Cr5 2.633245 1_655
Al19 Al69 2.688717 1_655
Al19 Al80 2.692489 1_555
Al19 Al49 2.740231 1_555
Al19 Al41 2.762941 1_555
Al19 Al48 2.802165 1_555
Al19 Al21 2.991511 1_545
Al19 Al25 3.032909 1_555
Al19 Er5 3.052367 1_555
Al19 Al59 3.052902 1_555
Al19 Er3 3.234858 1_655
Al20 Cr6 2.633253 1_555
Al20 Al70 2.688727 1_555
Al20 Al80 2.692489 1_555
Al20 Al50 2.740230 1_555
Al20 Al39 2.762948 1_655
Al20 Al49 2.802156 1_555
Al20 Al9 2.852942 1_655
Al20 Al23 2.991511 1_655
Al20 Al26 3.032909 1_555
Al20 Er3 3.052358 1_655
Al20 Al58 3.052900 1_555
Al20 Er4 3.234861 1_555
Al21 Cr6 2.633253 1_555
Al21 Al70 2.688727 1_555
Al21 Al81 2.692489 1_555
Al21 Al51 2.740230 1_555
Al21 Al41 2.762948 1_565
Al21 Al53 2.802156 1_555
Al21 Al27 3.032909 1_555
Al21 Er5 3.052358 1_565
Al21 Al54 3.052900 1_555
Al21 Er4 3.234861 1_555
Al22 Cr5 2.633245 1_555
Al22 Al69 2.688722 1_555
Al22 Al81 2.692489 1_555
Al22 Al52 2.740223 1_555
Al22 Al40 2.762949 1_555
Al22 Al51 2.802161 1_555
Al22 Al28 3.032909 1_555
Al22 Er4 3.052367 1_555
Al22 Al56 3.052899 1_555
Al22 Er3 3.234851 1_555
Al23 Cr7 2.633245 1_565
Al23 Al71 2.688717 1_565
Al23 Al81 2.692489 1_555
Al23 Al53 2.740231 1_555
Al23 Al39 2.762941 1_555
Al23 Al52 2.802165 1_555
Al23 Al9 2.852939 1_555
Al23 Al29 3.032909 1_555
Al23 Er3 3.052367 1_555
Al23 Al55 3.052902 1_555
Al23 Er5 3.234858 1_565
Al24 Cr8 2.582862 1_555
Al24 Al48 2.663840 1_555
Al24 Cr7 2.713522 1_555
Al24 Al74 2.713771 1_555
Al24 Al50 2.738892 1_555
Al24 Al40 2.829538 1_555
Al24 Al60 2.999662 1_556
Al24 Er7 3.054253 1_555
Al24 Al28 3.098364 1_555
Al24 Er8 3.172214 1_555
Al25 Cr8 2.582852 1_555
Al25 Al49 2.663840 1_555
Al25 Cr5 2.713522 1_655
Al25 Al72 2.713771 1_655
Al25 Al48 2.738892 1_555
Al25 Al41 2.829538 1_555
Al25 Al61 2.999662 1_556
Al25 Er8 3.054253 1_555
Al25 Al27 3.098364 1_545
Al25 Er6 3.172214 1_655
Al26 Cr8 2.582860 1_555
Al26 Al50 2.663840 1_555
Al26 Cr6 2.713522 1_555
Al26 Al73 2.713771 1_555
Al26 Al49 2.738892 1_555
Al26 Al39 2.829538 1_655
Al26 Al62 2.999662 1_556
Al26 Er6 3.054253 1_655
Al26 Al29 3.098364 1_655
Al26 Er7 3.172214 1_555
Al27 Cr9 2.582860 1_555
Al27 Al51 2.663840 1_555
Al27 Cr6 2.713522 1_555
Al27 Al73 2.713771 1_555
Al27 Al53 2.738892 1_555
Al27 Al41 2.829538 1_565
Al27 Al63 2.999662 1_556
Al27 Er8 3.054253 1_565
Al27 Er7 3.172214 1_555
Al28 Cr9 2.582862 1_555
Al28 Al52 2.663840 1_555
Al28 Cr5 2.713522 1_555
Al28 Al72 2.713771 1_555
Al28 Al51 2.738892 1_555
Al28 Al40 2.829538 1_555
Al28 Al64 2.999662 1_556
Al28 Er7 3.054253 1_555
Al28 Er6 3.172214 1_555
Al29 Cr9 2.582852 1_555
Al29 Al53 2.663840 1_555
Al29 Cr7 2.713522 1_565
Al29 Al74 2.713771 1_565
Al29 Al52 2.738892 1_555
Al29 Al39 2.829538 1_555
Al29 Al65 2.999662 1_556
Al29 Er6 3.054253 1_555
Al29 Er8 3.172214 1_565
Al30 Cr10 2.582862 1_555
Al30 Al42 2.663840 1_555
Al30 Cr4 2.713522 1_565
Al30 Al77 2.713771 1_565
Al30 Al44 2.738892 1_555
Al30 Al37 2.829538 1_555
Al30 Al4 2.874355 1_555
Al30 Al63 2.999662 1_555
Al30 Er10 3.054253 1_555
Al30 Al34 3.098364 1_555
Al30 Er11 3.172214 1_565
Al31 Cr10 2.582852 1_555
Al31 Al43 2.663840 1_555
Al31 Cr2 2.713522 1_555
Al31 Al75 2.713771 1_555
Al31 Al42 2.738892 1_555
Al31 Al38 2.829538 1_565
Al31 Al5 2.874355 1_565
Al31 Al65 2.999662 1_555
Al31 Er11 3.054253 1_565
Al31 Al33 3.098364 1_565
Al31 Er9 3.172214 1_555
Al32 Cr10 2.582860 1_555
Al32 Al44 2.663840 1_555
Al32 Cr3 2.713522 1_555
Al32 Al76 2.713771 1_555
Al32 Al43 2.738892 1_555
Al32 Al36 2.829538 1_555
Al32 Al64 2.999662 1_555
Al32 Er9 3.054253 1_555
Al32 Al35 3.098364 1_455
Al32 Er10 3.172214 1_555
Al33 Cr11 2.582860 1_555
Al33 Al45 2.663840 1_555
Al33 Cr3 2.713522 1_555
Al33 Al76 2.713771 1_555
Al33 Al47 2.738892 1_555
Al33 Al38 2.829538 1_555
Al33 Al5 2.874355 1_555
Al33 Al60 2.999662 1_555
Al33 Er11 3.054253 1_555
Al33 Er10 3.172214 1_555
Al34 Cr11 2.582862 1_555
Al34 Al46 2.663840 1_555
Al34 Cr2 2.713522 1_655
Al34 Al75 2.713771 1_655
Al34 Al45 2.738892 1_555
Al34 Al37 2.829538 1_555
Al34 Al4 2.874355 1_555
Al34 Al62 2.999662 1_555
Al34 Er10 3.054253 1_555
Al34 Er9 3.172214 1_655
Al35 Cr11 2.582852 1_555
Al35 Al47 2.663840 1_555
Al35 Cr4 2.713522 1_555
Al35 Al77 2.713771 1_555
Al35 Al46 2.738892 1_555
Al35 Al36 2.829538 1_655
Al35 Al61 2.999662 1_555
Al35 Er9 3.054253 1_655
Al35 Er11 3.172214 1_555
Al36 Cr3 2.468013 1_555
Al36 Cr4 2.468013 1_455
Al36 Al38 2.809985 1_555
Al36 Al37 2.809985 1_445
Al36 Al76 2.841462 1_555
Al36 Al77 2.841462 1_455
Al36 Al67 2.887859 1_555
Al36 Al68 2.887859 1_455
Al37 Cr4 2.468013 1_565
Al37 Cr2 2.468013 1_655
Al37 Al38 2.809985 1_665
Al37 Al77 2.841462 1_565
Al37 Al75 2.841462 1_655
Al37 Al66 2.887859 1_655
Al37 Al68 2.887859 1_565
Al38 Cr3 2.468013 1_555
Al38 Cr2 2.468013 1_545
Al38 Al76 2.841462 1_555
Al38 Al75 2.841462 1_545
Al38 Al67 2.887859 1_555
Al38 Al66 2.887859 1_545
Al39 Cr6 2.468013 1_455
Al39 Cr7 2.468013 1_565
Al39 Al41 2.809985 1_465
Al39 Al40 2.809985 1_565
Al39 Al73 2.841462 1_455
Al39 Al74 2.841462 1_565
Al39 Al70 2.887859 1_455
Al39 Al71 2.887859 1_565
Al40 Cr5 2.468013 1_555
Al40 Cr7 2.468013 1_555
Al40 Al41 2.809985 1_455
Al40 Al74 2.841462 1_555
Al40 Al72 2.841462 1_555
Al40 Al71 2.887859 1_555
Al40 Al69 2.887859 1_555
Al41 Cr6 2.468013 1_545
Al41 Cr5 2.468013 1_655
Al41 Al73 2.841462 1_545
Al41 Al72 2.841462 1_655
Al41 Al70 2.887859 1_545
Al41 Al69 2.887859 1_655
Al42 Cr10 2.629231 1_555
Al42 Cr4 2.679126 1_565
Al42 Al78 2.810694 1_555
Al42 Al47 2.814043 1_565
Al42 Er11 2.987419 1_565
Al42 Al44 3.032248 1_555
Al42 Al43 3.032248 1_555
Al42 Er2 3.052313 1_565
Al43 Cr10 2.629230 1_555
Al43 Cr2 2.679126 1_555
Al43 Al78 2.810692 1_555
Al43 Al46 2.814043 1_455
Al43 Er9 2.987419 1_555
Al43 Al44 3.032248 1_555
Al43 Er0 3.052313 1_555
Al44 Cr10 2.629237 1_555
Al44 Cr3 2.679126 1_555
Al44 Al78 2.810699 1_555
Al44 Al45 2.814043 1_555
Al44 Er10 2.987419 1_555
Al44 Er1 3.052313 1_555
Al45 Cr11 2.629237 1_555
Al45 Cr3 2.679126 1_555
Al45 Al79 2.810699 1_555
Al45 Er10 2.987419 1_555
Al45 Al47 3.032248 1_555
Al45 Al46 3.032248 1_555
Al45 Er1 3.052313 1_555
Al46 Cr11 2.629231 1_555
Al46 Cr2 2.679126 1_655
Al46 Al79 2.810694 1_555
Al46 Er9 2.987419 1_655
Al46 Al47 3.032248 1_555
Al46 Er0 3.052313 1_655
Al47 Cr11 2.629230 1_555
Al47 Cr4 2.679126 1_555
Al47 Al79 2.810692 1_555
Al47 Er11 2.987419 1_555
Al47 Er2 3.052313 1_555
Al48 Cr8 2.629231 1_555
Al48 Cr7 2.679126 1_555
Al48 Al80 2.810694 1_555
Al48 Al53 2.814043 1_545
Al48 Er8 2.987419 1_555
Al48 Al50 3.032248 1_555
Al48 Al49 3.032248 1_555
Al48 Er5 3.052313 1_555
Al49 Cr8 2.629230 1_555
Al49 Cr5 2.679126 1_655
Al49 Al80 2.810692 1_555
Al49 Al52 2.814043 1_655
Al49 Er6 2.987419 1_655
Al49 Al50 3.032248 1_555
Al49 Er3 3.052313 1_655
Al50 Cr8 2.629237 1_555
Al50 Cr6 2.679126 1_555
Al50 Al80 2.810699 1_555
Al50 Al51 2.814043 1_555
Al50 Er7 2.987419 1_555
Al50 Er4 3.052313 1_555
Al51 Cr9 2.629237 1_555
Al51 Cr6 2.679126 1_555
Al51 Al81 2.810699 1_555
Al51 Er7 2.987419 1_555
Al51 Al53 3.032248 1_555
Al51 Al52 3.032248 1_555
Al51 Er4 3.052313 1_555
Al52 Cr9 2.629231 1_555
Al52 Cr5 2.679126 1_555
Al52 Al81 2.810694 1_555
Al52 Er6 2.987419 1_555
Al52 Al53 3.032248 1_555
Al52 Er3 3.052313 1_555
Al53 Cr9 2.629230 1_555
Al53 Cr7 2.679126 1_565
Al53 Al81 2.810692 1_555
Al53 Er8 2.987419 1_565
Al53 Er5 3.052313 1_565
Al54 Al7 2.709636 1_555
Al54 Al81 2.739239 1_555
Al54 Al78 2.739239 1_555
Al54 Al55 2.802264 1_555
Al54 Al56 2.802264 1_555
Al54 Er4 3.062503 1_555
Al54 Er2 3.062503 1_565
Al54 Er5 3.372094 1_565
Al54 Er1 3.372094 1_555
Al55 Al9 2.709636 1_555
Al55 Al8 2.709636 1_565
Al55 Al81 2.739234 1_555
Al55 Al78 2.739234 1_555
Al55 Al56 2.802264 1_555
Al55 Er5 3.062503 1_565
Al55 Er0 3.062503 1_555
Al55 Er2 3.372094 1_565
Al55 Er3 3.372094 1_555
Al56 Al6 2.709636 1_555
Al56 Al81 2.739239 1_555
Al56 Al78 2.739239 1_555
Al56 Er1 3.062503 1_555
Al56 Er3 3.062503 1_555
Al56 Er0 3.372094 1_555
Al56 Er4 3.372094 1_555
Al57 Al8 2.709636 1_555
Al57 Al80 2.739239 1_555
Al57 Al79 2.739239 1_555
Al57 Al59 2.802264 1_555
Al57 Al58 2.802264 1_555
Al57 Er1 3.062503 1_555
Al57 Er5 3.062503 1_555
Al57 Er2 3.372094 1_555
Al57 Er4 3.372094 1_555
Al58 Al7 2.709636 1_555
Al58 Al9 2.709636 1_655
Al58 Al80 2.739239 1_555
Al58 Al79 2.739239 1_555
Al58 Al59 2.802264 1_555
Al58 Er4 3.062503 1_555
Al58 Er0 3.062503 1_655
Al58 Er3 3.372094 1_655
Al58 Er1 3.372094 1_555
Al59 Al6 2.709636 1_655
Al59 Al80 2.739234 1_555
Al59 Al79 2.739234 1_555
Al59 Er3 3.062503 1_655
Al59 Er2 3.062503 1_555
Al59 Er0 3.372094 1_655
Al59 Er5 3.372094 1_555
Al60 Al61 2.647644 1_555
Al60 Al62 2.647644 1_555
Al60 Cr8 2.794868 1_554
Al60 Cr11 2.794868 1_555
Al60 Er10 3.043540 1_555
Al60 Er8 3.043540 1_554
Al60 Er11 3.361458 1_555
Al60 Er7 3.361458 1_554
Al61 Al62 2.647644 1_555
Al61 Cr11 2.794863 1_555
Al61 Cr8 2.794863 1_554
Al61 Er11 3.043541 1_555
Al61 Er6 3.043541 1_654
Al61 Er8 3.361458 1_554
Al61 Er9 3.361458 1_655
Al62 Cr8 2.794868 1_554
Al62 Cr11 2.794868 1_555
Al62 Er7 3.043540 1_554
Al62 Er9 3.043540 1_655
Al62 Er6 3.361458 1_654
Al62 Er10 3.361458 1_555
Al63 Al65 2.647644 1_555
Al63 Al64 2.647644 1_555
Al63 Cr9 2.794868 1_554
Al63 Cr10 2.794868 1_555
Al63 Er7 3.043540 1_554
Al63 Er11 3.043540 1_565
Al63 Er8 3.361458 1_564
Al63 Er10 3.361458 1_555
Al64 Al65 2.647644 1_555
Al64 Cr10 2.794868 1_555
Al64 Cr9 2.794868 1_554
Al64 Er10 3.043540 1_555
Al64 Er6 3.043540 1_554
Al64 Er9 3.361458 1_555
Al64 Er7 3.361458 1_554
Al65 Cr9 2.794863 1_554
Al65 Cr10 2.794863 1_555
Al65 Er9 3.043541 1_555
Al65 Er8 3.043541 1_564
Al65 Er6 3.361458 1_554
Al65 Er11 3.361458 1_565
Al66 Cr2 2.592194 1_555
Al66 Cr0 2.621067 1_565
Al66 Al9 2.750217 1_555
Al66 Al7 2.807193 1_455
Al66 Al8 2.807193 1_565
Al66 Al68 2.911578 1_465
Al66 Al67 2.911578 1_565
Al66 Er0 3.400676 1_555
Al67 Cr3 2.592194 1_555
Al67 Cr0 2.621067 1_555
Al67 Al8 2.807193 1_555
Al67 Al68 2.911578 1_455
Al67 Er1 3.400676 1_555
Al68 Cr4 2.592194 1_555
Al68 Cr0 2.621067 1_655
Al68 Al7 2.807193 1_545
Al68 Er2 3.400676 1_555
Al69 Cr5 2.592194 1_555
Al69 Cr0 2.621067 1_555
Al69 Al71 2.911578 1_555
Al69 Al70 2.911578 1_445
Al69 Er3 3.400676 1_555
Al70 Cr6 2.592194 1_555
Al70 Cr0 2.621067 1_665
Al70 Al9 2.807193 1_655
Al70 Al71 2.911578 1_665
Al70 Er4 3.400676 1_555
Al71 Cr7 2.592194 1_555
Al71 Cr0 2.621067 1_555
Al71 Al8 2.750217 1_555
Al71 Al9 2.807193 1_545
Al71 Er5 3.400676 1_555
Al72 Cr1 2.628332 1_556
Al72 Cr5 2.629577 1_555
Al72 Al74 2.912593 1_555
Al72 Al73 2.912593 1_445
Al72 Er6 3.375316 1_555
Al73 Cr1 2.628332 1_666
Al73 Cr6 2.629577 1_555
Al73 Al74 2.912593 1_665
Al73 Er7 3.375316 1_555
Al74 Cr1 2.628332 1_556
Al74 Cr7 2.629577 1_555
Al74 Er8 3.375316 1_555
Al75 Cr1 2.628332 1_565
Al75 Cr2 2.629577 1_555
Al75 Al77 2.912593 1_465
Al75 Al76 2.912593 1_565
Al75 Er9 3.375316 1_555
Al76 Cr1 2.628332 1_555
Al76 Cr3 2.629577 1_555
Al76 Al77 2.912593 1_455
Al76 Er10 3.375316 1_555
Al77 Cr1 2.628332 1_655
Al77 Cr4 2.629577 1_555
Al77 Er11 3.375316 1_555
Al78 Er0 3.191952 1_555
Al78 Er2 3.191953 1_565
Al78 Er1 3.191962 1_555
Al79 Er2 3.191952 1_555
Al79 Er0 3.191953 1_655
Al79 Er1 3.191962 1_555
Al80 Er3 3.191952 1_655
Al80 Er5 3.191953 1_555
Al80 Er4 3.191962 1_555
Al81 Er5 3.191952 1_565
Al81 Er3 3.191953 1_555
Al81 Er4 3.191962 1_555
Cr2 Er0 3.445863 1_555
Cr2 Er9 3.492570 1_555
Cr3 Er1 3.445864 1_555
Cr3 Er10 3.492570 1_555
Cr4 Er2 3.445863 1_555
Cr4 Er11 3.492570 1_555
Cr5 Er3 3.445863 1_555
Cr5 Er6 3.492570 1_555
Cr6 Er4 3.445864 1_555
Cr6 Er7 3.492570 1_555
Cr7 Er5 3.445863 1_555
Cr7 Er8 3.492570 1_555
Cr8 Er6 3.225359 1_655
Cr8 Er8 3.225361 1_555
Cr8 Er7 3.225369 1_555
Cr9 Er8 3.225359 1_565
Cr9 Er6 3.225361 1_555
Cr9 Er7 3.225369 1_555
Cr10 Er9 3.225359 1_555
Cr10 Er11 3.225361 1_565
Cr10 Er10 3.225369 1_555
Cr11 Er11 3.225359 1_555
Cr11 Er9 3.225361 1_655
Cr11 Er10 3.225369 1_555
