# generated using pymatgen
data_SrCo2(AsO4)2
_symmetry_space_group_name_H-M   'P 1'
_cell_length_a   5.78292200
_cell_length_b   7.03269504
_cell_length_c   9.55478952
_cell_angle_alpha   110.59684372
_cell_angle_beta   101.65789651
_cell_angle_gamma   99.28200009
_symmetry_Int_Tables_number   1
_chemical_formula_structural   SrCo2(AsO4)2
_chemical_formula_sum   'Sr2 Co4 As4 O16'
_cell_volume   344.61173904
_cell_formula_units_Z   2
loop_
 _symmetry_equiv_pos_site_id
 _symmetry_equiv_pos_as_xyz
  1  'x, y, z'
loop_
 _atom_site_type_symbol
 _atom_site_label
 _atom_site_symmetry_multiplicity
 _atom_site_fract_x
 _atom_site_fract_y
 _atom_site_fract_z
 _atom_site_occupancy
  Sr  Sr0  1  0.80282700  0.75955100  0.44639700  1
  Sr  Sr1  1  0.19717300  0.24044900  0.55360300  1
  Co  Co0  1  0.92191200  0.19942700  0.93983400  1
  Co  Co1  1  0.07808800  0.80057300  0.06016600  1
  Co  Co2  1  0.66207300  0.74914400  0.85267400  1
  Co  Co3  1  0.33792700  0.25085600  0.14732600  1
  As  As0  1  0.53992800  0.22486500  0.79763200  1
  As  As1  1  0.46007200  0.77513500  0.20236800  1
  As  As2  1  0.15548500  0.68262200  0.74106700  1
  As  As3  1  0.84451500  0.31737800  0.25893300  1
  O  O0  1  0.95928700  0.68273600  0.91753000  1
  O  O1  1  0.04071300  0.31726400  0.08247000  1
  O  O2  1  0.58070900  0.36005100  0.92017800  1
  O  O3  1  0.41929100  0.63994900  0.07982200  1
  O  O4  1  0.23522800  0.07352300  0.86432900  1
  O  O5  1  0.76477200  0.92647700  0.13567100  1
  O  O6  1  0.74505500  0.06627200  0.81398700  1
  O  O7  1  0.25494500  0.93372800  0.18601300  1
  O  O8  1  0.10054300  0.43777900  0.73835900  1
  O  O9  1  0.89945700  0.56222100  0.26164100  1
  O  O10  1  0.47002500  0.77739400  0.70159600  1
  O  O11  1  0.52997500  0.22260600  0.29840400  1
  O  O12  1  0.61840600  0.36992600  0.60767800  1
  O  O13  1  0.38159400  0.63007400  0.39232200  1
  O  O14  1  0.03936300  0.83860300  0.61854300  1
  O  O15  1  0.96063700  0.16139700  0.38145700  1
loop_
_geom_bond_atom_site_label_1
_geom_bond_atom_site_label_2
_geom_bond_distance
_geom_bond_site_symmetry_2
Co0 O1 1.288194 1_656
Co0 O6 1.330639 1_555
Co0 O4 2.276787 1_655
Co1 O0 1.288194 1_454
Co1 O7 1.330639 1_555
Co1 O5 2.276787 1_455
Co2 O10 1.726762 1_555
Co2 O0 1.894308 1_555
Co2 O5 2.441104 1_556
Co3 O11 1.726762 1_555
Co3 O1 1.894308 1_555
Co3 O4 2.441104 1_554
As0 O2 1.167625 1_555
As0 O6 1.774840 1_555
As0 O4 2.229312 1_555
As0 O12 2.455013 1_555
As1 O3 1.167625 1_555
As1 O7 1.774840 1_555
As1 O5 2.229312 1_555
As1 O13 2.455013 1_555
As2 O8 1.689800 1_555
As2 O14 1.961699 1_555
As2 O10 1.989492 1_555
As2 O0 2.214179 1_455
As2 O4 2.500155 1_565
As3 O9 1.689800 1_555
As3 O15 1.961699 1_555
As3 O11 1.989492 1_555
As3 O1 2.214179 1_655
As3 O5 2.500155 1_545
O8 Sr1 2.068725 1_555
O9 Sr0 2.068725 1_555
O12 Sr1 2.339827 1_555
O13 Sr0 2.339827 1_555
O14 Sr0 1.757161 1_455
O15 Sr1 1.757161 1_655
