# generated using pymatgen
data_CuSnPd2
_symmetry_space_group_name_H-M   'P 1'
_cell_length_a   5.46600000
_cell_length_b   8.83041500
_cell_length_c   9.84538200
_cell_angle_alpha   90.00000000
_cell_angle_beta   90.00000000
_cell_angle_gamma   90.00000000
_symmetry_Int_Tables_number   1
_chemical_formula_structural   CuSnPd2
_chemical_formula_sum   'Cu4 Sn4 Pd8'
_cell_volume   475.20752941
_cell_formula_units_Z   4
loop_
 _symmetry_equiv_pos_site_id
 _symmetry_equiv_pos_as_xyz
  1  'x, y, z'
loop_
 _atom_site_type_symbol
 _atom_site_label
 _atom_site_symmetry_multiplicity
 _atom_site_fract_x
 _atom_site_fract_y
 _atom_site_fract_z
 _atom_site_occupancy
  Cu  Cu0  1  0.25000000  0.99997800  0.50000000  1
  Cu  Cu1  1  0.75000000  0.00002200  0.50000000  1
  Cu  Cu2  1  0.25000000  0.75001700  0.00000000  1
  Cu  Cu3  1  0.75000000  0.24998300  0.00000000  1
  Sn  Sn0  1  0.00000000  0.50000000  0.00000000  1
  Sn  Sn1  1  0.50000000  0.50000000  0.00000000  1
  Sn  Sn2  1  0.00000000  0.00000000  0.00000000  1
  Sn  Sn3  1  0.50000000  0.00000000  0.00000000  1
  Pd  Pd0  1  0.25000000  0.25011900  0.00000000  1
  Pd  Pd1  1  0.75000000  0.74988100  0.00000000  1
  Pd  Pd2  1  0.25000000  0.49997500  0.50000000  1
  Pd  Pd3  1  0.75000000  0.50002500  0.50000000  1
  Pd  Pd4  1  0.00001400  0.24162600  0.50000000  1
  Pd  Pd5  1  0.99998600  0.75837400  0.50000000  1
  Pd  Pd6  1  0.49998600  0.24162600  0.50000000  1
  Pd  Pd7  1  0.50001400  0.75837400  0.50000000  1
loop_
_geom_bond_atom_site_label_1
_geom_bond_atom_site_label_2
_geom_bond_distance
_geom_bond_site_symmetry_2
Cu0 Pd7 2.533614 1_555
Cu0 Pd5 2.533614 1_455
Cu0 Pd6 2.533858 1_565
Cu0 Pd4 2.533858 1_565
Cu0 Cu1 2.733000 1_565
Cu0 Cu1 2.733000 1_465
Cu1 Pd6 2.533614 1_555
Cu1 Pd4 2.533614 1_655
Cu1 Pd5 2.533858 1_545
Cu1 Pd7 2.533858 1_545
Cu2 Sn2 2.596184 1_565
Cu2 Sn3 2.596184 1_565
Cu2 Sn0 2.596440 1_555
Cu2 Sn1 2.596440 1_555
Cu2 Pd1 2.733000 1_455
Cu2 Pd1 2.733000 1_555
Cu3 Sn3 2.596184 1_555
Cu3 Sn2 2.596184 1_655
Cu3 Sn0 2.596440 1_655
Cu3 Sn1 2.596440 1_555
Cu3 Pd0 2.733000 1_555
Cu3 Pd0 2.733000 1_655
Sn0 Sn1 2.733000 1_455
Sn0 Sn1 2.733000 1_555
Sn2 Sn3 2.733000 1_455
Sn2 Sn3 2.733000 1_555
Pd0 Sn0 2.595419 1_555
Pd0 Sn1 2.595419 1_555
Pd0 Sn3 2.597206 1_555
Pd0 Sn2 2.597206 1_555
Pd1 Sn0 2.595419 1_655
Pd1 Sn1 2.595419 1_555
Pd1 Sn2 2.597206 1_665
Pd1 Sn3 2.597206 1_565
Pd2 Pd6 2.659243 1_555
Pd2 Pd4 2.659243 1_555
Pd2 Pd7 2.659701 1_555
Pd2 Pd5 2.659701 1_455
Pd2 Pd3 2.733000 1_555
Pd2 Pd3 2.733000 1_455
Pd3 Pd5 2.659243 1_555
Pd3 Pd7 2.659243 1_555
Pd3 Pd6 2.659701 1_555
Pd3 Pd4 2.659701 1_655
Pd4 Pd6 2.732847 1_555
Pd4 Pd6 2.733153 1_455
Pd5 Pd7 2.732847 1_555
Pd5 Pd7 2.733153 1_655
