# generated using pymatgen
data_MnAsO5
_symmetry_space_group_name_H-M   'P 1'
_cell_length_a   6.69668297
_cell_length_b   7.30644872
_cell_length_c   15.48836000
_cell_angle_alpha   90.00000000
_cell_angle_beta   90.00000000
_cell_angle_gamma   96.44514720
_symmetry_Int_Tables_number   1
_chemical_formula_structural   MnAsO5
_chemical_formula_sum   'Mn8 As8 O40'
_cell_volume   753.03986117
_cell_formula_units_Z   8
loop_
 _symmetry_equiv_pos_site_id
 _symmetry_equiv_pos_as_xyz
  1  'x, y, z'
loop_
 _atom_site_type_symbol
 _atom_site_label
 _atom_site_symmetry_multiplicity
 _atom_site_fract_x
 _atom_site_fract_y
 _atom_site_fract_z
 _atom_site_occupancy
  Mn  Mn0  1  0.35225800  0.60038800  0.55059500  1
  Mn  Mn1  1  0.64774200  0.39961200  0.05059500  1
  Mn  Mn2  1  0.09107400  0.89235900  0.45170400  1
  Mn  Mn3  1  0.90892600  0.10764100  0.95170400  1
  Mn  Mn4  1  0.84188800  0.14767400  0.56943500  1
  Mn  Mn5  1  0.15811200  0.85232600  0.06943500  1
  Mn  Mn6  1  0.60407500  0.34199900  0.43176500  1
  Mn  Mn7  1  0.39592500  0.65800100  0.93176500  1
  As  As0  1  0.83965400  0.58560600  0.58843400  1
  As  As1  1  0.16034600  0.41439400  0.08843400  1
  As  As2  1  0.60512400  0.90656500  0.41150900  1
  As  As3  1  0.39487600  0.09343500  0.91150900  1
  As  As4  1  0.34481400  0.17233000  0.61370800  1
  As  As5  1  0.65518600  0.82767000  0.11370800  1
  As  As6  1  0.09770000  0.31645600  0.38803500  1
  As  As7  1  0.90230000  0.68354400  0.88803500  1
  O  O0  1  0.76391700  0.73326200  0.66477500  1
  O  O1  1  0.23608300  0.26673800  0.16477500  1
  O  O2  1  0.69135000  0.75751000  0.33825000  1
  O  O3  1  0.30865000  0.24249000  0.83825000  1
  O  O4  1  0.05779200  0.67450200  0.53250500  1
  O  O5  1  0.94220800  0.32549800  0.03250500  1
  O  O6  1  0.38421400  0.81668700  0.46324200  1
  O  O7  1  0.61578600  0.18331300  0.96324200  1
  O  O8  1  0.64523700  0.55555800  0.51023100  1
  O  O9  1  0.35476300  0.44444200  0.01023100  1
  O  O10  1  0.79734600  0.93688000  0.49106300  1
  O  O11  1  0.20265400  0.06312000  0.99106300  1
  O  O12  1  0.88153700  0.37711400  0.63253800  1
  O  O13  1  0.11846300  0.62288600  0.13253800  1
  O  O14  1  0.56567100  0.11544900  0.36690600  1
  O  O15  1  0.43432900  0.88455100  0.86690600  1
  O  O16  1  0.31884600  0.39569600  0.63692400  1
  O  O17  1  0.68115400  0.60430400  0.13692400  1
  O  O18  1  0.12373200  0.08768800  0.36849800  1
  O  O19  1  0.87626800  0.91231200  0.86849800  1
  O  O20  1  0.12690100  0.08757100  0.55134800  1
  O  O21  1  0.87309900  0.91242900  0.05134800  1
  O  O22  1  0.30842900  0.40179800  0.45237300  1
  O  O23  1  0.69157100  0.59820200  0.95237300  1
  O  O24  1  0.55770900  0.17903500  0.54175400  1
  O  O25  1  0.44229100  0.82096500  0.04175400  1
  O  O26  1  0.88313700  0.31059100  0.45922600  1
  O  O27  1  0.11686300  0.68940900  0.95922600  1
  O  O28  1  0.37977600  0.02139200  0.69276700  1
  O  O29  1  0.62022400  0.97860700  0.19276700  1
  O  O30  1  0.05979800  0.45213500  0.30395400  1
  O  O31  1  0.94020200  0.54786500  0.80395400  1
  O  O32  1  0.42781500  0.73613500  0.64511900  1
  O  O33  1  0.57218500  0.26386500  0.14511900  1
  O  O34  1  0.01136600  0.74813100  0.34127800  1
  O  O35  1  0.98863400  0.25186900  0.84127800  1
  O  O36  1  0.81087200  0.03367500  0.66591500  1
  O  O37  1  0.18912800  0.96632500  0.16591500  1
  O  O38  1  0.62318100  0.45672200  0.33514900  1
  O  O39  1  0.37681900  0.54327800  0.83514900  1
loop_
_geom_bond_atom_site_label_1
_geom_bond_atom_site_label_2
_geom_bond_distance
_geom_bond_site_symmetry_2
Mn0 O32 1.808434 1_555
Mn0 O16 1.999873 1_555
Mn0 O6 2.073149 1_555
Mn0 O22 2.100059 1_555
Mn0 O8 2.119387 1_555
Mn0 O4 2.121329 1_555
Mn1 O33 1.808434 1_555
Mn1 O17 1.999873 1_555
Mn1 O7 2.073149 1_554
Mn1 O23 2.100059 1_554
Mn1 O9 2.119387 1_555
Mn1 O5 2.121329 1_555
Mn2 O18 1.917122 1_565
Mn2 O4 2.017404 1_555
Mn2 O34 2.048001 1_555
Mn2 O20 2.096886 1_565
Mn2 O6 2.105926 1_555
Mn2 O10 2.119005 1_455
Mn3 O19 1.917122 1_545
Mn3 O5 2.017404 1_556
Mn3 O35 2.048001 1_555
Mn3 O21 2.096886 1_546
Mn3 O7 2.105926 1_555
Mn3 O11 2.119005 1_655
Mn4 O36 1.712032 1_555
Mn4 O12 1.932898 1_555
Mn4 O10 1.957385 1_545
Mn4 O24 1.988929 1_555
Mn4 O20 2.025439 1_655
Mn4 O26 2.081611 1_555
Mn5 O37 1.712032 1_555
Mn5 O13 1.932898 1_555
Mn5 O11 1.957385 1_564
Mn5 O25 1.988929 1_555
Mn5 O21 2.025439 1_455
Mn5 O27 2.081611 1_554
Mn6 O38 1.712946 1_555
Mn6 O14 1.928639 1_555
Mn6 O26 1.955049 1_555
Mn6 O8 1.972591 1_555
Mn6 O24 2.081640 1_555
Mn6 O22 2.099232 1_555
Mn7 O39 1.712946 1_555
Mn7 O15 1.928639 1_555
Mn7 O27 1.955049 1_555
Mn7 O9 1.972591 1_556
Mn7 O25 2.081640 1_556
Mn7 O23 2.099232 1_555
As0 O0 1.715238 1_555
As0 O12 1.720978 1_555
As0 O4 1.758745 1_655
As0 O8 1.773751 1_555
As1 O1 1.715238 1_555
As1 O13 1.720978 1_555
As1 O5 1.758745 1_455
As1 O9 1.773751 1_555
As2 O2 1.717009 1_555
As2 O14 1.722457 1_565
As2 O6 1.744613 1_555
As2 O10 1.777718 1_555
As3 O3 1.717009 1_555
As3 O15 1.722457 1_545
As3 O7 1.744613 1_555
As3 O11 1.777718 1_555
As4 O28 1.681780 1_555
As4 O16 1.699034 1_555
As4 O20 1.800845 1_555
As4 O24 1.805910 1_555
As5 O29 1.681775 1_555
As5 O17 1.699034 1_555
As5 O21 1.800845 1_555
As5 O25 1.805910 1_555
As6 O30 1.673193 1_555
As6 O18 1.726622 1_555
As6 O22 1.782049 1_555
As6 O26 1.807866 1_455
As7 O31 1.673193 1_555
As7 O19 1.726622 1_555
As7 O23 1.782049 1_555
As7 O27 1.807866 1_655
