# generated using pymatgen
data_Sm2In
_symmetry_space_group_name_H-M   'P 1'
_cell_length_a   5.49598066
_cell_length_b   5.49597991
_cell_length_c   6.85133956
_cell_angle_alpha   90.00000000
_cell_angle_beta   90.00000000
_cell_angle_gamma   119.99999812
_symmetry_Int_Tables_number   1
_chemical_formula_structural   Sm2In
_chemical_formula_sum   'Sm4 In2'
_cell_volume   179.22412336
_cell_formula_units_Z   2
loop_
 _symmetry_equiv_pos_site_id
 _symmetry_equiv_pos_as_xyz
  1  'x, y, z'
loop_
 _atom_site_type_symbol
 _atom_site_label
 _atom_site_symmetry_multiplicity
 _atom_site_fract_x
 _atom_site_fract_y
 _atom_site_fract_z
 _atom_site_occupancy
  Sm  Sm0  1  -0.00000000  0.00000000  -0.00000000  1
  Sm  Sm1  1  0.66666700  0.33333300  0.25004353  1
  Sm  Sm2  1  0.33333300  0.66666700  0.74995647  1
  Sm  Sm3  1  -0.00000000  0.00000000  0.50000000  1
  In  In0  1  0.33333300  0.66666700  0.25002722  1
  In  In1  1  0.66666700  0.33333300  0.74997278  1
loop_
_geom_bond_atom_site_label_1
_geom_bond_atom_site_label_2
_geom_bond_distance
_geom_bond_site_symmetry_2
Sm0 Sm3 3.425670 1_554
Sm0 Sm3 3.425670 1_555
Sm0 Sm2 3.606023 1_544
Sm0 Sm1 3.606023 1_455
Sm0 Sm1 3.606027 1_445
Sm0 Sm2 3.606027 1_554
Sm0 Sm2 3.606028 1_444
Sm0 Sm1 3.606028 1_555
Sm1 Sm3 3.605740 1_655
Sm1 Sm3 3.605744 1_665
Sm1 Sm3 3.605744 1_555
Sm2 Sm3 3.605740 1_565
Sm2 Sm3 3.605744 1_555
Sm2 Sm3 3.605744 1_665
In0 Sm1 3.173102 1_565
In0 Sm1 3.173103 1_455
In0 Sm1 3.173112 1_555
In0 Sm2 3.425185 1_555
In0 Sm2 3.426155 1_554
In0 Sm3 3.605793 1_565
In0 Sm3 3.605797 1_555
In0 Sm3 3.605798 1_665
In0 Sm0 3.605970 1_565
In0 Sm0 3.605974 1_555
In0 Sm0 3.605975 1_665
In1 Sm2 3.173102 1_545
In1 Sm2 3.173103 1_655
In1 Sm2 3.173112 1_555
In1 Sm1 3.425185 1_555
In1 Sm1 3.426155 1_556
In1 Sm3 3.605793 1_655
In1 Sm3 3.605797 1_665
In1 Sm3 3.605798 1_555
In1 Sm0 3.605970 1_656
In1 Sm0 3.605974 1_666
In1 Sm0 3.605975 1_556
