# generated using pymatgen
data_Mn7SiO12
_symmetry_space_group_name_H-M   'P 1'
_cell_length_a   9.44972678
_cell_length_b   9.44972608
_cell_length_c   12.12212781
_cell_angle_alpha   112.94029743
_cell_angle_beta   112.94030311
_cell_angle_gamma   90.00000024
_symmetry_Int_Tables_number   1
_chemical_formula_structural   Mn7SiO12
_chemical_formula_sum   'Mn28 Si4 O48'
_cell_volume   903.17224912
_cell_formula_units_Z   4
loop_
 _symmetry_equiv_pos_site_id
 _symmetry_equiv_pos_as_xyz
  1  'x, y, z'
loop_
 _atom_site_type_symbol
 _atom_site_label
 _atom_site_symmetry_multiplicity
 _atom_site_fract_x
 _atom_site_fract_y
 _atom_site_fract_z
 _atom_site_occupancy
  Mn  Mn0  1  0.74650300  0.25000000  0.50000000  1
  Mn  Mn1  1  0.14574500  0.35425500  0.75000000  1
  Mn  Mn2  1  0.25000000  0.75349700  0.00000000  1
  Mn  Mn3  1  0.50000000  0.00000000  0.50000000  1
  Mn  Mn4  1  0.50000000  0.50000000  0.50000000  1
  Mn  Mn5  1  0.00000000  0.50000000  0.50000000  1
  Mn  Mn6  1  0.25000000  0.25349700  0.00000000  1
  Mn  Mn7  1  0.37500000  0.12500000  0.75000000  1
  Mn  Mn8  1  0.00000000  0.00000000  0.00000000  1
  Mn  Mn9  1  0.12500000  0.37500000  0.25000000  1
  Mn  Mn10  1  0.24650300  0.25000000  0.50000000  1
  Mn  Mn11  1  0.75349700  0.75000000  0.50000000  1
  Mn  Mn12  1  0.39574500  0.10425500  0.25000000  1
  Mn  Mn13  1  0.85425500  0.64574500  0.25000000  1
  Mn  Mn14  1  0.75000000  0.74650300  0.00000000  1
  Mn  Mn15  1  0.62500000  0.87500000  0.25000000  1
  Mn  Mn16  1  0.10425500  0.85425500  0.75000000  1
  Mn  Mn17  1  0.00000000  0.50000000  0.00000000  1
  Mn  Mn18  1  0.87500000  0.62500000  0.75000000  1
  Mn  Mn19  1  0.35425500  0.60425500  0.25000000  1
  Mn  Mn20  1  0.50000000  0.50000000  0.00000000  1
  Mn  Mn21  1  0.60425500  0.89574500  0.75000000  1
  Mn  Mn22  1  0.89574500  0.14574500  0.25000000  1
  Mn  Mn23  1  0.75000000  0.24650300  0.00000000  1
  Mn  Mn24  1  0.64574500  0.39574500  0.75000000  1
  Mn  Mn25  1  0.25349700  0.75000000  0.50000000  1
  Mn  Mn26  1  0.50000000  0.00000000  0.00000000  1
  Mn  Mn27  1  0.00000000  0.00000000  0.50000000  1
  Si  Si0  1  0.12500000  0.87500000  0.25000000  1
  Si  Si1  1  0.87500000  0.12500000  0.75000000  1
  Si  Si2  1  0.37500000  0.62500000  0.75000000  1
  Si  Si3  1  0.62500000  0.37500000  0.25000000  1
  O  O0  1  0.85673600  0.29648300  0.41230600  1
  O  O1  1  0.47419400  0.44515300  0.16051200  1
  O  O2  1  0.15131500  0.41141800  0.11686300  1
  O  O3  1  0.41141800  0.96554700  0.61686300  1
  O  O4  1  0.20351700  0.64326400  0.08769400  1
  O  O5  1  0.55484700  0.31368200  0.33948800  1
  O  O6  1  0.58858200  0.03445300  0.38313700  1
  O  O7  1  0.03445300  0.79455600  0.88313700  1
  O  O8  1  0.05484700  0.02580600  0.33948800  1
  O  O9  1  0.52580600  0.55484700  0.83948800  1
  O  O10  1  0.97419400  0.71536000  0.16051200  1
  O  O11  1  0.88417700  0.94443100  0.08769400  1
  O  O12  1  0.35673600  0.11582300  0.41230600  1
  O  O13  1  0.20544400  0.15131500  0.61686300  1
  O  O14  1  0.94443100  0.20351700  0.58769400  1
  O  O15  1  0.46554700  0.91141800  0.11686300  1
  O  O16  1  0.70351700  0.44443100  0.08769400  1
  O  O17  1  0.31368200  0.78464000  0.83948800  1
  O  O18  1  0.96554700  0.20544400  0.11686300  1
  O  O19  1  0.84868500  0.58858200  0.88313700  1
  O  O20  1  0.08858200  0.34868500  0.38313700  1
  O  O21  1  0.64326400  0.88417700  0.58769400  1
  O  O22  1  0.53445300  0.08858200  0.88313700  1
  O  O23  1  0.21536000  0.47419400  0.66051200  1
  O  O24  1  0.44515300  0.68631800  0.66051200  1
  O  O25  1  0.44443100  0.38417700  0.58769400  1
  O  O26  1  0.18631800  0.94515300  0.16051200  1
  O  O27  1  0.71536000  0.18631800  0.66051200  1
  O  O28  1  0.79455600  0.84868500  0.38313700  1
  O  O29  1  0.65131500  0.70544400  0.11686300  1
  O  O30  1  0.29648300  0.55556900  0.91230600  1
  O  O31  1  0.38417700  0.14326400  0.08769400  1
  O  O32  1  0.55556900  0.61582300  0.41230600  1
  O  O33  1  0.94515300  0.97419400  0.66051200  1
  O  O34  1  0.05556900  0.79648300  0.41230600  1
  O  O35  1  0.29455600  0.53445300  0.38313700  1
  O  O36  1  0.28464000  0.81368200  0.33948800  1
  O  O37  1  0.34868500  0.29455600  0.88313700  1
  O  O38  1  0.14326400  0.70351700  0.58769400  1
  O  O39  1  0.11582300  0.05556900  0.91230600  1
  O  O40  1  0.70544400  0.46554700  0.61686300  1
  O  O41  1  0.02580600  0.28464000  0.83948800  1
  O  O42  1  0.61582300  0.85673600  0.91230600  1
  O  O43  1  0.81368200  0.05484700  0.83948800  1
  O  O44  1  0.91141800  0.65131500  0.61686300  1
  O  O45  1  0.79648300  0.35673600  0.91230600  1
  O  O46  1  0.68631800  0.21536000  0.16051200  1
  O  O47  1  0.78464000  0.52580600  0.33948800  1
loop_
_geom_bond_atom_site_label_1
_geom_bond_atom_site_label_2
_geom_bond_distance
_geom_bond_site_symmetry_2
Mn0 O0 1.906644 1_555
Mn0 O14 1.906651 1_555
Mn0 O6 2.117848 1_555
Mn0 O40 2.117852 1_555
Mn0 O27 2.365128 1_555
Mn0 O5 2.365132 1_555
Mn1 O23 2.099720 1_555
Mn1 O41 2.099720 1_555
Mn1 O30 2.101561 1_555
Mn1 O14 2.101561 1_455
Mn1 O37 2.213065 1_555
Mn1 O13 2.213065 1_555
Mn2 O4 1.906643 1_555
Mn2 O30 1.906651 1_554
Mn2 O15 2.117848 1_555
Mn2 O7 2.117852 1_554
Mn2 O17 2.365128 1_554
Mn2 O26 2.365132 1_555
Mn3 O21 1.986422 1_545
Mn3 O12 1.986422 1_555
Mn3 O3 2.024220 1_545
Mn3 O6 2.024220 1_555
Mn3 O27 2.295663 1_555
Mn3 O36 2.295663 1_545
Mn4 O25 1.986418 1_555
Mn4 O32 1.986418 1_555
Mn4 O40 2.024213 1_555
Mn4 O35 2.024213 1_555
Mn4 O5 2.295658 1_555
Mn4 O24 2.295658 1_555
Mn5 O38 1.986422 1_555
Mn5 O0 1.986422 1_455
Mn5 O44 2.024216 1_455
Mn5 O20 2.024216 1_555
Mn5 O47 2.295663 1_455
Mn5 O23 2.295663 1_555
Mn6 O31 1.906643 1_555
Mn6 O39 1.906651 1_554
Mn6 O2 2.117855 1_555
Mn6 O37 2.117859 1_554
Mn6 O41 2.365128 1_554
Mn6 O1 2.365132 1_555
Mn7 O22 1.879039 1_555
Mn7 O3 1.879040 1_545
Mn7 O13 1.879040 1_555
Mn7 O37 1.879040 1_555
Mn8 O39 1.986418 1_554
Mn8 O11 1.986418 1_445
Mn8 O18 2.024213 1_455
Mn8 O7 2.024213 1_544
Mn8 O43 2.295658 1_454
Mn8 O26 2.295658 1_545
Mn9 O2 1.879035 1_555
Mn9 O20 1.879035 1_555
Mn9 O18 1.879044 1_455
Mn9 O35 1.879044 1_555
Mn10 O12 1.906644 1_555
Mn10 O25 1.906651 1_555
Mn10 O20 2.117854 1_555
Mn10 O13 2.117859 1_555
Mn10 O23 2.365128 1_555
Mn10 O8 2.365132 1_555
Mn11 O21 1.906644 1_555
Mn11 O32 1.906651 1_555
Mn11 O44 2.117854 1_555
Mn11 O28 2.117859 1_555
Mn11 O47 2.365128 1_555
Mn11 O33 2.365132 1_555
Mn12 O5 2.099715 1_555
Mn12 O26 2.099715 1_545
Mn12 O31 2.101567 1_555
Mn12 O12 2.101567 1_555
Mn12 O6 2.213064 1_555
Mn12 O15 2.213065 1_545
Mn13 O47 2.099720 1_555
Mn13 O10 2.099720 1_555
Mn13 O16 2.101561 1_555
Mn13 O34 2.101561 1_655
Mn13 O29 2.213065 1_555
Mn13 O28 2.213065 1_555
Mn14 O42 1.906643 1_554
Mn14 O11 1.906651 1_555
Mn14 O19 2.117855 1_554
Mn14 O29 2.117859 1_555
Mn14 O10 2.365128 1_555
Mn14 O9 2.365132 1_554
Mn15 O15 1.879039 1_555
Mn15 O6 1.879040 1_565
Mn15 O28 1.879040 1_555
Mn15 O29 1.879040 1_555
Mn16 O33 2.099715 1_455
Mn16 O17 2.099720 1_555
Mn16 O39 2.101562 1_565
Mn16 O38 2.101567 1_555
Mn16 O7 2.213059 1_555
Mn16 O44 2.213070 1_455
Mn17 O4 1.986422 1_555
Mn17 O45 1.986422 1_454
Mn17 O19 2.024216 1_454
Mn17 O2 2.024216 1_555
Mn17 O41 2.295663 1_554
Mn17 O10 2.295663 1_455
Mn18 O19 1.879035 1_555
Mn18 O44 1.879035 1_555
Mn18 O7 1.879044 1_655
Mn18 O40 1.879044 1_555
Mn19 O1 2.099715 1_555
Mn19 O36 2.099720 1_555
Mn19 O32 2.101561 1_555
Mn19 O4 2.101567 1_555
Mn19 O35 2.213059 1_555
Mn19 O2 2.213070 1_555
Mn20 O30 1.986418 1_554
Mn20 O16 1.986418 1_555
Mn20 O29 2.024209 1_555
Mn20 O37 2.024209 1_554
Mn20 O9 2.295658 1_554
Mn20 O1 2.295658 1_555
Mn21 O24 2.099715 1_555
Mn21 O43 2.099715 1_565
Mn21 O42 2.101567 1_555
Mn21 O21 2.101567 1_555
Mn21 O3 2.213064 1_555
Mn21 O22 2.213065 1_565
Mn22 O8 2.099715 1_655
Mn22 O46 2.099720 1_555
Mn22 O11 2.101562 1_545
Mn22 O0 2.101567 1_555
Mn22 O18 2.213059 1_555
Mn22 O20 2.213070 1_655
Mn23 O45 1.906643 1_554
Mn23 O16 1.906651 1_555
Mn23 O22 2.117848 1_554
Mn23 O18 2.117852 1_555
Mn23 O46 2.365128 1_555
Mn23 O43 2.365132 1_554
Mn24 O9 2.099715 1_555
Mn24 O27 2.099720 1_555
Mn24 O25 2.101561 1_555
Mn24 O45 2.101567 1_555
Mn24 O40 2.213059 1_555
Mn24 O19 2.213070 1_555
Mn25 O38 1.906644 1_555
Mn25 O34 1.906651 1_555
Mn25 O3 2.117848 1_555
Mn25 O35 2.117852 1_555
Mn25 O36 2.365128 1_555
Mn25 O24 2.365132 1_555
Mn26 O31 1.986422 1_555
Mn26 O42 1.986422 1_544
Mn26 O15 2.024220 1_545
Mn26 O22 2.024220 1_554
Mn26 O46 2.295663 1_555
Mn26 O17 2.295663 1_544
Mn27 O14 1.986418 1_455
Mn27 O34 1.986418 1_545
Mn27 O13 2.024209 1_555
Mn27 O28 2.024209 1_445
Mn27 O8 2.295658 1_555
Mn27 O33 2.295658 1_445
O1 Si3 1.732792 1_555
O5 Si3 1.732792 1_555
O8 Si0 1.732792 1_545
O9 Si2 1.732792 1_555
O10 Si0 1.732786 1_655
O17 Si2 1.732786 1_555
O23 Si2 1.732786 1_555
O24 Si2 1.732792 1_555
O26 Si0 1.732792 1_555
O27 Si1 1.732786 1_555
O33 Si1 1.732792 1_565
O36 Si0 1.732786 1_555
O41 Si1 1.732786 1_455
O43 Si1 1.732792 1_555
O46 Si3 1.732786 1_555
O47 Si3 1.732786 1_555
