# generated using pymatgen
data_Na4Br(ClO4)3
_symmetry_space_group_name_H-M   'P 1'
_cell_length_a   6.72602839
_cell_length_b   6.72602839
_cell_length_c   6.72602866
_cell_angle_alpha   90.59809426
_cell_angle_beta   90.59809426
_cell_angle_gamma   90.59810016
_symmetry_Int_Tables_number   1
_chemical_formula_structural   Na4Br(ClO4)3
_chemical_formula_sum   'Na4 Br1 Cl3 O12'
_cell_volume   304.23180634
_cell_formula_units_Z   1
loop_
 _symmetry_equiv_pos_site_id
 _symmetry_equiv_pos_as_xyz
  1  'x, y, z'
loop_
 _atom_site_type_symbol
 _atom_site_label
 _atom_site_symmetry_multiplicity
 _atom_site_fract_x
 _atom_site_fract_y
 _atom_site_fract_z
 _atom_site_occupancy
  Na  Na0  1  0.06846600  0.06846600  0.06846600  1
  Na  Na1  1  0.57278100  0.92823200  0.43056400  1
  Na  Na2  1  0.92823200  0.43056400  0.57278100  1
  Na  Na3  1  0.43056400  0.57278100  0.92823200  1
  Br  Br0  1  0.40983700  0.40983700  0.40983700  1
  Cl  Cl0  1  0.91974900  0.58123700  0.08155900  1
  Cl  Cl1  1  0.58123700  0.08155900  0.91974900  1
  Cl  Cl2  1  0.08155900  0.91974900  0.58123700  1
  O  O0  1  0.50762100  0.60727800  0.29067300  1
  O  O1  1  0.60727800  0.29067300  0.50762100  1
  O  O2  1  0.29067300  0.50762100  0.60727800  1
  O  O3  1  0.00522200  0.40687400  0.19366200  1
  O  O4  1  0.09427700  0.69574700  0.99938600  1
  O  O5  1  0.80427200  0.49581500  0.90674900  1
  O  O6  1  0.49581500  0.90674900  0.80427200  1
  O  O7  1  0.40687400  0.19366200  0.00522200  1
  O  O8  1  0.69574700  0.99938600  0.09427700  1
  O  O9  1  0.99938600  0.09427700  0.69574700  1
  O  O10  1  0.90674900  0.80427200  0.49581500  1
  O  O11  1  0.19366200  0.00522200  0.40687400  1
loop_
_geom_bond_atom_site_label_1
_geom_bond_atom_site_label_2
_geom_bond_distance
_geom_bond_site_symmetry_2
Na0 O7 2.461409 1_555
Na0 O3 2.461409 1_555
Na0 O11 2.461409 1_555
Na0 O8 2.552864 1_445
Na0 O4 2.552864 1_544
Na0 O9 2.552865 1_454
Na1 O0 2.380506 1_555
Na1 O10 2.441248 1_555
Na1 O8 2.466286 1_555
Na1 O1 2.494910 1_565
Na1 O6 2.576837 1_555
Na1 O11 2.610876 1_565
Na2 O1 2.380506 1_555
Na2 O5 2.441248 1_555
Na2 O9 2.466286 1_555
Na2 O2 2.494910 1_655
Na2 O10 2.576837 1_555
Na2 O3 2.610876 1_655
Na3 O2 2.380506 1_555
Na3 O6 2.441248 1_555
Na3 O4 2.466286 1_555
Na3 O0 2.494910 1_556
Na3 O5 2.576837 1_555
Na3 O7 2.610876 1_556
Br0 O0 1.689239 1_555
Br0 O2 1.689239 1_555
Br0 O1 1.689239 1_555
Cl0 O5 1.507760 1_554
Cl0 O4 1.510043 1_654
Cl0 O3 1.515886 1_655
Cl1 O6 1.507760 1_545
Cl1 O8 1.510043 1_546
Cl1 O7 1.515886 1_556
Cl2 O10 1.507760 1_455
Cl2 O9 1.510043 1_465
Cl2 O11 1.515885 1_565
