# generated using pymatgen
data_LaMg
_symmetry_space_group_name_H-M   'P 1'
_cell_length_a   8.73644084
_cell_length_b   8.73644084
_cell_length_c   5.68844600
_cell_angle_alpha   90.00000000
_cell_angle_beta   90.00000000
_cell_angle_gamma   154.84067542
_symmetry_Int_Tables_number   1
_chemical_formula_structural   LaMg
_chemical_formula_sum   'La3 Mg3'
_cell_volume   184.58289358
_cell_formula_units_Z   3
loop_
 _symmetry_equiv_pos_site_id
 _symmetry_equiv_pos_as_xyz
  1  'x, y, z'
loop_
 _atom_site_type_symbol
 _atom_site_label
 _atom_site_symmetry_multiplicity
 _atom_site_fract_x
 _atom_site_fract_y
 _atom_site_fract_z
 _atom_site_occupancy
  La  La0  1  0.98293300  0.01706700  0.00000000  1
  La  La1  1  0.64786500  0.35213500  0.00000000  1
  La  La2  1  0.79933600  0.20066400  0.50000000  1
  Mg  Mg0  1  0.32094700  0.67905300  0.00000000  1
  Mg  Mg1  1  0.11416400  0.88583600  0.50000000  1
  Mg  Mg2  1  0.46808800  0.53191200  0.50000000  1
loop_
_geom_bond_atom_site_label_1
_geom_bond_atom_site_label_2
_geom_bond_distance
_geom_bond_site_symmetry_2
La0 Mg0 3.354322 1_545
La0 Mg0 3.354322 1_655
La0 La1 3.395816 1_655
La0 La1 3.395816 1_545
La0 Mg2 3.431359 1_544
La0 Mg2 3.431359 1_654
La0 Mg2 3.431359 1_655
La0 Mg2 3.431359 1_545
La0 Mg1 3.619112 1_644
La0 Mg1 3.619112 1_645
La1 Mg1 3.469933 1_544
La1 Mg1 3.469933 1_654
La1 Mg1 3.469933 1_545
La1 Mg1 3.469933 1_655
La1 Mg0 3.511797 1_655
La1 Mg0 3.511797 1_545
La2 Mg0 3.441796 1_655
La2 Mg0 3.441796 1_656
La2 Mg0 3.441796 1_545
La2 Mg0 3.441796 1_546
La2 Mg2 3.449966 1_545
La2 Mg2 3.449966 1_655
La2 Mg1 3.686779 1_655
La2 Mg1 3.686779 1_545
Mg1 Mg2 3.134660 1_455
Mg1 Mg2 3.134660 1_565
