# generated using pymatgen
data_SrEuDySbO6
_symmetry_space_group_name_H-M   'P 1'
_cell_length_a   8.36450251
_cell_length_b   8.36963948
_cell_length_c   8.38169128
_cell_angle_alpha   90.00000000
_cell_angle_beta   90.00000000
_cell_angle_gamma   90.00000000
_symmetry_Int_Tables_number   1
_chemical_formula_structural   SrEuDySbO6
_chemical_formula_sum   'Sr4 Eu4 Dy4 Sb4 O24'
_cell_volume   586.78435718
_cell_formula_units_Z   4
loop_
 _symmetry_equiv_pos_site_id
 _symmetry_equiv_pos_as_xyz
  1  'x, y, z'
loop_
 _atom_site_type_symbol
 _atom_site_label
 _atom_site_symmetry_multiplicity
 _atom_site_fract_x
 _atom_site_fract_y
 _atom_site_fract_z
 _atom_site_occupancy
  Sr  Sr0  1  -0.00000000  0.50000000  0.50000000  1
  Sr  Sr1  1  0.50000000  0.50000000  -0.00000000  1
  Sr  Sr2  1  0.50000000  -0.00000000  -0.00000000  1
  Sr  Sr3  1  -0.00000000  -0.00000000  0.50000000  1
  Eu  Eu0  1  0.50000000  -0.00000000  0.50000000  1
  Eu  Eu1  1  -0.00000000  0.50000000  -0.00000000  1
  Eu  Eu2  1  -0.00000000  -0.00000000  -0.00000000  1
  Eu  Eu3  1  0.50000000  0.50000000  0.50000000  1
  Dy  Dy0  1  0.75000000  0.75000000  0.75000000  1
  Dy  Dy1  1  0.25000000  0.25000000  0.75000000  1
  Dy  Dy2  1  0.25000000  0.75000000  0.25000000  1
  Dy  Dy3  1  0.75000000  0.25000000  0.25000000  1
  Sb  Sb0  1  0.25000000  0.25000000  0.25000000  1
  Sb  Sb1  1  0.75000000  0.75000000  0.25000000  1
  Sb  Sb2  1  0.75000000  0.25000000  0.75000000  1
  Sb  Sb3  1  0.25000000  0.75000000  0.75000000  1
  O  O0  1  0.01378460  0.21264466  0.27986677  1
  O  O1  1  0.98621540  0.78735534  0.27986677  1
  O  O2  1  0.98621540  0.21264466  0.72013323  1
  O  O3  1  0.01378460  0.78735534  0.72013323  1
  O  O4  1  0.27977263  0.01381562  0.21274274  1
  O  O5  1  0.27977263  0.98618438  0.78725726  1
  O  O6  1  0.72022737  0.98618438  0.21274274  1
  O  O7  1  0.72022737  0.01381562  0.78725726  1
  O  O8  1  0.20980509  0.28179212  0.01429837  1
  O  O9  1  0.79019491  0.28179212  0.98570163  1
  O  O10  1  0.20980509  0.71820788  0.98570163  1
  O  O11  1  0.79019491  0.71820788  0.01429837  1
  O  O12  1  0.48621540  0.28735534  0.22013323  1
  O  O13  1  0.51378460  0.71264466  0.22013323  1
  O  O14  1  0.51378460  0.28735534  0.77986677  1
  O  O15  1  0.48621540  0.71264466  0.77986677  1
  O  O16  1  0.22022737  0.48618438  0.28725726  1
  O  O17  1  0.22022737  0.51381562  0.71274274  1
  O  O18  1  0.77977263  0.51381562  0.28725726  1
  O  O19  1  0.77977263  0.48618438  0.71274274  1
  O  O20  1  0.29019491  0.21820788  0.48570163  1
  O  O21  1  0.70980509  0.21820788  0.51429837  1
  O  O22  1  0.29019491  0.78179212  0.51429837  1
  O  O23  1  0.70980509  0.78179212  0.48570163  1
loop_
_geom_bond_atom_site_label_1
_geom_bond_atom_site_label_2
_geom_bond_distance
_geom_bond_site_symmetry_2
Eu0 O20 2.535654 1_555
Eu0 O22 2.535654 1_545
Eu0 O21 2.535654 1_555
Eu0 O23 2.535654 1_545
Eu0 O4 3.033760 1_555
Eu0 O6 3.033760 1_545
Eu0 O7 3.033760 1_555
Eu0 O5 3.033760 1_545
Eu1 O8 2.535654 1_555
Eu1 O9 2.535654 1_454
Eu1 O10 2.535654 1_554
Eu1 O11 2.535654 1_455
Eu1 O17 3.033760 1_554
Eu1 O19 3.033760 1_454
Eu1 O16 3.033760 1_555
Eu1 O18 3.033760 1_455
Eu2 O9 2.942211 1_454
Eu2 O8 2.942211 1_555
Eu2 O11 2.942211 1_445
Eu2 O10 2.942211 1_544
Eu2 O5 2.944370 1_544
Eu2 O7 2.944370 1_454
Eu2 O6 2.944370 1_445
Eu2 O4 2.944370 1_555
Eu2 O3 2.946763 1_544
Eu2 O2 2.946763 1_454
Eu2 O1 2.946763 1_445
Eu2 O0 2.946763 1_555
Eu3 O22 2.942211 1_555
Eu3 O20 2.942211 1_555
Eu3 O23 2.942211 1_555
Eu3 O21 2.942211 1_555
Eu3 O18 2.944370 1_555
Eu3 O16 2.944370 1_555
Eu3 O19 2.944370 1_555
Eu3 O17 2.944370 1_555
Eu3 O14 2.946763 1_555
Eu3 O13 2.946763 1_555
Eu3 O12 2.946763 1_555
Eu3 O15 2.946763 1_555
Dy0 O3 2.242485 1_655
Dy0 O15 2.242485 1_555
Dy0 O7 2.243877 1_565
Dy0 O19 2.243877 1_555
Dy0 O11 2.256380 1_556
Dy0 O23 2.256380 1_555
Dy1 O14 2.242485 1_555
Dy1 O2 2.242485 1_455
Dy1 O17 2.243877 1_555
Dy1 O5 2.243877 1_545
Dy1 O8 2.256380 1_556
Dy1 O20 2.256380 1_555
Dy2 O13 2.242485 1_555
Dy2 O1 2.242485 1_455
Dy2 O4 2.243877 1_565
Dy2 O16 2.243877 1_555
Dy2 O22 2.256380 1_555
Dy2 O10 2.256380 1_554
Dy3 O0 2.242485 1_655
Dy3 O12 2.242485 1_555
Dy3 O6 2.243877 1_545
Dy3 O18 2.243877 1_555
Dy3 O21 2.256380 1_555
Dy3 O9 2.256380 1_554
O0 Sb0 2.016011 1_555
O0 Sr3 2.566162 1_555
O0 Sr0 3.033474 1_555
O1 Sb1 2.016011 1_555
O1 Sr3 2.566162 1_665
O1 Sr0 3.033474 1_655
O2 Sb2 2.016011 1_555
O2 Sr3 2.566162 1_655
O2 Sr0 3.033474 1_655
O3 Sb3 2.016011 1_555
O3 Sr3 2.566162 1_565
O3 Sr0 3.033474 1_555
O4 Sb0 2.016727 1_555
O4 Sr2 2.566374 1_555
O5 Sb3 2.016727 1_555
O5 Sr2 2.566374 1_566
O6 Sb1 2.016727 1_555
O6 Sr2 2.566374 1_565
O7 Sb2 2.016727 1_555
O7 Sr2 2.566374 1_556
O8 Sb0 2.021571 1_555
O8 Sr1 3.040028 1_555
O9 Sb2 2.021571 1_555
O9 Sr1 3.040028 1_556
O10 Sb3 2.021571 1_555
O10 Sr1 3.040028 1_556
O11 Sb1 2.021571 1_555
O11 Sr1 3.040028 1_555
O12 Sb0 2.016011 1_555
O12 Sr1 2.566162 1_555
O12 Sr2 3.033474 1_555
O13 Sb1 2.016011 1_555
O13 Sr1 2.566162 1_555
O13 Sr2 3.033474 1_565
O14 Sb2 2.016011 1_555
O14 Sr1 2.566162 1_556
O14 Sr2 3.033474 1_556
O15 Sb3 2.016011 1_555
O15 Sr1 2.566162 1_556
O15 Sr2 3.033474 1_566
O16 Sb0 2.016727 1_555
O16 Sr0 2.566374 1_555
O17 Sb3 2.016727 1_555
O17 Sr0 2.566374 1_555
O18 Sb1 2.016727 1_555
O18 Sr0 2.566374 1_655
O19 Sb2 2.016727 1_555
O19 Sr0 2.566374 1_655
O20 Sb0 2.021571 1_555
O20 Sr3 3.040028 1_555
O21 Sb2 2.021571 1_555
O21 Sr3 3.040028 1_655
O22 Sb3 2.021571 1_555
O22 Sr3 3.040028 1_565
O23 Sb1 2.021571 1_555
O23 Sr3 3.040028 1_665
