# generated using pymatgen
data_ZnCu2(SnO4)2
_symmetry_space_group_name_H-M   'P 1'
_cell_length_a   6.21809274
_cell_length_b   8.82012300
_cell_length_c   12.08732648
_cell_angle_alpha   90.00000000
_cell_angle_beta   89.17403816
_cell_angle_gamma   90.00000000
_symmetry_Int_Tables_number   1
_chemical_formula_structural   ZnCu2(SnO4)2
_chemical_formula_sum   'Zn4 Cu8 Sn8 O32'
_cell_volume   662.85259531
_cell_formula_units_Z   4
loop_
 _symmetry_equiv_pos_site_id
 _symmetry_equiv_pos_as_xyz
  1  'x, y, z'
loop_
 _atom_site_type_symbol
 _atom_site_label
 _atom_site_symmetry_multiplicity
 _atom_site_fract_x
 _atom_site_fract_y
 _atom_site_fract_z
 _atom_site_occupancy
  Zn  Zn0  1  0.10161600  0.14821600  0.02940700  1
  Zn  Zn1  1  0.89838400  0.85178400  0.97059300  1
  Zn  Zn2  1  0.89838400  0.64821600  0.47059300  1
  Zn  Zn3  1  0.10161600  0.35178400  0.52940700  1
  Cu  Cu0  1  0.75341800  0.19017700  0.83218700  1
  Cu  Cu1  1  0.37373800  0.07349200  0.60301600  1
  Cu  Cu2  1  0.62626200  0.92650800  0.39698400  1
  Cu  Cu3  1  0.24658200  0.80982300  0.16781300  1
  Cu  Cu4  1  0.75341800  0.30982300  0.33218700  1
  Cu  Cu5  1  0.37373800  0.42650800  0.10301600  1
  Cu  Cu6  1  0.24658200  0.69017700  0.66781300  1
  Cu  Cu7  1  0.62626200  0.57349200  0.89698400  1
  Sn  Sn0  1  0.09177100  0.45071000  0.84572200  1
  Sn  Sn1  1  0.09177100  0.04929000  0.34572200  1
  Sn  Sn2  1  0.56424400  0.06617000  0.15114800  1
  Sn  Sn3  1  0.90822900  0.95071000  0.65427800  1
  Sn  Sn4  1  0.43575600  0.93383000  0.84885200  1
  Sn  Sn5  1  0.43575600  0.56617000  0.34885200  1
  Sn  Sn6  1  0.56424400  0.43383000  0.65114800  1
  Sn  Sn7  1  0.90822900  0.54929000  0.15427800  1
  O  O0  1  0.03470800  0.26848900  0.37138100  1
  O  O1  1  0.65312700  0.01745800  0.57032500  1
  O  O2  1  0.19641800  0.55620900  0.45907100  1
  O  O3  1  0.80358200  0.05620900  0.04092900  1
  O  O4  1  0.03470800  0.23151000  0.87138100  1
  O  O5  1  0.96529200  0.73151000  0.62861900  1
  O  O6  1  0.08477700  0.12613400  0.59824900  1
  O  O7  1  0.52810300  0.84594800  0.19787500  1
  O  O8  1  0.52810300  0.65405200  0.69787500  1
  O  O9  1  0.27937300  0.89802400  0.69756000  1
  O  O10  1  0.72062700  0.39802400  0.80244000  1
  O  O11  1  0.47189700  0.15405200  0.80212500  1
  O  O12  1  0.91522300  0.87386600  0.40175100  1
  O  O13  1  0.79701200  0.52118300  0.31380800  1
  O  O14  1  0.41379500  0.27619700  0.55870800  1
  O  O15  1  0.41379500  0.22380300  0.05870800  1
  O  O16  1  0.20298800  0.02118300  0.18619200  1
  O  O17  1  0.47189700  0.34594800  0.30212500  1
  O  O18  1  0.20298800  0.47881700  0.68619200  1
  O  O19  1  0.80358200  0.44379100  0.54092900  1
  O  O20  1  0.65312700  0.48254200  0.07032500  1
  O  O21  1  0.72062700  0.10197600  0.30244000  1
  O  O22  1  0.96529200  0.76849000  0.12861900  1
  O  O23  1  0.08477700  0.37386600  0.09824900  1
  O  O24  1  0.19641800  0.94379100  0.95907100  1
  O  O25  1  0.58620500  0.77619700  0.94129200  1
  O  O26  1  0.34687300  0.98254200  0.42967500  1
  O  O27  1  0.34687300  0.51745800  0.92967500  1
  O  O28  1  0.91522300  0.62613400  0.90175100  1
  O  O29  1  0.58620500  0.72380300  0.44129200  1
  O  O30  1  0.27937300  0.60197600  0.19756000  1
  O  O31  1  0.79701200  0.97881700  0.81380800  1
loop_
_geom_bond_atom_site_label_1
_geom_bond_atom_site_label_2
_geom_bond_distance
_geom_bond_site_symmetry_2
Cu0 O11 1.821052 1_555
Cu0 O4 1.854870 1_655
Cu0 O10 1.879821 1_555
Cu0 O31 1.896422 1_545
Cu1 O1 1.843558 1_555
Cu1 O6 1.857506 1_555
Cu1 O14 1.881901 1_555
Cu1 O9 2.006525 1_545
Cu1 O26 2.251997 1_545
Cu1 O11 2.590744 1_555
Cu2 O26 1.843558 1_555
Cu2 O12 1.857506 1_555
Cu2 O29 1.881901 1_555
Cu2 O21 2.006525 1_565
Cu2 O1 2.251997 1_565
Cu2 O7 2.590744 1_555
Cu3 O7 1.821052 1_555
Cu3 O22 1.854870 1_455
Cu3 O30 1.879821 1_555
Cu3 O16 1.896422 1_565
Cu4 O17 1.821052 1_555
Cu4 O0 1.854871 1_655
Cu4 O21 1.879821 1_555
Cu4 O13 1.896422 1_555
Cu5 O20 1.843558 1_555
Cu5 O23 1.857506 1_555
Cu5 O15 1.881901 1_555
Cu5 O30 2.006525 1_555
Cu5 O27 2.251997 1_554
Cu5 O17 2.590744 1_555
Cu6 O8 1.821052 1_555
Cu6 O5 1.854870 1_455
Cu6 O9 1.879821 1_555
Cu6 O18 1.896422 1_555
Cu7 O27 1.843558 1_555
Cu7 O28 1.857506 1_555
Cu7 O25 1.881901 1_555
Cu7 O10 2.006525 1_555
Cu7 O20 2.251997 1_556
Cu7 O8 2.590744 1_555
O0 Sn1 1.989173 1_555
O0 Zn3 2.093865 1_555
O1 Sn3 1.984676 1_545
O2 Sn5 1.985012 1_555
O2 Zn2 2.026048 1_455
O2 Zn3 2.075294 1_555
O3 Sn2 1.985012 1_555
O3 Zn0 2.026048 1_655
O3 Zn1 2.075294 1_544
O4 Sn0 1.989181 1_555
O4 Zn0 2.093862 1_556
O5 Sn3 1.989181 1_555
O5 Zn2 2.093862 1_555
O6 Sn3 2.009076 1_445
O6 Zn3 2.159168 1_555
O7 Sn2 2.034381 1_565
O8 Sn6 2.034381 1_555
O9 Sn4 2.107315 1_555
O9 Sn3 2.418766 1_455
O10 Sn6 2.107315 1_555
O10 Sn0 2.418766 1_655
O11 Sn4 2.034381 1_545
O12 Sn1 2.009076 1_665
O12 Zn2 2.159168 1_555
O13 Sn7 2.054159 1_555
O13 Zn2 2.297524 1_555
O13 Sn5 2.314175 1_555
O14 Sn6 2.021592 1_555
O14 Zn3 2.087540 1_555
O15 Sn2 2.021592 1_555
O15 Zn0 2.087540 1_555
O16 Sn1 2.054159 1_555
O16 Zn0 2.297524 1_555
O16 Sn2 2.314175 1_555
O17 Sn5 2.034381 1_555
O18 Sn0 2.054159 1_555
O18 Zn3 2.297524 1_555
O18 Sn6 2.314175 1_555
O19 Sn6 1.985012 1_555
O19 Zn3 2.026048 1_655
O19 Zn2 2.075294 1_555
O20 Sn7 1.984676 1_555
O21 Sn2 2.107315 1_555
O21 Sn1 2.418766 1_655
O22 Sn7 1.989181 1_555
O22 Zn1 2.093862 1_554
O23 Sn7 2.009076 1_455
O23 Zn0 2.159168 1_555
O24 Sn4 1.985012 1_555
O24 Zn1 2.026048 1_455
O24 Zn0 2.075294 1_566
O25 Sn4 2.021592 1_555
O25 Zn1 2.087540 1_555
O26 Sn1 1.984676 1_565
O27 Sn0 1.984676 1_555
O28 Sn0 2.009076 1_655
O28 Zn1 2.159168 1_555
O29 Sn5 2.021592 1_555
O29 Zn2 2.087540 1_555
O30 Sn5 2.107315 1_555
O30 Sn7 2.418766 1_455
O31 Sn3 2.054159 1_555
O31 Zn1 2.297524 1_555
O31 Sn4 2.314175 1_555
