# generated using pymatgen
data_Na4Al3Si3NO14
_symmetry_space_group_name_H-M   'P 1'
_cell_length_a   9.14956953
_cell_length_b   9.22735040
_cell_length_c   9.26987963
_cell_angle_alpha   91.45370954
_cell_angle_beta   90.49110034
_cell_angle_gamma   90.49426236
_symmetry_Int_Tables_number   1
_chemical_formula_structural   Na4Al3Si3NO14
_chemical_formula_sum   'Na8 Al6 Si6 N2 O28'
_cell_volume   782.31024566
_cell_formula_units_Z   2
loop_
 _symmetry_equiv_pos_site_id
 _symmetry_equiv_pos_as_xyz
  1  'x, y, z'
loop_
 _atom_site_type_symbol
 _atom_site_label
 _atom_site_symmetry_multiplicity
 _atom_site_fract_x
 _atom_site_fract_y
 _atom_site_fract_z
 _atom_site_occupancy
  Na  Na0  1  0.16702300  0.18462600  0.18297000  1
  Na  Na1  1  0.18710900  0.78649100  0.79679600  1
  Na  Na2  1  0.27600900  0.26560400  0.71894500  1
  Na  Na3  1  0.28829000  0.73168600  0.26019200  1
  Na  Na4  1  0.72225800  0.31480600  0.28139000  1
  Na  Na5  1  0.75988000  0.74090200  0.74672300  1
  Na  Na6  1  0.81154600  0.16151900  0.80189300  1
  Na  Na7  1  0.77935700  0.77027100  0.18466300  1
  Al  Al0  1  0.00184600  0.25400700  0.50242700  1
  Al  Al1  1  0.01790800  0.73109600  0.49598400  1
  Al  Al2  1  0.25556700  0.49439900  0.00181000  1
  Al  Al3  1  0.49962600  0.99667000  0.75326400  1
  Al  Al4  1  0.48658500  0.01594300  0.24114700  1
  Al  Al5  1  0.77036900  0.47236900  0.99970100  1
  Si  Si0  1  0.01672600  0.49372600  0.24770200  1
  Si  Si1  1  0.00274300  0.49578200  0.75437900  1
  Si  Si2  1  0.24935600  0.00191500  0.49623000  1
  Si  Si3  1  0.51169800  0.74568700  0.99897200  1
  Si  Si4  1  0.49305900  0.25213400  0.99826700  1
  Si  Si5  1  0.72210600  0.03442400  0.48994400  1
  N  N0  1  0.23876300  0.04370200  0.91629700  1
  N  N1  1  0.93635200  0.91767400  0.02320500  1
  O  O0  1  0.04863500  0.34835200  0.66355500  1
  O  O1  1  0.07414300  0.63746200  0.34144600  1
  O  O2  1  0.04430800  0.96239700  0.09713500  1
  O  O3  1  0.16220600  0.44332100  0.15807000  1
  O  O4  1  0.13223100  0.54242900  0.86834000  1
  O  O5  1  0.15241400  0.14473900  0.46001500  1
  O  O6  1  0.14870900  0.86343100  0.53917200  1
  O  O7  1  0.35302100  0.04155100  0.63742100  1
  O  O8  1  0.34121800  0.95824300  0.35070900  1
  O  O9  1  0.35727800  0.34773200  0.93473800  1
  O  O10  1  0.36313900  0.65187600  0.03722000  1
  O  O11  1  0.42807700  0.15677800  0.13170900  1
  O  O12  1  0.47834200  0.83362000  0.84800800  1
  O  O13  1  0.55117900  0.14741300  0.86433200  1
  O  O14  1  0.53707800  0.85991700  0.13913800  1
  O  O15  1  0.62156300  0.35938500  0.06145100  1
  O  O16  1  0.65893600  0.64868500  0.98106800  1
  O  O17  1  0.61987600  0.09677400  0.36001800  1
  O  O18  1  0.64978400  0.97270800  0.63526500  1
  O  O19  1  0.83893300  0.16016500  0.53981400  1
  O  O20  1  0.82759600  0.77263100  0.49231900  1
  O  O21  1  0.86868300  0.54007700  0.16034700  1
  O  O22  1  0.83520400  0.49138800  0.81530700  1
  O  O23  1  0.80122700  0.89648700  0.39654800  1
  O  O24  1  0.96794400  0.35836100  0.35016800  1
  O  O25  1  0.00109400  0.63452100  0.65025500  1
  O  O26  1  0.95031000  0.91051300  0.88693000  1
  O  O27  1  0.89669700  0.31361000  0.97459900  1
loop_
_geom_bond_atom_site_label_1
_geom_bond_atom_site_label_2
_geom_bond_distance
_geom_bond_site_symmetry_2
Na0 O3 2.404770 1_555
Na0 O2 2.441483 1_545
Na0 O11 2.453724 1_555
Na0 O5 2.608034 1_555
Na0 O24 2.874491 1_455
Na1 O4 2.413637 1_555
Na1 O6 2.531136 1_555
Na1 O25 2.555560 1_555
Na1 O26 2.593692 1_455
Na1 O12 2.731799 1_555
Na2 O9 2.239769 1_555
Na2 O0 2.281136 1_555
Na2 O7 2.301478 1_555
Na3 O1 2.278476 1_555
Na3 O8 2.279346 1_555
Na3 O10 2.288940 1_555
Na3 O14 2.811675 1_555
Na4 O15 2.278521 1_555
Na4 O17 2.347322 1_555
Na4 O24 2.359661 1_555
Na4 O21 2.733265 1_555
Na5 O20 2.467405 1_555
Na5 O22 2.504822 1_555
Na5 O16 2.531959 1_555
Na5 O25 2.580849 1_655
Na5 O18 2.605535 1_555
Na5 O26 2.642983 1_555
Na5 O12 2.878843 1_555
Na6 O27 2.232790 1_555
Na6 O19 2.444193 1_555
Na6 O13 2.459504 1_555
Na6 O18 2.718739 1_545
Na6 O26 2.779205 1_545
Na7 O23 2.264394 1_555
Na7 O21 2.288955 1_555
Na7 O14 2.410318 1_555
Na7 O16 2.422841 1_554
Al0 O24 1.755601 1_455
Al0 O5 1.755606 1_555
Al0 O0 1.757475 1_555
Al0 O19 1.758855 1_455
Al1 O25 1.711420 1_555
Al1 O1 1.738080 1_555
Al1 O6 1.739368 1_555
Al1 O20 1.786402 1_455
Al2 O4 1.735849 1_554
Al2 O9 1.753030 1_554
Al2 O3 1.760371 1_555
Al2 O10 1.770181 1_555
Al3 O13 1.767766 1_565
Al3 O7 1.769576 1_565
Al3 O12 1.771376 1_555
Al3 O18 1.775288 1_555
Al4 O11 1.753313 1_555
Al4 O8 1.767021 1_545
Al4 O14 1.769254 1_545
Al4 O17 1.782530 1_555
Al5 O15 1.813123 1_556
Al5 O22 1.826266 1_555
Al5 O21 1.826813 1_556
Al5 O27 1.884850 1_555
Al5 O16 1.938067 1_555
N0 Na1 2.630909 1_545
N0 Na2 2.800748 1_555
N0 Na0 2.848180 1_556
N1 O2 1.258027 1_655
N1 O26 1.270889 1_554
N1 Na7 2.501972 1_555
O0 Si1 1.641222 1_555
O1 Si0 1.646781 1_555
O3 Si0 1.639660 1_555
O4 Si1 1.628370 1_555
O5 Si2 1.635166 1_555
O6 Si2 1.628232 1_565
O7 Si2 1.641603 1_555
O8 Si2 1.638970 1_565
O9 Si4 1.643492 1_555
O10 Si3 1.651095 1_554
O11 Si4 1.648225 1_554
O12 Si3 1.662657 1_555
O13 Si4 1.648423 1_555
O14 Si3 1.665617 1_554
O15 Si4 1.625902 1_554
O16 Si3 1.631150 1_555
O17 Si5 1.637560 1_555
O18 Si5 1.620053 1_565
O19 Si5 1.626470 1_555
O20 O23 1.484949 1_555
O21 Si0 1.637733 1_655
O22 Si1 1.638713 1_655
O23 Si5 1.692440 1_565
O24 Si0 1.649067 1_655
O25 Si1 1.622820 1_555
