# generated using pymatgen
data_LaYNi10
_symmetry_space_group_name_H-M   'P 1'
_cell_length_a   3.92622626
_cell_length_b   4.89650904
_cell_length_c   8.48363421
_cell_angle_alpha   90.00000000
_cell_angle_beta   90.00000000
_cell_angle_gamma   90.00000000
_symmetry_Int_Tables_number   1
_chemical_formula_structural   LaYNi10
_chemical_formula_sum   'La1 Y1 Ni10'
_cell_volume   163.09619111
_cell_formula_units_Z   1
loop_
 _symmetry_equiv_pos_site_id
 _symmetry_equiv_pos_as_xyz
  1  'x, y, z'
loop_
 _atom_site_type_symbol
 _atom_site_label
 _atom_site_symmetry_multiplicity
 _atom_site_fract_x
 _atom_site_fract_y
 _atom_site_fract_z
 _atom_site_occupancy
  La  La0  1  0.00000000  0.50000000  -0.00000000  1
  Y  Y0  1  -0.00000000  -0.00000000  0.50000000  1
  Ni  Ni0  1  -0.00000000  0.50000000  0.33664197  1
  Ni  Ni1  1  -0.00000000  -0.00000000  0.82960102  1
  Ni  Ni2  1  -0.00000000  -0.00000000  0.17039898  1
  Ni  Ni3  1  -0.00000000  0.50000000  0.66335803  1
  Ni  Ni4  1  0.50000000  0.50000000  0.50000000  1
  Ni  Ni5  1  0.50000000  -0.00000000  -0.00000000  1
  Ni  Ni6  1  0.50000000  0.75336283  0.25567064  1
  Ni  Ni7  1  0.50000000  0.24663717  0.74432936  1
  Ni  Ni8  1  0.50000000  0.24663717  0.25567064  1
  Ni  Ni9  1  0.50000000  0.75336283  0.74432936  1
loop_
_geom_bond_atom_site_label_1
_geom_bond_atom_site_label_2
_geom_bond_distance
_geom_bond_site_symmetry_2
La0 Ni2 2.843188 1_565
La0 Ni1 2.843188 1_554
La0 Ni2 2.843188 1_555
La0 Ni1 2.843188 1_564
La0 Ni3 2.855947 1_554
La0 Ni0 2.855947 1_555
La0 Ni5 3.138115 1_465
La0 Ni5 3.138115 1_455
La0 Ni5 3.138115 1_565
La0 Ni5 3.138115 1_555
La0 Ni7 3.177659 1_554
La0 Ni7 3.177659 1_454
La0 Ni9 3.177659 1_454
La0 Ni9 3.177659 1_554
La0 Ni8 3.177659 1_555
La0 Ni8 3.177659 1_455
La0 Ni6 3.177659 1_455
La0 Ni6 3.177659 1_555
Ni0 Ni4 2.403008 1_455
Ni0 Ni4 2.403008 1_555
Ni0 Ni8 2.421727 1_555
Ni0 Ni8 2.421727 1_455
Ni0 Ni6 2.421727 1_555
Ni0 Ni6 2.421727 1_455
Ni0 Ni3 2.771740 1_555
Ni0 Y0 2.813287 1_555
Ni0 Y0 2.813287 1_565
Ni0 Ni2 2.825424 1_555
Ni0 Ni2 2.825424 1_565
Ni1 Ni9 2.415696 1_545
Ni1 Ni9 2.415696 1_445
Ni1 Ni7 2.415696 1_455
Ni1 Ni7 2.415696 1_555
Ni1 Ni5 2.437946 1_456
Ni1 Ni5 2.437946 1_556
Ni1 Y0 2.796214 1_555
Ni1 Ni3 2.825424 1_555
Ni1 Ni3 2.825424 1_545
Ni1 Ni2 2.891205 1_556
Ni2 Ni8 2.415696 1_455
Ni2 Ni6 2.415696 1_545
Ni2 Ni6 2.415696 1_445
Ni2 Ni8 2.415696 1_555
Ni2 Ni5 2.437946 1_555
Ni2 Ni5 2.437946 1_455
Ni2 Y0 2.796214 1_555
Ni3 Ni4 2.403008 1_455
Ni3 Ni4 2.403008 1_555
Ni3 Ni7 2.421727 1_455
Ni3 Ni7 2.421727 1_555
Ni3 Ni9 2.421727 1_455
Ni3 Ni9 2.421727 1_555
Ni3 Y0 2.813287 1_565
Ni3 Y0 2.813287 1_555
Ni4 Ni8 2.415694 1_555
Ni4 Ni9 2.415694 1_555
Ni4 Ni7 2.415694 1_555
Ni4 Ni6 2.415694 1_555
Ni4 Y0 3.138115 1_665
Ni4 Y0 3.138115 1_555
Ni4 Y0 3.138115 1_655
Ni4 Y0 3.138115 1_565
Ni5 Ni7 2.482554 1_554
Ni5 Ni9 2.482554 1_544
Ni5 Ni8 2.482554 1_555
Ni5 Ni6 2.482554 1_545
Ni6 Ni8 2.415322 1_565
Ni6 Ni8 2.481187 1_555
Ni6 Y0 3.099800 1_565
Ni6 Y0 3.099800 1_665
Ni7 Ni9 2.415322 1_545
Ni7 Ni9 2.481187 1_555
Ni7 Y0 3.099800 1_555
Ni7 Y0 3.099800 1_655
Ni8 Y0 3.099800 1_555
Ni8 Y0 3.099800 1_655
Ni9 Y0 3.099800 1_565
Ni9 Y0 3.099800 1_665
