# generated using pymatgen
data_MgB2H13N3
_symmetry_space_group_name_H-M   'P 1'
_cell_length_a   9.03511700
_cell_length_b   8.09364000
_cell_length_c   8.86531558
_cell_angle_alpha   84.59423465
_cell_angle_beta   90.00000000
_cell_angle_gamma   90.00000000
_symmetry_Int_Tables_number   1
_chemical_formula_structural   MgB2H13N3
_chemical_formula_sum   'Mg4 B8 H52 N12'
_cell_volume   645.41050058
_cell_formula_units_Z   4
loop_
 _symmetry_equiv_pos_site_id
 _symmetry_equiv_pos_as_xyz
  1  'x, y, z'
loop_
 _atom_site_type_symbol
 _atom_site_label
 _atom_site_symmetry_multiplicity
 _atom_site_fract_x
 _atom_site_fract_y
 _atom_site_fract_z
 _atom_site_occupancy
  Mg  Mg0  1  0.07570600  0.71795200  0.72818400  1
  Mg  Mg1  1  0.57570600  0.28204800  0.77181600  1
  Mg  Mg2  1  0.92429400  0.28204800  0.27181600  1
  Mg  Mg3  1  0.42429400  0.71795200  0.22818400  1
  B  B0  1  0.22542200  0.80110200  0.03349900  1
  B  B1  1  0.72542200  0.19889800  0.46650100  1
  B  B2  1  0.77457800  0.19889800  0.96650100  1
  B  B3  1  0.27457800  0.80110200  0.53349900  1
  B  B4  1  0.74176800  0.65094400  0.75492800  1
  B  B5  1  0.24176800  0.34905600  0.74507200  1
  B  B6  1  0.25823200  0.34905600  0.24507200  1
  B  B7  1  0.75823200  0.65094400  0.25492800  1
  H  H0  1  0.21867600  0.79176100  0.17539500  1
  H  H1  1  0.71867600  0.20823900  0.32460500  1
  H  H2  1  0.78132400  0.20823900  0.82460500  1
  H  H3  1  0.28132400  0.79176100  0.67539500  1
  H  H4  1  0.20446500  0.94793300  0.99099700  1
  H  H5  1  0.70446500  0.05206700  0.50900300  1
  H  H6  1  0.79553500  0.05206700  0.00900300  1
  H  H7  1  0.29553500  0.94793300  0.49099700  1
  H  H8  1  0.35177300  0.76358600  0.99370100  1
  H  H9  1  0.85177300  0.23641400  0.50629900  1
  H  H10  1  0.64822700  0.23641400  0.00629900  1
  H  H11  1  0.14822700  0.76358600  0.49370100  1
  H  H12  1  0.00711100  0.70597200  0.01431800  1
  H  H13  1  0.50711100  0.29402800  0.48568200  1
  H  H14  1  0.99288900  0.29402800  0.98568200  1
  H  H15  1  0.49288900  0.70597200  0.51431800  1
  H  H16  1  0.13260400  0.56429300  0.00044100  1
  H  H17  1  0.63260400  0.43570700  0.49955900  1
  H  H18  1  0.86739600  0.43570700  0.99955900  1
  H  H19  1  0.36739600  0.56429300  0.50044100  1
  H  H20  1  0.77567500  0.68102200  0.88445900  1
  H  H21  1  0.27567500  0.31897800  0.61554100  1
  H  H22  1  0.22432500  0.31897800  0.11554100  1
  H  H23  1  0.72432500  0.68102200  0.38445900  1
  H  H24  1  0.68210100  0.77434300  0.68974100  1
  H  H25  1  0.18210100  0.22565700  0.81025900  1
  H  H26  1  0.31789900  0.22565700  0.31025900  1
  H  H27  1  0.81789900  0.77434300  0.18974100  1
  H  H28  1  0.64755400  0.53796100  0.76604400  1
  H  H29  1  0.14755400  0.46203900  0.73395600  1
  H  H30  1  0.35244600  0.46203900  0.23395600  1
  H  H31  1  0.85244600  0.53796100  0.26604400  1
  H  H32  1  0.90355000  0.47715600  0.68392000  1
  H  H33  1  0.40355000  0.52284400  0.81608000  1
  H  H34  1  0.09645000  0.52284400  0.31608000  1
  H  H35  1  0.59645000  0.47715600  0.18392000  1
  H  H36  1  0.85846100  0.61843500  0.54963000  1
  H  H37  1  0.35846100  0.38156500  0.95037000  1
  H  H38  1  0.14153900  0.38156500  0.45037000  1
  H  H39  1  0.64153900  0.61843500  0.04963000  1
  H  H40  1  0.06207400  0.06058100  0.70368500  1
  H  H41  1  0.56207400  0.93941900  0.79631500  1
  H  H42  1  0.93792600  0.93941900  0.29631500  1
  H  H43  1  0.43792600  0.06058100  0.20368500  1
  H  H44  1  0.90866900  0.98718800  0.63531000  1
  H  H45  1  0.40866900  0.01281200  0.86469000  1
  H  H46  1  0.09133100  0.01281200  0.36469000  1
  H  H47  1  0.59133100  0.98718800  0.13531000  1
  H  H48  1  0.93256300  0.98274000  0.81660000  1
  H  H49  1  0.43256300  0.01726000  0.68340000  1
  H  H50  1  0.06743700  0.01726000  0.18340000  1
  H  H51  1  0.56743700  0.98274000  0.31660000  1
  N  N0  1  0.10872400  0.68598400  0.96705400  1
  N  N1  1  0.60872400  0.31401600  0.53294600  1
  N  N2  1  0.89127600  0.31401600  0.03294600  1
  N  N3  1  0.39127600  0.68598400  0.46705400  1
  N  N4  1  0.88139300  0.60138600  0.66330100  1
  N  N5  1  0.38139300  0.39861400  0.83669900  1
  N  N6  1  0.11860700  0.39861400  0.33669900  1
  N  N7  1  0.61860700  0.60138600  0.16330100  1
  N  N8  1  0.98733600  0.96476400  0.71833100  1
  N  N9  1  0.48733600  0.03523600  0.78166900  1
  N  N10  1  0.01266400  0.03523600  0.28166900  1
  N  N11  1  0.51266400  0.96476400  0.21833100  1
loop_
_geom_bond_atom_site_label_1
_geom_bond_atom_site_label_2
_geom_bond_distance
_geom_bond_site_symmetry_2
Mg0 N4 2.098922 1_455
Mg0 N0 2.130065 1_555
Mg0 N8 2.145387 1_455
Mg1 N5 2.098922 1_555
Mg1 N1 2.130065 1_555
Mg1 N9 2.145387 1_555
Mg2 N6 2.098922 1_655
Mg2 N2 2.130065 1_555
Mg2 N10 2.145387 1_655
Mg3 N7 2.098922 1_555
Mg3 N3 2.130065 1_555
Mg3 N11 2.145387 1_555
B0 H4 1.227088 1_554
B0 H8 1.241011 1_554
B0 H0 1.254574 1_555
B0 N0 1.558917 1_554
B1 H5 1.227088 1_555
B1 H9 1.241011 1_555
B1 H1 1.254574 1_555
B1 N1 1.558917 1_555
B2 H6 1.227088 1_556
B2 H10 1.241011 1_556
B2 H2 1.254574 1_555
B2 N2 1.558917 1_556
B3 H7 1.227088 1_555
B3 H11 1.241011 1_555
B3 H3 1.254574 1_555
B3 N3 1.558917 1_555
B4 H24 1.230181 1_555
B4 H20 1.234689 1_555
B4 H28 1.246411 1_555
B4 N4 1.572756 1_555
B5 H25 1.230181 1_555
B5 H21 1.234689 1_555
B5 H29 1.246411 1_555
B5 N5 1.572756 1_555
B6 H26 1.230181 1_555
B6 H22 1.234689 1_555
B6 H30 1.246411 1_555
B6 N6 1.572756 1_555
B7 H27 1.230181 1_555
B7 H23 1.234689 1_555
B7 H31 1.246411 1_555
B7 N7 1.572756 1_555
H0 Mg3 1.993631 1_555
H1 Mg2 1.993631 1_555
H2 Mg1 1.993631 1_555
H3 Mg0 1.993631 1_555
H8 Mg3 2.177695 1_556
H9 Mg2 2.177695 1_555
H10 Mg1 2.177695 1_554
H11 Mg0 2.177695 1_555
H12 N0 1.028296 1_554
H13 N1 1.028296 1_555
H14 N2 1.028296 1_556
H15 N3 1.028296 1_555
H16 N0 1.024356 1_554
H17 N1 1.024356 1_555
H18 N2 1.024356 1_556
H19 N3 1.024356 1_555
H28 Mg1 2.166610 1_555
H29 Mg0 2.166610 1_555
H30 Mg3 2.166610 1_555
H31 Mg2 2.166610 1_555
H32 N4 1.024615 1_555
H33 N5 1.024615 1_555
H34 N6 1.024615 1_555
H35 N7 1.024615 1_555
H36 N4 1.025323 1_555
H37 N5 1.025323 1_555
H38 N6 1.025323 1_555
H39 N7 1.025323 1_555
H40 N8 1.027270 1_445
H41 N9 1.027270 1_565
H42 N10 1.027270 1_665
H43 N11 1.027270 1_545
H44 N8 1.026969 1_555
H45 N9 1.026969 1_555
H46 N10 1.026969 1_555
H47 N11 1.026969 1_555
H48 N8 1.024168 1_555
H49 N9 1.024168 1_555
H50 N10 1.024168 1_555
H51 N11 1.024168 1_555
