# generated using pymatgen
data_CaV6O11F
_symmetry_space_group_name_H-M   'P 1'
_cell_length_a   4.61079484
_cell_length_b   4.73447002
_cell_length_c   10.72654479
_cell_angle_alpha   90.32530835
_cell_angle_beta   79.88642504
_cell_angle_gamma   87.87571552
_symmetry_Int_Tables_number   1
_chemical_formula_structural   CaV6O11F
_chemical_formula_sum   'Ca1 V6 O11 F1'
_cell_volume   230.34241568
_cell_formula_units_Z   1
loop_
 _symmetry_equiv_pos_site_id
 _symmetry_equiv_pos_as_xyz
  1  'x, y, z'
loop_
 _atom_site_type_symbol
 _atom_site_label
 _atom_site_symmetry_multiplicity
 _atom_site_fract_x
 _atom_site_fract_y
 _atom_site_fract_z
 _atom_site_occupancy
  Ca  Ca0  1  0.15759600  0.44725000  0.80628400  1
  V  V0  1  0.08975100  0.93571600  0.06179900  1
  V  V1  1  0.97090600  0.91525200  0.32691200  1
  V  V2  1  0.91622400  0.00234900  0.60230600  1
  V  V3  1  0.53776100  0.43451000  0.17201900  1
  V  V4  1  0.64621100  0.92400700  0.89971400  1
  V  V5  1  0.39835800  0.40730700  0.44935500  1
  O  O0  1  0.21867300  0.70168400  0.17886500  1
  O  O1  1  0.13536200  0.72913200  0.47247200  1
  O  O2  1  0.19411200  0.92346100  0.88537500  1
  O  O3  1  0.42958400  0.19351100  0.04256200  1
  O  O4  1  0.28718800  0.22007600  0.31523500  1
  O  O5  1  0.21281600  0.26241100  0.60990000  1
  O  O6  1  0.77415000  0.66322000  0.02485000  1
  O  O7  1  0.66619500  0.61662700  0.31084100  1
  O  O8  1  0.79096700  0.75895900  0.73778600  1
  O  O9  1  0.85497800  0.14309700  0.17794700  1
  O  O10  1  0.72140600  0.14522300  0.46913500  1
  F  F0  1  0.66443000  0.27064900  0.79235400  1
loop_
_geom_bond_atom_site_label_1
_geom_bond_atom_site_label_2
_geom_bond_distance
_geom_bond_site_symmetry_2
Ca0 O5 2.245500 1_555
Ca0 O8 2.416396 1_455
Ca0 O2 2.426504 1_555
Ca0 F0 2.431798 1_555
Ca0 F0 2.480086 1_455
Ca0 O2 2.634560 1_545
Ca0 O6 2.837399 1_456
O0 V0 1.840378 1_555
O0 V3 1.895533 1_555
O0 V1 2.026898 1_455
O1 V5 1.899116 1_555
O1 V2 2.005527 1_465
O1 V1 2.042345 1_455
O2 V0 1.868967 1_556
O2 V4 2.117061 1_555
O2 V4 2.503737 1_455
O3 V3 1.935562 1_555
O3 V0 2.004624 1_545
O3 V4 2.078310 1_544
O4 V5 1.842932 1_555
O4 V3 2.051047 1_555
O4 V1 2.078234 1_445
O5 V2 1.885619 1_455
O5 V5 1.925513 1_555
O6 V4 1.979154 1_554
O6 V0 2.067594 1_655
O6 V3 2.086894 1_555
O7 V3 1.909042 1_555
O7 V5 2.043963 1_555
O7 V1 2.057206 1_555
O8 V2 1.883314 1_565
O8 V4 1.900469 1_555
O9 V0 1.766820 1_645
O9 V3 1.982650 1_555
O9 V1 2.068663 1_545
O10 V2 1.929124 1_555
O10 V5 1.944291 1_555
O10 V1 2.026854 1_545
F0 V4 2.006085 1_545
F0 V2 2.479356 1_555
