# generated using pymatgen
data_Nb8P5
_symmetry_space_group_name_H-M   'P 1'
_cell_length_a   3.44918400
_cell_length_b   9.43412400
_cell_length_c   26.68277200
_cell_angle_alpha   90.00000000
_cell_angle_beta   90.00000000
_cell_angle_gamma   90.00000000
_symmetry_Int_Tables_number   1
_chemical_formula_structural   Nb8P5
_chemical_formula_sum   'Nb32 P20'
_cell_volume   868.25818948
_cell_formula_units_Z   4
loop_
 _symmetry_equiv_pos_site_id
 _symmetry_equiv_pos_as_xyz
  1  'x, y, z'
loop_
 _atom_site_type_symbol
 _atom_site_label
 _atom_site_symmetry_multiplicity
 _atom_site_fract_x
 _atom_site_fract_y
 _atom_site_fract_z
 _atom_site_occupancy
  Nb  Nb0  1  0.50000000  0.58327500  0.37916900  1
  Nb  Nb1  1  0.50000000  0.92008700  0.62308500  1
  Nb  Nb2  1  0.50000000  0.41672500  0.87916900  1
  Nb  Nb3  1  0.50000000  0.07991300  0.12308500  1
  Nb  Nb4  1  0.00000000  0.66268300  0.17496600  1
  Nb  Nb5  1  0.00000000  0.83769900  0.82589600  1
  Nb  Nb6  1  0.00000000  0.33731700  0.67496600  1
  Nb  Nb7  1  0.00000000  0.16230100  0.32589600  1
  Nb  Nb8  1  0.50000000  0.42503300  0.12666500  1
  Nb  Nb9  1  0.50000000  0.08115900  0.87541200  1
  Nb  Nb10  1  0.50000000  0.57496700  0.62666500  1
  Nb  Nb11  1  0.50000000  0.91884100  0.37541200  1
  Nb  Nb12  1  0.50000000  0.47843500  0.00131800  1
  Nb  Nb13  1  0.50000000  0.01781700  0.99519500  1
  Nb  Nb14  1  0.50000000  0.52156500  0.50131800  1
  Nb  Nb15  1  0.50000000  0.98218300  0.49519500  1
  Nb  Nb16  1  0.00000000  0.25002700  0.50117300  1
  Nb  Nb17  1  0.00000000  0.74997300  0.00117300  1
  Nb  Nb18  1  0.50000000  0.25257300  0.23605300  1
  Nb  Nb19  1  0.50000000  0.24835300  0.76527700  1
  Nb  Nb20  1  0.50000000  0.74742700  0.73605300  1
  Nb  Nb21  1  0.50000000  0.75164700  0.26527700  1
  Nb  Nb22  1  0.50000000  0.25416900  0.41667000  1
  Nb  Nb23  1  0.50000000  0.24839600  0.58400300  1
  Nb  Nb24  1  0.50000000  0.74583100  0.91667000  1
  Nb  Nb25  1  0.50000000  0.75160400  0.08400300  1
  Nb  Nb26  1  0.00000000  0.49987600  0.28349400  1
  Nb  Nb27  1  0.00000000  0.00072100  0.71641000  1
  Nb  Nb28  1  0.00000000  0.50012400  0.78349400  1
  Nb  Nb29  1  0.00000000  0.99927900  0.21641000  1
  Nb  Nb30  1  0.00000000  0.75261400  0.44781400  1
  Nb  Nb31  1  0.00000000  0.24738600  0.94781400  1
  P  P0  1  0.00000000  0.54598400  0.07254000  1
  P  P1  1  0.00000000  0.94860600  0.92726600  1
  P  P2  1  0.00000000  0.45401600  0.57254000  1
  P  P3  1  0.00000000  0.05139400  0.42726600  1
  P  P4  1  0.50000000  0.50639600  0.21396300  1
  P  P5  1  0.50000000  0.99342000  0.78594100  1
  P  P6  1  0.50000000  0.49360400  0.71396300  1
  P  P7  1  0.50000000  0.00658000  0.28594100  1
  P  P8  1  0.00000000  0.45920300  0.43520600  1
  P  P9  1  0.00000000  0.03568800  0.56488100  1
  P  P10  1  0.00000000  0.54079700  0.93520600  1
  P  P11  1  0.00000000  0.96431200  0.06488100  1
  P  P12  1  0.00000000  0.24409900  0.16143900  1
  P  P13  1  0.00000000  0.25612700  0.83778400  1
  P  P14  1  0.00000000  0.75590100  0.66143900  1
  P  P15  1  0.00000000  0.74387300  0.33778400  1
  P  P16  1  0.50000000  0.35651300  0.33015800  1
  P  P17  1  0.50000000  0.14210400  0.66972100  1
  P  P18  1  0.50000000  0.64348700  0.83015800  1
  P  P19  1  0.50000000  0.85789600  0.16972100  1
loop_
_geom_bond_atom_site_label_1
_geom_bond_atom_site_label_2
_geom_bond_distance
_geom_bond_site_symmetry_2
Nb0 P16 2.507352 1_555
Nb0 P15 2.547382 1_555
Nb0 P15 2.547382 1_655
Nb0 P8 2.565152 1_655
Nb0 P8 2.565152 1_555
Nb1 P17 2.436300 1_565
Nb1 P14 2.533929 1_655
Nb1 P14 2.533929 1_555
Nb1 P9 2.564285 1_665
Nb1 P9 2.564285 1_565
Nb2 P18 2.507352 1_555
Nb2 P13 2.547382 1_655
Nb2 P13 2.547382 1_555
Nb2 P10 2.565152 1_655
Nb2 P10 2.565152 1_555
Nb3 P19 2.436300 1_545
Nb3 P12 2.533929 1_655
Nb3 P12 2.533929 1_555
Nb3 P11 2.564285 1_545
Nb3 P11 2.564285 1_645
Nb4 P4 2.496178 1_555
Nb4 P4 2.496178 1_455
Nb4 P19 2.526960 1_555
Nb4 P19 2.526960 1_455
Nb4 P0 2.946428 1_555
Nb5 P5 2.503805 1_455
Nb5 P5 2.503805 1_555
Nb5 P18 2.518766 1_455
Nb5 P18 2.518766 1_555
Nb5 P1 2.900153 1_555
Nb6 P6 2.496178 1_555
Nb6 P6 2.496178 1_455
Nb6 P17 2.526960 1_455
Nb6 P17 2.526960 1_555
Nb6 P2 2.946428 1_555
Nb7 P7 2.503805 1_455
Nb7 P7 2.503805 1_555
Nb7 P16 2.518766 1_555
Nb7 P16 2.518766 1_455
Nb7 P3 2.900153 1_555
Nb8 P4 2.452565 1_555
Nb8 P0 2.522296 1_655
Nb8 P0 2.522296 1_555
Nb8 P12 2.597854 1_655
Nb8 P12 2.597854 1_555
Nb9 P5 2.526761 1_545
Nb9 P1 2.540156 1_645
Nb9 P1 2.540156 1_545
Nb9 P13 2.589784 1_555
Nb9 P13 2.589784 1_655
Nb10 P6 2.452565 1_555
Nb10 P2 2.522296 1_555
Nb10 P2 2.522296 1_655
Nb10 P14 2.597854 1_555
Nb10 P14 2.597854 1_655
Nb11 P7 2.526761 1_565
Nb11 P3 2.540156 1_565
Nb11 P3 2.540156 1_665
Nb11 P15 2.589784 1_555
Nb11 P15 2.589784 1_655
Nb12 P10 2.536184 1_554
Nb12 P10 2.536184 1_654
Nb12 P0 2.644210 1_655
Nb12 P0 2.644210 1_555
Nb13 P1 2.585698 1_545
Nb13 P1 2.585698 1_645
Nb13 P11 2.585815 1_546
Nb13 P11 2.585815 1_646
Nb14 P8 2.536184 1_555
Nb14 P8 2.536184 1_655
Nb14 P2 2.644210 1_655
Nb14 P2 2.644210 1_555
Nb15 P3 2.585698 1_665
Nb15 P3 2.585698 1_565
Nb15 P9 2.585815 1_665
Nb15 P9 2.585815 1_565
Nb16 P9 2.641699 1_555
Nb16 P8 2.644337 1_555
Nb16 P2 2.707356 1_555
Nb16 P3 2.720398 1_555
Nb17 P11 2.641699 1_555
Nb17 P10 2.644337 1_554
Nb17 P0 2.707356 1_555
Nb17 P1 2.720398 1_554
Nb18 P4 2.466073 1_555
Nb18 P12 2.635209 1_655
Nb18 P12 2.635209 1_555
Nb18 P7 2.675396 1_555
Nb18 P16 2.695658 1_555
Nb19 P5 2.467463 1_545
Nb19 P13 2.592800 1_555
Nb19 P13 2.592800 1_655
Nb19 P6 2.688503 1_555
Nb19 P17 2.739654 1_555
Nb20 P6 2.466073 1_555
Nb20 P14 2.635209 1_655
Nb20 P14 2.635209 1_555
Nb20 P5 2.675396 1_555
Nb20 P18 2.695658 1_555
Nb21 P7 2.467463 1_565
Nb21 P15 2.592800 1_555
Nb21 P15 2.592800 1_655
Nb21 P4 2.688503 1_555
Nb21 P19 2.739654 1_555
Nb22 P16 2.502171 1_555
Nb22 P3 2.591089 1_655
Nb22 P3 2.591089 1_555
Nb22 P8 2.638260 1_555
Nb22 P8 2.638260 1_655
Nb23 P17 2.497360 1_555
Nb23 P2 2.613574 1_555
Nb23 P2 2.613574 1_655
Nb23 P9 2.694708 1_655
Nb23 P9 2.694708 1_555
Nb24 P18 2.502171 1_555
Nb24 P1 2.591089 1_555
Nb24 P1 2.591089 1_655
Nb24 P10 2.638260 1_655
Nb24 P10 2.638260 1_555
Nb25 P19 2.497360 1_555
Nb25 P0 2.613574 1_655
Nb25 P0 2.613574 1_555
Nb25 P11 2.694708 1_655
Nb25 P11 2.694708 1_555
Nb26 P16 2.520679 1_555
Nb26 P16 2.520679 1_455
Nb26 P4 2.533785 1_455
Nb26 P4 2.533785 1_555
Nb26 P15 2.719779 1_555
Nb27 P17 2.511036 1_455
Nb27 P17 2.511036 1_555
Nb27 P5 2.533974 1_445
Nb27 P5 2.533974 1_545
Nb27 P14 2.736052 1_545
Nb28 P18 2.520679 1_455
Nb28 P18 2.520679 1_555
Nb28 P6 2.533785 1_455
Nb28 P6 2.533785 1_555
Nb28 P13 2.719779 1_555
Nb29 P19 2.511036 1_555
Nb29 P19 2.511036 1_455
Nb29 P7 2.533974 1_465
Nb29 P7 2.533974 1_565
Nb29 P12 2.736052 1_565
Nb30 P8 2.788444 1_555
Nb30 P3 2.871556 1_565
Nb30 P15 2.937063 1_555
Nb31 P10 2.788444 1_555
Nb31 P1 2.871556 1_545
Nb31 P13 2.937063 1_555
