# generated using pymatgen
data_Ni6Se5
_symmetry_space_group_name_H-M   'P 1'
_cell_length_a   3.49093236
_cell_length_b   6.25194132
_cell_length_c   16.99780524
_cell_angle_alpha   90.00000000
_cell_angle_beta   90.00000000
_cell_angle_gamma   73.78825653
_symmetry_Int_Tables_number   1
_chemical_formula_structural   Ni6Se5
_chemical_formula_sum   'Ni12 Se10'
_cell_volume   356.22744700
_cell_formula_units_Z   2
loop_
 _symmetry_equiv_pos_site_id
 _symmetry_equiv_pos_as_xyz
  1  'x, y, z'
loop_
 _atom_site_type_symbol
 _atom_site_label
 _atom_site_symmetry_multiplicity
 _atom_site_fract_x
 _atom_site_fract_y
 _atom_site_fract_z
 _atom_site_occupancy
  Ni  Ni0  1  0.65944949  0.68110102  0.25086908  1
  Ni  Ni1  1  0.34055051  0.31889898  0.75086908  1
  Ni  Ni2  1  0.46652387  0.06695227  0.17728567  1
  Ni  Ni3  1  0.53078893  0.93842213  0.82209382  1
  Ni  Ni4  1  0.46921107  0.06157787  0.32209382  1
  Ni  Ni5  1  0.53347613  0.93304773  0.67728567  1
  Ni  Ni6  1  0.18668222  0.62663556  0.03552107  1
  Ni  Ni7  1  0.80403654  0.39192692  0.96803676  1
  Ni  Ni8  1  0.19596346  0.60807308  0.46803676  1
  Ni  Ni9  1  0.81331778  0.37336444  0.53552107  1
  Ni  Ni10  1  0.00075482  0.99849036  0.47410857  1
  Ni  Ni11  1  0.99924518  0.00150964  0.97410857  1
  Se  Se0  1  0.88837678  0.22324644  0.84659468  1
  Se  Se1  1  0.10662226  0.78675548  0.15623861  1
  Se  Se2  1  0.89337774  0.21324452  0.65623861  1
  Se  Se3  1  0.11162322  0.77675356  0.34659468  1
  Se  Se4  1  0.38065654  0.23868691  0.04820085  1
  Se  Se5  1  0.62083275  0.75833450  0.94567658  1
  Se  Se6  1  0.37916725  0.24166550  0.44567658  1
  Se  Se7  1  0.61934346  0.76131309  0.54820085  1
  Se  Se8  1  0.86195954  0.27608092  0.24837432  1
  Se  Se9  1  0.13804046  0.72391908  0.74837432  1
loop_
_geom_bond_atom_site_label_1
_geom_bond_atom_site_label_2
_geom_bond_distance
_geom_bond_site_symmetry_2
Ni0 Se8 2.431844 1_555
Ni0 Se3 2.454370 1_555
Ni0 Se3 2.454370 1_655
Ni0 Se1 2.456882 1_555
Ni0 Se1 2.456882 1_655
Ni1 Se9 2.431844 1_555
Ni1 Se0 2.454370 1_555
Ni1 Se0 2.454370 1_455
Ni1 Se2 2.456882 1_555
Ni1 Se2 2.456882 1_455
Ni2 Se4 2.424305 1_555
Ni2 Se1 2.450338 1_645
Ni2 Se1 2.450338 1_545
Ni2 Se8 2.466368 1_455
Ni2 Se8 2.466368 1_555
Ni3 Se5 2.362521 1_555
Ni3 Se0 2.478677 1_465
Ni3 Se0 2.478678 1_565
Ni3 Se9 2.505014 1_655
Ni3 Se9 2.505015 1_555
Ni4 Se6 2.362521 1_555
Ni4 Se3 2.478677 1_645
Ni4 Se3 2.478678 1_545
Ni4 Se8 2.505014 1_455
Ni4 Se8 2.505015 1_555
Ni5 Se7 2.424305 1_555
Ni5 Se2 2.450338 1_465
Ni5 Se2 2.450338 1_565
Ni5 Se9 2.466368 1_655
Ni5 Se9 2.466368 1_555
Ni6 Se1 2.265930 1_555
Ni6 Se4 2.338940 1_555
Ni6 Se5 2.450300 1_454
Ni6 Se5 2.450300 1_554
Ni7 Se5 2.232264 1_555
Ni7 Se0 2.299256 1_555
Ni7 Se4 2.397849 1_656
Ni7 Se4 2.397849 1_556
Ni8 Se6 2.232264 1_555
Ni8 Se3 2.299256 1_555
Ni8 Se7 2.397849 1_455
Ni8 Se7 2.397849 1_555
Ni9 Se2 2.265930 1_555
Ni9 Se7 2.338940 1_555
Ni9 Se6 2.450300 1_655
Ni9 Se6 2.450300 1_555
Ni10 Se6 2.326245 1_465
Ni10 Se6 2.326245 1_565
Ni10 Se3 2.543592 1_555
Ni10 Se7 2.580721 1_555
Ni10 Se7 2.580721 1_455
Ni11 Se5 2.326245 1_645
Ni11 Se5 2.326245 1_545
Ni11 Se0 2.543592 1_555
Ni11 Se4 2.580721 1_556
Ni11 Se4 2.580721 1_656
