# generated using pymatgen
data_Sr2YCr2O7
_symmetry_space_group_name_H-M   'P 1'
_cell_length_a   13.11173578
_cell_length_b   13.11173578
_cell_length_c   13.11173578
_cell_angle_alpha   156.59118586
_cell_angle_beta   156.23006099
_cell_angle_gamma   33.60584457
_symmetry_Int_Tables_number   1
_chemical_formula_structural   Sr2YCr2O7
_chemical_formula_sum   'Sr4 Y2 Cr4 O14'
_cell_volume   360.61956393
_cell_formula_units_Z   2
loop_
 _symmetry_equiv_pos_site_id
 _symmetry_equiv_pos_as_xyz
  1  'x, y, z'
loop_
 _atom_site_type_symbol
 _atom_site_label
 _atom_site_symmetry_multiplicity
 _atom_site_fract_x
 _atom_site_fract_y
 _atom_site_fract_z
 _atom_site_occupancy
  Sr  Sr0  1  0.82210000  0.77371000  0.95161000  1
  Sr  Sr1  1  0.17790000  0.22629000  0.04839000  1
  Sr  Sr2  1  0.67790000  0.62951100  0.95161000  1
  Sr  Sr3  1  0.32210000  0.37048900  0.04839000  1
  Y  Y0  1  0.50000000  0.50000000  0.00000000  1
  Y  Y1  1  0.00000000  0.00000000  0.00000000  1
  Cr  Cr0  1  0.42018800  0.92819000  0.50800100  1
  Cr  Cr1  1  0.57981200  0.07181000  0.49199900  1
  Cr  Cr2  1  0.07981200  0.58781300  0.50800100  1
  Cr  Cr3  1  0.92018800  0.41218700  0.49199900  1
  O  O0  1  0.00000000  0.50000000  0.00000000  1
  O  O1  1  0.50000000  0.50000000  0.50000000  1
  O  O2  1  0.19674700  0.19674700  0.50000000  1
  O  O3  1  0.30325300  0.80325300  0.00000000  1
  O  O4  1  0.80325300  0.80325300  0.50000000  1
  O  O5  1  0.69674700  0.19674700  0.00000000  1
  O  O6  1  0.68894700  0.68894700  0.50000000  1
  O  O7  1  0.81105300  0.31105300  0.00000000  1
  O  O8  1  0.31105300  0.31105300  0.50000000  1
  O  O9  1  0.18894700  0.68894700  0.00000000  1
  O  O10  1  0.84744100  0.31775500  0.47031400  1
  O  O11  1  0.15255900  0.68224500  0.52968600  1
  O  O12  1  0.65255900  0.12287300  0.47031400  1
  O  O13  1  0.34744100  0.87712700  0.52968600  1
loop_
_geom_bond_atom_site_label_1
_geom_bond_atom_site_label_2
_geom_bond_distance
_geom_bond_site_symmetry_2
Cr0 O13 1.829882 1_555
Cr0 O2 1.981107 1_565
Cr0 O5 1.981111 1_566
Cr0 O9 1.982036 1_555
Cr0 O6 1.982040 1_555
Cr1 O12 1.829882 1_555
Cr1 O4 1.981107 1_545
Cr1 O3 1.981111 1_545
Cr1 O7 1.982036 1_556
Cr1 O8 1.982040 1_555
Cr2 O11 1.829870 1_555
Cr2 O4 1.981115 1_455
Cr2 O3 1.981115 1_556
Cr2 O7 1.982039 1_455
Cr2 O8 1.982039 1_555
Cr3 O10 1.829870 1_555
Cr3 O2 1.981115 1_655
Cr3 O5 1.981115 1_555
Cr3 O6 1.982039 1_555
Cr3 O9 1.982039 1_656
O0 Sr3 2.499852 1_555
O0 Sr2 2.499852 1_454
O0 Sr0 2.499859 1_454
O0 Sr1 2.499859 1_555
O1 Sr3 2.499849 1_555
O1 Sr2 2.499849 1_555
O1 Sr0 2.499859 1_555
O1 Sr1 2.499859 1_555
O2 Y0 2.319239 1_556
O2 Y1 2.319239 1_555
O3 Y1 2.319239 1_565
O3 Y0 2.319239 1_555
O4 Y1 2.319239 1_666
O4 Y0 2.319239 1_555
O5 Y1 2.319239 1_655
O5 Y0 2.319239 1_555
O6 Y1 2.437365 1_666
O6 Y0 2.437365 1_555
O7 Y0 2.437365 1_555
O7 Y1 2.437365 1_655
O8 Y0 2.437365 1_556
O8 Y1 2.437365 1_555
O9 Y1 2.437365 1_565
O9 Y0 2.437365 1_555
O10 Sr0 2.638227 1_555
O10 Sr3 2.805171 1_555
O10 Sr3 2.805176 1_656
O10 Sr0 2.831763 1_544
O11 Sr1 2.638227 1_555
O11 Sr2 2.805171 1_555
O11 Sr2 2.805176 1_454
O11 Sr1 2.831763 1_566
O12 Sr2 2.638233 1_555
O12 Sr1 2.805171 1_555
O12 Sr1 2.805171 1_656
O12 Sr2 2.831764 1_544
O13 Sr3 2.638233 1_555
O13 Sr0 2.805171 1_454
O13 Sr0 2.805171 1_555
O13 Sr3 2.831764 1_566
