# generated using pymatgen
data_Ba2Bi2Se3O2
_symmetry_space_group_name_H-M   'P 1'
_cell_length_a   4.23061400
_cell_length_b   10.11462153
_cell_length_c   11.90168497
_cell_angle_alpha   99.78390741
_cell_angle_beta   90.00000000
_cell_angle_gamma   90.00000000
_symmetry_Int_Tables_number   1
_chemical_formula_structural   Ba2Bi2Se3O2
_chemical_formula_sum   'Ba4 Bi4 Se6 O4'
_cell_volume   501.87848813
_cell_formula_units_Z   2
loop_
 _symmetry_equiv_pos_site_id
 _symmetry_equiv_pos_as_xyz
  1  'x, y, z'
loop_
 _atom_site_type_symbol
 _atom_site_label
 _atom_site_symmetry_multiplicity
 _atom_site_fract_x
 _atom_site_fract_y
 _atom_site_fract_z
 _atom_site_occupancy
  Ba  Ba0  1  0.49097500  0.70514800  0.59774900  1
  Ba  Ba1  1  0.99097500  0.79485200  0.90225100  1
  Ba  Ba2  1  0.50902500  0.29485200  0.40225100  1
  Ba  Ba3  1  0.00902500  0.20514800  0.09774900  1
  Bi  Bi0  1  0.49520600  0.45116200  0.81338500  1
  Bi  Bi1  1  0.99520600  0.04883800  0.68661500  1
  Bi  Bi2  1  0.50479400  0.54883800  0.18661500  1
  Bi  Bi3  1  0.00479400  0.95116200  0.31338500  1
  Se  Se0  1  0.50000000  0.00000000  0.50000000  1
  Se  Se1  1  0.00000000  0.50000000  0.00000000  1
  Se  Se2  1  0.49663800  0.08670700  0.85941700  1
  Se  Se3  1  0.99663800  0.41329300  0.64058300  1
  Se  Se4  1  0.50336200  0.91329300  0.14058300  1
  Se  Se5  1  0.00336200  0.58670700  0.35941700  1
  O  O0  1  0.50614400  0.33912000  0.18607000  1
  O  O1  1  0.00614400  0.16088000  0.31393000  1
  O  O2  1  0.49385600  0.66088000  0.81393000  1
  O  O3  1  0.99385600  0.83912000  0.68607000  1
loop_
_geom_bond_atom_site_label_1
_geom_bond_atom_site_label_2
_geom_bond_distance
_geom_bond_site_symmetry_2
Ba0 O3 2.623011 1_455
Ba0 O3 2.642596 1_555
Ba0 O2 2.685531 1_555
Ba0 Se0 3.380577 1_565
Ba0 Se5 3.547091 1_555
Ba0 Se5 3.609052 1_655
Ba0 Se3 3.722825 1_455
Ba0 Se3 3.749952 1_555
Ba1 O2 2.623011 1_555
Ba1 O2 2.642596 1_655
Ba1 O3 2.685531 1_555
Ba1 Se1 3.380577 1_656
Ba1 Se4 3.547091 1_556
Ba1 Se4 3.609052 1_656
Ba1 Se2 3.722825 1_565
Ba1 Se2 3.749952 1_665
Ba2 O1 2.623011 1_655
Ba2 O1 2.642596 1_555
Ba2 O0 2.685531 1_555
Ba2 Se0 3.380577 1_555
Ba2 Se3 3.547091 1_555
Ba2 Se3 3.609052 1_455
Ba2 Se5 3.722825 1_655
Ba2 Se5 3.749952 1_555
Ba3 O0 2.623011 1_555
Ba3 O0 2.642596 1_455
Ba3 O1 2.685531 1_555
Ba3 Se1 3.380577 1_555
Ba3 Se2 3.547091 1_554
Ba3 Se2 3.609052 1_454
Ba3 Se4 3.722825 1_545
Ba3 Se4 3.749952 1_445
Bi0 O2 2.120133 1_555
Bi0 Se3 2.925348 1_455
Bi0 Se3 2.934096 1_555
Bi0 Se1 3.032038 1_556
Bi0 Se1 3.060206 1_656
Bi1 O3 2.120133 1_545
Bi1 Se2 2.925348 1_555
Bi1 Se2 2.934096 1_655
Bi1 Se0 3.032038 1_555
Bi1 Se0 3.060206 1_655
Bi2 O0 2.120133 1_555
Bi2 Se5 2.925348 1_655
Bi2 Se5 2.934096 1_555
Bi2 Se1 3.032038 1_655
Bi2 Se1 3.060206 1_555
Bi3 O1 2.120133 1_565
Bi3 Se4 2.925348 1_555
Bi3 Se4 2.934096 1_455
Bi3 Se0 3.032038 1_565
Bi3 Se0 3.060206 1_465
