# generated using pymatgen
data_Nd14Zn43Sn3
_symmetry_space_group_name_H-M   'P 1'
_cell_length_a   4.47243100
_cell_length_b   15.48671400
_cell_length_c   17.32340696
_cell_angle_alpha   89.88326123
_cell_angle_beta   90.00000000
_cell_angle_gamma   90.00000000
_symmetry_Int_Tables_number   1
_chemical_formula_structural   Nd14Zn43Sn3
_chemical_formula_sum   'Nd14 Zn43 Sn3'
_cell_volume   1199.87314587
_cell_formula_units_Z   1
loop_
 _symmetry_equiv_pos_site_id
 _symmetry_equiv_pos_as_xyz
  1  'x, y, z'
loop_
 _atom_site_type_symbol
 _atom_site_label
 _atom_site_symmetry_multiplicity
 _atom_site_fract_x
 _atom_site_fract_y
 _atom_site_fract_z
 _atom_site_occupancy
  Nd  Nd0  1  0.50000000  0.33189300  0.31856900  1
  Nd  Nd1  1  0.50000000  0.66984600  0.68139600  1
  Nd  Nd2  1  0.50000000  0.82988000  0.18176000  1
  Nd  Nd3  1  0.50000000  0.16914100  0.81767700  1
  Nd  Nd4  1  0.50000000  0.08565800  0.24637400  1
  Nd  Nd5  1  0.50000000  0.91536400  0.75448300  1
  Nd  Nd6  1  0.50000000  0.58511200  0.25535400  1
  Nd  Nd7  1  0.50000000  0.41468000  0.74575700  1
  Nd  Nd8  1  0.00000000  0.33762700  0.04404800  1
  Nd  Nd9  1  0.00000000  0.66225300  0.95638000  1
  Nd  Nd10  1  0.00000000  0.83653200  0.45560400  1
  Nd  Nd11  1  0.00000000  0.16280900  0.54382900  1
  Nd  Nd12  1  0.50000000  0.50030600  0.49934400  1
  Nd  Nd13  1  0.50000000  0.99981000  0.99938800  1
  Zn  Zn0  1  0.00000000  0.19525100  0.35819500  1
  Zn  Zn1  1  0.00000000  0.80507500  0.64149900  1
  Zn  Zn2  1  0.00000000  0.69494800  0.14173900  1
  Zn  Zn3  1  0.00000000  0.30500800  0.85833100  1
  Zn  Zn4  1  0.00000000  0.14548100  0.09795000  1
  Zn  Zn5  1  0.00000000  0.85435900  0.90196600  1
  Zn  Zn6  1  0.00000000  0.63775800  0.40032900  1
  Zn  Zn7  1  0.00000000  0.35389900  0.59755700  1
  Zn  Zn8  1  0.00000000  0.42402700  0.21573300  1
  Zn  Zn9  1  0.00000000  0.57829700  0.78887100  1
  Zn  Zn10  1  0.00000000  0.92120000  0.28907000  1
  Zn  Zn11  1  0.00000000  0.07837500  0.71094400  1
  Zn  Zn12  1  0.00000000  0.24389700  0.21892800  1
  Zn  Zn13  1  0.00000000  0.75639600  0.78122200  1
  Zn  Zn14  1  0.00000000  0.74286400  0.28139900  1
  Zn  Zn15  1  0.00000000  0.25662600  0.71917700  1
  Zn  Zn16  1  0.00000000  0.34672700  0.44684300  1
  Zn  Zn17  1  0.00000000  0.65832500  0.54957400  1
  Zn  Zn18  1  0.00000000  0.84189200  0.05042300  1
  Zn  Zn19  1  0.00000000  0.15811600  0.94945800  1
  Zn  Zn20  1  0.50000000  0.42732400  0.14084500  1
  Zn  Zn21  1  0.50000000  0.57281000  0.85923300  1
  Zn  Zn22  1  0.50000000  0.92680900  0.35997300  1
  Zn  Zn23  1  0.50000000  0.07320800  0.64077700  1
  Zn  Zn24  1  0.50000000  0.25181000  0.14652200  1
  Zn  Zn25  1  0.50000000  0.74873700  0.85335600  1
  Zn  Zn26  1  0.50000000  0.75206400  0.35308100  1
  Zn  Zn27  1  0.50000000  0.24842800  0.64674100  1
  Zn  Zn28  1  0.00000000  0.03405800  0.40168800  1
  Zn  Zn29  1  0.00000000  0.96601600  0.59849800  1
  Zn  Zn30  1  0.00000000  0.53309000  0.09867600  1
  Zn  Zn31  1  0.00000000  0.46571500  0.90163800  1
  Zn  Zn32  1  0.50000000  0.14863900  0.41885800  1
  Zn  Zn33  1  0.50000000  0.85158900  0.58073800  1
  Zn  Zn34  1  0.50000000  0.64862900  0.08126800  1
  Zn  Zn35  1  0.50000000  0.35152900  0.91962500  1
  Zn  Zn36  1  0.50000000  0.50004900  0.00014900  1
  Zn  Zn37  1  0.50000000  0.00013300  0.50008000  1
  Zn  Zn38  1  0.50000000  0.20149200  0.00651200  1
  Zn  Zn39  1  0.50000000  0.79896400  0.99329100  1
  Zn  Zn40  1  0.50000000  0.70127200  0.49278500  1
  Zn  Zn41  1  0.50000000  0.29964300  0.50622600  1
  Zn  Zn42  1  0.00000000  0.48042400  0.35775000  1
  Sn  Sn0  1  0.00000000  0.51830600  0.64180000  1
  Sn  Sn1  1  0.00000000  0.98161100  0.14258300  1
  Sn  Sn2  1  0.00000000  0.01821800  0.85813500  1
loop_
_geom_bond_atom_site_label_1
_geom_bond_atom_site_label_2
_geom_bond_distance
_geom_bond_site_symmetry_2
Nd0 Zn12 3.137974 1_655
Nd0 Zn12 3.137974 1_555
Nd0 Zn0 3.153410 1_555
Nd0 Zn0 3.153410 1_655
Nd0 Zn16 3.161239 1_555
Nd0 Zn16 3.161239 1_655
Nd0 Zn8 3.193720 1_555
Nd0 Zn8 3.193720 1_655
Nd0 Zn24 3.230517 1_555
Nd0 Zn42 3.280077 1_655
Nd0 Zn42 3.280077 1_555
Nd0 Zn41 3.287995 1_555
Nd0 Zn32 3.324536 1_555
Nd0 Zn20 3.412419 1_555
Nd1 Zn13 3.130061 1_555
Nd1 Zn13 3.130061 1_655
Nd1 Zn1 3.139801 1_655
Nd1 Zn1 3.139801 1_555
Nd1 Zn17 3.201408 1_555
Nd1 Zn17 3.201408 1_655
Nd1 Zn25 3.222045 1_555
Nd1 Zn9 3.235191 1_555
Nd1 Zn9 3.235191 1_655
Nd1 Zn40 3.302452 1_555
Nd1 Zn33 3.307962 1_555
Nd1 Sn0 3.314433 1_655
Nd1 Sn0 3.314433 1_555
Nd1 Zn21 3.424971 1_555
Nd2 Zn14 3.128348 1_655
Nd2 Zn14 3.128348 1_555
Nd2 Zn2 3.139089 1_655
Nd2 Zn2 3.139089 1_555
Nd2 Zn18 3.195324 1_555
Nd2 Zn18 3.195324 1_655
Nd2 Zn26 3.200928 1_555
Nd2 Zn10 3.235314 1_655
Nd2 Zn10 3.235314 1_555
Nd2 Zn39 3.300810 1_554
Nd2 Zn34 3.306005 1_555
Nd2 Sn1 3.313064 1_555
Nd2 Sn1 3.313064 1_655
Nd2 Zn22 3.435604 1_555
Nd3 Zn15 3.120660 1_555
Nd3 Zn15 3.120660 1_655
Nd3 Zn3 3.151201 1_555
Nd3 Zn3 3.151201 1_655
Nd3 Zn19 3.199975 1_655
Nd3 Zn19 3.199975 1_555
Nd3 Zn27 3.203370 1_555
Nd3 Zn11 3.225814 1_555
Nd3 Zn11 3.225814 1_655
Nd3 Sn2 3.308804 1_555
Nd3 Sn2 3.308804 1_655
Nd3 Zn38 3.310418 1_556
Nd3 Zn35 3.334322 1_555
Nd3 Zn23 3.408379 1_555
Nd4 Zn24 3.097593 1_555
Nd4 Zn32 3.145064 1_555
Nd4 Zn22 3.147194 1_545
Nd4 Sn1 3.292682 1_545
Nd4 Sn1 3.292682 1_645
Nd4 Zn12 3.350735 1_555
Nd4 Zn12 3.350735 1_655
Nd4 Zn0 3.412785 1_555
Nd4 Zn0 3.412785 1_655
Nd4 Zn10 3.467971 1_645
Nd4 Zn10 3.467971 1_545
Nd4 Zn4 3.529929 1_555
Nd4 Zn4 3.529929 1_655
Nd4 Zn28 3.587428 1_655
Nd4 Zn28 3.587428 1_555
Nd5 Zn25 3.094307 1_555
Nd5 Zn23 3.136224 1_565
Nd5 Zn33 3.169673 1_555
Nd5 Sn2 3.282339 1_565
Nd5 Sn2 3.282339 1_665
Nd5 Zn13 3.357304 1_555
Nd5 Zn13 3.357304 1_655
Nd5 Zn1 3.429649 1_555
Nd5 Zn1 3.429649 1_655
Nd5 Zn11 3.454694 1_665
Nd5 Zn11 3.454694 1_565
Nd5 Zn5 3.522920 1_555
Nd5 Zn5 3.522920 1_655
Nd5 Zn29 3.592937 1_655
Nd5 Zn29 3.592937 1_555
Nd6 Zn26 3.093376 1_555
Nd6 Zn20 3.150560 1_555
Nd6 Zn34 3.170227 1_555
Nd6 Zn42 3.280854 1_555
Nd6 Zn42 3.280854 1_655
Nd6 Zn14 3.343242 1_655
Nd6 Zn14 3.343242 1_555
Nd6 Zn8 3.420842 1_555
Nd6 Zn8 3.420842 1_655
Nd6 Zn2 3.428443 1_555
Nd6 Zn2 3.428443 1_655
Nd6 Zn6 3.461384 1_655
Nd6 Zn6 3.461384 1_555
Nd6 Zn30 3.609087 1_655
Nd6 Zn30 3.609087 1_555
Nd7 Zn27 3.096659 1_555
Nd7 Zn21 3.143427 1_555
Nd7 Zn35 3.164892 1_555
Nd7 Sn0 3.287484 1_555
Nd7 Sn0 3.287484 1_655
Nd7 Zn15 3.347938 1_655
Nd7 Zn15 3.347938 1_555
Nd7 Zn3 3.416880 1_555
Nd7 Zn3 3.416880 1_655
Nd7 Zn9 3.462196 1_555
Nd7 Zn9 3.462196 1_655
Nd7 Zn7 3.533798 1_655
Nd7 Zn7 3.533798 1_555
Nd7 Zn31 3.595294 1_655
Nd7 Zn31 3.595294 1_555
Nd8 Zn35 3.113037 1_454
Nd8 Zn35 3.113037 1_554
Nd8 Zn4 3.116961 1_555
Nd8 Zn20 3.122759 1_455
Nd8 Zn20 3.122759 1_555
Nd8 Zn38 3.142282 1_455
Nd8 Zn38 3.142282 1_555
Nd8 Zn24 3.147806 1_555
Nd8 Zn24 3.147806 1_455
Nd8 Zn31 3.162466 1_554
Nd8 Zn30 3.173397 1_555
Nd8 Zn19 3.229898 1_554
Nd8 Zn3 3.257686 1_554
Nd8 Zn8 3.263783 1_555
Nd8 Zn12 3.356652 1_555
Nd8 Zn36 3.449398 1_455
Nd8 Zn36 3.449398 1_555
Nd9 Zn34 3.118331 1_456
Nd9 Zn34 3.118331 1_556
Nd9 Zn5 3.119022 1_555
Nd9 Zn21 3.124274 1_555
Nd9 Zn21 3.124274 1_455
Nd9 Zn39 3.146044 1_455
Nd9 Zn39 3.146044 1_555
Nd9 Zn25 3.157536 1_555
Nd9 Zn25 3.157536 1_455
Nd9 Zn30 3.171376 1_556
Nd9 Zn9 3.182216 1_555
Nd9 Zn31 3.189882 1_555
Nd9 Zn18 3.226795 1_556
Nd9 Zn2 3.251744 1_556
Nd9 Zn13 3.363750 1_555
Nd9 Zn36 3.446446 1_456
Nd9 Zn36 3.446446 1_556
Nd10 Zn22 3.112940 1_555
Nd10 Zn22 3.112940 1_455
Nd10 Zn33 3.123495 1_555
Nd10 Zn33 3.123495 1_455
Nd10 Zn40 3.130165 1_555
Nd10 Zn40 3.130165 1_455
Nd10 Zn26 3.142560 1_555
Nd10 Zn26 3.142560 1_455
Nd10 Zn10 3.166507 1_555
Nd10 Zn29 3.188893 1_555
Nd10 Zn28 3.196621 1_565
Nd10 Zn17 3.201314 1_555
Nd10 Zn6 3.225708 1_555
Nd10 Zn1 3.255993 1_555
Nd10 Zn14 3.351025 1_555
Nd10 Zn37 3.467216 1_565
Nd10 Zn37 3.467216 1_465
Nd11 Zn7 3.104080 1_555
Nd11 Zn23 3.120462 1_555
Nd11 Zn23 3.120462 1_455
Nd11 Zn32 3.120520 1_455
Nd11 Zn32 3.120520 1_555
Nd11 Zn41 3.148015 1_455
Nd11 Zn41 3.148015 1_555
Nd11 Zn27 3.153852 1_455
Nd11 Zn27 3.153852 1_555
Nd11 Zn28 3.171595 1_555
Nd11 Zn11 3.174183 1_555
Nd11 Zn29 3.189590 1_545
Nd11 Zn0 3.253813 1_555
Nd11 Zn16 3.303946 1_555
Nd11 Zn15 3.369884 1_555
Nd11 Zn37 3.453952 1_555
Nd11 Zn37 3.453952 1_455
Nd12 Zn41 3.109654 1_555
Nd12 Zn40 3.114145 1_555
Nd12 Zn42 3.333949 1_655
Nd12 Zn42 3.333949 1_555
Nd12 Sn0 3.342353 1_555
Nd12 Sn0 3.342353 1_655
Nd12 Zn16 3.390222 1_555
Nd12 Zn16 3.390222 1_655
Nd12 Zn17 3.428596 1_555
Nd12 Zn17 3.428596 1_655
Nd12 Zn6 3.529764 1_655
Nd12 Zn6 3.529764 1_555
Nd12 Zn7 3.608405 1_555
Nd12 Zn7 3.608405 1_655
Nd13 Zn39 3.112452 1_555
Nd13 Zn38 3.126080 1_566
Nd13 Sn2 3.326682 1_665
Nd13 Sn2 3.326682 1_565
Nd13 Sn1 3.351231 1_556
Nd13 Sn1 3.351231 1_656
Nd13 Zn19 3.427931 1_665
Nd13 Zn19 3.427931 1_565
Nd13 Zn18 3.428497 1_656
Nd13 Zn18 3.428497 1_556
Nd13 Zn5 3.597004 1_555
Nd13 Zn5 3.597004 1_655
Nd13 Zn4 3.608469 1_566
Nd13 Zn4 3.608469 1_666
Zn0 Zn12 2.526003 1_555
Zn0 Zn32 2.573525 1_555
Zn0 Zn32 2.573525 1_455
Zn0 Zn28 2.606104 1_555
Zn0 Zn16 2.806438 1_555
Zn1 Zn13 2.533695 1_555
Zn1 Zn33 2.573794 1_455
Zn1 Zn33 2.573794 1_555
Zn1 Zn29 2.599931 1_555
Zn1 Zn17 2.777717 1_555
Zn2 Zn34 2.572095 1_455
Zn2 Zn34 2.572095 1_555
Zn2 Zn30 2.616757 1_555
Zn3 Zn35 2.578817 1_555
Zn3 Zn35 2.578817 1_455
Zn3 Zn31 2.600901 1_555
Zn10 Zn22 2.552903 1_555
Zn10 Zn22 2.552903 1_455
Zn10 Zn28 2.621987 1_565
Zn10 Zn14 2.765304 1_555
Zn11 Zn23 2.546562 1_455
Zn11 Zn23 2.546562 1_555
Zn11 Zn29 2.614606 1_545
Zn11 Zn15 2.764494 1_555
Zn12 Zn24 2.566781 1_555
Zn12 Zn24 2.566781 1_455
Zn12 Zn4 2.593876 1_555
Zn12 Zn8 2.790058 1_555
Zn13 Zn25 2.564301 1_555
Zn13 Zn25 2.564301 1_455
Zn13 Zn5 2.586464 1_555
Zn13 Zn9 2.761080 1_555
Zn14 Zn2 2.532075 1_555
Zn14 Zn26 2.561970 1_555
Zn14 Zn26 2.561970 1_455
Zn14 Zn6 2.623093 1_555
Zn15 Zn3 2.525841 1_555
Zn15 Zn27 2.567498 1_555
Zn15 Zn27 2.567498 1_455
Zn15 Zn7 2.587535 1_555
Zn16 Zn41 2.566624 1_555
Zn16 Zn41 2.566624 1_455
Zn16 Zn42 2.579947 1_555
Zn16 Zn7 2.613468 1_555
Zn17 Zn40 2.531439 1_455
Zn17 Zn40 2.531439 1_555
Zn17 Zn6 2.605622 1_555
Zn18 Zn39 2.534732 1_554
Zn18 Zn39 2.534732 1_454
Zn18 Zn5 2.578626 1_554
Zn18 Zn2 2.768839 1_555
Zn19 Zn38 2.536038 1_456
Zn19 Zn38 2.536038 1_556
Zn19 Zn4 2.579421 1_556
Zn19 Zn3 2.766314 1_555
Zn20 Zn8 2.585735 1_555
Zn20 Zn8 2.585735 1_655
Zn20 Zn36 2.682890 1_555
Zn20 Zn24 2.719713 1_555
Zn20 Zn30 2.865723 1_655
Zn20 Zn30 2.865723 1_555
Zn21 Zn9 2.548176 1_555
Zn21 Zn9 2.548176 1_655
Zn21 Zn36 2.686582 1_556
Zn21 Zn25 2.726225 1_555
Zn21 Zn31 2.878562 1_655
Zn21 Zn31 2.878562 1_555
Zn22 Zn37 2.681728 1_565
Zn22 Zn26 2.709101 1_555
Zn22 Zn28 2.878623 1_565
Zn22 Zn28 2.878623 1_665
Zn23 Zn37 2.689358 1_555
Zn23 Zn27 2.715758 1_555
Zn23 Zn29 2.880594 1_545
Zn23 Zn29 2.880594 1_645
Zn24 Zn38 2.549070 1_555
Zn24 Zn4 2.902739 1_655
Zn24 Zn4 2.902739 1_555
Zn25 Zn39 2.547399 1_555
Zn25 Zn5 2.896727 1_555
Zn25 Zn5 2.896727 1_655
Zn26 Zn40 2.543247 1_555
Zn26 Zn6 2.966207 1_655
Zn26 Zn6 2.966207 1_555
Zn27 Zn41 2.558622 1_555
Zn27 Zn7 2.896367 1_655
Zn27 Zn7 2.896367 1_555
Zn28 Zn37 2.859774 1_555
Zn28 Zn37 2.859774 1_455
Zn28 Zn32 2.870553 1_455
Zn28 Zn32 2.870553 1_555
Zn29 Zn37 2.860587 1_465
Zn29 Zn37 2.860587 1_565
Zn29 Zn33 2.870169 1_555
Zn29 Zn33 2.870169 1_455
Zn30 Zn8 2.636463 1_555
Zn30 Zn36 2.859947 1_555
Zn30 Zn36 2.859947 1_455
Zn30 Zn34 2.879421 1_555
Zn30 Zn34 2.879421 1_455
Zn31 Zn9 2.615759 1_555
Zn31 Zn36 2.863457 1_556
Zn31 Zn36 2.863457 1_456
Zn31 Zn35 2.867512 1_555
Zn31 Zn35 2.867512 1_455
Zn32 Zn37 2.693693 1_555
Zn32 Zn41 2.788186 1_555
Zn33 Zn37 2.689122 1_565
Zn33 Zn40 2.784806 1_555
Zn34 Zn36 2.698629 1_555
Zn34 Zn39 2.780071 1_554
Zn35 Zn36 2.692463 1_556
Zn35 Zn38 2.765924 1_556
Zn38 Zn4 2.873430 1_655
Zn38 Zn4 2.873430 1_555
Zn39 Zn5 2.869497 1_555
Zn39 Zn5 2.869497 1_655
Zn40 Zn6 2.922308 1_655
Zn40 Zn6 2.922308 1_555
Zn41 Zn7 2.866241 1_655
Zn41 Zn7 2.866241 1_555
Zn42 Zn6 2.547224 1_555
Zn42 Zn8 2.612329 1_555
Sn0 Zn7 2.660476 1_555
Sn0 Zn17 2.690824 1_555
Sn0 Zn9 2.713658 1_555
Sn1 Zn4 2.651472 1_565
Sn1 Zn18 2.691644 1_555
Sn1 Zn10 2.702832 1_555
Sn2 Zn5 2.647318 1_545
Sn2 Zn19 2.685285 1_555
Sn2 Zn11 2.712931 1_555
