# generated using pymatgen
data_TaPS
_symmetry_space_group_name_H-M   'P 1'
_cell_length_a   6.64898744
_cell_length_b   6.64898744
_cell_length_c   6.64898744
_cell_angle_alpha   149.88119913
_cell_angle_beta   138.19591328
_cell_angle_gamma   52.38046454
_symmetry_Int_Tables_number   1
_chemical_formula_structural   TaPS
_chemical_formula_sum   'Ta2 P2 S2'
_cell_volume   97.80104687
_cell_formula_units_Z   2
loop_
 _symmetry_equiv_pos_site_id
 _symmetry_equiv_pos_as_xyz
  1  'x, y, z'
loop_
 _atom_site_type_symbol
 _atom_site_label
 _atom_site_symmetry_multiplicity
 _atom_site_fract_x
 _atom_site_fract_y
 _atom_site_fract_z
 _atom_site_occupancy
  Ta  Ta0  1  0.37776400  0.87776400  0.50000000  1
  Ta  Ta1  1  0.62223600  0.12223600  0.50000000  1
  P  P0  1  0.23609400  0.50000000  0.73609400  1
  P  P1  1  0.76390600  0.50000000  0.26390600  1
  S  S0  1  0.78681100  0.78681100  0.00000000  1
  S  S1  1  0.21318900  0.21318900  0.00000000  1
loop_
_geom_bond_atom_site_label_1
_geom_bond_atom_site_label_2
_geom_bond_distance
_geom_bond_site_symmetry_2
P0 P1 2.240219 1_455
P0 P1 2.504117 1_556
P0 Ta0 2.584490 1_545
P0 Ta0 2.584490 1_556
P0 Ta1 2.584490 1_555
P0 Ta1 2.584490 1_566
P1 Ta0 2.584490 1_544
P1 Ta1 2.584490 1_554
P1 Ta0 2.584490 1_555
P1 Ta1 2.584490 1_565
S0 Ta0 2.608657 1_554
S0 Ta0 2.608657 1_655
S0 Ta1 2.615534 1_554
S0 Ta1 2.615534 1_565
S1 Ta1 2.608657 1_555
S1 Ta1 2.608657 1_454
S1 Ta0 2.615534 1_555
S1 Ta0 2.615534 1_544
