# generated using pymatgen
data_Mg30NbCdO32
_symmetry_space_group_name_H-M   'P 1'
_cell_length_a   8.58404265
_cell_length_b   8.58404265
_cell_length_c   8.62964652
_cell_angle_alpha   90.00000000
_cell_angle_beta   90.00000000
_cell_angle_gamma   90.00000000
_symmetry_Int_Tables_number   1
_chemical_formula_structural   Mg30NbCdO32
_chemical_formula_sum   'Mg30 Nb1 Cd1 O32'
_cell_volume   635.88230586
_cell_formula_units_Z   1
loop_
 _symmetry_equiv_pos_site_id
 _symmetry_equiv_pos_as_xyz
  1  'x, y, z'
loop_
 _atom_site_type_symbol
 _atom_site_label
 _atom_site_symmetry_multiplicity
 _atom_site_fract_x
 _atom_site_fract_y
 _atom_site_fract_z
 _atom_site_occupancy
  Mg  Mg0  1  0.00000000  0.50000000  0.00000000  1
  Mg  Mg1  1  0.00000000  0.50000000  0.50000000  1
  Mg  Mg2  1  0.50000000  -0.00000000  0.00000000  1
  Mg  Mg3  1  0.50000000  -0.00000000  0.50000000  1
  Mg  Mg4  1  0.50000000  0.50000000  0.00000000  1
  Mg  Mg5  1  0.50000000  0.50000000  0.50000000  1
  Mg  Mg6  1  0.00000000  0.25397928  0.24982932  1
  Mg  Mg7  1  0.00000000  0.25397928  0.75017068  1
  Mg  Mg8  1  0.00000000  0.74602072  0.24982932  1
  Mg  Mg9  1  0.00000000  0.74602072  0.75017068  1
  Mg  Mg10  1  0.50000000  0.25001334  0.25006479  1
  Mg  Mg11  1  0.50000000  0.25001334  0.74993521  1
  Mg  Mg12  1  0.50000000  0.74998666  0.25006479  1
  Mg  Mg13  1  0.50000000  0.74998666  0.74993521  1
  Mg  Mg14  1  0.25397928  -0.00000000  0.24982932  1
  Mg  Mg15  1  0.25397928  -0.00000000  0.75017068  1
  Mg  Mg16  1  0.25001334  0.50000000  0.25006479  1
  Mg  Mg17  1  0.25001334  0.50000000  0.74993521  1
  Mg  Mg18  1  0.74602072  -0.00000000  0.24982932  1
  Mg  Mg19  1  0.74602072  -0.00000000  0.75017068  1
  Mg  Mg20  1  0.74998666  0.50000000  0.25006479  1
  Mg  Mg21  1  0.74998666  0.50000000  0.74993521  1
  Mg  Mg22  1  0.25162861  0.25162861  -0.00000000  1
  Mg  Mg23  1  0.25200796  0.25200796  0.50000000  1
  Mg  Mg24  1  0.25162861  0.74837139  0.00000000  1
  Mg  Mg25  1  0.25200796  0.74799204  0.50000000  1
  Mg  Mg26  1  0.74837139  0.25162861  -0.00000000  1
  Mg  Mg27  1  0.74799204  0.25200796  0.50000000  1
  Mg  Mg28  1  0.74837139  0.74837139  0.00000000  1
  Mg  Mg29  1  0.74799204  0.74799204  0.50000000  1
  Nb  Nb0  1  0.00000000  -0.00000000  0.00000000  1
  Cd  Cd0  1  0.00000000  -0.00000000  0.50000000  1
  O  O0  1  0.26261418  -0.00000000  -0.00000000  1
  O  O1  1  0.26508595  -0.00000000  0.50000000  1
  O  O2  1  0.25152015  0.50000000  -0.00000000  1
  O  O3  1  0.25196242  0.50000000  0.50000000  1
  O  O4  1  0.73738582  -0.00000000  0.00000000  1
  O  O5  1  0.73491405  -0.00000000  0.50000000  1
  O  O6  1  0.74847985  0.50000000  0.00000000  1
  O  O7  1  0.74803758  0.50000000  0.50000000  1
  O  O8  1  0.24930742  0.24930742  0.25007756  1
  O  O9  1  0.24930742  0.24930742  0.74992244  1
  O  O10  1  0.24930742  0.75069258  0.25007756  1
  O  O11  1  0.24930742  0.75069258  0.74992244  1
  O  O12  1  0.75069258  0.24930742  0.25007756  1
  O  O13  1  0.75069258  0.24930742  0.74992244  1
  O  O14  1  0.75069258  0.75069258  0.25007756  1
  O  O15  1  0.75069258  0.75069258  0.74992244  1
  O  O16  1  0.00000000  -0.00000000  0.25049198  1
  O  O17  1  0.00000000  -0.00000000  0.74950802  1
  O  O18  1  0.00000000  0.50000000  0.24941428  1
  O  O19  1  0.00000000  0.50000000  0.75058572  1
  O  O20  1  0.50000000  -0.00000000  0.24941428  1
  O  O21  1  0.50000000  -0.00000000  0.75058572  1
  O  O22  1  0.50000000  0.50000000  0.24985242  1
  O  O23  1  0.50000000  0.50000000  0.75014758  1
  O  O24  1  0.00000000  0.26261418  -0.00000000  1
  O  O25  1  0.00000000  0.26508595  0.50000000  1
  O  O26  1  0.00000000  0.73738582  0.00000000  1
  O  O27  1  0.00000000  0.73491405  0.50000000  1
  O  O28  1  0.50000000  0.25152015  -0.00000000  1
  O  O29  1  0.50000000  0.25196242  0.50000000  1
  O  O30  1  0.50000000  0.74847985  0.00000000  1
  O  O31  1  0.50000000  0.74803758  0.50000000  1
loop_
_geom_bond_atom_site_label_1
_geom_bond_atom_site_label_2
_geom_bond_distance
_geom_bond_site_symmetry_2
Mg0 O26 2.037730 1_555
Mg0 O24 2.037730 1_555
Mg0 O19 2.152357 1_554
Mg0 O18 2.152357 1_555
Mg0 O6 2.159060 1_455
Mg0 O2 2.159060 1_555
Mg1 O27 2.016512 1_555
Mg1 O25 2.016512 1_555
Mg1 O19 2.162466 1_555
Mg1 O18 2.162466 1_555
Mg1 O3 2.162856 1_555
Mg1 O7 2.162856 1_455
Mg2 O4 2.037730 1_555
Mg2 O0 2.037730 1_555
Mg2 O21 2.152357 1_554
Mg2 O20 2.152357 1_555
Mg2 O30 2.159060 1_545
Mg2 O28 2.159060 1_555
Mg3 O1 2.016512 1_555
Mg3 O5 2.016512 1_555
Mg3 O21 2.162466 1_555
Mg3 O20 2.162466 1_555
Mg3 O31 2.162856 1_545
Mg3 O29 2.162856 1_555
Mg4 O2 2.132962 1_555
Mg4 O28 2.132962 1_555
Mg4 O30 2.132962 1_555
Mg4 O6 2.132962 1_555
Mg4 O23 2.156138 1_554
Mg4 O22 2.156138 1_555
Mg5 O29 2.129165 1_555
Mg5 O31 2.129165 1_555
Mg5 O3 2.129165 1_555
Mg5 O7 2.129165 1_555
Mg5 O22 2.158685 1_555
Mg5 O23 2.158685 1_555
Mg6 O18 2.111855 1_555
Mg6 O12 2.140442 1_455
Mg6 O8 2.140442 1_555
Mg6 O24 2.157213 1_555
Mg6 O25 2.160989 1_555
Mg6 O16 2.180176 1_555
Mg7 O19 2.111855 1_555
Mg7 O13 2.140442 1_455
Mg7 O9 2.140442 1_555
Mg7 O24 2.157213 1_556
Mg7 O25 2.160989 1_555
Mg7 O17 2.180176 1_555
Mg8 O18 2.111855 1_555
Mg8 O14 2.140442 1_455
Mg8 O10 2.140442 1_555
Mg8 O26 2.157213 1_555
Mg8 O27 2.160989 1_555
Mg8 O16 2.180176 1_565
Mg9 O19 2.111855 1_555
Mg9 O15 2.140442 1_455
Mg9 O11 2.140442 1_555
Mg9 O26 2.157213 1_556
Mg9 O27 2.160989 1_555
Mg9 O17 2.180176 1_565
Mg10 O22 2.145897 1_555
Mg10 O20 2.146133 1_555
Mg10 O8 2.151964 1_555
Mg10 O12 2.151964 1_555
Mg10 O29 2.156917 1_555
Mg10 O28 2.158010 1_555
Mg11 O23 2.145897 1_555
Mg11 O21 2.146133 1_555
Mg11 O9 2.151964 1_555
Mg11 O13 2.151964 1_555
Mg11 O29 2.156917 1_555
Mg11 O28 2.158010 1_556
Mg12 O22 2.145897 1_555
Mg12 O20 2.146133 1_565
Mg12 O10 2.151964 1_555
Mg12 O14 2.151964 1_555
Mg12 O31 2.156917 1_555
Mg12 O30 2.158010 1_555
Mg13 O23 2.145897 1_555
Mg13 O21 2.146133 1_565
Mg13 O11 2.151964 1_555
Mg13 O15 2.151964 1_555
Mg13 O31 2.156917 1_555
Mg13 O30 2.158010 1_556
Mg14 O20 2.111855 1_555
Mg14 O10 2.140442 1_545
Mg14 O8 2.140442 1_555
Mg14 O0 2.157213 1_555
Mg14 O1 2.160989 1_555
Mg14 O16 2.180176 1_555
Mg15 O21 2.111855 1_555
Mg15 O11 2.140442 1_545
Mg15 O9 2.140442 1_555
Mg15 O0 2.157213 1_556
Mg15 O1 2.160989 1_555
Mg15 O17 2.180176 1_555
Mg16 O22 2.145897 1_555
Mg16 O18 2.146133 1_555
Mg16 O8 2.151964 1_555
Mg16 O10 2.151964 1_555
Mg16 O3 2.156917 1_555
Mg16 O2 2.158010 1_555
Mg17 O23 2.145897 1_555
Mg17 O19 2.146133 1_555
Mg17 O9 2.151964 1_555
Mg17 O11 2.151964 1_555
Mg17 O3 2.156917 1_555
Mg17 O2 2.158010 1_556
Mg18 O20 2.111855 1_555
Mg18 O14 2.140442 1_545
Mg18 O12 2.140442 1_555
Mg18 O4 2.157213 1_555
Mg18 O5 2.160989 1_555
Mg18 O16 2.180176 1_655
Mg19 O21 2.111855 1_555
Mg19 O15 2.140442 1_545
Mg19 O13 2.140442 1_555
Mg19 O4 2.157213 1_556
Mg19 O5 2.160989 1_555
Mg19 O17 2.180176 1_655
Mg20 O22 2.145897 1_555
Mg20 O18 2.146133 1_655
Mg20 O12 2.151964 1_555
Mg20 O14 2.151964 1_555
Mg20 O7 2.156917 1_555
Mg20 O6 2.158010 1_555
Mg21 O23 2.145897 1_555
Mg21 O19 2.146133 1_655
Mg21 O13 2.151964 1_555
Mg21 O15 2.151964 1_555
Mg21 O7 2.156917 1_555
Mg21 O6 2.158010 1_556
Mg22 O2 2.132031 1_555
Mg22 O28 2.132031 1_555
Mg22 O8 2.158265 1_555
Mg22 O9 2.158265 1_554
Mg22 O0 2.162048 1_555
Mg22 O24 2.162048 1_555
Mg23 O29 2.128774 1_555
Mg23 O3 2.128774 1_555
Mg23 O8 2.156991 1_555
Mg23 O9 2.156991 1_555
Mg23 O25 2.166158 1_555
Mg23 O1 2.166158 1_555
Mg24 O2 2.132031 1_555
Mg24 O30 2.132031 1_555
Mg24 O11 2.158265 1_554
Mg24 O10 2.158265 1_555
Mg24 O0 2.162048 1_565
Mg24 O26 2.162048 1_555
Mg25 O31 2.128774 1_555
Mg25 O3 2.128774 1_555
Mg25 O10 2.156991 1_555
Mg25 O11 2.156991 1_555
Mg25 O27 2.166158 1_555
Mg25 O1 2.166158 1_565
Mg26 O6 2.132031 1_555
Mg26 O28 2.132031 1_555
Mg26 O13 2.158265 1_554
Mg26 O12 2.158265 1_555
Mg26 O4 2.162048 1_555
Mg26 O24 2.162048 1_655
Mg27 O7 2.128774 1_555
Mg27 O29 2.128774 1_555
Mg27 O13 2.156991 1_555
Mg27 O12 2.156991 1_555
Mg27 O5 2.166158 1_555
Mg27 O25 2.166158 1_655
Mg28 O6 2.132031 1_555
Mg28 O30 2.132031 1_555
Mg28 O14 2.158265 1_555
Mg28 O15 2.158265 1_554
Mg28 O26 2.162048 1_655
Mg28 O4 2.162048 1_565
Mg29 O7 2.128774 1_555
Mg29 O31 2.128774 1_555
Mg29 O14 2.156991 1_555
Mg29 O15 2.156991 1_555
Mg29 O27 2.166158 1_655
Mg29 O5 2.166158 1_565
Nb0 O17 2.161657 1_554
Nb0 O16 2.161657 1_555
Nb0 O26 2.254291 1_545
Nb0 O24 2.254291 1_555
Nb0 O0 2.254291 1_555
Nb0 O4 2.254291 1_455
Cd0 O16 2.153166 1_555
Cd0 O17 2.153166 1_555
Cd0 O25 2.275509 1_555
Cd0 O27 2.275509 1_545
Cd0 O1 2.275509 1_555
Cd0 O5 2.275509 1_455
