# generated using pymatgen
data_MoO2
_symmetry_space_group_name_H-M   'P 1'
_cell_length_a   7.68673117
_cell_length_b   7.68673117
_cell_length_c   7.68673117
_cell_angle_alpha   92.58375765
_cell_angle_beta   92.58375765
_cell_angle_gamma   155.48330652
_symmetry_Int_Tables_number   1
_chemical_formula_structural   MoO2
_chemical_formula_sum   'Mo4 O8'
_cell_volume   184.16755578
_cell_formula_units_Z   4
loop_
 _symmetry_equiv_pos_site_id
 _symmetry_equiv_pos_as_xyz
  1  'x, y, z'
loop_
 _atom_site_type_symbol
 _atom_site_label
 _atom_site_symmetry_multiplicity
 _atom_site_fract_x
 _atom_site_fract_y
 _atom_site_fract_z
 _atom_site_occupancy
  Mo  Mo0  1  0.34308300  0.84221100  0.18529300  1
  Mo  Mo1  1  0.84221100  0.65691700  0.49912800  1
  Mo  Mo2  1  0.15778900  0.34308300  0.50087200  1
  Mo  Mo3  1  0.65691700  0.15778900  0.81470700  1
  O  O0  1  0.16179100  0.53363400  0.69542500  1
  O  O1  1  0.53363400  0.83820900  0.37184300  1
  O  O2  1  0.46636600  0.16179100  0.62815700  1
  O  O3  1  0.83820900  0.46636600  0.30457500  1
  O  O4  1  0.83858000  0.21533500  0.05391400  1
  O  O5  1  0.21533500  0.16142000  0.37675500  1
  O  O6  1  0.16142000  0.78466500  0.94608600  1
  O  O7  1  0.78466500  0.83858000  0.62324500  1
loop_
_geom_bond_atom_site_label_1
_geom_bond_atom_site_label_2
_geom_bond_distance
_geom_bond_site_symmetry_2
Mo0 O6 2.024270 1_554
Mo0 O1 2.024642 1_555
Mo0 O3 2.098977 1_565
Mo0 O3 2.098979 1_455
Mo0 O4 2.117164 1_565
Mo0 O4 2.117164 1_455
Mo1 O7 2.024283 1_555
Mo1 O3 2.024637 1_555
Mo1 O2 2.098975 1_555
Mo1 O2 2.098975 1_665
Mo1 O5 2.117164 1_555
Mo1 O5 2.117164 1_665
Mo2 O5 2.024283 1_555
Mo2 O0 2.024637 1_555
Mo2 O1 2.098975 1_555
Mo2 O1 2.098975 1_445
Mo2 O7 2.117164 1_555
Mo2 O7 2.117164 1_445
Mo3 O4 2.024270 1_556
Mo3 O2 2.024642 1_555
Mo3 O0 2.098977 1_545
Mo3 O0 2.098979 1_655
Mo3 O6 2.117164 1_545
Mo3 O6 2.117164 1_655
