# generated using pymatgen
data_Na2CoP2O7
_symmetry_space_group_name_H-M   'P 1'
_cell_length_a   6.54630170
_cell_length_b   9.55282400
_cell_length_c   11.06920705
_cell_angle_alpha   64.67925841
_cell_angle_beta   85.92540243
_cell_angle_gamma   73.42807598
_symmetry_Int_Tables_number   1
_chemical_formula_structural   Na2CoP2O7
_chemical_formula_sum   'Na8 Co4 P8 O28'
_cell_volume   598.68930625
_cell_formula_units_Z   4
loop_
 _symmetry_equiv_pos_site_id
 _symmetry_equiv_pos_as_xyz
  1  'x, y, z'
loop_
 _atom_site_type_symbol
 _atom_site_label
 _atom_site_symmetry_multiplicity
 _atom_site_fract_x
 _atom_site_fract_y
 _atom_site_fract_z
 _atom_site_occupancy
  Na  Na0  1  0.77970809  0.14815996  0.89040326  1
  Na  Na1  1  0.60264277  0.87705123  0.65044632  1
  Na  Na2  1  0.03485763  0.81303309  0.47819086  1
  Na  Na3  1  0.84409159  0.48798386  0.94644574  1
  Na  Na4  1  0.39351546  0.50624491  0.03405986  1
  Na  Na5  1  0.96752556  0.18419522  0.52214488  1
  Na  Na6  1  0.38873830  0.12418883  0.34924305  1
  Na  Na7  1  0.17393261  0.85372967  0.09696452  1
  Co  Co0  1  0.28070180  0.10455299  0.78095473  1
  Co  Co1  1  0.71988375  0.88763804  0.22397561  1
  Co  Co2  1  0.64309180  0.49928208  0.26565268  1
  Co  Co3  1  0.36305145  0.49328081  0.74028850  1
  P  P0  1  0.11953378  0.54491539  0.31578730  1
  P  P1  1  0.88278162  0.44521727  0.69008279  1
  P  P2  1  0.92159856  0.17817434  0.20905331  1
  P  P3  1  0.42317007  0.29668576  0.54345545  1
  P  P4  1  0.70712248  0.80587138  0.96281036  1
  P  P5  1  0.07942762  0.81653045  0.79162937  1
  P  P6  1  0.57930562  0.69694535  0.46133844  1
  P  P7  1  0.29875735  0.18344846  0.04116509  1
  O  O0  1  0.22681827  0.10134812  0.96690850  1
  O  O1  1  0.72168690  0.32117056  0.18563659  1
  O  O2  1  0.08445647  0.27041711  0.09831868  1
  O  O3  1  0.30771488  0.53800479  0.22410308  1
  O  O4  1  0.96762905  0.45541166  0.30544540  1
  O  O5  1  0.01618157  0.71801105  0.29968172  1
  O  O6  1  0.28281131  0.67905431  0.80875929  1
  O  O7  1  0.35839426  0.14444668  0.56252423  1
  O  O8  1  0.03636190  0.09713265  0.34681531  1
  O  O9  1  0.78308525  0.54507653  0.53748956  1
  O  O10  1  0.62111664  0.66296926  0.04948654  1
  O  O11  1  0.88598153  0.05996073  0.15867576  1
  O  O12  1  0.44388123  0.29175241  0.68408974  1
  O  O13  1  0.61433355  0.31778700  0.45808020  1
  O  O14  1  0.95860810  0.89791611  0.65565196  1
  O  O15  1  0.03482635  0.52850063  0.71197587  1
  O  O16  1  0.77780684  0.88615430  0.03904285  1
  O  O17  1  0.63924143  0.85118133  0.44131962  1
  O  O18  1  0.38786651  0.32251493  0.94992662  1
  O  O19  1  0.38873022  0.67288345  0.54660175  1
  O  O20  1  0.56291184  0.69851987  0.32185931  1
  O  O21  1  0.92400957  0.72077632  0.90543310  1
  O  O22  1  0.43800445  0.06334806  0.16844237  1
  O  O23  1  0.11387060  0.93410386  0.84330786  1
  O  O24  1  0.56734972  0.92904021  0.83638156  1
  O  O25  1  0.69501139  0.45097909  0.78293224  1
  O  O26  1  0.22356296  0.45179297  0.46890597  1
  O  O27  1  0.98410930  0.27361693  0.70301216  1
loop_
_geom_bond_atom_site_label_1
_geom_bond_atom_site_label_2
_geom_bond_distance
_geom_bond_site_symmetry_2
Na0 O16 2.337543 1_546
Na0 O27 2.433783 1_555
Na0 O25 2.515152 1_555
Na0 O23 2.726999 1_645
Na0 O11 2.798441 1_556
Na0 O18 2.837157 1_555
Na0 O12 2.871200 1_555
Na0 O0 2.960687 1_655
Na1 O24 2.297246 1_555
Na1 O14 2.401457 1_555
Na1 O7 2.406964 1_565
Na1 O17 2.419468 1_555
Na2 O19 2.311974 1_555
Na2 O14 2.399499 1_455
Na2 O8 2.473404 1_565
Na2 O5 2.524910 1_555
Na2 O17 2.547779 1_455
Na2 O15 2.840499 1_555
Na3 O2 2.267916 1_656
Na3 O21 2.278499 1_555
Na3 O25 2.312675 1_555
Na3 O10 2.495635 1_556
Na3 O1 2.647542 1_556
Na3 O15 2.720440 1_655
Na4 O3 2.261324 1_555
Na4 O18 2.321473 1_554
Na4 O6 2.350061 1_554
Na4 O10 2.453139 1_555
Na4 O1 2.522773 1_555
Na5 O13 2.291957 1_555
Na5 O8 2.388288 1_655
Na5 O14 2.507623 1_545
Na5 O27 2.509260 1_555
Na5 O7 2.520766 1_655
Na5 O4 2.674186 1_555
Na6 O22 2.289843 1_555
Na6 O8 2.396566 1_555
Na6 O7 2.439828 1_555
Na6 O17 2.460452 1_545
Na7 O0 2.295914 1_564
Na7 O5 2.393424 1_555
Na7 O11 2.598245 1_465
Na7 O23 2.601613 1_554
Na7 O16 2.615282 1_455
Na7 O3 2.623338 1_555
Co0 O24 2.048841 1_545
Co0 O0 2.052142 1_555
Co0 O23 2.065518 1_545
Co0 O27 2.092821 1_455
Co0 O12 2.185297 1_555
Co0 O7 2.323264 1_555
Co1 O22 2.027836 1_565
Co1 O16 2.060552 1_555
Co1 O11 2.075132 1_565
Co1 O5 2.089694 1_655
Co1 O20 2.172592 1_555
Co1 O17 2.322860 1_555
Co2 O4 2.085767 1_555
Co2 O13 2.132786 1_555
Co2 O1 2.160816 1_555
Co2 O20 2.163721 1_555
Co2 O3 2.168684 1_555
Co2 O10 2.216169 1_555
Co3 O15 2.102685 1_555
Co3 O19 2.129644 1_555
Co3 O6 2.135874 1_555
Co3 O25 2.142475 1_555
Co3 O18 2.176418 1_555
Co3 O12 2.183975 1_555
O0 P7 1.526313 1_556
O1 P2 1.539941 1_555
O2 P7 1.648374 1_555
O2 P2 1.685773 1_455
O3 P0 1.544385 1_555
O4 P0 1.522472 1_655
O5 P0 1.533160 1_555
O6 P5 1.535832 1_555
O7 P3 1.554310 1_555
O8 P2 1.519984 1_455
O9 P6 1.613884 1_555
O9 P1 1.616237 1_555
O10 P4 1.530493 1_554
O11 P2 1.532289 1_555
O12 P3 1.551627 1_555
O13 P3 1.520740 1_555
O14 P5 1.520844 1_655
O15 P1 1.527511 1_455
O16 P4 1.525067 1_554
O17 P6 1.553082 1_555
O18 P7 1.528336 1_556
O19 P6 1.520097 1_555
O20 P6 1.548614 1_555
O21 P4 1.653823 1_555
O21 P5 1.679833 1_655
O22 P7 1.528211 1_555
O23 P5 1.533594 1_555
O24 P4 1.529543 1_555
O25 P1 1.549366 1_555
O26 P3 1.608348 1_555
O26 P0 1.629903 1_555
O27 P1 1.529778 1_555
