# generated using pymatgen
data_Mg14GaMo
_symmetry_space_group_name_H-M   'P 1'
_cell_length_a   6.23568066
_cell_length_b   6.17383820
_cell_length_c   10.14461924
_cell_angle_alpha   90.00000000
_cell_angle_beta   90.00000000
_cell_angle_gamma   119.67247497
_symmetry_Int_Tables_number   1
_chemical_formula_structural   Mg14GaMo
_chemical_formula_sum   'Mg14 Ga1 Mo1'
_cell_volume   339.33556569
_cell_formula_units_Z   1
loop_
 _symmetry_equiv_pos_site_id
 _symmetry_equiv_pos_as_xyz
  1  'x, y, z'
loop_
 _atom_site_type_symbol
 _atom_site_label
 _atom_site_symmetry_multiplicity
 _atom_site_fract_x
 _atom_site_fract_y
 _atom_site_fract_z
 _atom_site_occupancy
  Mg  Mg0  1  0.16671770  0.33335835  0.62500000  1
  Mg  Mg1  1  0.16757053  0.83378477  0.62500000  1
  Mg  Mg2  1  0.66842436  0.33293378  0.12500000  1
  Mg  Mg3  1  0.66503682  0.33192932  0.62500000  1
  Mg  Mg4  1  0.66842436  0.83548958  0.12500000  1
  Mg  Mg5  1  0.66503682  0.83310650  0.62500000  1
  Mg  Mg6  1  0.32766217  0.16822617  0.36295219  1
  Mg  Mg7  1  0.32766217  0.16822617  0.88704781  1
  Mg  Mg8  1  0.32766217  0.65943700  0.36295219  1
  Mg  Mg9  1  0.32766217  0.65943700  0.88704781  1
  Mg  Mg10  1  0.84356510  0.17178305  0.36799966  1
  Mg  Mg11  1  0.84356510  0.17178305  0.88200034  1
  Mg  Mg12  1  0.83687206  0.66843653  0.37369679  1
  Mg  Mg13  1  0.83687206  0.66843653  0.87630321  1
  Ga  Ga0  1  0.16363104  0.83181502  0.12500000  1
  Mo  Mo0  1  0.16363539  0.33181719  0.12500000  1
loop_
_geom_bond_atom_site_label_1
_geom_bond_atom_site_label_2
_geom_bond_distance
_geom_bond_site_symmetry_2
Mg0 Mg1 3.086923 1_545
Mg0 Mg1 3.086923 1_555
Mg0 Mg5 3.111736 1_555
Mg0 Mg3 3.111736 1_555
Mg0 Mg5 3.123963 1_445
Mg0 Mg3 3.123964 1_455
Mg0 Mg10 3.140505 1_455
Mg0 Mg11 3.140505 1_455
Mg0 Mg6 3.182227 1_555
Mg0 Mg7 3.182227 1_555
Mg0 Mg9 3.182233 1_555
Mg0 Mg8 3.182233 1_555
Mg1 Mg3 3.104116 1_565
Mg1 Mg5 3.104116 1_555
Mg1 Mg12 3.116020 1_455
Mg1 Mg13 3.116020 1_455
Mg1 Mg3 3.131569 1_455
Mg1 Mg5 3.131569 1_455
Mg1 Mg9 3.207185 1_555
Mg1 Mg8 3.207185 1_555
Mg1 Mg6 3.207191 1_565
Mg1 Mg7 3.207191 1_565
Mg2 Mg6 3.039232 1_555
Mg2 Mg7 3.039232 1_554
Mg2 Mg4 3.071140 1_545
Mg2 Mo0 3.091396 1_655
Mg2 Mg4 3.102698 1_555
Mg2 Mo0 3.144296 1_555
Mg3 Mg5 3.079651 1_545
Mg3 Mg5 3.094187 1_555
Mg3 Mg7 3.226314 1_555
Mg3 Mg6 3.226314 1_555
Mg4 Mg9 3.039232 1_554
Mg4 Mg8 3.039232 1_555
Mg4 Mo0 3.091396 1_665
Mg4 Mo0 3.144296 1_555
Mg5 Mg9 3.226314 1_555
Mg5 Mg8 3.226314 1_555
Mg6 Mo0 2.985983 1_555
Mg7 Mo0 2.985983 1_556
Mg8 Mo0 2.985989 1_555
Mg9 Mo0 2.985989 1_556
Mg10 Mo0 3.013992 1_655
Mg10 Mg2 3.055372 1_555
Mg10 Mg4 3.055378 1_545
Mg10 Mg12 3.087673 1_545
Mg10 Mg12 3.087673 1_555
Mg10 Mg3 3.178676 1_555
Mg10 Mg5 3.178682 1_545
Mg11 Mo0 3.013992 1_656
Mg11 Mg2 3.055372 1_556
Mg11 Mg4 3.055378 1_546
Mg11 Mg13 3.087673 1_545
Mg11 Mg13 3.087673 1_555
Mg11 Mg3 3.178676 1_555
Mg11 Mg5 3.178682 1_545
Mg12 Mg6 3.090216 1_665
Mg12 Mg8 3.090216 1_655
Mg12 Mg4 3.099159 1_555
Mg12 Mg2 3.099166 1_555
Mg12 Mg5 3.124029 1_555
Mg12 Mg3 3.124035 1_555
Mg12 Mg6 3.150021 1_555
Mg12 Mg8 3.150022 1_555
Mg13 Mg7 3.090216 1_665
Mg13 Mg9 3.090216 1_655
Mg13 Mg4 3.099159 1_556
Mg13 Mg2 3.099166 1_556
Mg13 Mg5 3.124029 1_555
Mg13 Mg3 3.124035 1_555
Mg13 Mg7 3.150021 1_555
Mg13 Mg9 3.150022 1_555
Ga0 Mg9 3.013907 1_554
Ga0 Mg8 3.013907 1_555
Ga0 Mg6 3.013914 1_565
Ga0 Mg7 3.013914 1_564
Ga0 Mg12 3.082115 1_455
Ga0 Mg13 3.082115 1_454
Ga0 Mo0 3.086919 1_565
Ga0 Mo0 3.086919 1_555
Ga0 Mg2 3.099244 1_455
Ga0 Mg4 3.099244 1_455
Ga0 Mg2 3.136561 1_565
Ga0 Mg4 3.136561 1_555
