# generated using pymatgen
data_Sm2CoTe2(SO7)2
_symmetry_space_group_name_H-M   'P 1'
_cell_length_a   5.37170000
_cell_length_b   8.02474457
_cell_length_c   8.29764894
_cell_angle_alpha   115.65687449
_cell_angle_beta   107.09460781
_cell_angle_gamma   86.20475220
_symmetry_Int_Tables_number   1
_chemical_formula_structural   Sm2CoTe2(SO7)2
_chemical_formula_sum   'Sm2 Co1 Te2 S2 O14'
_cell_volume   307.39677239
_cell_formula_units_Z   1
loop_
 _symmetry_equiv_pos_site_id
 _symmetry_equiv_pos_as_xyz
  1  'x, y, z'
loop_
 _atom_site_type_symbol
 _atom_site_label
 _atom_site_symmetry_multiplicity
 _atom_site_fract_x
 _atom_site_fract_y
 _atom_site_fract_z
 _atom_site_occupancy
  Sm  Sm0  1  0.08966600  0.25113500  0.98397700  1
  Sm  Sm1  1  0.91033400  0.74886500  0.01602300  1
  Co  Co0  1  0.00000000  0.00000000  0.50000000  1
  Te  Te0  1  0.52097200  0.26796500  0.65869800  1
  Te  Te1  1  0.47902800  0.73203500  0.34130200  1
  S  S0  1  0.77524300  0.24607100  0.25143100  1
  S  S1  1  0.22475700  0.75392900  0.74856900  1
  O  O0  1  0.91609700  0.40319900  0.25825100  1
  O  O1  1  0.08390300  0.59680100  0.74174900  1
  O  O2  1  0.87631300  0.22314100  0.42571100  1
  O  O3  1  0.12368700  0.77685900  0.57428900  1
  O  O4  1  0.49175000  0.27406900  0.21775100  1
  O  O5  1  0.50825000  0.72593100  0.78224900  1
  O  O6  1  0.82239700  0.07762000  0.08784600  1
  O  O7  1  0.17760300  0.92238000  0.91215400  1
  O  O8  1  0.75082600  0.43395800  0.89255100  1
  O  O9  1  0.24917400  0.56604200  0.10744900  1
  O  O10  1  0.27938600  0.18984700  0.74459700  1
  O  O11  1  0.72061400  0.81015300  0.25540300  1
  O  O12  1  0.75305500  0.07686700  0.66435200  1
  O  O13  1  0.24694500  0.92313300  0.33564800  1
loop_
_geom_bond_atom_site_label_1
_geom_bond_atom_site_label_2
_geom_bond_distance
_geom_bond_site_symmetry_2
Co0 O12 2.055883 1_455
Co0 O13 2.055883 1_545
Co0 O10 2.127651 1_555
Co0 O11 2.127651 1_445
Co0 O2 2.141358 1_455
Co0 O3 2.141358 1_545
O0 S0 1.484897 1_555
O0 Sm0 2.495941 1_654
O1 S1 1.484897 1_555
O1 Sm1 2.495941 1_456
O2 S0 1.474956 1_555
O3 S1 1.474956 1_555
O4 S0 1.485429 1_555
O4 Sm0 2.396252 1_554
O5 S1 1.485429 1_555
O5 Sm1 2.396252 1_556
O6 S0 1.517168 1_555
O6 Sm1 2.485416 1_545
O6 Sm0 2.602720 1_654
O7 S1 1.517168 1_555
O7 Sm0 2.485416 1_565
O7 Sm1 2.602720 1_456
O8 Te0 1.906576 1_555
O8 Sm1 2.387120 1_556
O8 Sm0 2.416477 1_655
O9 Te1 1.906576 1_555
O9 Sm0 2.387120 1_554
O9 Sm1 2.416477 1_455
O10 Te0 1.903551 1_555
O10 Sm0 2.345976 1_555
O11 Te1 1.903551 1_555
O11 Sm1 2.345976 1_555
O12 Te0 1.919089 1_555
O12 Sm0 2.561775 1_655
O13 Te1 1.919089 1_555
O13 Sm1 2.561775 1_455
