# generated using pymatgen
data_AlVFe2
_symmetry_space_group_name_H-M   'P 1'
_cell_length_a   2.87389500
_cell_length_b   2.87389500
_cell_length_c   5.69262400
_cell_angle_alpha   90.00000000
_cell_angle_beta   90.00000000
_cell_angle_gamma   90.00000000
_symmetry_Int_Tables_number   1
_chemical_formula_structural   AlVFe2
_chemical_formula_sum   'Al1 V1 Fe2'
_cell_volume   47.01693269
_cell_formula_units_Z   1
loop_
 _symmetry_equiv_pos_site_id
 _symmetry_equiv_pos_as_xyz
  1  'x, y, z'
loop_
 _atom_site_type_symbol
 _atom_site_label
 _atom_site_symmetry_multiplicity
 _atom_site_fract_x
 _atom_site_fract_y
 _atom_site_fract_z
 _atom_site_occupancy
  Al  Al0  1  0.50000000  0.50000000  0.00000000  1
  V  V0  1  0.50000000  0.50000000  0.50000000  1
  Fe  Fe0  1  0.00000000  0.00000000  0.74092900  1
  Fe  Fe1  1  0.00000000  0.00000000  0.25907100  1
loop_
_geom_bond_atom_site_label_1
_geom_bond_atom_site_label_2
_geom_bond_distance
_geom_bond_site_symmetry_2
Al0 Fe1 2.510907 1_555
Al0 Fe1 2.510907 1_565
Al0 Fe1 2.510907 1_655
Al0 Fe1 2.510907 1_665
Al0 Fe0 2.510907 1_554
Al0 Fe0 2.510907 1_664
Al0 Fe0 2.510907 1_564
Al0 Fe0 2.510907 1_654
Fe0 V0 2.451673 1_545
Fe0 V0 2.451673 1_555
Fe0 V0 2.451673 1_455
Fe0 V0 2.451673 1_445
Fe1 V0 2.451673 1_545
Fe1 V0 2.451673 1_555
Fe1 V0 2.451673 1_455
Fe1 V0 2.451673 1_445
