# generated using pymatgen
data_Y(CoB)4
_symmetry_space_group_name_H-M   'P 1'
_cell_length_a   4.99895000
_cell_length_b   4.99895000
_cell_length_c   6.97967500
_cell_angle_alpha   90.00000000
_cell_angle_beta   90.00000000
_cell_angle_gamma   90.00000000
_symmetry_Int_Tables_number   1
_chemical_formula_structural   Y(CoB)4
_chemical_formula_sum   'Y2 Co8 B8'
_cell_volume   174.41859611
_cell_formula_units_Z   2
loop_
 _symmetry_equiv_pos_site_id
 _symmetry_equiv_pos_as_xyz
  1  'x, y, z'
loop_
 _atom_site_type_symbol
 _atom_site_label
 _atom_site_symmetry_multiplicity
 _atom_site_fract_x
 _atom_site_fract_y
 _atom_site_fract_z
 _atom_site_occupancy
  Y  Y0  1  0.75000000  0.25000000  0.25000000  1
  Y  Y1  1  0.25000000  0.75000000  0.75000000  1
  Co  Co0  1  0.00411800  0.75000000  0.11232000  1
  Co  Co1  1  0.49588200  0.75000000  0.11232000  1
  Co  Co2  1  0.75000000  0.00411800  0.61232000  1
  Co  Co3  1  0.75000000  0.49588200  0.61232000  1
  Co  Co4  1  0.99588200  0.25000000  0.88768000  1
  Co  Co5  1  0.50411800  0.25000000  0.88768000  1
  Co  Co6  1  0.25000000  0.99588200  0.38768000  1
  Co  Co7  1  0.25000000  0.50411800  0.38768000  1
  B  B0  1  0.57518300  0.75000000  0.40768700  1
  B  B1  1  0.92481700  0.75000000  0.40768700  1
  B  B2  1  0.75000000  0.57518300  0.90768700  1
  B  B3  1  0.75000000  0.92481700  0.90768700  1
  B  B4  1  0.42481700  0.25000000  0.59231300  1
  B  B5  1  0.07518300  0.25000000  0.59231300  1
  B  B6  1  0.25000000  0.42481700  0.09231300  1
  B  B7  1  0.25000000  0.07518300  0.09231300  1
loop_
_geom_bond_atom_site_label_1
_geom_bond_atom_site_label_2
_geom_bond_distance
_geom_bond_site_symmetry_2
Co0 Y1 2.811766 1_554
Co0 Y0 2.963873 1_455
Co0 Y0 2.963873 1_465
Co1 Y1 2.811766 1_554
Co1 Y0 2.963873 1_555
Co1 Y0 2.963873 1_565
Co2 Y0 2.811766 1_555
Co2 Y1 2.963873 1_645
Co2 Y1 2.963873 1_545
Co3 Y0 2.811766 1_555
Co3 Y1 2.963873 1_655
Co3 Y1 2.963873 1_555
Co4 Y0 2.811766 1_556
Co4 Y1 2.963873 1_655
Co4 Y1 2.963873 1_645
Co5 Y0 2.811766 1_556
Co5 Y1 2.963873 1_545
Co5 Y1 2.963873 1_555
Co6 Y1 2.811766 1_555
Co6 Y0 2.963873 1_565
Co6 Y0 2.963873 1_465
Co7 Y1 2.811766 1_555
Co7 Y0 2.963873 1_455
Co7 Y0 2.963873 1_555
B0 B1 1.747803 1_555
B0 Co6 2.042744 1_555
B0 Co7 2.042744 1_555
B0 Co1 2.099334 1_555
B0 Co3 2.101758 1_555
B0 Co2 2.101758 1_565
B0 Y0 2.867474 1_555
B0 Y0 2.867474 1_565
B0 Y1 2.889797 1_555
B1 Co7 2.042744 1_655
B1 Co6 2.042744 1_655
B1 Co0 2.099334 1_655
B1 Co3 2.101758 1_555
B1 Co2 2.101758 1_565
B1 Y0 2.867474 1_555
B1 Y0 2.867474 1_565
B1 Y1 2.889797 1_655
B2 B3 1.747803 1_555
B2 Co4 2.042744 1_555
B2 Co5 2.042744 1_555
B2 Co3 2.099334 1_555
B2 Co1 2.101758 1_556
B2 Co0 2.101758 1_656
B2 Y1 2.867474 1_555
B2 Y1 2.867474 1_655
B2 Y0 2.889797 1_556
B3 Co5 2.042744 1_565
B3 Co4 2.042744 1_565
B3 Co2 2.099334 1_565
B3 Co1 2.101758 1_556
B3 Co0 2.101758 1_656
B3 Y1 2.867474 1_555
B3 Y1 2.867474 1_655
B3 Y0 2.889797 1_566
B4 B5 1.747803 1_555
B4 Co3 2.042744 1_555
B4 Co2 2.042744 1_555
B4 Co5 2.099334 1_555
B4 Co7 2.101758 1_555
B4 Co6 2.101758 1_545
B4 Y1 2.867474 1_555
B4 Y1 2.867474 1_545
B4 Y0 2.889797 1_555
B5 Co3 2.042744 1_455
B5 Co2 2.042744 1_455
B5 Co4 2.099334 1_455
B5 Co7 2.101758 1_555
B5 Co6 2.101758 1_545
B5 Y1 2.867474 1_555
B5 Y1 2.867474 1_545
B5 Y0 2.889797 1_455
B6 B7 1.747803 1_555
B6 Co0 2.042744 1_555
B6 Co1 2.042744 1_555
B6 Co7 2.099334 1_555
B6 Co5 2.101758 1_554
B6 Co4 2.101758 1_454
B6 Y0 2.867474 1_455
B6 Y0 2.867474 1_555
B6 Y1 2.889797 1_554
B7 Co1 2.042744 1_545
B7 Co0 2.042744 1_545
B7 Co6 2.099334 1_545
B7 Co5 2.101758 1_554
B7 Co4 2.101758 1_454
B7 Y0 2.867474 1_455
B7 Y0 2.867474 1_555
B7 Y1 2.889797 1_544
