# generated using pymatgen
data_Cr5Se8
_symmetry_space_group_name_H-M   'P 1'
_cell_length_a   6.87357173
_cell_length_b   6.87395374
_cell_length_c   7.25711230
_cell_angle_alpha   104.44308362
_cell_angle_beta   106.08019461
_cell_angle_gamma   116.36922775
_symmetry_Int_Tables_number   1
_chemical_formula_structural   Cr5Se8
_chemical_formula_sum   'Cr5 Se8'
_cell_volume   266.13762134
_cell_formula_units_Z   1
loop_
 _symmetry_equiv_pos_site_id
 _symmetry_equiv_pos_as_xyz
  1  'x, y, z'
loop_
 _atom_site_type_symbol
 _atom_site_label
 _atom_site_symmetry_multiplicity
 _atom_site_fract_x
 _atom_site_fract_y
 _atom_site_fract_z
 _atom_site_occupancy
  Cr  Cr0  1  -0.00000000  -0.00000000  0.00000000  1
  Cr  Cr1  1  0.25998709  0.73024570  0.99028584  1
  Cr  Cr2  1  0.74001291  0.26975430  0.00971416  1
  Cr  Cr3  1  0.77030092  0.27031096  0.49998015  1
  Cr  Cr4  1  0.22969908  0.72968904  0.50001985  1
  Se  Se0  1  0.30021660  0.02198390  0.32225327  1
  Se  Se1  1  0.69978340  0.97801610  0.67774673  1
  Se  Se2  1  0.78729352  0.54557147  0.33287379  1
  Se  Se3  1  0.21270648  0.45442853  0.66712621  1
  Se  Se4  1  0.19802468  0.45375892  0.16966386  1
  Se  Se5  1  0.71587260  0.97166361  0.16963389  1
  Se  Se6  1  0.80197532  0.54624108  0.83033614  1
  Se  Se7  1  0.28412740  0.02833639  0.83036611  1
loop_
_geom_bond_atom_site_label_1
_geom_bond_atom_site_label_2
_geom_bond_distance
_geom_bond_site_symmetry_2
Cr0 Se7 2.545794 1_554
Cr0 Se5 2.545794 1_445
Cr0 Se6 2.545995 1_444
Cr0 Se4 2.545995 1_555
Cr0 Se0 2.573639 1_555
Cr0 Se1 2.573639 1_444
Cr1 Se3 2.452075 1_555
Cr1 Se4 2.512043 1_556
Cr1 Se5 2.512183 1_556
Cr1 Se7 2.562027 1_565
Cr1 Se6 2.562087 1_455
Cr1 Se0 2.574941 1_566
Cr2 Se2 2.452075 1_555
Cr2 Se6 2.512043 1_554
Cr2 Se7 2.512183 1_554
Cr2 Se5 2.562027 1_545
Cr2 Se4 2.562087 1_655
Cr2 Se1 2.574941 1_544
Cr3 Se2 2.468043 1_555
Cr3 Se3 2.468264 1_655
Cr3 Se5 2.543134 1_545
Cr3 Se6 2.543293 1_555
Cr3 Se1 2.590461 1_545
Cr3 Se0 2.590622 1_555
Cr4 Se3 2.468043 1_555
Cr4 Se2 2.468264 1_455
Cr4 Se7 2.543134 1_565
Cr4 Se4 2.543293 1_555
Cr4 Se0 2.590461 1_565
Cr4 Se1 2.590622 1_555
