# generated using pymatgen
data_Li6Ti2O7
_symmetry_space_group_name_H-M   'P 1'
_cell_length_a   5.86292600
_cell_length_b   5.13627300
_cell_length_c   9.94922993
_cell_angle_alpha   69.14492180
_cell_angle_beta   90.00000000
_cell_angle_gamma   90.00000000
_symmetry_Int_Tables_number   1
_chemical_formula_structural   Li6Ti2O7
_chemical_formula_sum   'Li12 Ti4 O14'
_cell_volume   279.97792729
_cell_formula_units_Z   2
loop_
 _symmetry_equiv_pos_site_id
 _symmetry_equiv_pos_as_xyz
  1  'x, y, z'
loop_
 _atom_site_type_symbol
 _atom_site_label
 _atom_site_symmetry_multiplicity
 _atom_site_fract_x
 _atom_site_fract_y
 _atom_site_fract_z
 _atom_site_occupancy
  Li  Li0  1  0.78334500  0.22594000  0.13597600  1
  Li  Li1  1  0.22946400  0.23241800  0.13221500  1
  Li  Li2  1  0.50261300  0.81507300  0.12860300  1
  Li  Li3  1  0.00261300  0.18492700  0.37139700  1
  Li  Li4  1  0.72946400  0.76758200  0.36778500  1
  Li  Li5  1  0.28334500  0.77406000  0.36402400  1
  Li  Li6  1  0.71665500  0.22594000  0.63597600  1
  Li  Li7  1  0.27053600  0.23241800  0.63221500  1
  Li  Li8  1  0.99738700  0.81507300  0.62860300  1
  Li  Li9  1  0.49738700  0.18492700  0.87139700  1
  Li  Li10  1  0.77053600  0.76758200  0.86778500  1
  Li  Li11  1  0.21665500  0.77406000  0.86402400  1
  Ti  Ti0  1  0.00589400  0.73865900  0.13538400  1
  Ti  Ti1  1  0.50589400  0.26134100  0.36461600  1
  Ti  Ti2  1  0.49410600  0.73865900  0.63538400  1
  Ti  Ti3  1  0.99410600  0.26134100  0.86461600  1
  O  O0  1  0.00000000  0.50000000  0.00000000  1
  O  O1  1  0.77250900  0.99536400  0.00204700  1
  O  O2  1  0.50641400  0.05327600  0.24513500  1
  O  O3  1  0.26262600  0.50627000  0.24461600  1
  O  O4  1  0.76262600  0.49373000  0.25538400  1
  O  O5  1  0.00641400  0.94672400  0.25486500  1
  O  O6  1  0.27250900  0.00463600  0.49795300  1
  O  O7  1  0.50000000  0.50000000  0.50000000  1
  O  O8  1  0.72749100  0.99536400  0.50204700  1
  O  O9  1  0.99358600  0.05327600  0.74513500  1
  O  O10  1  0.23737400  0.50627000  0.74461600  1
  O  O11  1  0.73737400  0.49373000  0.75538400  1
  O  O12  1  0.49358600  0.94672400  0.75486500  1
  O  O13  1  0.22749100  0.00463600  0.99795300  1
loop_
_geom_bond_atom_site_label_1
_geom_bond_atom_site_label_2
_geom_bond_distance
_geom_bond_site_symmetry_2
Li0 O2 1.978985 1_555
Li0 O5 1.989592 1_645
Li0 O0 2.017242 1_655
Li0 O1 2.075028 1_545
Li0 O4 2.116942 1_555
Li1 O2 2.002324 1_555
Li1 O5 2.019290 1_545
Li1 O0 2.035177 1_555
Li1 O13 2.065439 1_554
Li1 O3 2.094480 1_555
Li2 O2 1.962548 1_565
Li2 O1 2.028958 1_555
Li2 O13 2.082870 1_564
Li2 O3 2.127014 1_555
Li2 O4 2.270859 1_555
Li3 O5 1.962548 1_545
Li3 O6 2.028958 1_555
Li3 O8 2.082870 1_445
Li3 O4 2.127014 1_455
Li3 O3 2.270859 1_555
Li4 O5 2.002324 1_655
Li4 O2 2.019290 1_565
Li4 O7 2.035177 1_555
Li4 O8 2.065439 1_555
Li4 O4 2.094480 1_555
Li5 O5 1.978985 1_555
Li5 O2 1.989592 1_565
Li5 O7 2.017242 1_555
Li5 O6 2.075028 1_565
Li5 O3 2.116942 1_555
Li6 O9 1.978985 1_555
Li6 O12 1.989592 1_545
Li6 O7 2.017242 1_555
Li6 O8 2.075028 1_545
Li6 O11 2.116942 1_555
Li7 O9 2.002324 1_455
Li7 O12 2.019290 1_545
Li7 O7 2.035177 1_555
Li7 O6 2.065439 1_555
Li7 O10 2.094480 1_555
Li8 O9 1.962548 1_565
Li8 O8 2.028958 1_555
Li8 O6 2.082870 1_665
Li8 O10 2.127014 1_655
Li8 O11 2.270859 1_555
Li9 O12 1.962548 1_545
Li9 O13 2.028958 1_555
Li9 O1 2.082870 1_546
Li9 O11 2.127014 1_555
Li9 O10 2.270859 1_555
Li10 O12 2.002324 1_555
Li10 O9 2.019290 1_565
Li10 O0 2.035177 1_656
Li10 O1 2.065439 1_556
Li10 O11 2.094480 1_555
Li11 O12 1.978985 1_555
Li11 O9 1.989592 1_465
Li11 O0 2.017242 1_556
Li11 O13 2.075028 1_565
Li11 O10 2.116942 1_555
O0 Ti0 2.119851 1_555
O0 Ti3 2.119851 1_454
O1 Ti3 2.023325 1_564
O1 Ti0 2.031065 1_655
O2 Ti1 1.860033 1_555
O3 Ti0 1.986909 1_555
O3 Ti1 1.993200 1_555
O4 Ti1 1.986909 1_555
O4 Ti0 1.993200 1_655
O5 Ti0 1.860033 1_555
O6 Ti2 2.023325 1_545
O6 Ti1 2.031065 1_555
O7 Ti2 2.119851 1_555
O7 Ti1 2.119851 1_555
O8 Ti1 2.023325 1_565
O8 Ti2 2.031065 1_555
O9 Ti3 1.860033 1_555
O10 Ti2 1.986909 1_555
O10 Ti3 1.993200 1_455
O11 Ti3 1.986909 1_555
O11 Ti2 1.993200 1_555
O12 Ti2 1.860033 1_555
O13 Ti0 2.023325 1_546
O13 Ti3 2.031065 1_455
