# generated using pymatgen
data_BaSrYNbO6
_symmetry_space_group_name_H-M   'P 1'
_cell_length_a   8.45782102
_cell_length_b   8.46407170
_cell_length_c   8.46703243
_cell_angle_alpha   90.00000000
_cell_angle_beta   90.00000000
_cell_angle_gamma   90.00000000
_symmetry_Int_Tables_number   1
_chemical_formula_structural   BaSrYNbO6
_chemical_formula_sum   'Ba4 Sr4 Y4 Nb4 O24'
_cell_volume   606.13456075
_cell_formula_units_Z   4
loop_
 _symmetry_equiv_pos_site_id
 _symmetry_equiv_pos_as_xyz
  1  'x, y, z'
loop_
 _atom_site_type_symbol
 _atom_site_label
 _atom_site_symmetry_multiplicity
 _atom_site_fract_x
 _atom_site_fract_y
 _atom_site_fract_z
 _atom_site_occupancy
  Ba  Ba0  1  -0.00000000  -0.00000000  0.00000000  1
  Ba  Ba1  1  0.50000000  0.50000000  0.50000000  1
  Ba  Ba2  1  0.50000000  0.00000000  0.00000000  1
  Ba  Ba3  1  0.00000000  -0.00000000  0.50000000  1
  Sr  Sr0  1  -0.00000000  0.50000000  0.50000000  1
  Sr  Sr1  1  0.50000000  -0.00000000  0.50000000  1
  Sr  Sr2  1  0.50000000  0.50000000  0.00000000  1
  Sr  Sr3  1  0.00000000  0.50000000  -0.00000000  1
  Y  Y0  1  0.25060855  0.25271772  0.25020219  1
  Y  Y1  1  0.74939145  0.74728228  0.25020219  1
  Y  Y2  1  0.74939145  0.25271772  0.74979781  1
  Y  Y3  1  0.25060855  0.74728228  0.74979781  1
  Nb  Nb0  1  0.75066862  0.74631479  0.74913893  1
  Nb  Nb1  1  0.24933138  0.25368521  0.74913893  1
  Nb  Nb2  1  0.24933138  0.74631479  0.25086107  1
  Nb  Nb3  1  0.75066862  0.25368521  0.25086107  1
  O  O0  1  0.98659951  0.22964715  0.27265210  1
  O  O1  1  0.01340049  0.77035285  0.27265210  1
  O  O2  1  0.01340049  0.22964715  0.72734790  1
  O  O3  1  0.98659951  0.77035285  0.72734790  1
  O  O4  1  0.27026673  0.98518125  0.22787757  1
  O  O5  1  0.27026673  0.01481875  0.77212243  1
  O  O6  1  0.72973327  0.01481875  0.22787757  1
  O  O7  1  0.72973327  0.98518125  0.77212243  1
  O  O8  1  0.21978517  0.28196410  0.98621053  1
  O  O9  1  0.78021483  0.28196410  0.01378947  1
  O  O10  1  0.21978517  0.71803590  0.01378947  1
  O  O11  1  0.78021483  0.71803590  0.98621053  1
  O  O12  1  0.51462016  0.28648975  0.21692422  1
  O  O13  1  0.48537984  0.71351025  0.21692422  1
  O  O14  1  0.48537984  0.28648975  0.78307578  1
  O  O15  1  0.51462016  0.71351025  0.78307578  1
  O  O16  1  0.21765259  0.51319976  0.28720951  1
  O  O17  1  0.21765259  0.48680024  0.71279049  1
  O  O18  1  0.78234741  0.48680024  0.28720951  1
  O  O19  1  0.78234741  0.51319976  0.71279049  1
  O  O20  1  0.28599256  0.22130907  0.51441887  1
  O  O21  1  0.71400744  0.22130907  0.48558113  1
  O  O22  1  0.28599256  0.77869093  0.48558113  1
  O  O23  1  0.71400744  0.77869093  0.51441887  1
loop_
_geom_bond_atom_site_label_1
_geom_bond_atom_site_label_2
_geom_bond_distance
_geom_bond_site_symmetry_2
Ba0 O5 2.993942 1_554
Ba0 O7 2.993942 1_444
Ba0 O6 2.993942 1_455
Ba0 O4 2.993942 1_545
Ba0 O1 3.020005 1_545
Ba0 O0 3.020005 1_455
Ba0 O3 3.020005 1_444
Ba0 O2 3.020005 1_554
Ba0 O8 3.027349 1_554
Ba0 O9 3.027349 1_455
Ba0 O11 3.027349 1_444
Ba0 O10 3.027349 1_545
Ba1 O22 2.975795 1_555
Ba1 O20 2.975795 1_555
Ba1 O23 2.975795 1_555
Ba1 O21 2.975795 1_555
Ba1 O16 2.993555 1_555
Ba1 O18 2.993555 1_555
Ba1 O19 2.993555 1_555
Ba1 O17 2.993555 1_555
Ba1 O14 3.004305 1_555
Ba1 O15 3.004305 1_555
Ba1 O12 3.004305 1_555
Ba1 O13 3.004305 1_555
Ba2 O5 2.741152 1_554
Ba2 O7 2.741152 1_544
Ba2 O6 2.741152 1_555
Ba2 O4 2.741152 1_545
Ba2 O14 3.044465 1_554
Ba2 O13 3.044465 1_545
Ba2 O12 3.044465 1_555
Ba2 O15 3.044465 1_544
Ba3 O3 2.737972 1_445
Ba3 O2 2.737972 1_555
Ba3 O0 2.737972 1_455
Ba3 O1 2.737972 1_545
Ba3 O23 3.061804 1_445
Ba3 O21 3.061804 1_455
Ba3 O22 3.061804 1_545
Ba3 O20 3.061804 1_555
Ba3 O6 3.248024 1_455
Ba3 O7 3.248024 1_445
Ba3 O5 3.248024 1_555
Ba3 O4 3.248024 1_545
Nb0 O3 2.014275 1_555
Nb0 O19 2.014855 1_555
Nb0 O23 2.030007 1_555
Nb0 O15 2.036049 1_555
Nb0 O11 2.036901 1_555
Nb0 O7 2.038830 1_555
Nb1 O2 2.014275 1_555
Nb1 O17 2.014855 1_555
Nb1 O20 2.030007 1_555
Nb1 O14 2.036049 1_555
Nb1 O8 2.036901 1_555
Nb1 O5 2.038830 1_555
Nb2 O1 2.014275 1_555
Nb2 O16 2.014855 1_555
Nb2 O22 2.030007 1_555
Nb2 O13 2.036049 1_555
Nb2 O10 2.036901 1_555
Nb2 O4 2.038830 1_555
Nb3 O0 2.014275 1_555
Nb3 O18 2.014855 1_555
Nb3 O21 2.030007 1_555
Nb3 O12 2.036049 1_555
Nb3 O9 2.036901 1_555
Nb3 O6 2.038830 1_555
O0 Y0 2.249509 1_655
O0 Sr0 2.992420 1_655
O1 Y1 2.249509 1_455
O1 Sr0 2.992420 1_555
O2 Y2 2.249509 1_455
O2 Sr0 2.992420 1_555
O3 Y3 2.249509 1_655
O3 Sr0 2.992420 1_655
O4 Y0 2.278398 1_565
O4 Sr1 3.016601 1_565
O5 Y3 2.278398 1_545
O5 Sr1 3.016601 1_555
O6 Y1 2.278398 1_545
O6 Sr1 3.016601 1_555
O7 Y2 2.278398 1_565
O7 Sr1 3.016601 1_565
O8 Y0 2.263952 1_556
O8 Sr3 2.622007 1_556
O8 Sr2 3.006049 1_556
O9 Y2 2.263952 1_554
O9 Sr3 2.622007 1_655
O9 Sr2 3.006049 1_555
O10 Y3 2.263952 1_554
O10 Sr3 2.622007 1_555
O10 Sr2 3.006049 1_555
O11 Y1 2.263952 1_556
O11 Sr3 2.622007 1_656
O11 Sr2 3.006049 1_556
O12 Y0 2.268750 1_555
O12 Sr2 2.579656 1_555
O13 Y1 2.268750 1_555
O13 Sr2 2.579656 1_555
O14 Y2 2.268750 1_555
O14 Sr2 2.579656 1_556
O15 Y3 2.268750 1_555
O15 Sr2 2.579656 1_556
O16 Y0 2.244270 1_555
O16 Sr0 2.578257 1_555
O16 Sr3 3.052046 1_555
O17 Y3 2.244270 1_555
O17 Sr0 2.578257 1_555
O17 Sr3 3.052046 1_556
O18 Y1 2.244270 1_555
O18 Sr0 2.578257 1_655
O18 Sr3 3.052046 1_655
O19 Y2 2.244270 1_555
O19 Sr0 2.578257 1_655
O19 Sr3 3.052046 1_656
O20 Y0 2.272662 1_555
O20 Sr1 2.607667 1_555
O21 Y2 2.272662 1_555
O21 Sr1 2.607667 1_555
O22 Y3 2.272662 1_555
O22 Sr1 2.607667 1_565
O23 Y1 2.272662 1_555
O23 Sr1 2.607667 1_565
