# generated using pymatgen
data_TaCrP
_symmetry_space_group_name_H-M   'P 1'
_cell_length_a   3.51409876
_cell_length_b   6.24843751
_cell_length_c   7.36148363
_cell_angle_alpha   89.99871438
_cell_angle_beta   90.00000000
_cell_angle_gamma   90.00000000
_symmetry_Int_Tables_number   1
_chemical_formula_structural   TaCrP
_chemical_formula_sum   'Ta4 Cr4 P4'
_cell_volume   161.64070806
_cell_formula_units_Z   4
loop_
 _symmetry_equiv_pos_site_id
 _symmetry_equiv_pos_as_xyz
  1  'x, y, z'
loop_
 _atom_site_type_symbol
 _atom_site_label
 _atom_site_symmetry_multiplicity
 _atom_site_fract_x
 _atom_site_fract_y
 _atom_site_fract_z
 _atom_site_occupancy
  Ta  Ta0  1  0.25000000  0.02979055  0.82821312  1
  Ta  Ta1  1  0.25000000  0.52977130  0.67185137  1
  Ta  Ta2  1  0.75000000  0.97020251  0.17178791  1
  Ta  Ta3  1  0.75000000  0.47024330  0.32814480  1
  Cr  Cr0  1  0.25000000  0.14357923  0.43880827  1
  Cr  Cr1  1  0.25000000  0.64355559  0.06118106  1
  Cr  Cr2  1  0.75000000  0.85640253  0.56118841  1
  Cr  Cr3  1  0.75000000  0.35644244  0.93882445  1
  P  P0  1  0.25000000  0.76950435  0.36842614  1
  P  P1  1  0.25000000  0.26953978  0.13152773  1
  P  P2  1  0.75000000  0.23050027  0.63157703  1
  P  P3  1  0.75000000  0.73046614  0.86846971  1
loop_
_geom_bond_atom_site_label_1
_geom_bond_atom_site_label_2
_geom_bond_distance
_geom_bond_site_symmetry_2
Cr0 P2 2.322925 1_455
Cr0 P2 2.322925 1_555
Cr0 P0 2.394131 1_545
Cr0 P1 2.395038 1_555
Cr1 P3 2.322637 1_454
Cr1 P3 2.322637 1_554
Cr1 P1 2.393691 1_555
Cr1 P0 2.394800 1_555
Cr2 P0 2.322862 1_555
Cr2 P0 2.322862 1_655
Cr2 P2 2.394280 1_565
Cr2 P3 2.394994 1_555
Cr3 P1 2.322589 1_556
Cr3 P1 2.322589 1_656
Cr3 P3 2.393752 1_555
Cr3 P2 2.394803 1_555
P0 Ta3 2.582974 1_555
P0 Ta3 2.582974 1_455
P0 Ta2 2.599073 1_555
P0 Ta2 2.599073 1_455
P0 Ta1 2.689417 1_555
P1 Ta2 2.583292 1_545
P1 Ta2 2.583292 1_445
P1 Ta3 2.599034 1_555
P1 Ta3 2.599034 1_455
P1 Ta0 2.688852 1_554
P2 Ta1 2.583013 1_655
P2 Ta1 2.583013 1_555
P2 Ta0 2.599099 1_555
P2 Ta0 2.599099 1_655
P2 Ta3 2.689494 1_555
P3 Ta0 2.583230 1_565
P3 Ta0 2.583230 1_665
P3 Ta1 2.599013 1_655
P3 Ta1 2.599013 1_555
P3 Ta2 2.688830 1_556
