# generated using pymatgen
data_AlH15Br3N5
_symmetry_space_group_name_H-M   'P 1'
_cell_length_a   9.05438600
_cell_length_b   11.11854500
_cell_length_c   15.98221200
_cell_angle_alpha   90.00000000
_cell_angle_beta   90.00000000
_cell_angle_gamma   90.00000000
_symmetry_Int_Tables_number   1
_chemical_formula_structural   AlH15Br3N5
_chemical_formula_sum   'Al4 H60 Br12 N20'
_cell_volume   1608.95482463
_cell_formula_units_Z   4
loop_
 _symmetry_equiv_pos_site_id
 _symmetry_equiv_pos_as_xyz
  1  'x, y, z'
loop_
 _atom_site_type_symbol
 _atom_site_label
 _atom_site_symmetry_multiplicity
 _atom_site_fract_x
 _atom_site_fract_y
 _atom_site_fract_z
 _atom_site_occupancy
  Al  Al0  1  0.14809700  0.25000000  0.58821600  1
  Al  Al1  1  0.35190300  0.25000000  0.08821600  1
  Al  Al2  1  0.85190300  0.75000000  0.41178400  1
  Al  Al3  1  0.64809700  0.75000000  0.91178400  1
  H  H0  1  0.07279200  0.25000000  0.24973500  1
  H  H1  1  0.42720800  0.25000000  0.74973500  1
  H  H2  1  0.92720800  0.75000000  0.75026500  1
  H  H3  1  0.57279200  0.75000000  0.25026500  1
  H  H4  1  0.09148900  0.67614300  0.89668300  1
  H  H5  1  0.40851100  0.82385700  0.39668300  1
  H  H6  1  0.90851100  0.17614300  0.10331700  1
  H  H7  1  0.59148900  0.32385700  0.60331700  1
  H  H8  1  0.90851100  0.32385700  0.10331700  1
  H  H9  1  0.59148900  0.17614300  0.60331700  1
  H  H10  1  0.09148900  0.82385700  0.89668300  1
  H  H11  1  0.40851100  0.67614300  0.39668300  1
  H  H12  1  0.69712200  0.25000000  0.66729500  1
  H  H13  1  0.80287800  0.25000000  0.16729500  1
  H  H14  1  0.30287800  0.75000000  0.33270500  1
  H  H15  1  0.19712200  0.75000000  0.83270500  1
  H  H16  1  0.87032800  0.68788200  0.73060700  1
  H  H17  1  0.62967200  0.81211800  0.23060700  1
  H  H18  1  0.12967200  0.18788200  0.26939300  1
  H  H19  1  0.37032800  0.31211800  0.76939300  1
  H  H20  1  0.12967200  0.31211800  0.26939300  1
  H  H21  1  0.37032800  0.18788200  0.76939300  1
  H  H22  1  0.87032800  0.81211800  0.73060700  1
  H  H23  1  0.62967200  0.68788200  0.23060700  1
  H  H24  1  0.90105800  0.25000000  0.81338000  1
  H  H25  1  0.59894200  0.25000000  0.31338000  1
  H  H26  1  0.09894200  0.75000000  0.18662000  1
  H  H27  1  0.40105800  0.75000000  0.68662000  1
  H  H28  1  0.10510200  0.13483000  0.66439100  1
  H  H29  1  0.39489800  0.36517000  0.16439100  1
  H  H30  1  0.89489800  0.63483000  0.33560900  1
  H  H31  1  0.60510200  0.86517000  0.83560900  1
  H  H32  1  0.89489800  0.86517000  0.33560900  1
  H  H33  1  0.60510200  0.63483000  0.83560900  1
  H  H34  1  0.10510200  0.36517000  0.66439100  1
  H  H35  1  0.39489800  0.13483000  0.16439100  1
  H  H36  1  0.87117400  0.56664700  0.01687900  1
  H  H37  1  0.62882600  0.93335300  0.51687900  1
  H  H38  1  0.12882600  0.06664700  0.98312100  1
  H  H39  1  0.37117400  0.43335300  0.48312100  1
  H  H40  1  0.12882600  0.43335300  0.98312100  1
  H  H41  1  0.37117400  0.06664700  0.48312100  1
  H  H42  1  0.87117400  0.93335300  0.01687900  1
  H  H43  1  0.62882600  0.56664700  0.51687900  1
  H  H44  1  0.51446700  0.97864800  0.58622300  1
  H  H45  1  0.98553300  0.52135200  0.08622300  1
  H  H46  1  0.48553300  0.47864800  0.41377700  1
  H  H47  1  0.01446700  0.02135200  0.91377700  1
  H  H48  1  0.48553300  0.02135200  0.41377700  1
  H  H49  1  0.01446700  0.47864800  0.91377700  1
  H  H50  1  0.51446700  0.52135200  0.58622300  1
  H  H51  1  0.98553300  0.97864800  0.08622300  1
  H  H52  1  0.17077800  0.09793300  0.69681000  1
  H  H53  1  0.32922200  0.40206700  0.19681000  1
  H  H54  1  0.82922200  0.59793300  0.30319000  1
  H  H55  1  0.67077800  0.90206700  0.80319000  1
  H  H56  1  0.82922200  0.90206700  0.30319000  1
  H  H57  1  0.67077800  0.59793300  0.80319000  1
  H  H58  1  0.17077800  0.40206700  0.69681000  1
  H  H59  1  0.32922200  0.09793300  0.19681000  1
  Br  Br0  1  0.54635800  0.25000000  0.99793700  1
  Br  Br1  1  0.95364200  0.25000000  0.49793700  1
  Br  Br2  1  0.45364200  0.75000000  0.00206300  1
  Br  Br3  1  0.04635800  0.75000000  0.50206300  1
  Br  Br4  1  0.30974300  0.02590500  0.76800000  1
  Br  Br5  1  0.19025700  0.47409500  0.26800000  1
  Br  Br6  1  0.69025700  0.52590500  0.23200000  1
  Br  Br7  1  0.80974300  0.97409500  0.73200000  1
  Br  Br8  1  0.69025700  0.97409500  0.23200000  1
  Br  Br9  1  0.80974300  0.52590500  0.73200000  1
  Br  Br10  1  0.30974300  0.47409500  0.76800000  1
  Br  Br11  1  0.19025700  0.02590500  0.26800000  1
  N  N0  1  0.96764000  0.25000000  0.86851900  1
  N  N1  1  0.53236000  0.25000000  0.36851900  1
  N  N2  1  0.03236000  0.75000000  0.13148100  1
  N  N3  1  0.46764000  0.75000000  0.63148100  1
  N  N4  1  0.09781700  0.25000000  0.86249100  1
  N  N5  1  0.40218300  0.25000000  0.36249100  1
  N  N6  1  0.90218300  0.75000000  0.13750900  1
  N  N7  1  0.59781700  0.75000000  0.63750900  1
  N  N8  1  0.59322800  0.25000000  0.64210000  1
  N  N9  1  0.90677200  0.25000000  0.14210000  1
  N  N10  1  0.40677200  0.75000000  0.35790000  1
  N  N11  1  0.09322800  0.75000000  0.85790000  1
  N  N12  1  0.93911200  0.49521200  0.03059100  1
  N  N13  1  0.56088800  0.00478800  0.53059100  1
  N  N14  1  0.06088800  0.99521200  0.96940900  1
  N  N15  1  0.43911200  0.50478800  0.46940900  1
  N  N16  1  0.06088800  0.50478800  0.96940900  1
  N  N17  1  0.43911200  0.99521200  0.46940900  1
  N  N18  1  0.93911200  0.00478800  0.03059100  1
  N  N19  1  0.56088800  0.49521200  0.53059100  1
loop_
_geom_bond_atom_site_label_1
_geom_bond_atom_site_label_2
_geom_bond_distance
_geom_bond_site_symmetry_2
Al0 H28 1.809271 1_555
Al0 H34 1.809271 1_555
Al0 Br1 2.276357 1_455
Al1 H35 1.809271 1_555
Al1 H29 1.809271 1_555
Al1 Br0 2.276357 1_554
Al2 H30 1.809271 1_555
Al2 H32 1.809271 1_555
Al2 Br3 2.276357 1_655
Al3 H33 1.809271 1_555
Al3 H31 1.809271 1_555
Al3 Br2 2.276357 1_556
H0 H18 0.917039 1_555
H0 H20 0.917039 1_555
H1 H21 0.917039 1_555
H1 H19 0.917039 1_555
H2 H22 0.917039 1_555
H4 N11 1.028974 1_555
H5 N10 1.028974 1_555
H6 N9 1.028974 1_555
H7 N8 1.028974 1_555
H8 N9 1.028974 1_555
H9 N8 1.028974 1_555
H10 N11 1.028974 1_555
H11 N10 1.028974 1_555
H12 N8 1.023257 1_555
H13 N9 1.023257 1_555
H14 N10 1.023257 1_555
H15 N11 1.023257 1_555
H16 H2 0.917039 1_555
H17 H3 0.917039 1_555
H23 H3 0.917039 1_555
H24 N0 1.067721 1_555
H25 N1 1.067721 1_555
H26 N2 1.067721 1_555
H27 N3 1.067721 1_555
H28 H52 0.889027 1_555
H29 H53 0.889027 1_555
H30 H54 0.889027 1_555
H31 H55 0.889027 1_555
H32 H56 0.889027 1_555
H33 H57 0.889027 1_555
H34 H58 0.889027 1_555
H35 H59 0.889027 1_555
H36 N12 1.028230 1_555
H37 N13 1.028230 1_565
H38 N14 1.028230 1_545
H39 N15 1.028230 1_555
H40 N16 1.028230 1_555
H41 N17 1.028230 1_545
H42 N18 1.028230 1_565
H43 N19 1.028230 1_555
H44 N13 1.025511 1_565
H45 N12 1.025511 1_555
H46 N15 1.025511 1_555
H47 N14 1.025511 1_545
H48 N17 1.025511 1_545
H49 N16 1.025511 1_555
H50 N19 1.025511 1_555
H51 N18 1.025511 1_565
Br4 H52 1.875915 1_555
Br4 H21 1.882772 1_555
Br5 H53 1.875915 1_555
Br5 H20 1.882772 1_555
Br6 H54 1.875915 1_555
Br6 H23 1.882772 1_555
Br7 H55 1.875915 1_555
Br7 H22 1.882772 1_555
Br8 H56 1.875915 1_555
Br8 H17 1.882772 1_555
Br9 H57 1.875915 1_555
Br9 H16 1.882772 1_555
Br10 H58 1.875915 1_555
Br10 H19 1.882772 1_555
Br11 H59 1.875915 1_555
Br11 H18 1.882772 1_555
N0 N4 1.182604 1_655
N1 N5 1.182604 1_555
N2 N6 1.182604 1_455
N3 N7 1.182604 1_555
