# generated using pymatgen
data_Rb2VCuS4
_symmetry_space_group_name_H-M   'P 1'
_cell_length_a   13.56192828
_cell_length_b   12.09847748
_cell_length_c   7.23217928
_cell_angle_alpha   85.16440650
_cell_angle_beta   62.73734773
_cell_angle_gamma   32.09824577
_symmetry_Int_Tables_number   1
_chemical_formula_structural   Rb2VCuS4
_chemical_formula_sum   'Rb4 V2 Cu2 S8'
_cell_volume   429.24004612
_cell_formula_units_Z   2
loop_
 _symmetry_equiv_pos_site_id
 _symmetry_equiv_pos_as_xyz
  1  'x, y, z'
loop_
 _atom_site_type_symbol
 _atom_site_label
 _atom_site_symmetry_multiplicity
 _atom_site_fract_x
 _atom_site_fract_y
 _atom_site_fract_z
 _atom_site_occupancy
  Rb  Rb0  1  0.57201129  0.57201129  0.92798871  1
  Rb  Rb1  1  0.92798871  0.92798871  0.57201129  1
  Rb  Rb2  1  0.32201129  0.32201129  0.67798871  1
  Rb  Rb3  1  0.67798871  0.67798871  0.32201129  1
  V  V0  1  0.75000000  0.75000000  0.75000000  1
  V  V1  1  0.50000000  0.50000000  0.50000000  1
  Cu  Cu0  1  0.00000000  0.00000000  -0.00000000  1
  Cu  Cu1  1  0.25000000  0.25000000  0.25000000  1
  S  S0  1  0.22734424  0.87805008  0.58534723  1
  S  S1  1  0.30925845  0.58534723  0.87805008  1
  S  S2  1  0.58534723  0.30925845  0.22734424  1
  S  S3  1  0.87805008  0.22734424  0.30925845  1
  S  S4  1  0.37194992  0.02265576  0.94074155  1
  S  S5  1  0.94074155  0.66465277  0.37194992  1
  S  S6  1  0.66465277  0.94074155  0.02265576  1
  S  S7  1  0.02265576  0.37194992  0.66465277  1
loop_
_geom_bond_atom_site_label_1
_geom_bond_atom_site_label_2
_geom_bond_distance
_geom_bond_site_symmetry_2
Rb0 S3 3.383210 1_555
Rb0 S0 3.383210 1_556
Rb0 S7 3.447908 1_655
Rb0 S4 3.447908 1_565
Rb0 S0 3.539210 1_645
Rb0 S3 3.539210 1_466
Rb0 S1 3.612433 1_555
Rb0 S2 3.612433 1_556
Rb1 S2 3.383210 1_655
Rb1 S1 3.383210 1_565
Rb1 S6 3.447908 1_556
Rb1 S5 3.447908 1_555
Rb1 S2 3.539210 1_566
Rb1 S1 3.539210 1_654
Rb1 S0 3.612433 1_655
Rb1 S3 3.612433 1_565
Rb2 S5 3.383210 1_545
Rb2 S6 3.383210 1_456
Rb2 S1 3.447908 1_555
Rb2 S2 3.447908 1_555
Rb2 S6 3.539210 1_545
Rb2 S5 3.539210 1_456
Rb2 S4 3.612433 1_555
Rb2 S7 3.612433 1_555
Rb3 S4 3.383210 1_565
Rb3 S7 3.383210 1_654
Rb3 S0 3.447908 1_555
Rb3 S3 3.447908 1_555
Rb3 S4 3.539210 1_654
Rb3 S7 3.539210 1_565
Rb3 S5 3.612433 1_555
Rb3 S6 3.612433 1_555
Cu0 S2 2.289998 1_455
Cu0 S1 2.289998 1_544
Cu0 S0 2.289998 1_544
Cu0 S3 2.289998 1_455
Cu1 S4 2.289998 1_554
Cu1 S5 2.289998 1_455
Cu1 S6 2.289998 1_545
Cu1 S7 2.289998 1_555
S0 V1 2.168903 1_555
S1 V1 2.168903 1_555
S2 V1 2.168903 1_555
S3 V1 2.168903 1_555
S4 V0 2.168903 1_545
S5 V0 2.168903 1_555
S6 V0 2.168903 1_554
S7 V0 2.168903 1_455
