# generated using pymatgen
data_MgZn4(Se2O5)4
_symmetry_space_group_name_H-M   'P 1'
_cell_length_a   6.27451174
_cell_length_b   6.94482404
_cell_length_c   11.02094260
_cell_angle_alpha   85.54288205
_cell_angle_beta   94.12971637
_cell_angle_gamma   92.38502803
_symmetry_Int_Tables_number   1
_chemical_formula_structural   MgZn4(Se2O5)4
_chemical_formula_sum   'Mg1 Zn4 Se8 O20'
_cell_volume   477.23288755
_cell_formula_units_Z   1
loop_
 _symmetry_equiv_pos_site_id
 _symmetry_equiv_pos_as_xyz
  1  'x, y, z'
loop_
 _atom_site_type_symbol
 _atom_site_label
 _atom_site_symmetry_multiplicity
 _atom_site_fract_x
 _atom_site_fract_y
 _atom_site_fract_z
 _atom_site_occupancy
  Mg  Mg0  1  0.98184066  0.11356091  0.75972203  1
  Zn  Zn0  1  0.69892065  0.05570328  0.96420799  1
  Zn  Zn1  1  0.25496266  0.46435719  0.55378372  1
  Zn  Zn2  1  0.18418516  0.03920945  0.08028844  1
  Zn  Zn3  1  0.74375809  0.48495551  0.43822992  1
  Se  Se0  1  0.02649470  0.45896562  0.88948265  1
  Se  Se1  1  0.50107065  0.13030211  0.65739284  1
  Se  Se2  1  0.04500771  0.81787082  0.62561683  1
  Se  Se3  1  0.51429565  0.63730674  0.84635923  1
  Se  Se4  1  0.92656360  0.64516828  0.16130192  1
  Se  Se5  1  0.44427292  0.86548030  0.33935956  1
  Se  Se6  1  0.00862021  0.12605870  0.34770780  1
  Se  Se7  1  0.49125704  0.37153283  0.16361960  1
  O  O0  1  0.86347128  0.98983097  0.57322866  1
  O  O1  1  0.28504663  0.53297909  0.95021707  1
  O  O2  1  0.24726770  0.99251054  0.41932709  1
  O  O3  1  0.68928005  0.52126658  0.08242027  1
  O  O4  1  0.25692645  0.21550516  0.69321665  1
  O  O5  1  0.67986577  0.20298516  0.77737788  1
  O  O6  1  0.97547000  0.81072235  0.77730895  1
  O  O7  1  0.39329076  0.63564762  0.70624245  1
  O  O8  1  0.82154054  0.69774882  0.29202595  1
  O  O9  1  0.29983340  0.81415062  0.20680931  1
  O  O10  1  0.10663543  0.21114452  0.21181804  1
  O  O11  1  0.63448049  0.29517805  0.29304981  1
  O  O12  1  0.03846970  0.33122957  0.42469379  1
  O  O13  1  0.49343319  0.16923043  0.07405859  1
  O  O14  1  0.90668000  0.86119915  0.07100289  1
  O  O15  1  0.44080994  0.64945550  0.42596161  1
  O  O16  1  0.96167702  0.59078856  0.57052250  1
  O  O17  1  0.48560293  0.86800534  0.88734187  1
  O  O18  1  0.01382623  0.18461318  0.93779702  1
  O  O19  1  0.53826778  0.32181807  0.54850707  1
loop_
_geom_bond_atom_site_label_1
_geom_bond_atom_site_label_2
_geom_bond_distance
_geom_bond_site_symmetry_2
Mg0 O4 2.004367 1_655
Mg0 O5 2.045343 1_555
Mg0 O18 2.054490 1_655
Mg0 O6 2.095999 1_545
Mg0 O0 2.348595 1_545
O0 Se2 1.722879 1_655
O1 Se0 1.780934 1_555
O1 Se3 1.981327 1_555
O2 Se5 1.857818 1_555
O2 Se6 1.885997 1_565
O3 Se7 1.825910 1_555
O3 Se4 1.880438 1_555
O4 Se1 1.746868 1_555
O4 Zn1 2.221398 1_555
O5 Se1 1.762072 1_555
O5 Zn0 2.224309 1_555
O6 Se2 1.754444 1_655
O7 Se3 1.671637 1_555
O7 Zn1 2.237479 1_555
O8 Se4 1.697569 1_555
O8 Zn3 2.168308 1_555
O9 Se5 1.716338 1_555
O9 Zn2 2.126904 1_565
O10 Se6 1.713232 1_555
O10 Zn2 2.045189 1_555
O11 Se7 1.691443 1_555
O11 Zn3 2.204946 1_555
O12 Se6 1.711150 1_555
O12 Zn1 2.132047 1_555
O12 Zn3 2.193229 1_455
O13 Se7 1.779725 1_555
O13 Zn0 2.051212 1_554
O13 Zn2 2.109236 1_555
O14 Se4 1.738526 1_555
O14 Zn2 2.094144 1_665
O14 Zn0 2.141902 1_564
O15 Se5 1.714615 1_555
O15 Zn1 2.197069 1_555
O15 Zn3 2.248636 1_555
O16 Se2 1.778655 1_655
O16 Zn3 2.081185 1_555
O16 Zn1 2.097610 1_655
O17 Se3 1.718001 1_555
O17 Zn0 2.017778 1_565
O18 Se0 1.938022 1_555
O18 Zn2 2.056699 1_556
O18 Zn0 2.164581 1_455
O19 Se1 1.740683 1_555
O19 Zn3 2.076831 1_555
O19 Zn1 2.076887 1_555
