# generated using pymatgen
data_Dy4MgCo
_symmetry_space_group_name_H-M   'P 1'
_cell_length_a   9.53206209
_cell_length_b   9.53212098
_cell_length_c   9.53197215
_cell_angle_alpha   59.99824129
_cell_angle_beta   59.99801793
_cell_angle_gamma   59.99855602
_symmetry_Int_Tables_number   1
_chemical_formula_structural   Dy4MgCo
_chemical_formula_sum   'Dy16 Mg4 Co4'
_cell_volume   612.38868424
_cell_formula_units_Z   4
loop_
 _symmetry_equiv_pos_site_id
 _symmetry_equiv_pos_as_xyz
  1  'x, y, z'
loop_
 _atom_site_type_symbol
 _atom_site_label
 _atom_site_symmetry_multiplicity
 _atom_site_fract_x
 _atom_site_fract_y
 _atom_site_fract_z
 _atom_site_occupancy
  Dy  Dy0  1  0.81363189  0.18635762  0.18635406  1
  Dy  Dy1  1  0.18635299  0.81365547  0.81363680  1
  Dy  Dy2  1  0.18635211  0.81364702  0.18635019  1
  Dy  Dy3  1  0.81364068  0.18635842  0.81364201  1
  Dy  Dy4  1  0.18635334  0.18635414  0.81363524  1
  Dy  Dy5  1  0.81363375  0.81365450  0.18635400  1
  Dy  Dy6  1  0.93802779  0.56197588  0.56195396  1
  Dy  Dy7  1  0.56197019  0.93803487  0.93802124  1
  Dy  Dy8  1  0.56197636  0.93803534  0.56195110  1
  Dy  Dy9  1  0.93802743  0.56196932  0.93802783  1
  Dy  Dy10  1  0.56197189  0.56196981  0.93802165  1
  Dy  Dy11  1  0.93802778  0.93804112  0.56195104  1
  Dy  Dy12  1  0.34384137  0.34381663  0.34383654  1
  Dy  Dy13  1  0.34384990  0.34382451  0.96850550  1
  Dy  Dy14  1  0.34384403  0.96850248  0.34383888  1
  Dy  Dy15  1  0.96850087  0.34382795  0.34384850  1
  Mg  Mg0  1  0.57863870  0.57864164  0.57863294  1
  Mg  Mg1  1  0.57863991  0.57864331  0.26407775  1
  Mg  Mg2  1  0.57864378  0.26407503  0.57863763  1
  Mg  Mg3  1  0.26407703  0.57864514  0.57863633  1
  Co  Co0  1  0.14051042  0.14050327  0.14054500  1
  Co  Co1  1  0.14052751  0.14051745  0.57844408  1
  Co  Co2  1  0.14051401  0.57843924  0.14054741  1
  Co  Co3  1  0.57844430  0.14050682  0.14054732  1
loop_
_geom_bond_atom_site_label_1
_geom_bond_atom_site_label_2
_geom_bond_distance
_geom_bond_site_symmetry_2
Dy0 Mg2 3.504658 1_555
Dy0 Mg1 3.504761 1_555
Dy0 Dy8 3.576250 1_545
Dy0 Dy11 3.576353 1_545
Dy0 Dy10 3.576400 1_554
Dy0 Dy9 3.576499 1_554
Dy1 Mg0 3.504734 1_555
Dy1 Mg3 3.504807 1_555
Dy1 Dy8 3.576496 1_555
Dy1 Dy10 3.576504 1_555
Dy1 Dy11 3.576591 1_455
Dy1 Dy9 3.576597 1_455
Dy2 Mg3 3.504718 1_555
Dy2 Mg1 3.504778 1_555
Dy2 Dy6 3.576356 1_455
Dy2 Dy7 3.576493 1_554
Dy3 Mg0 3.504714 1_555
Dy3 Mg2 3.504752 1_555
Dy3 Dy7 3.576494 1_545
Dy3 Dy6 3.576504 1_555
Dy4 Mg2 3.504752 1_555
Dy4 Mg3 3.504792 1_555
Dy4 Dy8 3.576472 1_545
Dy4 Dy7 3.576494 1_545
Dy4 Dy6 3.576499 1_455
Dy4 Dy9 3.576524 1_455
Dy5 Mg0 3.504643 1_555
Dy5 Mg1 3.504773 1_555
Dy5 Dy8 3.576273 1_555
Dy5 Dy6 3.576367 1_555
Dy5 Dy7 3.576491 1_554
Dy5 Dy9 3.576575 1_554
Dy6 Mg0 3.274511 1_555
Dy6 Mg3 3.274609 1_655
Dy6 Dy8 3.584517 1_555
Dy6 Dy9 3.584693 1_555
Dy7 Mg2 3.274375 1_565
Dy7 Mg1 3.274497 1_556
Dy7 Dy9 3.584573 1_555
Dy7 Dy8 3.584658 1_555
Dy8 Mg2 3.274549 1_565
Dy8 Mg0 3.274579 1_555
Dy9 Mg1 3.274425 1_556
Dy9 Mg3 3.274438 1_655
Dy10 Mg0 3.274500 1_555
Dy10 Mg1 3.274594 1_556
Dy10 Dy13 3.441844 1_555
Dy10 Dy12 3.441904 1_556
Dy10 Dy3 3.576431 1_555
Dy10 Dy2 3.576475 1_556
Dy10 Dy6 3.584520 1_555
Dy10 Dy8 3.584603 1_555
Dy10 Dy9 3.584612 1_555
Dy10 Dy7 3.584688 1_555
Dy11 Mg2 3.274384 1_565
Dy11 Mg3 3.274517 1_655
Dy11 Dy15 3.441767 1_565
Dy11 Dy14 3.441943 1_655
Dy11 Dy2 3.576367 1_655
Dy11 Dy3 3.576571 1_565
Dy11 Dy7 3.584540 1_555
Dy11 Dy8 3.584573 1_555
Dy11 Dy9 3.584662 1_555
Dy11 Dy6 3.584685 1_555
Dy12 Dy8 3.441675 1_545
Dy12 Dy6 3.441904 1_455
Dy12 Mg2 3.493307 1_555
Dy12 Mg3 3.493424 1_555
Dy12 Mg1 3.493433 1_555
Dy13 Dy7 3.441838 1_545
Dy13 Dy9 3.442068 1_455
Dy13 Mg0 3.493248 1_555
Dy13 Mg2 3.493300 1_555
Dy13 Mg3 3.493415 1_555
Dy14 Dy8 3.441721 1_555
Dy14 Dy7 3.441946 1_554
Dy14 Mg0 3.493171 1_555
Dy14 Mg3 3.493333 1_555
Dy14 Mg1 3.493336 1_555
Dy15 Dy6 3.441771 1_555
Dy15 Dy9 3.441999 1_554
Dy15 Mg0 3.493198 1_555
Dy15 Mg2 3.493250 1_555
Dy15 Mg1 3.493375 1_555
Mg0 Mg1 2.998318 1_555
Mg0 Mg3 2.998389 1_555
Mg0 Mg2 2.998440 1_555
Mg1 Mg3 2.998308 1_555
Mg1 Mg2 2.998360 1_555
Mg2 Mg3 2.998430 1_555
Co0 Dy2 2.749119 1_545
Co0 Dy0 2.749252 1_455
Co0 Dy4 2.749415 1_554
Co0 Dy15 2.756917 1_455
Co0 Dy14 2.756920 1_545
Co0 Dy13 2.757125 1_554
Co0 Dy11 3.435680 1_445
Co0 Dy7 3.436142 1_544
Co0 Dy9 3.436221 1_454
Co1 Dy1 2.749041 1_545
Co1 Dy4 2.749050 1_555
Co1 Dy3 2.749188 1_455
Co1 Dy12 2.756787 1_555
Co1 Dy14 2.756836 1_545
Co1 Dy15 2.756842 1_455
Co1 Dy8 3.436027 1_545
Co1 Dy6 3.436135 1_455
Co1 Dy11 3.436284 1_445
Co2 Dy2 2.749099 1_555
Co2 Dy5 2.749230 1_455
Co2 Dy1 2.749388 1_554
Co2 Dy12 2.756832 1_555
Co2 Dy15 2.756878 1_455
Co2 Dy13 2.757084 1_554
Co2 Dy6 3.435699 1_455
Co2 Dy10 3.436142 1_554
Co2 Dy9 3.436382 1_454
Co3 Dy5 2.748988 1_545
Co3 Dy0 2.749003 1_555
Co3 Dy3 2.749281 1_554
Co3 Dy12 2.756700 1_555
Co3 Dy14 2.756739 1_545
Co3 Dy13 2.756935 1_554
Co3 Dy8 3.435672 1_545
Co3 Dy10 3.436206 1_554
Co3 Dy7 3.436345 1_544
