# generated using pymatgen
data_YbV4O8
_symmetry_space_group_name_H-M   'P 1'
_cell_length_a   6.62718454
_cell_length_b   8.64300715
_cell_length_c   9.21960010
_cell_angle_alpha   74.72088137
_cell_angle_beta   120.94318313
_cell_angle_gamma   106.01924089
_symmetry_Int_Tables_number   1
_chemical_formula_structural   YbV4O8
_chemical_formula_sum   'Yb2 V8 O16'
_cell_volume   430.57712606
_cell_formula_units_Z   2
loop_
 _symmetry_equiv_pos_site_id
 _symmetry_equiv_pos_as_xyz
  1  'x, y, z'
loop_
 _atom_site_type_symbol
 _atom_site_label
 _atom_site_symmetry_multiplicity
 _atom_site_fract_x
 _atom_site_fract_y
 _atom_site_fract_z
 _atom_site_occupancy
  Yb  Yb0  1  0.26952500  0.75497300  0.14812600  1
  Yb  Yb1  1  0.73047500  0.24502700  0.85187400  1
  V  V0  1  0.18275200  0.50808200  0.85407100  1
  V  V1  1  0.21670200  0.04106200  0.64903800  1
  V  V2  1  0.18238000  0.42917500  0.49293700  1
  V  V3  1  0.35734100  0.16051700  0.02394900  1
  V  V4  1  0.64265900  0.83948300  0.97605100  1
  V  V5  1  0.81762000  0.57082500  0.50706300  1
  V  V6  1  0.78329800  0.95893800  0.35096200  1
  V  V7  1  0.81724800  0.49191800  0.14592900  1
  O  O0  1  0.14372200  0.28795600  0.97137500  1
  O  O1  1  0.21499000  0.02992500  0.85839000  1
  O  O2  1  0.38578900  0.68223600  0.98513600  1
  O  O3  1  0.35881300  0.25796500  0.61262400  1
  O  O4  1  0.17511700  0.55180400  0.63805200  1
  O  O5  1  0.10654000  0.89596400  0.51179200  1
  O  O6  1  0.44876100  0.01445400  0.21339400  1
  O  O7  1  0.16172100  0.50681300  0.27275200  1
  O  O8  1  0.83827900  0.49318700  0.72724800  1
  O  O9  1  0.55123900  0.98554600  0.78660600  1
  O  O10  1  0.89346000  0.10403600  0.48820800  1
  O  O11  1  0.82488300  0.44819600  0.36194800  1
  O  O12  1  0.64118700  0.74203500  0.38737600  1
  O  O13  1  0.61421100  0.31776400  0.01486400  1
  O  O14  1  0.78501000  0.97007500  0.14161000  1
  O  O15  1  0.85627800  0.71204400  0.02862500  1
loop_
_geom_bond_atom_site_label_1
_geom_bond_atom_site_label_2
_geom_bond_distance
_geom_bond_site_symmetry_2
O0 V3 1.823706 1_556
O0 V0 1.946243 1_555
O0 Yb1 2.324538 1_455
O1 V3 1.825735 1_556
O1 V1 1.912809 1_555
O2 V4 1.887260 1_555
O2 V0 1.924855 1_555
O2 Yb0 2.280996 1_556
O3 V1 1.879668 1_555
O3 V2 1.882025 1_555
O3 Yb1 2.319390 1_555
O4 V0 1.903190 1_555
O4 V2 1.938399 1_555
O4 V5 2.065557 1_455
O5 V1 1.757231 1_565
O5 V6 2.008851 1_455
O6 V3 1.784158 1_555
O6 V6 2.031947 1_545
O6 Yb0 2.304050 1_545
O7 V2 1.907077 1_555
O7 V7 1.940982 1_455
O7 Yb0 2.265078 1_555
O8 V5 1.907077 1_555
O8 V0 1.940982 1_655
O8 Yb1 2.265078 1_555
O9 V4 1.784158 1_555
O9 V1 2.031947 1_565
O9 Yb1 2.304050 1_565
O10 V6 1.757231 1_545
O10 V1 2.008851 1_655
O11 V7 1.903190 1_555
O11 V5 1.938399 1_555
O11 V2 2.065557 1_655
O12 V6 1.879668 1_555
O12 V5 1.882025 1_555
O12 Yb0 2.319390 1_555
O13 V3 1.887260 1_555
O13 V7 1.924855 1_555
O13 Yb1 2.280996 1_554
O14 V4 1.825735 1_554
O14 V6 1.912809 1_555
O15 V4 1.823706 1_554
O15 V7 1.946243 1_555
O15 Yb0 2.324538 1_655
