# generated using pymatgen
data_Cs2RbPdF6
_symmetry_space_group_name_H-M   'P 1'
_cell_length_a   6.61274700
_cell_length_b   6.61274700
_cell_length_c   6.78592186
_cell_angle_alpha   119.15933984
_cell_angle_beta   119.15933984
_cell_angle_gamma   90.00000000
_symmetry_Int_Tables_number   1
_chemical_formula_structural   Cs2RbPdF6
_chemical_formula_sum   'Cs2 Rb1 Pd1 F6'
_cell_volume   215.04663232
_cell_formula_units_Z   1
loop_
 _symmetry_equiv_pos_site_id
 _symmetry_equiv_pos_as_xyz
  1  'x, y, z'
loop_
 _atom_site_type_symbol
 _atom_site_label
 _atom_site_symmetry_multiplicity
 _atom_site_fract_x
 _atom_site_fract_y
 _atom_site_fract_z
 _atom_site_occupancy
  Cs  Cs0  1  0.25000000  0.75000000  0.50000000  1
  Cs  Cs1  1  0.75000000  0.25000000  0.50000000  1
  Rb  Rb0  1  0.50000000  0.50000000  0.00000000  1
  Pd  Pd0  1  0.00000000  0.00000000  0.00000000  1
  F  F0  1  0.21414700  0.21414700  0.00000000  1
  F  F1  1  0.78585300  0.78585300  0.00000000  1
  F  F2  1  0.78585300  0.21414700  0.00000000  1
  F  F3  1  0.21414700  0.78585300  0.00000000  1
  F  F4  1  0.22675000  0.22675000  0.45350000  1
  F  F5  1  0.77325000  0.77325000  0.54650000  1
loop_
_geom_bond_atom_site_label_1
_geom_bond_atom_site_label_2
_geom_bond_distance
_geom_bond_site_symmetry_2
Cs0 F5 3.314272 1_455
Cs0 F4 3.314272 1_565
Cs0 F4 3.314272 1_555
Cs0 F5 3.314272 1_555
Cs0 F3 3.409487 1_555
Cs0 F3 3.409487 1_556
Cs0 F1 3.409488 1_455
Cs0 F0 3.409488 1_566
Cs0 F1 3.409488 1_556
Cs0 F0 3.409488 1_555
Cs0 F2 3.409488 1_566
Cs0 F2 3.409488 1_455
Cs1 F5 3.314272 1_545
Cs1 F4 3.314272 1_655
Cs1 F4 3.314272 1_555
Cs1 F5 3.314272 1_555
Cs1 F2 3.409487 1_555
Cs1 F2 3.409487 1_556
Cs1 F1 3.409488 1_545
Cs1 F0 3.409488 1_656
Cs1 F1 3.409488 1_556
Cs1 F0 3.409488 1_555
Cs1 F3 3.409488 1_656
Cs1 F3 3.409488 1_545
F0 Pd0 2.002668 1_555
F0 Rb0 2.673251 1_555
F1 Pd0 2.002668 1_665
F1 Rb0 2.673251 1_555
F2 Pd0 2.002668 1_655
F2 Rb0 2.673251 1_555
F3 Pd0 2.002668 1_565
F3 Rb0 2.673251 1_555
F4 Pd0 2.230212 1_555
F4 Rb0 2.687565 1_556
F5 Pd0 2.230212 1_666
F5 Rb0 2.687565 1_555
