# generated using pymatgen
data_SiS2
_symmetry_space_group_name_H-M   'P 1'
_cell_length_a   7.62844600
_cell_length_b   7.44526200
_cell_length_c   15.09849507
_cell_angle_alpha   78.11609336
_cell_angle_beta   90.00000000
_cell_angle_gamma   90.00000000
_symmetry_Int_Tables_number   1
_chemical_formula_structural   SiS2
_chemical_formula_sum   'Si12 S24'
_cell_volume   839.15121862
_cell_formula_units_Z   12
loop_
 _symmetry_equiv_pos_site_id
 _symmetry_equiv_pos_as_xyz
  1  'x, y, z'
loop_
 _atom_site_type_symbol
 _atom_site_label
 _atom_site_symmetry_multiplicity
 _atom_site_fract_x
 _atom_site_fract_y
 _atom_site_fract_z
 _atom_site_occupancy
  Si  Si0  1  0.86971600  0.63473600  0.00068700  1
  Si  Si1  1  0.36971600  0.36526400  0.49931300  1
  Si  Si2  1  0.13028400  0.36526400  0.99931300  1
  Si  Si3  1  0.63028400  0.63473600  0.50068700  1
  Si  Si4  1  0.62959400  0.80057100  0.16567000  1
  Si  Si5  1  0.12959400  0.19942900  0.33433000  1
  Si  Si6  1  0.37040600  0.19942900  0.83433000  1
  Si  Si7  1  0.87040600  0.80057100  0.66567000  1
  Si  Si8  1  0.36140100  0.05695600  0.16417700  1
  Si  Si9  1  0.86140100  0.94304400  0.33582300  1
  Si  Si10  1  0.63859900  0.94304400  0.83582300  1
  Si  Si11  1  0.13859900  0.05695600  0.66417700  1
  S  S0  1  0.88583600  0.41622400  0.92712400  1
  S  S1  1  0.38583600  0.58377600  0.57287600  1
  S  S2  1  0.11416400  0.58377600  0.07287600  1
  S  S3  1  0.61416400  0.41622400  0.42712400  1
  S  S4  1  0.86864500  0.91171400  0.92133100  1
  S  S5  1  0.36864500  0.08828600  0.57866900  1
  S  S6  1  0.13135500  0.08828600  0.07866900  1
  S  S7  1  0.63135500  0.91171400  0.42133100  1
  S  S8  1  0.63760600  0.59238200  0.08445000  1
  S  S9  1  0.13760600  0.40761800  0.41555000  1
  S  S10  1  0.36239400  0.40761800  0.91555000  1
  S  S11  1  0.86239400  0.59238200  0.58445000  1
  S  S12  1  0.85895900  0.74326900  0.25008100  1
  S  S13  1  0.35895900  0.25673100  0.24991900  1
  S  S14  1  0.14104100  0.25673100  0.74991900  1
  S  S15  1  0.64104100  0.74326900  0.75008100  1
  S  S16  1  0.61061300  0.08248100  0.09670800  1
  S  S17  1  0.11061300  0.91751900  0.40329200  1
  S  S18  1  0.38938700  0.91751900  0.90329200  1
  S  S19  1  0.88938700  0.08248100  0.59670800  1
  S  S20  1  0.38008600  0.77485600  0.23306600  1
  S  S21  1  0.88008600  0.22514400  0.26693400  1
  S  S22  1  0.61991400  0.22514400  0.76693400  1
  S  S23  1  0.11991400  0.77485600  0.73306600  1
loop_
_geom_bond_atom_site_label_1
_geom_bond_atom_site_label_2
_geom_bond_distance
_geom_bond_site_symmetry_2
S0 Si2 2.153819 1_655
S0 Si0 2.153997 1_556
S1 Si3 2.153819 1_555
S1 Si1 2.153997 1_555
S2 Si0 2.153819 1_455
S2 Si2 2.153997 1_554
S3 Si1 2.153819 1_555
S3 Si3 2.153997 1_555
S4 Si0 2.161153 1_556
S4 Si10 2.162596 1_555
S5 Si1 2.161153 1_555
S5 Si11 2.162596 1_555
S6 Si2 2.161153 1_554
S6 Si8 2.162596 1_555
S7 Si3 2.161153 1_555
S7 Si9 2.162596 1_555
S8 Si0 2.160972 1_555
S8 Si4 2.166327 1_555
S9 Si1 2.160972 1_555
S9 Si5 2.166327 1_555
S10 Si2 2.160972 1_555
S10 Si6 2.166327 1_555
S11 Si3 2.160972 1_555
S11 Si7 2.166327 1_555
S12 Si4 2.154951 1_555
S12 Si9 2.163702 1_555
S13 Si5 2.154951 1_555
S13 Si8 2.163702 1_555
S14 Si6 2.154951 1_555
S14 Si11 2.163702 1_555
S15 Si7 2.154951 1_555
S15 Si10 2.163702 1_555
S16 Si8 2.146689 1_555
S16 Si4 2.147180 1_545
S17 Si9 2.146689 1_455
S17 Si5 2.147180 1_565
S18 Si10 2.146689 1_555
S18 Si6 2.147180 1_565
S19 Si11 2.146689 1_655
S19 Si7 2.147180 1_545
S20 Si8 2.147959 1_565
S20 Si4 2.148175 1_555
S21 Si9 2.147959 1_545
S21 Si5 2.148175 1_655
S22 Si10 2.147959 1_545
S22 Si6 2.148175 1_555
S23 Si11 2.147959 1_565
S23 Si7 2.148175 1_455
