# generated using pymatgen
data_NbRu
_symmetry_space_group_name_H-M   'P 1'
_cell_length_a   5.69354314
_cell_length_b   5.69354314
_cell_length_c   8.47422357
_cell_angle_alpha   89.83974070
_cell_angle_beta   90.16025930
_cell_angle_gamma   109.78935285
_symmetry_Int_Tables_number   1
_chemical_formula_structural   NbRu
_chemical_formula_sum   'Nb8 Ru8'
_cell_volume   258.47958540
_cell_formula_units_Z   8
loop_
 _symmetry_equiv_pos_site_id
 _symmetry_equiv_pos_as_xyz
  1  'x, y, z'
loop_
 _atom_site_type_symbol
 _atom_site_label
 _atom_site_symmetry_multiplicity
 _atom_site_fract_x
 _atom_site_fract_y
 _atom_site_fract_z
 _atom_site_occupancy
  Nb  Nb0_0  1  0.00000000  0.00000000  0.00000000  1
  Nb  Nb0_1  1  0.00000000  0.00000000  0.50000000  1
  Nb  Nb0_2  1  0.00000000  0.50000000  0.00000000  1
  Nb  Nb0_3  1  0.00000000  0.50000000  0.50000000  1
  Nb  Nb0_4  1  0.50000000  0.00000000  0.00000000  1
  Nb  Nb0_5  1  0.50000000  0.00000000  0.50000000  1
  Nb  Nb0_6  1  0.50000000  0.50000000  0.00000000  1
  Nb  Nb0_7  1  0.50000000  0.50000000  0.50000000  1
  Ru  Ru0_0  1  0.25000000  0.25000000  0.25000000  1
  Ru  Ru0_1  1  0.25000000  0.25000000  0.75000000  1
  Ru  Ru0_2  1  0.25000000  0.75000000  0.25000000  1
  Ru  Ru0_3  1  0.25000000  0.75000000  0.75000000  1
  Ru  Ru0_4  1  0.75000000  0.25000000  0.25000000  1
  Ru  Ru0_5  1  0.75000000  0.25000000  0.75000000  1
  Ru  Ru0_6  1  0.75000000  0.75000000  0.25000000  1
  Ru  Ru0_7  1  0.75000000  0.75000000  0.75000000  1
loop_
_geom_bond_atom_site_label_1
_geom_bond_atom_site_label_2
_geom_bond_distance
_geom_bond_site_symmetry_2
Nb0_0 Ru0_1 2.677397 1_554
Nb0_0 Ru0_7 2.677397 1_444
Nb0_0 Ru0_0 2.677397 1_555
Nb0_0 Ru0_6 2.677397 1_445
Nb0_0 Nb0_2 2.846772 1_555
Nb0_0 Nb0_2 2.846772 1_545
Nb0_0 Nb0_4 2.846772 1_455
Nb0_0 Nb0_4 2.846772 1_555
Nb0_1 Ru0_0 2.677397 1_555
Nb0_1 Ru0_6 2.677397 1_445
Nb0_1 Ru0_1 2.677397 1_555
Nb0_1 Ru0_7 2.677397 1_445
Nb0_1 Nb0_3 2.846772 1_555
Nb0_1 Nb0_5 2.846772 1_555
Nb0_1 Nb0_5 2.846772 1_455
Nb0_1 Nb0_3 2.846772 1_545
Nb0_2 Ru0_4 2.677397 1_455
Nb0_2 Ru0_5 2.677397 1_454
Nb0_2 Ru0_3 2.677397 1_554
Nb0_2 Ru0_2 2.677397 1_555
Nb0_2 Nb0_6 2.846772 1_455
Nb0_2 Nb0_6 2.846772 1_555
Nb0_3 Ru0_2 2.677397 1_555
Nb0_3 Ru0_3 2.677397 1_555
Nb0_3 Ru0_4 2.677397 1_455
Nb0_3 Ru0_5 2.677397 1_455
Nb0_3 Nb0_7 2.846772 1_555
Nb0_3 Nb0_7 2.846772 1_455
Nb0_4 Ru0_5 2.677397 1_554
Nb0_4 Ru0_3 2.677397 1_544
Nb0_4 Ru0_4 2.677397 1_555
Nb0_4 Ru0_2 2.677397 1_545
Nb0_4 Nb0_6 2.846772 1_545
Nb0_4 Nb0_6 2.846772 1_555
Nb0_5 Ru0_2 2.677397 1_545
Nb0_5 Ru0_3 2.677397 1_545
Nb0_5 Ru0_4 2.677397 1_555
Nb0_5 Ru0_5 2.677397 1_555
Nb0_5 Nb0_7 2.846772 1_545
Nb0_5 Nb0_7 2.846772 1_555
Nb0_6 Ru0_7 2.677397 1_554
Nb0_6 Ru0_1 2.677397 1_554
Nb0_6 Ru0_0 2.677397 1_555
Nb0_6 Ru0_6 2.677397 1_555
Nb0_7 Ru0_0 2.677397 1_555
Nb0_7 Ru0_6 2.677397 1_555
Nb0_7 Ru0_1 2.677397 1_555
Nb0_7 Ru0_7 2.677397 1_555
Ru0_0 Ru0_2 2.846772 1_545
Ru0_0 Ru0_4 2.846772 1_455
Ru0_0 Ru0_4 2.846772 1_555
Ru0_0 Ru0_2 2.846772 1_555
Ru0_1 Ru0_3 2.846772 1_555
Ru0_1 Ru0_5 2.846772 1_555
Ru0_1 Ru0_5 2.846772 1_455
Ru0_1 Ru0_3 2.846772 1_545
Ru0_2 Ru0_6 2.846772 1_455
Ru0_2 Ru0_6 2.846772 1_555
Ru0_3 Ru0_7 2.846772 1_455
Ru0_3 Ru0_7 2.846772 1_555
Ru0_4 Ru0_6 2.846772 1_545
Ru0_4 Ru0_6 2.846772 1_555
Ru0_5 Ru0_7 2.846772 1_555
Ru0_5 Ru0_7 2.846772 1_545
