# generated using pymatgen
data_Hf9W4Se
_symmetry_space_group_name_H-M   'P 1'
_cell_length_a   8.74709433
_cell_length_b   8.74709433
_cell_length_c   8.65621600
_cell_angle_alpha   90.00000000
_cell_angle_beta   90.00000000
_cell_angle_gamma   120.00000253
_symmetry_Int_Tables_number   1
_chemical_formula_structural   Hf9W4Se
_chemical_formula_sum   'Hf18 W8 Se2'
_cell_volume   573.56986555
_cell_formula_units_Z   2
loop_
 _symmetry_equiv_pos_site_id
 _symmetry_equiv_pos_as_xyz
  1  'x, y, z'
loop_
 _atom_site_type_symbol
 _atom_site_label
 _atom_site_symmetry_multiplicity
 _atom_site_fract_x
 _atom_site_fract_y
 _atom_site_fract_z
 _atom_site_occupancy
  Hf  Hf0  1  0.19329600  0.80670400  0.45226200  1
  Hf  Hf1  1  0.19329600  0.38659100  0.45226200  1
  Hf  Hf2  1  0.61340900  0.80670400  0.45226200  1
  Hf  Hf3  1  0.80670400  0.19329600  0.54773800  1
  Hf  Hf4  1  0.80670400  0.61340900  0.54773800  1
  Hf  Hf5  1  0.38659100  0.19329600  0.54773800  1
  Hf  Hf6  1  0.80670400  0.19329600  0.95226200  1
  Hf  Hf7  1  0.80670400  0.61340900  0.95226200  1
  Hf  Hf8  1  0.38659100  0.19329600  0.95226200  1
  Hf  Hf9  1  0.19329600  0.80670400  0.04773800  1
  Hf  Hf10  1  0.19329600  0.38659100  0.04773800  1
  Hf  Hf11  1  0.61340900  0.80670400  0.04773800  1
  Hf  Hf12  1  0.54256600  0.45743400  0.25000000  1
  Hf  Hf13  1  0.54256600  0.08513300  0.25000000  1
  Hf  Hf14  1  0.91486700  0.45743400  0.25000000  1
  Hf  Hf15  1  0.45743400  0.54256600  0.75000000  1
  Hf  Hf16  1  0.45743400  0.91486700  0.75000000  1
  Hf  Hf17  1  0.08513300  0.54256600  0.75000000  1
  W  W0  1  0.88991700  0.11008300  0.25000000  1
  W  W1  1  0.88991700  0.77983400  0.25000000  1
  W  W2  1  0.22016600  0.11008300  0.25000000  1
  W  W3  1  0.11008300  0.88991700  0.75000000  1
  W  W4  1  0.11008300  0.22016600  0.75000000  1
  W  W5  1  0.77983400  0.88991700  0.75000000  1
  W  W6  1  0.00000000  0.00000000  0.50000000  1
  W  W7  1  0.00000000  0.00000000  0.00000000  1
  Se  Se0  1  0.33333300  0.66666700  0.25000000  1
  Se  Se1  1  0.66666700  0.33333300  0.75000000  1
loop_
_geom_bond_atom_site_label_1
_geom_bond_atom_site_label_2
_geom_bond_distance
_geom_bond_site_symmetry_2
Hf0 Se0 2.750754 1_555
Hf0 W3 2.869109 1_555
Hf0 W6 2.957525 1_565
Hf0 W1 3.088521 1_455
Hf0 W2 3.088521 1_565
Hf1 Se0 2.750766 1_555
Hf1 W4 2.869106 1_555
Hf1 W6 2.957517 1_555
Hf1 W2 3.088513 1_555
Hf1 W0 3.088517 1_455
Hf2 Se0 2.750766 1_555
Hf2 W5 2.869106 1_555
Hf2 W6 2.957517 1_665
Hf2 W1 3.088513 1_555
Hf2 W0 3.088517 1_565
Hf3 Se1 2.750754 1_555
Hf3 W0 2.869109 1_555
Hf3 W6 2.957525 1_655
Hf3 W5 3.088521 1_545
Hf3 W4 3.088521 1_655
Hf4 Se1 2.750766 1_555
Hf4 W1 2.869106 1_555
Hf4 W6 2.957517 1_665
Hf4 W5 3.088513 1_555
Hf4 W3 3.088517 1_655
Hf5 Se1 2.750766 1_555
Hf5 W2 2.869106 1_555
Hf5 W6 2.957517 1_555
Hf5 W4 3.088513 1_555
Hf5 W3 3.088517 1_545
Hf6 Se1 2.750754 1_555
Hf6 W0 2.869109 1_556
Hf6 W7 2.957525 1_656
Hf6 W5 3.088521 1_545
Hf6 W4 3.088521 1_655
Hf7 Se1 2.750766 1_555
Hf7 W1 2.869106 1_556
Hf7 W7 2.957517 1_666
Hf7 W5 3.088513 1_555
Hf7 W3 3.088517 1_655
Hf8 Se1 2.750766 1_555
Hf8 W2 2.869106 1_556
Hf8 W7 2.957517 1_556
Hf8 W4 3.088513 1_555
Hf8 W3 3.088517 1_545
Hf9 Se0 2.750754 1_555
Hf9 W3 2.869109 1_554
Hf9 W7 2.957525 1_565
Hf9 W1 3.088521 1_455
Hf9 W2 3.088521 1_565
Hf10 Se0 2.750766 1_555
Hf10 W4 2.869106 1_554
Hf10 W7 2.957517 1_555
Hf10 W2 3.088513 1_555
Hf10 W0 3.088517 1_455
Hf11 Se0 2.750766 1_555
Hf11 W5 2.869106 1_554
Hf11 W7 2.957517 1_665
Hf11 W1 3.088513 1_555
Hf11 W0 3.088517 1_565
Hf12 W2 2.935279 1_555
Hf12 W1 2.935279 1_555
Hf12 Se0 3.169966 1_555
Hf13 W2 2.935274 1_555
Hf13 W0 2.935283 1_555
Hf13 Se0 3.169966 1_545
Hf14 W1 2.935274 1_555
Hf14 W0 2.935283 1_555
Hf14 Se0 3.169966 1_655
Hf15 W4 2.935279 1_555
Hf15 W5 2.935279 1_555
Hf15 Se1 3.169966 1_555
Hf16 W5 2.935274 1_555
Hf16 W3 2.935283 1_555
Hf16 Se1 3.169966 1_565
Hf17 W4 2.935274 1_555
Hf17 W3 2.935283 1_555
Hf17 Se1 3.169966 1_455
W0 W6 2.732160 1_655
W0 W7 2.732160 1_655
W0 W2 2.888719 1_655
W0 W1 2.888719 1_545
W1 W7 2.732160 1_665
W1 W6 2.732160 1_665
W1 W2 2.888719 1_665
W2 W6 2.732160 1_555
W2 W7 2.732160 1_555
W3 W7 2.732160 1_566
W3 W6 2.732160 1_565
W3 W4 2.888719 1_565
W3 W5 2.888719 1_455
W4 W7 2.732160 1_556
W4 W6 2.732160 1_555
W4 W5 2.888719 1_445
W5 W7 2.732160 1_666
W5 W6 2.732160 1_665
