# generated using pymatgen
data_TiZnF4
_symmetry_space_group_name_H-M   'P 1'
_cell_length_a   3.64052400
_cell_length_b   3.64052400
_cell_length_c   5.18289800
_cell_angle_alpha   90.00000000
_cell_angle_beta   90.00000000
_cell_angle_gamma   90.00000000
_symmetry_Int_Tables_number   1
_chemical_formula_structural   TiZnF4
_chemical_formula_sum   'Ti1 Zn1 F4'
_cell_volume   68.69109807
_cell_formula_units_Z   1
loop_
 _symmetry_equiv_pos_site_id
 _symmetry_equiv_pos_as_xyz
  1  'x, y, z'
loop_
 _atom_site_type_symbol
 _atom_site_label
 _atom_site_symmetry_multiplicity
 _atom_site_fract_x
 _atom_site_fract_y
 _atom_site_fract_z
 _atom_site_occupancy
  Ti  Ti0  1  0.50000000  0.50000000  0.00000000  1
  Zn  Zn0  1  0.00000000  0.00000000  0.50000000  1
  F  F0  1  0.50000000  0.00000000  0.25043400  1
  F  F1  1  0.50000000  0.00000000  0.74956600  1
  F  F2  1  0.00000000  0.50000000  0.74956600  1
  F  F3  1  0.00000000  0.50000000  0.25043400  1
loop_
_geom_bond_atom_site_label_1
_geom_bond_atom_site_label_2
_geom_bond_distance
_geom_bond_site_symmetry_2
F0 Zn0 2.233032 1_555
F0 Zn0 2.233032 1_655
F0 Ti0 2.235641 1_555
F0 Ti0 2.235641 1_545
F1 Zn0 2.233032 1_555
F1 Zn0 2.233032 1_655
F1 Ti0 2.235641 1_546
F1 Ti0 2.235641 1_556
F2 Zn0 2.233032 1_555
F2 Zn0 2.233032 1_565
F2 Ti0 2.235641 1_556
F2 Ti0 2.235641 1_456
F3 Zn0 2.233032 1_555
F3 Zn0 2.233032 1_565
F3 Ti0 2.235641 1_455
F3 Ti0 2.235641 1_555
