# generated using pymatgen
data_CaAg4(RuO3)4
_symmetry_space_group_name_H-M   'P 1'
_cell_length_a   7.50281873
_cell_length_b   7.49610174
_cell_length_c   7.48774604
_cell_angle_alpha   60.03686622
_cell_angle_beta   90.00000000
_cell_angle_gamma   120.02964600
_symmetry_Int_Tables_number   1
_chemical_formula_structural   CaAg4(RuO3)4
_chemical_formula_sum   'Ca1 Ag4 Ru4 O12'
_cell_volume   297.81274328
_cell_formula_units_Z   1
loop_
 _symmetry_equiv_pos_site_id
 _symmetry_equiv_pos_as_xyz
  1  'x, y, z'
loop_
 _atom_site_type_symbol
 _atom_site_label
 _atom_site_symmetry_multiplicity
 _atom_site_fract_x
 _atom_site_fract_y
 _atom_site_fract_z
 _atom_site_occupancy
  Ca  Ca0  1  0.37341100  0.74682300  0.37658900  1
  Ag  Ag0  1  0.57737800  0.55348500  0.97325700  1
  Ag  Ag1  1  0.97480600  0.94961200  0.97287200  1
  Ag  Ag2  1  0.97610700  0.55348500  0.97325700  1
  Ag  Ag3  1  0.97480600  0.94961200  0.57751600  1
  Ru  Ru0  1  0.51187600  0.02375100  0.96472400  1
  Ru  Ru1  1  0.51187600  0.02375100  0.51152500  1
  Ru  Ru2  1  0.51249400  0.47489800  0.51255100  1
  Ru  Ru3  1  0.96240400  0.47489800  0.51255100  1
  O  O0  1  0.81441700  0.24951400  0.43457900  1
  O  O1  1  0.58611200  0.17222400  0.16388800  1
  O  O2  1  0.58682100  0.74886400  0.16325800  1
  O  O3  1  0.81441700  0.24951400  0.81590700  1
  O  O4  1  0.81524200  0.63048400  0.43475800  1
  O  O5  1  0.43509700  0.24951400  0.43457900  1
  O  O6  1  0.58682100  0.74886400  0.58787800  1
  O  O7  1  0.16204200  0.74886400  0.16325800  1
  O  O8  1  0.16162600  0.32325100  0.58837400  1
  O  O9  1  0.43509700  0.24951400  0.81590700  1
  O  O10  1  0.43547700  0.87095500  0.81452300  1
  O  O11  1  0.16204200  0.74886400  0.58787800  1
loop_
_geom_bond_atom_site_label_1
_geom_bond_atom_site_label_2
_geom_bond_distance
_geom_bond_site_symmetry_2
Ca0 O8 2.245406 1_555
Ca0 O6 2.250918 1_555
Ca0 O11 2.250918 1_555
Ca0 O2 2.250923 1_555
Ca0 O7 2.250923 1_555
Ca0 O1 2.255102 1_565
Ag0 O6 2.480212 1_555
Ag0 O2 2.480218 1_556
Ag0 O1 2.514417 1_556
Ag1 O8 2.472668 1_665
Ag1 O7 2.498645 1_656
Ag1 O2 2.498652 1_556
Ag2 O11 2.480210 1_655
Ag2 O7 2.480216 1_656
Ag2 O1 2.514417 1_556
Ag3 O8 2.472664 1_665
Ag3 O11 2.498645 1_655
Ag3 O6 2.498652 1_555
O0 Ru1 1.878723 1_555
O0 Ru3 1.880375 1_555
O1 Ru1 2.193245 1_555
O1 Ru0 2.193245 1_554
O2 Ru2 2.203966 1_555
O2 Ru0 2.207257 1_564
O3 Ru0 1.878723 1_555
O3 Ru3 1.880375 1_555
O4 Ru2 1.878542 1_555
O4 Ru3 1.878542 1_555
O5 Ru1 1.878728 1_555
O5 Ru2 1.880375 1_555
O6 Ru2 2.203966 1_555
O6 Ru1 2.207257 1_565
O7 Ru3 2.203964 1_455
O7 Ru0 2.207268 1_564
O8 Ru2 2.214664 1_555
O8 Ru3 2.214671 1_455
O9 Ru0 1.878728 1_555
O9 Ru2 1.880375 1_555
O10 Ru0 1.880141 1_565
O10 Ru1 1.880147 1_565
O11 Ru3 2.203964 1_455
O11 Ru1 2.207268 1_565
