# generated using pymatgen
data_Mg2NbN3
_symmetry_space_group_name_H-M   'P 1'
_cell_length_a   5.91785240
_cell_length_b   5.91785240
_cell_length_c   5.30461700
_cell_angle_alpha   90.00000000
_cell_angle_beta   90.00000000
_cell_angle_gamma   119.00586817
_symmetry_Int_Tables_number   1
_chemical_formula_structural   Mg2NbN3
_chemical_formula_sum   'Mg4 Nb2 N6'
_cell_volume   162.47138822
_cell_formula_units_Z   2
loop_
 _symmetry_equiv_pos_site_id
 _symmetry_equiv_pos_as_xyz
  1  'x, y, z'
loop_
 _atom_site_type_symbol
 _atom_site_label
 _atom_site_symmetry_multiplicity
 _atom_site_fract_x
 _atom_site_fract_y
 _atom_site_fract_z
 _atom_site_occupancy
  Mg  Mg0  1  0.99253800  0.33066000  0.98257600  1
  Mg  Mg1  1  0.33066000  0.99253800  0.98257600  1
  Mg  Mg2  1  0.00746200  0.66934000  0.48257600  1
  Mg  Mg3  1  0.66934000  0.00746200  0.48257600  1
  Nb  Nb0  1  0.66797700  0.66797700  0.98152200  1
  Nb  Nb1  1  0.33202300  0.33202300  0.48152200  1
  N  N0  1  0.01887900  0.33143000  0.38217300  1
  N  N1  1  0.33143000  0.01887900  0.38217300  1
  N  N2  1  0.98112100  0.66857000  0.88217300  1
  N  N3  1  0.66857000  0.98112100  0.88217300  1
  N  N4  1  0.65316500  0.65316500  0.36098000  1
  N  N5  1  0.34683500  0.34683500  0.86098000  1
loop_
_geom_bond_atom_site_label_1
_geom_bond_atom_site_label_2
_geom_bond_distance
_geom_bond_site_symmetry_2
Mg0 N3 2.095731 1_545
Mg0 N2 2.101918 1_555
Mg0 N0 2.125276 1_656
Mg0 N5 2.150961 1_655
Mg1 N2 2.095731 1_455
Mg1 N3 2.101918 1_555
Mg1 N1 2.125276 1_566
Mg1 N5 2.150961 1_565
Mg2 N1 2.095731 1_565
Mg2 N0 2.101918 1_555
Mg2 N2 2.125276 1_455
Mg2 N4 2.150961 1_455
Mg3 N0 2.095731 1_655
Mg3 N1 2.101918 1_555
Mg3 N3 2.125276 1_545
Mg3 N4 2.150961 1_545
N0 Nb1 1.924986 1_555
N1 Nb1 1.924986 1_555
N2 Nb0 1.924986 1_555
N3 Nb0 1.924986 1_555
N4 Nb0 2.014845 1_554
N4 Nb1 2.032177 1_555
N5 Nb1 2.014845 1_555
N5 Nb0 2.032177 1_555
