# generated using pymatgen
data_Mg(CoO2)2
_symmetry_space_group_name_H-M   'P 1'
_cell_length_a   5.95012544
_cell_length_b   5.95367869
_cell_length_c   17.88014081
_cell_angle_alpha   60.02165348
_cell_angle_beta   60.08418285
_cell_angle_gamma   60.12333898
_symmetry_Int_Tables_number   1
_chemical_formula_structural   Mg(CoO2)2
_chemical_formula_sum   'Mg6 Co12 O24'
_cell_volume   448.66060564
_cell_formula_units_Z   6
loop_
 _symmetry_equiv_pos_site_id
 _symmetry_equiv_pos_as_xyz
  1  'x, y, z'
loop_
 _atom_site_type_symbol
 _atom_site_label
 _atom_site_symmetry_multiplicity
 _atom_site_fract_x
 _atom_site_fract_y
 _atom_site_fract_z
 _atom_site_occupancy
  Mg  Mg0  1  0.12115800  0.12125000  0.04525100  1
  Mg  Mg1  1  0.12350000  0.12319000  0.37660400  1
  Mg  Mg2  1  0.49947900  0.49802200  0.33418600  1
  Mg  Mg3  1  0.12446700  0.12477800  0.70860200  1
  Mg  Mg4  1  0.49981000  0.50004400  0.00011600  1
  Mg  Mg5  1  0.87519100  0.87514100  0.62496500  1
  Co  Co0  1  0.49880500  0.49882000  0.16624700  1
  Co  Co1  1  0.49868400  0.00359300  0.16625300  1
  Co  Co2  1  0.50018200  0.49919000  0.49874500  1
  Co  Co3  1  0.00359000  0.49875100  0.16621800  1
  Co  Co4  1  0.49911500  0.00468400  0.49875700  1
  Co  Co5  1  0.50014600  0.50129100  0.66625400  1
  Co  Co6  1  0.87956000  0.87940400  0.28728700  1
  Co  Co7  1  0.49963000  0.49956700  0.83425000  1
  Co  Co8  1  0.00410800  0.50009600  0.49897300  1
  Co  Co9  1  0.49956200  0.99855400  0.83395500  1
  Co  Co10  1  0.99843900  0.49940200  0.83404800  1
  Co  Co11  1  0.87628800  0.87600000  0.95725100  1
  O  O0  1  0.25448000  0.25463100  0.09156900  1
  O  O1  1  0.25835000  0.25794900  0.24164800  1
  O  O2  1  0.25463800  0.71611500  0.09149900  1
  O  O3  1  0.71600600  0.25476000  0.09154600  1
  O  O4  1  0.25132900  0.24605500  0.42780100  1
  O  O5  1  0.28071800  0.74550700  0.24272100  1
  O  O6  1  0.25859500  0.25786400  0.57475000  1
  O  O7  1  0.74594100  0.28059700  0.24265500  1
  O  O8  1  0.74168500  0.74206000  0.09152300  1
  O  O9  1  0.24646900  0.71803400  0.42810900  1
  O  O10  1  0.71921800  0.24997600  0.42814900  1
  O  O11  1  0.74546700  0.74558000  0.24270600  1
  O  O12  1  0.27229500  0.27216700  0.74806700  1
  O  O13  1  0.28982400  0.72637800  0.58499600  1
  O  O14  1  0.73031500  0.29077900  0.58471000  1
  O  O15  1  0.25845800  0.25836600  0.90806500  1
  O  O16  1  0.74266800  0.74393400  0.42403700  1
  O  O17  1  0.27294900  0.71151200  0.74736500  1
  O  O18  1  0.71122100  0.27358000  0.74744100  1
  O  O19  1  0.72565100  0.73053500  0.58491400  1
  O  O20  1  0.27776200  0.75126200  0.90624700  1
  O  O21  1  0.75128900  0.27759300  0.90638000  1
  O  O22  1  0.74097300  0.74115300  0.75902300  1
  O  O23  1  0.75198500  0.75183300  0.90612300  1
loop_
_geom_bond_atom_site_label_1
_geom_bond_atom_site_label_2
_geom_bond_distance
_geom_bond_site_symmetry_2
Mg0 O2 1.971247 1_545
Mg0 O0 1.971270 1_555
Mg0 O3 1.971442 1_455
Mg0 O15 2.003769 1_554
Mg1 O4 1.967116 1_555
Mg1 O10 1.969925 1_455
Mg1 O1 1.971198 1_555
Mg1 O9 1.973778 1_545
Mg2 O7 2.082460 1_555
Mg2 O11 2.083766 1_555
Mg2 O5 2.084311 1_555
Mg2 O4 2.112928 1_555
Mg2 O10 2.121544 1_555
Mg2 O9 2.124704 1_555
Mg3 O6 1.955080 1_555
Mg3 O12 2.012088 1_555
Mg3 O18 2.013583 1_455
Mg3 O17 2.013867 1_545
Mg4 O0 2.072661 1_555
Mg4 O3 2.073690 1_555
Mg4 O2 2.075123 1_555
Mg4 O23 2.128617 1_554
Mg4 O20 2.129341 1_554
Mg4 O21 2.131781 1_554
Mg5 O22 1.958081 1_555
Mg5 O19 2.015101 1_555
Mg5 O13 2.019604 1_655
Mg5 O14 2.024454 1_565
Co0 O2 1.976602 1_555
Co0 O3 1.977992 1_555
Co0 O7 2.010832 1_555
Co0 O5 2.012211 1_555
Co0 O1 2.027110 1_555
Co0 O8 2.048491 1_555
Co1 O3 1.974815 1_555
Co1 O0 1.976262 1_555
Co1 O5 2.007382 1_545
Co1 O11 2.010216 1_545
Co1 O1 2.028622 1_555
Co1 O8 2.051743 1_545
Co2 O10 1.948737 1_555
Co2 O9 1.967077 1_555
Co2 O6 2.033546 1_555
Co2 O16 2.053358 1_555
Co2 O13 2.060837 1_555
Co2 O14 2.068311 1_555
Co3 O2 1.974454 1_555
Co3 O0 1.977891 1_555
Co3 O7 2.006223 1_455
Co3 O11 2.013339 1_455
Co3 O1 2.028297 1_555
Co3 O8 2.050416 1_455
Co4 O4 1.944581 1_555
Co4 O10 1.963545 1_555
Co4 O6 2.030886 1_555
Co4 O16 2.048219 1_545
Co4 O19 2.054423 1_545
Co4 O13 2.064221 1_545
Co5 O13 1.915709 1_555
Co5 O17 1.915730 1_555
Co5 O19 1.916429 1_555
Co5 O18 1.917815 1_555
Co5 O14 1.922664 1_555
Co5 O12 1.925854 1_555
Co6 O11 1.951711 1_555
Co6 O5 1.951885 1_655
Co6 O7 1.951985 1_565
Co6 O16 1.997422 1_555
Co7 O21 1.975729 1_555
Co7 O20 1.976691 1_555
Co7 O15 2.033024 1_555
Co7 O22 2.034182 1_555
Co7 O18 2.062696 1_555
Co7 O17 2.064043 1_555
Co8 O9 1.940944 1_555
Co8 O4 1.977521 1_555
Co8 O6 2.031396 1_555
Co8 O14 2.044377 1_455
Co8 O16 2.051319 1_455
Co8 O19 2.071560 1_455
Co9 O20 1.978025 1_555
Co9 O23 1.979786 1_555
Co9 O22 2.036183 1_555
Co9 O15 2.036682 1_565
Co9 O12 2.053622 1_565
Co9 O18 2.059153 1_565
Co10 O21 1.977389 1_555
Co10 O23 1.981098 1_555
Co10 O15 2.033947 1_655
Co10 O22 2.035089 1_555
Co10 O12 2.057297 1_655
Co10 O17 2.058814 1_655
Co11 O23 1.955441 1_555
Co11 O20 1.956038 1_655
Co11 O21 1.956263 1_565
Co11 O8 1.961209 1_556
