# generated using pymatgen
data_Li3V3O8
_symmetry_space_group_name_H-M   'P 1'
_cell_length_a   5.92106725
_cell_length_b   5.90887860
_cell_length_c   10.22788283
_cell_angle_alpha   106.19732479
_cell_angle_beta   90.00004282
_cell_angle_gamma   120.06822018
_symmetry_Int_Tables_number   1
_chemical_formula_structural   Li3V3O8
_chemical_formula_sum   'Li6 V6 O16'
_cell_volume   293.15873530
_cell_formula_units_Z   2
loop_
 _symmetry_equiv_pos_site_id
 _symmetry_equiv_pos_as_xyz
  1  'x, y, z'
loop_
 _atom_site_type_symbol
 _atom_site_label
 _atom_site_symmetry_multiplicity
 _atom_site_fract_x
 _atom_site_fract_y
 _atom_site_fract_z
 _atom_site_occupancy
  Li  Li0  1  0.43586600  0.87173400  0.31409200  1
  Li  Li1  1  0.93587200  0.87174700  0.81408500  1
  Li  Li2  1  0.00240400  0.50296800  0.99853100  1
  Li  Li3  1  0.50241000  0.50298800  0.49852600  1
  Li  Li4  1  0.50056400  0.50296900  0.99853100  1
  Li  Li5  1  0.00057800  0.50298800  0.49852600  1
  V  V0  1  0.56244300  0.12488500  0.68757200  1
  V  V1  1  0.47993200  0.95986900  0.00358700  1
  V  V2  1  0.97996800  0.95994100  0.50359300  1
  V  V3  1  0.06240700  0.12481200  0.18753200  1
  V  V4  1  0.24645100  0.49289800  0.77006600  1
  V  V5  1  0.74644500  0.49288400  0.27012300  1
  O  O0  1  0.11794400  0.23588600  0.36527600  1
  O  O1  1  0.61795400  0.23590700  0.86529700  1
  O  O2  1  0.38469500  0.76939000  0.63207800  1
  O  O3  1  0.88465500  0.76931100  0.13205800  1
  O  O4  1  0.36914400  0.24843800  0.62577800  1
  O  O5  1  0.86914700  0.24842300  0.12577000  1
  O  O6  1  0.87929500  0.24843800  0.62577800  1
  O  O7  1  0.37927800  0.24842400  0.12577000  1
  O  O8  1  0.13817300  0.27634600  0.86649500  1
  O  O9  1  0.63814600  0.27629100  0.36650700  1
  O  O10  1  0.38347200  0.76694300  0.11182400  1
  O  O11  1  0.88346700  0.76693400  0.61181100  1
  O  O12  1  0.59390700  0.74964000  0.87519700  1
  O  O13  1  0.09391800  0.74965100  0.37519700  1
  O  O14  1  0.15573200  0.74964100  0.87519700  1
  O  O15  1  0.65573300  0.74965100  0.37519600  1
loop_
_geom_bond_atom_site_label_1
_geom_bond_atom_site_label_2
_geom_bond_distance
_geom_bond_site_symmetry_2
Li0 O13 1.948928 1_555
Li0 O15 1.948932 1_555
Li0 O10 1.962736 1_555
Li0 O9 1.962737 1_565
Li1 O12 1.949036 1_555
Li1 O14 1.949039 1_655
Li1 O11 1.962788 1_555
Li1 O8 1.962948 1_665
Li2 O14 2.059056 1_555
Li2 O10 2.081266 1_556
Li2 O8 2.081571 1_555
Li2 O5 2.116889 1_456
Li2 O3 2.174500 1_456
Li2 O1 2.174782 1_455
Li3 O15 2.058982 1_555
Li3 O11 2.081183 1_555
Li3 O9 2.081641 1_555
Li3 O4 2.117018 1_555
Li3 O2 2.174718 1_555
Li3 O0 2.174922 1_555
Li4 O12 2.059048 1_555
Li4 O10 2.081257 1_556
Li4 O8 2.081570 1_555
Li4 O7 2.116889 1_556
Li4 O3 2.174495 1_556
Li4 O1 2.174790 1_555
Li5 O13 2.058973 1_555
Li5 O11 2.081183 1_455
Li5 O9 2.081637 1_455
Li5 O6 2.117018 1_455
Li5 O2 2.174718 1_555
Li5 O0 2.174930 1_555
O0 V3 1.721015 1_555
O0 V2 2.297706 1_445
O1 V0 1.720833 1_555
O1 V1 2.297867 1_546
O2 V0 1.720978 1_565
O2 V4 2.297243 1_555
O3 V3 1.721009 1_665
O3 V5 2.297613 1_555
O4 V0 1.826779 1_555
O4 V2 2.157056 1_445
O4 V4 2.157417 1_555
O5 V3 1.826716 1_655
O5 V1 2.157235 1_545
O5 V5 2.157787 1_555
O6 V0 1.826781 1_555
O6 V2 2.157032 1_545
O6 V4 2.157428 1_655
O7 V3 1.826718 1_555
O7 V1 2.157212 1_545
O7 V5 2.157803 1_555
O8 V4 1.703844 1_555
O9 V5 1.703657 1_555
O10 V1 1.703791 1_555
O11 V2 1.703955 1_555
O12 V4 1.911187 1_555
O12 V1 1.911259 1_556
O13 V5 1.911071 1_455
O13 V2 1.911418 1_455
O14 V4 1.911212 1_555
O14 V1 1.911243 1_556
O15 V5 1.911091 1_555
O15 V2 1.911403 1_555
