# generated using pymatgen
data_MgNb2Te4Cl10O
_symmetry_space_group_name_H-M   'P 1'
_cell_length_a   7.15780133
_cell_length_b   9.04578817
_cell_length_c   9.67527702
_cell_angle_alpha   82.80779713
_cell_angle_beta   90.77160578
_cell_angle_gamma   76.03011148
_symmetry_Int_Tables_number   1
_chemical_formula_structural   MgNb2Te4Cl10O
_chemical_formula_sum   'Mg1 Nb2 Te4 Cl10 O1'
_cell_volume   602.52092593
_cell_formula_units_Z   1
loop_
 _symmetry_equiv_pos_site_id
 _symmetry_equiv_pos_as_xyz
  1  'x, y, z'
loop_
 _atom_site_type_symbol
 _atom_site_label
 _atom_site_symmetry_multiplicity
 _atom_site_fract_x
 _atom_site_fract_y
 _atom_site_fract_z
 _atom_site_occupancy
  Mg  Mg0  1  0.39935600  0.69636000  0.33794600  1
  Nb  Nb0  1  0.54168100  0.61631700  0.64946600  1
  Nb  Nb1  1  0.49171100  0.33828600  0.37931800  1
  Te  Te0  1  0.10455600  0.96622800  0.18353200  1
  Te  Te1  1  0.06084700  0.21638500  0.96208000  1
  Te  Te2  1  0.90998200  0.81914100  0.02165400  1
  Te  Te3  1  0.81497000  0.08531900  0.83083300  1
  Cl  Cl0  1  0.45151500  0.19520100  0.19441600  1
  Cl  Cl1  1  0.40568700  0.46847400  0.81443300  1
  Cl  Cl2  1  0.80319800  0.19783400  0.44076200  1
  Cl  Cl3  1  0.17248300  0.52919700  0.29862300  1
  Cl  Cl4  1  0.60646100  0.52119600  0.19532400  1
  Cl  Cl5  1  0.33498900  0.20506700  0.53849700  1
  Cl  Cl6  1  0.86324700  0.47259200  0.70247800  1
  Cl  Cl7  1  0.65561900  0.78197300  0.44593500  1
  Cl  Cl8  1  0.22046600  0.77807000  0.55144400  1
  Cl  Cl9  1  0.55901000  0.81037400  0.79188500  1
  O  O0  1  0.51163000  0.49484500  0.49708600  1
loop_
_geom_bond_atom_site_label_1
_geom_bond_atom_site_label_2
_geom_bond_distance
_geom_bond_site_symmetry_2
Mg0 O0 2.212689 1_555
Mg0 Te0 3.026336 1_555
Nb0 O0 1.984561 1_555
Nb1 O0 1.954850 1_555
Te0 Te2 2.742393 1_455
Te0 Te1 2.869724 1_564
Te1 Te3 2.727596 1_455
Te2 Te3 2.780475 1_564
Cl0 Nb1 2.388349 1_555
Cl1 Nb0 2.327984 1_555
Cl2 Nb1 2.312149 1_555
Cl3 Mg0 2.526136 1_555
Cl3 Nb1 2.553839 1_555
Cl4 Mg0 2.465930 1_555
Cl4 Nb1 2.557207 1_555
Cl5 Nb1 2.305866 1_555
Cl6 Nb0 2.368036 1_555
Cl7 Mg0 2.427519 1_555
Cl7 Nb0 2.585117 1_555
Cl8 Nb0 2.509214 1_555
Cl8 Mg0 2.539565 1_555
Cl9 Nb0 2.387830 1_555
