# generated using pymatgen
data_KNaMg2F6
_symmetry_space_group_name_H-M   'P 1'
_cell_length_a   4.00758100
_cell_length_b   4.00758100
_cell_length_c   7.99487000
_cell_angle_alpha   90.00000000
_cell_angle_beta   90.00000000
_cell_angle_gamma   90.00000000
_symmetry_Int_Tables_number   1
_chemical_formula_structural   KNaMg2F6
_chemical_formula_sum   'K1 Na1 Mg2 F6'
_cell_volume   128.40325235
_cell_formula_units_Z   1
loop_
 _symmetry_equiv_pos_site_id
 _symmetry_equiv_pos_as_xyz
  1  'x, y, z'
loop_
 _atom_site_type_symbol
 _atom_site_label
 _atom_site_symmetry_multiplicity
 _atom_site_fract_x
 _atom_site_fract_y
 _atom_site_fract_z
 _atom_site_occupancy
  K  K0  1  0.50000000  0.50000000  0.50000000  1
  Na  Na0  1  0.50000000  0.50000000  0.00000000  1
  Mg  Mg0  1  0.00000000  0.00000000  0.24663300  1
  Mg  Mg1  1  0.00000000  0.00000000  0.75336700  1
  F  F0  1  0.50000000  0.00000000  0.24352000  1
  F  F1  1  0.50000000  0.00000000  0.75648000  1
  F  F2  1  0.00000000  0.50000000  0.75648000  1
  F  F3  1  0.00000000  0.50000000  0.24352000  1
  F  F4  1  0.00000000  0.00000000  0.00000000  1
  F  F5  1  0.00000000  0.00000000  0.50000000  1
loop_
_geom_bond_atom_site_label_1
_geom_bond_atom_site_label_2
_geom_bond_distance
_geom_bond_site_symmetry_2
F0 Mg0 2.003945 1_555
F0 Mg0 2.003945 1_655
F0 Na0 2.793857 1_545
F0 Na0 2.793857 1_555
F0 K0 2.867024 1_555
F0 K0 2.867024 1_545
F1 Mg1 2.003945 1_655
F1 Mg1 2.003945 1_555
F1 Na0 2.793857 1_546
F1 Na0 2.793857 1_556
F1 K0 2.867024 1_555
F1 K0 2.867024 1_545
F2 Mg1 2.003945 1_565
F2 Mg1 2.003945 1_555
F2 Na0 2.793857 1_556
F2 Na0 2.793857 1_456
F2 K0 2.867024 1_455
F2 K0 2.867024 1_555
F3 Mg0 2.003945 1_555
F3 Mg0 2.003945 1_565
F3 Na0 2.793857 1_455
F3 Na0 2.793857 1_555
F3 K0 2.867024 1_555
F3 K0 2.867024 1_455
F4 Mg1 1.971799 1_554
F4 Mg0 1.971799 1_555
F4 Na0 2.833788 1_545
F4 Na0 2.833788 1_555
F4 Na0 2.833788 1_445
F4 Na0 2.833788 1_455
F5 Mg1 2.025636 1_555
F5 Mg0 2.025636 1_555
F5 K0 2.833788 1_555
F5 K0 2.833788 1_455
F5 K0 2.833788 1_545
F5 K0 2.833788 1_445
