# generated using pymatgen
data_Sr2La2TlNi2O9
_symmetry_space_group_name_H-M   'P 1'
_cell_length_a   3.85507827
_cell_length_b   3.85508024
_cell_length_c   30.03851601
_cell_angle_alpha   89.99820777
_cell_angle_beta   89.99821536
_cell_angle_gamma   89.48289030
_symmetry_Int_Tables_number   1
_chemical_formula_structural   Sr2La2TlNi2O9
_chemical_formula_sum   'Sr4 La4 Tl2 Ni4 O18'
_cell_volume   446.40331015
_cell_formula_units_Z   2
loop_
 _symmetry_equiv_pos_site_id
 _symmetry_equiv_pos_as_xyz
  1  'x, y, z'
loop_
 _atom_site_type_symbol
 _atom_site_label
 _atom_site_symmetry_multiplicity
 _atom_site_fract_x
 _atom_site_fract_y
 _atom_site_fract_z
 _atom_site_occupancy
  Sr  Sr0  1  0.99563500  0.99563400  0.41665400  1
  Sr  Sr1  1  0.49570100  0.49569900  0.91651300  1
  Sr  Sr2  1  0.49565200  0.49565400  0.08340300  1
  Sr  Sr3  1  0.99568000  0.99568500  0.58345100  1
  La  La0  1  0.99917600  0.99917700  0.29790400  1
  La  La1  1  0.49919900  0.49920100  0.79780900  1
  La  La2  1  0.49914200  0.49914300  0.20210000  1
  La  La3  1  0.99924100  0.99924800  0.70214700  1
  Tl  Tl0  1  0.46213100  0.46212700  0.50004500  1
  Tl  Tl1  1  0.96213600  0.96213600  0.99996200  1
  Ni  Ni0  1  0.99909100  0.99900200  0.85475000  1
  Ni  Ni1  1  0.49923500  0.49924600  0.64523600  1
  Ni  Ni2  1  0.49884400  0.49886600  0.35509300  1
  Ni  Ni3  1  0.99911300  0.99910100  0.14486300  1
  O  O0  1  0.03547000  0.03547100  0.50001900  1
  O  O1  1  0.53542900  0.53543500  0.99997200  1
  O  O2  1  0.49956700  0.49956800  0.28121300  1
  O  O3  1  0.99953900  0.99954800  0.78110800  1
  O  O4  1  0.99954900  0.99955900  0.21890900  1
  O  O5  1  0.49958400  0.49958400  0.71879100  1
  O  O6  1  0.50891700  0.50892000  0.42992700  1
  O  O7  1  0.00886400  0.00886800  0.92987100  1
  O  O8  1  0.00889600  0.00889800  0.07006400  1
  O  O9  1  0.50889800  0.50890200  0.57013600  1
  O  O10  1  0.49830400  0.99906200  0.35288200  1
  O  O11  1  0.99827500  0.49913400  0.85267000  1
  O  O12  1  0.99904200  0.49830400  0.35288200  1
  O  O13  1  0.49916300  0.99828000  0.85266900  1
  O  O14  1  0.99826000  0.49915600  0.14718100  1
  O  O15  1  0.49835600  0.99935800  0.64729900  1
  O  O16  1  0.49916800  0.99826500  0.14718000  1
  O  O17  1  0.99934100  0.49836500  0.64729600  1
loop_
_geom_bond_atom_site_label_1
_geom_bond_atom_site_label_2
_geom_bond_distance
_geom_bond_site_symmetry_2
La0 O4 2.372893 1_555
La0 O12 2.535733 1_565
La0 O10 2.535735 1_655
La0 O10 2.540769 1_555
La0 O12 2.540773 1_555
La0 O2 2.759553 1_565
La0 O2 2.759553 1_655
La0 O2 2.781664 1_555
La0 O2 2.785833 1_665
La1 O5 2.373584 1_555
La1 O13 2.533288 1_555
La1 O11 2.533297 1_555
La1 O13 2.538609 1_545
La1 O11 2.538637 1_455
La1 O3 2.759589 1_545
La1 O3 2.759626 1_455
La1 O3 2.781974 1_445
La1 O3 2.785632 1_555
La2 O2 2.376438 1_555
La2 O14 2.534477 1_555
La2 O16 2.534510 1_555
La2 O14 2.539721 1_455
La2 O16 2.539730 1_545
La2 O4 2.760175 1_545
La2 O4 2.760223 1_455
La2 O4 2.782151 1_445
La2 O4 2.786627 1_555
La3 O3 2.371872 1_555
La3 O15 2.533084 1_655
La3 O17 2.533148 1_565
La3 O15 2.538343 1_555
La3 O17 2.538397 1_555
La3 O5 2.759278 1_565
La3 O5 2.759315 1_655
La3 O5 2.781644 1_555
La3 O5 2.785345 1_665
Ni0 O11 1.928077 1_555
Ni0 O13 1.928304 1_555
Ni0 O13 1.928805 1_655
Ni0 O11 1.929033 1_565
Ni0 O3 2.212098 1_555
Ni0 O7 2.257166 1_665
Ni1 O15 1.928136 1_545
Ni1 O17 1.928155 1_455
Ni1 O17 1.928915 1_555
Ni1 O15 1.928942 1_555
Ni1 O5 2.209484 1_555
Ni1 O9 2.256510 1_555
Ni2 O12 1.927943 1_455
Ni2 O10 1.927951 1_545
Ni2 O10 1.929419 1_555
Ni2 O12 1.929425 1_555
Ni2 O2 2.219249 1_555
Ni2 O6 2.248580 1_555
Ni3 O16 1.928613 1_555
Ni3 O14 1.928616 1_555
Ni3 O16 1.928983 1_655
Ni3 O14 1.928985 1_565
Ni3 O4 2.224233 1_555
Ni3 O8 2.247488 1_665
O0 Tl0 2.336575 1_555
O0 Sr0 2.513655 1_445
O0 Sr3 2.515619 1_445
O0 Tl0 2.743174 1_455
O0 Tl0 2.743201 1_545
O1 Tl1 2.336824 1_555
O1 Sr2 2.515584 1_556
O1 Sr1 2.516419 1_555
O1 Tl1 2.743135 1_455
O1 Tl1 2.743167 1_545
O6 Tl0 2.121759 1_555
O6 Sr0 2.695113 1_555
O6 Sr0 2.743711 1_455
O6 Sr0 2.743733 1_545
O6 Sr0 2.839127 1_445
O7 Tl1 2.120915 1_445
O7 Sr1 2.696131 1_555
O7 Sr1 2.744061 1_455
O7 Sr1 2.744094 1_545
O7 Sr1 2.838847 1_445
O8 Tl1 2.121285 1_444
O8 Sr2 2.695659 1_555
O8 Sr2 2.744004 1_545
O8 Sr2 2.744004 1_455
O8 Sr2 2.839155 1_445
O9 Tl0 2.120964 1_555
O9 Sr3 2.695695 1_555
O9 Sr3 2.743893 1_545
O9 Sr3 2.743898 1_455
O9 Sr3 2.838909 1_445
O10 Sr0 2.710236 1_555
O10 Sr0 2.724916 1_455
O11 Sr1 2.712002 1_655
O11 Sr1 2.726156 1_555
O12 Sr0 2.710234 1_555
O12 Sr0 2.724919 1_545
O13 Sr1 2.712005 1_565
O13 Sr1 2.726198 1_555
O14 Sr2 2.710445 1_655
O14 Sr2 2.724964 1_555
O15 Sr3 2.711746 1_555
O15 Sr3 2.726637 1_455
O16 Sr2 2.710416 1_565
O16 Sr2 2.724953 1_555
O17 Sr3 2.711672 1_555
O17 Sr3 2.726585 1_545
