# generated using pymatgen
data_Y12Re5C6
_symmetry_space_group_name_H-M   'P 1'
_cell_length_a   10.50642392
_cell_length_b   10.50642392
_cell_length_c   5.01503500
_cell_angle_alpha   90.00000000
_cell_angle_beta   90.00000000
_cell_angle_gamma   119.99999953
_symmetry_Int_Tables_number   1
_chemical_formula_structural   Y12Re5C6
_chemical_formula_sum   'Y12 Re5 C6'
_cell_volume   479.41811777
_cell_formula_units_Z   1
loop_
 _symmetry_equiv_pos_site_id
 _symmetry_equiv_pos_as_xyz
  1  'x, y, z'
loop_
 _atom_site_type_symbol
 _atom_site_label
 _atom_site_symmetry_multiplicity
 _atom_site_fract_x
 _atom_site_fract_y
 _atom_site_fract_z
 _atom_site_occupancy
  Y  Y0  1  0.74716000  0.19269500  0.00000000  1
  Y  Y1  1  0.80730500  0.55446600  0.00000000  1
  Y  Y2  1  0.44553400  0.25284000  0.00000000  1
  Y  Y3  1  0.19269500  0.74716000  0.00000000  1
  Y  Y4  1  0.55446600  0.80730500  0.00000000  1
  Y  Y5  1  0.25284000  0.44553400  0.00000000  1
  Y  Y6  1  0.57231100  0.57231100  0.50000000  1
  Y  Y7  1  0.42768900  0.00000000  0.50000000  1
  Y  Y8  1  0.00000000  0.42768900  0.50000000  1
  Y  Y9  1  0.19831100  0.19831100  0.50000000  1
  Y  Y10  1  0.80168900  0.00000000  0.50000000  1
  Y  Y11  1  0.00000000  0.80168900  0.50000000  1
  Re  Re0  1  0.86480800  0.86480800  0.00000000  1
  Re  Re1  1  0.13519200  0.00000000  0.00000000  1
  Re  Re2  1  0.00000000  0.13519200  0.00000000  1
  Re  Re3  1  0.66666700  0.33333300  0.50000000  1
  Re  Re4  1  0.33333300  0.66666700  0.50000000  1
  C  C0  1  0.72554600  0.18606300  0.50000000  1
  C  C1  1  0.81393700  0.53948200  0.50000000  1
  C  C2  1  0.46051800  0.27445400  0.50000000  1
  C  C3  1  0.18606300  0.72554600  0.50000000  1
  C  C4  1  0.53948200  0.81393700  0.50000000  1
  C  C5  1  0.27445400  0.46051800  0.50000000  1
loop_
_geom_bond_atom_site_label_1
_geom_bond_atom_site_label_2
_geom_bond_distance
_geom_bond_site_symmetry_2
Re0 Re1 2.460178 1_665
Re0 Re2 2.460178 1_665
Re0 Y1 3.004418 1_555
Re0 Y4 3.004418 1_555
Re0 Y10 3.112370 1_564
Re0 Y10 3.112370 1_565
Re0 Y11 3.112370 1_655
Re0 Y11 3.112370 1_654
Re1 Re2 2.460178 1_555
Re1 Y2 3.004421 1_555
Re1 Y3 3.004428 1_545
Re1 Y9 3.112370 1_555
Re1 Y9 3.112370 1_554
Re1 Y11 3.112370 1_545
Re1 Y11 3.112370 1_544
Re2 Y5 3.004421 1_555
Re2 Y0 3.004428 1_455
Re2 Y9 3.112370 1_555
Re2 Y9 3.112370 1_554
Re2 Y10 3.112370 1_455
Re2 Y10 3.112370 1_454
C0 Re3 1.932334 1_555
C0 Y10 2.454652 1_555
C0 Y0 2.515600 1_556
C0 Y0 2.515600 1_555
C0 Y8 2.727483 1_655
C0 Y7 2.738089 1_555
C1 Re3 1.932334 1_555
C1 Y11 2.454660 1_655
C1 Y1 2.515602 1_556
C1 Y1 2.515602 1_555
C1 Y6 2.727489 1_555
C1 Y8 2.738081 1_655
C2 Re3 1.932334 1_555
C2 Y9 2.454662 1_555
C2 Y2 2.515601 1_555
C2 Y2 2.515601 1_556
C2 Y7 2.727478 1_555
C2 Y6 2.738091 1_555
C3 Re4 1.932334 1_555
C3 Y11 2.454652 1_555
C3 Y3 2.515600 1_556
C3 Y3 2.515600 1_555
C3 Y7 2.727483 1_565
C3 Y8 2.738089 1_555
C4 Re4 1.932334 1_555
C4 Y10 2.454660 1_565
C4 Y4 2.515602 1_555
C4 Y4 2.515602 1_556
C4 Y6 2.727489 1_555
C4 Y7 2.738081 1_565
C5 Re4 1.932334 1_555
C5 Y9 2.454662 1_555
C5 Y5 2.515601 1_556
C5 Y5 2.515601 1_555
C5 Y8 2.727478 1_555
C5 Y6 2.738091 1_555
