# generated using pymatgen
data_BaAgBi
_symmetry_space_group_name_H-M   'P 1'
_cell_length_a   4.98849567
_cell_length_b   4.98849567
_cell_length_c   9.41422759
_cell_angle_alpha   90.00000000
_cell_angle_beta   90.00000000
_cell_angle_gamma   119.99999241
_symmetry_Int_Tables_number   1
_chemical_formula_structural   BaAgBi
_chemical_formula_sum   'Ba2 Ag2 Bi2'
_cell_volume   202.88715718
_cell_formula_units_Z   2
loop_
 _symmetry_equiv_pos_site_id
 _symmetry_equiv_pos_as_xyz
  1  'x, y, z'
loop_
 _atom_site_type_symbol
 _atom_site_label
 _atom_site_symmetry_multiplicity
 _atom_site_fract_x
 _atom_site_fract_y
 _atom_site_fract_z
 _atom_site_occupancy
  Ba  Ba0  1  0.00000000  -0.00000000  0.50000000  1
  Ba  Ba1  1  0.00000000  -0.00000000  0.00000000  1
  Ag  Ag0  1  0.33333300  0.66666700  0.25000000  1
  Ag  Ag1  1  0.66666700  0.33333300  0.75000000  1
  Bi  Bi0  1  0.33333300  0.66666700  0.75000000  1
  Bi  Bi1  1  0.66666700  0.33333300  0.25000000  1
loop_
_geom_bond_atom_site_label_1
_geom_bond_atom_site_label_2
_geom_bond_distance
_geom_bond_site_symmetry_2
Ba0 Bi0 3.719441 1_545
Ba0 Bi1 3.719441 1_455
Ba0 Bi1 3.719445 1_555
Ba0 Bi0 3.719445 1_555
Ba0 Bi0 3.719445 1_445
Ba0 Bi1 3.719445 1_445
Ba1 Bi0 3.719441 1_544
Ba1 Bi1 3.719441 1_455
Ba1 Bi1 3.719445 1_555
Ba1 Bi0 3.719445 1_444
Ba1 Bi1 3.719445 1_445
Ba1 Bi0 3.719445 1_554
Ag0 Bi1 2.880107 1_455
Ag0 Bi1 2.880107 1_565
Ag0 Bi1 2.880115 1_555
Ag0 Ba0 3.719441 1_565
Ag0 Ba1 3.719441 1_565
Ag0 Ba1 3.719445 1_555
Ag0 Ba0 3.719445 1_555
Ag0 Ba0 3.719445 1_665
Ag0 Ba1 3.719445 1_665
Ag1 Bi0 2.880107 1_545
Ag1 Bi0 2.880107 1_655
Ag1 Bi0 2.880115 1_555
Ag1 Ba0 3.719441 1_655
Ag1 Ba1 3.719441 1_656
Ag1 Ba1 3.719445 1_556
Ag1 Ba0 3.719445 1_555
Ag1 Ba0 3.719445 1_665
Ag1 Ba1 3.719445 1_666
