# generated using pymatgen
data_Mg14CoW
_symmetry_space_group_name_H-M   'P 1'
_cell_length_a   6.19467802
_cell_length_b   6.04682888
_cell_length_c   9.85698936
_cell_angle_alpha   90.00000000
_cell_angle_beta   90.00000000
_cell_angle_gamma   119.21357823
_symmetry_Int_Tables_number   1
_chemical_formula_structural   Mg14CoW
_chemical_formula_sum   'Mg14 Co1 W1'
_cell_volume   322.26166412
_cell_formula_units_Z   1
loop_
 _symmetry_equiv_pos_site_id
 _symmetry_equiv_pos_as_xyz
  1  'x, y, z'
loop_
 _atom_site_type_symbol
 _atom_site_label
 _atom_site_symmetry_multiplicity
 _atom_site_fract_x
 _atom_site_fract_y
 _atom_site_fract_z
 _atom_site_occupancy
  Mg  Mg0  1  0.16691560  0.33345729  0.62500000  1
  Mg  Mg1  1  0.16666260  0.83333080  0.62500000  1
  Mg  Mg2  1  0.66293303  0.33468275  0.12500000  1
  Mg  Mg3  1  0.66421888  0.33025353  0.62500000  1
  Mg  Mg4  1  0.66293303  0.82824926  0.12500000  1
  Mg  Mg5  1  0.66421888  0.83396435  0.62500000  1
  Mg  Mg6  1  0.32628552  0.16107201  0.35513220  1
  Mg  Mg7  1  0.32628552  0.16107201  0.89486780  1
  Mg  Mg8  1  0.32628552  0.66521451  0.35513220  1
  Mg  Mg9  1  0.32628552  0.66521451  0.89486780  1
  Mg  Mg10  1  0.85467478  0.17733789  0.36128129  1
  Mg  Mg11  1  0.85467478  0.17733789  0.88871871  1
  Mg  Mg12  1  0.84725981  0.67363040  0.36955000  1
  Mg  Mg13  1  0.84725981  0.67363040  0.88045000  1
  Co  Co0  1  0.15513022  0.32756461  0.12500000  1
  W  W0  1  0.14797650  0.82398775  0.12500000  1
loop_
_geom_bond_atom_site_label_1
_geom_bond_atom_site_label_2
_geom_bond_distance
_geom_bond_site_symmetry_2
Mg0 Mg1 3.023415 1_545
Mg0 Mg1 3.023415 1_555
Mg0 Mg5 3.090135 1_555
Mg0 Mg3 3.090135 1_555
Mg0 Mg11 3.099566 1_455
Mg0 Mg10 3.099566 1_455
Mg0 Mg5 3.104635 1_445
Mg0 Mg3 3.104635 1_455
Mg0 Mg6 3.184618 1_555
Mg0 Mg7 3.184618 1_555
Mg0 Mg8 3.184624 1_555
Mg0 Mg9 3.184624 1_555
Mg1 Mg12 3.053270 1_455
Mg1 Mg13 3.053270 1_455
Mg1 Mg3 3.080333 1_565
Mg1 Mg5 3.080333 1_555
Mg1 Mg3 3.114348 1_455
Mg1 Mg5 3.114349 1_455
Mg1 Mg8 3.173077 1_555
Mg1 Mg9 3.173077 1_555
Mg1 Mg7 3.173083 1_565
Mg1 Mg6 3.173083 1_565
Mg2 Mg7 2.908561 1_554
Mg2 Mg6 2.908561 1_555
Mg2 Mg4 2.984512 1_555
Mg2 W0 3.017349 1_655
Mg2 Mg4 3.062317 1_545
Mg2 W0 3.177492 1_545
Mg3 Mg5 3.000976 1_545
Mg3 Mg5 3.045853 1_555
Mg3 Mg6 3.227139 1_555
Mg3 Mg7 3.227139 1_555
Mg4 Mg8 2.908562 1_555
Mg4 Mg9 2.908562 1_554
Mg4 W0 3.017349 1_655
Mg4 W0 3.177493 1_555
Mg5 Mg9 3.227139 1_555
Mg5 Mg8 3.227139 1_555
Mg6 W0 2.884907 1_545
Mg6 Mg8 2.998365 1_545
Mg6 Mg8 3.048463 1_555
Mg7 W0 2.884907 1_546
Mg7 Mg9 2.998365 1_545
Mg7 Mg9 3.048463 1_555
Mg8 W0 2.884901 1_555
Mg9 W0 2.884901 1_556
Mg10 Mg8 2.971340 1_655
Mg10 Mg6 2.971340 1_655
Mg10 Mg2 2.973806 1_555
Mg10 Mg4 2.973812 1_545
Mg10 Mg12 3.024779 1_555
Mg10 Mg12 3.024779 1_545
Mg10 Mg3 3.173182 1_555
Mg10 Mg5 3.173188 1_545
Mg10 Mg8 3.226908 1_545
Mg10 Mg6 3.226908 1_555
Mg11 Mg9 2.971340 1_655
Mg11 Mg7 2.971340 1_655
Mg11 Mg2 2.973806 1_556
Mg11 Mg4 2.973812 1_546
Mg11 Mg13 3.024779 1_555
Mg11 Mg13 3.024779 1_545
Mg11 Mg3 3.173182 1_555
Mg11 Mg5 3.173188 1_545
Mg11 Mg9 3.226908 1_545
Mg11 Mg7 3.226908 1_555
Mg12 W0 2.907610 1_655
Mg12 Mg6 2.995950 1_665
Mg12 Mg8 2.995950 1_655
Mg12 Mg4 3.005109 1_555
Mg12 Mg2 3.005115 1_555
Mg12 Mg5 3.104653 1_555
Mg12 Mg3 3.104659 1_555
Mg12 Mg6 3.205890 1_555
Mg12 Mg8 3.205890 1_555
Mg13 W0 2.907610 1_656
Mg13 Mg7 2.995950 1_665
Mg13 Mg9 2.995950 1_655
Mg13 Mg4 3.005109 1_556
Mg13 Mg2 3.005115 1_556
Mg13 Mg5 3.104653 1_555
Mg13 Mg3 3.104659 1_555
Mg13 Mg7 3.205890 1_555
Mg13 Mg9 3.205890 1_555
Co0 Mg11 2.839597 1_454
Co0 Mg10 2.839597 1_455
Co0 Mg6 2.885361 1_555
Co0 Mg7 2.885361 1_554
Co0 Mg9 2.885367 1_554
Co0 Mg8 2.885367 1_555
Co0 W0 3.023662 1_545
Co0 W0 3.023662 1_555
Co0 Mg4 3.070240 1_445
Co0 Mg2 3.070240 1_455
Co0 Mg4 3.124893 1_555
Co0 Mg2 3.124893 1_555
