# generated using pymatgen
data_Li3MnV(PO4)3
_symmetry_space_group_name_H-M   'P 1'
_cell_length_a   9.08851837
_cell_length_b   8.57798998
_cell_length_c   14.51576389
_cell_angle_alpha   89.59524394
_cell_angle_beta   74.21453109
_cell_angle_gamma   61.33712653
_symmetry_Int_Tables_number   1
_chemical_formula_structural   Li3MnV(PO4)3
_chemical_formula_sum   'Li12 Mn4 V4 P12 O48'
_cell_volume   945.27770822
_cell_formula_units_Z   4
loop_
 _symmetry_equiv_pos_site_id
 _symmetry_equiv_pos_as_xyz
  1  'x, y, z'
loop_
 _atom_site_type_symbol
 _atom_site_label
 _atom_site_symmetry_multiplicity
 _atom_site_fract_x
 _atom_site_fract_y
 _atom_site_fract_z
 _atom_site_occupancy
  Li  Li0  1  0.14748000  0.25333200  0.33069000  1
  Li  Li1  1  0.14602500  0.79768100  0.13241800  1
  Li  Li2  1  0.14657100  0.29657500  0.63157400  1
  Li  Li3  1  0.14814200  0.72723400  0.46074900  1
  Li  Li4  1  0.15338600  0.22231600  0.95788300  1
  Li  Li5  1  0.14583500  0.75305200  0.83409800  1
  Li  Li6  1  0.85695300  0.24632700  0.16657100  1
  Li  Li7  1  0.85014200  0.77927100  0.04162600  1
  Li  Li8  1  0.85101800  0.27488900  0.53975600  1
  Li  Li9  1  0.84946100  0.70540800  0.36825800  1
  Li  Li10  1  0.85269800  0.20410900  0.87023400  1
  Li  Li11  1  0.85250900  0.74422900  0.66756800  1
  Mn  Mn0  1  0.04509300  0.47803300  0.82544300  1
  Mn  Mn1  1  0.55975000  0.21707300  0.07197900  1
  Mn  Mn2  1  0.56124000  0.71794400  0.57039500  1
  Mn  Mn3  1  0.95658100  0.52152900  0.17428800  1
  V  V0  1  0.04398800  0.97935300  0.32568100  1
  V  V1  1  0.43380400  0.28233700  0.42911600  1
  V  V2  1  0.43991500  0.78026200  0.92691900  1
  V  V3  1  0.95258000  0.02224400  0.67441900  1
  P  P0  1  0.25042000  0.07711800  0.12332100  1
  P  P1  1  0.24901500  0.02057000  0.47928900  1
  P  P2  1  0.24983000  0.52160600  0.26957400  1
  P  P3  1  0.25473600  0.01326700  0.76602500  1
  P  P4  1  0.24648900  0.58119400  0.62659000  1
  P  P5  1  0.25259300  0.51711900  0.97998400  1
  P  P6  1  0.75649000  0.48164300  0.02025300  1
  P  P7  1  0.74540800  0.41816700  0.37716200  1
  P  P8  1  0.74481200  0.98851600  0.23058200  1
  P  P9  1  0.75182200  0.47763700  0.72916500  1
  P  P10  1  0.75056100  0.98141300  0.52147100  1
  P  P11  1  0.74838100  0.91885100  0.87626900  1
  O  O0  1  0.09591000  0.24678500  0.10123200  1
  O  O1  1  0.18911200  0.06332200  0.23316700  1
  O  O2  1  0.09702400  0.61699800  0.07803300  1
  O  O3  1  0.09621900  0.11415700  0.57868900  1
  O  O4  1  0.09370200  0.48283300  0.27106400  1
  O  O5  1  0.41760400  0.08566400  0.09955200  1
  O  O6  1  0.26262500  0.17732200  0.43195300  1
  O  O7  1  0.19227400  0.71878200  0.25352600  1
  O  O8  1  0.20093800  0.20770600  0.74925000  1
  O  O9  1  0.26471300  0.49796700  0.37333100  1
  O  O10  1  0.42002500  0.39178600  0.19263100  1
  O  O11  1  0.09356900  0.75768800  0.60583300  1
  O  O12  1  0.27067100  0.91528600  0.06125100  1
  O  O13  1  0.26036800  0.42641800  0.56360400  1
  O  O14  1  0.57459800  0.12161700  0.30606400  1
  O  O15  1  0.18837100  0.56113000  0.73646800  1
  O  O16  1  0.19264400  0.92510000  0.41677100  1
  O  O17  1  0.19953400  0.41968000  0.91738200  1
  O  O18  1  0.72766900  0.01371600  0.12611600  1
  O  O19  1  0.58624300  0.61336700  0.00034500  1
  O  O20  1  0.57881900  0.11496900  0.50375900  1
  O  O21  1  0.10164600  0.97211000  0.76685600  1
  O  O22  1  0.74691000  0.32364900  0.06486400  1
  O  O23  1  0.57740600  0.40949300  0.40468500  1
  O  O24  1  0.41413900  0.58849300  0.60441400  1
  O  O25  1  0.27193800  0.67036600  0.93110500  1
  O  O26  1  0.90017100  0.02616200  0.22958200  1
  O  O27  1  0.42161400  0.88536900  0.49539100  1
  O  O28  1  0.42419300  0.38513900  0.99923700  1
  O  O29  1  0.27139300  0.98879500  0.87004400  1
  O  O30  1  0.80626300  0.58315100  0.08353700  1
  O  O31  1  0.80590000  0.08014000  0.58302900  1
  O  O32  1  0.80201100  0.43980400  0.26893300  1
  O  O33  1  0.42800800  0.87906500  0.69092200  1
  O  O34  1  0.72814800  0.57640600  0.44128000  1
  O  O35  1  0.72795600  0.08085700  0.93765400  1
  O  O36  1  0.90205600  0.24395500  0.39669700  1
  O  O37  1  0.58285000  0.60793300  0.80750500  1
  O  O38  1  0.73236100  0.50279700  0.62652900  1
  O  O39  1  0.79861600  0.79433300  0.24765500  1
  O  O40  1  0.80689400  0.28155000  0.74731200  1
  O  O41  1  0.74100600  0.82430000  0.56837400  1
  O  O42  1  0.58016100  0.90796600  0.90112200  1
  O  O43  1  0.90687800  0.51587600  0.72744900  1
  O  O44  1  0.90296100  0.88849900  0.42104500  1
  O  O45  1  0.91226800  0.38727900  0.91980500  1
  O  O46  1  0.80678100  0.93462500  0.76712800  1
  O  O47  1  0.90311300  0.74929600  0.89846800  1
loop_
_geom_bond_atom_site_label_1
_geom_bond_atom_site_label_2
_geom_bond_distance
_geom_bond_site_symmetry_2
Li0 O6 1.962073 1_555
Li0 O1 1.988289 1_555
Li0 O4 2.036333 1_555
Li0 O36 2.215415 1_455
Li1 O12 1.952721 1_555
Li1 O7 1.958962 1_555
Li1 O2 2.023476 1_555
Li1 O26 2.224085 1_465
Li2 O13 1.953971 1_555
Li2 O8 1.955133 1_555
Li2 O3 2.035269 1_555
Li2 O43 2.162748 1_455
Li3 O9 1.976204 1_555
Li3 O16 1.988636 1_555
Li3 O11 2.016102 1_555
Li3 O44 2.222972 1_455
Li4 O17 1.980076 1_555
Li4 O0 1.989056 1_556
Li4 O29 2.004918 1_545
Li4 O45 2.187082 1_455
Li5 O25 1.970672 1_555
Li5 O15 1.998122 1_555
Li5 O21 2.026905 1_555
Li5 O47 2.164894 1_455
Li6 O22 1.942409 1_555
Li6 O26 2.004250 1_555
Li6 O32 2.011891 1_555
Li6 O0 2.122164 1_655
Li7 O30 1.963791 1_555
Li7 O18 1.982979 1_565
Li7 O47 1.990141 1_554
Li7 O2 2.211341 1_655
Li8 O38 1.960804 1_555
Li8 O31 1.963579 1_555
Li8 O36 1.990858 1_555
Li8 O3 2.216593 1_655
Li9 O39 1.985771 1_555
Li9 O34 2.020317 1_555
Li9 O44 2.059730 1_555
Li9 O4 2.198098 1_655
Li10 O35 1.972929 1_555
Li10 O40 1.980007 1_555
Li10 O45 2.079335 1_555
Li10 O21 2.281871 1_645
Li11 O41 1.919419 1_555
Li11 O46 1.996023 1_555
Li11 O43 2.029222 1_555
Li11 O11 2.188453 1_655
Mn0 O15 1.958123 1_555
Mn0 O45 1.981501 1_455
Mn0 O43 2.069105 1_455
Mn0 O17 2.082681 1_555
Mn0 O47 2.147880 1_455
Mn0 O8 2.153991 1_555
Mn1 O28 1.921871 1_554
Mn1 O10 1.981730 1_555
Mn1 O18 2.017133 1_555
Mn1 O35 2.049640 1_554
Mn1 O5 2.051617 1_555
Mn1 O22 2.265999 1_555
Mn2 O33 1.927021 1_555
Mn2 O27 1.959478 1_555
Mn2 O34 2.001585 1_555
Mn2 O24 2.078823 1_555
Mn2 O38 2.098444 1_555
Mn2 O41 2.214941 1_555
Mn3 O30 2.039047 1_555
Mn3 O4 2.045906 1_655
Mn3 O32 2.057544 1_555
Mn3 O2 2.066008 1_655
Mn3 O39 2.156818 1_555
Mn3 O0 2.173511 1_655
O0 P0 1.571859 1_555
O1 P0 1.563365 1_555
O1 V0 1.998975 1_545
O2 P5 1.587163 1_554
O3 P1 1.584784 1_555
O3 V3 2.059552 1_455
O4 P2 1.600159 1_555
O5 P0 1.501475 1_555
O6 P1 1.547800 1_555
O6 V1 2.131342 1_555
O7 P2 1.549393 1_555
O7 V0 2.069935 1_555
O8 P3 1.535236 1_555
O9 P2 1.551774 1_555
O9 V1 2.089910 1_555
O10 P2 1.518342 1_555
O11 P4 1.586611 1_555
O11 V3 2.081190 1_465
O12 P0 1.566873 1_565
O12 V2 2.049561 1_554
O13 P4 1.551864 1_555
O13 V1 2.077067 1_555
O14 P8 1.516028 1_545
O14 V1 1.956391 1_555
O15 P4 1.574007 1_555
O16 P1 1.556486 1_565
O16 V0 2.037241 1_555
O17 P5 1.546845 1_555
O18 P8 1.569104 1_545
O19 P6 1.521786 1_555
O19 V2 1.969108 1_554
O20 P10 1.521077 1_545
O20 V1 1.977872 1_555
O21 P3 1.588303 1_565
O21 V3 2.059800 1_465
O22 P6 1.527678 1_555
O23 P7 1.507718 1_555
O23 V1 2.031551 1_555
O24 P4 1.501183 1_555
O25 P5 1.550174 1_555
O25 V2 2.133629 1_555
O26 P8 1.588832 1_545
O26 V0 2.072729 1_645
O27 P1 1.520129 1_565
O28 P5 1.526759 1_555
O29 P3 1.560843 1_565
O29 V2 2.065443 1_555
O30 P6 1.556250 1_555
O31 P10 1.559624 1_545
O31 V3 2.025197 1_555
O32 P7 1.554020 1_555
O33 P3 1.529127 1_565
O34 P7 1.570815 1_555
O35 P11 1.561948 1_545
O36 P7 1.585307 1_555
O36 V0 2.092666 1_645
O37 P9 1.523802 1_555
O37 V2 1.961189 1_555
O38 P9 1.549094 1_555
O39 P8 1.534215 1_555
O40 P9 1.551444 1_555
O40 V3 2.065439 1_555
O41 P10 1.534454 1_555
O42 P11 1.520754 1_555
O42 V2 2.009697 1_555
O43 P9 1.586936 1_555
O44 P10 1.592990 1_555
O44 V0 2.035712 1_655
O45 P6 1.606181 1_556
O46 P11 1.555085 1_555
O46 V3 2.025514 1_565
O47 P11 1.573107 1_555
