# generated using pymatgen
data_Ca3(MnN2)2
_symmetry_space_group_name_H-M   'P 1'
_cell_length_a   6.73958363
_cell_length_b   8.26657645
_cell_length_c   5.32762810
_cell_angle_alpha   90.00000194
_cell_angle_beta   92.13514980
_cell_angle_gamma   127.82744254
_symmetry_Int_Tables_number   1
_chemical_formula_structural   Ca3(MnN2)2
_chemical_formula_sum   'Ca6 Mn4 N8'
_cell_volume   234.18542162
_cell_formula_units_Z   2
loop_
 _symmetry_equiv_pos_site_id
 _symmetry_equiv_pos_as_xyz
  1  'x, y, z'
loop_
 _atom_site_type_symbol
 _atom_site_label
 _atom_site_symmetry_multiplicity
 _atom_site_fract_x
 _atom_site_fract_y
 _atom_site_fract_z
 _atom_site_occupancy
  Ca  Ca0  1  0.23964900  0.98529300  0.04326200  1
  Ca  Ca1  1  0.76035100  0.74564400  0.45673800  1
  Ca  Ca2  1  0.76035100  0.01470700  0.95673800  1
  Ca  Ca3  1  0.23964900  0.25435600  0.54326200  1
  Ca  Ca4  1  0.00000000  0.59804800  0.75000000  1
  Ca  Ca5  1  0.00000000  0.40195200  0.25000000  1
  Mn  Mn0  1  0.58769600  0.16815700  0.58188100  1
  Mn  Mn1  1  0.41230400  0.58046000  0.91811900  1
  Mn  Mn2  1  0.41230400  0.83184300  0.41811900  1
  Mn  Mn3  1  0.58769600  0.41954000  0.08188100  1
  N  N0  1  0.24237900  0.94202200  0.52393000  1
  N  N1  1  0.75762100  0.69964300  0.97607000  1
  N  N2  1  0.75762100  0.05797800  0.47607000  1
  N  N3  1  0.24237900  0.30035700  0.02393000  1
  N  N4  1  0.66481300  0.26736500  0.91085900  1
  N  N5  1  0.33518700  0.60255000  0.58914100  1
  N  N6  1  0.33518700  0.73263500  0.08914100  1
  N  N7  1  0.66481300  0.39745000  0.41085900  1
loop_
_geom_bond_atom_site_label_1
_geom_bond_atom_site_label_2
_geom_bond_distance
_geom_bond_site_symmetry_2
Ca0 N4 2.469952 1_564
Ca0 N6 2.544496 1_555
Ca0 N0 2.586630 1_555
Ca0 N3 2.595329 1_565
Ca0 N1 2.600382 1_454
Ca0 N0 2.792021 1_554
Ca1 N5 2.469949 1_555
Ca1 N7 2.544479 1_555
Ca1 N1 2.586630 1_554
Ca1 N2 2.595329 1_565
Ca1 N0 2.600382 1_655
Ca1 N1 2.792021 1_555
Ca2 N6 2.469952 1_546
Ca2 N4 2.544496 1_555
Ca2 N2 2.586630 1_555
Ca2 N1 2.595329 1_545
Ca2 N3 2.600382 1_656
Ca2 N2 2.792021 1_556
Ca3 N7 2.469949 1_555
Ca3 N5 2.544479 1_555
Ca3 N3 2.586630 1_556
Ca3 N0 2.595329 1_545
Ca3 N2 2.600382 1_455
Ca3 N3 2.792021 1_555
Ca4 N4 2.424891 1_455
Ca4 N5 2.424900 1_555
Ca4 N7 2.493725 1_455
Ca4 N6 2.493727 1_556
Ca4 N0 2.579484 1_555
Ca4 N1 2.579484 1_455
Ca5 N6 2.424891 1_555
Ca5 N7 2.424900 1_455
Ca5 N5 2.493725 1_555
Ca5 N4 2.493727 1_454
Ca5 N2 2.579484 1_455
Ca5 N3 2.579484 1_555
Mn0 N4 1.850372 1_555
Mn0 N7 1.876177 1_555
Mn0 N0 1.901664 1_545
Mn0 N2 1.945865 1_555
Mn1 N5 1.850370 1_555
Mn1 N6 1.876170 1_556
Mn1 N1 1.901662 1_555
Mn1 N3 1.945858 1_556
Mn2 N6 1.850372 1_555
Mn2 N5 1.876177 1_555
Mn2 N2 1.901664 1_565
Mn2 N0 1.945865 1_555
Mn3 N7 1.850370 1_555
Mn3 N4 1.876170 1_554
Mn3 N3 1.901662 1_555
Mn3 N1 1.945858 1_554
