# generated using pymatgen
data_NdGe5
_symmetry_space_group_name_H-M   'P 1'
_cell_length_a   4.03705000
_cell_length_b   6.23239458
_cell_length_c   6.23239458
_cell_angle_alpha   60.25981723
_cell_angle_beta   71.10248913
_cell_angle_gamma   71.10248913
_symmetry_Int_Tables_number   1
_chemical_formula_structural   NdGe5
_chemical_formula_sum   'Nd1 Ge5'
_cell_volume   126.24877588
_cell_formula_units_Z   1
loop_
 _symmetry_equiv_pos_site_id
 _symmetry_equiv_pos_as_xyz
  1  'x, y, z'
loop_
 _atom_site_type_symbol
 _atom_site_label
 _atom_site_symmetry_multiplicity
 _atom_site_fract_x
 _atom_site_fract_y
 _atom_site_fract_z
 _atom_site_occupancy
  Nd  Nd0  1  0.00000000  0.00000000  0.00000000  1
  Ge  Ge0  1  0.67076600  0.53522800  0.12324000  1
  Ge  Ge1  1  0.32923400  0.46477200  0.87676000  1
  Ge  Ge2  1  0.32923500  0.87675900  0.46477200  1
  Ge  Ge3  1  0.67076500  0.12324100  0.53522800  1
  Ge  Ge4  1  0.00000000  0.50000000  0.50000000  1
loop_
_geom_bond_atom_site_label_1
_geom_bond_atom_site_label_2
_geom_bond_distance
_geom_bond_site_symmetry_2
Ge0 Ge3 2.577746 1_555
Ge0 Ge1 2.624313 1_654
Ge0 Ge1 2.624313 1_554
Ge0 Ge4 2.941013 1_555
Ge0 Ge4 2.941013 1_655
Ge0 Nd0 3.220607 1_565
Ge0 Nd0 3.220607 1_665
Ge0 Nd0 3.534483 1_655
Ge1 Ge2 2.577746 1_555
Ge1 Ge4 2.941013 1_555
Ge1 Ge4 2.941013 1_655
Ge1 Nd0 3.220607 1_556
Ge1 Nd0 3.220607 1_656
Ge1 Nd0 3.534483 1_566
Ge2 Ge3 2.624317 1_565
Ge2 Ge3 2.624323 1_465
Ge2 Ge4 2.941007 1_655
Ge2 Ge4 2.941010 1_555
Ge2 Nd0 3.220605 1_665
Ge2 Nd0 3.220608 1_565
Ge2 Nd0 3.534486 1_566
Ge3 Ge4 2.941007 1_555
Ge3 Ge4 2.941010 1_655
Ge3 Nd0 3.220605 1_556
Ge3 Nd0 3.220608 1_656
Ge3 Nd0 3.534486 1_655
Ge4 Nd0 3.128427 1_556
Ge4 Nd0 3.128427 1_565
