# generated using pymatgen
data_KSrI3
_symmetry_space_group_name_H-M   'P 1'
_cell_length_a   8.11289001
_cell_length_b   8.11289001
_cell_length_c   12.05344229
_cell_angle_alpha   90.00000000
_cell_angle_beta   90.00000000
_cell_angle_gamma   145.97529594
_symmetry_Int_Tables_number   1
_chemical_formula_structural   KSrI3
_chemical_formula_sum   'K2 Sr2 I6'
_cell_volume   443.91662098
_cell_formula_units_Z   2
loop_
 _symmetry_equiv_pos_site_id
 _symmetry_equiv_pos_as_xyz
  1  'x, y, z'
loop_
 _atom_site_type_symbol
 _atom_site_label
 _atom_site_symmetry_multiplicity
 _atom_site_fract_x
 _atom_site_fract_y
 _atom_site_fract_z
 _atom_site_occupancy
  K  K0  1  0.24996946  0.75003054  0.25000000  1
  K  K1  1  0.75003054  0.24996946  0.75000000  1
  Sr  Sr0  1  -0.00000000  -0.00000000  0.00000000  1
  Sr  Sr1  1  -0.00000000  -0.00000000  0.50000000  1
  I  I0  1  0.63955187  0.36044813  0.06346159  1
  I  I1  1  0.36044813  0.63955187  0.93653841  1
  I  I2  1  0.36044813  0.63955187  0.56346159  1
  I  I3  1  0.63955187  0.36044813  0.43653841  1
  I  I4  1  0.91869375  0.08130625  0.25000000  1
  I  I5  1  0.08130625  0.91869375  0.75000000  1
loop_
_geom_bond_atom_site_label_1
_geom_bond_atom_site_label_2
_geom_bond_distance
_geom_bond_site_symmetry_2
I0 Sr0 3.302676 1_555
I0 Sr0 3.302676 1_665
I0 K0 3.691174 1_655
I0 K0 3.691174 1_545
I1 Sr0 3.302676 1_556
I1 Sr0 3.302676 1_666
I1 K1 3.691174 1_565
I1 K1 3.691174 1_455
I2 Sr1 3.302676 1_555
I2 Sr1 3.302676 1_665
I2 K1 3.691174 1_565
I2 K1 3.691174 1_455
I3 Sr1 3.302676 1_555
I3 Sr1 3.302676 1_665
I3 K0 3.691174 1_655
I3 K0 3.691174 1_545
I4 Sr1 3.266772 1_655
I4 Sr0 3.266772 1_655
I4 K0 3.533774 1_655
I4 K0 3.533774 1_545
I5 Sr1 3.266772 1_565
I5 Sr0 3.266772 1_566
I5 K1 3.533774 1_455
I5 K1 3.533774 1_565
