# generated using pymatgen
data_BaSrEuWO6
_symmetry_space_group_name_H-M   'P 1'
_cell_length_a   8.55104233
_cell_length_b   8.58487755
_cell_length_c   8.55564091
_cell_angle_alpha   90.00000000
_cell_angle_beta   90.00000000
_cell_angle_gamma   90.00000000
_symmetry_Int_Tables_number   1
_chemical_formula_structural   BaSrEuWO6
_chemical_formula_sum   'Ba4 Sr4 Eu4 W4 O24'
_cell_volume   628.06661609
_cell_formula_units_Z   4
loop_
 _symmetry_equiv_pos_site_id
 _symmetry_equiv_pos_as_xyz
  1  'x, y, z'
loop_
 _atom_site_type_symbol
 _atom_site_label
 _atom_site_symmetry_multiplicity
 _atom_site_fract_x
 _atom_site_fract_y
 _atom_site_fract_z
 _atom_site_occupancy
  Ba  Ba0  1  -0.00000000  -0.00000000  -0.00000000  1
  Ba  Ba1  1  0.50000000  0.50000000  0.50000000  1
  Ba  Ba2  1  0.50000000  -0.00000000  0.50000000  1
  Ba  Ba3  1  0.50000000  0.50000000  -0.00000000  1
  Sr  Sr0  1  -0.00000000  0.50000000  0.50000000  1
  Sr  Sr1  1  0.50000000  -0.00000000  -0.00000000  1
  Sr  Sr2  1  -0.00000000  0.50000000  -0.00000000  1
  Sr  Sr3  1  -0.00000000  -0.00000000  0.50000000  1
  Eu  Eu0  1  0.75288762  0.75013569  0.75129272  1
  Eu  Eu1  1  0.24711238  0.24986431  0.75129272  1
  Eu  Eu2  1  0.24711238  0.75013569  0.24870728  1
  Eu  Eu3  1  0.75288762  0.24986431  0.24870728  1
  W  W0  1  0.24550126  0.24951838  0.25105044  1
  W  W1  1  0.75449874  0.75048162  0.25105044  1
  W  W2  1  0.75449874  0.24951838  0.74894956  1
  W  W3  1  0.24550126  0.75048162  0.74894956  1
  O  O0  1  0.02290015  0.20494756  0.28461077  1
  O  O1  1  0.97709985  0.79505244  0.28461077  1
  O  O2  1  0.97709985  0.20494756  0.71538923  1
  O  O3  1  0.02290015  0.79505244  0.71538923  1
  O  O4  1  0.28205923  0.02641132  0.20805952  1
  O  O5  1  0.28205923  0.97358868  0.79194048  1
  O  O6  1  0.71794077  0.97358868  0.20805952  1
  O  O7  1  0.71794077  0.02641132  0.79194048  1
  O  O8  1  0.20753426  0.28717374  0.02638118  1
  O  O9  1  0.79246574  0.28717374  0.97361882  1
  O  O10  1  0.20753426  0.71282626  0.97361882  1
  O  O11  1  0.79246574  0.71282626  0.02638118  1
  O  O12  1  0.47406210  0.27820679  0.22834979  1
  O  O13  1  0.52593790  0.72179321  0.22834979  1
  O  O14  1  0.52593790  0.27820679  0.77165021  1
  O  O15  1  0.47406210  0.72179321  0.77165021  1
  O  O16  1  0.21348918  0.47521845  0.28560659  1
  O  O17  1  0.21348918  0.52478155  0.71439341  1
  O  O18  1  0.78651082  0.52478155  0.28560659  1
  O  O19  1  0.78651082  0.47521845  0.71439341  1
  O  O20  1  0.27453808  0.22519256  0.47743535  1
  O  O21  1  0.72546192  0.22519256  0.52256465  1
  O  O22  1  0.27453808  0.77480744  0.52256465  1
  O  O23  1  0.72546192  0.77480744  0.47743535  1
loop_
_geom_bond_atom_site_label_1
_geom_bond_atom_site_label_2
_geom_bond_distance
_geom_bond_site_symmetry_2
Ba0 O5 3.006221 1_544
Ba0 O7 3.006221 1_454
Ba0 O6 3.006221 1_445
Ba0 O4 3.006221 1_555
Ba0 O2 3.010543 1_454
Ba0 O3 3.010543 1_544
Ba0 O1 3.010543 1_445
Ba0 O0 3.010543 1_555
Ba0 O11 3.046018 1_445
Ba0 O10 3.046018 1_544
Ba0 O8 3.046018 1_555
Ba0 O9 3.046018 1_454
Ba1 O13 3.012690 1_555
Ba1 O14 3.012690 1_555
Ba1 O15 3.012690 1_555
Ba1 O12 3.012690 1_555
Ba1 O23 3.052863 1_555
Ba1 O21 3.052863 1_555
Ba1 O22 3.052863 1_555
Ba1 O20 3.052863 1_555
Ba1 O16 3.067923 1_555
Ba1 O17 3.067923 1_555
Ba1 O18 3.067923 1_555
Ba1 O19 3.067923 1_555
Ba2 O23 2.737090 1_545
Ba2 O22 2.737090 1_545
Ba2 O21 2.737090 1_555
Ba2 O20 2.737090 1_555
Ba2 O4 3.124610 1_555
Ba2 O6 3.124610 1_545
Ba2 O5 3.124610 1_545
Ba2 O7 3.124610 1_555
Ba2 O14 3.339932 1_555
Ba2 O12 3.339932 1_555
Ba2 O13 3.339932 1_545
Ba2 O15 3.339932 1_545
Ba3 O15 2.737066 1_554
Ba3 O13 2.737066 1_555
Ba3 O12 2.737066 1_555
Ba3 O14 2.737066 1_554
Ba3 O8 3.105419 1_555
Ba3 O10 3.105419 1_554
Ba3 O11 3.105419 1_555
Ba3 O9 3.105419 1_554
Eu0 O3 2.360935 1_655
Eu0 O23 2.364239 1_555
Eu0 O19 2.398447 1_555
Eu0 O11 2.399242 1_556
Eu0 O15 2.402953 1_555
Eu0 O7 2.415707 1_565
Eu1 O2 2.360935 1_455
Eu1 O20 2.364239 1_555
Eu1 O17 2.398447 1_555
Eu1 O8 2.399242 1_556
Eu1 O14 2.402953 1_555
Eu1 O5 2.415707 1_545
Eu2 O1 2.360935 1_455
Eu2 O22 2.364239 1_555
Eu2 O16 2.398447 1_555
Eu2 O10 2.399242 1_554
Eu2 O13 2.402953 1_555
Eu2 O4 2.415707 1_565
Eu3 O0 2.360935 1_655
Eu3 O21 2.364239 1_555
Eu3 O18 2.398447 1_555
Eu3 O9 2.399242 1_554
Eu3 O12 2.402953 1_555
Eu3 O6 2.415707 1_545
O0 W0 1.962666 1_555
O0 Sr3 2.555366 1_555
O0 Sr0 3.138513 1_555
O1 W1 1.962666 1_555
O1 Sr3 2.555366 1_665
O1 Sr0 3.138513 1_655
O2 W2 1.962666 1_555
O2 Sr3 2.555366 1_655
O2 Sr0 3.138513 1_655
O3 W3 1.962666 1_555
O3 Sr3 2.555366 1_565
O3 Sr0 3.138513 1_555
O4 W0 1.975238 1_555
O4 Sr1 2.587119 1_555
O5 W3 1.975238 1_555
O5 Sr1 2.587119 1_566
O6 W1 1.975238 1_555
O6 Sr1 2.587119 1_565
O7 W2 1.975238 1_555
O7 Sr1 2.587119 1_556
O8 W0 1.976035 1_555
O8 Sr2 2.557053 1_555
O9 W2 1.976035 1_555
O9 Sr2 2.557053 1_656
O10 W3 1.976035 1_555
O10 Sr2 2.557053 1_556
O11 W1 1.976035 1_555
O11 Sr2 2.557053 1_655
O12 W0 1.979441 1_555
O12 Sr1 3.093602 1_555
O13 W1 1.979441 1_555
O13 Sr1 3.093602 1_565
O14 W2 1.979441 1_555
O14 Sr1 3.093602 1_556
O15 W3 1.979441 1_555
O15 Sr1 3.093602 1_566
O16 W0 1.979056 1_555
O16 Sr0 2.596627 1_555
O16 Sr2 3.057587 1_555
O17 W3 1.979056 1_555
O17 Sr0 2.596627 1_555
O17 Sr2 3.057587 1_556
O18 W1 1.979056 1_555
O18 Sr0 2.596627 1_655
O18 Sr2 3.057587 1_655
O19 W2 1.979056 1_555
O19 Sr0 2.596627 1_655
O19 Sr2 3.057587 1_656
O20 W0 1.963853 1_555
O20 Sr3 3.047276 1_555
O21 W2 1.963853 1_555
O21 Sr3 3.047276 1_655
O22 W3 1.963853 1_555
O22 Sr3 3.047276 1_565
O23 W1 1.963853 1_555
O23 Sr3 3.047276 1_665
