# generated using pymatgen
data_DyMgSe3
_symmetry_space_group_name_H-M   'P 1'
_cell_length_a   6.90852900
_cell_length_b   6.90852908
_cell_length_c   19.34128500
_cell_angle_alpha   90.00000000
_cell_angle_beta   90.00000000
_cell_angle_gamma   119.99999482
_symmetry_Int_Tables_number   1
_chemical_formula_structural   DyMgSe3
_chemical_formula_sum   'Dy6 Mg6 Se18'
_cell_volume   799.44235528
_cell_formula_units_Z   6
loop_
 _symmetry_equiv_pos_site_id
 _symmetry_equiv_pos_as_xyz
  1  'x, y, z'
loop_
 _atom_site_type_symbol
 _atom_site_label
 _atom_site_symmetry_multiplicity
 _atom_site_fract_x
 _atom_site_fract_y
 _atom_site_fract_z
 _atom_site_occupancy
  Dy  Dy0  1  0.00000000  0.00000000  0.34709700  1
  Dy  Dy1  1  0.00000000  0.00000000  0.65290300  1
  Dy  Dy2  1  0.66666700  0.33333300  0.68043000  1
  Dy  Dy3  1  0.66666700  0.33333300  0.98623600  1
  Dy  Dy4  1  0.33333300  0.66666700  0.01376400  1
  Dy  Dy5  1  0.33333300  0.66666700  0.31957000  1
  Mg  Mg0  1  0.00000000  0.00000000  0.16069400  1
  Mg  Mg1  1  0.00000000  0.00000000  0.83930600  1
  Mg  Mg2  1  0.66666700  0.33333300  0.49402700  1
  Mg  Mg3  1  0.66666700  0.33333300  0.17263900  1
  Mg  Mg4  1  0.33333300  0.66666700  0.82736100  1
  Mg  Mg5  1  0.33333300  0.66666700  0.50597300  1
  Se  Se0  1  0.99141300  0.35669300  0.58307600  1
  Se  Se1  1  0.00858700  0.64330800  0.41692400  1
  Se  Se2  1  0.64330800  0.63472100  0.58307600  1
  Se  Se3  1  0.35669300  0.36527900  0.41692400  1
  Se  Se4  1  0.36527900  0.00858700  0.58307600  1
  Se  Se5  1  0.63472100  0.99141300  0.41692400  1
  Se  Se6  1  0.65808000  0.69002500  0.91640900  1
  Se  Se7  1  0.67525400  0.97664100  0.75025700  1
  Se  Se8  1  0.30997400  0.96805400  0.91640900  1
  Se  Se9  1  0.02335900  0.69861200  0.75025700  1
  Se  Se10  1  0.03194600  0.34192000  0.91640900  1
  Se  Se11  1  0.30138800  0.32474600  0.75025700  1
  Se  Se12  1  0.32474600  0.02335900  0.24974300  1
  Se  Se13  1  0.34192000  0.30997400  0.08359100  1
  Se  Se14  1  0.97664100  0.30138800  0.24974300  1
  Se  Se15  1  0.69002500  0.03194600  0.08359100  1
  Se  Se16  1  0.69861200  0.67525400  0.24974300  1
  Se  Se17  1  0.96805400  0.65808000  0.08359100  1
loop_
_geom_bond_atom_site_label_1
_geom_bond_atom_site_label_2
_geom_bond_distance
_geom_bond_site_symmetry_2
Dy0 Se5 2.836554 1_445
Dy0 Se1 2.836554 1_545
Dy0 Se3 2.836557 1_555
Dy0 Se12 2.871039 1_555
Dy0 Se16 2.871042 1_445
Dy0 Se14 2.871045 1_455
Dy1 Se4 2.836554 1_555
Dy1 Se2 2.836554 1_445
Dy1 Se0 2.836560 1_455
Dy1 Se7 2.871039 1_445
Dy1 Se11 2.871042 1_555
Dy1 Se9 2.871045 1_545
Dy2 Se11 2.836554 1_555
Dy2 Se7 2.836554 1_545
Dy2 Se9 2.836554 1_655
Dy2 Se0 2.871037 1_555
Dy2 Se4 2.871042 1_555
Dy2 Se2 2.871045 1_555
Dy3 Se10 2.836554 1_655
Dy3 Se6 2.836554 1_555
Dy3 Se8 2.836557 1_545
Dy3 Se15 2.871049 1_556
Dy3 Se17 2.871055 1_556
Dy3 Se13 2.871057 1_556
Dy4 Se17 2.836554 1_455
Dy4 Se15 2.836554 1_565
Dy4 Se13 2.836560 1_555
Dy4 Se8 2.871052 1_554
Dy4 Se10 2.871055 1_554
Dy4 Se6 2.871060 1_554
Dy5 Se16 2.836554 1_555
Dy5 Se12 2.836554 1_565
Dy5 Se14 2.836554 1_455
Dy5 Se1 2.871039 1_555
Dy5 Se5 2.871042 1_555
Dy5 Se3 2.871048 1_555
Mg0 Se17 2.707598 1_445
Mg0 Se13 2.707598 1_555
Mg0 Se15 2.707604 1_455
Mg0 Se12 2.768349 1_555
Mg0 Se16 2.768351 1_445
Mg0 Se14 2.768354 1_455
Mg1 Se8 2.707598 1_545
Mg1 Se10 2.707598 1_555
Mg1 Se6 2.707601 1_445
Mg1 Se7 2.768349 1_445
Mg1 Se11 2.768351 1_555
Mg1 Se9 2.768354 1_545
Mg2 Se3 2.707598 1_555
Mg2 Se5 2.707598 1_545
Mg2 Se1 2.707601 1_655
Mg2 Se0 2.768346 1_555
Mg2 Se4 2.768351 1_555
Mg2 Se2 2.768354 1_555
Mg3 Se14 2.707606 1_555
Mg3 Se12 2.707612 1_555
Mg3 Se16 2.707617 1_555
Mg3 Se15 2.768334 1_555
Mg3 Se17 2.768340 1_555
Mg3 Se13 2.768342 1_555
Mg4 Se9 2.707606 1_555
Mg4 Se7 2.707612 1_555
Mg4 Se11 2.707617 1_555
Mg4 Se8 2.768337 1_555
Mg4 Se10 2.768340 1_555
Mg4 Se6 2.768344 1_555
Mg5 Se4 2.707598 1_565
Mg5 Se0 2.707598 1_455
Mg5 Se2 2.707604 1_555
Mg5 Se1 2.768349 1_555
Mg5 Se5 2.768351 1_555
Mg5 Se3 2.768357 1_555
