# generated using pymatgen
data_Rb(SeO3)2
_symmetry_space_group_name_H-M   'P 1'
_cell_length_a   6.17820700
_cell_length_b   6.28799300
_cell_length_c   19.12466800
_cell_angle_alpha   90.00000000
_cell_angle_beta   90.00000000
_cell_angle_gamma   90.00000000
_symmetry_Int_Tables_number   1
_chemical_formula_structural   Rb(SeO3)2
_chemical_formula_sum   'Rb4 Se8 O24'
_cell_volume   742.96509259
_cell_formula_units_Z   4
loop_
 _symmetry_equiv_pos_site_id
 _symmetry_equiv_pos_as_xyz
  1  'x, y, z'
loop_
 _atom_site_type_symbol
 _atom_site_label
 _atom_site_symmetry_multiplicity
 _atom_site_fract_x
 _atom_site_fract_y
 _atom_site_fract_z
 _atom_site_occupancy
  Rb  Rb0  1  0.50068900  0.97933400  0.33308400  1
  Rb  Rb1  1  0.00068900  0.52066600  0.66691600  1
  Rb  Rb2  1  0.99931100  0.02066600  0.83308400  1
  Rb  Rb3  1  0.49931100  0.47933400  0.16691600  1
  Se  Se0  1  0.49141200  0.04375300  0.99433900  1
  Se  Se1  1  0.99141200  0.45624700  0.00566100  1
  Se  Se2  1  0.00858800  0.95624700  0.49433900  1
  Se  Se3  1  0.50858800  0.54375300  0.50566100  1
  Se  Se4  1  0.50968200  0.04052900  0.66413700  1
  Se  Se5  1  0.00968200  0.45947100  0.33586300  1
  Se  Se6  1  0.99031800  0.95947100  0.16413700  1
  Se  Se7  1  0.49031800  0.54052900  0.83586300  1
  O  O0  1  0.53213800  0.09537200  0.07809000  1
  O  O1  1  0.03213800  0.40462800  0.92191000  1
  O  O2  1  0.96786200  0.90462800  0.57809000  1
  O  O3  1  0.46786200  0.59537200  0.42191000  1
  O  O4  1  0.69804300  0.93239900  0.95344300  1
  O  O5  1  0.19804300  0.56760100  0.04655700  1
  O  O6  1  0.80195700  0.06760100  0.45344300  1
  O  O7  1  0.30195700  0.43239900  0.54655700  1
  O  O8  1  0.24662800  0.95565100  0.97465700  1
  O  O9  1  0.74662800  0.54434900  0.02534300  1
  O  O10  1  0.25337200  0.04434900  0.47465700  1
  O  O11  1  0.75337200  0.45565100  0.52534300  1
  O  O12  1  0.69689700  0.17939900  0.70743900  1
  O  O13  1  0.19689700  0.32060100  0.29256100  1
  O  O14  1  0.80310300  0.82060100  0.20743900  1
  O  O15  1  0.30310300  0.67939900  0.79256100  1
  O  O16  1  0.25754900  0.10731300  0.68415800  1
  O  O17  1  0.75754900  0.39268700  0.31584200  1
  O  O18  1  0.24245100  0.89268700  0.18415800  1
  O  O19  1  0.74245100  0.60731300  0.81584200  1
  O  O20  1  0.55251000  0.77852200  0.66037400  1
  O  O21  1  0.05251000  0.72147800  0.33962600  1
  O  O22  1  0.94749000  0.22147800  0.16037400  1
  O  O23  1  0.44749000  0.27852200  0.83962600  1
loop_
_geom_bond_atom_site_label_1
_geom_bond_atom_site_label_2
_geom_bond_distance
_geom_bond_site_symmetry_2
O0 Se0 1.653523 1_554
O0 Rb3 2.959059 1_555
O1 Se1 1.653523 1_456
O1 Rb2 2.959059 1_455
O2 Se2 1.653523 1_655
O2 Rb1 2.959059 1_655
O3 Se3 1.653523 1_555
O3 Rb0 2.959059 1_555
O4 Se0 1.652791 1_565
O4 Rb2 3.011789 1_565
O5 Se1 1.652791 1_455
O5 Rb3 3.011789 1_555
O6 Se2 1.652791 1_645
O6 Rb0 3.011789 1_545
O7 Se3 1.652791 1_555
O7 Rb1 3.011789 1_555
O8 Se0 1.654000 1_565
O8 Rb2 3.135697 1_465
O9 Se1 1.654000 1_555
O9 Rb3 3.135697 1_555
O10 Se2 1.654000 1_545
O10 Rb0 3.135697 1_545
O11 Se3 1.654000 1_555
O11 Rb1 3.135697 1_655
O12 Se4 1.669179 1_555
O12 Rb1 2.954343 1_655
O12 Rb2 3.203292 1_555
O13 Se5 1.669179 1_555
O13 Rb0 2.954343 1_545
O13 Rb3 3.203292 1_555
O14 Se6 1.669179 1_555
O14 Rb3 2.954343 1_555
O14 Rb0 3.203292 1_555
O15 Se7 1.669179 1_555
O15 Rb2 2.954343 1_465
O15 Rb1 3.203292 1_555
O16 Se4 1.658155 1_555
O16 Rb1 3.063124 1_555
O16 Rb2 3.309731 1_455
O17 Se5 1.658155 1_655
O17 Rb0 3.063124 1_545
O17 Rb3 3.309731 1_555
O18 Se6 1.658155 1_455
O18 Rb3 3.063124 1_555
O18 Rb0 3.309731 1_555
O19 Se7 1.658155 1_555
O19 Rb2 3.063124 1_565
O19 Rb1 3.309731 1_655
O20 Se4 1.670162 1_565
O20 Rb1 3.211172 1_655
O21 Se5 1.670162 1_555
O21 Rb0 3.211172 1_555
O22 Se6 1.670162 1_545
O22 Rb3 3.211172 1_555
O23 Se7 1.670162 1_555
O23 Rb2 3.211172 1_455
