# generated using pymatgen
data_CsPPbSe4
_symmetry_space_group_name_H-M   'P 1'
_cell_length_a   6.77187000
_cell_length_b   7.22126800
_cell_length_c   18.87772200
_cell_angle_alpha   90.00000000
_cell_angle_beta   90.00000000
_cell_angle_gamma   90.00000000
_symmetry_Int_Tables_number   1
_chemical_formula_structural   CsPPbSe4
_chemical_formula_sum   'Cs4 P4 Pb4 Se16'
_cell_volume   923.14869833
_cell_formula_units_Z   4
loop_
 _symmetry_equiv_pos_site_id
 _symmetry_equiv_pos_as_xyz
  1  'x, y, z'
loop_
 _atom_site_type_symbol
 _atom_site_label
 _atom_site_symmetry_multiplicity
 _atom_site_fract_x
 _atom_site_fract_y
 _atom_site_fract_z
 _atom_site_occupancy
  Cs  Cs0  1  0.04958000  0.75000000  0.70748700  1
  Cs  Cs1  1  0.45042000  0.75000000  0.20748700  1
  Cs  Cs2  1  0.95042000  0.25000000  0.29251300  1
  Cs  Cs3  1  0.54958000  0.25000000  0.79251300  1
  P  P0  1  0.21797100  0.75000000  0.40538900  1
  P  P1  1  0.28202900  0.75000000  0.90538900  1
  P  P2  1  0.78202900  0.25000000  0.59461100  1
  P  P3  1  0.71797100  0.25000000  0.09461100  1
  Pb  Pb0  1  0.70978200  0.75000000  0.48181700  1
  Pb  Pb1  1  0.79021800  0.75000000  0.98181700  1
  Pb  Pb2  1  0.29021800  0.25000000  0.51818300  1
  Pb  Pb3  1  0.20978200  0.25000000  0.01818300  1
  Se  Se0  1  0.94436500  0.75000000  0.34161600  1
  Se  Se1  1  0.55563500  0.75000000  0.84161600  1
  Se  Se2  1  0.05563500  0.25000000  0.65838400  1
  Se  Se3  1  0.44436500  0.25000000  0.15838400  1
  Se  Se4  1  0.59730600  0.00176900  0.61655400  1
  Se  Se5  1  0.90269400  0.49823100  0.11655400  1
  Se  Se6  1  0.40269400  0.50176900  0.38344600  1
  Se  Se7  1  0.09730600  0.99823100  0.88344600  1
  Se  Se8  1  0.40269400  0.99823100  0.38344600  1
  Se  Se9  1  0.09730600  0.50176900  0.88344600  1
  Se  Se10  1  0.59730600  0.49823100  0.61655400  1
  Se  Se11  1  0.90269400  0.00176900  0.11655400  1
  Se  Se12  1  0.14856800  0.75000000  0.52022300  1
  Se  Se13  1  0.35143200  0.75000000  0.02022300  1
  Se  Se14  1  0.85143200  0.25000000  0.47977700  1
  Se  Se15  1  0.64856800  0.25000000  0.97977700  1
loop_
_geom_bond_atom_site_label_1
_geom_bond_atom_site_label_2
_geom_bond_distance
_geom_bond_site_symmetry_2
Cs0 Se12 3.598111 1_555
Cs0 Se2 3.727949 1_565
Cs0 Se2 3.727949 1_555
Cs0 Se9 3.788323 1_555
Cs0 Se7 3.788323 1_555
Cs0 Se4 3.953806 1_465
Cs0 Se10 3.953806 1_455
Cs0 Se1 4.195217 1_455
Cs0 Se1 4.260890 1_555
Cs1 Se13 3.598111 1_555
Cs1 Se3 3.727949 1_565
Cs1 Se3 3.727949 1_555
Cs1 Se8 3.788323 1_555
Cs1 Se6 3.788323 1_555
Cs1 Se11 3.953806 1_565
Cs1 Se5 3.953806 1_555
Cs1 Se0 4.195217 1_555
Cs1 Se0 4.260890 1_455
Cs2 Se14 3.598111 1_555
Cs2 Se0 3.727949 1_555
Cs2 Se0 3.727949 1_545
Cs2 Se5 3.788323 1_555
Cs2 Se11 3.788323 1_555
Cs2 Se6 3.953806 1_655
Cs2 Se8 3.953806 1_645
Cs2 Se3 4.195217 1_655
Cs2 Se3 4.260890 1_555
Cs3 Se15 3.598111 1_555
Cs3 Se1 3.727949 1_545
Cs3 Se1 3.727949 1_555
Cs3 Se10 3.788323 1_555
Cs3 Se4 3.788323 1_555
Cs3 Se9 3.953806 1_555
Cs3 Se7 3.953806 1_545
Cs3 Se2 4.195217 1_555
Cs3 Se2 4.260890 1_655
P0 Se0 2.209594 1_455
P0 Se12 2.218167 1_555
P0 Se8 2.224770 1_555
P0 Se6 2.224770 1_555
P1 Se1 2.209594 1_555
P1 Se13 2.218167 1_556
P1 Se7 2.224770 1_555
P1 Se9 2.224770 1_555
P2 Se2 2.209594 1_655
P2 Se14 2.218167 1_555
P2 Se10 2.224770 1_555
P2 Se4 2.224770 1_555
P3 Se3 2.209594 1_555
P3 Se15 2.218167 1_554
P3 Se5 2.224770 1_555
P3 Se11 2.224770 1_555
Pb0 Se12 3.058575 1_655
Pb0 Se0 3.086816 1_555
Pb0 Se4 3.217940 1_565
Pb0 Se10 3.217940 1_555
Pb0 Se6 3.314559 1_555
Pb0 Se8 3.314559 1_555
Pb1 Se13 3.058575 1_556
Pb1 Se1 3.086816 1_555
Pb1 Se11 3.217940 1_566
Pb1 Se5 3.217940 1_556
Pb1 Se7 3.314559 1_655
Pb1 Se9 3.314559 1_655
Pb2 Se14 3.058575 1_455
Pb2 Se2 3.086816 1_555
Pb2 Se8 3.217940 1_545
Pb2 Se6 3.217940 1_555
Pb2 Se10 3.314559 1_555
Pb2 Se4 3.314559 1_555
Pb3 Se15 3.058575 1_554
Pb3 Se3 3.086816 1_555
Pb3 Se9 3.217940 1_554
Pb3 Se7 3.217940 1_544
Pb3 Se11 3.314559 1_455
Pb3 Se5 3.314559 1_455
