# generated using pymatgen
data_TiSO6
_symmetry_space_group_name_H-M   'P 1'
_cell_length_a   5.27075200
_cell_length_b   8.82047000
_cell_length_c   9.97857300
_cell_angle_alpha   90.00000000
_cell_angle_beta   90.00000000
_cell_angle_gamma   90.00000000
_symmetry_Int_Tables_number   1
_chemical_formula_structural   TiSO6
_chemical_formula_sum   'Ti4 S4 O24'
_cell_volume   463.90894678
_cell_formula_units_Z   4
loop_
 _symmetry_equiv_pos_site_id
 _symmetry_equiv_pos_as_xyz
  1  'x, y, z'
loop_
 _atom_site_type_symbol
 _atom_site_label
 _atom_site_symmetry_multiplicity
 _atom_site_fract_x
 _atom_site_fract_y
 _atom_site_fract_z
 _atom_site_occupancy
  Ti  Ti0  1  0.25000000  0.54233800  0.62529400  1
  Ti  Ti1  1  0.25000000  0.95766200  0.12529400  1
  Ti  Ti2  1  0.75000000  0.45766200  0.37470600  1
  Ti  Ti3  1  0.75000000  0.04233800  0.87470600  1
  S  S0  1  0.25000000  0.33278600  0.17110400  1
  S  S1  1  0.25000000  0.16721400  0.67110400  1
  S  S2  1  0.75000000  0.66721400  0.82889600  1
  S  S3  1  0.75000000  0.83278600  0.32889600  1
  O  O0  1  0.00000000  0.50000000  0.50000000  1
  O  O1  1  0.50000000  0.00000000  0.00000000  1
  O  O2  1  0.50000000  0.50000000  0.50000000  1
  O  O3  1  0.00000000  0.00000000  0.00000000  1
  O  O4  1  0.25000000  0.35847800  0.02729000  1
  O  O5  1  0.25000000  0.14152200  0.52729000  1
  O  O6  1  0.75000000  0.64152200  0.97271000  1
  O  O7  1  0.75000000  0.85847800  0.47271000  1
  O  O8  1  0.25000000  0.33102500  0.70706500  1
  O  O9  1  0.25000000  0.16897500  0.20706500  1
  O  O10  1  0.75000000  0.66897500  0.29293500  1
  O  O11  1  0.75000000  0.83102500  0.79293500  1
  O  O12  1  0.52088000  0.59759600  0.76566300  1
  O  O13  1  0.97912000  0.90240400  0.26566300  1
  O  O14  1  0.02088000  0.40240400  0.23433700  1
  O  O15  1  0.47912000  0.09759600  0.73433700  1
  O  O16  1  0.47912000  0.40240400  0.23433700  1
  O  O17  1  0.02088000  0.09759600  0.73433700  1
  O  O18  1  0.97912000  0.59759600  0.76566300  1
  O  O19  1  0.52088000  0.90240400  0.26566300  1
  O  O20  1  0.25000000  0.74680800  0.08311600  1
  O  O21  1  0.25000000  0.75319200  0.58311600  1
  O  O22  1  0.75000000  0.25319200  0.91688400  1
  O  O23  1  0.75000000  0.24680800  0.41688400  1
loop_
_geom_bond_atom_site_label_1
_geom_bond_atom_site_label_2
_geom_bond_distance
_geom_bond_site_symmetry_2
O0 Ti2 1.854427 1_455
O0 Ti0 1.854427 1_555
O1 Ti1 1.854427 1_545
O1 Ti3 1.854427 1_554
O2 Ti0 1.854427 1_555
O2 Ti2 1.854427 1_555
O3 Ti1 1.854427 1_545
O3 Ti3 1.854427 1_454
O4 S0 1.452841 1_555
O5 S1 1.452841 1_555
O6 S2 1.452841 1_555
O7 S3 1.452841 1_555
O8 S1 1.488782 1_555
O8 Ti0 2.034659 1_555
O9 S0 1.488782 1_555
O9 Ti1 2.034659 1_545
O10 S3 1.488782 1_555
O10 Ti2 2.034659 1_555
O11 S2 1.488782 1_555
O11 Ti3 2.034659 1_565
O12 S2 1.494518 1_555
O12 Ti0 2.058620 1_555
O13 S3 1.494518 1_555
O13 Ti1 2.058620 1_655
O14 S0 1.494518 1_555
O14 Ti2 2.058620 1_455
O15 S1 1.494518 1_555
O15 Ti3 2.058620 1_555
O16 S0 1.494518 1_555
O16 Ti2 2.058620 1_555
O17 S1 1.494518 1_555
O17 Ti3 2.058620 1_455
O18 S2 1.494518 1_555
O18 Ti0 2.058620 1_655
O19 S3 1.494518 1_555
O19 Ti1 2.058620 1_555
O20 Ti1 1.906859 1_555
O21 Ti0 1.906859 1_555
O22 Ti3 1.906859 1_555
O23 Ti2 1.906859 1_555
