# generated using pymatgen
data_K2Pd(NO2)4
_symmetry_space_group_name_H-M   'P 1'
_cell_length_a   12.93821800
_cell_length_b   7.91632900
_cell_length_c   9.71498067
_cell_angle_alpha   82.56855440
_cell_angle_beta   90.00000000
_cell_angle_gamma   90.00000000
_symmetry_Int_Tables_number   1
_chemical_formula_structural   K2Pd(NO2)4
_chemical_formula_sum   'K8 Pd4 N16 O32'
_cell_volume   986.68130872
_cell_formula_units_Z   4
loop_
 _symmetry_equiv_pos_site_id
 _symmetry_equiv_pos_as_xyz
  1  'x, y, z'
loop_
 _atom_site_type_symbol
 _atom_site_label
 _atom_site_symmetry_multiplicity
 _atom_site_fract_x
 _atom_site_fract_y
 _atom_site_fract_z
 _atom_site_occupancy
  K  K0  1  0.81695700  0.35032300  0.65840800  1
  K  K1  1  0.31695700  0.14967700  0.34159200  1
  K  K2  1  0.18304300  0.64967700  0.34159200  1
  K  K3  1  0.68304300  0.85032300  0.65840800  1
  K  K4  1  0.65692600  0.08432600  0.18908100  1
  K  K5  1  0.15692600  0.41567400  0.81091900  1
  K  K6  1  0.34307400  0.91567400  0.81091900  1
  K  K7  1  0.84307400  0.58432600  0.18908100  1
  Pd  Pd0  1  0.50000000  0.50000000  0.50000000  1
  Pd  Pd1  1  0.00000000  0.00000000  0.50000000  1
  Pd  Pd2  1  0.00000000  0.00000000  0.00000000  1
  Pd  Pd3  1  0.50000000  0.50000000  0.00000000  1
  N  N0  1  0.52144600  0.24556900  0.58062700  1
  N  N1  1  0.63675800  0.48762900  0.39465700  1
  N  N2  1  0.13675800  0.01237100  0.60534300  1
  N  N3  1  0.36324200  0.51237100  0.60534300  1
  N  N4  1  0.86324200  0.98762900  0.39465700  1
  N  N5  1  0.02144600  0.25443100  0.41937300  1
  N  N6  1  0.47855400  0.75443100  0.41937300  1
  N  N7  1  0.97855400  0.74556900  0.58062700  1
  N  N8  1  0.93327400  0.23531500  0.00737600  1
  N  N9  1  0.43327400  0.26468500  0.99262400  1
  N  N10  1  0.06672600  0.76468500  0.99262400  1
  N  N11  1  0.56672600  0.73531500  0.00737600  1
  N  N12  1  0.37280800  0.56913300  0.10801400  1
  N  N13  1  0.87280800  0.93086700  0.89198600  1
  N  N14  1  0.62719200  0.43086700  0.89198600  1
  N  N15  1  0.12719200  0.06913300  0.10801400  1
  O  O0  1  0.89203600  0.69722000  0.62771800  1
  O  O1  1  0.39203600  0.80278000  0.37228200  1
  O  O2  1  0.10796400  0.30278000  0.37228200  1
  O  O3  1  0.60796400  0.19722000  0.62771800  1
  O  O4  1  0.78646800  0.06675000  0.43264900  1
  O  O5  1  0.28646800  0.43325000  0.56735100  1
  O  O6  1  0.21353200  0.93325000  0.56735100  1
  O  O7  1  0.64481300  0.40056500  0.29678700  1
  O  O8  1  0.71353200  0.56675000  0.43264900  1
  O  O9  1  0.85518700  0.90056500  0.29678700  1
  O  O10  1  0.35518700  0.59943500  0.70321300  1
  O  O11  1  0.14481300  0.09943500  0.70321300  1
  O  O12  1  0.32379700  0.70184500  0.06628200  1
  O  O13  1  0.82379700  0.79815500  0.93371800  1
  O  O14  1  0.67620300  0.29815500  0.93371800  1
  O  O15  1  0.17620300  0.20184500  0.06628200  1
  O  O16  1  0.34468700  0.47711600  0.21629500  1
  O  O17  1  0.84468700  0.02288400  0.78370500  1
  O  O18  1  0.65531300  0.52288400  0.78370500  1
  O  O19  1  0.15531300  0.97711600  0.21629500  1
  O  O20  1  0.54992000  0.85240500  0.91034700  1
  O  O21  1  0.04992000  0.64759500  0.08965300  1
  O  O22  1  0.45008000  0.14759500  0.08965300  1
  O  O23  1  0.95008000  0.35240500  0.91034700  1
  O  O24  1  0.62345800  0.76011700  0.10677100  1
  O  O25  1  0.12345800  0.73988300  0.89322900  1
  O  O26  1  0.37654200  0.23988300  0.89322900  1
  O  O27  1  0.87654200  0.26011700  0.10677100  1
  O  O28  1  0.05138800  0.64157000  0.58062500  1
  O  O29  1  0.55138800  0.85843000  0.41937500  1
  O  O30  1  0.94861200  0.35843000  0.41937500  1
  O  O31  1  0.44861200  0.14157000  0.58062500  1
loop_
_geom_bond_atom_site_label_1
_geom_bond_atom_site_label_2
_geom_bond_distance
_geom_bond_site_symmetry_2
K0 O17 2.741039 1_555
K0 O18 2.855143 1_555
K0 O30 2.873968 1_555
K0 O0 2.891718 1_555
K0 O8 2.926484 1_555
K0 O3 2.993819 1_555
K0 O23 2.994652 1_555
K0 O14 3.217903 1_555
K0 O4 3.358412 1_555
K1 O16 2.741039 1_555
K1 O19 2.855143 1_545
K1 O31 2.873968 1_555
K1 O1 2.891718 1_545
K1 O6 2.926484 1_545
K1 O2 2.993819 1_555
K1 O22 2.994652 1_555
K1 O15 3.217903 1_555
K1 O5 3.358412 1_555
K2 O19 2.741039 1_555
K2 O16 2.855143 1_555
K2 O28 2.873968 1_555
K2 O2 2.891718 1_555
K2 O5 2.926484 1_555
K2 O1 2.993819 1_555
K2 O21 2.994652 1_555
K2 O12 3.217903 1_555
K2 O6 3.358412 1_555
K3 O18 2.741039 1_555
K3 O17 2.855143 1_565
K3 O29 2.873968 1_555
K3 O3 2.891718 1_565
K3 O4 2.926484 1_565
K3 O0 2.993819 1_555
K3 O20 2.994652 1_555
K3 O13 3.217903 1_555
K3 O8 3.358412 1_555
K4 O24 2.818683 1_545
K4 O14 2.827697 1_554
K4 O7 2.839775 1_555
K4 O22 2.867211 1_555
K4 O4 2.888337 1_555
K4 O29 3.005493 1_545
K4 O9 3.065497 1_545
K4 O27 3.218998 1_555
K5 O25 2.818683 1_555
K5 O15 2.827697 1_556
K5 O11 2.839775 1_555
K5 O23 2.867211 1_455
K5 O5 2.888337 1_555
K5 O28 3.005493 1_555
K5 O10 3.065497 1_555
K5 O26 3.218998 1_555
K6 O26 2.818683 1_565
K6 O12 2.827697 1_556
K6 O10 2.839775 1_555
K6 O20 2.867211 1_555
K6 O6 2.888337 1_555
K6 O31 3.005493 1_565
K6 O11 3.065497 1_565
K6 O25 3.218998 1_555
K7 O27 2.818683 1_555
K7 O13 2.827697 1_554
K7 O9 2.839775 1_555
K7 O21 2.867211 1_655
K7 O8 2.888337 1_555
K7 O30 3.005493 1_555
K7 O7 3.065497 1_555
K7 O24 3.218998 1_555
N0 O3 1.250410 1_555
N0 O31 1.251327 1_555
N0 Pd0 2.083089 1_555
N1 O7 1.248777 1_555
N1 O8 1.255000 1_555
N1 Pd0 2.052722 1_555
N2 O11 1.248777 1_555
N2 O6 1.255000 1_545
N2 Pd1 2.052722 1_555
N3 O10 1.248777 1_555
N3 O5 1.255000 1_555
N3 Pd0 2.052722 1_555
N4 O9 1.248777 1_555
N4 O4 1.255000 1_565
N4 Pd1 2.052722 1_665
N5 O2 1.250410 1_555
N5 O30 1.251327 1_455
N5 Pd1 2.083089 1_555
N6 O1 1.250410 1_555
N6 O29 1.251327 1_555
N6 Pd0 2.083089 1_555
N7 O0 1.250410 1_555
N7 O28 1.251327 1_655
N7 Pd1 2.083089 1_665
N8 O27 1.248514 1_555
N8 O23 1.252599 1_554
N8 Pd2 2.062794 1_655
N9 O26 1.248514 1_555
N9 O22 1.252599 1_556
N9 Pd3 2.062794 1_556
N10 O25 1.248514 1_555
N10 O21 1.252599 1_556
N10 Pd2 2.062794 1_566
N11 O24 1.248514 1_555
N11 O20 1.252599 1_554
N11 Pd3 2.062794 1_555
N12 O12 1.249013 1_555
N12 O16 1.253543 1_555
N12 Pd3 2.063332 1_555
N13 O13 1.249013 1_555
N13 O17 1.253543 1_565
N13 Pd2 2.063332 1_666
N14 O14 1.249013 1_555
N14 O18 1.253543 1_555
N14 Pd3 2.063332 1_556
N15 O15 1.249013 1_555
N15 O19 1.253543 1_545
N15 Pd2 2.063332 1_555
