# generated using pymatgen
data_Li9Mn2Co5O16
_symmetry_space_group_name_H-M   'P 1'
_cell_length_a   5.07460000
_cell_length_b   7.72927831
_cell_length_c   7.83090157
_cell_angle_alpha   97.23550549
_cell_angle_beta   101.49636628
_cell_angle_gamma   104.26404008
_symmetry_Int_Tables_number   1
_chemical_formula_structural   Li9Mn2Co5O16
_chemical_formula_sum   'Li9 Mn2 Co5 O16'
_cell_volume   286.71165857
_cell_formula_units_Z   1
loop_
 _symmetry_equiv_pos_site_id
 _symmetry_equiv_pos_as_xyz
  1  'x, y, z'
loop_
 _atom_site_type_symbol
 _atom_site_label
 _atom_site_symmetry_multiplicity
 _atom_site_fract_x
 _atom_site_fract_y
 _atom_site_fract_z
 _atom_site_occupancy
  Li  Li0  1  0.49992900  0.74943600  0.74947500  1
  Li  Li1  1  0.99722400  0.37399000  0.11636700  1
  Li  Li2  1  0.51226100  0.00677500  0.50672900  1
  Li  Li3  1  0.00689200  0.88571000  0.62629900  1
  Li  Li4  1  0.48882400  0.49365100  0.99222500  1
  Li  Li5  1  0.99971300  0.12711600  0.38360700  1
  Li  Li6  1  0.99400100  0.61247500  0.87141700  1
  Li  Li7  1  0.50159200  0.25055100  0.25178300  1
  Li  Li8  1  0.99799700  0.25117900  0.74928300  1
  Mn  Mn0  1  0.99796300  0.00252700  0.99612500  1
  Mn  Mn1  1  0.00052600  0.49724000  0.50513200  1
  Co  Co0  1  0.50090900  0.62593000  0.37879300  1
  Co  Co1  1  0.49971700  0.87350600  0.12366600  1
  Co  Co2  1  0.49835200  0.12957400  0.87529800  1
  Co  Co3  1  0.99972500  0.74914400  0.25109500  1
  Co  Co4  1  0.49059500  0.36214900  0.63330000  1
  O  O0  1  0.76418800  0.76304800  0.00849000  1
  O  O1  1  0.24644300  0.39533200  0.38165900  1
  O  O2  1  0.75476600  0.00677700  0.77816800  1
  O  O3  1  0.25007400  0.89801800  0.88527800  1
  O  O4  1  0.77087600  0.51250000  0.26803300  1
  O  O5  1  0.26832700  0.13231000  0.61999000  1
  O  O6  1  0.26360500  0.63916500  0.12923400  1
  O  O7  1  0.75975800  0.26696700  0.49799100  1
  O  O8  1  0.23895800  0.73889200  0.49031000  1
  O  O9  1  0.72199600  0.36043900  0.87342300  1
  O  O10  1  0.22955900  0.98805900  0.22961000  1
  O  O11  1  0.73622800  0.86135700  0.36914800  1
  O  O12  1  0.24007900  0.50209700  0.72734200  1
  O  O13  1  0.76010500  0.10471700  0.12032200  1
  O  O14  1  0.75630600  0.60769300  0.61426800  1
  O  O15  1  0.25251100  0.23167400  0.99614100  1
loop_
_geom_bond_atom_site_label_1
_geom_bond_atom_site_label_2
_geom_bond_distance
_geom_bond_site_symmetry_2
Li0 O12 2.001702 1_555
Li0 O2 2.045298 1_565
Li0 O8 2.170974 1_555
Li0 O0 2.171625 1_556
Li0 O14 2.230073 1_555
Li0 O3 2.237148 1_555
Li1 O9 2.097526 1_554
Li1 O6 2.136992 1_655
Li1 O13 2.139529 1_555
Li1 O15 2.168450 1_654
Li1 O4 2.169227 1_555
Li1 O1 2.169361 1_655
Li2 O5 2.018212 1_555
Li2 O7 2.109700 1_555
Li2 O11 2.127997 1_545
Li2 O8 2.161931 1_545
Li2 O2 2.233815 1_555
Li2 O10 2.316461 1_545
Li3 O5 2.049208 1_565
Li3 O3 2.130920 1_555
Li3 O11 2.156770 1_455
Li3 O8 2.159325 1_555
Li3 O14 2.190489 1_455
Li3 O2 2.200718 1_465
Li4 O9 2.030668 1_555
Li4 O15 2.091150 1_555
Li4 O6 2.130864 1_556
Li4 O0 2.175549 1_556
Li4 O12 2.220642 1_555
Li4 O4 2.306604 1_556
Li5 O5 2.057848 1_655
Li5 O7 2.071957 1_555
Li5 O11 2.132525 1_545
Li5 O13 2.136898 1_555
Li5 O1 2.145268 1_655
Li5 O10 2.195878 1_645
Li6 O9 2.095648 1_555
Li6 O12 2.098634 1_655
Li6 O14 2.121885 1_555
Li6 O6 2.155326 1_656
Li6 O0 2.172524 1_556
Li6 O3 2.245345 1_655
Li7 O7 2.073487 1_555
Li7 O15 2.110329 1_554
Li7 O4 2.117839 1_555
Li7 O10 2.118417 1_545
Li7 O1 2.217057 1_555
Li7 O13 2.241874 1_555
Li8 O2 2.052584 1_555
Li8 O12 2.072198 1_655
Li8 O7 2.129265 1_555
Li8 O9 2.130418 1_555
Li8 O15 2.145213 1_655
Li8 O5 2.166000 1_655
Mn0 O2 1.905722 1_555
Mn0 O15 1.917806 1_655
Mn0 O13 1.941893 1_556
Mn0 O3 1.953986 1_645
Mn0 O0 1.962593 1_546
Mn0 O10 1.999122 1_646
Mn1 O7 1.881450 1_455
Mn1 O12 1.903944 1_555
Mn1 O14 1.937766 1_455
Mn1 O1 1.971341 1_555
Mn1 O8 1.990739 1_555
Mn1 O4 2.019841 1_455
Co0 O1 1.931900 1_555
Co0 O11 1.934608 1_555
Co0 O8 2.033365 1_555
Co0 O4 2.066825 1_555
Co0 O14 2.074300 1_555
Co0 O6 2.110160 1_555
Co1 O6 1.920820 1_555
Co1 O13 1.949954 1_565
Co1 O0 2.048599 1_555
Co1 O10 2.053836 1_555
Co1 O11 2.079913 1_555
Co1 O3 2.095321 1_554
Co2 O9 1.867529 1_555
Co2 O3 1.939077 1_545
Co2 O15 1.960170 1_555
Co2 O2 1.998438 1_555
Co2 O5 2.110148 1_555
Co2 O13 2.164624 1_556
Co3 O4 1.946171 1_555
Co3 O10 1.973278 1_655
Co3 O8 2.041452 1_655
Co3 O11 2.063273 1_555
Co3 O0 2.063749 1_555
Co3 O6 2.071804 1_655
Co4 O5 1.832505 1_555
Co4 O9 2.012127 1_555
Co4 O12 2.044184 1_555
Co4 O14 2.081483 1_555
Co4 O7 2.098897 1_555
Co4 O1 2.189682 1_555
