# generated using pymatgen
data_CsRb2Bi
_symmetry_space_group_name_H-M   'P 1'
_cell_length_a   6.42291729
_cell_length_b   6.42291729
_cell_length_c   6.42291729
_cell_angle_alpha   60.00000000
_cell_angle_beta   60.00000000
_cell_angle_gamma   60.00000000
_symmetry_Int_Tables_number   1
_chemical_formula_structural   CsRb2Bi
_chemical_formula_sum   'Cs1 Rb2 Bi1'
_cell_volume   187.36220570
_cell_formula_units_Z   1
loop_
 _symmetry_equiv_pos_site_id
 _symmetry_equiv_pos_as_xyz
  1  'x, y, z'
loop_
 _atom_site_type_symbol
 _atom_site_label
 _atom_site_symmetry_multiplicity
 _atom_site_fract_x
 _atom_site_fract_y
 _atom_site_fract_z
 _atom_site_occupancy
  Cs  Cs0  1  0.00000000  0.00000000  -0.00000000  1
  Rb  Rb0  1  0.25000000  0.25000000  0.25000000  1
  Rb  Rb1  1  0.75000000  0.75000000  0.75000000  1
  Bi  Bi0  1  0.50000000  0.50000000  0.50000000  1
loop_
_geom_bond_atom_site_label_1
_geom_bond_atom_site_label_2
_geom_bond_distance
_geom_bond_site_symmetry_2
Cs0 Rb1 3.933218 1_444
Cs0 Rb0 3.933218 1_555
Cs0 Rb0 3.933218 1_554
Cs0 Rb1 3.933218 1_445
Cs0 Rb0 3.933218 1_545
Cs0 Rb1 3.933218 1_544
Cs0 Rb0 3.933218 1_455
Cs0 Rb1 3.933218 1_454
Bi0 Rb1 3.933218 1_555
Bi0 Rb0 3.933218 1_555
Bi0 Rb0 3.933218 1_556
Bi0 Rb1 3.933218 1_554
Bi0 Rb0 3.933218 1_565
Bi0 Rb1 3.933218 1_545
Bi0 Rb1 3.933218 1_455
Bi0 Rb0 3.933218 1_655
Bi0 Cs0 4.541688 1_565
Bi0 Cs0 4.541688 1_566
Bi0 Cs0 4.541688 1_656
Bi0 Cs0 4.541688 1_655
Bi0 Cs0 4.541688 1_665
Bi0 Cs0 4.541688 1_556
