# generated using pymatgen
data_TbZr6(PO4)9
_symmetry_space_group_name_H-M   'P 1'
_cell_length_a   8.93908551
_cell_length_b   8.93908551
_cell_length_c   22.98719900
_cell_angle_alpha   90.00000000
_cell_angle_beta   90.00000000
_cell_angle_gamma   119.99999639
_symmetry_Int_Tables_number   1
_chemical_formula_structural   TbZr6(PO4)9
_chemical_formula_sum   'Tb2 Zr12 P18 O72'
_cell_volume   1590.75349711
_cell_formula_units_Z   2
loop_
 _symmetry_equiv_pos_site_id
 _symmetry_equiv_pos_as_xyz
  1  'x, y, z'
loop_
 _atom_site_type_symbol
 _atom_site_label
 _atom_site_symmetry_multiplicity
 _atom_site_fract_x
 _atom_site_fract_y
 _atom_site_fract_z
 _atom_site_occupancy
  Tb  Tb0  1  0.00000000  0.00000000  0.50000000  1
  Tb  Tb1  1  0.00000000  0.00000000  0.00000000  1
  Zr  Zr0  1  0.33333300  0.66666700  0.52823600  1
  Zr  Zr1  1  0.66666700  0.33333300  0.47176400  1
  Zr  Zr2  1  0.66666700  0.33333300  0.97176400  1
  Zr  Zr3  1  0.33333300  0.66666700  0.02823600  1
  Zr  Zr4  1  0.00000000  0.00000000  0.64946100  1
  Zr  Zr5  1  0.00000000  0.00000000  0.35053900  1
  Zr  Zr6  1  0.00000000  0.00000000  0.85053900  1
  Zr  Zr7  1  0.00000000  0.00000000  0.14946100  1
  Zr  Zr8  1  0.33333300  0.66666700  0.81312700  1
  Zr  Zr9  1  0.66666700  0.33333300  0.18687300  1
  Zr  Zr10  1  0.66666700  0.33333300  0.68687300  1
  Zr  Zr11  1  0.33333300  0.66666700  0.31312700  1
  P  P0  1  0.37327900  0.31865400  0.57894000  1
  P  P1  1  0.62672100  0.68134600  0.42106000  1
  P  P2  1  0.68134600  0.05462500  0.57894000  1
  P  P3  1  0.31865400  0.37327900  0.92106000  1
  P  P4  1  0.31865400  0.94537500  0.42106000  1
  P  P5  1  0.68134600  0.62672100  0.07894000  1
  P  P6  1  0.94537500  0.62672100  0.57894000  1
  P  P7  1  0.05462500  0.68134600  0.92106000  1
  P  P8  1  0.05462500  0.37327900  0.42106000  1
  P  P9  1  0.94537500  0.31865400  0.07894000  1
  P  P10  1  0.62672100  0.94537500  0.92106000  1
  P  P11  1  0.37327900  0.05462500  0.07894000  1
  P  P12  1  0.29201800  0.00000000  0.75000000  1
  P  P13  1  0.70798200  0.00000000  0.25000000  1
  P  P14  1  0.00000000  0.29201800  0.75000000  1
  P  P15  1  0.00000000  0.70798200  0.25000000  1
  P  P16  1  0.70798200  0.70798200  0.75000000  1
  P  P17  1  0.29201800  0.29201800  0.25000000  1
  O  O0  1  0.45543000  0.28255100  0.52630100  1
  O  O1  1  0.54457000  0.71744900  0.47369900  1
  O  O2  1  0.71744900  0.17287900  0.52630100  1
  O  O3  1  0.28255100  0.45543000  0.97369900  1
  O  O4  1  0.28255100  0.82712100  0.47369900  1
  O  O5  1  0.71744900  0.54457000  0.02630100  1
  O  O6  1  0.82712100  0.54457000  0.52630100  1
  O  O7  1  0.17287900  0.71744900  0.97369900  1
  O  O8  1  0.17287900  0.45543000  0.47369900  1
  O  O9  1  0.82712100  0.28255100  0.02630100  1
  O  O10  1  0.54457000  0.82712100  0.97369900  1
  O  O11  1  0.45543000  0.17287900  0.02630100  1
  O  O12  1  0.37566800  0.49139800  0.57415200  1
  O  O13  1  0.62433200  0.50860200  0.42584800  1
  O  O14  1  0.50860200  0.88427100  0.57415200  1
  O  O15  1  0.49139800  0.37566800  0.92584800  1
  O  O16  1  0.49139800  0.11572900  0.42584800  1
  O  O17  1  0.50860200  0.62433200  0.07415200  1
  O  O18  1  0.11572900  0.62433200  0.57415200  1
  O  O19  1  0.88427100  0.50860200  0.92584800  1
  O  O20  1  0.88427100  0.37566800  0.42584800  1
  O  O21  1  0.11572900  0.49139800  0.07415200  1
  O  O22  1  0.62433200  0.11572900  0.92584800  1
  O  O23  1  0.37566800  0.88427100  0.07415200  1
  O  O24  1  0.17669700  0.16808400  0.57864100  1
  O  O25  1  0.82330300  0.83191600  0.42135900  1
  O  O26  1  0.83191600  0.00861300  0.57864100  1
  O  O27  1  0.16808400  0.17669700  0.92135900  1
  O  O28  1  0.16808400  0.99138700  0.42135900  1
  O  O29  1  0.83191600  0.82330300  0.07864100  1
  O  O30  1  0.99138700  0.82330300  0.57864100  1
  O  O31  1  0.00861300  0.83191600  0.92135900  1
  O  O32  1  0.00861300  0.17669700  0.42135900  1
  O  O33  1  0.99138700  0.16808400  0.07864100  1
  O  O34  1  0.82330300  0.99138700  0.92135900  1
  O  O35  1  0.17669700  0.00861300  0.07864100  1
  O  O36  1  0.03115400  0.20504600  0.69594600  1
  O  O37  1  0.96884600  0.79495400  0.30405400  1
  O  O38  1  0.79495400  0.82610800  0.69594600  1
  O  O39  1  0.20504600  0.03115400  0.80405400  1
  O  O40  1  0.20504600  0.17389200  0.30405400  1
  O  O41  1  0.79495400  0.96884600  0.19594600  1
  O  O42  1  0.17389200  0.96884600  0.69594600  1
  O  O43  1  0.82610800  0.79495400  0.80405400  1
  O  O44  1  0.82610800  0.03115400  0.30405400  1
  O  O45  1  0.17389200  0.20504600  0.19594600  1
  O  O46  1  0.96884600  0.17389200  0.80405400  1
  O  O47  1  0.03115400  0.82610800  0.19594600  1
  O  O48  1  0.46026400  0.31375400  0.63576200  1
  O  O49  1  0.53973600  0.68624600  0.36423800  1
  O  O50  1  0.68624600  0.14651000  0.63576200  1
  O  O51  1  0.31375400  0.46026400  0.86423800  1
  O  O52  1  0.31375400  0.85349000  0.36423800  1
  O  O53  1  0.68624600  0.53973600  0.13576200  1
  O  O54  1  0.85349000  0.53973600  0.63576200  1
  O  O55  1  0.14651000  0.68624600  0.86423800  1
  O  O56  1  0.14651000  0.46026400  0.36423800  1
  O  O57  1  0.85349000  0.31375400  0.13576200  1
  O  O58  1  0.53973600  0.85349000  0.86423800  1
  O  O59  1  0.46026400  0.14651000  0.13576200  1
  O  O60  1  0.46801800  0.15892800  0.73978800  1
  O  O61  1  0.53198200  0.84107200  0.26021200  1
  O  O62  1  0.84107200  0.30909000  0.73978800  1
  O  O63  1  0.15892800  0.46801800  0.76021200  1
  O  O64  1  0.15892800  0.69091000  0.26021200  1
  O  O65  1  0.84107200  0.53198200  0.23978800  1
  O  O66  1  0.69091000  0.53198200  0.73978800  1
  O  O67  1  0.30909000  0.84107200  0.76021200  1
  O  O68  1  0.30909000  0.46801800  0.26021200  1
  O  O69  1  0.69091000  0.15892800  0.23978800  1
  O  O70  1  0.53198200  0.69091000  0.76021200  1
  O  O71  1  0.46801800  0.30909000  0.23978800  1
loop_
_geom_bond_atom_site_label_1
_geom_bond_atom_site_label_2
_geom_bond_distance
_geom_bond_site_symmetry_2
O0 P0 1.531203 1_555
O0 Zr1 2.118039 1_555
O1 P1 1.531203 1_555
O1 Zr0 2.118039 1_555
O2 P2 1.531203 1_555
O2 Zr1 2.118032 1_555
O3 P3 1.531203 1_555
O3 Zr3 2.118039 1_556
O4 P4 1.531203 1_555
O4 Zr0 2.118032 1_555
O5 P5 1.531203 1_555
O5 Zr2 2.118039 1_554
O6 P6 1.531203 1_555
O6 Zr1 2.118037 1_555
O7 P7 1.531203 1_555
O7 Zr3 2.118032 1_556
O8 P8 1.531203 1_555
O8 Zr0 2.118037 1_555
O9 P9 1.531203 1_555
O9 Zr2 2.118032 1_554
O10 P10 1.531203 1_555
O10 Zr3 2.118037 1_556
O11 P11 1.531203 1_555
O11 Zr2 2.118037 1_554
O12 P0 1.537552 1_555
O12 Zr0 2.074814 1_555
O13 P1 1.537552 1_555
O13 Zr1 2.074814 1_555
O14 P2 1.537547 1_565
O14 Zr0 2.074814 1_555
O15 P3 1.537552 1_555
O15 Zr2 2.074814 1_555
O16 P4 1.537547 1_545
O16 Zr1 2.074814 1_555
O17 P5 1.537552 1_555
O17 Zr3 2.074814 1_555
O18 P6 1.537543 1_455
O18 Zr0 2.074814 1_555
O19 P7 1.537547 1_655
O19 Zr2 2.074814 1_555
O20 P8 1.537543 1_655
O20 Zr1 2.074814 1_555
O21 P9 1.537547 1_455
O21 Zr3 2.074814 1_555
O22 P10 1.537543 1_545
O22 Zr2 2.074814 1_555
O23 P11 1.537543 1_565
O23 Zr3 2.074814 1_555
O24 P0 1.591987 1_555
O24 Zr4 2.242633 1_555
O24 Tb0 2.376358 1_555
O25 P1 1.591987 1_555
O25 Zr5 2.242633 1_665
O25 Tb0 2.376358 1_665
O26 P2 1.591987 1_555
O26 Zr4 2.242633 1_655
O26 Tb0 2.376358 1_655
O27 P3 1.591987 1_555
O27 Zr6 2.242633 1_555
O27 Tb1 2.376358 1_556
O28 P4 1.591987 1_555
O28 Zr5 2.242633 1_565
O28 Tb0 2.376358 1_565
O29 P5 1.591987 1_555
O29 Zr7 2.242633 1_665
O29 Tb1 2.376358 1_665
O30 P6 1.591987 1_555
O30 Zr4 2.242633 1_665
O30 Tb0 2.376358 1_665
O31 P7 1.591987 1_555
O31 Zr6 2.242633 1_565
O31 Tb1 2.376358 1_566
O32 P8 1.591987 1_555
O32 Zr5 2.242633 1_555
O32 Tb0 2.376358 1_555
O33 P9 1.591987 1_555
O33 Zr7 2.242633 1_655
O33 Tb1 2.376358 1_655
O34 P10 1.591987 1_555
O34 Zr6 2.242633 1_665
O34 Tb1 2.376358 1_666
O35 P11 1.591987 1_555
O35 Zr7 2.242633 1_555
O35 Tb1 2.376358 1_555
O36 P14 1.562826 1_555
O36 Zr4 2.017062 1_555
O37 P15 1.562826 1_655
O37 Zr5 2.017062 1_665
O38 P16 1.562826 1_555
O38 Zr4 2.017062 1_665
O39 P12 1.562826 1_555
O39 Zr6 2.017062 1_555
O40 P17 1.562826 1_555
O40 Zr5 2.017062 1_555
O41 P13 1.562826 1_565
O41 Zr7 2.017062 1_665
O42 P12 1.562826 1_565
O42 Zr4 2.017062 1_565
O43 P16 1.562826 1_555
O43 Zr6 2.017062 1_665
O44 P13 1.562826 1_555
O44 Zr5 2.017062 1_655
O45 P17 1.562826 1_555
O45 Zr7 2.017062 1_555
O46 P14 1.562826 1_655
O46 Zr6 2.017062 1_655
O47 P15 1.562826 1_555
O47 Zr7 2.017062 1_565
O48 P0 1.531891 1_555
O48 Zr10 2.119510 1_555
O49 P1 1.531891 1_555
O49 Zr11 2.119510 1_555
O50 P2 1.531891 1_555
O50 Zr10 2.119503 1_555
O51 P3 1.531891 1_555
O51 Zr8 2.119510 1_555
O52 P4 1.531891 1_555
O52 Zr11 2.119503 1_555
O53 P5 1.531891 1_555
O53 Zr9 2.119510 1_555
O54 P6 1.531891 1_555
O54 Zr10 2.119507 1_555
O55 P7 1.531891 1_555
O55 Zr8 2.119503 1_555
O56 P8 1.531891 1_555
O56 Zr11 2.119507 1_555
O57 P9 1.531891 1_555
O57 Zr9 2.119503 1_555
O58 P10 1.531891 1_555
O58 Zr8 2.119507 1_555
O59 P11 1.531891 1_555
O59 Zr9 2.119507 1_555
O60 P12 1.521022 1_555
O60 Zr10 2.072422 1_555
O61 P13 1.521022 1_565
O61 Zr11 2.072422 1_555
O62 P14 1.521022 1_655
O62 Zr10 2.072418 1_555
O63 P14 1.521022 1_555
O63 Zr8 2.072422 1_555
O64 P15 1.521022 1_555
O64 Zr11 2.072418 1_555
O65 P15 1.521022 1_655
O65 Zr9 2.072422 1_555
O66 P16 1.521022 1_555
O66 Zr10 2.072425 1_555
O67 P12 1.521022 1_565
O67 Zr8 2.072418 1_555
O68 P17 1.521022 1_555
O68 Zr11 2.072425 1_555
O69 P13 1.521022 1_555
O69 Zr9 2.072418 1_555
O70 P16 1.521022 1_555
O70 Zr8 2.072425 1_555
O71 P17 1.521022 1_555
O71 Zr9 2.072425 1_555
