# generated using pymatgen
data_V3O5F
_symmetry_space_group_name_H-M   'P 1'
_cell_length_a   4.57856436
_cell_length_b   4.57856436
_cell_length_c   8.69607411
_cell_angle_alpha   90.00000000
_cell_angle_beta   90.00000000
_cell_angle_gamma   92.04906215
_symmetry_Int_Tables_number   1
_chemical_formula_structural   V3O5F
_chemical_formula_sum   'V6 O10 F2'
_cell_volume   182.18142364
_cell_formula_units_Z   2
loop_
 _symmetry_equiv_pos_site_id
 _symmetry_equiv_pos_as_xyz
  1  'x, y, z'
loop_
 _atom_site_type_symbol
 _atom_site_label
 _atom_site_symmetry_multiplicity
 _atom_site_fract_x
 _atom_site_fract_y
 _atom_site_fract_z
 _atom_site_occupancy
  V  V0  1  0.98790613  0.01209387  0.65235605  1
  V  V1  1  0.98790613  0.01209387  0.34764395  1
  V  V2  1  0.98348782  0.01651218  0.00000000  1
  V  V3  1  0.48775420  0.51224580  0.50000000  1
  V  V4  1  0.52391256  0.47608744  0.83026345  1
  V  V5  1  0.52391256  0.47608744  0.16973655  1
  O  O0  1  0.79010741  0.20989259  0.50000000  1
  O  O1  1  0.80525689  0.19474311  0.16938222  1
  O  O2  1  0.80525689  0.19474311  0.83061778  1
  O  O3  1  0.29811919  0.29837223  0.66952662  1
  O  O4  1  0.29811919  0.29837223  0.33047338  1
  O  O5  1  0.30275396  0.29556170  0.00000000  1
  O  O6  1  0.70162777  0.70188081  0.66952662  1
  O  O7  1  0.70162777  0.70188081  0.33047338  1
  O  O8  1  0.70443830  0.69724604  0.00000000  1
  O  O9  1  0.19820422  0.80179578  0.50000000  1
  F  F0  1  0.19980350  0.80019650  0.83021334  1
  F  F1  1  0.19980350  0.80019650  0.16978666  1
loop_
_geom_bond_atom_site_label_1
_geom_bond_atom_site_label_2
_geom_bond_distance
_geom_bond_site_symmetry_2
O0 V1 1.858590 1_555
O0 V0 1.858590 1_555
O0 V3 1.992450 1_555
O1 V5 1.854008 1_555
O1 V2 1.883901 1_555
O1 V1 1.962590 1_555
O2 V4 1.854008 1_555
O2 V2 1.883901 1_556
O2 V0 1.962590 1_555
O3 V4 1.903804 1_555
O3 V0 1.903826 1_455
O3 V3 1.955832 1_555
O4 V5 1.903804 1_555
O4 V1 1.903826 1_455
O4 V3 1.955832 1_555
O5 V2 1.906732 1_455
O5 V4 1.956366 1_554
O5 V5 1.956366 1_555
O6 V4 1.903804 1_555
O6 V0 1.903826 1_565
O6 V3 1.955832 1_555
O7 V5 1.903804 1_555
O7 V1 1.903826 1_565
O7 V3 1.955832 1_555
O8 V2 1.906732 1_565
O8 V5 1.956366 1_555
O8 V4 1.956366 1_554
O9 V3 1.908079 1_555
O9 V1 1.917255 1_465
O9 V0 1.917255 1_465
F0 V2 2.052310 1_466
F0 V0 2.083744 1_465
F0 V4 2.135817 1_555
F1 V2 2.052310 1_465
F1 V1 2.083744 1_465
F1 V5 2.135817 1_555
