# generated using pymatgen
data_NdCuAg
_symmetry_space_group_name_H-M   'P 1'
_cell_length_a   5.47117121
_cell_length_b   5.47117121
_cell_length_c   7.26549557
_cell_angle_alpha   57.90693050
_cell_angle_beta   57.90693050
_cell_angle_gamma   45.01735948
_symmetry_Int_Tables_number   1
_chemical_formula_structural   NdCuAg
_chemical_formula_sum   'Nd2 Cu2 Ag2'
_cell_volume   125.84537807
_cell_formula_units_Z   2
loop_
 _symmetry_equiv_pos_site_id
 _symmetry_equiv_pos_as_xyz
  1  'x, y, z'
loop_
 _atom_site_type_symbol
 _atom_site_label
 _atom_site_symmetry_multiplicity
 _atom_site_fract_x
 _atom_site_fract_y
 _atom_site_fract_z
 _atom_site_occupancy
  Nd  Nd0  1  0.55650217  0.55650217  0.69988481  1
  Nd  Nd1  1  0.44349783  0.44349783  0.30011519  1
  Cu  Cu0  1  0.13968128  0.13968128  0.32613907  1
  Cu  Cu1  1  0.86031872  0.86031872  0.67386093  1
  Ag  Ag0  1  0.82036520  0.82036520  0.08951643  1
  Ag  Ag1  1  0.17963480  0.17963480  0.91048357  1
loop_
_geom_bond_atom_site_label_1
_geom_bond_atom_site_label_2
_geom_bond_distance
_geom_bond_site_symmetry_2
Cu0 Cu1 2.480200 1_445
Cu0 Nd1 2.964274 1_455
Cu0 Nd1 2.964274 1_545
Cu0 Nd1 2.966508 1_555
Cu0 Nd0 3.137090 1_455
Cu0 Nd0 3.137090 1_545
Cu1 Nd0 2.964274 1_565
Cu1 Nd0 2.964274 1_655
Cu1 Nd0 2.966508 1_555
Cu1 Nd1 3.137090 1_565
Cu1 Nd1 3.137090 1_655
Ag0 Cu0 2.658346 1_655
Ag0 Cu0 2.658346 1_565
Ag0 Cu1 2.807181 1_554
Ag0 Ag1 3.073772 1_664
Ag0 Nd1 3.185901 1_555
Ag0 Ag1 3.198617 1_654
Ag0 Ag1 3.198617 1_564
Ag0 Nd0 3.213447 1_564
Ag0 Nd0 3.213447 1_654
Ag0 Nd1 3.235442 1_655
Ag0 Nd1 3.235442 1_565
Ag0 Nd0 3.629758 1_555
Ag1 Cu1 2.658346 1_455
Ag1 Cu1 2.658346 1_545
Ag1 Cu0 2.807181 1_556
Ag1 Nd0 3.185901 1_555
Ag1 Nd1 3.213447 1_546
Ag1 Nd1 3.213447 1_456
Ag1 Nd0 3.235442 1_545
Ag1 Nd0 3.235442 1_455
Ag1 Nd1 3.629758 1_555
