# generated using pymatgen
data_Zr2P4O17
_symmetry_space_group_name_H-M   'P 1'
_cell_length_a   5.47581761
_cell_length_b   5.47581761
_cell_length_c   15.42572290
_cell_angle_alpha   76.38464385
_cell_angle_beta   76.38464385
_cell_angle_gamma   60.21820694
_symmetry_Int_Tables_number   1
_chemical_formula_structural   Zr2P4O17
_chemical_formula_sum   'Zr2 P4 O17'
_cell_volume   386.29481388
_cell_formula_units_Z   1
loop_
 _symmetry_equiv_pos_site_id
 _symmetry_equiv_pos_as_xyz
  1  'x, y, z'
loop_
 _atom_site_type_symbol
 _atom_site_label
 _atom_site_symmetry_multiplicity
 _atom_site_fract_x
 _atom_site_fract_y
 _atom_site_fract_z
 _atom_site_occupancy
  Zr  Zr0  1  0.00410400  0.49525900  0.75034600  1
  Zr  Zr1  1  0.50474100  0.99589600  0.24965400  1
  P  P0  1  0.38450700  0.88264700  0.63646500  1
  P  P1  1  0.11735300  0.61549300  0.36353500  1
  P  P2  1  0.61413600  0.11873600  0.86361600  1
  P  P3  1  0.88126400  0.38586400  0.13638400  1
  O  O0  1  0.44002700  0.92848300  0.53183500  1
  O  O1  1  0.07151700  0.55997300  0.46816500  1
  O  O2  1  0.58457700  0.04961300  0.96781400  1
  O  O3  1  0.95038700  0.41542300  0.03218600  1
  O  O4  1  0.18581700  0.16936200  0.67202300  1
  O  O5  1  0.83063800  0.81418300  0.32797700  1
  O  O6  1  0.81261600  0.83251200  0.82813800  1
  O  O7  1  0.16748800  0.18738400  0.17186200  1
  O  O8  1  0.67374700  0.74680200  0.67039800  1
  O  O9  1  0.25319800  0.32625300  0.32960200  1
  O  O10  1  0.32466500  0.25679700  0.83019100  1
  O  O11  1  0.74320300  0.67533500  0.16980900  1
  O  O12  1  0.24667000  0.68505300  0.66983100  1
  O  O13  1  0.31494700  0.75333000  0.33016900  1
  O  O14  1  0.74578500  0.32090400  0.83089800  1
  O  O15  1  0.67909600  0.25421500  0.16910200  1
  O  O16  1  0.62351600  0.37648400  0.50000000  1
loop_
_geom_bond_atom_site_label_1
_geom_bond_atom_site_label_2
_geom_bond_distance
_geom_bond_site_symmetry_2
O0 P0 1.553854 1_555
O1 P1 1.553854 1_555
O2 P2 1.550780 1_555
O3 P3 1.550780 1_555
O4 P0 1.541782 1_545
O4 Zr0 2.078358 1_555
O5 P1 1.541782 1_655
O5 Zr1 2.078358 1_555
O6 P2 1.539098 1_565
O6 Zr0 2.115945 1_655
O7 P3 1.539098 1_455
O7 Zr1 2.115945 1_545
O8 P0 1.540278 1_555
O8 Zr0 2.113267 1_655
O9 P1 1.540278 1_555
O9 Zr1 2.113267 1_545
O10 P2 1.536471 1_555
O10 Zr0 2.070507 1_555
O11 P3 1.536471 1_555
O11 Zr1 2.070507 1_555
O12 P0 1.539956 1_555
O12 Zr0 2.091368 1_555
O13 P1 1.539956 1_555
O13 Zr1 2.091368 1_555
O14 P2 1.535695 1_555
O14 Zr0 2.100446 1_655
O15 P3 1.535695 1_555
O15 Zr1 2.100446 1_545
