# generated using pymatgen
data_Li2CoP2O7
_symmetry_space_group_name_H-M   'P 1'
_cell_length_a   7.19298862
_cell_length_b   9.99220448
_cell_length_c   8.78876421
_cell_angle_alpha   89.95730796
_cell_angle_beta   66.26982441
_cell_angle_gamma   70.32382569
_symmetry_Int_Tables_number   1
_chemical_formula_structural   Li2CoP2O7
_chemical_formula_sum   'Li8 Co4 P8 O28'
_cell_volume   537.81410005
_cell_formula_units_Z   4
loop_
 _symmetry_equiv_pos_site_id
 _symmetry_equiv_pos_as_xyz
  1  'x, y, z'
loop_
 _atom_site_type_symbol
 _atom_site_label
 _atom_site_symmetry_multiplicity
 _atom_site_fract_x
 _atom_site_fract_y
 _atom_site_fract_z
 _atom_site_occupancy
  Li  Li0  1  0.20062700  0.11737600  0.01003500  1
  Li  Li1  1  0.70714600  0.61427500  0.01057100  1
  Li  Li2  1  0.79824000  0.88352500  0.98968900  1
  Li  Li3  1  0.29838900  0.38497200  0.98951200  1
  Li  Li4  1  0.72530500  0.16054800  0.75429200  1
  Li  Li5  1  0.23297000  0.64743500  0.75256400  1
  Li  Li6  1  0.27427600  0.83909700  0.24613200  1
  Li  Li7  1  0.77280600  0.33796200  0.24125900  1
  Co  Co0  1  0.31807000  0.50779100  0.33582900  1
  Co  Co1  1  0.68539400  0.50155100  0.66478100  1
  Co  Co2  1  0.81534900  0.01001900  0.33855900  1
  Co  Co3  1  0.18248400  0.99124900  0.66696100  1
  P  P0  1  0.04686800  0.20752100  0.39663500  1
  P  P1  1  0.55429500  0.70405300  0.39297500  1
  P  P2  1  0.94907200  0.79419500  0.60745900  1
  P  P3  1  0.44800500  0.29664200  0.60710600  1
  P  P4  1  0.51097900  0.18351900  0.14508000  1
  P  P5  1  0.01568200  0.68618600  0.14366400  1
  P  P6  1  0.48795700  0.81329800  0.85582300  1
  P  P7  1  0.98703600  0.31703900  0.85184400  1
  O  O0  1  0.40025300  0.86242100  0.44019700  1
  O  O1  1  0.90121000  0.36761500  0.44768200  1
  O  O2  1  0.59511900  0.13631600  0.56552700  1
  O  O3  1  0.10134300  0.63527200  0.56523600  1
  O  O4  1  0.02073700  0.12273300  0.54137700  1
  O  O5  1  0.52853200  0.62427800  0.54226100  1
  O  O6  1  0.97712600  0.86911900  0.45460400  1
  O  O7  1  0.48161800  0.37116600  0.45346400  1
  O  O8  1  0.01041500  0.13838500  0.25629400  1
  O  O9  1  0.52337000  0.62797200  0.25474700  1
  O  O10  1  0.97531800  0.87359000  0.74540600  1
  O  O11  1  0.47343300  0.37443500  0.74607500  1
  O  O12  1  0.30899200  0.94257000  0.84170000  1
  O  O13  1  0.80619300  0.44533200  0.83736900  1
  O  O14  1  0.68897700  0.05457200  0.16160800  1
  O  O15  1  0.19191800  0.55653600  0.16071600  1
  O  O16  1  0.46769100  0.15892200  0.99206300  1
  O  O17  1  0.97184600  0.66131600  0.99100800  1
  O  O18  1  0.53196000  0.83606100  0.00870400  1
  O  O19  1  0.02904100  0.34271200  0.00515200  1
  O  O20  1  0.29389400  0.19991100  0.31504000  1
  O  O21  1  0.79699500  0.70333300  0.31339600  1
  O  O22  1  0.70449200  0.79673700  0.68562300  1
  O  O23  1  0.20133300  0.30281400  0.68141100  1
  O  O24  1  0.95642600  0.17293900  0.84558200  1
  O  O25  1  0.45654200  0.66902500  0.84684500  1
  O  O26  1  0.04947400  0.82910000  0.14982300  1
  O  O27  1  0.54480100  0.32656700  0.15032000  1
loop_
_geom_bond_atom_site_label_1
_geom_bond_atom_site_label_2
_geom_bond_distance
_geom_bond_site_symmetry_2
Li0 O12 2.001541 1_544
Li0 O8 2.006036 1_555
Li0 O16 2.044553 1_554
Li0 O19 2.183108 1_555
Li1 O9 1.991699 1_555
Li1 O13 1.998887 1_554
Li1 O17 2.052980 1_554
Li1 O18 2.153006 1_555
Li2 O10 1.988916 1_555
Li2 O14 1.991314 1_566
Li2 O18 2.067703 1_556
Li2 O17 2.152666 1_555
Li3 O11 1.979091 1_555
Li3 O15 1.995406 1_556
Li3 O19 2.070576 1_556
Li3 O16 2.180594 1_555
Li4 O4 2.102377 1_655
Li4 O24 2.152929 1_555
Li4 O16 2.168967 1_555
Li4 O2 2.256437 1_555
Li4 O11 2.313611 1_555
Li5 O5 2.120436 1_555
Li5 O17 2.143763 1_455
Li5 O25 2.150741 1_555
Li5 O3 2.225790 1_555
Li5 O10 2.412186 1_455
Li6 O6 2.105357 1_455
Li6 O26 2.133452 1_555
Li6 O18 2.154067 1_555
Li6 O0 2.274028 1_555
Li6 O9 2.286927 1_555
Li7 O7 2.089087 1_555
Li7 O27 2.126584 1_555
Li7 O19 2.164660 1_655
Li7 O8 2.191257 1_655
Li7 O1 2.401229 1_555
Co0 O7 2.052274 1_555
Co0 O15 2.062644 1_555
Co0 O3 2.062704 1_555
Co0 O27 2.114854 1_555
Co0 O9 2.115787 1_555
Co1 O5 1.995133 1_555
Co1 O1 2.015517 1_555
Co1 O25 2.024713 1_555
Co1 O13 2.025384 1_555
Co1 O11 2.207781 1_555
Co2 O2 2.048252 1_555
Co2 O6 2.055794 1_545
Co2 O14 2.075402 1_555
Co2 O8 2.128550 1_655
Co2 O26 2.135791 1_645
Co3 O0 2.053292 1_555
Co3 O12 2.061246 1_555
Co3 O4 2.073637 1_565
Co3 O24 2.089551 1_465
Co3 O10 2.104691 1_455
O0 P1 1.534343 1_555
O1 P0 1.533657 1_655
O2 P3 1.538765 1_555
O3 P2 1.536735 1_455
O4 P0 1.511469 1_555
O5 P1 1.514406 1_555
O6 P2 1.512611 1_555
O7 P3 1.514371 1_555
O8 P0 1.565526 1_555
O9 P1 1.560780 1_555
O10 P2 1.556084 1_555
O11 P3 1.551250 1_555
O12 P6 1.532862 1_555
O13 P7 1.536760 1_555
O14 P4 1.535909 1_555
O15 P5 1.534419 1_555
O16 P4 1.534595 1_556
O17 P5 1.534592 1_656
O18 P6 1.532480 1_554
O19 P7 1.533923 1_454
O20 P0 1.600245 1_555
O20 P4 1.627011 1_555
O21 P1 1.595511 1_555
O21 P5 1.630726 1_655
O22 P2 1.601495 1_555
O22 P6 1.625567 1_555
O23 P3 1.603815 1_555
O23 P7 1.623066 1_455
O24 P7 1.532355 1_555
O25 P6 1.539286 1_555
O26 P5 1.531573 1_555
O27 P4 1.532213 1_555
