# generated using pymatgen
data_Sr3(IrN2)2
_symmetry_space_group_name_H-M   'P 1'
_cell_length_a   7.37304374
_cell_length_b   9.36306578
_cell_length_c   5.57648989
_cell_angle_alpha   89.99999466
_cell_angle_beta   91.97326471
_cell_angle_gamma   129.41646633
_symmetry_Int_Tables_number   1
_chemical_formula_structural   Sr3(IrN2)2
_chemical_formula_sum   'Sr6 Ir4 N8'
_cell_volume   297.11271120
_cell_formula_units_Z   2
loop_
 _symmetry_equiv_pos_site_id
 _symmetry_equiv_pos_as_xyz
  1  'x, y, z'
loop_
 _atom_site_type_symbol
 _atom_site_label
 _atom_site_symmetry_multiplicity
 _atom_site_fract_x
 _atom_site_fract_y
 _atom_site_fract_z
 _atom_site_occupancy
  Sr  Sr0  1  0.23979300  0.96623900  0.05541300  1
  Sr  Sr1  1  0.76020700  0.72644500  0.44458700  1
  Sr  Sr2  1  0.76020700  0.03376100  0.94458700  1
  Sr  Sr3  1  0.23979300  0.27355500  0.55541300  1
  Sr  Sr4  1  0.00000000  0.59336100  0.75000000  1
  Sr  Sr5  1  0.00000000  0.40663900  0.25000000  1
  Ir  Ir0  1  0.53197000  0.15024100  0.58418900  1
  Ir  Ir1  1  0.46803000  0.61827200  0.91581100  1
  Ir  Ir2  1  0.46803000  0.84975900  0.41581100  1
  Ir  Ir3  1  0.53197000  0.38172800  0.08418900  1
  N  N0  1  0.21533300  0.92960300  0.53947200  1
  N  N1  1  0.78466700  0.71427000  0.96052800  1
  N  N2  1  0.78466700  0.07039700  0.46052800  1
  N  N3  1  0.21533300  0.28573000  0.03947200  1
  N  N4  1  0.66484400  0.26860300  0.92415400  1
  N  N5  1  0.33515600  0.60376000  0.57584600  1
  N  N6  1  0.33515600  0.73139700  0.07584600  1
  N  N7  1  0.66484400  0.39624000  0.42415400  1
loop_
_geom_bond_atom_site_label_1
_geom_bond_atom_site_label_2
_geom_bond_distance
_geom_bond_site_symmetry_2
Ir0 N0 1.901439 1_545
Ir0 N7 2.063028 1_555
Ir0 N4 2.067703 1_555
Ir0 N2 2.522502 1_555
Ir1 N1 1.901442 1_555
Ir1 N6 2.063028 1_556
Ir1 N5 2.067703 1_555
Ir1 N3 2.522509 1_556
Ir2 N2 1.901439 1_565
Ir2 N5 2.063028 1_555
Ir2 N6 2.067703 1_555
Ir2 N0 2.522502 1_555
Ir3 N3 1.901442 1_555
Ir3 N4 2.063028 1_554
Ir3 N7 2.067703 1_555
Ir3 N1 2.522509 1_554
N0 Sr1 2.632596 1_455
N0 Sr0 2.718758 1_555
N0 Sr4 2.755248 1_555
N0 Sr0 2.883371 1_556
N0 Sr3 3.110151 1_565
N1 Sr0 2.632597 1_656
N1 Sr1 2.718758 1_556
N1 Sr4 2.755248 1_655
N1 Sr1 2.883371 1_555
N1 Sr2 3.110142 1_565
N2 Sr3 2.632596 1_655
N2 Sr2 2.718758 1_555
N2 Sr5 2.755248 1_655
N2 Sr2 2.883371 1_554
N2 Sr1 3.110151 1_545
N3 Sr2 2.632597 1_454
N3 Sr3 2.718758 1_554
N3 Sr5 2.755248 1_555
N3 Sr3 2.883371 1_555
N3 Sr0 3.110142 1_545
N4 Sr5 2.591059 1_656
N4 Sr4 2.630368 1_655
N4 Sr0 2.695012 1_546
N4 Sr2 2.701863 1_555
N5 Sr5 2.591060 1_555
N5 Sr4 2.630362 1_555
N5 Sr1 2.695018 1_555
N5 Sr3 2.701863 1_555
N6 Sr4 2.591059 1_554
N6 Sr5 2.630368 1_555
N6 Sr2 2.695012 1_564
N6 Sr0 2.701863 1_555
N7 Sr4 2.591060 1_655
N7 Sr5 2.630362 1_655
N7 Sr3 2.695018 1_555
N7 Sr1 2.701863 1_555
