# generated using pymatgen
data_Na4MgFe(PO4)3
_symmetry_space_group_name_H-M   'P 1'
_cell_length_a   8.89194425
_cell_length_b   8.89194425
_cell_length_c   8.89194373
_cell_angle_alpha   60.56627661
_cell_angle_beta   60.56627661
_cell_angle_gamma   60.56627736
_symmetry_Int_Tables_number   1
_chemical_formula_structural   Na4MgFe(PO4)3
_chemical_formula_sum   'Na8 Mg2 Fe2 P6 O24'
_cell_volume   503.49543392
_cell_formula_units_Z   2
loop_
 _symmetry_equiv_pos_site_id
 _symmetry_equiv_pos_as_xyz
  1  'x, y, z'
loop_
 _atom_site_type_symbol
 _atom_site_label
 _atom_site_symmetry_multiplicity
 _atom_site_fract_x
 _atom_site_fract_y
 _atom_site_fract_z
 _atom_site_occupancy
  Na  Na0  1  0.74419300  0.11566800  0.38642800  1
  Na  Na1  1  0.38642800  0.74419300  0.11566800  1
  Na  Na2  1  0.11566800  0.38642800  0.74419300  1
  Na  Na3  1  0.88642800  0.61566800  0.24419300  1
  Na  Na4  1  0.24419300  0.88642800  0.61566800  1
  Na  Na5  1  0.61566800  0.24419300  0.88642800  1
  Na  Na6  1  0.49808300  0.49808300  0.49808300  1
  Na  Na7  1  0.99808300  0.99808300  0.99808300  1
  Mg  Mg0  1  0.35111400  0.35111400  0.35111400  1
  Mg  Mg1  1  0.85111400  0.85111400  0.85111400  1
  Fe  Fe0  1  0.64973900  0.64973900  0.64973900  1
  Fe  Fe1  1  0.14973900  0.14973900  0.14973900  1
  P  P0  1  0.75305800  0.45345000  0.04675700  1
  P  P1  1  0.04675700  0.75305800  0.45345000  1
  P  P2  1  0.45345000  0.04675700  0.75305800  1
  P  P3  1  0.54675700  0.95345000  0.25305800  1
  P  P4  1  0.25305800  0.54675700  0.95345000  1
  P  P5  1  0.95345000  0.25305800  0.54675700  1
  O  O0  1  0.11771600  0.29108500  0.51694700  1
  O  O1  1  0.51694700  0.11771600  0.29108500  1
  O  O2  1  0.29108500  0.51694700  0.11771600  1
  O  O3  1  0.01694700  0.79108500  0.61771600  1
  O  O4  1  0.61771600  0.01694700  0.79108500  1
  O  O5  1  0.79108500  0.61771600  0.01694700  1
  O  O6  1  0.87621500  0.71795000  0.48305600  1
  O  O7  1  0.48305600  0.87621500  0.71795000  1
  O  O8  1  0.71795000  0.48305600  0.87621500  1
  O  O9  1  0.98305600  0.21795000  0.37621500  1
  O  O10  1  0.37621500  0.98305600  0.21795000  1
  O  O11  1  0.21795000  0.37621500  0.98305600  1
  O  O12  1  0.22428600  0.58908500  0.42714300  1
  O  O13  1  0.42714300  0.22428600  0.58908500  1
  O  O14  1  0.58908500  0.42714300  0.22428600  1
  O  O15  1  0.92714300  0.08908500  0.72428600  1
  O  O16  1  0.72428600  0.92714300  0.08908500  1
  O  O17  1  0.08908500  0.72428600  0.92714300  1
  O  O18  1  0.77243800  0.42116300  0.56443500  1
  O  O19  1  0.56443500  0.77243800  0.42116300  1
  O  O20  1  0.42116300  0.56443500  0.77243800  1
  O  O21  1  0.06443500  0.92116300  0.27243800  1
  O  O22  1  0.27243800  0.06443500  0.92116300  1
  O  O23  1  0.92116300  0.27243800  0.06443500  1
loop_
_geom_bond_atom_site_label_1
_geom_bond_atom_site_label_2
_geom_bond_distance
_geom_bond_site_symmetry_2
Na0 O14 2.434573 1_555
Na0 O13 2.483818 1_555
Na0 O21 2.484575 1_645
Na0 O23 2.534202 1_555
Na0 O1 2.536625 1_555
Na0 O9 2.640909 1_555
Na1 O12 2.434573 1_555
Na1 O14 2.483818 1_555
Na1 O22 2.484575 1_564
Na1 O21 2.534202 1_555
Na1 O2 2.536625 1_555
Na1 O10 2.640909 1_555
Na2 O13 2.434573 1_555
Na2 O12 2.483818 1_555
Na2 O23 2.484575 1_456
Na2 O22 2.534202 1_555
Na2 O0 2.536625 1_555
Na2 O11 2.640909 1_555
Na3 O16 2.434573 1_555
Na3 O17 2.483818 1_654
Na3 O18 2.484575 1_555
Na3 O19 2.534202 1_555
Na3 O5 2.536625 1_555
Na3 O6 2.640909 1_555
Na4 O17 2.434573 1_555
Na4 O15 2.483818 1_465
Na4 O19 2.484575 1_555
Na4 O20 2.534202 1_555
Na4 O3 2.536625 1_555
Na4 O7 2.640909 1_555
Na5 O15 2.434573 1_555
Na5 O16 2.483818 1_546
Na5 O20 2.484575 1_555
Na5 O18 2.534202 1_555
Na5 O4 2.536625 1_555
Na5 O8 2.640909 1_555
Na6 O14 2.459955 1_555
Na6 O12 2.459956 1_555
Na6 O13 2.459956 1_555
Na6 O20 2.478990 1_555
Na6 O18 2.478990 1_555
Na6 O19 2.478990 1_555
Na7 O15 2.459955 1_565
Na7 O17 2.459956 1_655
Na7 O16 2.459956 1_556
Na7 O21 2.478990 1_656
Na7 O23 2.478990 1_566
Na7 O22 2.478990 1_665
Mg0 O2 2.018379 1_555
Mg0 O0 2.018379 1_555
Mg0 O1 2.018379 1_555
Mg0 O13 2.125485 1_555
Mg0 O12 2.125486 1_555
Mg0 O14 2.125486 1_555
Mg1 O3 2.018379 1_655
Mg1 O5 2.018379 1_556
Mg1 O4 2.018379 1_565
Mg1 O16 2.125485 1_556
Mg1 O17 2.125486 1_655
Mg1 O15 2.125486 1_565
Fe0 O8 2.000870 1_555
Fe0 O6 2.000870 1_555
Fe0 O7 2.000870 1_555
Fe0 O19 2.102167 1_555
Fe0 O18 2.102168 1_555
Fe0 O20 2.102168 1_555
Fe1 O9 2.000870 1_455
Fe1 O11 2.000870 1_554
Fe1 O10 2.000870 1_545
Fe1 O22 2.102167 1_554
Fe1 O23 2.102168 1_455
Fe1 O21 2.102168 1_545
O0 P5 1.528030 1_455
O1 P3 1.528030 1_545
O2 P4 1.528030 1_554
O3 P1 1.528030 1_555
O4 P2 1.528030 1_555
O5 P0 1.528030 1_555
O6 P1 1.567968 1_655
O7 P2 1.567968 1_565
O8 P0 1.567968 1_556
O9 P5 1.567968 1_555
O10 P3 1.567968 1_555
O11 P4 1.567968 1_555
O12 P1 1.543592 1_555
O13 P2 1.543592 1_555
O14 P0 1.543592 1_555
O15 P5 1.543592 1_555
O16 P3 1.543592 1_555
O17 P4 1.543592 1_555
O18 P5 1.570788 1_555
O19 P3 1.570788 1_555
O20 P4 1.570788 1_555
O21 P1 1.570788 1_555
O22 P2 1.570788 1_555
O23 P0 1.570788 1_555
