# generated using pymatgen
data_PrEu2NbO6
_symmetry_space_group_name_H-M   'P 1'
_cell_length_a   6.10408109
_cell_length_b   6.10408109
_cell_length_c   6.10408109
_cell_angle_alpha   60.00000000
_cell_angle_beta   60.00000000
_cell_angle_gamma   60.00000000
_symmetry_Int_Tables_number   1
_chemical_formula_structural   PrEu2NbO6
_chemical_formula_sum   'Pr1 Eu2 Nb1 O6'
_cell_volume   160.82215779
_cell_formula_units_Z   1
loop_
 _symmetry_equiv_pos_site_id
 _symmetry_equiv_pos_as_xyz
  1  'x, y, z'
loop_
 _atom_site_type_symbol
 _atom_site_label
 _atom_site_symmetry_multiplicity
 _atom_site_fract_x
 _atom_site_fract_y
 _atom_site_fract_z
 _atom_site_occupancy
  Pr  Pr0  1  0.50000000  0.50000000  0.50000000  1
  Eu  Eu0  1  0.25000000  0.25000000  0.25000000  1
  Eu  Eu1  1  0.75000000  0.75000000  0.75000000  1
  Nb  Nb0  1  -0.00000000  0.00000000  0.00000000  1
  O  O0  1  0.76759692  0.23240308  0.23240308  1
  O  O1  1  0.23240308  0.76759692  0.76759692  1
  O  O2  1  0.76759692  0.23240308  0.76759692  1
  O  O3  1  0.23240308  0.76759692  0.23240308  1
  O  O4  1  0.76759692  0.76759692  0.23240308  1
  O  O5  1  0.23240308  0.23240308  0.76759692  1
loop_
_geom_bond_atom_site_label_1
_geom_bond_atom_site_label_2
_geom_bond_distance
_geom_bond_site_symmetry_2
Eu0 O0 3.055818 1_455
Eu0 O5 3.055818 1_555
Eu0 O5 3.055818 1_554
Eu0 O4 3.055818 1_545
Eu0 O1 3.055818 1_545
Eu0 O4 3.055818 1_455
Eu0 O1 3.055818 1_554
Eu0 O3 3.055818 1_545
Eu0 O2 3.055818 1_455
Eu0 O2 3.055818 1_554
Eu0 O3 3.055818 1_555
Eu0 O0 3.055818 1_555
Eu1 O2 3.055818 1_555
Eu1 O4 3.055818 1_555
Eu1 O1 3.055818 1_555
Eu1 O0 3.055818 1_565
Eu1 O3 3.055818 1_655
Eu1 O5 3.055818 1_565
Eu1 O5 3.055818 1_655
Eu1 O0 3.055818 1_556
Eu1 O3 3.055818 1_556
Eu1 O1 3.055818 1_655
Eu1 O2 3.055818 1_565
Eu1 O4 3.055818 1_556
Nb0 O0 2.006214 1_455
Nb0 O1 2.006214 1_544
Nb0 O3 2.006214 1_545
Nb0 O2 2.006214 1_454
Nb0 O4 2.006214 1_445
Nb0 O5 2.006214 1_554
O0 Pr0 2.310024 1_555
O1 Pr0 2.310024 1_555
O2 Pr0 2.310024 1_555
O3 Pr0 2.310024 1_555
O4 Pr0 2.310024 1_555
O5 Pr0 2.310024 1_555
