# generated using pymatgen
data_CrReO4
_symmetry_space_group_name_H-M   'P 1'
_cell_length_a   6.54674461
_cell_length_b   6.84629201
_cell_length_c   7.50037925
_cell_angle_alpha   62.84493299
_cell_angle_beta   64.12404717
_cell_angle_gamma   90.00046991
_symmetry_Int_Tables_number   1
_chemical_formula_structural   CrReO4
_chemical_formula_sum   'Cr4 Re4 O16'
_cell_volume   260.66586227
_cell_formula_units_Z   4
loop_
 _symmetry_equiv_pos_site_id
 _symmetry_equiv_pos_as_xyz
  1  'x, y, z'
loop_
 _atom_site_type_symbol
 _atom_site_label
 _atom_site_symmetry_multiplicity
 _atom_site_fract_x
 _atom_site_fract_y
 _atom_site_fract_z
 _atom_site_occupancy
  Cr  Cr0  1  0.87505000  0.37505200  0.24986700  1
  Cr  Cr1  1  0.62426900  0.12412300  0.75160900  1
  Cr  Cr2  1  0.37494700  0.87516200  0.24991700  1
  Cr  Cr3  1  0.12401600  0.62406100  0.75167100  1
  Re  Re0  1  0.01148000  0.01153800  0.97705400  1
  Re  Re1  1  0.51145600  0.51154500  0.97705300  1
  Re  Re2  1  0.24087900  0.24083800  0.51838900  1
  Re  Re3  1  0.74075300  0.74086400  0.51837600  1
  O  O0  1  0.37517200  0.18802600  0.24958400  1
  O  O1  1  0.87522800  0.68799700  0.24961100  1
  O  O2  1  0.62524700  0.40996800  0.74957200  1
  O  O3  1  0.12522300  0.90997300  0.74954700  1
  O  O4  1  0.37517900  0.56232700  0.24957400  1
  O  O5  1  0.87524400  0.06232300  0.24959300  1
  O  O6  1  0.62527900  0.84044300  0.74956400  1
  O  O7  1  0.12524000  0.34046600  0.74954500  1
  O  O8  1  0.29424100  0.00120600  0.99757900  1
  O  O9  1  0.79409900  0.50113800  0.99772100  1
  O  O10  1  0.54206200  0.24767000  0.50474400  1
  O  O11  1  0.04202900  0.74762600  0.50467900  1
  O  O12  1  0.70820200  0.00117200  0.99764900  1
  O  O13  1  0.20817900  0.50121300  0.99759600  1
  O  O14  1  0.95329600  0.24767400  0.50475100  1
  O  O15  1  0.45323000  0.74759500  0.50475700  1
loop_
_geom_bond_atom_site_label_1
_geom_bond_atom_site_label_2
_geom_bond_distance
_geom_bond_site_symmetry_2
Cr0 O9 1.996820 1_554
Cr0 O13 1.997217 1_654
Cr0 O10 2.002010 1_555
Cr0 O14 2.002651 1_555
Cr0 O1 2.141637 1_555
Cr0 O5 2.141973 1_555
Cr1 O6 1.949193 1_545
Cr1 O2 1.950041 1_555
Cr1 O14 1.967948 1_555
Cr1 O10 1.968164 1_555
Cr1 O12 1.970569 1_555
Cr1 O8 1.970678 1_555
Cr2 O8 1.996978 1_564
Cr2 O12 1.997771 1_564
Cr2 O11 2.001460 1_555
Cr2 O15 2.002528 1_555
Cr2 O0 2.140819 1_565
Cr2 O4 2.142935 1_555
Cr3 O7 1.948891 1_555
Cr3 O3 1.950206 1_555
Cr3 O11 1.968002 1_555
Cr3 O15 1.968897 1_555
Cr3 O9 1.970336 1_455
Cr3 O13 1.970861 1_555
O0 Re2 2.021570 1_555
O0 Re1 2.038522 1_554
O1 Re3 2.021542 1_555
O1 Re0 2.038679 1_664
O2 Re1 1.980738 1_555
O2 Re3 1.995116 1_555
O3 Re0 1.980844 1_565
O3 Re2 1.994906 1_565
O4 Re2 2.021019 1_555
O4 Re1 2.037588 1_554
O5 Re3 2.020814 1_545
O5 Re0 2.037721 1_654
O6 Re1 1.979915 1_555
O6 Re3 1.994472 1_555
O7 Re0 1.980094 1_555
O7 Re2 1.994513 1_555
O8 Re0 1.922060 1_555
O9 Re1 1.921808 1_555
O10 Re2 1.928736 1_555
O11 Re3 1.929187 1_455
O12 Re0 1.921805 1_655
O13 Re1 1.921949 1_555
O14 Re2 1.929006 1_655
O15 Re3 1.928547 1_555
