# generated using pymatgen
data_U8NiSe17
_symmetry_space_group_name_H-M   'P 1'
_cell_length_a   8.28766450
_cell_length_b   8.28766450
_cell_length_c   10.94433413
_cell_angle_alpha   80.10436700
_cell_angle_beta   80.10436700
_cell_angle_gamma   64.18548742
_symmetry_Int_Tables_number   1
_chemical_formula_structural   U8NiSe17
_chemical_formula_sum   'U8 Ni1 Se17'
_cell_volume   662.63192615
_cell_formula_units_Z   1
loop_
 _symmetry_equiv_pos_site_id
 _symmetry_equiv_pos_as_xyz
  1  'x, y, z'
loop_
 _atom_site_type_symbol
 _atom_site_label
 _atom_site_symmetry_multiplicity
 _atom_site_fract_x
 _atom_site_fract_y
 _atom_site_fract_z
 _atom_site_occupancy
  U  U0  1  0.81598379  0.30219774  0.29598322  1
  U  U1  1  0.30219774  0.81598379  0.29598322  1
  U  U2  1  0.18401621  0.69780226  0.70401678  1
  U  U3  1  0.69780226  0.18401621  0.70401678  1
  U  U4  1  0.20247126  0.20247126  0.54433172  1
  U  U5  1  0.79752874  0.79752874  0.45566828  1
  U  U6  1  0.68097553  0.68097553  0.98404057  1
  U  U7  1  0.31902447  0.31902447  0.01595943  1
  Ni  Ni0  1  -0.00000000  0.00000000  0.00000000  1
  Se  Se0  1  0.82288983  0.43319943  0.53511784  1
  Se  Se1  1  0.43319943  0.82288983  0.53511784  1
  Se  Se2  1  0.17711017  0.56680057  0.46488216  1
  Se  Se3  1  0.56680057  0.17711017  0.46488216  1
  Se  Se4  1  0.94319454  0.32347713  0.02751283  1
  Se  Se5  1  0.32347713  0.94319454  0.02751283  1
  Se  Se6  1  0.05680546  0.67652287  0.97248717  1
  Se  Se7  1  0.67652287  0.05680546  0.97248717  1
  Se  Se8  1  0.20980468  0.20980468  0.27836167  1
  Se  Se9  1  0.79019532  0.79019532  0.72163833  1
  Se  Se10  1  0.05415683  0.05415683  0.77618430  1
  Se  Se11  1  0.94584317  0.94584317  0.22381570  1
  Se  Se12  1  0.30207954  0.30207954  0.75326019  1
  Se  Se13  1  0.69792046  0.69792046  0.24673981  1
  Se  Se14  1  0.52083458  0.52083458  0.82888555  1
  Se  Se15  1  0.47916542  0.47916542  0.17111445  1
  Se  Se16  1  -0.00000000  0.00000000  0.50000000  1
loop_
_geom_bond_atom_site_label_1
_geom_bond_atom_site_label_2
_geom_bond_distance
_geom_bond_site_symmetry_2
Ni0 Se10 2.413029 1_554
Ni0 Se11 2.413029 1_445
Ni0 Se4 2.574665 1_455
Ni0 Se5 2.574665 1_545
Ni0 Se7 2.574665 1_454
Ni0 Se6 2.574665 1_544
Se0 U4 2.892537 1_655
Se0 U5 2.919754 1_555
Se0 U3 2.941137 1_555
Se0 U0 3.018911 1_555
Se1 U4 2.892537 1_565
Se1 U5 2.919754 1_555
Se1 U2 2.941137 1_555
Se1 U1 3.018911 1_555
Se2 U5 2.892537 1_455
Se2 U4 2.919754 1_555
Se2 U1 2.941137 1_555
Se2 U2 3.018911 1_555
Se3 U5 2.892537 1_545
Se3 U4 2.919754 1_555
Se3 U0 2.941137 1_555
Se3 U3 3.018911 1_555
Se4 U6 2.826776 1_554
Se4 U0 2.948715 1_555
Se4 U7 3.079799 1_655
Se5 U6 2.826776 1_554
Se5 U1 2.948715 1_555
Se5 U7 3.079799 1_565
Se6 U7 2.826776 1_556
Se6 U2 2.948715 1_555
Se6 U6 3.079799 1_455
Se7 U7 2.826776 1_556
Se7 U3 2.948715 1_555
Se7 U6 3.079799 1_545
Se8 U4 2.891734 1_555
Se8 U7 2.968614 1_555
Se8 U0 2.988993 1_455
Se8 U1 2.988993 1_545
Se9 U5 2.891734 1_555
Se9 U6 2.968614 1_555
Se9 U3 2.988993 1_565
Se9 U2 2.988993 1_655
Se10 U2 2.871539 1_545
Se10 U3 2.871539 1_455
Se10 U4 2.938083 1_555
Se11 U0 2.871539 1_565
Se11 U1 2.871539 1_655
Se11 U5 2.938083 1_555
Se12 U4 2.912477 1_555
Se12 U7 2.932607 1_556
Se12 U2 2.963563 1_555
Se12 U3 2.963563 1_555
Se13 U5 2.912477 1_555
Se13 U6 2.932607 1_554
Se13 U0 2.963563 1_555
Se13 U1 2.963563 1_555
Se14 U3 2.977830 1_555
Se14 U2 2.977830 1_555
Se14 U6 3.080521 1_555
Se14 U7 3.141483 1_556
Se15 U0 2.977830 1_555
Se15 U1 2.977830 1_555
Se15 U7 3.080521 1_555
Se15 U6 3.141483 1_554
Se16 U4 2.979729 1_555
Se16 U5 2.979729 1_445
Se16 U1 3.083140 1_545
Se16 U2 3.083140 1_545
Se16 U0 3.083140 1_455
Se16 U3 3.083140 1_455
