# generated using pymatgen
data_LiVO2
_symmetry_space_group_name_H-M   'P 1'
_cell_length_a   4.98028531
_cell_length_b   5.80043023
_cell_length_c   5.88008373
_cell_angle_alpha   119.57844737
_cell_angle_beta   74.24852010
_cell_angle_gamma   90.02155467
_symmetry_Int_Tables_number   1
_chemical_formula_structural   LiVO2
_chemical_formula_sum   'Li4 V4 O8'
_cell_volume   140.35547132
_cell_formula_units_Z   4
loop_
 _symmetry_equiv_pos_site_id
 _symmetry_equiv_pos_as_xyz
  1  'x, y, z'
loop_
 _atom_site_type_symbol
 _atom_site_label
 _atom_site_symmetry_multiplicity
 _atom_site_fract_x
 _atom_site_fract_y
 _atom_site_fract_z
 _atom_site_occupancy
  Li  Li0  1  0.49975871  0.75081552  0.00062310  1
  Li  Li1  1  0.50013947  0.25039793  0.00013522  1
  Li  Li2  1  0.99960955  0.49987482  0.00072457  1
  Li  Li3  1  0.00067106  -0.00079553  -0.00032848  1
  V  V0  1  -0.00010978  0.49447168  0.49994080  1
  V  V1  1  0.49990522  0.25549856  0.49994686  1
  V  V2  1  -0.00026464  0.99473168  0.50008685  1
  V  V3  1  0.49987812  0.75537905  0.50007760  1
  O  O0  1  0.24848232  0.62588475  0.26484394  1
  O  O1  1  0.24851231  0.12577065  0.26454739  1
  O  O2  1  0.74860961  0.38887108  0.26459356  1
  O  O3  1  0.74844174  0.88889996  0.26477299  1
  O  O4  1  0.75150021  0.37050322  0.73508357  1
  O  O5  1  0.75168369  0.87039640  0.73501129  1
  O  O6  1  0.25168503  0.11460432  0.73488467  1
  O  O7  1  0.25149637  0.61469591  0.73505707  1
loop_
_geom_bond_atom_site_label_1
_geom_bond_atom_site_label_2
_geom_bond_distance
_geom_bond_site_symmetry_2
Li0 O1 2.078440 1_565
Li0 O3 2.098440 1_555
Li0 O4 2.101187 1_554
Li0 O7 2.102593 1_554
Li0 O5 2.121198 1_554
Li0 O0 2.135457 1_555
Li1 O0 2.081658 1_555
Li1 O2 2.098930 1_555
Li1 O5 2.099414 1_544
Li1 O6 2.102002 1_554
Li1 O4 2.119772 1_554
Li1 O1 2.135736 1_555
Li2 O2 2.077782 1_555
Li2 O0 2.099098 1_655
Li2 O4 2.102335 1_554
Li2 O7 2.102403 1_654
Li2 O6 2.121693 1_654
Li2 O3 2.134503 1_555
Li3 O3 2.082816 1_445
Li3 O1 2.098225 1_555
Li3 O6 2.099166 1_554
Li3 O5 2.101638 1_444
Li3 O7 2.115803 1_544
Li3 O2 2.139073 1_455
O0 V3 1.989680 1_555
O0 V0 2.033511 1_555
O0 V2 2.043382 1_555
O1 V1 1.990377 1_555
O1 V2 2.034182 1_545
O1 V0 2.042512 1_555
O2 V0 1.989786 1_655
O2 V3 2.033696 1_555
O2 V1 2.042890 1_555
O3 V2 1.989651 1_655
O3 V1 2.033658 1_565
O3 V3 2.043007 1_555
O4 V1 1.988999 1_555
O4 V0 2.002831 1_655
O4 V2 2.071174 1_645
O5 V3 1.989021 1_555
O5 V2 2.002697 1_655
O5 V0 2.071751 1_655
O6 V2 1.989039 1_545
O6 V3 2.002755 1_545
O6 V1 2.071505 1_555
O7 V0 1.988950 1_555
O7 V1 2.003120 1_555
O7 V3 2.071125 1_555
