# generated using pymatgen
data_Y(FeB)2
_symmetry_space_group_name_H-M   'P 1'
_cell_length_a   3.56283039
_cell_length_b   3.56283073
_cell_length_c   5.41875634
_cell_angle_alpha   109.19291760
_cell_angle_beta   109.19292592
_cell_angle_gamma   89.99999354
_symmetry_Int_Tables_number   1
_chemical_formula_structural   Y(FeB)2
_chemical_formula_sum   'Y1 Fe2 B2'
_cell_volume   60.89835926
_cell_formula_units_Z   1
loop_
 _symmetry_equiv_pos_site_id
 _symmetry_equiv_pos_as_xyz
  1  'x, y, z'
loop_
 _atom_site_type_symbol
 _atom_site_label
 _atom_site_symmetry_multiplicity
 _atom_site_fract_x
 _atom_site_fract_y
 _atom_site_fract_z
 _atom_site_occupancy
  Y  Y0  1  0.00000000  0.00000000  -0.00000000  1
  Fe  Fe0  1  0.25000000  0.75000000  0.50000000  1
  Fe  Fe1  1  0.75000000  0.25000000  0.50000000  1
  B  B0  1  0.65497836  0.65497836  0.30995671  1
  B  B1  1  0.34502164  0.34502164  0.69004329  1
loop_
_geom_bond_atom_site_label_1
_geom_bond_atom_site_label_2
_geom_bond_distance
_geom_bond_site_symmetry_2
Fe0 Y0 2.987883 1_666
Fe0 Y0 2.987884 1_555
Fe0 Y0 2.987884 1_565
Fe0 Y0 2.987884 1_566
Fe1 Y0 2.987883 1_555
Fe1 Y0 2.987884 1_666
Fe1 Y0 2.987884 1_656
Fe1 Y0 2.987884 1_655
B0 Fe0 2.001174 1_655
B0 Fe1 2.001174 1_565
B0 Fe1 2.001174 1_555
B0 Fe0 2.001174 1_555
B0 Y0 2.925423 1_565
B0 Y0 2.925424 1_555
B0 Y0 2.925424 1_655
B0 Y0 2.925424 1_665
B1 Fe1 2.001174 1_455
B1 Fe0 2.001174 1_545
B1 Fe0 2.001174 1_555
B1 Fe1 2.001174 1_555
B1 Y0 2.925423 1_656
B1 Y0 2.925424 1_666
B1 Y0 2.925424 1_566
B1 Y0 2.925424 1_556
