# generated using pymatgen
data_Rb3(SeO4)2
_symmetry_space_group_name_H-M   'P 1'
_cell_length_a   8.43877840
_cell_length_b   8.43877840
_cell_length_c   8.43877827
_cell_angle_alpha   42.98453556
_cell_angle_beta   42.98453556
_cell_angle_gamma   42.98453532
_symmetry_Int_Tables_number   1
_chemical_formula_structural   Rb3(SeO4)2
_chemical_formula_sum   'Rb3 Se2 O8'
_cell_volume   253.19832489
_cell_formula_units_Z   1
loop_
 _symmetry_equiv_pos_site_id
 _symmetry_equiv_pos_as_xyz
  1  'x, y, z'
loop_
 _atom_site_type_symbol
 _atom_site_label
 _atom_site_symmetry_multiplicity
 _atom_site_fract_x
 _atom_site_fract_y
 _atom_site_fract_z
 _atom_site_occupancy
  Rb  Rb0  1  0.00000000  0.00000000  0.00000000  1
  Rb  Rb1  1  0.79635500  0.79635500  0.79635500  1
  Rb  Rb2  1  0.20364500  0.20364500  0.20364500  1
  Se  Se0  1  0.59095100  0.59095100  0.59095100  1
  Se  Se1  1  0.40904900  0.40904900  0.40904900  1
  O  O0  1  0.28394900  0.72935300  0.28394900  1
  O  O1  1  0.28394900  0.28394900  0.72935300  1
  O  O2  1  0.72935300  0.28394900  0.28394900  1
  O  O3  1  0.71605100  0.27064700  0.71605100  1
  O  O4  1  0.71605100  0.71605100  0.27064700  1
  O  O5  1  0.27064700  0.71605100  0.71605100  1
  O  O6  1  0.66400400  0.66400400  0.66400400  1
  O  O7  1  0.33599600  0.33599600  0.33599600  1
loop_
_geom_bond_atom_site_label_1
_geom_bond_atom_site_label_2
_geom_bond_distance
_geom_bond_site_symmetry_2
O0 Se1 1.678041 1_555
O0 Rb0 3.014343 1_565
O0 Rb2 3.110184 1_565
O0 Rb1 3.176454 1_455
O0 Rb1 3.176454 1_554
O1 Se1 1.678041 1_555
O1 Rb0 3.014343 1_556
O1 Rb2 3.110184 1_556
O1 Rb1 3.176454 1_455
O1 Rb1 3.176454 1_545
O2 Se1 1.678041 1_555
O2 Rb0 3.014343 1_655
O2 Rb2 3.110184 1_655
O2 Rb1 3.176454 1_545
O2 Rb1 3.176454 1_554
O3 Se0 1.678041 1_555
O3 Rb0 3.014343 1_656
O3 Rb1 3.110184 1_545
O3 Rb2 3.176454 1_655
O3 Rb2 3.176454 1_556
O4 Se0 1.678041 1_555
O4 Rb0 3.014343 1_665
O4 Rb1 3.110184 1_554
O4 Rb2 3.176454 1_565
O4 Rb2 3.176454 1_655
O5 Se0 1.678041 1_555
O5 Rb0 3.014343 1_566
O5 Rb1 3.110184 1_455
O5 Rb2 3.176454 1_565
O5 Rb2 3.176454 1_556
O6 Se0 1.675780 1_555
O6 Rb1 3.036032 1_555
O7 Se1 1.675780 1_555
O7 Rb2 3.036032 1_555
