# generated using pymatgen
data_CaMn2O4
_symmetry_space_group_name_H-M   'P 1'
_cell_length_a   6.36047061
_cell_length_b   6.36047061
_cell_length_c   20.88096975
_cell_angle_alpha   79.97862856
_cell_angle_beta   79.97862856
_cell_angle_gamma   58.88995686
_symmetry_Int_Tables_number   1
_chemical_formula_structural   CaMn2O4
_chemical_formula_sum   'Ca8 Mn16 O32'
_cell_volume   708.66941827
_cell_formula_units_Z   8
loop_
 _symmetry_equiv_pos_site_id
 _symmetry_equiv_pos_as_xyz
  1  'x, y, z'
loop_
 _atom_site_type_symbol
 _atom_site_label
 _atom_site_symmetry_multiplicity
 _atom_site_fract_x
 _atom_site_fract_y
 _atom_site_fract_z
 _atom_site_occupancy
  Ca  Ca0  1  0.64575400  0.64575400  0.02529200  1
  Ca  Ca1  1  0.12647200  0.12647200  0.12496100  1
  Ca  Ca2  1  0.89651200  0.89651200  0.28215400  1
  Ca  Ca3  1  0.37421800  0.37421800  0.37476000  1
  Ca  Ca4  1  0.62436000  0.62436000  0.62568200  1
  Ca  Ca5  1  0.50540000  0.50540000  0.49766400  1
  Ca  Ca6  1  0.87527100  0.87527100  0.87650400  1
  Ca  Ca7  1  0.74515000  0.74515000  0.75204700  1
  Mn  Mn0  1  0.62843500  0.12314000  0.12453200  1
  Mn  Mn1  1  0.25389900  0.25389900  0.24960200  1
  Mn  Mn2  1  0.12314000  0.62843500  0.12453200  1
  Mn  Mn3  1  0.14669700  0.14669700  0.53682700  1
  Mn  Mn4  1  0.88177900  0.37013700  0.37309200  1
  Mn  Mn5  1  0.60583500  0.60583500  0.22114300  1
  Mn  Mn6  1  0.39252000  0.39252000  0.78289800  1
  Mn  Mn7  1  0.37013700  0.88177900  0.37309200  1
  Mn  Mn8  1  0.12451100  0.62485200  0.62490200  1
  Mn  Mn9  1  0.85590200  0.85590200  0.46735000  1
  Mn  Mn10  1  0.62485200  0.12451100  0.62490200  1
  Mn  Mn11  1  0.87702500  0.36808900  0.87540200  1
  Mn  Mn12  1  0.36808900  0.87702500  0.87540200  1
  Mn  Mn13  1  0.10334900  0.10334900  0.71393200  1
  Mn  Mn14  1  0.99785500  0.99785500  0.00261800  1
  Mn  Mn15  1  0.35376200  0.35376200  0.97082500  1
  O  O0  1  0.25156900  0.81549300  0.06293800  1
  O  O1  1  0.92073900  0.92073900  0.17308800  1
  O  O2  1  0.81549300  0.25156900  0.06293800  1
  O  O3  1  0.83114500  0.83114500  0.05504500  1
  O  O4  1  0.43149400  0.43149400  0.19405700  1
  O  O5  1  0.49848900  0.06744300  0.31086800  1
  O  O6  1  0.44154900  0.98610900  0.18914000  1
  O  O7  1  0.17323900  0.17323900  0.43047900  1
  O  O8  1  0.06744300  0.49848900  0.31086800  1
  O  O9  1  0.33170000  0.33170000  0.07476000  1
  O  O10  1  0.08586400  0.08586400  0.31350600  1
  O  O11  1  0.98610900  0.44154900  0.18914000  1
  O  O12  1  0.78718800  0.28912500  0.56989000  1
  O  O13  1  0.69471600  0.69471600  0.42172900  1
  O  O14  1  0.71693500  0.20840600  0.42542700  1
  O  O15  1  0.42134400  0.42134400  0.67998000  1
  O  O16  1  0.28912500  0.78718800  0.56989000  1
  O  O17  1  0.57962500  0.57962500  0.32100000  1
  O  O18  1  0.31893900  0.31893900  0.57110200  1
  O  O19  1  0.20840600  0.71693500  0.42542700  1
  O  O20  1  0.93147700  0.93147700  0.67825000  1
  O  O21  1  0.04592100  0.53122400  0.82292500  1
  O  O22  1  0.96221800  0.46244900  0.67971900  1
  O  O23  1  0.66929100  0.66929100  0.91919000  1
  O  O24  1  0.53122400  0.04592100  0.82292500  1
  O  O25  1  0.82662100  0.82662100  0.56972600  1
  O  O26  1  0.54811100  0.54811100  0.81904700  1
  O  O27  1  0.46244900  0.96221800  0.67971900  1
  O  O28  1  0.16931100  0.16931100  0.94954300  1
  O  O29  1  0.18764900  0.73704400  0.94213200  1
  O  O30  1  0.07659300  0.07659300  0.82330500  1
  O  O31  1  0.73704400  0.18764900  0.94213200  1
loop_
_geom_bond_atom_site_label_1
_geom_bond_atom_site_label_2
_geom_bond_distance
_geom_bond_site_symmetry_2
Ca0 O23 2.178443 1_554
Ca0 O0 2.209495 1_555
Ca0 O2 2.209495 1_555
Ca0 O3 2.261339 1_555
Ca1 O0 2.264801 1_545
Ca1 O2 2.264801 1_455
Ca1 O11 2.297516 1_455
Ca1 O6 2.297516 1_545
Ca1 O1 2.299713 1_445
Ca1 O9 2.305434 1_555
Ca2 O8 2.192019 1_655
Ca2 O5 2.192019 1_565
Ca2 O1 2.239268 1_555
Ca2 O10 2.318900 1_665
Ca3 O14 2.240968 1_555
Ca3 O19 2.240968 1_555
Ca3 O5 2.270947 1_555
Ca3 O8 2.270947 1_555
Ca3 O7 2.296792 1_555
Ca3 O17 2.327436 1_555
Ca4 O22 2.259254 1_555
Ca4 O27 2.259254 1_555
Ca4 O16 2.266923 1_555
Ca4 O12 2.266923 1_555
Ca4 O15 2.307434 1_555
Ca4 O25 2.310670 1_555
Ca5 O16 2.247245 1_555
Ca5 O12 2.247245 1_555
Ca5 O14 2.304954 1_555
Ca5 O19 2.304954 1_555
Ca5 O18 2.313476 1_555
Ca5 O13 2.362916 1_555
Ca6 O23 2.277768 1_555
Ca6 O24 2.278908 1_565
Ca6 O21 2.278908 1_655
Ca6 O30 2.284216 1_665
Ca6 O29 2.306888 1_655
Ca6 O31 2.306888 1_565
Ca7 O22 2.252637 1_555
Ca7 O27 2.252637 1_555
Ca7 O24 2.301350 1_565
Ca7 O21 2.301350 1_655
Ca7 O20 2.315991 1_555
Ca7 O26 2.345470 1_555
Mn0 O2 1.960387 1_555
Mn0 O1 1.967319 1_545
Mn0 O9 2.004407 1_555
Mn0 O6 2.023833 1_545
Mn0 O3 2.242595 1_545
Mn0 O4 2.311403 1_555
Mn1 O8 1.929085 1_555
Mn1 O5 1.929085 1_555
Mn1 O11 2.010673 1_455
Mn1 O6 2.010673 1_545
Mn1 O10 2.062248 1_555
Mn1 O4 2.074551 1_555
Mn2 O0 1.960387 1_555
Mn2 O1 1.967319 1_455
Mn2 O9 2.004407 1_555
Mn2 O11 2.023833 1_455
Mn2 O3 2.242595 1_455
Mn2 O4 2.311403 1_555
Mn3 O16 2.013377 1_545
Mn3 O12 2.013377 1_455
Mn3 O18 2.167638 1_555
Mn3 O7 2.181006 1_555
Mn4 O14 1.917362 1_555
Mn4 O8 1.960171 1_655
Mn4 O17 2.056447 1_555
Mn4 O7 2.071882 1_655
Mn4 O10 2.073116 1_655
Mn4 O13 2.116598 1_555
Mn5 O17 2.046958 1_555
Mn5 O11 2.111261 1_555
Mn5 O6 2.111261 1_555
Mn5 O4 2.118107 1_555
Mn6 O24 1.985554 1_555
Mn6 O21 1.985554 1_555
Mn6 O26 2.015072 1_555
Mn6 O15 2.108562 1_555
Mn7 O19 1.917362 1_555
Mn7 O5 1.960171 1_565
Mn7 O17 2.056447 1_555
Mn7 O7 2.071882 1_565
Mn7 O10 2.073116 1_565
Mn7 O13 2.116598 1_555
Mn8 O22 1.929221 1_455
Mn8 O16 1.941053 1_555
Mn8 O15 2.067589 1_555
Mn8 O25 2.072866 1_455
Mn8 O20 2.087494 1_455
Mn8 O18 2.089978 1_555
Mn9 O19 2.028020 1_655
Mn9 O14 2.028020 1_565
Mn9 O25 2.097116 1_555
Mn9 O13 2.185305 1_555
Mn10 O27 1.929221 1_545
Mn10 O12 1.941053 1_555
Mn10 O15 2.067589 1_555
Mn10 O25 2.072866 1_545
Mn10 O20 2.087494 1_545
Mn10 O18 2.089978 1_555
Mn11 O21 1.943672 1_655
Mn11 O23 1.955879 1_555
Mn11 O30 2.005379 1_655
Mn11 O31 2.029538 1_555
Mn11 O26 2.232701 1_555
Mn11 O28 2.311483 1_655
Mn12 O24 1.943672 1_565
Mn12 O23 1.955879 1_555
Mn12 O30 2.005379 1_565
Mn12 O29 2.029538 1_555
Mn12 O26 2.232701 1_555
Mn12 O28 2.311483 1_565
Mn13 O22 2.017328 1_455
Mn13 O27 2.017328 1_545
Mn13 O20 2.178791 1_445
Mn13 O30 2.243463 1_555
Mn14 O2 1.949534 1_565
Mn14 O0 1.949534 1_655
Mn14 O3 1.949617 1_555
Mn14 O29 1.983310 1_654
Mn14 O31 1.983310 1_564
Mn14 O28 1.998623 1_664
Mn15 O31 2.113932 1_555
Mn15 O29 2.113932 1_555
Mn15 O9 2.134899 1_556
Mn15 O28 2.176112 1_555
