# generated using pymatgen
data_KPbN
_symmetry_space_group_name_H-M   'P 1'
_cell_length_a   12.78042200
_cell_length_b   3.58218300
_cell_length_c   6.77484100
_cell_angle_alpha   90.00000000
_cell_angle_beta   90.00000000
_cell_angle_gamma   90.00000000
_symmetry_Int_Tables_number   1
_chemical_formula_structural   KPbN
_chemical_formula_sum   'K4 Pb4 N4'
_cell_volume   310.16448630
_cell_formula_units_Z   4
loop_
 _symmetry_equiv_pos_site_id
 _symmetry_equiv_pos_as_xyz
  1  'x, y, z'
loop_
 _atom_site_type_symbol
 _atom_site_label
 _atom_site_symmetry_multiplicity
 _atom_site_fract_x
 _atom_site_fract_y
 _atom_site_fract_z
 _atom_site_occupancy
  K  K0  1  0.62149900  0.25000000  0.00278400  1
  K  K1  1  0.12149900  0.25000000  0.49721600  1
  K  K2  1  0.37850100  0.75000000  0.99721600  1
  K  K3  1  0.87850100  0.75000000  0.50278400  1
  Pb  Pb0  1  0.60909500  0.25000000  0.51688800  1
  Pb  Pb1  1  0.10909500  0.25000000  0.98311200  1
  Pb  Pb2  1  0.39090500  0.75000000  0.48311200  1
  Pb  Pb3  1  0.89090500  0.75000000  0.01688800  1
  N  N0  1  0.96316000  0.25000000  0.19459600  1
  N  N1  1  0.46316000  0.25000000  0.30540400  1
  N  N2  1  0.03684000  0.75000000  0.80540400  1
  N  N3  1  0.53684000  0.75000000  0.69459600  1
loop_
_geom_bond_atom_site_label_1
_geom_bond_atom_site_label_2
_geom_bond_distance
_geom_bond_site_symmetry_2
K0 N1 2.880702 1_555
K0 N3 2.956030 1_554
K0 N3 2.956030 1_544
K1 N0 2.880702 1_455
K1 N2 2.956030 1_555
K1 N2 2.956030 1_545
K2 N3 2.880702 1_555
K2 N1 2.956030 1_566
K2 N1 2.956030 1_556
K3 N2 2.880702 1_655
K3 N0 2.956030 1_565
K3 N0 2.956030 1_555
N0 Pb3 2.347392 1_555
N0 Pb3 2.347392 1_545
N0 Pb1 2.351908 1_654
N1 Pb2 2.347392 1_545
N1 Pb2 2.347392 1_555
N1 Pb0 2.351908 1_555
N2 Pb1 2.347392 1_555
N2 Pb1 2.347392 1_565
N2 Pb3 2.351908 1_456
N3 Pb0 2.347392 1_565
N3 Pb0 2.347392 1_555
N3 Pb2 2.351908 1_555
