# generated using pymatgen
data_NbNi11(BO5)4
_symmetry_space_group_name_H-M   'P 1'
_cell_length_a   6.12837901
_cell_length_b   6.12837901
_cell_length_c   21.82545839
_cell_angle_alpha   79.95856272
_cell_angle_beta   79.95856272
_cell_angle_gamma   60.67012689
_symmetry_Int_Tables_number   1
_chemical_formula_structural   NbNi11(BO5)4
_chemical_formula_sum   'Nb2 Ni22 B8 O40'
_cell_volume   699.89088433
_cell_formula_units_Z   2
loop_
 _symmetry_equiv_pos_site_id
 _symmetry_equiv_pos_as_xyz
  1  'x, y, z'
loop_
 _atom_site_type_symbol
 _atom_site_label
 _atom_site_symmetry_multiplicity
 _atom_site_fract_x
 _atom_site_fract_y
 _atom_site_fract_z
 _atom_site_occupancy
  Nb  Nb0  1  0.72026500  0.27973500  0.75000000  1
  Nb  Nb1  1  0.27973500  0.72026500  0.25000000  1
  Ni  Ni0  1  0.57569500  0.20653800  0.60895300  1
  Ni  Ni1  1  0.42430500  0.79346200  0.39104700  1
  Ni  Ni2  1  0.79346200  0.42430500  0.89104700  1
  Ni  Ni3  1  0.20653800  0.57569500  0.10895300  1
  Ni  Ni4  1  0.68107300  0.81722000  0.74964900  1
  Ni  Ni5  1  0.31892700  0.18278000  0.25035100  1
  Ni  Ni6  1  0.18278000  0.31892700  0.75035100  1
  Ni  Ni7  1  0.81722000  0.68107300  0.24964900  1
  Ni  Ni8  1  0.79685300  0.91736600  0.89335400  1
  Ni  Ni9  1  0.20314700  0.08263400  0.10664600  1
  Ni  Ni10  1  0.08263400  0.20314700  0.60664600  1
  Ni  Ni11  1  0.91736600  0.79685300  0.39335400  1
  Ni  Ni12  1  0.49645200  0.75183400  0.99931900  1
  Ni  Ni13  1  0.50354800  0.24816600  0.00068100  1
  Ni  Ni14  1  0.24816600  0.50354800  0.50068100  1
  Ni  Ni15  1  0.75183400  0.49645200  0.49931900  1
  Ni  Ni16  1  0.19292200  0.80707800  0.75000000  1
  Ni  Ni17  1  0.80707800  0.19292200  0.25000000  1
  Ni  Ni18  1  0.50000000  0.00000000  0.50000000  1
  Ni  Ni19  1  0.00000000  0.50000000  0.00000000  1
  Ni  Ni20  1  0.00000000  0.00000000  0.50000000  1
  Ni  Ni21  1  0.00000000  0.00000000  0.00000000  1
  B  B0  1  0.30406100  0.93188600  0.86798500  1
  B  B1  1  0.69593900  0.06811400  0.13201500  1
  B  B2  1  0.06811400  0.69593900  0.63201500  1
  B  B3  1  0.93188600  0.30406100  0.36798500  1
  B  B4  1  0.56930800  0.69380900  0.63005100  1
  B  B5  1  0.43069200  0.30619100  0.36994900  1
  B  B6  1  0.30619100  0.43069200  0.86994900  1
  B  B7  1  0.69380900  0.56930800  0.13005100  1
  O  O0  1  0.46858500  0.93423700  0.60024200  1
  O  O1  1  0.53141500  0.06576300  0.39975800  1
  O  O2  1  0.06576300  0.53141500  0.89975800  1
  O  O3  1  0.93423700  0.46858500  0.10024200  1
  O  O4  1  0.51580700  0.80584200  0.90015300  1
  O  O5  1  0.48419300  0.19415800  0.09984700  1
  O  O6  1  0.19415800  0.48419300  0.59984700  1
  O  O7  1  0.80584200  0.51580700  0.40015300  1
  O  O8  1  0.83347600  0.96195700  0.80025200  1
  O  O9  1  0.16652400  0.03804300  0.19974800  1
  O  O10  1  0.03804300  0.16652400  0.69974800  1
  O  O11  1  0.96195700  0.83347600  0.30025200  1
  O  O12  1  0.93519300  0.96683600  0.10025300  1
  O  O13  1  0.06480700  0.03316400  0.89974700  1
  O  O14  1  0.03316400  0.06480700  0.39974700  1
  O  O15  1  0.96683600  0.93519300  0.60025300  1
  O  O16  1  0.33332300  0.95800200  0.80199400  1
  O  O17  1  0.66667700  0.04199800  0.19800600  1
  O  O18  1  0.04199800  0.66667700  0.69800600  1
  O  O19  1  0.95800200  0.33332300  0.30199400  1
  O  O20  1  0.54366600  0.65884400  0.69651200  1
  O  O21  1  0.45633400  0.34115600  0.30348800  1
  O  O22  1  0.34115600  0.45633400  0.80348800  1
  O  O23  1  0.65884400  0.54366600  0.19651200  1
  O  O24  1  0.61452900  0.24345500  0.51424600  1
  O  O25  1  0.38547100  0.75654500  0.48575400  1
  O  O26  1  0.75654500  0.38547100  0.98575400  1
  O  O27  1  0.24345500  0.61452900  0.01424600  1
  O  O28  1  0.51793600  0.30235000  0.90151600  1
  O  O29  1  0.48206400  0.69765000  0.09848400  1
  O  O30  1  0.69765000  0.48206400  0.59848400  1
  O  O31  1  0.30235000  0.51793600  0.40151600  1
  O  O32  1  0.53616300  0.18439800  0.70336100  1
  O  O33  1  0.46383700  0.81560200  0.29663900  1
  O  O34  1  0.81560200  0.46383700  0.79663900  1
  O  O35  1  0.18439800  0.53616300  0.20336100  1
  O  O36  1  0.75733100  0.87666800  0.98682900  1
  O  O37  1  0.24266900  0.12333200  0.01317100  1
  O  O38  1  0.12333200  0.24266900  0.51317100  1
  O  O39  1  0.87666800  0.75733100  0.48682900  1
loop_
_geom_bond_atom_site_label_1
_geom_bond_atom_site_label_2
_geom_bond_distance
_geom_bond_site_symmetry_2
Nb0 O8 1.916693 1_545
Nb0 O10 1.916693 1_655
Nb0 O32 1.975889 1_555
Nb0 O34 1.975889 1_555
Nb0 O22 2.227864 1_555
Nb0 O20 2.227864 1_555
Nb1 O11 1.916693 1_455
Nb1 O9 1.916693 1_565
Nb1 O35 1.975889 1_555
Nb1 O33 1.975889 1_555
Nb1 O21 2.227864 1_555
Nb1 O23 2.227864 1_555
Ni0 O32 2.020739 1_555
Ni0 O24 2.024484 1_555
Ni0 O0 2.116384 1_545
Ni0 O30 2.122301 1_555
Ni0 O6 2.132701 1_555
Ni0 O15 2.143252 1_545
Ni1 O33 2.020739 1_555
Ni1 O25 2.024484 1_555
Ni1 O1 2.116384 1_565
Ni1 O31 2.122301 1_555
Ni1 O7 2.132701 1_555
Ni1 O14 2.143252 1_565
Ni2 O34 2.020739 1_555
Ni2 O26 2.024484 1_555
Ni2 O2 2.116384 1_655
Ni2 O28 2.122301 1_555
Ni2 O4 2.132701 1_555
Ni2 O13 2.143252 1_655
Ni3 O35 2.020739 1_555
Ni3 O27 2.024484 1_555
Ni3 O3 2.116384 1_455
Ni3 O29 2.122301 1_555
Ni3 O5 2.132701 1_555
Ni3 O12 2.143252 1_455
Ni4 O34 2.047626 1_555
Ni4 O16 2.069955 1_555
Ni4 O8 2.095665 1_555
Ni4 O32 2.105971 1_565
Ni4 O18 2.123226 1_655
Ni4 O20 2.128363 1_555
Ni5 O35 2.047626 1_555
Ni5 O17 2.069955 1_555
Ni5 O9 2.095665 1_555
Ni5 O33 2.105971 1_545
Ni5 O19 2.123226 1_455
Ni5 O21 2.128363 1_555
Ni6 O32 2.047626 1_555
Ni6 O18 2.069955 1_555
Ni6 O10 2.095665 1_555
Ni6 O34 2.105971 1_455
Ni6 O16 2.123226 1_545
Ni6 O22 2.128363 1_555
Ni7 O33 2.047626 1_555
Ni7 O19 2.069955 1_555
Ni7 O11 2.095665 1_555
Ni7 O35 2.105971 1_655
Ni7 O17 2.123226 1_565
Ni7 O23 2.128363 1_555
Ni8 O8 1.990341 1_555
Ni8 O36 1.998111 1_555
Ni8 O13 2.115592 1_665
Ni8 O2 2.115698 1_655
Ni8 O4 2.117639 1_555
Ni8 O28 2.146958 1_565
Ni9 O9 1.990341 1_555
Ni9 O37 1.998111 1_555
Ni9 O12 2.115592 1_445
Ni9 O3 2.115698 1_455
Ni9 O5 2.117639 1_555
Ni9 O29 2.146958 1_545
Ni10 O10 1.990341 1_555
Ni10 O38 1.998111 1_555
Ni10 O15 2.115592 1_445
Ni10 O0 2.115698 1_545
Ni10 O6 2.117639 1_555
Ni10 O30 2.146958 1_455
Ni11 O11 1.990341 1_555
Ni11 O39 1.998111 1_555
Ni11 O14 2.115592 1_665
Ni11 O1 2.115698 1_565
Ni11 O7 2.117639 1_555
Ni11 O31 2.146958 1_655
Ni12 O36 2.046746 1_555
Ni12 O27 2.055360 1_556
Ni12 O26 2.056824 1_555
Ni12 O37 2.073818 1_566
Ni12 O4 2.123000 1_555
Ni12 O29 2.124580 1_556
Ni13 O37 2.046746 1_555
Ni13 O26 2.055360 1_554
Ni13 O27 2.056824 1_555
Ni13 O36 2.073818 1_544
Ni13 O5 2.123000 1_555
Ni13 O28 2.124580 1_554
Ni14 O38 2.046746 1_555
Ni14 O25 2.055360 1_555
Ni14 O24 2.056824 1_555
Ni14 O39 2.073818 1_455
Ni14 O6 2.123000 1_555
Ni14 O31 2.124580 1_555
Ni15 O39 2.046746 1_555
Ni15 O24 2.055360 1_555
Ni15 O25 2.056824 1_555
Ni15 O38 2.073818 1_655
Ni15 O7 2.123000 1_555
Ni15 O30 2.124580 1_555
Ni16 O18 2.090391 1_555
Ni16 O16 2.090391 1_555
Ni16 O20 2.095275 1_555
Ni16 O22 2.095275 1_555
Ni16 O8 2.104381 1_455
Ni16 O10 2.104381 1_565
Ni17 O17 2.090391 1_555
Ni17 O19 2.090391 1_555
Ni17 O21 2.095275 1_555
Ni17 O23 2.095275 1_555
Ni17 O11 2.104381 1_545
Ni17 O9 2.104381 1_655
Ni18 O24 2.019678 1_555
Ni18 O25 2.019678 1_545
Ni18 O38 2.043864 1_555
Ni18 O39 2.043864 1_545
Ni18 O0 2.146562 1_545
Ni18 O1 2.146562 1_555
Ni19 O27 2.019678 1_555
Ni19 O26 2.019678 1_454
Ni19 O37 2.043864 1_555
Ni19 O36 2.043864 1_454
Ni19 O3 2.146562 1_455
Ni19 O2 2.146562 1_554
Ni20 O38 2.047343 1_555
Ni20 O39 2.047343 1_445
Ni20 O24 2.087092 1_455
Ni20 O25 2.087092 1_545
Ni20 O15 2.146542 1_445
Ni20 O14 2.146542 1_555
Ni21 O37 2.047343 1_555
Ni21 O36 2.047343 1_444
Ni21 O27 2.087092 1_545
Ni21 O26 2.087092 1_454
Ni21 O12 2.146542 1_445
Ni21 O13 2.146542 1_554
B0 O13 1.385526 1_565
B0 O4 1.385677 1_555
B0 O16 1.410622 1_555
B1 O12 1.385526 1_545
B1 O5 1.385677 1_555
B1 O17 1.410622 1_555
B2 O15 1.385526 1_455
B2 O6 1.385677 1_555
B2 O18 1.410622 1_555
B3 O14 1.385526 1_655
B3 O7 1.385677 1_555
B3 O19 1.410622 1_555
B4 O0 1.374787 1_555
B4 O30 1.378444 1_555
B4 O20 1.421194 1_555
B5 O1 1.374787 1_555
B5 O31 1.378444 1_555
B5 O21 1.421194 1_555
B6 O2 1.374787 1_555
B6 O28 1.378444 1_555
B6 O22 1.421194 1_555
B7 O3 1.374787 1_555
B7 O29 1.378444 1_555
B7 O23 1.421194 1_555
