# generated using pymatgen
data_Sm2Cr2O5
_symmetry_space_group_name_H-M   'P 1'
_cell_length_a   8.80048114
_cell_length_b   8.80048114
_cell_length_c   8.80048114
_cell_angle_alpha   143.90092007
_cell_angle_beta   142.26164098
_cell_angle_gamma   53.21504708
_symmetry_Int_Tables_number   1
_chemical_formula_structural   Sm2Cr2O5
_chemical_formula_sum   'Sm4 Cr4 O10'
_cell_volume   244.25915086
_cell_formula_units_Z   2
loop_
 _symmetry_equiv_pos_site_id
 _symmetry_equiv_pos_as_xyz
  1  'x, y, z'
loop_
 _atom_site_type_symbol
 _atom_site_label
 _atom_site_symmetry_multiplicity
 _atom_site_fract_x
 _atom_site_fract_y
 _atom_site_fract_z
 _atom_site_occupancy
  Sm  Sm0  1  0.88896500  0.37457700  0.50069200  1
  Sm  Sm1  1  0.11103500  0.61172700  0.48561200  1
  Sm  Sm2  1  0.37388500  0.87457700  0.48561200  1
  Sm  Sm3  1  0.62611500  0.11172700  0.50069200  1
  Cr  Cr0  1  0.00000000  0.01213900  0.01213900  1
  Cr  Cr1  1  0.50000000  0.51213900  0.01213900  1
  Cr  Cr2  1  0.74510700  0.73770900  0.98281600  1
  Cr  Cr3  1  0.25489300  0.23770900  0.99260200  1
  O  O0  1  0.28783400  0.28496600  0.51351200  1
  O  O1  1  0.71216600  0.22567800  0.99713200  1
  O  O2  1  0.27145400  0.78496600  0.99713200  1
  O  O3  1  0.72854600  0.72567800  0.51351200  1
  O  O4  1  0.96968700  0.92115100  0.13898300  1
  O  O5  1  0.03031300  0.16929600  0.95146400  1
  O  O6  1  0.28216800  0.42115100  0.95146400  1
  O  O7  1  0.71783200  0.66929600  0.13898300  1
  O  O8  1  0.63883400  0.32675700  0.46559000  1
  O  O9  1  0.36116600  0.82675700  0.68792300  1
loop_
_geom_bond_atom_site_label_1
_geom_bond_atom_site_label_2
_geom_bond_distance
_geom_bond_site_symmetry_2
Cr0 O2 2.018360 1_544
Cr0 O3 2.018360 1_444
Cr0 O5 2.032175 1_554
Cr0 O4 2.032175 1_445
Cr0 O1 2.033817 1_454
Cr0 O0 2.033817 1_555
Cr1 O0 2.018360 1_554
Cr1 O1 2.018360 1_554
Cr1 O7 2.032175 1_555
Cr1 O6 2.032175 1_554
Cr1 O2 2.033817 1_554
Cr1 O3 2.033817 1_555
Cr2 O4 2.083487 1_556
Cr2 O7 2.083487 1_556
Cr2 O9 2.238810 1_555
Cr2 O8 2.321326 1_555
Cr3 O5 2.083487 1_555
Cr3 O6 2.083487 1_555
Cr3 O8 2.238806 1_556
Cr3 O9 2.321323 1_545
O0 Sm1 2.434916 1_555
O0 Sm3 2.453034 1_555
O1 Sm0 2.434916 1_556
O1 Sm2 2.453034 1_545
O2 Sm3 2.434916 1_566
O2 Sm1 2.453034 1_555
O3 Sm2 2.434916 1_555
O3 Sm0 2.453034 1_555
O4 Sm2 2.288855 1_655
O4 Sm0 2.493081 1_565
O5 Sm3 2.288855 1_455
O5 Sm1 2.493081 1_556
O6 Sm0 2.288855 1_455
O6 Sm2 2.493081 1_556
O7 Sm1 2.288855 1_655
O7 Sm3 2.493081 1_565
O8 Sm0 2.223060 1_555
O8 Sm3 2.223075 1_555
O9 Sm2 2.223067 1_555
O9 Sm1 2.223067 1_555
