# generated using pymatgen
data_CsHfMg14O15
_symmetry_space_group_name_H-M   'P 1'
_cell_length_a   9.05683367
_cell_length_b   8.97704788
_cell_length_c   4.32907217
_cell_angle_alpha   90.00000000
_cell_angle_beta   90.00000000
_cell_angle_gamma   90.00000000
_symmetry_Int_Tables_number   1
_chemical_formula_structural   CsHfMg14O15
_chemical_formula_sum   'Cs1 Hf1 Mg14 O15'
_cell_volume   351.96927977
_cell_formula_units_Z   1
loop_
 _symmetry_equiv_pos_site_id
 _symmetry_equiv_pos_as_xyz
  1  'x, y, z'
loop_
 _atom_site_type_symbol
 _atom_site_label
 _atom_site_symmetry_multiplicity
 _atom_site_fract_x
 _atom_site_fract_y
 _atom_site_fract_z
 _atom_site_occupancy
  Cs  Cs0  1  0.06442373  -0.00000000  -0.00000000  1
  Hf  Hf0  1  0.50928708  0.50000000  -0.00000000  1
  Mg  Mg0  1  0.98287340  0.50000000  -0.00000000  1
  Mg  Mg1  1  0.50001198  -0.00000000  -0.00000000  1
  Mg  Mg2  1  0.98599157  0.25385100  0.50000000  1
  Mg  Mg3  1  0.98599157  0.74614900  0.50000000  1
  Mg  Mg4  1  0.50781079  0.24353952  0.50000000  1
  Mg  Mg5  1  0.50781079  0.75646048  0.50000000  1
  Mg  Mg6  1  0.29036327  -0.00000000  0.50000000  1
  Mg  Mg7  1  0.23140700  0.50000000  0.50000000  1
  Mg  Mg8  1  0.73966336  -0.00000000  0.50000000  1
  Mg  Mg9  1  0.75790958  0.50000000  0.50000000  1
  Mg  Mg10  1  0.25171783  0.26650395  0.00000000  1
  Mg  Mg11  1  0.25171783  0.73349605  -0.00000000  1
  Mg  Mg12  1  0.75762723  0.23530718  0.00000000  1
  Mg  Mg13  1  0.75762723  0.76469282  -0.00000000  1
  O  O0  1  0.26344813  0.50000000  -0.00000000  1
  O  O1  1  0.72072380  -0.00000000  -0.00000000  1
  O  O2  1  0.74320877  0.50000000  -0.00000000  1
  O  O3  1  0.24747260  0.25660357  0.50000000  1
  O  O4  1  0.24747260  0.74339643  0.50000000  1
  O  O5  1  0.74351227  0.25806250  0.50000000  1
  O  O6  1  0.74351227  0.74193750  0.50000000  1
  O  O7  1  0.95075785  -0.00000000  0.50000000  1
  O  O8  1  0.99502545  0.50000000  0.50000000  1
  O  O9  1  0.51283475  -0.00000000  0.50000000  1
  O  O10  1  0.50585595  0.50000000  0.50000000  1
  O  O11  1  0.98862850  0.28197911  0.00000000  1
  O  O12  1  0.98862850  0.71802089  -0.00000000  1
  O  O13  1  0.50834216  0.26604223  -0.00000000  1
  O  O14  1  0.50834216  0.73395777  -0.00000000  1
loop_
_geom_bond_atom_site_label_1
_geom_bond_atom_site_label_2
_geom_bond_distance
_geom_bond_site_symmetry_2
Cs0 O7 2.396871 1_455
Cs0 O7 2.396871 1_454
Cs0 O12 2.622769 1_445
Cs0 O11 2.622769 1_455
Hf0 O13 2.100268 1_555
Hf0 O14 2.100268 1_555
Hf0 O2 2.118590 1_555
Hf0 O10 2.164759 1_555
Hf0 O10 2.164759 1_554
Hf0 O0 2.226522 1_555
Mg0 O11 1.957878 1_555
Mg0 O12 1.957878 1_555
Mg0 O8 2.167332 1_554
Mg0 O8 2.167332 1_555
Mg0 O2 2.170603 1_555
Mg0 O0 2.541119 1_655
Mg1 O1 1.998950 1_555
Mg1 O9 2.167649 1_554
Mg1 O9 2.167649 1_555
Mg1 O14 2.389465 1_545
Mg1 O13 2.389465 1_555
Mg2 O11 2.179345 1_556
Mg2 O11 2.179345 1_555
Mg2 O5 2.196420 1_555
Mg2 O8 2.211206 1_555
Mg2 O7 2.301066 1_555
Mg2 O3 2.368319 1_655
Mg3 O12 2.179345 1_555
Mg3 O12 2.179345 1_556
Mg3 O6 2.196420 1_555
Mg3 O8 2.211206 1_555
Mg3 O7 2.301066 1_565
Mg3 O4 2.368319 1_655
Mg4 O5 2.138687 1_555
Mg4 O13 2.173947 1_555
Mg4 O13 2.173947 1_556
Mg4 O9 2.186739 1_555
Mg4 O10 2.302326 1_555
Mg4 O3 2.360754 1_555
Mg5 O6 2.138687 1_555
Mg5 O14 2.173947 1_556
Mg5 O14 2.173947 1_555
Mg5 O9 2.186739 1_565
Mg5 O10 2.302326 1_555
Mg5 O4 2.360754 1_555
Mg6 O9 2.014887 1_555
Mg6 O3 2.336066 1_555
Mg6 O4 2.336066 1_545
Mg7 O8 2.140868 1_455
Mg7 O0 2.183902 1_555
Mg7 O0 2.183902 1_556
Mg7 O3 2.189821 1_555
Mg7 O4 2.189821 1_555
Mg7 O10 2.485638 1_555
Mg8 O7 1.911848 1_555
Mg8 O9 2.054349 1_555
Mg8 O1 2.171322 1_555
Mg8 O1 2.171322 1_556
Mg8 O5 2.316902 1_555
Mg8 O6 2.316902 1_545
Mg9 O8 2.147519 1_555
Mg9 O2 2.168627 1_556
Mg9 O2 2.168627 1_555
Mg9 O6 2.175795 1_555
Mg9 O5 2.175795 1_555
Mg9 O10 2.282808 1_555
Mg10 O0 2.098796 1_555
Mg10 O3 2.166701 1_554
Mg10 O3 2.166701 1_555
Mg10 O13 2.324208 1_555
Mg10 O11 2.386803 1_455
Mg11 O0 2.098796 1_555
Mg11 O4 2.166701 1_555
Mg11 O4 2.166701 1_554
Mg11 O14 2.324208 1_555
Mg11 O12 2.386803 1_455
Mg12 O11 2.133680 1_555
Mg12 O1 2.138642 1_555
Mg12 O5 2.177909 1_555
Mg12 O5 2.177909 1_554
Mg12 O13 2.274530 1_555
Mg12 O2 2.379746 1_555
Mg13 O12 2.133680 1_555
Mg13 O1 2.138642 1_565
Mg13 O6 2.177909 1_555
Mg13 O6 2.177909 1_554
Mg13 O14 2.274530 1_555
Mg13 O2 2.379746 1_555
