# generated using pymatgen
data_Rb3Na(MoO4)2
_symmetry_space_group_name_H-M   'P 1'
_cell_length_a   6.29070322
_cell_length_b   6.29072971
_cell_length_c   8.00757601
_cell_angle_alpha   89.99979327
_cell_angle_beta   89.99628799
_cell_angle_gamma   120.00037292
_symmetry_Int_Tables_number   1
_chemical_formula_structural   Rb3Na(MoO4)2
_chemical_formula_sum   'Rb3 Na1 Mo2 O8'
_cell_volume   274.42918123
_cell_formula_units_Z   1
loop_
 _symmetry_equiv_pos_site_id
 _symmetry_equiv_pos_as_xyz
  1  'x, y, z'
loop_
 _atom_site_type_symbol
 _atom_site_label
 _atom_site_symmetry_multiplicity
 _atom_site_fract_x
 _atom_site_fract_y
 _atom_site_fract_z
 _atom_site_occupancy
  Rb  Rb0  1  0.66661900  0.33331000  0.33185800  1
  Rb  Rb1  1  0.33338100  0.66669000  0.66814200  1
  Rb  Rb2  1  0.00000000  0.00000000  0.00000000  1
  Na  Na0  1  0.00000000  0.00000000  0.50000000  1
  Mo  Mo0  1  0.33334100  0.66666900  0.22541100  1
  Mo  Mo1  1  0.66665900  0.33333100  0.77458900  1
  O  O0  1  0.17838100  0.82155100  0.30586600  1
  O  O1  1  0.17848000  0.35683000  0.30586600  1
  O  O2  1  0.64320900  0.82165300  0.30588300  1
  O  O3  1  0.82161900  0.17844900  0.69413400  1
  O  O4  1  0.82152000  0.64317000  0.69413400  1
  O  O5  1  0.35679100  0.17834700  0.69411700  1
  O  O6  1  0.33339200  0.66669600  0.00273800  1
  O  O7  1  0.66660800  0.33330400  0.99726200  1
loop_
_geom_bond_atom_site_label_1
_geom_bond_atom_site_label_2
_geom_bond_distance
_geom_bond_site_symmetry_2
Na0 O5 2.488943 1_555
Na0 O2 2.488943 1_445
Na0 O4 2.489057 1_445
Na0 O1 2.489057 1_555
Na0 O3 2.489070 1_455
Na0 O0 2.489070 1_545
Mo0 O6 1.783071 1_555
Mo0 O1 1.806717 1_555
Mo0 O0 1.806742 1_555
Mo0 O2 1.806978 1_555
Mo1 O7 1.783071 1_555
Mo1 O4 1.806717 1_555
Mo1 O3 1.806742 1_555
Mo1 O5 1.806978 1_555
O0 Rb2 3.127014 1_565
O0 Rb0 3.154817 1_455
O0 Rb0 3.154828 1_565
O0 Rb1 3.356420 1_555
O1 Rb2 3.127019 1_555
O1 Rb0 3.154214 1_555
O1 Rb0 3.155452 1_455
O1 Rb1 3.356424 1_555
O2 Rb2 3.126808 1_665
O2 Rb0 3.154513 1_565
O2 Rb0 3.155115 1_555
O2 Rb1 3.356042 1_555
O3 Rb2 3.127014 1_656
O3 Rb1 3.154817 1_655
O3 Rb1 3.154828 1_545
O3 Rb0 3.356420 1_555
O4 Rb2 3.127019 1_666
O4 Rb1 3.154214 1_555
O4 Rb1 3.155452 1_655
O4 Rb0 3.356424 1_555
O5 Rb2 3.126808 1_556
O5 Rb1 3.154513 1_545
O5 Rb1 3.155115 1_555
O5 Rb0 3.356042 1_555
O6 Rb1 2.679303 1_554
O7 Rb0 2.679303 1_556
