# generated using pymatgen
data_Tb7Co6Sn23
_symmetry_space_group_name_H-M   'P 1'
_cell_length_a   10.11686603
_cell_length_b   10.11686603
_cell_length_c   10.93467100
_cell_angle_alpha   90.00000000
_cell_angle_beta   90.00000000
_cell_angle_gamma   120.00000021
_symmetry_Int_Tables_number   1
_chemical_formula_structural   Tb7Co6Sn23
_chemical_formula_sum   'Tb7 Co6 Sn23'
_cell_volume   969.23335084
_cell_formula_units_Z   1
loop_
 _symmetry_equiv_pos_site_id
 _symmetry_equiv_pos_as_xyz
  1  'x, y, z'
loop_
 _atom_site_type_symbol
 _atom_site_label
 _atom_site_symmetry_multiplicity
 _atom_site_fract_x
 _atom_site_fract_y
 _atom_site_fract_z
 _atom_site_occupancy
  Tb  Tb0  1  0.00000000  0.00000000  0.00000000  1
  Tb  Tb1  1  0.95199000  0.47599500  0.70909500  1
  Tb  Tb2  1  0.52400500  0.04801000  0.70909500  1
  Tb  Tb3  1  0.52400500  0.47599500  0.70909500  1
  Tb  Tb4  1  0.04801000  0.52400500  0.29090500  1
  Tb  Tb5  1  0.47599500  0.95199000  0.29090500  1
  Tb  Tb6  1  0.47599500  0.52400500  0.29090500  1
  Co  Co0  1  0.38798500  0.19399200  0.85117600  1
  Co  Co1  1  0.80600800  0.61201500  0.85117600  1
  Co  Co2  1  0.80600800  0.19399200  0.85117600  1
  Co  Co3  1  0.61201500  0.80600800  0.14882400  1
  Co  Co4  1  0.19399200  0.38798500  0.14882400  1
  Co  Co5  1  0.19399200  0.80600800  0.14882400  1
  Sn  Sn0  1  0.66666700  0.33333300  0.20138700  1
  Sn  Sn1  1  0.33333300  0.66666700  0.79861300  1
  Sn  Sn2  1  0.45670400  0.22835200  0.44416300  1
  Sn  Sn3  1  0.77164800  0.54329600  0.44416300  1
  Sn  Sn4  1  0.77164800  0.22835200  0.44416300  1
  Sn  Sn5  1  0.54329600  0.77164800  0.55583700  1
  Sn  Sn6  1  0.22835200  0.45670400  0.55583700  1
  Sn  Sn7  1  0.22835200  0.77164800  0.55583700  1
  Sn  Sn8  1  0.23323400  0.11661700  0.67803100  1
  Sn  Sn9  1  0.88338300  0.76676600  0.67803100  1
  Sn  Sn10  1  0.88338300  0.11661700  0.67803100  1
  Sn  Sn11  1  0.76676600  0.88338300  0.32196900  1
  Sn  Sn12  1  0.11661700  0.23323400  0.32196900  1
  Sn  Sn13  1  0.11661700  0.88338300  0.32196900  1
  Sn  Sn14  1  0.00000000  0.00000000  0.50000000  1
  Sn  Sn15  1  0.34854700  0.00000000  0.00000000  1
  Sn  Sn16  1  0.65145300  0.65145300  0.00000000  1
  Sn  Sn17  1  0.00000000  0.34854700  0.00000000  1
  Sn  Sn18  1  0.34854700  0.34854700  0.00000000  1
  Sn  Sn19  1  0.00000000  0.65145300  0.00000000  1
  Sn  Sn20  1  0.65145300  0.00000000  0.00000000  1
  Sn  Sn21  1  0.66666700  0.33333300  0.89302200  1
  Sn  Sn22  1  0.33333300  0.66666700  0.10697800  1
loop_
_geom_bond_atom_site_label_1
_geom_bond_atom_site_label_2
_geom_bond_distance
_geom_bond_site_symmetry_2
Co0 Sn8 2.328699 1_555
Co0 Sn15 2.424076 1_556
Co0 Sn18 2.424083 1_556
Co0 Sn21 2.484167 1_555
Co0 Tb2 2.919049 1_555
Co0 Tb3 2.919056 1_555
Co1 Sn9 2.328699 1_555
Co1 Sn19 2.424076 1_656
Co1 Sn16 2.424083 1_556
Co1 Sn21 2.484167 1_555
Co1 Tb1 2.919049 1_555
Co1 Tb3 2.919056 1_555
Co2 Sn10 2.328694 1_555
Co2 Sn20 2.424078 1_556
Co2 Sn17 2.424078 1_656
Co2 Sn21 2.484167 1_555
Co2 Tb1 2.919056 1_555
Co2 Tb2 2.919056 1_555
Co3 Sn11 2.328699 1_555
Co3 Sn20 2.424076 1_565
Co3 Sn16 2.424083 1_555
Co3 Sn22 2.484167 1_555
Co3 Tb5 2.919049 1_555
Co3 Tb6 2.919056 1_555
Co4 Sn12 2.328699 1_555
Co4 Sn17 2.424076 1_555
Co4 Sn18 2.424083 1_555
Co4 Sn22 2.484167 1_555
Co4 Tb4 2.919049 1_555
Co4 Tb6 2.919056 1_555
Co5 Sn13 2.328694 1_555
Co5 Sn19 2.424078 1_555
Co5 Sn15 2.424078 1_565
Co5 Sn22 2.484167 1_555
Co5 Tb5 2.919056 1_555
Co5 Tb4 2.919056 1_555
Sn0 Sn4 3.229758 1_555
Sn0 Sn3 3.229763 1_555
Sn0 Sn2 3.229763 1_555
Sn0 Sn21 3.371870 1_554
Sn0 Tb5 3.481558 1_545
Sn0 Tb4 3.481558 1_655
Sn0 Tb6 3.481567 1_555
Sn1 Sn7 3.229758 1_555
Sn1 Sn5 3.229763 1_555
Sn1 Sn6 3.229763 1_555
Sn1 Sn22 3.371870 1_556
Sn1 Tb1 3.481558 1_455
Sn1 Tb2 3.481558 1_565
Sn1 Tb3 3.481567 1_555
Sn2 Sn3 3.186246 1_555
Sn2 Sn4 3.186246 1_555
Sn2 Sn8 3.220729 1_555
Sn2 Tb6 3.348029 1_555
Sn2 Tb5 3.348029 1_545
Sn2 Tb3 3.664276 1_555
Sn2 Tb2 3.664276 1_555
Sn3 Sn4 3.186246 1_555
Sn3 Sn9 3.220729 1_555
Sn3 Tb6 3.348029 1_555
Sn3 Tb4 3.348029 1_655
Sn3 Tb3 3.664276 1_555
Sn3 Tb1 3.664276 1_555
Sn4 Tb4 3.348029 1_655
Sn4 Tb5 3.348029 1_545
Sn4 Tb1 3.664276 1_555
Sn4 Tb2 3.664276 1_555
Sn5 Sn6 3.186246 1_555
Sn5 Sn7 3.186246 1_555
Sn5 Tb3 3.348029 1_555
Sn5 Tb2 3.348029 1_565
Sn5 Tb6 3.664276 1_555
Sn5 Tb5 3.664276 1_555
Sn6 Sn7 3.186246 1_555
Sn6 Tb3 3.348029 1_555
Sn6 Tb1 3.348029 1_455
Sn6 Tb6 3.664276 1_555
Sn6 Tb4 3.664276 1_555
Sn7 Tb2 3.348029 1_565
Sn7 Tb1 3.348029 1_455
Sn7 Tb5 3.664276 1_555
Sn7 Tb4 3.664276 1_555
Sn8 Tb3 3.360428 1_555
Sn8 Tb2 3.360428 1_555
Sn9 Tb3 3.360428 1_555
Sn9 Tb1 3.360428 1_555
Sn10 Sn14 2.822314 1_655
Sn10 Sn4 3.220729 1_555
Sn10 Tb1 3.360428 1_555
Sn10 Tb2 3.360428 1_555
Sn11 Sn14 2.822314 1_665
Sn11 Sn5 3.220729 1_555
Sn11 Tb6 3.360428 1_555
Sn11 Tb5 3.360428 1_555
Sn12 Sn14 2.822314 1_555
Sn12 Sn6 3.220729 1_555
Sn12 Tb6 3.360428 1_555
Sn12 Tb4 3.360428 1_555
Sn13 Sn14 2.822314 1_565
Sn13 Sn7 3.220729 1_555
Sn13 Tb5 3.360428 1_555
Sn13 Tb4 3.360428 1_555
Sn14 Sn9 2.822314 1_445
Sn14 Sn8 2.822314 1_555
Sn15 Tb0 3.526203 1_555
Sn15 Tb2 3.555715 1_554
Sn15 Tb5 3.555715 1_545
Sn16 Tb0 3.526203 1_665
Sn16 Tb6 3.555715 1_555
Sn16 Tb3 3.555715 1_554
Sn17 Tb0 3.526203 1_555
Sn17 Tb4 3.555715 1_555
Sn17 Tb1 3.555715 1_454
Sn18 Tb0 3.526203 1_555
Sn18 Tb6 3.555715 1_555
Sn18 Tb3 3.555715 1_554
Sn19 Tb0 3.526203 1_565
Sn19 Tb1 3.555715 1_454
Sn19 Tb4 3.555715 1_555
Sn20 Tb0 3.526203 1_655
Sn20 Tb5 3.555715 1_545
Sn20 Tb2 3.555715 1_554
Sn21 Tb2 3.208440 1_555
Sn21 Tb1 3.208440 1_555
Sn21 Tb3 3.208446 1_555
Sn22 Tb4 3.208440 1_555
Sn22 Tb5 3.208440 1_555
Sn22 Tb6 3.208446 1_555
