# generated using pymatgen
data_GaAs
_symmetry_space_group_name_H-M   'P 1'
_cell_length_a   12.78616969
_cell_length_b   13.16532651
_cell_length_c   14.29959307
_cell_angle_alpha   85.31146010
_cell_angle_beta   96.71769229
_cell_angle_gamma   88.74108691
_symmetry_Int_Tables_number   1
_chemical_formula_structural   GaAs
_chemical_formula_sum   'Ga50 As50'
_cell_volume   2381.37452948
_cell_formula_units_Z   50
loop_
 _symmetry_equiv_pos_site_id
 _symmetry_equiv_pos_as_xyz
  1  'x, y, z'
loop_
 _atom_site_type_symbol
 _atom_site_label
 _atom_site_symmetry_multiplicity
 _atom_site_fract_x
 _atom_site_fract_y
 _atom_site_fract_z
 _atom_site_occupancy
  Ga  Ga0  1  0.22722000  0.29601651  0.79647852  1
  Ga  Ga1  1  0.86853328  0.19380583  0.63846918  1
  Ga  Ga2  1  0.77521187  0.46401628  0.71159119  1
  Ga  Ga3  1  0.36258231  0.03310318  0.96980466  1
  Ga  Ga4  1  0.97662960  0.18260243  0.91330356  1
  Ga  Ga5  1  0.11080179  0.93025977  0.15627945  1
  Ga  Ga6  1  0.14425399  0.11548690  0.01848724  1
  Ga  Ga7  1  0.82411185  0.60877276  0.09381605  1
  Ga  Ga8  1  0.50004454  0.58571535  0.90989402  1
  Ga  Ga9  1  0.28272300  0.23996106  0.97614960  1
  Ga  Ga10  1  0.63263982  0.79705654  0.50634778  1
  Ga  Ga11  1  0.33704150  0.22023116  0.67165340  1
  Ga  Ga12  1  0.91576082  0.33944986  0.22480197  1
  Ga  Ga13  1  0.67660853  0.98116848  0.83069178  1
  Ga  Ga14  1  0.61591499  0.80161755  0.87037343  1
  Ga  Ga15  1  0.10150126  0.08861723  0.38394188  1
  Ga  Ga16  1  0.24014604  0.75605077  0.42088172  1
  Ga  Ga17  1  0.13890592  0.35526650  0.47966567  1
  Ga  Ga18  1  0.66012311  0.25168385  0.40642854  1
  Ga  Ga19  1  0.56844154  0.97181799  0.13939523  1
  Ga  Ga20  1  0.35035372  0.56717614  0.56333826  1
  Ga  Ga21  1  0.61580744  0.49725844  0.22536037  1
  Ga  Ga22  1  0.96120066  0.93175028  0.37152729  1
  Ga  Ga23  1  0.33662409  0.88774039  0.75896436  1
  Ga  Ga24  1  0.43697847  0.77814178  0.51012939  1
  Ga  Ga25  1  0.40253741  0.50239736  0.12708050  1
  Ga  Ga26  1  0.78552916  0.91363090  0.45279069  1
  Ga  Ga27  1  0.47500905  0.03826124  0.76109832  1
  Ga  Ga28  1  0.33620139  0.70902337  0.07448299  1
  Ga  Ga29  1  0.12537197  0.20565693  0.61831068  1
  Ga  Ga30  1  0.44611343  0.63709267  0.38241701  1
  Ga  Ga31  1  0.43475871  0.38629330  0.54686304  1
  Ga  Ga32  1  0.84012960  0.71190134  0.76361169  1
  Ga  Ga33  1  0.03429418  0.74390885  0.31900442  1
  Ga  Ga34  1  0.79041825  0.36143932  0.57437033  1
  Ga  Ga35  1  0.41260417  0.09078969  0.15004019  1
  Ga  Ga36  1  0.97097293  0.62472910  0.47480769  1
  Ga  Ga37  1  0.43366212  0.20499506  0.85135324  1
  Ga  Ga38  1  0.57407796  0.21764018  0.99453430  1
  Ga  Ga39  1  0.84207728  0.01769750  0.04910231  1
  Ga  Ga40  1  0.52295615  0.32820569  0.26187694  1
  Ga  Ga41  1  0.75633434  0.26805876  0.05103976  1
  Ga  Ga42  1  0.27478467  0.88347571  0.27879197  1
  Ga  Ga43  1  0.60915862  0.10968434  0.27036176  1
  Ga  Ga44  1  0.60859871  0.11394663  0.52155893  1
  Ga  Ga45  1  0.98473143  0.93858457  0.61052844  1
  Ga  Ga46  1  0.54982982  0.67819784  0.75031027  1
  Ga  Ga47  1  0.77838663  0.67208768  0.48170913  1
  Ga  Ga48  1  0.26097882  0.21121811  0.39926955  1
  Ga  Ga49  1  0.07022525  0.92352044  0.83914911  1
  As  As0  1  0.79104247  0.71539000  0.92878104  1
  As  As1  1  0.78992815  0.24892598  0.88312698  1
  As  As2  1  0.15660741  0.01714542  0.69313176  1
  As  As3  1  0.41262556  0.14620713  0.53890301  1
  As  As4  1  0.59124701  0.97852513  0.41117033  1
  As  As5  1  0.47742646  0.38013010  0.74546479  1
  As  As6  1  0.04657878  0.41998401  0.00898174  1
  As  As7  1  0.29973236  0.52755901  0.30926690  1
  As  As8  1  0.95155387  0.43046671  0.50650786  1
  As  As9  1  0.75926275  0.43390777  0.13460667  1
  As  As10  1  0.18387659  0.68542399  0.91343481  1
  As  As11  1  0.12897203  0.11657594  0.19768317  1
  As  As12  1  0.24007807  0.41673847  0.01692056  1
  As  As13  1  0.44694128  0.27028656  0.10143600  1
  As  As14  1  0.39973601  0.95670786  0.58147544  1
  As  As15  1  0.70129918  0.63656586  0.65660935  1
  As  As16  1  0.01914780  0.61120498  0.16117922  1
  As  As17  1  0.88233809  0.00038828  0.87879491  1
  As  As18  1  0.37264410  0.71916012  0.66599566  1
  As  As19  1  0.03549752  0.73468820  0.76109020  1
  As  As20  1  0.20578048  0.97023489  0.53581842  1
  As  As21  1  0.09756144  0.81165019  0.52701713  1
  As  As22  1  0.29625390  0.46263837  0.73015497  1
  As  As23  1  0.64648588  0.67773868  0.14534989  1
  As  As24  1  0.61805939  0.40982994  0.48447893  1
  As  As25  1  0.85103889  0.23024286  0.37282211  1
  As  As26  1  0.90028124  0.16304847  0.14631401  1
  As  As27  1  0.94156285  0.82657280  0.96801882  1
  As  As28  1  0.19569603  0.93012830  0.99618383  1
  As  As29  1  0.64581211  0.03496852  0.99917210  1
  As  As30  1  0.31025779  0.07004150  0.28441275  1
  As  As31  1  0.02620796  0.61344661  0.98165847  1
  As  As32  1  0.18664804  0.56376280  0.43847960  1
  As  As33  1  0.63500795  0.56849241  0.38720043  1
  As  As34  1  0.80055409  0.89441688  0.64271683  1
  As  As35  1  0.58289245  0.41224326  0.90519993  1
  As  As36  1  0.09080473  0.62965702  0.63657169  1
  As  As37  1  0.51730280  0.73482365  0.00801178  1
  As  As38  1  0.08180736  0.42657759  0.18614892  1
  As  As39  1  0.72967035  0.06391235  0.67197845  1
  As  As40  1  0.37737069  0.35935664  0.36664818  1
  As  As41  1  0.30095628  0.53589975  0.88837697  1
  As  As42  1  0.96687439  0.12118791  0.51064103  1
  As  As43  1  0.98001363  0.45905700  0.67664813  1
  As  As44  1  0.81360102  0.08494339  0.27682382  1
  As  As45  1  0.60806820  0.81490165  0.25059599  1
  As  As46  1  0.02567126  0.27287497  0.75064760  1
  As  As47  1  0.77358681  0.43675224  0.88339279  1
  As  As48  1  0.92887707  0.85978587  0.13707058  1
  As  As49  1  0.42128626  0.76705438  0.23921761  1
loop_
_geom_bond_atom_site_label_1
_geom_bond_atom_site_label_2
_geom_bond_distance
_geom_bond_site_symmetry_2
Ga0 Ga9 2.624809 1_555
Ga0 Ga37 2.870878 1_555
Ga1 Ga34 2.463049 1_555
Ga2 Ga34 2.494534 1_555
Ga3 Ga9 2.899550 1_555
Ga3 Ga37 2.939403 1_555
Ga4 Ga6 2.565534 1_656
Ga6 Ga9 2.530356 1_554
Ga10 Ga24 2.525976 1_555
Ga10 Ga47 2.533266 1_555
Ga10 Ga26 2.655824 1_555
Ga11 Ga37 2.707700 1_555
Ga11 Ga27 3.045115 1_555
Ga13 Ga14 2.544865 1_555
Ga13 Ga27 2.718862 1_565
Ga14 Ga46 2.545334 1_555
Ga15 Ga48 2.628526 1_555
Ga15 Ga22 2.768196 1_445
Ga16 Ga42 2.612420 1_555
Ga16 Ga33 2.869675 1_555
Ga17 Ga29 2.701284 1_555
Ga17 Ga48 2.828524 1_555
Ga18 Ga44 2.500167 1_555
Ga19 Ga35 2.533688 1_565
Ga19 Ga43 2.727973 1_565
Ga20 Ga31 2.632387 1_555
Ga21 Ga40 2.589737 1_555
Ga21 Ga25 2.914688 1_555
Ga22 Ga26 2.653557 1_555
Ga22 Ga33 2.814167 1_655
Ga23 Ga27 2.685152 1_565
Ga25 Ga28 2.846053 1_555
Ga27 Ga37 2.708398 1_555
Ga33 Ga36 2.826199 1_455
Ga36 Ga47 2.541957 1_555
Ga37 Ga38 2.579135 1_555
Ga37 Ga9 2.832337 1_555
Ga38 Ga41 2.497835 1_556
Ga42 Ga5 2.598490 1_555
Ga46 Ga8 2.648547 1_555
As0 As27 2.483308 1_555
As0 Ga14 2.509203 1_555
As0 Ga32 2.517473 1_555
As0 Ga7 2.630067 1_556
As1 As47 2.477378 1_555
As1 Ga4 2.500630 1_555
As1 Ga41 2.519636 1_556
As2 As20 2.525471 1_545
As2 Ga29 2.624121 1_555
As2 Ga45 2.643263 1_445
As2 Ga49 2.697693 1_545
As2 Ga23 2.853972 1_545
As3 Ga11 2.485445 1_555
As3 Ga44 2.576143 1_555
As3 Ga48 2.687181 1_555
As4 Ga44 2.472865 1_565
As4 Ga43 2.577830 1_565
As4 Ga26 2.594751 1_555
As4 Ga10 2.661683 1_555
As5 Ga37 2.757951 1_555
As5 Ga31 2.822640 1_555
As5 Ga11 2.975494 1_555
As7 Ga30 2.565909 1_555
As7 Ga25 3.089942 1_555
As8 Ga34 2.533431 1_555
As8 Ga36 2.583174 1_555
As8 Ga17 2.653115 1_655
As9 Ga12 2.497727 1_555
As9 Ga7 2.511011 1_555
As9 Ga21 2.531958 1_555
As9 Ga41 2.572258 1_555
As10 As31 2.511334 1_555
As10 As41 2.521081 1_555
As10 As19 2.741123 1_555
As10 Ga28 2.878808 1_556
As11 As30 2.535183 1_555
As11 Ga5 2.579063 1_545
As11 Ga6 2.593733 1_555
As11 Ga15 2.723411 1_555
As11 As26 2.968089 1_455
As12 As6 2.462683 1_555
As12 Ga9 2.508808 1_554
As12 As41 2.522440 1_554
As12 Ga25 2.774142 1_555
As13 Ga35 2.471577 1_555
As13 Ga38 2.482899 1_554
As13 Ga40 2.566421 1_555
As13 Ga9 2.655476 1_554
As14 As20 2.488151 1_555
As14 As3 2.532813 1_565
As14 Ga24 2.692731 1_555
As14 Ga23 2.837565 1_555
As14 Ga27 2.931612 1_565
As15 Ga2 2.472170 1_555
As15 Ga32 2.483123 1_555
As15 Ga46 2.554815 1_555
As15 Ga47 2.801964 1_555
As15 Ga10 2.930343 1_555
As16 As38 2.526499 1_555
As16 Ga7 2.567940 1_455
As16 As31 2.576982 1_554
As16 Ga33 2.956405 1_555
As17 Ga39 2.574221 1_556
As17 As27 2.580366 1_545
As17 Ga13 2.662902 1_545
As17 Ga49 2.724415 1_645
As17 Ga4 2.762829 1_555
As18 Ga46 2.465369 1_555
As18 Ga24 2.534039 1_555
As18 Ga20 2.578210 1_555
As18 Ga23 2.736043 1_555
As19 As36 2.497332 1_555
As19 Ga32 2.526573 1_455
As19 Ga49 2.830136 1_555
As20 As21 2.533501 1_555
As20 Ga15 2.757047 1_565
As21 Ga45 2.631233 1_455
As21 Ga16 2.633104 1_555
As21 As36 2.762174 1_555
As21 Ga22 2.980073 1_455
As21 Ga36 3.070140 1_455
As22 As5 2.515146 1_555
As22 As41 2.525928 1_555
As22 Ga0 2.536026 1_555
As22 Ga20 2.820280 1_555
As23 As37 2.468844 1_555
As23 As45 2.519008 1_555
As23 Ga21 2.609630 1_555
As23 Ga7 2.633611 1_555
As24 As33 2.441440 1_555
As24 Ga34 2.461018 1_555
As24 Ga18 2.518123 1_555
As24 Ga31 2.619286 1_555
As25 As44 2.467504 1_555
As25 Ga18 2.556529 1_555
As25 As42 2.626782 1_555
As25 Ga12 2.682656 1_555
As26 As44 2.447204 1_555
As26 Ga41 2.479630 1_555
As26 Ga39 2.530501 1_555
As26 Ga12 2.662072 1_555
As27 As48 2.514480 1_556
As27 Ga49 2.854518 1_655
As27 As31 2.968171 1_655
As28 Ga6 2.568117 1_566
As28 Ga3 2.601017 1_565
As28 Ga49 2.611318 1_555
As28 Ga5 2.645958 1_556
As29 Ga19 2.432722 1_546
As29 Ga39 2.527482 1_556
As29 Ga38 2.547966 1_555
As29 Ga13 2.636216 1_545
As30 Ga35 2.448945 1_555
As30 Ga42 2.513522 1_545
As30 Ga48 2.690488 1_555
As31 As6 2.547951 1_556
As32 As7 2.543723 1_555
As32 Ga20 2.591147 1_555
As32 Ga16 2.636685 1_555
As32 Ga17 2.854390 1_555
As32 Ga36 2.970660 1_455
As33 Ga30 2.551298 1_555
As33 Ga21 2.554900 1_555
As33 Ga47 2.622769 1_555
As34 As39 2.475570 1_565
As34 Ga45 2.523023 1_555
As34 Ga26 2.690783 1_555
As34 Ga32 2.842757 1_555
As34 Ga10 3.099213 1_555
As35 Ga8 2.505563 1_555
As35 As47 2.518417 1_555
As35 As5 2.583958 1_555
As35 Ga38 2.778455 1_555
As36 Ga36 2.627211 1_455
As36 As43 2.738432 1_455
As37 Ga8 2.503536 1_554
As37 Ga14 2.565765 1_554
As37 Ga28 2.622505 1_555
As38 As6 2.529690 1_555
As38 Ga12 2.531149 1_455
As39 Ga44 2.530106 1_555
As39 Ga1 2.550491 1_555
As39 Ga13 2.605058 1_545
As40 As7 2.445047 1_555
As40 Ga48 2.525315 1_555
As40 Ga40 2.568507 1_555
As40 Ga31 2.650198 1_555
As41 Ga8 2.632083 1_555
As42 Ga1 2.570379 1_555
As42 Ga45 2.685129 1_545
As42 Ga15 2.693248 1_655
As42 Ga29 2.713506 1_655
As43 As8 2.478280 1_555
As43 As46 2.614808 1_655
As43 Ga2 2.723068 1_555
As43 Ga34 3.046652 1_555
As44 Ga43 2.617053 1_555
As44 Ga22 2.872547 1_545
As45 As49 2.473631 1_555
As45 Ga19 2.506286 1_555
As46 Ga29 2.603430 1_555
As46 Ga0 2.614470 1_555
As46 Ga4 2.671628 1_455
As46 Ga1 2.702682 1_455
As47 Ga2 2.456160 1_555
As48 Ga39 2.506117 1_565
As48 Ga5 2.516770 1_655
As48 Ga33 3.058229 1_655
As49 Ga42 2.538105 1_555
As49 Ga30 2.544130 1_555
As49 Ga28 2.654702 1_555
