# generated using pymatgen
data_MnTe
_symmetry_space_group_name_H-M   'P 1'
_cell_length_a   5.95141900
_cell_length_b   10.94905600
_cell_length_c   6.44650100
_cell_angle_alpha   90.00000000
_cell_angle_beta   90.00000000
_cell_angle_gamma   90.00000000
_symmetry_Int_Tables_number   1
_chemical_formula_structural   MnTe
_chemical_formula_sum   'Mn8 Te8'
_cell_volume   420.06960512
_cell_formula_units_Z   8
loop_
 _symmetry_equiv_pos_site_id
 _symmetry_equiv_pos_as_xyz
  1  'x, y, z'
loop_
 _atom_site_type_symbol
 _atom_site_label
 _atom_site_symmetry_multiplicity
 _atom_site_fract_x
 _atom_site_fract_y
 _atom_site_fract_z
 _atom_site_occupancy
  Mn  Mn0  1  0.25000000  0.36862900  0.14293600  1
  Mn  Mn1  1  0.75000000  0.13137100  0.64293600  1
  Mn  Mn2  1  0.25000000  0.13137100  0.35706400  1
  Mn  Mn3  1  0.25000000  0.63137100  0.14293600  1
  Mn  Mn4  1  0.25000000  0.86862900  0.35706400  1
  Mn  Mn5  1  0.75000000  0.36862900  0.85706400  1
  Mn  Mn6  1  0.75000000  0.86862900  0.64293600  1
  Mn  Mn7  1  0.75000000  0.63137100  0.85706400  1
  Te  Te0  1  0.25000000  0.84743500  0.93318600  1
  Te  Te1  1  0.25000000  0.34743500  0.56681400  1
  Te  Te2  1  0.75000000  0.84743500  0.06681400  1
  Te  Te3  1  0.75000000  0.15256500  0.06681400  1
  Te  Te4  1  0.25000000  0.65256500  0.56681400  1
  Te  Te5  1  0.75000000  0.34743500  0.43318600  1
  Te  Te6  1  0.75000000  0.65256500  0.43318600  1
  Te  Te7  1  0.25000000  0.15256500  0.93318600  1
loop_
_geom_bond_atom_site_label_1
_geom_bond_atom_site_label_2
_geom_bond_distance
_geom_bond_site_symmetry_2
Mn0 Te7 2.724856 1_554
Mn0 Te1 2.742366 1_555
Mn1 Te5 2.724856 1_555
Mn1 Te3 2.742366 1_556
Mn2 Te1 2.724856 1_555
Mn2 Te7 2.742366 1_554
Mn3 Te0 2.724856 1_554
Mn3 Te4 2.742366 1_555
Mn4 Te4 2.724856 1_555
Mn4 Te0 2.742366 1_554
Mn5 Te3 2.724856 1_556
Mn5 Te5 2.742366 1_555
Mn6 Te6 2.724856 1_555
Mn6 Te2 2.742366 1_556
Mn7 Te2 2.724856 1_556
Mn7 Te6 2.742366 1_555
