# generated using pymatgen
data_Na3Eu2(SiTe3)2
_symmetry_space_group_name_H-M   'P 1'
_cell_length_a   7.79650899
_cell_length_b   7.79650899
_cell_length_c   8.47864646
_cell_angle_alpha   81.21415455
_cell_angle_beta   81.21415455
_cell_angle_gamma   119.99515446
_symmetry_Int_Tables_number   1
_chemical_formula_structural   Na3Eu2(SiTe3)2
_chemical_formula_sum   'Na3 Eu2 Si2 Te6'
_cell_volume   425.01963674
_cell_formula_units_Z   1
loop_
 _symmetry_equiv_pos_site_id
 _symmetry_equiv_pos_as_xyz
  1  'x, y, z'
loop_
 _atom_site_type_symbol
 _atom_site_label
 _atom_site_symmetry_multiplicity
 _atom_site_fract_x
 _atom_site_fract_y
 _atom_site_fract_z
 _atom_site_occupancy
  Na  Na0  1  0.66848100  0.33151900  0.00000000  1
  Na  Na1  1  0.33151900  0.66848100  0.00000000  1
  Na  Na2  1  0.00000000  0.00000000  0.00000000  1
  Eu  Eu0  1  0.83340800  0.16659200  0.50000000  1
  Eu  Eu1  1  0.16659200  0.83340800  0.50000000  1
  Si  Si0  1  0.54836200  0.54836200  0.35267400  1
  Si  Si1  1  0.45163800  0.45163800  0.64732600  1
  Te  Te0  1  0.58077000  0.89891300  0.25591500  1
  Te  Te1  1  0.41923000  0.10108700  0.74408500  1
  Te  Te2  1  0.10108700  0.41923000  0.74408500  1
  Te  Te3  1  0.89891300  0.58077000  0.25591500  1
  Te  Te4  1  0.26249100  0.26249100  0.25810700  1
  Te  Te5  1  0.73750900  0.73750900  0.74189300  1
loop_
_geom_bond_atom_site_label_1
_geom_bond_atom_site_label_2
_geom_bond_distance
_geom_bond_site_symmetry_2
Na0 Te1 3.271131 1_554
Na0 Te3 3.271131 1_555
Na0 Te5 3.304358 1_554
Na0 Te4 3.304358 1_555
Na0 Te2 3.399495 1_654
Na0 Te0 3.399495 1_545
Na1 Te0 3.271131 1_555
Na1 Te2 3.271131 1_554
Na1 Te5 3.304358 1_554
Na1 Te4 3.304358 1_555
Na1 Te1 3.399495 1_564
Na1 Te3 3.399495 1_455
Na2 Te2 3.278409 1_554
Na2 Te3 3.278409 1_445
Na2 Te1 3.278409 1_554
Na2 Te0 3.278409 1_445
Na2 Te5 3.422599 1_444
Na2 Te4 3.422599 1_555
Eu0 Te4 3.300216 1_655
Eu0 Te5 3.300216 1_545
Eu0 Te3 3.310258 1_555
Eu0 Te1 3.310258 1_555
Eu0 Te2 3.312480 1_655
Eu0 Te0 3.312480 1_545
Eu1 Te5 3.300216 1_455
Eu1 Te4 3.300216 1_565
Eu1 Te2 3.310258 1_555
Eu1 Te0 3.310258 1_555
Eu1 Te1 3.312480 1_565
Eu1 Te3 3.312480 1_455
Si0 Si1 2.378862 1_555
Si0 Te4 2.589009 1_555
Si0 Te0 2.601506 1_555
Si0 Te3 2.601506 1_555
Si1 Te5 2.589009 1_555
Si1 Te2 2.601506 1_555
Si1 Te1 2.601506 1_555
