# generated using pymatgen
data_Ca2TbMn3O9
_symmetry_space_group_name_H-M   'P 1'
_cell_length_a   5.36205300
_cell_length_b   7.64914300
_cell_length_c   16.35589900
_cell_angle_alpha   90.00000000
_cell_angle_beta   90.00000000
_cell_angle_gamma   90.00000000
_symmetry_Int_Tables_number   1
_chemical_formula_structural   Ca2TbMn3O9
_chemical_formula_sum   'Ca8 Tb4 Mn12 O36'
_cell_volume   670.83899942
_cell_formula_units_Z   4
loop_
 _symmetry_equiv_pos_site_id
 _symmetry_equiv_pos_as_xyz
  1  'x, y, z'
loop_
 _atom_site_type_symbol
 _atom_site_label
 _atom_site_symmetry_multiplicity
 _atom_site_fract_x
 _atom_site_fract_y
 _atom_site_fract_z
 _atom_site_occupancy
  Ca  Ca0  1  0.50906200  0.75000000  0.48466900  1
  Ca  Ca1  1  0.50907100  0.75000000  0.81854700  1
  Ca  Ca2  1  0.99092900  0.75000000  0.31854700  1
  Ca  Ca3  1  0.99093800  0.75000000  0.98466900  1
  Ca  Ca4  1  0.49092900  0.25000000  0.18145300  1
  Ca  Ca5  1  0.49093800  0.25000000  0.51533100  1
  Ca  Ca6  1  0.00906200  0.25000000  0.01533100  1
  Ca  Ca7  1  0.00907100  0.25000000  0.68145300  1
  Tb  Tb0  1  0.51044400  0.75000000  0.14990400  1
  Tb  Tb1  1  0.98955600  0.75000000  0.64990400  1
  Tb  Tb2  1  0.48955600  0.25000000  0.85009600  1
  Tb  Tb3  1  0.01044400  0.25000000  0.35009600  1
  Mn  Mn0  1  0.00079100  0.00144900  0.16672600  1
  Mn  Mn1  1  0.00000000  0.00000000  0.50000000  1
  Mn  Mn2  1  0.99920900  0.99855100  0.83327400  1
  Mn  Mn3  1  0.50000000  0.50000000  0.00000000  1
  Mn  Mn4  1  0.50079100  0.50144900  0.33327400  1
  Mn  Mn5  1  0.49920900  0.49855100  0.66672600  1
  Mn  Mn6  1  0.00079100  0.49855100  0.16672600  1
  Mn  Mn7  1  0.00000000  0.50000000  0.50000000  1
  Mn  Mn8  1  0.99920900  0.50144900  0.83327400  1
  Mn  Mn9  1  0.50000000  0.00000000  0.00000000  1
  Mn  Mn10  1  0.50079100  0.99855100  0.33327400  1
  Mn  Mn11  1  0.49920900  0.00144900  0.66672600  1
  O  O0  1  0.78788700  0.95198000  0.07143000  1
  O  O1  1  0.79669600  0.96337800  0.40128900  1
  O  O2  1  0.79670600  0.95448800  0.73462700  1
  O  O3  1  0.70329400  0.54551200  0.23462700  1
  O  O4  1  0.71211300  0.54802000  0.57143000  1
  O  O5  1  0.70330400  0.53662200  0.90128900  1
  O  O6  1  0.20329400  0.45448800  0.26537300  1
  O  O7  1  0.20330400  0.46337800  0.59871100  1
  O  O8  1  0.21211300  0.45198000  0.92857000  1
  O  O9  1  0.29669600  0.03662200  0.09871100  1
  O  O10  1  0.28788700  0.04802000  0.42857000  1
  O  O11  1  0.29670600  0.04551200  0.76537300  1
  O  O12  1  0.20329400  0.04551200  0.26537300  1
  O  O13  1  0.20330400  0.03662200  0.59871100  1
  O  O14  1  0.21211300  0.04802000  0.92857000  1
  O  O15  1  0.29669600  0.46337800  0.09871100  1
  O  O16  1  0.28788700  0.45198000  0.42857000  1
  O  O17  1  0.29670600  0.45448800  0.76537300  1
  O  O18  1  0.78788700  0.54802000  0.07143000  1
  O  O19  1  0.79669600  0.53662200  0.40128900  1
  O  O20  1  0.79670600  0.54551200  0.73462700  1
  O  O21  1  0.70329400  0.95448800  0.23462700  1
  O  O22  1  0.71211300  0.95198000  0.57143000  1
  O  O23  1  0.70330400  0.96337800  0.90128900  1
  O  O24  1  0.42083800  0.75000000  0.00857800  1
  O  O25  1  0.42150500  0.75000000  0.33870300  1
  O  O26  1  0.41223600  0.75000000  0.67303000  1
  O  O27  1  0.08776400  0.75000000  0.17303000  1
  O  O28  1  0.07916200  0.75000000  0.50857800  1
  O  O29  1  0.07849500  0.75000000  0.83870300  1
  O  O30  1  0.58776400  0.25000000  0.32697000  1
  O  O31  1  0.57849500  0.25000000  0.66129700  1
  O  O32  1  0.57916200  0.25000000  0.99142200  1
  O  O33  1  0.92150500  0.25000000  0.16129700  1
  O  O34  1  0.92083800  0.25000000  0.49142200  1
  O  O35  1  0.91223600  0.25000000  0.82697000  1
loop_
_geom_bond_atom_site_label_1
_geom_bond_atom_site_label_2
_geom_bond_distance
_geom_bond_site_symmetry_2
Ca0 O28 2.338081 1_555
Ca0 O22 2.363489 1_555
Ca0 O4 2.363489 1_555
Ca0 O25 2.433130 1_555
Ca0 O1 2.627258 1_555
Ca0 O19 2.627258 1_555
Ca0 O10 2.728543 1_565
Ca0 O16 2.728543 1_555
Ca1 O29 2.332189 1_555
Ca1 O5 2.362226 1_555
Ca1 O23 2.362226 1_555
Ca1 O26 2.436041 1_555
Ca1 O2 2.590235 1_555
Ca1 O20 2.590235 1_555
Ca1 O17 2.676290 1_555
Ca1 O11 2.676290 1_565
Ca2 O25 2.332189 1_655
Ca2 O19 2.362226 1_555
Ca2 O1 2.362226 1_555
Ca2 O27 2.436041 1_655
Ca2 O3 2.590235 1_555
Ca2 O21 2.590235 1_555
Ca2 O12 2.676290 1_665
Ca2 O6 2.676290 1_655
Ca3 O24 2.338081 1_656
Ca3 O18 2.363489 1_556
Ca3 O0 2.363489 1_556
Ca3 O29 2.433130 1_655
Ca3 O23 2.627258 1_555
Ca3 O5 2.627258 1_555
Ca3 O14 2.728543 1_665
Ca3 O8 2.728543 1_655
Ca4 O33 2.332189 1_555
Ca4 O9 2.362226 1_555
Ca4 O15 2.362226 1_555
Ca4 O30 2.436041 1_555
Ca4 O12 2.590235 1_555
Ca4 O6 2.590235 1_555
Ca4 O3 2.676290 1_555
Ca4 O21 2.676290 1_545
Ca5 O34 2.338081 1_555
Ca5 O16 2.363489 1_555
Ca5 O10 2.363489 1_555
Ca5 O31 2.433130 1_555
Ca5 O13 2.627258 1_555
Ca5 O7 2.627258 1_555
Ca5 O4 2.728543 1_555
Ca5 O22 2.728543 1_545
Ca6 O32 2.338081 1_454
Ca6 O8 2.363489 1_554
Ca6 O14 2.363489 1_554
Ca6 O33 2.433130 1_455
Ca6 O9 2.627258 1_555
Ca6 O15 2.627258 1_555
Ca6 O0 2.728543 1_445
Ca6 O18 2.728543 1_455
Ca7 O31 2.332189 1_455
Ca7 O13 2.362226 1_555
Ca7 O7 2.362226 1_555
Ca7 O35 2.436041 1_455
Ca7 O17 2.590235 1_555
Ca7 O11 2.590235 1_555
Ca7 O2 2.676290 1_445
Ca7 O20 2.676290 1_455
Mn0 O33 1.950178 1_455
Mn0 O9 1.956376 1_555
Mn0 O0 1.968714 1_445
Mn0 O12 1.973799 1_555
Mn0 O21 1.976631 1_445
Mn0 O27 1.981784 1_545
Mn1 O34 1.963847 1_455
Mn1 O28 1.963847 1_545
Mn1 O13 1.968116 1_555
Mn1 O1 1.968116 1_445
Mn1 O10 1.970469 1_555
Mn1 O22 1.970469 1_445
Mn2 O29 1.950178 1_655
Mn2 O23 1.956376 1_555
Mn2 O14 1.968714 1_665
Mn2 O2 1.973799 1_555
Mn2 O11 1.976631 1_665
Mn2 O35 1.981784 1_565
Mn3 O32 1.963847 1_554
Mn3 O24 1.963847 1_555
Mn3 O15 1.968116 1_555
Mn3 O5 1.968116 1_554
Mn3 O18 1.970469 1_555
Mn3 O8 1.970469 1_554
Mn4 O25 1.950178 1_555
Mn4 O19 1.956376 1_555
Mn4 O16 1.968714 1_555
Mn4 O3 1.973799 1_555
Mn4 O6 1.976631 1_555
Mn4 O30 1.981784 1_555
Mn5 O31 1.950178 1_555
Mn5 O7 1.956376 1_555
Mn5 O4 1.968714 1_555
Mn5 O17 1.973799 1_555
Mn5 O20 1.976631 1_555
Mn5 O26 1.981784 1_555
Mn6 O33 1.950178 1_455
Mn6 O15 1.956376 1_555
Mn6 O18 1.968714 1_455
Mn6 O6 1.973799 1_555
Mn6 O3 1.976631 1_455
Mn6 O27 1.981784 1_555
Mn7 O34 1.963847 1_455
Mn7 O28 1.963847 1_555
Mn7 O7 1.968116 1_555
Mn7 O19 1.968116 1_455
Mn7 O4 1.970469 1_455
Mn7 O16 1.970469 1_555
Mn8 O29 1.950178 1_655
Mn8 O5 1.956376 1_555
Mn8 O8 1.968714 1_655
Mn8 O20 1.973799 1_555
Mn8 O17 1.976631 1_655
Mn8 O35 1.981784 1_555
Mn9 O32 1.963847 1_554
Mn9 O24 1.963847 1_545
Mn9 O9 1.968116 1_555
Mn9 O23 1.968116 1_544
Mn9 O0 1.970469 1_545
Mn9 O14 1.970469 1_554
Mn10 O25 1.950178 1_555
Mn10 O1 1.956376 1_555
Mn10 O10 1.968714 1_565
Mn10 O21 1.973799 1_555
Mn10 O12 1.976631 1_565
Mn10 O30 1.981784 1_565
Mn11 O31 1.950178 1_555
Mn11 O13 1.956376 1_555
Mn11 O22 1.968714 1_545
Mn11 O11 1.973799 1_555
Mn11 O2 1.976631 1_545
Mn11 O26 1.981784 1_545
O0 Tb0 2.499499 1_555
O1 Tb3 2.611775 1_665
O2 Tb1 2.331548 1_555
O3 Tb0 2.331548 1_555
O4 Tb1 2.499499 1_555
O5 Tb2 2.611775 1_555
O6 Tb3 2.331548 1_555
O7 Tb1 2.611775 1_455
O8 Tb2 2.499499 1_555
O9 Tb0 2.611775 1_545
O10 Tb3 2.499499 1_555
O11 Tb2 2.331548 1_555
O12 Tb3 2.331548 1_555
O13 Tb1 2.611775 1_445
O14 Tb2 2.499499 1_555
O15 Tb0 2.611775 1_555
O16 Tb3 2.499499 1_555
O17 Tb2 2.331548 1_555
O18 Tb0 2.499499 1_555
O19 Tb3 2.611775 1_655
O20 Tb1 2.331548 1_555
O21 Tb0 2.331548 1_555
O22 Tb1 2.499499 1_555
O23 Tb2 2.611775 1_565
O24 Tb0 2.360921 1_555
O26 Tb1 2.297779 1_455
O27 Tb0 2.297779 1_555
O28 Tb1 2.360921 1_455
O30 Tb3 2.297779 1_655
O32 Tb2 2.360921 1_555
O34 Tb3 2.360921 1_655
O35 Tb2 2.297779 1_555
