# generated using pymatgen
data_YbIn5Rh
_symmetry_space_group_name_H-M   'P 1'
_cell_length_a   4.62019261
_cell_length_b   4.62019261
_cell_length_c   7.36626696
_cell_angle_alpha   90.00000000
_cell_angle_beta   90.00000000
_cell_angle_gamma   90.00000000
_symmetry_Int_Tables_number   1
_chemical_formula_structural   YbIn5Rh
_chemical_formula_sum   'Yb1 In5 Rh1'
_cell_volume   157.24165853
_cell_formula_units_Z   1
loop_
 _symmetry_equiv_pos_site_id
 _symmetry_equiv_pos_as_xyz
  1  'x, y, z'
loop_
 _atom_site_type_symbol
 _atom_site_label
 _atom_site_symmetry_multiplicity
 _atom_site_fract_x
 _atom_site_fract_y
 _atom_site_fract_z
 _atom_site_occupancy
  Yb  Yb0  1  0.00000000  0.00000000  0.00000000  1
  In  In0  1  0.50000000  0.50000000  0.00000000  1
  In  In1  1  0.50000000  0.00000000  0.29846789  1
  In  In2  1  0.00000000  0.50000000  0.29846789  1
  In  In3  1  0.50000000  0.00000000  0.70153211  1
  In  In4  1  0.00000000  0.50000000  0.70153211  1
  Rh  Rh0  1  0.00000000  0.00000000  0.50000000  1
loop_
_geom_bond_atom_site_label_1
_geom_bond_atom_site_label_2
_geom_bond_distance
_geom_bond_site_symmetry_2
In0 In2 3.189100 1_655
In0 In1 3.189100 1_555
In0 In2 3.189100 1_555
In0 In1 3.189100 1_565
In0 In4 3.189100 1_654
In0 In4 3.189100 1_554
In0 In3 3.189100 1_564
In0 In3 3.189100 1_554
In0 Yb0 3.266970 1_665
In0 Yb0 3.266970 1_555
In0 Yb0 3.266970 1_655
In0 Yb0 3.266970 1_565
In1 Rh0 2.745979 1_655
In1 Rh0 2.745979 1_555
In1 In3 2.969079 1_555
In1 Yb0 3.189100 1_655
In1 Yb0 3.189100 1_555
In1 In2 3.266970 1_555
In1 In2 3.266970 1_645
In1 In2 3.266970 1_545
In1 In2 3.266970 1_655
In2 Rh0 2.745979 1_565
In2 Rh0 2.745979 1_555
In2 In4 2.969079 1_555
In2 Yb0 3.189100 1_565
In2 Yb0 3.189100 1_555
In3 Rh0 2.745979 1_655
In3 Rh0 2.745979 1_555
In3 Yb0 3.189100 1_556
In3 Yb0 3.189100 1_656
In3 In4 3.266970 1_545
In3 In4 3.266970 1_655
In3 In4 3.266970 1_645
In3 In4 3.266970 1_555
In4 Rh0 2.745979 1_565
In4 Rh0 2.745979 1_555
In4 Yb0 3.189100 1_556
In4 Yb0 3.189100 1_566
