# generated using pymatgen
data_KSrLaWO6
_symmetry_space_group_name_H-M   'P 1'
_cell_length_a   8.56716346
_cell_length_b   8.54390922
_cell_length_c   8.54777440
_cell_angle_alpha   90.00000000
_cell_angle_beta   90.00000000
_cell_angle_gamma   90.00000000
_symmetry_Int_Tables_number   1
_chemical_formula_structural   KSrLaWO6
_chemical_formula_sum   'K4 Sr4 La4 W4 O24'
_cell_volume   625.67201439
_cell_formula_units_Z   4
loop_
 _symmetry_equiv_pos_site_id
 _symmetry_equiv_pos_as_xyz
  1  'x, y, z'
loop_
 _atom_site_type_symbol
 _atom_site_label
 _atom_site_symmetry_multiplicity
 _atom_site_fract_x
 _atom_site_fract_y
 _atom_site_fract_z
 _atom_site_occupancy
  K  K0  1  0.00000000  0.50000000  0.50000000  1
  K  K1  1  0.50000000  -0.00000000  0.50000000  1
  K  K2  1  0.50000000  0.00000000  -0.00000000  1
  K  K3  1  0.00000000  0.50000000  -0.00000000  1
  Sr  Sr0  1  0.50000000  0.50000000  -0.00000000  1
  Sr  Sr1  1  0.00000000  -0.00000000  0.50000000  1
  Sr  Sr2  1  0.00000000  0.00000000  -0.00000000  1
  Sr  Sr3  1  0.50000000  0.50000000  0.50000000  1
  La  La0  1  0.75000000  0.75000000  0.75000000  1
  La  La1  1  0.25000000  0.25000000  0.75000000  1
  La  La2  1  0.25000000  0.75000000  0.25000000  1
  La  La3  1  0.75000000  0.25000000  0.25000000  1
  W  W0  1  0.25000000  0.25000000  0.25000000  1
  W  W1  1  0.75000000  0.75000000  0.25000000  1
  W  W2  1  0.75000000  0.25000000  0.75000000  1
  W  W3  1  0.25000000  0.75000000  0.75000000  1
  O  O0  1  0.02461243  0.20656952  0.27833081  1
  O  O1  1  0.97538757  0.79343048  0.27833081  1
  O  O2  1  0.97538757  0.20656952  0.72166919  1
  O  O3  1  0.02461243  0.79343048  0.72166919  1
  O  O4  1  0.27059927  0.02571053  0.21651576  1
  O  O5  1  0.27059927  0.97428947  0.78348424  1
  O  O6  1  0.72940073  0.97428947  0.21651576  1
  O  O7  1  0.72940073  0.02571053  0.78348424  1
  O  O8  1  0.21818008  0.27561368  0.02553046  1
  O  O9  1  0.78181992  0.27561368  0.97446954  1
  O  O10  1  0.21818008  0.72438632  0.97446954  1
  O  O11  1  0.78181992  0.72438632  0.02553046  1
  O  O12  1  0.47538757  0.29343048  0.22166919  1
  O  O13  1  0.52461243  0.70656952  0.22166919  1
  O  O14  1  0.52461243  0.29343048  0.77833081  1
  O  O15  1  0.47538757  0.70656952  0.77833081  1
  O  O16  1  0.22940073  0.47428947  0.28348424  1
  O  O17  1  0.22940073  0.52571053  0.71651576  1
  O  O18  1  0.77059927  0.52571053  0.28348424  1
  O  O19  1  0.77059927  0.47428947  0.71651576  1
  O  O20  1  0.28181992  0.22438632  0.47446954  1
  O  O21  1  0.71818008  0.22438632  0.52553046  1
  O  O22  1  0.28181992  0.77561368  0.52553046  1
  O  O23  1  0.71818008  0.77561368  0.47446954  1
loop_
_geom_bond_atom_site_label_1
_geom_bond_atom_site_label_2
_geom_bond_distance
_geom_bond_site_symmetry_2
K0 O19 2.708488 1_455
K0 O16 2.708488 1_555
K0 O17 2.708488 1_555
K0 O18 2.708488 1_455
K0 O2 3.149589 1_455
K0 O0 3.149589 1_555
K0 O1 3.149589 1_455
K0 O3 3.149589 1_555
K1 O20 2.686426 1_555
K1 O21 2.686426 1_555
K1 O22 2.686426 1_545
K1 O23 2.686426 1_545
K1 O4 3.127685 1_555
K1 O5 3.127685 1_545
K1 O7 3.127685 1_555
K1 O6 3.127685 1_545
K2 O7 2.708488 1_554
K2 O5 2.708488 1_544
K2 O4 2.708488 1_555
K2 O6 2.708488 1_545
K2 O14 3.149589 1_554
K2 O12 3.149589 1_555
K2 O15 3.149589 1_544
K2 O13 3.149589 1_545
K3 O9 2.686426 1_454
K3 O8 2.686426 1_555
K3 O10 2.686426 1_554
K3 O11 2.686426 1_455
K3 O16 3.127685 1_555
K3 O19 3.127685 1_454
K3 O17 3.127685 1_554
K3 O18 3.127685 1_455
La0 O19 2.379523 1_555
La0 O7 2.379523 1_565
La0 O11 2.380975 1_556
La0 O23 2.380975 1_555
La0 O3 2.394012 1_655
La0 O15 2.394012 1_555
La1 O5 2.379523 1_545
La1 O17 2.379523 1_555
La1 O8 2.380975 1_556
La1 O20 2.380975 1_555
La1 O14 2.394012 1_555
La1 O2 2.394012 1_455
La2 O16 2.379523 1_555
La2 O4 2.379523 1_565
La2 O22 2.380975 1_555
La2 O10 2.380975 1_554
La2 O1 2.394012 1_455
La2 O13 2.394012 1_555
La3 O18 2.379523 1_555
La3 O6 2.379523 1_545
La3 O21 2.380975 1_555
La3 O9 2.380975 1_554
La3 O0 2.394012 1_655
La3 O12 2.394012 1_555
O0 W0 1.981119 1_555
O0 Sr1 2.597991 1_555
O0 Sr2 2.969770 1_555
O1 W1 1.981119 1_555
O1 Sr1 2.597991 1_665
O1 Sr2 2.969770 1_665
O2 W2 1.981119 1_555
O2 Sr1 2.597991 1_655
O2 Sr2 2.969770 1_656
O3 W3 1.981119 1_555
O3 Sr1 2.597991 1_565
O3 Sr2 2.969770 1_566
O4 W0 1.945586 1_555
O4 Sr2 2.974528 1_555
O5 W3 1.945586 1_555
O5 Sr2 2.974528 1_566
O6 W1 1.945586 1_555
O6 Sr2 2.974528 1_665
O7 W2 1.945586 1_555
O7 Sr2 2.974528 1_656
O8 W0 1.950301 1_555
O8 Sr2 3.014406 1_555
O8 Sr0 3.090688 1_555
O9 W2 1.950301 1_555
O9 Sr2 3.014406 1_656
O9 Sr0 3.090688 1_556
O10 W3 1.950301 1_555
O10 Sr2 3.014406 1_566
O10 Sr0 3.090688 1_556
O11 W1 1.950301 1_555
O11 Sr2 3.014406 1_665
O11 Sr0 3.090688 1_555
O12 W0 1.981119 1_555
O12 Sr0 2.597991 1_555
O12 Sr3 2.969770 1_555
O13 W1 1.981119 1_555
O13 Sr0 2.597991 1_555
O13 Sr3 2.969770 1_555
O14 W2 1.981119 1_555
O14 Sr0 2.597991 1_556
O14 Sr3 2.969770 1_555
O15 W3 1.981119 1_555
O15 Sr0 2.597991 1_556
O15 Sr3 2.969770 1_555
O16 W0 1.945586 1_555
O16 Sr3 2.974528 1_555
O17 W3 1.945586 1_555
O17 Sr3 2.974528 1_555
O18 W1 1.945586 1_555
O18 Sr3 2.974528 1_555
O19 W2 1.945586 1_555
O19 Sr3 2.974528 1_555
O20 W0 1.950301 1_555
O20 Sr3 3.014406 1_555
O20 Sr1 3.090688 1_555
O21 W2 1.950301 1_555
O21 Sr3 3.014406 1_555
O21 Sr1 3.090688 1_655
O22 W3 1.950301 1_555
O22 Sr3 3.014406 1_555
O22 Sr1 3.090688 1_565
O23 W1 1.950301 1_555
O23 Sr3 3.014406 1_555
O23 Sr1 3.090688 1_665
