# generated using pymatgen
data_Nb6CdS8
_symmetry_space_group_name_H-M   'P 1'
_cell_length_a   19.42292881
_cell_length_b   19.42292881
_cell_length_c   6.76067600
_cell_angle_alpha   90.00000000
_cell_angle_beta   90.00000000
_cell_angle_gamma   120.00000276
_symmetry_Int_Tables_number   1
_chemical_formula_structural   Nb6CdS8
_chemical_formula_sum   'Nb48 Cd8 S64'
_cell_volume   2208.76839597
_cell_formula_units_Z   8
loop_
 _symmetry_equiv_pos_site_id
 _symmetry_equiv_pos_as_xyz
  1  'x, y, z'
loop_
 _atom_site_type_symbol
 _atom_site_label
 _atom_site_symmetry_multiplicity
 _atom_site_fract_x
 _atom_site_fract_y
 _atom_site_fract_z
 _atom_site_occupancy
  Nb  Nb0_0  1  0.05686700  0.31372500  0.12494650  1
  Nb  Nb0_1  1  0.05686700  0.31372500  0.62494650  1
  Nb  Nb0_2  1  0.05686700  0.81372500  0.12494650  1
  Nb  Nb0_3  1  0.05686700  0.81372500  0.62494650  1
  Nb  Nb0_4  1  0.55686700  0.31372500  0.12494650  1
  Nb  Nb0_5  1  0.55686700  0.31372500  0.62494650  1
  Nb  Nb0_6  1  0.55686700  0.81372500  0.12494650  1
  Nb  Nb0_7  1  0.55686700  0.81372500  0.62494650  1
  Nb  Nb1_0  1  0.25685800  0.44313300  0.12494650  1
  Nb  Nb1_1  1  0.25685800  0.44313300  0.62494650  1
  Nb  Nb1_2  1  0.25685800  0.94313300  0.12494650  1
  Nb  Nb1_3  1  0.25685800  0.94313300  0.62494650  1
  Nb  Nb1_4  1  0.75685800  0.44313300  0.12494650  1
  Nb  Nb1_5  1  0.75685800  0.44313300  0.62494650  1
  Nb  Nb1_6  1  0.75685800  0.94313300  0.12494650  1
  Nb  Nb1_7  1  0.75685800  0.94313300  0.62494650  1
  Nb  Nb2_0  1  0.18627500  0.24314200  0.12494650  1
  Nb  Nb2_1  1  0.18627500  0.24314200  0.62494650  1
  Nb  Nb2_2  1  0.18627500  0.74314200  0.12494650  1
  Nb  Nb2_3  1  0.18627500  0.74314200  0.62494650  1
  Nb  Nb2_4  1  0.68627500  0.24314200  0.12494650  1
  Nb  Nb2_5  1  0.68627500  0.24314200  0.62494650  1
  Nb  Nb2_6  1  0.68627500  0.74314200  0.12494650  1
  Nb  Nb2_7  1  0.68627500  0.74314200  0.62494650  1
  Nb  Nb3_0  1  0.44313300  0.18627500  0.37505350  1
  Nb  Nb3_1  1  0.44313300  0.18627500  0.87505350  1
  Nb  Nb3_2  1  0.44313300  0.68627500  0.37505350  1
  Nb  Nb3_3  1  0.44313300  0.68627500  0.87505350  1
  Nb  Nb3_4  1  0.94313300  0.18627500  0.37505350  1
  Nb  Nb3_5  1  0.94313300  0.18627500  0.87505350  1
  Nb  Nb3_6  1  0.94313300  0.68627500  0.37505350  1
  Nb  Nb3_7  1  0.94313300  0.68627500  0.87505350  1
  Nb  Nb4_0  1  0.24314200  0.05686700  0.37505350  1
  Nb  Nb4_1  1  0.24314200  0.05686700  0.87505350  1
  Nb  Nb4_2  1  0.24314200  0.55686700  0.37505350  1
  Nb  Nb4_3  1  0.24314200  0.55686700  0.87505350  1
  Nb  Nb4_4  1  0.74314200  0.05686700  0.37505350  1
  Nb  Nb4_5  1  0.74314200  0.05686700  0.87505350  1
  Nb  Nb4_6  1  0.74314200  0.55686700  0.37505350  1
  Nb  Nb4_7  1  0.74314200  0.55686700  0.87505350  1
  Nb  Nb5_0  1  0.31372500  0.25685800  0.37505350  1
  Nb  Nb5_1  1  0.31372500  0.25685800  0.87505350  1
  Nb  Nb5_2  1  0.31372500  0.75685800  0.37505350  1
  Nb  Nb5_3  1  0.31372500  0.75685800  0.87505350  1
  Nb  Nb5_4  1  0.81372500  0.25685800  0.37505350  1
  Nb  Nb5_5  1  0.81372500  0.25685800  0.87505350  1
  Nb  Nb5_6  1  0.81372500  0.75685800  0.37505350  1
  Nb  Nb5_7  1  0.81372500  0.75685800  0.87505350  1
  Cd  Cd0_0  1  0.00000000  0.00000000  0.25000000  1
  Cd  Cd0_1  1  0.00000000  0.00000000  0.75000000  1
  Cd  Cd0_2  1  0.00000000  0.50000000  0.25000000  1
  Cd  Cd0_3  1  0.00000000  0.50000000  0.75000000  1
  Cd  Cd0_4  1  0.50000000  0.00000000  0.25000000  1
  Cd  Cd0_5  1  0.50000000  0.00000000  0.75000000  1
  Cd  Cd0_6  1  0.50000000  0.50000000  0.25000000  1
  Cd  Cd0_7  1  0.50000000  0.50000000  0.75000000  1
  S  S0_0  1  0.33333350  0.16666650  0.12497000  1
  S  S0_1  1  0.33333350  0.16666650  0.62497000  1
  S  S0_2  1  0.33333350  0.66666650  0.12497000  1
  S  S0_3  1  0.33333350  0.66666650  0.62497000  1
  S  S0_4  1  0.83333350  0.16666650  0.12497000  1
  S  S0_5  1  0.83333350  0.16666650  0.62497000  1
  S  S0_6  1  0.83333350  0.66666650  0.12497000  1
  S  S0_7  1  0.83333350  0.66666650  0.62497000  1
  S  S1_0  1  0.16666650  0.33333350  0.37503000  1
  S  S1_1  1  0.16666650  0.33333350  0.87503000  1
  S  S1_2  1  0.16666650  0.83333350  0.37503000  1
  S  S1_3  1  0.16666650  0.83333350  0.87503000  1
  S  S1_4  1  0.66666650  0.33333350  0.37503000  1
  S  S1_5  1  0.66666650  0.33333350  0.87503000  1
  S  S1_6  1  0.66666650  0.83333350  0.37503000  1
  S  S1_7  1  0.66666650  0.83333350  0.87503000  1
  S  S2_0  1  0.14367150  0.47171050  0.12516800  1
  S  S2_1  1  0.14367150  0.47171050  0.62516800  1
  S  S2_2  1  0.14367150  0.97171050  0.12516800  1
  S  S2_3  1  0.14367150  0.97171050  0.62516800  1
  S  S2_4  1  0.64367150  0.47171050  0.12516800  1
  S  S2_5  1  0.64367150  0.47171050  0.62516800  1
  S  S2_6  1  0.64367150  0.97171050  0.12516800  1
  S  S2_7  1  0.64367150  0.97171050  0.62516800  1
  S  S3_0  1  0.32803950  0.35632850  0.12516800  1
  S  S3_1  1  0.32803950  0.35632850  0.62516800  1
  S  S3_2  1  0.32803950  0.85632850  0.12516800  1
  S  S3_3  1  0.32803950  0.85632850  0.62516800  1
  S  S3_4  1  0.82803950  0.35632850  0.12516800  1
  S  S3_5  1  0.82803950  0.35632850  0.62516800  1
  S  S3_6  1  0.82803950  0.85632850  0.12516800  1
  S  S3_7  1  0.82803950  0.85632850  0.62516800  1
  S  S4_0  1  0.02828950  0.17196050  0.12516800  1
  S  S4_1  1  0.02828950  0.17196050  0.62516800  1
  S  S4_2  1  0.02828950  0.67196050  0.12516800  1
  S  S4_3  1  0.02828950  0.67196050  0.62516800  1
  S  S4_4  1  0.52828950  0.17196050  0.12516800  1
  S  S4_5  1  0.52828950  0.17196050  0.62516800  1
  S  S4_6  1  0.52828950  0.67196050  0.12516800  1
  S  S4_7  1  0.52828950  0.67196050  0.62516800  1
  S  S5_0  1  0.35632850  0.02828950  0.37483200  1
  S  S5_1  1  0.35632850  0.02828950  0.87483200  1
  S  S5_2  1  0.35632850  0.52828950  0.37483200  1
  S  S5_3  1  0.35632850  0.52828950  0.87483200  1
  S  S5_4  1  0.85632850  0.02828950  0.37483200  1
  S  S5_5  1  0.85632850  0.02828950  0.87483200  1
  S  S5_6  1  0.85632850  0.52828950  0.37483200  1
  S  S5_7  1  0.85632850  0.52828950  0.87483200  1
  S  S6_0  1  0.17196050  0.14367150  0.37483200  1
  S  S6_1  1  0.17196050  0.14367150  0.87483200  1
  S  S6_2  1  0.17196050  0.64367150  0.37483200  1
  S  S6_3  1  0.17196050  0.64367150  0.87483200  1
  S  S6_4  1  0.67196050  0.14367150  0.37483200  1
  S  S6_5  1  0.67196050  0.14367150  0.87483200  1
  S  S6_6  1  0.67196050  0.64367150  0.37483200  1
  S  S6_7  1  0.67196050  0.64367150  0.87483200  1
  S  S7_0  1  0.47171050  0.32803950  0.37483200  1
  S  S7_1  1  0.47171050  0.32803950  0.87483200  1
  S  S7_2  1  0.47171050  0.82803950  0.37483200  1
  S  S7_3  1  0.47171050  0.82803950  0.87483200  1
  S  S7_4  1  0.97171050  0.32803950  0.37483200  1
  S  S7_5  1  0.97171050  0.32803950  0.87483200  1
  S  S7_6  1  0.97171050  0.82803950  0.37483200  1
  S  S7_7  1  0.97171050  0.82803950  0.87483200  1
loop_
_geom_bond_atom_site_label_1
_geom_bond_atom_site_label_2
_geom_bond_distance
_geom_bond_site_symmetry_2
Nb0_0 S7_4 2.475256 1_455
Nb0_0 S7_5 2.476313 1_454
Nb0_0 S4_0 2.522184 1_555
Nb0_0 S1_1 2.595322 1_554
Nb0_0 S1_0 2.596057 1_555
Nb0_0 S2_0 2.661763 1_555
Nb0_1 S7_5 2.475256 1_455
Nb0_1 S7_4 2.476313 1_455
Nb0_1 S4_1 2.522184 1_555
Nb0_1 S1_0 2.595322 1_555
Nb0_1 S1_1 2.596057 1_555
Nb0_1 S2_1 2.661763 1_555
Nb0_2 S7_6 2.475256 1_455
Nb0_2 S7_7 2.476313 1_454
Nb0_2 S4_2 2.522184 1_555
Nb0_2 S1_3 2.595322 1_554
Nb0_2 S1_2 2.596057 1_555
Nb0_2 S2_2 2.661763 1_555
Nb0_3 S7_7 2.475256 1_455
Nb0_3 S7_6 2.476313 1_455
Nb0_3 S4_3 2.522184 1_555
Nb0_3 S1_2 2.595322 1_555
Nb0_3 S1_3 2.596057 1_555
Nb0_3 S2_3 2.661763 1_555
Nb0_4 S7_0 2.475256 1_555
Nb0_4 S7_1 2.476313 1_554
Nb0_4 S4_4 2.522184 1_555
Nb0_4 S1_5 2.595322 1_554
Nb0_4 S1_4 2.596057 1_555
Nb0_4 S2_4 2.661763 1_555
Nb0_5 S7_1 2.475256 1_555
Nb0_5 S7_0 2.476313 1_555
Nb0_5 S4_5 2.522184 1_555
Nb0_5 S1_4 2.595322 1_555
Nb0_5 S1_5 2.596057 1_555
Nb0_5 S2_5 2.661763 1_555
Nb0_6 S7_2 2.475256 1_555
Nb0_6 S7_3 2.476313 1_554
Nb0_6 S4_6 2.522184 1_555
Nb0_6 S1_7 2.595322 1_554
Nb0_6 S1_6 2.596057 1_555
Nb0_6 S2_6 2.661763 1_555
Nb0_7 S7_3 2.475256 1_555
Nb0_7 S7_2 2.476313 1_555
Nb0_7 S4_7 2.522184 1_555
Nb0_7 S1_6 2.595322 1_555
Nb0_7 S1_7 2.596057 1_555
Nb0_7 S2_7 2.661763 1_555
Nb1_0 S5_2 2.475251 1_555
Nb1_0 S5_3 2.476308 1_554
Nb1_0 S2_0 2.522174 1_555
Nb1_0 S1_1 2.595324 1_554
Nb1_0 S1_0 2.596059 1_555
Nb1_0 S3_0 2.661771 1_555
Nb1_1 S5_3 2.475251 1_555
Nb1_1 S5_2 2.476308 1_555
Nb1_1 S2_1 2.522174 1_555
Nb1_1 S1_0 2.595324 1_555
Nb1_1 S1_1 2.596059 1_555
Nb1_1 S3_1 2.661771 1_555
Nb1_2 S5_0 2.475251 1_565
Nb1_2 S5_1 2.476308 1_564
Nb1_2 S2_2 2.522174 1_555
Nb1_2 S1_3 2.595324 1_554
Nb1_2 S1_2 2.596059 1_555
Nb1_2 S3_2 2.661771 1_555
Nb1_3 S5_1 2.475251 1_565
Nb1_3 S5_0 2.476308 1_565
Nb1_3 S2_3 2.522174 1_555
Nb1_3 S1_2 2.595324 1_555
Nb1_3 S1_3 2.596059 1_555
Nb1_3 S3_3 2.661771 1_555
Nb1_4 S5_6 2.475251 1_555
Nb1_4 S5_7 2.476308 1_554
Nb1_4 S2_4 2.522174 1_555
Nb1_4 S1_5 2.595324 1_554
Nb1_4 S1_4 2.596059 1_555
Nb1_4 S3_4 2.661771 1_555
Nb1_5 S5_7 2.475251 1_555
Nb1_5 S5_6 2.476308 1_555
Nb1_5 S2_5 2.522174 1_555
Nb1_5 S1_4 2.595324 1_555
Nb1_5 S1_5 2.596059 1_555
Nb1_5 S3_5 2.661771 1_555
Nb1_6 S5_4 2.475251 1_565
Nb1_6 S5_5 2.476308 1_564
Nb1_6 S2_6 2.522174 1_555
Nb1_6 S1_7 2.595324 1_554
Nb1_6 S1_6 2.596059 1_555
Nb1_6 S3_6 2.661771 1_555
Nb1_7 S5_5 2.475251 1_565
Nb1_7 S5_4 2.476308 1_565
Nb1_7 S2_7 2.522174 1_555
Nb1_7 S1_6 2.595324 1_555
Nb1_7 S1_7 2.596059 1_555
Nb1_7 S3_7 2.661771 1_555
Nb2_0 S6_0 2.475249 1_555
Nb2_0 S6_1 2.476306 1_554
Nb2_0 S3_0 2.522180 1_555
Nb2_0 S1_1 2.595329 1_554
Nb2_0 S1_0 2.596064 1_555
Nb2_0 S4_0 2.661762 1_555
Nb2_1 S6_1 2.475249 1_555
Nb2_1 S6_0 2.476306 1_555
Nb2_1 S3_1 2.522180 1_555
Nb2_1 S1_0 2.595329 1_555
Nb2_1 S1_1 2.596064 1_555
Nb2_1 S4_1 2.661762 1_555
Nb2_2 S6_2 2.475249 1_555
Nb2_2 S6_3 2.476306 1_554
Nb2_2 S3_2 2.522180 1_555
Nb2_2 S1_3 2.595329 1_554
Nb2_2 S1_2 2.596064 1_555
Nb2_2 S4_2 2.661762 1_555
Nb2_3 S6_3 2.475249 1_555
Nb2_3 S6_2 2.476306 1_555
Nb2_3 S3_3 2.522180 1_555
Nb2_3 S1_2 2.595329 1_555
Nb2_3 S1_3 2.596064 1_555
Nb2_3 S4_3 2.661762 1_555
Nb2_4 S6_4 2.475249 1_555
Nb2_4 S6_5 2.476306 1_554
Nb2_4 S3_4 2.522180 1_555
Nb2_4 S1_5 2.595329 1_554
Nb2_4 S1_4 2.596064 1_555
Nb2_4 S4_4 2.661762 1_555
Nb2_5 S6_5 2.475249 1_555
Nb2_5 S6_4 2.476306 1_555
Nb2_5 S3_5 2.522180 1_555
Nb2_5 S1_4 2.595329 1_555
Nb2_5 S1_5 2.596064 1_555
Nb2_5 S4_5 2.661762 1_555
Nb2_6 S6_6 2.475249 1_555
Nb2_6 S6_7 2.476306 1_554
Nb2_6 S3_6 2.522180 1_555
Nb2_6 S1_7 2.595329 1_554
Nb2_6 S1_6 2.596064 1_555
Nb2_6 S4_6 2.661762 1_555
Nb2_7 S6_7 2.475249 1_555
Nb2_7 S6_6 2.476306 1_555
Nb2_7 S3_7 2.522180 1_555
Nb2_7 S1_6 2.595329 1_555
Nb2_7 S1_7 2.596064 1_555
Nb2_7 S4_7 2.661762 1_555
Nb3_0 S4_4 2.475256 1_555
Nb3_0 S4_5 2.476313 1_555
Nb3_0 S7_0 2.522184 1_555
Nb3_0 S0_1 2.595322 1_555
Nb3_0 S0_0 2.596057 1_555
Nb3_0 S5_0 2.661763 1_555
Nb3_1 S4_5 2.475256 1_555
Nb3_1 S4_4 2.476313 1_556
Nb3_1 S7_1 2.522184 1_555
Nb3_1 S0_0 2.595322 1_556
Nb3_1 S0_1 2.596057 1_555
Nb3_1 S5_1 2.661763 1_555
Nb3_2 S4_6 2.475256 1_555
Nb3_2 S4_7 2.476313 1_555
Nb3_2 S7_2 2.522184 1_555
Nb3_2 S0_3 2.595322 1_555
Nb3_2 S0_2 2.596057 1_555
Nb3_2 S5_2 2.661763 1_555
Nb3_3 S4_7 2.475256 1_555
Nb3_3 S4_6 2.476313 1_556
Nb3_3 S7_3 2.522184 1_555
Nb3_3 S0_2 2.595322 1_556
Nb3_3 S0_3 2.596057 1_555
Nb3_3 S5_3 2.661763 1_555
Nb3_4 S4_0 2.475256 1_655
Nb3_4 S4_1 2.476313 1_655
Nb3_4 S7_4 2.522184 1_555
Nb3_4 S0_5 2.595322 1_555
Nb3_4 S0_4 2.596057 1_555
Nb3_4 S5_4 2.661763 1_555
Nb3_5 S4_1 2.475256 1_655
Nb3_5 S4_0 2.476313 1_656
Nb3_5 S7_5 2.522184 1_555
Nb3_5 S0_4 2.595322 1_556
Nb3_5 S0_5 2.596057 1_555
Nb3_5 S5_5 2.661763 1_555
Nb3_6 S4_2 2.475256 1_655
Nb3_6 S4_3 2.476313 1_655
Nb3_6 S7_6 2.522184 1_555
Nb3_6 S0_7 2.595322 1_555
Nb3_6 S0_6 2.596057 1_555
Nb3_6 S5_6 2.661763 1_555
Nb3_7 S4_3 2.475256 1_655
Nb3_7 S4_2 2.476313 1_656
Nb3_7 S7_7 2.522184 1_555
Nb3_7 S0_6 2.595322 1_556
Nb3_7 S0_7 2.596057 1_555
Nb3_7 S5_7 2.661763 1_555
Nb4_0 S2_2 2.475251 1_545
Nb4_0 S2_3 2.476308 1_545
Nb4_0 S5_0 2.522174 1_555
Nb4_0 S0_1 2.595324 1_555
Nb4_0 S0_0 2.596059 1_555
Nb4_0 S6_0 2.661771 1_555
Nb4_1 S2_3 2.475251 1_545
Nb4_1 S2_2 2.476308 1_546
Nb4_1 S5_1 2.522174 1_555
Nb4_1 S0_0 2.595324 1_556
Nb4_1 S0_1 2.596059 1_555
Nb4_1 S6_1 2.661771 1_555
Nb4_2 S2_0 2.475251 1_555
Nb4_2 S2_1 2.476308 1_555
Nb4_2 S5_2 2.522174 1_555
Nb4_2 S0_3 2.595324 1_555
Nb4_2 S0_2 2.596059 1_555
Nb4_2 S6_2 2.661771 1_555
Nb4_3 S2_1 2.475251 1_555
Nb4_3 S2_0 2.476308 1_556
Nb4_3 S5_3 2.522174 1_555
Nb4_3 S0_2 2.595324 1_556
Nb4_3 S0_3 2.596059 1_555
Nb4_3 S6_3 2.661771 1_555
Nb4_4 S2_6 2.475251 1_545
Nb4_4 S2_7 2.476308 1_545
Nb4_4 S5_4 2.522174 1_555
Nb4_4 S0_5 2.595324 1_555
Nb4_4 S0_4 2.596059 1_555
Nb4_4 S6_4 2.661771 1_555
Nb4_5 S2_7 2.475251 1_545
Nb4_5 S2_6 2.476308 1_546
Nb4_5 S5_5 2.522174 1_555
Nb4_5 S0_4 2.595324 1_556
Nb4_5 S0_5 2.596059 1_555
Nb4_5 S6_5 2.661771 1_555
Nb4_6 S2_4 2.475251 1_555
Nb4_6 S2_5 2.476308 1_555
Nb4_6 S5_6 2.522174 1_555
Nb4_6 S0_7 2.595324 1_555
Nb4_6 S0_6 2.596059 1_555
Nb4_6 S6_6 2.661771 1_555
Nb4_7 S2_5 2.475251 1_555
Nb4_7 S2_4 2.476308 1_556
Nb4_7 S5_7 2.522174 1_555
Nb4_7 S0_6 2.595324 1_556
Nb4_7 S0_7 2.596059 1_555
Nb4_7 S6_7 2.661771 1_555
Nb5_0 S3_0 2.475249 1_555
Nb5_0 S3_1 2.476306 1_555
Nb5_0 S6_0 2.522180 1_555
Nb5_0 S0_1 2.595329 1_555
Nb5_0 S0_0 2.596064 1_555
Nb5_0 S7_0 2.661762 1_555
Nb5_1 S3_1 2.475249 1_555
Nb5_1 S3_0 2.476306 1_556
Nb5_1 S6_1 2.522180 1_555
Nb5_1 S0_0 2.595329 1_556
Nb5_1 S0_1 2.596064 1_555
Nb5_1 S7_1 2.661762 1_555
Nb5_2 S3_2 2.475249 1_555
Nb5_2 S3_3 2.476306 1_555
Nb5_2 S6_2 2.522180 1_555
Nb5_2 S0_3 2.595329 1_555
Nb5_2 S0_2 2.596064 1_555
Nb5_2 S7_2 2.661762 1_555
Nb5_3 S3_3 2.475249 1_555
Nb5_3 S3_2 2.476306 1_556
Nb5_3 S6_3 2.522180 1_555
Nb5_3 S0_2 2.595329 1_556
Nb5_3 S0_3 2.596064 1_555
Nb5_3 S7_3 2.661762 1_555
Nb5_4 S3_4 2.475249 1_555
Nb5_4 S3_5 2.476306 1_555
Nb5_4 S6_4 2.522180 1_555
Nb5_4 S0_5 2.595329 1_555
Nb5_4 S0_4 2.596064 1_555
Nb5_4 S7_4 2.661762 1_555
Nb5_5 S3_5 2.475249 1_555
Nb5_5 S3_4 2.476306 1_556
Nb5_5 S6_5 2.522180 1_555
Nb5_5 S0_4 2.595329 1_556
Nb5_5 S0_5 2.596064 1_555
Nb5_5 S7_5 2.661762 1_555
Nb5_6 S3_6 2.475249 1_555
Nb5_6 S3_7 2.476306 1_555
Nb5_6 S6_6 2.522180 1_555
Nb5_6 S0_7 2.595329 1_555
Nb5_6 S0_6 2.596064 1_555
Nb5_6 S7_6 2.661762 1_555
Nb5_7 S3_7 2.475249 1_555
Nb5_7 S3_6 2.476306 1_556
Nb5_7 S6_7 2.522180 1_555
Nb5_7 S0_6 2.595329 1_556
Nb5_7 S0_7 2.596064 1_555
Nb5_7 S7_7 2.661762 1_555
Cd0_0 S4_0 3.214717 1_555
Cd0_0 S7_6 3.214717 1_445
Cd0_0 S6_0 3.214720 1_555
Cd0_0 S3_6 3.214720 1_445
Cd0_0 S2_2 3.214726 1_545
Cd0_0 S5_4 3.214726 1_455
Cd0_0 Cd0_1 3.380338 1_554
Cd0_0 Cd0_1 3.380338 1_555
Cd0_1 S4_1 3.214717 1_555
Cd0_1 S7_7 3.214717 1_445
Cd0_1 S6_1 3.214720 1_555
Cd0_1 S3_7 3.214720 1_445
Cd0_1 S2_3 3.214726 1_545
Cd0_1 S5_5 3.214726 1_455
Cd0_2 S4_2 3.214717 1_555
Cd0_2 S7_4 3.214717 1_455
Cd0_2 S6_2 3.214720 1_555
Cd0_2 S3_4 3.214720 1_455
Cd0_2 S2_0 3.214726 1_555
Cd0_2 S5_6 3.214726 1_455
Cd0_2 Cd0_3 3.380338 1_554
Cd0_2 Cd0_3 3.380338 1_555
Cd0_3 S4_3 3.214717 1_555
Cd0_3 S7_5 3.214717 1_455
Cd0_3 S6_3 3.214720 1_555
Cd0_3 S3_5 3.214720 1_455
Cd0_3 S2_1 3.214726 1_555
Cd0_3 S5_7 3.214726 1_455
Cd0_4 S4_4 3.214717 1_555
Cd0_4 S7_2 3.214717 1_545
Cd0_4 S6_4 3.214720 1_555
Cd0_4 S3_2 3.214720 1_545
Cd0_4 S2_6 3.214726 1_545
Cd0_4 S5_0 3.214726 1_555
Cd0_4 Cd0_5 3.380338 1_554
Cd0_4 Cd0_5 3.380338 1_555
Cd0_5 S4_5 3.214717 1_555
Cd0_5 S7_3 3.214717 1_545
Cd0_5 S6_5 3.214720 1_555
Cd0_5 S3_3 3.214720 1_545
Cd0_5 S2_7 3.214726 1_545
Cd0_5 S5_1 3.214726 1_555
Cd0_6 S7_0 3.214717 1_555
Cd0_6 S4_6 3.214717 1_555
Cd0_6 S6_6 3.214720 1_555
Cd0_6 S3_0 3.214720 1_555
Cd0_6 S2_4 3.214726 1_555
Cd0_6 S5_2 3.214726 1_555
Cd0_6 Cd0_7 3.380338 1_554
Cd0_6 Cd0_7 3.380338 1_555
Cd0_7 S7_1 3.214717 1_555
Cd0_7 S4_7 3.214717 1_555
Cd0_7 S6_7 3.214720 1_555
Cd0_7 S3_1 3.214720 1_555
Cd0_7 S2_5 3.214726 1_555
Cd0_7 S5_3 3.214726 1_555
