# generated using pymatgen
data_Cr2N2O7
_symmetry_space_group_name_H-M   'P 1'
_cell_length_a   7.90305929
_cell_length_b   7.90305929
_cell_length_c   8.02895940
_cell_angle_alpha   87.42709011
_cell_angle_beta   87.42709011
_cell_angle_gamma   59.52491169
_symmetry_Int_Tables_number   1
_chemical_formula_structural   Cr2N2O7
_chemical_formula_sum   'Cr4 N4 O14'
_cell_volume   431.61829696
_cell_formula_units_Z   2
loop_
 _symmetry_equiv_pos_site_id
 _symmetry_equiv_pos_as_xyz
  1  'x, y, z'
loop_
 _atom_site_type_symbol
 _atom_site_label
 _atom_site_symmetry_multiplicity
 _atom_site_fract_x
 _atom_site_fract_y
 _atom_site_fract_z
 _atom_site_occupancy
  Cr  Cr0  1  0.06903200  0.73093600  0.85707200  1
  Cr  Cr1  1  0.26906400  0.93096800  0.64292800  1
  Cr  Cr2  1  0.93096800  0.26906400  0.14292800  1
  Cr  Cr3  1  0.73093600  0.06903200  0.35707200  1
  N  N0  1  0.79804400  0.49084700  0.65595600  1
  N  N1  1  0.50915300  0.20195600  0.84404400  1
  N  N2  1  0.20195600  0.50915300  0.34404400  1
  N  N3  1  0.49084700  0.79804400  0.15595600  1
  O  O0  1  0.23921800  0.64001500  0.99702900  1
  O  O1  1  0.35998500  0.76078200  0.50297100  1
  O  O2  1  0.76078200  0.35998500  0.00297100  1
  O  O3  1  0.64001500  0.23921800  0.49702900  1
  O  O4  1  0.85733900  0.79239200  0.94494300  1
  O  O5  1  0.20760800  0.14266100  0.55505700  1
  O  O6  1  0.14266100  0.20760800  0.05505700  1
  O  O7  1  0.79239200  0.85733900  0.44494300  1
  O  O8  1  0.12959700  0.55187600  0.72608100  1
  O  O9  1  0.44812400  0.87040300  0.77391900  1
  O  O10  1  0.87040300  0.44812400  0.27391900  1
  O  O11  1  0.55187600  0.12959700  0.22608100  1
  O  O12  1  0.06278300  0.93721700  0.75000000  1
  O  O13  1  0.93721700  0.06278300  0.25000000  1
loop_
_geom_bond_atom_site_label_1
_geom_bond_atom_site_label_2
_geom_bond_distance
_geom_bond_site_symmetry_2
Cr0 O4 1.622722 1_455
Cr0 O0 1.634303 1_555
Cr0 O8 1.655043 1_555
Cr0 O12 1.787602 1_555
Cr1 O5 1.622722 1_565
Cr1 O1 1.634303 1_555
Cr1 O9 1.655043 1_555
Cr1 O12 1.787602 1_555
Cr2 O6 1.622722 1_655
Cr2 O2 1.634303 1_555
Cr2 O10 1.655043 1_555
Cr2 O13 1.787602 1_555
Cr3 O7 1.622722 1_545
Cr3 O3 1.634303 1_555
Cr3 O11 1.655043 1_555
Cr3 O13 1.787602 1_555
