# generated using pymatgen
data_Er4US7
_symmetry_space_group_name_H-M   'P 1'
_cell_length_a   6.64088101
_cell_length_b   6.64088101
_cell_length_c   11.54989485
_cell_angle_alpha   75.62283493
_cell_angle_beta   75.62283493
_cell_angle_gamma   32.89313110
_symmetry_Int_Tables_number   1
_chemical_formula_structural   Er4US7
_chemical_formula_sum   'Er4 U1 S7'
_cell_volume   267.19152367
_cell_formula_units_Z   1
loop_
 _symmetry_equiv_pos_site_id
 _symmetry_equiv_pos_as_xyz
  1  'x, y, z'
loop_
 _atom_site_type_symbol
 _atom_site_label
 _atom_site_symmetry_multiplicity
 _atom_site_fract_x
 _atom_site_fract_y
 _atom_site_fract_z
 _atom_site_occupancy
  Er  Er0  1  0.70011000  0.70011000  0.18799200  1
  Er  Er1  1  0.30106400  0.30106400  0.81128200  1
  Er  Er2  1  0.11675600  0.11675600  0.57723600  1
  Er  Er3  1  0.99971000  0.99971000  0.99814900  1
  U  U0  1  0.88498600  0.88498600  0.42376800  1
  S  S0  1  0.04164800  0.04164800  0.21323300  1
  S  S1  1  0.95879500  0.95879500  0.78450800  1
  S  S2  1  0.34136800  0.34136800  0.05086100  1
  S  S3  1  0.65909900  0.65909900  0.94950800  1
  S  S4  1  0.73902200  0.73902200  0.65228600  1
  S  S5  1  0.25559700  0.25559700  0.34877100  1
  S  S6  1  0.50184400  0.50184400  0.50240600  1
loop_
_geom_bond_atom_site_label_1
_geom_bond_atom_site_label_2
_geom_bond_distance
_geom_bond_site_symmetry_2
Er0 S0 2.718427 1_565
Er0 S0 2.718427 1_655
Er0 S2 2.793876 1_565
Er0 S2 2.793876 1_655
Er0 S5 2.857032 1_565
Er0 S5 2.857032 1_655
Er0 S3 2.933441 1_554
Er1 S1 2.710343 1_455
Er1 S1 2.710343 1_545
Er1 S3 2.803431 1_455
Er1 S3 2.803431 1_545
Er1 S4 2.878097 1_545
Er1 S4 2.878097 1_455
Er1 S2 2.942125 1_556
Er2 S6 2.660784 1_455
Er2 S6 2.660784 1_545
Er2 S1 2.699192 1_445
Er2 S4 2.722345 1_545
Er2 S4 2.722345 1_455
Er2 S5 2.770280 1_555
Er3 S1 2.650708 1_555
Er3 S0 2.672788 1_666
Er3 S2 2.708911 1_656
Er3 S2 2.708911 1_566
Er3 S3 2.717051 1_565
Er3 S3 2.717051 1_655
S0 U0 2.717123 1_445
S4 U0 2.807543 1_555
S5 U0 2.782296 1_455
S5 U0 2.782296 1_545
S6 U0 2.697389 1_455
S6 U0 2.697389 1_545
