# generated using pymatgen
data_Ca4Al2H22CO20
_symmetry_space_group_name_H-M   'P 1'
_cell_length_a   5.83273000
_cell_length_b   8.57765239
_cell_length_c   9.96665266
_cell_angle_alpha   115.22346996
_cell_angle_beta   89.73560837
_cell_angle_gamma   98.53032765
_symmetry_Int_Tables_number   1
_chemical_formula_structural   Ca4Al2H22CO20
_chemical_formula_sum   'Ca4 Al2 H22 C1 O20'
_cell_volume   445.15036219
_cell_formula_units_Z   1
loop_
 _symmetry_equiv_pos_site_id
 _symmetry_equiv_pos_as_xyz
  1  'x, y, z'
loop_
 _atom_site_type_symbol
 _atom_site_label
 _atom_site_symmetry_multiplicity
 _atom_site_fract_x
 _atom_site_fract_y
 _atom_site_fract_z
 _atom_site_occupancy
  Ca  Ca0  1  0.52173300  0.88274500  0.19329400  1
  Ca  Ca1  1  0.48385400  0.11785200  0.80494700  1
  Ca  Ca2  1  0.01808500  0.38341800  0.68774500  1
  Ca  Ca3  1  0.98053400  0.62198500  0.30466800  1
  Al  Al0  1  0.00107900  0.00232300  0.99832000  1
  Al  Al1  1  0.49429500  0.49657800  0.49322400  1
  H  H0  1  0.18176900  0.74463600  0.00755000  1
  H  H1  1  0.83586700  0.27608300  0.97296800  1
  H  H2  1  0.31912200  0.21612900  0.03819700  1
  H  H3  1  0.69290700  0.78269000  0.96587200  1
  H  H4  1  0.34427900  0.76601900  0.48172400  1
  H  H5  1  0.66307100  0.23923600  0.50012300  1
  H  H6  1  0.80765200  0.70074800  0.54792300  1
  H  H7  1  0.16980000  0.27732500  0.46695500  1
  H  H8  1  0.99058200  0.00817600  0.74267200  1
  H  H9  1  0.01936800  0.99003400  0.25946400  1
  H  H10  1  0.50689500  0.49671900  0.74854500  1
  H  H11  1  0.48268000  0.52038200  0.22791200  1
  H  H12  1  0.69090100  0.20865400  0.26139400  1
  H  H13  1  0.43425400  0.14235600  0.30913700  1
  H  H14  1  0.29381700  0.78961100  0.73014000  1
  H  H15  1  0.56014800  0.85732900  0.68961600  1
  H  H16  1  0.06063600  0.36865700  0.18967700  1
  H  H17  1  0.86325100  0.47179200  0.07713700  1
  H  H18  1  0.49182800  0.49806600  0.00139300  1
  H  H19  1  0.22733900  0.49982600  0.96274400  1
  H  H20  1  0.97933100  0.00731300  0.47915200  1
  H  H21  1  0.24283600  0.00282900  0.52381800  1
  C  C0  1  0.88352400  0.66908600  0.80039900  1
  O  O0  1  0.14901600  0.79125200  0.07546300  1
  O  O1  1  0.84684000  0.21273900  0.91407500  1
  O  O2  1  0.30479000  0.10840400  0.02491500  1
  O  O3  1  0.69598000  0.88911200  0.98005300  1
  O  O4  1  0.34374600  0.70940600  0.41598900  1
  O  O5  1  0.64081200  0.28475600  0.57082700  1
  O  O6  1  0.79777900  0.60573800  0.51718700  1
  O  O7  1  0.18767500  0.38935700  0.47391500  1
  O  O8  1  0.07482500  0.07437900  0.79525300  1
  O  O9  1  0.92816900  0.93476400  0.20000700  1
  O  O10  1  0.42509900  0.42924800  0.69649700  1
  O  O11  1  0.57117600  0.57014000  0.29216200  1
  O  O12  1  0.58302000  0.10203500  0.31068300  1
  O  O13  1  0.40297100  0.89734200  0.68538000  1
  O  O14  1  0.90302200  0.39704700  0.18647600  1
  O  O15  1  0.34306200  0.45063800  0.04977800  1
  O  O16  1  0.12987600  0.06652800  0.44001200  1
  O  O17  1  0.75689900  0.58904900  0.91454900  1
  O  O18  1  0.07965800  0.61096200  0.80120200  1
  O  O19  1  0.81609700  0.80360700  0.68590800  1
loop_
_geom_bond_atom_site_label_1
_geom_bond_atom_site_label_2
_geom_bond_distance
_geom_bond_site_symmetry_2
Ca0 O12 1.721475 1_565
Ca1 O13 1.743460 1_545
Ca2 O18 1.769710 1_555
Ca3 O14 1.767417 1_555
Al0 O2 1.832180 1_556
Al0 O3 1.866179 1_445
Al1 O6 1.840859 1_555
Al1 O7 1.856270 1_555
H0 O0 0.667325 1_555
H1 O1 0.618060 1_555
H2 O2 0.866759 1_555
H3 O3 0.859535 1_555
H3 O17 1.617981 1_555
H4 O4 0.627270 1_555
H5 O5 0.667514 1_555
H6 O6 0.731289 1_555
H6 O19 1.275049 1_555
H7 O7 0.923405 1_555
H8 O8 0.710287 1_655
H9 O9 0.739952 1_455
H10 O10 0.704380 1_555
H11 O11 0.750605 1_555
H12 O12 1.297299 1_555
H13 O12 0.983096 1_555
H14 O13 1.277681 1_555
H15 O13 1.032523 1_555
H16 O14 0.989331 1_455
H17 O14 1.514710 1_555
H18 O15 1.099819 1_555
H19 O15 1.337117 1_556
H20 O16 1.102089 1_655
H21 O16 1.389662 1_555
C0 O18 1.315315 1_655
C0 O17 1.678890 1_555
C0 O19 2.012253 1_555
