# generated using pymatgen
data_NaCa2Mg5AlSi7(O11F)2
_symmetry_space_group_name_H-M   'P 1'
_cell_length_a   5.33283900
_cell_length_b   9.98113284
_cell_length_c   10.36892942
_cell_angle_alpha   61.35742179
_cell_angle_beta   82.87706862
_cell_angle_gamma   75.18841610
_symmetry_Int_Tables_number   1
_chemical_formula_structural   NaCa2Mg5AlSi7(O11F)2
_chemical_formula_sum   'Na1 Ca2 Mg5 Al1 Si7 O22 F2'
_cell_volume   468.27988311
_cell_formula_units_Z   1
loop_
 _symmetry_equiv_pos_site_id
 _symmetry_equiv_pos_as_xyz
  1  'x, y, z'
loop_
 _atom_site_type_symbol
 _atom_site_label
 _atom_site_symmetry_multiplicity
 _atom_site_fract_x
 _atom_site_fract_y
 _atom_site_fract_z
 _atom_site_occupancy
  Na  Na0  1  0.00381300  0.49587200  0.99283200  1
  Ca  Ca0  1  0.49782000  0.27605300  0.44865800  1
  Ca  Ca1  1  0.51034000  0.70818100  0.56184500  1
  Mg  Mg0  1  0.50095500  0.09258300  0.82138000  1
  Mg  Mg1  1  0.49995400  0.91210600  0.17733700  1
  Mg  Mg2  1  0.99563200  0.00231500  0.99835800  1
  Mg  Mg3  1  0.99675200  0.17918900  0.64934100  1
  Mg  Mg4  1  0.00117500  0.82207800  0.35551200  1
  Al  Al0  1  0.69902600  0.36452400  0.83144400  1
  Si  Si0  1  0.18915600  0.46621200  0.65395900  1
  Si  Si1  1  0.19634700  0.11340900  0.34610600  1
  Si  Si2  1  0.80431600  0.54209500  0.34019100  1
  Si  Si3  1  0.80453600  0.88219000  0.65815100  1
  Si  Si4  1  0.70352400  0.19541600  0.17048300  1
  Si  Si5  1  0.29749700  0.63894800  0.16724000  1
  Si  Si6  1  0.30016900  0.80539000  0.83249400  1
  O  O0  1  0.21915900  0.61283200  0.49469700  1
  O  O1  1  0.20839800  0.11675800  0.49842600  1
  O  O2  1  0.79298900  0.38671700  0.49107400  1
  O  O3  1  0.79165100  0.87845800  0.50689200  1
  O  O4  1  0.27341100  0.29395700  0.65560500  1
  O  O5  1  0.27602100  0.94638400  0.34250500  1
  O  O6  1  0.72570800  0.71108000  0.33990500  1
  O  O7  1  0.72300400  0.05181200  0.65645200  1
  O  O8  1  0.78683100  0.18635500  0.82889500  1
  O  O9  1  0.78087500  0.02574200  0.17266800  1
  O  O10  1  0.21744700  0.80554000  0.16820500  1
  O  O11  1  0.22738900  0.97274700  0.83104700  1
  O  O12  1  0.89254200  0.49701500  0.71778000  1
  O  O13  1  0.89763400  0.20728300  0.27632000  1
  O  O14  1  0.09922600  0.52169600  0.26338700  1
  O  O15  1  0.09897700  0.78778900  0.73530600  1
  O  O16  1  0.72188600  0.34170700  0.00959600  1
  O  O17  1  0.28483200  0.66014200  0.99972800  1
  O  O18  1  0.38514200  0.47055400  0.76383500  1
  O  O19  1  0.40508400  0.22494100  0.23598900  1
  O  O20  1  0.59349100  0.54195400  0.23015000  1
  O  O21  1  0.59610800  0.77076000  0.76939300  1
  F  F0  1  0.28808100  0.10016600  0.00170700  1
  F  F1  1  0.71310300  0.89104600  0.00510700  1
loop_
_geom_bond_atom_site_label_1
_geom_bond_atom_site_label_2
_geom_bond_distance
_geom_bond_site_symmetry_2
Na0 O16 2.349460 1_456
Na0 O17 2.516855 1_555
Ca0 O2 2.327570 1_555
Ca0 O1 2.333882 1_555
Ca0 O4 2.385389 1_555
Ca0 O7 2.395441 1_555
Ca0 O19 2.616384 1_555
Ca0 O20 2.660500 1_555
Ca0 O13 2.773656 1_555
Ca0 O14 2.837732 1_555
Ca1 O0 2.336810 1_555
Ca1 O3 2.372114 1_555
Ca1 O6 2.431771 1_555
Ca1 O18 2.481590 1_555
Ca1 O5 2.527566 1_555
Ca1 O12 2.562174 1_555
Ca1 O21 2.628592 1_555
Ca1 O15 2.859924 1_555
Mg0 O8 2.008778 1_555
Mg0 O11 2.076056 1_545
Mg0 O7 2.100223 1_555
Mg0 O4 2.103587 1_555
Mg1 O5 2.078906 1_555
Mg1 O9 2.081164 1_565
Mg1 O6 2.083862 1_555
Mg1 O10 2.088371 1_555
Mg2 O8 2.011664 1_555
Mg2 O10 2.090705 1_646
Mg2 O9 2.094739 1_556
Mg2 O11 2.096871 1_645
Mg3 O2 2.048666 1_555
Mg3 O1 2.061091 1_655
Mg3 O8 2.072298 1_555
Mg3 O4 2.110061 1_655
Mg3 O7 2.141347 1_555
Mg3 O11 2.205775 1_645
Mg4 O0 2.020193 1_555
Mg4 O3 2.029613 1_455
Mg4 O5 2.103854 1_555
Mg4 O6 2.115319 1_455
Mg4 O9 2.177954 1_465
Mg4 O10 2.187232 1_555
Al0 O8 1.731662 1_555
Al0 O18 1.757099 1_555
Al0 O12 1.762032 1_555
Al0 O16 1.765612 1_556
O0 Si0 1.622230 1_555
O1 Si1 1.605186 1_555
O2 Si2 1.598382 1_555
O3 Si3 1.596876 1_555
O4 Si0 1.654379 1_555
O5 Si1 1.629333 1_565
O6 Si2 1.629287 1_555
O7 Si3 1.628685 1_545
O9 Si4 1.626992 1_555
O10 Si5 1.612183 1_555
O11 Si6 1.608441 1_555
O12 Si0 1.649645 1_655
O13 Si4 1.661003 1_555
O13 Si1 1.676865 1_655
O14 Si5 1.653548 1_555
O14 Si2 1.682319 1_455
O15 Si6 1.652814 1_555
O15 Si3 1.681012 1_455
O16 Si4 1.619248 1_555
O17 Si6 1.652490 1_555
O17 Si5 1.654008 1_556
O18 Si0 1.660733 1_555
O19 Si4 1.662882 1_555
O19 Si1 1.697613 1_555
O20 Si5 1.650148 1_555
O20 Si2 1.698949 1_555
O21 Si6 1.649270 1_555
O21 Si3 1.699159 1_555
F0 Mg2 2.052341 1_454
F0 Mg1 2.065238 1_545
F0 Mg0 2.087088 1_554
F1 Mg1 2.063921 1_555
F1 Mg2 2.064770 1_564
F1 Mg0 2.157009 1_564
