# generated using pymatgen
data_TmCd2
_symmetry_space_group_name_H-M   'P 1'
_cell_length_a   9.75414958
_cell_length_b   9.75414964
_cell_length_c   6.84086540
_cell_angle_alpha   90.00000000
_cell_angle_beta   90.00000000
_cell_angle_gamma   120.00000663
_symmetry_Int_Tables_number   1
_chemical_formula_structural   TmCd2
_chemical_formula_sum   'Tm8 Cd16'
_cell_volume   563.66422727
_cell_formula_units_Z   8
loop_
 _symmetry_equiv_pos_site_id
 _symmetry_equiv_pos_as_xyz
  1  'x, y, z'
loop_
 _atom_site_type_symbol
 _atom_site_label
 _atom_site_symmetry_multiplicity
 _atom_site_fract_x
 _atom_site_fract_y
 _atom_site_fract_z
 _atom_site_occupancy
  Tm  Tm0_0  1  0.00000000  0.00000000  0.00000000  1
  Tm  Tm0_1  1  0.00000000  0.00000000  0.50000000  1
  Tm  Tm0_2  1  0.00000000  0.50000000  0.00000000  1
  Tm  Tm0_3  1  0.00000000  0.50000000  0.50000000  1
  Tm  Tm0_4  1  0.50000000  0.00000000  0.00000000  1
  Tm  Tm0_5  1  0.50000000  0.00000000  0.50000000  1
  Tm  Tm0_6  1  0.50000000  0.50000000  0.00000000  1
  Tm  Tm0_7  1  0.50000000  0.50000000  0.50000000  1
  Cd  Cd0_0  1  0.16666650  0.33333350  0.24991265  1
  Cd  Cd0_1  1  0.16666650  0.33333350  0.74991265  1
  Cd  Cd0_2  1  0.16666650  0.83333350  0.24991265  1
  Cd  Cd0_3  1  0.16666650  0.83333350  0.74991265  1
  Cd  Cd0_4  1  0.66666650  0.33333350  0.24991265  1
  Cd  Cd0_5  1  0.66666650  0.33333350  0.74991265  1
  Cd  Cd0_6  1  0.66666650  0.83333350  0.24991265  1
  Cd  Cd0_7  1  0.66666650  0.83333350  0.74991265  1
  Cd  Cd1_0  1  0.33333350  0.16666650  0.25008735  1
  Cd  Cd1_1  1  0.33333350  0.16666650  0.75008735  1
  Cd  Cd1_2  1  0.33333350  0.66666650  0.25008735  1
  Cd  Cd1_3  1  0.33333350  0.66666650  0.75008735  1
  Cd  Cd1_4  1  0.83333350  0.16666650  0.25008735  1
  Cd  Cd1_5  1  0.83333350  0.16666650  0.75008735  1
  Cd  Cd1_6  1  0.83333350  0.66666650  0.25008735  1
  Cd  Cd1_7  1  0.83333350  0.66666650  0.75008735  1
loop_
_geom_bond_atom_site_label_1
_geom_bond_atom_site_label_2
_geom_bond_distance
_geom_bond_site_symmetry_2
Tm0_0 Tm0_1 3.420433 1_555
Tm0_0 Tm0_1 3.420433 1_554
Tm0_2 Tm0_3 3.420433 1_554
Tm0_2 Tm0_3 3.420433 1_555
Tm0_4 Tm0_5 3.420433 1_554
Tm0_4 Tm0_5 3.420433 1_555
Tm0_6 Tm0_7 3.420433 1_554
Tm0_6 Tm0_7 3.420433 1_555
Cd0_0 Cd1_4 2.815778 1_455
Cd0_0 Cd1_2 2.815778 1_555
Cd0_0 Cd1_0 2.815786 1_555
Cd0_0 Tm0_2 3.294146 1_555
Cd0_0 Tm0_6 3.294150 1_555
Cd0_0 Tm0_0 3.294150 1_555
Cd0_0 Tm0_3 3.294767 1_555
Cd0_0 Tm0_7 3.294770 1_555
Cd0_0 Tm0_1 3.294770 1_555
Cd0_0 Cd0_1 3.420433 1_554
Cd0_0 Cd0_1 3.420433 1_555
Cd0_1 Cd1_5 2.815778 1_455
Cd0_1 Cd1_3 2.815778 1_555
Cd0_1 Cd1_1 2.815786 1_555
Cd0_1 Tm0_3 3.294146 1_555
Cd0_1 Tm0_7 3.294150 1_555
Cd0_1 Tm0_1 3.294150 1_555
Cd0_1 Tm0_2 3.294767 1_556
Cd0_1 Tm0_6 3.294770 1_556
Cd0_1 Tm0_0 3.294770 1_556
Cd0_2 Cd1_6 2.815778 1_455
Cd0_2 Cd1_0 2.815778 1_565
Cd0_2 Cd1_2 2.815786 1_555
Cd0_2 Tm0_0 3.294146 1_565
Cd0_2 Tm0_4 3.294150 1_565
Cd0_2 Tm0_2 3.294150 1_555
Cd0_2 Tm0_1 3.294767 1_565
Cd0_2 Tm0_5 3.294770 1_565
Cd0_2 Tm0_3 3.294770 1_555
Cd0_2 Cd0_3 3.420433 1_554
Cd0_2 Cd0_3 3.420433 1_555
Cd0_3 Cd1_7 2.815778 1_455
Cd0_3 Cd1_1 2.815778 1_565
Cd0_3 Cd1_3 2.815786 1_555
Cd0_3 Tm0_1 3.294146 1_565
Cd0_3 Tm0_5 3.294150 1_565
Cd0_3 Tm0_3 3.294150 1_555
Cd0_3 Tm0_0 3.294767 1_566
Cd0_3 Tm0_4 3.294770 1_566
Cd0_3 Tm0_2 3.294770 1_556
Cd0_4 Cd1_0 2.815778 1_555
Cd0_4 Cd1_6 2.815778 1_555
Cd0_4 Cd1_4 2.815786 1_555
Cd0_4 Tm0_6 3.294146 1_555
Cd0_4 Tm0_2 3.294150 1_655
Cd0_4 Tm0_4 3.294150 1_555
Cd0_4 Tm0_7 3.294767 1_555
Cd0_4 Tm0_3 3.294770 1_655
Cd0_4 Tm0_5 3.294770 1_555
Cd0_4 Cd0_5 3.420433 1_554
Cd0_4 Cd0_5 3.420433 1_555
Cd0_5 Cd1_1 2.815778 1_555
Cd0_5 Cd1_7 2.815778 1_555
Cd0_5 Cd1_5 2.815786 1_555
Cd0_5 Tm0_7 3.294146 1_555
Cd0_5 Tm0_3 3.294150 1_655
Cd0_5 Tm0_5 3.294150 1_555
Cd0_5 Tm0_6 3.294767 1_556
Cd0_5 Tm0_2 3.294770 1_656
Cd0_5 Tm0_4 3.294770 1_556
Cd0_6 Cd1_2 2.815778 1_555
Cd0_6 Cd1_4 2.815778 1_565
Cd0_6 Cd1_6 2.815786 1_555
Cd0_6 Tm0_4 3.294146 1_565
Cd0_6 Tm0_0 3.294150 1_665
Cd0_6 Tm0_6 3.294150 1_555
Cd0_6 Tm0_5 3.294767 1_565
Cd0_6 Tm0_1 3.294770 1_665
Cd0_6 Tm0_7 3.294770 1_555
Cd0_6 Cd0_7 3.420433 1_554
Cd0_6 Cd0_7 3.420433 1_555
Cd0_7 Cd1_3 2.815778 1_555
Cd0_7 Cd1_5 2.815778 1_565
Cd0_7 Cd1_7 2.815786 1_555
Cd0_7 Tm0_5 3.294146 1_565
Cd0_7 Tm0_1 3.294150 1_665
Cd0_7 Tm0_7 3.294150 1_555
Cd0_7 Tm0_4 3.294767 1_566
Cd0_7 Tm0_0 3.294770 1_666
Cd0_7 Tm0_6 3.294770 1_556
Cd1_0 Tm0_5 3.294146 1_555
Cd1_0 Tm0_1 3.294150 1_555
Cd1_0 Tm0_7 3.294150 1_555
Cd1_0 Tm0_4 3.294767 1_555
Cd1_0 Tm0_0 3.294770 1_555
Cd1_0 Tm0_6 3.294770 1_555
Cd1_0 Cd1_1 3.420433 1_554
Cd1_0 Cd1_1 3.420433 1_555
Cd1_1 Tm0_4 3.294146 1_556
Cd1_1 Tm0_0 3.294150 1_556
Cd1_1 Tm0_6 3.294150 1_556
Cd1_1 Tm0_5 3.294767 1_555
Cd1_1 Tm0_1 3.294770 1_555
Cd1_1 Tm0_7 3.294770 1_555
Cd1_2 Tm0_7 3.294146 1_555
Cd1_2 Tm0_3 3.294150 1_555
Cd1_2 Tm0_5 3.294150 1_565
Cd1_2 Tm0_6 3.294767 1_555
Cd1_2 Tm0_2 3.294770 1_555
Cd1_2 Tm0_4 3.294770 1_565
Cd1_2 Cd1_3 3.420433 1_554
Cd1_2 Cd1_3 3.420433 1_555
Cd1_3 Tm0_6 3.294146 1_556
Cd1_3 Tm0_2 3.294150 1_556
Cd1_3 Tm0_4 3.294150 1_566
Cd1_3 Tm0_7 3.294767 1_555
Cd1_3 Tm0_3 3.294770 1_555
Cd1_3 Tm0_5 3.294770 1_565
Cd1_4 Tm0_1 3.294146 1_655
Cd1_4 Tm0_5 3.294150 1_555
Cd1_4 Tm0_3 3.294150 1_655
Cd1_4 Tm0_0 3.294767 1_655
Cd1_4 Tm0_4 3.294770 1_555
Cd1_4 Tm0_2 3.294770 1_655
Cd1_4 Cd1_5 3.420433 1_554
Cd1_4 Cd1_5 3.420433 1_555
Cd1_5 Tm0_0 3.294146 1_656
Cd1_5 Tm0_4 3.294150 1_556
Cd1_5 Tm0_2 3.294150 1_656
Cd1_5 Tm0_1 3.294767 1_655
Cd1_5 Tm0_5 3.294770 1_555
Cd1_5 Tm0_3 3.294770 1_655
Cd1_6 Tm0_3 3.294146 1_655
Cd1_6 Tm0_7 3.294150 1_555
Cd1_6 Tm0_1 3.294150 1_665
Cd1_6 Tm0_2 3.294767 1_655
Cd1_6 Tm0_6 3.294770 1_555
Cd1_6 Tm0_0 3.294770 1_665
Cd1_6 Cd1_7 3.420433 1_554
Cd1_6 Cd1_7 3.420433 1_555
Cd1_7 Tm0_2 3.294146 1_656
Cd1_7 Tm0_6 3.294150 1_556
Cd1_7 Tm0_0 3.294150 1_666
Cd1_7 Tm0_3 3.294767 1_655
Cd1_7 Tm0_7 3.294770 1_555
Cd1_7 Tm0_1 3.294770 1_665
