# generated using pymatgen
data_BaSrLaBiO6
_symmetry_space_group_name_H-M   'P 1'
_cell_length_a   6.17873901
_cell_length_b   6.25627139
_cell_length_c   8.79594225
_cell_angle_alpha   90.13858533
_cell_angle_beta   89.67348882
_cell_angle_gamma   89.94004960
_symmetry_Int_Tables_number   1
_chemical_formula_structural   BaSrLaBiO6
_chemical_formula_sum   'Ba2 Sr2 La2 Bi2 O12'
_cell_volume   340.00807675
_cell_formula_units_Z   2
loop_
 _symmetry_equiv_pos_site_id
 _symmetry_equiv_pos_as_xyz
  1  'x, y, z'
loop_
 _atom_site_type_symbol
 _atom_site_label
 _atom_site_symmetry_multiplicity
 _atom_site_fract_x
 _atom_site_fract_y
 _atom_site_fract_z
 _atom_site_occupancy
  Ba  Ba0  1  0.99294788  0.03299903  0.25026131  1
  Ba  Ba1  1  0.00705212  0.96700097  0.74973869  1
  Sr  Sr0  1  0.50928220  0.53771446  0.25146715  1
  Sr  Sr1  1  0.49071780  0.46228554  0.74853285  1
  La  La0  1  0.50000000  -0.00000000  0.00000000  1
  La  La1  1  0.00000000  0.50000000  0.50000000  1
  Bi  Bi0  1  0.00000000  0.50000000  0.00000000  1
  Bi  Bi1  1  0.50000000  -0.00000000  0.50000000  1
  O  O0  1  0.19778925  0.22405956  0.95634321  1
  O  O1  1  0.31039062  0.71777071  0.55177244  1
  O  O2  1  0.80221075  0.77594044  0.04365679  1
  O  O3  1  0.68960938  0.28222929  0.44822756  1
  O  O4  1  0.27819940  0.69593456  0.94764089  1
  O  O5  1  0.22206666  0.19948191  0.53521604  1
  O  O6  1  0.72180060  0.30406544  0.05235911  1
  O  O7  1  0.77793334  0.80051809  0.46478396  1
  O  O8  1  0.42601350  0.95326382  0.26330074  1
  O  O9  1  0.09737888  0.48448904  0.23591784  1
  O  O10  1  0.57398650  0.04673618  0.73669926  1
  O  O11  1  0.90262112  0.51551096  0.76408216  1
loop_
_geom_bond_atom_site_label_1
_geom_bond_atom_site_label_2
_geom_bond_distance
_geom_bond_site_symmetry_2
Ba0 O2 2.700379 1_545
Ba0 O8 2.724497 1_645
Ba0 O7 2.725743 1_545
Ba0 O9 2.900947 1_655
Ba0 O6 2.958798 1_555
Ba0 O3 2.986596 1_555
Ba0 O5 3.066289 1_655
Ba0 O0 3.113717 1_654
Ba1 O0 2.700379 1_565
Ba1 O10 2.724497 1_465
Ba1 O5 2.725743 1_565
Ba1 O11 2.900947 1_455
Ba1 O4 2.958798 1_555
Ba1 O1 2.986596 1_555
Ba1 O7 3.066289 1_455
Ba1 O2 3.113717 1_456
La0 O0 2.367378 1_554
La0 O2 2.367378 1_545
La0 O10 2.376913 1_554
La0 O8 2.376913 1_545
La0 O4 2.391119 1_544
La0 O6 2.391119 1_555
La1 O5 2.348555 1_555
La1 O7 2.348555 1_455
La1 O9 2.397901 1_555
La1 O11 2.397901 1_455
La1 O3 2.398763 1_455
La1 O1 2.398763 1_555
Bi0 O2 2.146695 1_455
Bi0 O0 2.146695 1_554
Bi0 O4 2.160451 1_554
Bi0 O6 2.160451 1_455
Bi0 O11 2.166250 1_454
Bi0 O9 2.166250 1_555
Bi1 O7 2.142454 1_545
Bi1 O5 2.142454 1_555
Bi1 O8 2.153451 1_545
Bi1 O10 2.153451 1_555
Bi1 O1 2.167890 1_545
Bi1 O3 2.167890 1_555
O0 Sr1 2.969755 1_555
O1 Sr1 2.612125 1_555
O1 Sr0 3.114838 1_555
O2 Sr0 2.969755 1_555
O3 Sr0 2.612125 1_555
O3 Sr1 3.114838 1_555
O4 Sr1 2.624040 1_555
O4 Sr0 3.195889 1_556
O5 Sr1 3.000920 1_555
O6 Sr0 2.624040 1_555
O6 Sr1 3.195889 1_554
O7 Sr0 3.000920 1_555
O8 Sr0 2.651363 1_555
O9 Sr0 2.571450 1_555
O10 Sr1 2.651363 1_555
O11 Sr1 2.571450 1_555
