# generated using pymatgen
data_YCd2Ag
_symmetry_space_group_name_H-M   'P 1'
_cell_length_a   12.54314498
_cell_length_b   12.54314498
_cell_length_c   12.54314498
_cell_angle_alpha   122.45767728
_cell_angle_beta   119.11984267
_cell_angle_gamma   88.66406056
_symmetry_Int_Tables_number   1
_chemical_formula_structural   YCd2Ag
_chemical_formula_sum   'Y1 Cd2 Ag1'
_cell_volume   1376.86996920
_cell_formula_units_Z   1
loop_
 _symmetry_equiv_pos_site_id
 _symmetry_equiv_pos_as_xyz
  1  'x, y, z'
loop_
 _atom_site_type_symbol
 _atom_site_label
 _atom_site_symmetry_multiplicity
 _atom_site_fract_x
 _atom_site_fract_y
 _atom_site_fract_z
 _atom_site_occupancy
  Y  Y0  1  0.00000000  0.00000000  0.00000000  1
  Cd  Cd0  1  0.00000000  0.27153000  0.27153000  1
  Cd  Cd1  1  0.00000000  0.72847000  0.72847000  1
  Ag  Ag0  1  0.00000000  0.50000000  0.50000000  1
loop_
_geom_bond_atom_site_label_1
_geom_bond_atom_site_label_2
_geom_bond_distance
_geom_bond_site_symmetry_2
Cd0 Y0 3.278547 1_555
Cd1 Y0 3.278547 1_566
Ag0 Cd1 2.758626 1_555
Ag0 Cd0 2.758626 1_555
