# generated using pymatgen
data_Ti2MnZnO6
_symmetry_space_group_name_H-M   'P 1'
_cell_length_a   5.60982189
_cell_length_b   10.31480509
_cell_length_c   7.62076994
_cell_angle_alpha   90.00292102
_cell_angle_beta   83.46050977
_cell_angle_gamma   90.01544881
_symmetry_Int_Tables_number   1
_chemical_formula_structural   Ti2MnZnO6
_chemical_formula_sum   'Ti8 Mn4 Zn4 O24'
_cell_volume   438.10075959
_cell_formula_units_Z   4
loop_
 _symmetry_equiv_pos_site_id
 _symmetry_equiv_pos_as_xyz
  1  'x, y, z'
loop_
 _atom_site_type_symbol
 _atom_site_label
 _atom_site_symmetry_multiplicity
 _atom_site_fract_x
 _atom_site_fract_y
 _atom_site_fract_z
 _atom_site_occupancy
  Ti  Ti0  1  0.70745000  0.99998400  0.85370700  1
  Ti  Ti1  1  0.20744200  0.24998000  0.35371800  1
  Ti  Ti2  1  0.70745700  0.49997900  0.85371000  1
  Ti  Ti3  1  0.20743200  0.74997600  0.35372400  1
  Ti  Ti4  1  0.29274500  0.49999500  0.14634100  1
  Ti  Ti5  1  0.79275700  0.75000100  0.64633800  1
  Ti  Ti6  1  0.29274200  0.99999500  0.14633500  1
  Ti  Ti7  1  0.79275900  0.25000400  0.64633700  1
  Mn  Mn0  1  0.78154600  0.74996100  0.14073400  1
  Mn  Mn1  1  0.28156500  0.00000900  0.64073500  1
  Mn  Mn2  1  0.78164000  0.24995500  0.14077400  1
  Mn  Mn3  1  0.28167500  0.50000700  0.64078500  1
  Zn  Zn0  1  0.22355900  0.24998400  0.86175100  1
  Zn  Zn1  1  0.72355300  0.49997700  0.36175300  1
  Zn  Zn2  1  0.22356200  0.74998300  0.86174900  1
  Zn  Zn3  1  0.72355300  0.99997900  0.36175100  1
  O  O0  1  0.34978400  0.06918100  0.91468000  1
  O  O1  1  0.84983400  0.31917100  0.41465500  1
  O  O2  1  0.34978700  0.56917200  0.91467700  1
  O  O3  1  0.84983900  0.81917200  0.41466000  1
  O  O4  1  0.15862600  0.33525200  0.10566900  1
  O  O5  1  0.65861900  0.58524400  0.60567800  1
  O  O6  1  0.15863500  0.83525200  0.10566600  1
  O  O7  1  0.65863200  0.08525000  0.60567500  1
  O  O8  1  0.52039600  0.34553700  0.74410700  1
  O  O9  1  0.02039100  0.59553000  0.24411700  1
  O  O10  1  0.52039700  0.84553200  0.74411000  1
  O  O11  1  0.02039000  0.09554000  0.24411500  1
  O  O12  1  0.64759400  0.43638400  0.08531500  1
  O  O13  1  0.14756100  0.68641500  0.58534300  1
  O  O14  1  0.64756200  0.93641600  0.08533600  1
  O  O15  1  0.14755100  0.18643300  0.58534400  1
  O  O16  1  0.84565300  0.16258900  0.88745900  1
  O  O17  1  0.34565500  0.41257100  0.38744100  1
  O  O18  1  0.84566400  0.66257900  0.88744300  1
  O  O19  1  0.34566400  0.91256800  0.38742500  1
  O  O20  1  0.47260100  0.15112100  0.26021900  1
  O  O21  1  0.97258300  0.40111100  0.76019700  1
  O  O22  1  0.47258800  0.65110700  0.26022700  1
  O  O23  1  0.97256800  0.90110400  0.76020400  1
loop_
_geom_bond_atom_site_label_1
_geom_bond_atom_site_label_2
_geom_bond_distance
_geom_bond_site_symmetry_2
Mn0 O18 2.123576 1_554
Mn0 O22 2.124282 1_555
Mn0 O14 2.124898 1_555
Mn0 O6 2.278283 1_655
Mn0 O9 2.279283 1_655
Mn0 O3 2.279487 1_555
Mn1 O19 2.123956 1_545
Mn1 O23 2.124641 1_445
Mn1 O15 2.124660 1_555
Mn1 O7 2.277971 1_555
Mn1 O0 2.279383 1_555
Mn1 O10 2.279544 1_545
Mn2 O16 2.123630 1_554
Mn2 O20 2.124409 1_555
Mn2 O12 2.124898 1_555
Mn2 O4 2.277782 1_655
Mn2 O11 2.278701 1_655
Mn2 O1 2.279031 1_555
Mn3 O17 2.124121 1_555
Mn3 O13 2.124815 1_555
Mn3 O21 2.124859 1_455
Mn3 O5 2.277328 1_555
Mn3 O2 2.278820 1_555
Mn3 O8 2.278936 1_555
O0 Ti6 1.897264 1_546
O0 Zn0 2.051336 1_555
O0 Ti0 2.130621 1_545
O1 Ti7 1.897389 1_555
O1 Zn1 2.051431 1_555
O1 Ti1 2.130271 1_655
O2 Ti4 1.897291 1_556
O2 Zn2 2.051409 1_555
O2 Ti2 2.130623 1_555
O3 Ti5 1.897379 1_555
O3 Zn3 2.051464 1_555
O3 Ti3 2.130211 1_655
O4 Ti4 1.897925 1_555
O4 Zn0 2.051176 1_554
O4 Ti1 2.130766 1_555
O5 Ti5 1.898079 1_555
O5 Zn1 2.051219 1_555
O5 Ti2 2.130648 1_555
O6 Ti6 1.897892 1_555
O6 Zn2 2.051171 1_554
O6 Ti3 2.130820 1_555
O7 Ti7 1.898029 1_555
O7 Zn3 2.051225 1_545
O7 Ti0 2.130626 1_545
O8 Ti7 1.897921 1_555
O8 Zn0 2.051161 1_555
O8 Ti2 2.129610 1_555
O9 Ti4 1.897907 1_555
O9 Zn1 2.051145 1_455
O9 Ti3 2.129594 1_555
O10 Ti5 1.897902 1_555
O10 Zn2 2.051120 1_555
O10 Ti0 2.129642 1_555
O11 Ti6 1.897962 1_545
O11 Zn3 2.051180 1_445
O11 Ti1 2.129567 1_555
O12 Ti2 1.877050 1_554
O12 Ti4 2.097439 1_555
O12 Zn1 2.292179 1_555
O13 Ti3 1.877029 1_555
O13 Ti5 2.097098 1_455
O13 Zn2 2.291944 1_555
O14 Ti0 1.877131 1_554
O14 Ti6 2.097162 1_555
O14 Zn3 2.291978 1_555
O15 Ti1 1.877036 1_555
O15 Ti7 2.096985 1_455
O15 Zn0 2.291913 1_555
O16 Ti0 1.877511 1_545
O16 Ti7 2.098117 1_555
O16 Zn0 2.291231 1_655
O17 Ti1 1.877366 1_555
O17 Ti4 2.098029 1_555
O17 Zn1 2.291237 1_555
O18 Ti2 1.877448 1_555
O18 Ti5 2.098050 1_555
O18 Zn2 2.291228 1_655
O19 Ti3 1.877390 1_555
O19 Ti6 2.097991 1_555
O19 Zn3 2.291214 1_555
O20 Ti1 1.876029 1_555
O20 Ti6 2.097545 1_545
O20 Zn3 2.293574 1_545
O21 Ti2 1.875971 1_555
O21 Ti7 2.097210 1_555
O21 Zn0 2.293625 1_655
O22 Ti3 1.876068 1_555
O22 Ti4 2.097398 1_555
O22 Zn1 2.293519 1_555
O23 Ti0 1.875983 1_555
O23 Ti5 2.097162 1_555
O23 Zn2 2.293621 1_655
