# generated using pymatgen
data_Mg3Cr2(Si2O7)2
_symmetry_space_group_name_H-M   'P 1'
_cell_length_a   9.18276890
_cell_length_b   9.18276890
_cell_length_c   9.78868361
_cell_angle_alpha   59.50484206
_cell_angle_beta   59.50484206
_cell_angle_gamma   48.79458042
_symmetry_Int_Tables_number   1
_chemical_formula_structural   Mg3Cr2(Si2O7)2
_chemical_formula_sum   'Mg6 Cr4 Si8 O28'
_cell_volume   515.65669326
_cell_formula_units_Z   2
loop_
 _symmetry_equiv_pos_site_id
 _symmetry_equiv_pos_as_xyz
  1  'x, y, z'
loop_
 _atom_site_type_symbol
 _atom_site_label
 _atom_site_symmetry_multiplicity
 _atom_site_fract_x
 _atom_site_fract_y
 _atom_site_fract_z
 _atom_site_occupancy
  Mg  Mg0  1  0.09863500  0.26540000  0.08498300  1
  Mg  Mg1  1  0.73460000  0.90136500  0.41501700  1
  Mg  Mg2  1  0.26540000  0.09863500  0.58498300  1
  Mg  Mg3  1  0.37907900  0.62092100  0.75000000  1
  Mg  Mg4  1  0.90136500  0.73460000  0.91501700  1
  Mg  Mg5  1  0.62092100  0.37907900  0.25000000  1
  Cr  Cr0  1  0.78894100  0.21105900  0.75000000  1
  Cr  Cr1  1  0.21105900  0.78894100  0.25000000  1
  Cr  Cr2  1  0.00000000  0.00000000  0.00000000  1
  Cr  Cr3  1  0.00000000  0.00000000  0.50000000  1
  Si  Si0  1  0.53253900  0.10690300  0.70765400  1
  Si  Si1  1  0.10690300  0.53253900  0.20765400  1
  Si  Si2  1  0.52553100  0.22910200  0.10235900  1
  Si  Si3  1  0.22910200  0.52553100  0.60235900  1
  Si  Si4  1  0.89309700  0.46746100  0.79234600  1
  Si  Si5  1  0.47446900  0.77089800  0.89764100  1
  Si  Si6  1  0.77089800  0.47446900  0.39764100  1
  Si  Si7  1  0.46746100  0.89309700  0.29234600  1
  O  O0  1  0.85776900  0.28953100  0.32925000  1
  O  O1  1  0.96092700  0.87508700  0.42278800  1
  O  O2  1  0.47284000  0.62983500  0.08453000  1
  O  O3  1  0.87508700  0.96092700  0.92278800  1
  O  O4  1  0.25564700  0.93113800  0.32026500  1
  O  O5  1  0.06633000  0.48618100  0.62230900  1
  O  O6  1  0.62983500  0.47284000  0.58453000  1
  O  O7  1  0.06886200  0.74435300  0.17973500  1
  O  O8  1  0.93367000  0.51381900  0.37769100  1
  O  O9  1  0.64966400  0.67170300  0.25560400  1
  O  O10  1  0.03907300  0.12491300  0.57721200  1
  O  O11  1  0.74435300  0.06886200  0.67973500  1
  O  O12  1  0.51381900  0.93367000  0.87769100  1
  O  O13  1  0.28953100  0.85776900  0.82925000  1
  O  O14  1  0.67170300  0.64966400  0.75560400  1
  O  O15  1  0.93113800  0.25564700  0.82026500  1
  O  O16  1  0.90737800  0.49154700  0.93758500  1
  O  O17  1  0.35033600  0.32829700  0.74439600  1
  O  O18  1  0.50845300  0.09262200  0.56241500  1
  O  O19  1  0.32829700  0.35033600  0.24439600  1
  O  O20  1  0.48618100  0.06633000  0.12230900  1
  O  O21  1  0.12491300  0.03907300  0.07721200  1
  O  O22  1  0.49154700  0.90737800  0.43758500  1
  O  O23  1  0.52716000  0.37016500  0.91547000  1
  O  O24  1  0.09262200  0.50845300  0.06241500  1
  O  O25  1  0.37016500  0.52716000  0.41547000  1
  O  O26  1  0.71046900  0.14223100  0.17075000  1
  O  O27  1  0.14223100  0.71046900  0.67075000  1
loop_
_geom_bond_atom_site_label_1
_geom_bond_atom_site_label_2
_geom_bond_distance
_geom_bond_site_symmetry_2
Mg0 O21 1.965823 1_555
Mg0 O16 2.050453 1_454
Mg0 O24 2.093520 1_555
Mg0 O0 2.276585 1_455
Mg1 O1 1.965823 1_555
Mg1 O18 2.050453 1_565
Mg1 O22 2.093520 1_555
Mg1 O26 2.276585 1_565
Mg2 O10 1.965823 1_555
Mg2 O22 2.050453 1_545
Mg2 O18 2.093520 1_555
Mg2 O13 2.276585 1_545
Mg3 O23 2.024709 1_555
Mg3 O6 2.024709 1_555
Mg3 O27 2.171846 1_555
Mg3 O13 2.171846 1_555
Mg4 O3 1.965823 1_555
Mg4 O24 2.050453 1_656
Mg4 O16 2.093520 1_555
Mg4 O27 2.276585 1_655
Mg5 O25 2.024709 1_555
Mg5 O2 2.024709 1_555
Mg5 O26 2.171846 1_555
Mg5 O0 2.171846 1_555
Cr0 O10 1.945092 1_655
Cr0 O3 1.945092 1_545
Cr0 O11 2.060935 1_555
Cr0 O15 2.060935 1_555
Cr0 O6 2.087940 1_555
Cr0 O23 2.087940 1_555
Cr1 O21 1.945092 1_565
Cr1 O1 1.945092 1_455
Cr1 O7 2.060935 1_555
Cr1 O4 2.060935 1_555
Cr1 O2 2.087940 1_555
Cr1 O25 2.087940 1_555
Cr2 O3 1.926927 1_444
Cr2 O21 1.926927 1_555
Cr2 O15 1.996918 1_454
Cr2 O7 1.996918 1_545
Cr2 O13 2.167613 1_544
Cr2 O26 2.167613 1_455
Cr3 O10 1.926927 1_555
Cr3 O1 1.926927 1_445
Cr3 O11 1.996918 1_455
Cr3 O4 1.996918 1_545
Cr3 O27 2.167613 1_545
Cr3 O0 2.167613 1_455
O0 Si6 1.671991 1_555
O2 Si5 1.617873 1_554
O4 Si7 1.625454 1_555
O5 Si4 1.647135 1_455
O5 Si3 1.657271 1_555
O6 Si6 1.617873 1_555
O7 Si1 1.625454 1_555
O8 Si1 1.647135 1_655
O8 Si6 1.657271 1_555
O9 Si7 1.646717 1_555
O9 Si6 1.676727 1_555
O11 Si0 1.625454 1_555
O12 Si0 1.647135 1_565
O12 Si5 1.657271 1_555
O13 Si5 1.671991 1_555
O14 Si4 1.646717 1_555
O14 Si5 1.676727 1_555
O15 Si4 1.625454 1_555
O16 Si4 1.622936 1_555
O17 Si0 1.646717 1_555
O17 Si3 1.676727 1_555
O18 Si0 1.622936 1_555
O19 Si1 1.646717 1_555
O19 Si2 1.676727 1_555
O20 Si7 1.647135 1_545
O20 Si2 1.657271 1_555
O22 Si7 1.622936 1_555
O23 Si2 1.617873 1_556
O24 Si1 1.622936 1_555
O25 Si3 1.617873 1_555
O26 Si2 1.671991 1_555
O27 Si3 1.671991 1_555
