# generated using pymatgen
data_YMnCrO5
_symmetry_space_group_name_H-M   'P 1'
_cell_length_a   5.81692400
_cell_length_b   7.25047600
_cell_length_c   8.63666100
_cell_angle_alpha   90.00000000
_cell_angle_beta   90.00000000
_cell_angle_gamma   90.00000000
_symmetry_Int_Tables_number   1
_chemical_formula_structural   YMnCrO5
_chemical_formula_sum   'Y4 Mn4 Cr4 O20'
_cell_volume   364.25521839
_cell_formula_units_Z   4
loop_
 _symmetry_equiv_pos_site_id
 _symmetry_equiv_pos_as_xyz
  1  'x, y, z'
loop_
 _atom_site_type_symbol
 _atom_site_label
 _atom_site_symmetry_multiplicity
 _atom_site_fract_x
 _atom_site_fract_y
 _atom_site_fract_z
 _atom_site_occupancy
  Y  Y0  1  0.50000000  0.36152400  0.32686900  1
  Y  Y1  1  0.50000000  0.63847600  0.67313100  1
  Y  Y2  1  0.50000000  0.13847600  0.82686900  1
  Y  Y3  1  0.50000000  0.86152400  0.17313100  1
  Mn  Mn0  1  0.00000000  0.09362700  0.14955800  1
  Mn  Mn1  1  0.00000000  0.90637300  0.85044200  1
  Mn  Mn2  1  0.00000000  0.40637300  0.64955800  1
  Mn  Mn3  1  0.00000000  0.59362700  0.35044200  1
  Cr  Cr0  1  0.24845600  0.00000000  0.50000000  1
  Cr  Cr1  1  0.75154400  0.00000000  0.50000000  1
  Cr  Cr2  1  0.75154400  0.50000000  0.00000000  1
  Cr  Cr3  1  0.24845600  0.50000000  0.00000000  1
  O  O0  1  0.00000000  0.35286500  0.07789700  1
  O  O1  1  0.00000000  0.64713500  0.92210300  1
  O  O2  1  0.00000000  0.14713500  0.57789700  1
  O  O3  1  0.00000000  0.85286500  0.42210300  1
  O  O4  1  0.50000000  0.33202900  0.05524800  1
  O  O5  1  0.50000000  0.66797100  0.94475200  1
  O  O6  1  0.50000000  0.16797100  0.55524800  1
  O  O7  1  0.50000000  0.83202900  0.44475200  1
  O  O8  1  0.22393200  0.00000000  0.00000000  1
  O  O9  1  0.77606800  0.00000000  0.00000000  1
  O  O10  1  0.77606800  0.50000000  0.50000000  1
  O  O11  1  0.22393200  0.50000000  0.50000000  1
  O  O12  1  0.25933800  0.10823300  0.28892600  1
  O  O13  1  0.74066200  0.89176700  0.71107400  1
  O  O14  1  0.25933800  0.89176700  0.71107400  1
  O  O15  1  0.74066200  0.39176700  0.78892600  1
  O  O16  1  0.74066200  0.10823300  0.28892600  1
  O  O17  1  0.25933800  0.60823300  0.21107400  1
  O  O18  1  0.74066200  0.60823300  0.21107400  1
  O  O19  1  0.25933800  0.39176700  0.78892600  1
loop_
_geom_bond_atom_site_label_1
_geom_bond_atom_site_label_2
_geom_bond_distance
_geom_bond_site_symmetry_2
Mn0 O16 1.932813 1_455
Mn0 O12 1.932813 1_555
Mn0 O8 1.956022 1_555
Mn0 O9 1.956022 1_455
Mn0 O0 1.978874 1_555
Mn1 O13 1.932813 1_455
Mn1 O14 1.932813 1_555
Mn1 O8 1.956022 1_566
Mn1 O9 1.956022 1_466
Mn1 O1 1.978874 1_555
Mn2 O15 1.932813 1_455
Mn2 O19 1.932813 1_555
Mn2 O10 1.956022 1_455
Mn2 O11 1.956022 1_555
Mn2 O2 1.978874 1_555
Mn3 O18 1.932813 1_455
Mn3 O17 1.932813 1_555
Mn3 O10 1.956022 1_455
Mn3 O11 1.956022 1_555
Mn3 O3 1.978874 1_555
Cr0 O3 1.918183 1_545
Cr0 O2 1.918183 1_555
Cr0 O6 1.962620 1_555
Cr0 O7 1.962620 1_545
Cr0 O12 1.985714 1_555
Cr0 O14 1.985714 1_545
Cr1 O3 1.918183 1_645
Cr1 O2 1.918183 1_655
Cr1 O6 1.962620 1_555
Cr1 O7 1.962620 1_545
Cr1 O16 1.985714 1_555
Cr1 O13 1.985714 1_545
Cr2 O1 1.918183 1_654
Cr2 O0 1.918183 1_655
Cr2 O4 1.962620 1_555
Cr2 O5 1.962620 1_554
Cr2 O15 1.985714 1_554
Cr2 O18 1.985714 1_555
Cr3 O0 1.918183 1_555
Cr3 O1 1.918183 1_554
Cr3 O4 1.962620 1_555
Cr3 O5 1.962620 1_554
Cr3 O19 1.985714 1_554
Cr3 O17 1.985714 1_555
O4 Y0 2.355626 1_555
O4 Y2 2.420720 1_554
O5 Y1 2.355626 1_555
O5 Y3 2.420720 1_556
O6 Y2 2.355626 1_555
O6 Y0 2.420720 1_555
O7 Y3 2.355626 1_555
O7 Y1 2.420720 1_555
O8 Y3 2.413027 1_545
O8 Y2 2.413027 1_554
O9 Y3 2.413027 1_545
O9 Y2 2.413027 1_554
O10 Y0 2.413027 1_555
O10 Y1 2.413027 1_555
O11 Y0 2.413027 1_555
O11 Y1 2.413027 1_555
O12 Y0 2.332339 1_555
O12 Y3 2.481849 1_545
O13 Y1 2.332339 1_555
O13 Y2 2.481849 1_565
O14 Y1 2.332339 1_555
O14 Y2 2.481849 1_565
O15 Y2 2.332339 1_555
O15 Y1 2.481849 1_555
O16 Y0 2.332339 1_555
O16 Y3 2.481849 1_545
O17 Y3 2.332339 1_555
O17 Y0 2.481849 1_555
O18 Y3 2.332339 1_555
O18 Y0 2.481849 1_555
O19 Y2 2.332339 1_555
O19 Y1 2.481849 1_555
