# generated using pymatgen
data_Mn2CoO4
_symmetry_space_group_name_H-M   'P 1'
_cell_length_a   5.73131592
_cell_length_b   5.73030906
_cell_length_c   6.14807785
_cell_angle_alpha   62.17860461
_cell_angle_beta   62.22066125
_cell_angle_gamma   90.00296500
_symmetry_Int_Tables_number   1
_chemical_formula_structural   Mn2CoO4
_chemical_formula_sum   'Mn4 Co2 O8'
_cell_volume   151.76461266
_cell_formula_units_Z   2
loop_
 _symmetry_equiv_pos_site_id
 _symmetry_equiv_pos_as_xyz
  1  'x, y, z'
loop_
 _atom_site_type_symbol
 _atom_site_label
 _atom_site_symmetry_multiplicity
 _atom_site_fract_x
 _atom_site_fract_y
 _atom_site_fract_z
 _atom_site_occupancy
  Mn  Mn0  1  0.62500559  0.37496649  0.75001632  1
  Mn  Mn1  1  0.62497822  0.37494175  0.25001869  1
  Mn  Mn2  1  0.12496304  0.37494696  0.24999891  1
  Mn  Mn3  1  0.62502012  0.87502430  0.74999373  1
  Co  Co0  1  0.24984741  0.74945972  0.50031703  1
  Co  Co1  1  0.00019006  0.00056677  -0.00033808  1
  O  O0  1  0.40205061  0.12852285  0.74294854  1
  O  O1  1  0.85504026  0.12854318  0.74294610  1
  O  O2  1  0.39497285  0.62143442  0.75706310  1
  O  O3  1  0.84799374  0.62145045  0.75707378  1
  O  O4  1  0.87158612  0.14531507  0.25677473  1
  O  O5  1  0.87155356  0.59819240  0.25687858  1
  O  O6  1  0.37840795  0.15181388  0.24311735  1
  O  O7  1  0.37839047  0.60482376  0.24318924  1
loop_
_geom_bond_atom_site_label_1
_geom_bond_atom_site_label_2
_geom_bond_distance
_geom_bond_site_symmetry_2
Mn0 O0 1.933360 1_555
Mn0 O1 1.933420 1_555
Mn0 O2 1.933596 1_555
Mn0 O3 1.933616 1_555
Mn0 O6 2.282701 1_556
Mn0 O5 2.282852 1_555
Mn1 O4 1.932538 1_555
Mn1 O7 1.933454 1_555
Mn1 O6 1.933907 1_555
Mn1 O5 1.934230 1_555
Mn1 O0 2.281830 1_555
Mn1 O3 2.281872 1_554
Mn2 O4 1.932436 1_455
Mn2 O7 1.933458 1_555
Mn2 O6 1.933917 1_555
Mn2 O5 1.934199 1_455
Mn2 O2 2.281864 1_554
Mn2 O1 2.281885 1_455
Mn3 O1 1.933416 1_565
Mn3 O0 1.933417 1_565
Mn3 O2 1.933736 1_555
Mn3 O3 1.933749 1_555
Mn3 O7 2.282950 1_556
Mn3 O4 2.283084 1_565
Co0 O3 1.965827 1_455
Co0 O2 1.965866 1_555
Co0 O7 1.966266 1_555
Co0 O6 1.967193 1_565
Co1 O1 1.965824 1_454
Co1 O0 1.965836 1_554
Co1 O4 1.966703 1_455
Co1 O5 1.967294 1_445
