# generated using pymatgen
data_TiZnSnO4
_symmetry_space_group_name_H-M   'P 1'
_cell_length_a   9.31378439
_cell_length_b   9.31378439
_cell_length_c   9.27246300
_cell_angle_alpha   90.00000000
_cell_angle_beta   90.00000000
_cell_angle_gamma   120.00000277
_symmetry_Int_Tables_number   1
_chemical_formula_structural   TiZnSnO4
_chemical_formula_sum   'Ti6 Zn6 Sn6 O24'
_cell_volume   696.59136819
_cell_formula_units_Z   6
loop_
 _symmetry_equiv_pos_site_id
 _symmetry_equiv_pos_as_xyz
  1  'x, y, z'
loop_
 _atom_site_type_symbol
 _atom_site_label
 _atom_site_symmetry_multiplicity
 _atom_site_fract_x
 _atom_site_fract_y
 _atom_site_fract_z
 _atom_site_occupancy
  Ti  Ti0  1  0.69126300  0.67435500  0.92660400  1
  Ti  Ti1  1  0.98309200  0.30873700  0.92660400  1
  Ti  Ti2  1  0.32564500  0.01690800  0.92660400  1
  Ti  Ti3  1  0.30873700  0.32564500  0.42660400  1
  Ti  Ti4  1  0.01690800  0.69126300  0.42660400  1
  Ti  Ti5  1  0.67435500  0.98309200  0.42660400  1
  Zn  Zn0  1  0.02334200  0.66824400  0.04997500  1
  Zn  Zn1  1  0.64490200  0.97665800  0.04997500  1
  Zn  Zn2  1  0.33175600  0.35509800  0.04997500  1
  Zn  Zn3  1  0.97665800  0.33175600  0.54997500  1
  Zn  Zn4  1  0.35509800  0.02334200  0.54997500  1
  Zn  Zn5  1  0.66824400  0.64490200  0.54997500  1
  Sn  Sn0  1  0.00000000  0.00000000  0.67091900  1
  Sn  Sn1  1  0.00000000  0.00000000  0.17091900  1
  Sn  Sn2  1  0.66666700  0.33333300  0.83117100  1
  Sn  Sn3  1  0.33333300  0.66666700  0.33117100  1
  Sn  Sn4  1  0.33333300  0.66666700  0.79519500  1
  Sn  Sn5  1  0.66666700  0.33333300  0.29519500  1
  O  O0  1  0.88594300  0.77973700  0.03348400  1
  O  O1  1  0.89379400  0.11405700  0.03348400  1
  O  O2  1  0.22026300  0.10620600  0.03348400  1
  O  O3  1  0.11405700  0.22026300  0.53348400  1
  O  O4  1  0.10620600  0.88594300  0.53348400  1
  O  O5  1  0.77973700  0.89379400  0.53348400  1
  O  O6  1  0.56329400  0.45648500  0.98625000  1
  O  O7  1  0.89319100  0.43670600  0.98625000  1
  O  O8  1  0.54351500  0.10680900  0.98625000  1
  O  O9  1  0.43670600  0.54351500  0.48625000  1
  O  O10  1  0.10680900  0.56329400  0.48625000  1
  O  O11  1  0.45648500  0.89319100  0.48625000  1
  O  O12  1  0.56018600  0.77324300  0.92491700  1
  O  O13  1  0.21305700  0.43981400  0.92491700  1
  O  O14  1  0.22675700  0.78694300  0.92491700  1
  O  O15  1  0.43981400  0.22675700  0.42491700  1
  O  O16  1  0.78694300  0.56018600  0.42491700  1
  O  O17  1  0.77324300  0.21305700  0.42491700  1
  O  O18  1  0.10150000  0.74232900  0.24736500  1
  O  O19  1  0.64082900  0.89850000  0.24736500  1
  O  O20  1  0.25767100  0.35917100  0.24736500  1
  O  O21  1  0.89850000  0.25767100  0.74736500  1
  O  O22  1  0.35917100  0.10150000  0.74736500  1
  O  O23  1  0.74232900  0.64082900  0.74736500  1
loop_
_geom_bond_atom_site_label_1
_geom_bond_atom_site_label_2
_geom_bond_distance
_geom_bond_site_symmetry_2
O0 Ti0 1.858377 1_554
O0 Zn0 2.016983 1_655
O0 Sn1 2.186725 1_665
O1 Ti1 1.858377 1_554
O1 Zn1 2.016983 1_545
O1 Sn1 2.186725 1_655
O2 Ti2 1.858377 1_554
O2 Zn2 2.016983 1_555
O2 Sn1 2.186725 1_555
O3 Ti3 1.858377 1_555
O3 Zn3 2.016983 1_455
O3 Sn0 2.186725 1_555
O4 Ti4 1.858377 1_555
O4 Zn4 2.016983 1_565
O4 Sn0 2.186725 1_565
O5 Ti5 1.858377 1_555
O5 Zn5 2.016983 1_555
O5 Sn0 2.186725 1_665
O6 Ti0 1.850819 1_555
O6 Zn2 1.963401 1_556
O6 Sn2 2.326947 1_555
O7 Ti1 1.850819 1_555
O7 Zn0 1.963401 1_656
O7 Sn2 2.326941 1_555
O8 Ti2 1.850819 1_555
O8 Zn1 1.963401 1_546
O8 Sn2 2.326941 1_555
O9 Ti3 1.850819 1_555
O9 Zn5 1.963401 1_555
O9 Sn3 2.326947 1_555
O10 Ti4 1.850819 1_555
O10 Zn3 1.963401 1_455
O10 Sn3 2.326941 1_555
O11 Ti5 1.850819 1_555
O11 Zn4 1.963401 1_565
O11 Sn3 2.326941 1_555
O12 Ti0 1.861005 1_555
O12 Zn1 2.015375 1_556
O12 Sn4 2.190670 1_555
O13 Ti1 1.861005 1_455
O13 Zn2 2.015375 1_556
O13 Sn4 2.190669 1_555
O14 Ti2 1.861005 1_565
O14 Zn0 2.015375 1_556
O14 Sn4 2.190663 1_555
O15 Ti3 1.861005 1_555
O15 Zn4 2.015375 1_555
O15 Sn5 2.190670 1_555
O16 Ti4 1.861005 1_655
O16 Zn5 2.015375 1_555
O16 Sn5 2.190669 1_555
O17 Ti5 1.861005 1_545
O17 Zn3 2.015375 1_555
O17 Sn5 2.190663 1_555
O18 Ti4 1.798452 1_555
O18 Zn0 1.963084 1_555
O18 Sn3 2.698965 1_555
O19 Ti5 1.798452 1_555
O19 Zn1 1.963084 1_555
O19 Sn3 2.698971 1_555
O20 Ti3 1.798452 1_555
O20 Zn2 1.963084 1_555
O20 Sn3 2.698974 1_555
O21 Ti1 1.798452 1_555
O21 Zn3 1.963084 1_555
O21 Sn2 2.698965 1_555
O22 Ti2 1.798452 1_555
O22 Zn4 1.963084 1_555
O22 Sn2 2.698971 1_555
O23 Ti0 1.798452 1_555
O23 Zn5 1.963084 1_555
O23 Sn2 2.698974 1_555
