# generated using pymatgen
data_MgZn4Ag5
_symmetry_space_group_name_H-M   'P 1'
_cell_length_a   6.27314200
_cell_length_b   6.27314200
_cell_length_c   33.97326000
_cell_angle_alpha   90.00000000
_cell_angle_beta   90.00000000
_cell_angle_gamma   90.00000000
_symmetry_Int_Tables_number   1
_chemical_formula_structural   MgZn4Ag5
_chemical_formula_sum   'Mg8 Zn32 Ag40'
_cell_volume   1336.92627799
_cell_formula_units_Z   8
loop_
 _symmetry_equiv_pos_site_id
 _symmetry_equiv_pos_as_xyz
  1  'x, y, z'
loop_
 _atom_site_type_symbol
 _atom_site_label
 _atom_site_symmetry_multiplicity
 _atom_site_fract_x
 _atom_site_fract_y
 _atom_site_fract_z
 _atom_site_occupancy
  Mg  Mg0_0  1  0.25000000  0.25000000  0.05000000  1
  Mg  Mg0_1  1  0.25000000  0.25000000  0.55000000  1
  Mg  Mg0_2  1  0.25000000  0.75000000  0.05000000  1
  Mg  Mg0_3  1  0.25000000  0.75000000  0.55000000  1
  Mg  Mg0_4  1  0.75000000  0.25000000  0.05000000  1
  Mg  Mg0_5  1  0.75000000  0.25000000  0.55000000  1
  Mg  Mg0_6  1  0.75000000  0.75000000  0.05000000  1
  Mg  Mg0_7  1  0.75000000  0.75000000  0.55000000  1
  Zn  Zn0_0  1  0.25000000  0.25000000  0.15251850  1
  Zn  Zn0_1  1  0.25000000  0.25000000  0.65251850  1
  Zn  Zn0_2  1  0.25000000  0.75000000  0.15251850  1
  Zn  Zn0_3  1  0.25000000  0.75000000  0.65251850  1
  Zn  Zn0_4  1  0.75000000  0.25000000  0.15251850  1
  Zn  Zn0_5  1  0.75000000  0.25000000  0.65251850  1
  Zn  Zn0_6  1  0.75000000  0.75000000  0.15251850  1
  Zn  Zn0_7  1  0.75000000  0.75000000  0.65251850  1
  Zn  Zn1_0  1  0.25000000  0.25000000  0.25034250  1
  Zn  Zn1_1  1  0.25000000  0.25000000  0.75034250  1
  Zn  Zn1_2  1  0.25000000  0.75000000  0.25034250  1
  Zn  Zn1_3  1  0.25000000  0.75000000  0.75034250  1
  Zn  Zn1_4  1  0.75000000  0.25000000  0.25034250  1
  Zn  Zn1_5  1  0.75000000  0.25000000  0.75034250  1
  Zn  Zn1_6  1  0.75000000  0.75000000  0.25034250  1
  Zn  Zn1_7  1  0.75000000  0.75000000  0.75034250  1
  Zn  Zn2_0  1  0.25000000  0.25000000  0.34965750  1
  Zn  Zn2_1  1  0.25000000  0.25000000  0.84965750  1
  Zn  Zn2_2  1  0.25000000  0.75000000  0.34965750  1
  Zn  Zn2_3  1  0.25000000  0.75000000  0.84965750  1
  Zn  Zn2_4  1  0.75000000  0.25000000  0.34965750  1
  Zn  Zn2_5  1  0.75000000  0.25000000  0.84965750  1
  Zn  Zn2_6  1  0.75000000  0.75000000  0.34965750  1
  Zn  Zn2_7  1  0.75000000  0.75000000  0.84965750  1
  Zn  Zn3_0  1  0.25000000  0.25000000  0.44748150  1
  Zn  Zn3_1  1  0.25000000  0.25000000  0.94748150  1
  Zn  Zn3_2  1  0.25000000  0.75000000  0.44748150  1
  Zn  Zn3_3  1  0.25000000  0.75000000  0.94748150  1
  Zn  Zn3_4  1  0.75000000  0.25000000  0.44748150  1
  Zn  Zn3_5  1  0.75000000  0.25000000  0.94748150  1
  Zn  Zn3_6  1  0.75000000  0.75000000  0.44748150  1
  Zn  Zn3_7  1  0.75000000  0.75000000  0.94748150  1
  Ag  Ag0_0  1  0.00000000  0.00000000  0.49565650  1
  Ag  Ag0_1  1  0.00000000  0.00000000  0.99565650  1
  Ag  Ag0_2  1  0.00000000  0.50000000  0.49565650  1
  Ag  Ag0_3  1  0.00000000  0.50000000  0.99565650  1
  Ag  Ag0_4  1  0.50000000  0.00000000  0.49565650  1
  Ag  Ag0_5  1  0.50000000  0.00000000  0.99565650  1
  Ag  Ag0_6  1  0.50000000  0.50000000  0.49565650  1
  Ag  Ag0_7  1  0.50000000  0.50000000  0.99565650  1
  Ag  Ag1_0  1  0.00000000  0.00000000  0.10434350  1
  Ag  Ag1_1  1  0.00000000  0.00000000  0.60434350  1
  Ag  Ag1_2  1  0.00000000  0.50000000  0.10434350  1
  Ag  Ag1_3  1  0.00000000  0.50000000  0.60434350  1
  Ag  Ag1_4  1  0.50000000  0.00000000  0.10434350  1
  Ag  Ag1_5  1  0.50000000  0.00000000  0.60434350  1
  Ag  Ag1_6  1  0.50000000  0.50000000  0.10434350  1
  Ag  Ag1_7  1  0.50000000  0.50000000  0.60434350  1
  Ag  Ag2_0  1  0.00000000  0.00000000  0.20137100  1
  Ag  Ag2_1  1  0.00000000  0.00000000  0.70137100  1
  Ag  Ag2_2  1  0.00000000  0.50000000  0.20137100  1
  Ag  Ag2_3  1  0.00000000  0.50000000  0.70137100  1
  Ag  Ag2_4  1  0.50000000  0.00000000  0.20137100  1
  Ag  Ag2_5  1  0.50000000  0.00000000  0.70137100  1
  Ag  Ag2_6  1  0.50000000  0.50000000  0.20137100  1
  Ag  Ag2_7  1  0.50000000  0.50000000  0.70137100  1
  Ag  Ag3_0  1  0.00000000  0.00000000  0.30000000  1
  Ag  Ag3_1  1  0.00000000  0.00000000  0.80000000  1
  Ag  Ag3_2  1  0.00000000  0.50000000  0.30000000  1
  Ag  Ag3_3  1  0.00000000  0.50000000  0.80000000  1
  Ag  Ag3_4  1  0.50000000  0.00000000  0.30000000  1
  Ag  Ag3_5  1  0.50000000  0.00000000  0.80000000  1
  Ag  Ag3_6  1  0.50000000  0.50000000  0.30000000  1
  Ag  Ag3_7  1  0.50000000  0.50000000  0.80000000  1
  Ag  Ag4_0  1  0.00000000  0.00000000  0.39862900  1
  Ag  Ag4_1  1  0.00000000  0.00000000  0.89862900  1
  Ag  Ag4_2  1  0.00000000  0.50000000  0.39862900  1
  Ag  Ag4_3  1  0.00000000  0.50000000  0.89862900  1
  Ag  Ag4_4  1  0.50000000  0.00000000  0.39862900  1
  Ag  Ag4_5  1  0.50000000  0.00000000  0.89862900  1
  Ag  Ag4_6  1  0.50000000  0.50000000  0.39862900  1
  Ag  Ag4_7  1  0.50000000  0.50000000  0.89862900  1
loop_
_geom_bond_atom_site_label_1
_geom_bond_atom_site_label_2
_geom_bond_distance
_geom_bond_site_symmetry_2
Mg0_0 Mg0_2 3.136571 1_555
Mg0_0 Mg0_2 3.136571 1_545
Mg0_0 Mg0_4 3.136571 1_455
Mg0_0 Mg0_4 3.136571 1_555
Mg0_1 Mg0_5 3.136571 1_455
Mg0_1 Mg0_5 3.136571 1_555
Mg0_1 Mg0_3 3.136571 1_545
Mg0_1 Mg0_3 3.136571 1_555
Mg0_2 Mg0_6 3.136571 1_455
Mg0_2 Mg0_6 3.136571 1_555
Mg0_3 Mg0_7 3.136571 1_455
Mg0_3 Mg0_7 3.136571 1_555
Mg0_4 Mg0_6 3.136571 1_555
Mg0_4 Mg0_6 3.136571 1_545
Mg0_5 Mg0_7 3.136571 1_545
Mg0_5 Mg0_7 3.136571 1_555
Ag0_0 Zn3_4 2.756393 1_455
Ag0_0 Zn3_2 2.756393 1_545
Ag0_0 Zn3_6 2.756393 1_445
Ag0_0 Zn3_0 2.756393 1_555
Ag0_0 Mg0_1 2.885756 1_555
Ag0_0 Mg0_5 2.885756 1_455
Ag0_0 Mg0_7 2.885756 1_445
Ag0_0 Mg0_3 2.885756 1_545
Ag0_1 Zn3_7 2.756393 1_445
Ag0_1 Zn3_3 2.756393 1_545
Ag0_1 Zn3_5 2.756393 1_455
Ag0_1 Zn3_1 2.756393 1_555
Ag0_1 Mg0_4 2.885756 1_456
Ag0_1 Mg0_0 2.885756 1_556
Ag0_1 Mg0_6 2.885756 1_446
Ag0_1 Mg0_2 2.885756 1_546
Ag0_2 Zn3_4 2.756393 1_455
Ag0_2 Zn3_0 2.756393 1_555
Ag0_2 Zn3_6 2.756393 1_455
Ag0_2 Zn3_2 2.756393 1_555
Ag0_2 Mg0_1 2.885756 1_555
Ag0_2 Mg0_5 2.885756 1_455
Ag0_2 Mg0_3 2.885756 1_555
Ag0_2 Mg0_7 2.885756 1_455
Ag0_3 Zn3_5 2.756393 1_455
Ag0_3 Zn3_1 2.756393 1_555
Ag0_3 Zn3_3 2.756393 1_555
Ag0_3 Zn3_7 2.756393 1_455
Ag0_3 Mg0_4 2.885756 1_456
Ag0_3 Mg0_0 2.885756 1_556
Ag0_3 Mg0_2 2.885756 1_556
Ag0_3 Mg0_6 2.885756 1_456
Ag0_4 Zn3_2 2.756393 1_545
Ag0_4 Zn3_0 2.756393 1_555
Ag0_4 Zn3_6 2.756393 1_545
Ag0_4 Zn3_4 2.756393 1_555
Ag0_4 Mg0_1 2.885756 1_555
Ag0_4 Mg0_5 2.885756 1_555
Ag0_4 Mg0_3 2.885756 1_545
Ag0_4 Mg0_7 2.885756 1_545
Ag0_5 Zn3_3 2.756393 1_545
Ag0_5 Zn3_1 2.756393 1_555
Ag0_5 Zn3_5 2.756393 1_555
Ag0_5 Zn3_7 2.756393 1_545
Ag0_5 Mg0_0 2.885756 1_556
Ag0_5 Mg0_4 2.885756 1_556
Ag0_5 Mg0_2 2.885756 1_546
Ag0_5 Mg0_6 2.885756 1_546
Ag0_6 Zn3_0 2.756393 1_555
Ag0_6 Zn3_4 2.756393 1_555
Ag0_6 Zn3_6 2.756393 1_555
Ag0_6 Zn3_2 2.756393 1_555
Ag0_6 Mg0_1 2.885756 1_555
Ag0_6 Mg0_5 2.885756 1_555
Ag0_6 Mg0_3 2.885756 1_555
Ag0_6 Mg0_7 2.885756 1_555
Ag0_7 Zn3_1 2.756393 1_555
Ag0_7 Zn3_5 2.756393 1_555
Ag0_7 Zn3_3 2.756393 1_555
Ag0_7 Zn3_7 2.756393 1_555
Ag0_7 Mg0_0 2.885756 1_556
Ag0_7 Mg0_4 2.885756 1_556
Ag0_7 Mg0_2 2.885756 1_556
Ag0_7 Mg0_6 2.885756 1_556
Ag1_0 Zn0_6 2.756393 1_445
Ag1_0 Zn0_2 2.756393 1_545
Ag1_0 Zn0_4 2.756393 1_455
Ag1_0 Zn0_0 2.756393 1_555
Ag1_0 Mg0_6 2.885756 1_445
Ag1_0 Mg0_0 2.885756 1_555
Ag1_0 Mg0_2 2.885756 1_545
Ag1_0 Mg0_4 2.885756 1_455
Ag1_1 Zn0_3 2.756393 1_545
Ag1_1 Zn0_5 2.756393 1_455
Ag1_1 Zn0_7 2.756393 1_445
Ag1_1 Zn0_1 2.756393 1_555
Ag1_1 Mg0_1 2.885756 1_555
Ag1_1 Mg0_5 2.885756 1_455
Ag1_1 Mg0_7 2.885756 1_445
Ag1_1 Mg0_3 2.885756 1_545
Ag1_2 Zn0_2 2.756393 1_555
Ag1_2 Zn0_4 2.756393 1_455
Ag1_2 Zn0_0 2.756393 1_555
Ag1_2 Zn0_6 2.756393 1_455
Ag1_2 Mg0_2 2.885756 1_555
Ag1_2 Mg0_6 2.885756 1_455
Ag1_2 Mg0_0 2.885756 1_555
Ag1_2 Mg0_4 2.885756 1_455
Ag1_3 Zn0_5 2.756393 1_455
Ag1_3 Zn0_1 2.756393 1_555
Ag1_3 Zn0_7 2.756393 1_455
Ag1_3 Zn0_3 2.756393 1_555
Ag1_3 Mg0_1 2.885756 1_555
Ag1_3 Mg0_5 2.885756 1_455
Ag1_3 Mg0_7 2.885756 1_455
Ag1_3 Mg0_3 2.885756 1_555
Ag1_4 Zn0_2 2.756393 1_545
Ag1_4 Zn0_4 2.756393 1_555
Ag1_4 Zn0_0 2.756393 1_555
Ag1_4 Zn0_6 2.756393 1_545
Ag1_4 Mg0_0 2.885756 1_555
Ag1_4 Mg0_2 2.885756 1_545
Ag1_4 Mg0_6 2.885756 1_545
Ag1_4 Mg0_4 2.885756 1_555
Ag1_5 Zn0_3 2.756393 1_545
Ag1_5 Zn0_1 2.756393 1_555
Ag1_5 Zn0_7 2.756393 1_545
Ag1_5 Zn0_5 2.756393 1_555
Ag1_5 Mg0_1 2.885756 1_555
Ag1_5 Mg0_5 2.885756 1_555
Ag1_5 Mg0_3 2.885756 1_545
Ag1_5 Mg0_7 2.885756 1_545
Ag1_6 Zn0_2 2.756393 1_555
Ag1_6 Zn0_4 2.756393 1_555
Ag1_6 Zn0_0 2.756393 1_555
Ag1_6 Zn0_6 2.756393 1_555
Ag1_6 Mg0_2 2.885756 1_555
Ag1_6 Mg0_0 2.885756 1_555
Ag1_6 Mg0_4 2.885756 1_555
Ag1_6 Mg0_6 2.885756 1_555
Ag1_7 Zn0_1 2.756393 1_555
Ag1_7 Zn0_3 2.756393 1_555
Ag1_7 Zn0_5 2.756393 1_555
Ag1_7 Zn0_7 2.756393 1_555
Ag1_7 Mg0_1 2.885756 1_555
Ag1_7 Mg0_7 2.885756 1_555
Ag1_7 Mg0_5 2.885756 1_555
Ag1_7 Mg0_3 2.885756 1_555
Ag2_0 Zn0_4 2.770121 1_455
Ag2_0 Zn0_0 2.770121 1_555
Ag2_0 Zn0_2 2.770121 1_545
Ag2_0 Zn0_6 2.770121 1_445
Ag2_0 Zn1_2 2.772545 1_545
Ag2_0 Zn1_6 2.772545 1_445
Ag2_0 Zn1_0 2.772545 1_555
Ag2_0 Zn1_4 2.772545 1_455
Ag2_1 Zn0_1 2.770121 1_555
Ag2_1 Zn0_5 2.770121 1_455
Ag2_1 Zn0_7 2.770121 1_445
Ag2_1 Zn0_3 2.770121 1_545
Ag2_1 Zn1_1 2.772545 1_555
Ag2_1 Zn1_7 2.772545 1_445
Ag2_1 Zn1_5 2.772545 1_455
Ag2_1 Zn1_3 2.772545 1_545
Ag2_2 Zn0_4 2.770121 1_455
Ag2_2 Zn0_0 2.770121 1_555
Ag2_2 Zn0_2 2.770121 1_555
Ag2_2 Zn0_6 2.770121 1_455
Ag2_2 Zn1_0 2.772545 1_555
Ag2_2 Zn1_4 2.772545 1_455
Ag2_2 Zn1_2 2.772545 1_555
Ag2_2 Zn1_6 2.772545 1_455
Ag2_3 Zn0_3 2.770121 1_555
Ag2_3 Zn0_1 2.770121 1_555
Ag2_3 Zn0_5 2.770121 1_455
Ag2_3 Zn0_7 2.770121 1_455
Ag2_3 Zn1_1 2.772545 1_555
Ag2_3 Zn1_3 2.772545 1_555
Ag2_3 Zn1_5 2.772545 1_455
Ag2_3 Zn1_7 2.772545 1_455
Ag2_4 Zn0_0 2.770121 1_555
Ag2_4 Zn0_2 2.770121 1_545
Ag2_4 Zn0_4 2.770121 1_555
Ag2_4 Zn0_6 2.770121 1_545
Ag2_4 Zn1_2 2.772545 1_545
Ag2_4 Zn1_0 2.772545 1_555
Ag2_4 Zn1_6 2.772545 1_545
Ag2_4 Zn1_4 2.772545 1_555
Ag2_5 Zn0_1 2.770121 1_555
Ag2_5 Zn0_3 2.770121 1_545
Ag2_5 Zn0_5 2.770121 1_555
Ag2_5 Zn0_7 2.770121 1_545
Ag2_5 Zn1_1 2.772545 1_555
Ag2_5 Zn1_5 2.772545 1_555
Ag2_5 Zn1_3 2.772545 1_545
Ag2_5 Zn1_7 2.772545 1_545
Ag2_6 Zn0_0 2.770121 1_555
Ag2_6 Zn0_2 2.770121 1_555
Ag2_6 Zn0_6 2.770121 1_555
Ag2_6 Zn0_4 2.770121 1_555
Ag2_6 Zn1_0 2.772545 1_555
Ag2_6 Zn1_2 2.772545 1_555
Ag2_6 Zn1_6 2.772545 1_555
Ag2_6 Zn1_4 2.772545 1_555
Ag2_7 Zn0_3 2.770121 1_555
Ag2_7 Zn0_1 2.770121 1_555
Ag2_7 Zn0_5 2.770121 1_555
Ag2_7 Zn0_7 2.770121 1_555
Ag2_7 Zn1_1 2.772545 1_555
Ag2_7 Zn1_5 2.772545 1_555
Ag2_7 Zn1_3 2.772545 1_555
Ag2_7 Zn1_7 2.772545 1_555
Ag3_0 Zn2_6 2.786593 1_445
Ag3_0 Zn2_0 2.786593 1_555
Ag3_0 Zn2_4 2.786593 1_455
Ag3_0 Zn2_2 2.786593 1_545
Ag3_0 Zn1_6 2.786593 1_445
Ag3_0 Zn1_0 2.786593 1_555
Ag3_0 Zn1_2 2.786593 1_545
Ag3_0 Zn1_4 2.786593 1_455
Ag3_1 Zn2_7 2.786593 1_445
Ag3_1 Zn2_3 2.786593 1_545
Ag3_1 Zn2_5 2.786593 1_455
Ag3_1 Zn2_1 2.786593 1_555
Ag3_1 Zn1_1 2.786593 1_555
Ag3_1 Zn1_5 2.786593 1_455
Ag3_1 Zn1_7 2.786593 1_445
Ag3_1 Zn1_3 2.786593 1_545
Ag3_2 Zn2_0 2.786593 1_555
Ag3_2 Zn2_4 2.786593 1_455
Ag3_2 Zn2_2 2.786593 1_555
Ag3_2 Zn2_6 2.786593 1_455
Ag3_2 Zn1_0 2.786593 1_555
Ag3_2 Zn1_4 2.786593 1_455
Ag3_2 Zn1_2 2.786593 1_555
Ag3_2 Zn1_6 2.786593 1_455
Ag3_3 Zn2_5 2.786593 1_455
Ag3_3 Zn2_1 2.786593 1_555
Ag3_3 Zn2_3 2.786593 1_555
Ag3_3 Zn2_7 2.786593 1_455
Ag3_3 Zn1_1 2.786593 1_555
Ag3_3 Zn1_5 2.786593 1_455
Ag3_3 Zn1_3 2.786593 1_555
Ag3_3 Zn1_7 2.786593 1_455
Ag3_4 Zn2_0 2.786593 1_555
Ag3_4 Zn2_4 2.786593 1_555
Ag3_4 Zn2_2 2.786593 1_545
Ag3_4 Zn2_6 2.786593 1_545
Ag3_4 Zn1_0 2.786593 1_555
Ag3_4 Zn1_2 2.786593 1_545
Ag3_4 Zn1_6 2.786593 1_545
Ag3_4 Zn1_4 2.786593 1_555
Ag3_5 Zn2_3 2.786593 1_545
Ag3_5 Zn2_1 2.786593 1_555
Ag3_5 Zn2_7 2.786593 1_545
Ag3_5 Zn2_5 2.786593 1_555
Ag3_5 Zn1_1 2.786593 1_555
Ag3_5 Zn1_7 2.786593 1_545
Ag3_5 Zn1_5 2.786593 1_555
Ag3_5 Zn1_3 2.786593 1_545
Ag3_6 Zn2_0 2.786593 1_555
Ag3_6 Zn2_4 2.786593 1_555
Ag3_6 Zn2_2 2.786593 1_555
Ag3_6 Zn2_6 2.786593 1_555
Ag3_6 Zn1_0 2.786593 1_555
Ag3_6 Zn1_4 2.786593 1_555
Ag3_6 Zn1_6 2.786593 1_555
Ag3_6 Zn1_2 2.786593 1_555
Ag3_7 Zn2_1 2.786593 1_555
Ag3_7 Zn2_3 2.786593 1_555
Ag3_7 Zn2_7 2.786593 1_555
Ag3_7 Zn2_5 2.786593 1_555
Ag3_7 Zn1_1 2.786593 1_555
Ag3_7 Zn1_5 2.786593 1_555
Ag3_7 Zn1_3 2.786593 1_555
Ag3_7 Zn1_7 2.786593 1_555
Ag4_0 Zn3_4 2.770121 1_455
Ag4_0 Zn3_2 2.770121 1_545
Ag4_0 Zn3_6 2.770121 1_445
Ag4_0 Zn3_0 2.770121 1_555
Ag4_0 Zn2_6 2.772545 1_445
Ag4_0 Zn2_2 2.772545 1_545
Ag4_0 Zn2_0 2.772545 1_555
Ag4_0 Zn2_4 2.772545 1_455
Ag4_1 Zn3_3 2.770121 1_545
Ag4_1 Zn3_5 2.770121 1_455
Ag4_1 Zn3_7 2.770121 1_445
Ag4_1 Zn3_1 2.770121 1_555
Ag4_1 Zn2_7 2.772545 1_445
Ag4_1 Zn2_3 2.772545 1_545
Ag4_1 Zn2_1 2.772545 1_555
Ag4_1 Zn2_5 2.772545 1_455
Ag4_2 Zn3_4 2.770121 1_455
Ag4_2 Zn3_0 2.770121 1_555
Ag4_2 Zn3_6 2.770121 1_455
Ag4_2 Zn3_2 2.770121 1_555
Ag4_2 Zn2_0 2.772545 1_555
Ag4_2 Zn2_4 2.772545 1_455
Ag4_2 Zn2_6 2.772545 1_455
Ag4_2 Zn2_2 2.772545 1_555
Ag4_3 Zn3_5 2.770121 1_455
Ag4_3 Zn3_1 2.770121 1_555
Ag4_3 Zn3_3 2.770121 1_555
Ag4_3 Zn3_7 2.770121 1_455
Ag4_3 Zn2_3 2.772545 1_555
Ag4_3 Zn2_1 2.772545 1_555
Ag4_3 Zn2_5 2.772545 1_455
Ag4_3 Zn2_7 2.772545 1_455
Ag4_4 Zn3_2 2.770121 1_545
Ag4_4 Zn3_0 2.770121 1_555
Ag4_4 Zn3_6 2.770121 1_545
Ag4_4 Zn3_4 2.770121 1_555
Ag4_4 Zn2_2 2.772545 1_545
Ag4_4 Zn2_0 2.772545 1_555
Ag4_4 Zn2_4 2.772545 1_555
Ag4_4 Zn2_6 2.772545 1_545
Ag4_5 Zn3_3 2.770121 1_545
Ag4_5 Zn3_1 2.770121 1_555
Ag4_5 Zn3_7 2.770121 1_545
Ag4_5 Zn3_5 2.770121 1_555
Ag4_5 Zn2_5 2.772545 1_555
Ag4_5 Zn2_3 2.772545 1_545
Ag4_5 Zn2_1 2.772545 1_555
Ag4_5 Zn2_7 2.772545 1_545
Ag4_6 Zn3_0 2.770121 1_555
Ag4_6 Zn3_4 2.770121 1_555
Ag4_6 Zn3_6 2.770121 1_555
Ag4_6 Zn3_2 2.770121 1_555
Ag4_6 Zn2_0 2.772545 1_555
Ag4_6 Zn2_4 2.772545 1_555
Ag4_6 Zn2_2 2.772545 1_555
Ag4_6 Zn2_6 2.772545 1_555
Ag4_7 Zn3_1 2.770121 1_555
Ag4_7 Zn3_3 2.770121 1_555
Ag4_7 Zn3_7 2.770121 1_555
Ag4_7 Zn3_5 2.770121 1_555
Ag4_7 Zn2_5 2.772545 1_555
Ag4_7 Zn2_3 2.772545 1_555
Ag4_7 Zn2_1 2.772545 1_555
Ag4_7 Zn2_7 2.772545 1_555
