# generated using pymatgen
data_Sc5(SiN3)3
_symmetry_space_group_name_H-M   'P 1'
_cell_length_a   7.35831209
_cell_length_b   10.53344545
_cell_length_c   14.66567300
_cell_angle_alpha   90.00000000
_cell_angle_beta   90.00000000
_cell_angle_gamma   135.70481750
_symmetry_Int_Tables_number   1
_chemical_formula_structural   Sc5(SiN3)3
_chemical_formula_sum   'Sc20 Si12 N36'
_cell_volume   793.82900791
_cell_formula_units_Z   4
loop_
 _symmetry_equiv_pos_site_id
 _symmetry_equiv_pos_as_xyz
  1  'x, y, z'
loop_
 _atom_site_type_symbol
 _atom_site_label
 _atom_site_symmetry_multiplicity
 _atom_site_fract_x
 _atom_site_fract_y
 _atom_site_fract_z
 _atom_site_occupancy
  Sc  Sc0  1  0.00000000  0.50698700  0.83242700  1
  Sc  Sc1  1  0.00000000  0.49301300  0.16757300  1
  Sc  Sc2  1  0.00000000  0.99301300  0.33242700  1
  Sc  Sc3  1  0.00000000  0.00698700  0.66757300  1
  Sc  Sc4  1  0.37122000  0.96447000  0.86642600  1
  Sc  Sc5  1  0.37122000  0.40675000  0.13357400  1
  Sc  Sc6  1  0.37122000  0.90675000  0.36642600  1
  Sc  Sc7  1  0.37122000  0.46447000  0.63357400  1
  Sc  Sc8  1  0.62878000  0.03553000  0.13357400  1
  Sc  Sc9  1  0.62878000  0.59325000  0.86642600  1
  Sc  Sc10  1  0.62878000  0.09325000  0.63357400  1
  Sc  Sc11  1  0.62878000  0.53553000  0.36642600  1
  Sc  Sc12  1  0.00000000  0.50952200  0.60349000  1
  Sc  Sc13  1  0.00000000  0.49047800  0.39651000  1
  Sc  Sc14  1  0.00000000  0.99047800  0.10349000  1
  Sc  Sc15  1  0.00000000  0.00952200  0.89651000  1
  Sc  Sc16  1  0.55517300  0.27758600  0.00000000  1
  Sc  Sc17  1  0.55517300  0.77758600  0.50000000  1
  Sc  Sc18  1  0.44482700  0.72241400  0.00000000  1
  Sc  Sc19  1  0.44482700  0.22241400  0.50000000  1
  Si  Si0  1  0.00000000  0.75334600  0.01497000  1
  Si  Si1  1  0.00000000  0.24665400  0.98503000  1
  Si  Si2  1  0.00000000  0.74665400  0.51497000  1
  Si  Si3  1  0.00000000  0.25334600  0.48503000  1
  Si  Si4  1  0.00000000  0.24584200  0.77807100  1
  Si  Si5  1  0.00000000  0.75415800  0.22192900  1
  Si  Si6  1  0.00000000  0.25415800  0.27807100  1
  Si  Si7  1  0.00000000  0.74584200  0.72192900  1
  Si  Si8  1  0.50000000  0.79086900  0.75000000  1
  Si  Si9  1  0.50000000  0.70913100  0.25000000  1
  Si  Si10  1  0.50000000  0.20913100  0.25000000  1
  Si  Si11  1  0.50000000  0.29086900  0.75000000  1
  N  N0  1  0.00000000  0.36428700  0.69582300  1
  N  N1  1  0.00000000  0.63571300  0.30417700  1
  N  N2  1  0.00000000  0.13571300  0.19582300  1
  N  N3  1  0.00000000  0.86428700  0.80417700  1
  N  N4  1  0.00000000  0.31294600  0.88133200  1
  N  N5  1  0.00000000  0.68705400  0.11866800  1
  N  N6  1  0.00000000  0.18705400  0.38133200  1
  N  N7  1  0.00000000  0.81294600  0.61866800  1
  N  N8  1  0.74811800  0.52137200  0.74159600  1
  N  N9  1  0.74811800  0.22674500  0.25840400  1
  N  N10  1  0.74811800  0.72674500  0.24159600  1
  N  N11  1  0.74811800  0.02137200  0.75840400  1
  N  N12  1  0.25188200  0.47862800  0.25840400  1
  N  N13  1  0.25188200  0.77325500  0.74159600  1
  N  N14  1  0.25188200  0.27325500  0.75840400  1
  N  N15  1  0.25188200  0.97862800  0.24159600  1
  N  N16  1  0.54076500  0.23035300  0.85116600  1
  N  N17  1  0.54076500  0.31041100  0.14883400  1
  N  N18  1  0.54076500  0.81041100  0.35116600  1
  N  N19  1  0.54076500  0.73035300  0.64883400  1
  N  N20  1  0.45923500  0.76964700  0.14883400  1
  N  N21  1  0.45923500  0.68958900  0.85116600  1
  N  N22  1  0.45923500  0.18958900  0.64883400  1
  N  N23  1  0.45923500  0.26964700  0.35116600  1
  N  N24  1  0.26015300  0.99138000  0.99991100  1
  N  N25  1  0.26015300  0.26877500  0.00008900  1
  N  N26  1  0.26015300  0.76877500  0.49991100  1
  N  N27  1  0.26015300  0.49138000  0.50008900  1
  N  N28  1  0.73984700  0.00862000  0.00008900  1
  N  N29  1  0.73984700  0.73122500  0.99991100  1
  N  N30  1  0.73984700  0.23122500  0.50008900  1
  N  N31  1  0.73984700  0.50862000  0.49991100  1
  N  N32  1  0.00000000  0.63721400  0.93438000  1
  N  N33  1  0.00000000  0.36278600  0.06562000  1
  N  N34  1  0.00000000  0.86278600  0.43438000  1
  N  N35  1  0.00000000  0.13721400  0.56562000  1
loop_
_geom_bond_atom_site_label_1
_geom_bond_atom_site_label_2
_geom_bond_distance
_geom_bond_site_symmetry_2
N0 Si4 1.735385 1_555
N0 Sc12 2.043042 1_555
N0 Sc7 2.298272 1_555
N0 Sc10 2.298272 1_455
N0 Sc0 2.504585 1_555
N1 Si5 1.735385 1_555
N1 Sc13 2.043042 1_555
N1 Sc11 2.298272 1_455
N1 Sc6 2.298272 1_555
N1 Sc1 2.504585 1_555
N2 Si6 1.735385 1_555
N2 Sc14 2.043042 1_545
N2 Sc8 2.298272 1_455
N2 Sc5 2.298272 1_555
N2 Sc2 2.504585 1_545
N3 Si7 1.735385 1_555
N3 Sc15 2.043042 1_565
N3 Sc4 2.298272 1_555
N3 Sc9 2.298272 1_455
N3 Sc3 2.504585 1_565
N4 Si4 1.671227 1_555
N4 Si1 1.673450 1_555
N4 Sc0 2.166107 1_555
N5 Si5 1.671227 1_555
N5 Si0 1.673450 1_555
N5 Sc1 2.166107 1_555
N6 Si6 1.671227 1_555
N6 Si3 1.673450 1_555
N6 Sc2 2.166107 1_545
N7 Si7 1.671227 1_555
N7 Si2 1.673450 1_555
N7 Sc3 2.166107 1_565
N8 Si7 1.683943 1_655
N8 Si11 1.702344 1_555
N8 Sc0 2.373742 1_655
N8 Sc9 2.376467 1_555
N8 Sc12 2.807892 1_655
N8 Sc7 2.860215 1_555
N9 Si6 1.683937 1_655
N9 Si10 1.702351 1_555
N9 Sc1 2.373749 1_655
N9 Sc8 2.376461 1_555
N9 Sc13 2.807898 1_655
N9 Sc6 2.860210 1_545
N10 Si5 1.683937 1_655
N10 Si9 1.702351 1_555
N10 Sc2 2.373749 1_655
N10 Sc11 2.376461 1_555
N10 Sc14 2.807898 1_655
N10 Sc5 2.860210 1_555
N11 Si4 1.683943 1_655
N11 Si8 1.702344 1_545
N11 Sc3 2.373742 1_655
N11 Sc10 2.376467 1_555
N11 Sc15 2.807892 1_655
N11 Sc4 2.860215 1_545
N12 Si6 1.683943 1_555
N12 Si9 1.702344 1_555
N12 Sc1 2.373742 1_555
N12 Sc5 2.376467 1_555
N12 Sc13 2.807892 1_555
N12 Sc11 2.860215 1_555
N13 Si7 1.683937 1_555
N13 Si8 1.702351 1_555
N13 Sc0 2.373749 1_555
N13 Sc4 2.376461 1_555
N13 Sc12 2.807898 1_555
N13 Sc10 2.860210 1_565
N14 Si4 1.683937 1_555
N14 Si11 1.702351 1_555
N14 Sc3 2.373749 1_555
N14 Sc7 2.376461 1_555
N14 Sc15 2.807898 1_555
N14 Sc9 2.860210 1_555
N15 Si5 1.683943 1_555
N15 Si10 1.702344 1_565
N15 Sc2 2.373742 1_555
N15 Sc6 2.376467 1_555
N15 Sc14 2.807892 1_555
N15 Sc8 2.860215 1_565
N16 Si11 1.723744 1_555
N16 Sc4 2.109156 1_545
N16 Sc16 2.224335 1_556
N16 Sc0 2.426895 1_655
N17 Si10 1.723739 1_555
N17 Sc5 2.109165 1_555
N17 Sc16 2.224335 1_555
N17 Sc1 2.426892 1_655
N18 Si9 1.723739 1_555
N18 Sc6 2.109165 1_555
N18 Sc17 2.224335 1_555
N18 Sc2 2.426892 1_655
N19 Si8 1.723744 1_555
N19 Sc7 2.109156 1_555
N19 Sc17 2.224335 1_555
N19 Sc3 2.426895 1_665
N20 Si9 1.723744 1_555
N20 Sc8 2.109156 1_565
N20 Sc18 2.224335 1_555
N20 Sc1 2.426895 1_555
N21 Si8 1.723739 1_555
N21 Sc9 2.109165 1_555
N21 Sc18 2.224335 1_556
N21 Sc0 2.426892 1_555
N22 Si11 1.723739 1_555
N22 Sc10 2.109165 1_555
N22 Sc19 2.224335 1_555
N22 Sc3 2.426892 1_555
N23 Si10 1.723744 1_555
N23 Sc11 2.109156 1_555
N23 Sc19 2.224335 1_555
N23 Sc2 2.426895 1_545
N24 Si0 1.768924 1_556
N24 Sc16 2.105397 1_566
N24 Sc4 2.216365 1_555
N24 Sc14 2.438458 1_556
N24 Sc15 2.554268 1_565
N24 Sc8 3.100103 1_566
N25 Si1 1.768910 1_554
N25 Sc16 2.105418 1_555
N25 Sc5 2.216356 1_555
N25 Sc15 2.438470 1_554
N25 Sc14 2.554281 1_545
N25 Sc9 3.100093 1_554
N26 Si2 1.768910 1_555
N26 Sc17 2.105418 1_555
N26 Sc6 2.216356 1_555
N26 Sc12 2.438470 1_555
N26 Sc13 2.554281 1_555
N26 Sc10 3.100093 1_565
N27 Si3 1.768924 1_555
N27 Sc17 2.105397 1_555
N27 Sc7 2.216365 1_555
N27 Sc13 2.438458 1_555
N27 Sc12 2.554268 1_555
N27 Sc11 3.100103 1_555
N28 Si1 1.768924 1_654
N28 Sc18 2.105397 1_545
N28 Sc8 2.216365 1_555
N28 Sc15 2.438458 1_654
N28 Sc14 2.554268 1_645
N28 Sc4 3.100103 1_544
N29 Si0 1.768910 1_656
N29 Sc18 2.105418 1_556
N29 Sc9 2.216356 1_555
N29 Sc14 2.438470 1_656
N29 Sc15 2.554281 1_665
N29 Sc5 3.100093 1_556
N30 Si3 1.768910 1_655
N30 Sc19 2.105418 1_555
N30 Sc10 2.216356 1_555
N30 Sc13 2.438470 1_655
N30 Sc12 2.554281 1_655
N30 Sc6 3.100093 1_545
N31 Si2 1.768924 1_655
N31 Sc19 2.105397 1_555
N31 Sc11 2.216365 1_555
N31 Sc12 2.438458 1_655
N31 Sc13 2.554268 1_655
N31 Sc7 3.100103 1_555
N32 Si0 1.700968 1_556
N32 Sc0 2.029118 1_555
N32 Sc9 2.618823 1_455
N32 Sc4 2.618823 1_555
N32 Sc18 2.870572 1_556
N32 Sc16 2.870577 1_456
N33 Si1 1.700968 1_554
N33 Sc1 2.029118 1_555
N33 Sc5 2.618823 1_555
N33 Sc8 2.618823 1_455
N33 Sc16 2.870572 1_455
N33 Sc18 2.870577 1_555
N34 Si2 1.700968 1_555
N34 Sc2 2.029118 1_555
N34 Sc6 2.618823 1_555
N34 Sc11 2.618823 1_455
N34 Sc17 2.870572 1_455
N34 Sc19 2.870577 1_565
N35 Si3 1.700968 1_555
N35 Sc3 2.029118 1_555
N35 Sc10 2.618823 1_455
N35 Sc7 2.618823 1_555
N35 Sc19 2.870572 1_555
N35 Sc17 2.870577 1_445
