# generated using pymatgen
data_K2Mg3Zn2(Si2O5)6
_symmetry_space_group_name_H-M   'P 1'
_cell_length_a   10.36584028
_cell_length_b   10.36586579
_cell_length_c   14.36311534
_cell_angle_alpha   90.00412559
_cell_angle_beta   90.00407291
_cell_angle_gamma   59.99793436
_symmetry_Int_Tables_number   1
_chemical_formula_structural   K2Mg3Zn2(Si2O5)6
_chemical_formula_sum   'K4 Mg6 Zn4 Si24 O60'
_cell_volume   1336.53498882
_cell_formula_units_Z   2
loop_
 _symmetry_equiv_pos_site_id
 _symmetry_equiv_pos_as_xyz
  1  'x, y, z'
loop_
 _atom_site_type_symbol
 _atom_site_label
 _atom_site_symmetry_multiplicity
 _atom_site_fract_x
 _atom_site_fract_y
 _atom_site_fract_z
 _atom_site_occupancy
  K  K0  1  0.00008419  0.99992187  0.25000011  1
  K  K1  1  0.00002111  0.99997577  0.74999908  1
  K  K2  1  0.33336265  0.33328916  0.49995004  1
  K  K3  1  0.66671785  0.66666098  0.00004538  1
  Mg  Mg0  1  0.33335539  0.33373720  0.24561347  1
  Mg  Mg1  1  0.33333688  0.33332345  0.75414270  1
  Mg  Mg2  1  0.66667267  0.66668590  0.74585883  1
  Mg  Mg3  1  0.66626566  0.66666619  0.25438950  1
  Mg  Mg4  1  0.50023168  0.00002598  0.24999216  1
  Mg  Mg5  1  0.99998335  0.49976241  0.25000755  1
  Zn  Zn0  1  0.50056927  0.49944000  0.24999918  1
  Zn  Zn1  1  0.49935127  0.00000314  0.74999679  1
  Zn  Zn2  1  0.00000521  0.50063982  0.75000264  1
  Zn  Zn3  1  0.50063031  0.49937761  0.75000046  1
  Si  Si0  1  0.34974896  0.88776173  0.38859100  1
  Si  Si1  1  0.88768901  0.76252416  0.38857957  1
  Si  Si2  1  0.76268291  0.34889571  0.38865602  1
  Si  Si3  1  0.34896541  0.88857243  0.61134545  1
  Si  Si4  1  0.88858995  0.76245641  0.61135103  1
  Si  Si5  1  0.76244234  0.34897631  0.61133896  1
  Si  Si6  1  0.23754231  0.11141300  0.88864902  1
  Si  Si7  1  0.65102643  0.23756047  0.88866138  1
  Si  Si8  1  0.11143080  0.65103345  0.88865431  1
  Si  Si9  1  0.23747553  0.11231429  0.11141990  1
  Si  Si10  1  0.65110606  0.23731995  0.11134402  1
  Si  Si11  1  0.11224074  0.65025071  0.11140932  1
  Si  Si12  1  0.65468736  0.10967652  0.61221094  1
  Si  Si13  1  0.10968272  0.23562519  0.61220473  1
  Si  Si14  1  0.23566161  0.65466714  0.61216522  1
  Si  Si15  1  0.65405891  0.11036534  0.38785325  1
  Si  Si16  1  0.11051474  0.23542734  0.38784263  1
  Si  Si17  1  0.23534561  0.65476333  0.38782253  1
  Si  Si18  1  0.76457451  0.88948982  0.11215827  1
  Si  Si19  1  0.34523717  0.76465830  0.11217769  1
  Si  Si20  1  0.88963308  0.34594890  0.11214637  1
  Si  Si21  1  0.76437753  0.89032161  0.88779484  1
  Si  Si22  1  0.34533226  0.76434242  0.88783565  1
  Si  Si23  1  0.89032176  0.34531943  0.88778917  1
  O  O0  1  0.27425399  0.78539011  0.36247187  1
  O  O1  1  0.78448723  0.94029939  0.36222910  1
  O  O2  1  0.94026219  0.27537106  0.36219398  1
  O  O3  1  0.27462406  0.78530200  0.63763168  1
  O  O4  1  0.78532974  0.94006967  0.63766972  1
  O  O5  1  0.94005947  0.27462942  0.63761229  1
  O  O6  1  0.05992915  0.21467328  0.86233092  1
  O  O7  1  0.72537023  0.05994448  0.86238591  1
  O  O8  1  0.21469951  0.72537758  0.86236888  1
  O  O9  1  0.05969915  0.21551615  0.13776957  1
  O  O10  1  0.72462804  0.05974231  0.13780761  1
  O  O11  1  0.21461010  0.72574949  0.13752838  1
  O  O12  1  0.72589643  0.21546364  0.63708387  1
  O  O13  1  0.21544282  0.05864316  0.63714574  1
  O  O14  1  0.05867771  0.72587780  0.63710565  1
  O  O15  1  0.72615122  0.21540199  0.36297705  1
  O  O16  1  0.21625600  0.05847173  0.36280711  1
  O  O17  1  0.05842170  0.72521479  0.36279195  1
  O  O18  1  0.94152929  0.78374423  0.13719328  1
  O  O19  1  0.27478501  0.94158174  0.13720791  1
  O  O20  1  0.78460046  0.27385067  0.13702302  1
  O  O21  1  0.94135848  0.78455736  0.86285413  1
  O  O22  1  0.27412173  0.94132558  0.86289443  1
  O  O23  1  0.78453887  0.27410485  0.86291644  1
  O  O24  1  0.38170796  0.87672688  0.50015291  1
  O  O25  1  0.87671898  0.74166936  0.50013793  1
  O  O26  1  0.74154437  0.38170033  0.50006096  1
  O  O27  1  0.25833117  0.12328121  -0.00013804  1
  O  O28  1  0.61829854  0.25845590  -0.00006102  1
  O  O29  1  0.12327208  0.61829395  -0.00015316  1
  O  O30  1  0.61827901  0.12454751  0.50013699  1
  O  O31  1  0.12450774  0.25713100  0.50013884  1
  O  O32  1  0.25722171  0.61829931  0.50005601  1
  O  O33  1  0.74287006  0.87550245  0.99986115  1
  O  O34  1  0.38170337  0.74277969  -0.00005580  1
  O  O35  1  0.87544479  0.38173097  0.99986304  1
  O  O36  1  0.49443719  0.84671434  0.32721705  1
  O  O37  1  0.84662080  0.65887424  0.32720178  1
  O  O38  1  0.65950922  0.49513300  0.32766440  1
  O  O39  1  0.49530655  0.84534690  0.67236485  1
  O  O40  1  0.84536408  0.65934655  0.67234901  1
  O  O41  1  0.65932777  0.49531555  0.67232406  1
  O  O42  1  0.34065498  0.15463955  0.82765319  1
  O  O43  1  0.50469057  0.34067714  0.82767462  1
  O  O44  1  0.15466201  0.50469163  0.82763401  1
  O  O45  1  0.34112701  0.15338507  0.17279563  1
  O  O46  1  0.50487424  0.34049599  0.17233693  1
  O  O47  1  0.15329427  0.50556203  0.17278351  1
  O  O48  1  0.50345797  0.15621256  0.66939691  1
  O  O49  1  0.15621541  0.34033389  0.66938929  1
  O  O50  1  0.34035955  0.50343884  0.66935649  1
  O  O51  1  0.50423209  0.15473840  0.33028174  1
  O  O52  1  0.15468328  0.34108550  0.33032392  1
  O  O53  1  0.34023970  0.50353538  0.33065511  1
  O  O54  1  0.65891197  0.84532554  0.16967677  1
  O  O55  1  0.49646540  0.65977019  0.16934543  1
  O  O56  1  0.84526464  0.49577267  0.16971849  1
  O  O57  1  0.65966362  0.84379331  0.83061103  1
  O  O58  1  0.49656163  0.65965011  0.83064355  1
  O  O59  1  0.84378845  0.49654716  0.83060280  1
loop_
_geom_bond_atom_site_label_1
_geom_bond_atom_site_label_2
_geom_bond_distance
_geom_bond_site_symmetry_2
K0 O11 3.051451 1_555
K0 O0 3.051451 1_555
K0 O20 3.056548 1_465
K0 O15 3.056556 1_465
K0 O9 3.058849 1_565
K0 O1 3.058900 1_455
K0 O2 3.059849 1_465
K0 O10 3.059899 1_465
K0 O16 3.061732 1_565
K0 O18 3.061814 1_455
K0 O19 3.062180 1_555
K0 O17 3.062246 1_555
K1 O4 3.053313 1_455
K1 O6 3.053399 1_565
K1 O3 3.053637 1_555
K1 O8 3.053645 1_555
K1 O7 3.054196 1_465
K1 O5 3.054246 1_465
K1 O21 3.056491 1_455
K1 O13 3.056529 1_565
K1 O14 3.056721 1_555
K1 O22 3.056772 1_555
K1 O12 3.057184 1_465
K1 O23 3.057210 1_465
K2 O30 2.648323 1_555
K2 O32 2.649406 1_555
K2 O31 2.649432 1_555
K2 O53 3.026312 1_555
K2 O50 3.027184 1_555
K2 O48 3.027340 1_555
K2 O49 3.027630 1_555
K2 O52 3.036869 1_555
K2 O51 3.036957 1_555
K3 O35 2.648388 1_554
K3 O33 2.649258 1_554
K3 O34 2.649502 1_555
K3 O55 3.026451 1_555
K3 O58 3.027215 1_554
K3 O59 3.027322 1_554
K3 O57 3.027458 1_554
K3 O54 3.036812 1_555
K3 O56 3.037056 1_555
Mg0 O46 2.097267 1_555
Mg0 O47 2.103745 1_555
Mg0 O45 2.108209 1_555
Mg0 O53 2.172631 1_555
Mg0 O51 2.184576 1_555
Mg0 O52 2.185320 1_555
Mg1 O44 2.099956 1_555
Mg1 O42 2.100239 1_555
Mg1 O43 2.100324 1_555
Mg1 O48 2.173515 1_555
Mg1 O49 2.173560 1_555
Mg1 O50 2.174069 1_555
Mg2 O39 2.099902 1_555
Mg2 O40 2.100207 1_555
Mg2 O41 2.100455 1_555
Mg2 O57 2.173438 1_555
Mg2 O59 2.173596 1_555
Mg2 O58 2.174075 1_555
Mg3 O38 2.097377 1_555
Mg3 O36 2.103680 1_555
Mg3 O37 2.108108 1_555
Mg3 O55 2.172719 1_555
Mg3 O56 2.184664 1_555
Mg3 O54 2.185211 1_555
Mg4 O45 1.963312 1_555
Mg4 O36 1.963471 1_545
Mg4 O51 1.992433 1_555
Mg4 O54 1.992481 1_545
Mg5 O37 1.963338 1_555
Mg5 O47 1.963477 1_655
Mg5 O56 1.992432 1_555
Mg5 O52 1.992474 1_655
O0 Si17 1.635532 1_555
O0 Si0 1.646095 1_555
O1 Si15 1.639366 1_565
O1 Si1 1.646844 1_555
O2 Si16 1.640388 1_655
O2 Si2 1.646439 1_555
O3 Si14 1.636297 1_555
O3 Si3 1.645421 1_555
O4 Si12 1.636339 1_565
O4 Si4 1.645435 1_555
O5 Si13 1.636260 1_655
O5 Si5 1.645329 1_555
O6 Si23 1.636350 1_455
O6 Si6 1.645430 1_555
O7 Si21 1.636256 1_545
O7 Si7 1.645333 1_555
O8 Si22 1.636291 1_555
O8 Si8 1.645424 1_555
O9 Si20 1.639376 1_455
O9 Si9 1.646847 1_555
O10 Si18 1.640385 1_545
O10 Si10 1.646436 1_555
O11 Si19 1.635535 1_555
O11 Si11 1.646105 1_555
O12 Si12 1.638397 1_555
O12 Si5 1.649257 1_555
O13 Si13 1.638452 1_555
O13 Si3 1.649457 1_545
O14 Si14 1.638495 1_555
O14 Si4 1.649397 1_455
O15 Si15 1.638717 1_555
O15 Si2 1.648705 1_555
O16 Si16 1.638490 1_555
O16 Si0 1.653634 1_545
O17 Si17 1.639066 1_555
O17 Si1 1.653628 1_455
O18 Si18 1.638484 1_555
O18 Si11 1.653644 1_655
O19 Si19 1.639063 1_555
O19 Si9 1.653632 1_565
O20 Si20 1.638728 1_555
O20 Si10 1.648703 1_555
O21 Si21 1.638444 1_555
O21 Si8 1.649470 1_655
O22 Si22 1.638495 1_555
O22 Si6 1.649395 1_565
O23 Si23 1.638401 1_555
O23 Si7 1.649241 1_555
O24 Si3 1.624586 1_555
O24 Si0 1.628649 1_555
O25 Si4 1.624682 1_555
O25 Si1 1.628426 1_555
O26 Si5 1.625759 1_555
O26 Si2 1.627726 1_555
O27 Si6 1.624679 1_554
O27 Si9 1.628417 1_555
O28 Si7 1.625758 1_554
O28 Si10 1.627731 1_555
O29 Si8 1.624582 1_554
O29 Si11 1.628654 1_555
O30 Si12 1.642924 1_555
O30 Si15 1.644882 1_555
O31 Si13 1.642717 1_555
O31 Si16 1.644909 1_555
O32 Si14 1.643361 1_555
O32 Si17 1.645365 1_555
O33 Si21 1.642716 1_555
O33 Si18 1.644914 1_556
O34 Si22 1.643358 1_554
O34 Si19 1.645369 1_555
O35 Si23 1.642927 1_555
O35 Si20 1.644880 1_556
O36 Si0 1.602967 1_555
O37 Si1 1.603125 1_555
O38 Si2 1.608681 1_555
O38 Zn0 1.971537 1_555
O39 Si3 1.609395 1_555
O39 Zn1 1.970304 1_565
O40 Si4 1.609307 1_555
O40 Zn2 1.970469 1_655
O41 Si5 1.609120 1_555
O41 Zn3 1.970690 1_555
O42 Si6 1.609317 1_555
O42 Zn1 1.970424 1_555
O43 Si7 1.609116 1_555
O43 Zn3 1.970709 1_555
O44 Si8 1.609399 1_555
O44 Zn2 1.970333 1_555
O45 Si9 1.603137 1_555
O46 Si10 1.608658 1_555
O46 Zn0 1.971559 1_555
O47 Si11 1.602964 1_555
O48 Si12 1.615133 1_555
O48 Zn1 2.008275 1_555
O49 Si13 1.615162 1_555
O49 Zn2 2.008229 1_555
O50 Si14 1.615137 1_555
O50 Zn3 2.008301 1_555
O51 Si15 1.610238 1_555
O52 Si16 1.610389 1_555
O53 Si17 1.615305 1_555
O53 Zn0 2.008891 1_555
O54 Si18 1.610395 1_555
O55 Si19 1.615297 1_555
O55 Zn0 2.008848 1_555
O56 Si20 1.610228 1_555
O57 Si21 1.615171 1_555
O57 Zn1 2.008265 1_565
O58 Si22 1.615136 1_555
O58 Zn3 2.008280 1_555
O59 Si23 1.615132 1_555
O59 Zn2 2.008274 1_655
