# generated using pymatgen
data_YMg6Si
_symmetry_space_group_name_H-M   'P 1'
_cell_length_a   4.95037800
_cell_length_b   6.55429700
_cell_length_c   11.16516400
_cell_angle_alpha   90.00000000
_cell_angle_beta   90.00000000
_cell_angle_gamma   90.00000000
_symmetry_Int_Tables_number   1
_chemical_formula_structural   YMg6Si
_chemical_formula_sum   'Y2 Mg12 Si2'
_cell_volume   362.26767647
_cell_formula_units_Z   2
loop_
 _symmetry_equiv_pos_site_id
 _symmetry_equiv_pos_as_xyz
  1  'x, y, z'
loop_
 _atom_site_type_symbol
 _atom_site_label
 _atom_site_symmetry_multiplicity
 _atom_site_fract_x
 _atom_site_fract_y
 _atom_site_fract_z
 _atom_site_occupancy
  Y  Y0  1  0.00000000  0.50000000  0.32229200  1
  Y  Y1  1  0.00000000  0.00000000  0.82229200  1
  Mg  Mg0  1  0.00000000  0.25311400  0.08047500  1
  Mg  Mg1  1  0.00000000  0.74688600  0.08047500  1
  Mg  Mg2  1  0.00000000  0.50000000  0.83477700  1
  Mg  Mg3  1  0.50000000  0.26226600  0.92105100  1
  Mg  Mg4  1  0.50000000  0.73773400  0.92105100  1
  Mg  Mg5  1  0.50000000  0.50000000  0.66805100  1
  Mg  Mg6  1  0.00000000  0.75311400  0.58047500  1
  Mg  Mg7  1  0.00000000  0.24688600  0.58047500  1
  Mg  Mg8  1  0.00000000  0.00000000  0.33477700  1
  Mg  Mg9  1  0.50000000  0.76226600  0.42105100  1
  Mg  Mg10  1  0.50000000  0.23773400  0.42105100  1
  Mg  Mg11  1  0.50000000  0.00000000  0.16805100  1
  Si  Si0  1  0.50000000  0.50000000  0.17182800  1
  Si  Si1  1  0.50000000  0.00000000  0.67182800  1
loop_
_geom_bond_atom_site_label_1
_geom_bond_atom_site_label_2
_geom_bond_distance
_geom_bond_site_symmetry_2
Mg0 Mg3 3.049351 1_554
Mg0 Mg3 3.049351 1_454
Mg0 Si0 3.128156 1_555
Mg0 Si0 3.128156 1_455
Mg0 Mg11 3.136062 1_455
Mg0 Mg11 3.136062 1_555
Mg0 Y0 3.147707 1_555
Mg0 Mg2 3.184952 1_554
Mg0 Mg1 3.236328 1_555
Mg0 Mg8 3.288463 1_555
Mg0 Mg1 3.317969 1_545
Mg0 Y1 3.325948 1_554
Mg1 Mg4 3.049351 1_454
Mg1 Mg4 3.049351 1_554
Mg1 Si0 3.128156 1_555
Mg1 Si0 3.128156 1_455
Mg1 Mg11 3.136062 1_465
Mg1 Mg11 3.136062 1_565
Mg1 Y0 3.147707 1_555
Mg1 Mg2 3.184952 1_554
Mg1 Mg8 3.288463 1_565
Mg1 Y1 3.325948 1_564
Mg2 Mg3 3.079344 1_455
Mg2 Mg4 3.079344 1_455
Mg2 Mg3 3.079344 1_555
Mg2 Mg4 3.079344 1_555
Mg2 Mg5 3.097068 1_455
Mg2 Mg5 3.097068 1_555
Mg2 Y1 3.280112 1_555
Mg2 Y1 3.280112 1_565
Mg2 Mg7 3.288463 1_555
Mg2 Mg6 3.288463 1_555
Mg3 Mg4 3.116358 1_555
Mg3 Si0 3.204331 1_556
Mg3 Y1 3.208937 1_555
Mg3 Y1 3.208937 1_655
Mg3 Mg5 3.226041 1_555
Mg3 Si1 3.270750 1_555
Mg3 Mg4 3.437939 1_545
Mg4 Si0 3.204331 1_556
Mg4 Y1 3.208937 1_565
Mg4 Y1 3.208937 1_665
Mg4 Mg5 3.226041 1_555
Mg4 Si1 3.270750 1_565
Mg5 Mg6 3.136062 1_655
Mg5 Mg6 3.136062 1_555
Mg5 Mg7 3.136062 1_655
Mg5 Mg7 3.136062 1_555
Mg5 Mg9 3.249660 1_555
Mg5 Si1 3.277420 1_555
Mg5 Si1 3.277420 1_565
Mg6 Mg9 3.049351 1_455
Mg6 Mg9 3.049351 1_555
Mg6 Si1 3.128156 1_565
Mg6 Si1 3.128156 1_465
Mg6 Y1 3.147707 1_565
Mg6 Mg8 3.184952 1_565
Mg6 Mg7 3.236328 1_565
Mg6 Mg7 3.317969 1_555
Mg6 Y0 3.325948 1_555
Mg7 Si1 3.128156 1_455
Mg7 Si1 3.128156 1_555
Mg7 Y1 3.147707 1_555
Mg7 Mg8 3.184952 1_555
Mg7 Y0 3.325948 1_555
Mg8 Mg9 3.079344 1_445
Mg8 Mg9 3.079344 1_545
Mg8 Y0 3.280112 1_555
Mg8 Y0 3.280112 1_545
Mg9 Si1 3.204331 1_565
Mg9 Y0 3.208937 1_555
Mg9 Y0 3.208937 1_655
Mg9 Si0 3.270750 1_555
Mg10 Mg7 3.049351 1_655
Mg10 Mg7 3.049351 1_555
Mg10 Mg8 3.079344 1_555
Mg10 Mg8 3.079344 1_655
Mg10 Mg9 3.116358 1_545
Mg10 Si1 3.204331 1_555
Mg10 Y0 3.208937 1_555
Mg10 Y0 3.208937 1_655
Mg10 Mg11 3.226041 1_555
Mg10 Mg5 3.249660 1_555
Mg10 Si0 3.270750 1_555
Mg10 Mg9 3.437939 1_555
Mg11 Mg8 3.097068 1_555
Mg11 Mg8 3.097068 1_655
Mg11 Mg9 3.226041 1_545
Mg11 Mg3 3.249660 1_554
Mg11 Mg4 3.249660 1_544
Mg11 Si0 3.277420 1_555
Mg11 Si0 3.277420 1_545
Si0 Y0 2.991456 1_555
Si0 Y0 2.991456 1_655
Si1 Y1 2.991456 1_555
Si1 Y1 2.991456 1_655
