# generated using pymatgen
data_K2InCuF6
_symmetry_space_group_name_H-M   'P 1'
_cell_length_a   12.41315542
_cell_length_b   12.41315658
_cell_length_c   12.41315651
_cell_angle_alpha   59.99999759
_cell_angle_beta   59.99999648
_cell_angle_gamma   59.99999662
_symmetry_Int_Tables_number   1
_chemical_formula_structural   K2InCuF6
_chemical_formula_sum   'K2 In1 Cu1 F6'
_cell_volume   1352.48242224
_cell_formula_units_Z   1
loop_
 _symmetry_equiv_pos_site_id
 _symmetry_equiv_pos_as_xyz
  1  'x, y, z'
loop_
 _atom_site_type_symbol
 _atom_site_label
 _atom_site_symmetry_multiplicity
 _atom_site_fract_x
 _atom_site_fract_y
 _atom_site_fract_z
 _atom_site_occupancy
  K  K0  1  0.25000000  0.25000000  0.25000000  1
  K  K1  1  0.75000000  0.75000000  0.75000000  1
  In  In0  1  0.00000000  0.00000000  0.00000000  1
  Cu  Cu0  1  0.50000000  0.50000000  0.50000000  1
  F  F0  1  0.24609008  0.75390992  0.24609008  1
  F  F1  1  0.75390992  0.75390992  0.24609008  1
  F  F2  1  0.75390992  0.24609008  0.75390992  1
  F  F3  1  0.75390992  0.24609008  0.24609008  1
  F  F4  1  0.24609008  0.75390992  0.75390992  1
  F  F5  1  0.24609008  0.24609008  0.75390992  1
loop_
_geom_bond_atom_site_label_1
_geom_bond_atom_site_label_2
_geom_bond_distance
_geom_bond_site_symmetry_2
