# generated using pymatgen
data_KCrPO4F
_symmetry_space_group_name_H-M   'P 1'
_cell_length_a   6.43128300
_cell_length_b   10.71823100
_cell_length_c   12.95030400
_cell_angle_alpha   90.00000000
_cell_angle_beta   90.00000000
_cell_angle_gamma   90.00000000
_symmetry_Int_Tables_number   1
_chemical_formula_structural   KCrPO4F
_chemical_formula_sum   'K8 Cr8 P8 O32 F8'
_cell_volume   892.69005514
_cell_formula_units_Z   8
loop_
 _symmetry_equiv_pos_site_id
 _symmetry_equiv_pos_as_xyz
  1  'x, y, z'
loop_
 _atom_site_type_symbol
 _atom_site_label
 _atom_site_symmetry_multiplicity
 _atom_site_fract_x
 _atom_site_fract_y
 _atom_site_fract_z
 _atom_site_occupancy
  K  K0  1  0.20240200  0.69172300  0.39584100  1
  K  K1  1  0.79759800  0.19172300  0.60415900  1
  K  K2  1  0.29759800  0.69172300  0.89584100  1
  K  K3  1  0.70240200  0.19172300  0.10415900  1
  K  K4  1  0.77628300  0.94722300  0.38082200  1
  K  K5  1  0.22371700  0.44722300  0.61917800  1
  K  K6  1  0.72371700  0.94722300  0.88082200  1
  K  K7  1  0.27628300  0.44722300  0.11917800  1
  Cr  Cr0  1  0.99898500  0.74818000  0.11512800  1
  Cr  Cr1  1  0.00101500  0.24818000  0.88487200  1
  Cr  Cr2  1  0.50101500  0.74818000  0.61512800  1
  Cr  Cr3  1  0.49898500  0.24818000  0.38487200  1
  Cr  Cr4  1  0.75214700  0.50009600  0.25319800  1
  Cr  Cr5  1  0.24785300  0.00009600  0.74680200  1
  Cr  Cr6  1  0.74785300  0.50009600  0.75319800  1
  Cr  Cr7  1  0.25214700  0.00009600  0.24680200  1
  P  P0  1  0.67036000  0.49762700  0.50090000  1
  P  P1  1  0.32964000  0.99762700  0.49910000  1
  P  P2  1  0.82964000  0.49762700  0.00090000  1
  P  P3  1  0.17036000  0.99762700  0.99910000  1
  P  P4  1  0.50248300  0.74810400  0.18165000  1
  P  P5  1  0.49751700  0.24810400  0.81835000  1
  P  P6  1  0.99751700  0.74810400  0.68165000  1
  P  P7  1  0.00248300  0.24810400  0.31835000  1
  O  O0  1  0.03260100  0.87862700  0.01024300  1
  O  O1  1  0.30834400  0.27445400  0.88848800  1
  O  O2  1  0.80834400  0.77445400  0.61151200  1
  O  O3  1  0.19165600  0.27445400  0.38848800  1
  O  O4  1  0.31087800  0.71899000  0.11222200  1
  O  O5  1  0.68912200  0.21899000  0.88777800  1
  O  O6  1  0.18912200  0.71899000  0.61222200  1
  O  O7  1  0.81087800  0.21899000  0.38777800  1
  O  O8  1  0.51500300  0.60779400  0.51572300  1
  O  O9  1  0.48499700  0.10779400  0.48427700  1
  O  O10  1  0.98499700  0.60779400  0.01572300  1
  O  O11  1  0.01500300  0.10779400  0.98427700  1
  O  O12  1  0.53260100  0.37862700  0.48975700  1
  O  O13  1  0.46739900  0.87862700  0.51024300  1
  O  O14  1  0.96739900  0.37862700  0.98975700  1
  O  O15  1  0.69165600  0.77445400  0.11151200  1
  O  O16  1  0.81073300  0.51903300  0.40573100  1
  O  O17  1  0.18926700  0.01903300  0.59426900  1
  O  O18  1  0.68926700  0.51903300  0.90573100  1
  O  O19  1  0.45645400  0.86059100  0.25441000  1
  O  O20  1  0.80766300  0.48042400  0.59864400  1
  O  O21  1  0.19233700  0.98042400  0.40135600  1
  O  O22  1  0.69233700  0.48042400  0.09864400  1
  O  O23  1  0.30766300  0.98042400  0.90135600  1
  O  O24  1  0.04013900  0.13498600  0.24480300  1
  O  O25  1  0.95986100  0.63498600  0.75519700  1
  O  O26  1  0.45986100  0.13498600  0.74480300  1
  O  O27  1  0.54013900  0.63498600  0.25519700  1
  O  O28  1  0.95645400  0.36059100  0.24559000  1
  O  O29  1  0.04354600  0.86059100  0.75441000  1
  O  O30  1  0.54354600  0.36059100  0.74559000  1
  O  O31  1  0.31073300  0.01903300  0.09426900  1
  F  F0  1  0.02779800  0.87448500  0.22774100  1
  F  F1  1  0.97220200  0.37448500  0.77225900  1
  F  F2  1  0.47220200  0.87448500  0.72774100  1
  F  F3  1  0.52779800  0.37448500  0.27225900  1
  F  F4  1  0.47944900  0.12116300  0.27113400  1
  F  F5  1  0.52055100  0.62116300  0.72886600  1
  F  F6  1  0.02055100  0.12116300  0.77113400  1
  F  F7  1  0.97944900  0.62116300  0.22886600  1
loop_
_geom_bond_atom_site_label_1
_geom_bond_atom_site_label_2
_geom_bond_distance
_geom_bond_site_symmetry_2
K0 O8 2.694684 1_555
K0 O6 2.818693 1_555
K0 O27 2.899170 1_555
K0 O13 3.018714 1_555
K0 O19 3.049624 1_555
K0 O21 3.095865 1_555
K0 O16 3.128479 1_455
K1 O9 2.694684 1_555
K1 O7 2.818693 1_555
K1 O26 2.899170 1_555
K1 O12 3.018714 1_555
K1 O30 3.049624 1_555
K1 O20 3.095865 1_555
K1 O17 3.128479 1_655
K2 O10 2.694684 1_456
K2 O4 2.818693 1_556
K2 O25 2.899170 1_455
K2 O0 3.018714 1_556
K2 O29 3.049624 1_555
K2 O23 3.095865 1_555
K2 O18 3.128479 1_555
K3 O11 2.694684 1_654
K3 O5 2.818693 1_554
K3 O24 2.899170 1_655
K3 O14 3.018714 1_554
K3 O28 3.049624 1_555
K3 O22 3.095865 1_555
K3 O31 3.128479 1_555
K4 O13 2.701099 1_555
K4 O21 2.712387 1_655
K4 O19 2.788025 1_555
K4 O9 2.875130 1_565
K4 O7 2.922735 1_565
K4 O24 3.167416 1_665
K5 O12 2.701099 1_555
K5 O20 2.712387 1_455
K5 O30 2.788025 1_555
K5 O8 2.875130 1_555
K5 O6 2.922735 1_555
K5 O25 3.167416 1_455
K6 O0 2.701099 1_656
K6 O23 2.712387 1_555
K6 O29 2.788025 1_655
K6 O11 2.875130 1_665
K6 O5 2.922735 1_565
K6 O26 3.167416 1_565
K7 O14 2.701099 1_454
K7 O22 2.712387 1_555
K7 O28 2.788025 1_455
K7 O10 2.875130 1_455
K7 O4 2.922735 1_555
K7 O27 3.167416 1_555
Cr0 O0 1.961263 1_655
Cr0 O10 1.982269 1_555
Cr0 O15 1.997030 1_555
Cr0 F0 1.998467 1_655
Cr0 F7 2.009663 1_555
Cr0 O4 2.030474 1_655
Cr1 O14 1.961263 1_455
Cr1 O11 1.982269 1_555
Cr1 O1 1.997030 1_555
Cr1 F1 1.998467 1_455
Cr1 F6 2.009663 1_555
Cr1 O5 2.030474 1_455
Cr2 O13 1.961263 1_555
Cr2 O8 1.982269 1_555
Cr2 O2 1.997030 1_555
Cr2 F2 1.998467 1_555
Cr2 F5 2.009663 1_555
Cr2 O6 2.030474 1_555
Cr3 O12 1.961263 1_555
Cr3 O9 1.982269 1_555
Cr3 O3 1.997030 1_555
Cr3 F3 1.998467 1_555
Cr3 F4 2.009663 1_555
Cr3 O7 2.030474 1_555
Cr4 F7 1.979926 1_555
Cr4 O27 1.987472 1_555
Cr4 F3 1.988807 1_555
Cr4 O28 1.992975 1_555
Cr4 O16 2.021179 1_555
Cr4 O22 2.049025 1_555
Cr5 F6 1.979926 1_555
Cr5 O26 1.987472 1_555
Cr5 F2 1.988807 1_545
Cr5 O29 1.992975 1_545
Cr5 O17 2.021179 1_555
Cr5 O23 2.049025 1_545
Cr6 F5 1.979926 1_555
Cr6 O25 1.987472 1_555
Cr6 F1 1.988807 1_555
Cr6 O30 1.992975 1_555
Cr6 O18 2.021179 1_555
Cr6 O20 2.049025 1_555
Cr7 F4 1.979926 1_555
Cr7 O24 1.987472 1_555
Cr7 F0 1.988807 1_545
Cr7 O19 1.992975 1_545
Cr7 O31 2.021179 1_555
Cr7 O21 2.049025 1_545
O0 P3 1.559674 1_554
O1 P5 1.544333 1_555
O2 P6 1.544333 1_555
O3 P7 1.544333 1_555
O4 P4 1.557004 1_555
O5 P5 1.557004 1_555
O6 P6 1.557004 1_455
O7 P7 1.557004 1_655
O8 P0 1.558659 1_555
O9 P1 1.558659 1_545
O10 P2 1.558659 1_555
O11 P3 1.558659 1_545
O12 P0 1.559674 1_555
O13 P1 1.559674 1_555
O14 P2 1.559674 1_556
O15 P4 1.544333 1_555
O16 P0 1.544871 1_555
O17 P1 1.544871 1_545
O18 P2 1.544871 1_556
O19 P4 1.558561 1_555
O20 P0 1.554360 1_555
O21 P1 1.554360 1_555
O22 P2 1.554360 1_555
O23 P3 1.554360 1_555
O24 P7 1.560704 1_555
O25 P6 1.560704 1_555
O26 P5 1.560704 1_555
O27 P4 1.560704 1_555
O28 P7 1.558561 1_655
O29 P6 1.558561 1_455
O30 P5 1.558561 1_555
O31 P3 1.544871 1_544
F0 K4 2.674774 1_455
F0 K0 3.136446 1_555
F1 K5 2.674774 1_655
F1 K1 3.136446 1_555
F2 K6 2.674774 1_555
F2 K2 3.136446 1_555
F3 K7 2.674774 1_555
F3 K3 3.136446 1_555
F4 K3 2.702559 1_555
F4 K4 3.022895 1_545
F5 K2 2.702559 1_555
F5 K5 3.022895 1_555
F6 K1 2.702559 1_455
F6 K6 3.022895 1_445
F7 K0 2.702559 1_655
F7 K7 3.022895 1_655
