# generated using pymatgen
data_K(USe3)2
_symmetry_space_group_name_H-M   'P 1'
_cell_length_a   11.55698664
_cell_length_b   11.55698664
_cell_length_c   11.55698664
_cell_angle_alpha   159.56414749
_cell_angle_beta   152.35800645
_cell_angle_gamma   34.62107250
_symmetry_Int_Tables_number   1
_chemical_formula_structural   K(USe3)2
_chemical_formula_sum   'K1 U2 Se6'
_cell_volume   249.80199956
_cell_formula_units_Z   1
loop_
 _symmetry_equiv_pos_site_id
 _symmetry_equiv_pos_as_xyz
  1  'x, y, z'
loop_
 _atom_site_type_symbol
 _atom_site_label
 _atom_site_symmetry_multiplicity
 _atom_site_fract_x
 _atom_site_fract_y
 _atom_site_fract_z
 _atom_site_occupancy
  K  K0  1  0.00000000  0.00000000  0.00000000  1
  U  U0  1  0.32129943  0.82129943  0.50000000  1
  U  U1  1  0.67870057  0.17870057  0.50000000  1
  Se  Se0  1  0.77091473  0.77091473  0.00000000  1
  Se  Se1  1  0.85017943  0.60517898  0.24500046  1
  Se  Se2  1  0.14982057  0.39482102  0.75499954  1
  Se  Se3  1  0.22908527  0.22908527  0.00000000  1
  Se  Se4  1  0.36017852  0.60517898  0.75499954  1
  Se  Se5  1  0.63982148  0.39482102  0.24500046  1
loop_
_geom_bond_atom_site_label_1
_geom_bond_atom_site_label_2
_geom_bond_distance
_geom_bond_site_symmetry_2
K0 Se2 3.401844 1_555
K0 Se1 3.401844 1_444
K0 Se2 3.401844 1_544
K0 Se1 3.401844 1_455
K0 Se5 3.401844 1_455
K0 Se5 3.401844 1_444
K0 Se4 3.401844 1_544
K0 Se4 3.401844 1_555
Se0 U1 2.888565 1_554
Se0 U1 2.888565 1_565
Se0 U0 2.976312 1_554
Se0 U0 2.976312 1_655
Se1 Se4 2.705629 1_554
Se1 Se4 2.816053 1_655
Se1 U1 2.943691 1_565
Se1 U1 2.943691 1_554
Se2 Se5 2.705629 1_556
Se2 Se5 2.816053 1_455
Se2 U0 2.943691 1_545
Se2 U0 2.943691 1_556
Se3 U0 2.888565 1_544
Se3 U0 2.888565 1_555
Se3 U1 2.976312 1_454
Se3 U1 2.976312 1_555
Se4 U1 2.943691 1_566
Se4 U1 2.943691 1_555
Se5 U0 2.943691 1_544
Se5 U0 2.943691 1_555
