# generated using pymatgen
data_Sm4Tm4MgO12
_symmetry_space_group_name_H-M   'P 1'
_cell_length_a   6.21543651
_cell_length_b   8.58637864
_cell_length_c   5.75831220
_cell_angle_alpha   90.89247903
_cell_angle_beta   90.17480184
_cell_angle_gamma   86.49569044
_symmetry_Int_Tables_number   1
_chemical_formula_structural   Sm4Tm4MgO12
_chemical_formula_sum   'Sm4 Tm4 Mg1 O12'
_cell_volume   306.69763413
_cell_formula_units_Z   1
loop_
 _symmetry_equiv_pos_site_id
 _symmetry_equiv_pos_as_xyz
  1  'x, y, z'
loop_
 _atom_site_type_symbol
 _atom_site_label
 _atom_site_symmetry_multiplicity
 _atom_site_fract_x
 _atom_site_fract_y
 _atom_site_fract_z
 _atom_site_occupancy
  Sm  Sm0  1  0.06457000  0.23300400  0.95243400  1
  Sm  Sm1  1  0.45502500  0.76350000  0.46756500  1
  Sm  Sm2  1  0.59244900  0.29036700  0.50665500  1
  Sm  Sm3  1  0.85430700  0.68670400  0.01225600  1
  Tm  Tm0  1  0.00406400  0.99847300  0.46187700  1
  Tm  Tm1  1  0.01889000  0.50685500  0.50185000  1
  Tm  Tm2  1  0.57459700  0.02893300  0.01008300  1
  Tm  Tm3  1  0.46435900  0.49073500  0.99991600  1
  Mg  Mg0  1  0.20814900  0.86012600  0.93029200  1
  O  O0  1  0.08227200  0.74064300  0.64804600  1
  O  O1  1  0.18198700  0.58858900  0.18684000  1
  O  O2  1  0.29162800  0.94796900  0.24109400  1
  O  O3  1  0.28849200  0.40385800  0.69920100  1
  O  O4  1  0.28639800  0.04548700  0.74642600  1
  O  O5  1  0.45127500  0.25793400  0.13554000  1
  O  O6  1  0.51701400  0.75755800  0.87413200  1
  O  O7  1  0.72811900  0.89089600  0.30862000  1
  O  O8  1  0.67181000  0.54869000  0.32121200  1
  O  O9  1  0.78048700  0.11845500  0.73673600  1
  O  O10  1  0.79917200  0.44617500  0.79414800  1
  O  O11  1  0.94535500  0.24661000  0.32966000  1
loop_
_geom_bond_atom_site_label_1
_geom_bond_atom_site_label_2
_geom_bond_distance
_geom_bond_site_symmetry_2
Mg0 O4 2.010198 1_565
Mg0 O2 2.010285 1_556
Mg0 O0 2.084355 1_555
Mg0 O6 2.086574 1_555
O0 Tm1 2.221604 1_555
O0 Tm0 2.495143 1_555
O0 Sm1 2.561814 1_555
O0 Sm3 2.597906 1_456
O1 Tm3 2.178958 1_554
O1 Tm1 2.224483 1_555
O1 Sm3 2.381712 1_455
O1 Sm1 2.822733 1_555
O2 Tm0 2.213788 1_555
O2 Sm1 2.258426 1_555
O2 Tm2 2.353434 1_565
O3 Tm1 2.172559 1_555
O3 Tm3 2.190358 1_555
O3 Sm2 2.345666 1_555
O3 Sm0 2.558149 1_555
O4 Tm2 2.343691 1_556
O4 Sm0 2.362134 1_555
O4 Tm0 2.444501 1_545
O4 Sm1 3.019661 1_545
O5 Tm3 2.163581 1_554
O5 Tm2 2.179585 1_555
O5 Sm2 2.326828 1_555
O5 Sm0 2.641013 1_554
O6 Sm3 2.290567 1_556
O6 Sm1 2.372298 1_555
O6 Tm3 2.454670 1_555
O6 Tm2 2.492761 1_566
O7 Tm0 2.175476 1_655
O7 Sm1 2.276632 1_555
O7 Tm2 2.277214 1_565
O7 Sm3 2.519582 1_555
O8 Tm3 2.316966 1_554
O8 Sm1 2.362710 1_555
O8 Tm1 2.401655 1_655
O8 Sm3 2.469482 1_555
O8 Sm2 2.552278 1_555
O9 Tm2 2.208221 1_556
O9 Sm2 2.267312 1_555
O9 Tm0 2.298920 1_645
O9 Sm0 2.405963 1_655
O10 Tm1 2.257818 1_655
O10 Tm3 2.405100 1_555
O10 Sm3 2.441976 1_556
O10 Sm2 2.511860 1_555
O10 Sm0 2.564325 1_655
O11 Tm0 2.281676 1_645
O11 Sm0 2.296173 1_654
O11 Sm2 2.427379 1_555
O11 Tm1 2.497669 1_655
