# generated using pymatgen
data_Ca2TiCrO6
_symmetry_space_group_name_H-M   'P 1'
_cell_length_a   5.39896110
_cell_length_b   5.45931300
_cell_length_c   7.60181226
_cell_angle_alpha   89.99995638
_cell_angle_beta   89.82443891
_cell_angle_gamma   89.99998947
_symmetry_Int_Tables_number   1
_chemical_formula_structural   Ca2TiCrO6
_chemical_formula_sum   'Ca4 Ti2 Cr2 O12'
_cell_volume   224.05946460
_cell_formula_units_Z   2
loop_
 _symmetry_equiv_pos_site_id
 _symmetry_equiv_pos_as_xyz
  1  'x, y, z'
loop_
 _atom_site_type_symbol
 _atom_site_label
 _atom_site_symmetry_multiplicity
 _atom_site_fract_x
 _atom_site_fract_y
 _atom_site_fract_z
 _atom_site_occupancy
  Ca  Ca0  1  0.50947100  0.53929300  0.24994100  1
  Ca  Ca1  1  0.99050600  0.03923200  0.25003800  1
  Ca  Ca2  1  0.49056400  0.46071900  0.75005100  1
  Ca  Ca3  1  0.00941100  0.96066300  0.74992100  1
  Ti  Ti0  1  0.50004800  0.00000200  0.50014300  1
  Ti  Ti1  1  0.00012200  0.50019600  0.99974100  1
  Cr  Cr0  1  0.50014600  0.00022600  0.00040300  1
  Cr  Cr1  1  0.00031400  0.50000100  0.49974900  1
  O  O0  1  0.78980900  0.78499700  0.04090200  1
  O  O1  1  0.71010700  0.28499700  0.45910300  1
  O  O2  1  0.20696100  0.21622800  0.53856000  1
  O  O3  1  0.29294300  0.71617800  0.96143400  1
  O  O4  1  0.21008600  0.21492800  0.95928400  1
  O  O5  1  0.28983300  0.71494700  0.54072000  1
  O  O6  1  0.79305300  0.78378200  0.46134300  1
  O  O7  1  0.70683400  0.28375200  0.03866900  1
  O  O8  1  0.42550100  0.98309500  0.24676800  1
  O  O9  1  0.07438600  0.48313200  0.25322800  1
  O  O10  1  0.57433000  0.01680700  0.75331800  1
  O  O11  1  0.92557400  0.51682600  0.74668200  1
loop_
_geom_bond_atom_site_label_1
_geom_bond_atom_site_label_2
_geom_bond_distance
_geom_bond_site_symmetry_2
Ca0 O9 2.368988 1_555
Ca0 O1 2.374739 1_555
Ca0 O7 2.377091 1_555
Ca0 O8 2.465035 1_555
Ca0 O0 2.569142 1_555
Ca0 O6 2.592933 1_555
Ca0 O3 2.669246 1_554
Ca0 O5 2.682492 1_555
Ca1 O8 2.368488 1_645
Ca1 O0 2.374565 1_545
Ca1 O6 2.377185 1_545
Ca1 O9 2.465473 1_655
Ca1 O1 2.569632 1_555
Ca1 O7 2.593150 1_555
Ca1 O2 2.669386 1_655
Ca1 O4 2.682279 1_654
Ca2 O11 2.368553 1_555
Ca2 O5 2.375620 1_555
Ca2 O3 2.378020 1_555
Ca2 O10 2.465430 1_555
Ca2 O4 2.570743 1_555
Ca2 O2 2.593426 1_555
Ca2 O7 2.669489 1_556
Ca2 O1 2.683457 1_555
Ca3 O10 2.368961 1_465
Ca3 O4 2.375764 1_565
Ca3 O2 2.378074 1_565
Ca3 O11 2.465096 1_455
Ca3 O5 2.570203 1_555
Ca3 O3 2.593284 1_555
Ca3 O6 2.669279 1_455
Ca3 O0 2.683693 1_456
Cr0 O8 1.916766 1_545
Cr0 O10 1.921454 1_554
Cr0 O7 1.930726 1_555
Cr0 O3 1.935440 1_544
Cr0 O0 1.980929 1_545
Cr0 O4 1.981668 1_554
Cr1 O9 1.917216 1_555
Cr1 O11 1.921008 1_455
Cr1 O2 1.932314 1_555
Cr1 O6 1.933794 1_455
Cr1 O5 1.979969 1_555
Cr1 O1 1.982700 1_455
O0 Ti1 1.949996 1_654
O1 Ti0 1.949897 1_555
O2 Ti0 1.994940 1_555
O3 Ti1 1.992893 1_555
O4 Ti1 1.950093 1_555
O5 Ti0 1.950094 1_565
O6 Ti0 1.994991 1_565
O7 Ti1 1.997067 1_654
O8 Ti0 1.971079 1_565
O9 Ti1 1.971636 1_554
O10 Ti0 1.969271 1_555
O11 Ti1 1.968661 1_655
