# generated using pymatgen
data_NiPd
_symmetry_space_group_name_H-M   'P 1'
_cell_length_a   9.00048016
_cell_length_b   9.00048016
_cell_length_c   9.00048079
_cell_angle_alpha   34.68317377
_cell_angle_beta   34.68317377
_cell_angle_gamma   34.68317896
_symmetry_Int_Tables_number   1
_chemical_formula_structural   NiPd
_chemical_formula_sum   'Ni8 Pd8'
_cell_volume   210.68762372
_cell_formula_units_Z   8
loop_
 _symmetry_equiv_pos_site_id
 _symmetry_equiv_pos_as_xyz
  1  'x, y, z'
loop_
 _atom_site_type_symbol
 _atom_site_label
 _atom_site_symmetry_multiplicity
 _atom_site_fract_x
 _atom_site_fract_y
 _atom_site_fract_z
 _atom_site_occupancy
  Ni  Ni0_0  1  0.00000000  0.00000000  0.00000000  1
  Ni  Ni0_1  1  0.00000000  0.00000000  0.50000000  1
  Ni  Ni0_2  1  0.00000000  0.50000000  0.00000000  1
  Ni  Ni0_3  1  0.00000000  0.50000000  0.50000000  1
  Ni  Ni0_4  1  0.50000000  0.00000000  0.00000000  1
  Ni  Ni0_5  1  0.50000000  0.00000000  0.50000000  1
  Ni  Ni0_6  1  0.50000000  0.50000000  0.00000000  1
  Ni  Ni0_7  1  0.50000000  0.50000000  0.50000000  1
  Pd  Pd0_0  1  0.25000000  0.25000000  0.25000000  1
  Pd  Pd0_1  1  0.25000000  0.25000000  0.75000000  1
  Pd  Pd0_2  1  0.25000000  0.75000000  0.25000000  1
  Pd  Pd0_3  1  0.25000000  0.75000000  0.75000000  1
  Pd  Pd0_4  1  0.75000000  0.25000000  0.25000000  1
  Pd  Pd0_5  1  0.75000000  0.25000000  0.75000000  1
  Pd  Pd0_6  1  0.75000000  0.75000000  0.25000000  1
  Pd  Pd0_7  1  0.75000000  0.75000000  0.75000000  1
loop_
_geom_bond_atom_site_label_1
_geom_bond_atom_site_label_2
_geom_bond_distance
_geom_bond_site_symmetry_2
Ni0_0 Pd0_1 2.619605 1_554
Ni0_0 Pd0_6 2.619605 1_445
Ni0_0 Pd0_2 2.619605 1_545
Ni0_0 Pd0_4 2.619605 1_455
Ni0_0 Pd0_5 2.619605 1_454
Ni0_0 Pd0_3 2.619605 1_544
Ni0_0 Ni0_5 2.682753 1_554
Ni0_0 Ni0_3 2.682753 1_554
Ni0_0 Ni0_3 2.682753 1_545
Ni0_0 Ni0_5 2.682753 1_455
Ni0_0 Ni0_6 2.682754 1_455
Ni0_0 Ni0_6 2.682754 1_545
Ni0_1 Pd0_0 2.619605 1_555
Ni0_1 Pd0_7 2.619605 1_445
Ni0_1 Pd0_3 2.619605 1_545
Ni0_1 Pd0_5 2.619605 1_455
Ni0_1 Pd0_4 2.619605 1_455
Ni0_1 Pd0_2 2.619605 1_545
Ni0_1 Ni0_4 2.682753 1_555
Ni0_1 Ni0_4 2.682753 1_456
Ni0_1 Ni0_2 2.682753 1_555
Ni0_1 Ni0_2 2.682753 1_546
Ni0_1 Ni0_7 2.682754 1_545
Ni0_1 Ni0_7 2.682754 1_455
Ni0_2 Pd0_3 2.619605 1_554
Ni0_2 Pd0_4 2.619605 1_455
Ni0_2 Pd0_6 2.619605 1_455
Ni0_2 Pd0_0 2.619605 1_555
Ni0_2 Pd0_1 2.619605 1_554
Ni0_2 Pd0_7 2.619605 1_454
Ni0_2 Ni0_7 2.682753 1_554
Ni0_2 Ni0_7 2.682753 1_455
Ni0_2 Ni0_4 2.682754 1_465
Ni0_2 Ni0_4 2.682754 1_555
Ni0_3 Pd0_2 2.619605 1_555
Ni0_3 Pd0_5 2.619605 1_455
Ni0_3 Pd0_7 2.619605 1_455
Ni0_3 Pd0_1 2.619605 1_555
Ni0_3 Pd0_6 2.619605 1_455
Ni0_3 Pd0_0 2.619605 1_555
Ni0_3 Ni0_6 2.682753 1_456
Ni0_3 Ni0_6 2.682753 1_555
Ni0_3 Ni0_5 2.682754 1_555
Ni0_3 Ni0_5 2.682754 1_465
Ni0_4 Pd0_5 2.619605 1_554
Ni0_4 Pd0_2 2.619605 1_545
Ni0_4 Pd0_6 2.619605 1_545
Ni0_4 Pd0_0 2.619605 1_555
Ni0_4 Pd0_1 2.619605 1_554
Ni0_4 Pd0_7 2.619605 1_544
Ni0_4 Ni0_7 2.682753 1_545
Ni0_4 Ni0_7 2.682753 1_554
Ni0_5 Pd0_4 2.619605 1_555
Ni0_5 Pd0_3 2.619605 1_545
Ni0_5 Pd0_7 2.619605 1_545
Ni0_5 Pd0_1 2.619605 1_555
Ni0_5 Pd0_0 2.619605 1_555
Ni0_5 Pd0_6 2.619605 1_545
Ni0_5 Ni0_6 2.682753 1_546
Ni0_5 Ni0_6 2.682753 1_555
Ni0_6 Pd0_7 2.619605 1_554
Ni0_6 Pd0_0 2.619605 1_555
Ni0_6 Pd0_2 2.619605 1_555
Ni0_6 Pd0_4 2.619605 1_555
Ni0_6 Pd0_5 2.619605 1_554
Ni0_6 Pd0_3 2.619605 1_554
Ni0_7 Pd0_6 2.619605 1_555
Ni0_7 Pd0_1 2.619605 1_555
Ni0_7 Pd0_5 2.619605 1_555
Ni0_7 Pd0_3 2.619605 1_555
Ni0_7 Pd0_4 2.619605 1_555
Ni0_7 Pd0_2 2.619605 1_555
Pd0_0 Pd0_5 2.682753 1_554
Pd0_0 Pd0_3 2.682753 1_554
Pd0_0 Pd0_5 2.682753 1_455
Pd0_0 Pd0_3 2.682753 1_545
Pd0_0 Pd0_6 2.682754 1_455
Pd0_0 Pd0_6 2.682754 1_545
Pd0_1 Pd0_2 2.682753 1_546
Pd0_1 Pd0_4 2.682753 1_555
Pd0_1 Pd0_2 2.682753 1_555
Pd0_1 Pd0_4 2.682753 1_456
Pd0_1 Pd0_7 2.682754 1_545
Pd0_1 Pd0_7 2.682754 1_455
Pd0_2 Pd0_7 2.682753 1_554
Pd0_2 Pd0_7 2.682753 1_455
Pd0_2 Pd0_4 2.682754 1_555
Pd0_2 Pd0_4 2.682754 1_465
Pd0_3 Pd0_6 2.682753 1_456
Pd0_3 Pd0_6 2.682753 1_555
Pd0_3 Pd0_5 2.682754 1_555
Pd0_3 Pd0_5 2.682754 1_465
Pd0_4 Pd0_7 2.682753 1_554
Pd0_4 Pd0_7 2.682753 1_545
Pd0_5 Pd0_6 2.682753 1_546
Pd0_5 Pd0_6 2.682753 1_555
