# generated using pymatgen
data_Ge2BiO6
_symmetry_space_group_name_H-M   'P 1'
_cell_length_a   7.16426006
_cell_length_b   7.16426006
_cell_length_c   5.74338245
_cell_angle_alpha   76.53192819
_cell_angle_beta   76.53192819
_cell_angle_gamma   85.13043174
_symmetry_Int_Tables_number   1
_chemical_formula_structural   Ge2BiO6
_chemical_formula_sum   'Ge4 Bi2 O12'
_cell_volume   278.65152472
_cell_formula_units_Z   2
loop_
 _symmetry_equiv_pos_site_id
 _symmetry_equiv_pos_as_xyz
  1  'x, y, z'
loop_
 _atom_site_type_symbol
 _atom_site_label
 _atom_site_symmetry_multiplicity
 _atom_site_fract_x
 _atom_site_fract_y
 _atom_site_fract_z
 _atom_site_occupancy
  Ge  Ge0  1  0.21867700  0.37575100  0.74965100  1
  Ge  Ge1  1  0.62424900  0.78132300  0.75034900  1
  Ge  Ge2  1  0.78132300  0.62424900  0.25034900  1
  Ge  Ge3  1  0.37575100  0.21867700  0.24965100  1
  Bi  Bi0  1  0.12350400  0.87649600  0.75000000  1
  Bi  Bi1  1  0.87649600  0.12350400  0.25000000  1
  O  O0  1  0.38854600  0.33269000  0.48882500  1
  O  O1  1  0.66731000  0.61145400  0.01117500  1
  O  O2  1  0.61145400  0.66731000  0.51117500  1
  O  O3  1  0.33269000  0.38854600  0.98882500  1
  O  O4  1  0.59528800  0.09295700  0.18361300  1
  O  O5  1  0.90704300  0.40471200  0.31638700  1
  O  O6  1  0.40471200  0.90704300  0.81638700  1
  O  O7  1  0.09295700  0.59528800  0.68361300  1
  O  O8  1  0.05590800  0.17754800  0.86078800  1
  O  O9  1  0.82245200  0.94409200  0.63921200  1
  O  O10  1  0.94409200  0.82245200  0.13921200  1
  O  O11  1  0.17754800  0.05590800  0.36078800  1
loop_
_geom_bond_atom_site_label_1
_geom_bond_atom_site_label_2
_geom_bond_distance
_geom_bond_site_symmetry_2
Ge0 O7 1.752029 1_555
Ge0 O0 1.767096 1_555
Ge0 O3 1.776676 1_555
Ge0 O8 1.815438 1_555
Ge1 O6 1.752029 1_555
Ge1 O1 1.767096 1_556
Ge1 O2 1.776676 1_555
Ge1 O9 1.815438 1_555
Ge2 O5 1.752029 1_555
Ge2 O2 1.767096 1_555
Ge2 O1 1.776676 1_555
Ge2 O10 1.815438 1_555
Ge3 O4 1.752029 1_555
Ge3 O3 1.767096 1_554
Ge3 O0 1.776676 1_555
Ge3 O11 1.815438 1_555
Bi0 O6 2.173387 1_555
Bi0 O7 2.173387 1_555
Bi0 O10 2.267592 1_456
Bi0 O11 2.267592 1_565
Bi0 O8 2.368469 1_565
Bi0 O9 2.368469 1_455
Bi1 O4 2.173387 1_555
Bi1 O5 2.173387 1_555
Bi1 O9 2.267592 1_545
Bi1 O8 2.267592 1_654
Bi1 O11 2.368469 1_655
Bi1 O10 2.368469 1_545
