# generated using pymatgen
data_NaPrHf4O12
_symmetry_space_group_name_H-M   'P 1'
_cell_length_a   5.72039102
_cell_length_b   5.72039102
_cell_length_c   8.26571435
_cell_angle_alpha   90.00000000
_cell_angle_beta   90.00000000
_cell_angle_gamma   90.12542593
_symmetry_Int_Tables_number   1
_chemical_formula_structural   NaPrHf4O12
_chemical_formula_sum   'Na1 Pr1 Hf4 O12'
_cell_volume   270.47727589
_cell_formula_units_Z   1
loop_
 _symmetry_equiv_pos_site_id
 _symmetry_equiv_pos_as_xyz
  1  'x, y, z'
loop_
 _atom_site_type_symbol
 _atom_site_label
 _atom_site_symmetry_multiplicity
 _atom_site_fract_x
 _atom_site_fract_y
 _atom_site_fract_z
 _atom_site_occupancy
  Na  Na0  1  0.50489677  0.50489677  0.00000000  1
  Pr  Pr0  1  0.98578477  0.98578477  0.50000000  1
  Hf  Hf0  1  0.49526040  0.00237151  0.76062458  1
  Hf  Hf1  1  0.49526040  0.00237151  0.23937542  1
  Hf  Hf2  1  0.00237151  0.49526040  0.23937542  1
  Hf  Hf3  1  0.00237151  0.49526040  0.76062458  1
  O  O0  1  0.78331489  0.21654827  0.71964330  1
  O  O1  1  0.21654827  0.78331489  0.71964330  1
  O  O2  1  0.21654827  0.78331489  0.28035670  1
  O  O3  1  0.78331489  0.21654827  0.28035670  1
  O  O4  1  0.75132915  0.75132915  0.70176565  1
  O  O5  1  0.28996977  0.28996977  0.78499135  1
  O  O6  1  0.28996977  0.28996977  0.21500865  1
  O  O7  1  0.75132915  0.75132915  0.29823435  1
  O  O8  1  0.51324860  0.94250611  0.00000000  1
  O  O9  1  0.44185870  0.03271704  0.50000000  1
  O  O10  1  0.94250611  0.51324860  0.00000000  1
  O  O11  1  0.03271704  0.44185870  0.50000000  1
loop_
_geom_bond_atom_site_label_1
_geom_bond_atom_site_label_2
_geom_bond_distance
_geom_bond_site_symmetry_2
Na0 O5 2.484954 1_554
Na0 O6 2.484954 1_555
Na0 O8 2.503648 1_555
Na0 O10 2.503648 1_555
Hf0 O8 2.010699 1_546
Hf0 O5 2.033397 1_555
Hf0 O1 2.053816 1_545
Hf0 O0 2.078979 1_555
Hf0 O4 2.110415 1_545
Hf0 O9 2.182766 1_555
Hf1 O8 2.010699 1_545
Hf1 O6 2.033397 1_555
Hf1 O2 2.053816 1_545
Hf1 O3 2.078979 1_555
Hf1 O7 2.110415 1_545
Hf1 O9 2.182766 1_555
Hf2 O10 2.010699 1_455
Hf2 O6 2.033397 1_555
Hf2 O3 2.053816 1_455
Hf2 O2 2.078979 1_555
Hf2 O7 2.110415 1_455
Hf2 O11 2.182766 1_555
Hf3 O10 2.010699 1_456
Hf3 O5 2.033397 1_555
Hf3 O0 2.053816 1_455
Hf3 O1 2.078979 1_555
Hf3 O4 2.110415 1_455
Hf3 O11 2.182766 1_555
O0 Pr0 2.527204 1_545
O1 Pr0 2.527204 1_455
O2 Pr0 2.527204 1_455
O3 Pr0 2.527204 1_545
O4 Pr0 2.524082 1_555
O7 Pr0 2.524082 1_555
O9 Pr0 2.622114 1_445
O11 Pr0 2.622114 1_445
