# generated using pymatgen
data_CeMg6Al
_symmetry_space_group_name_H-M   'P 1'
_cell_length_a   5.03133300
_cell_length_b   6.61405700
_cell_length_c   11.45272400
_cell_angle_alpha   90.00000000
_cell_angle_beta   90.00000000
_cell_angle_gamma   90.00000000
_symmetry_Int_Tables_number   1
_chemical_formula_structural   CeMg6Al
_chemical_formula_sum   'Ce2 Mg12 Al2'
_cell_volume   381.11828916
_cell_formula_units_Z   2
loop_
 _symmetry_equiv_pos_site_id
 _symmetry_equiv_pos_as_xyz
  1  'x, y, z'
loop_
 _atom_site_type_symbol
 _atom_site_label
 _atom_site_symmetry_multiplicity
 _atom_site_fract_x
 _atom_site_fract_y
 _atom_site_fract_z
 _atom_site_occupancy
  Ce  Ce0  1  0.50000000  0.50000000  0.17439100  1
  Ce  Ce1  1  0.50000000  0.00000000  0.67439100  1
  Mg  Mg0  1  0.00000000  0.24208200  0.08002100  1
  Mg  Mg1  1  0.00000000  0.75791800  0.08002100  1
  Mg  Mg2  1  0.00000000  0.50000000  0.83250600  1
  Mg  Mg3  1  0.50000000  0.24181900  0.91943000  1
  Mg  Mg4  1  0.50000000  0.75818100  0.91943000  1
  Mg  Mg5  1  0.50000000  0.50000000  0.66355400  1
  Mg  Mg6  1  0.00000000  0.74208200  0.58002100  1
  Mg  Mg7  1  0.00000000  0.25791800  0.58002100  1
  Mg  Mg8  1  0.00000000  0.00000000  0.33250600  1
  Mg  Mg9  1  0.50000000  0.74181900  0.41943000  1
  Mg  Mg10  1  0.50000000  0.25818100  0.41943000  1
  Mg  Mg11  1  0.50000000  0.00000000  0.16355400  1
  Al  Al0  1  0.00000000  0.50000000  0.33064700  1
  Al  Al1  1  0.00000000  0.00000000  0.83064700  1
loop_
_geom_bond_atom_site_label_1
_geom_bond_atom_site_label_2
_geom_bond_distance
_geom_bond_site_symmetry_2
Ce0 Mg0 3.225947 1_655
Ce0 Mg1 3.225947 1_555
Ce0 Mg1 3.225947 1_655
Ce0 Mg0 3.225947 1_555
Ce0 Mg9 3.230135 1_555
Ce0 Mg10 3.230135 1_555
Ce0 Mg11 3.309357 1_555
Ce0 Mg11 3.309357 1_565
Ce0 Mg3 3.382657 1_554
Ce0 Mg4 3.382657 1_554
Ce1 Mg7 3.225947 1_655
Ce1 Mg6 3.225947 1_545
Ce1 Mg6 3.225947 1_645
Ce1 Mg7 3.225947 1_555
Ce1 Mg4 3.230135 1_545
Ce1 Mg3 3.230135 1_555
Ce1 Mg5 3.309357 1_545
Ce1 Mg5 3.309357 1_555
Ce1 Mg10 3.382657 1_555
Ce1 Mg9 3.382657 1_545
Mg0 Mg3 3.116288 1_454
Mg0 Mg3 3.116288 1_554
Mg0 Mg11 3.131689 1_455
Mg0 Mg11 3.131689 1_555
Mg0 Mg1 3.202288 1_545
Mg0 Mg8 3.305337 1_555
Mg0 Mg2 3.308426 1_554
Mg0 Mg1 3.411769 1_555
Mg1 Mg4 3.116288 1_554
Mg1 Mg4 3.116288 1_454
Mg1 Mg11 3.131689 1_565
Mg1 Mg11 3.131689 1_465
Mg1 Mg8 3.305337 1_565
Mg1 Mg2 3.308426 1_554
Mg2 Mg5 3.173744 1_455
Mg2 Mg5 3.173744 1_555
Mg2 Mg3 3.199314 1_455
Mg2 Mg4 3.199314 1_455
Mg2 Mg3 3.199314 1_555
Mg2 Mg4 3.199314 1_555
Mg2 Mg6 3.305337 1_555
Mg2 Mg7 3.305337 1_555
Mg3 Mg4 3.198809 1_545
Mg3 Mg5 3.391707 1_555
Mg3 Mg4 3.415248 1_555
Mg4 Mg5 3.391707 1_555
Mg5 Mg6 3.131689 1_555
Mg5 Mg7 3.131689 1_555
Mg5 Mg6 3.131689 1_655
Mg5 Mg7 3.131689 1_655
Mg5 Mg9 3.221035 1_555
Mg6 Mg9 3.116288 1_455
Mg6 Mg9 3.116288 1_555
Mg6 Mg7 3.202288 1_555
Mg6 Mg8 3.308426 1_565
Mg6 Mg7 3.411769 1_565
Mg7 Mg8 3.308426 1_555
Mg8 Mg9 3.199314 1_445
Mg8 Mg9 3.199314 1_545
Mg10 Mg7 3.116288 1_655
Mg10 Mg7 3.116288 1_555
Mg10 Mg9 3.198809 1_555
Mg10 Mg8 3.199314 1_555
Mg10 Mg8 3.199314 1_655
Mg10 Mg5 3.221035 1_555
Mg10 Mg11 3.391707 1_555
Mg10 Mg9 3.415248 1_545
Mg11 Mg8 3.173744 1_655
Mg11 Mg8 3.173744 1_555
Mg11 Mg4 3.221035 1_544
Mg11 Mg3 3.221035 1_554
Mg11 Mg9 3.391707 1_545
Al0 Ce0 3.087247 1_455
Al0 Ce0 3.087247 1_555
Al0 Mg9 3.149694 1_455
Al0 Mg10 3.149694 1_455
Al0 Mg9 3.149694 1_555
Al0 Mg10 3.149694 1_555
Al0 Mg7 3.274212 1_555
Al0 Mg6 3.274212 1_555
Al0 Mg8 3.307097 1_555
Al0 Mg8 3.307097 1_565
Al0 Mg1 3.339005 1_555
Al0 Mg0 3.339005 1_555
Al1 Ce1 3.087247 1_455
Al1 Ce1 3.087247 1_555
Al1 Mg3 3.149694 1_455
Al1 Mg4 3.149694 1_445
Al1 Mg3 3.149694 1_555
Al1 Mg4 3.149694 1_545
Al1 Mg1 3.274212 1_546
Al1 Mg0 3.274212 1_556
Al1 Mg2 3.307097 1_555
Al1 Mg2 3.307097 1_545
Al1 Mg6 3.339005 1_545
Al1 Mg7 3.339005 1_555
