# generated using pymatgen
data_Zn2NiWO6
_symmetry_space_group_name_H-M   'P 1'
_cell_length_a   5.40344600
_cell_length_b   5.44218556
_cell_length_c   5.80802112
_cell_angle_alpha   64.00579946
_cell_angle_beta   69.84084467
_cell_angle_gamma   75.84916084
_symmetry_Int_Tables_number   1
_chemical_formula_structural   Zn2NiWO6
_chemical_formula_sum   'Zn2 Ni1 W1 O6'
_cell_volume   143.22534041
_cell_formula_units_Z   1
loop_
 _symmetry_equiv_pos_site_id
 _symmetry_equiv_pos_as_xyz
  1  'x, y, z'
loop_
 _atom_site_type_symbol
 _atom_site_label
 _atom_site_symmetry_multiplicity
 _atom_site_fract_x
 _atom_site_fract_y
 _atom_site_fract_z
 _atom_site_occupancy
  Zn  Zn0  1  0.62573700  0.13067500  0.67532000  1
  Zn  Zn1  1  0.12748700  0.62357200  0.61762600  1
  Ni  Ni0  1  0.40536800  0.41529100  0.12807500  1
  W  W0  1  0.02884000  0.01872200  0.99467800  1
  O  O0  1  0.37156900  0.82238300  0.92832700  1
  O  O1  1  0.71691700  0.27166400  0.90883000  1
  O  O2  1  0.89359500  0.78782300  0.32890500  1
  O  O3  1  0.96869100  0.91827900  0.72641500  1
  O  O4  1  0.14698300  0.29697700  0.02461400  1
  O  O5  1  0.38162200  0.37824800  0.47977200  1
loop_
_geom_bond_atom_site_label_1
_geom_bond_atom_site_label_2
_geom_bond_distance
_geom_bond_site_symmetry_2
Ni0 O5 1.923699 1_555
Ni0 O1 1.953964 1_554
Ni0 O0 1.995697 1_554
Ni0 O4 2.020380 1_555
O0 W0 1.902980 1_565
O0 Zn0 2.105943 1_565
O1 W0 1.956391 1_655
O1 Zn0 2.056307 1_555
O2 W0 1.792864 1_664
O2 Zn1 2.191509 1_655
O3 Zn1 1.884023 1_655
O3 Zn0 1.972128 1_565
O3 W0 2.003622 1_665
O4 W0 1.873734 1_554
O4 Zn1 2.270475 1_554
O5 Zn1 1.895257 1_555
O5 Zn0 1.915056 1_555
