# generated using pymatgen
data_Ca(SiO2)8
_symmetry_space_group_name_H-M   'P 1'
_cell_length_a   14.06700200
_cell_length_b   6.75415700
_cell_length_c   10.10241113
_cell_angle_alpha   68.97879896
_cell_angle_beta   90.00000000
_cell_angle_gamma   90.00000000
_symmetry_Int_Tables_number   1
_chemical_formula_structural   Ca(SiO2)8
_chemical_formula_sum   'Ca2 Si16 O32'
_cell_volume   895.95821424
_cell_formula_units_Z   2
loop_
 _symmetry_equiv_pos_site_id
 _symmetry_equiv_pos_as_xyz
  1  'x, y, z'
loop_
 _atom_site_type_symbol
 _atom_site_label
 _atom_site_symmetry_multiplicity
 _atom_site_fract_x
 _atom_site_fract_y
 _atom_site_fract_z
 _atom_site_occupancy
  Ca  Ca0  1  0.72225400  0.50926900  0.63714100  1
  Ca  Ca1  1  0.27774600  0.50926900  0.13714100  1
  Si  Si0  1  0.64866300  0.82575400  0.05307500  1
  Si  Si1  1  0.35133700  0.82575400  0.55307500  1
  Si  Si2  1  0.87259100  0.82425300  0.09046400  1
  Si  Si3  1  0.12740900  0.82425300  0.59046400  1
  Si  Si4  1  0.62790200  0.87506800  0.35239200  1
  Si  Si5  1  0.37209800  0.87506800  0.85239200  1
  Si  Si6  1  0.47123000  0.19168700  0.35386800  1
  Si  Si7  1  0.52877000  0.19168700  0.85386800  1
  Si  Si8  1  0.50420200  0.48615600  0.03917500  1
  Si  Si9  1  0.49579800  0.48615600  0.53917500  1
  Si  Si10  1  0.99644000  0.21263200  0.41682000  1
  Si  Si11  1  0.00356000  0.21263200  0.91682000  1
  Si  Si12  1  0.97317600  0.50046300  0.60271400  1
  Si  Si13  1  0.02682400  0.50046300  0.10271400  1
  Si  Si14  1  0.85460600  0.87264400  0.39143300  1
  Si  Si15  1  0.14539400  0.87264400  0.89143300  1
  O  O0  1  0.88584100  0.67640400  0.54031500  1
  O  O1  1  0.11415900  0.67640400  0.04031500  1
  O  O2  1  0.92080100  0.03996900  0.98376700  1
  O  O3  1  0.07919900  0.03996900  0.48376700  1
  O  O4  1  0.90119100  0.09726800  0.38330700  1
  O  O5  1  0.09880900  0.09726800  0.88330700  1
  O  O6  1  0.61714000  0.88193500  0.19169000  1
  O  O7  1  0.38286000  0.88193500  0.69169000  1
  O  O8  1  0.88474500  0.81737700  0.25350200  1
  O  O9  1  0.11525500  0.81737700  0.75350200  1
  O  O10  1  0.38864100  0.01265100  0.40887300  1
  O  O11  1  0.61135900  0.01265100  0.90887300  1
  O  O12  1  0.44974200  0.33888500  0.18700000  1
  O  O13  1  0.55025800  0.33888500  0.68700000  1
  O  O14  1  0.92493800  0.62073800  0.07177100  1
  O  O15  1  0.07506200  0.62073800  0.57177100  1
  O  O16  1  0.58298600  0.65412000  0.46684300  1
  O  O17  1  0.41701400  0.65412000  0.96684300  1
  O  O18  1  0.57520300  0.08046200  0.36580600  1
  O  O19  1  0.42479700  0.08046200  0.86580600  1
  O  O20  1  0.73809400  0.86974400  0.40752000  1
  O  O21  1  0.26190600  0.86974400  0.90752000  1
  O  O22  1  0.95938700  0.38955400  0.77345000  1
  O  O23  1  0.04061300  0.38955400  0.27345000  1
  O  O24  1  0.47029900  0.34472500  0.44552500  1
  O  O25  1  0.52970100  0.34472500  0.94552500  1
  O  O26  1  0.60003100  0.59847000  0.06738800  1
  O  O27  1  0.39996900  0.59847000  0.56738800  1
  O  O28  1  0.96709500  0.32490600  0.52848900  1
  O  O29  1  0.03290500  0.32490600  0.02848900  1
  O  O30  1  0.76258900  0.81286800  0.04867400  1
  O  O31  1  0.23741100  0.81286800  0.54867400  1
loop_
_geom_bond_atom_site_label_1
_geom_bond_atom_site_label_2
_geom_bond_distance
_geom_bond_site_symmetry_2
Ca0 O16 2.558802 1_555
Ca0 O0 2.595067 1_555
Ca0 O13 2.648777 1_555
Ca0 O20 2.703081 1_555
Ca1 O17 2.558802 1_554
Ca1 O1 2.595067 1_555
Ca1 O12 2.648777 1_555
Ca1 O21 2.703081 1_554
O0 Si12 1.667754 1_555
O0 Si14 1.667883 1_555
O1 Si13 1.667754 1_555
O1 Si15 1.667883 1_554
O2 Si11 1.614578 1_655
O2 Si2 1.617982 1_546
O3 Si10 1.614578 1_455
O3 Si3 1.617982 1_545
O4 Si14 1.627437 1_545
O4 Si10 1.645072 1_555
O5 Si15 1.627437 1_545
O5 Si11 1.645072 1_555
O6 Si4 1.614537 1_555
O6 Si0 1.637927 1_555
O7 Si5 1.614537 1_555
O7 Si1 1.637927 1_555
O8 Si14 1.622934 1_555
O8 Si2 1.639930 1_555
O9 Si15 1.622934 1_555
O9 Si3 1.639930 1_555
O10 Si6 1.624406 1_555
O10 Si1 1.634555 1_545
O11 Si7 1.624406 1_555
O11 Si0 1.634555 1_546
O12 Si6 1.649005 1_555
O12 Si8 1.655537 1_555
O13 Si7 1.649005 1_555
O13 Si9 1.655537 1_555
O14 Si13 1.621606 1_655
O14 Si2 1.628980 1_555
O15 Si12 1.621606 1_455
O15 Si3 1.628980 1_555
O16 Si4 1.650818 1_555
O16 Si9 1.652410 1_555
O17 Si5 1.650818 1_555
O17 Si8 1.652410 1_556
O18 Si4 1.620890 1_545
O18 Si6 1.628821 1_555
O19 Si5 1.620890 1_545
O19 Si7 1.628821 1_555
O20 Si4 1.643110 1_555
O20 Si14 1.646435 1_555
O21 Si5 1.643110 1_555
O21 Si15 1.646435 1_555
O22 Si12 1.626927 1_555
O22 Si11 1.634063 1_655
O23 Si13 1.626927 1_555
O23 Si10 1.634063 1_455
O24 Si9 1.607676 1_555
O24 Si6 1.616366 1_555
O25 Si8 1.607676 1_556
O25 Si7 1.616366 1_555
O26 Si8 1.621413 1_555
O26 Si0 1.638972 1_555
O27 Si9 1.621413 1_555
O27 Si1 1.638972 1_555
O28 Si12 1.616619 1_555
O28 Si10 1.622299 1_555
O29 Si13 1.616619 1_555
O29 Si11 1.622299 1_554
O30 Si0 1.606439 1_555
O30 Si2 1.613035 1_555
O31 Si1 1.606439 1_555
O31 Si3 1.613035 1_555
