# generated using pymatgen
data_ZrAl
_symmetry_space_group_name_H-M   'P 1'
_cell_length_a   3.37867823
_cell_length_b   4.26310547
_cell_length_c   5.70375121
_cell_angle_alpha   90.00000000
_cell_angle_beta   107.22832989
_cell_angle_gamma   90.00000000
_symmetry_Int_Tables_number   1
_chemical_formula_structural   ZrAl
_chemical_formula_sum   'Zr2 Al2'
_cell_volume   78.46877903
_cell_formula_units_Z   2
loop_
 _symmetry_equiv_pos_site_id
 _symmetry_equiv_pos_as_xyz
  1  'x, y, z'
loop_
 _atom_site_type_symbol
 _atom_site_label
 _atom_site_symmetry_multiplicity
 _atom_site_fract_x
 _atom_site_fract_y
 _atom_site_fract_z
 _atom_site_occupancy
  Zr  Zr0  1  0.84067966  0.25000000  0.68135832  1
  Zr  Zr1  1  0.15932034  0.75000000  0.31864168  1
  Al  Al0  1  0.57127747  0.25000000  0.14255595  1
  Al  Al1  1  0.42872253  0.75000000  0.85744405  1
loop_
_geom_bond_atom_site_label_1
_geom_bond_atom_site_label_2
_geom_bond_distance
_geom_bond_site_symmetry_2
Al0 Al1 2.637438 1_554
Al0 Al1 2.637438 1_544
Al0 Zr1 2.884027 1_555
Al0 Zr1 2.884027 1_545
Al0 Zr1 2.884027 1_655
Al0 Zr1 2.884027 1_645
Al0 Zr0 2.935307 1_555
Al0 Zr0 3.027649 1_454
Al0 Zr0 3.027652 1_554
Al1 Zr0 2.884027 1_565
Al1 Zr0 2.884027 1_555
Al1 Zr0 2.884027 1_465
Al1 Zr0 2.884027 1_455
Al1 Zr1 2.935307 1_555
Al1 Zr1 3.027649 1_656
Al1 Zr1 3.027652 1_556
