# generated using pymatgen
data_Ru4CN4
_symmetry_space_group_name_H-M   'P 1'
_cell_length_a   10.07596400
_cell_length_b   2.76248100
_cell_length_c   14.44214300
_cell_angle_alpha   90.00000000
_cell_angle_beta   90.00000000
_cell_angle_gamma   90.00000000
_symmetry_Int_Tables_number   1
_chemical_formula_structural   Ru4CN4
_chemical_formula_sum   'Ru16 C4 N16'
_cell_volume   401.99212717
_cell_formula_units_Z   4
loop_
 _symmetry_equiv_pos_site_id
 _symmetry_equiv_pos_as_xyz
  1  'x, y, z'
loop_
 _atom_site_type_symbol
 _atom_site_label
 _atom_site_symmetry_multiplicity
 _atom_site_fract_x
 _atom_site_fract_y
 _atom_site_fract_z
 _atom_site_occupancy
  Ru  Ru0  1  0.14085100  0.25000000  0.15354700  1
  Ru  Ru1  1  0.64085100  0.25000000  0.34645300  1
  Ru  Ru2  1  0.85914900  0.75000000  0.84645300  1
  Ru  Ru3  1  0.35914900  0.75000000  0.65354700  1
  Ru  Ru4  1  0.90617800  0.25000000  0.05869800  1
  Ru  Ru5  1  0.40617800  0.25000000  0.44130200  1
  Ru  Ru6  1  0.09382200  0.75000000  0.94130200  1
  Ru  Ru7  1  0.59382200  0.75000000  0.55869800  1
  Ru  Ru8  1  0.44387900  0.25000000  0.88375500  1
  Ru  Ru9  1  0.94387900  0.25000000  0.61624500  1
  Ru  Ru10  1  0.55612100  0.75000000  0.11624500  1
  Ru  Ru11  1  0.05612100  0.75000000  0.38375500  1
  Ru  Ru12  1  0.20541500  0.25000000  0.80264800  1
  Ru  Ru13  1  0.70541500  0.25000000  0.69735200  1
  Ru  Ru14  1  0.79458500  0.75000000  0.19735200  1
  Ru  Ru15  1  0.29458500  0.75000000  0.30264800  1
  C  C0  1  0.34700600  0.25000000  0.00278200  1
  C  C1  1  0.84700600  0.25000000  0.49721800  1
  C  C2  1  0.65299400  0.75000000  0.99721800  1
  C  C3  1  0.15299400  0.75000000  0.50278200  1
  N  N0  1  0.65217800  0.25000000  0.21206600  1
  N  N1  1  0.15217800  0.25000000  0.28793400  1
  N  N2  1  0.34782200  0.75000000  0.78793400  1
  N  N3  1  0.84782200  0.75000000  0.71206600  1
  N  N4  1  0.01156000  0.25000000  0.84496300  1
  N  N5  1  0.51156000  0.25000000  0.65503700  1
  N  N6  1  0.98844000  0.75000000  0.15503700  1
  N  N7  1  0.48844000  0.75000000  0.34496300  1
  N  N8  1  0.21481400  0.25000000  0.01603500  1
  N  N9  1  0.71481400  0.25000000  0.48396500  1
  N  N10  1  0.78518600  0.75000000  0.98396500  1
  N  N11  1  0.28518600  0.75000000  0.51603500  1
  N  N12  1  0.42591100  0.25000000  0.07897600  1
  N  N13  1  0.92591000  0.25000000  0.42102400  1
  N  N14  1  0.57409000  0.75000000  0.92102400  1
  N  N15  1  0.07409000  0.75000000  0.57897600  1
loop_
_geom_bond_atom_site_label_1
_geom_bond_atom_site_label_2
_geom_bond_distance
_geom_bond_site_symmetry_2
C0 N8 1.345644 1_555
C0 N12 1.357566 1_555
C0 Ru8 1.976797 1_554
C1 N9 1.345644 1_555
C1 N13 1.357560 1_555
C1 Ru9 1.976797 1_555
C2 N10 1.345644 1_555
C2 N14 1.357560 1_555
C2 Ru10 1.976797 1_556
C3 N11 1.345644 1_555
C3 N15 1.357560 1_555
C3 Ru11 1.976797 1_555
N0 Ru1 1.944189 1_555
N0 Ru14 2.002969 1_545
N0 Ru14 2.002969 1_555
N0 Ru10 2.181665 1_545
N0 Ru10 2.181665 1_555
N1 Ru0 1.944189 1_555
N1 Ru15 2.002969 1_555
N1 Ru15 2.002969 1_545
N1 Ru11 2.181665 1_555
N1 Ru11 2.181665 1_545
N2 Ru3 1.944189 1_555
N2 Ru12 2.002969 1_565
N2 Ru12 2.002969 1_555
N2 Ru8 2.181665 1_555
N2 Ru8 2.181665 1_565
N3 Ru2 1.944189 1_555
N3 Ru13 2.002969 1_565
N3 Ru13 2.002969 1_555
N3 Ru9 2.181665 1_565
N3 Ru9 2.181665 1_555
N4 Ru12 2.046645 1_555
N4 Ru2 2.065581 1_445
N4 Ru2 2.065581 1_455
N4 Ru6 2.128540 1_555
N4 Ru6 2.128540 1_545
N5 Ru13 2.046645 1_555
N5 Ru3 2.065581 1_555
N5 Ru3 2.065581 1_545
N5 Ru7 2.128540 1_545
N5 Ru7 2.128540 1_555
N6 Ru14 2.046645 1_555
N6 Ru0 2.065581 1_655
N6 Ru0 2.065581 1_665
N6 Ru4 2.128540 1_555
N6 Ru4 2.128540 1_565
N7 Ru15 2.046645 1_555
N7 Ru1 2.065581 1_555
N7 Ru1 2.065581 1_565
N7 Ru5 2.128540 1_565
N7 Ru5 2.128540 1_555
N8 Ru0 2.121194 1_555
N8 Ru6 2.135171 1_544
N8 Ru6 2.135171 1_554
N9 Ru1 2.121194 1_555
N9 Ru7 2.135171 1_555
N9 Ru7 2.135171 1_545
N10 Ru2 2.121194 1_555
N10 Ru4 2.135171 1_566
N10 Ru4 2.135171 1_556
N11 Ru3 2.121194 1_555
N11 Ru5 2.135171 1_565
N11 Ru5 2.135171 1_555
N12 Ru10 1.979609 1_545
N12 Ru10 1.979609 1_555
N13 Ru11 1.979616 1_645
N13 Ru11 1.979616 1_655
N14 Ru8 1.979616 1_555
N14 Ru8 1.979616 1_565
N15 Ru9 1.979616 1_455
N15 Ru9 1.979616 1_465
