# generated using pymatgen
data_Ca2B5ClO9
_symmetry_space_group_name_H-M   'P 1'
_cell_length_a   6.34629100
_cell_length_b   11.27661000
_cell_length_c   11.41466900
_cell_angle_alpha   90.00000000
_cell_angle_beta   90.00000000
_cell_angle_gamma   90.00000000
_symmetry_Int_Tables_number   1
_chemical_formula_structural   Ca2B5ClO9
_chemical_formula_sum   'Ca8 B20 Cl4 O36'
_cell_volume   816.88677534
_cell_formula_units_Z   4
loop_
 _symmetry_equiv_pos_site_id
 _symmetry_equiv_pos_as_xyz
  1  'x, y, z'
loop_
 _atom_site_type_symbol
 _atom_site_label
 _atom_site_symmetry_multiplicity
 _atom_site_fract_x
 _atom_site_fract_y
 _atom_site_fract_z
 _atom_site_occupancy
  Ca  Ca0  1  0.14979500  0.03703000  0.74621300  1
  Ca  Ca1  1  0.14979500  0.96297000  0.25378700  1
  Ca  Ca2  1  0.64979500  0.53703000  0.75378700  1
  Ca  Ca3  1  0.64979500  0.46297000  0.24621300  1
  Ca  Ca4  1  0.31790900  0.25477500  0.46753900  1
  Ca  Ca5  1  0.31790900  0.74522500  0.53246100  1
  Ca  Ca6  1  0.81790900  0.75477500  0.03246100  1
  Ca  Ca7  1  0.81790900  0.24522500  0.96753900  1
  B  B0  1  0.31439100  0.72130500  0.19460500  1
  B  B1  1  0.31439100  0.27869500  0.80539500  1
  B  B2  1  0.81439100  0.22130500  0.30539500  1
  B  B3  1  0.81439100  0.77869500  0.69460500  1
  B  B4  1  0.35640800  0.24797400  0.02673600  1
  B  B5  1  0.35640800  0.75202600  0.97326400  1
  B  B6  1  0.85640800  0.74797400  0.47326400  1
  B  B7  1  0.85640800  0.25202600  0.52673600  1
  B  B8  1  0.19184200  0.51249500  0.23646000  1
  B  B9  1  0.19184200  0.48750500  0.76354000  1
  B  B10  1  0.69184200  0.01249500  0.26354000  1
  B  B11  1  0.69184200  0.98750500  0.73646000  1
  B  B12  1  0.45554700  0.17889700  0.22653000  1
  B  B13  1  0.45554700  0.82110300  0.77347000  1
  B  B14  1  0.95554700  0.67889700  0.27347000  1
  B  B15  1  0.95554700  0.32110300  0.72653000  1
  B  B16  1  0.12863200  0.29051600  0.19302300  1
  B  B17  1  0.12863200  0.70948400  0.80697700  1
  B  B18  1  0.62863200  0.79051600  0.30697700  1
  B  B19  1  0.62863200  0.20948400  0.69302300  1
  Cl  Cl0  1  0.99782600  0.00000000  0.00000000  1
  Cl  Cl1  1  0.49782600  0.50000000  0.50000000  1
  Cl  Cl2  1  0.23447500  0.00000000  0.50000000  1
  Cl  Cl3  1  0.73447500  0.50000000  0.00000000  1
  O  O0  1  0.51252300  0.21775400  0.10610100  1
  O  O1  1  0.51252300  0.78224600  0.89389900  1
  O  O2  1  0.01252300  0.71775400  0.39389900  1
  O  O3  1  0.01252300  0.28224600  0.60610100  1
  O  O4  1  0.42468600  0.75695600  0.08659500  1
  O  O5  1  0.42468600  0.24304400  0.91340500  1
  O  O6  1  0.92468600  0.25695600  0.41340500  1
  O  O7  1  0.92468600  0.74304400  0.58659500  1
  O  O8  1  0.35067500  0.59227900  0.21450600  1
  O  O9  1  0.35067500  0.40772100  0.78549400  1
  O  O10  1  0.85067500  0.09227900  0.28549400  1
  O  O11  1  0.85067500  0.90772100  0.71450600  1
  O  O12  1  0.58513700  0.24571400  0.31296200  1
  O  O13  1  0.58513700  0.75428600  0.68703800  1
  O  O14  1  0.08513700  0.74571400  0.18703800  1
  O  O15  1  0.08513700  0.25428600  0.81296200  1
  O  O16  1  0.40175400  0.20527800  0.71027400  1
  O  O17  1  0.40175400  0.79472200  0.28972600  1
  O  O18  1  0.90175400  0.70527800  0.78972600  1
  O  O19  1  0.90175400  0.29472200  0.21027400  1
  O  O20  1  0.49206300  0.04867600  0.23611600  1
  O  O21  1  0.49206300  0.95132400  0.76388400  1
  O  O22  1  0.99206300  0.54867600  0.26388400  1
  O  O23  1  0.99206300  0.45132400  0.73611600  1
  O  O24  1  0.23260600  0.19034400  0.25230500  1
  O  O25  1  0.23260600  0.80965600  0.74769500  1
  O  O26  1  0.73260600  0.69034400  0.24769500  1
  O  O27  1  0.73260600  0.30965600  0.75230500  1
  O  O28  1  0.15826000  0.28098400  0.06197100  1
  O  O29  1  0.15826000  0.71901600  0.93802900  1
  O  O30  1  0.65826000  0.78098400  0.43802900  1
  O  O31  1  0.65826000  0.21901600  0.56197100  1
  O  O32  1  0.25037200  0.39632800  0.23496700  1
  O  O33  1  0.25037200  0.60367200  0.76503300  1
  O  O34  1  0.75037200  0.89632800  0.26503300  1
  O  O35  1  0.75037200  0.10367200  0.73496700  1
loop_
_geom_bond_atom_site_label_1
_geom_bond_atom_site_label_2
_geom_bond_distance
_geom_bond_site_symmetry_2
Ca0 O21 2.385983 1_545
Ca0 O11 2.420908 1_445
Ca0 O16 2.514902 1_555
Ca0 O15 2.598261 1_555
Ca0 O25 2.617369 1_545
Ca0 O35 2.647020 1_455
Ca0 Cl2 2.891668 1_555
Ca0 Cl0 3.081641 1_456
Ca1 O20 2.385983 1_565
Ca1 O10 2.420908 1_465
Ca1 O17 2.514902 1_555
Ca1 O14 2.598261 1_555
Ca1 O24 2.617369 1_565
Ca1 O34 2.647020 1_455
Ca1 Cl2 2.891668 1_565
Ca1 Cl0 3.081641 1_465
Ca2 O23 2.385983 1_555
Ca2 O9 2.420908 1_555
Ca2 O18 2.514902 1_555
Ca2 O13 2.598261 1_555
Ca2 O27 2.617369 1_555
Ca2 O33 2.647020 1_555
Ca2 Cl3 2.891668 1_556
Ca2 Cl1 3.081641 1_555
Ca3 O22 2.385983 1_555
Ca3 O8 2.420908 1_555
Ca3 O19 2.514902 1_555
Ca3 O12 2.598261 1_555
Ca3 O26 2.617369 1_555
Ca3 O32 2.647020 1_555
Ca3 Cl3 2.891668 1_555
Ca3 Cl1 3.081641 1_555
Ca4 O31 2.447437 1_555
Ca4 O12 2.449450 1_555
Ca4 O3 2.520646 1_555
Ca4 O6 2.570990 1_455
Ca4 O24 2.618578 1_555
Ca4 O16 2.876052 1_555
Ca4 Cl2 2.944789 1_555
Ca4 Cl1 3.014620 1_555
Ca5 O30 2.447437 1_555
Ca5 O13 2.449450 1_555
Ca5 O2 2.520646 1_555
Ca5 O7 2.570990 1_455
Ca5 O25 2.618578 1_555
Ca5 O17 2.876052 1_555
Ca5 Cl2 2.944789 1_565
Ca5 Cl1 3.014620 1_555
Ca6 O29 2.447437 1_654
Ca6 O14 2.449450 1_655
Ca6 O1 2.520646 1_554
Ca6 O4 2.570990 1_555
Ca6 O26 2.618578 1_555
Ca6 O18 2.876052 1_554
Ca6 Cl3 2.944789 1_555
Ca6 Cl0 3.014620 1_565
Ca7 O28 2.447437 1_656
Ca7 O15 2.449450 1_655
Ca7 O0 2.520646 1_556
Ca7 O5 2.570990 1_555
Ca7 O27 2.618578 1_555
Ca7 O19 2.876052 1_556
Ca7 Cl3 2.944789 1_556
Ca7 Cl0 3.014620 1_556
B0 O4 1.473638 1_555
B0 O17 1.473672 1_555
B0 O14 1.483238 1_555
B0 O8 1.490497 1_555
B1 O5 1.473638 1_555
B1 O16 1.473672 1_555
B1 O15 1.483238 1_555
B1 O9 1.490497 1_555
B2 O6 1.473638 1_555
B2 O19 1.473672 1_555
B2 O12 1.483238 1_555
B2 O10 1.490497 1_555
B3 O7 1.473638 1_555
B3 O18 1.473672 1_555
B3 O13 1.483238 1_555
B3 O11 1.490497 1_555
B4 O5 1.365410 1_554
B4 O28 1.371730 1_555
B4 O0 1.385070 1_555
B5 O4 1.365410 1_556
B5 O29 1.371730 1_555
B5 O1 1.385070 1_555
B6 O7 1.365410 1_555
B6 O30 1.371730 1_555
B6 O2 1.385070 1_655
B7 O6 1.365410 1_555
B7 O31 1.371730 1_555
B7 O3 1.385070 1_655
B8 O32 1.361722 1_555
B8 O22 1.368179 1_455
B8 O8 1.374159 1_555
B9 O33 1.361722 1_555
B9 O23 1.368179 1_455
B9 O9 1.374159 1_555
B10 O34 1.361722 1_545
B10 O20 1.368179 1_555
B10 O10 1.374159 1_555
B11 O35 1.361722 1_565
B11 O21 1.368179 1_555
B11 O11 1.374159 1_555
B12 O24 1.450869 1_555
B12 O0 1.487422 1_555
B12 O12 1.489110 1_555
B12 O20 1.490646 1_555
B13 O25 1.450869 1_555
B13 O1 1.487422 1_555
B13 O13 1.489110 1_555
B13 O21 1.490646 1_555
B14 O26 1.450869 1_555
B14 O2 1.487422 1_655
B14 O14 1.489110 1_655
B14 O22 1.490646 1_555
B15 O27 1.450869 1_555
B15 O3 1.487422 1_655
B15 O15 1.489110 1_655
B15 O23 1.490646 1_555
B16 O19 1.454010 1_455
B16 O24 1.472854 1_555
B16 O32 1.499954 1_555
B16 O28 1.511513 1_555
B17 O18 1.454010 1_455
B17 O25 1.472854 1_555
B17 O33 1.499954 1_555
B17 O29 1.511513 1_555
B18 O17 1.454010 1_555
B18 O26 1.472854 1_555
B18 O34 1.499954 1_555
B18 O30 1.511513 1_555
B19 O16 1.454010 1_555
B19 O27 1.472854 1_555
B19 O35 1.499954 1_555
B19 O31 1.511513 1_555
