# generated using pymatgen
data_Ti6Ge5
_symmetry_space_group_name_H-M   'P 1'
_cell_length_a   5.41456900
_cell_length_b   8.41885700
_cell_length_c   9.43718333
_cell_angle_alpha   116.49035646
_cell_angle_beta   106.67091485
_cell_angle_gamma   90.00000000
_symmetry_Int_Tables_number   1
_chemical_formula_structural   Ti6Ge5
_chemical_formula_sum   'Ti12 Ge10'
_cell_volume   364.70931603
_cell_formula_units_Z   2
loop_
 _symmetry_equiv_pos_site_id
 _symmetry_equiv_pos_as_xyz
  1  'x, y, z'
loop_
 _atom_site_type_symbol
 _atom_site_label
 _atom_site_symmetry_multiplicity
 _atom_site_fract_x
 _atom_site_fract_y
 _atom_site_fract_z
 _atom_site_occupancy
  Ti  Ti0  1  0.65369700  0.65369700  0.30739400  1
  Ti  Ti1  1  0.34630300  0.34630300  0.69260600  1
  Ti  Ti2  1  0.75405000  0.00000000  0.00000000  1
  Ti  Ti3  1  0.24595000  0.00000000  0.00000000  1
  Ti  Ti4  1  0.00000000  0.50000000  0.50000000  1
  Ti  Ti5  1  0.50000000  0.00000000  0.50000000  1
  Ti  Ti6  1  0.00000000  0.00000000  0.50000000  1
  Ti  Ti7  1  0.50000000  0.50000000  0.50000000  1
  Ti  Ti8  1  0.91138400  0.62872500  0.82276700  1
  Ti  Ti9  1  0.91138400  0.19404300  0.82276700  1
  Ti  Ti10  1  0.08861600  0.80595700  0.17723300  1
  Ti  Ti11  1  0.08861600  0.37127500  0.17723300  1
  Ge  Ge0  1  0.83197900  0.83197900  0.66395800  1
  Ge  Ge1  1  0.16802100  0.16802100  0.33604200  1
  Ge  Ge2  1  0.79482600  0.29482600  0.58965200  1
  Ge  Ge3  1  0.20517400  0.70517400  0.41034800  1
  Ge  Ge4  1  0.73400700  0.50000000  0.00000000  1
  Ge  Ge5  1  0.26599300  0.50000000  0.00000000  1
  Ge  Ge6  1  0.60599000  0.29998400  0.21198000  1
  Ge  Ge7  1  0.60599000  0.91199600  0.21198000  1
  Ge  Ge8  1  0.39401000  0.08800400  0.78802000  1
  Ge  Ge9  1  0.39401000  0.70001600  0.78802000  1
loop_
_geom_bond_atom_site_label_1
_geom_bond_atom_site_label_2
_geom_bond_distance
_geom_bond_site_symmetry_2
Ti2 Ti3 2.663426 1_655
Ti2 Ti3 2.751143 1_555
Ti2 Ti8 3.073591 1_544
Ti2 Ti9 3.073598 1_554
Ti3 Ti8 3.073589 1_444
Ti3 Ti9 3.073595 1_454
Ti10 Ti2 3.073595 1_465
Ti10 Ti3 3.073598 1_565
Ti11 Ti2 3.073589 1_455
Ti11 Ti3 3.073591 1_555
Ge0 Ti8 2.697626 1_555
Ge0 Ti9 2.697633 1_565
Ge0 Ti7 2.825411 1_555
Ge0 Ti4 2.825411 1_655
Ge0 Ti5 2.825411 1_565
Ge0 Ti6 2.825411 1_665
Ge0 Ti0 2.852774 1_555
Ge0 Ti3 3.000323 1_666
Ge0 Ti2 3.000323 1_566
Ge1 Ti11 2.697626 1_555
Ge1 Ti10 2.697633 1_545
Ge1 Ti7 2.825411 1_555
Ge1 Ti4 2.825411 1_555
Ge1 Ti5 2.825411 1_555
Ge1 Ti6 2.825411 1_555
Ge1 Ti1 2.852774 1_555
Ge1 Ti2 3.000323 1_455
Ge1 Ti3 3.000323 1_555
Ge2 Ti5 2.603202 1_555
Ge2 Ti6 2.603202 1_655
Ge2 Ti7 2.603202 1_555
Ge2 Ti4 2.603202 1_655
Ge2 Ti9 2.612773 1_555
Ge2 Ti8 2.612779 1_555
Ge2 Ti1 2.829820 1_655
Ge2 Ti1 2.829820 1_555
Ge3 Ti5 2.603202 1_565
Ge3 Ti6 2.603202 1_565
Ge3 Ti7 2.603202 1_555
Ge3 Ti4 2.603202 1_555
Ge3 Ti10 2.612773 1_555
Ge3 Ti11 2.612779 1_555
Ge3 Ti0 2.829820 1_455
Ge3 Ti0 2.829820 1_555
Ge4 Ge5 2.534094 1_555
Ge4 Ti10 2.726353 1_655
Ge4 Ti9 2.726356 1_554
Ge4 Ti11 2.726359 1_655
Ge4 Ti8 2.726361 1_554
Ge4 Ti1 2.766577 1_554
Ge4 Ti0 2.766577 1_555
Ge4 Ge5 2.880475 1_655
Ge5 Ti9 2.726353 1_454
Ge5 Ti10 2.726356 1_555
Ge5 Ti8 2.726359 1_454
Ge5 Ti11 2.726361 1_555
Ge5 Ti0 2.766577 1_555
Ge5 Ti1 2.766577 1_554
Ge6 Ti0 2.686943 1_555
Ge6 Ti4 2.713815 1_655
Ge6 Ti7 2.713815 1_555
Ge6 Ti3 2.726896 1_555
Ge6 Ti2 2.726897 1_555
Ge6 Ti11 2.822030 1_655
Ge6 Ti11 2.822035 1_555
Ge7 Ti0 2.686944 1_555
Ge7 Ti6 2.713815 1_665
Ge7 Ti5 2.713815 1_565
Ge7 Ti3 2.726897 1_565
Ge7 Ti2 2.726897 1_565
Ge7 Ti10 2.822032 1_655
Ge7 Ti10 2.822037 1_555
Ge8 Ti1 2.686944 1_555
Ge8 Ti6 2.713815 1_555
Ge8 Ti5 2.713815 1_555
Ge8 Ti2 2.726897 1_556
Ge8 Ti3 2.726897 1_556
Ge8 Ti9 2.822032 1_455
Ge8 Ti9 2.822037 1_555
Ge9 Ti1 2.686943 1_555
Ge9 Ti4 2.713815 1_555
Ge9 Ti7 2.713815 1_555
Ge9 Ti2 2.726896 1_566
Ge9 Ti3 2.726897 1_566
Ge9 Ti8 2.822030 1_455
Ge9 Ti8 2.822035 1_555
