# generated using pymatgen
data_Tb2CdNi2
_symmetry_space_group_name_H-M   'P 1'
_cell_length_a   7.38248800
_cell_length_b   7.38248800
_cell_length_c   3.63854496
_cell_angle_alpha   90.00000000
_cell_angle_beta   90.00000000
_cell_angle_gamma   149.32412703
_symmetry_Int_Tables_number   1
_chemical_formula_structural   Tb2CdNi2
_chemical_formula_sum   'Tb2 Cd1 Ni2'
_cell_volume   101.17130437
_cell_formula_units_Z   1
loop_
 _symmetry_equiv_pos_site_id
 _symmetry_equiv_pos_as_xyz
  1  'x, y, z'
loop_
 _atom_site_type_symbol
 _atom_site_label
 _atom_site_symmetry_multiplicity
 _atom_site_fract_x
 _atom_site_fract_y
 _atom_site_fract_z
 _atom_site_occupancy
  Tb  Tb0  1  0.63807581  0.36192419  0.50000000  1
  Tb  Tb1  1  0.36192419  0.63807581  0.50000000  1
  Cd  Cd0  1  0.00000000  -0.00000000  0.00000000  1
  Ni  Ni0  1  0.79858361  0.20141639  0.00000000  1
  Ni  Ni1  1  0.20141639  0.79858361  -0.00000000  1
loop_
_geom_bond_atom_site_label_1
_geom_bond_atom_site_label_2
_geom_bond_distance
_geom_bond_site_symmetry_2
Cd0 Ni1 2.867985 1_545
Cd0 Ni0 2.867985 1_455
Cd0 Tb0 3.314882 1_445
Cd0 Tb0 3.314882 1_444
Cd0 Tb1 3.314882 1_444
Cd0 Tb1 3.314882 1_445
Cd0 Tb1 3.314882 1_554
Cd0 Tb1 3.314882 1_555
Cd0 Tb0 3.314882 1_555
Cd0 Tb0 3.314882 1_554
Ni0 Ni1 2.393224 1_545
Ni0 Ni1 2.393224 1_655
Ni0 Tb1 2.817170 1_655
Ni0 Tb1 2.817170 1_654
Ni0 Tb1 2.817170 1_544
Ni0 Tb1 2.817170 1_545
Ni0 Tb0 2.921162 1_555
Ni0 Tb0 2.921162 1_554
Ni1 Tb0 2.817170 1_454
Ni1 Tb0 2.817170 1_455
Ni1 Tb0 2.817170 1_564
Ni1 Tb0 2.817170 1_565
Ni1 Tb1 2.921162 1_554
Ni1 Tb1 2.921162 1_555
