# generated using pymatgen
data_RbMg14Nb
_symmetry_space_group_name_H-M   'P 1'
_cell_length_a   6.56064380
_cell_length_b   6.56064324
_cell_length_c   10.36322456
_cell_angle_alpha   90.00000000
_cell_angle_beta   90.00000000
_cell_angle_gamma   120.00000282
_symmetry_Int_Tables_number   1
_chemical_formula_structural   RbMg14Nb
_chemical_formula_sum   'Rb1 Mg14 Nb1'
_cell_volume   386.29439736
_cell_formula_units_Z   1
loop_
 _symmetry_equiv_pos_site_id
 _symmetry_equiv_pos_as_xyz
  1  'x, y, z'
loop_
 _atom_site_type_symbol
 _atom_site_label
 _atom_site_symmetry_multiplicity
 _atom_site_fract_x
 _atom_site_fract_y
 _atom_site_fract_z
 _atom_site_occupancy
  Rb  Rb0  1  0.16666700  0.33333300  0.12500000  1
  Mg  Mg0  1  0.17586559  0.83793230  0.12500000  1
  Mg  Mg1  1  0.16274127  0.83137013  0.62500000  1
  Mg  Mg2  1  0.66206770  0.32413441  0.12500000  1
  Mg  Mg3  1  0.66862987  0.33725873  0.62500000  1
  Mg  Mg4  1  0.66206770  0.83793230  0.12500000  1
  Mg  Mg5  1  0.66862987  0.83137013  0.62500000  1
  Mg  Mg6  1  0.33480646  0.16519354  0.39540375  1
  Mg  Mg7  1  0.33480646  0.16519354  0.85459625  1
  Mg  Mg8  1  0.33480646  0.66961393  0.39540375  1
  Mg  Mg9  1  0.33480646  0.66961393  0.85459625  1
  Mg  Mg10  1  0.83038607  0.16519354  0.39540375  1
  Mg  Mg11  1  0.83038607  0.16519354  0.85459625  1
  Mg  Mg12  1  0.83333300  0.66666700  0.37002696  1
  Mg  Mg13  1  0.83333300  0.66666700  0.87997304  1
  Nb  Nb0  1  0.16666700  0.33333300  0.62500000  1
loop_
_geom_bond_atom_site_label_1
_geom_bond_atom_site_label_2
_geom_bond_distance
_geom_bond_site_symmetry_2
Mg0 Mg2 3.189799 1_565
Mg0 Mg4 3.189799 1_555
Mg0 Mg12 3.199287 1_455
Mg0 Mg13 3.199287 1_454
Mg0 Rb0 3.280738 1_565
Mg0 Rb0 3.280738 1_555
Mg0 Mg8 3.363166 1_555
Mg0 Mg9 3.363166 1_554
Mg0 Mg6 3.363172 1_565
Mg0 Mg7 3.363172 1_564
Mg0 Mg2 3.370845 1_455
Mg0 Mg4 3.370845 1_455
Mg1 Mg9 3.042998 1_555
Mg1 Mg8 3.042998 1_555
Mg1 Mg7 3.043004 1_565
Mg1 Mg6 3.043004 1_565
Mg1 Mg12 3.238030 1_455
Mg1 Mg13 3.238030 1_455
Mg1 Mg3 3.241689 1_455
Mg1 Mg5 3.241689 1_455
Mg1 Nb0 3.280397 1_555
Mg1 Nb0 3.280397 1_565
Mg1 Mg3 3.318955 1_565
Mg1 Mg5 3.318955 1_555
Mg2 Mg4 3.189799 1_545
Mg2 Rb0 3.280738 1_555
Mg2 Rb0 3.280738 1_655
Mg2 Mg6 3.363172 1_555
Mg2 Mg7 3.363172 1_554
Mg2 Mg4 3.370845 1_555
Mg3 Mg7 3.043005 1_555
Mg3 Mg6 3.043005 1_555
Mg3 Mg5 3.241689 1_555
Mg3 Nb0 3.280398 1_655
Mg3 Nb0 3.280398 1_555
Mg3 Mg5 3.318955 1_545
Mg4 Rb0 3.280738 1_555
Mg4 Rb0 3.280738 1_665
Mg4 Mg8 3.363172 1_555
Mg4 Mg9 3.363172 1_554
Mg5 Mg9 3.043005 1_555
Mg5 Mg8 3.043005 1_555
Mg5 Nb0 3.280397 1_665
Mg5 Nb0 3.280397 1_555
Mg6 Nb0 3.051533 1_555
Mg6 Mg8 3.251321 1_545
Mg6 Mg8 3.309322 1_555
Mg6 Rb0 3.391628 1_555
Mg7 Nb0 3.051533 1_555
Mg7 Mg9 3.251321 1_545
Mg7 Mg9 3.309322 1_555
Mg7 Rb0 3.391628 1_556
Mg8 Nb0 3.051540 1_555
Mg8 Rb0 3.391634 1_555
Mg9 Nb0 3.051540 1_555
Mg9 Rb0 3.391634 1_556
Mg10 Mg3 3.042998 1_555
Mg10 Mg5 3.043005 1_545
Mg10 Nb0 3.051540 1_655
Mg10 Mg8 3.251321 1_545
Mg10 Mg6 3.251321 1_555
Mg10 Mg12 3.290889 1_555
Mg10 Mg12 3.290889 1_545
Mg10 Mg8 3.309322 1_655
Mg10 Mg6 3.309323 1_655
Mg10 Mg2 3.363166 1_555
Mg10 Mg4 3.363172 1_545
Mg10 Rb0 3.391635 1_655
Mg11 Mg3 3.042998 1_555
Mg11 Mg5 3.043005 1_545
Mg11 Nb0 3.051540 1_655
Mg11 Mg9 3.251321 1_545
Mg11 Mg7 3.251321 1_555
Mg11 Mg13 3.290889 1_555
Mg11 Mg13 3.290889 1_545
Mg11 Mg9 3.309322 1_655
Mg11 Mg7 3.309323 1_655
Mg11 Mg2 3.363166 1_556
Mg11 Mg4 3.363172 1_546
Mg11 Rb0 3.391635 1_656
Mg12 Mg4 3.199280 1_555
Mg12 Mg2 3.199287 1_555
Mg12 Mg5 3.238023 1_555
Mg12 Mg3 3.238030 1_555
Mg12 Mg6 3.290889 1_555
Mg12 Mg6 3.290889 1_665
Mg12 Mg8 3.290889 1_655
Mg12 Mg8 3.290889 1_555
Mg13 Mg4 3.199280 1_556
Mg13 Mg2 3.199287 1_556
Mg13 Mg5 3.238023 1_555
Mg13 Mg3 3.238030 1_555
Mg13 Mg7 3.290889 1_555
Mg13 Mg7 3.290889 1_665
Mg13 Mg9 3.290889 1_655
Mg13 Mg9 3.290889 1_555
