# generated using pymatgen
data_Al13Ru4
_symmetry_space_group_name_H-M   'P 1'
_cell_length_a   8.16335365
_cell_length_b   8.91592852
_cell_length_c   12.69060193
_cell_angle_alpha   105.73364595
_cell_angle_beta   89.99764124
_cell_angle_gamma   117.25178541
_symmetry_Int_Tables_number   1
_chemical_formula_structural   Al13Ru4
_chemical_formula_sum   'Al39 Ru12'
_cell_volume   782.02037775
_cell_formula_units_Z   3
loop_
 _symmetry_equiv_pos_site_id
 _symmetry_equiv_pos_as_xyz
  1  'x, y, z'
loop_
 _atom_site_type_symbol
 _atom_site_label
 _atom_site_symmetry_multiplicity
 _atom_site_fract_x
 _atom_site_fract_y
 _atom_site_fract_z
 _atom_site_occupancy
  Al  Al0  1  0.50000000  -0.00000000  0.50000000  1
  Al  Al1  1  0.74953910  -0.00003481  0.00004755  1
  Al  Al2  1  0.25046090  0.00003481  -0.00004755  1
  Al  Al3  1  0.06821146  0.13616808  0.17445518  1
  Al  Al4  1  0.93178854  0.86383192  0.82554482  1
  Al  Al5  1  0.32499002  0.65002111  0.28492240  1
  Al  Al6  1  0.67500998  0.34997889  0.71507760  1
  Al  Al7  1  0.23508780  0.47037050  0.54371630  1
  Al  Al8  1  0.76491220  0.52962950  0.45628370  1
  Al  Al9  1  0.07189906  0.14392023  0.58019158  1
  Al  Al10  1  0.92810094  0.85607977  0.41980842  1
  Al  Al11  1  0.23818032  0.47629452  0.95117469  1
  Al  Al12  1  0.76181968  0.52370548  0.04882531  1
  Al  Al13  1  0.48215296  0.96423419  0.82984874  1
  Al  Al14  1  0.51784704  0.03576581  0.17015126  1
  Al  Al15  1  0.31141380  0.62255759  0.77422355  1
  Al  Al16  1  0.68858620  0.37744241  0.22577645  1
  Al  Al17  1  0.08103317  0.16205859  0.78500402  1
  Al  Al18  1  0.91896683  0.83794141  0.21499598  1
  Al  Al19  1  0.96547065  0.37178367  0.10922504  1
  Al  Al20  1  0.59380306  0.62816691  0.89080717  1
  Al  Al21  1  0.03452935  0.62821633  0.89077496  1
  Al  Al22  1  0.40619694  0.37183309  0.10919283  1
  Al  Al23  1  0.14958617  0.73370981  0.10822288  1
  Al  Al24  1  0.41587336  0.26619181  0.89180207  1
  Al  Al25  1  0.85041383  0.26629019  0.89177712  1
  Al  Al26  1  0.58412664  0.73380819  0.10819793  1
  Al  Al27  1  0.95669999  0.35781925  0.33593524  1
  Al  Al28  1  0.59878307  0.64198274  0.66394605  1
  Al  Al29  1  0.04330001  0.64218075  0.66406476  1
  Al  Al30  1  0.40121693  0.35801726  0.33605395  1
  Al  Al31  1  0.25734525  0.98218847  0.33009766  1
  Al  Al32  1  0.27517039  0.01782500  0.66984800  1
  Al  Al33  1  0.74265475  0.01781153  0.66990234  1
  Al  Al34  1  0.72482961  0.98217500  0.33015200  1
  Al  Al35  1  0.14071347  0.72782227  0.48089577  1
  Al  Al36  1  0.41290800  0.27222465  0.51908175  1
  Al  Al37  1  0.85928653  0.27217773  0.51910423  1
  Al  Al38  1  0.58709200  0.72777535  0.48091825  1
  Ru  Ru0  1  0.08539793  0.17075763  0.38265012  1
  Ru  Ru1  1  0.91460207  0.82924237  0.61734988  1
  Ru  Ru2  1  0.40188933  0.80380016  0.62497324  1
  Ru  Ru3  1  0.59811067  0.19619984  0.37502676  1
  Ru  Ru4  1  0.09148788  0.18307783  0.98748092  1
  Ru  Ru5  1  0.90851212  0.81692217  0.01251908  1
  Ru  Ru6  1  0.40078875  0.80159871  0.98453789  1
  Ru  Ru7  1  0.59921125  0.19840129  0.01546211  1
  Ru  Ru8  1  0.02136785  0.63743124  0.27798814  1
  Ru  Ru9  1  0.38399504  0.36255207  0.72205796  1
  Ru  Ru10  1  0.97863215  0.36256876  0.72201186  1
  Ru  Ru11  1  0.61600496  0.63744793  0.27794204  1
loop_
_geom_bond_atom_site_label_1
_geom_bond_atom_site_label_2
_geom_bond_distance
_geom_bond_site_symmetry_2
Al0 Ru2 2.537385 1_545
Al0 Ru3 2.537385 1_555
Al0 Al35 2.777203 1_545
Al0 Al37 2.777203 1_555
Al0 Al38 2.777884 1_545
Al0 Al36 2.777884 1_555
Al0 Al32 2.849720 1_555
Al0 Al34 2.849720 1_545
Al0 Al31 2.850384 1_545
Al0 Al33 2.850384 1_555
Al1 Ru4 2.539799 1_654
Al1 Ru5 2.540146 1_545
Al1 Ru6 2.544013 1_544
Al1 Ru7 2.544623 1_555
Al1 Al26 2.858330 1_545
Al1 Al19 2.859089 1_555
Al1 Al20 2.859233 1_544
Al1 Al25 2.860605 1_554
Al1 Al14 2.918586 1_555
Al1 Al13 2.919182 1_544
Al1 Al4 2.964218 1_544
Al1 Al3 2.964910 1_655
Al2 Ru5 2.539799 1_445
Al2 Ru4 2.540146 1_554
Al2 Ru7 2.544013 1_555
Al2 Ru6 2.544623 1_544
Al2 Al24 2.858330 1_554
Al2 Al21 2.859089 1_544
Al2 Al22 2.859233 1_555
Al2 Al23 2.860605 1_545
Al2 Al3 2.964218 1_555
Al2 Al4 2.964910 1_444
Al3 Ru4 2.511312 1_554
Al3 Ru0 2.571787 1_555
Al3 Ru5 2.730248 1_445
Al3 Al30 2.895565 1_555
Al4 Ru5 2.511312 1_556
Al4 Ru1 2.571787 1_555
Al4 Ru4 2.730248 1_665
Al5 Ru11 2.429538 1_555
Al5 Ru8 2.429721 1_555
Al6 Ru9 2.429538 1_555
Al6 Ru10 2.429721 1_555
Al7 Ru2 2.526980 1_555
Al7 Ru0 2.618537 1_555
Al7 Al9 2.764102 1_555
Al7 Ru10 3.124532 1_455
Al7 Ru9 3.126407 1_555
Al8 Ru3 2.526980 1_555
Al8 Ru1 2.618537 1_555
Al8 Ru8 3.124532 1_655
Al8 Ru11 3.126407 1_555
Al9 Ru0 2.579767 1_555
Al9 Ru10 2.660007 1_455
Al9 Ru9 2.661023 1_555
Al9 Ru1 2.676006 1_445
Al10 Al9 2.552508 1_665
Al10 Al18 2.559009 1_555
Al10 Ru1 2.579767 1_555
Al10 Ru8 2.660007 1_655
Al10 Ru11 2.661023 1_555
Al10 Ru0 2.676006 1_665
Al10 Al35 2.686934 1_655
Al10 Al38 2.687758 1_555
Al10 Al8 2.764102 1_555
Al10 Al31 2.776814 1_655
Al10 Al34 2.777487 1_555
Al11 Ru6 2.482286 1_555
Al11 Ru4 2.503404 1_555
Al11 Al17 2.728875 1_555
Al11 Al20 2.794759 1_555
Al11 Al21 2.794913 1_555
Al11 Al25 2.810882 1_455
Al11 Al24 2.811393 1_555
Al11 Al15 2.823987 1_555
Al11 Al26 2.966303 1_556
Al11 Al23 2.966812 1_556
Al11 Al22 2.992178 1_556
Al11 Al19 2.993473 1_456
Al12 Ru7 2.482286 1_555
Al12 Ru5 2.503404 1_555
Al12 Al18 2.728875 1_555
Al12 Al22 2.794759 1_555
Al12 Al19 2.794913 1_555
Al12 Al23 2.810882 1_655
Al12 Al26 2.811393 1_555
Al12 Al16 2.823987 1_555
Al12 Al24 2.966303 1_554
Al12 Al25 2.966812 1_554
Al12 Al20 2.992178 1_554
Al12 Al21 2.993473 1_654
Al13 Ru7 2.515281 1_566
Al13 Ru2 2.521947 1_555
Al13 Al15 2.581980 1_555
Al13 Ru6 2.656917 1_555
Al13 Al24 2.888780 1_565
Al13 Al25 2.888918 1_565
Al13 Al33 2.909609 1_565
Al13 Al32 2.910682 1_565
Al13 Al2 2.918586 1_566
Al14 Ru6 2.515281 1_544
Al14 Ru3 2.521947 1_555
Al14 Al16 2.581980 1_555
Al14 Ru7 2.656917 1_555
Al14 Al26 2.888780 1_545
Al14 Al23 2.888918 1_545
Al14 Al31 2.909609 1_545
Al14 Al34 2.910682 1_545
Al14 Al2 2.919182 1_555
Al15 Ru9 2.566884 1_555
Al15 Ru10 2.567585 1_455
Al15 Ru6 2.612869 1_555
Al15 Al28 2.692748 1_555
Al15 Al29 2.694252 1_555
Al15 Ru2 2.703905 1_555
Al15 Al20 2.712966 1_555
Al15 Al21 2.713481 1_555
Al15 Al7 2.803540 1_555
Al16 Ru11 2.566884 1_555
Al16 Ru8 2.567585 1_655
Al16 Ru7 2.612869 1_555
Al16 Al30 2.692748 1_555
Al16 Al27 2.694252 1_555
Al16 Ru3 2.703905 1_555
Al16 Al22 2.712966 1_555
Al16 Al19 2.713481 1_555
Al16 Al8 2.803540 1_555
Al17 Ru4 2.523732 1_555
Al17 Al9 2.559009 1_555
Al17 Al4 2.567927 1_445
Al17 Ru9 2.583737 1_555
Al17 Ru10 2.584097 1_455
Al17 Al33 2.673212 1_455
Al17 Al32 2.673588 1_555
Al17 Al25 2.676399 1_455
Al17 Al24 2.676607 1_555
Al17 Ru1 2.839382 1_445
Al18 Ru5 2.523732 1_555
Al18 Al3 2.567927 1_665
Al18 Ru11 2.583737 1_555
Al18 Ru8 2.584097 1_655
Al18 Al31 2.673212 1_655
Al18 Al34 2.673588 1_555
Al18 Al23 2.676399 1_655
Al18 Al26 2.676607 1_555
Al18 Ru0 2.839382 1_665
Al19 Ru4 2.539935 1_654
Al19 Ru8 2.581503 1_655
Al19 Al25 2.676839 1_554
Al19 Ru7 2.741348 1_555
Al19 Al23 2.872747 1_655
Al19 Al3 2.891109 1_655
Al19 Al27 2.912792 1_555
Al20 Ru5 2.539532 1_556
Al20 Ru9 2.581323 1_555
Al20 Al26 2.676444 1_556
Al20 Ru6 2.742669 1_555
Al20 Al24 2.873106 1_555
Al20 Al4 2.889265 1_555
Al20 Al28 2.914314 1_555
Al21 Ru5 2.539935 1_456
Al21 Ru10 2.581503 1_455
Al21 Al23 2.676839 1_556
Al21 Ru6 2.741348 1_555
Al21 Al25 2.872747 1_455
Al21 Al4 2.891109 1_455
Al21 Al29 2.912792 1_555
Al22 Ru4 2.539532 1_554
Al22 Ru11 2.581323 1_555
Al22 Al24 2.676444 1_554
Al22 Ru7 2.742669 1_555
Al22 Al26 2.873106 1_555
Al22 Al3 2.889265 1_555
Al22 Al30 2.914314 1_555
Al23 Ru6 2.532506 1_554
Al23 Ru8 2.579521 1_555
Al23 Ru5 2.779295 1_455
Al23 Al31 2.905613 1_555
Al23 Al5 3.085721 1_555
Al24 Ru7 2.532014 1_556
Al24 Ru9 2.579677 1_555
Al24 Ru4 2.779637 1_555
Al24 Al32 2.906045 1_555
Al24 Al6 3.086091 1_555
Al25 Ru7 2.532506 1_556
Al25 Ru10 2.579521 1_555
Al25 Ru4 2.779295 1_655
Al25 Al33 2.905613 1_555
Al25 Al6 3.085721 1_555
Al26 Ru6 2.532014 1_554
Al26 Ru11 2.579677 1_555
Al26 Ru5 2.779637 1_555
Al26 Al34 2.906045 1_555
Al26 Al5 3.086091 1_555
Al27 Ru0 2.525444 1_655
Al27 Ru8 2.612182 1_655
Al27 Al37 2.650511 1_555
Al27 Ru3 2.723258 1_555
Al27 Al8 2.838616 1_555
Al27 Al3 2.895630 1_655
Al27 Al35 2.948605 1_655
Al27 Al34 2.977654 1_545
Al27 Al7 3.098646 1_655
Al27 Al5 3.160182 1_655
Al28 Ru1 2.525335 1_555
Al28 Ru9 2.611707 1_555
Al28 Al38 2.649479 1_555
Al28 Ru2 2.724036 1_555
Al28 Al7 2.838653 1_555
Al28 Al4 2.895565 1_555
Al28 Al36 2.946651 1_555
Al28 Al33 2.978570 1_565
Al28 Al8 3.098374 1_555
Al28 Al6 3.160112 1_555
Al29 Ru1 2.525444 1_455
Al29 Ru10 2.612182 1_455
Al29 Al35 2.650511 1_555
Al29 Ru2 2.723258 1_555
Al29 Al7 2.838616 1_555
Al29 Al4 2.895630 1_455
Al29 Al37 2.948605 1_455
Al29 Al32 2.977654 1_565
Al29 Al8 3.098646 1_455
Al29 Al6 3.160182 1_455
Al30 Ru0 2.525335 1_555
Al30 Ru11 2.611707 1_555
Al30 Al36 2.649479 1_555
Al30 Ru3 2.724036 1_555
Al30 Al8 2.838653 1_555
Al30 Al38 2.946651 1_555
Al30 Al31 2.978570 1_545
Al30 Al7 3.098374 1_555
Al30 Al5 3.160112 1_555
Al31 Ru3 2.500677 1_565
Al31 Ru0 2.606683 1_565
Al31 Ru8 2.659242 1_555
Al31 Al36 2.771471 1_565
Al32 Ru2 2.500822 1_545
Al32 Ru1 2.606736 1_445
Al32 Ru9 2.658953 1_555
Al32 Al35 2.771084 1_545
Al32 Al9 2.777487 1_555
Al33 Ru2 2.500677 1_545
Al33 Ru1 2.606683 1_545
Al33 Ru10 2.659242 1_555
Al33 Al38 2.771471 1_545
Al33 Al9 2.776814 1_655
Al34 Ru3 2.500822 1_565
Al34 Ru0 2.606736 1_665
Al34 Ru11 2.658953 1_555
Al34 Al37 2.771084 1_565
Al35 Ru2 2.520649 1_555
Al35 Ru8 2.526871 1_555
Al35 Al8 2.714342 1_455
Al35 Ru1 2.811149 1_455
Al35 Al5 2.991509 1_555
Al35 Al7 3.018294 1_555
Al36 Ru3 2.520630 1_555
Al36 Ru9 2.527543 1_555
Al36 Al9 2.687758 1_555
Al36 Al7 2.715690 1_555
Al36 Ru0 2.810701 1_555
Al36 Al6 2.992019 1_555
Al36 Al8 3.018540 1_555
Al37 Ru3 2.520649 1_555
Al37 Ru10 2.526871 1_555
Al37 Al9 2.686934 1_655
Al37 Al7 2.714342 1_655
Al37 Ru0 2.811149 1_655
Al37 Al6 2.991509 1_555
Al37 Al8 3.018294 1_555
Al38 Ru2 2.520630 1_555
Al38 Ru11 2.527543 1_555
Al38 Al8 2.715690 1_555
Al38 Ru1 2.810701 1_555
Al38 Al5 2.992019 1_555
Al38 Al7 3.018540 1_555
