# generated using pymatgen
data_EuSe2
_symmetry_space_group_name_H-M   'P 1'
_cell_length_a   4.09481881
_cell_length_b   4.09481881
_cell_length_c   8.87716105
_cell_angle_alpha   90.00000000
_cell_angle_beta   90.00000000
_cell_angle_gamma   90.00000000
_symmetry_Int_Tables_number   1
_chemical_formula_structural   EuSe2
_chemical_formula_sum   'Eu2 Se4'
_cell_volume   148.84816264
_cell_formula_units_Z   2
loop_
 _symmetry_equiv_pos_site_id
 _symmetry_equiv_pos_as_xyz
  1  'x, y, z'
loop_
 _atom_site_type_symbol
 _atom_site_label
 _atom_site_symmetry_multiplicity
 _atom_site_fract_x
 _atom_site_fract_y
 _atom_site_fract_z
 _atom_site_occupancy
  Eu  Eu0  1  0.75000000  0.75000000  0.71256464  1
  Eu  Eu1  1  0.25000000  0.25000000  0.28750742  1
  Se  Se0  1  0.75000000  0.25000000  0.99996538  1
  Se  Se1  1  0.25000000  0.75000000  0.99996538  1
  Se  Se2  1  0.75000000  0.75000000  0.36551093  1
  Se  Se3  1  0.25000000  0.25000000  0.63448925  1
loop_
_geom_bond_atom_site_label_1
_geom_bond_atom_site_label_2
_geom_bond_distance
_geom_bond_site_symmetry_2
Eu0 Se3 2.977271 1_665
Eu0 Se3 2.977271 1_555
Eu0 Se3 2.977271 1_655
Eu0 Se3 2.977271 1_565
Eu0 Se2 3.080852 1_555
Eu0 Se0 3.271243 1_565
Eu0 Se0 3.271243 1_555
Eu0 Se1 3.271243 1_555
Eu0 Se1 3.271243 1_655
Eu1 Se2 2.977122 1_455
Eu1 Se2 2.977122 1_445
Eu1 Se2 2.977122 1_545
Eu1 Se2 2.977122 1_555
Eu1 Se3 3.080214 1_555
Eu1 Se0 3.272221 1_454
Eu1 Se1 3.272221 1_554
Eu1 Se1 3.272221 1_544
Eu1 Se0 3.272221 1_554
Se0 Se1 2.895474 1_555
Se0 Se1 2.895474 1_545
Se0 Se1 2.895474 1_655
Se0 Se1 2.895474 1_645
