# generated using pymatgen
data_Cs2BaP2O7
_symmetry_space_group_name_H-M   'P 1'
_cell_length_a   6.27439500
_cell_length_b   10.92874400
_cell_length_c   15.45586832
_cell_angle_alpha   62.15314779
_cell_angle_beta   90.00000000
_cell_angle_gamma   90.00000000
_symmetry_Int_Tables_number   1
_chemical_formula_structural   Cs2BaP2O7
_chemical_formula_sum   'Cs8 Ba4 P8 O28'
_cell_volume   937.09945704
_cell_formula_units_Z   4
loop_
 _symmetry_equiv_pos_site_id
 _symmetry_equiv_pos_as_xyz
  1  'x, y, z'
loop_
 _atom_site_type_symbol
 _atom_site_label
 _atom_site_symmetry_multiplicity
 _atom_site_fract_x
 _atom_site_fract_y
 _atom_site_fract_z
 _atom_site_occupancy
  Cs  Cs0  1  0.73551400  0.48195700  0.65597400  1
  Cs  Cs1  1  0.76448600  0.48195700  0.15597400  1
  Cs  Cs2  1  0.26448600  0.51804300  0.34402600  1
  Cs  Cs3  1  0.23551400  0.51804300  0.84402600  1
  Cs  Cs4  1  0.72423300  0.03311800  0.82619900  1
  Cs  Cs5  1  0.77576700  0.03311800  0.32619900  1
  Cs  Cs6  1  0.27576700  0.96688200  0.17380100  1
  Cs  Cs7  1  0.22423300  0.96688200  0.67380100  1
  Ba  Ba0  1  0.75771000  0.23975900  0.50854300  1
  Ba  Ba1  1  0.74229000  0.23975900  0.00854300  1
  Ba  Ba2  1  0.24229000  0.76024100  0.49145700  1
  Ba  Ba3  1  0.25771000  0.76024100  0.99145700  1
  P  P0  1  0.22316500  0.17602100  0.86468900  1
  P  P1  1  0.27683500  0.17602100  0.36468900  1
  P  P2  1  0.77683500  0.82397900  0.13531100  1
  P  P3  1  0.72316500  0.82397900  0.63531100  1
  P  P4  1  0.74018200  0.67347700  0.85847500  1
  P  P5  1  0.75981800  0.67347700  0.35847500  1
  P  P6  1  0.25981800  0.32652300  0.14152500  1
  P  P7  1  0.24018200  0.32652300  0.64152500  1
  O  O0  1  0.52813100  0.74564300  0.85506400  1
  O  O1  1  0.97186900  0.74564300  0.35506400  1
  O  O2  1  0.47186900  0.25435700  0.14493600  1
  O  O3  1  0.02813100  0.25435700  0.64493600  1
  O  O4  1  0.21284200  0.03269800  0.86916000  1
  O  O5  1  0.28715800  0.03269800  0.36916000  1
  O  O6  1  0.78715800  0.96730200  0.13084000  1
  O  O7  1  0.71284200  0.96730200  0.63084000  1
  O  O8  1  0.00366300  0.23171400  0.87382100  1
  O  O9  1  0.49633700  0.23171400  0.37382100  1
  O  O10  1  0.99633700  0.76828600  0.12617900  1
  O  O11  1  0.50366300  0.76828600  0.62617900  1
  O  O12  1  0.31468800  0.28538800  0.75501700  1
  O  O13  1  0.18531200  0.28538800  0.25501700  1
  O  O14  1  0.68531200  0.71461200  0.24498300  1
  O  O15  1  0.81468800  0.71461200  0.74498300  1
  O  O16  1  0.39296600  0.18762000  0.93177900  1
  O  O17  1  0.10703400  0.18762000  0.43177900  1
  O  O18  1  0.60703400  0.81238000  0.06822100  1
  O  O19  1  0.89296600  0.81238000  0.56822100  1
  O  O20  1  0.72129100  0.51505000  0.90670200  1
  O  O21  1  0.77870900  0.51505000  0.40670200  1
  O  O22  1  0.27870900  0.48495000  0.09329800  1
  O  O23  1  0.22129100  0.48495000  0.59329800  1
  O  O24  1  0.92717900  0.72352900  0.89769800  1
  O  O25  1  0.57282100  0.72352900  0.39769800  1
  O  O26  1  0.07282100  0.27647100  0.10230200  1
  O  O27  1  0.42717900  0.27647100  0.60230200  1
loop_
_geom_bond_atom_site_label_1
_geom_bond_atom_site_label_2
_geom_bond_distance
_geom_bond_site_symmetry_2
Cs0 O3 3.159666 1_655
Cs0 O23 3.193730 1_655
Cs0 O11 3.282385 1_555
Cs0 O12 3.295144 1_555
Cs0 O27 3.348798 1_555
Cs0 O19 3.358580 1_555
Cs0 O23 3.364487 1_555
Cs0 O15 3.445597 1_555
Cs0 O8 3.611694 1_655
Cs0 O21 3.707551 1_555
Cs0 O25 3.755200 1_555
Cs1 O2 3.159666 1_555
Cs1 O22 3.193730 1_555
Cs1 O10 3.282385 1_555
Cs1 O13 3.295144 1_655
Cs1 O26 3.348798 1_655
Cs1 O18 3.358580 1_555
Cs1 O22 3.364487 1_655
Cs1 O14 3.445597 1_555
Cs1 O9 3.611694 1_555
Cs1 O20 3.707551 1_554
Cs1 O24 3.755200 1_554
Cs2 O1 3.159666 1_455
Cs2 O21 3.193730 1_455
Cs2 O9 3.282385 1_555
Cs2 O14 3.295144 1_555
Cs2 O25 3.348798 1_555
Cs2 O17 3.358580 1_555
Cs2 O21 3.364487 1_555
Cs2 O13 3.445597 1_555
Cs2 O10 3.611694 1_455
Cs2 O23 3.707551 1_555
Cs2 O27 3.755200 1_555
Cs3 O0 3.159666 1_555
Cs3 O20 3.193730 1_555
Cs3 O8 3.282385 1_555
Cs3 O15 3.295144 1_455
Cs3 O24 3.348798 1_455
Cs3 O16 3.358580 1_555
Cs3 O20 3.364487 1_455
Cs3 O12 3.445597 1_555
Cs3 O11 3.611694 1_555
Cs3 O22 3.707551 1_556
Cs3 O26 3.755200 1_556
Cs4 O8 3.133485 1_655
Cs4 O4 3.136358 1_655
Cs4 O0 3.205319 1_545
Cs4 O4 3.276221 1_555
Cs4 O24 3.285906 1_545
Cs4 O3 3.316994 1_655
Cs4 O7 3.415918 1_545
Cs4 O18 3.452908 1_546
Cs4 O16 3.522531 1_555
Cs4 O12 3.546947 1_555
Cs4 O27 3.731522 1_555
Cs5 O9 3.133485 1_555
Cs5 O5 3.136358 1_555
Cs5 O1 3.205319 1_545
Cs5 O5 3.276221 1_655
Cs5 O25 3.285906 1_545
Cs5 O2 3.316994 1_555
Cs5 O6 3.415918 1_545
Cs5 O19 3.452908 1_545
Cs5 O17 3.522531 1_655
Cs5 O13 3.546947 1_655
Cs5 O26 3.731522 1_655
Cs6 O10 3.133485 1_455
Cs6 O6 3.136358 1_455
Cs6 O2 3.205319 1_565
Cs6 O6 3.276221 1_555
Cs6 O26 3.285906 1_565
Cs6 O1 3.316994 1_455
Cs6 O5 3.415918 1_565
Cs6 O16 3.452908 1_564
Cs6 O18 3.522531 1_555
Cs6 O14 3.546947 1_555
Cs6 O25 3.731522 1_555
Cs7 O11 3.133485 1_555
Cs7 O7 3.136358 1_555
Cs7 O3 3.205319 1_565
Cs7 O7 3.276221 1_455
Cs7 O27 3.285906 1_565
Cs7 O0 3.316994 1_555
Cs7 O4 3.415918 1_565
Cs7 O17 3.452908 1_565
Cs7 O19 3.522531 1_455
Cs7 O15 3.546947 1_455
Cs7 O24 3.731522 1_455
Ba0 O27 2.665539 1_555
Ba0 O21 2.668787 1_555
Ba0 O17 2.677297 1_655
Ba0 O9 2.684021 1_555
Ba0 O7 2.694483 1_545
Ba0 O3 2.768122 1_655
Ba1 O26 2.665539 1_655
Ba1 O20 2.668787 1_554
Ba1 O16 2.677297 1_554
Ba1 O8 2.684021 1_654
Ba1 O6 2.694483 1_545
Ba1 O2 2.768122 1_555
Ba2 O25 2.665539 1_555
Ba2 O23 2.668787 1_555
Ba2 O19 2.677297 1_455
Ba2 O11 2.684021 1_555
Ba2 O5 2.694483 1_565
Ba2 O1 2.768122 1_455
Ba3 O24 2.665539 1_455
Ba3 O22 2.668787 1_556
Ba3 O18 2.677297 1_556
Ba3 O10 2.684021 1_456
Ba3 O4 2.694483 1_565
Ba3 O0 2.768122 1_555
O0 P4 1.534981 1_555
O1 P5 1.534981 1_555
O2 P6 1.534981 1_555
O3 P7 1.534981 1_555
O4 P0 1.536644 1_555
O5 P1 1.536644 1_555
O6 P2 1.536644 1_555
O7 P3 1.536644 1_555
O8 P0 1.538647 1_555
O9 P1 1.538647 1_555
O10 P2 1.538647 1_555
O11 P3 1.538647 1_555
O12 P0 1.654962 1_555
O12 P7 1.661585 1_555
O13 P1 1.654962 1_555
O13 P6 1.661585 1_555
O14 P2 1.654962 1_555
O14 P5 1.661585 1_555
O15 P3 1.654962 1_555
O15 P4 1.661585 1_555
O16 P0 1.532701 1_555
O17 P1 1.532701 1_555
O18 P2 1.532701 1_555
O19 P3 1.532701 1_555
O20 P4 1.536799 1_555
O21 P5 1.536799 1_555
O22 P6 1.536799 1_555
O23 P7 1.536799 1_555
O24 P4 1.533994 1_555
O25 P5 1.533994 1_555
O26 P6 1.533994 1_555
O27 P7 1.533994 1_555
