# generated using pymatgen
data_Rb2LiPr2(WO4)4
_symmetry_space_group_name_H-M   'P 1'
_cell_length_a   7.62803103
_cell_length_b   8.13485192
_cell_length_c   7.59493709
_cell_angle_alpha   62.65048125
_cell_angle_beta   62.55196284
_cell_angle_gamma   88.37977710
_symmetry_Int_Tables_number   1
_chemical_formula_structural   Rb2LiPr2(WO4)4
_chemical_formula_sum   'Rb2 Li1 Pr2 W4 O16'
_cell_volume   361.27898126
_cell_formula_units_Z   1
loop_
 _symmetry_equiv_pos_site_id
 _symmetry_equiv_pos_as_xyz
  1  'x, y, z'
loop_
 _atom_site_type_symbol
 _atom_site_label
 _atom_site_symmetry_multiplicity
 _atom_site_fract_x
 _atom_site_fract_y
 _atom_site_fract_z
 _atom_site_occupancy
  Rb  Rb0  1  0.75126700  0.15002400  0.80360000  1
  Rb  Rb1  1  0.22541400  0.84534200  0.22974900  1
  Li  Li0  1  0.01049000  0.47391300  0.37003200  1
  Pr  Pr0  1  0.24503500  0.79426500  0.74514700  1
  Pr  Pr1  1  0.76206500  0.20606500  0.26346500  1
  W  W0  1  0.29173900  0.32077300  0.69943600  1
  W  W1  1  0.69279500  0.68185800  0.29302800  1
  W  W2  1  0.69493300  0.68254700  0.78811000  1
  W  W3  1  0.31814500  0.30467900  0.19885800  1
  O  O0  1  0.36477800  0.26579200  0.93303100  1
  O  O1  1  0.62996700  0.73522100  0.06442200  1
  O  O2  1  0.76456300  0.61610400  0.55886500  1
  O  O3  1  0.23592800  0.38416400  0.44688800  1
  O  O4  1  0.62429800  0.91007900  0.64274500  1
  O  O5  1  0.38220800  0.07966400  0.35882100  1
  O  O6  1  0.04036500  0.34685600  0.87492300  1
  O  O7  1  0.95795200  0.65490000  0.13621300  1
  O  O8  1  0.40359900  0.62186600  0.54018000  1
  O  O9  1  0.59946100  0.38621000  0.45933400  1
  O  O10  1  0.37622700  0.58762400  0.97394800  1
  O  O11  1  0.64115300  0.41565800  0.02087500  1
  O  O12  1  0.24909000  0.06634600  0.78823400  1
  O  O13  1  0.75134700  0.93103800  0.21641400  1
  O  O14  1  0.95913400  0.77093500  0.69454400  1
  O  O15  1  0.02804800  0.25974400  0.31580200  1
loop_
_geom_bond_atom_site_label_1
_geom_bond_atom_site_label_2
_geom_bond_distance
_geom_bond_site_symmetry_2
Li0 O7 1.924127 1_455
Li0 O15 1.954032 1_555
Li0 O3 2.072138 1_555
Li0 O2 2.415628 1_455
Li0 Rb0 2.831145 1_455
Li0 Rb1 2.943536 1_555
O0 W0 1.956035 1_555
O0 W3 2.054536 1_556
O0 Rb0 2.926897 1_555
O0 Rb1 2.970169 1_546
O1 W1 1.869625 1_555
O1 W2 2.165338 1_554
O1 Rb0 2.917451 1_564
O1 Rb1 3.034338 1_555
O2 W2 1.897791 1_555
O2 W1 2.161559 1_555
O2 Rb1 3.173412 1_655
O2 Rb0 3.348607 1_555
O3 W0 1.989416 1_555
O3 W3 2.089767 1_555
O3 Rb0 3.325472 1_455
O3 Rb1 3.349754 1_555
O4 W2 1.884023 1_555
O4 Pr1 2.485790 1_565
O4 Pr0 2.696056 1_555
O4 Rb0 3.103114 1_565
O5 W3 1.875845 1_555
O5 Pr0 2.478304 1_545
O5 Pr1 2.743600 1_555
O5 Rb1 2.991941 1_545
O6 W0 1.838202 1_555
O6 Pr1 2.404858 1_456
O6 Rb0 3.133415 1_455
O7 W1 1.884599 1_555
O7 Pr0 2.439832 1_654
O7 Rb1 3.097308 1_655
O8 W1 2.007445 1_555
O8 W0 2.152898 1_555
O8 Pr0 2.455079 1_555
O8 Rb1 3.096349 1_555
O9 W0 2.085961 1_555
O9 W1 2.088811 1_555
O9 Pr1 2.469469 1_555
O9 Rb0 3.149365 1_555
O10 W3 2.039464 1_556
O10 W2 2.107150 1_555
O10 Pr0 2.381374 1_555
O10 Rb1 3.322475 1_556
O11 W2 1.965294 1_554
O11 W3 2.155733 1_555
O11 Pr1 2.396583 1_555
O11 Rb0 3.161347 1_554
O12 W0 1.843282 1_555
O12 Pr0 2.384455 1_545
O12 Rb1 2.903453 1_546
O13 W1 1.837068 1_555
O13 Pr1 2.431419 1_565
O13 Rb0 2.805939 1_564
O14 W2 1.837316 1_555
O14 Pr0 2.408942 1_655
O14 Rb1 2.906831 1_655
O15 W3 1.937730 1_555
O15 Pr1 2.327726 1_455
O15 Rb0 2.972712 1_455
