# generated using pymatgen
data_Ho2Ge2Rh
_symmetry_space_group_name_H-M   'P 1'
_cell_length_a   4.26894871
_cell_length_b   5.62352027
_cell_length_c   9.37035835
_cell_angle_alpha   81.86648150
_cell_angle_beta   76.83300278
_cell_angle_gamma   67.69345486
_symmetry_Int_Tables_number   1
_chemical_formula_structural   Ho2Ge2Rh
_chemical_formula_sum   'Ho4 Ge4 Rh2'
_cell_volume   202.26626460
_cell_formula_units_Z   2
loop_
 _symmetry_equiv_pos_site_id
 _symmetry_equiv_pos_as_xyz
  1  'x, y, z'
loop_
 _atom_site_type_symbol
 _atom_site_label
 _atom_site_symmetry_multiplicity
 _atom_site_fract_x
 _atom_site_fract_y
 _atom_site_fract_z
 _atom_site_occupancy
  Ho  Ho0  1  0.18841061  0.74021917  0.88295862  1
  Ho  Ho1  1  0.81158939  0.25978083  0.11704138  1
  Ho  Ho2  1  0.01050642  0.31077264  0.66821452  1
  Ho  Ho3  1  0.98949358  0.68922736  0.33178548  1
  Ge  Ge0  1  0.47919671  0.15743917  0.88416840  1
  Ge  Ge1  1  0.52080329  0.84256083  0.11583160  1
  Ge  Ge2  1  0.35575633  0.73000339  0.55848395  1
  Ge  Ge3  1  0.64424367  0.26999661  0.44151605  1
  Rh  Rh0  1  0.72809788  0.88513038  0.65867487  1
  Rh  Rh1  1  0.27190212  0.11486962  0.34132513  1
loop_
_geom_bond_atom_site_label_1
_geom_bond_atom_site_label_2
_geom_bond_distance
_geom_bond_site_symmetry_2
Ho0 Rh0 3.020519 1_455
Ho0 Rh0 3.020525 1_555
Ho1 Rh1 3.020519 1_655
Ho1 Rh1 3.020525 1_555
Ho2 Rh0 2.984155 1_455
Ho2 Rh0 3.080753 1_445
Ho2 Rh0 3.080756 1_545
Ho2 Rh1 3.210250 1_555
Ho3 Rh1 2.984155 1_655
Ho3 Rh1 3.080753 1_665
Ho3 Rh1 3.080756 1_565
Ho3 Rh0 3.210250 1_555
Ge0 Rh0 2.568291 1_545
Ge0 Ge1 2.593934 1_546
Ge0 Ho2 2.980387 1_655
Ge0 Ho2 2.980391 1_555
Ge0 Ho0 3.031371 1_555
Ge0 Ho0 3.044800 1_645
Ge0 Ho0 3.044806 1_545
Ge0 Ho1 3.080939 1_556
Ge0 Ho1 3.080939 1_456
Ge1 Rh1 2.568291 1_565
Ge1 Ho3 2.980387 1_455
Ge1 Ho3 2.980391 1_555
Ge1 Ho1 3.031371 1_555
Ge1 Ho1 3.044800 1_465
Ge1 Ho1 3.044806 1_565
Ge1 Ho0 3.080939 1_554
Ge1 Ho0 3.080939 1_654
Ge2 Rh0 2.476515 1_455
Ge2 Rh0 2.476519 1_555
Ge2 Ge3 2.679310 1_555
Ge2 Rh1 2.729567 1_565
Ge2 Ho0 2.964232 1_555
Ge2 Ho3 2.988790 1_455
Ge2 Ho3 2.988790 1_555
Ge2 Ho2 3.170004 1_555
Ge2 Ho2 3.170004 1_655
Ge2 Ho2 3.240639 1_565
Ge3 Rh1 2.476515 1_655
Ge3 Rh1 2.476519 1_555
Ge3 Rh0 2.729567 1_545
Ge3 Ho1 2.964232 1_555
Ge3 Ho2 2.988790 1_655
Ge3 Ho2 2.988790 1_555
Ge3 Ho3 3.170004 1_555
Ge3 Ho3 3.170004 1_455
Ge3 Ho3 3.240639 1_545
