# generated using pymatgen
data_Ba4CaZr5O15
_symmetry_space_group_name_H-M   'P 1'
_cell_length_a   9.46619400
_cell_length_b   9.46619400
_cell_length_c   4.23450400
_cell_angle_alpha   90.00000000
_cell_angle_beta   90.00000000
_cell_angle_gamma   90.00000000
_symmetry_Int_Tables_number   1
_chemical_formula_structural   Ba4CaZr5O15
_chemical_formula_sum   'Ba4 Ca1 Zr5 O15'
_cell_volume   379.44894418
_cell_formula_units_Z   1
loop_
 _symmetry_equiv_pos_site_id
 _symmetry_equiv_pos_as_xyz
  1  'x, y, z'
loop_
 _atom_site_type_symbol
 _atom_site_label
 _atom_site_symmetry_multiplicity
 _atom_site_fract_x
 _atom_site_fract_y
 _atom_site_fract_z
 _atom_site_occupancy
  Ba  Ba0  1  0.69989700  0.89980600  0.50000000  1
  Ba  Ba1  1  0.89980600  0.30010300  0.50000000  1
  Ba  Ba2  1  0.10019400  0.69989700  0.50000000  1
  Ba  Ba3  1  0.30010300  0.10019400  0.50000000  1
  Ca  Ca0  1  0.50000000  0.50000000  0.50000000  1
  Zr  Zr0  1  0.20130500  0.40044900  0.00000000  1
  Zr  Zr1  1  0.40044900  0.79869500  0.00000000  1
  Zr  Zr2  1  0.59955100  0.20130500  0.00000000  1
  Zr  Zr3  1  0.79869500  0.59955100  0.00000000  1
  Zr  Zr4  1  0.00000000  0.00000000  0.00000000  1
  O  O0  1  0.30175900  0.59912000  0.00000000  1
  O  O1  1  0.50000000  0.00000000  0.00000000  1
  O  O2  1  0.69824100  0.40088000  0.00000000  1
  O  O3  1  0.89983900  0.79982500  0.00000000  1
  O  O4  1  0.10016100  0.20017500  0.00000000  1
  O  O5  1  0.00000000  0.50000000  0.00000000  1
  O  O6  1  0.20017500  0.89983900  0.00000000  1
  O  O7  1  0.40088000  0.30175900  0.00000000  1
  O  O8  1  0.59912000  0.69824100  0.00000000  1
  O  O9  1  0.79982500  0.10016100  0.00000000  1
  O  O10  1  0.20147100  0.40048000  0.50000000  1
  O  O11  1  0.40048000  0.79852900  0.50000000  1
  O  O12  1  0.59952000  0.20147100  0.50000000  1
  O  O13  1  0.79852900  0.59952000  0.50000000  1
  O  O14  1  0.00000000  0.00000000  0.50000000  1
loop_
_geom_bond_atom_site_label_1
_geom_bond_atom_site_label_2
_geom_bond_distance
_geom_bond_site_symmetry_2
Ba0 O13 2.991976 1_555
Ba0 O11 2.992090 1_555
Ba0 O3 2.993456 1_556
Ba0 O3 2.993456 1_555
Ba0 O1 2.993825 1_565
Ba0 O1 2.993825 1_566
Ba0 O14 2.994979 1_665
Ba0 O9 2.995771 1_565
Ba0 O9 2.995771 1_566
Ba0 O8 3.005577 1_555
Ba0 O8 3.005577 1_556
Ba0 O12 3.009555 1_565
Ba1 O12 2.991976 1_555
Ba1 O13 2.992090 1_555
Ba1 O9 2.993456 1_556
Ba1 O9 2.993456 1_555
Ba1 O5 2.993825 1_655
Ba1 O5 2.993825 1_656
Ba1 O14 2.994979 1_655
Ba1 O4 2.995771 1_655
Ba1 O4 2.995771 1_656
Ba1 O2 3.005577 1_555
Ba1 O2 3.005577 1_556
Ba1 O10 3.009555 1_655
Ba2 O11 2.991976 1_555
Ba2 O10 2.992090 1_555
Ba2 O6 2.993456 1_555
Ba2 O6 2.993456 1_556
Ba2 O5 2.993825 1_555
Ba2 O5 2.993825 1_556
Ba2 O14 2.994979 1_565
Ba2 O3 2.995771 1_456
Ba2 O3 2.995771 1_455
Ba2 O0 3.005577 1_556
Ba2 O0 3.005577 1_555
Ba2 O13 3.009555 1_455
Ba3 O10 2.991976 1_555
Ba3 O12 2.992090 1_555
Ba3 O4 2.993456 1_556
Ba3 O4 2.993456 1_555
Ba3 O1 2.993825 1_555
Ba3 O1 2.993825 1_556
Ba3 O14 2.994979 1_555
Ba3 O6 2.995771 1_546
Ba3 O6 2.995771 1_545
Ba3 O7 3.005577 1_556
Ba3 O7 3.005577 1_555
Ba3 O11 3.009555 1_545
Ca0 O12 2.978826 1_555
Ca0 O10 2.978826 1_555
Ca0 O13 2.978826 1_555
Ca0 O11 2.978826 1_555
Ca0 O2 2.980725 1_556
Ca0 O0 2.980725 1_556
Ca0 O0 2.980725 1_555
Ca0 O7 2.980725 1_556
Ca0 O7 2.980725 1_555
Ca0 O8 2.980725 1_555
Ca0 O2 2.980725 1_555
Ca0 O8 2.980725 1_556
O0 Zr0 2.107396 1_555
O0 Zr1 2.107582 1_555
O1 Zr1 2.125874 1_545
O1 Zr2 2.125874 1_555
O2 Zr3 2.107396 1_555
O2 Zr2 2.107582 1_555
O3 Zr4 2.118869 1_665
O3 Zr3 2.123885 1_555
O4 Zr4 2.118869 1_555
O4 Zr0 2.123885 1_555
O5 Zr3 2.125874 1_455
O5 Zr0 2.125874 1_555
O6 Zr4 2.118869 1_565
O6 Zr1 2.123885 1_555
O7 Zr2 2.107396 1_555
O7 Zr0 2.107582 1_555
O8 Zr1 2.107396 1_555
O8 Zr3 2.107582 1_555
O9 Zr4 2.118869 1_655
O9 Zr2 2.123885 1_555
O10 Zr0 2.117253 1_555
O10 Zr0 2.117253 1_556
O11 Zr1 2.117253 1_556
O11 Zr1 2.117253 1_555
O12 Zr2 2.117253 1_555
O12 Zr2 2.117253 1_556
O13 Zr3 2.117253 1_556
O13 Zr3 2.117253 1_555
O14 Zr4 2.117252 1_556
O14 Zr4 2.117252 1_555
