# generated using pymatgen
data_Rb2U2Cr3(H6O11)2
_symmetry_space_group_name_H-M   'P 1'
_cell_length_a   10.96413893
_cell_length_b   14.32553801
_cell_length_c   15.20533359
_cell_angle_alpha   90.00000000
_cell_angle_beta   90.00000000
_cell_angle_gamma   107.84118385
_symmetry_Int_Tables_number   1
_chemical_formula_structural   Rb2U2Cr3(H6O11)2
_chemical_formula_sum   'Rb8 U8 Cr12 H48 O88'
_cell_volume   2273.40623235
_cell_formula_units_Z   4
loop_
 _symmetry_equiv_pos_site_id
 _symmetry_equiv_pos_as_xyz
  1  'x, y, z'
loop_
 _atom_site_type_symbol
 _atom_site_label
 _atom_site_symmetry_multiplicity
 _atom_site_fract_x
 _atom_site_fract_y
 _atom_site_fract_z
 _atom_site_occupancy
  Rb  Rb0  1  0.85787211  0.62195459  0.97338944  1
  Rb  Rb1  1  0.14212789  0.37804541  0.02661056  1
  Rb  Rb2  1  0.14212789  0.87804541  0.47338944  1
  Rb  Rb3  1  0.85787211  0.12195459  0.52661056  1
  Rb  Rb4  1  0.31683738  0.66116717  0.53986910  1
  Rb  Rb5  1  0.68316262  0.33883283  0.46013090  1
  Rb  Rb6  1  0.68316262  0.83883283  0.03986910  1
  Rb  Rb7  1  0.31683738  0.16116717  0.96013090  1
  U  U0  1  0.91673681  0.96943073  0.29217425  1
  U  U1  1  0.08326319  0.03056927  0.70782575  1
  U  U2  1  0.08326319  0.53056927  0.79217425  1
  U  U3  1  0.91673681  0.46943073  0.20782575  1
  U  U4  1  0.64474123  0.69519605  0.76867218  1
  U  U5  1  0.35525877  0.30480395  0.23132782  1
  U  U6  1  0.35525877  0.80480395  0.26867218  1
  U  U7  1  0.64474123  0.19519605  0.73132782  1
  Cr  Cr0  1  0.38524717  0.96334201  0.65739282  1
  Cr  Cr1  1  0.61475283  0.03665799  0.34260718  1
  Cr  Cr2  1  0.61475283  0.53665799  0.15739282  1
  Cr  Cr3  1  0.38524717  0.46334201  0.84260718  1
  Cr  Cr4  1  0.74335931  0.96720010  0.78036519  1
  Cr  Cr5  1  0.25664069  0.03279990  0.21963481  1
  Cr  Cr6  1  0.25664069  0.53279990  0.28036519  1
  Cr  Cr7  1  0.74335931  0.46720010  0.71963481  1
  Cr  Cr8  1  0.99859803  0.75672693  0.72342455  1
  Cr  Cr9  1  0.00140197  0.24327307  0.27657545  1
  Cr  Cr10  1  0.00140197  0.74327307  0.22342455  1
  Cr  Cr11  1  0.99859803  0.25672693  0.77657545  1
  H  H0  1  0.84053643  0.70629617  0.55847890  1
  H  H1  1  0.15946357  0.29370383  0.44152110  1
  H  H2  1  0.15946357  0.79370383  0.05847890  1
  H  H3  1  0.84053643  0.20629617  0.94152110  1
  H  H4  1  0.37342110  0.95659341  0.87989788  1
  H  H5  1  0.62657890  0.04340659  0.12010212  1
  H  H6  1  0.62657890  0.54340659  0.37989788  1
  H  H7  1  0.37342110  0.45659341  0.62010212  1
  H  H8  1  0.38508572  0.71787396  0.84632442  1
  H  H9  1  0.61491428  0.28212604  0.15367558  1
  H  H10  1  0.61491428  0.78212604  0.34632442  1
  H  H11  1  0.38508572  0.21787396  0.65367558  1
  H  H12  1  0.95635559  0.92463138  0.91800627  1
  H  H13  1  0.04364441  0.07536862  0.08199373  1
  H  H14  1  0.04364441  0.57536862  0.41800627  1
  H  H15  1  0.95635559  0.42463138  0.58199373  1
  H  H16  1  0.68292211  0.88604784  0.59797976  1
  H  H17  1  0.31707789  0.11395216  0.40202024  1
  H  H18  1  0.31707789  0.61395216  0.09797976  1
  H  H19  1  0.68292211  0.38604784  0.90202024  1
  H  H20  1  0.58283602  0.90581058  0.53395934  1
  H  H21  1  0.41716398  0.09418942  0.46604066  1
  H  H22  1  0.41716398  0.59418942  0.03395934  1
  H  H23  1  0.58283602  0.40581058  0.96604066  1
  H  H24  1  0.43867365  0.94112073  0.96608998  1
  H  H25  1  0.56132635  0.05887927  0.03391002  1
  H  H26  1  0.56132635  0.55887927  0.46608998  1
  H  H27  1  0.43867365  0.44112073  0.53391002  1
  H  H28  1  0.74022795  0.87116814  0.45181745  1
  H  H29  1  0.25977205  0.12883186  0.54818255  1
  H  H30  1  0.25977205  0.62883186  0.95181745  1
  H  H31  1  0.74022795  0.37116814  0.04818255  1
  H  H32  1  0.45138575  0.81559566  0.79314729  1
  H  H33  1  0.54861425  0.18440434  0.20685271  1
  H  H34  1  0.54861425  0.68440434  0.29314729  1
  H  H35  1  0.45138575  0.31559566  0.70685271  1
  H  H36  1  0.77018344  0.63838435  0.48071519  1
  H  H37  1  0.22981656  0.36161565  0.51928481  1
  H  H38  1  0.22981656  0.86161565  0.98071519  1
  H  H39  1  0.77018344  0.13838435  0.01928481  1
  H  H40  1  0.97953362  0.63245230  0.48047227  1
  H  H41  1  0.02046638  0.36754770  0.51952773  1
  H  H42  1  0.02046638  0.86754770  0.98047227  1
  H  H43  1  0.97953362  0.13245230  0.01952773  1
  H  H44  1  0.80646194  0.79035901  0.42896437  1
  H  H45  1  0.19353806  0.20964099  0.57103563  1
  H  H46  1  0.19353806  0.70964099  0.92896437  1
  H  H47  1  0.80646194  0.29035901  0.07103563  1
  O  O0  1  0.68735288  0.85899517  0.72478682  1
  O  O1  1  0.31264712  0.14100483  0.27521318  1
  O  O2  1  0.31264712  0.64100483  0.22478682  1
  O  O3  1  0.68735288  0.35899517  0.77521318  1
  O  O4  1  0.97912353  0.98204246  0.61419144  1
  O  O5  1  0.02087647  0.01795754  0.38580856  1
  O  O6  1  0.02087647  0.51795754  0.11419144  1
  O  O7  1  0.97912353  0.48204246  0.88580856  1
  O  O8  1  0.98109249  0.82585068  0.29692093  1
  O  O9  1  0.01890751  0.17414932  0.70307907  1
  O  O10  1  0.01890751  0.67414932  0.79692093  1
  O  O11  1  0.98109249  0.32585068  0.20307907  1
  O  O12  1  0.77439802  0.84150965  0.40103922  1
  O  O13  1  0.22560198  0.15849035  0.59896078  1
  O  O14  1  0.22560198  0.65849035  0.90103922  1
  O  O15  1  0.77439802  0.34150965  0.09896078  1
  O  O16  1  0.40786506  0.89301856  0.57805561  1
  O  O17  1  0.59213494  0.10698144  0.42194439  1
  O  O18  1  0.59213494  0.60698144  0.07805561  1
  O  O19  1  0.40786506  0.39301856  0.92194439  1
  O  O20  1  0.94399326  0.88885325  0.97359230  1
  O  O21  1  0.05600674  0.11114675  0.02640770  1
  O  O22  1  0.05600674  0.61114675  0.47359230  1
  O  O23  1  0.94399326  0.38885325  0.52640770  1
  O  O24  1  0.95262687  0.62953594  0.26511826  1
  O  O25  1  0.04737313  0.37046406  0.73488174  1
  O  O26  1  0.04737313  0.87046406  0.76511826  1
  O  O27  1  0.95262687  0.12953594  0.23488174  1
  O  O28  1  0.36601806  0.96020350  0.94423378  1
  O  O29  1  0.63398194  0.03979650  0.05576622  1
  O  O30  1  0.63398194  0.53979650  0.44423378  1
  O  O31  1  0.36601806  0.46020350  0.55576622  1
  O  O32  1  0.67365133  0.90889028  0.53800994  1
  O  O33  1  0.32634867  0.09110972  0.46199006  1
  O  O34  1  0.32634867  0.59110972  0.03800994  1
  O  O35  1  0.67365133  0.40889028  0.96199006  1
  O  O36  1  0.90201910  0.99481034  0.79876024  1
  O  O37  1  0.09798090  0.00518966  0.20123976  1
  O  O38  1  0.09798090  0.50518966  0.29876024  1
  O  O39  1  0.90201910  0.49481034  0.70123976  1
  O  O40  1  0.67011329  0.95870955  0.87314590  1
  O  O41  1  0.32988671  0.04129045  0.12685410  1
  O  O42  1  0.32988671  0.54129045  0.37314590  1
  O  O43  1  0.67011329  0.45870955  0.62685410  1
  O  O44  1  0.84265766  0.72797138  0.69259797  1
  O  O45  1  0.15734234  0.27202862  0.30740203  1
  O  O46  1  0.15734234  0.77202862  0.19259797  1
  O  O47  1  0.84265766  0.22797138  0.80740203  1
  O  O48  1  0.23681345  0.97612887  0.64457088  1
  O  O49  1  0.76318655  0.02387113  0.35542912  1
  O  O50  1  0.76318655  0.52387113  0.14457088  1
  O  O51  1  0.23681345  0.47612887  0.85542912  1
  O  O52  1  0.84356322  0.69766065  0.49442596  1
  O  O53  1  0.15643678  0.30233935  0.50557404  1
  O  O54  1  0.15643678  0.80233935  0.99442596  1
  O  O55  1  0.84356322  0.19766065  0.00557404  1
  O  O56  1  0.71628459  0.55582872  0.78067047  1
  O  O57  1  0.28371541  0.44417128  0.21932953  1
  O  O58  1  0.28371541  0.94417128  0.28067047  1
  O  O59  1  0.71628459  0.05582872  0.71932953  1
  O  O60  1  0.55981545  0.65672100  0.66600084  1
  O  O61  1  0.44018455  0.34327900  0.33399916  1
  O  O62  1  0.44018455  0.84327900  0.16600084  1
  O  O63  1  0.55981545  0.15672100  0.83399916  1
  O  O64  1  0.46817023  0.75883412  0.82232084  1
  O  O65  1  0.53182977  0.24116588  0.17767916  1
  O  O66  1  0.53182977  0.74116588  0.32232084  1
  O  O67  1  0.46817023  0.25883412  0.67767916  1
  O  O68  1  0.91731082  0.74511428  0.13663206  1
  O  O69  1  0.08268918  0.25488572  0.86336794  1
  O  O70  1  0.08268918  0.75488572  0.63663206  1
  O  O71  1  0.91731082  0.24511428  0.36336794  1
  O  O72  1  0.72868542  0.73663022  0.87153945  1
  O  O73  1  0.27131458  0.26336978  0.12846055  1
  O  O74  1  0.27131458  0.76336978  0.37153945  1
  O  O75  1  0.72868542  0.23663022  0.62846055  1
  O  O76  1  0.80856217  0.91826023  0.20193494  1
  O  O77  1  0.19143783  0.08173977  0.79806506  1
  O  O78  1  0.19143783  0.58173977  0.70193494  1
  O  O79  1  0.80856217  0.41826023  0.29806506  1
  O  O80  1  0.39686363  0.91440824  0.75346081  1
  O  O81  1  0.60313637  0.08559176  0.24653919  1
  O  O82  1  0.60313637  0.58559176  0.25346081  1
  O  O83  1  0.39686363  0.41440824  0.74653919  1
  O  O84  1  0.49393004  0.57573996  0.84962206  1
  O  O85  1  0.50606996  0.42426004  0.15037794  1
  O  O86  1  0.50606996  0.92426004  0.34962206  1
  O  O87  1  0.49393004  0.07573996  0.65037794  1
loop_
_geom_bond_atom_site_label_1
_geom_bond_atom_site_label_2
_geom_bond_distance
_geom_bond_site_symmetry_2
Cr0 O16 1.638522 1_555
Cr0 O80 1.641985 1_555
Cr0 O87 1.687674 1_565
Cr0 O48 1.703767 1_555
Cr1 O17 1.638522 1_555
Cr1 O81 1.641985 1_555
Cr1 O86 1.687674 1_545
Cr1 O49 1.703767 1_555
Cr2 O18 1.638522 1_555
Cr2 O82 1.641985 1_555
Cr2 O85 1.687674 1_555
Cr2 O50 1.703767 1_555
Cr3 O19 1.638522 1_555
Cr3 O83 1.641985 1_555
Cr3 O84 1.687674 1_555
Cr3 O51 1.703767 1_555
Cr4 O40 1.609387 1_555
Cr4 O59 1.671046 1_565
Cr4 O36 1.684982 1_555
Cr4 O0 1.706101 1_555
Cr5 O41 1.609387 1_555
Cr5 O58 1.671046 1_545
Cr5 O37 1.684982 1_555
Cr5 O1 1.706101 1_555
Cr6 O42 1.609387 1_555
Cr6 O57 1.671046 1_555
Cr6 O38 1.684982 1_555
Cr6 O2 1.706101 1_555
Cr7 O43 1.609387 1_555
Cr7 O56 1.671046 1_555
Cr7 O39 1.684982 1_555
Cr7 O3 1.706101 1_555
Cr8 O70 1.614710 1_655
Cr8 O26 1.675932 1_655
Cr8 O10 1.690947 1_655
Cr8 O44 1.697374 1_555
Cr9 O71 1.614710 1_455
Cr9 O27 1.675932 1_455
Cr9 O11 1.690947 1_455
Cr9 O45 1.697374 1_555
Cr10 O68 1.614710 1_455
Cr10 O24 1.675932 1_455
Cr10 O8 1.690947 1_455
Cr10 O46 1.697374 1_555
Cr11 O69 1.614710 1_655
Cr11 O25 1.675932 1_655
Cr11 O9 1.690947 1_655
Cr11 O47 1.697374 1_555
H0 O52 0.983612 1_555
H1 O53 0.983612 1_555
H2 O54 0.983612 1_554
H3 O55 0.983612 1_556
H4 O28 0.984279 1_555
H5 O29 0.984279 1_555
H6 O30 0.984279 1_555
H7 O31 0.984279 1_555
H8 O64 0.989856 1_555
H9 O65 0.989856 1_555
H10 O66 0.989856 1_555
H11 O67 0.989856 1_555
H12 O20 0.976151 1_555
H13 O21 0.976151 1_555
H14 O22 0.976151 1_555
H15 O23 0.976151 1_555
H16 O32 0.984522 1_555
H17 O33 0.984522 1_555
H18 O34 0.984522 1_555
H19 O35 0.984522 1_555
H20 O32 0.985020 1_555
H21 O33 0.985020 1_555
H22 O34 0.985020 1_555
H23 O35 0.985020 1_555
H24 O28 0.976318 1_555
H25 O29 0.976318 1_555
H26 O30 0.976318 1_555
H27 O31 0.976318 1_555
H28 O12 1.007250 1_555
H29 O13 1.007250 1_555
H30 O14 1.007250 1_555
H31 O15 1.007250 1_555
H32 O64 0.991731 1_555
H33 O65 0.991731 1_555
H34 O66 0.991731 1_555
H35 O67 0.991731 1_555
H36 O52 0.996597 1_555
H37 O53 0.996597 1_555
H38 O54 0.996597 1_555
H39 O55 0.996597 1_555
H40 O22 0.981799 1_655
H41 O23 0.981799 1_455
H42 O20 0.981799 1_455
H43 O21 0.981799 1_655
H44 O12 0.999336 1_555
H45 O13 0.999336 1_555
H46 O14 0.999336 1_555
H47 O15 0.999336 1_555
O0 U4 2.344761 1_555
O1 U5 2.344761 1_555
O2 U6 2.344761 1_555
O3 U7 2.344761 1_555
O4 U1 1.824181 1_665
O4 Rb3 3.031632 1_565
O4 Rb2 3.410103 1_655
O5 U0 1.824181 1_445
O5 Rb2 3.031632 1_545
O5 Rb3 3.410103 1_455
O6 U3 1.824181 1_455
O6 Rb1 3.031632 1_555
O6 Rb0 3.410103 1_454
O7 U2 1.824181 1_655
O7 Rb0 3.031632 1_555
O7 Rb1 3.410103 1_656
O8 U0 2.371304 1_555
O8 Rb2 3.172920 1_655
O9 U1 2.371304 1_555
O9 Rb3 3.172920 1_455
O10 U2 2.371304 1_555
O10 Rb0 3.172920 1_455
O11 U3 2.371304 1_555
O11 Rb1 3.172920 1_655
O12 U0 2.604116 1_555
O13 U1 2.604116 1_555
O14 U2 2.604116 1_555
O15 U3 2.604116 1_555
O16 Rb4 3.214602 1_555
O16 Rb2 3.268765 1_555
O17 Rb5 3.214602 1_555
O17 Rb3 3.268765 1_555
O18 Rb6 3.214602 1_555
O18 Rb0 3.268765 1_554
O19 Rb7 3.214602 1_555
O19 Rb1 3.268765 1_556
O20 Rb6 2.907186 1_556
O21 Rb7 2.907186 1_554
O22 Rb4 2.907186 1_555
O23 Rb5 2.907186 1_555
O24 U3 2.370924 1_555
O25 U2 2.370924 1_555
O26 U1 2.370924 1_565
O27 U0 2.370924 1_545
O28 Rb7 3.096541 1_565
O29 Rb6 3.096541 1_545
O30 Rb5 3.096541 1_555
O31 Rb4 3.096541 1_555
O32 Rb3 3.106179 1_565
O33 Rb2 3.106179 1_545
O34 Rb1 3.106179 1_555
O35 Rb0 3.106179 1_555
O36 U1 2.345076 1_665
O37 U0 2.345076 1_445
O38 U3 2.345076 1_455
O39 U2 2.345076 1_655
O40 Rb6 3.089787 1_556
O41 Rb7 3.089787 1_554
O42 Rb4 3.089787 1_555
O43 Rb5 3.089787 1_555
O44 U4 2.375499 1_555
O45 U5 2.375499 1_555
O46 U6 2.375499 1_555
O47 U7 2.375499 1_555
O48 U1 2.274241 1_565
O48 Rb2 2.988838 1_555
O49 U0 2.274241 1_545
O49 Rb3 2.988838 1_555
O50 U3 2.274241 1_555
O50 Rb0 2.988838 1_554
O51 U2 2.274241 1_555
O51 Rb1 2.988838 1_556
O56 U4 2.365223 1_555
O56 Rb0 3.315591 1_555
O57 U5 2.365223 1_555
O57 Rb1 3.315591 1_555
O58 U6 2.365223 1_555
O58 Rb2 3.315591 1_555
O59 U7 2.365223 1_555
O59 Rb3 3.315591 1_555
O60 U4 1.814808 1_555
O60 Rb4 3.299002 1_555
O61 U5 1.814808 1_555
O61 Rb5 3.299002 1_555
O62 U6 1.814808 1_555
O62 Rb6 3.299002 1_555
O63 U7 1.814808 1_555
O63 Rb7 3.299002 1_555
O64 U4 2.515136 1_555
O65 U5 2.515136 1_555
O66 U6 2.515136 1_555
O67 U7 2.515136 1_555
O68 Rb0 2.999020 1_554
O69 Rb1 2.999020 1_556
O70 Rb2 2.999020 1_555
O71 Rb3 2.999020 1_555
O72 U4 1.819661 1_555
O72 Rb0 2.920477 1_555
O72 Rb6 3.064571 1_556
O73 U5 1.819661 1_555
O73 Rb1 2.920477 1_555
O73 Rb7 3.064571 1_554
O74 U6 1.819661 1_555
O74 Rb2 2.920477 1_555
O74 Rb4 3.064571 1_555
O75 U7 1.819661 1_555
O75 Rb3 2.920477 1_555
O75 Rb5 3.064571 1_555
O76 U0 1.814942 1_555
O76 Rb6 2.880802 1_555
O77 U1 1.814942 1_555
O77 Rb7 2.880802 1_555
O78 U2 1.814942 1_555
O78 Rb4 2.880802 1_555
O79 U3 1.814942 1_555
O79 Rb5 2.880802 1_555
O84 U4 2.333181 1_555
O85 U5 2.333181 1_555
O86 U6 2.333181 1_555
O87 U7 2.333181 1_555
