# generated using pymatgen
data_Er2Fe4Si9
_symmetry_space_group_name_H-M   'P 1'
_cell_length_a   3.93683241
_cell_length_b   3.93683241
_cell_length_c   15.95231400
_cell_angle_alpha   90.00000000
_cell_angle_beta   90.00000000
_cell_angle_gamma   120.00000695
_symmetry_Int_Tables_number   1
_chemical_formula_structural   Er2Fe4Si9
_chemical_formula_sum   'Er2 Fe4 Si9'
_cell_volume   214.11551923
_cell_formula_units_Z   1
loop_
 _symmetry_equiv_pos_site_id
 _symmetry_equiv_pos_as_xyz
  1  'x, y, z'
loop_
 _atom_site_type_symbol
 _atom_site_label
 _atom_site_symmetry_multiplicity
 _atom_site_fract_x
 _atom_site_fract_y
 _atom_site_fract_z
 _atom_site_occupancy
  Er  Er0  1  0.66666700  0.33333300  0.24146100  1
  Er  Er1  1  0.33333300  0.66666700  0.75853900  1
  Fe  Fe0  1  0.66666700  0.33333300  0.58988700  1
  Fe  Fe1  1  0.33333300  0.66666700  0.41011300  1
  Fe  Fe2  1  0.33333300  0.66666700  0.10212200  1
  Fe  Fe3  1  0.66666700  0.33333300  0.89787800  1
  Si  Si0  1  0.66666700  0.33333300  0.43501600  1
  Si  Si1  1  0.33333300  0.66666700  0.56498400  1
  Si  Si2  1  0.33333300  0.66666700  0.95688300  1
  Si  Si3  1  0.66666700  0.33333300  0.04311700  1
  Si  Si4  1  0.00000000  0.00000000  0.65109100  1
  Si  Si5  1  0.00000000  0.00000000  0.34890900  1
  Si  Si6  1  0.00000000  0.00000000  0.12813000  1
  Si  Si7  1  0.00000000  0.00000000  0.87187000  1
  Si  Si8  1  0.00000000  0.00000000  0.50000000  1
loop_
_geom_bond_atom_site_label_1
_geom_bond_atom_site_label_2
_geom_bond_distance
_geom_bond_site_symmetry_2
Er0 Si5 2.846780 1_655
Er0 Si5 2.846782 1_555
Er0 Si5 2.846782 1_665
Er0 Si6 2.904252 1_655
Er0 Si6 2.904254 1_665
Er0 Si6 2.904254 1_555
Er0 Si0 3.087650 1_555
Er0 Si3 3.164046 1_555
Er0 Fe2 3.179144 1_655
Er0 Fe2 3.179144 1_545
Er0 Fe2 3.179149 1_555
Er1 Si4 2.846780 1_565
Er1 Si4 2.846782 1_555
Er1 Si4 2.846782 1_665
Er1 Si7 2.904252 1_565
Er1 Si7 2.904254 1_555
Er1 Si7 2.904254 1_665
Er1 Si1 3.087650 1_555
Er1 Si2 3.164046 1_555
Er1 Fe3 3.179144 1_565
Er1 Fe3 3.179144 1_455
Er1 Fe3 3.179149 1_555
Fe0 Si1 2.307384 1_545
Fe0 Si1 2.307384 1_655
Fe0 Si1 2.307391 1_555
Fe0 Si0 2.470551 1_555
Fe0 Si4 2.473754 1_655
Fe0 Si4 2.473757 1_665
Fe0 Si4 2.473757 1_555
Fe0 Si8 2.687432 1_655
Fe0 Si8 2.687435 1_665
Fe0 Si8 2.687435 1_555
Fe1 Si0 2.307384 1_455
Fe1 Si0 2.307384 1_565
Fe1 Si0 2.307391 1_555
Fe1 Si1 2.470551 1_555
Fe1 Si5 2.473754 1_565
Fe1 Si5 2.473757 1_555
Fe1 Si5 2.473757 1_665
Fe1 Si8 2.687432 1_565
Fe1 Si8 2.687435 1_555
Fe1 Si8 2.687435 1_665
Fe2 Si6 2.310484 1_565
Fe2 Si6 2.310488 1_665
Fe2 Si6 2.310488 1_555
Fe2 Si2 2.316898 1_554
Fe2 Si3 2.460119 1_455
Fe2 Si3 2.460119 1_565
Fe2 Si3 2.460126 1_555
Fe3 Si7 2.310484 1_655
Fe3 Si7 2.310488 1_665
Fe3 Si7 2.310488 1_555
Fe3 Si3 2.316898 1_556
Fe3 Si2 2.460119 1_545
Fe3 Si2 2.460119 1_655
Fe3 Si2 2.460126 1_555
Si0 Si8 2.498167 1_655
Si0 Si8 2.498170 1_555
Si0 Si8 2.498170 1_665
Si0 Si5 2.655748 1_655
Si0 Si5 2.655751 1_555
Si0 Si5 2.655751 1_665
Si1 Si8 2.498167 1_565
Si1 Si8 2.498170 1_555
Si1 Si8 2.498170 1_665
Si1 Si4 2.655748 1_565
Si1 Si4 2.655751 1_555
Si1 Si4 2.655751 1_665
Si2 Si7 2.646764 1_565
Si2 Si7 2.646767 1_665
Si2 Si7 2.646767 1_555
Si2 Si3 2.656797 1_456
Si2 Si3 2.656797 1_566
Si2 Si3 2.656803 1_556
Si3 Si6 2.646764 1_655
Si3 Si6 2.646767 1_665
Si3 Si6 2.646767 1_555
Si4 Si8 2.410251 1_555
Si5 Si8 2.410251 1_555
