# generated using pymatgen
data_CaEu(NiO3)4
_symmetry_space_group_name_H-M   'P 1'
_cell_length_a   5.16968607
_cell_length_b   5.16968607
_cell_length_c   7.16091333
_cell_angle_alpha   90.00000000
_cell_angle_beta   90.00000000
_cell_angle_gamma   90.00000000
_symmetry_Int_Tables_number   1
_chemical_formula_structural   CaEu(NiO3)4
_chemical_formula_sum   'Ca1 Eu1 Ni4 O12'
_cell_volume   191.38009243
_cell_formula_units_Z   1
loop_
 _symmetry_equiv_pos_site_id
 _symmetry_equiv_pos_as_xyz
  1  'x, y, z'
loop_
 _atom_site_type_symbol
 _atom_site_label
 _atom_site_symmetry_multiplicity
 _atom_site_fract_x
 _atom_site_fract_y
 _atom_site_fract_z
 _atom_site_occupancy
  Ca  Ca0  1  0.50000000  0.50000000  0.00000000  1
  Eu  Eu0  1  0.00000000  -0.00000000  0.50000000  1
  Ni  Ni0  1  0.00000000  0.50000000  0.75013101  1
  Ni  Ni1  1  0.00000000  0.50000000  0.24986899  1
  Ni  Ni2  1  0.50000000  -0.00000000  0.75013101  1
  Ni  Ni3  1  0.50000000  -0.00000000  0.24986899  1
  O  O0  1  0.24944397  0.24944397  0.75009234  1
  O  O1  1  0.24944397  0.24944397  0.24990766  1
  O  O2  1  0.75055603  0.75055603  0.75009234  1
  O  O3  1  0.75055603  0.75055603  0.24990766  1
  O  O4  1  0.75055603  0.24944397  0.75009234  1
  O  O5  1  0.75055603  0.24944397  0.24990766  1
  O  O6  1  0.24944397  0.75055603  0.24990766  1
  O  O7  1  0.24944397  0.75055603  0.75009234  1
  O  O8  1  0.00000000  0.50000000  0.50000000  1
  O  O9  1  0.00000000  0.50000000  0.00000000  1
  O  O10  1  0.50000000  -0.00000000  0.50000000  1
  O  O11  1  0.50000000  -0.00000000  0.00000000  1
loop_
_geom_bond_atom_site_label_1
_geom_bond_atom_site_label_2
_geom_bond_distance
_geom_bond_site_symmetry_2
Ca0 O5 2.560885 1_555
Ca0 O6 2.560885 1_555
Ca0 O0 2.560885 1_554
Ca0 O4 2.560885 1_554
Ca0 O7 2.560885 1_554
Ca0 O1 2.560885 1_555
Ca0 O3 2.560885 1_555
Ca0 O2 2.560885 1_554
Ca0 O11 2.584843 1_555
Ca0 O11 2.584843 1_565
Ca0 O9 2.584843 1_555
Ca0 O9 2.584843 1_655
Eu0 O7 2.556002 1_545
Eu0 O2 2.556002 1_445
Eu0 O4 2.556002 1_455
Eu0 O3 2.556002 1_445
Eu0 O6 2.556002 1_545
Eu0 O5 2.556002 1_455
Eu0 O1 2.556002 1_555
Eu0 O0 2.556002 1_555
Eu0 O8 2.584843 1_555
Eu0 O8 2.584843 1_545
Eu0 O10 2.584843 1_555
Eu0 O10 2.584843 1_455
Ni0 O9 1.789290 1_556
Ni0 O8 1.791166 1_555
Ni0 O2 1.827765 1_455
Ni0 O4 1.827765 1_455
Ni0 O0 1.827765 1_555
Ni0 O7 1.827765 1_555
Ni1 O9 1.789290 1_555
Ni1 O8 1.791166 1_555
Ni1 O5 1.827765 1_455
Ni1 O3 1.827765 1_455
Ni1 O1 1.827765 1_555
Ni1 O6 1.827765 1_555
Ni2 O11 1.789290 1_556
Ni2 O10 1.791166 1_555
Ni2 O7 1.827765 1_545
Ni2 O2 1.827765 1_545
Ni2 O0 1.827765 1_555
Ni2 O4 1.827765 1_555
Ni3 O11 1.789290 1_555
Ni3 O10 1.791166 1_555
Ni3 O6 1.827765 1_545
Ni3 O1 1.827765 1_555
Ni3 O3 1.827765 1_545
Ni3 O5 1.827765 1_555
