# generated using pymatgen
data_Nd2MgS4
_symmetry_space_group_name_H-M   'P 1'
_cell_length_a   8.12599759
_cell_length_b   8.12599759
_cell_length_c   8.12599759
_cell_angle_alpha   60.00000000
_cell_angle_beta   60.00000000
_cell_angle_gamma   60.00000000
_symmetry_Int_Tables_number   1
_chemical_formula_structural   Nd2MgS4
_chemical_formula_sum   'Nd4 Mg2 S8'
_cell_volume   379.41550081
_cell_formula_units_Z   2
loop_
 _symmetry_equiv_pos_site_id
 _symmetry_equiv_pos_as_xyz
  1  'x, y, z'
loop_
 _atom_site_type_symbol
 _atom_site_label
 _atom_site_symmetry_multiplicity
 _atom_site_fract_x
 _atom_site_fract_y
 _atom_site_fract_z
 _atom_site_occupancy
  Nd  Nd0  1  0.62500000  0.12500000  0.62500000  1
  Nd  Nd1  1  0.62500000  0.62500000  0.12500000  1
  Nd  Nd2  1  0.12500000  0.62500000  0.62500000  1
  Nd  Nd3  1  0.62500000  0.62500000  0.62500000  1
  Mg  Mg0  1  0.00000000  0.00000000  0.00000000  1
  Mg  Mg1  1  0.25000000  0.25000000  0.25000000  1
  S  S0  1  0.37766400  0.37766400  0.37766400  1
  S  S1  1  0.86700900  0.37766400  0.37766400  1
  S  S2  1  0.37766400  0.86700900  0.37766400  1
  S  S3  1  0.37766400  0.37766400  0.86700900  1
  S  S4  1  0.87233600  0.87233600  0.38299100  1
  S  S5  1  0.87233600  0.38299100  0.87233600  1
  S  S6  1  0.38299100  0.87233600  0.87233600  1
  S  S7  1  0.87233600  0.87233600  0.87233600  1
loop_
_geom_bond_atom_site_label_1
_geom_bond_atom_site_label_2
_geom_bond_distance
_geom_bond_site_symmetry_2
Nd0 S7 2.842689 1_545
Nd0 S0 2.842689 1_555
Nd0 S1 2.842695 1_555
Nd0 S3 2.842695 1_555
Nd0 S6 2.842695 1_545
Nd0 S4 2.842695 1_545
Nd1 S0 2.842689 1_555
Nd1 S7 2.842689 1_554
Nd1 S1 2.842695 1_555
Nd1 S2 2.842695 1_555
Nd1 S5 2.842695 1_554
Nd1 S6 2.842695 1_554
Nd2 S0 2.842689 1_555
Nd2 S7 2.842689 1_455
Nd2 S3 2.842695 1_555
Nd2 S2 2.842695 1_555
Nd2 S5 2.842695 1_455
Nd2 S4 2.842695 1_455
Nd3 S5 2.842689 1_555
Nd3 S6 2.842689 1_555
Nd3 S4 2.842689 1_555
Nd3 S3 2.842689 1_555
Nd3 S1 2.842689 1_555
Nd3 S2 2.842689 1_555
Mg0 S5 2.541088 1_454
Mg0 S6 2.541088 1_544
Mg0 S4 2.541088 1_445
Mg0 S7 2.541094 1_444
Mg1 S2 2.541088 1_545
Mg1 S1 2.541088 1_455
Mg1 S3 2.541088 1_554
Mg1 S0 2.541094 1_555
