# generated using pymatgen
data_CdFe4Cu10(SnSe4)5
_symmetry_space_group_name_H-M   'P 1'
_cell_length_a   7.01302564
_cell_length_b   7.01302564
_cell_length_c   25.88704807
_cell_angle_alpha   89.15806376
_cell_angle_beta   89.15806376
_cell_angle_gamma   48.80315865
_symmetry_Int_Tables_number   1
_chemical_formula_structural   CdFe4Cu10(SnSe4)5
_chemical_formula_sum   'Cd1 Fe4 Cu10 Sn5 Se20'
_cell_volume   957.88901401
_cell_formula_units_Z   1
loop_
 _symmetry_equiv_pos_site_id
 _symmetry_equiv_pos_as_xyz
  1  'x, y, z'
loop_
 _atom_site_type_symbol
 _atom_site_label
 _atom_site_symmetry_multiplicity
 _atom_site_fract_x
 _atom_site_fract_y
 _atom_site_fract_z
 _atom_site_occupancy
  Cd  Cd0  1  0.99969200  0.00030800  0.00000000  1
  Fe  Fe0  1  0.19977800  0.20062700  0.20047200  1
  Fe  Fe1  1  0.39997600  0.40008800  0.39998000  1
  Fe  Fe2  1  0.59991200  0.60002400  0.60002000  1
  Fe  Fe3  1  0.79937300  0.80022200  0.79952800  1
  Cu  Cu0  1  0.29404900  0.30420600  0.05168200  1
  Cu  Cu1  1  0.69993700  0.69986300  0.45004700  1
  Cu  Cu2  1  0.49999200  0.49972100  0.25002700  1
  Cu  Cu3  1  0.10593500  0.09604700  0.84846000  1
  Cu  Cu4  1  0.89991500  0.89991500  0.64999200  1
  Cu  Cu5  1  0.69579400  0.70595100  0.94831800  1
  Cu  Cu6  1  0.10008500  0.10008500  0.35000800  1
  Cu  Cu7  1  0.90395300  0.89406500  0.15154000  1
  Cu  Cu8  1  0.50027900  0.50000800  0.74997300  1
  Cu  Cu9  1  0.30013700  0.30006300  0.54995300  1
  Sn  Sn0  1  0.39847100  0.39738600  0.89756400  1
  Sn  Sn1  1  0.79975800  0.80046500  0.30021800  1
  Sn  Sn2  1  0.60261400  0.60152900  0.10243600  1
  Sn  Sn3  1  0.19953500  0.20024200  0.69978200  1
  Sn  Sn4  1  0.00022700  0.99977300  0.50000000  1
  Se  Se0  1  0.50822400  0.97172300  0.87219600  1
  Se  Se1  1  0.68258300  0.19005200  0.08027400  1
  Se  Se2  1  0.90896200  0.36874700  0.27278100  1
  Se  Se3  1  0.10928200  0.56780100  0.47263200  1
  Se  Se4  1  0.30905700  0.76811900  0.67277100  1
  Se  Se5  1  0.09082000  0.57681900  0.97776000  1
  Se  Se6  1  0.27661400  0.81810900  0.18076600  1
  Se  Se7  1  0.47649000  0.01711900  0.38099000  1
  Se  Se8  1  0.67620300  0.21762800  0.58096700  1
  Se  Se9  1  0.87704400  0.41857100  0.78009600  1
  Se  Se10  1  0.42318100  0.90918000  0.02224000  1
  Se  Se11  1  0.58142900  0.12295600  0.21990400  1
  Se  Se12  1  0.78237200  0.32379700  0.41903300  1
  Se  Se13  1  0.98288100  0.52351000  0.61901000  1
  Se  Se14  1  0.18189100  0.72338600  0.81923400  1
  Se  Se15  1  0.02827700  0.49177600  0.12780400  1
  Se  Se16  1  0.23188100  0.69094300  0.32722900  1
  Se  Se17  1  0.43219900  0.89071800  0.52736800  1
  Se  Se18  1  0.63125300  0.09103800  0.72721900  1
  Se  Se19  1  0.80994800  0.31741700  0.91972600  1
loop_
_geom_bond_atom_site_label_1
_geom_bond_atom_site_label_2
_geom_bond_distance
_geom_bond_site_symmetry_2
Cd0 Se1 2.661188 1_555
Cd0 Se19 2.661188 1_554
Cd0 Se5 2.664505 1_644
Cd0 Se10 2.664505 1_645
Fe0 Se11 2.413410 1_555
Fe0 Se2 2.416322 1_455
Fe0 Se15 2.423435 1_555
Fe0 Se6 2.423825 1_545
Fe1 Se12 2.421232 1_555
Fe1 Se3 2.422886 1_555
Fe1 Se7 2.423957 1_555
Fe1 Se16 2.425286 1_555
Fe2 Se8 2.421232 1_555
Fe2 Se17 2.422886 1_555
Fe2 Se13 2.423957 1_555
Fe2 Se4 2.425286 1_555
Fe3 Se9 2.413410 1_555
Fe3 Se18 2.416322 1_565
Fe3 Se0 2.423435 1_555
Fe3 Se14 2.423825 1_655
Cu0 Se5 2.394081 1_554
Cu0 Se1 2.404498 1_555
Cu0 Se10 2.410941 1_545
Cu0 Se15 2.413716 1_555
Cu1 Se3 2.443731 1_655
Cu1 Se7 2.444245 1_565
Cu1 Se12 2.444294 1_555
Cu1 Se17 2.445652 1_555
Cu2 Se16 2.444315 1_555
Cu2 Se11 2.444465 1_555
Cu2 Se2 2.445437 1_555
Cu2 Se6 2.451858 1_555
Cu3 Se19 2.418482 1_455
Cu3 Se0 2.427376 1_545
Cu3 Se14 2.428750 1_545
Cu3 Se9 2.451078 1_455
Cu4 Se4 2.444418 1_655
Cu4 Se13 2.444436 1_555
Cu4 Se8 2.445270 1_565
Cu4 Se18 2.446338 1_565
Cu5 Se10 2.394081 1_556
Cu5 Se19 2.404498 1_555
Cu5 Se5 2.410941 1_655
Cu5 Se0 2.413716 1_555
Cu6 Se16 2.444418 1_545
Cu6 Se7 2.444436 1_555
Cu6 Se12 2.445270 1_455
Cu6 Se2 2.446338 1_455
Cu7 Se1 2.418482 1_565
Cu7 Se15 2.427376 1_655
Cu7 Se6 2.428750 1_655
Cu7 Se11 2.451078 1_565
Cu8 Se4 2.444315 1_555
Cu8 Se9 2.444465 1_555
Cu8 Se18 2.445437 1_555
Cu8 Se14 2.451858 1_555
Cu9 Se17 2.443731 1_545
Cu9 Se13 2.444245 1_455
Cu9 Se8 2.444294 1_555
Cu9 Se3 2.445652 1_555
Se0 Sn0 2.636482 1_565
Se1 Sn2 2.622641 1_555
Se2 Sn1 2.692661 1_555
Se3 Sn4 2.694326 1_555
Se4 Sn3 2.691286 1_565
Se5 Sn0 2.630052 1_555
Se6 Sn2 2.650573 1_555
Se7 Sn1 2.690132 1_545
Se8 Sn4 2.696652 1_645
Se9 Sn3 2.678758 1_655
Se10 Sn2 2.630052 1_555
Se11 Sn1 2.678758 1_545
Se12 Sn4 2.696652 1_645
Se13 Sn3 2.690132 1_655
Se14 Sn0 2.650573 1_555
Se15 Sn2 2.636482 1_455
Se16 Sn1 2.691286 1_455
Se17 Sn4 2.694326 1_555
Se18 Sn3 2.692661 1_555
Se19 Sn0 2.622641 1_555
