# generated using pymatgen
data_Li3Sm2(BO3)3
_symmetry_space_group_name_H-M   'P 1'
_cell_length_a   14.16942000
_cell_length_b   5.77384100
_cell_length_c   9.32795147
_cell_angle_alpha   66.93001054
_cell_angle_beta   90.00000000
_cell_angle_gamma   90.00000000
_symmetry_Int_Tables_number   1
_chemical_formula_structural   Li3Sm2(BO3)3
_chemical_formula_sum   'Li12 Sm8 B12 O36'
_cell_volume   702.10761481
_cell_formula_units_Z   4
loop_
 _symmetry_equiv_pos_site_id
 _symmetry_equiv_pos_as_xyz
  1  'x, y, z'
loop_
 _atom_site_type_symbol
 _atom_site_label
 _atom_site_symmetry_multiplicity
 _atom_site_fract_x
 _atom_site_fract_y
 _atom_site_fract_z
 _atom_site_occupancy
  Li  Li0  1  0.33485300  0.90950100  0.01772600  1
  Li  Li1  1  0.66514700  0.09049900  0.98227400  1
  Li  Li2  1  0.83485300  0.09049900  0.48227400  1
  Li  Li3  1  0.16514700  0.90950100  0.51772600  1
  Li  Li4  1  0.78265800  0.90665100  0.29327000  1
  Li  Li5  1  0.21734200  0.09334900  0.70673000  1
  Li  Li6  1  0.28265800  0.09334900  0.20673000  1
  Li  Li7  1  0.71734200  0.90665100  0.79327000  1
  Li  Li8  1  0.89605300  0.56296800  0.29152800  1
  Li  Li9  1  0.10394700  0.43703200  0.70847200  1
  Li  Li10  1  0.39605300  0.43703200  0.20847200  1
  Li  Li11  1  0.60394700  0.56296800  0.79152800  1
  Sm  Sm0  1  0.66502600  0.44296200  0.19282700  1
  Sm  Sm1  1  0.33497400  0.55703800  0.80717300  1
  Sm  Sm2  1  0.16502600  0.55703800  0.30717300  1
  Sm  Sm3  1  0.83497400  0.44296200  0.69282700  1
  Sm  Sm4  1  0.50436100  0.84824100  0.34068100  1
  Sm  Sm5  1  0.49563900  0.15175900  0.65931900  1
  Sm  Sm6  1  0.00436100  0.15175900  0.15931900  1
  Sm  Sm7  1  0.99563900  0.84824100  0.84068100  1
  B  B0  1  0.98420600  0.76372500  0.48576500  1
  B  B1  1  0.01579400  0.23627500  0.51423500  1
  B  B2  1  0.48420600  0.23627500  0.01423500  1
  B  B3  1  0.51579400  0.76372500  0.98576500  1
  B  B4  1  0.83658500  0.88877800  0.02679600  1
  B  B5  1  0.16341500  0.11122200  0.97320400  1
  B  B6  1  0.33658500  0.11122200  0.47320400  1
  B  B7  1  0.66341500  0.88877800  0.52679600  1
  B  B8  1  0.82474000  0.38953600  0.02095100  1
  B  B9  1  0.17526000  0.61046400  0.97904900  1
  B  B10  1  0.32474000  0.61046400  0.47904900  1
  B  B11  1  0.67526000  0.38953600  0.52095100  1
  O  O0  1  0.89731700  0.81233000  0.41370000  1
  O  O1  1  0.10268300  0.18767000  0.58630000  1
  O  O2  1  0.39731700  0.18767000  0.08630000  1
  O  O3  1  0.60268300  0.81233000  0.91370000  1
  O  O4  1  0.59300800  0.45713300  0.43233500  1
  O  O5  1  0.40699200  0.54286700  0.56766500  1
  O  O6  1  0.09300800  0.54286700  0.06766500  1
  O  O7  1  0.90699200  0.45713300  0.93233500  1
  O  O8  1  0.75612200  0.81882400  0.11686600  1
  O  O9  1  0.24387800  0.18117600  0.88313400  1
  O  O10  1  0.25612200  0.18117600  0.38313400  1
  O  O11  1  0.74387800  0.81882400  0.61686600  1
  O  O12  1  0.56547500  0.18429300  0.10437800  1
  O  O13  1  0.43452500  0.81570700  0.89562200  1
  O  O14  1  0.06547500  0.81570700  0.39562200  1
  O  O15  1  0.93452500  0.18429300  0.60437800  1
  O  O16  1  0.92602100  0.84212400  0.09283800  1
  O  O17  1  0.07397900  0.15787600  0.90716200  1
  O  O18  1  0.42602100  0.15787600  0.40716200  1
  O  O19  1  0.57397900  0.84212400  0.59283800  1
  O  O20  1  0.83221100  0.28830500  0.18223500  1
  O  O21  1  0.16778900  0.71169500  0.81776500  1
  O  O22  1  0.33221100  0.71169500  0.31776500  1
  O  O23  1  0.66778900  0.28830500  0.68223500  1
  O  O24  1  0.51091800  0.66065700  0.14727700  1
  O  O25  1  0.48908200  0.33934300  0.85272300  1
  O  O26  1  0.01091800  0.33934300  0.35272300  1
  O  O27  1  0.98908200  0.66065700  0.64727700  1
  O  O28  1  0.76141500  0.41671300  0.44663600  1
  O  O29  1  0.23858500  0.58328700  0.55336400  1
  O  O30  1  0.26141500  0.58328700  0.05336400  1
  O  O31  1  0.73858500  0.41671300  0.94663600  1
  O  O32  1  0.66673500  0.00262700  0.36534800  1
  O  O33  1  0.33326500  0.99737300  0.63465200  1
  O  O34  1  0.16673500  0.99737300  0.13465200  1
  O  O35  1  0.83326500  0.00262700  0.86534800  1
loop_
_geom_bond_atom_site_label_1
_geom_bond_atom_site_label_2
_geom_bond_distance
_geom_bond_site_symmetry_2
Li0 O13 2.017061 1_554
Li0 O9 2.038388 1_564
Li0 O30 2.061601 1_555
Li0 O2 2.139448 1_565
Li1 O12 2.017061 1_556
Li1 O8 2.038388 1_546
Li1 O31 2.061601 1_555
Li1 O3 2.139448 1_545
Li2 O15 2.017061 1_555
Li2 O11 2.038388 1_545
Li2 O28 2.061601 1_555
Li2 O0 2.139448 1_545
Li3 O14 2.017061 1_555
Li3 O10 2.038388 1_565
Li3 O29 2.061601 1_555
Li3 O1 2.139448 1_565
Li4 O0 1.928359 1_555
Li4 O32 1.936266 1_565
Li4 O8 1.939099 1_555
Li4 O20 2.152424 1_565
Li5 O1 1.928359 1_555
Li5 O33 1.936266 1_545
Li5 O9 1.939099 1_555
Li5 O21 2.152424 1_545
Li6 O2 1.928359 1_555
Li6 O34 1.936266 1_545
Li6 O10 1.939099 1_555
Li6 O22 2.152424 1_545
Li7 O3 1.928359 1_555
Li7 O35 1.936266 1_565
Li7 O11 1.939099 1_555
Li7 O23 2.152424 1_565
Li8 O16 1.967752 1_555
Li8 O26 2.016020 1_655
Li8 O0 2.158218 1_555
Li8 O28 2.342733 1_555
Li8 O20 2.374798 1_555
Li9 O17 1.967752 1_555
Li9 O27 2.016020 1_455
Li9 O1 2.158218 1_555
Li9 O29 2.342733 1_555
Li9 O21 2.374798 1_555
Li10 O18 1.967752 1_555
Li10 O24 2.016020 1_555
Li10 O2 2.158218 1_555
Li10 O30 2.342733 1_555
Li10 O22 2.374798 1_555
Li11 O19 1.967752 1_555
Li11 O25 2.016020 1_555
Li11 O3 2.158218 1_555
Li11 O31 2.342733 1_555
Li11 O23 2.374798 1_555
B0 O0 1.377883 1_555
B0 O14 1.387572 1_655
B0 O27 1.387819 1_555
B1 O1 1.377883 1_555
B1 O15 1.387572 1_455
B1 O26 1.387819 1_555
B2 O2 1.377883 1_555
B2 O12 1.387572 1_555
B2 O25 1.387819 1_554
B3 O3 1.377883 1_555
B3 O13 1.387572 1_555
B3 O24 1.387819 1_556
B4 O8 1.379468 1_555
B4 O35 1.387968 1_564
B4 O16 1.388506 1_555
B5 O9 1.379468 1_555
B5 O34 1.387968 1_546
B5 O17 1.388506 1_555
B6 O10 1.379468 1_555
B6 O33 1.387968 1_545
B6 O18 1.388506 1_555
B7 O11 1.379468 1_555
B7 O32 1.387968 1_565
B7 O19 1.388506 1_555
B8 O31 1.382093 1_554
B8 O20 1.388185 1_555
B8 O7 1.393223 1_554
B9 O30 1.382093 1_556
B9 O21 1.388185 1_555
B9 O6 1.393223 1_556
B10 O29 1.382093 1_555
B10 O22 1.388185 1_555
B10 O5 1.393223 1_555
B11 O28 1.382093 1_555
B11 O23 1.388185 1_555
B11 O4 1.393223 1_555
O0 Sm3 2.784959 1_555
O0 Sm6 2.850842 1_665
O1 Sm2 2.784959 1_555
O1 Sm7 2.850842 1_445
O2 Sm1 2.784959 1_554
O2 Sm4 2.850842 1_545
O3 Sm0 2.784959 1_556
O3 Sm5 2.850842 1_565
O4 Sm4 2.427972 1_555
O4 Sm0 2.486477 1_555
O4 Sm5 2.563101 1_555
O5 Sm5 2.427972 1_555
O5 Sm1 2.486477 1_555
O5 Sm4 2.563101 1_555
O6 Sm6 2.427972 1_555
O6 Sm2 2.486477 1_555
O6 Sm7 2.563101 1_454
O7 Sm7 2.427972 1_555
O7 Sm3 2.486477 1_555
O7 Sm6 2.563101 1_656
O8 Sm0 2.381740 1_555
O9 Sm1 2.381740 1_555
O10 Sm2 2.381740 1_555
O11 Sm3 2.381740 1_555
O12 Sm0 2.422133 1_555
O12 Sm4 2.453862 1_545
O13 Sm1 2.422133 1_555
O13 Sm5 2.453862 1_565
O14 Sm2 2.422133 1_555
O14 Sm6 2.453862 1_565
O15 Sm3 2.422133 1_555
O15 Sm7 2.453862 1_545
O16 Sm6 2.383647 1_665
O16 Sm7 2.538037 1_554
O17 Sm7 2.383647 1_445
O17 Sm6 2.538037 1_556
O18 Sm4 2.383647 1_545
O18 Sm5 2.538037 1_555
O19 Sm5 2.383647 1_565
O19 Sm4 2.538037 1_555
O20 Sm0 2.547165 1_555
O20 Sm6 2.597952 1_655
O21 Sm1 2.547165 1_555
O21 Sm7 2.597952 1_455
O22 Sm2 2.547165 1_555
O22 Sm4 2.597952 1_555
O23 Sm3 2.547165 1_555
O23 Sm5 2.597952 1_555
O24 Sm4 2.442881 1_555
O24 Sm0 2.471856 1_555
O25 Sm5 2.442881 1_555
O25 Sm1 2.471856 1_555
O26 Sm6 2.442881 1_555
O26 Sm2 2.471856 1_555
O27 Sm7 2.442881 1_555
O27 Sm3 2.471856 1_555
O28 Sm3 2.579888 1_555
O28 Sm0 2.685563 1_555
O29 Sm2 2.579888 1_555
O29 Sm1 2.685563 1_555
O30 Sm1 2.579888 1_554
O30 Sm2 2.685563 1_555
O31 Sm0 2.579888 1_556
O31 Sm3 2.685563 1_555
O32 Sm0 2.418211 1_555
O32 Sm4 2.510320 1_545
O33 Sm1 2.418211 1_555
O33 Sm5 2.510320 1_565
O34 Sm2 2.418211 1_555
O34 Sm6 2.510320 1_565
O35 Sm3 2.418211 1_555
O35 Sm7 2.510320 1_545
