# generated using pymatgen
data_Li5Mn3O8
_symmetry_space_group_name_H-M   'P 1'
_cell_length_a   3.07782206
_cell_length_b   3.07782206
_cell_length_c   19.83176004
_cell_angle_alpha   83.97427262
_cell_angle_beta   83.97427262
_cell_angle_gamma   55.81951862
_symmetry_Int_Tables_number   1
_chemical_formula_structural   Li5Mn3O8
_chemical_formula_sum   'Li5 Mn3 O8'
_cell_volume   154.31583193
_cell_formula_units_Z   1
loop_
 _symmetry_equiv_pos_site_id
 _symmetry_equiv_pos_as_xyz
  1  'x, y, z'
loop_
 _atom_site_type_symbol
 _atom_site_label
 _atom_site_symmetry_multiplicity
 _atom_site_fract_x
 _atom_site_fract_y
 _atom_site_fract_z
 _atom_site_occupancy
  Li  Li0  1  0.76869700  0.76869700  0.61228900  1
  Li  Li1  1  0.23130300  0.23130300  0.38771100  1
  Li  Li2  1  0.74975700  0.74975700  0.12549700  1
  Li  Li3  1  0.25024300  0.25024300  0.87450300  1
  Li  Li4  1  0.50000000  0.50000000  0.50000000  1
  Mn  Mn0  1  0.00512000  0.00512000  0.74923200  1
  Mn  Mn1  1  0.99488000  0.99488000  0.25076800  1
  Mn  Mn2  1  0.50000000  0.50000000  0.00000000  1
  O  O0  1  0.37929500  0.37929500  0.69658100  1
  O  O1  1  0.88485000  0.88485000  0.43621300  1
  O  O2  1  0.38688400  0.38688400  0.19223200  1
  O  O3  1  0.89413100  0.89413100  0.94198600  1
  O  O4  1  0.11515000  0.11515000  0.56378700  1
  O  O5  1  0.62070500  0.62070500  0.30341900  1
  O  O6  1  0.10586900  0.10586900  0.05801400  1
  O  O7  1  0.61311600  0.61311600  0.80776800  1
loop_
_geom_bond_atom_site_label_1
_geom_bond_atom_site_label_2
_geom_bond_distance
_geom_bond_site_symmetry_2
Li0 O4 1.972117 1_565
Li0 O4 1.972117 1_655
Li0 O4 2.011515 1_665
Li0 O0 2.338984 1_565
Li0 O0 2.338984 1_655
Li0 O0 2.537715 1_555
Li1 O1 1.972117 1_455
Li1 O1 1.972117 1_545
Li1 O1 2.011515 1_445
Li1 O5 2.338984 1_455
Li1 O5 2.338984 1_545
Li1 O5 2.537715 1_555
Li2 O2 2.148965 1_655
Li2 O2 2.148965 1_565
Li2 O6 2.174415 1_565
Li2 O6 2.174415 1_655
Li2 O6 2.219819 1_665
Li2 O2 2.242144 1_555
Li3 O7 2.148965 1_545
Li3 O7 2.148965 1_455
Li3 O3 2.174415 1_455
Li3 O3 2.174415 1_545
Li3 O3 2.219819 1_445
Li3 O7 2.242144 1_555
Li4 O4 2.063098 1_565
Li4 O4 2.063098 1_655
Li4 O1 2.063098 1_545
Li4 O1 2.063098 1_455
Li4 O4 2.313786 1_555
Li4 O1 2.313786 1_555
Mn0 O0 1.950399 1_545
Mn0 O0 1.950399 1_455
Mn0 O7 1.982494 1_545
Mn0 O7 1.982494 1_455
Mn0 O0 2.174426 1_555
Mn0 O7 2.303583 1_445
Mn1 O5 1.950399 1_655
Mn1 O5 1.950399 1_565
Mn1 O2 1.982494 1_655
Mn1 O2 1.982494 1_565
Mn1 O5 2.174426 1_555
Mn1 O2 2.303583 1_665
Mn2 O6 1.971874 1_565
Mn2 O6 1.971874 1_655
Mn2 O3 1.971874 1_544
Mn2 O3 1.971874 1_454
Mn2 O6 2.309573 1_555
Mn2 O3 2.309573 1_554
