# generated using pymatgen
data_Cs
_symmetry_space_group_name_H-M   'P 1'
_cell_length_a   11.13261242
_cell_length_b   11.13261180
_cell_length_c   18.51695792
_cell_angle_alpha   90.00000000
_cell_angle_beta   90.00000000
_cell_angle_gamma   119.99998935
_symmetry_Int_Tables_number   1
_chemical_formula_structural   Cs
_chemical_formula_sum   Cs16
_cell_volume   1987.44204148
_cell_formula_units_Z   16
loop_
 _symmetry_equiv_pos_site_id
 _symmetry_equiv_pos_as_xyz
  1  'x, y, z'
loop_
 _atom_site_type_symbol
 _atom_site_label
 _atom_site_symmetry_multiplicity
 _atom_site_fract_x
 _atom_site_fract_y
 _atom_site_fract_z
 _atom_site_occupancy
  Cs  Cs0_0  1  0.16666650  0.33333350  0.12500000  1
  Cs  Cs0_1  1  0.16666650  0.33333350  0.62500000  1
  Cs  Cs0_2  1  0.16666650  0.83333350  0.12500000  1
  Cs  Cs0_3  1  0.16666650  0.83333350  0.62500000  1
  Cs  Cs0_4  1  0.66666650  0.33333350  0.12500000  1
  Cs  Cs0_5  1  0.66666650  0.33333350  0.62500000  1
  Cs  Cs0_6  1  0.66666650  0.83333350  0.12500000  1
  Cs  Cs0_7  1  0.66666650  0.83333350  0.62500000  1
  Cs  Cs1_0  1  0.33333350  0.16666650  0.37500000  1
  Cs  Cs1_1  1  0.33333350  0.16666650  0.87500000  1
  Cs  Cs1_2  1  0.33333350  0.66666650  0.37500000  1
  Cs  Cs1_3  1  0.33333350  0.66666650  0.87500000  1
  Cs  Cs1_4  1  0.83333350  0.16666650  0.37500000  1
  Cs  Cs1_5  1  0.83333350  0.16666650  0.87500000  1
  Cs  Cs1_6  1  0.83333350  0.66666650  0.37500000  1
  Cs  Cs1_7  1  0.83333350  0.66666650  0.87500000  1
loop_
_geom_bond_atom_site_label_1
_geom_bond_atom_site_label_2
_geom_bond_distance
_geom_bond_site_symmetry_2
Cs0_0 Cs0_2 5.566306 1_545
Cs0_0 Cs0_2 5.566306 1_555
Cs0_0 Cs0_4 5.566306 1_555
Cs0_0 Cs0_4 5.566306 1_455
Cs0_0 Cs0_6 5.566307 1_555
Cs0_0 Cs0_6 5.566307 1_445
Cs0_0 Cs1_3 5.635402 1_554
Cs0_0 Cs1_2 5.635402 1_555
Cs0_0 Cs1_5 5.635402 1_454
Cs0_0 Cs1_4 5.635402 1_455
Cs0_0 Cs1_1 5.635408 1_554
Cs0_0 Cs1_0 5.635408 1_555
Cs0_1 Cs0_3 5.566306 1_545
Cs0_1 Cs0_3 5.566306 1_555
Cs0_1 Cs0_5 5.566306 1_555
Cs0_1 Cs0_5 5.566306 1_455
Cs0_1 Cs0_7 5.566307 1_555
Cs0_1 Cs0_7 5.566307 1_445
Cs0_1 Cs1_2 5.635402 1_555
Cs0_1 Cs1_3 5.635402 1_555
Cs0_1 Cs1_4 5.635402 1_455
Cs0_1 Cs1_5 5.635402 1_455
Cs0_1 Cs1_1 5.635408 1_555
Cs0_1 Cs1_0 5.635408 1_555
Cs0_2 Cs0_6 5.566306 1_555
Cs0_2 Cs0_6 5.566306 1_455
Cs0_2 Cs0_4 5.566307 1_565
Cs0_2 Cs0_4 5.566307 1_455
Cs0_2 Cs1_0 5.635402 1_565
Cs0_2 Cs1_1 5.635402 1_564
Cs0_2 Cs1_6 5.635402 1_455
Cs0_2 Cs1_7 5.635402 1_454
Cs0_2 Cs1_3 5.635408 1_554
Cs0_2 Cs1_2 5.635408 1_555
Cs0_3 Cs0_7 5.566306 1_555
Cs0_3 Cs0_7 5.566306 1_455
Cs0_3 Cs0_5 5.566307 1_565
Cs0_3 Cs0_5 5.566307 1_455
Cs0_3 Cs1_0 5.635402 1_565
Cs0_3 Cs1_1 5.635402 1_565
Cs0_3 Cs1_6 5.635402 1_455
Cs0_3 Cs1_7 5.635402 1_455
Cs0_3 Cs1_2 5.635408 1_555
Cs0_3 Cs1_3 5.635408 1_555
Cs0_4 Cs0_6 5.566306 1_545
Cs0_4 Cs0_6 5.566306 1_555
Cs0_4 Cs1_7 5.635402 1_554
Cs0_4 Cs1_6 5.635402 1_555
Cs0_4 Cs1_1 5.635402 1_554
Cs0_4 Cs1_0 5.635402 1_555
Cs0_4 Cs1_5 5.635408 1_554
Cs0_4 Cs1_4 5.635408 1_555
Cs0_5 Cs0_7 5.566306 1_545
Cs0_5 Cs0_7 5.566306 1_555
Cs0_5 Cs1_6 5.635402 1_555
Cs0_5 Cs1_7 5.635402 1_555
Cs0_5 Cs1_0 5.635402 1_555
Cs0_5 Cs1_1 5.635402 1_555
Cs0_5 Cs1_4 5.635408 1_555
Cs0_5 Cs1_5 5.635408 1_555
Cs0_6 Cs1_5 5.635402 1_564
Cs0_6 Cs1_4 5.635402 1_565
Cs0_6 Cs1_3 5.635402 1_554
Cs0_6 Cs1_2 5.635402 1_555
Cs0_6 Cs1_7 5.635408 1_554
Cs0_6 Cs1_6 5.635408 1_555
Cs0_7 Cs1_4 5.635402 1_565
Cs0_7 Cs1_5 5.635402 1_565
Cs0_7 Cs1_2 5.635402 1_555
Cs0_7 Cs1_3 5.635402 1_555
Cs0_7 Cs1_6 5.635408 1_555
Cs0_7 Cs1_7 5.635408 1_555
Cs1_0 Cs1_2 5.566306 1_545
Cs1_0 Cs1_2 5.566306 1_555
Cs1_0 Cs1_4 5.566306 1_555
Cs1_0 Cs1_4 5.566306 1_455
Cs1_0 Cs1_6 5.566307 1_445
Cs1_0 Cs1_6 5.566307 1_555
Cs1_1 Cs1_3 5.566306 1_555
Cs1_1 Cs1_3 5.566306 1_545
Cs1_1 Cs1_5 5.566306 1_555
Cs1_1 Cs1_5 5.566306 1_455
Cs1_1 Cs1_7 5.566307 1_445
Cs1_1 Cs1_7 5.566307 1_555
Cs1_2 Cs1_6 5.566306 1_555
Cs1_2 Cs1_6 5.566306 1_455
Cs1_2 Cs1_4 5.566307 1_565
Cs1_2 Cs1_4 5.566307 1_455
Cs1_3 Cs1_7 5.566306 1_555
Cs1_3 Cs1_7 5.566306 1_455
Cs1_3 Cs1_5 5.566307 1_565
Cs1_3 Cs1_5 5.566307 1_455
Cs1_4 Cs1_6 5.566306 1_555
Cs1_4 Cs1_6 5.566306 1_545
Cs1_5 Cs1_7 5.566306 1_555
Cs1_5 Cs1_7 5.566306 1_545
