# generated using pymatgen
data_UFeSi2
_symmetry_space_group_name_H-M   'P 1'
_cell_length_a   8.60901677
_cell_length_b   8.60901677
_cell_length_c   3.90954900
_cell_angle_alpha   90.00000000
_cell_angle_beta   90.00000000
_cell_angle_gamma   154.33884130
_symmetry_Int_Tables_number   1
_chemical_formula_structural   UFeSi2
_chemical_formula_sum   'U2 Fe2 Si4'
_cell_volume   125.47868061
_cell_formula_units_Z   2
loop_
 _symmetry_equiv_pos_site_id
 _symmetry_equiv_pos_as_xyz
  1  'x, y, z'
loop_
 _atom_site_type_symbol
 _atom_site_label
 _atom_site_symmetry_multiplicity
 _atom_site_fract_x
 _atom_site_fract_y
 _atom_site_fract_z
 _atom_site_occupancy
  U  U0  1  0.61039000  0.38961000  0.25000000  1
  U  U1  1  0.38961000  0.61039000  0.75000000  1
  Fe  Fe0  1  0.82968800  0.17031200  0.25000000  1
  Fe  Fe1  1  0.17031200  0.82968800  0.75000000  1
  Si  Si0  1  0.96267000  0.03733000  0.25000000  1
  Si  Si1  1  0.03733000  0.96267000  0.75000000  1
  Si  Si2  1  0.24976200  0.75023800  0.25000000  1
  Si  Si3  1  0.75023800  0.24976200  0.75000000  1
loop_
_geom_bond_atom_site_label_1
_geom_bond_atom_site_label_2
_geom_bond_distance
_geom_bond_site_symmetry_2
Fe0 Si0 2.232517 1_555
Fe0 Si2 2.335681 1_655
Fe0 Si2 2.335681 1_545
Fe0 Si3 2.366476 1_555
Fe0 Si3 2.366476 1_554
Fe0 U1 2.913433 1_545
Fe0 U1 2.913433 1_655
Fe0 U1 2.913433 1_654
Fe0 U1 2.913433 1_544
Fe1 Si1 2.232517 1_555
Fe1 Si3 2.335681 1_455
Fe1 Si3 2.335681 1_565
Fe1 Si2 2.366476 1_556
Fe1 Si2 2.366476 1_555
Fe1 U0 2.913433 1_566
Fe1 U0 2.913433 1_565
Fe1 U0 2.913433 1_455
Fe1 U0 2.913433 1_456
Si0 Si1 2.322102 1_644
Si0 Si1 2.322102 1_645
Si0 U1 2.996749 1_655
Si0 U1 2.996749 1_654
Si0 U1 2.996749 1_544
Si0 U1 2.996749 1_545
Si0 U0 3.131304 1_545
Si0 U0 3.131304 1_655
Si1 U0 2.996749 1_456
Si1 U0 2.996749 1_566
Si1 U0 2.996749 1_565
Si1 U0 2.996749 1_455
Si1 U1 3.131304 1_565
Si1 U1 3.131304 1_455
Si2 Si3 2.734258 1_454
Si2 Si3 2.734258 1_564
Si2 Si3 2.734258 1_455
Si2 Si3 2.734258 1_565
Si2 U0 3.021522 1_565
Si2 U0 3.021522 1_455
Si2 U1 3.055034 1_554
Si2 U1 3.055034 1_555
Si3 U1 3.021522 1_545
Si3 U1 3.021522 1_655
Si3 U0 3.055034 1_556
Si3 U0 3.055034 1_555
