# generated using pymatgen
data_SiH6C4N5F6
_symmetry_space_group_name_H-M   'P 1'
_cell_length_a   7.24656700
_cell_length_b   12.72756100
_cell_length_c   11.27405322
_cell_angle_alpha   90.00000000
_cell_angle_beta   99.67703049
_cell_angle_gamma   90.00000000
_symmetry_Int_Tables_number   1
_chemical_formula_structural   SiH6C4N5F6
_chemical_formula_sum   'Si4 H24 C16 N20 F24'
_cell_volume   1025.02295036
_cell_formula_units_Z   4
loop_
 _symmetry_equiv_pos_site_id
 _symmetry_equiv_pos_as_xyz
  1  'x, y, z'
loop_
 _atom_site_type_symbol
 _atom_site_label
 _atom_site_symmetry_multiplicity
 _atom_site_fract_x
 _atom_site_fract_y
 _atom_site_fract_z
 _atom_site_occupancy
  Si  Si0  1  0.62938800  0.10079100  0.27371600  1
  Si  Si1  1  0.37061200  0.60079100  0.22628400  1
  Si  Si2  1  0.37061200  0.89920900  0.72628400  1
  Si  Si3  1  0.62938800  0.39920900  0.77371600  1
  H  H0  1  0.00270700  0.94691100  0.61264900  1
  H  H1  1  0.99729300  0.44691100  0.88735100  1
  H  H2  1  0.99729300  0.05308900  0.38735100  1
  H  H3  1  0.00270700  0.55308900  0.11264900  1
  H  H4  1  0.60784700  0.09925800  0.55741100  1
  H  H5  1  0.39215300  0.59925800  0.94258900  1
  H  H6  1  0.39215300  0.90074200  0.44258900  1
  H  H7  1  0.60784700  0.40074200  0.05741100  1
  H  H8  1  0.65803900  0.18453200  0.68573800  1
  H  H9  1  0.34196100  0.68453200  0.81426200  1
  H  H10  1  0.34196100  0.81546800  0.31426200  1
  H  H11  1  0.65803900  0.31546800  0.18573800  1
  H  H12  1  0.11433400  0.06467300  0.76285500  1
  H  H13  1  0.88566600  0.56467300  0.73714500  1
  H  H14  1  0.88566600  0.93532700  0.23714500  1
  H  H15  1  0.11433400  0.43532700  0.26285500  1
  H  H16  1  0.76531500  0.12392200  0.00807100  1
  H  H17  1  0.23468500  0.62392200  0.49192900  1
  H  H18  1  0.23468500  0.87607800  0.99192900  1
  H  H19  1  0.76531500  0.37607800  0.50807100  1
  H  H20  1  0.67312900  0.05217100  0.87561900  1
  H  H21  1  0.32687100  0.55217100  0.62438100  1
  H  H22  1  0.32687100  0.94782900  0.12438100  1
  H  H23  1  0.67312900  0.44782900  0.37561900  1
  C  C0  1  0.84256500  0.05844000  0.66827700  1
  C  C1  1  0.15743500  0.55844000  0.83172300  1
  C  C2  1  0.15743500  0.94156000  0.33172300  1
  C  C3  1  0.84256500  0.44156000  0.16827700  1
  C  C4  1  0.93571900  0.11069000  0.88093800  1
  C  C5  1  0.06428100  0.61069000  0.61906200  1
  C  C6  1  0.06428100  0.88931000  0.11906200  1
  C  C7  1  0.93571900  0.38931000  0.38093800  1
  C  C8  1  0.27223200  0.18328300  0.97764500  1
  C  C9  1  0.72776800  0.68328300  0.52235500  1
  C  C10  1  0.72776800  0.81671700  0.02235500  1
  C  C11  1  0.27223200  0.31671700  0.47764500  1
  C  C12  1  0.13135700  0.22223000  0.05544800  1
  C  C13  1  0.86864300  0.72223000  0.44455200  1
  C  C14  1  0.86864300  0.77777000  0.94455200  1
  C  C15  1  0.13135700  0.27777000  0.55544800  1
  N  N0  1  0.87077700  0.98197200  0.59329700  1
  N  N1  1  0.12922300  0.48197200  0.90670300  1
  N  N2  1  0.12922300  0.01802800  0.40670300  1
  N  N3  1  0.87077700  0.51802800  0.09329700  1
  N  N4  1  0.69237200  0.11798500  0.63853600  1
  N  N5  1  0.30762800  0.61798500  0.86146400  1
  N  N6  1  0.30762800  0.88201500  0.36146400  1
  N  N7  1  0.69237200  0.38201500  0.13853600  1
  N  N8  1  0.97318800  0.07947400  0.77370900  1
  N  N9  1  0.02681200  0.57947400  0.72629100  1
  N  N10  1  0.02681200  0.92052600  0.22629100  1
  N  N11  1  0.97318800  0.42052600  0.27370900  1
  N  N12  1  0.78029300  0.09920400  0.92177900  1
  N  N13  1  0.21970700  0.59920400  0.57822100  1
  N  N14  1  0.21970700  0.90079600  0.07822100  1
  N  N15  1  0.78029300  0.40079600  0.42177900  1
  N  N16  1  0.08754300  0.15995800  0.95783800  1
  N  N17  1  0.91245700  0.65995800  0.54216200  1
  N  N18  1  0.91245700  0.84004200  0.04216200  1
  N  N19  1  0.08754300  0.34004200  0.45783800  1
  F  F0  1  0.53124000  0.09084800  0.39929600  1
  F  F1  1  0.46876000  0.59084800  0.10070400  1
  F  F2  1  0.46876000  0.90915200  0.60070400  1
  F  F3  1  0.53124000  0.40915200  0.89929600  1
  F  F4  1  0.55268300  0.22655700  0.24824100  1
  F  F5  1  0.44731700  0.72655700  0.25175900  1
  F  F6  1  0.44731700  0.77344300  0.75175900  1
  F  F7  1  0.55268300  0.27344300  0.74824100  1
  F  F8  1  0.73610300  0.10709400  0.14708100  1
  F  F9  1  0.26389700  0.60709400  0.35291900  1
  F  F10  1  0.26389700  0.89290600  0.85291900  1
  F  F11  1  0.73610300  0.39290600  0.64708100  1
  F  F12  1  0.71331900  0.97296500  0.29348000  1
  F  F13  1  0.28668100  0.47296500  0.20652000  1
  F  F14  1  0.28668100  0.02703500  0.70652000  1
  F  F15  1  0.71331900  0.52703500  0.79348000  1
  F  F16  1  0.83368000  0.14785600  0.35791900  1
  F  F17  1  0.16632000  0.64785600  0.14208100  1
  F  F18  1  0.16632000  0.85214400  0.64208100  1
  F  F19  1  0.83368000  0.35214400  0.85791900  1
  F  F20  1  0.42720200  0.05329000  0.18730800  1
  F  F21  1  0.57279800  0.55329000  0.31269200  1
  F  F22  1  0.57279800  0.94671000  0.81269200  1
  F  F23  1  0.42720200  0.44671000  0.68730800  1
loop_
_geom_bond_atom_site_label_1
_geom_bond_atom_site_label_2
_geom_bond_distance
_geom_bond_site_symmetry_2
H0 N0 1.044327 1_455
H1 N1 1.044327 1_655
H2 N2 1.044327 1_655
H3 N3 1.044327 1_455
H4 N4 1.039306 1_555
H5 N5 1.039306 1_555
H6 N6 1.039306 1_555
H7 N7 1.039306 1_555
H8 N4 1.052131 1_555
H9 N5 1.052131 1_555
H10 N6 1.052131 1_555
H11 N7 1.052131 1_555
H12 N8 1.067103 1_455
H13 N9 1.067103 1_655
H14 N10 1.067103 1_655
H15 N11 1.067103 1_455
H16 N12 1.045328 1_554
H17 N13 1.045328 1_555
H18 N14 1.045328 1_556
H19 N15 1.045328 1_555
H20 N12 1.047074 1_555
H21 N13 1.047074 1_555
H22 N14 1.047074 1_555
H23 N15 1.047074 1_555
C0 N4 1.322375 1_555
C0 N0 1.327288 1_545
C0 N8 1.415021 1_555
C1 N5 1.322375 1_555
C1 N1 1.327288 1_555
C1 N9 1.415021 1_555
C2 N6 1.322375 1_555
C2 N2 1.327288 1_565
C2 N10 1.415021 1_555
C3 N7 1.322375 1_555
C3 N3 1.327288 1_555
C3 N11 1.415021 1_555
C4 N12 1.294716 1_555
C4 N8 1.342899 1_555
C4 N16 1.426403 1_655
C5 N13 1.294716 1_555
C5 N9 1.342899 1_555
C5 N17 1.426403 1_455
C6 N14 1.294716 1_555
C6 N10 1.342899 1_555
C6 N18 1.426403 1_455
C7 N15 1.294716 1_555
C7 N11 1.342899 1_555
C7 N19 1.426403 1_655
C8 N16 1.352307 1_555
C9 N17 1.352307 1_555
C10 N18 1.352307 1_555
C11 N19 1.352307 1_555
C12 N16 1.350009 1_554
C13 N17 1.350009 1_555
C14 N18 1.350009 1_556
C15 N19 1.350009 1_555
F0 Si0 1.692595 1_555
F1 Si1 1.692595 1_555
F2 Si2 1.692595 1_555
F3 Si3 1.692595 1_555
F4 H11 1.594009 1_555
F4 Si0 1.702941 1_555
F5 H10 1.594009 1_555
F5 Si1 1.702941 1_555
F6 H9 1.594009 1_555
F6 Si2 1.702941 1_555
F7 H8 1.594009 1_555
F7 Si3 1.702941 1_555
F8 H16 1.630445 1_555
F8 Si0 1.736066 1_555
F9 H17 1.630445 1_555
F9 Si1 1.736066 1_555
F10 H18 1.630445 1_555
F10 Si2 1.736066 1_555
F11 H19 1.630445 1_555
F11 Si3 1.736066 1_555
F12 H14 1.568230 1_555
F12 Si0 1.738061 1_565
F13 H15 1.568230 1_555
F13 Si1 1.738061 1_555
F14 H12 1.568230 1_555
F14 Si2 1.738061 1_545
F15 H13 1.568230 1_555
F15 Si3 1.738061 1_555
F16 Si0 1.726029 1_555
F17 Si1 1.726029 1_555
F18 Si2 1.726029 1_555
F19 Si3 1.726029 1_555
F20 H22 1.631005 1_545
F20 Si0 1.726657 1_555
F21 H23 1.631005 1_555
F21 Si1 1.726657 1_555
F22 H20 1.631005 1_565
F22 Si2 1.726657 1_555
F23 H21 1.631005 1_555
F23 Si3 1.726657 1_555
