# generated using pymatgen
data_Rb2FeCl5O
_symmetry_space_group_name_H-M   'P 1'
_cell_length_a   7.46086200
_cell_length_b   10.47806100
_cell_length_c   13.85523000
_cell_angle_alpha   90.00000000
_cell_angle_beta   90.00000000
_cell_angle_gamma   90.00000000
_symmetry_Int_Tables_number   1
_chemical_formula_structural   Rb2FeCl5O
_chemical_formula_sum   'Rb8 Fe4 Cl20 O4'
_cell_volume   1083.13769218
_cell_formula_units_Z   4
loop_
 _symmetry_equiv_pos_site_id
 _symmetry_equiv_pos_as_xyz
  1  'x, y, z'
loop_
 _atom_site_type_symbol
 _atom_site_label
 _atom_site_symmetry_multiplicity
 _atom_site_fract_x
 _atom_site_fract_y
 _atom_site_fract_z
 _atom_site_occupancy
  Rb  Rb0  1  0.17370700  0.49588200  0.36307600  1
  Rb  Rb1  1  0.32629300  0.00411800  0.86307600  1
  Rb  Rb2  1  0.82629300  0.99588200  0.63692400  1
  Rb  Rb3  1  0.67370700  0.50411800  0.13692400  1
  Rb  Rb4  1  0.82629300  0.50411800  0.63692400  1
  Rb  Rb5  1  0.67370700  0.99588200  0.13692400  1
  Rb  Rb6  1  0.17370700  0.00411800  0.36307600  1
  Rb  Rb7  1  0.32629300  0.49588200  0.86307600  1
  Fe  Fe0  1  0.23780000  0.75000000  0.11746400  1
  Fe  Fe1  1  0.26220000  0.75000000  0.61746400  1
  Fe  Fe2  1  0.76220000  0.25000000  0.88253600  1
  Fe  Fe3  1  0.73780000  0.25000000  0.38253600  1
  Cl  Cl0  1  0.92402900  0.75000000  0.21122800  1
  Cl  Cl1  1  0.57597100  0.75000000  0.71122800  1
  Cl  Cl2  1  0.07597100  0.25000000  0.78877200  1
  Cl  Cl3  1  0.42402900  0.25000000  0.28877200  1
  Cl  Cl4  1  0.40005500  0.75000000  0.25903800  1
  Cl  Cl5  1  0.09994500  0.75000000  0.75903800  1
  Cl  Cl6  1  0.59994500  0.25000000  0.74096200  1
  Cl  Cl7  1  0.90005500  0.25000000  0.24096200  1
  Cl  Cl8  1  0.46407100  0.75000000  0.00056600  1
  Cl  Cl9  1  0.03592900  0.75000000  0.50056600  1
  Cl  Cl10  1  0.53592900  0.25000000  0.99943400  1
  Cl  Cl11  1  0.96407100  0.25000000  0.49943400  1
  Cl  Cl12  1  0.19327600  0.52530000  0.10428500  1
  Cl  Cl13  1  0.30672400  0.97470000  0.60428500  1
  Cl  Cl14  1  0.80672400  0.02530000  0.89571500  1
  Cl  Cl15  1  0.69327600  0.47470000  0.39571500  1
  Cl  Cl16  1  0.80672400  0.47470000  0.89571500  1
  Cl  Cl17  1  0.69327600  0.02530000  0.39571500  1
  Cl  Cl18  1  0.19327600  0.97470000  0.10428500  1
  Cl  Cl19  1  0.30672400  0.52530000  0.60428500  1
  O  O0  1  0.00896600  0.75000000  0.04470300  1
  O  O1  1  0.49103400  0.75000000  0.54470300  1
  O  O2  1  0.99103400  0.25000000  0.95529700  1
  O  O3  1  0.50896600  0.25000000  0.45529700  1
loop_
_geom_bond_atom_site_label_1
_geom_bond_atom_site_label_2
_geom_bond_distance
_geom_bond_site_symmetry_2
Fe0 O0 1.982719 1_555
Fe1 O1 1.982719 1_555
Fe2 O2 1.982719 1_555
Fe3 O3 1.982719 1_555
Cl0 O0 2.392686 1_655
Cl0 Fe0 2.677314 1_655
Cl0 Rb3 3.344477 1_555
Cl0 Rb5 3.344477 1_555
Cl0 Rb0 3.871201 1_655
Cl0 Rb6 3.871201 1_665
Cl1 O1 2.392686 1_555
Cl1 Fe1 2.677314 1_555
Cl1 Rb2 3.344477 1_555
Cl1 Rb4 3.344477 1_555
Cl1 Rb7 3.871201 1_555
Cl1 Rb1 3.871201 1_565
Cl2 O2 2.392686 1_455
Cl2 Fe2 2.677314 1_455
Cl2 Rb7 3.344477 1_555
Cl2 Rb1 3.344477 1_555
Cl2 Rb4 3.871201 1_455
Cl2 Rb2 3.871201 1_445
Cl3 O3 2.392686 1_555
Cl3 Fe3 2.677314 1_555
Cl3 Rb0 3.344477 1_555
Cl3 Rb6 3.344477 1_555
Cl3 Rb5 3.871201 1_545
Cl3 Rb3 3.871201 1_555
Cl4 Fe0 2.305017 1_555
Cl4 Rb0 3.466915 1_555
Cl4 Rb6 3.466915 1_565
Cl4 Rb3 3.697121 1_555
Cl4 Rb5 3.697121 1_555
Cl5 Fe1 2.305017 1_555
Cl5 Rb1 3.466915 1_565
Cl5 Rb7 3.466915 1_555
Cl5 Rb2 3.697121 1_455
Cl5 Rb4 3.697121 1_455
Cl6 Fe2 2.305017 1_555
Cl6 Rb2 3.466915 1_545
Cl6 Rb4 3.466915 1_555
Cl6 Rb7 3.697121 1_555
Cl6 Rb1 3.697121 1_555
Cl7 Fe3 2.305017 1_555
Cl7 Rb3 3.466915 1_555
Cl7 Rb5 3.466915 1_545
Cl7 Rb0 3.697121 1_655
Cl7 Rb6 3.697121 1_655
Cl8 Fe0 2.339488 1_555
Cl8 Rb1 3.431516 1_564
Cl8 Rb7 3.431516 1_554
Cl8 Rb3 3.557149 1_555
Cl8 Rb5 3.557149 1_555
Cl9 Fe1 2.339488 1_555
Cl9 Rb0 3.431516 1_555
Cl9 Rb6 3.431516 1_565
Cl9 Rb4 3.557149 1_455
Cl9 Rb2 3.557149 1_455
Cl10 Fe2 2.339488 1_555
Cl10 Rb3 3.431516 1_556
Cl10 Rb5 3.431516 1_546
Cl10 Rb7 3.557149 1_555
Cl10 Rb1 3.557149 1_555
Cl11 Fe3 2.339488 1_555
Cl11 Rb2 3.431516 1_545
Cl11 Rb4 3.431516 1_555
Cl11 Rb0 3.557149 1_655
Cl11 Rb6 3.557149 1_655
Cl12 Fe0 2.384740 1_555
Cl12 Rb7 3.499846 1_554
Cl12 Rb0 3.601794 1_555
Cl12 Rb3 3.619654 1_555
Cl12 Rb3 3.909027 1_455
Cl13 Fe1 2.384740 1_555
Cl13 Rb6 3.499846 1_565
Cl13 Rb1 3.601794 1_565
Cl13 Rb2 3.619654 1_455
Cl13 Rb2 3.909027 1_555
Cl14 Fe2 2.384740 1_555
Cl14 Rb5 3.499846 1_546
Cl14 Rb2 3.601794 1_545
Cl14 Rb1 3.619654 1_555
Cl14 Rb1 3.909027 1_655
Cl15 Fe3 2.384740 1_555
Cl15 Rb4 3.499846 1_555
Cl15 Rb3 3.601794 1_555
Cl15 Rb0 3.619654 1_655
Cl15 Rb0 3.909027 1_555
Cl16 Fe2 2.384740 1_555
Cl16 Rb3 3.499846 1_556
Cl16 Rb4 3.601794 1_555
Cl16 Rb7 3.619654 1_555
Cl16 Rb7 3.909027 1_655
Cl17 Fe3 2.384740 1_555
Cl17 Rb2 3.499846 1_545
Cl17 Rb5 3.601794 1_545
Cl17 Rb6 3.619654 1_655
Cl17 Rb6 3.909027 1_555
Cl18 Fe0 2.384740 1_555
Cl18 Rb1 3.499846 1_564
Cl18 Rb6 3.601794 1_565
Cl18 Rb5 3.619654 1_555
Cl18 Rb5 3.909027 1_455
Cl19 Fe1 2.384740 1_555
Cl19 Rb0 3.499846 1_555
Cl19 Rb7 3.601794 1_555
Cl19 Rb4 3.619654 1_455
Cl19 Rb4 3.909027 1_555
