# generated using pymatgen
data_Nd3Pa
_symmetry_space_group_name_H-M   'P 1'
_cell_length_a   6.19779636
_cell_length_b   6.19779636
_cell_length_c   6.19779636
_cell_angle_alpha   132.42415836
_cell_angle_beta   132.42415836
_cell_angle_gamma   69.55993424
_symmetry_Int_Tables_number   1
_chemical_formula_structural   Nd3Pa
_chemical_formula_sum   'Nd3 Pa1'
_cell_volume   127.25321187
_cell_formula_units_Z   1
loop_
 _symmetry_equiv_pos_site_id
 _symmetry_equiv_pos_as_xyz
  1  'x, y, z'
loop_
 _atom_site_type_symbol
 _atom_site_label
 _atom_site_symmetry_multiplicity
 _atom_site_fract_x
 _atom_site_fract_y
 _atom_site_fract_z
 _atom_site_occupancy
  Nd  Nd0  1  0.75000000  0.25000000  0.50000000  1
  Nd  Nd1  1  0.25000000  0.75000000  0.50000000  1
  Nd  Nd2  1  0.50000000  0.50000000  0.00000000  1
  Pa  Pa0  1  0.00000000  0.00000000  0.00000000  1
loop_
_geom_bond_atom_site_label_1
_geom_bond_atom_site_label_2
_geom_bond_distance
_geom_bond_site_symmetry_2
Nd0 Nd1 3.535387 1_645
Nd0 Nd1 3.535387 1_555
Nd0 Nd1 3.535387 1_544
Nd0 Nd1 3.535387 1_656
Nd0 Nd2 3.567620 1_556
Nd0 Pa0 3.567620 1_656
Nd0 Nd2 3.567620 1_545
Nd0 Pa0 3.567620 1_655
Nd0 Pa0 3.567620 1_666
Nd0 Pa0 3.567620 1_555
Nd0 Nd2 3.567620 1_656
Nd0 Nd2 3.567620 1_555
Nd1 Nd2 3.567620 1_556
Nd1 Pa0 3.567620 1_566
Nd1 Pa0 3.567620 1_565
Nd1 Pa0 3.567620 1_666
Nd1 Nd2 3.567620 1_455
Nd1 Nd2 3.567620 1_566
Nd1 Pa0 3.567620 1_555
Nd1 Nd2 3.567620 1_555
Nd2 Pa0 3.535387 1_554
Nd2 Pa0 3.535387 1_565
Nd2 Pa0 3.535387 1_655
Nd2 Pa0 3.535387 1_666
