# generated using pymatgen
data_CsOsN2
_symmetry_space_group_name_H-M   'P 1'
_cell_length_a   10.67279246
_cell_length_b   10.67279246
_cell_length_c   10.67279246
_cell_angle_alpha   99.13243832
_cell_angle_beta   99.13243832
_cell_angle_gamma   133.04447499
_symmetry_Int_Tables_number   1
_chemical_formula_structural   CsOsN2
_chemical_formula_sum   'Cs10 Os10 N20'
_cell_volume   814.92583432
_cell_formula_units_Z   10
loop_
 _symmetry_equiv_pos_site_id
 _symmetry_equiv_pos_as_xyz
  1  'x, y, z'
loop_
 _atom_site_type_symbol
 _atom_site_label
 _atom_site_symmetry_multiplicity
 _atom_site_fract_x
 _atom_site_fract_y
 _atom_site_fract_z
 _atom_site_occupancy
  Cs  Cs0  1  0.84996800  0.54891900  0.90163100  1
  Cs  Cs1  1  0.64728800  0.94833700  0.09836900  1
  Cs  Cs2  1  0.79891900  0.39728800  0.19895100  1
  Cs  Cs3  1  0.19833700  0.59996800  0.80104900  1
  Cs  Cs4  1  0.60271200  0.80166300  0.40163100  1
  Cs  Cs5  1  0.40003200  0.20108100  0.59836900  1
  Cs  Cs6  1  0.05166300  0.15003200  0.69895100  1
  Cs  Cs7  1  0.45108100  0.35271200  0.30104900  1
  Cs  Cs8  1  0.00000000  0.00000000  0.00000000  1
  Cs  Cs9  1  0.25000000  0.75000000  0.50000000  1
  Os  Os0  1  0.75000000  0.25000000  0.50000000  1
  Os  Os1  1  0.50000000  0.50000000  0.00000000  1
  Os  Os2  1  0.70149500  0.10078600  0.80042100  1
  Os  Os3  1  0.30036500  0.90107400  0.19957900  1
  Os  Os4  1  0.35078600  0.05036500  0.89929100  1
  Os  Os5  1  0.15107400  0.45149500  0.10070900  1
  Os  Os6  1  0.89921400  0.69963500  0.60070900  1
  Os  Os7  1  0.09892600  0.29850500  0.39929100  1
  Os  Os8  1  0.94963500  0.84892600  0.30042100  1
  Os  Os9  1  0.54850500  0.64921400  0.69957900  1
  N  N0  1  0.72882400  0.17609700  0.65090000  1
  N  N1  1  0.52519700  0.07792400  0.34910000  1
  N  N2  1  0.42609700  0.27519700  0.94727400  1
  N  N3  1  0.32792400  0.47882400  0.05272600  1
  N  N4  1  0.72480300  0.67207600  0.15090000  1
  N  N5  1  0.52117600  0.57390300  0.84910000  1
  N  N6  1  0.92207600  0.27117600  0.44727400  1
  N  N7  1  0.82390300  0.47480300  0.55272600  1
  N  N8  1  0.92487500  0.28026100  0.95236100  1
  N  N9  1  0.32790000  0.97251400  0.04763900  1
  N  N10  1  0.53026100  0.07790000  0.85538600  1
  N  N11  1  0.22251400  0.67487500  0.14461400  1
  N  N12  1  0.92210000  0.77748600  0.45236100  1
  N  N13  1  0.32512500  0.46973900  0.54763900  1
  N  N14  1  0.02748600  0.07512500  0.35538600  1
  N  N15  1  0.71973900  0.67210000  0.64461400  1
  N  N16  1  0.12500000  0.87500000  0.75000000  1
  N  N17  1  0.12500000  0.37500000  0.25000000  1
  N  N18  1  0.12500000  0.87500000  0.25000000  1
  N  N19  1  0.62500000  0.87500000  0.75000000  1
loop_
_geom_bond_atom_site_label_1
_geom_bond_atom_site_label_2
_geom_bond_distance
_geom_bond_site_symmetry_2
Cs0 N2 3.513836 1_555
Cs0 N10 3.524121 1_555
Cs0 N8 3.555084 1_555
Cs0 N9 3.556071 1_656
Cs0 N11 3.558831 1_656
Cs0 N16 3.563306 1_655
Cs0 N4 3.606255 1_556
Cs0 N7 3.606308 1_555
Cs0 N18 3.610340 1_656
Cs0 N0 3.628227 1_555
Cs0 N5 3.660562 1_555
Cs0 N15 3.689684 1_555
Cs1 N3 3.513828 1_555
Cs1 N11 3.524121 1_555
Cs1 N9 3.555084 1_555
Cs1 N8 3.556071 1_564
Cs1 N10 3.558831 1_564
Cs1 N17 3.563306 1_665
Cs1 N5 3.606255 1_554
Cs1 N6 3.606305 1_565
Cs1 N19 3.610340 1_554
Cs1 N1 3.628227 1_565
Cs1 N4 3.660562 1_555
Cs1 N14 3.689684 1_665
Cs2 N1 3.513831 1_555
Cs2 N9 3.524121 1_545
Cs2 N10 3.555084 1_554
Cs2 N11 3.556071 1_655
Cs2 N8 3.558831 1_554
Cs2 N18 3.563306 1_655
Cs2 N6 3.606263 1_555
Cs2 N4 3.606297 1_555
Cs2 N17 3.610340 1_655
Cs2 N2 3.628222 1_554
Cs2 N7 3.660552 1_555
Cs2 N12 3.689684 1_555
Cs3 N0 3.513831 1_455
Cs3 N8 3.524121 1_455
Cs3 N11 3.555084 1_556
Cs3 N10 3.556071 1_565
Cs3 N9 3.558831 1_556
Cs3 N19 3.563306 1_555
Cs3 N7 3.606261 1_455
Cs3 N5 3.606297 1_555
Cs3 N16 3.610340 1_555
Cs3 N3 3.628219 1_556
Cs3 N6 3.660554 1_455
Cs3 N13 3.689684 1_555
Cs4 N6 3.513828 1_565
Cs4 N14 3.524121 1_665
Cs4 N12 3.555084 1_555
Cs4 N13 3.556071 1_555
Cs4 N15 3.558831 1_555
Cs4 N17 3.563306 1_555
Cs4 N0 3.606255 1_565
Cs4 N3 3.606305 1_555
Cs4 N19 3.610340 1_555
Cs4 N4 3.628227 1_555
Cs4 N1 3.660562 1_565
Cs4 N11 3.689684 1_555
Cs5 N7 3.513836 1_555
Cs5 N15 3.524121 1_555
Cs5 N13 3.555084 1_555
Cs5 N12 3.556071 1_445
Cs5 N14 3.558831 1_555
Cs5 N16 3.563306 1_545
Cs5 N1 3.606255 1_555
Cs5 N2 3.606308 1_555
Cs5 N18 3.610340 1_545
Cs5 N5 3.628227 1_555
Cs5 N0 3.660562 1_555
Cs5 N10 3.689684 1_555
Cs6 N5 3.513831 1_555
Cs6 N13 3.524121 1_555
Cs6 N14 3.555084 1_555
Cs6 N15 3.556071 1_445
Cs6 N12 3.558831 1_445
Cs6 N19 3.563306 1_445
Cs6 N2 3.606261 1_555
Cs6 N0 3.606297 1_455
Cs6 N16 3.610340 1_545
Cs6 N6 3.628219 1_455
Cs6 N3 3.660554 1_556
Cs6 N8 3.689684 1_455
Cs7 N4 3.513831 1_555
Cs7 N12 3.524121 1_555
Cs7 N15 3.555084 1_555
Cs7 N14 3.556071 1_555
Cs7 N13 3.558831 1_555
Cs7 N18 3.563306 1_545
Cs7 N3 3.606263 1_555
Cs7 N1 3.606297 1_555
Cs7 N17 3.610340 1_555
Cs7 N7 3.628222 1_555
Cs7 N2 3.660552 1_554
Cs7 N9 3.689684 1_545
Cs8 N2 3.567547 1_554
Cs8 N4 3.567552 1_445
Cs8 N5 3.567552 1_444
Cs8 N3 3.567555 1_555
Cs8 N16 3.620582 1_544
Cs8 N17 3.620582 1_555
Cs8 N18 3.620582 1_545
Cs8 N19 3.620582 1_444
Cs8 N14 3.670943 1_555
Cs8 N15 3.670943 1_444
Cs8 N9 3.670943 1_545
Cs8 N8 3.670943 1_454
Cs9 N7 3.567547 1_455
Cs9 N0 3.567552 1_565
Cs9 N1 3.567552 1_565
Cs9 N6 3.567555 1_455
Cs9 N17 3.620582 1_555
Cs9 N18 3.620582 1_555
Cs9 N16 3.620582 1_555
Cs9 N19 3.620582 1_555
Cs9 N12 3.670943 1_455
Cs9 N11 3.670943 1_555
Cs9 N10 3.670943 1_565
Cs9 N13 3.670943 1_555
N0 Os2 1.874195 1_555
N0 Os0 1.882133 1_555
N1 Os3 1.874195 1_545
N1 Os0 1.882133 1_555
N2 Os4 1.874195 1_555
N2 Os1 1.882133 1_556
N3 Os5 1.874200 1_555
N3 Os1 1.882128 1_555
N4 Os8 1.874195 1_555
N4 Os1 1.882133 1_555
N5 Os9 1.874195 1_555
N5 Os1 1.882133 1_556
N6 Os7 1.874200 1_655
N6 Os0 1.882128 1_555
N7 Os6 1.874195 1_555
N7 Os0 1.882133 1_555
N8 Os5 1.876203 1_656
N8 Os2 1.880227 1_555
N9 Os4 1.876203 1_564
N9 Os3 1.880227 1_555
N10 Os2 1.876203 1_555
N10 Os4 1.880227 1_555
N11 Os3 1.876203 1_555
N11 Os5 1.880227 1_555
N12 Os6 1.876203 1_555
N12 Os8 1.880227 1_555
N13 Os7 1.876203 1_555
N13 Os9 1.880227 1_555
N14 Os8 1.876203 1_445
N14 Os7 1.880227 1_555
N15 Os9 1.876203 1_555
N15 Os6 1.880227 1_555
N16 Os4 1.877838 1_565
N16 Os6 1.877838 1_455
N17 Os7 1.877838 1_555
N17 Os5 1.877838 1_555
N18 Os8 1.877838 1_455
N18 Os3 1.877838 1_555
N19 Os2 1.877838 1_565
N19 Os9 1.877838 1_555
