# generated using pymatgen
data_Mg30AlCuO32
_symmetry_space_group_name_H-M   'P 1'
_cell_length_a   8.49652700
_cell_length_b   8.49652700
_cell_length_c   8.53369100
_cell_angle_alpha   90.00000000
_cell_angle_beta   90.00000000
_cell_angle_gamma   90.00000000
_symmetry_Int_Tables_number   1
_chemical_formula_structural   Mg30AlCuO32
_chemical_formula_sum   'Mg30 Al1 Cu1 O32'
_cell_volume   616.05544003
_cell_formula_units_Z   1
loop_
 _symmetry_equiv_pos_site_id
 _symmetry_equiv_pos_as_xyz
  1  'x, y, z'
loop_
 _atom_site_type_symbol
 _atom_site_label
 _atom_site_symmetry_multiplicity
 _atom_site_fract_x
 _atom_site_fract_y
 _atom_site_fract_z
 _atom_site_occupancy
  Mg  Mg0  1  0.00000000  0.50000000  0.00000000  1
  Mg  Mg1  1  0.00000000  0.50000000  0.50000000  1
  Mg  Mg2  1  0.50000000  0.00000000  0.00000000  1
  Mg  Mg3  1  0.50000000  0.00000000  0.50000000  1
  Mg  Mg4  1  0.50000000  0.50000000  0.00000000  1
  Mg  Mg5  1  0.50000000  0.50000000  0.50000000  1
  Mg  Mg6  1  0.00000000  0.24807700  0.25318900  1
  Mg  Mg7  1  0.00000000  0.24807700  0.74681100  1
  Mg  Mg8  1  0.00000000  0.75192300  0.25318900  1
  Mg  Mg9  1  0.00000000  0.75192300  0.74681100  1
  Mg  Mg10  1  0.50000000  0.24969500  0.25111600  1
  Mg  Mg11  1  0.50000000  0.24969500  0.74888400  1
  Mg  Mg12  1  0.50000000  0.75030500  0.25111600  1
  Mg  Mg13  1  0.50000000  0.75030500  0.74888400  1
  Mg  Mg14  1  0.24807700  0.00000000  0.25318900  1
  Mg  Mg15  1  0.24807700  0.00000000  0.74681100  1
  Mg  Mg16  1  0.24969500  0.50000000  0.25111600  1
  Mg  Mg17  1  0.24969500  0.50000000  0.74888400  1
  Mg  Mg18  1  0.75192300  0.00000000  0.25318900  1
  Mg  Mg19  1  0.75192300  0.00000000  0.74681100  1
  Mg  Mg20  1  0.75030500  0.50000000  0.25111600  1
  Mg  Mg21  1  0.75030500  0.50000000  0.74888400  1
  Mg  Mg22  1  0.25003300  0.25003300  0.00000000  1
  Mg  Mg23  1  0.24816500  0.24816500  0.50000000  1
  Mg  Mg24  1  0.25003300  0.74996700  0.00000000  1
  Mg  Mg25  1  0.24816500  0.75183500  0.50000000  1
  Mg  Mg26  1  0.74996700  0.25003300  0.00000000  1
  Mg  Mg27  1  0.75183500  0.24816500  0.50000000  1
  Mg  Mg28  1  0.74996700  0.74996700  0.00000000  1
  Mg  Mg29  1  0.75183500  0.75183500  0.50000000  1
  Al  Al0  1  0.00000000  0.00000000  0.00000000  1
  Cu  Cu0  1  0.00000000  0.00000000  0.50000000  1
  O  O0  1  0.23890600  0.00000000  0.00000000  1
  O  O1  1  0.25959800  0.00000000  0.50000000  1
  O  O2  1  0.24845500  0.50000000  0.00000000  1
  O  O3  1  0.25110700  0.50000000  0.50000000  1
  O  O4  1  0.76109400  0.00000000  0.00000000  1
  O  O5  1  0.74040200  0.00000000  0.50000000  1
  O  O6  1  0.75154500  0.50000000  0.00000000  1
  O  O7  1  0.74889300  0.50000000  0.50000000  1
  O  O8  1  0.24942300  0.24942300  0.24964500  1
  O  O9  1  0.24942300  0.24942300  0.75035500  1
  O  O10  1  0.24942300  0.75057700  0.24964500  1
  O  O11  1  0.24942300  0.75057700  0.75035500  1
  O  O12  1  0.75057700  0.24942300  0.24964500  1
  O  O13  1  0.75057700  0.24942300  0.75035500  1
  O  O14  1  0.75057700  0.75057700  0.24964500  1
  O  O15  1  0.75057700  0.75057700  0.75035500  1
  O  O16  1  0.00000000  0.00000000  0.21878300  1
  O  O17  1  0.00000000  0.00000000  0.78121700  1
  O  O18  1  0.00000000  0.50000000  0.24591500  1
  O  O19  1  0.00000000  0.50000000  0.75408500  1
  O  O20  1  0.50000000  0.00000000  0.24591500  1
  O  O21  1  0.50000000  0.00000000  0.75408500  1
  O  O22  1  0.50000000  0.50000000  0.24857000  1
  O  O23  1  0.50000000  0.50000000  0.75143000  1
  O  O24  1  0.00000000  0.23890600  0.00000000  1
  O  O25  1  0.00000000  0.25959800  0.50000000  1
  O  O26  1  0.00000000  0.76109400  0.00000000  1
  O  O27  1  0.00000000  0.74040200  0.50000000  1
  O  O28  1  0.50000000  0.24845500  0.00000000  1
  O  O29  1  0.50000000  0.25110700  0.50000000  1
  O  O30  1  0.50000000  0.75154500  0.00000000  1
  O  O31  1  0.50000000  0.74889300  0.50000000  1
loop_
_geom_bond_atom_site_label_1
_geom_bond_atom_site_label_2
_geom_bond_distance
_geom_bond_site_symmetry_2
Mg0 O19 2.098563 1_554
Mg0 O18 2.098563 1_555
Mg0 O6 2.111005 1_455
Mg0 O2 2.111005 1_555
Mg0 O24 2.218392 1_555
Mg0 O26 2.218392 1_555
Mg1 O27 2.042582 1_555
Mg1 O25 2.042582 1_555
Mg1 O7 2.133537 1_455
Mg1 O3 2.133537 1_555
Mg1 O19 2.168283 1_555
Mg1 O18 2.168283 1_555
Mg2 O20 2.098563 1_555
Mg2 O21 2.098563 1_554
Mg2 O30 2.111005 1_545
Mg2 O28 2.111005 1_555
Mg2 O0 2.218392 1_555
Mg2 O4 2.218392 1_555
Mg3 O1 2.042582 1_555
Mg3 O5 2.042582 1_555
Mg3 O31 2.133537 1_545
Mg3 O29 2.133537 1_555
Mg3 O21 2.168283 1_555
Mg3 O20 2.168283 1_555
Mg4 O23 2.121220 1_554
Mg4 O22 2.121220 1_555
Mg4 O28 2.137259 1_555
Mg4 O6 2.137259 1_555
Mg4 O30 2.137259 1_555
Mg4 O2 2.137259 1_555
Mg5 O3 2.114726 1_555
Mg5 O29 2.114726 1_555
Mg5 O31 2.114726 1_555
Mg5 O7 2.114726 1_555
Mg5 O22 2.145626 1_555
Mg5 O23 2.145626 1_555
Mg6 O25 2.108482 1_555
Mg6 O12 2.119476 1_455
Mg6 O8 2.119476 1_555
Mg6 O16 2.128144 1_555
Mg6 O18 2.141370 1_555
Mg6 O24 2.162041 1_555
Mg7 O25 2.108482 1_555
Mg7 O13 2.119476 1_455
Mg7 O9 2.119476 1_555
Mg7 O17 2.128144 1_555
Mg7 O19 2.141370 1_555
Mg7 O24 2.162041 1_556
Mg8 O27 2.108482 1_555
Mg8 O14 2.119476 1_455
Mg8 O10 2.119476 1_555
Mg8 O16 2.128144 1_565
Mg8 O18 2.141370 1_555
Mg8 O26 2.162041 1_555
Mg9 O27 2.108482 1_555
Mg9 O15 2.119476 1_455
Mg9 O11 2.119476 1_555
Mg9 O17 2.128144 1_565
Mg9 O19 2.141370 1_555
Mg9 O26 2.162041 1_556
Mg10 O20 2.122005 1_555
Mg10 O29 2.123933 1_555
Mg10 O22 2.126834 1_555
Mg10 O8 2.129073 1_555
Mg10 O12 2.129073 1_555
Mg10 O28 2.142972 1_555
Mg11 O21 2.122005 1_555
Mg11 O29 2.123933 1_555
Mg11 O23 2.126834 1_555
Mg11 O9 2.129073 1_555
Mg11 O13 2.129073 1_555
Mg11 O28 2.142972 1_556
Mg12 O20 2.122005 1_565
Mg12 O31 2.123933 1_555
Mg12 O22 2.126834 1_555
Mg12 O10 2.129073 1_555
Mg12 O14 2.129073 1_555
Mg12 O30 2.142972 1_555
Mg13 O21 2.122005 1_565
Mg13 O31 2.123933 1_555
Mg13 O23 2.126834 1_555
Mg13 O11 2.129073 1_555
Mg13 O15 2.129073 1_555
Mg13 O30 2.142972 1_556
Mg14 O1 2.108482 1_555
Mg14 O10 2.119476 1_545
Mg14 O8 2.119476 1_555
Mg14 O16 2.128144 1_555
Mg14 O20 2.141370 1_555
Mg14 O0 2.162041 1_555
Mg15 O1 2.108482 1_555
Mg15 O11 2.119476 1_545
Mg15 O9 2.119476 1_555
Mg15 O17 2.128144 1_555
Mg15 O21 2.141370 1_555
Mg15 O0 2.162041 1_556
Mg16 O18 2.122005 1_555
Mg16 O3 2.123933 1_555
Mg16 O22 2.126834 1_555
Mg16 O8 2.129073 1_555
Mg16 O10 2.129073 1_555
Mg16 O2 2.142972 1_555
Mg17 O19 2.122005 1_555
Mg17 O3 2.123933 1_555
Mg17 O23 2.126834 1_555
Mg17 O9 2.129073 1_555
Mg17 O11 2.129073 1_555
Mg17 O2 2.142972 1_556
Mg18 O5 2.108482 1_555
Mg18 O14 2.119476 1_545
Mg18 O12 2.119476 1_555
Mg18 O16 2.128144 1_655
Mg18 O20 2.141370 1_555
Mg18 O4 2.162041 1_555
Mg19 O5 2.108482 1_555
Mg19 O15 2.119476 1_545
Mg19 O13 2.119476 1_555
Mg19 O17 2.128144 1_655
Mg19 O21 2.141370 1_555
Mg19 O4 2.162041 1_556
Mg20 O18 2.122005 1_655
Mg20 O7 2.123933 1_555
Mg20 O22 2.126834 1_555
Mg20 O12 2.129073 1_555
Mg20 O14 2.129073 1_555
Mg20 O6 2.142972 1_555
Mg21 O19 2.122005 1_655
Mg21 O7 2.123933 1_555
Mg21 O23 2.126834 1_555
Mg21 O13 2.129073 1_555
Mg21 O15 2.129073 1_555
Mg21 O6 2.142972 1_556
Mg22 O2 2.123894 1_555
Mg22 O28 2.123894 1_555
Mg22 O0 2.126515 1_555
Mg22 O24 2.126515 1_555
Mg22 O8 2.130406 1_555
Mg22 O9 2.130406 1_554
Mg23 O1 2.110777 1_555
Mg23 O25 2.110777 1_555
Mg23 O8 2.136506 1_555
Mg23 O9 2.136506 1_555
Mg23 O3 2.139869 1_555
Mg23 O29 2.139869 1_555
Mg24 O30 2.123894 1_555
Mg24 O2 2.123894 1_555
Mg24 O0 2.126515 1_565
Mg24 O26 2.126515 1_555
Mg24 O11 2.130406 1_554
Mg24 O10 2.130406 1_555
Mg25 O1 2.110777 1_565
Mg25 O27 2.110777 1_555
Mg25 O10 2.136506 1_555
Mg25 O11 2.136506 1_555
Mg25 O31 2.139869 1_555
Mg25 O3 2.139869 1_555
Mg26 O6 2.123894 1_555
Mg26 O28 2.123894 1_555
Mg26 O24 2.126515 1_655
Mg26 O4 2.126515 1_555
Mg26 O13 2.130406 1_554
Mg26 O12 2.130406 1_555
Mg27 O25 2.110777 1_655
Mg27 O5 2.110777 1_555
Mg27 O12 2.136506 1_555
Mg27 O13 2.136506 1_555
Mg27 O7 2.139869 1_555
Mg27 O29 2.139869 1_555
Mg28 O30 2.123894 1_555
Mg28 O6 2.123894 1_555
Mg28 O26 2.126515 1_655
Mg28 O4 2.126515 1_565
Mg28 O14 2.130406 1_555
Mg28 O15 2.130406 1_554
Mg29 O27 2.110777 1_655
Mg29 O5 2.110777 1_565
Mg29 O14 2.136506 1_555
Mg29 O15 2.136506 1_555
Mg29 O31 2.139869 1_555
Mg29 O7 2.139869 1_555
Al0 O17 1.867027 1_554
Al0 O16 1.867027 1_555
Al0 O26 2.029871 1_545
Al0 O4 2.029871 1_455
Al0 O0 2.029871 1_555
Al0 O24 2.029871 1_555
Cu0 O5 2.205681 1_455
Cu0 O25 2.205681 1_555
Cu0 O27 2.205681 1_545
Cu0 O1 2.205681 1_555
Cu0 O16 2.399819 1_555
Cu0 O17 2.399819 1_555
