# generated using pymatgen
data_Nd2InCuS5
_symmetry_space_group_name_H-M   'P 1'
_cell_length_a   3.90232700
_cell_length_b   11.55317300
_cell_length_c   16.74383800
_cell_angle_alpha   90.00000000
_cell_angle_beta   90.00000000
_cell_angle_gamma   90.00000000
_symmetry_Int_Tables_number   1
_chemical_formula_structural   Nd2InCuS5
_chemical_formula_sum   'Nd8 In4 Cu4 S20'
_cell_volume   754.88352793
_cell_formula_units_Z   4
loop_
 _symmetry_equiv_pos_site_id
 _symmetry_equiv_pos_as_xyz
  1  'x, y, z'
loop_
 _atom_site_type_symbol
 _atom_site_label
 _atom_site_symmetry_multiplicity
 _atom_site_fract_x
 _atom_site_fract_y
 _atom_site_fract_z
 _atom_site_occupancy
  Nd  Nd0  1  0.25000000  0.13648300  0.40558000  1
  Nd  Nd1  1  0.25000000  0.63648300  0.09442000  1
  Nd  Nd2  1  0.75000000  0.86351700  0.59442000  1
  Nd  Nd3  1  0.75000000  0.36351700  0.90558000  1
  Nd  Nd4  1  0.25000000  0.47731800  0.31996700  1
  Nd  Nd5  1  0.25000000  0.97731800  0.18003300  1
  Nd  Nd6  1  0.75000000  0.52268200  0.68003300  1
  Nd  Nd7  1  0.75000000  0.02268200  0.81996700  1
  In  In0  1  0.25000000  0.19354900  0.63920800  1
  In  In1  1  0.25000000  0.69354900  0.86079200  1
  In  In2  1  0.75000000  0.80645100  0.36079200  1
  In  In3  1  0.75000000  0.30645100  0.13920800  1
  Cu  Cu0  1  0.25000000  0.58317500  0.49575600  1
  Cu  Cu1  1  0.25000000  0.08317500  0.00424400  1
  Cu  Cu2  1  0.75000000  0.41682500  0.50424400  1
  Cu  Cu3  1  0.75000000  0.91682500  0.99575600  1
  S  S0  1  0.25000000  0.89063400  0.46340900  1
  S  S1  1  0.25000000  0.39063400  0.03659100  1
  S  S2  1  0.75000000  0.10936600  0.53659100  1
  S  S3  1  0.75000000  0.60936600  0.96340900  1
  S  S4  1  0.25000000  0.48518800  0.80586900  1
  S  S5  1  0.25000000  0.98518800  0.69413100  1
  S  S6  1  0.75000000  0.51481200  0.19413100  1
  S  S7  1  0.75000000  0.01481200  0.30586900  1
  S  S8  1  0.25000000  0.74050600  0.26991100  1
  S  S9  1  0.25000000  0.24050600  0.23008900  1
  S  S10  1  0.75000000  0.25949400  0.73008900  1
  S  S11  1  0.75000000  0.75949400  0.76991100  1
  S  S12  1  0.25000000  0.40177000  0.57861900  1
  S  S13  1  0.25000000  0.90177000  0.92138100  1
  S  S14  1  0.75000000  0.59823000  0.42138100  1
  S  S15  1  0.75000000  0.09823000  0.07861900  1
  S  S16  1  0.25000000  0.68186900  0.61290400  1
  S  S17  1  0.25000000  0.18186900  0.88709600  1
  S  S18  1  0.75000000  0.31813100  0.38709600  1
  S  S19  1  0.75000000  0.81813100  0.11290400  1
loop_
_geom_bond_atom_site_label_1
_geom_bond_atom_site_label_2
_geom_bond_distance
_geom_bond_site_symmetry_2
Nd0 S18 2.882185 1_455
Nd0 S18 2.882185 1_555
Nd0 S7 2.927520 1_455
Nd0 S7 2.927520 1_555
Nd0 S2 2.952488 1_455
Nd0 S2 2.952488 1_555
Nd0 S0 3.000846 1_545
Nd0 S9 3.174660 1_555
Nd1 S19 2.882185 1_555
Nd1 S19 2.882185 1_455
Nd1 S6 2.927520 1_555
Nd1 S6 2.927520 1_455
Nd1 S3 2.952488 1_554
Nd1 S3 2.952488 1_454
Nd1 S1 3.000846 1_555
Nd1 S8 3.174660 1_555
Nd2 S16 2.882185 1_655
Nd2 S16 2.882185 1_555
Nd2 S5 2.927520 1_555
Nd2 S5 2.927520 1_655
Nd2 S0 2.952488 1_655
Nd2 S0 2.952488 1_555
Nd2 S2 3.000846 1_565
Nd2 S11 3.174660 1_555
Nd3 S17 2.882185 1_555
Nd3 S17 2.882185 1_655
Nd3 S4 2.927520 1_655
Nd3 S4 2.927520 1_555
Nd3 S1 2.952488 1_656
Nd3 S1 2.952488 1_556
Nd3 S3 3.000846 1_555
Nd3 S10 3.174660 1_555
Nd4 S6 2.904141 1_455
Nd4 S6 2.904141 1_555
Nd4 S18 2.907362 1_455
Nd4 S18 2.907362 1_555
Nd4 S14 2.939698 1_455
Nd4 S14 2.939698 1_555
Nd4 S9 3.122506 1_555
Nd4 S8 3.154053 1_555
Nd5 S7 2.904141 1_565
Nd5 S7 2.904141 1_465
Nd5 S19 2.907362 1_555
Nd5 S19 2.907362 1_455
Nd5 S15 2.939698 1_465
Nd5 S15 2.939698 1_565
Nd5 S8 3.122506 1_555
Nd5 S9 3.154053 1_565
Nd6 S4 2.904141 1_655
Nd6 S4 2.904141 1_555
Nd6 S16 2.907362 1_555
Nd6 S16 2.907362 1_655
Nd6 S12 2.939698 1_655
Nd6 S12 2.939698 1_555
Nd6 S11 3.122506 1_555
Nd6 S10 3.154053 1_555
Nd7 S5 2.904141 1_545
Nd7 S5 2.904141 1_645
Nd7 S17 2.907362 1_555
Nd7 S17 2.907362 1_655
Nd7 S13 2.939698 1_545
Nd7 S13 2.939698 1_645
Nd7 S10 3.122506 1_555
Nd7 S11 3.154053 1_545
In0 S5 2.576910 1_545
In0 S10 2.589025 1_455
In0 S10 2.589025 1_555
In0 S12 2.610780 1_555
In0 S2 2.775819 1_555
In0 S2 2.775819 1_455
In1 S4 2.576910 1_555
In1 S11 2.589025 1_555
In1 S11 2.589025 1_455
In1 S13 2.610780 1_555
In1 S3 2.775819 1_455
In1 S3 2.775819 1_555
In2 S7 2.576910 1_565
In2 S8 2.589025 1_655
In2 S8 2.589025 1_555
In2 S14 2.610780 1_555
In2 S0 2.775819 1_555
In2 S0 2.775819 1_655
In3 S6 2.576910 1_555
In3 S9 2.589025 1_555
In3 S9 2.589025 1_655
In3 S15 2.610780 1_555
In3 S1 2.775819 1_555
In3 S1 2.775819 1_655
Cu0 S16 2.268839 1_555
Cu0 S14 2.321233 1_455
Cu0 S14 2.321233 1_555
Cu0 S12 2.513443 1_555
Cu1 S17 2.268839 1_554
Cu1 S15 2.321233 1_455
Cu1 S15 2.321233 1_555
Cu1 S13 2.513443 1_544
Cu2 S18 2.268839 1_555
Cu2 S12 2.321233 1_655
Cu2 S12 2.321233 1_555
Cu2 S14 2.513443 1_555
Cu3 S19 2.268839 1_556
Cu3 S13 2.321233 1_555
Cu3 S13 2.321233 1_655
Cu3 S15 2.513443 1_566
