# generated using pymatgen
data_Ca5La10Mn14(NiO24)2
_symmetry_space_group_name_H-M   'P 1'
_cell_length_a   7.75200600
_cell_length_b   10.92968849
_cell_length_c   10.97420909
_cell_angle_alpha   89.89895370
_cell_angle_beta   89.96517627
_cell_angle_gamma   89.98278981
_symmetry_Int_Tables_number   1
_chemical_formula_structural   Ca5La10Mn14(NiO24)2
_chemical_formula_sum   'Ca5 La10 Mn14 Ni2 O48'
_cell_volume   929.81027245
_cell_formula_units_Z   1
loop_
 _symmetry_equiv_pos_site_id
 _symmetry_equiv_pos_as_xyz
  1  'x, y, z'
loop_
 _atom_site_type_symbol
 _atom_site_label
 _atom_site_symmetry_multiplicity
 _atom_site_fract_x
 _atom_site_fract_y
 _atom_site_fract_z
 _atom_site_occupancy
  Ca  Ca0  1  0.75176300  0.75718900  0.26813000  1
  Ca  Ca1  1  0.25024000  0.00489800  0.48446200  1
  Ca  Ca2  1  0.25015400  0.50127400  0.48259900  1
  Ca  Ca3  1  0.24842900  0.24414600  0.72524300  1
  Ca  Ca4  1  0.24862800  0.74305400  0.72831900  1
  La  La0  1  0.75351900  0.49227700  0.02102400  1
  La  La1  1  0.75382000  0.00160400  0.02125500  1
  La  La2  1  0.24609600  0.24822400  0.24001200  1
  La  La3  1  0.24746300  0.74782200  0.23965300  1
  La  La4  1  0.75009200  0.49484400  0.50455500  1
  La  La5  1  0.75006600  0.00246800  0.50484000  1
  La  La6  1  0.75188000  0.25282400  0.75983600  1
  La  La7  1  0.75239100  0.75301400  0.76374100  1
  La  La8  1  0.24609800  0.00187100  0.98483100  1
  La  La9  1  0.24545800  0.49868600  0.98881200  1
  Mn  Mn0  1  0.50340100  0.00198200  0.25303700  1
  Mn  Mn1  1  0.50371500  0.49705200  0.25285300  1
  Mn  Mn2  1  0.49833500  0.24997000  0.49626900  1
  Mn  Mn3  1  0.49612200  0.74958600  0.50016900  1
  Mn  Mn4  1  0.49432900  0.00024700  0.74716200  1
  Mn  Mn5  1  0.49390500  0.50043400  0.74729800  1
  Mn  Mn6  1  0.99808800  0.49640600  0.25124900  1
  Mn  Mn7  1  0.99723100  0.00040400  0.25197100  1
  Mn  Mn8  1  0.00145800  0.24983200  0.49646400  1
  Mn  Mn9  1  0.00369600  0.74937500  0.50036500  1
  Mn  Mn10  1  0.00425300  0.00115700  0.74783500  1
  Mn  Mn11  1  0.00513500  0.50131100  0.74785100  1
  Mn  Mn12  1  0.50031200  0.24997400  0.00088100  1
  Mn  Mn13  1  0.50048700  0.74951900  0.00039800  1
  Ni  Ni0  1  0.99853900  0.24926400  0.00064200  1
  Ni  Ni1  1  0.00007600  0.74988800  0.99970200  1
  O  O0  1  0.25671000  0.27675400  0.01085500  1
  O  O1  1  0.25787800  0.78075000  0.01138000  1
  O  O2  1  0.03270700  0.10511300  0.11464200  1
  O  O3  1  0.03164000  0.60825700  0.11642000  1
  O  O4  1  0.46752700  0.10812000  0.10982000  1
  O  O5  1  0.46728800  0.61112300  0.11104200  1
  O  O6  1  0.52417400  0.36909100  0.13268200  1
  O  O7  1  0.53884500  0.86015900  0.13959500  1
  O  O8  1  0.98171000  0.37164400  0.13757300  1
  O  O9  1  0.96621600  0.86432400  0.14453900  1
  O  O10  1  0.75099400  0.02503000  0.25280800  1
  O  O11  1  0.75124200  0.53627800  0.25260600  1
  O  O12  1  0.25040200  0.47252200  0.25456400  1
  O  O13  1  0.25029200  0.96945700  0.25211600  1
  O  O14  1  0.04456200  0.13313200  0.36900200  1
  O  O15  1  0.03263400  0.64098000  0.36306400  1
  O  O16  1  0.45663400  0.13238500  0.36820500  1
  O  O17  1  0.46874900  0.64026600  0.36219600  1
  O  O18  1  0.51675200  0.39476700  0.39467400  1
  O  O19  1  0.53262300  0.88678500  0.38840000  1
  O  O20  1  0.98334000  0.39427000  0.39649500  1
  O  O21  1  0.96613900  0.88670900  0.39106400  1
  O  O22  1  0.75058300  0.22292500  0.51222800  1
  O  O23  1  0.75058700  0.71854000  0.50011800  1
  O  O24  1  0.24930000  0.28378000  0.50340900  1
  O  O25  1  0.24909300  0.78682900  0.50195100  1
  O  O26  1  0.46371000  0.10957200  0.61048100  1
  O  O27  1  0.46129400  0.61014200  0.60976700  1
  O  O28  1  0.03669000  0.10890900  0.60756300  1
  O  O29  1  0.03946800  0.60943800  0.60677500  1
  O  O30  1  0.53244700  0.36232500  0.63848600  1
  O  O31  1  0.53582700  0.86100200  0.63821500  1
  O  O32  1  0.96604900  0.36069100  0.63756500  1
  O  O33  1  0.96314100  0.85970600  0.63767200  1
  O  O34  1  0.74999400  0.02988200  0.74120200  1
  O  O35  1  0.75005500  0.53094900  0.74049100  1
  O  O36  1  0.24904900  0.46074400  0.75708100  1
  O  O37  1  0.24902700  0.96003200  0.75592500  1
  O  O38  1  0.03637500  0.13604600  0.85380700  1
  O  O39  1  0.03666400  0.63673600  0.85358300  1
  O  O40  1  0.45899700  0.13813300  0.85771900  1
  O  O41  1  0.45922500  0.64005600  0.85810100  1
  O  O42  1  0.53413500  0.39124200  0.88791300  1
  O  O43  1  0.53645200  0.89126000  0.89059600  1
  O  O44  1  0.96627500  0.39448500  0.88444700  1
  O  O45  1  0.96473000  0.89513300  0.88598900  1
  O  O46  1  0.74199900  0.22040300  0.98403900  1
  O  O47  1  0.74253500  0.71572500  0.98973700  1
loop_
_geom_bond_atom_site_label_1
_geom_bond_atom_site_label_2
_geom_bond_distance
_geom_bond_site_symmetry_2
Ca0 O11 2.420796 1_555
Ca0 O9 2.442796 1_555
Ca0 O7 2.444730 1_555
Ca0 O21 2.568393 1_555
Ca0 O19 2.576164 1_555
Ca0 O23 2.579968 1_555
Ca0 O15 2.726857 1_655
Ca0 O17 2.739771 1_555
Ca1 O25 2.390823 1_545
Ca1 O28 2.420622 1_555
Ca1 O26 2.443229 1_555
Ca1 O14 2.471210 1_555
Ca1 O16 2.474220 1_555
Ca1 O13 2.579744 1_545
Ca1 O19 2.751370 1_545
Ca1 O21 2.752946 1_445
Ca2 O24 2.387696 1_555
Ca2 O29 2.433911 1_555
Ca2 O27 2.460130 1_555
Ca2 O12 2.522707 1_555
Ca2 O20 2.558599 1_455
Ca2 O18 2.560735 1_555
Ca2 O15 2.624839 1_555
Ca2 O17 2.630007 1_555
Ca3 O36 2.393610 1_555
Ca3 O38 2.466016 1_555
Ca3 O24 2.471946 1_555
Ca3 O40 2.473144 1_555
Ca3 O26 2.556784 1_555
Ca3 O28 2.560776 1_555
Ca3 O32 2.708639 1_455
Ca3 O30 2.723455 1_555
Ca4 O37 2.391308 1_555
Ca4 O39 2.435718 1_555
Ca4 O41 2.440710 1_555
Ca4 O25 2.529036 1_555
Ca4 O27 2.554095 1_555
Ca4 O29 2.559640 1_555
Ca4 O33 2.740336 1_455
Ca4 O31 2.755159 1_555
La0 O47 2.467087 1_554
La0 O44 2.471966 1_554
La0 O42 2.501088 1_554
La0 O6 2.543245 1_555
La0 O8 2.549286 1_555
La0 O11 2.587413 1_555
La0 O3 2.712978 1_655
La0 O5 2.754389 1_555
La1 O46 2.427033 1_554
La1 O45 2.496575 1_544
La1 O43 2.521927 1_544
La1 O10 2.554507 1_555
La1 O9 2.605139 1_545
La1 O7 2.616403 1_545
La1 O2 2.648096 1_655
La1 O4 2.687990 1_555
La2 O14 2.453396 1_555
La2 O12 2.457222 1_555
La2 O16 2.498218 1_555
La2 O0 2.534819 1_555
La2 O2 2.662289 1_555
La2 O8 2.698105 1_455
La2 O4 2.708476 1_555
La2 O6 2.787924 1_555
La2 O24 2.917381 1_555
La2 O13 3.049661 1_545
La2 O20 3.106346 1_455
La2 O18 3.140736 1_555
La3 O13 2.426607 1_555
La3 O15 2.442157 1_555
La3 O17 2.475701 1_555
La3 O1 2.531450 1_555
La3 O3 2.639411 1_555
La3 O5 2.670434 1_555
La3 O9 2.731428 1_455
La3 O7 2.794511 1_555
La3 O25 2.910693 1_555
La3 O12 3.013181 1_555
La3 O21 3.134289 1_455
La3 O19 3.142168 1_555
La4 O20 2.425860 1_555
La4 O18 2.435355 1_555
La4 O23 2.445331 1_555
La4 O35 2.619797 1_555
La4 O32 2.660284 1_555
La4 O30 2.663766 1_555
La4 O11 2.801003 1_555
La4 O29 2.805164 1_655
La4 O27 2.816653 1_555
La4 O22 2.973036 1_555
La4 O17 3.117194 1_555
La4 O15 3.122282 1_655
La5 O22 2.411038 1_555
La5 O21 2.442773 1_545
La5 O19 2.466259 1_545
La5 O34 2.611659 1_555
La5 O33 2.698389 1_545
La5 O31 2.698490 1_545
La5 O28 2.751427 1_655
La5 O26 2.764440 1_555
La5 O10 2.776395 1_555
La6 O32 2.437153 1_555
La6 O34 2.445661 1_555
La6 O30 2.468867 1_555
La6 O46 2.486355 1_555
La6 O44 2.653551 1_555
La6 O42 2.667697 1_555
La6 O22 2.737478 1_555
La6 O38 2.748237 1_655
La6 O40 2.806080 1_555
La7 O33 2.436330 1_555
La7 O35 2.440997 1_555
La7 O31 2.470822 1_555
La7 O47 2.513801 1_555
La7 O45 2.633188 1_555
La7 O43 2.650721 1_555
La7 O39 2.727636 1_655
La7 O41 2.784902 1_555
La7 O23 2.918189 1_555
La7 O34 3.035791 1_565
La7 O29 3.222588 1_655
La7 O27 3.225197 1_555
La8 O1 2.435464 1_546
La8 O2 2.457802 1_556
La8 O4 2.487187 1_556
La8 O37 2.554224 1_545
La8 O38 2.618248 1_555
La8 O40 2.622797 1_555
La8 O45 2.702581 1_445
La8 O43 2.756299 1_545
La8 O13 2.954136 1_546
La8 O0 3.019581 1_556
La8 O9 3.166593 1_446
La8 O7 3.229081 1_546
La9 O0 2.438795 1_556
La9 O3 2.478824 1_556
La9 O5 2.505294 1_556
La9 O36 2.577508 1_555
La9 O39 2.663135 1_555
La9 O41 2.679918 1_555
La9 O44 2.702185 1_455
La9 O42 2.759165 1_555
La9 O12 2.930175 1_556
La9 O8 2.960258 1_456
La9 O6 3.026835 1_556
La9 O1 3.094771 1_556
Mn0 O10 1.935877 1_555
Mn0 O16 1.940537 1_555
Mn0 O19 1.958806 1_545
Mn0 O4 1.971596 1_555
Mn0 O13 1.994186 1_545
Mn0 O7 2.008544 1_545
Mn1 O18 1.917367 1_555
Mn1 O6 1.930406 1_555
Mn1 O11 1.966268 1_555
Mn1 O12 1.982055 1_555
Mn1 O17 1.992348 1_555
Mn1 O5 2.012359 1_555
Mn2 O16 1.933515 1_555
Mn2 O18 1.939520 1_555
Mn2 O24 1.967001 1_555
Mn2 O22 1.985355 1_555
Mn2 O26 1.997696 1_555
Mn2 O30 2.005299 1_555
Mn3 O17 1.942218 1_555
Mn3 O19 1.956151 1_555
Mn3 O25 1.957729 1_555
Mn3 O27 1.958497 1_555
Mn3 O31 1.969770 1_555
Mn3 O23 2.001486 1_555
Mn4 O26 1.930786 1_555
Mn4 O37 1.954121 1_545
Mn4 O40 1.955519 1_555
Mn4 O31 1.963368 1_545
Mn4 O43 1.999265 1_545
Mn4 O34 2.009313 1_555
Mn5 O27 1.942564 1_555
Mn5 O30 1.949208 1_555
Mn5 O36 1.950044 1_555
Mn5 O41 1.971173 1_555
Mn5 O42 1.974003 1_555
Mn5 O35 2.014908 1_555
Mn6 O8 1.854215 1_555
Mn6 O3 1.935156 1_655
Mn6 O20 1.947695 1_555
Mn6 O11 1.962473 1_555
Mn6 O12 1.973554 1_655
Mn6 O15 2.020349 1_655
Mn7 O2 1.910563 1_655
Mn7 O9 1.914848 1_545
Mn7 O10 1.927652 1_555
Mn7 O14 1.973837 1_655
Mn7 O21 1.981243 1_545
Mn7 O13 1.990578 1_645
Mn8 O14 1.923703 1_555
Mn8 O20 1.925989 1_455
Mn8 O24 1.958437 1_555
Mn8 O22 1.974426 1_455
Mn8 O28 1.981661 1_555
Mn8 O32 1.986735 1_455
Mn9 O15 1.931314 1_555
Mn9 O21 1.941755 1_455
Mn9 O29 1.942598 1_555
Mn9 O25 1.946081 1_555
Mn9 O33 1.956822 1_455
Mn9 O23 1.990940 1_455
Mn10 O38 1.895955 1_555
Mn10 O45 1.931014 1_445
Mn10 O37 1.951906 1_545
Mn10 O28 1.952737 1_555
Mn10 O33 1.990139 1_445
Mn10 O34 1.997122 1_455
Mn11 O39 1.898306 1_555
Mn11 O44 1.922126 1_455
Mn11 O36 1.944642 1_555
Mn11 O29 1.964083 1_555
Mn11 O32 1.981435 1_455
Mn11 O35 2.005296 1_455
Mn12 O46 1.910045 1_554
Mn12 O0 1.913962 1_555
Mn12 O6 1.956632 1_555
Mn12 O4 1.972559 1_555
Mn12 O42 1.995687 1_554
Mn12 O40 2.018106 1_554
Mn13 O1 1.915093 1_555
Mn13 O47 1.915803 1_554
Mn13 O5 1.954994 1_555
Mn13 O7 1.972690 1_555
Mn13 O43 1.980649 1_554
Mn13 O41 1.994916 1_554
Ni0 O8 2.017674 1_555
Ni0 O46 2.022041 1_554
Ni0 O0 2.027058 1_655
Ni0 O2 2.027508 1_655
Ni0 O44 2.049594 1_554
Ni0 O38 2.054294 1_654
Ni1 O3 2.022363 1_556
Ni1 O1 2.031011 1_556
Ni1 O47 2.034229 1_455
Ni1 O45 2.036081 1_455
Ni1 O9 2.041078 1_456
Ni1 O39 2.046335 1_555
