# generated using pymatgen
data_Hf2TlC
_symmetry_space_group_name_H-M   'P 1'
_cell_length_a   3.32869782
_cell_length_b   3.32869782
_cell_length_c   14.72818137
_cell_angle_alpha   90.00000000
_cell_angle_beta   90.00000000
_cell_angle_gamma   120.00000165
_symmetry_Int_Tables_number   1
_chemical_formula_structural   Hf2TlC
_chemical_formula_sum   'Hf4 Tl2 C2'
_cell_volume   141.32809078
_cell_formula_units_Z   2
loop_
 _symmetry_equiv_pos_site_id
 _symmetry_equiv_pos_as_xyz
  1  'x, y, z'
loop_
 _atom_site_type_symbol
 _atom_site_label
 _atom_site_symmetry_multiplicity
 _atom_site_fract_x
 _atom_site_fract_y
 _atom_site_fract_z
 _atom_site_occupancy
  Hf  Hf0  1  0.33333300  0.66666700  0.41826832  1
  Hf  Hf1  1  0.66666700  0.33333300  0.58173168  1
  Hf  Hf2  1  0.66666700  0.33333300  0.91826832  1
  Hf  Hf3  1  0.33333300  0.66666700  0.08173168  1
  Tl  Tl0  1  0.33333300  0.66666700  0.75000000  1
  Tl  Tl1  1  0.66666700  0.33333300  0.25000000  1
  C  C0  1  0.00000000  0.00000000  0.50000000  1
  C  C1  1  0.00000000  0.00000000  -0.00000000  1
loop_
_geom_bond_atom_site_label_1
_geom_bond_atom_site_label_2
_geom_bond_distance
_geom_bond_site_symmetry_2
Hf0 Tl1 3.136129 1_455
Hf0 Tl1 3.136129 1_565
Hf0 Tl1 3.136133 1_555
Hf1 Tl0 3.136129 1_545
Hf1 Tl0 3.136129 1_655
Hf1 Tl0 3.136133 1_555
Hf2 Tl0 3.136129 1_545
Hf2 Tl0 3.136129 1_655
Hf2 Tl0 3.136133 1_555
Hf3 Tl1 3.136129 1_565
Hf3 Tl1 3.136129 1_455
Hf3 Tl1 3.136133 1_555
C0 Hf1 2.267694 1_455
C0 Hf0 2.267694 1_545
C0 Hf0 2.267697 1_445
C0 Hf1 2.267697 1_555
C0 Hf0 2.267697 1_555
C0 Hf1 2.267697 1_445
C1 Hf2 2.267694 1_454
C1 Hf3 2.267694 1_545
C1 Hf2 2.267697 1_554
C1 Hf3 2.267697 1_555
C1 Hf2 2.267697 1_444
C1 Hf3 2.267697 1_445
