# generated using pymatgen
data_MgBi8(PO4)8
_symmetry_space_group_name_H-M   'P 1'
_cell_length_a   5.66197971
_cell_length_b   9.41244282
_cell_length_c   17.07169995
_cell_angle_alpha   90.49020599
_cell_angle_beta   79.08604240
_cell_angle_gamma   74.57304823
_symmetry_Int_Tables_number   1
_chemical_formula_structural   MgBi8(PO4)8
_chemical_formula_sum   'Mg1 Bi8 P8 O32'
_cell_volume   859.49015178
_cell_formula_units_Z   1
loop_
 _symmetry_equiv_pos_site_id
 _symmetry_equiv_pos_as_xyz
  1  'x, y, z'
loop_
 _atom_site_type_symbol
 _atom_site_label
 _atom_site_symmetry_multiplicity
 _atom_site_fract_x
 _atom_site_fract_y
 _atom_site_fract_z
 _atom_site_occupancy
  Mg  Mg0  1  0.01714215  0.74303774  0.78250594  1
  Bi  Bi0  1  0.15391201  0.18350454  0.02162603  1
  Bi  Bi1  1  0.35412929  0.31628984  0.50077816  1
  Bi  Bi2  1  0.82535324  0.84213502  0.95815864  1
  Bi  Bi3  1  0.47378851  0.52585768  0.02170008  1
  Bi  Bi4  1  0.67951825  0.66159838  0.48736734  1
  Bi  Bi5  1  0.60022489  0.75610340  0.23177562  1
  Bi  Bi6  1  0.40851424  0.24588858  0.75454712  1
  Bi  Bi7  1  0.01808025  0.99335331  0.50308132  1
  P  P0  1  0.06016055  0.49421048  0.88461296  1
  P  P1  1  0.73268653  0.37032961  0.59251740  1
  P  P2  1  0.91056752  0.48617592  0.13152464  1
  P  P3  1  0.29482426  0.89891405  0.08744166  1
  P  P4  1  0.61799092  0.98254755  0.37543612  1
  P  P5  1  0.43090096  0.99613395  0.62484932  1
  P  P6  1  0.26144759  0.62743877  0.39763413  1
  P  P7  1  0.69133441  0.15989533  0.90771258  1
  O  O0  1  0.78696505  0.38492054  0.08719200  1
  O  O1  1  0.52374069  0.04876209  0.92170920  1
  O  O2  1  0.67523345  0.91305962  0.56323884  1
  O  O3  1  0.77302867  0.24815924  0.52297129  1
  O  O4  1  0.19513200  0.40807003  0.10632033  1
  O  O5  1  0.72891292  0.30536702  0.67431619  1
  O  O6  1  0.55731941  0.29301763  0.96758841  1
  O  O7  1  0.02684255  0.98110568  0.07685107  1
  O  O8  1  0.19046609  0.74929178  0.46855336  1
  O  O9  1  0.47419049  0.47771626  0.58553620  1
  O  O10  1  0.83794570  0.64537638  0.10080508  1
  O  O11  1  0.58490947  0.99890267  0.28969494  1
  O  O12  1  0.43138067  0.02088055  0.09181371  1
  O  O13  1  0.94301733  0.44900072  0.57181267  1
  O  O14  1  0.18913378  0.57759187  0.93523747  1
  O  O15  1  0.14746050  0.32430696  0.88842423  1
  O  O16  1  0.13640809  0.52613165  0.79387521  1
  O  O17  1  0.42878856  0.79475214  0.00907441  1
  O  O18  1  0.33453536  0.16439146  0.60473681  1
  O  O19  1  0.49446310  0.00398442  0.70940382  1
  O  O20  1  0.05923231  0.54033505  0.41272963  1
  O  O21  1  0.23429218  0.91282002  0.62062878  1
  O  O22  1  0.94845776  0.07685047  0.92606547  1
  O  O23  1  0.29448518  0.80046981  0.16006114  1
  O  O24  1  0.51309586  0.52048010  0.41384405  1
  O  O25  1  0.37699437  0.07599249  0.43653698  1
  O  O26  1  0.80653983  0.50504378  0.22248796  1
  O  O27  1  0.84377997  0.02972047  0.39471467  1
  O  O28  1  0.77401037  0.55778375  0.91326617  1
  O  O29  1  0.71748240  0.20145026  0.81919765  1
  O  O30  1  0.28682145  0.68855844  0.31535722  1
  O  O31  1  0.65435988  0.81173651  0.38982900  1
loop_
_geom_bond_atom_site_label_1
_geom_bond_atom_site_label_2
_geom_bond_distance
_geom_bond_site_symmetry_2
Mg0 O16 1.996199 1_555
Bi0 O7 2.353474 1_545
Bi0 O12 2.389914 1_555
Bi0 O1 2.469883 1_554
Bi0 O0 2.480152 1_455
Bi0 O22 2.516797 1_454
Bi0 O4 2.636424 1_555
Bi0 O15 2.643104 1_554
Bi0 O6 2.757092 1_554
Bi1 O18 2.293346 1_555
Bi1 O3 2.390703 1_555
Bi1 O9 2.397665 1_555
Bi1 O13 2.409860 1_455
Bi1 O25 2.466415 1_555
Bi1 O24 2.677652 1_555
Bi2 O1 2.396274 1_565
Bi2 O17 2.407562 1_556
Bi2 O22 2.522325 1_565
Bi2 O14 2.746855 1_655
Bi2 Mg0 3.036703 1_655
Bi3 O6 2.264642 1_554
Bi3 O28 2.344415 1_554
Bi3 O14 2.347147 1_554
Bi3 O0 2.383006 1_555
Bi3 O4 2.429048 1_555
Bi3 O17 2.490814 1_555
Bi4 O31 2.193861 1_555
Bi4 O20 2.276135 1_655
Bi4 O24 2.304960 1_555
Bi4 O2 2.680563 1_555
Bi4 O9 2.745573 1_555
Bi4 O8 2.752670 1_555
Bi4 O13 2.753884 1_555
Bi5 O23 2.257573 1_555
Bi5 O30 2.290396 1_555
Bi5 O26 2.329964 1_555
Bi5 O10 2.443620 1_555
Bi5 O11 2.455890 1_555
Bi6 O29 2.191605 1_555
Bi6 O5 2.256748 1_555
Bi6 O19 2.292058 1_555
Bi6 O15 2.462638 1_555
Bi6 O16 2.682941 1_555
Bi6 O18 2.801390 1_555
Bi7 O27 2.244123 1_465
Bi7 O8 2.267906 1_555
Bi7 O2 2.330878 1_455
Bi7 O3 2.414487 1_465
Bi7 O25 2.450951 1_565
Bi7 O21 2.561795 1_555
O0 P2 1.585548 1_555
O1 P7 1.580575 1_555
O2 P5 1.578272 1_555
O3 P1 1.586919 1_555
O4 P2 1.556748 1_455
O5 P1 1.527958 1_555
O6 P7 1.539219 1_555
O7 P3 1.554084 1_555
O8 P6 1.577832 1_555
O9 P1 1.568135 1_555
O10 P2 1.567420 1_555
O11 P4 1.514488 1_555
O12 P3 1.553673 1_545
O13 P1 1.551036 1_555
O14 P0 1.558335 1_555
O15 P0 1.549010 1_555
O16 P0 1.581119 1_555
O17 P3 1.588735 1_555
O18 P5 1.595076 1_545
O19 P5 1.558101 1_545
O20 P6 1.562291 1_555
O21 P5 1.534007 1_555
O22 P7 1.549220 1_555
O23 P3 1.554106 1_555
O24 P6 1.584667 1_555
O25 P4 1.590718 1_545
O26 P2 1.543772 1_555
O27 P4 1.548748 1_545
O28 P0 1.549649 1_655
O29 P7 1.553877 1_555
O30 P6 1.518518 1_555
O31 P4 1.592928 1_555
