# generated using pymatgen
data_TlAgS
_symmetry_space_group_name_H-M   'P 1'
_cell_length_a   4.46632100
_cell_length_b   7.32789800
_cell_length_c   8.66714100
_cell_angle_alpha   90.00000000
_cell_angle_beta   90.00000000
_cell_angle_gamma   90.00000000
_symmetry_Int_Tables_number   1
_chemical_formula_structural   TlAgS
_chemical_formula_sum   'Tl4 Ag4 S4'
_cell_volume   283.66464527
_cell_formula_units_Z   4
loop_
 _symmetry_equiv_pos_site_id
 _symmetry_equiv_pos_as_xyz
  1  'x, y, z'
loop_
 _atom_site_type_symbol
 _atom_site_label
 _atom_site_symmetry_multiplicity
 _atom_site_fract_x
 _atom_site_fract_y
 _atom_site_fract_z
 _atom_site_occupancy
  Tl  Tl0  1  0.25000000  0.18781300  0.00581700  1
  Tl  Tl1  1  0.25000000  0.31218700  0.50581700  1
  Tl  Tl2  1  0.75000000  0.81218700  0.99418300  1
  Tl  Tl3  1  0.75000000  0.68781300  0.49418300  1
  Ag  Ag0  1  0.25000000  0.91666500  0.68613400  1
  Ag  Ag1  1  0.25000000  0.58333500  0.18613400  1
  Ag  Ag2  1  0.75000000  0.08333500  0.31386600  1
  Ag  Ag3  1  0.75000000  0.41666500  0.81386600  1
  S  S0  1  0.25000000  0.60010100  0.81725000  1
  S  S1  1  0.25000000  0.89989900  0.31725000  1
  S  S2  1  0.75000000  0.39989900  0.18275000  1
  S  S3  1  0.75000000  0.10010100  0.68275000  1
loop_
_geom_bond_atom_site_label_1
_geom_bond_atom_site_label_2
_geom_bond_distance
_geom_bond_site_symmetry_2
Ag0 S0 2.583146 1_555
Ag0 S3 2.606672 1_465
Ag0 S3 2.606672 1_565
Ag0 Tl3 3.250713 1_455
Ag0 Tl3 3.250713 1_555
Ag0 Tl1 3.292848 1_565
Ag0 Tl0 3.409536 1_566
Ag1 S1 2.583146 1_555
Ag1 S2 2.606672 1_555
Ag1 S2 2.606672 1_455
Ag1 Tl2 3.250713 1_454
Ag1 Tl2 3.250713 1_554
Ag1 Tl0 3.292848 1_555
Ag1 Tl1 3.409536 1_555
Ag2 S2 2.583146 1_555
Ag2 S1 2.606672 1_645
Ag2 S1 2.606672 1_545
Ag2 Tl1 3.250713 1_655
Ag2 Tl1 3.250713 1_555
Ag2 Tl3 3.292848 1_545
Ag2 Tl2 3.409536 1_544
Ag3 S3 2.583146 1_555
Ag3 S0 2.606672 1_655
Ag3 S0 2.606672 1_555
Ag3 Tl0 3.250713 1_656
Ag3 Tl0 3.250713 1_556
Ag3 Tl2 3.292848 1_555
Ag3 Tl3 3.409536 1_555
S0 Tl2 3.123140 1_455
S0 Tl2 3.123140 1_555
S1 Tl3 3.123140 1_455
S1 Tl3 3.123140 1_555
S2 Tl0 3.123140 1_555
S2 Tl0 3.123140 1_655
S3 Tl1 3.123140 1_555
S3 Tl1 3.123140 1_655
