# generated using pymatgen
data_Rb2Al(H2N)2
_symmetry_space_group_name_H-M   'P 1'
_cell_length_a   8.66072900
_cell_length_b   9.19023700
_cell_length_c   9.19023700
_cell_angle_alpha   90.00000000
_cell_angle_beta   90.00000000
_cell_angle_gamma   90.00000000
_symmetry_Int_Tables_number   1
_chemical_formula_structural   Rb2Al(H2N)2
_chemical_formula_sum   'Rb8 Al4 H16 N8'
_cell_volume   731.48912164
_cell_formula_units_Z   4
loop_
 _symmetry_equiv_pos_site_id
 _symmetry_equiv_pos_as_xyz
  1  'x, y, z'
loop_
 _atom_site_type_symbol
 _atom_site_label
 _atom_site_symmetry_multiplicity
 _atom_site_fract_x
 _atom_site_fract_y
 _atom_site_fract_z
 _atom_site_occupancy
  Rb  Rb0  1  0.35460400  0.20349000  0.08658400  1
  Rb  Rb1  1  0.35460400  0.79651000  0.91341600  1
  Rb  Rb2  1  0.35460400  0.41341600  0.70349000  1
  Rb  Rb3  1  0.64539600  0.29651000  0.41341600  1
  Rb  Rb4  1  0.35460400  0.58658400  0.29651000  1
  Rb  Rb5  1  0.64539600  0.70349000  0.58658400  1
  Rb  Rb6  1  0.64539600  0.08658400  0.79651000  1
  Rb  Rb7  1  0.64539600  0.91341600  0.20349000  1
  Al  Al0  1  0.00000000  0.25000000  0.75000000  1
  Al  Al1  1  0.00000000  0.75000000  0.25000000  1
  Al  Al2  1  0.00000000  0.75000000  0.75000000  1
  Al  Al3  1  0.00000000  0.25000000  0.25000000  1
  H  H0  1  0.19141200  0.64864700  0.56204000  1
  H  H1  1  0.19141200  0.35135300  0.43796000  1
  H  H2  1  0.19141200  0.93796000  0.14864700  1
  H  H3  1  0.80858800  0.85135300  0.93796000  1
  H  H4  1  0.19141200  0.06204000  0.85135300  1
  H  H5  1  0.80858800  0.14864700  0.06204000  1
  H  H6  1  0.80858800  0.56204000  0.35135300  1
  H  H7  1  0.80858800  0.43796000  0.64864700  1
  H  H8  1  0.26467400  0.06973000  0.69357400  1
  H  H9  1  0.26467400  0.93027000  0.30642600  1
  H  H10  1  0.26467400  0.80642600  0.56973000  1
  H  H11  1  0.73532600  0.43027000  0.80642600  1
  H  H12  1  0.26467400  0.19357400  0.43027000  1
  H  H13  1  0.73532600  0.56973000  0.19357400  1
  H  H14  1  0.73532600  0.69357400  0.93027000  1
  H  H15  1  0.73532600  0.30642600  0.06973000  1
  N  N0  1  0.28054700  0.11321000  0.79616600  1
  N  N1  1  0.28054700  0.88679100  0.20383400  1
  N  N2  1  0.28054700  0.70383400  0.61320900  1
  N  N3  1  0.71945300  0.38679000  0.70383400  1
  N  N4  1  0.28054700  0.29616600  0.38679000  1
  N  N5  1  0.71945300  0.61320900  0.29616600  1
  N  N6  1  0.71945300  0.79616600  0.88679100  1
  N  N7  1  0.71945300  0.20383400  0.11321000  1
loop_
_geom_bond_atom_site_label_1
_geom_bond_atom_site_label_2
_geom_bond_distance
_geom_bond_site_symmetry_2
H0 N2 1.036493 1_555
H0 Rb4 2.877134 1_555
H0 Rb2 2.891537 1_555
H1 N4 1.036497 1_555
H1 Rb2 2.877134 1_555
H1 Rb4 2.891537 1_555
H2 N1 1.036493 1_555
H2 Rb0 2.877134 1_565
H2 Rb1 2.891537 1_554
H3 N6 1.036493 1_555
H3 Rb7 2.877134 1_556
H3 Rb6 2.891537 1_565
H4 N0 1.036497 1_555
H4 Rb1 2.877134 1_545
H4 Rb0 2.891537 1_556
H5 N7 1.036497 1_555
H5 Rb6 2.877134 1_554
H5 Rb7 2.891537 1_545
H6 N5 1.036493 1_555
H6 Rb3 2.877134 1_555
H6 Rb5 2.891537 1_555
H7 N3 1.036497 1_555
H7 Rb5 2.877134 1_555
H7 Rb3 2.891537 1_555
H8 N0 1.033213 1_555
H9 N1 1.033209 1_555
H10 N2 1.033209 1_555
H11 N3 1.033213 1_555
H12 N4 1.033213 1_555
H13 N5 1.033209 1_555
H14 N6 1.033209 1_555
H15 N7 1.033213 1_555
N0 Rb0 2.867645 1_556
N0 Rb2 2.957817 1_555
N0 Rb6 3.169320 1_555
N1 Rb1 2.867647 1_554
N1 Rb4 2.957825 1_555
N1 Rb7 3.169320 1_555
N2 Rb2 2.867647 1_555
N2 Rb1 2.957825 1_555
N2 Rb5 3.169320 1_555
N3 Rb3 2.867645 1_555
N3 Rb6 2.957817 1_555
N3 Rb2 3.169320 1_555
N4 Rb4 2.867645 1_555
N4 Rb0 2.957817 1_555
N4 Rb3 3.169320 1_555
N5 Rb5 2.867647 1_555
N5 Rb7 2.957825 1_555
N5 Rb4 3.169320 1_555
N6 Rb6 2.867647 1_565
N6 Rb5 2.957825 1_555
N6 Rb1 3.169320 1_555
N7 Rb7 2.867645 1_545
N7 Rb3 2.957817 1_555
N7 Rb0 3.169320 1_555
