# generated using pymatgen
data_Cr4Te3N2
_symmetry_space_group_name_H-M   'P 1'
_cell_length_a   6.49530030
_cell_length_b   10.64626014
_cell_length_c   9.84961356
_cell_angle_alpha   90.00000000
_cell_angle_beta   90.00000000
_cell_angle_gamma   90.00000000
_symmetry_Int_Tables_number   1
_chemical_formula_structural   Cr4Te3N2
_chemical_formula_sum   'Cr16 Te12 N8'
_cell_volume   681.10724573
_cell_formula_units_Z   4
loop_
 _symmetry_equiv_pos_site_id
 _symmetry_equiv_pos_as_xyz
  1  'x, y, z'
loop_
 _atom_site_type_symbol
 _atom_site_label
 _atom_site_symmetry_multiplicity
 _atom_site_fract_x
 _atom_site_fract_y
 _atom_site_fract_z
 _atom_site_occupancy
  Cr  Cr0  1  0.58794528  0.25000000  0.87988406  1
  Cr  Cr1  1  0.08794528  0.25000000  0.62011594  1
  Cr  Cr2  1  0.41205472  0.75000000  0.12011594  1
  Cr  Cr3  1  0.91205472  0.75000000  0.37988406  1
  Cr  Cr4  1  0.80291957  0.25000000  0.41323758  1
  Cr  Cr5  1  0.30291957  0.25000000  0.08676242  1
  Cr  Cr6  1  0.19708043  0.75000000  0.58676242  1
  Cr  Cr7  1  0.69708043  0.75000000  0.91323758  1
  Cr  Cr8  1  0.69035568  0.47438427  0.06723829  1
  Cr  Cr9  1  0.19035568  0.02561573  0.43276171  1
  Cr  Cr10  1  0.30964432  0.97438427  0.93276171  1
  Cr  Cr11  1  0.80964432  0.52561573  0.56723829  1
  Cr  Cr12  1  0.30964432  0.52561573  0.93276171  1
  Cr  Cr13  1  0.80964432  0.97438427  0.56723829  1
  Cr  Cr14  1  0.69035568  0.02561573  0.06723829  1
  Cr  Cr15  1  0.19035568  0.47438427  0.43276171  1
  Te  Te0  1  0.88693217  0.25000000  0.14796671  1
  Te  Te1  1  0.38693217  0.25000000  0.35203329  1
  Te  Te2  1  0.11306783  0.75000000  0.85203329  1
  Te  Te3  1  0.61306783  0.75000000  0.64796671  1
  Te  Te4  1  0.57576192  0.57034457  0.32456627  1
  Te  Te5  1  0.07576192  0.92965543  0.17543373  1
  Te  Te6  1  0.42423808  0.07034457  0.67543373  1
  Te  Te7  1  0.92423808  0.42965543  0.82456627  1
  Te  Te8  1  0.42423808  0.42965543  0.67543373  1
  Te  Te9  1  0.92423808  0.07034457  0.82456627  1
  Te  Te10  1  0.57576192  0.92965543  0.32456627  1
  Te  Te11  1  0.07576192  0.57034457  0.17543373  1
  N  N0  1  0.54908036  0.62309091  0.99800679  1
  N  N1  1  0.04908036  0.87690909  0.50199321  1
  N  N2  1  0.45091964  0.12309091  0.00199321  1
  N  N3  1  0.95091964  0.37690909  0.49800679  1
  N  N4  1  0.45091964  0.37690909  0.00199321  1
  N  N5  1  0.95091964  0.12309091  0.49800679  1
  N  N6  1  0.54908036  0.87690909  0.99800679  1
  N  N7  1  0.04908036  0.62309091  0.50199321  1
loop_
_geom_bond_atom_site_label_1
_geom_bond_atom_site_label_2
_geom_bond_distance
_geom_bond_site_symmetry_2
Cr0 N2 2.015983 1_556
Cr0 N4 2.015983 1_556
Cr0 Te7 2.954048 1_555
Cr0 Te9 2.954048 1_555
Cr0 Te8 2.973911 1_555
Cr0 Te6 2.973911 1_555
Cr1 N5 2.015983 1_455
Cr1 N3 2.015983 1_455
Cr1 Te8 2.954048 1_555
Cr1 Te6 2.954048 1_555
Cr1 Te7 2.973911 1_455
Cr1 Te9 2.973911 1_455
Cr2 N6 2.015983 1_554
Cr2 N0 2.015983 1_554
Cr2 Te5 2.954048 1_555
Cr2 Te11 2.954048 1_555
Cr2 Te10 2.973911 1_555
Cr2 Te4 2.973911 1_555
Cr3 N7 2.015983 1_655
Cr3 N1 2.015983 1_655
Cr3 Te10 2.954048 1_555
Cr3 Te4 2.954048 1_555
Cr3 Te11 2.973911 1_655
Cr3 Te5 2.973911 1_655
Cr4 N3 1.856537 1_555
Cr4 N5 1.856537 1_555
Cr4 Te0 2.669191 1_555
Cr4 Te1 2.768396 1_555
Cr5 N2 1.856537 1_555
Cr5 N4 1.856537 1_555
Cr5 Te1 2.669191 1_555
Cr5 Te0 2.768396 1_455
Cr6 N1 1.856537 1_555
Cr6 N7 1.856537 1_555
Cr6 Te2 2.669191 1_555
Cr6 Te3 2.768396 1_555
Cr7 N0 1.856537 1_555
Cr7 N6 1.856537 1_555
Cr7 Te3 2.669191 1_555
Cr7 Te2 2.768396 1_655
Cr8 N0 1.952807 1_554
Cr8 N4 1.977012 1_555
Cr8 Te0 2.822969 1_555
Cr8 Te4 2.832282 1_555
Cr8 Te7 2.871884 1_554
Cr8 Te11 2.906208 1_655
Cr9 N1 1.952807 1_545
Cr9 N5 1.977012 1_455
Cr9 Te1 2.822969 1_555
Cr9 Te5 2.832282 1_545
Cr9 Te6 2.871884 1_555
Cr9 Te10 2.906208 1_545
Cr10 N2 1.952807 1_566
Cr10 N6 1.977012 1_555
Cr10 Te2 2.822969 1_555
Cr10 Te6 2.832282 1_565
Cr10 Te5 2.871884 1_556
Cr10 Te9 2.906208 1_465
Cr11 N3 1.952807 1_555
Cr11 N7 1.977012 1_655
Cr11 Te3 2.822969 1_555
Cr11 Te7 2.832282 1_555
Cr11 Te4 2.871884 1_555
Cr11 Te8 2.906208 1_555
Cr12 N4 1.952807 1_556
Cr12 N0 1.977012 1_555
Cr12 Te2 2.822969 1_555
Cr12 Te8 2.832282 1_555
Cr12 Te11 2.871884 1_556
Cr12 Te7 2.906208 1_455
Cr13 N5 1.952807 1_565
Cr13 N1 1.977012 1_655
Cr13 Te3 2.822969 1_555
Cr13 Te9 2.832282 1_565
Cr13 Te10 2.871884 1_555
Cr13 Te6 2.906208 1_565
Cr14 N6 1.952807 1_544
Cr14 N2 1.977012 1_555
Cr14 Te0 2.822969 1_555
Cr14 Te10 2.832282 1_545
Cr14 Te9 2.871884 1_554
Cr14 Te5 2.906208 1_645
Cr15 N7 1.952807 1_555
Cr15 N3 1.977012 1_455
Cr15 Te1 2.822969 1_555
Cr15 Te11 2.832282 1_555
Cr15 Te8 2.871884 1_555
Cr15 Te4 2.906208 1_555
