# generated using pymatgen
data_Mg6CrBi
_symmetry_space_group_name_H-M   'P 1'
_cell_length_a   5.12783300
_cell_length_b   6.43824000
_cell_length_c   11.00112000
_cell_angle_alpha   90.00000000
_cell_angle_beta   90.00000000
_cell_angle_gamma   90.00000000
_symmetry_Int_Tables_number   1
_chemical_formula_structural   Mg6CrBi
_chemical_formula_sum   'Mg12 Cr2 Bi2'
_cell_volume   363.19339080
_cell_formula_units_Z   2
loop_
 _symmetry_equiv_pos_site_id
 _symmetry_equiv_pos_as_xyz
  1  'x, y, z'
loop_
 _atom_site_type_symbol
 _atom_site_label
 _atom_site_symmetry_multiplicity
 _atom_site_fract_x
 _atom_site_fract_y
 _atom_site_fract_z
 _atom_site_occupancy
  Mg  Mg0  1  0.00000000  0.23995000  0.07979300  1
  Mg  Mg1  1  0.00000000  0.76005000  0.07979300  1
  Mg  Mg2  1  0.00000000  0.50000000  0.83421000  1
  Mg  Mg3  1  0.50000000  0.24640800  0.91505300  1
  Mg  Mg4  1  0.50000000  0.75359200  0.91505300  1
  Mg  Mg5  1  0.50000000  0.50000000  0.66784100  1
  Mg  Mg6  1  0.00000000  0.73995000  0.57979300  1
  Mg  Mg7  1  0.00000000  0.26005000  0.57979300  1
  Mg  Mg8  1  0.00000000  0.00000000  0.33421000  1
  Mg  Mg9  1  0.50000000  0.74640800  0.41505300  1
  Mg  Mg10  1  0.50000000  0.25359200  0.41505300  1
  Mg  Mg11  1  0.50000000  0.00000000  0.16784100  1
  Cr  Cr0  1  0.00000000  0.50000000  0.33691200  1
  Cr  Cr1  1  0.00000000  0.00000000  0.83691200  1
  Bi  Bi0  1  0.50000000  0.50000000  0.17134500  1
  Bi  Bi1  1  0.50000000  0.00000000  0.67134500  1
loop_
_geom_bond_atom_site_label_1
_geom_bond_atom_site_label_2
_geom_bond_distance
_geom_bond_site_symmetry_2
Mg0 Mg1 3.089711 1_545
Mg0 Mg3 3.140050 1_554
Mg0 Mg3 3.140050 1_454
Mg0 Mg11 3.146186 1_455
Mg0 Mg11 3.146186 1_555
Mg0 Mg2 3.178408 1_554
Mg0 Mg8 3.196915 1_555
Mg0 Mg1 3.348529 1_555
Mg1 Mg4 3.140050 1_454
Mg1 Mg4 3.140050 1_554
Mg1 Mg11 3.146186 1_565
Mg1 Mg11 3.146186 1_465
Mg1 Mg2 3.178408 1_554
Mg1 Mg8 3.196915 1_565
Mg2 Mg5 3.150153 1_455
Mg2 Mg5 3.150153 1_555
Mg2 Mg4 3.167065 1_455
Mg2 Mg4 3.167065 1_555
Mg2 Mg3 3.167065 1_455
Mg2 Mg3 3.167065 1_555
Mg2 Mg7 3.196915 1_555
Mg2 Mg6 3.196915 1_555
Mg3 Mg5 3.172056 1_555
Mg3 Mg4 3.172868 1_545
Mg3 Mg4 3.265372 1_555
Mg4 Mg5 3.172056 1_555
Mg5 Mg7 3.146186 1_555
Mg5 Mg7 3.146186 1_655
Mg5 Mg6 3.146186 1_555
Mg5 Mg6 3.146186 1_655
Mg5 Mg9 3.201634 1_555
Mg6 Mg7 3.089711 1_555
Mg6 Mg9 3.140050 1_455
Mg6 Mg9 3.140050 1_555
Mg6 Mg8 3.178408 1_565
Mg6 Mg7 3.348529 1_565
Mg7 Mg8 3.178408 1_555
Mg8 Mg9 3.167065 1_545
Mg8 Mg9 3.167065 1_445
Mg10 Mg7 3.140050 1_555
Mg10 Mg7 3.140050 1_655
Mg10 Mg8 3.167065 1_655
Mg10 Mg8 3.167065 1_555
Mg10 Mg11 3.172056 1_555
Mg10 Mg9 3.172868 1_555
Mg10 Mg5 3.201634 1_555
Mg10 Mg9 3.265372 1_545
Mg11 Mg8 3.150153 1_655
Mg11 Mg8 3.150153 1_555
Mg11 Mg9 3.172056 1_545
Mg11 Mg3 3.201634 1_554
Mg11 Mg4 3.201634 1_544
Cr0 Mg6 3.086416 1_555
Cr0 Mg7 3.086416 1_555
Cr0 Mg9 3.135190 1_455
Cr0 Mg9 3.135190 1_555
Cr0 Mg10 3.135190 1_455
Cr0 Mg10 3.135190 1_555
Cr0 Mg8 3.219257 1_565
Cr0 Mg8 3.219257 1_555
Cr0 Mg0 3.286962 1_555
Cr0 Mg1 3.286962 1_555
Cr1 Mg1 3.086416 1_546
Cr1 Mg0 3.086416 1_556
Cr1 Mg3 3.135190 1_455
Cr1 Mg3 3.135190 1_555
Cr1 Mg4 3.135190 1_545
Cr1 Mg4 3.135190 1_445
Cr1 Mg2 3.219257 1_545
Cr1 Mg2 3.219257 1_555
Cr1 Mg6 3.286962 1_545
Cr1 Mg7 3.286962 1_555
Bi0 Mg9 3.115262 1_555
Bi0 Mg10 3.115262 1_555
Bi0 Cr0 3.145035 1_555
Bi0 Cr0 3.145035 1_655
Bi0 Mg11 3.219351 1_565
Bi0 Mg11 3.219351 1_555
Bi0 Mg0 3.223543 1_655
Bi0 Mg0 3.223543 1_555
Bi0 Mg1 3.223543 1_655
Bi0 Mg1 3.223543 1_555
Bi0 Mg4 3.258104 1_554
Bi0 Mg3 3.258104 1_554
Bi1 Mg3 3.115262 1_555
Bi1 Mg4 3.115262 1_545
Bi1 Cr1 3.145035 1_655
Bi1 Cr1 3.145035 1_555
Bi1 Mg5 3.219351 1_545
Bi1 Mg5 3.219351 1_555
Bi1 Mg6 3.223543 1_645
Bi1 Mg6 3.223543 1_545
Bi1 Mg7 3.223543 1_555
Bi1 Mg7 3.223543 1_655
Bi1 Mg10 3.258104 1_555
Bi1 Mg9 3.258104 1_545
