# generated using pymatgen
data_Mn4Sb3As
_symmetry_space_group_name_H-M   'P 1'
_cell_length_a   4.04745054
_cell_length_b   4.04745054
_cell_length_c   11.71032723
_cell_angle_alpha   90.00000000
_cell_angle_beta   90.00000000
_cell_angle_gamma   119.99998099
_symmetry_Int_Tables_number   1
_chemical_formula_structural   Mn4Sb3As
_chemical_formula_sum   'Mn4 Sb3 As1'
_cell_volume   166.13565423
_cell_formula_units_Z   1
loop_
 _symmetry_equiv_pos_site_id
 _symmetry_equiv_pos_as_xyz
  1  'x, y, z'
loop_
 _atom_site_type_symbol
 _atom_site_label
 _atom_site_symmetry_multiplicity
 _atom_site_fract_x
 _atom_site_fract_y
 _atom_site_fract_z
 _atom_site_occupancy
  Mn  Mn0  1  0.00000000  -0.00000000  0.61646798  1
  Mn  Mn1  1  0.00000000  0.00000000  0.12759207  1
  Mn  Mn2  1  -0.00000000  -0.00000000  0.87264840  1
  Mn  Mn3  1  -0.00000000  0.00000000  0.38344314  1
  Sb  Sb0  1  0.66666700  0.33333300  0.00014714  1
  Sb  Sb1  1  0.33333300  0.66666700  0.74611223  1
  Sb  Sb2  1  0.33333300  0.66666700  0.25397846  1
  As  As0  1  0.66666700  0.33333300  0.49960958  1
loop_
_geom_bond_atom_site_label_1
_geom_bond_atom_site_label_2
_geom_bond_distance
_geom_bond_site_symmetry_2
Mn0 Sb1 2.786659 1_545
Mn0 Sb1 2.786662 1_555
Mn0 Sb1 2.786662 1_445
Mn1 Sb2 2.766059 1_545
Mn1 Sb2 2.766063 1_555
Mn1 Sb2 2.766063 1_445
Mn1 Sb0 2.772712 1_455
Mn1 Sb0 2.772715 1_445
Mn1 Sb0 2.772715 1_555
Mn2 Sb1 2.766998 1_545
Mn2 Sb1 2.767002 1_555
Mn2 Sb1 2.767002 1_445
Mn2 Sb0 2.773051 1_456
Mn2 Sb0 2.773054 1_446
Mn2 Sb0 2.773054 1_556
Mn3 Sb2 2.785514 1_545
Mn3 Sb2 2.785517 1_445
Mn3 Sb2 2.785517 1_555
As0 Mn3 2.703914 1_655
As0 Mn3 2.703918 1_665
As0 Mn3 2.703918 1_555
As0 Mn0 2.708000 1_655
As0 Mn0 2.708003 1_555
As0 Mn0 2.708003 1_665
