# generated using pymatgen
data_Sm3Se4
_symmetry_space_group_name_H-M   'P 1'
_cell_length_a   7.64878832
_cell_length_b   7.64878907
_cell_length_c   7.64878832
_cell_angle_alpha   109.47122426
_cell_angle_beta   109.47122622
_cell_angle_gamma   109.47121301
_symmetry_Int_Tables_number   1
_chemical_formula_structural   Sm3Se4
_chemical_formula_sum   'Sm6 Se8'
_cell_volume   344.47369949
_cell_formula_units_Z   2
loop_
 _symmetry_equiv_pos_site_id
 _symmetry_equiv_pos_as_xyz
  1  'x, y, z'
loop_
 _atom_site_type_symbol
 _atom_site_label
 _atom_site_symmetry_multiplicity
 _atom_site_fract_x
 _atom_site_fract_y
 _atom_site_fract_z
 _atom_site_occupancy
  Sm  Sm0  1  0.75000000  0.87500000  0.12500000  1
  Sm  Sm1  1  0.62500000  0.37500000  0.25000000  1
  Sm  Sm2  1  0.87500000  0.12500000  0.75000000  1
  Sm  Sm3  1  0.12500000  0.75000000  0.87500000  1
  Sm  Sm4  1  0.37500000  0.25000000  0.62500000  1
  Sm  Sm5  1  0.25000000  0.62500000  0.37500000  1
  Se  Se0  1  0.64603921  0.64603921  0.64603921  1
  Se  Se1  1  0.35396079  0.50000000  -0.00000000  1
  Se  Se2  1  0.50000000  -0.00000000  0.35396079  1
  Se  Se3  1  0.00000000  0.35396079  0.50000000  1
  Se  Se4  1  0.50000000  -0.00000000  0.85396079  1
  Se  Se5  1  0.00000000  0.85396079  0.50000000  1
  Se  Se6  1  0.14603921  0.14603921  0.14603921  1
  Se  Se7  1  0.85396079  0.50000000  -0.00000000  1
loop_
_geom_bond_atom_site_label_1
_geom_bond_atom_site_label_2
_geom_bond_distance
_geom_bond_site_symmetry_2
Se0 Sm5 2.960723 1_555
Se0 Sm1 2.960723 1_555
Se0 Sm4 2.960724 1_555
Se0 Sm0 3.157953 1_556
Se0 Sm3 3.157953 1_655
Se0 Sm2 3.157954 1_565
Se1 Sm1 2.960723 1_555
Se1 Sm4 2.960723 1_554
Se1 Sm0 2.960724 1_555
Se1 Sm5 3.157953 1_555
Se1 Sm3 3.157953 1_554
Se1 Sm2 3.157954 1_454
Se2 Sm2 2.960723 1_555
Se2 Sm4 2.960723 1_555
Se2 Sm5 2.960724 1_545
Se2 Sm3 3.157953 1_544
Se2 Sm0 3.157953 1_545
Se2 Sm1 3.157954 1_555
Se3 Sm1 2.960723 1_455
Se3 Sm3 2.960723 1_555
Se3 Sm5 2.960724 1_555
Se3 Sm4 3.157953 1_555
Se3 Sm0 3.157954 1_445
Se3 Sm2 3.157954 1_455
Se4 Sm0 2.960723 1_546
Se4 Sm1 2.960723 1_556
Se4 Sm3 2.960724 1_545
Se4 Sm5 3.157953 1_545
Se4 Sm4 3.157954 1_555
Se4 Sm2 3.157954 1_555
Se5 Sm0 2.960723 1_455
Se5 Sm2 2.960723 1_465
Se5 Sm4 2.960724 1_565
Se5 Sm3 3.157953 1_555
Se5 Sm5 3.157953 1_555
Se5 Sm1 3.157954 1_455
Se6 Sm2 2.960723 1_454
Se6 Sm3 2.960723 1_544
Se6 Sm0 2.960724 1_445
Se6 Sm4 3.157953 1_555
Se6 Sm1 3.157954 1_555
Se6 Sm5 3.157954 1_555
Se7 Sm5 2.960723 1_655
Se7 Sm2 2.960723 1_554
Se7 Sm3 2.960724 1_654
Se7 Sm4 3.157953 1_554
Se7 Sm0 3.157954 1_555
Se7 Sm1 3.157954 1_555
