# generated using pymatgen
data_MgZnH20PtC4(NO3)4
_symmetry_space_group_name_H-M   'P 1'
_cell_length_a   7.56571141
_cell_length_b   7.98841125
_cell_length_c   9.17091800
_cell_angle_alpha   115.84836212
_cell_angle_beta   114.33542772
_cell_angle_gamma   90.14022507
_symmetry_Int_Tables_number   1
_chemical_formula_structural   MgZnH20PtC4(NO3)4
_chemical_formula_sum   'Mg1 Zn1 H20 Pt1 C4 N4 O12'
_cell_volume   443.14681901
_cell_formula_units_Z   1
loop_
 _symmetry_equiv_pos_site_id
 _symmetry_equiv_pos_as_xyz
  1  'x, y, z'
loop_
 _atom_site_type_symbol
 _atom_site_label
 _atom_site_symmetry_multiplicity
 _atom_site_fract_x
 _atom_site_fract_y
 _atom_site_fract_z
 _atom_site_occupancy
  Mg  Mg0  1  0.39165522  0.89107387  0.78274766  1
  Zn  Zn0  1  0.00804219  0.50849462  0.01625498  1
  H  H0  1  0.45413245  0.74726776  0.12817994  1
  H  H1  1  0.67518247  0.38348193  0.13024839  1
  H  H2  1  0.29225538  0.23485962  0.80381747  1
  H  H3  1  0.51013352  0.56555467  0.80010535  1
  H  H4  1  0.65652037  0.88881735  0.31117611  1
  H  H5  1  0.65617986  0.42439236  0.31295918  1
  H  H6  1  0.30190272  0.11384631  0.61442422  1
  H  H7  1  0.30886861  0.50008261  0.61269612  1
  H  H8  1  0.67472101  0.74781682  0.12764802  1
  H  H9  1  0.45422682  0.38245766  0.13002056  1
  H  H10  1  0.50776735  0.23386311  0.79845327  1
  H  H11  1  0.29087775  0.56359530  0.79809259  1
  H  H12  1  0.94813842  0.78896487  0.89809760  1
  H  H13  1  0.95036890  0.10946263  0.89849048  1
  H  H14  1  0.05915052  0.20956220  0.11562617  1
  H  H15  1  0.05629269  0.90673991  0.11527777  1
  H  H16  1  0.92354539  0.81752741  0.63528415  1
  H  H17  1  0.71207597  0.81805379  0.63524629  1
  H  H18  1  0.29222819  0.18435390  0.36984105  1
  H  H19  1  0.07771969  0.18428363  0.36966823  1
  Pt  Pt0  1  0.56789667  0.06837879  0.13548684  1
  C  C0  1  0.92689238  0.32106938  0.64394914  1
  C  C1  1  0.71708213  0.32063689  0.64362682  1
  C  C2  1  0.30096748  0.69780725  0.39470095  1
  C  C3  1  0.09391250  0.69674692  0.39458300  1
  N  N0  1  0.58644807  0.83204422  0.17187072  1
  N  N1  1  0.58654023  0.34196969  0.17357900  1
  N  N2  1  0.37305124  0.14803458  0.74910284  1
  N  N3  1  0.37518480  0.59973076  0.74786364  1
  O  O0  1  0.07984083  0.40304898  0.80277852  1
  O  O1  1  0.72262599  0.39922551  0.80224929  1
  O  O2  1  0.30082773  0.62193027  0.24133087  1
  O  O3  1  0.94056398  0.62016682  0.24108081  1
  O  O4  1  0.93322816  0.24454384  0.49539683  1
  O  O5  1  0.56225638  0.24676118  0.49482254  1
  O  O6  1  0.45286087  0.77547055  0.55017024  1
  O  O7  1  0.09745585  0.77359703  0.54992538  1
  O  O8  1  0.00174937  0.77575226  0.00995431  1
  O  O9  1  0.00810188  0.23493066  0.01037627  1
  O  O10  1  0.85788673  0.85788640  0.71528739  1
  O  O11  1  0.14597422  0.14607272  0.29179497  1
loop_
_geom_bond_atom_site_label_1
_geom_bond_atom_site_label_2
_geom_bond_distance
_geom_bond_site_symmetry_2
Mg0 O6 2.171461 1_555
Mg0 O7 2.172490 1_555
Mg0 N2 2.201485 1_565
Mg0 N3 2.202498 1_555
Mg0 Pt0 2.586384 1_566
H0 N0 1.025085 1_555
H1 N1 1.025232 1_555
H2 N2 1.028547 1_555
H3 N3 1.028962 1_555
H4 N0 1.026788 1_555
H5 N1 1.026839 1_555
H6 N2 1.023268 1_555
H7 N3 1.023254 1_555
H8 N0 1.025036 1_555
H9 N1 1.025161 1_555
H10 N2 1.029353 1_555
H11 N3 1.029352 1_555
H12 O8 0.989791 1_656
H13 O9 0.989918 1_656
H14 O9 0.992789 1_555
H15 O8 0.993102 1_555
H16 O10 0.991931 1_555
H17 O10 0.992106 1_555
H18 O11 0.992449 1_555
H19 O11 0.992220 1_555
C0 O4 1.248912 1_555
C0 O0 1.290337 1_655
C1 O5 1.248849 1_555
C1 O1 1.290471 1_555
C2 O2 1.265356 1_555
C2 O6 1.270125 1_555
C3 O3 1.265532 1_455
C3 O7 1.270037 1_555
N0 Pt0 2.051184 1_565
N1 Pt0 2.052002 1_555
O0 Zn0 2.068384 1_556
O1 Zn0 2.069026 1_656
O2 Zn0 2.139974 1_555
O3 Zn0 2.138593 1_655
O8 Zn0 2.160898 1_555
O9 Zn0 2.162386 1_555
