# generated using pymatgen
data_Ca3V3N5
_symmetry_space_group_name_H-M   'P 1'
_cell_length_a   5.71819165
_cell_length_b   7.32755765
_cell_length_c   8.25228485
_cell_angle_alpha   109.61435037
_cell_angle_beta   105.32420150
_cell_angle_gamma   99.50883500
_symmetry_Int_Tables_number   1
_chemical_formula_structural   Ca3V3N5
_chemical_formula_sum   'Ca6 V6 N10'
_cell_volume   301.61059647
_cell_formula_units_Z   2
loop_
 _symmetry_equiv_pos_site_id
 _symmetry_equiv_pos_as_xyz
  1  'x, y, z'
loop_
 _atom_site_type_symbol
 _atom_site_label
 _atom_site_symmetry_multiplicity
 _atom_site_fract_x
 _atom_site_fract_y
 _atom_site_fract_z
 _atom_site_occupancy
  Ca  Ca0  1  0.74142300  0.42500400  0.59521300  1
  Ca  Ca1  1  0.25857700  0.57499600  0.40478700  1
  Ca  Ca2  1  0.65675900  0.84898700  0.88929000  1
  Ca  Ca3  1  0.34324100  0.15101300  0.11071000  1
  Ca  Ca4  1  0.67494000  0.68212500  0.22261700  1
  Ca  Ca5  1  0.32506000  0.31787500  0.77738300  1
  V  V0  1  0.90299800  0.31569600  0.96537100  1
  V  V1  1  0.09700200  0.68430400  0.03462900  1
  V  V2  1  0.70026600  0.98873900  0.59819000  1
  V  V3  1  0.29973400  0.01126100  0.40181000  1
  V  V4  1  0.09445900  0.86496000  0.69780000  1
  V  V5  1  0.90554100  0.13504000  0.30220000  1
  N  N0  1  0.00412600  0.09762000  0.81974900  1
  N  N1  1  0.99587400  0.90238000  0.18025100  1
  N  N2  1  0.74958700  0.71962200  0.53204200  1
  N  N3  1  0.25041300  0.28037800  0.46795800  1
  N  N4  1  0.75360200  0.51739000  0.90452600  1
  N  N5  1  0.24639800  0.48261000  0.09547400  1
  N  N6  1  0.37176800  0.93902800  0.62066900  1
  N  N7  1  0.62823200  0.06097200  0.37933100  1
  N  N8  1  0.21795000  0.76143300  0.86917300  1
  N  N9  1  0.78205000  0.23856700  0.13082700  1
loop_
_geom_bond_atom_site_label_1
_geom_bond_atom_site_label_2
_geom_bond_distance
_geom_bond_site_symmetry_2
Ca0 N2 2.381097 1_555
Ca0 N4 2.389337 1_555
Ca0 N7 2.517485 1_555
Ca0 N3 2.611569 1_555
Ca1 N3 2.381097 1_555
Ca1 N5 2.389337 1_555
Ca1 N6 2.517485 1_555
Ca1 N2 2.611569 1_555
Ca2 N8 2.431390 1_555
Ca2 N1 2.517176 1_556
Ca2 N4 2.615195 1_555
Ca2 N9 2.717486 1_566
Ca2 N6 2.726298 1_555
Ca2 N0 2.775386 1_665
Ca2 N2 2.998141 1_555
Ca3 N9 2.431390 1_555
Ca3 N0 2.517176 1_554
Ca3 N5 2.615195 1_555
Ca3 N8 2.717486 1_544
Ca3 N7 2.726298 1_555
Ca3 N1 2.775386 1_445
Ca3 N3 2.998141 1_555
Ca4 N5 2.381300 1_555
Ca4 N2 2.385789 1_555
Ca4 N1 2.415408 1_555
Ca4 N4 2.688137 1_554
Ca4 N7 2.732650 1_565
Ca5 N4 2.381300 1_555
Ca5 N3 2.385789 1_555
Ca5 N0 2.415408 1_555
Ca5 N5 2.688137 1_556
Ca5 N6 2.732650 1_545
N0 V4 1.897333 1_545
N0 V0 1.927531 1_455
N0 V2 1.970265 1_445
N1 V5 1.897333 1_565
N1 V1 1.927531 1_655
N1 V3 1.970265 1_665
N2 V4 1.948460 1_655
N2 V2 1.951566 1_555
N3 V5 1.948460 1_455
N3 V3 1.951566 1_555
N4 V1 1.927433 1_656
N4 V0 1.963365 1_555
N5 V0 1.927433 1_454
N5 V1 1.963365 1_555
N6 V4 1.922299 1_555
N6 V2 1.923282 1_555
N6 V3 2.008079 1_565
N7 V5 1.922299 1_555
N7 V3 1.923282 1_555
N7 V2 2.008079 1_545
N8 V4 1.855679 1_555
N8 V1 1.884166 1_556
N9 V5 1.855679 1_555
N9 V0 1.884166 1_554
