# generated using pymatgen
data_VOF2
_symmetry_space_group_name_H-M   'P 1'
_cell_length_a   5.07246795
_cell_length_b   5.27293010
_cell_length_c   7.29201456
_cell_angle_alpha   93.93895692
_cell_angle_beta   90.00035048
_cell_angle_gamma   90.00025450
_symmetry_Int_Tables_number   1
_chemical_formula_structural   VOF2
_chemical_formula_sum   'V4 O4 F8'
_cell_volume   194.57711056
_cell_formula_units_Z   4
loop_
 _symmetry_equiv_pos_site_id
 _symmetry_equiv_pos_as_xyz
  1  'x, y, z'
loop_
 _atom_site_type_symbol
 _atom_site_label
 _atom_site_symmetry_multiplicity
 _atom_site_fract_x
 _atom_site_fract_y
 _atom_site_fract_z
 _atom_site_occupancy
  V  V0  1  0.47961977  0.50035977  0.53616757  1
  V  V1  1  0.52076219  0.50029235  0.03633116  1
  V  V2  1  0.02060895  0.99945727  0.96370970  1
  V  V3  1  0.97955058  0.99982158  0.46381237  1
  O  O0  1  0.59067728  0.50067932  0.25469818  1
  O  O1  1  0.09040305  0.99934192  0.74535156  1
  O  O2  1  0.90931284  0.00053563  0.24551242  1
  O  O3  1  0.40925895  0.49965570  0.75447231  1
  F  F0  1  0.69255691  0.18806793  0.94970553  1
  F  F1  1  0.17765650  0.68269467  0.45025690  1
  F  F2  1  0.67770604  0.81746672  0.54966251  1
  F  F3  1  0.19271180  0.31175374  0.05029528  1
  F  F4  1  0.82001266  0.68451010  0.95001697  1
  F  F5  1  0.30962110  0.18593731  0.44986613  1
  F  F6  1  0.80961728  0.31418184  0.55009425  1
  F  F7  1  0.31992612  0.81524515  0.05004616  1
loop_
_geom_bond_atom_site_label_1
_geom_bond_atom_site_label_2
_geom_bond_distance
_geom_bond_site_symmetry_2
O0 V1 1.631212 1_555
O0 V0 2.128499 1_555
O1 V2 1.631115 1_555
O1 V3 2.128765 1_455
O2 V3 1.631484 1_545
O2 V2 2.130682 1_644
O3 V0 1.631655 1_555
O3 V1 2.131498 1_556
F0 V1 1.930275 1_556
F0 V2 1.944863 1_645
F1 V0 1.935374 1_555
F1 V3 1.947585 1_455
F2 V3 1.934793 1_555
F2 V0 1.947439 1_555
F3 V2 1.931208 1_544
F3 V1 1.944628 1_555
F4 V1 1.930761 1_556
F4 V2 1.944331 1_655
F5 V0 1.935194 1_555
F5 V3 1.946876 1_445
F6 V3 1.934745 1_545
F6 V0 1.946718 1_555
F7 V2 1.931070 1_554
F7 V1 1.945000 1_555
