# generated using pymatgen
data_Nd(BO2)9
_symmetry_space_group_name_H-M   'P 1'
_cell_length_a   7.88546299
_cell_length_b   9.95481025
_cell_length_c   16.40972000
_cell_angle_alpha   90.00000000
_cell_angle_beta   90.00000000
_cell_angle_gamma   90.03744856
_symmetry_Int_Tables_number   1
_chemical_formula_structural   Nd(BO2)9
_chemical_formula_sum   'Nd4 B36 O72'
_cell_volume   1288.13464746
_cell_formula_units_Z   4
loop_
 _symmetry_equiv_pos_site_id
 _symmetry_equiv_pos_as_xyz
  1  'x, y, z'
loop_
 _atom_site_type_symbol
 _atom_site_label
 _atom_site_symmetry_multiplicity
 _atom_site_fract_x
 _atom_site_fract_y
 _atom_site_fract_z
 _atom_site_occupancy
  Nd  Nd0  1  0.26726500  0.63836200  0.28908400  1
  Nd  Nd1  1  0.76726500  0.13836200  0.21091600  1
  Nd  Nd2  1  0.73273500  0.36163800  0.71091600  1
  Nd  Nd3  1  0.23273500  0.86163800  0.78908400  1
  B  B0  1  0.87677000  0.53066900  0.40154600  1
  B  B1  1  0.37677000  0.03066900  0.09845400  1
  B  B2  1  0.12323000  0.46933100  0.59845400  1
  B  B3  1  0.62323000  0.96933100  0.90154600  1
  B  B4  1  0.35657100  0.77663400  0.09459300  1
  B  B5  1  0.85657100  0.27663400  0.40540700  1
  B  B6  1  0.64342900  0.22336600  0.90540700  1
  B  B7  1  0.14342900  0.72336600  0.59459300  1
  B  B8  1  0.33360700  0.89695400  0.96506900  1
  B  B9  1  0.83360700  0.39695400  0.53493100  1
  B  B10  1  0.66639300  0.10304600  0.03493100  1
  B  B11  1  0.16639300  0.60304600  0.46506900  1
  B  B12  1  0.67136800  0.63681000  0.29209100  1
  B  B13  1  0.17136800  0.13681000  0.20790900  1
  B  B14  1  0.32863200  0.36319000  0.70790900  1
  B  B15  1  0.82863200  0.86319000  0.79209100  1
  B  B16  1  0.11028700  0.37553000  0.23458200  1
  B  B17  1  0.61028700  0.87553000  0.26541800  1
  B  B18  1  0.88971300  0.62447000  0.76541800  1
  B  B19  1  0.38971300  0.12447000  0.73458200  1
  B  B20  1  0.11233400  0.90763800  0.25419300  1
  B  B21  1  0.61233400  0.40763800  0.24580700  1
  B  B22  1  0.88766600  0.09236200  0.74580700  1
  B  B23  1  0.38766600  0.59236200  0.75419300  1
  B  B24  1  0.86494200  0.51526600  0.17844100  1
  B  B25  1  0.36494200  0.01526600  0.32155900  1
  B  B26  1  0.13505800  0.48473400  0.82155900  1
  B  B27  1  0.63505800  0.98473400  0.67844100  1
  B  B28  1  0.90364700  0.66588400  0.06213600  1
  B  B29  1  0.40364700  0.16588400  0.43786400  1
  B  B30  1  0.09635300  0.33411600  0.93786400  1
  B  B31  1  0.59635300  0.83411600  0.56213600  1
  B  B32  1  0.87067500  0.77630100  0.19487600  1
  B  B33  1  0.37067500  0.27630100  0.30512400  1
  B  B34  1  0.12932500  0.22369900  0.80512400  1
  B  B35  1  0.62932500  0.72369900  0.69487600  1
  O  O0  1  0.83038900  0.52294100  0.48885900  1
  O  O1  1  0.33038900  0.02294100  0.01114100  1
  O  O2  1  0.16961100  0.47705900  0.51114100  1
  O  O3  1  0.66961100  0.97705900  0.98885900  1
  O  O4  1  0.34164200  0.66122000  0.14160300  1
  O  O5  1  0.84164200  0.16122000  0.35839700  1
  O  O6  1  0.65835800  0.33878000  0.85839700  1
  O  O7  1  0.15835800  0.83878000  0.64160300  1
  O  O8  1  0.77158000  0.63257700  0.36442500  1
  O  O9  1  0.27158000  0.13257700  0.13557500  1
  O  O10  1  0.22842000  0.36742300  0.63557500  1
  O  O11  1  0.72842000  0.86742300  0.86442500  1
  O  O12  1  0.25148600  0.90157800  0.30480200  1
  O  O13  1  0.75148600  0.40157800  0.19519800  1
  O  O14  1  0.74851400  0.09842200  0.69519800  1
  O  O15  1  0.24851400  0.59842200  0.80480200  1
  O  O16  1  0.55546700  0.75271100  0.29157600  1
  O  O17  1  0.05546700  0.25271100  0.20842400  1
  O  O18  1  0.44453300  0.24728900  0.70842400  1
  O  O19  1  0.94453300  0.74728900  0.79157600  1
  O  O20  1  0.25747500  0.38763900  0.27975400  1
  O  O21  1  0.75747500  0.88763900  0.22024600  1
  O  O22  1  0.74252500  0.61236100  0.72024600  1
  O  O23  1  0.24252500  0.11236100  0.77975400  1
  O  O24  1  0.55586600  0.52308200  0.28158200  1
  O  O25  1  0.05586600  0.02308200  0.21841800  1
  O  O26  1  0.44413400  0.47691800  0.71841800  1
  O  O27  1  0.94413400  0.97691800  0.78158200  1
  O  O28  1  0.03238300  0.49537200  0.21780000  1
  O  O29  1  0.53238300  0.99537200  0.28220000  1
  O  O30  1  0.96761700  0.50462800  0.78220000  1
  O  O31  1  0.46761700  0.00462800  0.71780000  1
  O  O32  1  0.85572500  0.39624700  0.36332100  1
  O  O33  1  0.35572500  0.89624700  0.13667900  1
  O  O34  1  0.14427500  0.60375300  0.63667900  1
  O  O35  1  0.64427500  0.10375300  0.86332100  1
  O  O36  1  0.37549900  0.77463900  0.01077900  1
  O  O37  1  0.87549900  0.27463900  0.48922100  1
  O  O38  1  0.62450100  0.22536100  0.98922100  1
  O  O39  1  0.12450100  0.72536100  0.51077900  1
  O  O40  1  0.78835900  0.64370100  0.21764200  1
  O  O41  1  0.28835900  0.14370100  0.28235800  1
  O  O42  1  0.21164100  0.35629900  0.78235800  1
  O  O43  1  0.71164100  0.85629900  0.71764200  1
  O  O44  1  0.05476800  0.57795400  0.39412900  1
  O  O45  1  0.55476800  0.07795400  0.10587100  1
  O  O46  1  0.94523200  0.42204600  0.60587100  1
  O  O47  1  0.44523200  0.92204600  0.89412900  1
  O  O48  1  0.33528000  0.63314400  0.43344900  1
  O  O49  1  0.83528000  0.13314400  0.06655100  1
  O  O50  1  0.66472000  0.36685600  0.56655100  1
  O  O51  1  0.16472000  0.86685600  0.93344900  1
  O  O52  1  0.87907700  0.53879100  0.09241500  1
  O  O53  1  0.37907700  0.03879100  0.40758500  1
  O  O54  1  0.12092300  0.46120900  0.90758500  1
  O  O55  1  0.62092300  0.96120900  0.59241500  1
  O  O56  1  0.90516100  0.77906900  0.10885800  1
  O  O57  1  0.40516100  0.27906900  0.39114200  1
  O  O58  1  0.09483900  0.22093100  0.89114200  1
  O  O59  1  0.59483900  0.72093100  0.60885800  1
  O  O60  1  0.03060900  0.78714800  0.24331500  1
  O  O61  1  0.53060900  0.28714800  0.25668500  1
  O  O62  1  0.96939100  0.21285200  0.75668500  1
  O  O63  1  0.46939100  0.71285200  0.74331500  1
  O  O64  1  0.92843700  0.67522300  0.97806500  1
  O  O65  1  0.42843700  0.17522300  0.52193500  1
  O  O66  1  0.07156300  0.32477700  0.02193500  1
  O  O67  1  0.57156300  0.82477700  0.47806500  1
  O  O68  1  0.37500400  0.48887300  0.07706800  1
  O  O69  1  0.87500400  0.98887300  0.42293200  1
  O  O70  1  0.62499600  0.51112700  0.92293200  1
  O  O71  1  0.12499600  0.01112700  0.57706800  1
loop_
_geom_bond_atom_site_label_1
_geom_bond_atom_site_label_2
_geom_bond_distance
_geom_bond_site_symmetry_2
Nd0 O48 2.429505 1_555
Nd0 O44 2.477783 1_555
Nd0 O60 2.498790 1_555
Nd0 O4 2.500514 1_555
Nd0 O20 2.501732 1_555
Nd0 O16 2.541418 1_555
Nd0 O24 2.552368 1_555
Nd0 O28 2.611804 1_555
Nd0 O12 2.635949 1_555
Nd1 O49 2.429505 1_555
Nd1 O45 2.477783 1_555
Nd1 O61 2.498790 1_555
Nd1 O5 2.500514 1_555
Nd1 O21 2.501732 1_545
Nd1 O17 2.541418 1_655
Nd1 O25 2.552368 1_655
Nd1 O29 2.611804 1_545
Nd1 O13 2.635949 1_555
Nd2 O50 2.429505 1_555
Nd2 O46 2.477783 1_555
Nd2 O62 2.498790 1_555
Nd2 O6 2.500514 1_555
Nd2 O22 2.501732 1_555
Nd2 O18 2.541418 1_555
Nd2 O26 2.552368 1_555
Nd2 O30 2.611804 1_555
Nd2 O14 2.635949 1_555
Nd3 O51 2.429505 1_555
Nd3 O47 2.477783 1_555
Nd3 O63 2.498790 1_555
Nd3 O7 2.500514 1_555
Nd3 O23 2.501732 1_565
Nd3 O19 2.541418 1_455
Nd3 O27 2.552368 1_455
Nd3 O31 2.611804 1_565
Nd3 O15 2.635949 1_555
B0 O8 1.445455 1_555
B0 O0 1.480712 1_555
B0 O44 1.485128 1_655
B0 O32 1.487057 1_555
B1 O9 1.445455 1_555
B1 O1 1.480712 1_555
B1 O45 1.485128 1_555
B1 O33 1.487057 1_545
B2 O10 1.445455 1_555
B2 O2 1.480712 1_555
B2 O46 1.485128 1_455
B2 O34 1.487057 1_555
B3 O11 1.445455 1_555
B3 O3 1.480712 1_555
B3 O47 1.485128 1_555
B3 O35 1.487057 1_565
B4 O33 1.376530 1_555
B4 O36 1.383583 1_555
B4 O4 1.388812 1_555
B5 O32 1.376530 1_555
B5 O37 1.383583 1_555
B5 O5 1.388812 1_555
B6 O35 1.376530 1_555
B6 O38 1.383583 1_555
B6 O6 1.388812 1_555
B7 O34 1.376530 1_555
B7 O39 1.383583 1_555
B7 O7 1.388812 1_555
B8 O51 1.460153 1_555
B8 O1 1.464658 1_566
B8 O36 1.467953 1_556
B8 O47 1.480549 1_555
B9 O50 1.460153 1_555
B9 O0 1.464658 1_555
B9 O37 1.467953 1_555
B9 O46 1.480549 1_555
B10 O49 1.460153 1_555
B10 O3 1.464658 1_544
B10 O38 1.467953 1_554
B10 O45 1.480549 1_555
B11 O48 1.460153 1_555
B11 O2 1.464658 1_555
B11 O39 1.467953 1_555
B11 O44 1.480549 1_555
B12 O8 1.426600 1_555
B12 O24 1.462760 1_555
B12 O16 1.472384 1_555
B12 O40 1.532384 1_555
B13 O9 1.426600 1_555
B13 O25 1.462760 1_555
B13 O17 1.472384 1_555
B13 O41 1.532384 1_555
B14 O10 1.426600 1_555
B14 O26 1.462760 1_555
B14 O18 1.472384 1_555
B14 O42 1.532384 1_555
B15 O11 1.426600 1_555
B15 O27 1.462760 1_555
B15 O19 1.472384 1_555
B15 O43 1.532384 1_555
B16 O17 1.365751 1_555
B16 O28 1.370194 1_555
B16 O20 1.382357 1_555
B17 O16 1.365751 1_555
B17 O29 1.370194 1_555
B17 O21 1.382357 1_555
B18 O19 1.365751 1_555
B18 O30 1.370194 1_555
B18 O22 1.382357 1_555
B19 O18 1.365751 1_555
B19 O31 1.370194 1_555
B19 O23 1.382357 1_555
B20 O25 1.365390 1_565
B20 O60 1.372898 1_555
B20 O12 1.377476 1_555
B21 O24 1.365390 1_555
B21 O61 1.372898 1_555
B21 O13 1.377476 1_555
B22 O27 1.365390 1_545
B22 O62 1.372898 1_555
B22 O14 1.377476 1_555
B23 O26 1.365390 1_555
B23 O63 1.372898 1_555
B23 O15 1.377476 1_555
B24 O52 1.435278 1_555
B24 O13 1.468174 1_555
B24 O28 1.483251 1_655
B24 O40 1.553764 1_555
B25 O53 1.435278 1_555
B25 O12 1.468174 1_545
B25 O29 1.483251 1_545
B25 O41 1.553764 1_555
B26 O54 1.435278 1_555
B26 O15 1.468174 1_555
B26 O30 1.483251 1_455
B26 O42 1.553764 1_555
B27 O55 1.435278 1_555
B27 O14 1.468174 1_565
B27 O31 1.483251 1_565
B27 O43 1.553764 1_555
B28 O56 1.362893 1_555
B28 O52 1.372878 1_555
B28 O64 1.396452 1_554
B29 O57 1.362893 1_555
B29 O53 1.372878 1_555
B29 O65 1.396452 1_555
B30 O58 1.362893 1_555
B30 O54 1.372878 1_555
B30 O66 1.396452 1_556
B31 O59 1.362893 1_555
B31 O55 1.372878 1_555
B31 O67 1.396452 1_555
B32 O56 1.437748 1_555
B32 O21 1.483187 1_555
B32 O60 1.494593 1_655
B32 O40 1.517299 1_555
B33 O57 1.437748 1_555
B33 O20 1.483187 1_555
B33 O61 1.494593 1_555
B33 O41 1.517299 1_555
B34 O58 1.437748 1_555
B34 O23 1.483187 1_555
B34 O62 1.494593 1_455
B34 O42 1.517299 1_555
B35 O59 1.437748 1_555
B35 O22 1.483187 1_555
B35 O63 1.494593 1_555
B35 O43 1.517299 1_555
O4 O68 2.033432 1_555
O5 O69 2.033432 1_545
O6 O70 2.033432 1_555
O7 O71 2.033432 1_565
