# generated using pymatgen
data_HoAlNi
_symmetry_space_group_name_H-M   'P 1'
_cell_length_a   5.31607150
_cell_length_b   5.31592867
_cell_length_c   8.47617100
_cell_angle_alpha   90.00000000
_cell_angle_beta   90.00000000
_cell_angle_gamma   60.61627291
_symmetry_Int_Tables_number   1
_chemical_formula_structural   HoAlNi
_chemical_formula_sum   'Ho4 Al4 Ni4'
_cell_volume   208.71991959
_cell_formula_units_Z   4
loop_
 _symmetry_equiv_pos_site_id
 _symmetry_equiv_pos_as_xyz
  1  'x, y, z'
loop_
 _atom_site_type_symbol
 _atom_site_label
 _atom_site_symmetry_multiplicity
 _atom_site_fract_x
 _atom_site_fract_y
 _atom_site_fract_z
 _atom_site_occupancy
  Ho  Ho0  1  0.33278400  0.33277100  0.54435300  1
  Ho  Ho1  1  0.66948100  0.66951500  0.42652000  1
  Ho  Ho2  1  0.66948100  0.66951500  0.07348000  1
  Ho  Ho3  1  0.33278400  0.33277100  0.95564700  1
  Al  Al0  1  0.99595400  0.99592900  0.48882300  1
  Al  Al1  1  0.99595400  0.99592900  0.01117700  1
  Al  Al2  1  0.83237100  0.34093900  0.75000000  1
  Al  Al3  1  0.34092200  0.83234200  0.75000000  1
  Ni  Ni0  1  0.83164700  0.83164700  0.75000000  1
  Ni  Ni1  1  0.16813500  0.66308800  0.25000000  1
  Ni  Ni2  1  0.66320500  0.16821400  0.25000000  1
  Ni  Ni3  1  0.16728300  0.16733800  0.25000000  1
loop_
_geom_bond_atom_site_label_1
_geom_bond_atom_site_label_2
_geom_bond_distance
_geom_bond_site_symmetry_2
Ho0 Ni3 2.920908 1_555
Ho0 Ni1 2.926804 1_555
Ho0 Ni2 2.927074 1_555
Ho0 Ni0 3.199266 1_545
Ho0 Ni0 3.199325 1_455
Ho0 Ho1 3.231064 1_545
Ho0 Ho1 3.231350 1_455
Ho0 Ho1 3.248082 1_555
Ho1 Ho2 2.992427 1_555
Ho1 Ni1 3.029540 1_655
Ho1 Ni2 3.030021 1_565
Ho1 Ni2 3.070603 1_555
Ho1 Ni1 3.071225 1_555
Ho1 Ni3 3.071765 1_655
Ho1 Ni3 3.071865 1_565
Ho1 Ni0 3.119780 1_555
Ho2 Ni1 3.029540 1_655
Ho2 Ni2 3.030021 1_565
Ho2 Ni2 3.070603 1_555
Ho2 Ni1 3.071225 1_555
Ho2 Ni3 3.071765 1_655
Ho2 Ni3 3.071865 1_565
Ho2 Ni0 3.119780 1_554
Ho2 Ho3 3.231064 1_564
Ho2 Ho3 3.231350 1_654
Ho2 Ho3 3.248082 1_554
Ho3 Ni3 2.920908 1_556
Ho3 Ni1 2.926804 1_556
Ho3 Ni2 2.927074 1_556
Ho3 Ni0 3.199266 1_545
Ho3 Ni0 3.199325 1_455
Al0 Ni2 2.544773 1_565
Al0 Ni1 2.544992 1_655
Al0 Ni3 2.563601 1_665
Al0 Ni0 2.678619 1_555
Al0 Al3 2.730419 1_655
Al0 Al2 2.730509 1_565
Al0 Ho1 3.042559 1_555
Al0 Ho0 3.108230 1_655
Al0 Ho0 3.108365 1_565
Al0 Ho0 3.127393 1_665
Al0 Ho1 3.164348 1_655
Al0 Ho1 3.164533 1_565
Al1 Ni2 2.544773 1_565
Al1 Ni1 2.544992 1_655
Al1 Ni3 2.563601 1_665
Al1 Ni0 2.678619 1_554
Al1 Al3 2.730419 1_654
Al1 Al2 2.730509 1_564
Al1 Ho2 3.042559 1_555
Al1 Ho3 3.108230 1_654
Al1 Ho3 3.108365 1_564
Al1 Ho3 3.127393 1_664
Al1 Ho2 3.164348 1_655
Al1 Ho2 3.164533 1_565
Al2 Ni0 2.606682 1_555
Al2 Al3 2.636717 1_555
Al2 Ni0 2.709250 1_545
Al2 Al3 2.728724 1_645
Al2 Ho1 3.135979 1_555
Al2 Ho2 3.135979 1_556
Al2 Ho0 3.162872 1_655
Al2 Ho3 3.162872 1_655
Al2 Ho3 3.194829 1_555
Al2 Ho0 3.194829 1_555
Al3 Ni0 2.606918 1_555
Al3 Ni0 2.709157 1_455
Al3 Ho2 3.135960 1_556
Al3 Ho1 3.135960 1_555
Al3 Ho3 3.162947 1_565
Al3 Ho0 3.162947 1_565
Al3 Ho0 3.194631 1_555
Al3 Ho3 3.194631 1_555
Ni1 Ni3 2.637597 1_555
Ni1 Ni2 2.655743 1_555
Ni1 Ni3 2.678338 1_565
Ni1 Ni2 2.709698 1_465
Ni2 Ni3 2.638645 1_555
Ni2 Ni3 2.677433 1_655
