# generated using pymatgen
data_Na3Co2SbO6
_symmetry_space_group_name_H-M   'P 1'
_cell_length_a   5.42599938
_cell_length_b   5.72327175
_cell_length_c   5.41621125
_cell_angle_alpha   99.52999307
_cell_angle_beta   119.75764504
_cell_angle_gamma   99.01660804
_symmetry_Int_Tables_number   1
_chemical_formula_structural   Na3Co2SbO6
_chemical_formula_sum   'Na3 Co2 Sb1 O6'
_cell_volume   138.28299540
_cell_formula_units_Z   1
loop_
 _symmetry_equiv_pos_site_id
 _symmetry_equiv_pos_as_xyz
  1  'x, y, z'
loop_
 _atom_site_type_symbol
 _atom_site_label
 _atom_site_symmetry_multiplicity
 _atom_site_fract_x
 _atom_site_fract_y
 _atom_site_fract_z
 _atom_site_occupancy
  Na  Na0  1  0.50082600  0.50051600  0.49937000  1
  Na  Na1  1  0.82605000  0.49989900  0.17402900  1
  Na  Na2  1  0.17309200  0.49952700  0.82683500  1
  Co  Co0  1  0.66508100  0.00016000  0.33312900  1
  Co  Co1  1  0.33383700  0.99994400  0.66643600  1
  Sb  Sb0  1  0.99949000  0.99991800  0.99926000  1
  O  O0  1  0.75523800  0.20407200  0.75372200  1
  O  O1  1  0.24775800  0.79749400  0.24738000  1
  O  O2  1  0.93053000  0.79339400  0.61507000  1
  O  O3  1  0.38325500  0.20473800  0.06781400  1
  O  O4  1  0.61692300  0.79470400  0.93212500  1
  O  O5  1  0.06792000  0.20563500  0.38483100  1
loop_
_geom_bond_atom_site_label_1
_geom_bond_atom_site_label_2
_geom_bond_distance
_geom_bond_site_symmetry_2
Na0 O3 2.367943 1_555
Na0 O2 2.369694 1_555
Na0 O4 2.370791 1_555
Na0 O5 2.390588 1_555
Na0 O1 2.505305 1_555
Na0 O0 2.510438 1_555
Na1 O5 2.388389 1_655
Na1 O4 2.389002 1_554
Na1 O0 2.418285 1_554
Na1 O2 2.424408 1_555
Na1 O1 2.438557 1_655
Na1 O3 2.447684 1_555
Na2 O3 2.388550 1_556
Na2 O2 2.389682 1_455
Na2 O1 2.416965 1_556
Na2 O0 2.417034 1_455
Na2 O5 2.428099 1_555
Na2 O4 2.453829 1_555
Co0 O0 2.150627 1_555
Co0 O1 2.154761 1_545
Co0 O4 2.159367 1_544
Co0 O3 2.170553 1_555
Co0 O5 2.171812 1_655
Co0 O2 2.180851 1_545
Co1 O1 2.149288 1_555
Co1 O3 2.156583 1_566
Co1 O0 2.173323 1_565
Co1 O5 2.176339 1_565
Co1 O2 2.177063 1_455
Co1 O4 2.177395 1_555
O0 Sb0 2.034845 1_545
O1 Sb0 2.042184 1_454
O2 Sb0 2.034974 1_555
O3 Sb0 2.042376 1_444
O4 Sb0 2.041025 1_555
O5 Sb0 2.040666 1_444
