# generated using pymatgen
data_Ti2CoOs
_symmetry_space_group_name_H-M   'P 1'
_cell_length_a   4.30887206
_cell_length_b   4.30887206
_cell_length_c   4.30887206
_cell_angle_alpha   60.00000000
_cell_angle_beta   60.00000000
_cell_angle_gamma   60.00000000
_symmetry_Int_Tables_number   1
_chemical_formula_structural   Ti2CoOs
_chemical_formula_sum   'Ti2 Co1 Os1'
_cell_volume   56.56864788
_cell_formula_units_Z   1
loop_
 _symmetry_equiv_pos_site_id
 _symmetry_equiv_pos_as_xyz
  1  'x, y, z'
loop_
 _atom_site_type_symbol
 _atom_site_label
 _atom_site_symmetry_multiplicity
 _atom_site_fract_x
 _atom_site_fract_y
 _atom_site_fract_z
 _atom_site_occupancy
  Ti  Ti0  1  0.25000000  0.25000000  0.25000000  1
  Ti  Ti1  1  0.75000000  0.75000000  0.75000000  1
  Co  Co0  1  0.50000000  0.50000000  0.50000000  1
  Os  Os0  1  -0.00000000  0.00000000  -0.00000000  1
loop_
_geom_bond_atom_site_label_1
_geom_bond_atom_site_label_2
_geom_bond_distance
_geom_bond_site_symmetry_2
Co0 Ti1 2.638634 1_545
Co0 Ti0 2.638634 1_565
Co0 Ti0 2.638634 1_655
Co0 Ti1 2.638634 1_455
Co0 Ti1 2.638634 1_555
Co0 Ti1 2.638634 1_554
Co0 Ti0 2.638634 1_556
Co0 Ti0 2.638634 1_555
Os0 Ti0 2.638634 1_545
Os0 Ti0 2.638634 1_554
Os0 Ti1 2.638634 1_444
Os0 Ti1 2.638634 1_445
Os0 Ti1 2.638634 1_544
Os0 Ti1 2.638634 1_454
Os0 Ti0 2.638634 1_455
Os0 Ti0 2.638634 1_555
