# generated using pymatgen
data_Ca2PtAu
_symmetry_space_group_name_H-M   'P 1'
_cell_length_a   5.74325115
_cell_length_b   5.74325115
_cell_length_c   4.47844176
_cell_angle_alpha   90.00000000
_cell_angle_beta   90.00000000
_cell_angle_gamma   139.39071965
_symmetry_Int_Tables_number   1
_chemical_formula_structural   Ca2PtAu
_chemical_formula_sum   'Ca2 Pt1 Au1'
_cell_volume   96.15125217
_cell_formula_units_Z   1
loop_
 _symmetry_equiv_pos_site_id
 _symmetry_equiv_pos_as_xyz
  1  'x, y, z'
loop_
 _atom_site_type_symbol
 _atom_site_label
 _atom_site_symmetry_multiplicity
 _atom_site_fract_x
 _atom_site_fract_y
 _atom_site_fract_z
 _atom_site_occupancy
  Ca  Ca0  1  0.85973573  0.14026427  -0.00000000  1
  Ca  Ca1  1  0.14112358  0.85887642  0.50000000  1
  Pt  Pt0  1  0.42128457  0.57871543  0.50000000  1
  Au  Au0  1  0.57785611  0.42214389  0.00000000  1
loop_
_geom_bond_atom_site_label_1
_geom_bond_atom_site_label_2
_geom_bond_distance
_geom_bond_site_symmetry_2
Ca0 Pt0 3.070129 1_544
Ca0 Pt0 3.070129 1_545
Ca0 Pt0 3.070129 1_655
Ca0 Pt0 3.070129 1_654
Ca1 Pt0 3.018102 1_555
Ca1 Pt0 3.095262 1_565
Ca1 Pt0 3.095262 1_455
Au0 Pt0 2.803406 1_555
Au0 Pt0 2.803406 1_554
Au0 Ca0 3.036616 1_555
Au0 Ca1 3.074181 1_655
Au0 Ca1 3.074181 1_544
Au0 Ca1 3.074181 1_545
Au0 Ca1 3.074181 1_654
Au0 Ca0 3.081119 1_565
Au0 Ca0 3.081119 1_455
