# generated using pymatgen
data_Mg14SnW
_symmetry_space_group_name_H-M   'P 1'
_cell_length_a   6.26259076
_cell_length_b   6.19974851
_cell_length_c   10.25721082
_cell_angle_alpha   90.00000000
_cell_angle_beta   90.00000000
_cell_angle_gamma   119.66861655
_symmetry_Int_Tables_number   1
_chemical_formula_structural   Mg14SnW
_chemical_formula_sum   'Mg14 Sn1 W1'
_cell_volume   346.04180519
_cell_formula_units_Z   1
loop_
 _symmetry_equiv_pos_site_id
 _symmetry_equiv_pos_as_xyz
  1  'x, y, z'
loop_
 _atom_site_type_symbol
 _atom_site_label
 _atom_site_symmetry_multiplicity
 _atom_site_fract_x
 _atom_site_fract_y
 _atom_site_fract_z
 _atom_site_occupancy
  Mg  Mg0  1  0.16820625  0.33410262  0.62500000  1
  Mg  Mg1  1  0.16516877  0.83258389  0.62500000  1
  Mg  Mg2  1  0.66839027  0.33364029  0.12500000  1
  Mg  Mg3  1  0.66453390  0.33455290  0.62500000  1
  Mg  Mg4  1  0.66839027  0.83474897  0.12500000  1
  Mg  Mg5  1  0.66453390  0.82998000  0.62500000  1
  Mg  Mg6  1  0.33083381  0.15831386  0.36685282  1
  Mg  Mg7  1  0.33083381  0.15831386  0.88314718  1
  Mg  Mg8  1  0.33083381  0.67252095  0.36685282  1
  Mg  Mg9  1  0.33083381  0.67252095  0.88314718  1
  Mg  Mg10  1  0.83163391  0.16581745  0.38170787  1
  Mg  Mg11  1  0.83163391  0.16581745  0.86829213  1
  Mg  Mg12  1  0.84426315  0.67213207  0.36716589  1
  Mg  Mg13  1  0.84426315  0.67213207  0.88283411  1
  Sn  Sn0  1  0.15892636  0.32946268  0.12500000  1
  W  W0  1  0.16672093  0.83335997  0.12500000  1
loop_
_geom_bond_atom_site_label_1
_geom_bond_atom_site_label_2
_geom_bond_distance
_geom_bond_site_symmetry_2
Mg0 Mg11 3.095457 1_455
Mg0 Mg10 3.095457 1_455
Mg0 Mg1 3.099918 1_545
Mg0 Mg1 3.099918 1_555
Mg0 Mg5 3.106916 1_555
Mg0 Mg3 3.106916 1_555
Mg0 Mg5 3.155676 1_445
Mg0 Mg3 3.155677 1_455
Mg0 Mg6 3.214825 1_555
Mg0 Mg7 3.214825 1_555
Mg0 Mg8 3.214831 1_555
Mg0 Mg9 3.214831 1_555
Mg1 Mg3 3.127312 1_455
Mg1 Mg5 3.127312 1_455
Mg1 Mg3 3.135341 1_565
Mg1 Mg5 3.135342 1_555
Mg1 Mg12 3.169157 1_455
Mg1 Mg13 3.169157 1_455
Mg1 Mg8 3.176726 1_555
Mg1 Mg9 3.176726 1_555
Mg1 Mg7 3.176732 1_565
Mg1 Mg6 3.176732 1_565
Mg2 Sn0 3.084929 1_655
Mg2 Mg7 3.087018 1_554
Mg2 Mg6 3.087018 1_555
Mg2 Mg4 3.093001 1_545
Mg2 Mg4 3.106748 1_555
Mg2 W0 3.125112 1_655
Mg2 W0 3.137496 1_545
Mg2 Sn0 3.177824 1_555
Mg3 Mg5 3.071523 1_555
Mg3 Mg5 3.128225 1_545
Mg3 Mg6 3.211221 1_555
Mg3 Mg7 3.211221 1_555
Mg4 Sn0 3.084929 1_665
Mg4 Mg8 3.087018 1_555
Mg4 Mg9 3.087018 1_554
Mg4 W0 3.125112 1_655
Mg4 W0 3.137496 1_555
Mg4 Sn0 3.177823 1_555
Mg5 Mg9 3.211221 1_555
Mg5 Mg8 3.211221 1_555
Mg6 Mg8 3.011794 1_545
Mg6 W0 3.036330 1_545
Mg6 Sn0 3.093518 1_555
Mg6 Mg8 3.187955 1_555
Mg7 Mg9 3.011794 1_545
Mg7 W0 3.036330 1_546
Mg7 Sn0 3.093518 1_556
Mg7 Mg9 3.187955 1_555
Mg8 W0 3.036324 1_555
Mg8 Sn0 3.093525 1_555
Mg9 W0 3.036324 1_556
Mg9 Sn0 3.093525 1_556
Mg10 Mg3 3.082328 1_555
Mg10 Mg5 3.082335 1_545
Mg10 Mg12 3.104222 1_555
Mg10 Mg12 3.104222 1_545
Mg10 Mg8 3.117268 1_545
Mg10 Mg6 3.117268 1_555
Mg10 Mg8 3.153254 1_655
Mg10 Mg6 3.153254 1_655
Mg10 Sn0 3.178863 1_655
Mg10 Mg2 3.180248 1_555
Mg10 Mg4 3.180254 1_545
Mg11 Mg3 3.082328 1_555
Mg11 Mg5 3.082335 1_545
Mg11 Mg13 3.104222 1_555
Mg11 Mg13 3.104222 1_545
Mg11 Mg9 3.117268 1_545
Mg11 Mg7 3.117268 1_555
Mg11 Mg9 3.153254 1_655
Mg11 Mg7 3.153254 1_655
Mg11 Sn0 3.178863 1_656
Mg11 Mg2 3.180248 1_556
Mg11 Mg4 3.180254 1_546
Mg12 W0 3.041200 1_655
Mg12 Mg6 3.046002 1_665
Mg12 Mg8 3.046002 1_655
Mg12 Mg4 3.082019 1_555
Mg12 Mg2 3.082025 1_555
Mg12 Mg5 3.210806 1_555
Mg12 Mg3 3.210811 1_555
Mg12 Mg6 3.216593 1_555
Mg12 Mg8 3.216594 1_555
Mg13 W0 3.041200 1_656
Mg13 Mg7 3.046002 1_665
Mg13 Mg9 3.046002 1_655
Mg13 Mg4 3.082019 1_556
Mg13 Mg2 3.082025 1_556
Mg13 Mg5 3.210806 1_555
Mg13 Mg3 3.210811 1_555
Mg13 Mg7 3.216593 1_555
Mg13 Mg9 3.216594 1_555
Sn0 W0 3.100164 1_545
Sn0 W0 3.100164 1_555
