# generated using pymatgen
data_DyErC4
_symmetry_space_group_name_H-M   'P 1'
_cell_length_a   3.63785600
_cell_length_b   3.63785600
_cell_length_c   6.18568500
_cell_angle_alpha   90.00000000
_cell_angle_beta   90.00000000
_cell_angle_gamma   90.00000000
_symmetry_Int_Tables_number   1
_chemical_formula_structural   DyErC4
_chemical_formula_sum   'Dy1 Er1 C4'
_cell_volume   81.86133226
_cell_formula_units_Z   1
loop_
 _symmetry_equiv_pos_site_id
 _symmetry_equiv_pos_as_xyz
  1  'x, y, z'
loop_
 _atom_site_type_symbol
 _atom_site_label
 _atom_site_symmetry_multiplicity
 _atom_site_fract_x
 _atom_site_fract_y
 _atom_site_fract_z
 _atom_site_occupancy
  Dy  Dy0  1  0.00000000  0.00000000  0.00000000  1
  Er  Er0  1  0.50000000  0.50000000  0.50000000  1
  C  C0  1  0.00000000  0.00000000  0.39466900  1
  C  C1  1  0.50000000  0.50000000  0.89433400  1
  C  C2  1  0.50000000  0.50000000  0.10566600  1
  C  C3  1  0.00000000  0.00000000  0.60533100  1
loop_
_geom_bond_atom_site_label_1
_geom_bond_atom_site_label_2
_geom_bond_distance
_geom_bond_site_symmetry_2
C0 C3 1.303089 1_555
C0 Dy0 2.441298 1_555
C0 Er0 2.653584 1_555
C0 Er0 2.653584 1_545
C0 Er0 2.653584 1_445
C0 Er0 2.653584 1_455
C1 C2 1.307233 1_556
C1 Er0 2.439226 1_555
C1 Dy0 2.654094 1_566
C1 Dy0 2.654094 1_556
C1 Dy0 2.654094 1_666
C1 Dy0 2.654094 1_656
C2 Er0 2.439226 1_555
C2 Dy0 2.654094 1_665
C2 Dy0 2.654094 1_555
C2 Dy0 2.654094 1_655
C2 Dy0 2.654094 1_565
C3 Dy0 2.441298 1_556
C3 Er0 2.653584 1_555
C3 Er0 2.653584 1_545
C3 Er0 2.653584 1_445
C3 Er0 2.653584 1_455
