# generated using pymatgen
data_Ce2BiN
_symmetry_space_group_name_H-M   'P 1'
_cell_length_a   4.72410162
_cell_length_b   4.72410162
_cell_length_c   9.39655945
_cell_angle_alpha   90.00000000
_cell_angle_beta   90.00000000
_cell_angle_gamma   90.00000000
_symmetry_Int_Tables_number   1
_chemical_formula_structural   Ce2BiN
_chemical_formula_sum   'Ce4 Bi2 N2'
_cell_volume   209.70429627
_cell_formula_units_Z   2
loop_
 _symmetry_equiv_pos_site_id
 _symmetry_equiv_pos_as_xyz
  1  'x, y, z'
loop_
 _atom_site_type_symbol
 _atom_site_label
 _atom_site_symmetry_multiplicity
 _atom_site_fract_x
 _atom_site_fract_y
 _atom_site_fract_z
 _atom_site_occupancy
  Ce  Ce0  1  0.75000000  0.25000000  -0.00000000  1
  Ce  Ce1  1  0.25000000  0.75000000  -0.00000000  1
  Ce  Ce2  1  0.75000000  0.75000000  0.67468963  1
  Ce  Ce3  1  0.25000000  0.25000000  0.32531037  1
  Bi  Bi0  1  0.75000000  0.75000000  0.30047389  1
  Bi  Bi1  1  0.25000000  0.25000000  0.69952611  1
  N  N0  1  0.75000000  0.75000000  0.91423507  1
  N  N1  1  0.25000000  0.25000000  0.08576493  1
loop_
_geom_bond_atom_site_label_1
_geom_bond_atom_site_label_2
_geom_bond_distance
_geom_bond_site_symmetry_2
Ce0 N1 2.495747 1_655
Ce0 N1 2.495747 1_555
Ce0 N0 2.495747 1_554
Ce0 N0 2.495747 1_544
Ce1 N1 2.495747 1_565
Ce1 N1 2.495747 1_555
Ce1 N0 2.495747 1_554
Ce1 N0 2.495747 1_454
Ce2 N0 2.250903 1_555
Ce3 N1 2.250903 1_555
Bi0 Ce3 3.348587 1_555
Bi0 Ce3 3.348587 1_655
Bi0 Ce3 3.348587 1_565
Bi0 Ce3 3.348587 1_665
Bi0 Ce2 3.516340 1_555
Bi0 Ce1 3.681167 1_555
Bi0 Ce1 3.681167 1_655
Bi0 Ce0 3.681167 1_565
Bi0 Ce0 3.681167 1_555
Bi1 Ce2 3.348587 1_445
Bi1 Ce2 3.348587 1_555
Bi1 Ce2 3.348587 1_455
Bi1 Ce2 3.348587 1_545
Bi1 Ce3 3.516340 1_555
Bi1 Ce0 3.681167 1_456
Bi1 Ce1 3.681167 1_556
Bi1 Ce1 3.681167 1_546
Bi1 Ce0 3.681167 1_556
