# generated using pymatgen
data_Dy2Fe17C3
_symmetry_space_group_name_H-M   'P 1'
_cell_length_a   8.64808808
_cell_length_b   8.64808808
_cell_length_c   8.34779600
_cell_angle_alpha   90.00000000
_cell_angle_beta   90.00000000
_cell_angle_gamma   120.00000065
_symmetry_Int_Tables_number   1
_chemical_formula_structural   Dy2Fe17C3
_chemical_formula_sum   'Dy4 Fe34 C6'
_cell_volume   540.68293819
_cell_formula_units_Z   2
loop_
 _symmetry_equiv_pos_site_id
 _symmetry_equiv_pos_as_xyz
  1  'x, y, z'
loop_
 _atom_site_type_symbol
 _atom_site_label
 _atom_site_symmetry_multiplicity
 _atom_site_fract_x
 _atom_site_fract_y
 _atom_site_fract_z
 _atom_site_occupancy
  Dy  Dy0  1  0.33333300  0.66666700  0.25000000  1
  Dy  Dy1  1  0.66666700  0.33333300  0.75000000  1
  Dy  Dy2  1  0.00000000  0.00000000  0.25000000  1
  Dy  Dy3  1  0.00000000  0.00000000  0.75000000  1
  Fe  Fe0  1  0.37837800  0.05226600  0.25000000  1
  Fe  Fe1  1  0.62162200  0.94773400  0.75000000  1
  Fe  Fe2  1  0.94773400  0.32611200  0.25000000  1
  Fe  Fe3  1  0.05226600  0.37837800  0.75000000  1
  Fe  Fe4  1  0.05226600  0.67388800  0.75000000  1
  Fe  Fe5  1  0.94773400  0.62162200  0.25000000  1
  Fe  Fe6  1  0.67388800  0.62162200  0.25000000  1
  Fe  Fe7  1  0.32611200  0.94773400  0.75000000  1
  Fe  Fe8  1  0.32611200  0.37837800  0.75000000  1
  Fe  Fe9  1  0.67388800  0.05226600  0.25000000  1
  Fe  Fe10  1  0.62162200  0.67388800  0.75000000  1
  Fe  Fe11  1  0.37837800  0.32611200  0.25000000  1
  Fe  Fe12  1  0.33333300  0.66666700  0.60765200  1
  Fe  Fe13  1  0.66666700  0.33333300  0.39234800  1
  Fe  Fe14  1  0.66666700  0.33333300  0.10765200  1
  Fe  Fe15  1  0.33333300  0.66666700  0.89234800  1
  Fe  Fe16  1  0.16832300  0.33664600  0.01974900  1
  Fe  Fe17  1  0.83167700  0.66335400  0.98025100  1
  Fe  Fe18  1  0.66335400  0.83167700  0.01974900  1
  Fe  Fe19  1  0.83167700  0.66335400  0.51974900  1
  Fe  Fe20  1  0.33664600  0.16832300  0.98025100  1
  Fe  Fe21  1  0.16832300  0.33664600  0.48025100  1
  Fe  Fe22  1  0.16832300  0.83167700  0.01974900  1
  Fe  Fe23  1  0.33664600  0.16832300  0.51974900  1
  Fe  Fe24  1  0.83167700  0.16832300  0.98025100  1
  Fe  Fe25  1  0.66335400  0.83167700  0.48025100  1
  Fe  Fe26  1  0.83167700  0.16832300  0.51974900  1
  Fe  Fe27  1  0.16832300  0.83167700  0.48025100  1
  Fe  Fe28  1  0.50000000  0.00000000  0.00000000  1
  Fe  Fe29  1  0.00000000  0.50000000  0.00000000  1
  Fe  Fe30  1  0.50000000  0.00000000  0.50000000  1
  Fe  Fe31  1  0.50000000  0.50000000  0.00000000  1
  Fe  Fe32  1  0.00000000  0.50000000  0.50000000  1
  Fe  Fe33  1  0.50000000  0.50000000  0.50000000  1
  C  C0  1  0.16565900  0.33131800  0.25000000  1
  C  C1  1  0.83434100  0.66868200  0.75000000  1
  C  C2  1  0.66868200  0.83434100  0.25000000  1
  C  C3  1  0.33131800  0.16565900  0.75000000  1
  C  C4  1  0.16565900  0.83434100  0.25000000  1
  C  C5  1  0.83434100  0.16565900  0.75000000  1
loop_
_geom_bond_atom_site_label_1
_geom_bond_atom_site_label_2
_geom_bond_distance
_geom_bond_site_symmetry_2
Dy0 Fe12 2.985606 1_555
Dy0 Fe15 2.985606 1_554
Dy0 Fe32 3.253889 1_555
Dy0 Fe29 3.253889 1_555
Dy0 Fe30 3.253889 1_565
Dy0 Fe28 3.253889 1_565
Dy0 Fe31 3.253895 1_555
Dy0 Fe33 3.253895 1_555
Dy1 Fe13 2.985606 1_555
Dy1 Fe14 2.985606 1_556
Dy1 Fe29 3.253889 1_656
Dy1 Fe32 3.253889 1_655
Dy1 Fe30 3.253889 1_555
Dy1 Fe28 3.253889 1_556
Dy1 Fe33 3.253895 1_555
Dy1 Fe31 3.253895 1_556
Fe0 Fe28 2.478175 1_555
Fe0 Fe30 2.478175 1_555
Fe0 Fe13 2.734230 1_555
Fe0 Fe14 2.734230 1_555
Fe1 Fe30 2.478175 1_565
Fe1 Fe28 2.478175 1_566
Fe1 Fe15 2.734230 1_555
Fe1 Fe12 2.734230 1_555
Fe2 Fe32 2.478175 1_655
Fe2 Fe29 2.478175 1_655
Fe3 Fe32 2.478175 1_555
Fe10 Fe31 2.478175 1_556
Fe10 Fe33 2.478175 1_555
Fe10 Fe15 2.734234 1_555
Fe10 Fe12 2.734234 1_555
Fe11 Fe33 2.478175 1_555
Fe11 Fe31 2.478175 1_555
Fe11 Fe13 2.734234 1_555
Fe11 Fe14 2.734234 1_555
Fe12 Fe15 2.376584 1_555
Fe12 Fe30 2.653304 1_565
Fe12 Fe32 2.653304 1_555
Fe12 Fe33 2.653311 1_555
Fe12 Fe27 2.690769 1_555
Fe12 Fe25 2.690776 1_555
Fe12 Fe21 2.690776 1_555
Fe12 Fe4 2.734226 1_555
Fe12 Fe7 2.734226 1_555
Fe12 Fe3 2.734230 1_555
Fe12 Fe8 2.734234 1_555
Fe13 Fe14 2.376584 1_555
Fe13 Fe32 2.653304 1_655
Fe13 Fe30 2.653304 1_555
Fe13 Fe33 2.653311 1_555
Fe13 Fe26 2.690769 1_555
Fe13 Fe19 2.690776 1_555
Fe13 Fe23 2.690776 1_555
Fe13 Fe9 2.734226 1_555
Fe13 Fe2 2.734226 1_555
Fe13 Fe5 2.734230 1_555
Fe13 Fe6 2.734234 1_555
Fe14 Fe28 2.653304 1_555
Fe14 Fe29 2.653304 1_655
Fe14 Fe31 2.653311 1_555
Fe14 Fe24 2.690769 1_554
Fe14 Fe20 2.690776 1_554
Fe14 Fe17 2.690776 1_554
Fe14 Fe9 2.734226 1_555
Fe14 Fe2 2.734226 1_555
Fe14 Fe5 2.734230 1_555
Fe14 Fe6 2.734234 1_555
Fe15 Fe29 2.653304 1_556
Fe15 Fe28 2.653304 1_566
Fe15 Fe31 2.653311 1_556
Fe15 Fe22 2.690769 1_556
Fe15 Fe18 2.690776 1_556
Fe15 Fe16 2.690776 1_556
Fe15 Fe4 2.734226 1_555
Fe15 Fe7 2.734226 1_555
Fe15 Fe3 2.734230 1_555
Fe15 Fe8 2.734234 1_555
Fe16 Fe31 2.489640 1_555
Fe16 Fe29 2.489640 1_555
Fe17 Fe31 2.489640 1_556
Fe17 Fe29 2.489640 1_656
Fe18 Fe31 2.489640 1_555
Fe18 Fe28 2.489640 1_565
Fe19 Fe33 2.489640 1_555
Fe19 Fe32 2.489640 1_655
Fe20 Fe31 2.489640 1_556
Fe20 Fe28 2.489640 1_556
Fe21 Fe33 2.489640 1_555
Fe21 Fe32 2.489640 1_555
Fe22 Fe28 2.489640 1_565
Fe22 Fe29 2.489640 1_555
Fe23 Fe33 2.489640 1_555
Fe23 Fe30 2.489640 1_555
Fe24 Fe28 2.489640 1_556
Fe24 Fe29 2.489640 1_656
Fe25 Fe33 2.489640 1_555
Fe25 Fe30 2.489640 1_565
Fe26 Fe32 2.489640 1_655
Fe26 Fe30 2.489640 1_555
Fe27 Fe32 2.489640 1_555
Fe27 Fe30 2.489640 1_565
Fe28 Fe9 2.478175 1_555
Fe28 Fe7 2.478175 1_544
Fe29 Fe4 2.478175 1_554
Fe29 Fe5 2.478175 1_455
Fe29 Fe3 2.478175 1_554
Fe30 Fe9 2.478175 1_555
Fe30 Fe7 2.478175 1_545
Fe31 Fe6 2.478175 1_555
Fe31 Fe8 2.478175 1_554
Fe32 Fe4 2.478175 1_555
Fe32 Fe5 2.478175 1_455
Fe33 Fe6 2.478175 1_555
Fe33 Fe8 2.478175 1_555
C0 Fe2 1.862532 1_455
C0 Fe11 1.862532 1_555
C0 Fe21 1.922503 1_555
C0 Fe16 1.922503 1_555
C0 Dy2 2.481394 1_555
C0 Dy0 2.511584 1_555
C1 Fe4 1.862532 1_655
C1 Fe10 1.862532 1_555
C1 Fe19 1.922503 1_555
C1 Fe17 1.922503 1_555
C1 Dy3 2.481394 1_665
C1 Dy1 2.511584 1_555
C2 Fe9 1.862532 1_565
C2 Fe6 1.862532 1_555
C2 Fe25 1.922503 1_555
C2 Fe18 1.922503 1_555
C2 Dy2 2.481394 1_665
C2 Dy0 2.511584 1_555
C3 Fe7 1.862532 1_545
C3 Fe8 1.862532 1_555
C3 Fe23 1.922503 1_555
C3 Fe20 1.922503 1_555
C3 Dy3 2.481394 1_555
C3 Dy1 2.511584 1_555
C4 Fe0 1.862532 1_565
C4 Fe5 1.862532 1_455
C4 Fe27 1.922503 1_555
C4 Fe22 1.922503 1_555
C4 Dy2 2.481394 1_565
C4 Dy0 2.511577 1_555
C5 Fe3 1.862532 1_655
C5 Fe1 1.862532 1_545
C5 Fe26 1.922503 1_555
C5 Fe24 1.922503 1_555
C5 Dy3 2.481394 1_655
C5 Dy1 2.511577 1_555
