# generated using pymatgen
data_LaFe2PbO6
_symmetry_space_group_name_H-M   'P 1'
_cell_length_a   5.58130400
_cell_length_b   5.62438400
_cell_length_c   7.92414500
_cell_angle_alpha   90.00000000
_cell_angle_beta   90.00000000
_cell_angle_gamma   90.00000000
_symmetry_Int_Tables_number   1
_chemical_formula_structural   LaFe2PbO6
_chemical_formula_sum   'La2 Fe4 Pb2 O12'
_cell_volume   248.74998092
_cell_formula_units_Z   2
loop_
 _symmetry_equiv_pos_site_id
 _symmetry_equiv_pos_as_xyz
  1  'x, y, z'
loop_
 _atom_site_type_symbol
 _atom_site_label
 _atom_site_symmetry_multiplicity
 _atom_site_fract_x
 _atom_site_fract_y
 _atom_site_fract_z
 _atom_site_occupancy
  La  La0  1  0.99177300  0.78144000  0.50000000  1
  La  La1  1  0.49177300  0.21856000  0.00000000  1
  Fe  Fe0  1  0.99918100  0.25389600  0.75123000  1
  Fe  Fe1  1  0.49918100  0.74610400  0.25123000  1
  Fe  Fe2  1  0.99918100  0.25389600  0.24877000  1
  Fe  Fe3  1  0.49918100  0.74610400  0.74877000  1
  Pb  Pb0  1  0.50765900  0.27803300  0.50000000  1
  Pb  Pb1  1  0.00765900  0.72196700  0.00000000  1
  O  O0  1  0.21393300  0.96397900  0.79451300  1
  O  O1  1  0.28613200  0.46365200  0.20677900  1
  O  O2  1  0.78613200  0.53634800  0.29322100  1
  O  O3  1  0.71393300  0.03602100  0.70548700  1
  O  O4  1  0.78613200  0.53634800  0.70677900  1
  O  O5  1  0.71393300  0.03602100  0.29451300  1
  O  O6  1  0.21393300  0.96397900  0.20548700  1
  O  O7  1  0.28613200  0.46365200  0.79322100  1
  O  O8  1  0.41753600  0.73579400  0.50000000  1
  O  O9  1  0.08453900  0.22936800  0.50000000  1
  O  O10  1  0.58453900  0.77063200  0.00000000  1
  O  O11  1  0.91753600  0.26420600  0.00000000  1
loop_
_geom_bond_atom_site_label_1
_geom_bond_atom_site_label_2
_geom_bond_distance
_geom_bond_site_symmetry_2
La0 O8 2.390141 1_655
La0 O4 2.429484 1_555
La0 O2 2.429484 1_555
La0 O9 2.571972 1_665
La0 O3 2.665767 1_565
La0 O5 2.665767 1_565
La0 O0 2.835130 1_655
La0 O6 2.835130 1_655
La1 O11 2.390141 1_555
La1 O1 2.429484 1_555
La1 O7 2.429484 1_554
La1 O10 2.571972 1_545
La1 O6 2.665767 1_545
La1 O0 2.665767 1_544
La1 O5 2.835130 1_555
La1 O3 2.835130 1_554
Fe0 O4 2.015370 1_555
Fe0 O7 2.016810 1_655
Fe0 O11 2.024103 1_556
Fe0 O3 2.041486 1_555
Fe0 O9 2.051637 1_655
Fe0 O0 2.052593 1_645
Fe1 O1 2.015370 1_555
Fe1 O2 2.016810 1_555
Fe1 O8 2.024103 1_555
Fe1 O6 2.041486 1_555
Fe1 O10 2.051637 1_555
Fe1 O5 2.052593 1_565
Fe2 O2 2.015370 1_555
Fe2 O1 2.016810 1_655
Fe2 O11 2.024103 1_555
Fe2 O5 2.041486 1_555
Fe2 O9 2.051637 1_655
Fe2 O6 2.052593 1_645
Fe3 O7 2.015370 1_555
Fe3 O4 2.016810 1_555
Fe3 O8 2.024103 1_555
Fe3 O0 2.041486 1_555
Fe3 O10 2.051637 1_556
Fe3 O3 2.052593 1_565
O0 Pb1 2.414458 1_556
O1 Pb1 2.685389 1_555
O1 Pb0 2.831501 1_555
O2 Pb0 2.685389 1_555
O2 Pb1 2.831501 1_655
O3 Pb0 2.414458 1_555
O4 Pb0 2.685389 1_555
O4 Pb1 2.831501 1_656
O5 Pb0 2.414458 1_555
O6 Pb1 2.414458 1_555
O7 Pb1 2.685389 1_556
O7 Pb0 2.831501 1_555
O8 Pb0 2.623299 1_555
O9 Pb0 2.377370 1_555
O10 Pb1 2.377370 1_655
O11 Pb1 2.623299 1_655
