# generated using pymatgen
data_Mg2CrFe3S8
_symmetry_space_group_name_H-M   'P 1'
_cell_length_a   7.02862133
_cell_length_b   7.04087304
_cell_length_c   7.05954246
_cell_angle_alpha   59.82467118
_cell_angle_beta   60.10960087
_cell_angle_gamma   60.04773412
_symmetry_Int_Tables_number   1
_chemical_formula_structural   Mg2CrFe3S8
_chemical_formula_sum   'Mg2 Cr1 Fe3 S8'
_cell_volume   246.99787393
_cell_formula_units_Z   1
loop_
 _symmetry_equiv_pos_site_id
 _symmetry_equiv_pos_as_xyz
  1  'x, y, z'
loop_
 _atom_site_type_symbol
 _atom_site_label
 _atom_site_symmetry_multiplicity
 _atom_site_fract_x
 _atom_site_fract_y
 _atom_site_fract_z
 _atom_site_occupancy
  Mg  Mg0  1  0.87427200  0.87621500  0.87481600  1
  Mg  Mg1  1  0.12575700  0.12380600  0.12516000  1
  Cr  Cr0  1  0.49987500  0.99993100  0.50010600  1
  Fe  Fe0  1  0.50001100  0.50001300  0.49996600  1
  Fe  Fe1  1  0.50003000  0.49999800  0.00000000  1
  Fe  Fe2  1  0.00000600  0.50000400  0.49999900  1
  S  S0  1  0.74097300  0.72296600  0.73924900  1
  S  S1  1  0.26052000  0.27564800  0.70307800  1
  S  S2  1  0.26811800  0.69607500  0.26737400  1
  S  S3  1  0.70331800  0.27697400  0.26061600  1
  S  S4  1  0.73187100  0.30395000  0.73259400  1
  S  S5  1  0.29670000  0.72300100  0.73938800  1
  S  S6  1  0.25904900  0.27704500  0.26074500  1
  S  S7  1  0.73950500  0.72436900  0.29690900  1
loop_
_geom_bond_atom_site_label_1
_geom_bond_atom_site_label_2
_geom_bond_distance
_geom_bond_site_symmetry_2
Mg0 S0 2.428839 1_555
Mg0 S5 2.429516 1_655
Mg0 S7 2.432039 1_556
Mg0 S4 2.455935 1_565
Mg1 S6 2.428844 1_555
Mg1 S3 2.429569 1_455
Mg1 S1 2.431976 1_554
Mg1 S2 2.455913 1_545
Cr0 S5 2.399917 1_555
Cr0 S6 2.401223 1_565
Cr0 S0 2.401359 1_555
Cr0 S3 2.401741 1_565
Cr0 S1 2.405122 1_565
Cr0 S7 2.405333 1_555
Fe0 S1 2.314638 1_555
Fe0 S7 2.314641 1_555
Fe0 S3 2.320212 1_555
Fe0 S5 2.320332 1_555
Fe0 S2 2.323852 1_555
Fe0 S4 2.323868 1_555
Fe1 S0 2.315940 1_554
Fe1 S6 2.316048 1_555
Fe1 S3 2.316817 1_555
Fe1 S5 2.316998 1_554
Fe1 S2 2.330608 1_555
Fe1 S4 2.330646 1_554
Fe2 S7 2.314040 1_455
Fe2 S1 2.314059 1_555
Fe2 S0 2.319160 1_455
Fe2 S6 2.319171 1_555
Fe2 S2 2.321227 1_555
Fe2 S4 2.321271 1_455
