# generated using pymatgen
data_CaTi2S5
_symmetry_space_group_name_H-M   'P 1'
_cell_length_a   4.27622500
_cell_length_b   6.06395800
_cell_length_c   14.50753600
_cell_angle_alpha   90.00000000
_cell_angle_beta   90.00000000
_cell_angle_gamma   90.00000000
_symmetry_Int_Tables_number   1
_chemical_formula_structural   CaTi2S5
_chemical_formula_sum   'Ca2 Ti4 S10'
_cell_volume   376.19272246
_cell_formula_units_Z   2
loop_
 _symmetry_equiv_pos_site_id
 _symmetry_equiv_pos_as_xyz
  1  'x, y, z'
loop_
 _atom_site_type_symbol
 _atom_site_label
 _atom_site_symmetry_multiplicity
 _atom_site_fract_x
 _atom_site_fract_y
 _atom_site_fract_z
 _atom_site_occupancy
  Ca  Ca0  1  0.50000000  0.12811300  0.00000000  1
  Ca  Ca1  1  0.00000000  0.87188700  0.50000000  1
  Ti  Ti0  1  0.00000000  0.60166000  0.84666300  1
  Ti  Ti1  1  0.50000000  0.39834000  0.65333700  1
  Ti  Ti2  1  0.50000000  0.39834000  0.34666300  1
  Ti  Ti3  1  0.00000000  0.60166000  0.15333700  1
  S  S0  1  0.50000000  0.53849900  0.50000000  1
  S  S1  1  0.00000000  0.46150100  0.00000000  1
  S  S2  1  0.50000000  0.42572200  0.82486600  1
  S  S3  1  0.00000000  0.57427800  0.67513400  1
  S  S4  1  0.50000000  0.42572200  0.17513400  1
  S  S5  1  0.00000000  0.57427800  0.32486600  1
  S  S6  1  0.00000000  0.95123100  0.12395300  1
  S  S7  1  0.50000000  0.04876900  0.37604700  1
  S  S8  1  0.50000000  0.04876900  0.62395300  1
  S  S9  1  0.00000000  0.95123100  0.87604700  1
loop_
_geom_bond_atom_site_label_1
_geom_bond_atom_site_label_2
_geom_bond_distance
_geom_bond_site_symmetry_2
Ca0 S1 2.942549 1_655
Ca0 S1 2.942549 1_555
Ca0 S6 2.992611 1_645
Ca0 S6 2.992611 1_545
Ca0 S9 2.992611 1_544
Ca0 S9 2.992611 1_644
Ca0 S4 3.116469 1_555
Ca0 S2 3.116469 1_554
Ca1 S0 2.942549 1_455
Ca1 S0 2.942549 1_555
Ca1 S8 2.992611 1_465
Ca1 S8 2.992611 1_565
Ca1 S7 2.992611 1_565
Ca1 S7 2.992611 1_465
Ca1 S5 3.116469 1_555
Ca1 S3 3.116469 1_555
S0 Ti1 2.381375 1_555
S0 Ti2 2.381375 1_555
S1 Ti3 2.381375 1_555
S1 Ti0 2.381375 1_554
S2 Ti0 2.410343 1_655
S2 Ti0 2.410343 1_555
S2 Ti1 2.493997 1_555
S3 Ti1 2.410343 1_555
S3 Ti1 2.410343 1_455
S3 Ti0 2.493997 1_555
S4 Ti3 2.410343 1_555
S4 Ti3 2.410343 1_655
S4 Ti2 2.493997 1_555
S5 Ti2 2.410343 1_455
S5 Ti2 2.410343 1_555
S5 Ti3 2.493997 1_555
S6 Ti3 2.162223 1_555
S7 Ti2 2.162223 1_555
S8 Ti1 2.162223 1_555
S9 Ti0 2.162223 1_555
