# generated using pymatgen
data_TiF4
_symmetry_space_group_name_H-M   'P 1'
_cell_length_a   5.17257100
_cell_length_b   5.47301399
_cell_length_c   5.73350637
_cell_angle_alpha   110.49580899
_cell_angle_beta   107.00781624
_cell_angle_gamma   92.41277230
_symmetry_Int_Tables_number   1
_chemical_formula_structural   TiF4
_chemical_formula_sum   'Ti2 F8'
_cell_volume   143.48413292
_cell_formula_units_Z   2
loop_
 _symmetry_equiv_pos_site_id
 _symmetry_equiv_pos_as_xyz
  1  'x, y, z'
loop_
 _atom_site_type_symbol
 _atom_site_label
 _atom_site_symmetry_multiplicity
 _atom_site_fract_x
 _atom_site_fract_y
 _atom_site_fract_z
 _atom_site_occupancy
  Ti  Ti0  1  0.99573100  0.52985000  0.00159300  1
  Ti  Ti1  1  0.43001700  0.10297100  0.00294900  1
  F  F0  1  0.10467500  0.16743600  0.78326500  1
  F  F1  1  0.33352400  0.45760100  0.21526000  1
  F  F2  1  0.95903300  0.82327000  0.23782700  1
  F  F3  1  0.79138300  0.32431400  0.14630700  1
  F  F4  1  0.68200100  0.44148700  0.73922100  1
  F  F5  1  0.54987800  0.91857000  0.74687300  1
  F  F6  1  0.17093800  0.71821700  0.85673900  1
  F  F7  1  0.49817300  0.02145500  0.28249800  1
loop_
_geom_bond_atom_site_label_1
_geom_bond_atom_site_label_2
_geom_bond_distance
_geom_bond_site_symmetry_2
F0 Ti1 1.914198 1_556
F0 Ti0 2.141688 1_456
F1 Ti0 1.963476 1_455
F1 Ti1 2.068932 1_555
F2 Ti0 1.761350 1_555
F3 Ti1 1.962213 1_555
F3 Ti0 2.034121 1_555
F4 Ti0 1.768233 1_556
F5 Ti1 1.762423 1_566
F6 Ti0 1.880202 1_456
F6 Ti1 2.191324 1_566
F7 Ti1 1.753771 1_555
