# generated using pymatgen
data_CrCo(PO4)2
_symmetry_space_group_name_H-M   'P 1'
_cell_length_a   5.80258200
_cell_length_b   4.79147500
_cell_length_c   9.92089413
_cell_angle_alpha   89.89668048
_cell_angle_beta   90.00000000
_cell_angle_gamma   90.00000000
_symmetry_Int_Tables_number   1
_chemical_formula_structural   CrCo(PO4)2
_chemical_formula_sum   'Cr2 Co2 P4 O16'
_cell_volume   275.82944273
_cell_formula_units_Z   2
loop_
 _symmetry_equiv_pos_site_id
 _symmetry_equiv_pos_as_xyz
  1  'x, y, z'
loop_
 _atom_site_type_symbol
 _atom_site_label
 _atom_site_symmetry_multiplicity
 _atom_site_fract_x
 _atom_site_fract_y
 _atom_site_fract_z
 _atom_site_occupancy
  Cr  Cr0  1  0.75000000  0.47308500  0.77136500  1
  Cr  Cr1  1  0.25000000  0.52691500  0.22863500  1
  Co  Co0  1  0.25000000  0.95575000  0.72697700  1
  Co  Co1  1  0.75000000  0.04425000  0.27302300  1
  P  P0  1  0.25000000  0.41015900  0.90601900  1
  P  P1  1  0.75000000  0.92297300  0.59188300  1
  P  P2  1  0.25000000  0.07702700  0.40811700  1
  P  P3  1  0.75000000  0.58984100  0.09398100  1
  O  O0  1  0.75000000  0.67035400  0.94547100  1
  O  O1  1  0.25000000  0.72820600  0.88821100  1
  O  O2  1  0.04332000  0.26589900  0.82854500  1
  O  O3  1  0.45668000  0.26589900  0.82854500  1
  O  O4  1  0.95496200  0.77397500  0.67244400  1
  O  O5  1  0.54503800  0.77397500  0.67244400  1
  O  O6  1  0.75000000  0.23729500  0.60871900  1
  O  O7  1  0.25000000  0.16521800  0.55531500  1
  O  O8  1  0.75000000  0.83478200  0.44468500  1
  O  O9  1  0.25000000  0.76270500  0.39128100  1
  O  O10  1  0.04503800  0.22602500  0.32755600  1
  O  O11  1  0.45496200  0.22602500  0.32755600  1
  O  O12  1  0.54332000  0.73410100  0.17145500  1
  O  O13  1  0.95668000  0.73410100  0.17145500  1
  O  O14  1  0.75000000  0.27179400  0.11178900  1
  O  O15  1  0.25000000  0.32964600  0.05452900  1
loop_
_geom_bond_atom_site_label_1
_geom_bond_atom_site_label_2
_geom_bond_distance
_geom_bond_site_symmetry_2
Cr0 O0 1.970490 1_555
Cr0 O6 1.971463 1_555
Cr0 O2 2.049909 1_655
Cr0 O3 2.049909 1_555
Cr0 O5 2.109736 1_555
Cr0 O4 2.109736 1_555
Cr1 O15 1.970490 1_555
Cr1 O9 1.971463 1_555
Cr1 O13 2.049909 1_455
Cr1 O12 2.049909 1_555
Cr1 O11 2.109736 1_555
Cr1 O10 2.109736 1_555
Co0 O1 1.934186 1_555
Co0 O7 1.975226 1_565
Co0 O5 1.995963 1_555
Co0 O4 1.995963 1_455
Co0 O3 2.160422 1_565
Co0 O2 2.160422 1_565
Co1 O14 1.934186 1_555
Co1 O8 1.975226 1_545
Co1 O10 1.995963 1_655
Co1 O11 1.995963 1_555
Co1 O13 2.160422 1_545
Co1 O12 2.160422 1_545
O0 P3 1.522347 1_556
O1 P0 1.533805 1_555
O2 P0 1.583897 1_555
O3 P0 1.583897 1_555
O4 P1 1.600269 1_555
O5 P1 1.600269 1_555
O6 P1 1.515599 1_545
O7 P2 1.520976 1_555
O8 P1 1.520976 1_555
O9 P2 1.515599 1_565
O10 P2 1.600269 1_555
O11 P2 1.600269 1_555
O12 P3 1.583897 1_555
O13 P3 1.583897 1_555
O14 P3 1.533805 1_555
O15 P0 1.522347 1_554
