# generated using pymatgen
data_AlCrO3
_symmetry_space_group_name_H-M   'P 1'
_cell_length_a   5.01951300
_cell_length_b   5.05239300
_cell_length_c   7.53218200
_cell_angle_alpha   90.00000000
_cell_angle_beta   90.00000000
_cell_angle_gamma   90.00000000
_symmetry_Int_Tables_number   1
_chemical_formula_structural   AlCrO3
_chemical_formula_sum   'Al4 Cr4 O12'
_cell_volume   191.02029588
_cell_formula_units_Z   4
loop_
 _symmetry_equiv_pos_site_id
 _symmetry_equiv_pos_as_xyz
  1  'x, y, z'
loop_
 _atom_site_type_symbol
 _atom_site_label
 _atom_site_symmetry_multiplicity
 _atom_site_fract_x
 _atom_site_fract_y
 _atom_site_fract_z
 _atom_site_occupancy
  Al  Al0  1  0.98819200  0.97756900  0.75000000  1
  Al  Al1  1  0.48819200  0.52243100  0.25000000  1
  Al  Al2  1  0.51180800  0.47756900  0.75000000  1
  Al  Al3  1  0.01180800  0.02243100  0.25000000  1
  Cr  Cr0  1  0.00000000  0.50000000  0.50000000  1
  Cr  Cr1  1  0.50000000  0.00000000  0.50000000  1
  Cr  Cr2  1  0.50000000  0.00000000  0.00000000  1
  Cr  Cr3  1  0.00000000  0.50000000  0.00000000  1
  O  O0  1  0.66001400  0.33701600  0.42139900  1
  O  O1  1  0.16001400  0.16298400  0.57860100  1
  O  O2  1  0.83998600  0.83701600  0.07860100  1
  O  O3  1  0.33998600  0.66298400  0.92139900  1
  O  O4  1  0.33998600  0.66298400  0.57860100  1
  O  O5  1  0.83998600  0.83701600  0.42139900  1
  O  O6  1  0.16001400  0.16298400  0.92139900  1
  O  O7  1  0.66001400  0.33701600  0.07860100  1
  O  O8  1  0.14148900  0.37842000  0.25000000  1
  O  O9  1  0.64148900  0.12158000  0.75000000  1
  O  O10  1  0.35851100  0.87842000  0.25000000  1
  O  O11  1  0.85851100  0.62158000  0.75000000  1
loop_
_geom_bond_atom_site_label_1
_geom_bond_atom_site_label_2
_geom_bond_distance
_geom_bond_site_symmetry_2
Al0 O6 1.813317 1_665
Al0 O1 1.813317 1_665
Al0 O9 1.886260 1_565
Al0 O11 1.912764 1_555
Al1 O0 1.813317 1_555
Al1 O7 1.813317 1_555
Al1 O8 1.886260 1_555
Al1 O10 1.912764 1_555
Al2 O3 1.813317 1_555
Al2 O4 1.813317 1_555
Al2 O11 1.886260 1_555
Al2 O9 1.912764 1_555
Al3 O5 1.813317 1_445
Al3 O2 1.813317 1_445
Al3 O10 1.886260 1_545
Al3 O8 1.912764 1_555
Cr0 O1 1.973560 1_555
Cr0 O5 1.973560 1_455
Cr0 O4 1.985184 1_555
Cr0 O0 1.985184 1_455
Cr0 O8 2.104182 1_555
Cr0 O11 2.104182 1_455
Cr1 O4 1.973560 1_545
Cr1 O0 1.973560 1_555
Cr1 O1 1.985184 1_555
Cr1 O5 1.985184 1_545
Cr1 O9 2.104182 1_555
Cr1 O10 2.104182 1_545
Cr2 O7 1.973560 1_555
Cr2 O3 1.973560 1_544
Cr2 O2 1.985184 1_545
Cr2 O6 1.985184 1_554
Cr2 O9 2.104182 1_554
Cr2 O10 2.104182 1_545
Cr3 O2 1.973560 1_455
Cr3 O6 1.973560 1_554
Cr3 O7 1.985184 1_455
Cr3 O3 1.985184 1_554
Cr3 O8 2.104182 1_555
Cr3 O11 2.104182 1_454
