# generated using pymatgen
data_Li9Mn2Co5O16
_symmetry_space_group_name_H-M   'P 1'
_cell_length_a   5.04665800
_cell_length_b   5.84823822
_cell_length_c   10.12268353
_cell_angle_alpha   88.92873785
_cell_angle_beta   99.03755184
_cell_angle_gamma   107.07933804
_symmetry_Int_Tables_number   1
_chemical_formula_structural   Li9Mn2Co5O16
_chemical_formula_sum   'Li9 Mn2 Co5 O16'
_cell_volume   281.92125665
_cell_formula_units_Z   1
loop_
 _symmetry_equiv_pos_site_id
 _symmetry_equiv_pos_as_xyz
  1  'x, y, z'
loop_
 _atom_site_type_symbol
 _atom_site_label
 _atom_site_symmetry_multiplicity
 _atom_site_fract_x
 _atom_site_fract_y
 _atom_site_fract_z
 _atom_site_occupancy
  Li  Li0  1  0.99179900  0.24545100  0.24422500  1
  Li  Li1  1  0.49941000  0.87581500  0.62713900  1
  Li  Li2  1  0.99683600  0.00062400  0.49629600  1
  Li  Li3  1  0.50008200  0.62614800  0.88139400  1
  Li  Li4  1  0.00431100  0.75006000  0.75363600  1
  Li  Li5  1  0.50659100  0.37731800  0.12336900  1
  Li  Li6  1  0.00672000  0.50471400  0.00229300  1
  Li  Li7  1  0.49697600  0.12105000  0.36857500  1
  Li  Li8  1  0.50059700  0.87473000  0.12609700  1
  Mn  Mn0  1  0.00196700  0.99784300  0.00694900  1
  Mn  Mn1  1  0.49663100  0.62921500  0.36738900  1
  Co  Co0  1  0.00201600  0.25168500  0.75201200  1
  Co  Co1  1  0.99816200  0.49730400  0.49946600  1
  Co  Co2  1  0.50290800  0.11830800  0.88392700  1
  Co  Co3  1  0.99765000  0.75072300  0.24842500  1
  Co  Co4  1  0.49642300  0.37132800  0.62550100  1
  O  O0  1  0.76536100  0.17711800  0.05443300  1
  O  O1  1  0.24348700  0.79196600  0.42609000  1
  O  O2  1  0.74890600  0.91084600  0.31370800  1
  O  O3  1  0.24294800  0.55197600  0.68312600  1
  O  O4  1  0.73026500  0.66758500  0.55210600  1
  O  O5  1  0.24298200  0.29639400  0.93953300  1
  O  O6  1  0.74440200  0.41576300  0.80757700  1
  O  O7  1  0.21949700  0.04276000  0.18053300  1
  O  O8  1  0.25895900  0.33533600  0.43783800  1
  O  O9  1  0.76775700  0.94788500  0.82497400  1
  O  O10  1  0.25346000  0.08274900  0.68685600  1
  O  O11  1  0.78352100  0.70659300  0.06963100  1
  O  O12  1  0.24844700  0.83809100  0.93624000  1
  O  O13  1  0.74266900  0.46182000  0.31327300  1
  O  O14  1  0.24864400  0.57782100  0.20324400  1
  O  O15  1  0.75961600  0.20297800  0.56415200  1
loop_
_geom_bond_atom_site_label_1
_geom_bond_atom_site_label_2
_geom_bond_distance
_geom_bond_site_symmetry_2
Li0 O7 2.050055 1_655
Li0 O0 2.056050 1_555
Li0 O14 2.071074 1_655
Li0 O2 2.153362 1_545
Li0 O8 2.174246 1_655
Li0 O13 2.216776 1_555
Li1 O3 2.081740 1_555
Li1 O10 2.125101 1_565
Li1 O15 2.129169 1_565
Li1 O4 2.136158 1_555
Li1 O9 2.205991 1_555
Li1 O1 2.211323 1_555
Li2 O2 2.044805 1_545
Li2 O15 2.103904 1_555
Li2 O10 2.124460 1_655
Li2 O4 2.140330 1_545
Li2 O8 2.147883 1_655
Li2 O1 2.178565 1_645
Li3 O9 2.097759 1_555
Li3 O5 2.115793 1_555
Li3 O12 2.151529 1_555
Li3 O11 2.163370 1_556
Li3 O3 2.187205 1_555
Li3 O6 2.192580 1_555
Li4 O12 2.036493 1_555
Li4 O9 2.097256 1_455
Li4 O3 2.102919 1_555
Li4 O6 2.125944 1_455
Li4 O10 2.145772 1_565
Li4 O4 2.250702 1_455
Li5 O13 2.080675 1_555
Li5 O5 2.083780 1_554
Li5 O11 2.139203 1_555
Li5 O0 2.185901 1_555
Li5 O7 2.195028 1_555
Li5 O14 2.232950 1_555
Li6 O11 2.044457 1_455
Li6 O0 2.055762 1_455
Li6 O5 2.104687 1_554
Li6 O12 2.132348 1_554
Li6 O6 2.173071 1_454
Li6 O14 2.181033 1_555
Li7 O1 2.103652 1_545
Li7 O13 2.132450 1_555
Li7 O2 2.145139 1_545
Li7 O7 2.147656 1_555
Li7 O8 2.164854 1_555
Li7 O15 2.178051 1_555
Li8 O14 2.050869 1_555
Li8 O0 2.075467 1_565
Li8 O2 2.081705 1_555
Li8 O7 2.089606 1_565
Li8 O11 2.105795 1_555
Li8 O12 2.108478 1_554
Mn0 O11 1.896190 1_455
Mn0 O7 1.898301 1_565
Mn0 O0 1.921092 1_465
Mn0 O12 1.979851 1_554
Mn0 O5 1.990587 1_564
Mn0 O9 2.002230 1_454
Mn1 O14 1.887300 1_555
Mn1 O2 1.892379 1_555
Mn1 O13 1.935962 1_555
Mn1 O1 1.965958 1_555
Mn1 O8 1.978153 1_555
Mn1 O4 2.025953 1_555
Co0 O6 1.977390 1_455
Co0 O3 2.003773 1_555
Co0 O10 2.011234 1_555
Co0 O9 2.022683 1_445
Co0 O5 2.063251 1_555
Co0 O15 2.068483 1_455
Co1 O15 1.956832 1_555
Co1 O8 2.007740 1_655
Co1 O1 2.010461 1_655
Co1 O4 2.034826 1_555
Co1 O3 2.037984 1_655
Co1 O13 2.086127 1_555
Co2 O12 1.886838 1_545
Co2 O0 1.971809 1_556
Co2 O6 2.027098 1_555
Co2 O5 2.044166 1_555
Co2 O9 2.047270 1_545
Co2 O10 2.163416 1_555
Co3 O7 1.928050 1_665
Co3 O11 1.936292 1_555
Co3 O14 1.946218 1_655
Co3 O2 1.965636 1_555
Co3 O13 1.971866 1_555
Co3 O1 1.992807 1_655
Co4 O10 1.929243 1_555
Co4 O4 1.993191 1_555
Co4 O6 2.032965 1_555
Co4 O3 2.035693 1_555
Co4 O15 2.041908 1_555
Co4 O8 2.059302 1_555
