# generated using pymatgen
data_YGePd
_symmetry_space_group_name_H-M   'P 1'
_cell_length_a   5.65237192
_cell_length_b   5.65237192
_cell_length_c   7.04459824
_cell_angle_alpha   51.59352303
_cell_angle_beta   51.59352303
_cell_angle_gamma   45.02983698
_symmetry_Int_Tables_number   1
_chemical_formula_structural   YGePd
_chemical_formula_sum   'Y2 Ge2 Pd2'
_cell_volume   117.84758176
_cell_formula_units_Z   2
loop_
 _symmetry_equiv_pos_site_id
 _symmetry_equiv_pos_as_xyz
  1  'x, y, z'
loop_
 _atom_site_type_symbol
 _atom_site_label
 _atom_site_symmetry_multiplicity
 _atom_site_fract_x
 _atom_site_fract_y
 _atom_site_fract_z
 _atom_site_occupancy
  Y  Y0  1  0.54695286  0.54695286  0.69274806  1
  Y  Y1  1  0.45304714  0.45304714  0.30725194  1
  Ge  Ge0  1  0.84175172  0.84175172  0.10162851  1
  Ge  Ge1  1  0.15824828  0.15824828  0.89837149  1
  Pd  Pd0  1  0.17813119  0.17813119  0.27030806  1
  Pd  Pd1  1  0.82186881  0.82186881  0.72969194  1
loop_
_geom_bond_atom_site_label_1
_geom_bond_atom_site_label_2
_geom_bond_distance
_geom_bond_site_symmetry_2
Ge0 Pd0 2.507099 1_655
Ge0 Pd0 2.507099 1_565
Ge0 Ge1 2.570858 1_664
Ge0 Pd1 2.764055 1_554
Ge0 Y0 3.044942 1_654
Ge0 Y0 3.044942 1_564
Ge0 Y0 3.094467 1_555
Ge0 Y1 3.224636 1_655
Ge0 Y1 3.224636 1_565
Ge0 Y1 3.266108 1_555
Ge1 Pd1 2.507099 1_545
Ge1 Pd1 2.507099 1_455
Ge1 Pd0 2.764055 1_556
Ge1 Y1 3.044942 1_456
Ge1 Y1 3.044942 1_546
Ge1 Y1 3.094467 1_555
Ge1 Y0 3.224636 1_545
Ge1 Y0 3.224636 1_455
Ge1 Y0 3.266108 1_555
Pd0 Pd1 2.849734 1_445
Pd0 Y1 3.052077 1_555
Pd0 Y1 3.074880 1_545
Pd0 Y1 3.074880 1_455
Pd0 Y0 3.151879 1_545
Pd0 Y0 3.151879 1_455
Pd0 Y0 3.211208 1_554
Pd1 Y0 3.052077 1_555
Pd1 Y0 3.074880 1_565
Pd1 Y0 3.074880 1_655
Pd1 Y1 3.151879 1_565
Pd1 Y1 3.151879 1_655
Pd1 Y1 3.211208 1_556
