# generated using pymatgen
data_Li3Fe4O3F5
_symmetry_space_group_name_H-M   'P 1'
_cell_length_a   6.00198800
_cell_length_b   6.12085070
_cell_length_c   6.12262250
_cell_angle_alpha   119.94237439
_cell_angle_beta   90.27893636
_cell_angle_gamma   118.65132288
_symmetry_Int_Tables_number   1
_chemical_formula_structural   Li3Fe4O3F5
_chemical_formula_sum   'Li3 Fe4 O3 F5'
_cell_volume   161.98242984
_cell_formula_units_Z   1
loop_
 _symmetry_equiv_pos_site_id
 _symmetry_equiv_pos_as_xyz
  1  'x, y, z'
loop_
 _atom_site_type_symbol
 _atom_site_label
 _atom_site_symmetry_multiplicity
 _atom_site_fract_x
 _atom_site_fract_y
 _atom_site_fract_z
 _atom_site_occupancy
  Li  Li0  1  0.00840800  0.50754500  0.99552500  1
  Li  Li1  1  0.50262600  0.50483100  0.50010500  1
  Li  Li2  1  0.00355600  0.50327300  0.50610200  1
  Fe  Fe0  1  0.48259800  0.51914500  0.98572400  1
  Fe  Fe1  1  0.00125500  0.00057300  0.99988300  1
  Fe  Fe2  1  0.48998400  0.99101700  0.50909400  1
  Fe  Fe3  1  0.02162700  0.98247100  0.52255300  1
  O  O0  1  0.23063800  0.22488300  0.23055500  1
  O  O1  1  0.22953600  0.72777600  0.73423900  1
  O  O2  1  0.76830200  0.77401600  0.76811600  1
  F  F0  1  0.24858500  0.27404100  0.72099400  1
  F  F1  1  0.24864500  0.73162700  0.27162800  1
  F  F2  1  0.76931700  0.27158700  0.26364900  1
  F  F3  1  0.74551700  0.26356200  0.71878200  1
  F  F4  1  0.74940800  0.72365600  0.27305300  1
loop_
_geom_bond_atom_site_label_1
_geom_bond_atom_site_label_2
_geom_bond_distance
_geom_bond_site_symmetry_2
Li1 O2 1.645045 1_555
Li1 O0 1.671256 1_555
Li2 O1 1.398980 1_555
Fe1 O0 1.416989 1_556
Fe1 O2 1.431274 1_445
F0 Fe3 1.415919 1_545
F0 Fe0 1.542836 1_555
F1 Fe2 1.484106 1_555
F1 Li0 1.607230 1_554
F2 Li2 1.468851 1_655
F3 Fe2 1.474021 1_545
F3 Li0 1.667088 1_655
F4 Fe3 1.609502 1_655
F4 Fe0 1.754471 1_554
