# generated using pymatgen
data_CsSc3H6(Se3O10)2
_symmetry_space_group_name_H-M   'P 1'
_cell_length_a   9.74130487
_cell_length_b   13.47565744
_cell_length_c   16.98038409
_cell_angle_alpha   90.00000000
_cell_angle_beta   90.00000000
_cell_angle_gamma   90.00000000
_symmetry_Int_Tables_number   1
_chemical_formula_structural   CsSc3H6(Se3O10)2
_chemical_formula_sum   'Cs4 Sc12 H24 Se24 O80'
_cell_volume   2229.02329653
_cell_formula_units_Z   4
loop_
 _symmetry_equiv_pos_site_id
 _symmetry_equiv_pos_as_xyz
  1  'x, y, z'
loop_
 _atom_site_type_symbol
 _atom_site_label
 _atom_site_symmetry_multiplicity
 _atom_site_fract_x
 _atom_site_fract_y
 _atom_site_fract_z
 _atom_site_occupancy
  Cs  Cs0  1  0.48932190  0.25000000  0.70913159  1
  Cs  Cs1  1  0.01067810  0.25000000  0.20913159  1
  Cs  Cs2  1  0.51067810  0.75000000  0.29086841  1
  Cs  Cs3  1  0.98932190  0.75000000  0.79086841  1
  Sc  Sc0  1  0.05404147  0.25000000  0.93696101  1
  Sc  Sc1  1  0.44595853  0.25000000  0.43696101  1
  Sc  Sc2  1  0.94595853  0.75000000  0.06303899  1
  Sc  Sc3  1  0.55404147  0.75000000  0.56303899  1
  Sc  Sc4  1  0.67792567  0.50023033  0.87380138  1
  Sc  Sc5  1  0.82207433  0.99976967  0.37380138  1
  Sc  Sc6  1  0.32207433  0.00023033  0.12619862  1
  Sc  Sc7  1  0.17792567  0.49976967  0.62619862  1
  Sc  Sc8  1  0.32207433  0.49976967  0.12619862  1
  Sc  Sc9  1  0.17792567  0.00023033  0.62619862  1
  Sc  Sc10  1  0.67792567  0.99976967  0.87380138  1
  Sc  Sc11  1  0.82207433  0.50023033  0.37380138  1
  H  H0  1  0.90831767  0.39930629  0.02377954  1
  H  H1  1  0.59168233  0.10069371  0.52377954  1
  H  H2  1  0.09168233  0.89930629  0.97622046  1
  H  H3  1  0.40831767  0.60069371  0.47622046  1
  H  H4  1  0.09168233  0.60069371  0.97622046  1
  H  H5  1  0.40831767  0.89930629  0.47622046  1
  H  H6  1  0.90831767  0.10069371  0.02377954  1
  H  H7  1  0.59168233  0.39930629  0.52377954  1
  H  H8  1  0.06852809  0.41460626  0.03718551  1
  H  H9  1  0.43147191  0.08539374  0.53718551  1
  H  H10  1  0.93147191  0.91460626  0.96281449  1
  H  H11  1  0.56852809  0.58539374  0.46281449  1
  H  H12  1  0.93147191  0.58539374  0.96281449  1
  H  H13  1  0.56852809  0.91460626  0.46281449  1
  H  H14  1  0.06852809  0.08539374  0.03718551  1
  H  H15  1  0.43147191  0.41460626  0.53718551  1
  H  H16  1  0.80956219  0.46199209  0.18564870  1
  H  H17  1  0.69043781  0.03800791  0.68564870  1
  H  H18  1  0.19043781  0.96199209  0.81435130  1
  H  H19  1  0.30956219  0.53800791  0.31435130  1
  H  H20  1  0.19043781  0.53800791  0.81435130  1
  H  H21  1  0.30956219  0.96199209  0.31435130  1
  H  H22  1  0.80956219  0.03800791  0.18564870  1
  H  H23  1  0.69043781  0.46199209  0.68564870  1
  Se  Se0  1  0.98644076  0.40632118  0.78504860  1
  Se  Se1  1  0.51355924  0.09367882  0.28504860  1
  Se  Se2  1  0.01355924  0.90632118  0.21495140  1
  Se  Se3  1  0.48644076  0.59367882  0.71495140  1
  Se  Se4  1  0.01355924  0.59367882  0.21495140  1
  Se  Se5  1  0.48644076  0.90632118  0.71495140  1
  Se  Se6  1  0.98644076  0.09367882  0.78504860  1
  Se  Se7  1  0.51355924  0.40632118  0.28504860  1
  Se  Se8  1  0.67633062  0.25000000  0.92411352  1
  Se  Se9  1  0.82366938  0.25000000  0.42411352  1
  Se  Se10  1  0.32366938  0.75000000  0.07588648  1
  Se  Se11  1  0.17633062  0.75000000  0.57588648  1
  Se  Se12  1  0.66825836  0.51058014  0.08155946  1
  Se  Se13  1  0.83174164  0.98941986  0.58155946  1
  Se  Se14  1  0.33174164  0.01058014  0.91844054  1
  Se  Se15  1  0.16825836  0.48941986  0.41844054  1
  Se  Se16  1  0.33174164  0.48941986  0.91844054  1
  Se  Se17  1  0.16825836  0.01058014  0.41844054  1
  Se  Se18  1  0.66825836  0.98941986  0.08155946  1
  Se  Se19  1  0.83174164  0.51058014  0.58155946  1
  Se  Se20  1  0.65529895  0.75000000  0.93024432  1
  Se  Se21  1  0.84470105  0.75000000  0.43024432  1
  Se  Se22  1  0.34470105  0.25000000  0.06975568  1
  Se  Se23  1  0.15529895  0.25000000  0.56975568  1
  O  O0  1  0.72687722  0.65257280  0.87891346  1
  O  O1  1  0.77312278  0.84742720  0.37891346  1
  O  O2  1  0.27312278  0.15257280  0.12108654  1
  O  O3  1  0.22687722  0.34742720  0.62108654  1
  O  O4  1  0.27312278  0.34742720  0.12108654  1
  O  O5  1  0.22687722  0.15257280  0.62108654  1
  O  O6  1  0.72687722  0.84742720  0.87891346  1
  O  O7  1  0.77312278  0.65257280  0.37891346  1
  O  O8  1  0.51382976  0.45161512  0.07895807  1
  O  O9  1  0.98617024  0.04838488  0.57895807  1
  O  O10  1  0.48617024  0.95161512  0.92104193  1
  O  O11  1  0.01382976  0.54838488  0.42104193  1
  O  O12  1  0.48617024  0.54838488  0.92104193  1
  O  O13  1  0.01382976  0.95161512  0.42104193  1
  O  O14  1  0.51382976  0.04838488  0.07895807  1
  O  O15  1  0.98617024  0.45161512  0.57895807  1
  O  O16  1  0.74838786  0.47515099  0.99501862  1
  O  O17  1  0.75161214  0.02484901  0.49501862  1
  O  O18  1  0.25161214  0.97515099  0.00498138  1
  O  O19  1  0.24838786  0.52484901  0.50498138  1
  O  O20  1  0.25161214  0.52484901  0.00498138  1
  O  O21  1  0.24838786  0.97515099  0.50498138  1
  O  O22  1  0.74838786  0.02484901  0.99501862  1
  O  O23  1  0.75161214  0.47515099  0.49501862  1
  O  O24  1  0.09390783  0.36510807  0.85918338  1
  O  O25  1  0.40609217  0.13489193  0.35918338  1
  O  O26  1  0.90609217  0.86510807  0.14081662  1
  O  O27  1  0.59390783  0.63489193  0.64081662  1
  O  O28  1  0.90609217  0.63489193  0.14081662  1
  O  O29  1  0.59390783  0.86510807  0.64081662  1
  O  O30  1  0.09390783  0.13489193  0.85918338  1
  O  O31  1  0.40609217  0.36510807  0.35918338  1
  O  O32  1  0.85103627  0.25000000  0.90642541  1
  O  O33  1  0.64896373  0.25000000  0.40642541  1
  O  O34  1  0.14896373  0.75000000  0.09357459  1
  O  O35  1  0.35103627  0.75000000  0.59357459  1
  O  O36  1  0.09723728  0.49286172  0.74298377  1
  O  O37  1  0.40276272  0.00713828  0.24298377  1
  O  O38  1  0.90276272  0.99286172  0.25701623  1
  O  O39  1  0.59723728  0.50713828  0.75701623  1
  O  O40  1  0.90276272  0.50713828  0.25701623  1
  O  O41  1  0.59723728  0.99286172  0.75701623  1
  O  O42  1  0.09723728  0.00713828  0.74298377  1
  O  O43  1  0.40276272  0.49286172  0.24298377  1
  O  O44  1  0.99733827  0.36399604  0.02854148  1
  O  O45  1  0.50266173  0.13600396  0.52854148  1
  O  O46  1  0.00266173  0.86399604  0.97145852  1
  O  O47  1  0.49733827  0.63600396  0.47145852  1
  O  O48  1  0.00266173  0.63600396  0.97145852  1
  O  O49  1  0.49733827  0.86399604  0.47145852  1
  O  O50  1  0.99733827  0.13600396  0.02854148  1
  O  O51  1  0.50266173  0.36399604  0.52854148  1
  O  O52  1  0.75227642  0.75000000  0.01594482  1
  O  O53  1  0.74772358  0.75000000  0.51594482  1
  O  O54  1  0.24772358  0.25000000  0.98405518  1
  O  O55  1  0.25227642  0.25000000  0.48405518  1
  O  O56  1  0.62396813  0.34844441  0.86655457  1
  O  O57  1  0.87603187  0.15155559  0.36655457  1
  O  O58  1  0.37603187  0.84844441  0.13344543  1
  O  O59  1  0.12396813  0.65155559  0.63344543  1
  O  O60  1  0.37603187  0.65155559  0.13344543  1
  O  O61  1  0.12396813  0.84844441  0.63344543  1
  O  O62  1  0.62396813  0.15155559  0.86655457  1
  O  O63  1  0.87603187  0.34844441  0.36655457  1
  O  O64  1  0.87832959  0.48530188  0.83407130  1
  O  O65  1  0.62167041  0.01469812  0.33407130  1
  O  O66  1  0.12167041  0.98530188  0.16592870  1
  O  O67  1  0.37832959  0.51469812  0.66592870  1
  O  O68  1  0.12167041  0.51469812  0.16592870  1
  O  O69  1  0.37832959  0.98530188  0.66592870  1
  O  O70  1  0.87832959  0.01469812  0.83407130  1
  O  O71  1  0.62167041  0.48530188  0.33407130  1
  O  O72  1  0.75254673  0.42371222  0.14543511  1
  O  O73  1  0.74745327  0.07628778  0.64543511  1
  O  O74  1  0.24745327  0.92371222  0.85456489  1
  O  O75  1  0.25254673  0.57628778  0.35456489  1
  O  O76  1  0.24745327  0.57628778  0.85456489  1
  O  O77  1  0.25254673  0.92371222  0.35456489  1
  O  O78  1  0.75254673  0.07628778  0.14543511  1
  O  O79  1  0.74745327  0.42371222  0.64543511  1
loop_
_geom_bond_atom_site_label_1
_geom_bond_atom_site_label_2
_geom_bond_distance
_geom_bond_site_symmetry_2
Cs0 O5 3.239568 1_555
Cs0 O3 3.239568 1_555
Cs0 O62 3.259713 1_555
Cs0 O56 3.259713 1_555
Cs0 O45 3.432210 1_555
Cs0 O51 3.432210 1_555
Cs1 O4 3.239568 1_555
Cs1 O2 3.239568 1_555
Cs1 O57 3.259713 1_455
Cs1 O63 3.259713 1_455
Cs1 O50 3.432210 1_455
Cs1 O44 3.432210 1_455
Cs2 O7 3.239568 1_555
Cs2 O1 3.239568 1_555
Cs2 O58 3.259713 1_555
Cs2 O60 3.259713 1_555
Cs2 O49 3.432210 1_555
Cs2 O47 3.432210 1_555
Cs3 O6 3.239568 1_555
Cs3 O0 3.239568 1_555
Cs3 O59 3.259713 1_655
Cs3 O61 3.259713 1_655
Cs3 O48 3.432210 1_655
Cs3 O46 3.432210 1_655
H0 O44 0.992445 1_555
H1 O45 0.992445 1_555
H2 O46 0.992445 1_555
H3 O47 0.992445 1_555
H4 O48 0.992445 1_555
H5 O49 0.992445 1_555
H6 O50 0.992445 1_555
H7 O51 0.992445 1_555
H8 O44 0.983663 1_455
H9 O45 0.983663 1_555
H10 O46 0.983663 1_655
H11 O47 0.983663 1_555
H12 O48 0.983663 1_655
H13 O49 0.983663 1_555
H14 O50 0.983663 1_455
H15 O51 0.983663 1_555
H16 O72 1.020218 1_555
H16 O40 1.631860 1_555
H17 O73 1.020218 1_555
H17 O41 1.631860 1_545
H18 O74 1.020218 1_555
H18 O42 1.631860 1_565
H19 O75 1.020218 1_555
H19 O43 1.631860 1_555
H20 O76 1.020218 1_555
H20 O36 1.631860 1_555
H21 O77 1.020218 1_555
H21 O37 1.631860 1_565
H22 O78 1.020218 1_555
H22 O38 1.631860 1_545
H23 O79 1.020218 1_555
H23 O39 1.631860 1_555
O0 Se20 1.723250 1_555
O0 Sc4 2.109356 1_555
O1 Se21 1.723250 1_555
O1 Sc5 2.109356 1_555
O2 Se22 1.723250 1_555
O2 Sc6 2.109356 1_555
O3 Se23 1.723250 1_555
O3 Sc7 2.109356 1_555
O4 Se22 1.723250 1_555
O4 Sc8 2.109356 1_555
O5 Se23 1.723250 1_555
O5 Sc9 2.109356 1_555
O6 Se20 1.723250 1_555
O6 Sc10 2.109356 1_555
O7 Se21 1.723250 1_555
O7 Sc11 2.109356 1_555
O8 Se12 1.701868 1_555
O8 Sc8 2.133960 1_555
O9 Se13 1.701868 1_545
O9 Sc9 2.133960 1_655
O10 Se14 1.701868 1_565
O10 Sc10 2.133960 1_555
O11 Se15 1.701868 1_555
O11 Sc11 2.133960 1_455
O12 Se16 1.701868 1_555
O12 Sc4 2.133960 1_555
O13 Se17 1.701868 1_565
O13 Sc5 2.133960 1_455
O14 Se18 1.701868 1_545
O14 Sc6 2.133960 1_555
O15 Se19 1.701868 1_555
O15 Sc7 2.133960 1_655
O16 Se12 1.731082 1_556
O16 Sc4 2.195909 1_555
O17 Se13 1.731082 1_545
O17 Sc5 2.195909 1_545
O18 Se14 1.731082 1_564
O18 Sc6 2.195909 1_565
O19 Se15 1.731082 1_555
O19 Sc7 2.195909 1_555
O20 Se16 1.731082 1_554
O20 Sc8 2.195909 1_555
O21 Se17 1.731082 1_565
O21 Sc9 2.195909 1_565
O22 Se18 1.731082 1_546
O22 Sc10 2.195909 1_545
O23 Se19 1.731082 1_555
O23 Sc11 2.195909 1_555
O24 Se0 1.728886 1_455
O24 Sc0 2.073918 1_555
O25 Se1 1.728886 1_555
O25 Sc1 2.073918 1_555
O26 Se2 1.728886 1_655
O26 Sc2 2.073918 1_555
O27 Se3 1.728886 1_555
O27 Sc3 2.073918 1_555
O28 Se4 1.728886 1_655
O28 Sc2 2.073918 1_555
O29 Se5 1.728886 1_555
O29 Sc3 2.073918 1_555
O30 Se6 1.728886 1_455
O30 Sc0 2.073918 1_555
O31 Se7 1.728886 1_555
O31 Sc1 2.073918 1_555
O32 Se8 1.728161 1_555
O32 Sc0 2.044381 1_655
O33 Se9 1.728161 1_555
O33 Sc1 2.044381 1_555
O34 Se10 1.728161 1_555
O34 Sc2 2.044381 1_455
O35 Se11 1.728161 1_555
O35 Sc3 2.044381 1_555
O36 Se0 1.742150 1_455
O36 Sc7 2.135180 1_555
O37 Se1 1.742150 1_555
O37 Sc6 2.135180 1_555
O38 Se2 1.742150 1_655
O38 Sc5 2.135180 1_555
O39 Se3 1.742150 1_555
O39 Sc4 2.135180 1_555
O40 Se4 1.742150 1_655
O40 Sc11 2.135180 1_555
O41 Se5 1.742150 1_555
O41 Sc10 2.135180 1_555
O42 Se6 1.742150 1_455
O42 Sc9 2.135180 1_555
O43 Se7 1.742150 1_555
O43 Sc8 2.135180 1_555
O44 Sc0 2.254590 1_654
O45 Sc1 2.254590 1_555
O46 Sc2 2.254590 1_456
O47 Sc3 2.254590 1_555
O48 Sc2 2.254590 1_456
O49 Sc3 2.254590 1_555
O50 Sc0 2.254590 1_654
O51 Sc1 2.254590 1_555
O52 Se20 1.734970 1_554
O52 Sc2 2.049191 1_555
O53 Se21 1.734970 1_555
O53 Sc3 2.049191 1_555
O54 Se22 1.734970 1_556
O54 Sc0 2.049191 1_555
O55 Se23 1.734970 1_555
O55 Sc1 2.049191 1_555
O56 Se8 1.724910 1_555
O56 Sc4 2.115452 1_555
O57 Se9 1.724910 1_555
O57 Sc5 2.115452 1_545
O58 Se10 1.724910 1_555
O58 Sc6 2.115452 1_565
O59 Se11 1.724910 1_555
O59 Sc7 2.115452 1_555
O60 Se10 1.724910 1_555
O60 Sc8 2.115452 1_555
O61 Se11 1.724910 1_555
O61 Sc9 2.115452 1_565
O62 Se8 1.724910 1_555
O62 Sc10 2.115452 1_545
O63 Se9 1.724910 1_555
O63 Sc11 2.115452 1_555
O64 Se0 1.713129 1_555
O64 Sc4 2.075251 1_555
O65 Se1 1.713129 1_555
O65 Sc5 2.075251 1_545
O66 Se2 1.713129 1_555
O66 Sc6 2.075251 1_565
O67 Se3 1.713129 1_555
O67 Sc7 2.075251 1_555
O68 Se4 1.713129 1_555
O68 Sc8 2.075251 1_555
O69 Se5 1.713129 1_555
O69 Sc9 2.075251 1_565
O70 Se6 1.713129 1_555
O70 Sc10 2.075251 1_545
O71 Se7 1.713129 1_555
O71 Sc11 2.075251 1_555
O72 Se12 1.794689 1_555
O73 Se13 1.794689 1_545
O74 Se14 1.794689 1_565
O75 Se15 1.794689 1_555
O76 Se16 1.794689 1_555
O77 Se17 1.794689 1_565
O78 Se18 1.794689 1_545
O79 Se19 1.794689 1_555
