# generated using pymatgen
data_Mg2NiSbO6
_symmetry_space_group_name_H-M   'P 1'
_cell_length_a   7.49876100
_cell_length_b   5.22755200
_cell_length_c   5.32095522
_cell_angle_alpha   86.44199662
_cell_angle_beta   90.00000000
_cell_angle_gamma   90.00000000
_symmetry_Int_Tables_number   1
_chemical_formula_structural   Mg2NiSbO6
_chemical_formula_sum   'Mg4 Ni2 Sb2 O12'
_cell_volume   208.18026678
_cell_formula_units_Z   2
loop_
 _symmetry_equiv_pos_site_id
 _symmetry_equiv_pos_as_xyz
  1  'x, y, z'
loop_
 _atom_site_type_symbol
 _atom_site_label
 _atom_site_symmetry_multiplicity
 _atom_site_fract_x
 _atom_site_fract_y
 _atom_site_fract_z
 _atom_site_occupancy
  Mg  Mg0  1  0.75000000  0.47520800  0.57231100  1
  Mg  Mg1  1  0.25000000  0.52479200  0.42768900  1
  Mg  Mg2  1  0.75000000  0.98359700  0.03393000  1
  Mg  Mg3  1  0.25000000  0.01640300  0.96607000  1
  Ni  Ni0  1  0.50000000  0.50000000  0.00000000  1
  Ni  Ni1  1  0.00000000  0.50000000  0.00000000  1
  Sb  Sb0  1  0.50000000  0.00000000  0.50000000  1
  Sb  Sb1  1  0.00000000  0.00000000  0.50000000  1
  O  O0  1  0.43391800  0.67162300  0.68305300  1
  O  O1  1  0.07058300  0.83156100  0.19566500  1
  O  O2  1  0.93391800  0.32837700  0.31694700  1
  O  O3  1  0.57058300  0.16843900  0.80433400  1
  O  O4  1  0.42941700  0.83156100  0.19566500  1
  O  O5  1  0.92941700  0.16843900  0.80433400  1
  O  O6  1  0.25000000  0.13663600  0.57817400  1
  O  O7  1  0.06608200  0.67162300  0.68305300  1
  O  O8  1  0.75000000  0.61891200  0.92508600  1
  O  O9  1  0.56608200  0.32837700  0.31694700  1
  O  O10  1  0.75000000  0.86336400  0.42182600  1
  O  O11  1  0.25000000  0.38108800  0.07491400  1
loop_
_geom_bond_atom_site_label_1
_geom_bond_atom_site_label_2
_geom_bond_distance
_geom_bond_site_symmetry_2
Mg0 O8 2.064669 1_555
Mg0 O9 2.113520 1_555
Mg0 O2 2.113520 1_555
Mg0 O10 2.134659 1_555
Mg0 O5 2.379133 1_555
Mg0 O3 2.379133 1_555
Mg0 O0 2.663556 1_555
Mg0 O7 2.663556 1_655
Mg1 O11 2.064669 1_555
Mg1 O7 2.113520 1_555
Mg1 O0 2.113520 1_555
Mg1 O6 2.134659 1_555
Mg1 O4 2.379136 1_555
Mg1 O1 2.379136 1_555
Mg1 O2 2.663556 1_455
Mg1 O9 2.663556 1_555
Mg2 O3 2.022315 1_564
Mg2 O5 2.022315 1_564
Mg2 O8 2.026538 1_554
Mg2 O10 2.119913 1_555
Mg2 O4 2.658285 1_555
Mg2 O1 2.658285 1_655
Mg3 O4 2.022311 1_546
Mg3 O1 2.022311 1_546
Mg3 O11 2.026538 1_556
Mg3 O6 2.119913 1_555
Mg3 O3 2.658287 1_555
Mg3 O5 2.658287 1_455
Ni0 O0 1.925310 1_554
Ni0 O9 1.925310 1_555
Ni0 O8 2.007240 1_554
Ni0 O11 2.007240 1_555
Ni0 O4 2.142947 1_555
Ni0 O3 2.142950 1_554
Ni1 O7 1.925310 1_554
Ni1 O2 1.925310 1_455
Ni1 O11 2.007240 1_555
Ni1 O8 2.007240 1_454
Ni1 O1 2.142947 1_555
Ni1 O5 2.142950 1_454
O0 Sb0 1.983300 1_565
O1 Sb1 1.963351 1_565
O2 Sb1 1.983300 1_655
O3 Sb0 1.963346 1_555
O4 Sb0 1.963351 1_565
O5 Sb1 1.963346 1_655
O6 Sb1 2.057802 1_555
O6 Sb0 2.057802 1_555
O7 Sb1 1.983300 1_565
O9 Sb0 1.983300 1_555
O10 Sb0 2.057802 1_565
O10 Sb1 2.057802 1_665
