# generated using pymatgen
data_TeO2
_symmetry_space_group_name_H-M   'P 1'
_cell_length_a   3.57763700
_cell_length_b   5.85566700
_cell_length_c   8.02400800
_cell_angle_alpha   90.00000000
_cell_angle_beta   90.00000000
_cell_angle_gamma   90.00000000
_symmetry_Int_Tables_number   1
_chemical_formula_structural   TeO2
_chemical_formula_sum   'Te4 O8'
_cell_volume   168.09856177
_cell_formula_units_Z   4
loop_
 _symmetry_equiv_pos_site_id
 _symmetry_equiv_pos_as_xyz
  1  'x, y, z'
loop_
 _atom_site_type_symbol
 _atom_site_label
 _atom_site_symmetry_multiplicity
 _atom_site_fract_x
 _atom_site_fract_y
 _atom_site_fract_z
 _atom_site_occupancy
  Te  Te0  1  0.25000000  0.23942700  0.43879600  1
  Te  Te1  1  0.25000000  0.73942700  0.06120400  1
  Te  Te2  1  0.75000000  0.76057300  0.56120400  1
  Te  Te3  1  0.75000000  0.26057300  0.93879600  1
  O  O0  1  0.25000000  0.13195000  0.03887400  1
  O  O1  1  0.25000000  0.63195000  0.46112600  1
  O  O2  1  0.75000000  0.86805000  0.96112600  1
  O  O3  1  0.75000000  0.36805000  0.53887400  1
  O  O4  1  0.25000000  0.04054300  0.63026500  1
  O  O5  1  0.25000000  0.54054300  0.86973500  1
  O  O6  1  0.75000000  0.95945700  0.36973500  1
  O  O7  1  0.75000000  0.45945700  0.13026500  1
loop_
_geom_bond_atom_site_label_1
_geom_bond_atom_site_label_2
_geom_bond_distance
_geom_bond_site_symmetry_2
O0 Te3 2.100475 1_454
O0 Te3 2.100475 1_554
O0 Te1 2.305457 1_545
O1 Te2 2.100475 1_455
O1 Te2 2.100475 1_555
O1 Te0 2.305457 1_555
O2 Te1 2.100475 1_556
O2 Te1 2.100475 1_656
O2 Te3 2.305457 1_565
O3 Te0 2.100475 1_555
O3 Te0 2.100475 1_655
O3 Te2 2.305457 1_555
O4 Te0 1.927863 1_555
O4 Te2 2.488899 1_545
O4 Te2 2.488899 1_445
O5 Te1 1.927863 1_556
O5 Te3 2.488899 1_555
O5 Te3 2.488899 1_455
O6 Te2 1.927863 1_555
O6 Te0 2.488899 1_565
O6 Te0 2.488899 1_665
O7 Te3 1.927863 1_554
O7 Te1 2.488899 1_555
O7 Te1 2.488899 1_655
