# generated using pymatgen
data_Li3MnCoO5
_symmetry_space_group_name_H-M   'P 1'
_cell_length_a   2.91687500
_cell_length_b   6.57318823
_cell_length_c   9.90756375
_cell_angle_alpha   100.86994057
_cell_angle_beta   89.22935276
_cell_angle_gamma   102.79276888
_symmetry_Int_Tables_number   1
_chemical_formula_structural   Li3MnCoO5
_chemical_formula_sum   'Li6 Mn2 Co2 O10'
_cell_volume   181.84091168
_cell_formula_units_Z   2
loop_
 _symmetry_equiv_pos_site_id
 _symmetry_equiv_pos_as_xyz
  1  'x, y, z'
loop_
 _atom_site_type_symbol
 _atom_site_label
 _atom_site_symmetry_multiplicity
 _atom_site_fract_x
 _atom_site_fract_y
 _atom_site_fract_z
 _atom_site_occupancy
  Li  Li0  1  0.11643700  0.20246500  0.30875900  1
  Li  Li1  1  0.90564100  0.81339700  0.70440700  1
  Li  Li2  1  0.51338300  0.01121900  0.50720100  1
  Li  Li3  1  0.29375300  0.58157400  0.88899200  1
  Li  Li4  1  0.67816400  0.39262300  0.08402900  1
  Li  Li5  1  0.61019100  0.20697600  0.80375600  1
  Mn  Mn0  1  0.99166400  0.00975900  0.99573300  1
  Mn  Mn1  1  0.80840700  0.59650100  0.40212800  1
  Co  Co0  1  0.39726100  0.79822300  0.19680700  1
  Co  Co1  1  0.19565400  0.37927200  0.61558700  1
  O  O0  1  0.51984900  0.08321600  0.13371400  1
  O  O1  1  0.34892600  0.68542600  0.52869200  1
  O  O2  1  0.95976000  0.87726900  0.33890200  1
  O  O3  1  0.75505700  0.50552200  0.73940600  1
  O  O4  1  0.12926100  0.27737300  0.95737300  1
  O  O5  1  0.67114100  0.32534000  0.44974800  1
  O  O6  1  0.44708200  0.91197100  0.87197800  1
  O  O7  1  0.05774800  0.11046400  0.64300500  1
  O  O8  1  0.82897800  0.71699400  0.06072300  1
  O  O9  1  0.27164400  0.51441600  0.26906000  1
loop_
_geom_bond_atom_site_label_1
_geom_bond_atom_site_label_2
_geom_bond_distance
_geom_bond_site_symmetry_2
Li0 O5 2.068342 1_555
Li0 O5 2.069031 1_455
Li0 O9 2.110107 1_555
Li0 O2 2.161423 1_445
Li0 O0 2.201725 1_555
Li0 O0 2.369539 1_455
Li1 O3 2.067737 1_555
Li1 O7 2.106414 1_665
Li1 O6 2.209533 1_655
Li1 O6 2.209881 1_555
Li1 O1 2.297608 1_655
Li1 O1 2.300890 1_555
Li2 O7 2.001756 1_555
Li2 O7 2.006204 1_655
Li2 O1 2.139103 1_545
Li2 O5 2.194204 1_555
Li2 O2 2.247745 1_445
Li2 O2 2.268570 1_545
Li3 O3 2.054675 1_555
Li3 O3 2.085831 1_455
Li3 O6 2.156593 1_555
Li3 O4 2.182843 1_555
Li3 O8 2.238158 1_556
Li3 O8 2.329438 1_456
Li4 O4 1.967328 1_554
Li4 O4 1.979480 1_654
Li4 O0 2.132471 1_555
Li4 O8 2.135530 1_555
Li4 O9 2.283856 1_555
Li4 O9 2.432364 1_655
Li5 O4 2.075813 1_655
Li5 O4 2.112537 1_555
Li5 O6 2.126156 1_545
Li5 O3 2.129189 1_555
Li5 O7 2.138456 1_655
Li5 O7 2.184234 1_555
Mn0 O4 1.826271 1_655
Mn0 O6 1.928270 1_645
Mn0 O6 1.934619 1_545
Mn0 O0 1.988428 1_656
Mn0 O0 1.997671 1_556
Mn0 O8 2.097095 1_546
Mn1 O5 1.885702 1_555
Mn1 O1 1.932765 1_555
Mn1 O1 1.941238 1_655
Mn1 O9 1.965110 1_655
Mn1 O9 1.973246 1_555
Mn1 O2 2.015214 1_555
Co0 O8 1.915519 1_555
Co0 O2 1.962106 1_455
Co0 O0 2.041301 1_565
Co0 O8 2.060880 1_455
Co0 O9 2.078644 1_555
Co0 O2 2.086302 1_555
Co1 O7 1.794703 1_555
Co1 O3 1.972604 1_455
Co1 O3 1.981482 1_555
Co1 O5 2.164640 1_555
Co1 O5 2.184898 1_455
Co1 O1 2.288120 1_555
