# generated using pymatgen
data_Tb5(MoO6)2
_symmetry_space_group_name_H-M   'P 1'
_cell_length_a   6.78260305
_cell_length_b   6.78260306
_cell_length_c   7.55060605
_cell_angle_alpha   73.66632015
_cell_angle_beta   73.66632867
_cell_angle_gamma   49.93010506
_symmetry_Int_Tables_number   1
_chemical_formula_structural   Tb5(MoO6)2
_chemical_formula_sum   'Tb5 Mo2 O12'
_cell_volume   252.70366265
_cell_formula_units_Z   1
loop_
 _symmetry_equiv_pos_site_id
 _symmetry_equiv_pos_as_xyz
  1  'x, y, z'
loop_
 _atom_site_type_symbol
 _atom_site_label
 _atom_site_symmetry_multiplicity
 _atom_site_fract_x
 _atom_site_fract_y
 _atom_site_fract_z
 _atom_site_occupancy
  Tb  Tb0  1  0.30639221  0.30639221  0.36022020  1
  Tb  Tb1  1  0.69360779  0.69360779  0.63977980  1
  Tb  Tb2  1  0.31473768  0.31473768  0.82279031  1
  Tb  Tb3  1  0.68526232  0.68526232  0.17720969  1
  Tb  Tb4  1  0.00000000  0.00000000  0.50000000  1
  Mo  Mo0  1  0.78335874  0.21664126  -0.00000000  1
  Mo  Mo1  1  0.21664126  0.78335874  0.00000000  1
  O  O0  1  0.90763500  0.41771529  0.91852230  1
  O  O1  1  0.41771529  0.90763500  0.91852230  1
  O  O2  1  0.09236500  0.58228471  0.08147770  1
  O  O3  1  0.58228471  0.09236500  0.08147770  1
  O  O4  1  0.09695279  0.59229168  0.57591271  1
  O  O5  1  0.59229168  0.09695279  0.57591271  1
  O  O6  1  0.90304721  0.40770832  0.42408729  1
  O  O7  1  0.40770832  0.90304721  0.42408729  1
  O  O8  1  0.00023521  0.00023521  0.79556664  1
  O  O9  1  0.99976479  0.99976479  0.20443336  1
  O  O10  1  0.50069650  0.50069650  0.81907755  1
  O  O11  1  0.49930350  0.49930350  0.18092245  1
loop_
_geom_bond_atom_site_label_1
_geom_bond_atom_site_label_2
_geom_bond_distance
_geom_bond_site_symmetry_2
Mo0 O0 1.914516 1_554
Mo0 O3 1.914516 1_555
Mo0 O9 1.979499 1_545
Mo0 O8 1.979499 1_654
Mo0 O10 2.119191 1_554
Mo0 O11 2.119191 1_555
Mo1 O2 1.914516 1_555
Mo1 O1 1.914516 1_554
Mo1 O8 1.979499 1_564
Mo1 O9 1.979499 1_455
Mo1 O11 2.119191 1_555
Mo1 O10 2.119191 1_554
O0 Tb2 2.305005 1_655
O0 Tb1 2.458581 1_555
O0 Tb3 2.489164 1_556
O1 Tb2 2.305005 1_565
O1 Tb1 2.458581 1_555
O1 Tb3 2.489164 1_556
O2 Tb3 2.305005 1_455
O2 Tb0 2.458581 1_555
O2 Tb2 2.489164 1_554
O3 Tb3 2.305005 1_545
O3 Tb0 2.458581 1_555
O3 Tb2 2.489164 1_554
O4 Tb2 2.279374 1_555
O4 Tb1 2.283201 1_455
O4 Tb0 2.314995 1_555
O4 Tb4 2.321057 1_565
O5 Tb2 2.279375 1_555
O5 Tb1 2.283201 1_545
O5 Tb0 2.314994 1_555
O5 Tb4 2.321057 1_655
O6 Tb3 2.279374 1_555
O6 Tb0 2.283201 1_655
O6 Tb1 2.314995 1_555
O6 Tb4 2.321057 1_655
O7 Tb3 2.279375 1_555
O7 Tb0 2.283201 1_565
O7 Tb1 2.314994 1_555
O7 Tb4 2.321057 1_565
O8 Tb4 2.232606 1_555
O9 Tb4 2.232606 1_665
O10 Tb2 2.278334 1_555
O10 Tb1 2.338437 1_555
O11 Tb3 2.278334 1_555
O11 Tb0 2.338437 1_555
