# generated using pymatgen
data_CsSi2BO6
_symmetry_space_group_name_H-M   'P 1'
_cell_length_a   11.38970566
_cell_length_b   11.38970566
_cell_length_c   11.38970566
_cell_angle_alpha   109.25511422
_cell_angle_beta   109.25511422
_cell_angle_gamma   109.90430343
_symmetry_Int_Tables_number   1
_chemical_formula_structural   CsSi2BO6
_chemical_formula_sum   'Cs8 Si16 B8 O48'
_cell_volume   1137.35747327
_cell_formula_units_Z   8
loop_
 _symmetry_equiv_pos_site_id
 _symmetry_equiv_pos_as_xyz
  1  'x, y, z'
loop_
 _atom_site_type_symbol
 _atom_site_label
 _atom_site_symmetry_multiplicity
 _atom_site_fract_x
 _atom_site_fract_y
 _atom_site_fract_z
 _atom_site_occupancy
  Cs  Cs0  1  0.37347300  0.37347300  0.24694500  1
  Cs  Cs1  1  0.62652700  0.87347300  0.00000000  1
  Cs  Cs2  1  0.12347300  0.62347300  0.74694500  1
  Cs  Cs3  1  0.37652700  0.12347300  0.50000000  1
  Cs  Cs4  1  0.87652700  0.37652700  0.25305500  1
  Cs  Cs5  1  0.62347300  0.87652700  0.50000000  1
  Cs  Cs6  1  0.12652700  0.12652700  0.75305500  1
  Cs  Cs7  1  0.87347300  0.62652700  0.00000000  1
  Si  Si0  1  0.90511100  0.13018500  0.95740800  1
  Si  Si1  1  0.67277700  0.63018500  0.22507400  1
  Si  Si2  1  0.88018500  0.15511100  0.45740800  1
  Si  Si3  1  0.19770300  0.65511100  0.27492600  1
  Si  Si4  1  0.34488900  0.61981500  0.54259200  1
  Si  Si5  1  0.57722300  0.11981500  0.27492600  1
  Si  Si6  1  0.36981500  0.59488900  0.04259200  1
  Si  Si7  1  0.05229700  0.09488900  0.22507400  1
  Si  Si8  1  0.40511100  0.44770300  0.77492600  1
  Si  Si9  1  0.17277700  0.94770200  0.04259200  1
  Si  Si10  1  0.38018500  0.92277700  0.72507400  1
  Si  Si11  1  0.69770200  0.42277700  0.54259200  1
  Si  Si12  1  0.84488900  0.30229700  0.72507400  1
  Si  Si13  1  0.07722300  0.80229700  0.45740800  1
  Si  Si14  1  0.86981500  0.82722300  0.77492600  1
  Si  Si15  1  0.55229700  0.32722300  0.95740800  1
  B  B0  1  0.58561100  0.58561100  0.67122300  1
  B  B1  1  0.41438900  0.08561100  0.00000000  1
  B  B2  1  0.33561100  0.83561100  0.17122300  1
  B  B3  1  0.16438900  0.33561100  0.50000000  1
  B  B4  1  0.66438900  0.16438900  0.82877700  1
  B  B5  1  0.83561100  0.66438900  0.50000000  1
  B  B6  1  0.91438900  0.91438900  0.32877700  1
  B  B7  1  0.08561100  0.41438900  0.00000000  1
  O  O0  1  0.23466700  0.46667300  0.02485600  1
  O  O1  1  0.94181700  0.96667300  0.23200600  1
  O  O2  1  0.21667300  0.48466700  0.52485600  1
  O  O3  1  0.45981100  0.98466700  0.26799400  1
  O  O4  1  0.01533300  0.28332700  0.47514400  1
  O  O5  1  0.30818300  0.78332700  0.26799400  1
  O  O6  1  0.03332700  0.26533300  0.97514400  1
  O  O7  1  0.79018900  0.76533300  0.23200600  1
  O  O8  1  0.73466700  0.70981100  0.76799400  1
  O  O9  1  0.44181700  0.20981100  0.97514400  1
  O  O10  1  0.71667300  0.19181700  0.73200600  1
  O  O11  1  0.95981100  0.69181700  0.47514400  1
  O  O12  1  0.51533300  0.04018900  0.73200600  1
  O  O13  1  0.80818300  0.54018900  0.52485600  1
  O  O14  1  0.53332700  0.55818300  0.76799400  1
  O  O15  1  0.29018900  0.05818300  0.02485600  1
  O  O16  1  0.95250500  0.12186100  0.10636800  1
  O  O17  1  0.51549300  0.62186100  0.16935600  1
  O  O18  1  0.87186100  0.20250500  0.60636800  1
  O  O19  1  0.09613700  0.70250500  0.33064400  1
  O  O20  1  0.29749500  0.62813900  0.39363200  1
  O  O21  1  0.73450700  0.12813900  0.33064400  1
  O  O22  1  0.37813900  0.54749500  0.89363200  1
  O  O23  1  0.15386300  0.04749500  0.16935600  1
  O  O24  1  0.45250500  0.34613700  0.83064400  1
  O  O25  1  0.01549300  0.84613700  0.89363200  1
  O  O26  1  0.37186100  0.76549300  0.66935600  1
  O  O27  1  0.59613700  0.26549300  0.39363200  1
  O  O28  1  0.79749500  0.40386300  0.66935600  1
  O  O29  1  0.23450700  0.90386300  0.60636800  1
  O  O30  1  0.87813900  0.98450700  0.83064400  1
  O  O31  1  0.65386300  0.48450700  0.10636800  1
  O  O32  1  0.08287800  0.50496100  0.12547300  1
  O  O33  1  0.87948800  0.00496100  0.42208200  1
  O  O34  1  0.25496100  0.33287800  0.62547300  1
  O  O35  1  0.20740500  0.83287800  0.07791800  1
  O  O36  1  0.16712200  0.24503900  0.37452700  1
  O  O37  1  0.37051200  0.74503900  0.07791800  1
  O  O38  1  0.99503900  0.41712200  0.87452700  1
  O  O39  1  0.04259500  0.91712200  0.42208200  1
  O  O40  1  0.58287800  0.45740500  0.57791800  1
  O  O41  1  0.37948800  0.95740500  0.87452700  1
  O  O42  1  0.75496100  0.12948800  0.92208200  1
  O  O43  1  0.70740500  0.62948800  0.37452700  1
  O  O44  1  0.66712200  0.29259500  0.92208200  1
  O  O45  1  0.87051200  0.79259500  0.62547300  1
  O  O46  1  0.49503900  0.62051200  0.57791800  1
  O  O47  1  0.54259500  0.12051200  0.12547300  1
loop_
_geom_bond_atom_site_label_1
_geom_bond_atom_site_label_2
_geom_bond_distance
_geom_bond_site_symmetry_2
Cs0 O0 3.209497 1_555
Cs0 O15 3.209501 1_555
Cs0 O17 3.298013 1_555
Cs0 O23 3.298026 1_555
Cs0 O46 3.309631 1_555
Cs0 O40 3.309632 1_555
Cs0 O43 3.329967 1_555
Cs0 O36 3.329979 1_555
Cs0 O20 3.379340 1_555
Cs0 O27 3.379341 1_555
Cs0 O9 3.526410 1_554
Cs0 O6 3.526415 1_554
Cs1 O1 3.209505 1_555
Cs1 O14 3.209505 1_554
Cs1 O22 3.298022 1_554
Cs1 O16 3.298022 1_565
Cs1 O47 3.309614 1_565
Cs1 O41 3.309614 1_554
Cs1 O37 3.329977 1_555
Cs1 O42 3.329977 1_564
Cs1 O21 3.379337 1_565
Cs1 O26 3.379337 1_554
Cs1 O7 3.526419 1_555
Cs1 O8 3.526419 1_554
Cs2 O2 3.209497 1_555
Cs2 O13 3.209501 1_455
Cs2 O26 3.298013 1_555
Cs2 O28 3.298026 1_455
Cs2 O37 3.309631 1_556
Cs2 O35 3.309632 1_556
Cs2 O41 3.329967 1_555
Cs2 O38 3.329979 1_455
Cs2 O22 3.379340 1_555
Cs2 O25 3.379341 1_555
Cs2 O11 3.526410 1_455
Cs2 O4 3.526415 1_555
Cs3 O3 3.209505 1_545
Cs3 O12 3.209505 1_555
Cs3 O27 3.298022 1_555
Cs3 O29 3.298022 1_545
Cs3 O36 3.309614 1_555
Cs3 O34 3.309614 1_555
Cs3 O39 3.329965 1_545
Cs3 O40 3.329965 1_555
Cs3 O24 3.379337 1_555
Cs3 O23 3.379337 1_555
Cs3 O5 3.526419 1_545
Cs3 O10 3.526419 1_555
Cs4 O4 3.209497 1_655
Cs4 O11 3.209501 1_555
Cs4 O21 3.298013 1_555
Cs4 O19 3.298026 1_655
Cs4 O42 3.309631 1_554
Cs4 O44 3.309632 1_554
Cs4 O47 3.329967 1_555
Cs4 O32 3.329979 1_655
Cs4 O16 3.379340 1_555
Cs4 O31 3.379341 1_555
Cs4 O13 3.526410 1_555
Cs4 O2 3.526415 1_655
Cs5 O10 3.209505 1_565
Cs5 O5 3.209505 1_555
Cs5 O18 3.298022 1_565
Cs5 O20 3.298022 1_555
Cs5 O45 3.309614 1_555
Cs5 O43 3.309614 1_555
Cs5 O33 3.329977 1_565
Cs5 O46 3.329977 1_555
Cs5 O30 3.379337 1_555
Cs5 O17 3.379337 1_555
Cs5 O3 3.526419 1_555
Cs5 O12 3.526419 1_565
Cs6 O6 3.209497 1_555
Cs6 O9 3.209501 1_555
Cs6 O30 3.298013 1_445
Cs6 O24 3.298026 1_555
Cs6 O33 3.309631 1_455
Cs6 O39 3.309632 1_545
Cs6 O45 3.329967 1_445
Cs6 O34 3.329979 1_555
Cs6 O18 3.379340 1_455
Cs6 O29 3.379341 1_545
Cs6 O15 3.526410 1_556
Cs6 O0 3.526415 1_556
Cs7 O7 3.209505 1_555
Cs7 O8 3.209505 1_554
Cs7 O25 3.298022 1_654
Cs7 O31 3.298022 1_555
Cs7 O32 3.309614 1_655
Cs7 O38 3.309614 1_554
Cs7 O44 3.329965 1_554
Cs7 O35 3.329965 1_655
Cs7 O19 3.379337 1_655
Cs7 O28 3.379337 1_554
Cs7 O14 3.526419 1_554
Cs7 O1 3.526419 1_555
B0 O46 1.478628 1_555
B0 O40 1.478628 1_555
B0 O14 1.483364 1_555
B0 O8 1.483374 1_555
B1 O41 1.478628 1_544
B1 O47 1.478628 1_555
B1 O9 1.483375 1_554
B1 O15 1.483375 1_555
B2 O37 1.478628 1_555
B2 O35 1.478628 1_555
B2 O5 1.483364 1_555
B2 O3 1.483374 1_555
B3 O34 1.478628 1_555
B3 O36 1.478628 1_555
B3 O4 1.483375 1_555
B3 O2 1.483375 1_555
B4 O42 1.478628 1_555
B4 O44 1.478628 1_555
B4 O10 1.483364 1_555
B4 O12 1.483374 1_555
B5 O45 1.478628 1_555
B5 O43 1.478628 1_555
B5 O13 1.483375 1_555
B5 O11 1.483375 1_555
B6 O39 1.478628 1_655
B6 O33 1.478628 1_565
B6 O1 1.483364 1_555
B6 O7 1.483374 1_555
B7 O38 1.478628 1_454
B7 O32 1.478628 1_555
B7 O0 1.483375 1_555
B7 O6 1.483375 1_554
O0 Si6 1.616351 1_555
O1 Si7 1.616351 1_665
O2 Si4 1.616351 1_555
O3 Si5 1.616351 1_565
O4 Si2 1.616351 1_455
O5 Si3 1.616351 1_555
O6 Si0 1.616351 1_455
O7 Si1 1.616351 1_555
O8 Si14 1.616351 1_555
O9 Si15 1.616351 1_555
O10 Si12 1.616351 1_555
O11 Si13 1.616351 1_655
O12 Si10 1.616351 1_545
O13 Si11 1.616357 1_555
O14 Si8 1.616351 1_555
O15 Si9 1.616357 1_545
O16 Si7 1.646925 1_655
O16 Si0 1.647957 1_554
O17 Si6 1.646925 1_555
O17 Si1 1.647957 1_555
O18 Si12 1.646925 1_555
O18 Si2 1.647957 1_555
O19 Si13 1.646925 1_555
O19 Si3 1.647957 1_555
O20 Si3 1.646925 1_555
O20 Si4 1.647957 1_555
O21 Si2 1.646925 1_555
O21 Si5 1.647957 1_555
O22 Si8 1.646925 1_555
O22 Si6 1.647957 1_556
O23 Si9 1.646930 1_545
O23 Si7 1.647957 1_555
O24 Si15 1.646925 1_555
O24 Si8 1.647957 1_555
O25 Si14 1.646925 1_455
O25 Si9 1.647957 1_556
O26 Si4 1.646925 1_555
O26 Si10 1.647957 1_555
O27 Si5 1.646925 1_555
O27 Si11 1.647957 1_555
O28 Si11 1.646930 1_555
O28 Si12 1.647957 1_555
O29 Si10 1.646925 1_555
O29 Si13 1.647957 1_555
O30 Si0 1.646925 1_565
O30 Si14 1.647957 1_555
O31 Si1 1.646925 1_555
O31 Si15 1.647957 1_554
O32 Si3 1.619085 1_555
O33 Si2 1.619084 1_555
O34 Si8 1.619085 1_555
O35 Si9 1.619079 1_555
O36 Si7 1.619085 1_555
O37 Si6 1.619084 1_555
O38 Si12 1.619085 1_555
O39 Si13 1.619090 1_555
O40 Si11 1.619079 1_555
O41 Si10 1.619085 1_555
O42 Si0 1.619084 1_555
O43 Si1 1.619085 1_555
O44 Si15 1.619090 1_555
O45 Si14 1.619085 1_555
O46 Si4 1.619084 1_555
O47 Si5 1.619085 1_555
