# generated using pymatgen
data_Ni(I5N3)2
_symmetry_space_group_name_H-M   'P 1'
_cell_length_a   16.20917400
_cell_length_b   8.72417600
_cell_length_c   11.81294296
_cell_angle_alpha   49.69393762
_cell_angle_beta   90.00000000
_cell_angle_gamma   90.00000000
_symmetry_Int_Tables_number   1
_chemical_formula_structural   Ni(I5N3)2
_chemical_formula_sum   'Ni2 I20 N12'
_cell_volume   1273.91410963
_cell_formula_units_Z   2
loop_
 _symmetry_equiv_pos_site_id
 _symmetry_equiv_pos_as_xyz
  1  'x, y, z'
loop_
 _atom_site_type_symbol
 _atom_site_label
 _atom_site_symmetry_multiplicity
 _atom_site_fract_x
 _atom_site_fract_y
 _atom_site_fract_z
 _atom_site_occupancy
  Ni  Ni0  1  0.00000000  0.00000000  0.00000000  1
  Ni  Ni1  1  0.50000000  0.00000000  0.50000000  1
  I  I0  1  0.51651800  0.72908800  0.02882300  1
  I  I1  1  0.48348200  0.27091200  0.97117700  1
  I  I2  1  0.01651800  0.27091200  0.47117700  1
  I  I3  1  0.98348200  0.72908800  0.52882300  1
  I  I4  1  0.74498800  0.00492000  0.16804800  1
  I  I5  1  0.25501200  0.99508000  0.83195200  1
  I  I6  1  0.24498800  0.99508000  0.33195200  1
  I  I7  1  0.75501200  0.00492000  0.66804800  1
  I  I8  1  0.91638300  0.73391000  0.97982400  1
  I  I9  1  0.08361700  0.26609000  0.02017600  1
  I  I10  1  0.41638300  0.26609000  0.52017600  1
  I  I11  1  0.58361700  0.73391000  0.47982400  1
  I  I12  1  0.68666300  0.69749800  0.96796700  1
  I  I13  1  0.31333700  0.30250200  0.03203300  1
  I  I14  1  0.18666300  0.30250200  0.53203300  1
  I  I15  1  0.81333700  0.69749800  0.46796700  1
  I  I16  1  0.34629100  0.72364600  0.11333400  1
  I  I17  1  0.65370900  0.27635400  0.88666600  1
  I  I18  1  0.84629100  0.27635400  0.38666600  1
  I  I19  1  0.15370900  0.72364600  0.61333400  1
  N  N0  1  0.92252600  0.77377800  0.12542200  1
  N  N1  1  0.07747400  0.22622200  0.87457800  1
  N  N2  1  0.42252600  0.22622200  0.37457800  1
  N  N3  1  0.57747400  0.77377800  0.62542200  1
  N  N4  1  0.51042800  0.96811100  0.35230900  1
  N  N5  1  0.48957200  0.03188900  0.64769100  1
  N  N6  1  0.01042800  0.03188900  0.14769100  1
  N  N7  1  0.98957200  0.96811100  0.85230900  1
  N  N8  1  0.41623100  0.80418700  0.59387700  1
  N  N9  1  0.58376900  0.19581300  0.40612300  1
  N  N10  1  0.91623100  0.19581300  0.90612300  1
  N  N11  1  0.08376900  0.80418700  0.09387700  1
loop_
_geom_bond_atom_site_label_1
_geom_bond_atom_site_label_2
_geom_bond_distance
_geom_bond_site_symmetry_2
I0 I12 2.907773 1_554
I0 I16 2.924207 1_555
I1 I13 2.907773 1_556
I1 I17 2.924207 1_555
I8 N0 1.965460 1_556
I8 N7 1.967057 1_555
I9 N1 1.965460 1_554
I9 N6 1.967057 1_555
I10 N2 1.965460 1_555
I10 N5 1.967057 1_555
I11 N3 1.965460 1_555
I11 N4 1.967057 1_555
I12 I7 2.946109 1_565
I13 I6 2.946109 1_545
I14 I2 2.907773 1_555
I14 I5 2.946109 1_545
I15 I3 2.907773 1_555
I15 I4 2.946109 1_565
I16 I5 2.943126 1_554
I17 I4 2.943126 1_556
I18 I2 2.924207 1_655
I18 I7 2.943126 1_555
I19 I3 2.924207 1_455
I19 I6 2.943126 1_555
N0 Ni0 1.970846 1_665
N1 Ni0 1.970846 1_556
N2 Ni1 1.970846 1_555
N3 Ni1 1.970846 1_565
N4 Ni1 1.943650 1_565
N5 Ni1 1.943650 1_555
N6 Ni0 1.943650 1_555
N7 Ni0 1.943650 1_666
N8 Ni1 1.881722 1_565
N9 Ni1 1.881722 1_555
N10 Ni0 1.881722 1_656
N11 Ni0 1.881722 1_565
