# generated using pymatgen
data_Na2TeO5
_symmetry_space_group_name_H-M   'P 1'
_cell_length_a   6.34320978
_cell_length_b   6.34320978
_cell_length_c   9.20578200
_cell_angle_alpha   90.00000000
_cell_angle_beta   90.00000000
_cell_angle_gamma   117.09883450
_symmetry_Int_Tables_number   1
_chemical_formula_structural   Na2TeO5
_chemical_formula_sum   'Na4 Te2 O10'
_cell_volume   329.74422120
_cell_formula_units_Z   2
loop_
 _symmetry_equiv_pos_site_id
 _symmetry_equiv_pos_as_xyz
  1  'x, y, z'
loop_
 _atom_site_type_symbol
 _atom_site_label
 _atom_site_symmetry_multiplicity
 _atom_site_fract_x
 _atom_site_fract_y
 _atom_site_fract_z
 _atom_site_occupancy
  Na  Na0  1  0.00000000  0.00000000  0.50000000  1
  Na  Na1  1  0.00000000  0.00000000  0.00000000  1
  Na  Na2  1  0.39140100  0.60859900  0.75000000  1
  Na  Na3  1  0.60859900  0.39140100  0.25000000  1
  Te  Te0  1  0.77739100  0.22260900  0.75000000  1
  Te  Te1  1  0.22260900  0.77739100  0.25000000  1
  O  O0  1  0.93837500  0.06162500  0.25000000  1
  O  O1  1  0.06162500  0.93837500  0.75000000  1
  O  O2  1  0.65115100  0.94099700  0.87456200  1
  O  O3  1  0.94099700  0.65115100  0.12543800  1
  O  O4  1  0.65115100  0.94099700  0.62543800  1
  O  O5  1  0.94099700  0.65115100  0.37456200  1
  O  O6  1  0.34884900  0.05900300  0.12543800  1
  O  O7  1  0.05900300  0.34884900  0.87456200  1
  O  O8  1  0.34884900  0.05900300  0.37456200  1
  O  O9  1  0.05900300  0.34884900  0.62543800  1
loop_
_geom_bond_atom_site_label_1
_geom_bond_atom_site_label_2
_geom_bond_distance
_geom_bond_site_symmetry_2
Na0 O5 2.369724 1_445
Na0 O8 2.369724 1_555
Na0 O4 2.369724 1_445
Na0 O9 2.369724 1_555
Na0 O1 2.396136 1_545
Na0 O0 2.396136 1_455
Na1 O3 2.369724 1_445
Na1 O7 2.369724 1_554
Na1 O2 2.369724 1_444
Na1 O6 2.369724 1_555
Na1 O1 2.396136 1_544
Na1 O0 2.396136 1_455
Na2 O2 2.304404 1_555
Na2 O7 2.304404 1_555
Na2 O4 2.304404 1_555
Na2 O9 2.304404 1_555
Na3 O3 2.304404 1_555
Na3 O5 2.304404 1_555
Na3 O8 2.304404 1_555
Na3 O6 2.304404 1_555
O2 Te0 1.960582 1_565
O3 Te1 1.960582 1_655
O4 Te0 1.960582 1_565
O5 Te1 1.960582 1_655
O6 Te1 1.960582 1_545
O7 Te0 1.960582 1_455
O8 Te1 1.960582 1_545
O9 Te0 1.960582 1_455
