# generated using pymatgen
data_DySbPd
_symmetry_space_group_name_H-M   'P 1'
_cell_length_a   4.64030292
_cell_length_b   4.64030292
_cell_length_c   4.64030292
_cell_angle_alpha   90.00000000
_cell_angle_beta   60.00000000
_cell_angle_gamma   120.00000000
_symmetry_Int_Tables_number   1
_chemical_formula_structural   DySbPd
_chemical_formula_sum   'Dy1 Sb1 Pd1'
_cell_volume   70.65192489
_cell_formula_units_Z   1
loop_
 _symmetry_equiv_pos_site_id
 _symmetry_equiv_pos_as_xyz
  1  'x, y, z'
loop_
 _atom_site_type_symbol
 _atom_site_label
 _atom_site_symmetry_multiplicity
 _atom_site_fract_x
 _atom_site_fract_y
 _atom_site_fract_z
 _atom_site_occupancy
  Dy  Dy0  1  -0.00000000  -0.00000000  0.00000000  1
  Sb  Sb0  1  0.00000000  0.50000000  0.50000000  1
  Pd  Pd0  1  0.50000000  0.75000000  0.75000000  1
loop_
_geom_bond_atom_site_label_1
_geom_bond_atom_site_label_2
_geom_bond_distance
_geom_bond_site_symmetry_2
Dy0 Pd0 2.841594 1_544
Dy0 Pd0 2.841594 1_554
Dy0 Pd0 2.841594 1_444
Dy0 Pd0 2.841594 1_445
Dy0 Sb0 3.281190 1_544
Dy0 Sb0 3.281190 1_555
Dy0 Sb0 3.281190 1_445
Dy0 Sb0 3.281190 1_654
Dy0 Sb0 3.281190 1_554
Dy0 Sb0 3.281190 1_545
Pd0 Sb0 2.841594 1_556
Pd0 Sb0 2.841594 1_555
Pd0 Sb0 2.841594 1_655
Pd0 Sb0 2.841594 1_665
