# generated using pymatgen
data_BaCaEuSbO6
_symmetry_space_group_name_H-M   'P 1'
_cell_length_a   8.42670795
_cell_length_b   8.46360602
_cell_length_c   8.41952487
_cell_angle_alpha   90.00000000
_cell_angle_beta   90.00000000
_cell_angle_gamma   90.00000000
_symmetry_Int_Tables_number   1
_chemical_formula_structural   BaCaEuSbO6
_chemical_formula_sum   'Ba4 Ca4 Eu4 Sb4 O24'
_cell_volume   600.48334382
_cell_formula_units_Z   4
loop_
 _symmetry_equiv_pos_site_id
 _symmetry_equiv_pos_as_xyz
  1  'x, y, z'
loop_
 _atom_site_type_symbol
 _atom_site_label
 _atom_site_symmetry_multiplicity
 _atom_site_fract_x
 _atom_site_fract_y
 _atom_site_fract_z
 _atom_site_occupancy
  Ba  Ba0  1  0.00000000  0.00000000  -0.00000000  1
  Ba  Ba1  1  0.50000000  0.50000000  0.50000000  1
  Ba  Ba2  1  0.50000000  0.00000000  0.50000000  1
  Ba  Ba3  1  0.50000000  0.50000000  -0.00000000  1
  Ca  Ca0  1  0.00000000  0.50000000  0.50000000  1
  Ca  Ca1  1  0.50000000  0.00000000  -0.00000000  1
  Ca  Ca2  1  -0.00000000  0.50000000  -0.00000000  1
  Ca  Ca3  1  -0.00000000  0.00000000  0.50000000  1
  Eu  Eu0  1  0.75433998  0.75049833  0.75040382  1
  Eu  Eu1  1  0.24566002  0.24950167  0.75040382  1
  Eu  Eu2  1  0.24566002  0.75049833  0.24959618  1
  Eu  Eu3  1  0.75433998  0.24950167  0.24959618  1
  Sb  Sb0  1  0.24448169  0.24937311  0.25068517  1
  Sb  Sb1  1  0.75551831  0.75062689  0.25068517  1
  Sb  Sb2  1  0.75551831  0.24937311  0.74931483  1
  Sb  Sb3  1  0.24448169  0.75062689  0.74931483  1
  O  O0  1  0.01645509  0.19599100  0.29336464  1
  O  O1  1  0.98354491  0.80400900  0.29336464  1
  O  O2  1  0.98354491  0.19599100  0.70663536  1
  O  O3  1  0.01645509  0.80400900  0.70663536  1
  O  O4  1  0.29052287  0.01914692  0.19888893  1
  O  O5  1  0.29052287  0.98085308  0.80111107  1
  O  O6  1  0.70947713  0.98085308  0.19888893  1
  O  O7  1  0.70947713  0.01914692  0.80111107  1
  O  O8  1  0.19861876  0.29569220  0.01964522  1
  O  O9  1  0.80138124  0.29569220  0.98035478  1
  O  O10  1  0.19861876  0.70430780  0.98035478  1
  O  O11  1  0.80138124  0.70430780  0.01964522  1
  O  O12  1  0.48093105  0.28192232  0.22441140  1
  O  O13  1  0.51906895  0.71807768  0.22441140  1
  O  O14  1  0.51906895  0.28192232  0.77558860  1
  O  O15  1  0.48093105  0.71807768  0.77558860  1
  O  O16  1  0.20453768  0.48202692  0.29459004  1
  O  O17  1  0.20453768  0.51797308  0.70540996  1
  O  O18  1  0.79546232  0.51797308  0.29459004  1
  O  O19  1  0.79546232  0.48202692  0.70540996  1
  O  O20  1  0.27864322  0.22055725  0.48442340  1
  O  O21  1  0.72135678  0.22055725  0.51557660  1
  O  O22  1  0.27864322  0.77944275  0.51557660  1
  O  O23  1  0.72135678  0.77944275  0.48442340  1
loop_
_geom_bond_atom_site_label_1
_geom_bond_atom_site_label_2
_geom_bond_distance
_geom_bond_site_symmetry_2
Ba0 O7 2.970492 1_454
Ba0 O6 2.970492 1_445
Ba0 O4 2.970492 1_555
Ba0 O5 2.970492 1_544
Ba0 O2 2.978535 1_454
Ba0 O3 2.978535 1_544
Ba0 O1 2.978535 1_445
Ba0 O0 2.978535 1_555
Ba0 O9 3.015254 1_454
Ba0 O8 3.015254 1_555
Ba0 O11 3.015254 1_445
Ba0 O10 3.015254 1_544
Ba1 O14 2.969246 1_555
Ba1 O15 2.969246 1_555
Ba1 O13 2.969246 1_555
Ba1 O12 2.969246 1_555
Ba1 O22 3.015003 1_555
Ba1 O20 3.015003 1_555
Ba1 O21 3.015003 1_555
Ba1 O23 3.015003 1_555
Ba1 O16 3.035314 1_555
Ba1 O17 3.035314 1_555
Ba1 O18 3.035314 1_555
Ba1 O19 3.035314 1_555
Ba2 O22 2.642193 1_545
Ba2 O21 2.642193 1_555
Ba2 O20 2.642193 1_555
Ba2 O23 2.642193 1_545
Ba2 O4 3.093461 1_555
Ba2 O6 3.093461 1_545
Ba2 O7 3.093461 1_555
Ba2 O5 3.093461 1_545
Ba3 O12 2.646222 1_555
Ba3 O13 2.646222 1_555
Ba3 O14 2.646222 1_554
Ba3 O15 2.646222 1_554
Ba3 O11 3.076890 1_555
Ba3 O10 3.076890 1_554
Ba3 O8 3.076890 1_555
Ba3 O9 3.076890 1_554
Ca0 O19 2.446401 1_455
Ca0 O17 2.446401 1_555
Ca0 O16 2.446401 1_555
Ca0 O18 2.446401 1_455
Ca1 O7 2.438508 1_554
Ca1 O5 2.438508 1_544
Ca1 O6 2.438508 1_545
Ca1 O4 2.438508 1_555
Ca2 O11 2.412199 1_455
Ca2 O10 2.412199 1_554
Ca2 O9 2.412199 1_454
Ca2 O8 2.412199 1_555
Ca3 O0 2.407824 1_555
Ca3 O1 2.407824 1_445
Ca3 O2 2.407824 1_455
Ca3 O3 2.407824 1_545
Ca3 O21 3.002519 1_455
Ca3 O20 3.002519 1_555
Ca3 O23 3.002519 1_445
Ca3 O22 3.002519 1_545
Eu0 O23 2.269869 1_555
Eu0 O3 2.284637 1_655
Eu0 O19 2.329517 1_555
Eu0 O15 2.329889 1_555
Eu0 O11 2.334252 1_556
Eu0 O7 2.344155 1_565
Eu1 O20 2.269869 1_555
Eu1 O2 2.284637 1_455
Eu1 O17 2.329517 1_555
Eu1 O14 2.329889 1_555
Eu1 O8 2.334252 1_556
Eu1 O5 2.344155 1_545
Eu2 O22 2.269869 1_555
Eu2 O1 2.284637 1_455
Eu2 O16 2.329517 1_555
Eu2 O13 2.329889 1_555
Eu2 O10 2.334252 1_554
Eu2 O4 2.344155 1_565
Eu3 O21 2.269869 1_555
Eu3 O0 2.284637 1_655
Eu3 O18 2.329517 1_555
Eu3 O12 2.329889 1_555
Eu3 O9 2.334252 1_554
Eu3 O6 2.344155 1_545
O0 Sb0 2.006357 1_555
O1 Sb1 2.006357 1_555
O2 Sb2 2.006357 1_555
O3 Sb3 2.006357 1_555
O4 Sb0 2.034092 1_555
O5 Sb3 2.034092 1_555
O6 Sb1 2.034092 1_555
O7 Sb2 2.034092 1_555
O8 Sb0 2.021641 1_555
O9 Sb2 2.021641 1_555
O10 Sb3 2.021641 1_555
O11 Sb1 2.021641 1_555
O12 Sb0 2.023571 1_555
O13 Sb1 2.023571 1_555
O14 Sb2 2.023571 1_555
O15 Sb3 2.023571 1_555
O16 Sb0 2.031566 1_555
O17 Sb3 2.031566 1_555
O18 Sb1 2.031566 1_555
O19 Sb2 2.031566 1_555
O20 Sb0 2.003805 1_555
O21 Sb2 2.003805 1_555
O22 Sb3 2.003805 1_555
O23 Sb1 2.003805 1_555
