# generated using pymatgen
data_In2CuTe3Br
_symmetry_space_group_name_H-M   'P 1'
_cell_length_a   6.22516736
_cell_length_b   6.20639857
_cell_length_c   7.55744407
_cell_angle_alpha   67.03615405
_cell_angle_beta   65.72719849
_cell_angle_gamma   90.69826256
_symmetry_Int_Tables_number   1
_chemical_formula_structural   In2CuTe3Br
_chemical_formula_sum   'In2 Cu1 Te3 Br1'
_cell_volume   239.84624498
_cell_formula_units_Z   1
loop_
 _symmetry_equiv_pos_site_id
 _symmetry_equiv_pos_as_xyz
  1  'x, y, z'
loop_
 _atom_site_type_symbol
 _atom_site_label
 _atom_site_symmetry_multiplicity
 _atom_site_fract_x
 _atom_site_fract_y
 _atom_site_fract_z
 _atom_site_occupancy
  In  In0  1  0.99746700  0.98410200  0.98929200  1
  In  In1  1  0.73344600  0.24818300  0.52120700  1
  Cu  Cu0  1  0.52736300  0.52128200  0.98779500  1
  Te  Te0  1  0.90068500  0.41391100  0.74767500  1
  Te  Te1  1  0.37868200  0.82564400  0.74170100  1
  Te  Te2  1  0.57942600  0.62014800  0.27049600  1
  Br  Br0  1  0.13293100  0.13672900  0.24183400  1
loop_
_geom_bond_atom_site_label_1
_geom_bond_atom_site_label_2
_geom_bond_distance
_geom_bond_site_symmetry_2
In0 Te1 2.818176 1_655
In0 Te2 2.820473 1_556
In0 Te0 2.820643 1_565
In1 Te0 2.807786 1_555
In1 Te1 2.820394 1_545
In1 Te2 2.823687 1_555
Cu0 Te1 2.569141 1_555
Cu0 Te2 2.575570 1_556
Cu0 Te0 2.579175 1_555
Br0 Cu0 2.795925 1_554
Br0 In0 2.822337 1_444
Br0 In1 2.825848 1_455
