# generated using pymatgen
data_Co4SnSb12
_symmetry_space_group_name_H-M   'P 1'
_cell_length_a   7.96543320
_cell_length_b   7.96543320
_cell_length_c   7.96543320
_cell_angle_alpha   109.47122063
_cell_angle_beta   109.47122063
_cell_angle_gamma   109.47122063
_symmetry_Int_Tables_number   1
_chemical_formula_structural   Co4SnSb12
_chemical_formula_sum   'Co4 Sn1 Sb12'
_cell_volume   389.05079603
_cell_formula_units_Z   1
loop_
 _symmetry_equiv_pos_site_id
 _symmetry_equiv_pos_as_xyz
  1  'x, y, z'
loop_
 _atom_site_type_symbol
 _atom_site_label
 _atom_site_symmetry_multiplicity
 _atom_site_fract_x
 _atom_site_fract_y
 _atom_site_fract_z
 _atom_site_occupancy
  Co  Co0  1  0.50000000  0.00000000  0.00000000  1
  Co  Co1  1  0.00000000  0.00000000  0.50000000  1
  Co  Co2  1  0.00000000  0.50000000  0.00000000  1
  Co  Co3  1  0.50000000  0.50000000  0.50000000  1
  Sn  Sn0  1  0.00000000  0.00000000  0.00000000  1
  Sb  Sb0  1  0.84030200  0.17183000  0.33152700  1
  Sb  Sb1  1  0.66847300  0.15969800  0.82817000  1
  Sb  Sb2  1  0.50877500  0.66847300  0.84030200  1
  Sb  Sb3  1  0.66847300  0.84030200  0.50877500  1
  Sb  Sb4  1  0.49122500  0.33152700  0.15969800  1
  Sb  Sb5  1  0.33152700  0.84030200  0.17183000  1
  Sb  Sb6  1  0.17183000  0.33152700  0.84030200  1
  Sb  Sb7  1  0.82817000  0.66847300  0.15969800  1
  Sb  Sb8  1  0.33152700  0.15969800  0.49122500  1
  Sb  Sb9  1  0.84030200  0.50877500  0.66847300  1
  Sb  Sb10  1  0.15969800  0.49122500  0.33152700  1
  Sb  Sb11  1  0.15969800  0.82817000  0.66847300  1
loop_
_geom_bond_atom_site_label_1
_geom_bond_atom_site_label_2
_geom_bond_distance
_geom_bond_site_symmetry_2
Co0 Sb0 2.557239 1_555
Co0 Sb11 2.557239 1_544
Co0 Sb4 2.557241 1_555
Co0 Sb2 2.557241 1_544
Co0 Sb1 2.557248 1_554
Co0 Sb5 2.557248 1_545
Co1 Sb6 2.557239 1_555
Co1 Sb7 2.557239 1_445
Co1 Sb8 2.557241 1_555
Co1 Sb3 2.557241 1_445
Co1 Sb11 2.557248 1_545
Co1 Sb0 2.557248 1_455
Co2 Sb5 2.557239 1_555
Co2 Sb1 2.557239 1_454
Co2 Sb10 2.557241 1_555
Co2 Sb9 2.557241 1_454
Co2 Sb7 2.557248 1_455
Co2 Sb6 2.557248 1_554
Co3 Sb10 2.557241 1_555
Co3 Sb4 2.557241 1_555
Co3 Sb8 2.557241 1_555
Co3 Sb9 2.557241 1_555
Co3 Sb2 2.557241 1_555
Co3 Sb3 2.557241 1_555
Sb0 Sn0 3.384622 1_655
Sb1 Sn0 3.384622 1_656
Sb2 Sn0 3.384620 1_666
Sb3 Sn0 3.384620 1_666
Sb4 Sn0 3.384620 1_555
Sb5 Sn0 3.384622 1_565
Sb6 Sn0 3.384622 1_556
Sb7 Sn0 3.384622 1_665
Sb8 Sn0 3.384620 1_555
Sb9 Sn0 3.384620 1_666
Sb10 Sn0 3.384620 1_555
Sb11 Sn0 3.384622 1_566
