# generated using pymatgen
data_CrSiTc2
_symmetry_space_group_name_H-M   'P 1'
_cell_length_a   10.40844878
_cell_length_b   10.40844878
_cell_length_c   10.40844878
_cell_angle_alpha   125.70930295
_cell_angle_beta   125.05341165
_cell_angle_gamma   80.90842529
_symmetry_Int_Tables_number   1
_chemical_formula_structural   CrSiTc2
_chemical_formula_sum   'Cr1 Si1 Tc2'
_cell_volume   722.40125878
_cell_formula_units_Z   1
loop_
 _symmetry_equiv_pos_site_id
 _symmetry_equiv_pos_as_xyz
  1  'x, y, z'
loop_
 _atom_site_type_symbol
 _atom_site_label
 _atom_site_symmetry_multiplicity
 _atom_site_fract_x
 _atom_site_fract_y
 _atom_site_fract_z
 _atom_site_occupancy
  Cr  Cr0  1  0.50000000  0.00000000  0.50000000  1
  Si  Si0  1  0.00000000  0.00000000  0.00000000  1
  Tc  Tc0  1  0.23011800  0.00000000  0.23011800  1
  Tc  Tc1  1  0.76988200  0.00000000  0.76988200  1
loop_
_geom_bond_atom_site_label_1
_geom_bond_atom_site_label_2
_geom_bond_distance
_geom_bond_site_symmetry_2
Cr0 Tc1 2.591830 1_555
Cr0 Tc0 2.591830 1_555
Si0 Tc0 2.209953 1_555
Si0 Tc1 2.209953 1_454
