# generated using pymatgen
data_LiMoO2
_symmetry_space_group_name_H-M   'P 1'
_cell_length_a   5.48602393
_cell_length_b   5.48602393
_cell_length_c   4.99649694
_cell_angle_alpha   81.43535083
_cell_angle_beta   81.43535083
_cell_angle_gamma   32.94406059
_symmetry_Int_Tables_number   1
_chemical_formula_structural   LiMoO2
_chemical_formula_sum   'Li2 Mo2 O4'
_cell_volume   80.78576969
_cell_formula_units_Z   2
loop_
 _symmetry_equiv_pos_site_id
 _symmetry_equiv_pos_as_xyz
  1  'x, y, z'
loop_
 _atom_site_type_symbol
 _atom_site_label
 _atom_site_symmetry_multiplicity
 _atom_site_fract_x
 _atom_site_fract_y
 _atom_site_fract_z
 _atom_site_occupancy
  Li  Li0  1  0.50000000  0.50000000  0.50000000  1
  Li  Li1  1  0.00000000  0.00000000  0.00000000  1
  Mo  Mo0  1  0.24697700  0.24697700  0.21654200  1
  Mo  Mo1  1  0.75302300  0.75302300  0.78345800  1
  O  O0  1  0.38617100  0.38617100  0.85859500  1
  O  O1  1  0.61382900  0.61382900  0.14140500  1
  O  O2  1  0.14059700  0.14059700  0.62907900  1
  O  O3  1  0.85940300  0.85940300  0.37092100  1
loop_
_geom_bond_atom_site_label_1
_geom_bond_atom_site_label_2
_geom_bond_distance
_geom_bond_site_symmetry_2
Li0 O1 1.994537 1_555
Li0 O0 1.994537 1_555
Li0 O3 2.306602 1_455
Li0 O2 2.306602 1_565
Li0 O3 2.306602 1_545
Li0 O2 2.306602 1_655
Li1 O1 2.148528 1_545
Li1 O1 2.148528 1_455
Li1 O0 2.148528 1_544
Li1 O0 2.148528 1_454
Li1 O3 2.184398 1_445
Li1 O2 2.184398 1_554
Mo0 O0 2.128390 1_554
Mo0 O1 2.164874 1_545
Mo0 O1 2.164874 1_455
Mo0 O3 2.167351 1_545
Mo0 O3 2.167351 1_455
Mo0 O2 2.187453 1_555
Mo1 O1 2.128390 1_556
Mo1 O0 2.164874 1_655
Mo1 O0 2.164874 1_565
Mo1 O2 2.167351 1_655
Mo1 O2 2.167351 1_565
Mo1 O3 2.187453 1_555
