# generated using pymatgen
data_KCuTeO6
_symmetry_space_group_name_H-M   'P 1'
_cell_length_a   5.10784876
_cell_length_b   5.10784876
_cell_length_c   6.19551200
_cell_angle_alpha   90.00000000
_cell_angle_beta   90.00000000
_cell_angle_gamma   120.00000980
_symmetry_Int_Tables_number   1
_chemical_formula_structural   KCuTeO6
_chemical_formula_sum   'K1 Cu1 Te1 O6'
_cell_volume   139.98575692
_cell_formula_units_Z   1
loop_
 _symmetry_equiv_pos_site_id
 _symmetry_equiv_pos_as_xyz
  1  'x, y, z'
loop_
 _atom_site_type_symbol
 _atom_site_label
 _atom_site_symmetry_multiplicity
 _atom_site_fract_x
 _atom_site_fract_y
 _atom_site_fract_z
 _atom_site_occupancy
  K  K0  1  0.00000000  0.00000000  0.00000000  1
  Cu  Cu0  1  0.33333300  0.66666700  0.50000000  1
  Te  Te0  1  0.66666700  0.33333300  0.50000000  1
  O  O0  1  0.37561100  0.99593600  0.67621500  1
  O  O1  1  0.00406400  0.37967500  0.67621500  1
  O  O2  1  0.62032500  0.62438900  0.67621500  1
  O  O3  1  0.00406400  0.62438900  0.32378500  1
  O  O4  1  0.62032500  0.99593600  0.32378500  1
  O  O5  1  0.37561100  0.37967500  0.32378500  1
loop_
_geom_bond_atom_site_label_1
_geom_bond_atom_site_label_2
_geom_bond_distance
_geom_bond_site_symmetry_2
K0 O5 2.783026 1_555
K0 O2 2.783026 1_444
K0 O4 2.783027 1_445
K0 O1 2.783027 1_554
K0 O3 2.783027 1_545
K0 O0 2.783027 1_544
Cu0 O0 1.924572 1_555
Cu0 O3 1.924572 1_555
Cu0 O4 1.924574 1_555
Cu0 O1 1.924574 1_555
Cu0 O5 1.924577 1_555
Cu0 O2 1.924577 1_555
O0 Te0 1.951926 1_565
O1 Te0 1.951925 1_455
O2 Te0 1.951929 1_555
O3 Te0 1.951926 1_455
O4 Te0 1.951925 1_565
O5 Te0 1.951929 1_555
