# generated using pymatgen
data_UCu3Pd2
_symmetry_space_group_name_H-M   'P 1'
_cell_length_a   5.12573648
_cell_length_b   5.12573648
_cell_length_c   5.12573648
_cell_angle_alpha   122.32864116
_cell_angle_beta   116.71629403
_cell_angle_gamma   90.89683843
_symmetry_Int_Tables_number   1
_chemical_formula_structural   UCu3Pd2
_chemical_formula_sum   'U1 Cu3 Pd2'
_cell_volume   95.61798324
_cell_formula_units_Z   1
loop_
 _symmetry_equiv_pos_site_id
 _symmetry_equiv_pos_as_xyz
  1  'x, y, z'
loop_
 _atom_site_type_symbol
 _atom_site_label
 _atom_site_symmetry_multiplicity
 _atom_site_fract_x
 _atom_site_fract_y
 _atom_site_fract_z
 _atom_site_occupancy
  U  U0  1  0.00268000  0.00268000  0.00000000  1
  Cu  Cu0  1  0.62164400  0.37038500  0.74874100  1
  Cu  Cu1  1  0.62164400  0.87290300  0.25125900  1
  Cu  Cu2  1  0.25549200  0.75549200  0.50000000  1
  Pd  Pd0  1  0.62334300  0.37427000  0.24907300  1
  Pd  Pd1  1  0.12519700  0.37427000  0.75092700  1
loop_
_geom_bond_atom_site_label_1
_geom_bond_atom_site_label_2
_geom_bond_distance
_geom_bond_site_symmetry_2
Cu0 Cu1 2.459689 1_545
Cu0 Cu1 2.484589 1_556
Cu0 Pd0 2.550056 1_556
Cu0 Pd1 2.550056 1_555
Cu0 Pd1 2.575780 1_655
Cu0 Pd0 2.575780 1_555
Cu0 Cu2 2.906372 1_545
Cu0 U0 3.008821 1_666
Cu0 U0 3.078192 1_656
Cu0 U0 3.078192 1_555
Cu0 Cu2 3.114591 1_656
Cu0 Cu2 3.114591 1_555
Cu1 Pd0 2.550056 1_555
Cu1 Pd1 2.550056 1_554
Cu1 Pd1 2.575780 1_665
Cu1 Pd0 2.575780 1_565
Cu1 Cu2 2.906372 1_555
Cu1 U0 3.008821 1_665
Cu1 U0 3.078192 1_565
Cu1 U0 3.078192 1_666
Cu1 Cu2 3.114591 1_554
Cu1 Cu2 3.114591 1_655
Cu2 Pd0 2.938623 1_555
Cu2 Pd1 2.938623 1_554
Cu2 Pd0 2.938623 1_566
Cu2 Pd1 2.938623 1_565
Cu2 Pd1 3.055840 1_555
Cu2 Pd0 3.055840 1_455
Cu2 U0 3.068770 1_555
Cu2 U0 3.068770 1_566
Cu2 U0 3.223532 1_666
Cu2 U0 3.223532 1_565
Pd0 Pd1 2.679031 1_554
Pd0 Pd1 2.698973 1_655
Pd0 U0 2.964029 1_655
Pd0 U0 2.964029 1_666
Pd0 U0 2.989363 1_555
Pd1 U0 2.964029 1_566
Pd1 U0 2.964029 1_555
Pd1 U0 2.989363 1_556
