# generated using pymatgen
data_Cu(BrN3)2
_symmetry_space_group_name_H-M   'P 1'
_cell_length_a   5.70327298
_cell_length_b   5.70327298
_cell_length_c   5.70327298
_cell_angle_alpha   60.00000000
_cell_angle_beta   60.00000000
_cell_angle_gamma   60.00000000
_symmetry_Int_Tables_number   1
_chemical_formula_structural   Cu(BrN3)2
_chemical_formula_sum   'Cu1 Br2 N6'
_cell_volume   131.17693511
_cell_formula_units_Z   1
loop_
 _symmetry_equiv_pos_site_id
 _symmetry_equiv_pos_as_xyz
  1  'x, y, z'
loop_
 _atom_site_type_symbol
 _atom_site_label
 _atom_site_symmetry_multiplicity
 _atom_site_fract_x
 _atom_site_fract_y
 _atom_site_fract_z
 _atom_site_occupancy
  Cu  Cu0  1  0.00000000  0.00000000  0.00000000  1
  Br  Br0  1  0.75000000  0.75000000  0.75000000  1
  Br  Br1  1  0.25000000  0.25000000  0.25000000  1
  N  N0  1  0.65109500  0.65109500  0.34890500  1
  N  N1  1  0.34890500  0.65109500  0.34890500  1
  N  N2  1  0.65109500  0.34890500  0.34890500  1
  N  N3  1  0.34890500  0.34890500  0.65109500  1
  N  N4  1  0.65109500  0.34890500  0.65109500  1
  N  N5  1  0.34890500  0.65109500  0.65109500  1
loop_
_geom_bond_atom_site_label_1
_geom_bond_atom_site_label_2
_geom_bond_distance
_geom_bond_site_symmetry_2
Cu0 N2 2.814144 1_455
Cu0 N3 2.814144 1_554
Cu0 N1 2.814144 1_545
Cu0 N5 2.814144 1_544
Cu0 N4 2.814144 1_454
Cu0 N0 2.814144 1_445
N0 N5 1.723472 1_555
N0 N2 1.723472 1_555
N0 N4 1.723472 1_555
N0 N1 1.723472 1_555
N1 N5 1.723472 1_555
N1 N2 1.723472 1_555
N1 N3 1.723472 1_555
N2 N3 1.723472 1_555
N2 N4 1.723472 1_555
N3 N5 1.723472 1_555
N3 N4 1.723472 1_555
N4 N5 1.723472 1_555
