# generated using pymatgen
data_YTlS2O9
_symmetry_space_group_name_H-M   'P 1'
_cell_length_a   8.49901000
_cell_length_b   10.80791942
_cell_length_c   10.22486550
_cell_angle_alpha   120.88954974
_cell_angle_beta   90.00000000
_cell_angle_gamma   90.00000000
_symmetry_Int_Tables_number   1
_chemical_formula_structural   YTlS2O9
_chemical_formula_sum   'Y4 Tl4 S8 O36'
_cell_volume   806.00099847
_cell_formula_units_Z   4
loop_
 _symmetry_equiv_pos_site_id
 _symmetry_equiv_pos_as_xyz
  1  'x, y, z'
loop_
 _atom_site_type_symbol
 _atom_site_label
 _atom_site_symmetry_multiplicity
 _atom_site_fract_x
 _atom_site_fract_y
 _atom_site_fract_z
 _atom_site_occupancy
  Y  Y0  1  0.37073500  0.97171700  0.71809500  1
  Y  Y1  1  0.62926500  0.02828300  0.28190500  1
  Y  Y2  1  0.87073500  0.52828300  0.78190500  1
  Y  Y3  1  0.12926500  0.47171700  0.21809500  1
  Tl  Tl0  1  0.34373000  0.67939500  0.95205700  1
  Tl  Tl1  1  0.65627000  0.32060500  0.04794300  1
  Tl  Tl2  1  0.84373000  0.82060500  0.54794300  1
  Tl  Tl3  1  0.15627000  0.17939500  0.45205700  1
  S  S0  1  0.12595700  0.31157600  0.87367800  1
  S  S1  1  0.87404300  0.68842400  0.12632200  1
  S  S2  1  0.62595700  0.18842400  0.62632200  1
  S  S3  1  0.37404300  0.81157600  0.37367800  1
  S  S4  1  0.19831600  0.61021300  0.59586300  1
  S  S5  1  0.80168400  0.38978700  0.40413700  1
  S  S6  1  0.69831600  0.88978700  0.90413700  1
  S  S7  1  0.30168400  0.11021300  0.09586300  1
  O  O0  1  0.79563600  0.02230800  0.98580900  1
  O  O1  1  0.20436400  0.97769200  0.01419100  1
  O  O2  1  0.29563600  0.47769200  0.51419100  1
  O  O3  1  0.70436400  0.52230800  0.48580900  1
  O  O4  1  0.19653400  0.16924800  0.76778900  1
  O  O5  1  0.80346600  0.83075200  0.23221100  1
  O  O6  1  0.69653400  0.33075200  0.73221100  1
  O  O7  1  0.30346600  0.66924800  0.26778900  1
  O  O8  1  0.30092300  0.74154400  0.67641300  1
  O  O9  1  0.69907700  0.25845600  0.32358700  1
  O  O10  1  0.80092300  0.75845600  0.82358700  1
  O  O11  1  0.19907700  0.24154400  0.17641300  1
  O  O12  1  0.40359200  0.12291000  0.98428900  1
  O  O13  1  0.59640800  0.87709000  0.01571100  1
  O  O14  1  0.90359200  0.37709000  0.51571100  1
  O  O15  1  0.09640800  0.62291000  0.48428900  1
  O  O16  1  0.11819400  0.93248600  0.77667100  1
  O  O17  1  0.88180600  0.06751400  0.22332900  1
  O  O18  1  0.61819400  0.56751400  0.72332900  1
  O  O19  1  0.38180600  0.43248600  0.27667100  1
  O  O20  1  0.24794900  0.41549300  0.98019400  1
  O  O21  1  0.75205100  0.58450700  0.01980600  1
  O  O22  1  0.74794900  0.08450700  0.51980600  1
  O  O23  1  0.25205100  0.91549300  0.48019400  1
  O  O24  1  0.00469300  0.30612500  0.97620100  1
  O  O25  1  0.99530700  0.69387500  0.02379900  1
  O  O26  1  0.50469300  0.19387500  0.52379900  1
  O  O27  1  0.49530700  0.80612500  0.47620100  1
  O  O28  1  0.05491300  0.36670800  0.77972600  1
  O  O29  1  0.94508700  0.63329200  0.22027400  1
  O  O30  1  0.55491300  0.13329200  0.72027400  1
  O  O31  1  0.44508700  0.86670800  0.27972600  1
  O  O32  1  0.60292200  0.89586600  0.78576100  1
  O  O33  1  0.39707800  0.10413400  0.21423900  1
  O  O34  1  0.10292200  0.60413400  0.71423900  1
  O  O35  1  0.89707800  0.39586600  0.28576100  1
loop_
_geom_bond_atom_site_label_1
_geom_bond_atom_site_label_2
_geom_bond_distance
_geom_bond_site_symmetry_2
O0 S6 1.484865 1_545
O1 S7 1.484865 1_565
O2 S4 1.484865 1_555
O3 S5 1.484865 1_555
O4 S0 1.479272 1_555
O4 Y0 2.427787 1_545
O5 S1 1.479272 1_555
O5 Y1 2.427787 1_565
O6 S2 1.479272 1_555
O6 Y2 2.427787 1_555
O7 S3 1.479272 1_555
O7 Y3 2.427787 1_555
O8 S4 1.501072 1_555
O8 Y0 2.373536 1_555
O9 S5 1.501072 1_555
O9 Y1 2.373536 1_555
O10 S6 1.501072 1_555
O10 Y2 2.373536 1_555
O11 S7 1.501072 1_555
O11 Y3 2.373536 1_555
O12 S7 1.493729 1_556
O12 Y0 2.364252 1_545
O13 S6 1.493729 1_554
O13 Y1 2.364252 1_565
O14 S5 1.493729 1_555
O14 Y2 2.364252 1_555
O15 S4 1.493729 1_555
O15 Y3 2.364252 1_555
O16 Y0 2.325094 1_555
O17 Y1 2.325094 1_555
O18 Y2 2.325094 1_555
O19 Y3 2.325094 1_555
O20 S0 1.505523 1_555
O20 Y3 2.405430 1_556
O21 S1 1.505523 1_555
O21 Y2 2.405430 1_554
O22 S2 1.505523 1_555
O22 Y1 2.405430 1_555
O23 S3 1.505523 1_555
O23 Y0 2.405430 1_555
O24 S0 1.492638 1_555
O24 Y3 2.428233 1_556
O25 S1 1.492638 1_555
O25 Y2 2.428233 1_554
O26 S2 1.492638 1_555
O26 Y1 2.428233 1_555
O27 S3 1.492638 1_555
O27 Y0 2.428233 1_555
O28 S0 1.493388 1_555
O28 Y2 2.336736 1_455
O29 S1 1.493388 1_555
O29 Y3 2.336736 1_655
O30 S2 1.493388 1_555
O30 Y0 2.336736 1_545
O31 S3 1.493388 1_555
O31 Y1 2.336736 1_565
O32 S6 1.486038 1_555
O32 Y0 2.372188 1_555
O33 S7 1.486038 1_555
O33 Y1 2.372188 1_555
O34 S4 1.486038 1_555
O34 Y2 2.372188 1_455
O35 S5 1.486038 1_555
O35 Y3 2.372188 1_655
