# generated using pymatgen
data_AgHgAsO4
_symmetry_space_group_name_H-M   'P 1'
_cell_length_a   8.25996707
_cell_length_b   6.91956149
_cell_length_c   6.34946456
_cell_angle_alpha   76.86458693
_cell_angle_beta   54.66695882
_cell_angle_gamma   48.46845425
_symmetry_Int_Tables_number   1
_chemical_formula_structural   AgHgAsO4
_chemical_formula_sum   'Ag2 Hg2 As2 O8'
_cell_volume   214.25628169
_cell_formula_units_Z   2
loop_
 _symmetry_equiv_pos_site_id
 _symmetry_equiv_pos_as_xyz
  1  'x, y, z'
loop_
 _atom_site_type_symbol
 _atom_site_label
 _atom_site_symmetry_multiplicity
 _atom_site_fract_x
 _atom_site_fract_y
 _atom_site_fract_z
 _atom_site_occupancy
  Ag  Ag0  1  0.68681000  0.81319000  0.68681000  1
  Ag  Ag1  1  0.43681000  0.56319000  0.43681000  1
  Hg  Hg0  1  0.06067800  0.43932200  0.06067800  1
  Hg  Hg1  1  0.81067800  0.18932200  0.81067800  1
  As  As0  1  0.37902300  0.12097700  0.37902300  1
  As  As1  1  0.12902300  0.87097700  0.12902300  1
  O  O0  1  0.05275800  0.28586200  0.50090700  1
  O  O1  1  0.38735200  0.26399100  0.55747200  1
  O  O2  1  0.50090700  0.16047300  0.05275800  1
  O  O3  1  0.55747200  0.79118500  0.38735200  1
  O  O4  1  0.45881500  0.69252800  0.98600900  1
  O  O5  1  0.08952700  0.74909300  0.96413800  1
  O  O6  1  0.98600900  0.86264800  0.45881500  1
  O  O7  1  0.96413800  0.19724200  0.08952700  1
loop_
_geom_bond_atom_site_label_1
_geom_bond_atom_site_label_2
_geom_bond_distance
_geom_bond_site_symmetry_2
Ag0 O4 2.253602 1_555
Ag0 O6 2.253602 1_555
Ag0 O0 2.655044 1_655
Ag0 O2 2.655044 1_566
Ag0 O1 2.734347 1_565
Ag0 O3 2.734347 1_555
Ag1 O3 2.253602 1_555
Ag1 O1 2.253602 1_555
Ag1 O7 2.655044 1_555
Ag1 O5 2.655044 1_555
Ag1 O6 2.734347 1_455
Ag1 O4 2.734347 1_554
Hg0 O7 2.222210 1_455
Hg0 O5 2.222210 1_554
Hg0 O1 2.531838 1_554
Hg0 O3 2.531838 1_455
Hg1 O0 2.222210 1_655
Hg1 O2 2.222210 1_556
Hg1 O4 2.531838 1_555
Hg1 O6 2.531838 1_545
As0 O1 1.719858 1_555
As0 O3 1.719858 1_545
As0 O0 1.753571 1_555
As0 O2 1.753571 1_555
As1 O6 1.719858 1_455
As1 O4 1.719858 1_554
As1 O7 1.753571 1_465
As1 O5 1.753571 1_554
