# generated using pymatgen
data_Sr6CaMn4O13
_symmetry_space_group_name_H-M   'P 1'
_cell_length_a   9.91167800
_cell_length_b   6.90218800
_cell_length_c   10.19780386
_cell_angle_alpha   85.97418647
_cell_angle_beta   90.00000000
_cell_angle_gamma   90.00000000
_symmetry_Int_Tables_number   1
_chemical_formula_structural   Sr6CaMn4O13
_chemical_formula_sum   'Sr12 Ca2 Mn8 O26'
_cell_volume   695.93341135
_cell_formula_units_Z   2
loop_
 _symmetry_equiv_pos_site_id
 _symmetry_equiv_pos_as_xyz
  1  'x, y, z'
loop_
 _atom_site_type_symbol
 _atom_site_label
 _atom_site_symmetry_multiplicity
 _atom_site_fract_x
 _atom_site_fract_y
 _atom_site_fract_z
 _atom_site_occupancy
  Sr  Sr0  1  0.64146000  0.66410300  0.44570200  1
  Sr  Sr1  1  0.14146000  0.33589700  0.55429800  1
  Sr  Sr2  1  0.35972000  0.33683600  0.05075900  1
  Sr  Sr3  1  0.85972000  0.66316400  0.94924100  1
  Sr  Sr4  1  0.51269700  0.83782600  0.08916700  1
  Sr  Sr5  1  0.01269700  0.16217400  0.91083300  1
  Sr  Sr6  1  0.48934900  0.16356500  0.40981200  1
  Sr  Sr7  1  0.98934900  0.83643500  0.59018800  1
  Sr  Sr8  1  0.49937900  0.49914100  0.74981500  1
  Sr  Sr9  1  0.99937900  0.50085900  0.25018500  1
  Sr  Sr10  1  0.67530300  0.99315900  0.71298700  1
  Sr  Sr11  1  0.17530300  0.00684100  0.28701300  1
  Ca  Ca0  1  0.32249300  0.00615900  0.78927900  1
  Ca  Ca1  1  0.82249300  0.99384100  0.21072100  1
  Mn  Mn0  1  0.67523900  0.22489300  0.97097800  1
  Mn  Mn1  1  0.17523900  0.77510700  0.02902200  1
  Mn  Mn2  1  0.32263000  0.77427700  0.53293000  1
  Mn  Mn3  1  0.82263000  0.22572300  0.46707000  1
  Mn  Mn4  1  0.66825400  0.42739600  0.17406300  1
  Mn  Mn5  1  0.16825400  0.57260400  0.82593700  1
  Mn  Mn6  1  0.33453700  0.57440700  0.32731800  1
  Mn  Mn7  1  0.83453700  0.42559300  0.67268200  1
  O  O0  1  0.52305800  0.14796700  0.87106500  1
  O  O1  1  0.02305800  0.85203300  0.12893500  1
  O  O2  1  0.46747900  0.85195000  0.63735600  1
  O  O3  1  0.96747900  0.14805000  0.36264400  1
  O  O4  1  0.60690200  0.49271400  0.97555700  1
  O  O5  1  0.10690200  0.50728600  0.02444300  1
  O  O6  1  0.39406400  0.50716900  0.52547500  1
  O  O7  1  0.89406400  0.49283100  0.47452500  1
  O  O8  1  0.59714400  0.15753200  0.17044700  1
  O  O9  1  0.09714400  0.84246800  0.82955300  1
  O  O10  1  0.40867800  0.84075400  0.33286300  1
  O  O11  1  0.90867800  0.15924600  0.66713700  1
  O  O12  1  0.67206300  0.32480800  0.58056400  1
  O  O13  1  0.17206300  0.67519200  0.41943600  1
  O  O14  1  0.32849200  0.67878200  0.91595500  1
  O  O15  1  0.82849200  0.32121800  0.08404500  1
  O  O16  1  0.74817800  0.67167200  0.20648000  1
  O  O17  1  0.24817800  0.32832800  0.79352000  1
  O  O18  1  0.25264900  0.33712800  0.29250400  1
  O  O19  1  0.75264900  0.66287200  0.70749600  1
  O  O20  1  0.77162800  0.99160700  0.95097600  1
  O  O21  1  0.27162800  0.00839300  0.04902400  1
  O  O22  1  0.22776000  0.00794800  0.55632300  1
  O  O23  1  0.72776000  0.99205200  0.44367700  1
  O  O24  1  0.50084200  0.49904100  0.24997100  1
  O  O25  1  0.00084200  0.50095900  0.75002900  1
loop_
_geom_bond_atom_site_label_1
_geom_bond_atom_site_label_2
_geom_bond_distance
_geom_bond_site_symmetry_2
Ca0 O17 2.345772 1_555
Ca0 O0 2.391684 1_555
Ca0 O2 2.414507 1_545
Ca0 O14 2.523556 1_545
Ca0 O9 2.523676 1_545
Ca0 O22 2.553693 1_555
Ca0 O21 2.697488 1_556
Ca1 O16 2.345772 1_555
Ca1 O1 2.391684 1_655
Ca1 O3 2.414507 1_565
Ca1 O15 2.523556 1_565
Ca1 O8 2.523676 1_565
Ca1 O23 2.553693 1_555
Ca1 O20 2.697488 1_554
Mn0 O20 1.895563 1_545
Mn0 O0 1.916037 1_555
Mn0 O4 1.972365 1_555
Mn0 O15 2.046095 1_556
Mn0 O8 2.195513 1_556
Mn1 O21 1.895563 1_565
Mn1 O1 1.916037 1_555
Mn1 O5 1.972365 1_555
Mn1 O14 2.046095 1_554
Mn1 O9 2.195513 1_554
Mn2 O2 1.887552 1_555
Mn2 O22 1.896416 1_565
Mn2 O6 1.981347 1_555
Mn2 O13 2.036072 1_555
Mn2 O10 2.229145 1_555
Mn3 O3 1.887552 1_555
Mn3 O23 1.896416 1_545
Mn3 O7 1.981347 1_555
Mn3 O12 2.036072 1_555
Mn3 O11 2.229145 1_555
Mn4 O24 1.910732 1_555
Mn4 O16 1.912544 1_555
Mn4 O8 1.994304 1_555
Mn4 O15 1.999178 1_555
Mn4 O4 2.131382 1_554
Mn5 O25 1.910732 1_555
Mn5 O17 1.912544 1_555
Mn5 O9 1.994304 1_555
Mn5 O14 1.999178 1_555
Mn5 O5 2.131382 1_556
Mn6 O18 1.883790 1_555
Mn6 O24 1.915062 1_555
Mn6 O10 1.984300 1_555
Mn6 O13 2.012833 1_555
Mn6 O6 2.124926 1_555
Mn7 O19 1.883790 1_555
Mn7 O25 1.915062 1_655
Mn7 O11 1.984300 1_555
Mn7 O12 2.012833 1_555
Mn7 O7 2.124926 1_555
O0 Sr10 2.501874 1_545
O0 Sr8 2.652978 1_555
O0 Sr2 2.830871 1_556
O0 Sr4 2.978474 1_546
O1 Sr11 2.501874 1_565
O1 Sr9 2.652978 1_455
O1 Sr3 2.830871 1_454
O1 Sr5 2.978474 1_564
O2 Sr10 2.427648 1_555
O2 Sr8 2.636863 1_555
O2 Sr0 2.971607 1_555
O2 Sr6 3.058879 1_565
O3 Sr11 2.427648 1_655
O3 Sr9 2.636863 1_555
O3 Sr1 2.971607 1_655
O3 Sr7 3.058879 1_545
O4 Sr8 2.534355 1_555
O4 Sr2 2.762658 1_556
O4 Sr3 2.773279 1_555
O4 Sr4 2.876752 1_556
O5 Sr9 2.534355 1_455
O5 Sr3 2.762658 1_454
O5 Sr2 2.773279 1_555
O5 Sr5 2.876752 1_554
O6 Sr8 2.511734 1_555
O6 Sr1 2.775563 1_555
O6 Sr0 2.779246 1_555
O6 Sr6 2.881068 1_555
O7 Sr9 2.511734 1_555
O7 Sr0 2.775563 1_555
O7 Sr1 2.779246 1_655
O7 Sr7 2.881068 1_555
O8 Sr4 2.552223 1_545
O8 Sr6 2.667586 1_555
O8 Sr2 2.889146 1_555
O9 Sr5 2.552223 1_565
O9 Sr7 2.667586 1_455
O9 Sr3 2.889146 1_455
O10 Sr6 2.542645 1_565
O10 Sr11 2.609237 1_565
O10 Sr4 2.691926 1_555
O10 Sr0 2.817307 1_555
O11 Sr7 2.542645 1_545
O11 Sr10 2.609237 1_545
O11 Sr5 2.691926 1_655
O11 Sr1 2.817307 1_655
O12 Sr10 2.574999 1_545
O12 Sr0 2.648699 1_555
O12 Sr8 2.765513 1_555
O12 Sr6 2.796884 1_555
O13 Sr11 2.574999 1_565
O13 Sr1 2.648699 1_555
O13 Sr9 2.765513 1_455
O13 Sr7 2.796884 1_455
O14 Sr2 2.664671 1_556
O14 Sr8 2.751685 1_555
O14 Sr4 2.816186 1_556
O15 Sr3 2.664671 1_554
O15 Sr9 2.751685 1_555
O15 Sr5 2.816186 1_654
O16 Sr0 2.656131 1_555
O16 Sr9 2.777424 1_555
O16 Sr4 2.828674 1_555
O16 Sr3 2.851126 1_554
O17 Sr1 2.656131 1_555
O17 Sr8 2.777424 1_555
O17 Sr5 2.828674 1_555
O17 Sr2 2.851126 1_556
O18 Sr11 2.409528 1_555
O18 Sr2 2.684121 1_555
O18 Sr9 2.774285 1_455
O18 Sr6 2.858172 1_555
O18 Sr1 2.887710 1_555
O19 Sr10 2.409528 1_555
O19 Sr3 2.684121 1_555
O19 Sr8 2.774285 1_555
O19 Sr7 2.858172 1_555
O19 Sr0 2.887710 1_555
O20 Sr3 2.430534 1_555
O20 Sr10 2.607328 1_555
O20 Sr5 2.682376 1_665
O20 Sr4 3.080452 1_556
O21 Sr2 2.430534 1_555
O21 Sr11 2.607328 1_555
O21 Sr4 2.682376 1_545
O21 Sr5 3.080452 1_554
O22 Sr1 2.418525 1_555
O22 Sr7 2.654675 1_445
O22 Sr11 2.795691 1_555
O22 Sr6 3.143755 1_555
O23 Sr0 2.418525 1_555
O23 Sr6 2.654675 1_565
O23 Sr10 2.795691 1_555
O23 Sr7 3.143755 1_555
O24 Sr6 2.738910 1_555
O24 Sr0 2.746629 1_555
O24 Sr4 2.762681 1_555
O24 Sr2 2.767021 1_555
O25 Sr7 2.738910 1_455
O25 Sr1 2.746629 1_555
O25 Sr5 2.762681 1_555
O25 Sr3 2.767021 1_455
