# generated using pymatgen
data_Eu3(AlP2)2
_symmetry_space_group_name_H-M   'P 1'
_cell_length_a   8.18963731
_cell_length_b   8.18963731
_cell_length_c   6.55382807
_cell_angle_alpha   89.85266737
_cell_angle_beta   89.85266737
_cell_angle_gamma   75.54908917
_symmetry_Int_Tables_number   1
_chemical_formula_structural   Eu3(AlP2)2
_chemical_formula_sum   'Eu6 Al4 P8'
_cell_volume   425.65695458
_cell_formula_units_Z   2
loop_
 _symmetry_equiv_pos_site_id
 _symmetry_equiv_pos_as_xyz
  1  'x, y, z'
loop_
 _atom_site_type_symbol
 _atom_site_label
 _atom_site_symmetry_multiplicity
 _atom_site_fract_x
 _atom_site_fract_y
 _atom_site_fract_z
 _atom_site_occupancy
  Eu  Eu0  1  0.00870320  0.75032945  0.53602714  1
  Eu  Eu1  1  0.24967055  0.99129680  0.96397286  1
  Eu  Eu2  1  0.99129680  0.24967055  0.46397286  1
  Eu  Eu3  1  0.75032945  0.00870320  0.03602714  1
  Eu  Eu4  1  0.40196437  0.59803563  0.25000000  1
  Eu  Eu5  1  0.59803563  0.40196437  0.75000000  1
  Al  Al0  1  0.82867363  0.58040847  0.08525378  1
  Al  Al1  1  0.41959153  0.17132637  0.41474622  1
  Al  Al2  1  0.17132637  0.41959153  0.91474622  1
  Al  Al3  1  0.58040847  0.82867363  0.58525378  1
  P  P0  1  0.05923697  0.70828534  0.02527077  1
  P  P1  1  0.29171466  0.94076303  0.47472923  1
  P  P2  1  0.94076303  0.29171466  0.97472923  1
  P  P3  1  0.70828534  0.05923697  0.52527077  1
  P  P4  1  0.74110950  0.57638364  0.42991272  1
  P  P5  1  0.42361636  0.25889050  0.07008728  1
  P  P6  1  0.25889050  0.42361636  0.57008728  1
  P  P7  1  0.57638364  0.74110950  0.92991272  1
loop_
_geom_bond_atom_site_label_1
_geom_bond_atom_site_label_2
_geom_bond_distance
_geom_bond_site_symmetry_2
Eu0 P6 2.944526 1_555
Eu0 P4 2.981063 1_455
Eu0 P3 3.058051 1_465
Eu0 P1 3.124390 1_555
Eu0 P0 3.240522 1_556
Eu0 P0 3.379743 1_555
Eu1 P7 2.944526 1_555
Eu1 P5 2.981063 1_566
Eu1 P2 3.058051 1_465
Eu1 P0 3.124390 1_556
Eu1 P1 3.240522 1_555
Eu1 P1 3.379743 1_556
Eu2 P4 2.944526 1_555
Eu2 P6 2.981063 1_655
Eu2 P1 3.058051 1_645
Eu2 P3 3.124390 1_555
Eu2 P2 3.240522 1_554
Eu2 P2 3.379743 1_555
Eu3 P5 2.944526 1_555
Eu3 P7 2.981063 1_544
Eu3 P0 3.058051 1_645
Eu3 P2 3.124390 1_554
Eu3 P3 3.240522 1_555
Eu3 P3 3.379743 1_554
Eu4 P7 2.936223 1_554
Eu4 P6 2.936223 1_555
Eu4 P5 2.984307 1_555
Eu4 P4 2.984307 1_555
Eu4 P1 3.100362 1_555
Eu4 P0 3.100362 1_555
Eu5 P4 2.936223 1_555
Eu5 P5 2.936223 1_556
Eu5 P7 2.984307 1_555
Eu5 P6 2.984307 1_555
Eu5 P2 3.100362 1_555
Eu5 P3 3.100362 1_555
Al0 P4 2.370816 1_555
Al0 P7 2.384186 1_554
Al0 P0 2.407851 1_655
Al0 P2 2.424754 1_554
Al1 P5 2.370816 1_555
Al1 P6 2.384186 1_555
Al1 P1 2.407851 1_545
Al1 P3 2.424754 1_555
Al2 P6 2.370816 1_555
Al2 P5 2.384186 1_556
Al2 P2 2.407851 1_455
Al2 P0 2.424754 1_556
Al3 P7 2.370816 1_555
Al3 P4 2.384186 1_555
Al3 P3 2.407851 1_565
Al3 P1 2.424754 1_555
