# generated using pymatgen
data_ThTeSO7
_symmetry_space_group_name_H-M   'P 1'
_cell_length_a   14.02645200
_cell_length_b   5.70131400
_cell_length_c   7.68021602
_cell_angle_alpha   70.57859021
_cell_angle_beta   90.00000000
_cell_angle_gamma   90.00000000
_symmetry_Int_Tables_number   1
_chemical_formula_structural   ThTeSO7
_chemical_formula_sum   'Th4 Te4 S4 O28'
_cell_volume   579.23296129
_cell_formula_units_Z   4
loop_
 _symmetry_equiv_pos_site_id
 _symmetry_equiv_pos_as_xyz
  1  'x, y, z'
loop_
 _atom_site_type_symbol
 _atom_site_label
 _atom_site_symmetry_multiplicity
 _atom_site_fract_x
 _atom_site_fract_y
 _atom_site_fract_z
 _atom_site_occupancy
  Th  Th0  1  0.63304000  0.58063800  0.59026300  1
  Th  Th1  1  0.13304000  0.91936200  0.40973700  1
  Th  Th2  1  0.36696000  0.41936200  0.40973700  1
  Th  Th3  1  0.86696000  0.08063800  0.59026300  1
  Te  Te0  1  0.62623400  0.27121000  0.26537400  1
  Te  Te1  1  0.12623400  0.22879000  0.73462600  1
  Te  Te2  1  0.37376600  0.72879000  0.73462600  1
  Te  Te3  1  0.87376600  0.77121000  0.26537400  1
  S  S0  1  0.63901400  0.89518500  0.88475000  1
  S  S1  1  0.13901400  0.60481500  0.11525000  1
  S  S2  1  0.36098600  0.10481500  0.11525000  1
  S  S3  1  0.86098600  0.39518500  0.88475000  1
  O  O0  1  0.58693200  0.95401700  0.41470400  1
  O  O1  1  0.08693200  0.54598300  0.58529600  1
  O  O2  1  0.41306800  0.04598300  0.58529600  1
  O  O3  1  0.91306800  0.45401700  0.41470400  1
  O  O4  1  0.67313000  0.82761000  0.07491900  1
  O  O5  1  0.17313000  0.67239000  0.92508100  1
  O  O6  1  0.32687000  0.17239000  0.92508100  1
  O  O7  1  0.82687000  0.32761000  0.07491900  1
  O  O8  1  0.59927400  0.14998100  0.81740400  1
  O  O9  1  0.09927400  0.35001900  0.18259600  1
  O  O10  1  0.40072600  0.85001900  0.18259600  1
  O  O11  1  0.90072600  0.64998100  0.81740400  1
  O  O12  1  0.56777300  0.70884200  0.86313400  1
  O  O13  1  0.06777300  0.79115800  0.13686600  1
  O  O14  1  0.43222700  0.29115800  0.13686600  1
  O  O15  1  0.93222700  0.20884200  0.86313400  1
  O  O16  1  0.71902000  0.87171200  0.75668200  1
  O  O17  1  0.21902000  0.62828800  0.24331800  1
  O  O18  1  0.28098000  0.12828800  0.24331800  1
  O  O19  1  0.78098000  0.37171200  0.75668200  1
  O  O20  1  0.54085300  0.45317700  0.36784600  1
  O  O21  1  0.04085300  0.04682300  0.63215400  1
  O  O22  1  0.45914700  0.54682300  0.63215400  1
  O  O23  1  0.95914700  0.95317700  0.36784600  1
  O  O24  1  0.71920100  0.32479400  0.43294900  1
  O  O25  1  0.21920100  0.17520600  0.56705100  1
  O  O26  1  0.28079900  0.67520600  0.56705100  1
  O  O27  1  0.78079900  0.82479400  0.43294900  1
loop_
_geom_bond_atom_site_label_1
_geom_bond_atom_site_label_2
_geom_bond_distance
_geom_bond_site_symmetry_2
O0 Te0 1.873584 1_565
O0 Th0 2.204322 1_555
O1 Te1 1.873584 1_555
O1 Th1 2.204322 1_555
O2 Te2 1.873584 1_545
O2 Th2 2.204322 1_555
O3 Te3 1.873584 1_555
O3 Th3 2.204322 1_555
O4 S0 1.461637 1_554
O5 S1 1.461637 1_556
O6 S2 1.461637 1_556
O7 S3 1.461637 1_554
O8 S0 1.479463 1_545
O8 Th0 2.539218 1_555
O9 S1 1.479463 1_555
O9 Th1 2.539218 1_545
O10 S2 1.479463 1_565
O10 Th2 2.539218 1_555
O11 S3 1.479463 1_555
O11 Th3 2.539218 1_565
O12 S0 1.507338 1_555
O12 Th0 2.604425 1_555
O13 S1 1.507338 1_555
O13 Th1 2.604425 1_555
O14 S2 1.507338 1_555
O14 Th2 2.604425 1_555
O15 S3 1.507338 1_555
O15 Th3 2.604425 1_555
O16 S0 1.527164 1_555
O16 Th3 2.519113 1_565
O16 Th0 2.693060 1_555
O17 S1 1.527164 1_555
O17 Th2 2.519113 1_555
O17 Th1 2.693060 1_555
O18 S2 1.527164 1_555
O18 Th1 2.519113 1_545
O18 Th2 2.693060 1_555
O19 S3 1.527164 1_555
O19 Th0 2.519113 1_555
O19 Th3 2.693060 1_555
O20 Te0 1.916480 1_555
O20 Th0 2.437949 1_555
O20 Th2 2.459400 1_555
O21 Te1 1.916480 1_555
O21 Th1 2.437949 1_545
O21 Th3 2.459400 1_455
O22 Te2 1.916480 1_555
O22 Th2 2.437949 1_555
O22 Th0 2.459400 1_555
O23 Te3 1.916480 1_555
O23 Th3 2.437949 1_565
O23 Th1 2.459400 1_655
O24 Te0 1.926555 1_555
O24 Th0 2.493987 1_555
O24 Th3 2.564057 1_555
O25 Te1 1.926555 1_555
O25 Th1 2.493987 1_545
O25 Th2 2.564057 1_555
O26 Te2 1.926555 1_555
O26 Th2 2.493987 1_555
O26 Th1 2.564057 1_555
O27 Te3 1.926555 1_555
O27 Th3 2.493987 1_565
O27 Th0 2.564057 1_555
