# generated using pymatgen
data_SnMoH6(CO2)2
_symmetry_space_group_name_H-M   'P 1'
_cell_length_a   7.38051500
_cell_length_b   7.44399100
_cell_length_c   13.73188000
_cell_angle_alpha   90.00000000
_cell_angle_beta   90.00000000
_cell_angle_gamma   90.00000000
_symmetry_Int_Tables_number   1
_chemical_formula_structural   SnMoH6(CO2)2
_chemical_formula_sum   'Sn4 Mo4 H24 C8 O16'
_cell_volume   754.43617786
_cell_formula_units_Z   4
loop_
 _symmetry_equiv_pos_site_id
 _symmetry_equiv_pos_as_xyz
  1  'x, y, z'
loop_
 _atom_site_type_symbol
 _atom_site_label
 _atom_site_symmetry_multiplicity
 _atom_site_fract_x
 _atom_site_fract_y
 _atom_site_fract_z
 _atom_site_occupancy
  Sn  Sn0  1  0.72591600  0.75000000  0.37265300  1
  Sn  Sn1  1  0.77408400  0.75000000  0.87265300  1
  Sn  Sn2  1  0.27408400  0.25000000  0.62734700  1
  Sn  Sn3  1  0.22591600  0.25000000  0.12734700  1
  Mo  Mo0  1  0.56529700  0.25000000  0.38550100  1
  Mo  Mo1  1  0.93470300  0.25000000  0.88550100  1
  Mo  Mo2  1  0.43470300  0.75000000  0.61449900  1
  Mo  Mo3  1  0.06529700  0.75000000  0.11449900  1
  H  H0  1  0.96646400  0.75000000  0.51842200  1
  H  H1  1  0.53353600  0.75000000  0.01842200  1
  H  H2  1  0.03353600  0.25000000  0.48157800  1
  H  H3  1  0.46646400  0.25000000  0.98157800  1
  H  H4  1  0.05917500  0.87069100  0.41641200  1
  H  H5  1  0.44082500  0.62930900  0.91641200  1
  H  H6  1  0.94082500  0.37069100  0.58358800  1
  H  H7  1  0.55917500  0.12930900  0.08358800  1
  H  H8  1  0.94082500  0.12930900  0.58358800  1
  H  H9  1  0.55917500  0.37069100  0.08358800  1
  H  H10  1  0.05917500  0.62930900  0.41641200  1
  H  H11  1  0.44082500  0.87069100  0.91641200  1
  H  H12  1  0.38431200  0.75000000  0.31165100  1
  H  H13  1  0.11568800  0.75000000  0.81165100  1
  H  H14  1  0.61568800  0.25000000  0.68834900  1
  H  H15  1  0.88431200  0.25000000  0.18834900  1
  H  H16  1  0.52121300  0.62915400  0.22531200  1
  H  H17  1  0.97878700  0.87084600  0.72531200  1
  H  H18  1  0.47878700  0.12915400  0.77468800  1
  H  H19  1  0.02121300  0.37084600  0.27468800  1
  H  H20  1  0.47878700  0.37084600  0.77468800  1
  H  H21  1  0.02121300  0.12915400  0.27468800  1
  H  H22  1  0.52121300  0.87084600  0.22531200  1
  H  H23  1  0.97878700  0.62915400  0.72531200  1
  C  C0  1  0.98617600  0.75000000  0.43942800  1
  C  C1  1  0.51382400  0.75000000  0.93942800  1
  C  C2  1  0.01382400  0.25000000  0.56057200  1
  C  C3  1  0.48617600  0.25000000  0.06057200  1
  C  C4  1  0.51109400  0.75000000  0.27014500  1
  C  C5  1  0.98890600  0.75000000  0.77014500  1
  C  C6  1  0.48890600  0.25000000  0.72985500  1
  C  C7  1  0.01109400  0.25000000  0.22985500  1
  O  O0  1  0.70576600  0.44814600  0.38235700  1
  O  O1  1  0.79423400  0.05185400  0.88235700  1
  O  O2  1  0.29423400  0.94814600  0.61764300  1
  O  O3  1  0.20576600  0.55185400  0.11764300  1
  O  O4  1  0.29423400  0.55185400  0.61764300  1
  O  O5  1  0.20576600  0.94814600  0.11764300  1
  O  O6  1  0.70576600  0.05185400  0.38235700  1
  O  O7  1  0.79423400  0.44814600  0.88235700  1
  O  O8  1  0.43257100  0.25000000  0.49649100  1
  O  O9  1  0.06742900  0.25000000  0.99649100  1
  O  O10  1  0.56742900  0.75000000  0.50350900  1
  O  O11  1  0.93257100  0.75000000  0.00350900  1
  O  O12  1  0.41958200  0.25000000  0.28331800  1
  O  O13  1  0.08041800  0.25000000  0.78331800  1
  O  O14  1  0.58041800  0.75000000  0.71668200  1
  O  O15  1  0.91958200  0.75000000  0.21668200  1
loop_
_geom_bond_atom_site_label_1
_geom_bond_atom_site_label_2
_geom_bond_distance
_geom_bond_site_symmetry_2
Mo0 O12 1.767899 1_555
Mo0 O0 1.803413 1_555
Mo0 O6 1.803413 1_555
Mo0 O8 1.811760 1_555
Mo1 O13 1.767899 1_655
Mo1 O1 1.803413 1_555
Mo1 O7 1.803413 1_555
Mo1 O9 1.811760 1_655
Mo2 O14 1.767899 1_555
Mo2 O2 1.803413 1_555
Mo2 O4 1.803413 1_555
Mo2 O10 1.811760 1_555
Mo3 O15 1.767899 1_455
Mo3 O3 1.803413 1_555
Mo3 O5 1.803413 1_555
Mo3 O11 1.811760 1_455
C0 H10 1.094224 1_655
C0 H4 1.094224 1_655
C0 H0 1.094449 1_555
C0 Sn0 2.128489 1_555
C1 H11 1.094224 1_555
C1 H5 1.094224 1_555
C1 H1 1.094449 1_556
C1 Sn1 2.128489 1_555
C2 H8 1.094224 1_455
C2 H6 1.094224 1_455
C2 H2 1.094449 1_555
C2 Sn2 2.128489 1_555
C3 H7 1.094224 1_555
C3 H9 1.094224 1_555
C3 H3 1.094449 1_554
C3 Sn3 2.128489 1_555
C4 H22 1.092625 1_555
C4 H16 1.092625 1_555
C4 H12 1.095634 1_555
C4 Sn0 2.120192 1_555
C5 H17 1.092625 1_555
C5 H23 1.092625 1_555
C5 H13 1.095634 1_655
C5 Sn1 2.120192 1_555
C6 H20 1.092625 1_555
C6 H18 1.092625 1_555
C6 H14 1.095634 1_555
C6 Sn2 2.120192 1_555
C7 H19 1.092625 1_555
C7 H21 1.092625 1_555
C7 H15 1.095634 1_455
C7 Sn3 2.120192 1_555
O0 Sn0 2.255854 1_555
O1 Sn1 2.255854 1_545
O2 Sn2 2.255854 1_565
O3 Sn3 2.255854 1_555
O4 Sn2 2.255854 1_555
O5 Sn3 2.255854 1_565
O6 Sn0 2.255854 1_545
O7 Sn1 2.255854 1_555
O8 Sn2 2.144080 1_555
O9 Sn3 2.144080 1_556
O10 Sn0 2.144080 1_555
O11 Sn1 2.144080 1_554
O12 Sn3 2.574928 1_555
O13 Sn2 2.574928 1_555
O14 Sn1 2.574928 1_555
O15 Sn0 2.574928 1_555
