# generated using pymatgen
data_CsK(Fe2S3)2
_symmetry_space_group_name_H-M   'P 1'
_cell_length_a   7.34902065
_cell_length_b   7.34902065
_cell_length_c   5.18182400
_cell_angle_alpha   90.00000000
_cell_angle_beta   90.00000000
_cell_angle_gamma   102.56643405
_symmetry_Int_Tables_number   1
_chemical_formula_structural   CsK(Fe2S3)2
_chemical_formula_sum   'Cs1 K1 Fe4 S6'
_cell_volume   273.15626379
_cell_formula_units_Z   1
loop_
 _symmetry_equiv_pos_site_id
 _symmetry_equiv_pos_as_xyz
  1  'x, y, z'
loop_
 _atom_site_type_symbol
 _atom_site_label
 _atom_site_symmetry_multiplicity
 _atom_site_fract_x
 _atom_site_fract_y
 _atom_site_fract_z
 _atom_site_occupancy
  Cs  Cs0  1  0.67048000  0.32952000  0.00000000  1
  K  K0  1  0.32967200  0.67032800  0.50000000  1
  Fe  Fe0  1  0.86055100  0.86262500  0.24951100  1
  Fe  Fe1  1  0.86055100  0.86262500  0.75048900  1
  Fe  Fe2  1  0.13737500  0.13944900  0.24951100  1
  Fe  Fe3  1  0.13737500  0.13944900  0.75048900  1
  S  S0  1  0.62422700  0.83058600  0.00000000  1
  S  S1  1  0.84237800  0.63021300  0.50000000  1
  S  S2  1  0.36978700  0.15762200  0.50000000  1
  S  S3  1  0.16941400  0.37577300  0.00000000  1
  S  S4  1  0.10541600  0.89458400  0.00000000  1
  S  S5  1  0.89277400  0.10722600  0.50000000  1
loop_
_geom_bond_atom_site_label_1
_geom_bond_atom_site_label_2
_geom_bond_distance
_geom_bond_site_symmetry_2
Cs0 S2 3.460805 1_555
Cs0 S2 3.460805 1_554
Cs0 S1 3.460805 1_554
Cs0 S1 3.460805 1_555
Cs0 S3 3.608007 1_655
Cs0 S0 3.608007 1_545
Cs0 S5 3.634792 1_555
Cs0 S5 3.634792 1_554
Cs0 S0 3.770923 1_555
Cs0 S3 3.770923 1_555
K0 S0 3.417076 1_555
K0 S0 3.417076 1_556
K0 S3 3.417076 1_556
K0 S3 3.417076 1_555
K0 S2 3.528744 1_565
K0 S1 3.528744 1_455
K0 S4 3.650608 1_555
K0 S4 3.650608 1_556
Fe0 S1 2.126175 1_555
Fe0 S0 2.136690 1_555
Fe0 S4 2.186587 1_655
Fe0 S5 2.187901 1_565
Fe1 S1 2.126175 1_555
Fe1 S0 2.136690 1_556
Fe1 S4 2.186587 1_656
Fe1 S5 2.187901 1_565
Fe2 S2 2.126175 1_555
Fe2 S3 2.136690 1_555
Fe2 S4 2.186587 1_545
Fe2 S5 2.187901 1_455
Fe3 S2 2.126175 1_555
Fe3 S3 2.136690 1_556
Fe3 S4 2.186587 1_546
Fe3 S5 2.187901 1_455
