# generated using pymatgen
data_FeCoSn2
_symmetry_space_group_name_H-M   'P 1'
_cell_length_a   4.33372500
_cell_length_b   5.16832500
_cell_length_c   9.39144501
_cell_angle_alpha   89.55755600
_cell_angle_beta   90.00000000
_cell_angle_gamma   90.00000000
_symmetry_Int_Tables_number   1
_chemical_formula_structural   FeCoSn2
_chemical_formula_sum   'Fe3 Co3 Sn6'
_cell_volume   210.34424584
_cell_formula_units_Z   3
loop_
 _symmetry_equiv_pos_site_id
 _symmetry_equiv_pos_as_xyz
  1  'x, y, z'
loop_
 _atom_site_type_symbol
 _atom_site_label
 _atom_site_symmetry_multiplicity
 _atom_site_fract_x
 _atom_site_fract_y
 _atom_site_fract_z
 _atom_site_occupancy
  Fe  Fe0  1  0.00000000  0.50000000  0.50000000  1
  Fe  Fe1  1  0.00000000  0.50000000  0.00000000  1
  Fe  Fe2  1  0.00000000  0.00000000  0.50000000  1
  Co  Co0  1  0.00000000  0.25370100  0.24957400  1
  Co  Co1  1  0.00000000  0.74629900  0.75042600  1
  Co  Co2  1  0.00000000  0.00000000  0.00000000  1
  Sn  Sn0  1  0.50000000  0.24888000  0.08682900  1
  Sn  Sn1  1  0.50000000  0.74905100  0.58779700  1
  Sn  Sn2  1  0.50000000  0.75112000  0.91317100  1
  Sn  Sn3  1  0.50000000  0.25094900  0.41220300  1
  Sn  Sn4  1  0.00000000  0.24658100  0.75053800  1
  Sn  Sn5  1  0.00000000  0.75341900  0.24946200  1
loop_
_geom_bond_atom_site_label_1
_geom_bond_atom_site_label_2
_geom_bond_distance
_geom_bond_site_symmetry_2
Fe0 Fe2 2.584163 1_555
Fe0 Fe2 2.584163 1_565
Fe0 Sn1 2.654878 1_455
Fe0 Sn1 2.654878 1_555
Fe0 Sn3 2.654878 1_555
Fe0 Sn3 2.654878 1_455
Fe0 Sn4 2.684038 1_555
Fe0 Sn5 2.684038 1_555
Fe1 Sn0 2.651108 1_555
Fe1 Sn0 2.651108 1_455
Fe1 Sn2 2.651108 1_554
Fe1 Sn2 2.651108 1_454
Fe1 Sn5 2.692878 1_555
Fe1 Sn4 2.692878 1_554
Fe2 Sn3 2.653454 1_555
Fe2 Sn3 2.653454 1_455
Fe2 Sn1 2.653454 1_545
Fe2 Sn1 2.653454 1_445
Fe2 Sn4 2.684518 1_555
Fe2 Sn5 2.684518 1_545
Co0 Sn5 2.582697 1_555
Co0 Sn5 2.585628 1_545
Co0 Sn3 2.651013 1_455
Co0 Sn3 2.651013 1_555
Co0 Sn0 2.651894 1_455
Co0 Sn0 2.651894 1_555
Co0 Fe1 2.658573 1_555
Co0 Fe0 2.682891 1_555
Co0 Fe2 2.683822 1_555
Co0 Co2 2.694516 1_555
Co1 Sn4 2.582697 1_555
Co1 Sn4 2.585628 1_565
Co1 Sn1 2.651013 1_555
Co1 Sn1 2.651013 1_455
Co1 Sn2 2.651894 1_455
Co1 Sn2 2.651894 1_555
Co1 Fe1 2.658573 1_556
Co1 Fe0 2.682891 1_555
Co1 Fe2 2.683822 1_565
Co1 Co2 2.694516 1_566
Co2 Fe1 2.584163 1_555
Co2 Fe1 2.584163 1_545
Co2 Sn0 2.651603 1_455
Co2 Sn0 2.651603 1_555
Co2 Sn2 2.651603 1_544
Co2 Sn2 2.651603 1_444
Co2 Sn5 2.658339 1_545
Co2 Sn4 2.658339 1_554
Sn0 Sn2 3.054884 1_554
Sn0 Sn3 3.055833 1_555
Sn0 Sn2 3.056604 1_544
Sn1 Sn2 3.055833 1_555
Sn1 Sn3 3.063021 1_565
Sn1 Sn3 3.067952 1_555
