# generated using pymatgen
data_Na3PO4
_symmetry_space_group_name_H-M   'P 1'
_cell_length_a   5.07421687
_cell_length_b   5.07421687
_cell_length_c   5.07421687
_cell_angle_alpha   113.48500550
_cell_angle_beta   113.48500550
_cell_angle_gamma   101.71138596
_symmetry_Int_Tables_number   1
_chemical_formula_structural   Na3PO4
_chemical_formula_sum   'Na3 P1 O4'
_cell_volume   99.21681022
_cell_formula_units_Z   1
loop_
 _symmetry_equiv_pos_site_id
 _symmetry_equiv_pos_as_xyz
  1  'x, y, z'
loop_
 _atom_site_type_symbol
 _atom_site_label
 _atom_site_symmetry_multiplicity
 _atom_site_fract_x
 _atom_site_fract_y
 _atom_site_fract_z
 _atom_site_occupancy
  Na  Na0  1  0.50000000  0.50000000  0.00000000  1
  Na  Na1  1  0.25000000  0.75000000  0.50000000  1
  Na  Na2  1  0.75000000  0.25000000  0.50000000  1
  P  P0  1  0.00000000  0.00000000  0.00000000  1
  O  O0  1  0.20781100  0.79218900  0.00000000  1
  O  O1  1  0.20781100  0.20781100  0.41562100  1
  O  O2  1  0.79218900  0.20781100  0.00000000  1
  O  O3  1  0.79218900  0.79218900  0.58437900  1
loop_
_geom_bond_atom_site_label_1
_geom_bond_atom_site_label_2
_geom_bond_distance
_geom_bond_site_symmetry_2
Na0 O2 2.299733 1_555
Na0 O0 2.299733 1_555
Na0 O3 2.299737 1_555
Na0 O1 2.299737 1_554
Na1 O3 2.558745 1_555
Na1 O1 2.558745 1_555
Na1 O2 2.558746 1_455
Na1 O2 2.558746 1_566
Na1 O0 2.558746 1_555
Na1 O0 2.558746 1_556
Na1 O1 2.558749 1_565
Na1 O3 2.558749 1_455
Na2 O3 2.558745 1_555
Na2 O1 2.558745 1_555
Na2 O0 2.558746 1_656
Na2 O0 2.558746 1_545
Na2 O2 2.558746 1_556
Na2 O2 2.558746 1_555
Na2 O3 2.558749 1_545
Na2 O1 2.558749 1_655
O0 P0 1.635619 1_565
O1 P0 1.635615 1_555
O2 P0 1.635619 1_655
O3 P0 1.635615 1_666
