# generated using pymatgen
data_Sr4Fe6Bi7PbO24
_symmetry_space_group_name_H-M   'P 1'
_cell_length_a   20.82127883
_cell_length_b   20.82127883
_cell_length_c   5.43463700
_cell_angle_alpha   90.00000000
_cell_angle_beta   90.00000000
_cell_angle_gamma   164.99869685
_symmetry_Int_Tables_number   1
_chemical_formula_structural   Sr4Fe6Bi7PbO24
_chemical_formula_sum   'Sr4 Fe6 Bi7 Pb1 O24'
_cell_volume   609.84354963
_cell_formula_units_Z   1
loop_
 _symmetry_equiv_pos_site_id
 _symmetry_equiv_pos_as_xyz
  1  'x, y, z'
loop_
 _atom_site_type_symbol
 _atom_site_label
 _atom_site_symmetry_multiplicity
 _atom_site_fract_x
 _atom_site_fract_y
 _atom_site_fract_z
 _atom_site_occupancy
  Sr  Sr0  1  0.34567100  0.65432900  0.50000000  1
  Sr  Sr1  1  0.84557300  0.15442700  0.00000000  1
  Sr  Sr2  1  0.14551800  0.85448200  0.00000000  1
  Sr  Sr3  1  0.64469200  0.35530800  0.50000000  1
  Fe  Fe0  1  0.89334300  0.10665700  0.50000000  1
  Fe  Fe1  1  0.39324600  0.60675400  0.00000000  1
  Fe  Fe2  1  0.59797100  0.40202900  0.00000000  1
  Fe  Fe3  1  0.09795600  0.90204400  0.50000000  1
  Fe  Fe4  1  0.49717800  0.50282200  0.00000000  1
  Fe  Fe5  1  0.99719300  0.00280700  0.50000000  1
  Bi  Bi0  1  0.78084200  0.21915800  0.50000000  1
  Bi  Bi1  1  0.21621700  0.78378300  0.50000000  1
  Bi  Bi2  1  0.71617900  0.28382100  0.00000000  1
  Bi  Bi3  1  0.43862700  0.56137300  0.50000000  1
  Bi  Bi4  1  0.93856200  0.06143800  0.00000000  1
  Bi  Bi5  1  0.04150100  0.95849900  0.00000000  1
  Bi  Bi6  1  0.54161700  0.45838300  0.50000000  1
  Pb  Pb0  1  0.27975400  0.72024600  0.00000000  1
  O  O0  1  0.15084800  0.34870500  0.74970500  1
  O  O1  1  0.65129500  0.84915200  0.25029500  1
  O  O2  1  0.65129500  0.84915200  0.74970500  1
  O  O3  1  0.15084800  0.34870500  0.25029500  1
  O  O4  1  0.35648600  0.14339000  0.74997000  1
  O  O5  1  0.85661000  0.64351400  0.25003000  1
  O  O6  1  0.85661000  0.64351400  0.74997000  1
  O  O7  1  0.35648600  0.14339000  0.25003000  1
  O  O8  1  0.72454400  0.27545600  0.50000000  1
  O  O9  1  0.21892300  0.78107700  0.00000000  1
  O  O10  1  0.78647500  0.21352500  0.00000000  1
  O  O11  1  0.28656300  0.71343700  0.50000000  1
  O  O12  1  0.94871600  0.05128400  0.50000000  1
  O  O13  1  0.44875100  0.55124900  0.00000000  1
  O  O14  1  0.55075500  0.44924500  0.00000000  1
  O  O15  1  0.05078400  0.94921600  0.50000000  1
  O  O16  1  0.75444500  0.74510200  0.24977800  1
  O  O17  1  0.25489800  0.24555500  0.75022200  1
  O  O18  1  0.75444500  0.74510200  0.75022200  1
  O  O19  1  0.25489800  0.24555500  0.24977800  1
  O  O20  1  0.84532900  0.15467100  0.50000000  1
  O  O21  1  0.34591200  0.65408800  0.00000000  1
  O  O22  1  0.66621200  0.33378800  0.00000000  1
  O  O23  1  0.16623100  0.83376900  0.50000000  1
loop_
_geom_bond_atom_site_label_1
_geom_bond_atom_site_label_2
_geom_bond_distance
_geom_bond_site_symmetry_2
Fe0 O2 1.946005 1_545
Fe0 O0 1.946005 1_655
Fe0 O1 1.946005 1_545
Fe0 O3 1.946005 1_655
Fe0 O20 1.982317 1_555
Fe0 O12 2.286143 1_555
Fe1 O1 1.950596 1_555
Fe1 O3 1.950596 1_555
Fe1 O2 1.950596 1_554
Fe1 O0 1.950596 1_554
Fe1 O21 1.954243 1_555
Fe1 O13 2.291593 1_555
Fe2 O14 1.949371 1_555
Fe2 O5 1.954362 1_555
Fe2 O6 1.954362 1_554
Fe2 O7 1.954362 1_555
Fe2 O4 1.954362 1_554
Fe3 O15 1.947554 1_555
Fe3 O5 1.953779 1_455
Fe3 O6 1.953779 1_455
Fe3 O7 1.953779 1_565
Fe3 O4 1.953779 1_565
Fe4 O18 1.944703 1_554
Fe4 O17 1.944703 1_554
Fe4 O16 1.944703 1_555
Fe4 O19 1.944703 1_555
Fe4 O13 1.999369 1_555
Fe4 O14 2.211993 1_555
Fe5 O16 1.948009 1_545
Fe5 O18 1.948009 1_545
Fe5 O19 1.948009 1_655
Fe5 O17 1.948009 1_655
Fe5 O12 2.001433 1_555
Fe5 O15 2.212571 1_645
Bi0 O8 2.324333 1_555
Bi0 O20 2.662426 1_555
Bi0 O10 2.727253 1_555
Bi0 O10 2.727253 1_556
Bi0 O11 2.728201 1_545
Bi0 O11 2.728201 1_655
Bi1 O23 2.063734 1_555
Bi1 O9 2.719614 1_556
Bi1 O9 2.719614 1_555
Bi1 O8 2.739614 1_455
Bi1 O8 2.739614 1_565
Bi2 O22 2.062949 1_555
Bi2 O9 2.720317 1_655
Bi2 O9 2.720317 1_545
Bi2 O8 2.739177 1_555
Bi2 O8 2.739177 1_554
Bi3 O3 2.468979 1_555
Bi3 O0 2.468979 1_555
Bi3 O2 2.468979 1_555
Bi3 O1 2.468979 1_555
Bi3 O13 2.749278 1_556
Bi3 O13 2.749278 1_555
Bi3 O12 2.749690 1_565
Bi3 O12 2.749690 1_455
Bi4 O3 2.467722 1_655
Bi4 O0 2.467722 1_654
Bi4 O1 2.467722 1_545
Bi4 O2 2.467722 1_544
Bi4 O12 2.749466 1_554
Bi4 O12 2.749466 1_555
Bi4 O13 2.750318 1_545
Bi4 O13 2.750318 1_655
Bi5 O19 2.450495 1_565
Bi5 O17 2.450495 1_564
Bi5 O18 2.450495 1_454
Bi5 O16 2.450495 1_455
Bi5 O15 2.744214 1_555
Bi5 O15 2.744214 1_554
Bi5 O14 2.744679 1_565
Bi5 O14 2.744679 1_455
Bi6 O19 2.453442 1_555
Bi6 O16 2.453442 1_555
Bi6 O17 2.453442 1_555
Bi6 O18 2.453442 1_555
Bi6 O14 2.743384 1_555
Bi6 O14 2.743384 1_556
Bi6 O15 2.744181 1_655
Bi6 O15 2.744181 1_545
O0 Sr0 2.987201 1_555
O0 Sr1 2.990653 1_456
O1 Sr0 2.987201 1_555
O1 Sr1 2.990653 1_565
O2 Sr0 2.987201 1_555
O2 Sr1 2.990653 1_566
O3 Sr0 2.987201 1_555
O3 Sr1 2.990653 1_455
O4 Sr3 2.484616 1_555
O4 Sr2 2.506181 1_546
O5 Sr3 2.484616 1_555
O5 Sr2 2.506181 1_655
O6 Sr3 2.484616 1_555
O6 Sr2 2.506181 1_656
O7 Sr3 2.484616 1_555
O7 Sr2 2.506181 1_545
O9 Pb0 2.511483 1_555
O9 Sr2 3.030616 1_555
O10 Sr1 2.439934 1_555
O10 Pb0 2.732085 1_545
O10 Pb0 2.732085 1_655
O11 Sr0 2.440347 1_555
O11 Pb0 2.731821 1_556
O11 Pb0 2.731821 1_555
O20 Sr1 2.717337 1_556
O20 Sr1 2.717337 1_555
O20 Sr0 2.717994 1_545
O20 Sr0 2.717994 1_655
O21 Sr0 2.717337 1_555
O21 Sr0 2.717337 1_554
O21 Sr1 2.717993 1_455
O21 Sr1 2.717993 1_565
O21 Pb0 2.731415 1_555
O22 Sr2 2.849079 1_545
O22 Sr2 2.849079 1_655
O22 Sr3 2.858884 1_554
O22 Sr3 2.858884 1_555
O23 Sr2 2.848705 1_556
O23 Sr2 2.848705 1_555
O23 Sr3 2.859734 1_565
O23 Sr3 2.859734 1_455
