# generated using pymatgen
data_Al2O3
_symmetry_space_group_name_H-M   'P 1'
_cell_length_a   10.55428581
_cell_length_b   10.15682272
_cell_length_c   10.46520676
_cell_angle_alpha   94.02333762
_cell_angle_beta   95.11472453
_cell_angle_gamma   89.79878877
_symmetry_Int_Tables_number   1
_chemical_formula_structural   Al2O3
_chemical_formula_sum   'Al40 O60'
_cell_volume   1114.62436694
_cell_formula_units_Z   20
loop_
 _symmetry_equiv_pos_site_id
 _symmetry_equiv_pos_as_xyz
  1  'x, y, z'
loop_
 _atom_site_type_symbol
 _atom_site_label
 _atom_site_symmetry_multiplicity
 _atom_site_fract_x
 _atom_site_fract_y
 _atom_site_fract_z
 _atom_site_occupancy
  Al  Al0  1  0.55886100  0.14208900  0.76425700  1
  Al  Al1  1  0.66289600  0.07018300  0.53061600  1
  Al  Al2  1  0.29981600  0.40525200  0.82747300  1
  Al  Al3  1  0.08061600  0.22940600  0.35853700  1
  Al  Al4  1  0.89579700  0.19744700  0.13933900  1
  Al  Al5  1  0.27580600  0.71589600  0.21075000  1
  Al  Al6  1  0.16337000  0.00823700  0.58263300  1
  Al  Al7  1  0.07251700  0.30673800  0.62444300  1
  Al  Al8  1  0.43282400  0.18600600  0.98723900  1
  Al  Al9  1  0.68398200  0.36442500  0.00296100  1
  Al  Al10  1  0.48741600  0.48220300  0.64060100  1
  Al  Al11  1  0.38936700  0.85825300  0.79456000  1
  Al  Al12  1  0.43061700  0.93244000  0.53730000  1
  Al  Al13  1  0.85923900  0.93242000  0.64000400  1
  Al  Al14  1  0.48577200  0.10773500  0.26919800  1
  Al  Al15  1  0.69947600  0.88745700  0.82241300  1
  Al  Al16  1  0.18026500  0.28764600  0.15221100  1
  Al  Al17  1  0.62030600  0.85685300  0.30048100  1
  Al  Al18  1  0.21346200  0.99811100  0.31466900  1
  Al  Al19  1  0.53123800  0.91499600  0.01233300  1
  Al  Al20  1  0.95756700  0.04026600  0.93749100  1
  Al  Al21  1  0.44575400  0.60170000  0.95880400  1
  Al  Al22  1  0.82257500  0.88347700  0.11814200  1
  Al  Al23  1  0.98714000  0.69401100  0.21685000  1
  Al  Al24  1  0.24258500  0.92505700  0.01229100  1
  Al  Al25  1  0.34669400  0.21611200  0.51169800  1
  Al  Al26  1  0.06463500  0.58785500  0.71000400  1
  Al  Al27  1  0.53562900  0.55932500  0.20720400  1
  Al  Al28  1  0.97382200  0.34576400  0.90278600  1
  Al  Al29  1  0.12893800  0.85009300  0.77391600  1
  Al  Al30  1  0.90415900  0.65967800  0.91265400  1
  Al  Al31  1  0.59546400  0.35385300  0.42157700  1
  Al  Al32  1  0.31830800  0.47434100  0.36678700  1
  Al  Al33  1  0.28815400  0.70482000  0.53677700  1
  Al  Al34  1  0.77106100  0.62407800  0.66217800  1
  Al  Al35  1  0.77900000  0.61789900  0.39105700  1
  Al  Al36  1  0.16007400  0.50631600  0.04586500  1
  Al  Al37  1  0.78731700  0.35709200  0.71175800  1
  Al  Al38  1  0.91280300  0.99938100  0.36088800  1
  Al  Al39  1  0.88627600  0.38550300  0.31729300  1
  O  O0  1  0.99402200  0.85136900  0.29464900  1
  O  O1  1  0.16002000  0.13328200  0.21299600  1
  O  O2  1  0.59207600  0.22035300  0.93112600  1
  O  O3  1  0.00049600  0.34286100  0.47020900  1
  O  O4  1  0.77703800  0.32900900  0.14902400  1
  O  O5  1  0.95236800  0.27958400  0.73271000  1
  O  O6  1  0.49359200  0.76071000  0.91668900  1
  O  O7  1  0.08678800  0.05897300  0.42101600  1
  O  O8  1  0.57492700  0.49846800  0.04966800  1
  O  O9  1  0.10738000  0.97998400  0.92195700  1
  O  O10  1  0.20297200  0.18853000  0.60514200  1
  O  O11  1  0.91143200  0.57281300  0.30308000  1
  O  O12  1  0.89929800  0.16780000  0.30620700  1
  O  O13  1  0.38377800  0.01283400  0.98861200  1
  O  O14  1  0.76715700  0.91843200  0.27042800  1
  O  O15  1  0.85820300  0.95924400  0.81776600  1
  O  O16  1  0.26120500  0.79551800  0.88972800  1
  O  O17  1  0.78441400  0.40226200  0.88032300  1
  O  O18  1  0.69663100  0.90210400  0.00014700  1
  O  O19  1  0.42603600  0.79035100  0.63250300  1
  O  O20  1  0.25169200  0.88601500  0.18026500  1
  O  O21  1  0.90353000  0.51703600  0.68151900  1
  O  O22  1  0.49013900  0.45815100  0.32682100  1
  O  O23  1  0.92241500  0.20703900  0.97284000  1
  O  O24  1  0.02842300  0.93252000  0.64486800  1
  O  O25  1  0.43764600  0.21899100  0.15280000  1
  O  O26  1  0.25978900  0.95279700  0.71869900  1
  O  O27  1  0.00292600  0.51782800  0.94738800  1
  O  O28  1  0.36305900  0.54445900  0.54084400  1
  O  O29  1  0.15841000  0.69757500  0.63375500  1
  O  O30  1  0.41800900  0.66678800  0.14220400  1
  O  O31  1  0.27602700  0.65642500  0.36366400  1
  O  O32  1  0.80076200  0.71900800  0.53452500  1
  O  O33  1  0.25304100  0.44318300  0.19389500  1
  O  O34  1  0.82902700  0.02852300  0.50385500  1
  O  O35  1  0.91484900  0.01857300  0.09487500  1
  O  O36  1  0.15954600  0.43770200  0.72009300  1
  O  O37  1  0.48008600  0.33046900  0.54168600  1
  O  O38  1  0.24319800  0.32104100  0.40620600  1
  O  O39  1  0.88161600  0.72395900  0.07271000  1
  O  O40  1  0.61168100  0.17831100  0.38718400  1
  O  O41  1  0.68578600  0.20846800  0.67090600  1
  O  O42  1  0.12663200  0.65564000  0.13929400  1
  O  O43  1  0.74367800  0.44035700  0.39991000  1
  O  O44  1  0.35783200  0.24761400  0.84868900  1
  O  O45  1  0.46189700  0.09541200  0.61234200  1
  O  O46  1  0.65931400  0.48968100  0.63922300  1
  O  O47  1  0.52665700  0.94797700  0.18623700  1
  O  O48  1  0.64557300  0.67997000  0.29235400  1
  O  O49  1  0.68676300  0.93617200  0.65464900  1
  O  O50  1  0.75882500  0.71149200  0.81294200  1
  O  O51  1  0.01679800  0.72390300  0.81568300  1
  O  O52  1  0.26539300  0.89962000  0.46900500  1
  O  O53  1  0.44536600  0.49586200  0.79836300  1
  O  O54  1  0.36118800  0.09140600  0.37453300  1
  O  O55  1  0.02132800  0.33266600  0.21645100  1
  O  O56  1  0.53909400  0.97622600  0.82879800  1
  O  O57  1  0.14036100  0.32714600  0.98819500  1
  O  O58  1  0.28851800  0.53023200  0.95304600  1
  O  O59  1  0.55944200  0.92836700  0.43766000  1
loop_
_geom_bond_atom_site_label_1
_geom_bond_atom_site_label_2
_geom_bond_distance
_geom_bond_site_symmetry_2
Al0 O45 1.845849 1_555
Al0 O2 1.871474 1_555
Al0 O56 1.877503 1_545
Al0 O41 1.880319 1_555
Al1 O34 1.843253 1_555
Al1 O49 1.946335 1_545
Al1 O40 1.958043 1_555
Al1 O41 1.958665 1_555
Al1 O59 1.959168 1_545
Al1 O45 2.363565 1_555
Al2 O44 1.733930 1_555
Al2 O58 1.773518 1_555
Al2 O36 1.820741 1_555
Al2 O53 1.852654 1_555
Al3 O3 1.840956 1_555
Al3 O7 1.891765 1_555
Al3 O55 1.936724 1_555
Al3 O38 1.962901 1_555
Al3 O1 1.997143 1_555
Al3 O12 2.031522 1_455
Al4 O12 1.789926 1_555
Al4 O23 1.798841 1_554
Al4 O4 1.832697 1_555
Al4 O35 1.858273 1_555
Al4 O55 1.989826 1_655
Al5 O31 1.749491 1_555
Al5 O42 1.773471 1_555
Al5 O30 1.775506 1_555
Al5 O20 1.792170 1_555
Al6 O26 1.797341 1_545
Al6 O24 1.813158 1_545
Al6 O10 1.873709 1_555
Al6 O7 1.911848 1_555
Al6 O52 1.956129 1_545
Al7 O3 1.783278 1_555
Al7 O5 1.808416 1_455
Al7 O36 1.809106 1_555
Al7 O10 1.839013 1_555
Al8 O25 1.737751 1_556
Al8 O44 1.743442 1_555
Al8 O13 1.836595 1_555
Al8 O2 1.870950 1_555
Al9 O17 1.798082 1_554
Al9 O4 1.799318 1_555
Al9 O2 1.836553 1_554
Al9 O8 1.847483 1_555
Al10 O53 1.743595 1_555
Al10 O28 1.747819 1_555
Al10 O37 1.793138 1_555
Al10 O46 1.817500 1_555
Al11 O26 1.823978 1_555
Al11 O19 1.858151 1_555
Al11 O16 1.887571 1_555
Al11 O6 1.935069 1_555
Al11 O56 1.978248 1_555
Al12 O59 1.784392 1_555
Al12 O45 1.800243 1_565
Al12 O19 1.813446 1_555
Al12 O52 1.846967 1_555
Al13 O24 1.781802 1_655
Al13 O34 1.787890 1_565
Al13 O49 1.840406 1_555
Al13 O15 1.862151 1_555
Al13 O32 2.418682 1_555
Al14 O25 1.759989 1_555
Al14 O54 1.804790 1_555
Al14 O40 1.842361 1_555
Al14 O47 1.853946 1_545
Al15 O15 1.835357 1_555
Al15 O49 1.850589 1_555
Al15 O18 1.858445 1_556
Al15 O50 1.890708 1_555
Al15 O56 1.919285 1_555
Al16 O1 1.753568 1_555
Al16 O33 1.768614 1_555
Al16 O57 1.803087 1_554
Al16 O55 1.904599 1_555
Al17 O14 1.735984 1_555
Al17 O59 1.736672 1_555
Al17 O47 1.789167 1_555
Al17 O48 1.812525 1_555
Al18 O20 1.819546 1_555
Al18 O1 1.851410 1_565
Al18 O54 1.863930 1_565
Al18 O7 1.889754 1_565
Al18 O52 1.993713 1_555
Al19 O18 1.765302 1_555
Al19 O6 1.824489 1_554
Al19 O47 1.832147 1_555
Al19 O13 1.850988 1_564
Al19 O56 2.068629 1_554
Al20 O9 1.710692 1_645
Al20 O15 1.724523 1_545
Al20 O23 1.753814 1_555
Al20 O35 1.774440 1_556
Al21 O6 1.789639 1_555
Al21 O58 1.808044 1_555
Al21 O53 1.928814 1_555
Al21 O8 1.939327 1_556
Al21 O30 2.031593 1_556
Al22 O35 1.728896 1_565
Al22 O18 1.750966 1_555
Al22 O14 1.758804 1_555
Al22 O39 1.782422 1_555
Al23 O0 1.740766 1_555
Al23 O42 1.772786 1_655
Al23 O11 1.805411 1_555
Al23 O39 1.835978 1_555
Al24 O9 1.751896 1_554
Al24 O13 1.784121 1_564
Al24 O16 1.794770 1_554
Al24 O20 1.823200 1_555
Al25 O37 1.819670 1_555
Al25 O54 1.863040 1_555
Al25 O38 1.868076 1_555
Al25 O10 1.908308 1_555
Al25 O45 2.008238 1_555
Al26 O29 1.769620 1_555
Al26 O51 1.807668 1_555
Al26 O36 1.825775 1_555
Al26 O21 1.839989 1_455
Al27 O30 1.771786 1_555
Al27 O22 1.773321 1_555
Al27 O8 1.802568 1_555
Al27 O48 1.820573 1_555
Al28 O23 1.743100 1_555
Al28 O27 1.797263 1_655
Al28 O5 1.852672 1_555
Al28 O57 1.914536 1_655
Al28 O17 2.075549 1_555
Al29 O51 1.848270 1_555
Al29 O16 1.874068 1_555
Al29 O24 1.883397 1_555
Al29 O26 1.888475 1_555
Al29 O9 1.991598 1_555
Al29 O29 2.099314 1_555
Al30 O51 1.783855 1_655
Al30 O39 1.790271 1_556
Al30 O27 1.813805 1_655
Al30 O50 1.872084 1_555
Al31 O40 1.804589 1_555
Al31 O22 1.812142 1_555
Al31 O43 1.836091 1_555
Al31 O37 1.853668 1_555
Al32 O38 1.838503 1_555
Al32 O33 1.883445 1_555
Al32 O22 1.901171 1_555
Al32 O31 1.902774 1_555
Al32 O28 1.927490 1_555
Al33 O29 1.780321 1_555
Al33 O28 1.809516 1_555
Al33 O31 1.836914 1_555
Al33 O19 1.871585 1_555
Al33 O52 2.153740 1_555
Al34 O32 1.752179 1_555
Al34 O50 1.770109 1_555
Al34 O21 1.774109 1_555
Al34 O46 1.796342 1_555
Al35 O32 1.756544 1_555
Al35 O11 1.782362 1_555
Al35 O48 1.809234 1_555
Al35 O43 1.853009 1_555
Al36 O58 1.763668 1_554
Al36 O42 1.797362 1_555
Al36 O27 1.880811 1_554
Al36 O57 1.882910 1_554
Al36 O33 1.907300 1_555
Al37 O17 1.794248 1_555
Al37 O41 1.857128 1_555
Al37 O5 1.910197 1_555
Al37 O46 2.040281 1_555
Al37 O21 2.097373 1_555
Al38 O34 1.811038 1_565
Al38 O12 1.842566 1_565
Al38 O0 1.850948 1_555
Al38 O14 1.890855 1_555
Al38 O7 1.970430 1_665
Al39 O43 1.865894 1_555
Al39 O55 1.901786 1_655
Al39 O11 1.939671 1_555
Al39 O3 1.987815 1_655
Al39 O4 2.064065 1_555
Al39 O12 2.210506 1_555
