# generated using pymatgen
data_Sb3(PO4)4
_symmetry_space_group_name_H-M   'P 1'
_cell_length_a   8.53184200
_cell_length_b   9.21016431
_cell_length_c   13.14453227
_cell_angle_alpha   92.23709222
_cell_angle_beta   90.43438657
_cell_angle_gamma   90.13433487
_symmetry_Int_Tables_number   1
_chemical_formula_structural   Sb3(PO4)4
_chemical_formula_sum   'Sb9 P12 O48'
_cell_volume   1032.07248569
_cell_formula_units_Z   3
loop_
 _symmetry_equiv_pos_site_id
 _symmetry_equiv_pos_as_xyz
  1  'x, y, z'
loop_
 _atom_site_type_symbol
 _atom_site_label
 _atom_site_symmetry_multiplicity
 _atom_site_fract_x
 _atom_site_fract_y
 _atom_site_fract_z
 _atom_site_occupancy
  Sb  Sb0  1  0.64148100  0.27410400  0.11767500  1
  Sb  Sb1  1  0.14441700  0.90472400  0.52494300  1
  Sb  Sb2  1  0.85052200  0.42331300  0.81708000  1
  Sb  Sb3  1  0.00641100  0.82724100  0.84296500  1
  Sb  Sb4  1  0.49333400  0.67989500  0.16690600  1
  Sb  Sb5  1  0.99326900  0.49564800  0.48743000  1
  Sb  Sb6  1  0.42956800  0.33140300  0.83502200  1
  Sb  Sb7  1  0.03936100  0.14676200  0.17400000  1
  Sb  Sb8  1  0.55204000  0.00996300  0.49041200  1
  P  P0  1  0.81599300  0.79389000  0.61606900  1
  P  P1  1  0.29531700  0.67621100  0.38428800  1
  P  P2  1  0.70423000  0.98162100  0.25509700  1
  P  P3  1  0.17613700  0.52841800  0.71367700  1
  P  P4  1  0.20533600  0.19481500  0.40453700  1
  P  P5  1  0.81658700  0.12919500  0.94001800  1
  P  P6  1  0.79797600  0.49541900  0.27239600  1
  P  P7  1  0.28941700  0.02168900  0.74503800  1
  P  P8  1  0.19303200  0.84700400  0.06243800  1
  P  P9  1  0.29106300  0.37010700  0.07015900  1
  P  P10  1  0.70119400  0.64960700  0.95149100  1
  P  P11  1  0.71102500  0.31426500  0.59129700  1
  O  O0  1  0.70218200  0.03363100  0.36930900  1
  O  O1  1  0.70862000  0.32223400  0.71526900  1
  O  O2  1  0.10944700  0.98095900  0.76416600  1
  O  O3  1  0.10905400  0.64996700  0.41167600  1
  O  O4  1  0.90875100  0.59151100  0.22381500  1
  O  O5  1  0.28862100  0.19332600  0.75618300  1
  O  O6  1  0.18575900  0.83000900  0.93957600  1
  O  O7  1  0.16663700  0.51254800  0.59585000  1
  O  O8  1  0.37684200  0.82801000  0.08765300  1
  O  O9  1  0.91394300  0.91451800  0.56248100  1
  O  O10  1  0.29394200  0.85150400  0.40711100  1
  O  O11  1  0.61512300  0.83165400  0.25120300  1
  O  O12  1  0.37223600  0.19073600  0.44401100  1
  O  O13  1  0.16699800  0.01898500  0.08051900  1
  O  O14  1  0.89250300  0.34111500  0.56606400  1
  O  O15  1  0.69053700  0.14529100  0.57370300  1
  O  O16  1  0.91167600  0.23214200  0.87123900  1
  O  O17  1  0.34473400  0.49804900  0.74917200  1
  O  O18  1  0.12690000  0.35176300  0.11710200  1
  O  O19  1  0.86559400  0.16783400  0.05429700  1
  O  O20  1  0.12251300  0.34665600  0.40934500  1
  O  O21  1  0.64832800  0.82258100  0.58404800  1
  O  O22  1  0.31438600  0.66652500  0.26523200  1
  O  O23  1  0.37393100  0.52211900  0.08428500  1
  O  O24  1  0.58881200  0.70432900  0.87703500  1
  O  O25  1  0.71374400  0.47208700  0.94862500  1
  O  O26  1  0.88123700  0.64089900  0.58401800  1
  O  O27  1  0.86999400  0.97268300  0.91529900  1
  O  O28  1  0.59351600  0.40936100  0.54742500  1
  O  O29  1  0.88715700  0.67949400  0.92351500  1
  O  O30  1  0.09208500  0.09151900  0.46370700  1
  O  O31  1  0.67420300  0.68876800  0.06742900  1
  O  O32  1  0.87694800  0.97375000  0.22119000  1
  O  O33  1  0.41457100  0.94722000  0.79925500  1
  O  O34  1  0.80910000  0.50033200  0.39445600  1
  O  O35  1  0.08411900  0.75227800  0.11402000  1
  O  O36  1  0.40696700  0.59479000  0.44507700  1
  O  O37  1  0.39577000  0.25227700  0.11556500  1
  O  O38  1  0.12490100  0.68365000  0.74935000  1
  O  O39  1  0.61201100  0.52203400  0.24246600  1
  O  O40  1  0.27062900  0.34833600  0.95156400  1
  O  O41  1  0.60702200  0.08534800  0.18867500  1
  O  O42  1  0.64086900  0.15419900  0.93890600  1
  O  O43  1  0.83675900  0.81234600  0.73432600  1
  O  O44  1  0.07213000  0.41079300  0.76213000  1
  O  O45  1  0.80576700  0.32493800  0.24314000  1
  O  O46  1  0.20485800  0.14117100  0.29014500  1
  O  O47  1  0.30171700  0.99802300  0.62244700  1
loop_
_geom_bond_atom_site_label_1
_geom_bond_atom_site_label_2
_geom_bond_distance
_geom_bond_site_symmetry_2
O0 P2 1.558157 1_545
O0 Sb8 2.068601 1_555
O1 P11 1.628629 1_555
O1 Sb2 1.999063 1_555
O2 P7 1.603789 1_565
O2 Sb3 1.993107 1_555
O3 P1 1.651406 1_555
O3 Sb5 2.026403 1_455
O4 P6 1.460697 1_555
O5 P7 1.581909 1_555
O5 Sb6 2.002078 1_555
O6 P8 1.617145 1_556
O6 Sb3 1.980544 1_555
O7 P3 1.551459 1_555
O7 Sb5 2.047619 1_455
O8 P8 1.611756 1_555
O8 Sb4 2.008879 1_555
O9 P0 1.579413 1_555
O9 Sb1 2.032307 1_655
O10 P1 1.630645 1_555
O10 Sb1 2.059194 1_555
O11 P2 1.573954 1_555
O11 Sb4 2.028773 1_555
O12 P4 1.512904 1_555
O12 Sb8 2.361030 1_555
O13 P8 1.608681 1_545
O13 Sb7 1.998527 1_555
O14 P11 1.606524 1_555
O14 Sb5 1.988908 1_555
O15 P11 1.573548 1_555
O15 Sb8 2.003830 1_555
O16 P5 1.564916 1_555
O16 Sb2 1.993910 1_555
O17 P3 1.538484 1_555
O17 Sb6 2.069071 1_555
O18 P9 1.546330 1_555
O18 Sb7 2.189557 1_555
O19 P5 1.583020 1_554
O19 Sb7 2.168216 1_655
O19 Sb0 2.297254 1_555
O20 P4 1.567636 1_555
O20 Sb5 2.016617 1_455
O21 P0 1.514799 1_555
O21 Sb8 2.307673 1_565
O22 P1 1.573684 1_555
O22 Sb4 2.014457 1_555
O23 P9 1.570853 1_555
O23 Sb4 2.044978 1_555
O24 P10 1.468925 1_555
O25 P10 1.637725 1_555
O25 Sb2 2.127393 1_555
O26 P0 1.560040 1_555
O26 Sb5 2.051095 1_555
O27 P5 1.536191 1_565
O27 Sb3 1.994414 1_655
O28 P11 1.462735 1_555
O29 P10 1.656206 1_555
O29 Sb3 2.032311 1_655
O30 P4 1.583823 1_555
O30 Sb1 1.978213 1_545
O31 P10 1.571097 1_554
O31 Sb4 2.033737 1_555
O32 P2 1.543806 1_555
O32 Sb7 2.218978 1_665
O33 P7 1.465790 1_565
O34 P6 1.605374 1_555
O34 Sb5 1.984866 1_555
O35 P8 1.461597 1_555
O36 P1 1.465202 1_555
O37 P9 1.542414 1_555
O37 Sb0 2.105385 1_555
O38 P3 1.552011 1_555
O38 Sb3 2.045304 1_555
O39 P6 1.652915 1_555
O39 Sb4 2.056687 1_555
O40 P9 1.572262 1_556
O40 Sb6 2.055164 1_555
O41 P2 1.555846 1_545
O41 Sb0 2.026853 1_555
O42 P5 1.517364 1_555
O42 Sb0 2.557054 1_556
O43 P0 1.565759 1_555
O43 Sb3 2.026218 1_655
O44 P3 1.557121 1_555
O44 Sb2 2.031026 1_455
O45 P6 1.603570 1_555
O45 Sb0 2.192086 1_555
O46 P4 1.564264 1_555
O46 Sb7 2.073861 1_555
O47 P7 1.621847 1_565
O47 Sb1 2.016101 1_555
