# generated using pymatgen
data_VN3Cl5
_symmetry_space_group_name_H-M   'P 1'
_cell_length_a   7.51839200
_cell_length_b   10.85600400
_cell_length_c   13.61804700
_cell_angle_alpha   90.00000000
_cell_angle_beta   90.00000000
_cell_angle_gamma   90.00000000
_symmetry_Int_Tables_number   1
_chemical_formula_structural   VN3Cl5
_chemical_formula_sum   'V4 N12 Cl20'
_cell_volume   1111.50082392
_cell_formula_units_Z   4
loop_
 _symmetry_equiv_pos_site_id
 _symmetry_equiv_pos_as_xyz
  1  'x, y, z'
loop_
 _atom_site_type_symbol
 _atom_site_label
 _atom_site_symmetry_multiplicity
 _atom_site_fract_x
 _atom_site_fract_y
 _atom_site_fract_z
 _atom_site_occupancy
  V  V0  1  0.74479400  0.75000000  0.60940000  1
  V  V1  1  0.25520600  0.25000000  0.39060000  1
  V  V2  1  0.24479400  0.25000000  0.89060000  1
  V  V3  1  0.75520600  0.75000000  0.10940000  1
  N  N0  1  0.97971700  0.75000000  0.58423200  1
  N  N1  1  0.02028300  0.25000000  0.41576800  1
  N  N2  1  0.47971700  0.25000000  0.91576800  1
  N  N3  1  0.52028300  0.75000000  0.08423200  1
  N  N4  1  0.85765700  0.50750900  0.85722600  1
  N  N5  1  0.14234300  0.49249100  0.14277400  1
  N  N6  1  0.35765700  0.49249100  0.64277400  1
  N  N7  1  0.14234300  0.00750900  0.14277400  1
  N  N8  1  0.64234300  0.50750900  0.35722600  1
  N  N9  1  0.85765700  0.99249100  0.85722600  1
  N  N10  1  0.64234300  0.99249100  0.35722600  1
  N  N11  1  0.35765700  0.00750900  0.64277400  1
  Cl  Cl0  1  0.57822900  0.75000000  0.48019600  1
  Cl  Cl1  1  0.42177100  0.25000000  0.51980400  1
  Cl  Cl2  1  0.07822900  0.25000000  0.01980400  1
  Cl  Cl3  1  0.92177100  0.75000000  0.98019600  1
  Cl  Cl4  1  0.15584100  0.75000000  0.64940100  1
  Cl  Cl5  1  0.84415900  0.25000000  0.35059900  1
  Cl  Cl6  1  0.65584100  0.25000000  0.85059900  1
  Cl  Cl7  1  0.34415900  0.75000000  0.14940100  1
  Cl  Cl8  1  0.78062700  0.54340300  0.61657800  1
  Cl  Cl9  1  0.21937300  0.45659700  0.38342200  1
  Cl  Cl10  1  0.28062700  0.45659700  0.88342200  1
  Cl  Cl11  1  0.21937300  0.04340300  0.38342200  1
  Cl  Cl12  1  0.71937300  0.54340300  0.11657800  1
  Cl  Cl13  1  0.78062700  0.95659700  0.61657800  1
  Cl  Cl14  1  0.71937300  0.95659700  0.11657800  1
  Cl  Cl15  1  0.28062700  0.04340300  0.88342200  1
  Cl  Cl16  1  0.59597200  0.75000000  0.74739000  1
  Cl  Cl17  1  0.40402800  0.25000000  0.25261000  1
  Cl  Cl18  1  0.09597200  0.25000000  0.75261000  1
  Cl  Cl19  1  0.90402800  0.75000000  0.24739000  1
loop_
_geom_bond_atom_site_label_1
_geom_bond_atom_site_label_2
_geom_bond_distance
_geom_bond_site_symmetry_2
N0 V0 1.799190 1_555
N1 V1 1.799190 1_555
N2 V2 1.799190 1_555
N3 V3 1.799190 1_555
Cl0 V0 2.159657 1_555
Cl1 V1 2.159657 1_555
Cl2 V2 2.159657 1_554
Cl3 V3 2.159657 1_556
Cl4 N0 1.594063 1_455
Cl5 N1 1.594063 1_655
Cl6 N2 1.594063 1_555
Cl7 N3 1.594063 1_555
Cl8 V0 2.261054 1_555
Cl9 V1 2.261054 1_555
Cl10 V2 2.261054 1_555
Cl11 V1 2.261054 1_555
Cl12 V3 2.261054 1_555
Cl13 V0 2.261054 1_555
Cl14 V3 2.261054 1_555
Cl15 V2 2.261054 1_555
Cl16 V0 2.187044 1_555
Cl17 V1 2.187044 1_555
Cl18 V2 2.187044 1_555
Cl19 V3 2.187044 1_555
