# generated using pymatgen
data_MgVCrS4
_symmetry_space_group_name_H-M   'P 1'
_cell_length_a   7.11486136
_cell_length_b   7.24890595
_cell_length_c   7.24858434
_cell_angle_alpha   60.28282620
_cell_angle_beta   60.58981983
_cell_angle_gamma   60.59389286
_symmetry_Int_Tables_number   1
_chemical_formula_structural   MgVCrS4
_chemical_formula_sum   'Mg2 V2 Cr2 S8'
_cell_volume   267.26426045
_cell_formula_units_Z   2
loop_
 _symmetry_equiv_pos_site_id
 _symmetry_equiv_pos_as_xyz
  1  'x, y, z'
loop_
 _atom_site_type_symbol
 _atom_site_label
 _atom_site_symmetry_multiplicity
 _atom_site_fract_x
 _atom_site_fract_y
 _atom_site_fract_z
 _atom_site_occupancy
  Mg  Mg0  1  0.87368700  0.87622700  0.87621400  1
  Mg  Mg1  1  0.12631800  0.12380200  0.12376800  1
  V  V0  1  0.49995600  0.50002300  0.49997600  1
  V  V1  1  0.00002800  0.49999600  0.50001000  1
  Cr  Cr0  1  0.50001600  0.49996200  0.00000400  1
  Cr  Cr1  1  0.50001000  0.99997400  0.50005800  1
  S  S0  1  0.73706300  0.73714700  0.73713900  1
  S  S1  1  0.26475800  0.25677700  0.71363200  1
  S  S2  1  0.26474500  0.71364300  0.25677600  1
  S  S3  1  0.71123800  0.26290700  0.26287800  1
  S  S4  1  0.73522500  0.28639100  0.74317900  1
  S  S5  1  0.28876700  0.73710000  0.73710900  1
  S  S6  1  0.26293600  0.26284300  0.26287400  1
  S  S7  1  0.73525700  0.74320300  0.28638400  1
loop_
_geom_bond_atom_site_label_1
_geom_bond_atom_site_label_2
_geom_bond_distance
_geom_bond_site_symmetry_2
Mg0 S0 2.431048 1_555
Mg0 S5 2.431935 1_655
Mg0 S7 2.440045 1_556
Mg0 S4 2.440216 1_565
Mg1 S6 2.430966 1_555
Mg1 S3 2.431932 1_455
Mg1 S1 2.439845 1_554
Mg1 S2 2.440188 1_545
Cr0 S3 2.423272 1_555
Cr0 S5 2.423520 1_554
Cr0 S6 2.423598 1_555
Cr0 S0 2.423757 1_554
Cr0 S4 2.432389 1_554
Cr0 S2 2.432644 1_555
Cr1 S5 2.423292 1_555
Cr1 S0 2.423374 1_555
Cr1 S3 2.423552 1_565
Cr1 S6 2.423995 1_565
Cr1 S1 2.432314 1_565
Cr1 S7 2.432633 1_555
S0 V1 2.454165 1_655
S1 V1 2.439369 1_555
S1 V0 2.439822 1_555
S2 V1 2.439308 1_555
S2 V0 2.439736 1_555
S3 V0 2.453961 1_555
S4 V1 2.439541 1_655
S4 V0 2.440047 1_555
S5 V0 2.453989 1_555
S6 V1 2.454179 1_555
S7 V1 2.439598 1_655
S7 V0 2.440028 1_555
