# generated using pymatgen
data_K15Si92
_symmetry_space_group_name_H-M   'P 1'
_cell_length_a   10.34488600
_cell_length_b   10.34836400
_cell_length_c   20.68218600
_cell_angle_alpha   90.00000000
_cell_angle_beta   90.00000000
_cell_angle_gamma   90.00000000
_symmetry_Int_Tables_number   1
_chemical_formula_structural   K15Si92
_chemical_formula_sum   'K15 Si92'
_cell_volume   2214.08273360
_cell_formula_units_Z   1
loop_
 _symmetry_equiv_pos_site_id
 _symmetry_equiv_pos_as_xyz
  1  'x, y, z'
loop_
 _atom_site_type_symbol
 _atom_site_label
 _atom_site_symmetry_multiplicity
 _atom_site_fract_x
 _atom_site_fract_y
 _atom_site_fract_z
 _atom_site_occupancy
  K  K0  1  0.50000000  0.50000000  0.25004500  1
  K  K1  1  0.50000000  0.50000000  0.74995500  1
  K  K2  1  0.00000000  0.00000000  0.00000000  1
  K  K3  1  0.75002200  0.00000000  0.25003700  1
  K  K4  1  0.75002200  0.00000000  0.74996300  1
  K  K5  1  0.00000000  0.50000000  0.37506800  1
  K  K6  1  0.00000000  0.50000000  0.87498400  1
  K  K7  1  0.50000000  0.24988500  0.00000000  1
  K  K8  1  0.50000000  0.24979100  0.50000000  1
  K  K9  1  0.24997800  0.00000000  0.25003700  1
  K  K10  1  0.24997800  0.00000000  0.74996300  1
  K  K11  1  0.00000000  0.50000000  0.12501600  1
  K  K12  1  0.00000000  0.50000000  0.62493200  1
  K  K13  1  0.50000000  0.75011500  0.00000000  1
  K  K14  1  0.50000000  0.75020900  0.50000000  1
  Si  Si0  1  0.50000000  0.00000000  0.37544000  1
  Si  Si1  1  0.50000000  0.00000000  0.87510700  1
  Si  Si2  1  0.00000000  0.24962400  0.25003800  1
  Si  Si3  1  0.00000000  0.24962400  0.74996200  1
  Si  Si4  1  0.74987300  0.50000000  0.00000000  1
  Si  Si5  1  0.75067200  0.50000000  0.50000000  1
  Si  Si6  1  0.50000000  0.00000000  0.12489300  1
  Si  Si7  1  0.50000000  0.00000000  0.62456000  1
  Si  Si8  1  0.00000000  0.75037600  0.25003800  1
  Si  Si9  1  0.00000000  0.75037600  0.74996200  1
  Si  Si10  1  0.25012700  0.50000000  0.00000000  1
  Si  Si11  1  0.24932800  0.50000000  0.50000000  1
  Si  Si12  1  0.50000000  0.19315300  0.30963500  1
  Si  Si13  1  0.50000000  0.19298200  0.80965800  1
  Si  Si14  1  0.80716800  0.38068000  0.25000600  1
  Si  Si15  1  0.80716800  0.38068000  0.74999400  1
  Si  Si16  1  0.61861700  0.50000000  0.40351500  1
  Si  Si17  1  0.61848700  0.50000000  0.90350300  1
  Si  Si18  1  0.50000000  0.80701800  0.19034200  1
  Si  Si19  1  0.50000000  0.80684700  0.69036500  1
  Si  Si20  1  0.19283200  0.61932000  0.25000600  1
  Si  Si21  1  0.19283200  0.61932000  0.74999400  1
  Si  Si22  1  0.38151300  0.50000000  0.09649700  1
  Si  Si23  1  0.38138300  0.50000000  0.59648500  1
  Si  Si24  1  0.80716800  0.61932000  0.25000600  1
  Si  Si25  1  0.80716800  0.61932000  0.74999400  1
  Si  Si26  1  0.61848700  0.50000000  0.09649700  1
  Si  Si27  1  0.61861700  0.50000000  0.59648500  1
  Si  Si28  1  0.19283200  0.38068000  0.25000600  1
  Si  Si29  1  0.19283200  0.38068000  0.74999400  1
  Si  Si30  1  0.38138300  0.50000000  0.40351500  1
  Si  Si31  1  0.38151300  0.50000000  0.90350300  1
  Si  Si32  1  0.50000000  0.80684700  0.30963500  1
  Si  Si33  1  0.50000000  0.80701800  0.80965800  1
  Si  Si34  1  0.50000000  0.19298200  0.19034200  1
  Si  Si35  1  0.50000000  0.19315300  0.69036500  1
  Si  Si36  1  0.00000000  0.11844200  0.34710900  1
  Si  Si37  1  0.00000000  0.11891700  0.84655500  1
  Si  Si38  1  0.30592900  0.00000000  0.44053400  1
  Si  Si39  1  0.30689900  0.00000000  0.94057200  1
  Si  Si40  1  0.11917400  0.30691800  0.00000000  1
  Si  Si41  1  0.11892800  0.30580000  0.50000000  1
  Si  Si42  1  0.00000000  0.88108300  0.15344500  1
  Si  Si43  1  0.00000000  0.88155800  0.65289100  1
  Si  Si44  1  0.69310100  0.00000000  0.05942800  1
  Si  Si45  1  0.69407100  0.00000000  0.55946600  1
  Si  Si46  1  0.88082600  0.69308200  0.00000000  1
  Si  Si47  1  0.88107200  0.69420000  0.50000000  1
  Si  Si48  1  0.30689900  0.00000000  0.05942800  1
  Si  Si49  1  0.30592900  0.00000000  0.55946600  1
  Si  Si50  1  0.11917400  0.69308200  0.00000000  1
  Si  Si51  1  0.11892800  0.69420000  0.50000000  1
  Si  Si52  1  0.69407100  0.00000000  0.44053400  1
  Si  Si53  1  0.69310100  0.00000000  0.94057200  1
  Si  Si54  1  0.88082600  0.30691800  0.00000000  1
  Si  Si55  1  0.88107200  0.30580000  0.50000000  1
  Si  Si56  1  0.00000000  0.11891700  0.15344500  1
  Si  Si57  1  0.00000000  0.11844200  0.65289100  1
  Si  Si58  1  0.00000000  0.88155800  0.34710900  1
  Si  Si59  1  0.00000000  0.88108300  0.84655500  1
  Si  Si60  1  0.68530900  0.31442900  0.34264400  1
  Si  Si61  1  0.68487100  0.31459500  0.84244000  1
  Si  Si62  1  0.31512900  0.68540500  0.15756000  1
  Si  Si63  1  0.31469100  0.68557100  0.65735600  1
  Si  Si64  1  0.68487100  0.68540500  0.15756000  1
  Si  Si65  1  0.68530900  0.68557100  0.65735600  1
  Si  Si66  1  0.31469100  0.31442900  0.34264400  1
  Si  Si67  1  0.31512900  0.31459500  0.84244000  1
  Si  Si68  1  0.31469100  0.68557100  0.34264400  1
  Si  Si69  1  0.31512900  0.68540500  0.84244000  1
  Si  Si70  1  0.68487100  0.31459500  0.15756000  1
  Si  Si71  1  0.68530900  0.31442900  0.65735600  1
  Si  Si72  1  0.31512900  0.31459500  0.15756000  1
  Si  Si73  1  0.31469100  0.31442900  0.65735600  1
  Si  Si74  1  0.68530900  0.68557100  0.34264400  1
  Si  Si75  1  0.68487100  0.68540500  0.84244000  1
  Si  Si76  1  0.18390800  0.18393700  0.40808700  1
  Si  Si77  1  0.18501800  0.18498400  0.90752200  1
  Si  Si78  1  0.81498200  0.81501600  0.09247800  1
  Si  Si79  1  0.81609200  0.81606300  0.59191300  1
  Si  Si80  1  0.18501800  0.81501600  0.09247800  1
  Si  Si81  1  0.18390800  0.81606300  0.59191300  1
  Si  Si82  1  0.81609200  0.18393700  0.40808700  1
  Si  Si83  1  0.81498200  0.18498400  0.90752200  1
  Si  Si84  1  0.81498200  0.18498400  0.09247800  1
  Si  Si85  1  0.81609200  0.18393700  0.59191300  1
  Si  Si86  1  0.18390800  0.81606300  0.40808700  1
  Si  Si87  1  0.18501800  0.81501600  0.90752200  1
  Si  Si88  1  0.81609200  0.81606300  0.40808700  1
  Si  Si89  1  0.81498200  0.81501600  0.90752200  1
  Si  Si90  1  0.18501800  0.18498400  0.09247800  1
  Si  Si91  1  0.18390800  0.18393700  0.59191300  1
loop_
_geom_bond_atom_site_label_1
_geom_bond_atom_site_label_2
_geom_bond_distance
_geom_bond_site_symmetry_2
K0 Si64 3.316246 1_555
K0 Si72 3.316246 1_555
K0 Si62 3.316246 1_555
K0 Si70 3.316246 1_555
K0 Si60 3.321213 1_555
K0 Si66 3.321213 1_555
K0 Si74 3.321213 1_555
K0 Si68 3.321213 1_555
K0 Si16 3.403029 1_555
K0 Si30 3.403029 1_555
K0 Si22 3.404049 1_555
K0 Si26 3.404049 1_555
K0 Si32 3.406153 1_555
K0 Si12 3.406153 1_555
K0 Si18 3.408648 1_555
K0 Si34 3.408648 1_555
K0 Si28 3.409092 1_555
K0 Si24 3.409092 1_555
K0 Si14 3.409092 1_555
K0 Si20 3.409092 1_555
K1 Si67 3.316246 1_555
K1 Si61 3.316246 1_555
K1 Si75 3.316246 1_555
K1 Si69 3.316246 1_555
K1 Si71 3.321213 1_555
K1 Si65 3.321213 1_555
K1 Si73 3.321213 1_555
K1 Si63 3.321213 1_555
K1 Si23 3.403029 1_555
K1 Si27 3.403029 1_555
K1 Si31 3.404049 1_555
K1 Si17 3.404049 1_555
K1 Si35 3.406153 1_555
K1 Si19 3.406153 1_555
K1 Si13 3.408648 1_555
K1 Si33 3.408648 1_555
K1 Si25 3.409092 1_555
K1 Si21 3.409092 1_555
K1 Si15 3.409092 1_555
K1 Si29 3.409092 1_555
K2 Si87 3.314521 1_544
K2 Si83 3.314521 1_454
K2 Si77 3.314521 1_554
K2 Si89 3.314521 1_444
K2 Si80 3.314521 1_545
K2 Si84 3.314521 1_455
K2 Si90 3.314521 1_555
K2 Si78 3.314521 1_445
K2 Si56 3.403816 1_555
K2 Si42 3.403816 1_545
K2 Si59 3.403816 1_544
K2 Si37 3.403816 1_554
K2 Si48 3.404448 1_555
K2 Si39 3.404448 1_554
K2 Si53 3.404448 1_454
K2 Si44 3.404448 1_455
K2 Si40 3.406979 1_555
K2 Si50 3.406979 1_545
K2 Si54 3.406979 1_455
K2 Si46 3.406979 1_445
K3 Si56 3.491801 1_655
K3 Si42 3.491801 1_645
K3 Si34 3.493167 1_555
K3 Si18 3.493167 1_545
K3 Si12 3.493470 1_555
K3 Si32 3.493470 1_545
K3 Si58 3.495763 1_645
K3 Si36 3.495763 1_655
K3 Si8 3.655173 1_645
K3 Si2 3.655173 1_655
K3 Si6 3.659066 1_555
K3 Si0 3.662857 1_555
K4 Si37 3.491801 1_655
K4 Si59 3.491801 1_645
K4 Si13 3.493167 1_555
K4 Si33 3.493167 1_545
K4 Si35 3.493470 1_555
K4 Si19 3.493470 1_545
K4 Si57 3.495763 1_655
K4 Si43 3.495763 1_645
K4 Si9 3.655173 1_645
K4 Si3 3.655173 1_655
K4 Si1 3.659066 1_555
K4 Si7 3.662857 1_555
K5 Si28 3.492026 1_555
K5 Si24 3.492026 1_455
K5 Si20 3.492026 1_555
K5 Si14 3.492026 1_455
K5 Si55 3.496956 1_455
K5 Si41 3.496956 1_555
K5 Si51 3.496956 1_555
K5 Si47 3.496956 1_455
K5 Si5 3.650890 1_455
K5 Si11 3.650890 1_555
K5 Si2 3.660606 1_555
K5 Si8 3.660606 1_555
K6 Si25 3.490923 1_455
K6 Si15 3.490923 1_455
K6 Si21 3.490923 1_555
K6 Si29 3.490923 1_555
K6 Si46 3.492504 1_456
K6 Si54 3.492504 1_456
K6 Si50 3.492504 1_556
K6 Si40 3.492504 1_556
K6 Si10 3.657962 1_556
K6 Si4 3.657962 1_456
K6 Si9 3.660489 1_555
K6 Si3 3.660489 1_555
K7 Si26 3.490661 1_555
K7 Si22 3.490661 1_555
K7 Si31 3.490661 1_554
K7 Si17 3.490661 1_554
K7 Si44 3.491133 1_555
K7 Si48 3.491133 1_555
K7 Si53 3.491133 1_554
K7 Si39 3.491133 1_554
K7 Si6 3.655008 1_555
K7 Si1 3.655008 1_554
K7 Si4 3.657998 1_555
K7 Si10 3.657998 1_555
K8 Si30 3.491713 1_555
K8 Si16 3.491713 1_555
K8 Si23 3.491713 1_555
K8 Si27 3.491713 1_555
K8 Si45 3.496442 1_555
K8 Si52 3.496442 1_555
K8 Si49 3.496442 1_555
K8 Si38 3.496442 1_555
K8 Si0 3.649455 1_555
K8 Si7 3.649455 1_555
K8 Si5 3.664530 1_555
K8 Si11 3.664530 1_555
K9 Si42 3.491801 1_545
K9 Si56 3.491801 1_555
K9 Si18 3.493167 1_545
K9 Si34 3.493167 1_555
K9 Si12 3.493470 1_555
K9 Si32 3.493470 1_545
K9 Si58 3.495763 1_545
K9 Si36 3.495763 1_555
K9 Si8 3.655173 1_545
K9 Si2 3.655173 1_555
K9 Si6 3.659066 1_555
K9 Si0 3.662857 1_555
K10 Si37 3.491801 1_555
K10 Si59 3.491801 1_545
K10 Si13 3.493167 1_555
K10 Si33 3.493167 1_545
K10 Si35 3.493470 1_555
K10 Si19 3.493470 1_545
K10 Si57 3.495763 1_555
K10 Si43 3.495763 1_545
K10 Si9 3.655173 1_545
K10 Si3 3.655173 1_555
K10 Si1 3.659066 1_555
K10 Si7 3.662857 1_555
K11 Si24 3.490923 1_455
K11 Si28 3.490923 1_555
K11 Si20 3.490923 1_555
K11 Si14 3.490923 1_455
K11 Si50 3.492504 1_555
K11 Si54 3.492504 1_455
K11 Si46 3.492504 1_455
K11 Si40 3.492504 1_555
K11 Si4 3.657962 1_455
K11 Si10 3.657962 1_555
K11 Si2 3.660489 1_555
K11 Si8 3.660489 1_555
K12 Si21 3.492026 1_555
K12 Si29 3.492026 1_555
K12 Si25 3.492026 1_455
K12 Si15 3.492026 1_455
K12 Si41 3.496956 1_555
K12 Si55 3.496956 1_455
K12 Si47 3.496956 1_455
K12 Si51 3.496956 1_555
K12 Si5 3.650890 1_455
K12 Si11 3.650890 1_555
K12 Si3 3.660606 1_555
K12 Si9 3.660606 1_555
K13 Si26 3.490661 1_555
K13 Si22 3.490661 1_555
K13 Si31 3.490661 1_554
K13 Si17 3.490661 1_554
K13 Si44 3.491133 1_565
K13 Si39 3.491133 1_564
K13 Si53 3.491133 1_564
K13 Si48 3.491133 1_565
K13 Si6 3.655008 1_565
K13 Si1 3.655008 1_564
K13 Si4 3.657998 1_555
K13 Si10 3.657998 1_555
K14 Si30 3.491713 1_555
K14 Si16 3.491713 1_555
K14 Si23 3.491713 1_555
K14 Si27 3.491713 1_555
K14 Si49 3.496442 1_565
K14 Si45 3.496442 1_565
K14 Si38 3.496442 1_565
K14 Si52 3.496442 1_565
K14 Si7 3.649455 1_565
K14 Si0 3.649455 1_565
K14 Si5 3.664530 1_555
K14 Si11 3.664530 1_555
Si0 Si52 2.417253 1_555
Si0 Si38 2.417253 1_555
Si0 Si12 2.418175 1_555
Si0 Si32 2.418175 1_545
Si1 Si13 2.412573 1_555
Si1 Si33 2.412573 1_545
Si1 Si53 2.413223 1_555
Si1 Si39 2.413223 1_555
Si2 Si28 2.412187 1_555
Si2 Si56 2.412584 1_555
Si2 Si36 2.423526 1_555
Si3 Si37 2.412584 1_555
Si3 Si57 2.423526 1_555
Si4 Si54 2.414028 1_555
Si4 Si46 2.414028 1_555
Si5 Si55 2.420420 1_555
Si10 Si40 2.414028 1_555
Si10 Si50 2.414028 1_555
Si10 Si22 2.414631 1_555
Si10 Si31 2.414631 1_554
Si11 Si30 2.418329 1_555
Si11 Si23 2.418329 1_555
Si11 Si51 2.420420 1_555
Si11 Si41 2.420420 1_555
Si12 Si60 2.390819 1_555
Si12 Si66 2.390819 1_555
Si12 Si34 2.467241 1_555
Si13 Si61 2.387685 1_555
Si13 Si67 2.387685 1_555
Si13 Si35 2.467241 1_555
Si14 Si70 2.392482 1_555
Si14 Si60 2.393758 1_555
Si14 Si2 2.412187 1_655
Si14 Si24 2.469534 1_555
Si15 Si61 2.392482 1_555
Si15 Si71 2.393758 1_555
Si15 Si3 2.412187 1_655
Si15 Si25 2.469534 1_555
Si16 Si60 2.397645 1_555
Si16 Si74 2.397645 1_555
Si16 Si5 2.418329 1_555
Si16 Si30 2.454159 1_555
Si17 Si61 2.397444 1_555
Si17 Si75 2.397444 1_555
Si17 Si4 2.414631 1_556
Si17 Si31 2.451469 1_555
Si18 Si64 2.387685 1_555
Si18 Si62 2.387685 1_555
Si18 Si6 2.412573 1_565
Si18 Si32 2.467241 1_555
Si19 Si63 2.390819 1_555
Si19 Si65 2.390819 1_555
Si19 Si7 2.418175 1_565
Si19 Si33 2.467241 1_555
Si20 Si62 2.392482 1_555
Si20 Si68 2.393758 1_555
Si20 Si8 2.412187 1_555
Si20 Si28 2.469534 1_555
Si21 Si69 2.392482 1_555
Si21 Si63 2.393758 1_555
Si21 Si9 2.412187 1_555
Si21 Si29 2.469534 1_555
Si22 Si72 2.397444 1_555
Si22 Si62 2.397444 1_555
Si22 Si26 2.451469 1_555
Si23 Si73 2.397645 1_555
Si23 Si63 2.397645 1_555
Si23 Si27 2.454159 1_555
Si24 Si64 2.392482 1_555
Si24 Si74 2.393758 1_555
Si24 Si8 2.412187 1_655
Si25 Si75 2.392482 1_555
Si25 Si65 2.393758 1_555
Si25 Si9 2.412187 1_655
Si26 Si64 2.397444 1_555
Si26 Si70 2.397444 1_555
Si26 Si4 2.414631 1_555
Si27 Si71 2.397645 1_555
Si27 Si65 2.397645 1_555
Si27 Si5 2.418329 1_555
Si28 Si72 2.392482 1_555
Si28 Si66 2.393758 1_555
Si29 Si67 2.392482 1_555
Si29 Si73 2.393758 1_555
Si29 Si3 2.412187 1_555
Si30 Si66 2.397645 1_555
Si30 Si68 2.397645 1_555
Si31 Si67 2.397444 1_555
Si31 Si69 2.397444 1_555
Si32 Si74 2.390819 1_555
Si32 Si68 2.390819 1_555
Si33 Si69 2.387685 1_555
Si33 Si75 2.387685 1_555
Si34 Si72 2.387685 1_555
Si34 Si70 2.387685 1_555
Si34 Si6 2.412573 1_555
Si35 Si71 2.390819 1_555
Si35 Si73 2.390819 1_555
Si35 Si7 2.418175 1_555
Si36 Si76 2.381055 1_555
Si36 Si82 2.381055 1_455
Si36 Si58 2.451362 1_545
Si37 Si83 2.391805 1_455
Si37 Si77 2.391805 1_555
Si37 Si59 2.461193 1_545
Si38 Si76 2.380512 1_555
Si38 Si86 2.380512 1_545
Si38 Si49 2.459774 1_555
Si39 Si77 2.391953 1_555
Si39 Si87 2.391953 1_545
Si39 Si48 2.458202 1_556
Si40 Si77 2.390474 1_554
Si40 Si90 2.390474 1_555
Si40 Si54 2.465683 1_455
Si41 Si91 2.378204 1_555
Si41 Si76 2.378204 1_555
Si41 Si55 2.460593 1_455
Si42 Si78 2.391805 1_455
Si42 Si80 2.391805 1_555
Si42 Si8 2.412584 1_555
Si42 Si56 2.461193 1_565
Si43 Si79 2.381055 1_455
Si43 Si81 2.381055 1_555
Si43 Si9 2.423526 1_555
Si43 Si57 2.451362 1_565
Si44 Si84 2.391953 1_555
Si44 Si78 2.391953 1_545
Si44 Si6 2.413223 1_555
Si44 Si53 2.458202 1_554
Si45 Si85 2.380512 1_555
Si45 Si79 2.380512 1_545
Si45 Si7 2.417253 1_555
Si45 Si52 2.459774 1_555
Si46 Si89 2.390474 1_554
Si46 Si78 2.390474 1_555
Si46 Si50 2.465683 1_655
Si47 Si88 2.378204 1_555
Si47 Si79 2.378204 1_555
Si47 Si5 2.420420 1_555
Si47 Si51 2.460593 1_655
Si48 Si90 2.391953 1_555
Si48 Si80 2.391953 1_545
Si48 Si6 2.413223 1_555
Si49 Si91 2.380512 1_555
Si49 Si81 2.380512 1_545
Si49 Si7 2.417253 1_555
Si50 Si87 2.390474 1_554
Si50 Si80 2.390474 1_555
Si51 Si86 2.378204 1_555
Si51 Si81 2.378204 1_555
Si52 Si82 2.380512 1_555
Si52 Si88 2.380512 1_545
Si53 Si83 2.391953 1_555
Si53 Si89 2.391953 1_545
Si54 Si83 2.390474 1_554
Si54 Si84 2.390474 1_555
Si55 Si85 2.378204 1_555
Si55 Si82 2.378204 1_555
Si56 Si90 2.391805 1_555
Si56 Si84 2.391805 1_455
Si57 Si85 2.381055 1_455
Si57 Si91 2.381055 1_555
Si58 Si88 2.381055 1_455
Si58 Si86 2.381055 1_555
Si58 Si8 2.423526 1_555
Si59 Si87 2.391805 1_555
Si59 Si89 2.391805 1_455
Si59 Si9 2.412584 1_555
Si60 Si82 2.342206 1_555
Si61 Si83 2.328620 1_555
Si62 Si80 2.328620 1_555
Si63 Si81 2.342206 1_555
Si64 Si78 2.328620 1_555
Si65 Si79 2.342206 1_555
Si66 Si76 2.342206 1_555
Si67 Si77 2.328620 1_555
Si68 Si86 2.342206 1_555
Si69 Si87 2.328620 1_555
Si70 Si84 2.328620 1_555
Si71 Si85 2.342206 1_555
Si72 Si90 2.328620 1_555
Si73 Si91 2.342206 1_555
Si74 Si88 2.342206 1_555
Si75 Si89 2.328620 1_555
