# generated using pymatgen
data_Tb8Ga3Co
_symmetry_space_group_name_H-M   'P 1'
_cell_length_a   10.08237399
_cell_length_b   10.08237399
_cell_length_c   6.94216200
_cell_angle_alpha   90.00000000
_cell_angle_beta   90.00000000
_cell_angle_gamma   119.99999992
_symmetry_Int_Tables_number   1
_chemical_formula_structural   Tb8Ga3Co
_chemical_formula_sum   'Tb16 Ga6 Co2'
_cell_volume   611.15445460
_cell_formula_units_Z   2
loop_
 _symmetry_equiv_pos_site_id
 _symmetry_equiv_pos_as_xyz
  1  'x, y, z'
loop_
 _atom_site_type_symbol
 _atom_site_label
 _atom_site_symmetry_multiplicity
 _atom_site_fract_x
 _atom_site_fract_y
 _atom_site_fract_z
 _atom_site_occupancy
  Tb  Tb0  1  0.82766500  0.65533100  0.49015200  1
  Tb  Tb1  1  0.34466900  0.17233500  0.49015200  1
  Tb  Tb2  1  0.82766500  0.17233500  0.49015200  1
  Tb  Tb3  1  0.17233500  0.34466900  0.99015200  1
  Tb  Tb4  1  0.65533100  0.82766500  0.99015200  1
  Tb  Tb5  1  0.17233500  0.82766500  0.99015200  1
  Tb  Tb6  1  0.66666700  0.33333300  0.17232900  1
  Tb  Tb7  1  0.33333300  0.66666700  0.67232900  1
  Tb  Tb8  1  0.53655400  0.07310700  0.79213300  1
  Tb  Tb9  1  0.92689300  0.46344600  0.79213300  1
  Tb  Tb10  1  0.53655400  0.46344600  0.79213300  1
  Tb  Tb11  1  0.46344600  0.92689300  0.29213300  1
  Tb  Tb12  1  0.07310700  0.53655400  0.29213300  1
  Tb  Tb13  1  0.46344600  0.53655400  0.29213300  1
  Tb  Tb14  1  0.00000000  0.00000000  0.77002900  1
  Tb  Tb15  1  0.00000000  0.00000000  0.27002900  1
  Ga  Ga0  1  0.83645900  0.67291900  0.03950800  1
  Ga  Ga1  1  0.32708100  0.16354100  0.03950800  1
  Ga  Ga2  1  0.83645900  0.16354100  0.03950800  1
  Ga  Ga3  1  0.16354100  0.32708100  0.53950800  1
  Ga  Ga4  1  0.67291900  0.83645900  0.53950800  1
  Ga  Ga5  1  0.16354100  0.83645900  0.53950800  1
  Co  Co0  1  0.66666700  0.33333300  0.55530000  1
  Co  Co1  1  0.33333300  0.66666700  0.05530000  1
loop_
_geom_bond_atom_site_label_1
_geom_bond_atom_site_label_2
_geom_bond_distance
_geom_bond_site_symmetry_2
Tb0 Tb10 3.327785 1_555
Tb0 Tb9 3.327797 1_555
Tb0 Tb15 3.375252 1_665
Tb0 Tb12 3.522957 1_655
Tb0 Tb13 3.522957 1_555
Tb0 Tb6 3.573926 1_555
Tb0 Tb14 3.582207 1_665
Tb1 Tb10 3.327785 1_555
Tb1 Tb8 3.327797 1_555
Tb1 Tb15 3.375252 1_555
Tb1 Tb11 3.522957 1_545
Tb1 Tb13 3.522957 1_555
Tb1 Tb6 3.573926 1_555
Tb1 Tb14 3.582207 1_555
Tb2 Tb9 3.327782 1_555
Tb2 Tb8 3.327782 1_555
Tb2 Tb6 3.573913 1_555
Tb3 Tb9 3.522957 1_455
Tb3 Tb7 3.573926 1_555
Tb4 Tb8 3.522957 1_565
Tb4 Tb7 3.573926 1_555
Tb5 Tb8 3.522957 1_565
Tb5 Tb9 3.522957 1_455
Tb5 Tb7 3.573913 1_555
Tb6 Tb9 3.482696 1_554
Tb6 Tb8 3.482696 1_554
Tb7 Tb8 3.645022 1_565
Tb7 Tb9 3.645022 1_455
Tb10 Tb6 3.482696 1_556
Tb10 Tb3 3.522957 1_555
Tb10 Tb4 3.522957 1_555
Tb10 Tb7 3.645039 1_555
Tb10 Tb13 3.698427 1_556
Tb10 Tb13 3.698427 1_555
Tb11 Tb5 3.327782 1_554
Tb11 Tb4 3.327797 1_554
Tb11 Tb7 3.482696 1_555
Tb11 Tb2 3.522957 1_565
Tb11 Tb6 3.645022 1_565
Tb11 Tb8 3.698421 1_565
Tb11 Tb8 3.698421 1_564
Tb12 Tb5 3.327782 1_554
Tb12 Tb3 3.327797 1_554
Tb12 Tb7 3.482696 1_555
Tb12 Tb2 3.522957 1_455
Tb12 Tb6 3.645022 1_455
Tb12 Tb9 3.698421 1_455
Tb12 Tb9 3.698421 1_454
Tb13 Tb3 3.327785 1_554
Tb13 Tb4 3.327785 1_554
Tb13 Tb7 3.482696 1_555
Tb13 Tb6 3.645039 1_555
Tb14 Tb3 3.375252 1_555
Tb14 Tb4 3.375252 1_445
Tb14 Tb5 3.375260 1_545
Tb14 Tb15 3.471081 1_556
Tb14 Tb15 3.471081 1_555
Tb14 Tb2 3.582214 1_455
Tb15 Tb2 3.375260 1_455
Tb15 Tb3 3.582207 1_554
Tb15 Tb4 3.582207 1_444
Tb15 Tb5 3.582214 1_544
Ga0 Tb4 2.955656 1_554
Ga0 Tb5 2.955674 1_654
Ga0 Tb6 3.105186 1_555
Ga0 Tb0 3.132211 1_555
Ga0 Tb10 3.188515 1_554
Ga0 Tb9 3.188527 1_554
Ga0 Tb15 3.273742 1_665
Ga0 Tb14 3.414110 1_664
Ga0 Tb12 3.733536 1_655
Ga0 Tb13 3.733536 1_555
Ga0 Tb0 3.816809 1_554
Ga1 Tb3 2.955656 1_554
Ga1 Tb5 2.955674 1_544
Ga1 Tb6 3.105186 1_555
Ga1 Tb1 3.132211 1_555
Ga1 Tb10 3.188515 1_554
Ga1 Tb8 3.188527 1_554
Ga1 Tb15 3.273742 1_555
Ga1 Tb14 3.414110 1_554
Ga1 Tb11 3.733536 1_545
Ga1 Tb13 3.733536 1_555
Ga1 Tb1 3.816809 1_554
Ga2 Tb3 2.955673 1_654
Ga2 Tb4 2.955673 1_544
Ga2 Tb6 3.105169 1_555
Ga2 Tb2 3.132211 1_555
Ga2 Tb9 3.188511 1_554
Ga2 Tb8 3.188511 1_554
Ga2 Tb15 3.273750 1_655
Ga2 Tb14 3.414118 1_654
Ga2 Tb12 3.733536 1_655
Ga2 Tb11 3.733536 1_545
Ga2 Tb2 3.816809 1_554
Ga3 Tb1 2.955656 1_555
Ga3 Tb2 2.955674 1_455
Ga3 Tb7 3.105186 1_555
Ga3 Tb3 3.132211 1_555
Ga3 Tb13 3.188515 1_555
Ga3 Tb12 3.188527 1_555
Ga3 Tb14 3.273742 1_555
Ga3 Tb15 3.414110 1_555
Ga3 Tb9 3.733536 1_455
Ga3 Tb10 3.733536 1_555
Ga3 Tb3 3.816809 1_554
Ga4 Tb0 2.955656 1_555
Ga4 Tb2 2.955674 1_565
Ga4 Tb7 3.105186 1_555
Ga4 Tb4 3.132211 1_555
Ga4 Tb13 3.188515 1_555
Ga4 Tb11 3.188527 1_555
Ga4 Tb14 3.273742 1_665
Ga4 Tb15 3.414110 1_665
Ga4 Tb8 3.733536 1_565
Ga4 Tb10 3.733536 1_555
Ga4 Tb4 3.816809 1_554
Ga5 Tb1 2.955673 1_565
Ga5 Tb0 2.955673 1_455
Ga5 Tb7 3.105169 1_555
Ga5 Tb5 3.132211 1_555
Ga5 Tb11 3.188511 1_555
Ga5 Tb12 3.188511 1_555
Ga5 Tb14 3.273750 1_565
Ga5 Tb15 3.414118 1_565
Ga5 Tb8 3.733536 1_565
Ga5 Tb9 3.733536 1_455
Ga5 Tb5 3.816809 1_554
Co0 Tb6 2.658647 1_555
Co0 Tb10 2.804641 1_555
Co0 Tb9 2.804641 1_555
Co0 Tb8 2.804641 1_555
Co0 Tb2 2.847682 1_555
Co0 Tb1 2.847699 1_555
Co0 Tb0 2.847699 1_555
Co1 Tb7 2.658647 1_554
Co1 Tb13 2.804641 1_555
Co1 Tb11 2.804641 1_555
Co1 Tb12 2.804641 1_555
Co1 Tb5 2.847682 1_554
Co1 Tb3 2.847699 1_554
Co1 Tb4 2.847699 1_554
