# generated using pymatgen
data_K(Nb2Cl5)4
_symmetry_space_group_name_H-M   'P 1'
_cell_length_a   18.05772910
_cell_length_b   9.43209218
_cell_length_c   13.53681645
_cell_angle_alpha   89.95501684
_cell_angle_beta   90.00000000
_cell_angle_gamma   90.00000000
_symmetry_Int_Tables_number   1
_chemical_formula_structural   K(Nb2Cl5)4
_chemical_formula_sum   'K3 Nb24 Cl60'
_cell_volume   2305.61917997
_cell_formula_units_Z   3
loop_
 _symmetry_equiv_pos_site_id
 _symmetry_equiv_pos_as_xyz
  1  'x, y, z'
loop_
 _atom_site_type_symbol
 _atom_site_label
 _atom_site_symmetry_multiplicity
 _atom_site_fract_x
 _atom_site_fract_y
 _atom_site_fract_z
 _atom_site_occupancy
  K  K0  1  0.50000000  0.32303282  0.25394510  1
  K  K1  1  0.50000000  0.32338338  0.74627025  1
  K  K2  1  -0.00000000  0.67743717  0.74542494  1
  Nb  Nb0  1  0.21993916  0.35426986  0.39108601  1
  Nb  Nb1  1  0.27813382  0.64732235  0.39080751  1
  Nb  Nb2  1  0.78006084  0.35426986  0.39108601  1
  Nb  Nb3  1  0.72186618  0.64732235  0.39080751  1
  Nb  Nb4  1  0.27856106  0.64634071  0.60856649  1
  Nb  Nb5  1  0.22056654  0.35408869  0.60854760  1
  Nb  Nb6  1  0.72143894  0.64634071  0.60856649  1
  Nb  Nb7  1  0.77943346  0.35408869  0.60854760  1
  Nb  Nb8  1  -0.00000000  0.94569337  0.00145249  1
  Nb  Nb9  1  0.50000000  0.05045891  0.99983373  1
  Nb  Nb10  1  0.08261438  0.16524041  0.11078102  1
  Nb  Nb11  1  0.41812202  0.83416657  0.10919460  1
  Nb  Nb12  1  0.91738562  0.16524041  0.11078102  1
  Nb  Nb13  1  0.58187798  0.83416657  0.10919460  1
  Nb  Nb14  1  0.41815015  0.83417164  0.89066281  1
  Nb  Nb15  1  0.08225792  0.16538828  0.89051536  1
  Nb  Nb16  1  0.58184985  0.83417164  0.89066281  1
  Nb  Nb17  1  0.91774208  0.16538828  0.89051536  1
  Nb  Nb18  1  0.35544007  0.42150712  0.49967616  1
  Nb  Nb19  1  0.14246913  0.57976565  0.49922398  1
  Nb  Nb20  1  0.64455993  0.42150712  0.49967616  1
  Nb  Nb21  1  0.85753087  0.57976565  0.49922398  1
  Nb  Nb22  1  -0.00000000  0.38318994  0.00100713  1
  Nb  Nb23  1  0.50000000  0.61949940  0.00001798  1
  Cl  Cl0  1  -0.00000000  0.15825512  0.25431683  1
  Cl  Cl1  1  0.50000000  0.84347237  0.25479880  1
  Cl  Cl2  1  0.50000000  0.84347023  0.74501781  1
  Cl  Cl3  1  -0.00000000  0.15613249  0.74579627  1
  Cl  Cl4  1  0.24973250  0.50013010  0.24611878  1
  Cl  Cl5  1  0.75026750  0.50013010  0.24611878  1
  Cl  Cl6  1  0.24980209  0.49982737  0.75394251  1
  Cl  Cl7  1  0.75019791  0.49982737  0.75394251  1
  Cl  Cl8  1  0.34250203  0.23436290  0.37213993  1
  Cl  Cl9  1  0.15691126  0.76495696  0.37261280  1
  Cl  Cl10  1  0.65749797  0.23436290  0.37213993  1
  Cl  Cl11  1  0.84308874  0.76495696  0.37261280  1
  Cl  Cl12  1  0.15673282  0.76595029  0.62782120  1
  Cl  Cl13  1  0.34281753  0.23431046  0.62763520  1
  Cl  Cl14  1  0.84326718  0.76595029  0.62782120  1
  Cl  Cl15  1  0.65718247  0.23431046  0.62763520  1
  Cl  Cl16  1  -0.00000000  0.66511076  0.99308945  1
  Cl  Cl17  1  0.50000000  0.33399341  -0.00005946  1
  Cl  Cl18  1  0.09003710  0.42284237  0.37428056  1
  Cl  Cl19  1  0.40955032  0.57920763  0.37472801  1
  Cl  Cl20  1  0.90996290  0.42284237  0.37428056  1
  Cl  Cl21  1  0.59044968  0.57920763  0.37472801  1
  Cl  Cl22  1  0.40971568  0.57858990  0.62493199  1
  Cl  Cl23  1  0.08975305  0.42072807  0.62519249  1
  Cl  Cl24  1  0.59028432  0.57858990  0.62493199  1
  Cl  Cl25  1  0.91024695  0.42072807  0.62519249  1
  Cl  Cl26  1  0.18109556  0.15808986  0.50013372  1
  Cl  Cl27  1  0.31835752  0.84207854  0.49996580  1
  Cl  Cl28  1  0.81890444  0.15808986  0.50013372  1
  Cl  Cl29  1  0.68164248  0.84207854  0.49996580  1
  Cl  Cl30  1  0.19099848  0.16637446  0.00013464  1
  Cl  Cl31  1  0.30873034  0.83250297  0.99987431  1
  Cl  Cl32  1  0.80900152  0.16637446  0.00013464  1
  Cl  Cl33  1  0.69126966  0.83250297  0.99987431  1
  Cl  Cl34  1  0.09506290  0.42362987  0.12538791  1
  Cl  Cl35  1  0.40425498  0.57434796  0.12538686  1
  Cl  Cl36  1  0.90493710  0.42362987  0.12538791  1
  Cl  Cl37  1  0.59574502  0.57434796  0.12538686  1
  Cl  Cl38  1  0.40426927  0.57439453  0.87468066  1
  Cl  Cl39  1  0.09550825  0.42407200  0.87465874  1
  Cl  Cl40  1  0.59573073  0.57439453  0.87468066  1
  Cl  Cl41  1  0.90449175  0.42407200  0.87465874  1
  Cl  Cl42  1  -0.00000000  0.68237981  0.50560175  1
  Cl  Cl43  1  0.50000000  0.31715373  0.49967074  1
  Cl  Cl44  1  0.09625569  0.90658174  0.12693676  1
  Cl  Cl45  1  0.40253642  0.09446248  0.12644571  1
  Cl  Cl46  1  0.90374431  0.90658174  0.12693676  1
  Cl  Cl47  1  0.59746358  0.09446248  0.12644571  1
  Cl  Cl48  1  0.40250335  0.09447235  0.87316767  1
  Cl  Cl49  1  0.09752011  0.90602510  0.87411396  1
  Cl  Cl50  1  0.59749665  0.09447235  0.87316767  1
  Cl  Cl51  1  0.90247989  0.90602510  0.87411396  1
  Cl  Cl52  1  0.18507354  0.16622890  0.25041982  1
  Cl  Cl53  1  0.31466820  0.83364507  0.24989519  1
  Cl  Cl54  1  0.81492646  0.16622890  0.25041982  1
  Cl  Cl55  1  0.68533180  0.83364507  0.24989519  1
  Cl  Cl56  1  0.31477891  0.83291854  0.74961705  1
  Cl  Cl57  1  0.18494840  0.16632488  0.75011327  1
  Cl  Cl58  1  0.68522109  0.83291854  0.74961705  1
  Cl  Cl59  1  0.81505160  0.16632488  0.75011327  1
loop_
_geom_bond_atom_site_label_1
_geom_bond_atom_site_label_2
_geom_bond_distance
_geom_bond_site_symmetry_2
Cl0 Nb12 2.450512 1_455
Cl0 Nb10 2.450512 1_555
Cl1 Nb13 2.465550 1_555
Cl1 Nb11 2.465550 1_555
Cl2 Nb14 2.465575 1_555
Cl2 Nb16 2.465575 1_555
Cl3 Nb15 2.460101 1_555
Cl3 Nb17 2.460101 1_455
Cl4 Nb0 2.455389 1_555
Cl4 Nb1 2.455804 1_555
Cl5 Nb2 2.455389 1_555
Cl5 Nb3 2.455804 1_555
Cl6 Nb5 2.458920 1_555
Cl6 Nb4 2.459246 1_555
Cl7 Nb7 2.458920 1_555
Cl7 Nb6 2.459246 1_555
Cl8 Nb18 2.481076 1_555
Cl8 Nb0 2.498723 1_555
Cl8 K0 3.368377 1_555
Cl9 Nb19 2.460064 1_555
Cl9 Nb1 2.466385 1_555
Cl10 Nb20 2.481076 1_555
Cl10 Nb2 2.498723 1_555
Cl10 K0 3.368377 1_555
Cl11 Nb21 2.460064 1_555
Cl11 Nb3 2.466385 1_555
Cl12 Nb4 2.486143 1_555
Cl12 Nb19 2.487055 1_555
Cl12 K2 3.352546 1_555
Cl13 Nb18 2.482955 1_555
Cl13 Nb5 2.493201 1_555
Cl13 K1 3.367979 1_555
Cl14 Nb6 2.486143 1_555
Cl14 Nb21 2.487055 1_555
Cl14 K2 3.352546 1_655
Cl15 Nb20 2.482955 1_555
Cl15 Nb7 2.493201 1_555
Cl15 K1 3.367979 1_555
Cl16 Nb8 2.648990 1_556
Cl16 Nb22 2.661178 1_556
Cl16 K2 3.354513 1_555
Cl17 Nb9 2.674325 1_554
Cl17 Nb23 2.692920 1_555
Cl17 K1 3.435425 1_554
Cl17 K0 3.439886 1_555
Cl18 Nb19 2.439616 1_555
Cl18 Nb0 2.443835 1_555
Cl19 Nb18 2.454408 1_555
Cl19 Nb1 2.468174 1_555
Cl19 K0 3.344478 1_555
Cl20 Nb21 2.439616 1_555
Cl20 Nb2 2.443835 1_555
Cl21 Nb20 2.454408 1_555
Cl21 Nb3 2.468174 1_555
Cl21 K0 3.344478 1_555
Cl22 Nb18 2.456556 1_555
Cl22 Nb4 2.462990 1_555
Cl22 K1 3.338258 1_555
Cl23 Nb5 2.454797 1_555
Cl23 Nb19 2.461723 1_555
Cl23 K2 3.338361 1_555
Cl24 Nb20 2.456556 1_555
Cl24 Nb6 2.462990 1_555
Cl24 K1 3.338258 1_555
Cl25 Nb7 2.454797 1_555
Cl25 Nb21 2.461723 1_555
Cl25 K2 3.338361 1_655
Cl26 Nb5 2.466512 1_555
Cl26 Nb0 2.467933 1_555
Cl27 Nb4 2.466152 1_555
Cl27 Nb1 2.467737 1_555
Cl28 Nb7 2.466512 1_555
Cl28 Nb2 2.467933 1_555
Cl29 Nb6 2.466152 1_555
Cl29 Nb3 2.467737 1_555
Cl30 Nb15 2.461262 1_554
Cl30 Nb10 2.464551 1_555
Cl31 Nb14 2.467769 1_555
Cl31 Nb11 2.468259 1_556
Cl32 Nb17 2.461262 1_554
Cl32 Nb12 2.464551 1_555
Cl33 Nb16 2.467769 1_555
Cl33 Nb13 2.468259 1_556
Cl34 Nb22 2.434789 1_555
Cl34 Nb10 2.455626 1_555
Cl35 Nb23 2.459592 1_555
Cl35 Nb11 2.472955 1_555
Cl35 K0 3.410310 1_555
Cl36 Nb22 2.434789 1_655
Cl36 Nb12 2.455626 1_555
Cl37 Nb23 2.459592 1_555
Cl37 Nb13 2.472955 1_555
Cl37 K0 3.410310 1_555
Cl38 Nb23 2.459501 1_556
Cl38 Nb14 2.472681 1_555
Cl38 K1 3.409063 1_555
Cl39 Nb22 2.459152 1_556
Cl39 Nb15 2.460844 1_555
Cl39 K2 3.426268 1_555
Cl40 Nb23 2.459501 1_556
Cl40 Nb16 2.472681 1_555
Cl40 K1 3.409063 1_555
Cl41 Nb22 2.459152 1_656
Cl41 Nb17 2.460844 1_555
Cl41 K2 3.426268 1_655
Cl42 Nb21 2.750086 1_455
Cl42 Nb19 2.750086 1_555
Cl42 K2 3.246741 1_555
Cl43 Nb18 2.789821 1_555
Cl43 Nb20 2.789821 1_555
Cl43 K0 3.326762 1_555
Cl43 K1 3.338736 1_555
Cl44 Nb8 2.457995 1_555
Cl44 Nb10 2.461660 1_565
Cl45 Nb11 2.482404 1_545
Cl45 Nb9 2.491668 1_554
Cl45 K0 3.275681 1_555
Cl46 Nb8 2.457995 1_655
Cl46 Nb12 2.461660 1_565
Cl47 Nb13 2.482404 1_545
Cl47 Nb9 2.491668 1_554
Cl47 K0 3.275681 1_555
Cl48 Nb14 2.482522 1_545
Cl48 Nb9 2.492161 1_555
Cl48 K1 3.272052 1_555
Cl49 Nb15 2.471977 1_565
Cl49 Nb8 2.492677 1_556
Cl49 K2 3.284859 1_555
Cl50 Nb16 2.482522 1_545
Cl50 Nb9 2.492161 1_555
Cl50 K1 3.272052 1_555
Cl51 Nb17 2.471977 1_565
Cl51 Nb8 2.492677 1_656
Cl51 K2 3.284859 1_655
Cl52 Nb10 2.645067 1_555
Cl52 Nb0 2.678300 1_555
Cl53 Nb11 2.667884 1_555
Cl53 Nb1 2.675266 1_555
Cl54 Nb12 2.645067 1_555
Cl54 Nb2 2.678300 1_555
Cl55 Nb13 2.667884 1_555
Cl55 Nb3 2.675266 1_555
Cl56 Nb14 2.670210 1_555
Cl56 Nb4 2.678747 1_555
Cl57 Nb15 2.655365 1_555
Cl57 Nb5 2.686486 1_555
Cl58 Nb16 2.670210 1_555
Cl58 Nb6 2.678747 1_555
Cl59 Nb17 2.655365 1_555
Cl59 Nb7 2.686486 1_555
