# generated using pymatgen
data_Na3AlN2
_symmetry_space_group_name_H-M   'P 1'
_cell_length_a   6.49274699
_cell_length_b   8.48414500
_cell_length_c   8.60302195
_cell_angle_alpha   90.00000000
_cell_angle_beta   117.54530659
_cell_angle_gamma   90.00000000
_symmetry_Int_Tables_number   1
_chemical_formula_structural   Na3AlN2
_chemical_formula_sum   'Na12 Al4 N8'
_cell_volume   420.18212451
_cell_formula_units_Z   4
loop_
 _symmetry_equiv_pos_site_id
 _symmetry_equiv_pos_as_xyz
  1  'x, y, z'
loop_
 _atom_site_type_symbol
 _atom_site_label
 _atom_site_symmetry_multiplicity
 _atom_site_fract_x
 _atom_site_fract_y
 _atom_site_fract_z
 _atom_site_occupancy
  Na  Na0  1  0.25042300  0.00108600  0.00539800  1
  Na  Na1  1  0.74957700  0.50108600  0.49460200  1
  Na  Na2  1  0.74957700  0.99891400  0.99460200  1
  Na  Na3  1  0.25042300  0.49891400  0.50539800  1
  Na  Na4  1  0.24825400  0.50434600  0.87915700  1
  Na  Na5  1  0.75174600  0.00434600  0.62084300  1
  Na  Na6  1  0.75174600  0.49565400  0.12084300  1
  Na  Na7  1  0.24825400  0.99565400  0.37915700  1
  Na  Na8  1  0.74950300  0.29725800  0.81483300  1
  Na  Na9  1  0.25049700  0.79725800  0.68516700  1
  Na  Na10  1  0.25049700  0.70274200  0.18516700  1
  Na  Na11  1  0.74950300  0.20274200  0.31483300  1
  Al  Al0  1  0.22854900  0.18216900  0.68465300  1
  Al  Al1  1  0.77145100  0.68216900  0.81534700  1
  Al  Al2  1  0.77145100  0.81783100  0.31534700  1
  Al  Al3  1  0.22854900  0.31783100  0.18465300  1
  N  N0  1  0.45328400  0.05373600  0.70981500  1
  N  N1  1  0.54671600  0.55373600  0.79018500  1
  N  N2  1  0.54671600  0.94626400  0.29018500  1
  N  N3  1  0.45328400  0.44626400  0.20981500  1
  N  N4  1  0.98253300  0.28982400  0.65458100  1
  N  N5  1  0.01746700  0.78982400  0.84541900  1
  N  N6  1  0.01746700  0.71017600  0.34541900  1
  N  N7  1  0.98253300  0.21017600  0.15458100  1
loop_
_geom_bond_atom_site_label_1
_geom_bond_atom_site_label_2
_geom_bond_distance
_geom_bond_site_symmetry_2
Al0 N4 1.752250 1_455
Al0 N0 1.752471 1_555
Al1 N5 1.752250 1_655
Al1 N1 1.752471 1_555
Al2 N6 1.752250 1_655
Al2 N2 1.752471 1_555
Al3 N7 1.752250 1_455
Al3 N3 1.752471 1_555
N0 Na2 2.358076 1_545
N0 Na5 2.426637 1_555
N0 Na9 2.501051 1_545
N0 Na7 2.569938 1_545
N0 Na8 2.678953 1_555
N1 Na3 2.358076 1_555
N1 Na4 2.426637 1_555
N1 Na8 2.501051 1_555
N1 Na6 2.569938 1_556
N1 Na9 2.678953 1_555
N2 Na0 2.358076 1_565
N2 Na7 2.426637 1_555
N2 Na11 2.501051 1_565
N2 Na5 2.569938 1_565
N2 Na10 2.678953 1_555
N3 Na1 2.358076 1_555
N3 Na6 2.426637 1_555
N3 Na10 2.501051 1_555
N3 Na4 2.569938 1_554
N3 Na11 2.678953 1_555
N4 Na1 2.338632 1_555
N4 Na8 2.474489 1_555
N4 Na4 2.634174 1_655
N4 Na11 2.699621 1_555
N4 Na5 2.791698 1_555
N5 Na0 2.338632 1_566
N5 Na9 2.474489 1_555
N5 Na5 2.634174 1_465
N5 Na10 2.699621 1_556
N5 Na4 2.791698 1_555
N6 Na3 2.338632 1_555
N6 Na10 2.474489 1_555
N6 Na6 2.634174 1_455
N6 Na9 2.699621 1_555
N6 Na7 2.791698 1_555
N7 Na2 2.338632 1_544
N7 Na11 2.474489 1_555
N7 Na7 2.634174 1_645
N7 Na8 2.699621 1_554
N7 Na6 2.791698 1_555
