# generated using pymatgen
data_Re3Ge
_symmetry_space_group_name_H-M   'P 1'
_cell_length_a   5.55573556
_cell_length_b   5.55573556
_cell_length_c   4.46654200
_cell_angle_alpha   90.00000000
_cell_angle_beta   90.00000000
_cell_angle_gamma   119.99999471
_symmetry_Int_Tables_number   1
_chemical_formula_structural   Re3Ge
_chemical_formula_sum   'Re6 Ge2'
_cell_volume   119.39474399
_cell_formula_units_Z   2
loop_
 _symmetry_equiv_pos_site_id
 _symmetry_equiv_pos_as_xyz
  1  'x, y, z'
loop_
 _atom_site_type_symbol
 _atom_site_label
 _atom_site_symmetry_multiplicity
 _atom_site_fract_x
 _atom_site_fract_y
 _atom_site_fract_z
 _atom_site_occupancy
  Re  Re0  1  0.16939000  0.33878100  0.25000000  1
  Re  Re1  1  0.66121900  0.83061000  0.25000000  1
  Re  Re2  1  0.16939000  0.83061000  0.25000000  1
  Re  Re3  1  0.83061000  0.66121900  0.75000000  1
  Re  Re4  1  0.33878100  0.16939000  0.75000000  1
  Re  Re5  1  0.83061000  0.16939000  0.75000000  1
  Ge  Ge0  1  0.33333300  0.66666700  0.75000000  1
  Ge  Ge1  1  0.66666700  0.33333300  0.25000000  1
loop_
_geom_bond_atom_site_label_1
_geom_bond_atom_site_label_2
_geom_bond_distance
_geom_bond_site_symmetry_2
Re0 Re2 2.732472 1_555
Re0 Re1 2.732472 1_555
Re0 Re5 2.764856 1_455
Re0 Re5 2.764856 1_454
Re0 Re4 2.764862 1_555
Re0 Re4 2.764862 1_554
Re0 Re2 2.823264 1_545
Re0 Re1 2.823264 1_445
Re1 Re2 2.732472 1_555
Re1 Re5 2.764856 1_565
Re1 Re5 2.764856 1_564
Re1 Re3 2.764862 1_555
Re1 Re3 2.764862 1_554
Re1 Re2 2.823264 1_655
Re2 Re4 2.764856 1_565
Re2 Re4 2.764856 1_564
Re2 Re3 2.764856 1_454
Re2 Re3 2.764856 1_455
Re3 Re5 2.732472 1_555
Re3 Re4 2.732472 1_555
Re3 Re5 2.823264 1_565
Re3 Re4 2.823264 1_665
Re4 Re5 2.732472 1_555
Re4 Re5 2.823264 1_455
Ge0 Re2 2.734282 1_556
Ge0 Re2 2.734282 1_555
Ge0 Re1 2.734282 1_556
Ge0 Re1 2.734282 1_555
Ge0 Re0 2.734282 1_555
Ge0 Re0 2.734282 1_556
Ge0 Re4 2.777986 1_565
Ge0 Re3 2.777986 1_455
Ge0 Re5 2.777992 1_455
Ge0 Re5 2.777992 1_565
Ge0 Re4 2.777997 1_555
Ge0 Re3 2.777997 1_555
Ge1 Re5 2.734282 1_555
Ge1 Re5 2.734282 1_554
Ge1 Re3 2.734282 1_555
Ge1 Re4 2.734282 1_555
Ge1 Re4 2.734282 1_554
Ge1 Re3 2.734282 1_554
Ge1 Re0 2.777986 1_655
Ge1 Re1 2.777986 1_545
Ge1 Re2 2.777992 1_545
Ge1 Re2 2.777992 1_655
Ge1 Re0 2.777997 1_555
Ge1 Re1 2.777997 1_555
