# generated using pymatgen
data_Hg3PtF6
_symmetry_space_group_name_H-M   'P 1'
_cell_length_a   5.77018370
_cell_length_b   7.16155994
_cell_length_c   14.32338249
_cell_angle_alpha   81.25978243
_cell_angle_beta   114.30857946
_cell_angle_gamma   116.22432857
_symmetry_Int_Tables_number   1
_chemical_formula_structural   Hg3PtF6
_chemical_formula_sum   'Hg3 Pt1 F6'
_cell_volume   483.56984802
_cell_formula_units_Z   1
loop_
 _symmetry_equiv_pos_site_id
 _symmetry_equiv_pos_as_xyz
  1  'x, y, z'
loop_
 _atom_site_type_symbol
 _atom_site_label
 _atom_site_symmetry_multiplicity
 _atom_site_fract_x
 _atom_site_fract_y
 _atom_site_fract_z
 _atom_site_occupancy
  Hg  Hg0  1  0.00000000  0.00000000  0.50000000  1
  Hg  Hg1  1  0.50000000  0.50000000  0.00000000  1
  Hg  Hg2  1  0.00000000  0.50000000  0.00000000  1
  Pt  Pt0  1  0.00000000  0.00000000  0.00000000  1
  F  F0  1  0.10867900  0.19628300  0.89732400  1
  F  F1  1  0.89132000  0.80371700  0.10267600  1
  F  F2  1  0.90909600  0.97242400  0.62048200  1
  F  F3  1  0.09090400  0.02757600  0.37951800  1
  F  F4  1  0.64755000  0.79746200  0.90086200  1
  F  F5  1  0.35245000  0.20253800  0.09913800  1
loop_
_geom_bond_atom_site_label_1
_geom_bond_atom_site_label_2
_geom_bond_distance
_geom_bond_site_symmetry_2
Hg1 Hg2 2.885092 1_555
Hg1 Hg2 2.885092 1_655
F0 Pt0 1.970800 1_556
F0 Hg1 2.426946 1_556
F1 Pt0 1.970802 1_665
F1 Hg1 2.426944 1_555
F2 Hg0 1.960187 1_665
F3 Hg0 1.960187 1_555
F4 Pt0 1.974239 1_666
F4 Hg1 2.398436 1_556
F5 Pt0 1.974239 1_555
F5 Hg1 2.398436 1_555
