# generated using pymatgen
data_Tb2Ge6Pt
_symmetry_space_group_name_H-M   'P 1'
_cell_length_a   4.09646000
_cell_length_b   4.12504200
_cell_length_c   11.22775554
_cell_angle_alpha   90.00000000
_cell_angle_beta   100.51107592
_cell_angle_gamma   90.00000000
_symmetry_Int_Tables_number   1
_chemical_formula_structural   Tb2Ge6Pt
_chemical_formula_sum   'Tb2 Ge6 Pt1'
_cell_volume   186.54370410
_cell_formula_units_Z   1
loop_
 _symmetry_equiv_pos_site_id
 _symmetry_equiv_pos_as_xyz
  1  'x, y, z'
loop_
 _atom_site_type_symbol
 _atom_site_label
 _atom_site_symmetry_multiplicity
 _atom_site_fract_x
 _atom_site_fract_y
 _atom_site_fract_z
 _atom_site_occupancy
  Tb  Tb0  1  0.77794800  0.50000000  0.55589600  1
  Tb  Tb1  1  0.11660100  0.50000000  0.23320200  1
  Ge  Ge0  1  0.49354900  0.50000000  0.98709900  1
  Ge  Ge1  1  0.37988400  0.50000000  0.75976700  1
  Ge  Ge2  1  0.99273200  0.00000000  0.98546500  1
  Ge  Ge3  1  0.87880200  0.00000000  0.75760400  1
  Ge  Ge4  1  0.66929600  0.00000000  0.33859100  1
  Ge  Ge5  1  0.23934200  0.00000000  0.47868500  1
  Pt  Pt0  1  0.55884500  0.00000000  0.11769000  1
loop_
_geom_bond_atom_site_label_1
_geom_bond_atom_site_label_2
_geom_bond_distance
_geom_bond_site_symmetry_2
Ge0 Ge1 2.509598 1_555
Ge0 Pt0 2.516410 1_556
Ge0 Pt0 2.516410 1_566
Ge0 Ge2 2.906813 1_555
Ge0 Ge2 2.906813 1_565
Ge0 Ge2 2.906813 1_465
Ge0 Ge2 2.906813 1_455
Ge0 Tb1 3.402401 1_556
Ge0 Tb1 3.402404 1_656
Ge1 Ge3 2.906854 1_565
Ge1 Ge3 2.906854 1_555
Ge1 Ge3 2.906857 1_455
Ge1 Ge3 2.906857 1_465
Ge1 Tb0 3.043099 1_555
Ge1 Tb0 3.043102 1_455
Ge2 Pt0 2.515134 1_556
Ge2 Pt0 2.515137 1_656
Ge2 Ge3 2.515437 1_555
Ge2 Tb1 3.425409 1_646
Ge2 Tb1 3.425409 1_656
Ge3 Tb0 3.035177 1_555
Ge3 Tb0 3.035177 1_545
Ge4 Pt0 2.438603 1_555
Ge4 Ge5 2.566522 1_655
Ge4 Ge5 2.566529 1_555
Ge4 Tb1 3.130941 1_645
Ge4 Tb1 3.130941 1_655
Ge4 Tb1 3.130944 1_555
Ge4 Tb1 3.130944 1_545
Ge4 Tb0 3.163660 1_555
Ge4 Tb0 3.163660 1_545
Ge5 Tb0 3.029150 1_455
Ge5 Tb0 3.029150 1_445
Ge5 Tb0 3.029152 1_555
Ge5 Tb0 3.029152 1_545
Ge5 Tb1 3.405576 1_545
Ge5 Tb1 3.405576 1_555
Pt0 Tb1 3.174164 1_545
Pt0 Tb1 3.174164 1_645
Pt0 Tb1 3.174164 1_555
Pt0 Tb1 3.174164 1_655
