# generated using pymatgen
data_BaLiV2Ni3(HO5)2
_symmetry_space_group_name_H-M   'P 1'
_cell_length_a   5.97146416
_cell_length_b   5.94968831
_cell_length_c   8.30411960
_cell_angle_alpha   59.34239170
_cell_angle_beta   68.75244276
_cell_angle_gamma   59.86570072
_symmetry_Int_Tables_number   1
_chemical_formula_structural   BaLiV2Ni3(HO5)2
_chemical_formula_sum   'Ba1 Li1 V2 Ni3 H2 O10'
_cell_volume   217.23810413
_cell_formula_units_Z   1
loop_
 _symmetry_equiv_pos_site_id
 _symmetry_equiv_pos_as_xyz
  1  'x, y, z'
loop_
 _atom_site_type_symbol
 _atom_site_label
 _atom_site_symmetry_multiplicity
 _atom_site_fract_x
 _atom_site_fract_y
 _atom_site_fract_z
 _atom_site_occupancy
  Ba  Ba0  1  0.11290200  0.29903700  0.47665600  1
  Li  Li0  1  0.82228300  0.68004800  0.69225200  1
  V  V0  1  0.53716100  0.18129900  0.74524300  1
  V  V1  1  0.45332100  0.83355900  0.25510700  1
  Ni  Ni0  1  0.99190800  0.02191100  0.99433600  1
  Ni  Ni1  1  0.99037200  0.50370100  0.01291600  1
  Ni  Ni2  1  0.49502100  0.50457200  0.01024300  1
  H  H0  1  0.25804100  0.74485900  0.73710500  1
  H  H1  1  0.76514200  0.17463700  0.29226700  1
  O  O0  1  0.17008400  0.31767200  0.80570400  1
  O  O1  1  0.70825200  0.31850400  0.80375600  1
  O  O2  1  0.79940700  0.71041100  0.20196000  1
  O  O3  1  0.28564700  0.71233500  0.19853500  1
  O  O4  1  0.65964600  0.79255500  0.89179700  1
  O  O5  1  0.31858400  0.20911700  0.15349500  1
  O  O6  1  0.36696400  0.75847300  0.49338700  1
  O  O7  1  0.66807400  0.13302700  0.53007300  1
  O  O8  1  0.19162100  0.75678900  0.86112800  1
  O  O9  1  0.80140400  0.24332800  0.15237400  1
loop_
_geom_bond_atom_site_label_1
_geom_bond_atom_site_label_2
_geom_bond_distance
_geom_bond_site_symmetry_2
Ba0 O5 2.722449 1_555
Ba0 O6 2.731804 1_545
Ba0 O3 2.733706 1_555
Ba0 O2 2.738487 1_455
Ba0 H0 2.741757 1_545
Ba0 O1 2.917702 1_455
Ba0 O0 2.935714 1_555
Ba0 O7 3.081255 1_555
Ba0 O7 3.092180 1_455
Li0 O4 1.857175 1_555
Li0 O7 2.151903 1_565
Li0 O0 2.167995 1_655
Li0 O1 2.220499 1_555
Ni0 O9 1.981970 1_556
Ni0 O8 2.017060 1_645
Ni0 O0 2.131448 1_655
Ni0 O1 2.140425 1_555
Ni0 O3 2.251972 1_646
Ni0 O2 2.274363 1_546
Ni1 O9 1.998182 1_555
Ni1 O8 2.020847 1_654
Ni1 O4 2.033355 1_554
Ni1 O5 2.097284 1_655
Ni1 O2 2.130877 1_555
Ni1 O0 2.179173 1_654
Ni2 O9 1.998803 1_555
Ni2 O8 2.017140 1_554
Ni2 O4 2.035022 1_554
Ni2 O5 2.105672 1_555
Ni2 O3 2.130362 1_555
Ni2 O1 2.173727 1_554
H0 O8 0.986541 1_555
H1 O9 0.992871 1_555
O0 V0 1.883415 1_555
O1 V0 1.883613 1_555
O2 V1 1.775094 1_555
O3 V1 1.776220 1_555
O4 V0 1.855161 1_565
O5 V1 1.765310 1_545
O6 V1 1.723671 1_555
O7 V0 1.780943 1_555
