# generated using pymatgen
data_Cs
_symmetry_space_group_name_H-M   'P 1'
_cell_length_a   10.88792800
_cell_length_b   16.47548200
_cell_length_c   20.73437000
_cell_angle_alpha   90.00000000
_cell_angle_beta   90.00000000
_cell_angle_gamma   90.00000000
_symmetry_Int_Tables_number   1
_chemical_formula_structural   Cs
_chemical_formula_sum   Cs32
_cell_volume   3719.41136220
_cell_formula_units_Z   32
loop_
 _symmetry_equiv_pos_site_id
 _symmetry_equiv_pos_as_xyz
  1  'x, y, z'
loop_
 _atom_site_type_symbol
 _atom_site_label
 _atom_site_symmetry_multiplicity
 _atom_site_fract_x
 _atom_site_fract_y
 _atom_site_fract_z
 _atom_site_occupancy
  Cs  Cs0_0  1  0.41961550  0.37500000  0.43405650  1
  Cs  Cs0_1  1  0.41961550  0.37500000  0.93405650  1
  Cs  Cs0_2  1  0.41961550  0.87500000  0.43405650  1
  Cs  Cs0_3  1  0.41961550  0.87500000  0.93405650  1
  Cs  Cs0_4  1  0.91961550  0.37500000  0.43405650  1
  Cs  Cs0_5  1  0.91961550  0.37500000  0.93405650  1
  Cs  Cs0_6  1  0.91961550  0.87500000  0.43405650  1
  Cs  Cs0_7  1  0.91961550  0.87500000  0.93405650  1
  Cs  Cs1_0  1  0.33038450  0.37500000  0.18405650  1
  Cs  Cs1_1  1  0.33038450  0.37500000  0.68405650  1
  Cs  Cs1_2  1  0.33038450  0.87500000  0.18405650  1
  Cs  Cs1_3  1  0.33038450  0.87500000  0.68405650  1
  Cs  Cs1_4  1  0.83038450  0.37500000  0.18405650  1
  Cs  Cs1_5  1  0.83038450  0.37500000  0.68405650  1
  Cs  Cs1_6  1  0.83038450  0.87500000  0.18405650  1
  Cs  Cs1_7  1  0.83038450  0.87500000  0.68405650  1
  Cs  Cs2_0  1  0.08038450  0.12500000  0.06594350  1
  Cs  Cs2_1  1  0.08038450  0.12500000  0.56594350  1
  Cs  Cs2_2  1  0.08038450  0.62500000  0.06594350  1
  Cs  Cs2_3  1  0.08038450  0.62500000  0.56594350  1
  Cs  Cs2_4  1  0.58038450  0.12500000  0.06594350  1
  Cs  Cs2_5  1  0.58038450  0.12500000  0.56594350  1
  Cs  Cs2_6  1  0.58038450  0.62500000  0.06594350  1
  Cs  Cs2_7  1  0.58038450  0.62500000  0.56594350  1
  Cs  Cs3_0  1  0.16961550  0.12500000  0.31594350  1
  Cs  Cs3_1  1  0.16961550  0.12500000  0.81594350  1
  Cs  Cs3_2  1  0.16961550  0.62500000  0.31594350  1
  Cs  Cs3_3  1  0.16961550  0.62500000  0.81594350  1
  Cs  Cs3_4  1  0.66961550  0.12500000  0.31594350  1
  Cs  Cs3_5  1  0.66961550  0.12500000  0.81594350  1
  Cs  Cs3_6  1  0.66961550  0.62500000  0.31594350  1
  Cs  Cs3_7  1  0.66961550  0.62500000  0.81594350  1
loop_
_geom_bond_atom_site_label_1
_geom_bond_atom_site_label_2
_geom_bond_distance
_geom_bond_site_symmetry_2
Cs0_0 Cs2_7 5.244725 1_555
Cs0_0 Cs2_5 5.244725 1_555
Cs0_0 Cs1_0 5.273853 1_555
Cs0_0 Cs1_1 5.273853 1_555
Cs0_0 Cs0_4 5.443964 1_555
Cs0_0 Cs0_4 5.443964 1_455
Cs0_0 Cs3_0 5.511068 1_555
Cs0_0 Cs3_2 5.511068 1_555
Cs0_0 Cs3_4 5.511068 1_555
Cs0_0 Cs3_6 5.511068 1_555
Cs0_1 Cs2_4 5.244725 1_556
Cs0_1 Cs2_6 5.244725 1_556
Cs0_1 Cs1_1 5.273853 1_555
Cs0_1 Cs1_0 5.273853 1_556
Cs0_1 Cs0_5 5.443964 1_555
Cs0_1 Cs0_5 5.443964 1_455
Cs0_1 Cs3_3 5.511068 1_555
Cs0_1 Cs3_1 5.511068 1_555
Cs0_1 Cs3_7 5.511068 1_555
Cs0_1 Cs3_5 5.511068 1_555
Cs0_2 Cs2_7 5.244725 1_555
Cs0_2 Cs2_5 5.244725 1_565
Cs0_2 Cs1_2 5.273853 1_555
Cs0_2 Cs1_3 5.273853 1_555
Cs0_2 Cs0_6 5.443964 1_555
Cs0_2 Cs0_6 5.443964 1_455
Cs0_2 Cs3_2 5.511068 1_555
Cs0_2 Cs3_0 5.511068 1_565
Cs0_2 Cs3_6 5.511068 1_555
Cs0_2 Cs3_4 5.511068 1_565
Cs0_3 Cs2_6 5.244725 1_556
Cs0_3 Cs2_4 5.244725 1_566
Cs0_3 Cs1_3 5.273853 1_555
Cs0_3 Cs1_2 5.273853 1_556
Cs0_3 Cs0_7 5.443964 1_555
Cs0_3 Cs0_7 5.443964 1_455
Cs0_3 Cs3_3 5.511068 1_555
Cs0_3 Cs3_1 5.511068 1_565
Cs0_3 Cs3_5 5.511068 1_565
Cs0_3 Cs3_7 5.511068 1_555
Cs0_4 Cs2_3 5.244725 1_655
Cs0_4 Cs2_1 5.244725 1_655
Cs0_4 Cs1_4 5.273853 1_555
Cs0_4 Cs1_5 5.273853 1_555
Cs0_4 Cs3_4 5.511068 1_555
Cs0_4 Cs3_6 5.511068 1_555
Cs0_4 Cs3_2 5.511068 1_655
Cs0_4 Cs3_0 5.511068 1_655
Cs0_5 Cs2_0 5.244725 1_656
Cs0_5 Cs2_2 5.244725 1_656
Cs0_5 Cs1_5 5.273853 1_555
Cs0_5 Cs1_4 5.273853 1_556
Cs0_5 Cs3_5 5.511068 1_555
Cs0_5 Cs3_7 5.511068 1_555
Cs0_5 Cs3_1 5.511068 1_655
Cs0_5 Cs3_3 5.511068 1_655
Cs0_6 Cs2_3 5.244725 1_655
Cs0_6 Cs2_1 5.244725 1_665
Cs0_6 Cs1_6 5.273853 1_555
Cs0_6 Cs1_7 5.273853 1_555
Cs0_6 Cs3_4 5.511068 1_565
Cs0_6 Cs3_6 5.511068 1_555
Cs0_6 Cs3_0 5.511068 1_665
Cs0_6 Cs3_2 5.511068 1_655
Cs0_7 Cs2_0 5.244725 1_666
Cs0_7 Cs2_2 5.244725 1_656
Cs0_7 Cs1_7 5.273853 1_555
Cs0_7 Cs1_6 5.273853 1_556
Cs0_7 Cs3_5 5.511068 1_565
Cs0_7 Cs3_7 5.511068 1_555
Cs0_7 Cs3_3 5.511068 1_655
Cs0_7 Cs3_1 5.511068 1_665
Cs1_0 Cs3_0 5.244725 1_555
Cs1_0 Cs3_2 5.244725 1_555
Cs1_0 Cs1_4 5.443964 1_555
Cs1_0 Cs1_4 5.443964 1_455
Cs1_0 Cs2_2 5.511068 1_555
Cs1_0 Cs2_6 5.511068 1_555
Cs1_0 Cs2_0 5.511068 1_555
Cs1_0 Cs2_4 5.511068 1_555
Cs1_1 Cs3_1 5.244725 1_555
Cs1_1 Cs3_3 5.244725 1_555
Cs1_1 Cs1_5 5.443964 1_555
Cs1_1 Cs1_5 5.443964 1_455
Cs1_1 Cs2_7 5.511068 1_555
Cs1_1 Cs2_5 5.511068 1_555
Cs1_1 Cs2_3 5.511068 1_555
Cs1_1 Cs2_1 5.511068 1_555
Cs1_2 Cs3_0 5.244725 1_565
Cs1_2 Cs3_2 5.244725 1_555
Cs1_2 Cs1_6 5.443964 1_555
Cs1_2 Cs1_6 5.443964 1_455
Cs1_2 Cs2_2 5.511068 1_555
Cs1_2 Cs2_0 5.511068 1_565
Cs1_2 Cs2_4 5.511068 1_565
Cs1_2 Cs2_6 5.511068 1_555
Cs1_3 Cs3_1 5.244725 1_565
Cs1_3 Cs3_3 5.244725 1_555
Cs1_3 Cs1_7 5.443964 1_555
Cs1_3 Cs1_7 5.443964 1_455
Cs1_3 Cs2_7 5.511068 1_555
Cs1_3 Cs2_5 5.511068 1_565
Cs1_3 Cs2_1 5.511068 1_565
Cs1_3 Cs2_3 5.511068 1_555
Cs1_4 Cs3_6 5.244725 1_555
Cs1_4 Cs3_4 5.244725 1_555
Cs1_4 Cs2_6 5.511068 1_555
Cs1_4 Cs2_4 5.511068 1_555
Cs1_4 Cs2_2 5.511068 1_655
Cs1_4 Cs2_0 5.511068 1_655
Cs1_5 Cs3_5 5.244725 1_555
Cs1_5 Cs3_7 5.244725 1_555
Cs1_5 Cs2_3 5.511068 1_655
Cs1_5 Cs2_7 5.511068 1_555
Cs1_5 Cs2_1 5.511068 1_655
Cs1_5 Cs2_5 5.511068 1_555
Cs1_6 Cs3_6 5.244725 1_555
Cs1_6 Cs3_4 5.244725 1_565
Cs1_6 Cs2_4 5.511068 1_565
Cs1_6 Cs2_6 5.511068 1_555
Cs1_6 Cs2_0 5.511068 1_665
Cs1_6 Cs2_2 5.511068 1_655
Cs1_7 Cs3_5 5.244725 1_565
Cs1_7 Cs3_7 5.244725 1_555
Cs1_7 Cs2_3 5.511068 1_655
Cs1_7 Cs2_1 5.511068 1_665
Cs1_7 Cs2_7 5.511068 1_555
Cs1_7 Cs2_5 5.511068 1_565
Cs2_0 Cs3_0 5.273853 1_555
Cs2_0 Cs3_1 5.273853 1_554
Cs2_0 Cs2_4 5.443964 1_555
Cs2_0 Cs2_4 5.443964 1_455
Cs2_1 Cs3_1 5.273853 1_555
Cs2_1 Cs3_0 5.273853 1_555
Cs2_1 Cs2_5 5.443964 1_455
Cs2_1 Cs2_5 5.443964 1_555
Cs2_2 Cs3_2 5.273853 1_555
Cs2_2 Cs3_3 5.273853 1_554
Cs2_2 Cs2_6 5.443964 1_455
Cs2_2 Cs2_6 5.443964 1_555
Cs2_3 Cs3_3 5.273853 1_555
Cs2_3 Cs3_2 5.273853 1_555
Cs2_3 Cs2_7 5.443964 1_555
Cs2_3 Cs2_7 5.443964 1_455
Cs2_4 Cs3_4 5.273853 1_555
Cs2_4 Cs3_5 5.273853 1_554
Cs2_5 Cs3_5 5.273853 1_555
Cs2_5 Cs3_4 5.273853 1_555
Cs2_6 Cs3_6 5.273853 1_555
Cs2_6 Cs3_7 5.273853 1_554
Cs2_7 Cs3_7 5.273853 1_555
Cs2_7 Cs3_6 5.273853 1_555
Cs3_0 Cs3_4 5.443964 1_555
Cs3_0 Cs3_4 5.443964 1_455
Cs3_1 Cs3_5 5.443964 1_455
Cs3_1 Cs3_5 5.443964 1_555
Cs3_2 Cs3_6 5.443964 1_555
Cs3_2 Cs3_6 5.443964 1_455
Cs3_3 Cs3_7 5.443964 1_555
Cs3_3 Cs3_7 5.443964 1_455
