# generated using pymatgen
data_NaSm9Si6(SO12)2
_symmetry_space_group_name_H-M   'P 1'
_cell_length_a   9.89191106
_cell_length_b   9.89191106
_cell_length_c   6.77186300
_cell_angle_alpha   90.00000000
_cell_angle_beta   90.00000000
_cell_angle_gamma   119.99999372
_symmetry_Int_Tables_number   1
_chemical_formula_structural   NaSm9Si6(SO12)2
_chemical_formula_sum   'Na1 Sm9 Si6 S2 O24'
_cell_volume   573.85111321
_cell_formula_units_Z   1
loop_
 _symmetry_equiv_pos_site_id
 _symmetry_equiv_pos_as_xyz
  1  'x, y, z'
loop_
 _atom_site_type_symbol
 _atom_site_label
 _atom_site_symmetry_multiplicity
 _atom_site_fract_x
 _atom_site_fract_y
 _atom_site_fract_z
 _atom_site_occupancy
  Na  Na0  1  0.33333300  0.66666700  0.49335600  1
  Sm  Sm0  1  0.00000000  0.00000000  0.99630900  1
  Sm  Sm1  1  0.00000000  0.00000000  0.50322100  1
  Sm  Sm2  1  0.33333300  0.66666700  0.00794600  1
  Sm  Sm3  1  0.41423700  0.32191500  0.25079200  1
  Sm  Sm4  1  0.90767900  0.58576300  0.25079200  1
  Sm  Sm5  1  0.67808500  0.09232100  0.25079200  1
  Sm  Sm6  1  0.92152100  0.35260800  0.74779200  1
  Sm  Sm7  1  0.43108700  0.07847900  0.74779200  1
  Sm  Sm8  1  0.64739200  0.56891300  0.74779200  1
  Si  Si0  1  0.25642500  0.95471200  0.24713200  1
  Si  Si1  1  0.69828700  0.74357500  0.24713200  1
  Si  Si2  1  0.04528800  0.30171300  0.24713200  1
  Si  Si3  1  0.08026400  0.71654900  0.75069400  1
  Si  Si4  1  0.63628600  0.91973600  0.75069400  1
  Si  Si5  1  0.28345100  0.36371400  0.75069400  1
  S  S0  1  0.66666700  0.33333300  0.49231500  1
  S  S1  1  0.66666700  0.33333300  0.00100200  1
  O  O0  1  0.06155500  0.86169200  0.24986900  1
  O  O1  1  0.80013700  0.93844500  0.24986900  1
  O  O2  1  0.13830800  0.19986300  0.24986900  1
  O  O3  1  0.27146800  0.81114400  0.75921000  1
  O  O4  1  0.53967600  0.72853200  0.75921000  1
  O  O5  1  0.18885600  0.46032400  0.75921000  1
  O  O6  1  0.33110500  0.84306200  0.23950700  1
  O  O7  1  0.51195700  0.66889500  0.23950700  1
  O  O8  1  0.15693800  0.48804300  0.23950700  1
  O  O9  1  0.01156300  0.83700000  0.74980900  1
  O  O10  1  0.82543700  0.98843700  0.74980900  1
  O  O11  1  0.16300000  0.17456300  0.74980900  1
  O  O12  1  0.30443100  0.06923700  0.44357400  1
  O  O13  1  0.76480700  0.69556900  0.44357400  1
  O  O14  1  0.93076300  0.23519300  0.44357400  1
  O  O15  1  0.02463400  0.59858200  0.94427000  1
  O  O16  1  0.57394800  0.97536600  0.94427000  1
  O  O17  1  0.40141800  0.42605200  0.94427000  1
  O  O18  1  0.01043000  0.59483200  0.56402400  1
  O  O19  1  0.58440200  0.98957000  0.56402400  1
  O  O20  1  0.40516800  0.41559800  0.56402400  1
  O  O21  1  0.30369800  0.07414300  0.05527300  1
  O  O22  1  0.77044500  0.69630200  0.05527300  1
  O  O23  1  0.92585700  0.22955500  0.05527300  1
loop_
_geom_bond_atom_site_label_1
_geom_bond_atom_site_label_2
_geom_bond_distance
_geom_bond_site_symmetry_2
Na0 O6 2.457362 1_555
Na0 O8 2.457365 1_555
Na0 O7 2.457369 1_555
Na0 O3 2.555923 1_555
Na0 O5 2.555929 1_555
Na0 O4 2.555930 1_555
Na0 O18 2.943926 1_555
Na0 O19 2.943929 1_555
Na0 O20 2.943935 1_555
S0 Sm5 2.939536 1_555
S0 Sm3 2.939536 1_555
S0 Sm4 2.939536 1_555
S0 Sm6 2.983988 1_555
S0 Sm7 2.983991 1_555
S0 Sm8 2.983996 1_555
S1 Sm5 2.971049 1_555
S1 Sm3 2.971049 1_555
S1 Sm4 2.971049 1_555
S1 Sm6 2.975113 1_554
S1 Sm7 2.975117 1_554
S1 Sm8 2.975121 1_554
O0 Si0 1.670056 1_555
O0 Sm4 2.369029 1_455
O0 Sm1 2.453384 1_565
O0 Sm0 2.454369 1_564
O1 Si1 1.670056 1_555
O1 Sm5 2.369020 1_565
O1 Sm1 2.453384 1_665
O1 Sm0 2.454369 1_664
O2 Si2 1.670056 1_555
O2 Sm3 2.369030 1_555
O2 Sm1 2.453384 1_555
O2 Sm0 2.454369 1_554
O3 Si3 1.639022 1_555
O3 Sm7 2.305804 1_565
O3 Sm2 2.475640 1_556
O4 Si4 1.639022 1_555
O4 Sm8 2.305804 1_555
O4 Sm2 2.475647 1_556
O5 Si5 1.639031 1_555
O5 Sm6 2.305804 1_455
O5 Sm2 2.475645 1_556
O6 Si0 1.607492 1_555
O6 Sm2 2.354251 1_555
O6 Sm5 3.066444 1_565
O7 Si1 1.607492 1_555
O7 Sm2 2.354258 1_555
O7 Sm3 3.066447 1_555
O8 Si2 1.607492 1_555
O8 Sm2 2.354255 1_555
O8 Sm4 3.066437 1_455
O9 Si3 1.640499 1_555
O9 Sm0 2.362991 1_565
O9 Sm1 2.363412 1_565
O10 Si4 1.640490 1_555
O10 Sm0 2.362991 1_665
O10 Sm1 2.363412 1_665
O11 Si5 1.640492 1_555
O11 Sm0 2.362991 1_555
O11 Sm1 2.363412 1_555
O12 Si0 1.655467 1_545
O12 Sm7 2.389060 1_555
O12 Sm3 2.533094 1_555
O12 Sm1 2.763749 1_555
O13 Si1 1.655473 1_555
O13 Sm8 2.389062 1_555
O13 Sm4 2.533094 1_555
O13 Sm1 2.763746 1_665
O14 Si2 1.655468 1_655
O14 Sm6 2.389065 1_555
O14 Sm5 2.533094 1_555
O14 Sm1 2.763739 1_655
O15 Si3 1.655523 1_555
O15 Sm4 2.348712 1_456
O15 Sm6 2.499823 1_455
O15 Sm2 2.812038 1_556
O16 Si4 1.655528 1_555
O16 Sm5 2.348714 1_566
O16 Sm7 2.499822 1_565
O16 Sm2 2.812041 1_556
O17 Si5 1.655523 1_555
O17 Sm3 2.348717 1_556
O17 Sm8 2.499823 1_555
O17 Sm2 2.812047 1_556
O18 Si3 1.641060 1_555
O18 Sm4 2.334369 1_455
O18 Sm6 2.440483 1_455
O19 Si4 1.641065 1_555
O19 Sm5 2.334371 1_565
O19 Sm7 2.440483 1_565
O20 Si5 1.641059 1_555
O20 Sm3 2.334374 1_555
O20 Sm8 2.440483 1_555
O21 Si0 1.658301 1_545
O21 Sm7 2.423083 1_554
O21 Sm3 2.505156 1_555
O21 Sm0 2.742076 1_554
O22 Si1 1.658301 1_555
O22 Sm8 2.423083 1_554
O22 Sm4 2.505163 1_555
O22 Sm0 2.742076 1_664
O23 Si2 1.658301 1_655
O23 Sm6 2.423083 1_554
O23 Sm5 2.505157 1_555
O23 Sm0 2.742076 1_654
