# generated using pymatgen
data_HoNiPb
_symmetry_space_group_name_H-M   'P 1'
_cell_length_a   4.53055000
_cell_length_b   7.15935500
_cell_length_c   7.88692600
_cell_angle_alpha   90.00000000
_cell_angle_beta   90.00000000
_cell_angle_gamma   90.00000000
_symmetry_Int_Tables_number   1
_chemical_formula_structural   HoNiPb
_chemical_formula_sum   'Ho4 Ni4 Pb4'
_cell_volume   255.81887893
_cell_formula_units_Z   4
loop_
 _symmetry_equiv_pos_site_id
 _symmetry_equiv_pos_as_xyz
  1  'x, y, z'
loop_
 _atom_site_type_symbol
 _atom_site_label
 _atom_site_symmetry_multiplicity
 _atom_site_fract_x
 _atom_site_fract_y
 _atom_site_fract_z
 _atom_site_occupancy
  Ho  Ho0  1  0.75000000  0.98766600  0.29200000  1
  Ho  Ho1  1  0.25000000  0.01233400  0.70800000  1
  Ho  Ho2  1  0.25000000  0.51233400  0.79200000  1
  Ho  Ho3  1  0.75000000  0.48766600  0.20800000  1
  Ni  Ni0  1  0.75000000  0.70921200  0.59008900  1
  Ni  Ni1  1  0.25000000  0.29078800  0.40991100  1
  Ni  Ni2  1  0.25000000  0.79078800  0.09008900  1
  Ni  Ni3  1  0.75000000  0.20921200  0.90991100  1
  Pb  Pb0  1  0.75000000  0.80482800  0.91788300  1
  Pb  Pb1  1  0.25000000  0.19517200  0.08211700  1
  Pb  Pb2  1  0.25000000  0.69517200  0.41788300  1
  Pb  Pb3  1  0.75000000  0.30482800  0.58211700  1
loop_
_geom_bond_atom_site_label_1
_geom_bond_atom_site_label_2
_geom_bond_distance
_geom_bond_site_symmetry_2
Ho0 Ni0 3.082446 1_555
Ho0 Ni2 3.107111 1_655
Ho0 Ni2 3.107111 1_555
Ho0 Pb1 3.174686 1_565
Ho0 Pb1 3.174686 1_665
Ho0 Pb3 3.223587 1_565
Ho0 Pb0 3.227959 1_554
Ho0 Pb2 3.240726 1_655
Ho0 Pb2 3.240726 1_555
Ho0 Ni1 3.271983 1_665
Ho0 Ni1 3.271983 1_565
Ho0 Ni3 3.405441 1_564
Ho1 Ni1 3.082446 1_555
Ho1 Ni3 3.107111 1_455
Ho1 Ni3 3.107111 1_555
Ho1 Pb0 3.174686 1_545
Ho1 Pb0 3.174686 1_445
Ho1 Pb2 3.223587 1_545
Ho1 Pb1 3.227959 1_556
Ho1 Pb3 3.240726 1_455
Ho1 Pb3 3.240726 1_555
Ho1 Ni0 3.271983 1_545
Ho1 Ni0 3.271983 1_445
Ho1 Ni2 3.405441 1_546
Ho2 Ni2 3.082446 1_556
Ho2 Ni0 3.107111 1_455
Ho2 Ni0 3.107111 1_555
Ho2 Pb3 3.174686 1_555
Ho2 Pb3 3.174686 1_455
Ho2 Pb1 3.223587 1_556
Ho2 Pb2 3.227959 1_555
Ho2 Pb0 3.240726 1_555
Ho2 Pb0 3.240726 1_455
Ho2 Ni3 3.271983 1_555
Ho2 Ni3 3.271983 1_455
Ho2 Ni1 3.405441 1_555
Ho3 Ni3 3.082446 1_554
Ho3 Ni1 3.107111 1_655
Ho3 Ni1 3.107111 1_555
Ho3 Pb2 3.174686 1_655
Ho3 Pb2 3.174686 1_555
Ho3 Pb0 3.223587 1_554
Ho3 Pb3 3.227959 1_555
Ho3 Pb1 3.240726 1_655
Ho3 Pb1 3.240726 1_555
Ho3 Ni2 3.271983 1_655
Ho3 Ni2 3.271983 1_555
Ho3 Ni0 3.405441 1_555
Ni0 Pb2 2.643145 1_655
Ni0 Pb2 2.643145 1_555
Ni0 Pb0 2.674381 1_555
Ni0 Pb3 2.895811 1_555
Ni1 Pb3 2.643145 1_455
Ni1 Pb3 2.643145 1_555
Ni1 Pb1 2.674381 1_555
Ni1 Pb2 2.895811 1_555
Ni2 Pb0 2.643145 1_554
Ni2 Pb0 2.643145 1_454
Ni2 Pb2 2.674381 1_555
Ni2 Pb1 2.895811 1_565
Ni3 Pb1 2.643145 1_556
Ni3 Pb1 2.643145 1_656
Ni3 Pb3 2.674381 1_555
Ni3 Pb0 2.895811 1_545
