# generated using pymatgen
data_Sr6Fe5Ag3(Se2O5)2
_symmetry_space_group_name_H-M   'P 1'
_cell_length_a   14.69295988
_cell_length_b   14.69295988
_cell_length_c   5.73032900
_cell_angle_alpha   90.00000000
_cell_angle_beta   90.00000000
_cell_angle_gamma   157.51792543
_symmetry_Int_Tables_number   1
_chemical_formula_structural   Sr6Fe5Ag3(Se2O5)2
_chemical_formula_sum   'Sr6 Fe5 Ag3 Se4 O10'
_cell_volume   473.05281728
_cell_formula_units_Z   1
loop_
 _symmetry_equiv_pos_site_id
 _symmetry_equiv_pos_as_xyz
  1  'x, y, z'
loop_
 _atom_site_type_symbol
 _atom_site_label
 _atom_site_symmetry_multiplicity
 _atom_site_fract_x
 _atom_site_fract_y
 _atom_site_fract_z
 _atom_site_occupancy
  Sr  Sr0  1  0.50000000  0.00000000  0.75214900  1
  Sr  Sr1  1  0.00000000  0.50000000  0.24785100  1
  Sr  Sr2  1  0.13014400  0.37381900  0.25125600  1
  Sr  Sr3  1  0.62618100  0.86985600  0.74874400  1
  Sr  Sr4  1  0.37381900  0.13014400  0.74874400  1
  Sr  Sr5  1  0.86985600  0.62618100  0.25125600  1
  Fe  Fe0  1  0.06633900  0.43194700  0.75000500  1
  Fe  Fe1  1  0.56805300  0.93366100  0.24999500  1
  Fe  Fe2  1  0.43194700  0.06633900  0.24999500  1
  Fe  Fe3  1  0.93366100  0.56805300  0.75000500  1
  Fe  Fe4  1  0.00000000  0.00000000  0.00000000  1
  Ag  Ag0  1  0.50000000  0.50000000  0.50000000  1
  Ag  Ag1  1  0.50000000  0.50000000  0.00000000  1
  Ag  Ag2  1  0.00000000  0.00000000  0.50000000  1
  Se  Se0  1  0.17370900  0.29884600  0.76320800  1
  Se  Se1  1  0.70115400  0.82629100  0.23679200  1
  Se  Se2  1  0.29884600  0.17370900  0.23679200  1
  Se  Se3  1  0.82629100  0.70115400  0.76320800  1
  O  O0  1  0.50000000  0.00000000  0.24720500  1
  O  O1  1  0.00000000  0.50000000  0.75279500  1
  O  O2  1  0.32771100  0.67228900  0.50000000  1
  O  O3  1  0.82760500  0.17239500  0.00000000  1
  O  O4  1  0.82788600  0.17211400  0.50000000  1
  O  O5  1  0.32772700  0.67227300  0.00000000  1
  O  O6  1  0.17211400  0.82788600  0.50000000  1
  O  O7  1  0.67227300  0.32772700  0.00000000  1
  O  O8  1  0.67228900  0.32771100  0.50000000  1
  O  O9  1  0.17239500  0.82760500  0.00000000  1
loop_
_geom_bond_atom_site_label_1
_geom_bond_atom_site_label_2
_geom_bond_distance
_geom_bond_site_symmetry_2
Fe0 O1 1.936807 1_555
Fe0 O3 2.044282 1_456
Fe0 O4 2.045526 1_455
Fe0 O2 2.051638 1_555
Fe0 O5 2.051666 1_556
Fe1 O0 1.936807 1_565
Fe1 O3 2.044282 1_565
Fe1 O4 2.045526 1_565
Fe1 O2 2.051638 1_555
Fe1 O5 2.051666 1_555
Fe2 O0 1.936807 1_555
Fe2 O9 2.044282 1_545
Fe2 O6 2.045526 1_545
Fe2 O8 2.051638 1_555
Fe2 O7 2.051666 1_555
Fe3 O1 1.936807 1_655
Fe3 O9 2.044282 1_656
Fe3 O6 2.045526 1_655
Fe3 O8 2.051638 1_555
Fe3 O7 2.051666 1_556
Fe4 Se3 2.631580 1_444
Fe4 Se1 2.631580 1_445
Fe4 Se0 2.631580 1_554
Fe4 Se2 2.631580 1_555
Ag0 Se3 2.794498 1_555
Ag0 Se1 2.794498 1_555
Ag0 Se0 2.794498 1_555
Ag0 Se2 2.794498 1_555
Ag1 Se3 2.715790 1_554
Ag1 Se1 2.715790 1_555
Ag1 Se0 2.715790 1_554
Ag1 Se2 2.715790 1_555
Ag1 Fe4 2.864200 1_555
Ag1 Fe4 2.864200 1_665
Ag2 Se1 2.712733 1_445
Ag2 Se3 2.712733 1_445
Ag2 Se0 2.712733 1_555
Ag2 Se2 2.712733 1_555
Ag2 Fe4 2.865165 1_555
Ag2 Fe4 2.865165 1_556
Se0 Sr2 3.278360 1_556
Se0 Sr3 3.278401 1_445
Se0 Sr3 3.393887 1_555
Se0 Sr2 3.395964 1_555
Se1 Sr3 3.278360 1_554
Se1 Sr2 3.278401 1_665
Se1 Sr2 3.393887 1_555
Se1 Sr3 3.395964 1_555
Se2 Sr4 3.278360 1_554
Se2 Sr5 3.278401 1_445
Se2 Sr5 3.393887 1_555
Se2 Sr4 3.395964 1_555
Se3 Sr5 3.278360 1_556
Se3 Sr4 3.278401 1_665
Se3 Sr4 3.393887 1_555
Se3 Sr5 3.395964 1_555
O0 Sr0 2.836834 1_554
O0 Sr1 2.864202 1_655
O0 Sr1 2.864202 1_545
O0 Sr0 2.893495 1_555
O1 Sr1 2.836834 1_556
O1 Sr0 2.864202 1_565
O1 Sr0 2.864202 1_455
O1 Sr1 2.893495 1_555
O2 Sr2 2.482886 1_555
O2 Sr3 2.482886 1_555
O2 Sr0 3.025779 1_565
O2 Sr1 3.025779 1_555
O3 Sr3 2.505969 1_544
O3 Sr2 2.505969 1_655
O3 Sr0 3.011826 1_554
O3 Sr1 3.011826 1_655
O4 Sr3 2.493010 1_545
O4 Sr2 2.493010 1_655
O4 Sr0 3.029515 1_555
O4 Sr1 3.029515 1_655
O5 Sr2 2.490908 1_555
O5 Sr3 2.490908 1_554
O5 Sr0 3.014439 1_564
O5 Sr1 3.014439 1_555
O6 Sr4 2.493010 1_565
O6 Sr5 2.493010 1_455
O6 Sr0 3.029515 1_565
O6 Sr1 3.029515 1_555
O7 Sr5 2.490908 1_555
O7 Sr4 2.490908 1_554
O7 Sr0 3.014439 1_554
O7 Sr1 3.014439 1_655
O8 Sr4 2.482886 1_555
O8 Sr5 2.482886 1_555
O8 Sr0 3.025779 1_555
O8 Sr1 3.025779 1_655
O9 Sr5 2.505969 1_455
O9 Sr4 2.505969 1_564
O9 Sr1 3.011826 1_555
O9 Sr0 3.011826 1_564
