# generated using pymatgen
data_MgAg20(BiO4)4
_symmetry_space_group_name_H-M   'P 1'
_cell_length_a   6.09014315
_cell_length_b   8.99879389
_cell_length_c   13.50375975
_cell_angle_alpha   84.87861308
_cell_angle_beta   86.06348324
_cell_angle_gamma   85.79789235
_symmetry_Int_Tables_number   1
_chemical_formula_structural   MgAg20(BiO4)4
_chemical_formula_sum   'Mg1 Ag20 Bi4 O16'
_cell_volume   733.68488143
_cell_formula_units_Z   1
loop_
 _symmetry_equiv_pos_site_id
 _symmetry_equiv_pos_as_xyz
  1  'x, y, z'
loop_
 _atom_site_type_symbol
 _atom_site_label
 _atom_site_symmetry_multiplicity
 _atom_site_fract_x
 _atom_site_fract_y
 _atom_site_fract_z
 _atom_site_occupancy
  Mg  Mg0  1  0.75054126  0.05078715  0.03685285  1
  Ag  Ag0  1  0.21415056  0.74444519  0.12358519  1
  Ag  Ag1  1  0.73539418  0.75342398  0.62007335  1
  Ag  Ag2  1  0.00609883  0.50341955  0.99937456  1
  Ag  Ag3  1  0.50259218  0.00311042  0.50123745  1
  Ag  Ag4  1  0.00263244  0.12875829  0.64559911  1
  Ag  Ag5  1  0.42090866  0.60015298  0.82232109  1
  Ag  Ag6  1  0.01583765  0.87705724  0.35506812  1
  Ag  Ag7  1  0.58182085  0.39025152  0.17535058  1
  Ag  Ag8  1  0.59040663  0.01958174  0.26991713  1
  Ag  Ag9  1  0.99995985  0.51400854  0.25497152  1
  Ag  Ag10  1  0.43158113  0.98298396  0.73720727  1
  Ag  Ag11  1  0.01116225  0.49488224  0.74182934  1
  Ag  Ag12  1  0.40625157  0.95237761  0.97030723  1
  Ag  Ag13  1  0.00401878  0.50409012  0.49827181  1
  Ag  Ag14  1  0.26517923  0.24655076  0.87872141  1
  Ag  Ag15  1  0.22634115  0.75917866  0.61901078  1
  Ag  Ag16  1  0.70578018  0.73305185  0.11831460  1
  Ag  Ag17  1  0.79160421  0.24982392  0.37765543  1
  Ag  Ag18  1  0.75675861  0.28368160  0.87381359  1
  Ag  Ag19  1  0.28195867  0.25463559  0.37709909  1
  Bi  Bi0  1  0.50841847  0.36456185  0.61353041  1
  Bi  Bi1  1  0.92963682  0.85038509  0.85740181  1
  Bi  Bi2  1  0.50167763  0.64074307  0.38336418  1
  Bi  Bi3  1  0.11478353  0.15858464  0.14202026  1
  O  O0  1  0.14618599  0.39215815  0.13208647  1
  O  O1  1  0.41708726  0.88389839  0.38055736  1
  O  O2  1  0.87333294  0.61899214  0.86670580  1
  O  O3  1  0.58982936  0.12233838  0.62089140  1
  O  O4  1  0.95503149  0.88298501  0.68734504  1
  O  O5  1  0.49975862  0.37516219  0.78471342  1
  O  O6  1  0.98540586  0.17916365  0.97471848  1
  O  O7  1  0.49979917  0.63491945  0.55485594  1
  O  O8  1  0.95461402  0.86221647  0.04033224  1
  O  O9  1  0.51638932  0.37393327  0.44045709  1
  O  O10  1  0.74428231  0.16579362  0.15602048  1
  O  O11  1  0.86298853  0.65117631  0.37550928  1
  O  O12  1  0.28552755  0.82028554  0.84678226  1
  O  O13  1  0.14625686  0.35641758  0.62005265  1
  O  O14  1  0.06374334  0.12454486  0.31092547  1
  O  O15  1  0.46468906  0.61691644  0.20994046  1
loop_
_geom_bond_atom_site_label_1
_geom_bond_atom_site_label_2
_geom_bond_distance
_geom_bond_site_symmetry_2
Mg0 O10 1.986252 1_555
Mg0 O6 1.997203 1_554
Mg0 O8 2.027573 1_545
Ag0 O8 2.161292 1_455
Ag0 O15 2.180301 1_555
Ag1 O7 2.129993 1_555
Ag1 O4 2.135004 1_555
Ag2 O2 2.165175 1_455
Ag2 O0 2.169417 1_556
Ag3 O3 2.134254 1_555
Ag3 O1 2.142008 1_545
Ag4 O4 2.267645 1_445
Ag4 O13 2.275105 1_555
Ag4 O3 2.564157 1_455
Ag5 O12 2.133786 1_555
Ag5 O5 2.143664 1_555
Ag6 O11 2.283911 1_455
Ag6 O14 2.287949 1_565
Ag6 O1 2.497016 1_555
Ag7 O15 2.190565 1_555
Ag7 O10 2.211937 1_555
Ag7 O0 2.754052 1_555
Ag8 O1 2.117509 1_545
Ag8 O10 2.143924 1_555
Ag9 O0 2.174367 1_655
Ag9 O11 2.211397 1_555
Ag10 O3 2.141521 1_565
Ag10 O12 2.178888 1_555
Ag11 O2 2.190898 1_455
Ag11 O13 2.227884 1_555
Ag12 O12 2.320849 1_555
Ag12 Mg0 2.580910 1_566
Ag13 O13 2.203955 1_555
Ag13 O11 2.207923 1_455
Ag14 O6 2.158500 1_455
Ag14 O5 2.173234 1_555
Ag15 O7 2.115740 1_555
Ag15 O4 2.127746 1_455
Ag16 O15 2.126856 1_555
Ag16 O8 2.139385 1_555
Ag17 O9 2.115520 1_555
Ag17 O14 2.128916 1_655
Ag18 O5 2.113764 1_555
Ag18 O6 2.126052 1_555
Ag19 O9 2.116404 1_555
Ag19 O14 2.124360 1_555
Bi0 O3 2.194672 1_555
Bi0 O13 2.207654 1_555
Bi0 O5 2.318908 1_555
Bi0 O9 2.328418 1_555
Bi0 O7 2.488443 1_555
Bi1 O2 2.126306 1_555
Bi1 O12 2.160992 1_655
Bi1 O4 2.284966 1_555
Bi1 O8 2.497503 1_556
Bi2 O11 2.204185 1_555
Bi2 O1 2.208464 1_555
Bi2 O7 2.310955 1_555
Bi2 O15 2.397966 1_555
Bi2 O9 2.452457 1_555
Bi3 O0 2.116015 1_555
Bi3 O10 2.247995 1_455
Bi3 O14 2.276978 1_555
Bi3 O6 2.430526 1_454
