# generated using pymatgen
data_La5Rh4
_symmetry_space_group_name_H-M   'P 1'
_cell_length_a   7.64637200
_cell_length_b   7.72425600
_cell_length_c   15.42701300
_cell_angle_alpha   90.00000000
_cell_angle_beta   90.00000000
_cell_angle_gamma   90.00000000
_symmetry_Int_Tables_number   1
_chemical_formula_structural   La5Rh4
_chemical_formula_sum   'La20 Rh16'
_cell_volume   911.15849216
_cell_formula_units_Z   4
loop_
 _symmetry_equiv_pos_site_id
 _symmetry_equiv_pos_as_xyz
  1  'x, y, z'
loop_
 _atom_site_type_symbol
 _atom_site_label
 _atom_site_symmetry_multiplicity
 _atom_site_fract_x
 _atom_site_fract_y
 _atom_site_fract_z
 _atom_site_occupancy
  La  La0  1  0.33938700  0.83543100  0.87796100  1
  La  La1  1  0.83938700  0.66456900  0.62203900  1
  La  La2  1  0.66061300  0.16456900  0.37796100  1
  La  La3  1  0.16061300  0.33543100  0.12203900  1
  La  La4  1  0.66061300  0.16456900  0.12203900  1
  La  La5  1  0.16061300  0.33543100  0.37796100  1
  La  La6  1  0.33938700  0.83543100  0.62203900  1
  La  La7  1  0.83938700  0.66456900  0.87796100  1
  La  La8  1  0.49610300  0.31799400  0.90945400  1
  La  La9  1  0.99610300  0.18200600  0.59054600  1
  La  La10  1  0.50389700  0.68200600  0.40945400  1
  La  La11  1  0.00389700  0.81799400  0.09054600  1
  La  La12  1  0.50389700  0.68200600  0.09054600  1
  La  La13  1  0.00389700  0.81799400  0.40945400  1
  La  La14  1  0.49610300  0.31799400  0.59054600  1
  La  La15  1  0.99610300  0.18200600  0.90945400  1
  La  La16  1  0.18556000  0.47564100  0.75000000  1
  La  La17  1  0.68556000  0.02435900  0.75000000  1
  La  La18  1  0.81444000  0.52435900  0.25000000  1
  La  La19  1  0.31444000  0.97564100  0.25000000  1
  Rh  Rh0  1  0.31253500  0.02920700  0.04115900  1
  Rh  Rh1  1  0.81253500  0.47079300  0.45884100  1
  Rh  Rh2  1  0.68746500  0.97079300  0.54115900  1
  Rh  Rh3  1  0.18746500  0.52920700  0.95884100  1
  Rh  Rh4  1  0.68746500  0.97079300  0.95884100  1
  Rh  Rh5  1  0.18746500  0.52920700  0.54115900  1
  Rh  Rh6  1  0.31253500  0.02920700  0.45884100  1
  Rh  Rh7  1  0.81253500  0.47079300  0.04115900  1
  Rh  Rh8  1  0.53016800  0.61032400  0.75000000  1
  Rh  Rh9  1  0.03016800  0.88967600  0.75000000  1
  Rh  Rh10  1  0.46983200  0.38967600  0.25000000  1
  Rh  Rh11  1  0.96983200  0.11032400  0.25000000  1
  Rh  Rh12  1  0.30105200  0.13864600  0.75000000  1
  Rh  Rh13  1  0.80105200  0.36135400  0.75000000  1
  Rh  Rh14  1  0.69894800  0.86135400  0.25000000  1
  Rh  Rh15  1  0.19894800  0.63864600  0.25000000  1
loop_
_geom_bond_atom_site_label_1
_geom_bond_atom_site_label_2
_geom_bond_distance
_geom_bond_site_symmetry_2
La0 Rh3 2.915678 1_555
La0 Rh0 2.936170 1_566
La0 Rh8 3.008041 1_555
La0 Rh12 3.077060 1_565
La0 Rh9 3.108515 1_555
La0 Rh4 3.119908 1_555
La0 La16 3.606084 1_555
La0 La17 3.610121 1_565
La1 Rh2 2.915678 1_555
La1 Rh1 2.936170 1_555
La1 Rh9 3.008041 1_655
La1 Rh13 3.077060 1_555
La1 Rh8 3.108515 1_555
La1 Rh5 3.119908 1_655
La1 La17 3.606084 1_565
La1 La16 3.610121 1_655
La2 Rh1 2.915678 1_555
La2 Rh2 2.936170 1_545
La2 Rh10 3.008041 1_555
La2 Rh14 3.077060 1_545
La2 Rh11 3.108515 1_555
La2 Rh6 3.119908 1_555
La3 Rh0 2.915678 1_555
La3 Rh3 2.936170 1_554
La3 Rh11 3.008041 1_455
La3 Rh15 3.077060 1_555
La3 Rh10 3.108515 1_555
La3 Rh7 3.119908 1_455
La4 Rh7 2.915678 1_555
La4 Rh4 2.936170 1_544
La4 Rh10 3.008041 1_555
La4 Rh14 3.077060 1_545
La4 Rh11 3.108515 1_555
La4 Rh0 3.119908 1_555
La5 Rh6 2.915678 1_555
La5 Rh5 2.936170 1_555
La5 Rh11 3.008041 1_455
La5 Rh15 3.077060 1_555
La5 Rh10 3.108515 1_555
La5 Rh1 3.119908 1_455
La6 Rh5 2.915678 1_555
La6 Rh6 2.936170 1_565
La6 Rh8 3.008041 1_555
La6 Rh12 3.077060 1_565
La6 Rh9 3.108515 1_555
La6 Rh2 3.119908 1_555
La7 Rh4 2.915678 1_555
La7 Rh7 2.936170 1_556
La7 Rh9 3.008041 1_655
La7 Rh13 3.077060 1_555
La7 Rh8 3.108515 1_555
La7 Rh3 3.119908 1_655
La8 Rh3 2.968429 1_555
La8 Rh4 3.148640 1_545
La8 Rh12 3.192900 1_555
La8 Rh0 3.327809 1_556
La8 Rh8 3.349277 1_555
La8 Rh7 3.372764 1_556
La8 Rh13 3.405929 1_555
La9 Rh2 2.968429 1_545
La9 Rh5 3.148640 1_655
La9 Rh13 3.192900 1_555
La9 Rh1 3.327809 1_555
La9 Rh9 3.349277 1_645
La9 Rh6 3.372764 1_655
La9 Rh12 3.405929 1_655
La10 Rh1 2.968429 1_555
La10 Rh6 3.148640 1_565
La10 Rh14 3.192900 1_555
La10 Rh2 3.327809 1_555
La10 Rh10 3.349277 1_555
La10 Rh5 3.372764 1_555
La10 Rh15 3.405929 1_555
La10 La18 3.629365 1_555
La10 La19 3.646100 1_555
La11 Rh0 2.968429 1_565
La11 Rh7 3.148640 1_455
La11 Rh15 3.192900 1_555
La11 Rh3 3.327809 1_554
La11 Rh11 3.349277 1_465
La11 Rh4 3.372764 1_454
La11 Rh14 3.405929 1_455
La11 La19 3.629365 1_555
La11 La18 3.646100 1_455
La12 Rh7 2.968429 1_555
La12 Rh0 3.148640 1_565
La12 Rh14 3.192900 1_555
La12 Rh4 3.327809 1_554
La12 Rh10 3.349277 1_555
La12 Rh3 3.372764 1_554
La12 Rh15 3.405929 1_555
La12 La18 3.629365 1_555
La12 La19 3.646100 1_555
La13 Rh6 2.968429 1_565
La13 Rh1 3.148640 1_455
La13 Rh15 3.192900 1_555
La13 Rh5 3.327809 1_555
La13 Rh11 3.349277 1_465
La13 Rh2 3.372764 1_455
La13 Rh14 3.405929 1_455
La13 La19 3.629365 1_555
La13 La18 3.646100 1_455
La14 Rh5 2.968429 1_555
La14 Rh2 3.148640 1_545
La14 Rh12 3.192900 1_555
La14 Rh6 3.327809 1_555
La14 Rh8 3.349277 1_555
La14 Rh1 3.372764 1_555
La14 Rh13 3.405929 1_555
La14 La16 3.629365 1_555
La14 La17 3.646100 1_555
La15 Rh4 2.968429 1_545
La15 Rh3 3.148640 1_655
La15 Rh13 3.192900 1_555
La15 Rh7 3.327809 1_556
La15 Rh9 3.349277 1_645
La15 Rh0 3.372764 1_656
La15 Rh12 3.405929 1_655
La15 La17 3.629365 1_555
La15 La16 3.646100 1_655
La16 Rh12 2.748754 1_555
La16 Rh8 2.832933 1_555
La16 Rh13 3.069762 1_455
La16 Rh3 3.248285 1_555
La16 Rh5 3.248285 1_555
La16 Rh9 3.411701 1_555
La16 La6 3.606084 1_555
La16 La7 3.610121 1_455
La16 La8 3.629365 1_555
La16 La9 3.646100 1_455
La17 Rh13 2.748754 1_555
La17 Rh9 2.832933 1_645
La17 Rh12 3.069762 1_555
La17 Rh4 3.248285 1_545
La17 Rh2 3.248285 1_545
La17 Rh8 3.411701 1_545
La17 La7 3.606084 1_545
La17 La6 3.610121 1_545
La17 La9 3.629365 1_555
La17 La8 3.646100 1_555
La18 Rh14 2.748754 1_555
La18 Rh10 2.832933 1_555
La18 Rh15 3.069762 1_655
La18 Rh7 3.248285 1_555
La18 Rh1 3.248285 1_555
La18 Rh11 3.411701 1_555
La18 La2 3.606084 1_555
La18 La4 3.606084 1_555
La18 La5 3.610121 1_655
La18 La3 3.610121 1_655
La19 Rh15 2.748754 1_555
La19 Rh11 2.832933 1_465
La19 Rh14 3.069762 1_555
La19 Rh6 3.248285 1_565
La19 Rh0 3.248285 1_565
La19 Rh10 3.411701 1_565
La19 La3 3.606084 1_565
La19 La5 3.606084 1_565
La19 La4 3.610121 1_565
La19 La2 3.610121 1_565
Rh0 Rh4 3.167829 1_544
Rh1 Rh5 3.167829 1_655
Rh2 Rh6 3.167829 1_565
Rh3 Rh7 3.167829 1_456
Rh10 Rh15 2.826401 1_555
Rh11 Rh14 2.826401 1_545
Rh12 Rh9 2.826401 1_545
Rh13 Rh8 2.826401 1_555
