# generated using pymatgen
data_Ce2Co17H3
_symmetry_space_group_name_H-M   'P 1'
_cell_length_a   8.41190935
_cell_length_b   8.41190935
_cell_length_c   8.06215300
_cell_angle_alpha   90.00000000
_cell_angle_beta   90.00000000
_cell_angle_gamma   119.99999486
_symmetry_Int_Tables_number   1
_chemical_formula_structural   Ce2Co17H3
_chemical_formula_sum   'Ce4 Co34 H6'
_cell_volume   494.04994742
_cell_formula_units_Z   2
loop_
 _symmetry_equiv_pos_site_id
 _symmetry_equiv_pos_as_xyz
  1  'x, y, z'
loop_
 _atom_site_type_symbol
 _atom_site_label
 _atom_site_symmetry_multiplicity
 _atom_site_fract_x
 _atom_site_fract_y
 _atom_site_fract_z
 _atom_site_occupancy
  Ce  Ce0  1  0.33333300  0.66666700  0.25000000  1
  Ce  Ce1  1  0.66666700  0.33333300  0.75000000  1
  Ce  Ce2  1  0.00000000  0.00000000  0.25000000  1
  Ce  Ce3  1  0.00000000  0.00000000  0.75000000  1
  Co  Co0  1  0.38134100  0.05312800  0.25000000  1
  Co  Co1  1  0.61865900  0.94687200  0.75000000  1
  Co  Co2  1  0.94687200  0.32821300  0.25000000  1
  Co  Co3  1  0.05312800  0.38134100  0.75000000  1
  Co  Co4  1  0.05312800  0.67178700  0.75000000  1
  Co  Co5  1  0.94687200  0.61865900  0.25000000  1
  Co  Co6  1  0.67178700  0.61865900  0.25000000  1
  Co  Co7  1  0.32821300  0.94687200  0.75000000  1
  Co  Co8  1  0.32821300  0.38134100  0.75000000  1
  Co  Co9  1  0.67178700  0.05312800  0.25000000  1
  Co  Co10  1  0.61865900  0.67178700  0.75000000  1
  Co  Co11  1  0.38134100  0.32821300  0.25000000  1
  Co  Co12  1  0.33333300  0.66666700  0.60566500  1
  Co  Co13  1  0.66666700  0.33333300  0.39433500  1
  Co  Co14  1  0.66666700  0.33333300  0.10566500  1
  Co  Co15  1  0.33333300  0.66666700  0.89433500  1
  Co  Co16  1  0.16831800  0.33663500  0.02458700  1
  Co  Co17  1  0.83168200  0.66336500  0.97541300  1
  Co  Co18  1  0.66336500  0.83168200  0.02458700  1
  Co  Co19  1  0.83168200  0.66336500  0.52458700  1
  Co  Co20  1  0.33663500  0.16831800  0.97541300  1
  Co  Co21  1  0.16831800  0.33663500  0.47541300  1
  Co  Co22  1  0.16831800  0.83168200  0.02458700  1
  Co  Co23  1  0.33663500  0.16831800  0.52458700  1
  Co  Co24  1  0.83168200  0.16831800  0.97541300  1
  Co  Co25  1  0.66336500  0.83168200  0.47541300  1
  Co  Co26  1  0.83168200  0.16831800  0.52458700  1
  Co  Co27  1  0.16831800  0.83168200  0.47541300  1
  Co  Co28  1  0.50000000  0.00000000  0.00000000  1
  Co  Co29  1  0.00000000  0.50000000  0.00000000  1
  Co  Co30  1  0.50000000  0.00000000  0.50000000  1
  Co  Co31  1  0.50000000  0.50000000  0.00000000  1
  Co  Co32  1  0.00000000  0.50000000  0.50000000  1
  Co  Co33  1  0.50000000  0.50000000  0.50000000  1
  H  H0  1  0.16500700  0.33001500  0.25000000  1
  H  H1  1  0.83499300  0.66998500  0.75000000  1
  H  H2  1  0.66998500  0.83499300  0.25000000  1
  H  H3  1  0.33001500  0.16500700  0.75000000  1
  H  H4  1  0.16500700  0.83499300  0.25000000  1
  H  H5  1  0.83499300  0.16500700  0.75000000  1
loop_
_geom_bond_atom_site_label_1
_geom_bond_atom_site_label_2
_geom_bond_distance
_geom_bond_site_symmetry_2
Ce0 H4 2.452485 1_555
Ce0 H2 2.452485 1_555
Ce0 H0 2.452485 1_555
Ce0 Co15 2.867426 1_554
Ce0 Co12 2.867426 1_555
Ce0 Co28 3.155799 1_565
Ce0 Co30 3.155799 1_565
Ce0 Co32 3.155799 1_555
Ce0 Co29 3.155799 1_555
Ce0 Co31 3.155805 1_555
Ce0 Co33 3.155805 1_555
Ce1 H5 2.452485 1_555
Ce1 H1 2.452485 1_555
Ce1 H3 2.452485 1_555
Ce1 Co14 2.867426 1_556
Ce1 Co13 2.867426 1_555
Ce1 Co30 3.155799 1_555
Ce1 Co28 3.155799 1_556
Ce1 Co29 3.155799 1_656
Ce1 Co32 3.155799 1_655
Ce1 Co31 3.155805 1_556
Ce1 Co33 3.155805 1_555
Ce2 H4 2.404128 1_545
Ce2 H0 2.404135 1_555
Ce2 H2 2.404135 1_445
Ce3 H5 2.404128 1_455
Ce3 H3 2.404135 1_555
Ce3 H1 2.404135 1_445
Co0 H4 1.827404 1_545
Co0 Co30 2.388410 1_555
Co0 Co28 2.388410 1_555
Co0 Co13 2.648245 1_555
Co0 Co14 2.648245 1_555
Co1 H5 1.827404 1_565
Co1 Co30 2.388410 1_565
Co1 Co28 2.388410 1_566
Co1 Co15 2.648245 1_555
Co1 Co12 2.648245 1_555
Co2 H0 1.827400 1_655
Co2 Co29 2.388410 1_655
Co2 Co32 2.388410 1_655
Co3 H5 1.827404 1_455
Co3 Co32 2.388410 1_555
Co4 H1 1.827400 1_455
Co5 H4 1.827404 1_655
Co6 H2 1.827408 1_555
Co7 H3 1.827400 1_565
Co8 H3 1.827408 1_555
Co9 H2 1.827400 1_545
Co10 H1 1.827408 1_555
Co10 Co31 2.388410 1_556
Co10 Co33 2.388410 1_555
Co10 Co15 2.648249 1_555
Co10 Co12 2.648249 1_555
Co11 H0 1.827408 1_555
Co11 Co33 2.388410 1_555
Co11 Co31 2.388410 1_555
Co11 Co14 2.648249 1_555
Co11 Co13 2.648249 1_555
Co12 Co15 2.327302 1_555
Co12 Co30 2.573400 1_565
Co12 Co32 2.573400 1_555
Co12 Co33 2.573406 1_555
Co12 Co27 2.623571 1_555
Co12 Co25 2.623585 1_555
Co12 Co21 2.623585 1_555
Co12 Co7 2.648241 1_555
Co12 Co4 2.648241 1_555
Co12 Co3 2.648245 1_555
Co12 Co8 2.648249 1_555
Co13 Co14 2.327302 1_555
Co13 Co30 2.573400 1_555
Co13 Co32 2.573400 1_655
Co13 Co33 2.573406 1_555
Co13 Co26 2.623571 1_555
Co13 Co19 2.623585 1_555
Co13 Co23 2.623585 1_555
Co13 Co2 2.648241 1_555
Co13 Co9 2.648241 1_555
Co13 Co5 2.648245 1_555
Co13 Co6 2.648249 1_555
Co14 Co28 2.573400 1_555
Co14 Co29 2.573400 1_655
Co14 Co31 2.573406 1_555
Co14 Co24 2.623571 1_554
Co14 Co17 2.623585 1_554
Co14 Co20 2.623585 1_554
Co14 Co2 2.648241 1_555
Co14 Co9 2.648241 1_555
Co14 Co5 2.648245 1_555
Co14 Co6 2.648249 1_555
Co15 Co28 2.573400 1_566
Co15 Co29 2.573400 1_556
Co15 Co31 2.573406 1_556
Co15 Co22 2.623571 1_556
Co15 Co18 2.623585 1_556
Co15 Co16 2.623585 1_556
Co15 Co7 2.648241 1_555
Co15 Co4 2.648241 1_555
Co15 Co3 2.648245 1_555
Co15 Co8 2.648249 1_555
Co16 H0 1.817954 1_555
Co16 Co31 2.424486 1_555
Co16 Co29 2.424493 1_555
Co17 H1 1.817954 1_555
Co17 Co31 2.424486 1_556
Co17 Co29 2.424493 1_656
Co18 H2 1.817954 1_555
Co18 Co31 2.424486 1_555
Co18 Co28 2.424493 1_565
Co19 H1 1.817954 1_555
Co19 Co33 2.424486 1_555
Co19 Co32 2.424493 1_655
Co20 H3 1.817954 1_555
Co20 Co31 2.424486 1_556
Co20 Co28 2.424493 1_556
Co21 H0 1.817954 1_555
Co21 Co33 2.424486 1_555
Co21 Co32 2.424493 1_555
Co22 H4 1.817954 1_555
Co22 Co29 2.424486 1_555
Co22 Co28 2.424486 1_565
Co23 H3 1.817954 1_555
Co23 Co33 2.424486 1_555
Co23 Co30 2.424493 1_555
Co24 H5 1.817954 1_555
Co24 Co28 2.424486 1_556
Co24 Co29 2.424486 1_656
Co25 H2 1.817954 1_555
Co25 Co33 2.424486 1_555
Co25 Co30 2.424493 1_565
Co26 H5 1.817954 1_555
Co26 Co30 2.424486 1_555
Co26 Co32 2.424486 1_655
Co27 H4 1.817954 1_555
Co27 Co32 2.424486 1_555
Co27 Co30 2.424486 1_565
Co28 Co7 2.388410 1_544
Co28 Co9 2.388410 1_555
Co29 Co3 2.388410 1_554
Co29 Co5 2.388410 1_455
Co29 Co4 2.388410 1_554
Co30 Co7 2.388410 1_545
Co30 Co9 2.388410 1_555
Co31 Co6 2.388410 1_555
Co31 Co8 2.388410 1_554
Co32 Co5 2.388410 1_455
Co32 Co4 2.388410 1_555
Co33 Co6 2.388410 1_555
Co33 Co8 2.388410 1_555
