# generated using pymatgen
data_Rb18Mg6B29O58F
_symmetry_space_group_name_H-M   'P 1'
_cell_length_a   11.20163491
_cell_length_b   11.47046872
_cell_length_c   31.50295496
_cell_angle_alpha   90.11183702
_cell_angle_beta   90.22904253
_cell_angle_gamma   60.77230686
_symmetry_Int_Tables_number   1
_chemical_formula_structural   Rb18Mg6B29O58F
_chemical_formula_sum   'Rb36 Mg12 B58 O116 F2'
_cell_volume   3532.38878203
_cell_formula_units_Z   2
loop_
 _symmetry_equiv_pos_site_id
 _symmetry_equiv_pos_as_xyz
  1  'x, y, z'
loop_
 _atom_site_type_symbol
 _atom_site_label
 _atom_site_symmetry_multiplicity
 _atom_site_fract_x
 _atom_site_fract_y
 _atom_site_fract_z
 _atom_site_occupancy
  Rb  Rb0  1  0.50649865  0.67269132  0.26901560  1
  Rb  Rb1  1  0.82081002  0.67269132  0.23098440  1
  Rb  Rb2  1  0.49350135  0.32730868  0.73098440  1
  Rb  Rb3  1  0.17918998  0.32730868  0.76901560  1
  Rb  Rb4  1  0.16414675  0.98455972  0.23359689  1
  Rb  Rb5  1  0.85129354  0.98455972  0.26640311  1
  Rb  Rb6  1  0.83585325  0.01544028  0.76640311  1
  Rb  Rb7  1  0.14870646  0.01544028  0.73359689  1
  Rb  Rb8  1  0.49808229  0.36223050  0.22967841  1
  Rb  Rb9  1  0.13968721  0.36223050  0.27032159  1
  Rb  Rb10  1  0.50191771  0.63776950  0.77032159  1
  Rb  Rb11  1  0.86031279  0.63776950  0.72967841  1
  Rb  Rb12  1  0.51874226  0.74745641  0.38000960  1
  Rb  Rb13  1  0.73380133  0.74745641  0.11999040  1
  Rb  Rb14  1  0.48125774  0.25254359  0.61999040  1
  Rb  Rb15  1  0.26619867  0.25254359  0.88000960  1
  Rb  Rb16  1  0.19038926  0.69649339  0.42847665  1
  Rb  Rb17  1  0.11311735  0.69649339  0.07152335  1
  Rb  Rb18  1  0.80961074  0.30350661  0.57152335  1
  Rb  Rb19  1  0.88688265  0.30350661  0.92847665  1
  Rb  Rb20  1  0.79118348  0.38468334  0.43502678  1
  Rb  Rb21  1  0.82413318  0.38468334  0.06497322  1
  Rb  Rb22  1  0.20881652  0.61531666  0.56497322  1
  Rb  Rb23  1  0.17586682  0.61531666  0.93502678  1
  Rb  Rb24  1  0.46555898  0.36096073  0.09787215  1
  Rb  Rb25  1  0.17348029  0.36096073  0.40212785  1
  Rb  Rb26  1  0.53444102  0.63903927  0.90212785  1
  Rb  Rb27  1  0.82651971  0.63903927  0.59787215  1
  Rb  Rb28  1  0.12867809  0.05095617  0.10854018  1
  Rb  Rb29  1  0.82036573  0.05095617  0.39145982  1
  Rb  Rb30  1  0.87132191  0.94904383  0.89145982  1
  Rb  Rb31  1  0.17963427  0.94904383  0.60854018  1
  Rb  Rb32  1  0.49507511  0.05332235  0.43697413  1
  Rb  Rb33  1  0.45160255  0.05332235  0.06302587  1
  Rb  Rb34  1  0.50492489  0.94667765  0.56302587  1
  Rb  Rb35  1  0.54839745  0.94667765  0.93697413  1
  Mg  Mg0  1  0.12645788  0.07750145  0.34532529  1
  Mg  Mg1  1  0.79604066  0.07750145  0.15467471  1
  Mg  Mg2  1  0.87354212  0.92249855  0.65467471  1
  Mg  Mg3  1  0.20395934  0.92249855  0.84532529  1
  Mg  Mg4  1  0.43031474  0.69382733  0.16068821  1
  Mg  Mg5  1  0.87585794  0.69382733  0.33931179  1
  Mg  Mg6  1  0.56968526  0.30617267  0.83931179  1
  Mg  Mg7  1  0.12414206  0.30617267  0.66068821  1
  Mg  Mg8  1  0.47499666  0.67599841  0.51176460  1
  Mg  Mg9  1  0.84900493  0.67599841  0.98823540  1
  Mg  Mg10  1  0.52500334  0.32400159  0.48823540  1
  Mg  Mg11  1  0.15099507  0.32400159  0.01176460  1
  B  B0  1  0.24146822  0.77701779  0.32993866  1
  B  B1  1  0.98151398  0.77701779  0.17006134  1
  B  B2  1  0.75853178  0.22298221  0.67006134  1
  B  B3  1  0.01848602  0.22298221  0.82993866  1
  B  B4  1  0.36585317  0.51973370  0.33364062  1
  B  B5  1  0.11441314  0.51973370  0.16635938  1
  B  B6  1  0.63414683  0.48026630  0.66635938  1
  B  B7  1  0.88558686  0.48026630  0.83364062  1
  B  B8  1  0.21865317  0.65332366  0.19654599  1
  B  B9  1  0.12802317  0.65332366  0.30345401  1
  B  B10  1  0.78134683  0.34667634  0.80345401  1
  B  B11  1  0.87197683  0.34667634  0.69654599  1
  B  B12  1  0.41473789  0.69094185  0.07047402  1
  B  B13  1  0.89432025  0.69094185  0.42952598  1
  B  B14  1  0.58526211  0.30905815  0.92952598  1
  B  B15  1  0.10567975  0.30905815  0.57047402  1
  B  B16  1  0.73789542  0.48930544  0.17365059  1
  B  B17  1  0.77279913  0.48930544  0.32634941  1
  B  B18  1  0.26210458  0.51069456  0.82634941  1
  B  B19  1  0.22720087  0.51069456  0.67365059  1
  B  B20  1  0.62229621  0.38121882  0.33830341  1
  B  B21  1  0.99648497  0.38121882  0.16169659  1
  B  B22  1  0.37770379  0.61878118  0.66169659  1
  B  B23  1  0.00351503  0.61878118  0.83830341  1
  B  B24  1  0.47375414  0.36818690  0.39607682  1
  B  B25  1  0.15805896  0.36818690  0.10392318  1
  B  B26  1  0.52624586  0.63181310  0.60392318  1
  B  B27  1  0.84194104  0.63181310  0.89607682  1
  B  B28  1  0.49630778  0.00738445  0.25000000  1
  B  B29  1  0.50369222  0.99261555  0.75000000  1
  B  B30  1  0.36824267  0.08801193  0.31986323  1
  B  B31  1  0.54374540  0.08801193  0.18013677  1
  B  B32  1  0.63175733  0.91198807  0.68013677  1
  B  B33  1  0.45625460  0.91198807  0.81986323  1
  B  B34  1  0.44294935  0.93786373  0.17881434  1
  B  B35  1  0.61918692  0.93786373  0.32118566  1
  B  B36  1  0.55705065  0.06213627  0.82118566  1
  B  B37  1  0.38081308  0.06213627  0.67881434  1
  B  B38  1  0.09770914  0.09453673  0.43929633  1
  B  B39  1  0.80775414  0.09453673  0.06070367  1
  B  B40  1  0.90229086  0.90546327  0.56070367  1
  B  B41  1  0.19224586  0.90546327  0.93929633  1
  B  B42  1  0.82161424  0.84441357  0.49334751  1
  B  B43  1  0.33397219  0.84441357  0.00665249  1
  B  B44  1  0.17838576  0.15558643  0.50665249  1
  B  B45  1  0.66602781  0.15558643  0.99334751  1
  B  B46  1  0.22696913  0.91795934  0.49269508  1
  B  B47  1  0.85507153  0.91795934  0.00730492  1
  B  B48  1  0.77303087  0.08204066  0.50730492  1
  B  B49  1  0.14492847  0.08204066  0.99269508  1
  B  B50  1  0.86460757  0.25162802  0.30980231  1
  B  B51  1  0.88376441  0.25162802  0.19019769  1
  B  B52  1  0.13539243  0.74837198  0.69019769  1
  B  B53  1  0.11623559  0.74837198  0.80980231  1
  B  B54  1  0.68910911  0.72761863  0.46958001  1
  B  B55  1  0.58327226  0.72761863  0.03041999  1
  B  B56  1  0.31089089  0.27238137  0.53041999  1
  B  B57  1  0.41672774  0.27238137  0.96958001  1
  O  O0  1  0.21403707  0.53504840  0.19362024  1
  O  O1  1  0.25091453  0.53504840  0.30637976  1
  O  O2  1  0.78596293  0.46495160  0.80637976  1
  O  O3  1  0.74908547  0.46495160  0.69362024  1
  O  O4  1  0.49752949  0.43926776  0.31313221  1
  O  O5  1  0.06320274  0.43926776  0.18686779  1
  O  O6  1  0.50247051  0.56073224  0.68686779  1
  O  O7  1  0.93679726  0.56073224  0.81313221  1
  O  O8  1  0.62079135  0.60508307  0.17827820  1
  O  O9  1  0.77412558  0.60508307  0.32172180  1
  O  O10  1  0.37920865  0.39491693  0.82172180  1
  O  O11  1  0.22587442  0.39491693  0.67827820  1
  O  O12  1  0.66572549  0.48524610  0.34720078  1
  O  O13  1  0.84902841  0.48524610  0.15279922  1
  O  O14  1  0.33427451  0.51475390  0.65279922  1
  O  O15  1  0.15097159  0.51475390  0.84720078  1
  O  O16  1  0.24997898  0.15369199  0.34148151  1
  O  O17  1  0.59632903  0.15369199  0.15851849  1
  O  O18  1  0.75002102  0.84630801  0.65851849  1
  O  O19  1  0.40367097  0.84630801  0.84148151  1
  O  O20  1  0.18424309  0.45869817  0.12561553  1
  O  O21  1  0.35705874  0.45869817  0.37438447  1
  O  O22  1  0.81575691  0.54130183  0.87438447  1
  O  O23  1  0.64294126  0.54130183  0.62561553  1
  O  O24  1  0.33382001  0.65804353  0.20602436  1
  O  O25  1  0.00813646  0.65804353  0.29397564  1
  O  O26  1  0.66617999  0.34195647  0.79397564  1
  O  O27  1  0.99186354  0.34195647  0.70602436  1
  O  O28  1  0.03596015  0.12885449  0.40107131  1
  O  O29  1  0.83518535  0.12885449  0.09892869  1
  O  O30  1  0.96403985  0.87114551  0.59892869  1
  O  O31  1  0.16481465  0.87114551  0.90107131  1
  O  O32  1  0.38617731  0.64232864  0.10554749  1
  O  O33  1  0.97149405  0.64232864  0.39445251  1
  O  O34  1  0.61382269  0.35767136  0.89445251  1
  O  O35  1  0.02850595  0.35767136  0.60554749  1
  O  O36  1  0.97686387  0.13214024  0.30428406  1
  O  O37  1  0.89099589  0.13214024  0.19571594  1
  O  O38  1  0.02313613  0.86785976  0.69571594  1
  O  O39  1  0.10900411  0.86785976  0.80428406  1
  O  O40  1  0.24986184  0.88933689  0.33381119  1
  O  O41  1  0.86080126  0.88933689  0.16618881  1
  O  O42  1  0.75013816  0.11066311  0.66618881  1
  O  O43  1  0.13919874  0.11066311  0.83381119  1
  O  O44  1  0.49324188  0.01452613  0.34270700  1
  O  O45  1  0.49223199  0.01452613  0.15729300  1
  O  O46  1  0.50675812  0.98547387  0.65729300  1
  O  O47  1  0.50776801  0.98547387  0.84270700  1
  O  O48  1  0.37381536  0.09134871  0.27591302  1
  O  O49  1  0.53483593  0.09134871  0.22408698  1
  O  O50  1  0.62618464  0.90865129  0.72408698  1
  O  O51  1  0.46516407  0.90865129  0.77591302  1
  O  O52  1  0.38102657  0.88288844  0.15611699  1
  O  O53  1  0.73608499  0.88288844  0.34388301  1
  O  O54  1  0.61897343  0.11711156  0.84388301  1
  O  O55  1  0.26391501  0.11711156  0.65611699  1
  O  O56  1  0.34756772  0.65651369  0.34452598  1
  O  O57  1  0.99591859  0.65651369  0.15547402  1
  O  O58  1  0.65243228  0.34348631  0.65547402  1
  O  O59  1  0.00408141  0.34348631  0.84452598  1
  O  O60  1  0.46326242  0.92077156  0.22248877  1
  O  O61  1  0.61596602  0.92077156  0.27751123  1
  O  O62  1  0.53673758  0.07922844  0.77751123  1
  O  O63  1  0.38403398  0.07922844  0.72248877  1
  O  O64  1  0.09643165  0.77661359  0.18887540  1
  O  O65  1  0.12695477  0.77661359  0.31112460  1
  O  O66  1  0.90356835  0.22338641  0.81112460  1
  O  O67  1  0.87304523  0.22338641  0.68887540  1
  O  O68  1  0.15586507  0.96078958  0.45362443  1
  O  O69  1  0.88334535  0.96078958  0.04637557  1
  O  O70  1  0.84413493  0.03921042  0.54637557  1
  O  O71  1  0.11665465  0.03921042  0.95362443  1
  O  O72  1  0.27986335  0.78865313  0.50407921  1
  O  O73  1  0.93148353  0.78865313  0.99592079  1
  O  O74  1  0.72013665  0.21134687  0.49592079  1
  O  O75  1  0.06851647  0.21134687  0.00407921  1
  O  O76  1  0.75300779  0.36905315  0.19041816  1
  O  O77  1  0.87793906  0.36905315  0.30958184  1
  O  O78  1  0.24699221  0.63094685  0.80958184  1
  O  O79  1  0.12206094  0.63094685  0.69041816  1
  O  O80  1  0.60365178  0.33285146  0.38071020  1
  O  O81  1  0.06349676  0.33285146  0.11928980  1
  O  O82  1  0.39634822  0.66714854  0.61928980  1
  O  O83  1  0.93650324  0.66714854  0.88071020  1
  O  O84  1  0.99955868  0.26450828  0.18355449  1
  O  O85  1  0.73593304  0.26450828  0.31644551  1
  O  O86  1  0.00044132  0.73549172  0.81644551  1
  O  O87  1  0.26406696  0.73549172  0.68355449  1
  O  O88  1  0.10504565  0.18834257  0.46561472  1
  O  O89  1  0.70661179  0.18834257  0.03438528  1
  O  O90  1  0.89495435  0.81165743  0.53438528  1
  O  O91  1  0.29338821  0.81165743  0.96561472  1
  O  O92  1  0.78694150  0.66144069  0.43726902  1
  O  O93  1  0.55161781  0.66144069  0.06273098  1
  O  O94  1  0.21305850  0.33855931  0.56273098  1
  O  O95  1  0.44838219  0.33855931  0.93726902  1
  O  O96  1  0.54231800  0.68478911  0.56708765  1
  O  O97  1  0.77289289  0.68478911  0.93291235  1
  O  O98  1  0.45768200  0.31521089  0.43291235  1
  O  O99  1  0.22710711  0.31521089  0.06708765  1
  O  O100  1  0.57894854  0.71026490  0.47025049  1
  O  O101  1  0.71078656  0.71026490  0.02974951  1
  O  O102  1  0.42105146  0.28973510  0.52974951  1
  O  O103  1  0.28921344  0.28973510  0.97025049  1
  O  O104  1  0.70672340  0.81327486  0.49672730  1
  O  O105  1  0.48000174  0.81327486  0.00327270  1
  O  O106  1  0.29327660  0.18672514  0.50327270  1
  O  O107  1  0.51999826  0.18672514  0.99672730  1
  O  O108  1  0.91713254  0.76791985  0.45890642  1
  O  O109  1  0.31494761  0.76791985  0.04109358  1
  O  O110  1  0.08286746  0.23208015  0.54109358  1
  O  O111  1  0.68505239  0.23208015  0.95890642  1
  O  O112  1  0.25239789  0.98936694  0.01739220  1
  O  O113  1  0.75823517  0.98936694  0.48260780  1
  O  O114  1  0.74760211  0.01063306  0.98260780  1
  O  O115  1  0.24176483  0.01063306  0.51739220  1
  F  F0  1  0.50000000  0.50000000  0.50000000  1
  F  F1  1  -0.00000000  0.50000000  -0.00000000  1
loop_
_geom_bond_atom_site_label_1
_geom_bond_atom_site_label_2
_geom_bond_distance
_geom_bond_site_symmetry_2
Mg0 O40 1.946321 1_545
Mg0 O36 1.957713 1_455
Mg0 O16 1.968634 1_555
Mg0 O28 1.971239 1_555
Mg1 O41 1.946321 1_545
Mg1 O37 1.957713 1_555
Mg1 O17 1.968634 1_555
Mg1 O29 1.971239 1_555
Mg2 O42 1.946321 1_565
Mg2 O38 1.957713 1_655
Mg2 O18 1.968634 1_555
Mg2 O30 1.971239 1_555
Mg3 O43 1.946321 1_565
Mg3 O39 1.957713 1_555
Mg3 O19 1.968634 1_555
Mg3 O31 1.971239 1_555
Mg4 O8 1.940993 1_555
Mg4 O24 1.955641 1_555
Mg4 O52 1.964639 1_555
Mg4 O32 1.971098 1_555
Mg5 O9 1.940993 1_555
Mg5 O25 1.955641 1_655
Mg5 O53 1.964639 1_555
Mg5 O33 1.971097 1_555
Mg6 O10 1.940993 1_555
Mg6 O26 1.955641 1_555
Mg6 O54 1.964639 1_555
Mg6 O34 1.971098 1_555
Mg7 O11 1.940993 1_555
Mg7 O27 1.955641 1_455
Mg7 O55 1.964639 1_555
Mg7 O35 1.971097 1_555
Mg8 O96 1.918176 1_555
Mg8 O100 1.918831 1_555
Mg8 O72 1.935163 1_555
Mg9 O97 1.918176 1_555
Mg9 O101 1.918831 1_556
Mg9 O73 1.935163 1_555
Mg10 O98 1.918176 1_555
Mg10 O102 1.918831 1_555
Mg10 O74 1.935163 1_555
Mg11 O99 1.918176 1_555
Mg11 O103 1.918831 1_554
Mg11 O75 1.935163 1_555
B0 O40 1.342075 1_555
B0 O56 1.388563 1_555
B0 O65 1.412957 1_555
B1 O41 1.342075 1_555
B1 O57 1.388563 1_555
B1 O64 1.412957 1_655
B2 O42 1.342075 1_555
B2 O58 1.388563 1_555
B2 O67 1.412957 1_555
B3 O43 1.342075 1_555
B3 O59 1.388563 1_555
B3 O66 1.412957 1_455
B4 O4 1.456267 1_555
B4 O1 1.482204 1_555
B4 O21 1.489708 1_555
B4 O56 1.518462 1_555
B5 O5 1.456267 1_555
B5 O0 1.482204 1_555
B5 O20 1.489708 1_555
B5 O57 1.518462 1_455
B6 O6 1.456267 1_555
B6 O3 1.482204 1_555
B6 O23 1.489708 1_555
B6 O58 1.518462 1_555
B7 O7 1.456267 1_555
B7 O2 1.482204 1_555
B7 O22 1.489708 1_555
B7 O59 1.518462 1_655
B8 O24 1.349593 1_555
B8 O0 1.385536 1_555
B8 O64 1.428509 1_555
B9 O25 1.349593 1_555
B9 O1 1.385536 1_555
B9 O65 1.428510 1_555
B10 O26 1.349593 1_555
B10 O2 1.385536 1_555
B10 O66 1.428509 1_555
B11 O27 1.349593 1_555
B11 O3 1.385536 1_555
B11 O67 1.428510 1_555
B12 O32 1.346691 1_555
B12 O109 1.384515 1_555
B12 O93 1.421595 1_555
B13 O33 1.346691 1_555
B13 O108 1.384515 1_555
B13 O92 1.421595 1_555
B14 O34 1.346691 1_555
B14 O111 1.384515 1_555
B14 O95 1.421595 1_555
B15 O35 1.346691 1_555
B15 O110 1.384515 1_555
B15 O94 1.421595 1_555
B16 O8 1.343564 1_555
B16 O13 1.390387 1_555
B16 O76 1.408684 1_555
B17 O9 1.343564 1_555
B17 O12 1.390387 1_555
B17 O77 1.408684 1_555
B18 O10 1.343564 1_555
B18 O15 1.390387 1_555
B18 O78 1.408684 1_555
B19 O11 1.343564 1_555
B19 O14 1.390387 1_555
B19 O79 1.408684 1_555
B20 O4 1.452529 1_555
B20 O85 1.491952 1_555
B20 O80 1.501475 1_555
B20 O12 1.517741 1_555
B21 O5 1.452529 1_655
B21 O84 1.491952 1_555
B21 O81 1.501475 1_655
B21 O13 1.517741 1_555
B22 O6 1.452529 1_555
B22 O87 1.491952 1_555
B22 O82 1.501475 1_555
B22 O14 1.517741 1_555
B23 O7 1.452529 1_455
B23 O86 1.491952 1_555
B23 O83 1.501475 1_455
B23 O15 1.517741 1_555
B24 O98 1.363640 1_555
B24 O21 1.387048 1_555
B24 O80 1.394551 1_555
B25 O99 1.363640 1_555
B25 O20 1.387048 1_555
B25 O81 1.394551 1_555
B26 O96 1.363640 1_555
B26 O23 1.387048 1_555
B26 O82 1.394551 1_555
B27 O97 1.363640 1_555
B27 O22 1.387048 1_555
B27 O83 1.394551 1_555
B28 O49 1.480556 1_555
B28 O48 1.480556 1_555
B28 O61 1.492780 1_545
B28 O60 1.492780 1_545
B29 O51 1.480556 1_555
B29 O50 1.480556 1_555
B29 O63 1.492780 1_565
B29 O62 1.492780 1_565
B30 O16 1.347930 1_555
B30 O48 1.387661 1_555
B30 O44 1.425016 1_555
B31 O17 1.347930 1_555
B31 O49 1.387661 1_555
B31 O45 1.425016 1_555
B32 O18 1.347930 1_555
B32 O50 1.387661 1_555
B32 O46 1.425016 1_555
B33 O19 1.347930 1_555
B33 O51 1.387661 1_555
B33 O47 1.425016 1_555
B34 O52 1.345911 1_555
B34 O60 1.392202 1_555
B34 O45 1.420235 1_565
B35 O53 1.345911 1_555
B35 O61 1.392202 1_555
B35 O44 1.420235 1_565
B36 O54 1.345911 1_555
B36 O62 1.392202 1_555
B36 O47 1.420235 1_545
B37 O55 1.345911 1_555
B37 O63 1.392202 1_555
B37 O46 1.420235 1_545
B38 O28 1.346396 1_555
B38 O88 1.390780 1_555
B38 O68 1.416362 1_545
B39 O29 1.346396 1_555
B39 O89 1.390780 1_555
B39 O69 1.416362 1_545
B40 O30 1.346396 1_555
B40 O90 1.390780 1_555
B40 O70 1.416362 1_565
B41 O31 1.346396 1_555
B41 O91 1.390780 1_555
B41 O71 1.416362 1_565
B42 O90 1.476282 1_555
B42 O108 1.476706 1_555
B42 O113 1.493497 1_555
B42 O104 1.498444 1_555
B43 O91 1.476282 1_554
B43 O109 1.476706 1_555
B43 O112 1.493497 1_555
B43 O105 1.498444 1_555
B44 O88 1.476282 1_555
B44 O110 1.476706 1_555
B44 O115 1.493497 1_555
B44 O106 1.498444 1_555
B45 O89 1.476282 1_556
B45 O111 1.476706 1_555
B45 O114 1.493497 1_555
B45 O107 1.498444 1_555
B46 O72 1.349719 1_555
B46 O115 1.389455 1_565
B46 O68 1.415312 1_555
B47 O73 1.349719 1_554
B47 O114 1.389455 1_564
B47 O69 1.415312 1_555
B48 O74 1.349719 1_555
B48 O113 1.389455 1_545
B48 O70 1.415312 1_555
B49 O75 1.349719 1_556
B49 O112 1.389455 1_546
B49 O71 1.415312 1_555
B50 O36 1.344496 1_555
B50 O85 1.391938 1_555
B50 O77 1.425840 1_555
B51 O37 1.344497 1_555
B51 O84 1.391938 1_555
B51 O76 1.425839 1_555
B52 O38 1.344496 1_555
B52 O87 1.391938 1_555
B52 O79 1.425840 1_555
B53 O39 1.344497 1_555
B53 O86 1.391938 1_555
B53 O78 1.425839 1_555
B54 O100 1.342710 1_555
B54 O104 1.385770 1_555
B54 O92 1.416618 1_555
B55 O101 1.342710 1_555
B55 O105 1.385770 1_555
B55 O93 1.416618 1_555
B56 O102 1.342710 1_555
B56 O106 1.385770 1_555
B56 O94 1.416618 1_555
B57 O103 1.342710 1_555
B57 O107 1.385770 1_555
B57 O95 1.416618 1_555
O0 Rb8 3.027215 1_555
O1 Rb9 3.027215 1_555
O2 Rb10 3.027215 1_555
O3 Rb11 3.027215 1_555
O4 Rb8 2.771003 1_555
O4 Rb0 3.064128 1_555
O5 Rb9 2.771003 1_555
O5 Rb1 3.064127 1_455
O6 Rb10 2.771003 1_555
O6 Rb2 3.064128 1_555
O7 Rb11 2.771003 1_555
O7 Rb3 3.064127 1_655
O8 Rb0 3.076119 1_555
O8 Rb13 3.112941 1_555
O8 Rb1 3.168654 1_555
O9 Rb1 3.076119 1_555
O9 Rb12 3.112941 1_555
O9 Rb0 3.168654 1_555
O10 Rb2 3.076119 1_555
O10 Rb15 3.112941 1_555
O10 Rb3 3.168654 1_555
O11 Rb3 3.076119 1_555
O11 Rb14 3.112941 1_555
O11 Rb2 3.168654 1_555
O12 Rb12 2.826788 1_555
O12 Rb20 3.059233 1_555
O13 Rb13 2.826788 1_555
O13 Rb21 3.059233 1_555
O14 Rb14 2.826788 1_555
O14 Rb22 3.059233 1_555
O15 Rb15 2.826788 1_555
O15 Rb23 3.059233 1_555
O16 Rb25 2.835955 1_555
O16 Rb9 3.063725 1_555
O17 Rb24 2.835955 1_555
O17 Rb8 3.063725 1_555
O18 Rb27 2.835955 1_555
O18 Rb11 3.063725 1_555
O19 Rb26 2.835955 1_555
O19 Rb10 3.063725 1_555
O20 Rb24 2.918729 1_555
O20 Rb17 2.977178 1_555
O21 Rb25 2.918729 1_555
O21 Rb16 2.977178 1_555
O22 Rb26 2.918729 1_555
O22 Rb19 2.977178 1_555
O23 Rb27 2.918729 1_555
O23 Rb18 2.977178 1_555
O24 Rb0 2.827181 1_555
O24 Rb8 3.058760 1_555
O24 Rb4 3.382754 1_555
O25 Rb1 2.827181 1_455
O25 Rb9 3.058760 1_555
O25 Rb5 3.382754 1_455
O26 Rb2 2.827181 1_555
O26 Rb10 3.058760 1_555
O26 Rb6 3.382754 1_555
O27 Rb3 2.827181 1_655
O27 Rb11 3.058760 1_555
O27 Rb7 3.382754 1_655
O28 Rb29 2.970313 1_455
O28 Rb20 3.070366 1_455
O29 Rb28 2.970313 1_655
O29 Rb21 3.070366 1_555
O30 Rb31 2.970313 1_655
O30 Rb22 3.070366 1_655
O31 Rb30 2.970313 1_455
O31 Rb23 3.070366 1_555
O32 Rb24 2.908865 1_555
O32 Rb17 3.001868 1_555
O33 Rb25 2.908865 1_655
O33 Rb16 3.001868 1_655
O34 Rb26 2.908865 1_555
O34 Rb19 3.001868 1_555
O35 Rb27 2.908865 1_455
O35 Rb18 3.001868 1_455
O36 Rb5 2.927839 1_545
O36 Rb4 2.963130 1_645
O37 Rb4 2.927839 1_645
O37 Rb5 2.963130 1_545
O38 Rb7 2.927839 1_565
O38 Rb6 2.963130 1_465
O39 Rb6 2.927839 1_465
O39 Rb7 2.963130 1_565
O40 Rb12 3.004271 1_555
O40 Rb4 3.323691 1_555
O41 Rb13 3.004271 1_555
O41 Rb5 3.323691 1_555
O42 Rb14 3.004271 1_555
O42 Rb6 3.323691 1_555
O43 Rb15 3.004271 1_555
O43 Rb7 3.323691 1_555
O44 Rb32 3.003467 1_555
O44 Rb12 3.162893 1_545
O45 Rb33 3.003467 1_555
O45 Rb13 3.162893 1_545
O46 Rb34 3.003467 1_555
O46 Rb14 3.162893 1_565
O47 Rb35 3.003467 1_555
O47 Rb15 3.162893 1_565
O48 Rb9 2.933268 1_555
O48 Rb4 3.401714 1_545
O49 Rb8 2.933268 1_555
O49 Rb5 3.401714 1_545
O50 Rb11 2.933268 1_555
O50 Rb6 3.401714 1_565
O51 Rb10 2.933268 1_555
O51 Rb7 3.401714 1_565
O52 Rb28 2.934104 1_565
O52 Rb4 3.238718 1_555
O53 Rb29 2.934104 1_565
O53 Rb5 3.238719 1_555
O54 Rb30 2.934104 1_545
O54 Rb6 3.238718 1_555
O55 Rb31 2.934104 1_545
O55 Rb7 3.238719 1_555
O56 Rb12 2.818849 1_555
O56 Rb0 3.036567 1_555
O56 Rb16 3.090084 1_555
O57 Rb13 2.818849 1_555
O57 Rb1 3.036567 1_555
O57 Rb17 3.090084 1_655
O58 Rb14 2.818849 1_555
O58 Rb2 3.036567 1_555
O58 Rb18 3.090084 1_555
O59 Rb15 2.818849 1_555
O59 Rb3 3.036567 1_555
O59 Rb19 3.090084 1_455
O60 Rb0 3.024085 1_555
O60 Rb4 3.081964 1_555
O61 Rb1 3.024085 1_555
O61 Rb5 3.081965 1_555
O62 Rb2 3.024085 1_555
O62 Rb6 3.081964 1_555
O63 Rb3 3.024085 1_555
O63 Rb7 3.081965 1_555
O64 Rb4 3.161454 1_555
O65 Rb5 3.161454 1_455
O66 Rb6 3.161454 1_555
O67 Rb7 3.161454 1_655
O68 Rb16 2.969165 1_555
O69 Rb17 2.969165 1_655
O70 Rb18 2.969165 1_555
O71 Rb19 2.969165 1_455
O72 Rb16 2.966527 1_555
O72 Rb22 3.136698 1_555
O73 Rb17 2.966526 1_656
O73 Rb23 3.136698 1_655
O74 Rb18 2.966527 1_555
O74 Rb20 3.136698 1_555
O75 Rb19 2.966526 1_454
O75 Rb21 3.136698 1_455
O76 Rb8 3.152306 1_555
O77 Rb9 3.152306 1_655
O78 Rb10 3.152306 1_555
O79 Rb11 3.152306 1_455
O80 Rb29 2.965682 1_555
O80 Rb20 2.980128 1_555
O81 Rb28 2.965682 1_555
O81 Rb21 2.980128 1_455
O82 Rb31 2.965682 1_555
O82 Rb22 2.980128 1_555
O83 Rb30 2.965682 1_555
O83 Rb23 2.980128 1_655
O84 Rb28 3.197130 1_655
O84 Rb4 3.226582 1_645
O85 Rb29 3.197130 1_555
O85 Rb5 3.226582 1_545
O86 Rb30 3.197130 1_455
O86 Rb6 3.226582 1_465
O87 Rb31 3.197130 1_555
O87 Rb7 3.226582 1_565
O88 Rb25 3.165149 1_555
O88 Rb20 3.257338 1_455
O89 Rb24 3.165149 1_555
O89 Rb21 3.257338 1_555
O90 Rb27 3.165149 1_555
O90 Rb22 3.257338 1_655
O91 Rb26 3.165149 1_555
O91 Rb23 3.257338 1_555
O92 Rb20 3.152265 1_555
O92 Rb12 3.212771 1_555
O93 Rb21 3.152264 1_555
O93 Rb13 3.212771 1_555
O94 Rb22 3.152265 1_555
O94 Rb14 3.212771 1_555
O95 Rb23 3.152264 1_555
O95 Rb15 3.212771 1_555
O96 Rb34 2.826313 1_555
O96 Rb27 3.113930 1_555
O97 Rb35 2.826313 1_555
O97 Rb26 3.113930 1_555
O98 Rb32 2.826313 1_555
O98 Rb25 3.113930 1_555
O99 Rb33 2.826313 1_555
O99 Rb24 3.113930 1_555
O100 Rb12 2.902944 1_555
O101 Rb13 2.902944 1_555
O102 Rb14 2.902944 1_555
O103 Rb15 2.902944 1_555
O104 Rb34 2.908756 1_555
O104 Rb32 3.217968 1_565
O105 Rb35 2.908756 1_554
O105 Rb33 3.217968 1_565
O106 Rb32 2.908756 1_555
O106 Rb34 3.217968 1_545
O107 Rb33 2.908756 1_556
O107 Rb35 3.217968 1_545
O108 Rb16 2.920758 1_655
O109 Rb17 2.920758 1_555
O110 Rb18 2.920758 1_455
O111 Rb19 2.920758 1_555
O112 Rb33 3.025377 1_565
O112 Rb28 3.119712 1_565
O113 Rb32 3.025377 1_565
O113 Rb29 3.119712 1_565
O114 Rb35 3.025377 1_545
O114 Rb30 3.119712 1_545
O115 Rb34 3.025377 1_545
O115 Rb31 3.119712 1_545
F0 Mg10 1.933141 1_555
F0 Mg8 1.933141 1_555
F1 Mg11 1.933141 1_555
F1 Mg9 1.933141 1_454
