# generated using pymatgen
data_K11Cd2Sb5
_symmetry_space_group_name_H-M   'P 1'
_cell_length_a   9.97080387
_cell_length_b   12.05796640
_cell_length_c   12.89075024
_cell_angle_alpha   103.55682867
_cell_angle_beta   97.17783036
_cell_angle_gamma   107.59861972
_symmetry_Int_Tables_number   1
_chemical_formula_structural   K11Cd2Sb5
_chemical_formula_sum   'K22 Cd4 Sb10'
_cell_volume   1403.69504294
_cell_formula_units_Z   2
loop_
 _symmetry_equiv_pos_site_id
 _symmetry_equiv_pos_as_xyz
  1  'x, y, z'
loop_
 _atom_site_type_symbol
 _atom_site_label
 _atom_site_symmetry_multiplicity
 _atom_site_fract_x
 _atom_site_fract_y
 _atom_site_fract_z
 _atom_site_occupancy
  K  K0  1  0.85799474  0.57421418  0.96293305  1
  K  K1  1  0.14200526  0.42578582  0.03706695  1
  K  K2  1  0.30475060  0.89403834  0.77625819  1
  K  K3  1  0.69524940  0.10596166  0.22374181  1
  K  K4  1  0.63338060  0.16621091  0.53081908  1
  K  K5  1  0.36661940  0.83378909  0.46918092  1
  K  K6  1  0.63487440  0.67389923  0.56040920  1
  K  K7  1  0.36512560  0.32610077  0.43959080  1
  K  K8  1  0.20335082  0.55772072  0.57109034  1
  K  K9  1  0.79664918  0.44227928  0.42890966  1
  K  K10  1  0.05020346  0.70623778  0.26937347  1
  K  K11  1  0.94979654  0.29376222  0.73062653  1
  K  K12  1  0.20270088  0.07887547  0.57038242  1
  K  K13  1  0.79729912  0.92112453  0.42961758  1
  K  K14  1  0.87623243  0.09500495  0.98310986  1
  K  K15  1  0.12376757  0.90499505  0.01689014  1
  K  K16  1  0.58653990  0.22715132  0.86400977  1
  K  K17  1  0.41346010  0.77284868  0.13599023  1
  K  K18  1  0.39264155  0.24756037  0.14066684  1
  K  K19  1  0.60735845  0.75243963  0.85933316  1
  K  K20  1  0.34986550  0.41198250  0.79028335  1
  K  K21  1  0.65013450  0.58801750  0.20971665  1
  Cd  Cd0  1  0.94631696  0.95860914  0.71855486  1
  Cd  Cd1  1  0.05368304  0.04139086  0.28144514  1
  Cd  Cd2  1  0.94616529  0.62429838  0.71500817  1
  Cd  Cd3  1  0.05383471  0.37570162  0.28499183  1
  Sb  Sb0  1  0.00139282  0.76517874  0.55514749  1
  Sb  Sb1  1  0.99860718  0.23482126  0.44485251  1
  Sb  Sb2  1  0.66116529  0.45615837  0.69204814  1
  Sb  Sb3  1  0.33883471  0.54384163  0.30795186  1
  Sb  Sb4  1  0.66322061  0.97327176  0.69984581  1
  Sb  Sb5  1  0.33677939  0.02672824  0.30015419  1
  Sb  Sb6  1  0.19197558  0.14763542  0.86554442  1
  Sb  Sb7  1  0.80802442  0.85236458  0.13445558  1
  Sb  Sb8  1  0.18962155  0.63119714  0.86511162  1
  Sb  Sb9  1  0.81037845  0.36880286  0.13488838  1
loop_
_geom_bond_atom_site_label_1
_geom_bond_atom_site_label_2
_geom_bond_distance
_geom_bond_site_symmetry_2
K0 Sb2 3.512707 1_555
K0 Sb8 3.615252 1_655
K0 Sb9 3.660529 1_556
K0 Sb7 3.767625 1_556
K1 Sb3 3.512707 1_555
K1 Sb9 3.615252 1_455
K1 Sb8 3.660529 1_554
K1 Sb6 3.767625 1_554
K2 Sb8 3.536208 1_555
K2 Sb0 3.551711 1_555
K2 Sb6 3.562623 1_565
K2 Sb4 3.730184 1_555
K3 Sb9 3.536208 1_555
K3 Sb1 3.551711 1_555
K3 Sb7 3.562623 1_545
K3 Sb5 3.730184 1_555
K4 Sb2 3.533190 1_555
K4 Sb5 3.586960 1_555
K4 Sb4 3.589076 1_545
K4 Sb1 3.845812 1_555
K5 Sb3 3.533190 1_555
K5 Sb4 3.586960 1_555
K5 Sb5 3.589076 1_565
K5 Sb0 3.845812 1_555
K6 Sb2 3.497904 1_555
K6 Sb0 3.497993 1_655
K6 Sb4 3.543402 1_555
K6 Sb3 3.764403 1_555
K7 Sb3 3.497904 1_555
K7 Sb1 3.497993 1_455
K7 Sb5 3.543402 1_555
K7 Sb2 3.764403 1_555
K8 Sb1 3.656246 1_455
K8 Sb0 3.679454 1_555
K8 Sb8 3.714522 1_555
K8 Sb3 3.791383 1_555
K9 Sb0 3.656246 1_655
K9 Sb1 3.679454 1_555
K9 Sb9 3.714522 1_555
K9 Sb2 3.791383 1_555
K10 Sb0 3.707076 1_555
K10 Sb7 3.862675 1_455
K10 Sb9 3.879722 1_455
K10 Sb5 3.946746 1_565
K10 Sb3 3.983783 1_555
K11 Sb1 3.707076 1_555
K11 Sb6 3.862675 1_655
K11 Sb8 3.879722 1_655
K11 Sb4 3.946746 1_545
K11 Sb2 3.983783 1_555
K12 Sb1 3.634969 1_455
K12 Sb0 3.652022 1_545
K12 Sb6 3.721848 1_555
K12 Sb5 3.868097 1_555
K13 Sb0 3.634969 1_655
K13 Sb1 3.652022 1_565
K13 Sb7 3.721848 1_555
K13 Sb4 3.868097 1_555
K14 Sb6 3.611899 1_655
K14 Sb4 3.696330 1_545
K14 Sb9 3.709762 1_556
K14 Sb7 3.825333 1_546
K15 Sb7 3.611899 1_455
K15 Sb5 3.696330 1_565
K15 Sb8 3.709762 1_554
K15 Sb6 3.825333 1_564
K16 Sb9 3.611458 1_556
K16 Sb4 3.635485 1_545
K16 Sb6 3.760908 1_555
K16 Sb2 3.889991 1_555
K17 Sb8 3.611458 1_554
K17 Sb5 3.635485 1_565
K17 Sb7 3.760908 1_555
K17 Sb3 3.889991 1_555
K18 Sb6 3.577499 1_554
K18 Sb5 3.685551 1_555
K18 Sb3 3.941760 1_555
K18 Sb9 3.992236 1_555
K19 Sb7 3.577499 1_556
K19 Sb4 3.685551 1_555
K19 Sb2 3.941760 1_555
K19 Sb8 3.992236 1_555
K20 Sb2 3.438062 1_555
K20 Sb8 3.494831 1_555
K20 Sb6 3.518066 1_555
K21 Sb3 3.438062 1_555
K21 Sb9 3.494831 1_555
K21 Sb7 3.518066 1_555
Cd0 Sb4 2.865082 1_555
Cd0 Sb6 2.867842 1_665
Cd0 Sb0 2.989802 1_655
Cd0 K12 3.544479 1_665
Cd0 K14 3.672116 1_565
Cd0 K13 3.702220 1_555
Cd0 K6 3.778248 1_555
Cd0 K2 3.901521 1_655
Cd0 K11 3.997034 1_565
Cd1 Sb5 2.865082 1_555
Cd1 Sb7 2.867842 1_445
Cd1 Sb1 2.989802 1_455
Cd1 K13 3.544479 1_445
Cd1 K15 3.672116 1_545
Cd1 K12 3.702220 1_555
Cd1 K7 3.778248 1_555
Cd1 K3 3.901521 1_455
Cd1 K10 3.997034 1_545
Cd2 Sb8 2.876132 1_655
Cd2 Sb2 2.880604 1_555
Cd2 Sb0 2.965566 1_655
Cd2 K8 3.521026 1_655
Cd2 K0 3.554932 1_555
Cd2 K9 3.673382 1_555
Cd2 K6 3.754809 1_555
Cd2 K2 3.878690 1_655
Cd2 K11 4.048263 1_555
Cd3 Sb9 2.876132 1_455
Cd3 Sb3 2.880604 1_555
Cd3 Sb1 2.965566 1_455
Cd3 K9 3.521026 1_455
Cd3 K1 3.554932 1_555
Cd3 K8 3.673382 1_555
Cd3 K7 3.754809 1_555
Cd3 K3 3.878690 1_455
Cd3 K10 4.048263 1_555
