# generated using pymatgen
data_CoPSe
_symmetry_space_group_name_H-M   'P 1'
_cell_length_a   5.60031800
_cell_length_b   5.68303300
_cell_length_c   11.23258000
_cell_angle_alpha   90.00000000
_cell_angle_beta   90.00000000
_cell_angle_gamma   90.00000000
_symmetry_Int_Tables_number   1
_chemical_formula_structural   CoPSe
_chemical_formula_sum   'Co8 P8 Se8'
_cell_volume   357.49698733
_cell_formula_units_Z   8
loop_
 _symmetry_equiv_pos_site_id
 _symmetry_equiv_pos_as_xyz
  1  'x, y, z'
loop_
 _atom_site_type_symbol
 _atom_site_label
 _atom_site_symmetry_multiplicity
 _atom_site_fract_x
 _atom_site_fract_y
 _atom_site_fract_z
 _atom_site_occupancy
  Co  Co0  1  0.01370700  0.17923200  0.37998100  1
  Co  Co1  1  0.01370700  0.32076800  0.87998100  1
  Co  Co2  1  0.48629300  0.67923200  0.37998100  1
  Co  Co3  1  0.98629300  0.82076800  0.62001900  1
  Co  Co4  1  0.51370700  0.32076800  0.62001900  1
  Co  Co5  1  0.48629300  0.82076800  0.87998100  1
  Co  Co6  1  0.98629300  0.67923200  0.12001900  1
  Co  Co7  1  0.51370700  0.17923200  0.12001900  1
  P  P0  1  0.62840000  0.67928400  0.56431100  1
  P  P1  1  0.87160000  0.32071600  0.06431100  1
  P  P2  1  0.37160000  0.17928400  0.93568900  1
  P  P3  1  0.12840000  0.82071600  0.43568900  1
  P  P4  1  0.12840000  0.67928400  0.93568900  1
  P  P5  1  0.62840000  0.82071600  0.06431100  1
  P  P6  1  0.87160000  0.17928400  0.56431100  1
  P  P7  1  0.37160000  0.32071600  0.43568900  1
  Se  Se0  1  0.11868300  0.06955800  0.17685900  1
  Se  Se1  1  0.61868300  0.43044200  0.82314100  1
  Se  Se2  1  0.88131700  0.56955800  0.32314100  1
  Se  Se3  1  0.38131700  0.93044200  0.67685900  1
  Se  Se4  1  0.88131700  0.93044200  0.82314100  1
  Se  Se5  1  0.38131700  0.56955800  0.17685900  1
  Se  Se6  1  0.11868300  0.43044200  0.67685900  1
  Se  Se7  1  0.61868300  0.06955800  0.32314100  1
loop_
_geom_bond_atom_site_label_1
_geom_bond_atom_site_label_2
_geom_bond_distance
_geom_bond_site_symmetry_2
Co0 P6 2.218185 1_455
Co0 P3 2.226065 1_545
Co0 P7 2.248409 1_555
Co0 Se7 2.385415 1_455
Co0 Se2 2.424441 1_455
Co0 Se0 2.437156 1_555
Co1 P1 2.218185 1_456
Co1 P4 2.226065 1_555
Co1 P2 2.248409 1_555
Co1 Se1 2.385415 1_455
Co1 Se4 2.424441 1_445
Co1 Se6 2.437156 1_555
Co2 P0 2.218185 1_555
Co2 P7 2.226065 1_555
Co2 P3 2.248409 1_555
Co2 Se2 2.385415 1_555
Co2 Se7 2.424441 1_565
Co2 Se5 2.437156 1_555
Co3 P3 2.218185 1_655
Co3 P6 2.226065 1_565
Co3 P0 2.248409 1_555
Co3 Se3 2.385415 1_655
Co3 Se6 2.424441 1_655
Co3 Se4 2.437156 1_555
Co4 P7 2.218185 1_555
Co4 P0 2.226065 1_555
Co4 P6 2.248409 1_555
Co4 Se6 2.385415 1_555
Co4 Se3 2.424441 1_545
Co4 Se1 2.437156 1_555
Co5 P5 2.218185 1_556
Co5 P2 2.226065 1_565
Co5 P4 2.248409 1_555
Co5 Se4 2.385415 1_555
Co5 Se1 2.424441 1_555
Co5 Se3 2.437156 1_555
Co6 P4 2.218185 1_654
Co6 P1 2.226065 1_555
Co6 P5 2.248409 1_555
Co6 Se5 2.385415 1_655
Co6 Se0 2.424441 1_665
Co6 Se2 2.437156 1_555
Co7 P2 2.218185 1_554
Co7 P5 2.226065 1_545
Co7 P1 2.248409 1_555
Co7 Se0 2.385415 1_555
Co7 Se5 2.424441 1_555
Co7 Se7 2.437156 1_555
P0 Se3 2.355898 1_555
P1 Se0 2.355898 1_655
P2 Se1 2.355898 1_555
P3 Se2 2.355898 1_455
P4 Se4 2.355898 1_455
P5 Se5 2.355898 1_555
P6 Se6 2.355898 1_655
P7 Se7 2.355898 1_555
