# generated using pymatgen
data_Hg3H4(IO6)2
_symmetry_space_group_name_H-M   'P 1'
_cell_length_a   8.91570038
_cell_length_b   9.74075517
_cell_length_c   12.38806400
_cell_angle_alpha   90.00000000
_cell_angle_beta   90.00000000
_cell_angle_gamma   90.99951938
_symmetry_Int_Tables_number   1
_chemical_formula_structural   Hg3H4(IO6)2
_chemical_formula_sum   'Hg12 H16 I8 O48'
_cell_volume   1075.68582800
_cell_formula_units_Z   4
loop_
 _symmetry_equiv_pos_site_id
 _symmetry_equiv_pos_as_xyz
  1  'x, y, z'
loop_
 _atom_site_type_symbol
 _atom_site_label
 _atom_site_symmetry_multiplicity
 _atom_site_fract_x
 _atom_site_fract_y
 _atom_site_fract_z
 _atom_site_occupancy
  Hg  Hg0  1  0.90418500  0.37726900  0.88454500  1
  Hg  Hg1  1  0.09581500  0.12273100  0.38454500  1
  Hg  Hg2  1  0.09581500  0.62273100  0.11545500  1
  Hg  Hg3  1  0.90418500  0.87726900  0.61545500  1
  Hg  Hg4  1  0.75260300  0.49021300  0.51574000  1
  Hg  Hg5  1  0.24739700  0.00978700  0.01574000  1
  Hg  Hg6  1  0.24739700  0.50978700  0.48426000  1
  Hg  Hg7  1  0.75260300  0.99021300  0.98426000  1
  Hg  Hg8  1  0.40204500  0.12040100  0.61173800  1
  Hg  Hg9  1  0.59795500  0.37959900  0.11173800  1
  Hg  Hg10  1  0.59795500  0.87959900  0.38826200  1
  Hg  Hg11  1  0.40204500  0.62040100  0.88826200  1
  H  H0  1  0.96689400  0.40977300  0.27456300  1
  H  H1  1  0.03310600  0.09022700  0.77456300  1
  H  H2  1  0.03310600  0.59022700  0.72543700  1
  H  H3  1  0.96689400  0.90977300  0.22543700  1
  H  H4  1  0.75837700  0.20810000  0.67804900  1
  H  H5  1  0.24162300  0.29190000  0.17804900  1
  H  H6  1  0.24162300  0.79190000  0.32195100  1
  H  H7  1  0.75837700  0.70810000  0.82195100  1
  H  H8  1  0.52018200  0.41695300  0.72611800  1
  H  H9  1  0.47981800  0.08304700  0.22611800  1
  H  H10  1  0.47981800  0.58304700  0.27388200  1
  H  H11  1  0.52018200  0.91695300  0.77388200  1
  H  H12  1  0.24917400  0.28113000  0.82805300  1
  H  H13  1  0.75082600  0.21887000  0.32805300  1
  H  H14  1  0.75082600  0.71887000  0.17194700  1
  H  H15  1  0.24917400  0.78113000  0.67194700  1
  I  I0  1  0.98004600  0.22977600  0.12902400  1
  I  I1  1  0.01995400  0.27022400  0.62902400  1
  I  I2  1  0.01995400  0.77022400  0.87097600  1
  I  I3  1  0.98004600  0.72977600  0.37097600  1
  I  I4  1  0.51537100  0.23295300  0.86717500  1
  I  I5  1  0.48462900  0.26704700  0.36717500  1
  I  I6  1  0.48462900  0.76704700  0.13282500  1
  I  I7  1  0.51537100  0.73295300  0.63282500  1
  O  O0  1  0.95263500  0.34904000  0.50099100  1
  O  O1  1  0.04736500  0.15096000  0.00099100  1
  O  O2  1  0.04736500  0.65096000  0.49900900  1
  O  O3  1  0.95263500  0.84904000  0.99900900  1
  O  O4  1  0.92570300  0.40873100  0.71643100  1
  O  O5  1  0.07429700  0.09126900  0.21643100  1
  O  O6  1  0.07429700  0.59126900  0.28356900  1
  O  O7  1  0.92570300  0.90873100  0.78356900  1
  O  O8  1  0.91091600  0.32135800  0.26216100  1
  O  O9  1  0.08908400  0.17864200  0.76216100  1
  O  O10  1  0.08908400  0.67864200  0.73783900  1
  O  O11  1  0.91091600  0.82135800  0.23783900  1
  O  O12  1  0.90044100  0.38673800  0.05485900  1
  O  O13  1  0.09955900  0.11326200  0.55485900  1
  O  O14  1  0.09955900  0.61326200  0.94514100  1
  O  O15  1  0.90044100  0.88673800  0.44514100  1
  O  O16  1  0.83538500  0.15621900  0.63828100  1
  O  O17  1  0.16461500  0.34378100  0.13828100  1
  O  O18  1  0.16461500  0.84378100  0.36171900  1
  O  O19  1  0.83538500  0.65621900  0.86171900  1
  O  O20  1  0.79547600  0.13960600  0.13038900  1
  O  O21  1  0.20452400  0.36039400  0.63038900  1
  O  O22  1  0.20452400  0.86039400  0.86961100  1
  O  O23  1  0.79547600  0.63960600  0.36961100  1
  O  O24  1  0.70513500  0.15321000  0.85748300  1
  O  O25  1  0.29486500  0.34679000  0.35748300  1
  O  O26  1  0.29486500  0.84679000  0.14251700  1
  O  O27  1  0.70513500  0.65321000  0.64251700  1
  O  O28  1  0.59890900  0.39167500  0.94086600  1
  O  O29  1  0.40109100  0.10832500  0.44086600  1
  O  O30  1  0.40109100  0.60832500  0.05913400  1
  O  O31  1  0.59890900  0.89167500  0.55913400  1
  O  O32  1  0.57494300  0.32913700  0.73321000  1
  O  O33  1  0.42505700  0.17086300  0.23321000  1
  O  O34  1  0.42505700  0.67086300  0.26679000  1
  O  O35  1  0.57494300  0.82913700  0.76679000  1
  O  O36  1  0.46316800  0.14635300  0.99533200  1
  O  O37  1  0.53683200  0.35364700  0.49533200  1
  O  O38  1  0.53683200  0.85364700  0.00466800  1
  O  O39  1  0.46316800  0.64635300  0.50466800  1
  O  O40  1  0.42176600  0.09101700  0.78029700  1
  O  O41  1  0.57823400  0.40898300  0.28029700  1
  O  O42  1  0.57823400  0.90898300  0.21970300  1
  O  O43  1  0.42176600  0.59101700  0.71970300  1
  O  O44  1  0.32832300  0.33699100  0.86584900  1
  O  O45  1  0.67167700  0.16300900  0.36584900  1
  O  O46  1  0.67167700  0.66300900  0.13415100  1
  O  O47  1  0.32832300  0.83699100  0.63415100  1
loop_
_geom_bond_atom_site_label_1
_geom_bond_atom_site_label_2
_geom_bond_distance
_geom_bond_site_symmetry_2
Hg0 O12 2.112165 1_556
Hg0 O4 2.113274 1_555
Hg1 O13 2.112165 1_555
Hg1 O5 2.113274 1_555
Hg2 O14 2.112165 1_554
Hg2 O6 2.113274 1_555
Hg3 O15 2.112165 1_555
Hg3 O7 2.113274 1_555
Hg4 O27 2.278140 1_555
Hg4 O0 2.278275 1_555
Hg4 O37 2.333458 1_555
Hg4 O23 2.349753 1_555
Hg5 O26 2.278140 1_545
Hg5 O1 2.278275 1_555
Hg5 O36 2.333458 1_554
Hg5 O22 2.349753 1_544
Hg6 O25 2.278140 1_555
Hg6 O2 2.278275 1_555
Hg6 O39 2.333458 1_555
Hg6 O21 2.349753 1_555
Hg7 O24 2.278140 1_565
Hg7 O3 2.278275 1_555
Hg7 O38 2.333458 1_556
Hg7 O20 2.349753 1_566
Hg8 O40 2.115381 1_555
Hg8 O29 2.120048 1_555
Hg9 O41 2.115381 1_555
Hg9 O28 2.120048 1_554
Hg10 O42 2.115381 1_555
Hg10 O31 2.120048 1_555
Hg11 O43 2.115381 1_555
Hg11 O30 2.120048 1_556
H0 O8 0.999704 1_555
H1 O9 0.999704 1_555
H2 O10 0.999704 1_555
H3 O11 0.999704 1_555
H4 O16 0.990752 1_555
H5 O17 0.990752 1_555
H6 O18 0.990752 1_555
H7 O19 0.990752 1_555
H8 O32 0.996172 1_555
H9 O33 0.996172 1_555
H10 O34 0.996172 1_555
H11 O35 0.996172 1_555
H12 O44 0.999939 1_555
H13 O45 0.999939 1_555
H14 O46 0.999939 1_555
H15 O47 0.999939 1_555
I0 O20 1.851814 1_555
I0 O1 1.865843 1_655
I0 O12 1.929592 1_555
I0 O5 1.933490 1_655
I0 O17 1.972427 1_655
I0 O8 1.978658 1_555
I1 O21 1.851814 1_555
I1 O0 1.865843 1_455
I1 O13 1.929592 1_555
I1 O4 1.933490 1_455
I1 O16 1.972427 1_455
I1 O9 1.978658 1_555
I2 O22 1.851814 1_555
I2 O3 1.865843 1_455
I2 O14 1.929592 1_555
I2 O7 1.933490 1_455
I2 O19 1.972427 1_455
I2 O10 1.978658 1_555
I3 O23 1.851814 1_555
I3 O2 1.865843 1_655
I3 O15 1.929592 1_555
I3 O6 1.933490 1_655
I3 O18 1.972427 1_655
I3 O11 1.978658 1_555
I4 O36 1.853383 1_555
I4 O24 1.877783 1_555
I4 O40 1.930291 1_555
I4 O28 1.933457 1_555
I4 O44 1.966553 1_555
I4 O32 1.974003 1_555
I5 O37 1.853383 1_555
I5 O25 1.877783 1_555
I5 O41 1.930291 1_555
I5 O29 1.933457 1_555
I5 O45 1.966553 1_555
I5 O33 1.974003 1_555
I6 O38 1.853383 1_555
I6 O26 1.877783 1_555
I6 O42 1.930291 1_555
I6 O30 1.933457 1_555
I6 O46 1.966553 1_555
I6 O34 1.974003 1_555
I7 O39 1.853383 1_555
I7 O27 1.877783 1_555
I7 O43 1.930291 1_555
I7 O31 1.933457 1_555
I7 O47 1.966553 1_555
I7 O35 1.974003 1_555
