# generated using pymatgen
data_K4B10H4O19
_symmetry_space_group_name_H-M   'P 1'
_cell_length_a   9.83135950
_cell_length_b   9.83135950
_cell_length_c   13.47511202
_cell_angle_alpha   84.67411710
_cell_angle_beta   84.67411710
_cell_angle_gamma   41.43927347
_symmetry_Int_Tables_number   1
_chemical_formula_structural   K4B10H4O19
_chemical_formula_sum   'K8 B20 H8 O38'
_cell_volume   857.73698581
_cell_formula_units_Z   2
loop_
 _symmetry_equiv_pos_site_id
 _symmetry_equiv_pos_as_xyz
  1  'x, y, z'
loop_
 _atom_site_type_symbol
 _atom_site_label
 _atom_site_symmetry_multiplicity
 _atom_site_fract_x
 _atom_site_fract_y
 _atom_site_fract_z
 _atom_site_occupancy
  K  K0  1  0.07572000  0.80300500  0.93325200  1
  K  K1  1  0.19699500  0.92428000  0.56674800  1
  K  K2  1  0.92428000  0.19699500  0.06674800  1
  K  K3  1  0.80300500  0.07572000  0.43325200  1
  K  K4  1  0.82203900  0.61193900  0.15293000  1
  K  K5  1  0.38806100  0.17796100  0.34707000  1
  K  K6  1  0.17796100  0.38806100  0.84707000  1
  K  K7  1  0.61193900  0.82203900  0.65293000  1
  B  B0  1  0.93014200  0.23381400  0.81035400  1
  B  B1  1  0.76618600  0.06985800  0.68964600  1
  B  B2  1  0.06985800  0.76618600  0.18964600  1
  B  B3  1  0.23381400  0.93014200  0.31035400  1
  B  B4  1  0.63124800  0.29710600  0.82925600  1
  B  B5  1  0.70289400  0.36875200  0.67074400  1
  B  B6  1  0.36875200  0.70289400  0.17074400  1
  B  B7  1  0.29710600  0.63124800  0.32925600  1
  B  B8  1  0.50903300  0.27587600  0.99670400  1
  B  B9  1  0.72412400  0.49096700  0.50329600  1
  B  B10  1  0.49096700  0.72412400  0.00329600  1
  B  B11  1  0.27587600  0.50903300  0.49670400  1
  B  B12  1  0.37549800  0.17814800  0.09837400  1
  B  B13  1  0.82185200  0.62450200  0.40162600  1
  B  B14  1  0.62450200  0.82185200  0.90162600  1
  B  B15  1  0.17814800  0.37549800  0.59837400  1
  B  B16  1  0.70606400  0.03504100  0.14558100  1
  B  B17  1  0.96495900  0.29393600  0.35441900  1
  B  B18  1  0.29393600  0.96495900  0.85441900  1
  B  B19  1  0.03504100  0.70606400  0.64558100  1
  H  H0  1  0.59222400  0.28167100  0.22226200  1
  H  H1  1  0.71832900  0.40777600  0.27773800  1
  H  H2  1  0.40777600  0.71832900  0.77773800  1
  H  H3  1  0.28167100  0.59222400  0.72226200  1
  H  H4  1  0.25935100  0.08433000  0.15382600  1
  H  H5  1  0.91567000  0.74064900  0.34617400  1
  H  H6  1  0.74064900  0.91567000  0.84617400  1
  H  H7  1  0.08433000  0.25935100  0.65382600  1
  O  O0  1  0.69356000  0.11656600  0.78761400  1
  O  O1  1  0.88343400  0.30644000  0.71238600  1
  O  O2  1  0.30644000  0.88343400  0.21238600  1
  O  O3  1  0.11656600  0.69356000  0.28761400  1
  O  O4  1  0.91066100  0.81940600  0.14725900  1
  O  O5  1  0.18059400  0.08933900  0.35274100  1
  O  O6  1  0.08933900  0.18059400  0.85274100  1
  O  O7  1  0.81940600  0.91066100  0.64725900  1
  O  O8  1  0.81876200  0.21853400  0.86811500  1
  O  O9  1  0.78146600  0.18123800  0.63188500  1
  O  O10  1  0.18123800  0.78146600  0.13188500  1
  O  O11  1  0.21853400  0.81876200  0.36811500  1
  O  O12  1  0.54603300  0.45396700  0.75000000  1
  O  O13  1  0.45396700  0.54603300  0.25000000  1
  O  O14  1  0.47677500  0.37810400  0.90944500  1
  O  O15  1  0.62189600  0.52322500  0.59055500  1
  O  O16  1  0.52322500  0.62189600  0.09055500  1
  O  O17  1  0.37810400  0.47677500  0.40944500  1
  O  O18  1  0.34071700  0.31595300  0.02986200  1
  O  O19  1  0.68404700  0.65928300  0.47013800  1
  O  O20  1  0.65928300  0.68404700  0.97013800  1
  O  O21  1  0.31595300  0.34071700  0.52986200  1
  O  O22  1  0.22112600  0.19720800  0.11095600  1
  O  O23  1  0.80279200  0.77887400  0.38904400  1
  O  O24  1  0.77887400  0.80279200  0.88904400  1
  O  O25  1  0.19720800  0.22112600  0.61095600  1
  O  O26  1  0.55240300  0.03346200  0.14985600  1
  O  O27  1  0.96653800  0.44759700  0.35014400  1
  O  O28  1  0.44759700  0.96653800  0.85014400  1
  O  O29  1  0.03346200  0.55240300  0.64985600  1
  O  O30  1  0.67527400  0.13566600  0.23240700  1
  O  O31  1  0.86433400  0.32472600  0.26759300  1
  O  O32  1  0.32472600  0.86433400  0.76759300  1
  O  O33  1  0.13566600  0.67527400  0.73240700  1
  O  O34  1  0.68357900  0.14158200  0.04988000  1
  O  O35  1  0.85841800  0.31642100  0.45012000  1
  O  O36  1  0.31642100  0.85841800  0.95012000  1
  O  O37  1  0.14158200  0.68357900  0.54988000  1
loop_
_geom_bond_atom_site_label_1
_geom_bond_atom_site_label_2
_geom_bond_distance
_geom_bond_site_symmetry_2
K0 O36 2.829157 1_555
K0 O8 2.848502 1_465
K0 O10 2.892419 1_556
K0 O14 2.901482 1_555
K0 O33 2.911037 1_555
K0 O34 3.003131 1_466
K0 O24 3.033820 1_455
K0 O4 3.130612 1_456
K1 O37 2.829157 1_555
K1 O9 2.848502 1_465
K1 O11 2.892419 1_555
K1 O15 2.901482 1_555
K1 O32 2.911037 1_555
K1 O35 3.003131 1_465
K1 O25 3.033820 1_565
K1 O5 3.130612 1_565
K2 O34 2.829157 1_555
K2 O10 2.848502 1_645
K2 O8 2.892419 1_554
K2 O16 2.901482 1_555
K2 O31 2.911037 1_555
K2 O36 3.003131 1_644
K2 O22 3.033820 1_655
K2 O6 3.130612 1_654
K3 O35 2.829157 1_555
K3 O11 2.848502 1_645
K3 O9 2.892419 1_555
K3 O17 2.901482 1_555
K3 O30 2.911037 1_555
K3 O37 3.003131 1_645
K3 O23 3.033820 1_545
K3 O7 3.130612 1_545
K4 O4 2.747442 1_555
K4 O26 2.778561 1_565
K4 O20 2.799421 1_554
K4 O31 2.842958 1_555
K4 O27 2.855389 1_555
K4 O22 2.893024 1_655
K4 O16 3.059141 1_555
K5 O5 2.747442 1_555
K5 O27 2.778561 1_455
K5 O21 2.799421 1_555
K5 O30 2.842958 1_555
K5 O26 2.855389 1_555
K5 O23 2.893024 1_545
K5 O17 3.059141 1_555
K6 O6 2.747442 1_555
K6 O28 2.778561 1_545
K6 O18 2.799421 1_556
K6 O33 2.842958 1_555
K6 O29 2.855389 1_555
K6 O24 2.893024 1_455
K6 O14 3.059141 1_555
K7 O7 2.747442 1_555
K7 O29 2.778561 1_655
K7 O19 2.799421 1_555
K7 O32 2.842958 1_555
K7 O28 2.855389 1_555
K7 O25 2.893024 1_565
K7 O15 3.059141 1_555
B0 O8 1.376279 1_555
B0 O1 1.381806 1_555
B0 O6 1.390064 1_655
B1 O9 1.376279 1_555
B1 O0 1.381806 1_555
B1 O7 1.390064 1_545
B2 O10 1.376279 1_555
B2 O3 1.381806 1_555
B2 O4 1.390064 1_455
B3 O11 1.376279 1_555
B3 O2 1.381806 1_555
B3 O5 1.390064 1_565
B4 O12 1.464228 1_555
B4 O14 1.466290 1_555
B4 O8 1.496145 1_555
B4 O0 1.526895 1_555
B5 O12 1.464228 1_555
B5 O15 1.466290 1_555
B5 O9 1.496145 1_555
B5 O1 1.526895 1_555
B6 O13 1.464228 1_555
B6 O16 1.466290 1_555
B6 O10 1.496145 1_555
B6 O2 1.526895 1_555
B7 O13 1.464228 1_555
B7 O17 1.466290 1_555
B7 O11 1.496145 1_555
B7 O3 1.526895 1_555
B8 O34 1.362744 1_556
B8 O14 1.365724 1_555
B8 O18 1.418109 1_556
B9 O35 1.362744 1_555
B9 O15 1.365724 1_555
B9 O19 1.418109 1_555
B10 O36 1.362744 1_554
B10 O16 1.365724 1_555
B10 O20 1.418109 1_554
B11 O37 1.362744 1_555
B11 O17 1.365724 1_555
B11 O21 1.418109 1_555
B12 O26 1.364207 1_555
B12 O22 1.378030 1_555
B12 O18 1.391607 1_555
B13 O27 1.364207 1_555
B13 O23 1.378030 1_555
B13 O19 1.391607 1_555
B14 O28 1.364207 1_555
B14 O24 1.378030 1_555
B14 O20 1.391607 1_555
B15 O29 1.364207 1_555
B15 O25 1.378030 1_555
B15 O21 1.391607 1_555
B16 O30 1.462641 1_555
B16 O4 1.465228 1_545
B16 O34 1.504669 1_555
B16 O26 1.518092 1_555
B17 O31 1.462641 1_555
B17 O5 1.465228 1_655
B17 O35 1.504669 1_555
B17 O27 1.518092 1_555
B18 O32 1.462641 1_555
B18 O6 1.465228 1_565
B18 O36 1.504669 1_555
B18 O28 1.518092 1_555
B19 O33 1.462641 1_555
B19 O7 1.465228 1_455
B19 O37 1.504669 1_555
B19 O29 1.518092 1_555
H0 O30 0.986342 1_555
H1 O31 0.986342 1_555
H2 O32 0.986342 1_555
H3 O33 0.986342 1_555
H4 O22 1.001240 1_555
H4 K2 2.908789 1_455
H5 O23 1.001240 1_555
H5 K3 2.908789 1_565
H6 O24 1.001240 1_555
H6 K0 2.908789 1_655
H7 O25 1.001240 1_555
H7 K1 2.908789 1_545
