# generated using pymatgen
data_Mg(CuO2)2
_symmetry_space_group_name_H-M   'P 1'
_cell_length_a   5.95910096
_cell_length_b   5.95910096
_cell_length_c   5.87134037
_cell_angle_alpha   60.67732586
_cell_angle_beta   60.67732586
_cell_angle_gamma   59.08216868
_symmetry_Int_Tables_number   1
_chemical_formula_structural   Mg(CuO2)2
_chemical_formula_sum   'Mg2 Cu4 O8'
_cell_volume   147.84023806
_cell_formula_units_Z   2
loop_
 _symmetry_equiv_pos_site_id
 _symmetry_equiv_pos_as_xyz
  1  'x, y, z'
loop_
 _atom_site_type_symbol
 _atom_site_label
 _atom_site_symmetry_multiplicity
 _atom_site_fract_x
 _atom_site_fract_y
 _atom_site_fract_z
 _atom_site_occupancy
  Mg  Mg0  1  0.87657400  0.87657400  0.87579100  1
  Mg  Mg1  1  0.12342600  0.12342600  0.12420900  1
  Cu  Cu0  1  0.00000000  0.50000000  0.50000000  1
  Cu  Cu1  1  0.50000000  0.00000000  0.50000000  1
  Cu  Cu2  1  0.50000000  0.50000000  0.00000000  1
  Cu  Cu3  1  0.50000000  0.50000000  0.50000000  1
  O  O0  1  0.26196800  0.71109600  0.25656800  1
  O  O1  1  0.26639200  0.26639200  0.71512800  1
  O  O2  1  0.25111500  0.25111500  0.27622700  1
  O  O3  1  0.28890400  0.73803200  0.74343200  1
  O  O4  1  0.74888500  0.74888500  0.72377300  1
  O  O5  1  0.73360800  0.73360800  0.28487200  1
  O  O6  1  0.71109600  0.26196800  0.25656800  1
  O  O7  1  0.73803200  0.28890400  0.74343200  1
loop_
_geom_bond_atom_site_label_1
_geom_bond_atom_site_label_2
_geom_bond_distance
_geom_bond_site_symmetry_2
Mg0 O4 1.969769 1_555
Mg0 O5 1.989463 1_556
Mg0 O3 1.999125 1_655
Mg0 O7 1.999125 1_565
Mg1 O2 1.969769 1_555
Mg1 O1 1.989463 1_554
Mg1 O0 1.999125 1_545
Mg1 O6 1.999125 1_455
Cu0 O4 1.966562 1_455
Cu0 O2 1.966562 1_555
Cu0 O1 2.006019 1_555
Cu0 O5 2.006019 1_455
Cu0 O0 2.033189 1_555
Cu0 O7 2.033189 1_455
Cu1 O4 1.966562 1_545
Cu1 O2 1.966562 1_555
Cu1 O1 2.006019 1_555
Cu1 O5 2.006019 1_545
Cu1 O3 2.033189 1_545
Cu1 O6 2.033189 1_555
Cu2 O6 1.947621 1_555
Cu2 O0 1.947621 1_555
Cu2 O7 1.947621 1_554
Cu2 O3 1.947621 1_554
Cu2 O4 2.139667 1_554
Cu2 O2 2.139667 1_555
Cu3 O5 2.004560 1_555
Cu3 O1 2.004560 1_555
Cu3 O3 2.007075 1_555
Cu3 O7 2.007075 1_555
Cu3 O0 2.007075 1_555
Cu3 O6 2.007075 1_555
