# generated using pymatgen
data_BaMg14SnO16
_symmetry_space_group_name_H-M   'P 1'
_cell_length_a   8.84802250
_cell_length_b   9.00386066
_cell_length_c   4.58053530
_cell_angle_alpha   90.00000000
_cell_angle_beta   90.00000000
_cell_angle_gamma   90.00000000
_symmetry_Int_Tables_number   1
_chemical_formula_structural   BaMg14SnO16
_chemical_formula_sum   'Ba1 Mg14 Sn1 O16'
_cell_volume   364.91458202
_cell_formula_units_Z   1
loop_
 _symmetry_equiv_pos_site_id
 _symmetry_equiv_pos_as_xyz
  1  'x, y, z'
loop_
 _atom_site_type_symbol
 _atom_site_label
 _atom_site_symmetry_multiplicity
 _atom_site_fract_x
 _atom_site_fract_y
 _atom_site_fract_z
 _atom_site_occupancy
  Ba  Ba0  1  0.00000000  0.50000000  0.00000000  1
  Mg  Mg0  1  0.50000000  0.00000000  0.00000000  1
  Mg  Mg1  1  0.50000000  0.50000000  0.00000000  1
  Mg  Mg2  1  0.00000000  0.24393171  0.50000000  1
  Mg  Mg3  1  0.00000000  0.75606829  0.50000000  1
  Mg  Mg4  1  0.50000000  0.24912508  0.50000000  1
  Mg  Mg5  1  0.50000000  0.75087492  0.50000000  1
  Mg  Mg6  1  0.26220517  0.00000000  0.50000000  1
  Mg  Mg7  1  0.26658928  0.50000000  0.50000000  1
  Mg  Mg8  1  0.73779483  0.00000000  0.50000000  1
  Mg  Mg9  1  0.73341072  0.50000000  0.50000000  1
  Mg  Mg10  1  0.26595544  0.24598877  0.00000000  1
  Mg  Mg11  1  0.26595544  0.75401123  0.00000000  1
  Mg  Mg12  1  0.73404456  0.24598877  -0.00000000  1
  Mg  Mg13  1  0.73404456  0.75401123  -0.00000000  1
  Sn  Sn0  1  0.00000000  0.00000000  0.00000000  1
  O  O0  1  0.27344294  0.00000000  0.00000000  1
  O  O1  1  0.28200383  0.50000000  0.00000000  1
  O  O2  1  0.72655706  0.00000000  -0.00000000  1
  O  O3  1  0.71799617  0.50000000  -0.00000000  1
  O  O4  1  0.25164632  0.24970883  0.50000000  1
  O  O5  1  0.25164632  0.75029117  0.50000000  1
  O  O6  1  0.74835368  0.24970883  0.50000000  1
  O  O7  1  0.74835368  0.75029117  0.50000000  1
  O  O8  1  0.00000000  0.00000000  0.50000000  1
  O  O9  1  0.00000000  0.50000000  0.50000000  1
  O  O10  1  0.50000000  0.00000000  0.50000000  1
  O  O11  1  0.50000000  0.50000000  0.50000000  1
  O  O12  1  0.00000000  0.23610111  0.00000000  1
  O  O13  1  0.00000000  0.76389889  0.00000000  1
  O  O14  1  0.50000000  0.24619070  0.00000000  1
  O  O15  1  0.50000000  0.75380930  0.00000000  1
loop_
_geom_bond_atom_site_label_1
_geom_bond_atom_site_label_2
_geom_bond_distance
_geom_bond_site_symmetry_2
Ba0 O9 2.290268 1_554
Ba0 O9 2.290268 1_555
Ba0 O12 2.376109 1_555
Ba0 O13 2.376109 1_555
Ba0 O3 2.495176 1_455
Ba0 O1 2.495176 1_555
Mg0 O0 2.004582 1_555
Mg0 O2 2.004582 1_555
Mg0 O15 2.216667 1_545
Mg0 O14 2.216667 1_555
Mg0 O10 2.290268 1_555
Mg0 O10 2.290268 1_554
Mg1 O1 1.928835 1_555
Mg1 O3 1.928835 1_555
Mg1 O15 2.285264 1_555
Mg1 O14 2.285264 1_555
Mg1 O11 2.290268 1_555
Mg1 O11 2.290268 1_554
Mg2 O8 2.196327 1_555
Mg2 O4 2.227180 1_555
Mg2 O6 2.227180 1_455
Mg2 O12 2.291353 1_556
Mg2 O12 2.291353 1_555
Mg2 O9 2.305603 1_555
Mg3 O8 2.196327 1_565
Mg3 O5 2.227180 1_555
Mg3 O7 2.227180 1_455
Mg3 O13 2.291353 1_555
Mg3 O13 2.291353 1_556
Mg3 O9 2.305603 1_555
Mg4 O4 2.197445 1_555
Mg4 O6 2.197445 1_555
Mg4 O10 2.243088 1_555
Mg4 O11 2.258843 1_555
Mg4 O14 2.290420 1_556
Mg4 O14 2.290420 1_555
Mg5 O5 2.197445 1_555
Mg5 O7 2.197445 1_555
Mg5 O10 2.243088 1_565
Mg5 O11 2.258843 1_555
Mg5 O15 2.290420 1_556
Mg5 O15 2.290420 1_555
Mg6 O10 2.104014 1_555
Mg6 O5 2.250284 1_545
Mg6 O4 2.250284 1_555
Mg6 O0 2.292425 1_555
Mg6 O0 2.292425 1_556
Mg6 O8 2.319997 1_555
Mg7 O11 2.065223 1_555
Mg7 O4 2.257462 1_555
Mg7 O5 2.257462 1_555
Mg7 O1 2.294325 1_555
Mg7 O1 2.294325 1_556
Mg7 O9 2.358788 1_555
Mg8 O10 2.104014 1_555
Mg8 O7 2.250284 1_545
Mg8 O6 2.250284 1_555
Mg8 O2 2.292425 1_556
Mg8 O2 2.292425 1_555
Mg8 O8 2.319997 1_655
Mg9 O11 2.065223 1_555
Mg9 O6 2.257462 1_555
Mg9 O7 2.257462 1_555
Mg9 O3 2.294325 1_556
Mg9 O3 2.294325 1_555
Mg9 O9 2.358788 1_655
Mg10 O14 2.070832 1_555
Mg10 O0 2.215839 1_555
Mg10 O1 2.291486 1_555
Mg10 O4 2.294009 1_554
Mg10 O4 2.294009 1_555
Mg10 O12 2.354863 1_555
Mg11 O15 2.070832 1_555
Mg11 O0 2.215839 1_565
Mg11 O1 2.291486 1_555
Mg11 O5 2.294009 1_554
Mg11 O5 2.294009 1_555
Mg11 O13 2.354863 1_555
Mg12 O14 2.070832 1_555
Mg12 O2 2.215839 1_555
Mg12 O3 2.291486 1_555
Mg12 O6 2.294009 1_554
Mg12 O6 2.294009 1_555
Mg12 O12 2.354863 1_655
Mg13 O15 2.070832 1_555
Mg13 O2 2.215839 1_565
Mg13 O3 2.291486 1_555
Mg13 O7 2.294009 1_554
Mg13 O7 2.294009 1_555
Mg13 O13 2.354863 1_655
O0 Sn0 2.419429 1_555
O2 Sn0 2.419429 1_655
O8 Sn0 2.290268 1_556
O8 Sn0 2.290268 1_555
O12 Sn0 2.125821 1_555
O13 Sn0 2.125821 1_565
