# generated using pymatgen
data_La2Ti2O7
_symmetry_space_group_name_H-M   'P 1'
_cell_length_a   5.53956232
_cell_length_b   7.78579186
_cell_length_c   25.81855951
_cell_angle_alpha   90.00000000
_cell_angle_beta   90.00000000
_cell_angle_gamma   90.00000000
_symmetry_Int_Tables_number   1
_chemical_formula_structural   La2Ti2O7
_chemical_formula_sum   'La16 Ti16 O56'
_cell_volume   1113.55135328
_cell_formula_units_Z   8
loop_
 _symmetry_equiv_pos_site_id
 _symmetry_equiv_pos_as_xyz
  1  'x, y, z'
loop_
 _atom_site_type_symbol
 _atom_site_label
 _atom_site_symmetry_multiplicity
 _atom_site_fract_x
 _atom_site_fract_y
 _atom_site_fract_z
 _atom_site_occupancy
  La  La0  1  0.70824110  0.62159102  0.94526602  1
  La  La1  1  0.20824110  0.37840898  0.05473398  1
  La  La2  1  0.70824110  0.87840898  0.44526602  1
  La  La3  1  0.20824110  0.12159102  0.55473398  1
  La  La4  1  0.25415470  0.62434675  0.80761416  1
  La  La5  1  0.75415470  0.37565325  0.19238584  1
  La  La6  1  0.25415470  0.87565325  0.30761416  1
  La  La7  1  0.75415470  0.12434675  0.69238584  1
  La  La8  1  0.74840229  0.62534386  0.70079775  1
  La  La9  1  0.24840229  0.37465614  0.29920225  1
  La  La10  1  0.74840229  0.87465614  0.20079775  1
  La  La11  1  0.24840229  0.12534386  0.79920225  1
  La  La12  1  0.16479340  0.62682878  0.54053710  1
  La  La13  1  0.66479340  0.37317122  0.45946290  1
  La  La14  1  0.16479340  0.87317122  0.04053710  1
  La  La15  1  0.66479340  0.12682878  0.95946290  1
  Ti  Ti0  1  0.21787539  0.87783829  0.91088712  1
  Ti  Ti1  1  0.71787539  0.12216171  0.08911288  1
  Ti  Ti2  1  0.21787539  0.62216171  0.41088712  1
  Ti  Ti3  1  0.71787539  0.37783829  0.58911288  1
  Ti  Ti4  1  0.74315216  0.87283504  0.80885703  1
  Ti  Ti5  1  0.24315216  0.12716496  0.19114297  1
  Ti  Ti6  1  0.74315216  0.62716496  0.30885703  1
  Ti  Ti7  1  0.24315216  0.37283504  0.69114297  1
  Ti  Ti8  1  0.24468087  0.87708832  0.69011479  1
  Ti  Ti9  1  0.74468087  0.12291168  0.30988521  1
  Ti  Ti10  1  0.24468087  0.62291168  0.19011479  1
  Ti  Ti11  1  0.74468087  0.37708832  0.80988521  1
  Ti  Ti12  1  0.71332950  0.87291956  0.58727715  1
  Ti  Ti13  1  0.21332950  0.12708044  0.41272285  1
  Ti  Ti14  1  0.71332950  0.62708044  0.08727715  1
  Ti  Ti15  1  0.21332950  0.37291956  0.91272285  1
  O  O0  1  0.42682147  0.38818061  0.96972428  1
  O  O1  1  0.92682147  0.61181939  0.03027572  1
  O  O2  1  0.42682147  0.11181939  0.46972428  1
  O  O3  1  0.92682147  0.88818061  0.53027572  1
  O  O4  1  0.93924736  0.35742611  0.94875724  1
  O  O5  1  0.43924736  0.64257389  0.05124276  1
  O  O6  1  0.93924736  0.14257389  0.44875724  1
  O  O7  1  0.43924736  0.85742611  0.55124276  1
  O  O8  1  0.29366754  0.12515093  0.90231086  1
  O  O9  1  0.79366754  0.87484907  0.09769014  1
  O  O10  1  0.29366754  0.37484907  0.40230986  1
  O  O11  1  0.79366754  0.62515093  0.59768914  1
  O  O12  1  0.54704795  0.42196497  0.86457514  1
  O  O13  1  0.04704795  0.57803503  0.13542486  1
  O  O14  1  0.54704795  0.07803503  0.36457514  1
  O  O15  1  0.04704795  0.92196497  0.63542486  1
  O  O16  1  0.05722857  0.35815054  0.84241579  1
  O  O17  1  0.55722857  0.64184946  0.15758421  1
  O  O18  1  0.05722857  0.14184946  0.34241579  1
  O  O19  1  0.55722857  0.85815054  0.65758421  1
  O  O20  1  0.70519383  0.12511032  0.80341081  1
  O  O21  1  0.31787197  0.12497394  0.70379517  1
  O  O22  1  0.20519383  0.87488968  0.19658919  1
  O  O23  1  0.20519383  0.62511032  0.69658919  1
  O  O24  1  0.48287392  0.40441079  0.75927942  1
  O  O25  1  0.98287392  0.59558921  0.24072058  1
  O  O26  1  0.48287392  0.09558921  0.25927942  1
  O  O27  1  0.98287392  0.90441079  0.74072058  1
  O  O28  1  0.98339690  0.34533953  0.74135437  1
  O  O29  1  0.48339690  0.65466047  0.25864563  1
  O  O30  1  0.98339690  0.15466047  0.24135437  1
  O  O31  1  0.48339690  0.84533953  0.75864563  1
  O  O32  1  0.43770162  0.86045383  0.96524344  1
  O  O33  1  0.93770162  0.13954617  0.03475656  1
  O  O34  1  0.43770162  0.63954617  0.46524344  1
  O  O35  1  0.93770162  0.36045383  0.53475656  1
  O  O36  1  0.95520977  0.89047560  0.95410443  1
  O  O37  1  0.45520977  0.10952440  0.04589557  1
  O  O38  1  0.95520977  0.60952440  0.45410443  1
  O  O39  1  0.45520977  0.39047560  0.54589557  1
  O  O40  1  0.17912092  0.62462935  0.90400240  1
  O  O41  1  0.67912092  0.37537065  0.09599760  1
  O  O42  1  0.17912092  0.87537065  0.40400240  1
  O  O43  1  0.67912092  0.12462935  0.59599760  1
  O  O44  1  0.54140139  0.82838188  0.86298757  1
  O  O45  1  0.04140139  0.17161812  0.13701243  1
  O  O46  1  0.54140139  0.67161812  0.36298757  1
  O  O47  1  0.04140139  0.32838188  0.63701243  1
  O  O48  1  0.05328838  0.89257025  0.84279326  1
  O  O49  1  0.55328838  0.10742975  0.15720674  1
  O  O50  1  0.05328838  0.60742975  0.34279326  1
  O  O51  1  0.55328838  0.39257025  0.65720674  1
  O  O52  1  0.81787197  0.62497394  0.79620483  1
  O  O53  1  0.31787197  0.37502606  0.20379517  1
  O  O54  1  0.81787197  0.87502606  0.29620483  1
  O  O55  1  0.70519383  0.37488968  0.30341081  1
loop_
_geom_bond_atom_site_label_1
_geom_bond_atom_site_label_2
_geom_bond_distance
_geom_bond_site_symmetry_2
La0 O4 2.424013 1_555
La0 O32 2.443495 1_555
La0 O0 2.476204 1_555
La0 O1 2.507826 1_556
La0 O36 2.511259 1_555
La0 O12 2.748319 1_555
La0 O40 2.817743 1_655
La0 O44 2.821184 1_555
La1 O5 2.424013 1_555
La1 O33 2.443495 1_455
La1 O1 2.476204 1_455
La1 O0 2.507826 1_554
La1 O37 2.511259 1_555
La1 O13 2.748319 1_555
La1 O41 2.817743 1_555
La1 O45 2.821184 1_555
La2 O6 2.424013 1_565
La2 O34 2.443495 1_555
La2 O2 2.476204 1_565
La2 O3 2.507826 1_555
La2 O38 2.511259 1_555
La2 O14 2.748319 1_565
La2 O42 2.817743 1_655
La2 O46 2.821184 1_555
La3 O7 2.424013 1_545
La3 O35 2.443495 1_455
La3 O3 2.476204 1_445
La3 O2 2.507826 1_555
La3 O39 2.511259 1_555
La3 O15 2.748319 1_545
La3 O43 2.817743 1_555
La3 O47 2.821184 1_555
La4 O52 2.434706 1_455
La4 O24 2.468779 1_555
La4 O31 2.484265 1_555
La4 O16 2.508553 1_555
La4 O40 2.523080 1_555
La4 O48 2.534604 1_555
La4 O44 2.664486 1_555
La4 O12 2.697806 1_555
La4 O23 2.879314 1_555
La5 O53 2.434706 1_555
La5 O25 2.468779 1_555
La5 O30 2.484265 1_555
La5 O17 2.508553 1_555
La5 O41 2.523080 1_555
La5 O49 2.534604 1_555
La5 O45 2.664486 1_655
La5 O13 2.697806 1_655
La5 O55 2.879314 1_555
La6 O54 2.434706 1_455
La6 O26 2.468779 1_565
La6 O29 2.484265 1_555
La6 O18 2.508553 1_565
La6 O42 2.523080 1_555
La6 O50 2.534604 1_555
La6 O46 2.664486 1_555
La6 O14 2.697806 1_565
La6 O22 2.879314 1_555
La7 O21 2.434706 1_555
La7 O27 2.468779 1_545
La7 O28 2.484265 1_555
La7 O19 2.508553 1_545
La7 O43 2.523080 1_555
La7 O51 2.534604 1_555
La7 O47 2.664486 1_655
La7 O15 2.697806 1_645
La7 O20 2.879314 1_555
La8 O19 2.377350 1_555
La8 O51 2.391529 1_555
La8 O52 2.493155 1_555
La8 O23 2.532758 1_655
La8 O11 2.673899 1_555
La8 O31 2.705471 1_555
La8 O24 2.720715 1_555
La8 O27 2.733200 1_555
La8 O28 2.746577 1_555
La9 O18 2.377350 1_555
La9 O50 2.391529 1_555
La9 O53 2.493155 1_555
La9 O55 2.532758 1_555
La9 O10 2.673874 1_555
La9 O30 2.705471 1_455
La9 O25 2.720715 1_455
La9 O26 2.733200 1_555
La9 O29 2.746577 1_555
La10 O17 2.377350 1_555
La10 O49 2.391529 1_565
La10 O54 2.493155 1_555
La10 O22 2.532758 1_655
La10 O9 2.673874 1_555
La10 O29 2.705471 1_555
La10 O26 2.720715 1_565
La10 O25 2.733200 1_555
La10 O30 2.746577 1_565
La11 O16 2.377350 1_555
La11 O48 2.391529 1_545
La11 O21 2.493155 1_555
La11 O20 2.532758 1_555
La11 O8 2.673899 1_555
La11 O28 2.705471 1_455
La11 O27 2.720715 1_445
La11 O24 2.733200 1_555
La11 O31 2.746577 1_545
La12 O7 2.368814 1_555
La12 O35 2.430234 1_455
La12 O3 2.438962 1_455
La12 O39 2.448190 1_555
La12 O34 2.464620 1_555
La12 O38 2.519120 1_455
La12 O11 2.530640 1_455
La13 O6 2.368814 1_555
La13 O34 2.430234 1_555
La13 O2 2.438962 1_555
La13 O38 2.448190 1_555
La13 O35 2.464620 1_555
La13 O39 2.519120 1_555
La13 O10 2.530655 1_555
La14 O5 2.368814 1_555
La14 O33 2.430234 1_465
La14 O1 2.438962 1_455
La14 O37 2.448190 1_565
La14 O32 2.464620 1_554
La14 O36 2.519120 1_454
La14 O9 2.530655 1_455
La15 O4 2.368814 1_555
La15 O32 2.430234 1_545
La15 O0 2.438962 1_555
La15 O36 2.448190 1_545
La15 O33 2.464620 1_556
La15 O37 2.519120 1_556
La15 O8 2.530640 1_555
O0 Ti15 1.891737 1_555
O1 Ti14 1.891737 1_555
O2 Ti13 1.891737 1_555
O3 Ti12 1.891737 1_555
O4 Ti15 1.784750 1_655
O5 Ti14 1.784750 1_555
O6 Ti13 1.784750 1_655
O7 Ti12 1.784750 1_555
O8 Ti0 1.983168 1_545
O8 Ti15 1.997912 1_555
O9 Ti1 1.983171 1_565
O9 Ti14 1.997916 1_555
O10 Ti2 1.983171 1_555
O10 Ti13 1.997916 1_555
O11 Ti3 1.983168 1_555
O11 Ti12 1.997912 1_555
O12 Ti11 1.820564 1_555
O12 Ti15 2.260231 1_555
O13 Ti10 1.820564 1_555
O13 Ti14 2.260231 1_455
O14 Ti9 1.820564 1_555
O14 Ti13 2.260231 1_555
O15 Ti8 1.820564 1_555
O15 Ti12 2.260231 1_455
O16 Ti11 1.929981 1_455
O16 Ti15 2.013959 1_555
O17 Ti10 1.929981 1_555
O17 Ti14 2.013959 1_555
O18 Ti9 1.929981 1_455
O18 Ti13 2.013959 1_555
O19 Ti8 1.929981 1_555
O19 Ti12 2.013959 1_555
O20 Ti4 1.980384 1_545
O20 Ti11 1.981070 1_555
O21 Ti7 2.000535 1_555
O21 Ti8 2.003494 1_545
O22 Ti5 1.980384 1_565
O22 Ti10 1.981070 1_555
O23 Ti7 1.980384 1_555
O23 Ti8 1.981070 1_555
O24 Ti11 1.963602 1_555
O24 Ti7 2.217799 1_555
O25 Ti10 1.963602 1_655
O25 Ti6 2.217799 1_555
O26 Ti9 1.963602 1_555
O26 Ti5 2.217799 1_555
O27 Ti8 1.963602 1_655
O27 Ti4 2.217799 1_555
O28 Ti7 1.948580 1_655
O28 Ti11 2.222714 1_555
O29 Ti6 1.948580 1_555
O29 Ti10 2.222714 1_555
O30 Ti5 1.948580 1_655
O30 Ti9 2.222714 1_555
O31 Ti4 1.948580 1_555
O31 Ti8 2.222714 1_555
O32 Ti0 1.862995 1_555
O33 Ti1 1.862995 1_555
O34 Ti2 1.862995 1_555
O35 Ti3 1.862995 1_555
O36 Ti0 1.836270 1_655
O37 Ti1 1.836270 1_555
O38 Ti2 1.836270 1_655
O39 Ti3 1.836270 1_555
O40 Ti15 1.981732 1_555
O40 Ti0 1.991037 1_555
O41 Ti14 1.981732 1_555
O41 Ti1 1.991037 1_555
O42 Ti13 1.981732 1_565
O42 Ti2 1.991037 1_555
O43 Ti12 1.981732 1_545
O43 Ti3 1.991037 1_555
O44 Ti4 1.822649 1_555
O44 Ti0 2.211254 1_555
O45 Ti5 1.822649 1_555
O45 Ti1 2.211254 1_455
O46 Ti6 1.822649 1_555
O46 Ti2 2.211254 1_555
O47 Ti7 1.822649 1_555
O47 Ti3 2.211254 1_455
O48 Ti4 1.934657 1_455
O48 Ti0 1.983757 1_555
O49 Ti5 1.934657 1_555
O49 Ti1 1.983757 1_555
O50 Ti6 1.934657 1_455
O50 Ti2 1.983757 1_555
O51 Ti7 1.934657 1_555
O51 Ti3 1.983757 1_555
O52 Ti4 2.000535 1_555
O52 Ti11 2.003494 1_555
O53 Ti5 2.000535 1_555
O53 Ti10 2.003494 1_555
O54 Ti6 2.000535 1_555
O54 Ti9 2.003494 1_565
O55 Ti6 1.980384 1_555
O55 Ti9 1.981070 1_555
