# generated using pymatgen
data_BaAl2O6
_symmetry_space_group_name_H-M   'P 1'
_cell_length_a   10.75154242
_cell_length_b   5.63167746
_cell_length_c   10.40996317
_cell_angle_alpha   78.04489386
_cell_angle_beta   30.81307682
_cell_angle_gamma   71.00103971
_symmetry_Int_Tables_number   1
_chemical_formula_structural   BaAl2O6
_chemical_formula_sum   'Ba2 Al4 O12'
_cell_volume   301.84826393
_cell_formula_units_Z   2
loop_
 _symmetry_equiv_pos_site_id
 _symmetry_equiv_pos_as_xyz
  1  'x, y, z'
loop_
 _atom_site_type_symbol
 _atom_site_label
 _atom_site_symmetry_multiplicity
 _atom_site_fract_x
 _atom_site_fract_y
 _atom_site_fract_z
 _atom_site_occupancy
  Ba  Ba0  1  0.26161700  0.23637300  0.23718200  1
  Ba  Ba1  1  0.01497700  0.98652100  0.98316800  1
  Al  Al0  1  0.90176600  0.86390000  0.75914200  1
  Al  Al1  1  0.47319100  0.76081400  0.86352600  1
  Al  Al2  1  0.49009700  0.77525700  0.34640700  1
  Al  Al3  1  0.39075800  0.34548700  0.77151700  1
  O  O0  1  0.16527900  0.90825800  0.59844000  1
  O  O1  1  0.33054200  0.59956800  0.90174400  1
  O  O2  1  0.65033300  0.92122800  0.08317500  1
  O  O3  1  0.34030800  0.08503400  0.92426700  1
  O  O4  1  0.82213100  0.07132100  0.66989000  1
  O  O5  1  0.43323900  0.66849400  0.07158100  1
  O  O6  1  0.58567000  0.81129800  0.41956900  1
  O  O7  1  0.19198100  0.41713400  0.79974600  1
  O  O8  1  0.98982900  0.57825300  0.61661800  1
  O  O9  1  0.81450800  0.62063800  0.57929100  1
  O  O10  1  0.63083500  0.43433400  0.26338000  1
  O  O11  1  0.67652500  0.25164400  0.43208400  1
loop_
_geom_bond_atom_site_label_1
_geom_bond_atom_site_label_2
_geom_bond_distance
_geom_bond_site_symmetry_2
Ba0 O9 2.736388 1_455
Ba0 O8 2.740314 1_455
Ba0 O3 2.828411 1_554
Ba0 O5 2.832077 1_555
Ba0 O2 2.833204 1_545
Ba0 O4 2.836663 1_455
Ba0 O4 3.090751 1_554
Ba0 O5 3.095557 1_545
Ba0 O0 3.210373 1_545
Ba0 O1 3.241798 1_554
Ba1 O11 2.730036 1_466
Ba1 O10 2.738418 1_466
Ba1 O1 2.826664 1_555
Ba1 O7 2.827261 1_565
Ba1 O0 2.827792 1_555
Ba1 O6 2.829707 1_456
Ba1 O6 3.108915 1_555
Ba1 O7 3.141899 1_555
Ba1 O3 3.218240 1_565
Ba1 O2 3.218469 1_456
Al0 O2 1.734998 1_556
Al0 O0 1.741946 1_655
Al0 O4 1.796227 1_565
Al0 O8 1.808238 1_555
Al1 O3 1.732916 1_565
Al1 O1 1.744754 1_555
Al1 O5 1.796270 1_556
Al1 O9 1.809792 1_555
Al2 O0 1.735883 1_555
Al2 O2 1.741440 1_555
Al2 O6 1.794779 1_555
Al2 O10 1.808978 1_555
Al3 O1 1.731284 1_555
Al3 O3 1.744819 1_555
Al3 O7 1.795970 1_555
Al3 O11 1.809201 1_555
