# generated using pymatgen
data_Tm4MnS7
_symmetry_space_group_name_H-M   'P 1'
_cell_length_a   6.48001411
_cell_length_b   6.48001411
_cell_length_c   11.36318899
_cell_angle_alpha   75.95324064
_cell_angle_beta   75.95324064
_cell_angle_gamma   33.70463902
_symmetry_Int_Tables_number   1
_chemical_formula_structural   Tm4MnS7
_chemical_formula_sum   'Tm4 Mn1 S7'
_cell_volume   256.11843324
_cell_formula_units_Z   1
loop_
 _symmetry_equiv_pos_site_id
 _symmetry_equiv_pos_as_xyz
  1  'x, y, z'
loop_
 _atom_site_type_symbol
 _atom_site_label
 _atom_site_symmetry_multiplicity
 _atom_site_fract_x
 _atom_site_fract_y
 _atom_site_fract_z
 _atom_site_occupancy
  Tm  Tm0  1  0.69332400  0.69332400  0.20302000  1
  Tm  Tm1  1  0.30596200  0.30596200  0.80280700  1
  Tm  Tm2  1  0.99988500  0.99988500  0.00525000  1
  Tm  Tm3  1  0.11426800  0.11426800  0.56752800  1
  Mn  Mn0  1  0.88557000  0.88557000  0.42107500  1
  S  S0  1  0.74373800  0.74373800  0.64136700  1
  S  S1  1  0.26686500  0.26686500  0.35240200  1
  S  S2  1  0.33905700  0.33905700  0.05083700  1
  S  S3  1  0.65954400  0.65954400  0.94883500  1
  S  S4  1  0.03467200  0.03467200  0.22455100  1
  S  S5  1  0.96299200  0.96299200  0.78450300  1
  S  S6  1  0.49412200  0.49412200  0.49782400  1
loop_
_geom_bond_atom_site_label_1
_geom_bond_atom_site_label_2
_geom_bond_distance
_geom_bond_site_symmetry_2
Mn0 S4 2.512446 1_665
Mn0 S6 2.588074 1_565
Mn0 S6 2.588074 1_655
Mn0 S1 2.624620 1_565
Mn0 S1 2.624620 1_655
Mn0 S0 2.669706 1_555
S0 Tm3 2.737767 1_655
S0 Tm3 2.737767 1_565
S0 Tm1 2.864995 1_565
S0 Tm1 2.864995 1_655
S1 Tm3 2.685392 1_555
S1 Tm0 2.833347 1_545
S1 Tm0 2.833347 1_455
S2 Tm2 2.693075 1_545
S2 Tm2 2.693075 1_455
S2 Tm0 2.863822 1_545
S2 Tm0 2.863822 1_455
S2 Tm1 2.949366 1_554
S3 Tm2 2.686606 1_456
S3 Tm2 2.686606 1_546
S3 Tm1 2.837646 1_655
S3 Tm1 2.837646 1_565
S3 Tm0 3.021911 1_556
S4 Tm2 2.634653 1_445
S4 Tm0 2.686475 1_455
S4 Tm0 2.686475 1_545
S5 Tm2 2.661506 1_556
S5 Tm1 2.675911 1_565
S5 Tm1 2.675911 1_655
S5 Tm3 2.693150 1_665
S6 Tm3 2.641199 1_655
S6 Tm3 2.641199 1_565
