# generated using pymatgen
data_Ga2O3
_symmetry_space_group_name_H-M   'P 1'
_cell_length_a   10.18917624
_cell_length_b   10.42809836
_cell_length_c   9.86864298
_cell_angle_alpha   90.09385798
_cell_angle_beta   86.97408489
_cell_angle_gamma   86.12951773
_symmetry_Int_Tables_number   1
_chemical_formula_structural   Ga2O3
_chemical_formula_sum   'Ga32 O48'
_cell_volume   1044.71565763
_cell_formula_units_Z   16
loop_
 _symmetry_equiv_pos_site_id
 _symmetry_equiv_pos_as_xyz
  1  'x, y, z'
loop_
 _atom_site_type_symbol
 _atom_site_label
 _atom_site_symmetry_multiplicity
 _atom_site_fract_x
 _atom_site_fract_y
 _atom_site_fract_z
 _atom_site_occupancy
  Ga  Ga0  1  0.13605500  0.77651700  0.09350500  1
  Ga  Ga1  1  0.89497400  0.17329000  0.69265100  1
  Ga  Ga2  1  0.39623400  0.86637500  0.27640300  1
  Ga  Ga3  1  0.22842400  0.24979200  0.97971700  1
  Ga  Ga4  1  0.36057400  0.69520100  0.80032300  1
  Ga  Ga5  1  0.06516100  0.26336300  0.40762400  1
  Ga  Ga6  1  0.80753500  0.47261500  0.78480900  1
  Ga  Ga7  1  0.91172200  0.77261600  0.38708700  1
  Ga  Ga8  1  0.11235800  0.01433200  0.86757300  1
  Ga  Ga9  1  0.52810200  0.20928600  0.01701000  1
  Ga  Ga10  1  0.58332800  0.12505100  0.68604600  1
  Ga  Ga11  1  0.10161600  0.95468600  0.39805600  1
  Ga  Ga12  1  0.87470300  0.48501100  0.25060700  1
  Ga  Ga13  1  0.40602600  0.58848500  0.53141400  1
  Ga  Ga14  1  0.75494300  0.35097100  0.51327200  1
  Ga  Ga15  1  0.05964600  0.64518200  0.66412500  1
  Ga  Ga16  1  0.25545300  0.14362200  0.66627400  1
  Ga  Ga17  1  0.81680100  0.27440000  0.02291500  1
  Ga  Ga18  1  0.32993800  0.55621800  0.04685200  1
  Ga  Ga19  1  0.87529100  0.71491600  0.91938800  1
  Ga  Ga20  1  0.40687600  0.95126700  0.97376900  1
  Ga  Ga21  1  0.41822000  0.37701800  0.76722800  1
  Ga  Ga22  1  0.14547900  0.56240200  0.34843700  1
  Ga  Ga23  1  0.48669200  0.90009200  0.58151000  1
  Ga  Ga24  1  0.04543500  0.49556900  0.97406800  1
  Ga  Ga25  1  0.59712700  0.69446600  0.01949200  1
  Ga  Ga26  1  0.00174800  0.04206200  0.13682100  1
  Ga  Ga27  1  0.36468100  0.33051000  0.44446800  1
  Ga  Ga28  1  0.75202200  0.99052900  0.95536600  1
  Ga  Ga29  1  0.63972100  0.72883700  0.35369200  1
  Ga  Ga30  1  0.56584800  0.43892000  0.24949200  1
  Ga  Ga31  1  0.81347300  0.88861700  0.63929200  1
  O  O0  1  0.23822600  0.69161600  0.94989200  1
  O  O1  1  0.23817200  0.64029700  0.66830100  1
  O  O2  1  0.64447200  0.31511900  0.08260500  1
  O  O3  1  0.73642400  0.48981400  0.62401200  1
  O  O4  1  0.45780100  0.73145000  0.63355000  1
  O  O5  1  0.57311600  0.03494600  0.98090300  1
  O  O6  1  0.45615500  0.40491300  0.58662100  1
  O  O7  1  0.54073100  0.24816400  0.82302000  1
  O  O8  1  0.99372200  0.51525600  0.79213400  1
  O  O9  1  0.03731200  0.91059400  0.99467500  1
  O  O10  1  0.63034200  0.94708300  0.68248900  1
  O  O11  1  0.08244800  0.15503500  0.99868100  1
  O  O12  1  0.84059400  0.02217600  0.78469700  1
  O  O13  1  0.75477200  0.78416200  0.49230700  1
  O  O14  1  0.75060800  0.82426400  0.00079200  1
  O  O15  1  0.74103900  0.38974600  0.32785800  1
  O  O16  1  0.03250700  0.65429700  0.47355500  1
  O  O17  1  0.29231800  0.98928000  0.82891800  1
  O  O18  1  0.22422200  0.23233900  0.49366900  1
  O  O19  1  0.26543100  0.28122500  0.79038600  1
  O  O20  1  0.28529900  0.49810000  0.43334100  1
  O  O21  1  0.29804200  0.90481200  0.12578200  1
  O  O22  1  0.02264100  0.86544200  0.24960000  1
  O  O23  1  0.92460600  0.76337300  0.74004600  1
  O  O24  1  0.99592900  0.65668600  0.04358700  1
  O  O25  1  0.74208500  0.59102200  0.91995300  1
  O  O26  1  0.83273400  0.10025500  0.07915600  1
  O  O27  1  0.91572800  0.40613800  0.07940900  1
  O  O28  1  0.48084400  0.78703800  0.90750100  1
  O  O29  1  0.84383800  0.29673200  0.83500400  1
  O  O30  1  0.36194100  0.16526100  0.06041000  1
  O  O31  1  0.93676900  0.28369200  0.54381900  1
  O  O32  1  0.50168200  0.54519600  0.10692100  1
  O  O33  1  0.21974900  0.64378000  0.20333000  1
  O  O34  1  0.03969800  0.42290000  0.31863600  1
  O  O35  1  0.52791500  0.88678400  0.40086700  1
  O  O36  1  0.42547300  0.08280200  0.60318000  1
  O  O37  1  0.95280500  0.92425600  0.50622900  1
  O  O38  1  0.08048000  0.09448200  0.70235500  1
  O  O39  1  0.41933900  0.52479400  0.86063400  1
  O  O40  1  0.20362600  0.42298600  0.03192500  1
  O  O41  1  0.81856700  0.65571500  0.27409000  1
  O  O42  1  0.72110500  0.19011300  0.58781900  1
  O  O43  1  0.54075400  0.58425000  0.38918000  1
  O  O44  1  0.46720100  0.30409100  0.29455400  1
  O  O45  1  0.26747100  0.89420600  0.42179700  1
  O  O46  1  0.55605200  0.77832100  0.18709400  1
  O  O47  1  0.05688600  0.11319100  0.30260500  1
loop_
_geom_bond_atom_site_label_1
_geom_bond_atom_site_label_2
_geom_bond_distance
_geom_bond_site_symmetry_2
Ga0 O0 1.895243 1_554
Ga0 O33 1.939336 1_555
Ga0 O9 1.958707 1_554
Ga0 O24 2.038585 1_455
Ga0 O22 2.056941 1_555
Ga0 O21 2.228852 1_555
Ga1 O31 1.915668 1_555
Ga1 O12 1.919589 1_555
Ga1 O29 1.930888 1_555
Ga1 O38 2.016654 1_655
Ga1 O42 2.095640 1_555
Ga2 O21 1.864385 1_555
Ga2 O35 1.888357 1_555
Ga2 O45 1.900737 1_555
Ga2 O46 1.978798 1_555
Ga3 O30 1.793522 1_556
Ga3 O11 1.842106 1_555
Ga3 O40 1.874256 1_556
Ga3 O19 1.919637 1_555
Ga4 O0 1.883184 1_555
Ga4 O4 1.927043 1_555
Ga4 O39 1.941138 1_555
Ga4 O28 1.956934 1_555
Ga4 O1 1.961186 1_555
Ga5 O31 1.827249 1_455
Ga5 O18 1.878243 1_555
Ga5 O47 1.885561 1_555
Ga5 O34 1.891267 1_555
Ga6 O3 1.783261 1_555
Ga6 O25 1.880857 1_555
Ga6 O29 1.917537 1_555
Ga6 O8 1.982465 1_555
Ga7 O13 1.856992 1_555
Ga7 O16 1.916890 1_655
Ga7 O41 1.973331 1_555
Ga7 O22 2.011306 1_655
Ga7 O37 2.047794 1_555
Ga8 O9 1.828431 1_545
Ga8 O17 1.853962 1_545
Ga8 O38 1.867155 1_555
Ga8 O11 1.952331 1_555
Ga9 O30 1.813734 1_555
Ga9 O2 1.816131 1_555
Ga9 O5 1.873669 1_554
Ga9 O7 1.956911 1_554
Ga10 O42 1.832435 1_555
Ga10 O7 1.876428 1_555
Ga10 O10 1.884925 1_545
Ga10 O36 1.919168 1_555
Ga11 O45 1.790785 1_555
Ga11 O37 1.853247 1_455
Ga11 O47 1.943155 1_565
Ga11 O22 1.970057 1_555
Ga12 O41 1.843063 1_555
Ga12 O15 1.870419 1_555
Ga12 O27 1.892112 1_555
Ga12 O34 1.915756 1_655
Ga13 O20 1.901977 1_555
Ga13 O43 1.909155 1_555
Ga13 O4 1.916844 1_555
Ga13 O6 2.030537 1_555
Ga13 O1 2.161218 1_555
Ga14 O3 1.806217 1_555
Ga14 O42 1.878631 1_555
Ga14 O15 1.885136 1_555
Ga14 O31 1.974747 1_555
Ga15 O1 1.818952 1_555
Ga15 O23 1.906003 1_455
Ga15 O16 1.916860 1_555
Ga15 O8 1.980315 1_455
Ga16 O36 1.878172 1_555
Ga16 O19 1.896482 1_555
Ga16 O38 1.903885 1_555
Ga16 O18 1.970102 1_555
Ga16 O17 2.301810 1_545
Ga17 O2 1.843847 1_555
Ga17 O27 1.859540 1_555
Ga17 O29 1.877542 1_554
Ga17 O26 1.898757 1_555
Ga18 O32 1.873357 1_555
Ga18 O0 1.924346 1_554
Ga18 O40 1.967020 1_555
Ga18 O39 2.023701 1_554
Ga18 O33 2.037858 1_555
Ga19 O14 1.803682 1_556
Ga19 O24 1.855445 1_556
Ga19 O23 1.893029 1_555
Ga19 O25 1.935808 1_555
Ga20 O21 1.901095 1_556
Ga20 O17 1.917963 1_555
Ga20 O28 1.923209 1_555
Ga20 O5 1.961496 1_565
Ga20 O30 2.394787 1_566
Ga21 O39 1.795385 1_555
Ga21 O6 1.831645 1_555
Ga21 O7 1.874952 1_555
Ga21 O19 1.909673 1_555
Ga22 O20 1.783316 1_555
Ga22 O33 1.822016 1_555
Ga22 O16 1.861472 1_555
Ga22 O34 1.899527 1_555
Ga23 O35 1.812725 1_555
Ga23 O4 1.870834 1_555
Ga23 O10 1.903879 1_555
Ga23 O36 1.972104 1_565
Ga24 O24 1.842085 1_456
Ga24 O40 1.852241 1_556
Ga24 O8 1.905224 1_455
Ga24 O27 1.929148 1_456
Ga25 O28 1.882688 1_554
Ga25 O46 1.883699 1_555
Ga25 O25 1.984535 1_554
Ga25 O32 2.057521 1_555
Ga25 O14 2.137257 1_555
Ga26 O26 1.902969 1_455
Ga26 O47 1.921415 1_555
Ga26 O9 1.962555 1_544
Ga26 O11 1.984990 1_554
Ga26 O22 2.157568 1_545
Ga27 O44 1.775527 1_555
Ga27 O18 1.859591 1_555
Ga27 O20 1.881412 1_555
Ga27 O6 1.915936 1_555
Ga28 O14 1.792364 1_556
Ga28 O5 1.854228 1_565
Ga28 O12 1.908323 1_565
Ga28 O26 1.925233 1_566
Ga29 O43 1.892770 1_555
Ga29 O46 1.946146 1_555
Ga29 O13 1.958665 1_555
Ga29 O35 1.978791 1_555
Ga29 O41 2.044167 1_555
Ga30 O44 1.824982 1_555
Ga30 O32 1.907797 1_555
Ga30 O15 2.017655 1_555
Ga30 O43 2.041113 1_555
Ga30 O2 2.176014 1_555
Ga31 O37 1.937520 1_555
Ga31 O10 1.948542 1_555
Ga31 O13 1.955171 1_555
Ga31 O23 1.974871 1_555
Ga31 O12 2.040225 1_565
