# generated using pymatgen
data_Tb2Ge2O7
_symmetry_space_group_name_H-M   'P 1'
_cell_length_a   6.83413062
_cell_length_b   6.83413062
_cell_length_c   12.45113394
_cell_angle_alpha   90.00000000
_cell_angle_beta   90.00000000
_cell_angle_gamma   90.00000000
_symmetry_Int_Tables_number   1
_chemical_formula_structural   Tb2Ge2O7
_chemical_formula_sum   'Tb8 Ge8 O28'
_cell_volume   581.53446063
_cell_formula_units_Z   4
loop_
 _symmetry_equiv_pos_site_id
 _symmetry_equiv_pos_as_xyz
  1  'x, y, z'
loop_
 _atom_site_type_symbol
 _atom_site_label
 _atom_site_symmetry_multiplicity
 _atom_site_fract_x
 _atom_site_fract_y
 _atom_site_fract_z
 _atom_site_occupancy
  Tb  Tb0  1  0.64820340  0.12430254  0.86496009  1
  Tb  Tb1  1  0.35179660  0.87569746  0.36496009  1
  Tb  Tb2  1  0.12430254  0.64820340  0.13503991  1
  Tb  Tb3  1  0.62430254  0.85179660  0.61496009  1
  Tb  Tb4  1  0.37569746  0.14820340  0.11496009  1
  Tb  Tb5  1  0.85179660  0.62430254  0.38503991  1
  Tb  Tb6  1  0.14820340  0.37569746  0.88503991  1
  Tb  Tb7  1  0.87569746  0.35179660  0.63503991  1
  Ge  Ge0  1  0.65342895  0.59942975  0.86981511  1
  Ge  Ge1  1  0.34657105  0.40057025  0.36981511  1
  Ge  Ge2  1  0.59942975  0.65342895  0.13018489  1
  Ge  Ge3  1  0.09942975  0.84657105  0.61981511  1
  Ge  Ge4  1  0.90057025  0.15342895  0.11981511  1
  Ge  Ge5  1  0.84657105  0.09942975  0.38018489  1
  Ge  Ge6  1  0.15342895  0.90057025  0.88018489  1
  Ge  Ge7  1  0.40057025  0.34657105  0.63018489  1
  O  O0  1  0.30350624  0.30350624  0.50000000  1
  O  O1  1  0.19649376  0.80350624  0.75000000  1
  O  O2  1  0.80350624  0.19649376  0.25000000  1
  O  O3  1  0.69649376  0.69649376  0.00000000  1
  O  O4  1  0.53050709  0.57654284  0.37370769  1
  O  O5  1  0.46949291  0.42345716  0.87370769  1
  O  O6  1  0.57654284  0.53050709  0.62629231  1
  O  O7  1  0.07654284  0.96949291  0.12370769  1
  O  O8  1  0.92345716  0.03050709  0.62370769  1
  O  O9  1  0.96949291  0.07654284  0.87629231  1
  O  O10  1  0.03050709  0.92345716  0.37629231  1
  O  O11  1  0.42345716  0.46949291  0.12629231  1
  O  O12  1  0.81466012  0.64334144  0.20491114  1
  O  O13  1  0.18533988  0.35665856  0.70491114  1
  O  O14  1  0.64334144  0.81466012  0.79508886  1
  O  O15  1  0.14334144  0.68533988  0.95491114  1
  O  O16  1  0.06295130  0.33821076  0.07164204  1
  O  O17  1  0.16178924  0.56295130  0.32164204  1
  O  O18  1  0.83821076  0.43704870  0.82164204  1
  O  O19  1  0.56295130  0.16178924  0.67835796  1
  O  O20  1  0.43704870  0.83821076  0.17835796  1
  O  O21  1  0.93704870  0.66178924  0.57164204  1
  O  O22  1  0.33821076  0.06295130  0.92835796  1
  O  O23  1  0.66178924  0.93704870  0.42835796  1
  O  O24  1  0.35665856  0.18533988  0.29508886  1
  O  O25  1  0.31466012  0.85665856  0.54508886  1
  O  O26  1  0.68533988  0.14334144  0.04508886  1
  O  O27  1  0.85665856  0.31466012  0.45491114  1
loop_
_geom_bond_atom_site_label_1
_geom_bond_atom_site_label_2
_geom_bond_distance
_geom_bond_site_symmetry_2
Ge0 O5 1.740345 1_555
Ge0 O14 1.741847 1_555
Ge0 O3 1.775986 1_556
Ge0 O18 1.784937 1_555
Ge1 O4 1.740345 1_555
Ge1 O24 1.741847 1_555
Ge1 O0 1.775986 1_555
Ge1 O17 1.784937 1_555
Ge2 O11 1.740345 1_555
Ge2 O12 1.741847 1_555
Ge2 O3 1.775986 1_555
Ge2 O20 1.784937 1_555
Ge3 O8 1.740345 1_465
Ge3 O25 1.741847 1_555
Ge3 O1 1.775986 1_555
Ge3 O21 1.784937 1_455
Ge4 O7 1.740345 1_645
Ge4 O26 1.741847 1_555
Ge4 O2 1.775986 1_555
Ge4 O16 1.784937 1_655
Ge5 O10 1.740345 1_645
Ge5 O27 1.741847 1_555
Ge5 O2 1.775986 1_555
Ge5 O23 1.784937 1_545
Ge6 O9 1.740345 1_465
Ge6 O15 1.741847 1_555
Ge6 O1 1.775986 1_555
Ge6 O22 1.784937 1_565
Ge7 O6 1.740345 1_555
Ge7 O13 1.741847 1_555
Ge7 O0 1.775986 1_555
Ge7 O19 1.784937 1_555
O4 Tb5 2.224341 1_555
O4 Tb1 2.383975 1_555
O5 Tb6 2.224341 1_555
O5 Tb0 2.383975 1_555
O6 Tb3 2.224341 1_555
O6 Tb7 2.383975 1_555
O7 Tb2 2.224341 1_555
O7 Tb4 2.383975 1_565
O8 Tb7 2.224341 1_555
O8 Tb3 2.383975 1_545
O9 Tb0 2.224341 1_555
O9 Tb6 2.383975 1_655
O10 Tb1 2.224341 1_555
O10 Tb5 2.383975 1_455
O11 Tb4 2.224341 1_555
O11 Tb2 2.383975 1_555
O12 Tb5 2.260869 1_555
O12 Tb2 2.288230 1_655
O13 Tb6 2.260869 1_555
O13 Tb7 2.288230 1_455
O14 Tb3 2.260869 1_555
O14 Tb0 2.288230 1_565
O15 Tb2 2.260869 1_556
O15 Tb6 2.288230 1_555
O16 Tb2 2.299365 1_555
O16 Tb6 2.409006 1_554
O16 Tb4 2.558390 1_555
O17 Tb5 2.299365 1_455
O17 Tb2 2.409006 1_555
O17 Tb1 2.558390 1_555
O18 Tb6 2.299365 1_655
O18 Tb7 2.409006 1_555
O18 Tb0 2.558390 1_555
O19 Tb3 2.299365 1_545
O19 Tb0 2.409006 1_555
O19 Tb7 2.558390 1_555
O20 Tb4 2.299365 1_565
O20 Tb1 2.409006 1_555
O20 Tb2 2.558390 1_555
O21 Tb7 2.299365 1_555
O21 Tb5 2.409006 1_555
O21 Tb3 2.558390 1_555
O22 Tb0 2.299365 1_555
O22 Tb4 2.409006 1_556
O22 Tb6 2.558390 1_555
O23 Tb1 2.299365 1_555
O23 Tb3 2.409006 1_555
O23 Tb5 2.558390 1_555
O24 Tb4 2.260869 1_555
O24 Tb1 2.288230 1_545
O25 Tb1 2.260869 1_555
O25 Tb3 2.288230 1_555
O26 Tb0 2.260869 1_554
O26 Tb4 2.288230 1_555
O27 Tb7 2.260869 1_555
O27 Tb5 2.288230 1_555
