# generated using pymatgen
data_Si7GeN10
_symmetry_space_group_name_H-M   'P 1'
_cell_length_a   6.96131580
_cell_length_b   6.75012100
_cell_length_c   9.77788780
_cell_angle_alpha   90.00000000
_cell_angle_beta   106.51030844
_cell_angle_gamma   90.00000000
_symmetry_Int_Tables_number   1
_chemical_formula_structural   Si7GeN10
_chemical_formula_sum   'Si14 Ge2 N20'
_cell_volume   440.51606898
_cell_formula_units_Z   2
loop_
 _symmetry_equiv_pos_site_id
 _symmetry_equiv_pos_as_xyz
  1  'x, y, z'
loop_
 _atom_site_type_symbol
 _atom_site_label
 _atom_site_symmetry_multiplicity
 _atom_site_fract_x
 _atom_site_fract_y
 _atom_site_fract_z
 _atom_site_occupancy
  Si  Si0  1  0.54036000  0.97310100  0.82798000  1
  Si  Si1  1  0.54036000  0.02689900  0.32798000  1
  Si  Si2  1  0.35705500  0.03244900  0.01666300  1
  Si  Si3  1  0.35705500  0.96755100  0.51666300  1
  Si  Si4  1  0.09765200  0.40721600  0.07553000  1
  Si  Si5  1  0.09765200  0.59278400  0.57553000  1
  Si  Si6  1  0.66034300  0.36878100  0.99144000  1
  Si  Si7  1  0.66034300  0.63121900  0.49144000  1
  Si  Si8  1  0.84014400  0.62092800  0.80390900  1
  Si  Si9  1  0.84014400  0.37907200  0.30390900  1
  Si  Si10  1  0.28860500  0.61390500  0.88312200  1
  Si  Si11  1  0.28860500  0.38609500  0.38312200  1
  Si  Si12  1  0.47767500  0.37325900  0.68778300  1
  Si  Si13  1  0.47767500  0.62674100  0.18778300  1
  Ge  Ge0  1  0.09471100  0.01962400  0.68234300  1
  Ge  Ge1  1  0.09471100  0.98037600  0.18234300  1
  N  N0  1  0.72479100  0.83190100  0.81846500  1
  N  N1  1  0.72479100  0.16809900  0.31846500  1
  N  N2  1  0.55212400  0.13848300  0.96842900  1
  N  N3  1  0.55212400  0.86151700  0.46842900  1
  N  N4  1  0.31021300  0.87228800  0.86354800  1
  N  N5  1  0.31021300  0.12771200  0.36354800  1
  N  N6  1  0.16508100  0.16666100  0.04503100  1
  N  N7  1  0.16508100  0.83333900  0.54503100  1
  N  N8  1  0.28058100  0.49943000  0.72440600  1
  N  N9  1  0.28058100  0.50057000  0.22440600  1
  N  N10  1  0.41727200  0.11657400  0.67144300  1
  N  N11  1  0.41727200  0.88342600  0.17144300  1
  N  N12  1  0.87995100  0.38888100  0.12984700  1
  N  N13  1  0.87995100  0.61111900  0.62984700  1
  N  N14  1  0.07155400  0.57050100  0.93194300  1
  N  N15  1  0.07155400  0.42949900  0.43194300  1
  N  N16  1  0.69426100  0.41428900  0.82377800  1
  N  N17  1  0.69426100  0.58571100  0.32377800  1
  N  N18  1  0.48992600  0.53984900  0.02364000  1
  N  N19  1  0.48992600  0.46015100  0.52364000  1
loop_
_geom_bond_atom_site_label_1
_geom_bond_atom_site_label_2
_geom_bond_distance
_geom_bond_site_symmetry_2
Ge0 N7 1.999399 1_545
Ge0 N4 2.206392 1_545
Ge0 N10 2.370167 1_555
Ge1 N6 1.999399 1_565
Ge1 N5 2.206392 1_565
Ge1 N11 2.370167 1_555
N0 Si0 1.622755 1_555
N0 Si8 1.660747 1_555
N1 Si1 1.622755 1_555
N1 Si9 1.660747 1_555
N2 Si6 1.714178 1_555
N2 Si2 1.715436 1_556
N2 Si0 1.753556 1_545
N3 Si7 1.714178 1_555
N3 Si3 1.715436 1_555
N3 Si1 1.753556 1_565
N4 Si10 1.765662 1_555
N4 Si2 1.799743 1_566
N4 Si0 1.862131 1_555
N5 Si11 1.765662 1_555
N5 Si3 1.799743 1_545
N5 Si1 1.862131 1_555
N6 Si2 1.701268 1_555
N6 Si4 1.739388 1_555
N7 Si3 1.701268 1_555
N7 Si5 1.739388 1_555
N8 Si10 1.720280 1_555
N8 Si12 1.736463 1_555
N8 Si5 1.756172 1_555
N9 Si11 1.720280 1_555
N9 Si13 1.736463 1_555
N9 Si4 1.756172 1_555
N10 Si3 1.765634 1_545
N10 Si12 1.779394 1_555
N10 Si0 1.808156 1_545
N11 Si2 1.765634 1_565
N11 Si13 1.779394 1_555
N11 Si1 1.808156 1_565
N12 Si6 1.735250 1_554
N12 Si4 1.746872 1_655
N12 Si9 1.801638 1_555
N13 Si7 1.735250 1_555
N13 Si5 1.746872 1_655
N13 Si8 1.801638 1_555
N14 Si10 1.733977 1_555
N14 Si4 1.753287 1_556
N14 Si8 1.769726 1_455
N15 Si11 1.733977 1_555
N15 Si5 1.753287 1_555
N15 Si9 1.769726 1_455
N16 Si12 1.725870 1_555
N16 Si6 1.748624 1_555
N16 Si8 1.768268 1_555
N17 Si13 1.725870 1_555
N17 Si7 1.748624 1_555
N17 Si9 1.768268 1_555
N18 Si13 1.733501 1_555
N18 Si10 1.734164 1_554
N18 Si6 1.747054 1_554
N19 Si12 1.733501 1_555
N19 Si11 1.734164 1_555
N19 Si7 1.747054 1_555
