# generated using pymatgen
data_Cr(BMo)2
_symmetry_space_group_name_H-M   'P 1'
_cell_length_a   5.80779667
_cell_length_b   5.80779667
_cell_length_c   3.11437649
_cell_angle_alpha   90.00000000
_cell_angle_beta   90.00000000
_cell_angle_gamma   90.00000000
_symmetry_Int_Tables_number   1
_chemical_formula_structural   Cr(BMo)2
_chemical_formula_sum   'Cr2 B4 Mo4'
_cell_volume   105.04948292
_cell_formula_units_Z   2
loop_
 _symmetry_equiv_pos_site_id
 _symmetry_equiv_pos_as_xyz
  1  'x, y, z'
loop_
 _atom_site_type_symbol
 _atom_site_label
 _atom_site_symmetry_multiplicity
 _atom_site_fract_x
 _atom_site_fract_y
 _atom_site_fract_z
 _atom_site_occupancy
  Cr  Cr0  1  0.99999900  0.99999900  -0.00000000  1
  Cr  Cr1  1  0.50000100  0.50000100  -0.00000000  1
  B  B0  1  0.11416995  0.61416664  0.00000000  1
  B  B1  1  0.88582905  0.38583336  -0.00000000  1
  B  B2  1  0.61416764  0.88582905  0.00000000  1
  B  B3  1  0.38583336  0.11417095  -0.00000000  1
  Mo  Mo0  1  0.67696681  0.17697185  0.50000000  1
  Mo  Mo1  1  0.32303419  0.82302715  0.50000000  1
  Mo  Mo2  1  0.17697085  0.32303519  0.50000000  1
  Mo  Mo3  1  0.82302815  0.67696581  0.50000000  1
loop_
_geom_bond_atom_site_label_1
_geom_bond_atom_site_label_2
_geom_bond_distance
_geom_bond_site_symmetry_2
Cr0 Mo3 2.645945 1_554
Cr0 Mo3 2.645945 1_555
Cr0 Mo0 2.645945 1_565
Cr0 Mo0 2.645945 1_564
Cr0 Mo1 2.645955 1_655
Cr0 Mo1 2.645955 1_654
Cr0 Mo2 2.645959 1_665
Cr0 Mo2 2.645959 1_664
Cr1 Mo3 2.645906 1_555
Cr1 Mo3 2.645906 1_554
Cr1 Mo1 2.645907 1_555
Cr1 Mo1 2.645907 1_554
Cr1 Mo0 2.645917 1_555
Cr1 Mo0 2.645917 1_554
Cr1 Mo2 2.645921 1_555
Cr1 Mo2 2.645921 1_554
B0 B1 1.875439 1_455
B0 Mo1 2.316834 1_554
B0 Mo1 2.316834 1_555
B0 Mo2 2.327398 1_554
B0 Mo2 2.327398 1_555
B0 Mo3 2.327440 1_454
B0 Mo3 2.327440 1_455
B0 Cr1 2.336867 1_555
B0 Cr0 2.336883 1_455
B1 Mo0 2.316831 1_555
B1 Mo0 2.316831 1_554
B1 Mo3 2.327402 1_555
B1 Mo3 2.327402 1_554
B1 Mo2 2.327439 1_654
B1 Mo2 2.327439 1_655
B1 Cr1 2.336854 1_555
B1 Cr0 2.336893 1_545
B2 B3 1.875447 1_565
B2 Mo3 2.316831 1_554
B2 Mo3 2.316831 1_555
B2 Mo1 2.327407 1_555
B2 Mo1 2.327407 1_554
B2 Mo0 2.327444 1_565
B2 Mo0 2.327444 1_564
B2 Cr1 2.336852 1_555
B2 Cr0 2.336876 1_555
B3 Mo2 2.316840 1_555
B3 Mo2 2.316840 1_554
B3 Mo0 2.327406 1_554
B3 Mo0 2.327406 1_555
B3 Mo1 2.327448 1_545
B3 Mo1 2.327448 1_544
B3 Cr1 2.336865 1_555
B3 Cr0 2.336896 1_445
