# generated using pymatgen
data_Li5Mn8(BO3)8
_symmetry_space_group_name_H-M   'P 1'
_cell_length_a   5.32217300
_cell_length_b   9.10645149
_cell_length_c   10.42225084
_cell_angle_alpha   89.90108832
_cell_angle_beta   87.44258480
_cell_angle_gamma   89.84003760
_symmetry_Int_Tables_number   1
_chemical_formula_structural   Li5Mn8(BO3)8
_chemical_formula_sum   'Li5 Mn8 B8 O24'
_cell_volume   504.62024259
_cell_formula_units_Z   1
loop_
 _symmetry_equiv_pos_site_id
 _symmetry_equiv_pos_as_xyz
  1  'x, y, z'
loop_
 _atom_site_type_symbol
 _atom_site_label
 _atom_site_symmetry_multiplicity
 _atom_site_fract_x
 _atom_site_fract_y
 _atom_site_fract_z
 _atom_site_occupancy
  Li  Li0  1  0.16196600  0.99786300  0.85251900  1
  Li  Li1  1  0.63449100  0.51773900  0.33284600  1
  Li  Li2  1  0.64518400  0.48877700  0.83527800  1
  Li  Li3  1  0.84428800  0.99888700  0.08768600  1
  Li  Li4  1  0.86483800  0.00737500  0.57977300  1
  Mn  Mn0  1  0.14855400  0.30831200  0.36608500  1
  Mn  Mn1  1  0.15270800  0.67496100  0.86468600  1
  Mn  Mn2  1  0.33209300  0.82895500  0.12760600  1
  Mn  Mn3  1  0.34593000  0.17115600  0.62262800  1
  Mn  Mn4  1  0.65452000  0.84757900  0.37118000  1
  Mn  Mn5  1  0.65402800  0.16269300  0.87524700  1
  Mn  Mn6  1  0.83759400  0.34531200  0.11994600  1
  Mn  Mn7  1  0.83654500  0.65561800  0.61445700  1
  B  B0  1  0.15956100  0.65346400  0.37133800  1
  B  B1  1  0.15804900  0.33934500  0.87480000  1
  B  B2  1  0.33197600  0.16110600  0.12305600  1
  B  B3  1  0.33706200  0.83443200  0.63610600  1
  B  B4  1  0.67795000  0.17995200  0.37375400  1
  B  B5  1  0.67099800  0.82771600  0.87073700  1
  B  B6  1  0.83324200  0.68431500  0.11962100  1
  B  B7  1  0.83594600  0.31408100  0.62535400  1
  O  O0  1  0.06434800  0.69415400  0.04858700  1
  O  O1  1  0.05873900  0.29681400  0.55091200  1
  O  O2  1  0.19438600  0.03875200  0.09989100  1
  O  O3  1  0.21621100  0.28570900  0.17974500  1
  O  O4  1  0.19789400  0.96145600  0.64874000  1
  O  O5  1  0.22492900  0.70049100  0.67865000  1
  O  O6  1  0.27883000  0.52106400  0.37307500  1
  O  O7  1  0.28727700  0.77882600  0.32709300  1
  O  O8  1  0.26932700  0.20635800  0.83383000  1
  O  O9  1  0.29164700  0.46671300  0.87207400  1
  O  O10  1  0.42757200  0.18414900  0.41516100  1
  O  O11  1  0.41283000  0.83157500  0.89986000  1
  O  O12  1  0.58852300  0.16795100  0.08432500  1
  O  O13  1  0.58298900  0.83428700  0.58297000  1
  O  O14  1  0.72302100  0.55446800  0.14943700  1
  O  O15  1  0.72541800  0.81762300  0.16259100  1
  O  O16  1  0.72630400  0.18228000  0.67160000  1
  O  O17  1  0.73429100  0.44601300  0.65597100  1
  O  O18  1  0.78488500  0.31296500  0.32594900  1
  O  O19  1  0.81537600  0.05534400  0.38797400  1
  O  O20  1  0.78080300  0.69489000  0.82782100  1
  O  O21  1  0.81247200  0.95124900  0.88928800  1
  O  O22  1  0.90387500  0.66814300  0.41427100  1
  O  O23  1  0.90283900  0.33678400  0.91919500  1
loop_
_geom_bond_atom_site_label_1
_geom_bond_atom_site_label_2
_geom_bond_distance
_geom_bond_site_symmetry_2
Li0 O21 1.930578 1_455
Li0 O8 1.991017 1_565
Li0 O11 2.089031 1_555
Li0 O4 2.150115 1_555
Li1 O6 1.920583 1_555
Li1 O14 1.976394 1_555
Li1 O18 2.027359 1_555
Li1 O22 2.185219 1_555
Li2 O9 1.914485 1_555
Li2 O17 1.947126 1_555
Li2 O20 2.012969 1_555
Li2 O23 2.157171 1_555
Li3 O2 1.909157 1_665
Li3 O15 1.921386 1_555
Li3 O12 2.053488 1_565
Li3 O21 2.127728 1_554
Li4 O16 1.982972 1_555
Li4 O4 1.985470 1_645
Li4 O19 2.073483 1_555
Li4 O13 2.178137 1_545
Mn0 O10 1.949780 1_555
Mn0 O1 1.966609 1_555
Mn0 O3 1.970347 1_555
Mn0 O18 1.998676 1_455
Mn0 O6 2.062067 1_555
Mn1 O0 1.961009 1_556
Mn1 O5 1.973224 1_555
Mn1 O11 2.035474 1_555
Mn1 O9 2.036126 1_555
Mn1 O20 2.040582 1_455
Mn2 O2 2.068763 1_565
Mn2 O0 2.081758 1_555
Mn2 O7 2.130969 1_555
Mn2 O15 2.143004 1_555
Mn2 O11 2.393355 1_554
Mn3 O1 2.072094 1_555
Mn3 O4 2.080610 1_545
Mn3 O16 2.112478 1_555
Mn3 O10 2.189471 1_555
Mn3 O8 2.244077 1_555
Mn4 O19 2.089684 1_565
Mn4 O7 2.123979 1_555
Mn4 O22 2.161366 1_555
Mn4 O15 2.207078 1_555
Mn4 O13 2.226258 1_555
Mn5 O21 2.107381 1_545
Mn5 O23 2.131910 1_555
Mn5 O8 2.147139 1_555
Mn5 O16 2.147286 1_555
Mn5 O12 2.191945 1_556
Mn6 O14 2.018136 1_555
Mn6 O23 2.107085 1_554
Mn6 O12 2.135796 1_555
Mn6 O18 2.172479 1_555
Mn6 O3 2.201889 1_655
Mn7 O17 2.026984 1_555
Mn7 O22 2.104073 1_555
Mn7 O13 2.145096 1_555
Mn7 O5 2.239720 1_655
Mn7 O20 2.259243 1_555
B0 O6 1.361483 1_555
B0 O7 1.397309 1_555
B0 O22 1.419412 1_455
B1 O9 1.361749 1_555
B1 O8 1.405314 1_555
B1 O23 1.415482 1_455
B2 O2 1.362809 1_555
B2 O3 1.407882 1_555
B2 O12 1.407947 1_555
B3 O4 1.375144 1_555
B3 O13 1.398260 1_555
B3 O5 1.420945 1_555
B4 O19 1.359781 1_555
B4 O10 1.382699 1_555
B4 O18 1.419787 1_555
B5 O21 1.374151 1_555
B5 O11 1.394213 1_555
B5 O20 1.406857 1_555
B6 O14 1.350998 1_555
B6 O15 1.406640 1_555
B6 O0 1.410004 1_655
B7 O17 1.349170 1_555
B7 O1 1.396403 1_655
B7 O16 1.410749 1_555
