# generated using pymatgen
data_Li4Co5SnO12
_symmetry_space_group_name_H-M   'P 1'
_cell_length_a   5.13084554
_cell_length_b   10.80413856
_cell_length_c   8.65907792
_cell_angle_alpha   66.55673476
_cell_angle_beta   90.16059214
_cell_angle_gamma   85.64137752
_symmetry_Int_Tables_number   1
_chemical_formula_structural   Li4Co5SnO12
_chemical_formula_sum   'Li8 Co10 Sn2 O24'
_cell_volume   438.82766265
_cell_formula_units_Z   2
loop_
 _symmetry_equiv_pos_site_id
 _symmetry_equiv_pos_as_xyz
  1  'x, y, z'
loop_
 _atom_site_type_symbol
 _atom_site_label
 _atom_site_symmetry_multiplicity
 _atom_site_fract_x
 _atom_site_fract_y
 _atom_site_fract_z
 _atom_site_occupancy
  Li  Li0  1  0.03764200  0.74563900  0.46370600  1
  Li  Li1  1  0.53426600  0.74037600  0.95013400  1
  Li  Li2  1  0.46413200  0.25607700  0.70321200  1
  Li  Li3  1  0.95328800  0.25632100  0.19876600  1
  Li  Li4  1  0.54365800  0.74405500  0.29557000  1
  Li  Li5  1  0.04899200  0.74132600  0.79649900  1
  Li  Li6  1  0.95805300  0.25765800  0.54334100  1
  Li  Li7  1  0.45361000  0.25525700  0.03888600  1
  Co  Co0  1  0.75031600  0.50129400  0.58374600  1
  Co  Co1  1  0.24778900  0.49652700  0.08128500  1
  Co  Co2  1  0.50117800  0.00013500  0.16833500  1
  Co  Co3  1  0.00023900  0.99957800  0.66474700  1
  Co  Co4  1  0.00074000  0.00060000  0.33236700  1
  Co  Co5  1  0.25105700  0.50122400  0.74857900  1
  Co  Co6  1  0.74929600  0.49896800  0.25325000  1
  Co  Co7  1  0.24802600  0.49979400  0.41615900  1
  Co  Co8  1  0.74212500  0.50305000  0.91318000  1
  Co  Co9  1  0.50042700  0.99888400  0.83693200  1
  Sn  Sn0  1  0.00083400  0.99955700  0.00003200  1
  Sn  Sn1  1  0.50061500  0.00062900  0.50122400  1
  O  O0  1  0.90822900  0.59970200  0.69668100  1
  O  O1  1  0.41354800  0.59521700  0.20444300  1
  O  O2  1  0.59375000  0.40267000  0.79538400  1
  O  O3  1  0.07740200  0.40024600  0.30707100  1
  O  O4  1  0.34022300  0.10810400  0.94916500  1
  O  O5  1  0.83992300  0.10831900  0.44387500  1
  O  O6  1  0.66199600  0.89241400  0.05671700  1
  O  O7  1  0.16172000  0.89292000  0.55132700  1
  O  O8  1  0.32542200  0.11329800  0.62449400  1
  O  O9  1  0.80277400  0.10728000  0.12394300  1
  O  O10  1  0.19844300  0.89255100  0.23157000  1
  O  O11  1  0.67863100  0.88717700  0.73648500  1
  O  O12  1  0.82501000  0.11230500  0.76492600  1
  O  O13  1  0.30296400  0.10739000  0.26979900  1
  O  O14  1  0.69854700  0.89343100  0.37668200  1
  O  O15  1  0.17885100  0.88679600  0.87693600  1
  O  O16  1  0.09716100  0.40388300  0.62694500  1
  O  O17  1  0.62611100  0.39505400  0.13417100  1
  O  O18  1  0.62931200  0.39540500  0.47570100  1
  O  O19  1  0.12702500  0.39320500  0.97151400  1
  O  O20  1  0.40191400  0.59762400  0.52959400  1
  O  O21  1  0.87196800  0.60190900  0.03426800  1
  O  O22  1  0.86922300  0.60634900  0.37031900  1
  O  O23  1  0.38357000  0.60980100  0.85803900  1
loop_
_geom_bond_atom_site_label_1
_geom_bond_atom_site_label_2
_geom_bond_distance
_geom_bond_site_symmetry_2
Li0 O7 2.150558 1_555
Li0 O0 2.152297 1_455
Li0 O14 2.181178 1_455
Li0 O22 2.197140 1_455
Li0 O10 2.215904 1_555
Li0 O20 2.278128 1_555
Li1 O23 2.069175 1_555
Li1 O11 2.082859 1_555
Li1 O21 2.121974 1_556
Li1 O15 2.233147 1_555
Li1 O1 2.258269 1_556
Li1 O6 2.312148 1_556
Li2 O8 2.086038 1_555
Li2 O18 2.170014 1_555
Li2 O2 2.179606 1_555
Li2 O4 2.224577 1_555
Li2 O12 2.241355 1_555
Li2 O16 2.286559 1_555
Li3 O17 2.079120 1_555
Li3 O9 2.150682 1_555
Li3 O19 2.179139 1_654
Li3 O5 2.201769 1_555
Li3 O13 2.225729 1_655
Li3 O3 2.238420 1_655
Li4 O22 2.067062 1_555
Li4 O6 2.175479 1_555
Li4 O20 2.184148 1_555
Li4 O14 2.196181 1_555
Li4 O1 2.196365 1_555
Li4 O10 2.207610 1_555
Li5 O23 2.066825 1_555
Li5 O15 2.104003 1_555
Li5 O0 2.196990 1_455
Li5 O7 2.215460 1_555
Li5 O21 2.254687 1_456
Li5 O11 2.291710 1_455
Li6 O18 2.079006 1_555
Li6 O12 2.094377 1_555
Li6 O3 2.139274 1_655
Li6 O16 2.146602 1_655
Li6 O5 2.227990 1_555
Li6 O8 2.270015 1_655
Li7 O19 2.071852 1_554
Li7 O4 2.142556 1_554
Li7 O13 2.191424 1_555
Li7 O9 2.219982 1_555
Li7 O17 2.221723 1_555
Li7 O2 2.238290 1_554
Co0 O22 1.875751 1_555
Co0 O18 1.877744 1_555
Co0 O0 1.922757 1_555
Co0 O2 1.929693 1_555
Co0 O16 1.952666 1_655
Co0 O20 1.955190 1_555
Co1 O19 1.865382 1_554
Co1 O23 1.993672 1_554
Co1 O1 2.008740 1_555
Co1 O3 2.048989 1_555
Co1 O17 2.109890 1_555
Co1 O21 2.115042 1_455
Co2 O6 1.929513 1_545
Co2 O4 1.930733 1_554
Co2 O14 1.940804 1_545
Co2 O13 1.945504 1_555
Co2 O9 1.950372 1_555
Co2 O10 1.958663 1_545
Co3 O12 1.929432 1_465
Co3 O7 1.933613 1_555
Co3 O15 1.933890 1_555
Co3 O5 1.941943 1_465
Co3 O11 2.072107 1_455
Co3 O8 2.094978 1_565
Co4 O5 1.928788 1_455
Co4 O7 1.928871 1_545
Co4 O9 1.942671 1_455
Co4 O10 1.946594 1_545
Co4 O13 1.951553 1_555
Co4 O14 1.953116 1_445
Co5 O23 1.933668 1_555
Co5 O2 1.938487 1_555
Co5 O0 1.938740 1_455
Co5 O19 1.954656 1_555
Co5 O20 1.959291 1_555
Co5 O16 1.960042 1_555
Co6 O3 1.875111 1_655
Co6 O1 1.897767 1_555
Co6 O21 1.914079 1_555
Co6 O18 1.933316 1_555
Co6 O17 1.936090 1_555
Co6 O22 1.947559 1_555
Co7 O16 1.905069 1_555
Co7 O20 1.911542 1_555
Co7 O3 1.939663 1_555
Co7 O1 1.944982 1_555
Co7 O22 2.133631 1_455
Co7 O18 2.135723 1_555
Co8 O21 1.918159 1_556
Co8 O17 1.926893 1_556
Co8 O2 1.948715 1_555
Co8 O0 1.979342 1_555
Co8 O23 2.043783 1_555
Co8 O19 2.173674 1_655
Co9 O11 1.929018 1_555
Co9 O8 1.931545 1_565
Co9 O6 1.933046 1_556
Co9 O4 1.944765 1_565
Co9 O15 2.069308 1_555
Co9 O12 2.090929 1_565
O4 Sn0 2.122585 1_546
O5 Sn1 2.117591 1_555
O6 Sn0 2.112341 1_655
O7 Sn1 2.115654 1_565
O8 Sn1 2.074144 1_555
O9 Sn0 2.087688 1_645
O10 Sn0 2.085752 1_555
O11 Sn1 2.078274 1_565
O12 Sn0 2.071631 1_646
O13 Sn1 2.084768 1_555
O14 Sn1 2.087319 1_565
O15 Sn0 2.079467 1_556
