# generated using pymatgen
data_Ce5Ge2Ir
_symmetry_space_group_name_H-M   'P 1'
_cell_length_a   7.99110300
_cell_length_b   8.70317900
_cell_length_c   11.88413500
_cell_angle_alpha   90.00000000
_cell_angle_beta   90.00000000
_cell_angle_gamma   90.00000000
_symmetry_Int_Tables_number   1
_chemical_formula_structural   Ce5Ge2Ir
_chemical_formula_sum   'Ce20 Ge8 Ir4'
_cell_volume   826.51781880
_cell_formula_units_Z   4
loop_
 _symmetry_equiv_pos_site_id
 _symmetry_equiv_pos_as_xyz
  1  'x, y, z'
loop_
 _atom_site_type_symbol
 _atom_site_label
 _atom_site_symmetry_multiplicity
 _atom_site_fract_x
 _atom_site_fract_y
 _atom_site_fract_z
 _atom_site_occupancy
  Ce  Ce0  1  0.67166300  0.75000000  0.71737900  1
  Ce  Ce1  1  0.32833700  0.25000000  0.28262100  1
  Ce  Ce2  1  0.17166300  0.25000000  0.78262100  1
  Ce  Ce3  1  0.82833700  0.75000000  0.21737900  1
  Ce  Ce4  1  0.14980600  0.75000000  0.79453800  1
  Ce  Ce5  1  0.85019400  0.25000000  0.20546200  1
  Ce  Ce6  1  0.64980600  0.25000000  0.70546200  1
  Ce  Ce7  1  0.35019400  0.75000000  0.29453800  1
  Ce  Ce8  1  0.53724800  0.75000000  0.99952600  1
  Ce  Ce9  1  0.46275200  0.25000000  0.00047400  1
  Ce  Ce10  1  0.03724800  0.25000000  0.50047400  1
  Ce  Ce11  1  0.96275200  0.75000000  0.49952600  1
  Ce  Ce12  1  0.80863200  0.45838100  0.92491600  1
  Ce  Ce13  1  0.19136800  0.54161900  0.07508400  1
  Ce  Ce14  1  0.30863200  0.54161900  0.57508400  1
  Ce  Ce15  1  0.19136800  0.95838100  0.07508400  1
  Ce  Ce16  1  0.69136800  0.45838100  0.42491600  1
  Ce  Ce17  1  0.80863200  0.04161900  0.92491600  1
  Ce  Ce18  1  0.69136800  0.04161900  0.42491600  1
  Ce  Ce19  1  0.30863200  0.95838100  0.57508400  1
  Ge  Ge0  1  0.94143900  0.00569000  0.67261600  1
  Ge  Ge1  1  0.05856100  0.99431000  0.32738400  1
  Ge  Ge2  1  0.44143900  0.99431000  0.82738400  1
  Ge  Ge3  1  0.05856100  0.50569000  0.32738400  1
  Ge  Ge4  1  0.55856100  0.00569000  0.17261600  1
  Ge  Ge5  1  0.94143900  0.49431000  0.67261600  1
  Ge  Ge6  1  0.55856100  0.49431000  0.17261600  1
  Ge  Ge7  1  0.44143900  0.50569000  0.82738400  1
  Ir  Ir0  1  0.92334200  0.75000000  0.98309700  1
  Ir  Ir1  1  0.07665800  0.25000000  0.01690300  1
  Ir  Ir2  1  0.42334200  0.25000000  0.51690300  1
  Ir  Ir3  1  0.57665800  0.75000000  0.48309700  1
loop_
_geom_bond_atom_site_label_1
_geom_bond_atom_site_label_2
_geom_bond_distance
_geom_bond_site_symmetry_2
Ce0 Ir3 2.885890 1_555
Ce0 Ge7 3.100769 1_555
Ce0 Ge2 3.100769 1_555
Ce0 Ge5 3.143649 1_555
Ce0 Ge0 3.143649 1_565
Ce1 Ir2 2.885890 1_555
Ce1 Ge4 3.100769 1_555
Ce1 Ge6 3.100769 1_555
Ce1 Ge1 3.143649 1_545
Ce1 Ge3 3.143649 1_555
Ce2 Ir1 2.885890 1_556
Ce2 Ge0 3.100769 1_455
Ce2 Ge5 3.100769 1_455
Ce2 Ge2 3.143649 1_545
Ce2 Ge7 3.143649 1_555
Ce3 Ir0 2.885890 1_554
Ce3 Ge3 3.100769 1_655
Ce3 Ge1 3.100769 1_655
Ce3 Ge4 3.143649 1_565
Ce3 Ge6 3.143649 1_555
Ce4 Ir0 2.880358 1_455
Ce4 Ge5 3.134318 1_455
Ce4 Ge0 3.134318 1_465
Ce4 Ge7 3.178757 1_555
Ce4 Ge2 3.178757 1_555
Ce5 Ir1 2.880358 1_655
Ce5 Ge1 3.134318 1_645
Ce5 Ge3 3.134318 1_655
Ce5 Ge4 3.178757 1_555
Ce5 Ge6 3.178757 1_555
Ce6 Ir2 2.880358 1_555
Ce6 Ge7 3.134318 1_555
Ce6 Ge2 3.134318 1_545
Ce6 Ge0 3.178757 1_555
Ce6 Ge5 3.178757 1_555
Ce7 Ir3 2.880358 1_555
Ce7 Ge6 3.134318 1_555
Ce7 Ge4 3.134318 1_565
Ce7 Ge1 3.178757 1_555
Ce7 Ge3 3.178757 1_555
Ce8 Ge4 3.035192 1_566
Ce8 Ge6 3.035192 1_556
Ce8 Ge2 3.048334 1_555
Ce8 Ge7 3.048334 1_555
Ce8 Ir0 3.091488 1_555
Ce9 Ge2 3.035192 1_544
Ce9 Ge7 3.035192 1_554
Ce9 Ge6 3.048334 1_555
Ce9 Ge4 3.048334 1_555
Ce9 Ir1 3.091488 1_555
Ce10 Ge1 3.035192 1_545
Ce10 Ge3 3.035192 1_555
Ce10 Ge5 3.048334 1_455
Ce10 Ge0 3.048334 1_455
Ce10 Ir2 3.091488 1_555
Ce11 Ge0 3.035192 1_565
Ce11 Ge5 3.035192 1_555
Ce11 Ge3 3.048334 1_655
Ce11 Ge1 3.048334 1_655
Ce11 Ir3 3.091488 1_555
Ce12 Ir0 2.785650 1_555
Ce12 Ir1 3.011897 1_656
Ce12 Ge7 3.181664 1_555
Ce12 Ge5 3.195980 1_555
Ce12 Ge6 3.571628 1_556
Ce13 Ir1 2.785650 1_555
Ce13 Ir0 3.011897 1_454
Ce13 Ge6 3.181664 1_555
Ce13 Ge3 3.195980 1_555
Ce13 Ge7 3.571628 1_554
Ce14 Ir2 2.785650 1_555
Ce14 Ir3 3.011897 1_555
Ce14 Ge5 3.181664 1_455
Ce14 Ge7 3.195980 1_555
Ce14 Ge3 3.571628 1_555
Ce15 Ir1 2.785650 1_565
Ce15 Ir0 3.011897 1_454
Ce15 Ge4 3.181664 1_565
Ce15 Ge1 3.195980 1_555
Ce15 Ge2 3.571628 1_554
Ce16 Ir3 2.785650 1_555
Ce16 Ir2 3.011897 1_555
Ce16 Ge3 3.181664 1_655
Ce16 Ge6 3.195980 1_555
Ce16 Ge5 3.571628 1_555
Ce17 Ir0 2.785650 1_545
Ce17 Ir1 3.011897 1_656
Ce17 Ge2 3.181664 1_545
Ce17 Ge0 3.195980 1_555
Ce17 Ge4 3.571628 1_556
Ce18 Ir3 2.785650 1_545
Ce18 Ir2 3.011897 1_555
Ce18 Ge1 3.181664 1_645
Ce18 Ge4 3.195980 1_555
Ce18 Ge0 3.571628 1_555
Ce19 Ir2 2.785650 1_565
Ce19 Ir3 3.011897 1_555
Ce19 Ge0 3.181664 1_465
Ce19 Ge2 3.195980 1_555
Ce19 Ge1 3.571628 1_555
