# generated using pymatgen
data_ScMnGe2
_symmetry_space_group_name_H-M   'P 1'
_cell_length_a   7.97977644
_cell_length_b   9.61122255
_cell_length_c   10.55249156
_cell_angle_alpha   90.00000000
_cell_angle_beta   90.00000000
_cell_angle_gamma   90.00000000
_symmetry_Int_Tables_number   1
_chemical_formula_structural   ScMnGe2
_chemical_formula_sum   'Sc12 Mn12 Ge24'
_cell_volume   809.32763785
_cell_formula_units_Z   12
loop_
 _symmetry_equiv_pos_site_id
 _symmetry_equiv_pos_as_xyz
  1  'x, y, z'
loop_
 _atom_site_type_symbol
 _atom_site_label
 _atom_site_symmetry_multiplicity
 _atom_site_fract_x
 _atom_site_fract_y
 _atom_site_fract_z
 _atom_site_occupancy
  Sc  Sc0  1  0.74677251  0.82907187  0.04773054  1
  Sc  Sc1  1  0.74677251  0.17092813  0.95226946  1
  Sc  Sc2  1  0.25322749  0.67092813  0.54773054  1
  Sc  Sc3  1  0.25322749  0.32907187  0.45226946  1
  Sc  Sc4  1  0.25322749  0.17092813  0.95226946  1
  Sc  Sc5  1  0.25322749  0.82907187  0.04773054  1
  Sc  Sc6  1  0.74677251  0.32907187  0.45226946  1
  Sc  Sc7  1  0.74677251  0.67092813  0.54773054  1
  Sc  Sc8  1  0.50000000  0.83527989  0.31890516  1
  Sc  Sc9  1  0.50000000  0.16472011  0.68109484  1
  Sc  Sc10  1  0.50000000  0.66472011  0.81890516  1
  Sc  Sc11  1  0.50000000  0.33527989  0.18109484  1
  Mn  Mn0  1  0.75251730  0.58735617  0.25039152  1
  Mn  Mn1  1  0.75251730  0.41264383  0.74960848  1
  Mn  Mn2  1  0.24748270  0.91264383  0.75039152  1
  Mn  Mn3  1  0.24748270  0.08735617  0.24960848  1
  Mn  Mn4  1  0.24748270  0.41264383  0.74960848  1
  Mn  Mn5  1  0.24748270  0.58735617  0.25039152  1
  Mn  Mn6  1  0.75251730  0.08735617  0.24960848  1
  Mn  Mn7  1  0.75251730  0.91264383  0.75039152  1
  Mn  Mn8  1  0.74581389  -0.00000000  0.50000000  1
  Mn  Mn9  1  0.25418611  0.50000000  -0.00000000  1
  Mn  Mn10  1  0.25418611  -0.00000000  0.50000000  1
  Mn  Mn11  1  0.74581389  0.50000000  -0.00000000  1
  Ge  Ge0  1  0.84386608  0.83638572  0.31915687  1
  Ge  Ge1  1  0.84386608  0.16361428  0.68084313  1
  Ge  Ge2  1  0.15613392  0.66361428  0.81915687  1
  Ge  Ge3  1  0.15613392  0.33638572  0.18084313  1
  Ge  Ge4  1  0.15613392  0.16361428  0.68084313  1
  Ge  Ge5  1  0.15613392  0.83638572  0.31915687  1
  Ge  Ge6  1  0.84386608  0.33638572  0.18084313  1
  Ge  Ge7  1  0.84386608  0.66361428  0.81915687  1
  Ge  Ge8  1  0.50000000  0.53871502  0.38515781  1
  Ge  Ge9  1  0.50000000  0.46128498  0.61484219  1
  Ge  Ge10  1  0.50000000  0.96128498  0.88515781  1
  Ge  Ge11  1  0.50000000  0.03871502  0.11484219  1
  Ge  Ge12  1  -0.00000000  0.53559054  0.38727310  1
  Ge  Ge13  1  -0.00000000  0.46440946  0.61272690  1
  Ge  Ge14  1  -0.00000000  0.96440946  0.88727310  1
  Ge  Ge15  1  -0.00000000  0.03559054  0.11272690  1
  Ge  Ge16  1  0.50000000  0.63191008  0.10000751  1
  Ge  Ge17  1  0.50000000  0.36808992  0.89999249  1
  Ge  Ge18  1  0.50000000  0.86808992  0.60000751  1
  Ge  Ge19  1  0.50000000  0.13191008  0.39999249  1
  Ge  Ge20  1  -0.00000000  0.62867203  0.09165587  1
  Ge  Ge21  1  -0.00000000  0.37132797  0.90834413  1
  Ge  Ge22  1  -0.00000000  0.87132797  0.59165587  1
  Ge  Ge23  1  -0.00000000  0.12867203  0.40834413  1
loop_
_geom_bond_atom_site_label_1
_geom_bond_atom_site_label_2
_geom_bond_distance
_geom_bond_site_symmetry_2
Ge0 Ge5 2.491828 1_655
Ge0 Mn8 2.593617 1_565
Ge0 Mn0 2.605122 1_555
Ge0 Mn6 2.624569 1_565
Ge0 Sc8 2.743996 1_555
Ge0 Sc0 2.967998 1_555
Ge0 Sc7 2.991159 1_555
Ge1 Ge4 2.491828 1_655
Ge1 Mn8 2.593617 1_555
Ge1 Mn1 2.605122 1_555
Ge1 Mn7 2.624569 1_545
Ge1 Sc9 2.743996 1_555
Ge1 Sc1 2.967998 1_555
Ge1 Sc6 2.991159 1_555
Ge2 Ge7 2.491828 1_455
Ge2 Mn9 2.593617 1_556
Ge2 Mn2 2.605122 1_555
Ge2 Mn4 2.624569 1_555
Ge2 Sc10 2.743996 1_555
Ge2 Sc2 2.967998 1_555
Ge2 Sc5 2.991159 1_556
Ge3 Ge6 2.491828 1_455
Ge3 Mn9 2.593617 1_555
Ge3 Mn3 2.605122 1_555
Ge3 Mn5 2.624569 1_555
Ge3 Sc11 2.743996 1_555
Ge3 Sc3 2.967998 1_555
Ge3 Sc4 2.991159 1_554
Ge4 Mn10 2.593617 1_555
Ge4 Mn4 2.605122 1_555
Ge4 Mn2 2.624569 1_545
Ge4 Sc9 2.743996 1_555
Ge4 Sc4 2.967998 1_555
Ge4 Sc3 2.991159 1_555
Ge5 Mn10 2.593617 1_565
Ge5 Mn5 2.605122 1_555
Ge5 Mn3 2.624569 1_565
Ge5 Sc8 2.743996 1_555
Ge5 Sc5 2.967998 1_555
Ge5 Sc2 2.991159 1_555
Ge6 Mn11 2.593617 1_555
Ge6 Mn6 2.605122 1_555
Ge6 Mn0 2.624569 1_555
Ge6 Sc11 2.743996 1_555
Ge6 Sc6 2.967998 1_555
Ge6 Sc1 2.991159 1_554
Ge7 Mn11 2.593617 1_556
Ge7 Mn7 2.605122 1_555
Ge7 Mn1 2.624569 1_555
Ge7 Sc10 2.743996 1_555
Ge7 Sc7 2.967998 1_555
Ge7 Sc0 2.991159 1_556
Ge8 Mn0 2.510246 1_555
Ge8 Mn5 2.510246 1_555
Ge8 Ge9 2.535421 1_555
Ge8 Sc7 2.904404 1_555
Ge8 Sc2 2.904404 1_555
Ge8 Sc3 2.905026 1_555
Ge8 Sc6 2.905026 1_555
Ge8 Sc11 2.908618 1_555
Ge8 Sc8 2.934840 1_555
Ge9 Mn1 2.510246 1_555
Ge9 Mn4 2.510246 1_555
Ge9 Sc3 2.904404 1_555
Ge9 Sc6 2.904404 1_555
Ge9 Sc7 2.905026 1_555
Ge9 Sc2 2.905026 1_555
Ge9 Sc10 2.908618 1_555
Ge9 Sc9 2.934840 1_555
Ge10 Mn2 2.510246 1_555
Ge10 Mn7 2.510246 1_555
Ge10 Ge11 2.535421 1_566
Ge10 Sc0 2.904404 1_556
Ge10 Sc5 2.904404 1_556
Ge10 Sc4 2.905026 1_565
Ge10 Sc1 2.905026 1_565
Ge10 Sc9 2.908618 1_565
Ge10 Sc10 2.934840 1_555
Ge11 Mn6 2.510246 1_555
Ge11 Mn3 2.510246 1_555
Ge11 Sc4 2.904404 1_554
Ge11 Sc1 2.904404 1_554
Ge11 Sc0 2.905026 1_545
Ge11 Sc5 2.905026 1_545
Ge11 Sc8 2.908618 1_545
Ge11 Sc11 2.934840 1_555
Ge12 Ge13 2.475512 1_555
Ge12 Mn5 2.496799 1_555
Ge12 Mn0 2.496799 1_455
Ge12 Sc6 2.914354 1_455
Ge12 Sc3 2.914354 1_555
Ge12 Sc7 2.939764 1_455
Ge12 Sc2 2.939764 1_555
Ge13 Mn4 2.496799 1_555
Ge13 Mn1 2.496799 1_455
Ge13 Sc2 2.914354 1_555
Ge13 Sc7 2.914354 1_455
Ge13 Sc3 2.939764 1_555
Ge13 Sc6 2.939764 1_455
Ge14 Ge15 2.475512 1_566
Ge14 Mn2 2.496799 1_555
Ge14 Mn7 2.496799 1_455
Ge14 Sc1 2.914354 1_465
Ge14 Sc4 2.914354 1_565
Ge14 Sc5 2.939764 1_556
Ge14 Sc0 2.939764 1_456
Ge15 Mn3 2.496799 1_555
Ge15 Mn6 2.496799 1_455
Ge15 Sc5 2.914354 1_545
Ge15 Sc0 2.914354 1_445
Ge15 Sc1 2.939764 1_454
Ge15 Sc4 2.939764 1_554
Ge16 Mn11 2.562951 1_555
Ge16 Mn9 2.562951 1_555
Ge16 Mn0 2.600395 1_555
Ge16 Mn5 2.600395 1_555
Ge16 Sc5 2.787996 1_555
Ge16 Sc0 2.787996 1_555
Ge16 Sc11 2.976618 1_555
Ge16 Sc10 2.983045 1_554
Ge16 Sc8 3.025938 1_555
Ge17 Mn9 2.562951 1_556
Ge17 Mn11 2.562951 1_556
Ge17 Mn1 2.600395 1_555
Ge17 Mn4 2.600395 1_555
Ge17 Sc1 2.787996 1_555
Ge17 Sc4 2.787996 1_555
Ge17 Sc10 2.976618 1_555
Ge17 Sc11 2.983045 1_556
Ge17 Sc9 3.025938 1_555
Ge18 Mn8 2.562951 1_565
Ge18 Mn10 2.562951 1_565
Ge18 Mn2 2.600395 1_555
Ge18 Mn7 2.600395 1_555
Ge18 Sc2 2.787996 1_555
Ge18 Sc7 2.787996 1_555
Ge18 Sc9 2.976618 1_565
Ge18 Sc8 2.983045 1_555
Ge18 Sc10 3.025938 1_555
Ge19 Mn10 2.562951 1_555
Ge19 Mn8 2.562951 1_555
Ge19 Mn6 2.600395 1_555
Ge19 Mn3 2.600395 1_555
Ge19 Sc6 2.787996 1_555
Ge19 Sc3 2.787996 1_555
Ge19 Sc8 2.976618 1_545
Ge19 Sc9 2.983045 1_555
Ge19 Sc11 3.025938 1_555
Ge20 Mn9 2.564973 1_555
Ge20 Mn11 2.564973 1_455
Ge20 Mn5 2.619839 1_555
Ge20 Mn0 2.619839 1_455
Ge20 Sc0 2.829821 1_455
Ge20 Sc5 2.829821 1_555
Ge21 Mn11 2.564973 1_456
Ge21 Mn9 2.564973 1_556
Ge21 Mn4 2.619839 1_555
Ge21 Mn1 2.619839 1_455
Ge21 Sc4 2.829821 1_555
Ge21 Sc1 2.829821 1_455
Ge22 Mn10 2.564973 1_565
Ge22 Mn8 2.564973 1_465
Ge22 Mn2 2.619839 1_555
Ge22 Mn7 2.619839 1_455
Ge22 Sc7 2.829821 1_455
Ge22 Sc2 2.829821 1_555
Ge23 Mn10 2.564973 1_555
Ge23 Mn8 2.564973 1_455
Ge23 Mn6 2.619839 1_455
Ge23 Mn3 2.619839 1_555
Ge23 Sc6 2.829821 1_455
Ge23 Sc3 2.829821 1_555
