# generated using pymatgen
data_Sr5Ca3MnFe7O20
_symmetry_space_group_name_H-M   'P 1'
_cell_length_a   11.09389032
_cell_length_b   11.43105700
_cell_length_c   17.44052686
_cell_angle_alpha   109.06424269
_cell_angle_beta   108.68177191
_cell_angle_gamma   90.00765633
_symmetry_Int_Tables_number   1
_chemical_formula_structural   Sr5Ca3MnFe7O20
_chemical_formula_sum   'Sr20 Ca12 Mn4 Fe28 O80'
_cell_volume   1966.67246250
_cell_formula_units_Z   4
loop_
 _symmetry_equiv_pos_site_id
 _symmetry_equiv_pos_as_xyz
  1  'x, y, z'
loop_
 _atom_site_type_symbol
 _atom_site_label
 _atom_site_symmetry_multiplicity
 _atom_site_fract_x
 _atom_site_fract_y
 _atom_site_fract_z
 _atom_site_occupancy
  Sr  Sr0  1  0.30670600  0.06148900  0.60892200  1
  Sr  Sr1  1  0.30596900  0.55896400  0.60810100  1
  Sr  Sr2  1  0.80715200  0.06503600  0.60948800  1
  Sr  Sr3  1  0.80939000  0.56173800  0.61028300  1
  Sr  Sr4  1  0.19406000  0.43317800  0.38648500  1
  Sr  Sr5  1  0.19738100  0.43921300  0.89183100  1
  Sr  Sr6  1  0.69490800  0.43391900  0.38704200  1
  Sr  Sr7  1  0.69441400  0.93448700  0.38675400  1
  Sr  Sr8  1  0.69958000  0.93790300  0.89504400  1
  Sr  Sr9  1  0.05922400  0.29812200  0.61115500  1
  Sr  Sr10  1  0.05692500  0.79606200  0.60881500  1
  Sr  Sr11  1  0.55844400  0.30062100  0.61164100  1
  Sr  Sr12  1  0.55614200  0.79654300  0.60798500  1
  Sr  Sr13  1  0.44420600  0.20285600  0.38693300  1
  Sr  Sr14  1  0.44794600  0.20455300  0.89276400  1
  Sr  Sr15  1  0.44406400  0.70274500  0.38614600  1
  Sr  Sr16  1  0.44866600  0.70228600  0.89376700  1
  Sr  Sr17  1  0.94511200  0.20263200  0.38664800  1
  Sr  Sr18  1  0.94828800  0.20651000  0.89303200  1
  Sr  Sr19  1  0.94495300  0.70307300  0.38626200  1
  Ca  Ca0  1  0.30287100  0.06671300  0.10555100  1
  Ca  Ca1  1  0.30258100  0.56861100  0.10538700  1
  Ca  Ca2  1  0.80235800  0.06789000  0.10595100  1
  Ca  Ca3  1  0.80237500  0.56778500  0.10491200  1
  Ca  Ca4  1  0.19677700  0.93300800  0.39174900  1
  Ca  Ca5  1  0.20044900  0.93530800  0.89882400  1
  Ca  Ca6  1  0.70092800  0.43907600  0.89616300  1
  Ca  Ca7  1  0.05314100  0.28802100  0.10671000  1
  Ca  Ca8  1  0.05367700  0.78824700  0.10700300  1
  Ca  Ca9  1  0.55221700  0.28844500  0.10572300  1
  Ca  Ca10  1  0.55268800  0.78769700  0.10603900  1
  Ca  Ca11  1  0.95347700  0.71136600  0.89789200  1
  Mn  Mn0  1  0.11180600  0.60196400  0.75407700  1
  Mn  Mn1  1  0.61548500  0.59949200  0.75380500  1
  Mn  Mn2  1  0.36724100  0.40657700  0.75212600  1
  Mn  Mn3  1  0.35945000  0.90356800  0.75370300  1
  Fe  Fe0  1  0.00883600  0.00174300  0.00568700  1
  Fe  Fe1  1  0.00280400  0.99866600  0.49631700  1
  Fe  Fe2  1  0.00668800  0.50217300  0.00359900  1
  Fe  Fe3  1  0.00290900  0.49981100  0.49964500  1
  Fe  Fe4  1  0.50668600  0.00272000  0.00582600  1
  Fe  Fe5  1  0.50214500  0.99980200  0.49708800  1
  Fe  Fe6  1  0.50752200  0.50118800  0.00400800  1
  Fe  Fe7  1  0.50349500  0.49956500  0.49961500  1
  Fe  Fe8  1  0.25777800  0.25282000  0.00595500  1
  Fe  Fe9  1  0.25282000  0.24764200  0.49839600  1
  Fe  Fe10  1  0.25621200  0.75319300  0.00447900  1
  Fe  Fe11  1  0.25189000  0.74939100  0.49798300  1
  Fe  Fe12  1  0.75849100  0.25538600  0.00697400  1
  Fe  Fe13  1  0.75370100  0.24987300  0.49957600  1
  Fe  Fe14  1  0.75769900  0.75066700  0.00350300  1
  Fe  Fe15  1  0.75347200  0.74872400  0.49891900  1
  Fe  Fe16  1  0.10290800  0.08413800  0.24535200  1
  Fe  Fe17  1  0.11163300  0.08495400  0.75414400  1
  Fe  Fe18  1  0.10269600  0.58959000  0.24398800  1
  Fe  Fe19  1  0.60165200  0.08524100  0.24382600  1
  Fe  Fe20  1  0.61234700  0.09328700  0.75231100  1
  Fe  Fe21  1  0.60277400  0.58642400  0.24393300  1
  Fe  Fe22  1  0.35222600  0.40804100  0.24377700  1
  Fe  Fe23  1  0.35027200  0.90799900  0.24599700  1
  Fe  Fe24  1  0.85264100  0.40842200  0.24387700  1
  Fe  Fe25  1  0.85990200  0.41782400  0.75639900  1
  Fe  Fe26  1  0.85430900  0.90703200  0.24349700  1
  Fe  Fe27  1  0.86262000  0.90672600  0.75273000  1
  O  O0  1  0.12312900  0.11603700  0.48633700  1
  O  O1  1  0.12672400  0.11819300  0.99007400  1
  O  O2  1  0.12219900  0.62126200  0.48909500  1
  O  O3  1  0.12289400  0.62572500  0.99236000  1
  O  O4  1  0.62359700  0.12223200  0.49086000  1
  O  O5  1  0.62717200  0.12556600  0.99460000  1
  O  O6  1  0.62296700  0.62187200  0.49112200  1
  O  O7  1  0.62956900  0.62078300  0.99374200  1
  O  O8  1  0.13819700  0.38145500  0.01885900  1
  O  O9  1  0.12940600  0.37501700  0.50421300  1
  O  O10  1  0.13813400  0.88288200  0.01739800  1
  O  O11  1  0.13092400  0.87765500  0.50377400  1
  O  O12  1  0.63911500  0.38265200  0.01751300  1
  O  O13  1  0.63142200  0.37628500  0.50600100  1
  O  O14  1  0.63791700  0.88193800  0.01800700  1
  O  O15  1  0.63182200  0.87749100  0.50741900  1
  O  O16  1  0.36950900  0.11440200  0.48664100  1
  O  O17  1  0.37350100  0.11816200  0.99256600  1
  O  O18  1  0.37234200  0.62018200  0.49021600  1
  O  O19  1  0.37742500  0.62202900  0.99675200  1
  O  O20  1  0.87422300  0.11930100  0.49118900  1
  O  O21  1  0.87682500  0.11988300  0.99306100  1
  O  O22  1  0.87245300  0.61891600  0.48917400  1
  O  O23  1  0.87491300  0.61720400  0.98905300  1
  O  O24  1  0.38918900  0.38473100  0.01886700  1
  O  O25  1  0.38034900  0.37761300  0.50418700  1
  O  O26  1  0.38704100  0.88699000  0.01834000  1
  O  O27  1  0.37997900  0.87972000  0.50480700  1
  O  O28  1  0.88693000  0.38669600  0.01708600  1
  O  O29  1  0.88020100  0.37770300  0.50514200  1
  O  O30  1  0.88906400  0.88281000  0.01577100  1
  O  O31  1  0.88194200  0.87977200  0.50665600  1
  O  O32  1  0.09140200  0.10553500  0.14057700  1
  O  O33  1  0.08729700  0.09154400  0.64292500  1
  O  O34  1  0.08892100  0.60847200  0.13911900  1
  O  O35  1  0.07214600  0.58528100  0.63455900  1
  O  O36  1  0.58908700  0.10869400  0.14026500  1
  O  O37  1  0.58093800  0.09618800  0.63998400  1
  O  O38  1  0.59171600  0.60923800  0.14089200  1
  O  O39  1  0.57625300  0.58397000  0.63579700  1
  O  O40  1  0.43795300  0.40751100  0.35620000  1
  O  O41  1  0.44864600  0.41453100  0.86974600  1
  O  O42  1  0.44167600  0.90709400  0.35774000  1
  O  O43  1  0.44315300  0.91344500  0.86828700  1
  O  O44  1  0.93697800  0.40684000  0.35588100  1
  O  O45  1  0.94986700  0.40302700  0.86439300  1
  O  O46  1  0.94081500  0.90721700  0.35636300  1
  O  O47  1  0.94719200  0.89491900  0.86220800  1
  O  O48  1  0.33836000  0.28078300  0.14007000  1
  O  O49  1  0.32532000  0.29702600  0.63326400  1
  O  O50  1  0.33567800  0.78346200  0.14146600  1
  O  O51  1  0.32042200  0.80212900  0.63657400  1
  O  O52  1  0.84157200  0.28217200  0.14011100  1
  O  O53  1  0.83363500  0.30192300  0.64282300  1
  O  O54  1  0.84231200  0.78156700  0.13957900  1
  O  O55  1  0.83159300  0.79367700  0.63977500  1
  O  O56  1  0.18708100  0.20196100  0.35538100  1
  O  O57  1  0.19533000  0.20980000  0.86143700  1
  O  O58  1  0.18677800  0.70791200  0.35552600  1
  O  O59  1  0.19548600  0.71382100  0.87029300  1
  O  O60  1  0.68722700  0.19845600  0.35614000  1
  O  O61  1  0.69271500  0.21739000  0.86115400  1
  O  O62  1  0.68744300  0.70000700  0.35677500  1
  O  O63  1  0.69477800  0.70838700  0.86857100  1
  O  O64  1  0.42437700  0.05665900  0.23930600  1
  O  O65  1  0.44298100  0.05386500  0.75210500  1
  O  O66  1  0.42541600  0.55776600  0.23857800  1
  O  O67  1  0.44249800  0.56753600  0.75159200  1
  O  O68  1  0.92461700  0.05824400  0.23857800  1
  O  O69  1  0.93716800  0.05877700  0.75218000  1
  O  O70  1  0.92610700  0.55834700  0.23903100  1
  O  O71  1  0.92949400  0.57486500  0.76056800  1
  O  O72  1  0.17587000  0.43436500  0.23978300  1
  O  O73  1  0.19308000  0.44938700  0.75286600  1
  O  O74  1  0.17474700  0.92991600  0.24726900  1
  O  O75  1  0.18219800  0.93131100  0.76001500  1
  O  O76  1  0.67558000  0.43119900  0.23901300  1
  O  O77  1  0.68967200  0.43930200  0.75987000  1
  O  O78  1  0.67703300  0.93105400  0.23915700  1
  O  O79  1  0.69013400  0.94152800  0.75322100  1
loop_
_geom_bond_atom_site_label_1
_geom_bond_atom_site_label_2
_geom_bond_distance
_geom_bond_site_symmetry_2
Ca0 O48 2.321855 1_555
Ca0 O64 2.330824 1_555
Ca0 O10 2.491587 1_545
Ca0 O26 2.505021 1_545
Ca0 O1 2.544485 1_554
Ca0 O17 2.566877 1_554
Ca0 O32 2.610585 1_555
Ca1 O50 2.324818 1_555
Ca1 O66 2.329938 1_555
Ca1 O8 2.511362 1_555
Ca1 O19 2.532866 1_554
Ca1 O24 2.544732 1_555
Ca1 O3 2.570903 1_554
Ca1 O34 2.625004 1_555
Ca2 O68 2.314945 1_555
Ca2 O52 2.329049 1_555
Ca2 O14 2.505095 1_545
Ca2 O5 2.530243 1_554
Ca2 O30 2.582822 1_545
Ca2 O21 2.591991 1_554
Ca2 O36 2.626542 1_555
Ca3 O54 2.323078 1_555
Ca3 O70 2.339924 1_555
Ca3 O7 2.487549 1_554
Ca3 O12 2.491089 1_555
Ca3 O28 2.522076 1_555
Ca3 O38 2.612573 1_555
Ca3 O23 2.614759 1_554
Ca4 O58 2.434197 1_555
Ca4 O74 2.440841 1_555
Ca4 O0 2.524985 1_565
Ca4 O16 2.536942 1_565
Ca4 O11 2.544246 1_555
Ca4 O27 2.570486 1_555
Ca4 O46 2.699898 1_455
Ca4 O42 2.956146 1_555
Ca5 O75 2.348952 1_555
Ca5 O59 2.412513 1_555
Ca5 O1 2.496609 1_565
Ca5 O17 2.546259 1_565
Ca5 O10 2.615147 1_556
Ca5 O26 2.631182 1_556
Ca5 O47 2.678149 1_455
Ca5 O43 2.903051 1_555
Ca6 O77 2.340874 1_555
Ca6 O61 2.399236 1_555
Ca6 O23 2.517343 1_555
Ca6 O7 2.528167 1_555
Ca6 O28 2.664876 1_556
Ca6 O12 2.680820 1_556
Ca6 O41 2.685794 1_555
Ca6 O45 2.989190 1_555
Ca7 O72 2.340400 1_555
Ca7 O32 2.350529 1_555
Ca7 O8 2.524594 1_555
Ca7 O28 2.534068 1_455
Ca7 O21 2.544695 1_454
Ca7 O52 2.598867 1_455
Ca7 O1 2.656600 1_554
Ca7 O48 3.034730 1_555
Ca8 O34 2.302512 1_555
Ca8 O74 2.391140 1_555
Ca8 O30 2.509540 1_455
Ca8 O10 2.555869 1_555
Ca8 O3 2.568308 1_554
Ca8 O54 2.590121 1_455
Ca8 O23 2.597223 1_454
Ca8 O50 2.994762 1_555
Ca9 O36 2.324478 1_555
Ca9 O76 2.328747 1_555
Ca9 O24 2.472195 1_555
Ca9 O12 2.547136 1_555
Ca9 O5 2.567037 1_554
Ca9 O17 2.568556 1_554
Ca9 O48 2.634382 1_555
Ca10 O38 2.315195 1_555
Ca10 O78 2.332545 1_555
Ca10 O19 2.503331 1_554
Ca10 O26 2.517685 1_555
Ca10 O14 2.534151 1_555
Ca10 O7 2.614031 1_554
Ca10 O50 2.674420 1_555
Ca11 O71 2.322056 1_555
Ca11 O47 2.370635 1_555
Ca11 O3 2.505145 1_655
Ca11 O23 2.539961 1_555
Ca11 O30 2.624407 1_556
Ca11 O10 2.641757 1_656
Ca11 O63 2.747333 1_555
Ca11 O59 2.877053 1_655
Mn0 O59 1.925150 1_555
Mn0 O35 1.930720 1_555
Mn0 O73 1.960589 1_555
Mn0 O71 2.090192 1_455
Mn1 O63 1.890439 1_555
Mn1 O39 1.909019 1_555
Mn1 O67 1.939335 1_555
Mn1 O77 2.028003 1_555
Mn2 O41 1.929571 1_555
Mn2 O49 1.941202 1_555
Mn2 O73 1.996207 1_555
Mn2 O67 2.024412 1_555
Mn3 O43 1.879475 1_555
Mn3 O51 1.894966 1_555
Mn3 O65 1.964339 1_565
Mn3 O75 2.023738 1_555
Fe0 O10 1.984811 1_545
Fe0 O30 1.987514 1_445
Fe0 O21 2.001312 1_454
Fe0 O1 2.005242 1_554
Fe0 O32 2.139408 1_555
Fe0 O47 2.264489 1_444
Fe1 O0 1.978178 1_565
Fe1 O20 1.985891 1_465
Fe1 O11 1.987523 1_555
Fe1 O31 1.997984 1_455
Fe1 O46 2.186592 1_455
Fe1 O33 2.287930 1_565
Fe2 O23 1.977720 1_454
Fe2 O28 1.991354 1_455
Fe2 O3 2.009307 1_554
Fe2 O8 2.023680 1_555
Fe2 O34 2.153446 1_555
Fe2 O45 2.190452 1_454
Fe3 O22 1.993798 1_455
Fe3 O29 1.995293 1_455
Fe3 O9 2.003461 1_555
Fe3 O2 2.008732 1_555
Fe3 O35 2.102673 1_555
Fe3 O44 2.243951 1_455
Fe4 O26 1.983247 1_545
Fe4 O17 1.989722 1_554
Fe4 O14 2.016163 1_545
Fe4 O5 2.035605 1_554
Fe4 O36 2.138183 1_555
Fe4 O43 2.147044 1_544
Fe5 O16 1.974625 1_565
Fe5 O27 1.994057 1_555
Fe5 O4 1.994589 1_565
Fe5 O15 2.013940 1_555
Fe5 O42 2.179993 1_555
Fe5 O37 2.235937 1_565
Fe6 O19 2.001224 1_554
Fe6 O24 2.001383 1_555
Fe6 O12 2.002862 1_555
Fe6 O7 2.012205 1_554
Fe6 O41 2.096601 1_554
Fe6 O38 2.177676 1_555
Fe7 O25 1.989476 1_555
Fe7 O6 1.998471 1_555
Fe7 O13 2.003563 1_555
Fe7 O18 2.010052 1_555
Fe7 O39 2.120882 1_555
Fe7 O40 2.237742 1_555
Fe8 O8 1.987045 1_555
Fe8 O24 2.004258 1_555
Fe8 O1 2.005448 1_554
Fe8 O17 2.007456 1_554
Fe8 O48 2.131758 1_555
Fe8 O57 2.268511 1_554
Fe9 O0 1.994084 1_555
Fe9 O9 1.999471 1_555
Fe9 O16 2.001043 1_555
Fe9 O25 2.007246 1_555
Fe9 O49 2.102089 1_555
Fe9 O56 2.238213 1_555
Fe10 O10 1.983903 1_555
Fe10 O3 1.988280 1_554
Fe10 O26 2.009304 1_555
Fe10 O19 2.014723 1_554
Fe10 O59 2.105978 1_554
Fe10 O50 2.171507 1_555
Fe11 O2 1.986846 1_555
Fe11 O11 1.987828 1_555
Fe11 O18 1.992812 1_555
Fe11 O27 2.007034 1_555
Fe11 O51 2.157442 1_555
Fe11 O58 2.236090 1_555
Fe12 O12 1.971256 1_555
Fe12 O5 1.989962 1_554
Fe12 O28 1.994985 1_555
Fe12 O21 2.034844 1_554
Fe12 O52 2.121157 1_555
Fe12 O61 2.297467 1_554
Fe13 O13 1.983180 1_555
Fe13 O29 1.983332 1_555
Fe13 O4 1.987278 1_555
Fe13 O20 2.005020 1_555
Fe13 O53 2.234158 1_555
Fe13 O60 2.237152 1_555
Fe14 O7 1.983230 1_554
Fe14 O30 2.009947 1_555
Fe14 O23 2.010293 1_554
Fe14 O14 2.012321 1_555
Fe14 O63 2.112671 1_554
Fe14 O54 2.159473 1_555
Fe15 O22 1.988082 1_555
Fe15 O6 1.990426 1_555
Fe15 O15 1.999022 1_555
Fe15 O31 2.009410 1_555
Fe15 O55 2.204854 1_555
Fe15 O62 2.219721 1_555
Fe16 O56 1.879291 1_555
Fe16 O32 1.886216 1_555
Fe16 O74 1.940614 1_545
Fe16 O68 1.959878 1_455
Fe17 O57 1.882138 1_555
Fe17 O33 1.897642 1_555
Fe17 O75 1.942785 1_545
Fe17 O69 1.946159 1_455
Fe18 O34 1.869201 1_555
Fe18 O58 1.897909 1_555
Fe18 O72 1.940704 1_555
Fe18 O70 1.960632 1_455
Fe19 O36 1.873113 1_555
Fe19 O60 1.888237 1_555
Fe19 O78 1.939772 1_545
Fe19 O64 1.965817 1_555
Fe20 O37 1.888253 1_555
Fe20 O61 1.888686 1_555
Fe20 O65 1.930763 1_555
Fe20 O79 1.940097 1_545
Fe21 O38 1.864811 1_555
Fe21 O62 1.894044 1_555
Fe21 O76 1.937398 1_555
Fe21 O66 1.962032 1_555
Fe22 O48 1.874598 1_555
Fe22 O40 1.887354 1_555
Fe22 O66 1.935190 1_555
Fe22 O72 1.962074 1_555
Fe23 O50 1.868655 1_555
Fe23 O42 1.890391 1_555
Fe23 O64 1.941102 1_565
Fe23 O74 1.969578 1_555
Fe24 O52 1.877338 1_555
Fe24 O44 1.882490 1_555
Fe24 O70 1.935690 1_555
Fe24 O76 1.959913 1_555
Fe25 O45 1.891060 1_555
Fe25 O53 1.918233 1_555
Fe25 O77 1.921998 1_555
Fe25 O71 1.924133 1_555
Fe26 O54 1.872638 1_555
Fe26 O46 1.892843 1_555
Fe26 O68 1.934652 1_565
Fe26 O78 1.966551 1_555
Fe27 O47 1.888090 1_555
Fe27 O55 1.889911 1_555
Fe27 O69 1.928901 1_565
Fe27 O79 1.956643 1_555
O0 Sr17 2.613053 1_455
O0 Sr0 2.681258 1_555
O0 Sr9 2.757345 1_555
O1 Sr18 2.602437 1_455
O2 Sr19 2.606635 1_455
O2 Sr4 2.619463 1_555
O2 Sr10 2.668370 1_555
O2 Sr1 2.688219 1_555
O3 Sr5 2.605592 1_555
O4 Sr13 2.622256 1_555
O4 Sr7 2.624589 1_545
O4 Sr2 2.653237 1_555
O4 Sr11 2.699570 1_555
O5 Sr14 2.590141 1_555
O5 Sr8 2.592807 1_545
O6 Sr15 2.631361 1_555
O6 Sr6 2.632276 1_555
O6 Sr12 2.645807 1_555
O6 Sr3 2.692389 1_555
O7 Sr16 2.599208 1_555
O8 Sr18 2.724683 1_454
O8 Sr5 2.768109 1_554
O9 Sr1 2.603370 1_555
O9 Sr9 2.618893 1_555
O9 Sr17 2.634624 1_455
O9 Sr4 2.647139 1_555
O11 Sr0 2.602369 1_565
O11 Sr10 2.641859 1_555
O11 Sr19 2.656654 1_455
O12 Sr14 2.743267 1_554
O13 Sr11 2.606614 1_555
O13 Sr3 2.622935 1_555
O13 Sr6 2.657702 1_555
O13 Sr13 2.665106 1_555
O14 Sr8 2.704112 1_554
O14 Sr16 2.738254 1_554
O15 Sr12 2.576960 1_555
O15 Sr2 2.614571 1_565
O15 Sr7 2.677150 1_555
O15 Sr15 2.686817 1_555
O16 Sr13 2.608568 1_555
O16 Sr0 2.682142 1_555
O16 Sr11 2.777992 1_555
O17 Sr14 2.594340 1_555
O18 Sr15 2.619577 1_555
O18 Sr4 2.633370 1_555
O18 Sr12 2.655489 1_555
O18 Sr1 2.677404 1_555
O19 Sr16 2.584173 1_555
O19 Sr5 2.620026 1_555
O20 Sr17 2.627358 1_555
O20 Sr7 2.630101 1_545
O20 Sr2 2.648511 1_555
O20 Sr9 2.687442 1_655
O21 Sr8 2.576545 1_545
O21 Sr18 2.582042 1_555
O22 Sr6 2.610555 1_555
O22 Sr19 2.616553 1_555
O22 Sr10 2.673139 1_655
O22 Sr3 2.688208 1_555
O24 Sr14 2.731953 1_554
O24 Sr5 2.775984 1_554
O25 Sr1 2.601356 1_555
O25 Sr11 2.626060 1_555
O25 Sr13 2.633288 1_555
O25 Sr4 2.650055 1_555
O26 Sr16 2.756961 1_554
O27 Sr0 2.599353 1_565
O27 Sr12 2.612817 1_555
O27 Sr15 2.662498 1_555
O28 Sr18 2.723880 1_554
O29 Sr3 2.609310 1_555
O29 Sr9 2.633878 1_655
O29 Sr6 2.652091 1_555
O29 Sr17 2.654509 1_555
O30 Sr8 2.698134 1_554
O31 Sr10 2.599431 1_655
O31 Sr2 2.619619 1_565
O31 Sr19 2.673476 1_555
O31 Sr7 2.675814 1_555
O33 Sr9 2.593187 1_555
O33 Sr0 2.680750 1_555
O33 Sr2 2.968867 1_455
O35 Sr10 2.587237 1_555
O35 Sr1 2.776444 1_555
O35 Sr3 2.807766 1_455
O35 Sr9 3.170061 1_555
O37 Sr11 2.538386 1_555
O37 Sr2 2.727516 1_555
O37 Sr0 2.917169 1_555
O39 Sr12 2.624960 1_555
O39 Sr3 2.759642 1_555
O39 Sr1 2.878845 1_555
O39 Sr11 3.124517 1_555
O40 Sr13 2.561322 1_555
O40 Sr6 2.723592 1_555
O40 Sr4 2.915563 1_555
O41 Sr14 2.560073 1_555
O41 Sr5 2.935165 1_555
O41 Sr16 3.177267 1_555
O42 Sr15 2.539739 1_555
O42 Sr7 2.683842 1_555
O43 Sr16 2.590530 1_555
O43 Sr8 2.729978 1_555
O44 Sr17 2.555853 1_555
O44 Sr4 2.725665 1_655
O44 Sr6 2.903165 1_555
O45 Sr18 2.456553 1_555
O45 Sr5 2.639817 1_655
O46 Sr19 2.549360 1_555
O46 Sr7 2.944632 1_555
O47 Sr8 2.989919 1_555
O49 Sr0 2.582457 1_555
O49 Sr11 2.732675 1_555
O49 Sr9 2.852601 1_555
O49 Sr1 3.162642 1_555
O51 Sr1 2.654399 1_555
O51 Sr10 2.802806 1_555
O51 Sr12 2.811712 1_555
O51 Sr0 3.151613 1_565
O53 Sr2 2.572706 1_555
O53 Sr9 2.727651 1_655
O53 Sr11 2.923610 1_555
O53 Sr3 3.196649 1_555
O55 Sr3 2.526356 1_555
O55 Sr10 2.723169 1_655
O55 Sr12 2.927975 1_555
O56 Sr4 2.514442 1_555
O56 Sr13 2.725894 1_555
O56 Sr17 2.904882 1_455
O57 Sr5 2.498563 1_555
O57 Sr14 2.682653 1_555
O57 Sr18 2.966012 1_455
O58 Sr15 2.734937 1_555
O58 Sr19 2.903160 1_455
O59 Sr16 2.715288 1_555
O60 Sr6 2.562279 1_555
O60 Sr17 2.734702 1_555
O60 Sr13 2.910254 1_555
O61 Sr18 2.720094 1_555
O61 Sr14 2.951412 1_555
O62 Sr7 2.553861 1_555
O62 Sr19 2.733854 1_555
O62 Sr15 2.903285 1_555
O63 Sr8 2.508433 1_555
O63 Sr16 2.905392 1_555
O64 Sr13 2.509290 1_555
O65 Sr14 2.478132 1_555
O65 Sr0 2.500560 1_555
O66 Sr15 2.507108 1_555
O67 Sr16 2.433511 1_555
O67 Sr1 2.445002 1_555
O68 Sr17 2.506817 1_555
O69 Sr18 2.448965 1_555
O69 Sr2 2.468933 1_555
O70 Sr19 2.501017 1_555
O71 Sr3 2.484654 1_555
O72 Sr4 2.505804 1_555
O73 Sr5 2.449449 1_555
O73 Sr9 2.481898 1_555
O75 Sr10 2.502774 1_555
O76 Sr6 2.510989 1_555
O77 Sr11 2.495372 1_555
O78 Sr7 2.506212 1_555
O79 Sr8 2.455941 1_555
O79 Sr12 2.493452 1_555
