# generated using pymatgen
data_Zr8Sc2O19
_symmetry_space_group_name_H-M   'P 1'
_cell_length_a   3.54565275
_cell_length_b   36.12590455
_cell_length_c   34.41651106
_cell_angle_alpha   5.26121263
_cell_angle_beta   58.75805851
_cell_angle_gamma   60.38881722
_symmetry_Int_Tables_number   1
_chemical_formula_structural   Zr8Sc2O19
_chemical_formula_sum   'Zr8 Sc2 O19'
_cell_volume   331.26518855
_cell_formula_units_Z   1
loop_
 _symmetry_equiv_pos_site_id
 _symmetry_equiv_pos_as_xyz
  1  'x, y, z'
loop_
 _atom_site_type_symbol
 _atom_site_label
 _atom_site_symmetry_multiplicity
 _atom_site_fract_x
 _atom_site_fract_y
 _atom_site_fract_z
 _atom_site_occupancy
  Zr  Zr0  1  0.00724400  0.00450700  0.99436600  1
  Zr  Zr1  1  0.00037100  0.10078000  0.99902500  1
  Zr  Zr2  1  0.99820400  0.19800800  0.00249000  1
  Zr  Zr3  1  0.99609400  0.29696300  0.00379600  1
  Zr  Zr4  1  0.99414600  0.39551300  0.00560900  1
  Zr  Zr5  1  0.99275300  0.49383500  0.00770600  1
  Zr  Zr6  1  0.98266500  0.68672400  0.01659500  1
  Zr  Zr7  1  0.98865100  0.59219600  0.00975500  1
  Sc  Sc0  1  0.01205400  0.81239000  0.98451200  1
  Sc  Sc1  1  0.97975500  0.88142900  0.02321300  1
  O  O0  1  0.24561700  0.09721900  0.25347700  1
  O  O1  1  0.23363900  0.18759000  0.26551300  1
  O  O2  1  0.26118800  0.30967900  0.23790100  1
  O  O3  1  0.20839800  0.36723200  0.29096000  1
  O  O4  1  0.26733800  0.51599800  0.23000200  1
  O  O5  1  0.69954000  0.96149700  0.79812900  1
  O  O6  1  0.77253400  0.12155600  0.72305500  1
  O  O7  1  0.23324300  0.68715800  0.26605300  1
  O  O8  1  0.79711700  0.23711500  0.70360600  1
  O  O9  1  0.27913400  0.82356400  0.22054400  1
  O  O10  1  0.74278900  0.29322100  0.75847400  1
  O  O11  1  0.23299900  0.88716100  0.26604900  1
  O  O12  1  0.77853100  0.42236900  0.72203900  1
  O  O13  1  0.25732800  0.00649600  0.24188000  1
  O  O14  1  0.75056200  0.49968700  0.75039100  1
  O  O15  1  0.75903300  0.60656000  0.74180000  1
  O  O16  1  0.76448900  0.71084500  0.73644400  1
  O  O17  1  0.73477400  0.78727900  0.76590100  1
  O  O18  1  0.77481000  0.91942700  0.72571700  1
loop_
_geom_bond_atom_site_label_1
_geom_bond_atom_site_label_2
_geom_bond_distance
_geom_bond_site_symmetry_2
O0 Zr3 2.180806 1_555
O0 Zr3 2.186136 1_455
O0 Zr4 2.237459 1_455
O0 Zr4 2.237471 1_446
O1 Zr5 2.208666 1_455
O1 Zr5 2.208684 1_446
O1 Zr4 2.210966 1_555
O1 Zr4 2.217699 1_455
O2 Zr5 2.126294 1_555
O2 Zr5 2.127557 1_455
O2 Zr7 2.296851 1_446
O2 Zr7 2.296857 1_455
O3 Zr6 2.162482 1_446
O3 Zr6 2.162483 1_455
O3 Zr7 2.273199 1_555
O3 Zr7 2.289107 1_455
O4 Zr6 2.079426 1_455
O4 Zr6 2.082168 1_555
O4 Sc0 2.244463 1_545
O4 Sc0 2.244463 1_554
O5 Sc0 2.011454 1_555
O5 Sc0 2.012555 1_655
O5 Zr6 2.327038 1_565
O5 Zr6 2.327044 1_556
O6 Sc0 2.198283 1_654
O6 Sc0 2.198295 1_645
O6 Sc1 2.318004 1_446
O6 Sc1 2.368654 1_546
O7 Sc1 2.157476 1_455
O7 Sc1 2.169078 1_555
O7 Zr0 2.169815 1_564
O7 Zr0 2.169834 1_555
O8 Sc1 2.048806 1_555
O8 Sc1 2.048819 1_546
O8 Zr0 2.304310 1_555
O8 Zr0 2.320009 1_655
O9 Zr0 2.114530 1_564
O9 Zr0 2.116782 1_664
O9 Zr1 2.317452 1_555
O9 Zr1 2.317476 1_564
O10 Zr1 2.155960 1_655
O10 Zr1 2.157202 1_555
O10 Zr0 2.273180 1_664
O10 Zr0 2.273192 1_655
O11 Zr2 2.192381 1_465
O11 Zr2 2.192387 1_456
O11 Zr1 2.232113 1_664
O11 Zr1 2.240489 1_564
O12 Zr1 2.155400 1_664
O12 Zr1 2.155407 1_655
O12 Zr2 2.273064 1_456
O12 Zr2 2.284386 1_556
O13 Zr2 2.152745 1_555
O13 Zr2 2.153684 1_455
O13 Zr3 2.266566 1_455
O13 Zr3 2.266572 1_446
O14 Zr3 2.192662 1_456
O14 Zr3 2.196559 1_556
O14 Zr2 2.225106 1_556
O14 Zr2 2.225111 1_565
O15 Zr3 2.196778 1_565
O15 Zr3 2.196784 1_556
O15 Zr4 2.224250 1_456
O15 Zr4 2.228417 1_556
O16 Zr4 2.176754 1_565
O16 Zr4 2.176754 1_556
O16 Zr5 2.245659 1_456
O16 Zr5 2.253428 1_556
O17 Zr7 2.164519 1_556
O17 Zr7 2.167945 1_456
O17 Zr5 2.255412 1_565
O17 Zr5 2.255413 1_556
O18 Zr7 2.136620 1_565
O18 Zr7 2.136639 1_556
O18 Zr6 2.310540 1_456
O18 Zr6 2.314515 1_556
