# generated using pymatgen
data_Fe5Co3
_symmetry_space_group_name_H-M   'P 1'
_cell_length_a   4.79935344
_cell_length_b   4.79935344
_cell_length_c   4.79935344
_cell_angle_alpha   109.47122063
_cell_angle_beta   109.47122063
_cell_angle_gamma   109.47122063
_symmetry_Int_Tables_number   1
_chemical_formula_structural   Fe5Co3
_chemical_formula_sum   'Fe5 Co3'
_cell_volume   85.09936333
_cell_formula_units_Z   1
loop_
 _symmetry_equiv_pos_site_id
 _symmetry_equiv_pos_as_xyz
  1  'x, y, z'
loop_
 _atom_site_type_symbol
 _atom_site_label
 _atom_site_symmetry_multiplicity
 _atom_site_fract_x
 _atom_site_fract_y
 _atom_site_fract_z
 _atom_site_occupancy
  Fe  Fe0  1  0.00000000  0.00000000  0.00000000  1
  Fe  Fe1  1  0.00000000  0.00000000  0.50000000  1
  Fe  Fe2  1  0.00000000  0.50000000  0.00000000  1
  Fe  Fe3  1  0.50000000  0.00000000  0.00000000  1
  Fe  Fe4  1  0.50000000  0.50000000  0.50000000  1
  Co  Co0  1  0.00000000  0.50000000  0.50000000  1
  Co  Co1  1  0.50000000  0.50000000  0.00000000  1
  Co  Co2  1  0.50000000  0.00000000  0.50000000  1
loop_
_geom_bond_atom_site_label_1
_geom_bond_atom_site_label_2
_geom_bond_distance
_geom_bond_site_symmetry_2
Fe0 Fe2 2.399677 1_545
Fe0 Fe1 2.399677 1_554
Fe0 Fe4 2.399677 1_444
Fe0 Fe1 2.399677 1_555
Fe0 Fe3 2.399677 1_455
Fe0 Fe2 2.399677 1_555
Fe0 Fe4 2.399677 1_555
Fe0 Fe3 2.399677 1_555
Co0 Fe1 2.399677 1_555
Co0 Fe1 2.399677 1_565
Co0 Fe3 2.399677 1_455
Co0 Fe2 2.399677 1_555
Co0 Fe2 2.399677 1_556
Co0 Fe4 2.399677 1_555
Co0 Fe4 2.399677 1_455
Co0 Fe3 2.399677 1_566
Co1 Fe3 2.399677 1_565
Co1 Fe1 2.399677 1_554
Co1 Fe4 2.399677 1_554
Co1 Fe2 2.399677 1_555
Co1 Fe1 2.399677 1_665
Co1 Fe4 2.399677 1_555
Co1 Fe2 2.399677 1_655
Co1 Fe3 2.399677 1_555
Co2 Fe1 2.399677 1_555
Co2 Fe1 2.399677 1_655
Co2 Fe3 2.399677 1_555
Co2 Fe4 2.399677 1_545
Co2 Fe3 2.399677 1_556
Co2 Fe4 2.399677 1_555
Co2 Fe2 2.399677 1_656
Co2 Fe2 2.399677 1_545
