# generated using pymatgen
data_Tb5(In2Pt)2
_symmetry_space_group_name_H-M   'P 1'
_cell_length_a   3.64836427
_cell_length_b   8.08896248
_cell_length_c   18.22926057
_cell_angle_alpha   90.00000000
_cell_angle_beta   90.00000000
_cell_angle_gamma   90.00000000
_symmetry_Int_Tables_number   1
_chemical_formula_structural   Tb5(In2Pt)2
_chemical_formula_sum   'Tb10 In8 Pt4'
_cell_volume   537.97248960
_cell_formula_units_Z   2
loop_
 _symmetry_equiv_pos_site_id
 _symmetry_equiv_pos_as_xyz
  1  'x, y, z'
loop_
 _atom_site_type_symbol
 _atom_site_label
 _atom_site_symmetry_multiplicity
 _atom_site_fract_x
 _atom_site_fract_y
 _atom_site_fract_z
 _atom_site_occupancy
  Tb  Tb0  1  -0.00000000  0.11558408  0.41552199  1
  Tb  Tb1  1  0.00000000  0.88441592  0.58447801  1
  Tb  Tb2  1  0.00000000  0.38441592  0.91552199  1
  Tb  Tb3  1  -0.00000000  0.61558408  0.08447801  1
  Tb  Tb4  1  -0.00000000  0.24292929  0.22026121  1
  Tb  Tb5  1  -0.00000000  0.75707071  0.77973879  1
  Tb  Tb6  1  -0.00000000  0.25707071  0.72026121  1
  Tb  Tb7  1  -0.00000000  0.74292929  0.27973879  1
  Tb  Tb8  1  -0.00000000  0.00000000  0.00000000  1
  Tb  Tb9  1  -0.00000000  0.50000000  0.50000000  1
  In  In0  1  0.50000000  0.42478342  0.35120286  1
  In  In1  1  0.50000000  0.57521658  0.64879714  1
  In  In2  1  0.50000000  0.07521658  0.85120286  1
  In  In3  1  0.50000000  0.92478342  0.14879714  1
  In  In4  1  0.50000000  0.29002825  0.06804090  1
  In  In5  1  0.50000000  0.70997175  0.93195910  1
  In  In6  1  0.50000000  0.20997175  0.56804090  1
  In  In7  1  0.50000000  0.79002825  0.43195910  1
  Pt  Pt0  1  0.50000000  0.02601214  0.30382254  1
  Pt  Pt1  1  0.50000000  0.97398786  0.69617746  1
  Pt  Pt2  1  0.50000000  0.47398786  0.80382254  1
  Pt  Pt3  1  0.50000000  0.52601214  0.19617746  1
loop_
_geom_bond_atom_site_label_1
_geom_bond_atom_site_label_2
_geom_bond_distance
_geom_bond_site_symmetry_2
In0 Pt3 2.942237 1_555
In0 In7 3.300900 1_555
In0 Tb0 3.310270 1_655
In0 Tb0 3.310270 1_555
In0 Tb9 3.324947 1_555
In0 Tb9 3.324947 1_655
In0 Pt0 3.339279 1_555
In0 Tb4 3.345017 1_555
In0 Tb4 3.345017 1_655
In0 Tb7 3.412845 1_555
In0 Tb7 3.412845 1_655
In1 Pt2 2.942237 1_555
In1 In6 3.300900 1_555
In1 Tb1 3.310270 1_555
In1 Tb1 3.310270 1_655
In1 Tb9 3.324947 1_555
In1 Tb9 3.324947 1_655
In1 Pt1 3.339279 1_555
In1 Tb5 3.345017 1_555
In1 Tb5 3.345017 1_655
In1 Tb6 3.412845 1_655
In1 Tb6 3.412845 1_555
In2 Pt1 2.942237 1_545
In2 In5 3.300900 1_545
In2 Tb2 3.310270 1_555
In2 Tb2 3.310270 1_655
In2 Tb8 3.324947 1_556
In2 Tb8 3.324947 1_656
In2 Pt2 3.339279 1_555
In2 Tb6 3.345017 1_655
In2 Tb6 3.345017 1_555
In2 Tb5 3.412845 1_545
In2 Tb5 3.412845 1_645
In3 Pt0 2.942237 1_565
In3 In4 3.300900 1_565
In3 Tb3 3.310270 1_655
In3 Tb3 3.310270 1_555
In3 Tb8 3.324947 1_565
In3 Tb8 3.324947 1_665
In3 Pt3 3.339279 1_555
In3 Tb7 3.345017 1_555
In3 Tb7 3.345017 1_655
In3 Tb4 3.412845 1_565
In3 Tb4 3.412845 1_665
In4 Pt3 3.016602 1_555
In4 Tb3 3.217494 1_555
In4 Tb3 3.217494 1_655
In4 Tb8 3.220236 1_555
In4 Tb8 3.220236 1_655
In4 Tb4 3.342552 1_555
In4 Tb4 3.342552 1_655
In4 Tb2 3.411844 1_554
In4 Tb2 3.411844 1_654
In5 Pt2 3.016602 1_555
In5 Tb2 3.217494 1_555
In5 Tb2 3.217494 1_655
In5 Tb8 3.220236 1_566
In5 Tb8 3.220236 1_666
In5 Tb5 3.342552 1_555
In5 Tb5 3.342552 1_655
In5 Tb3 3.411844 1_556
In5 Tb3 3.411844 1_656
In6 Pt1 3.016602 1_545
In6 Tb1 3.217494 1_545
In6 Tb1 3.217494 1_645
In6 Tb9 3.220236 1_555
In6 Tb9 3.220236 1_655
In6 Tb6 3.342552 1_655
In6 Tb6 3.342552 1_555
In6 Tb0 3.411844 1_555
In6 Tb0 3.411844 1_655
In7 Pt0 3.016602 1_565
In7 Tb0 3.217494 1_665
In7 Tb0 3.217494 1_565
In7 Tb9 3.220236 1_655
In7 Tb9 3.220236 1_555
In7 Tb7 3.342552 1_655
In7 Tb7 3.342552 1_555
In7 Tb1 3.411844 1_555
In7 Tb1 3.411844 1_655
Pt0 Tb0 2.828199 1_555
Pt0 Tb0 2.828199 1_655
Pt0 Tb4 2.954100 1_655
Pt0 Tb4 2.954100 1_555
Pt0 Tb7 2.960369 1_545
Pt0 Tb7 2.960369 1_645
Pt1 Tb1 2.828199 1_555
Pt1 Tb1 2.828199 1_655
Pt1 Tb5 2.954100 1_555
Pt1 Tb5 2.954100 1_655
Pt1 Tb6 2.960369 1_665
Pt1 Tb6 2.960369 1_565
Pt2 Tb2 2.828199 1_655
Pt2 Tb2 2.828199 1_555
Pt2 Tb6 2.954100 1_655
Pt2 Tb6 2.954100 1_555
Pt2 Tb5 2.960369 1_555
Pt2 Tb5 2.960369 1_655
Pt3 Tb3 2.828199 1_655
Pt3 Tb3 2.828199 1_555
Pt3 Tb7 2.954100 1_555
Pt3 Tb7 2.954100 1_655
Pt3 Tb4 2.960369 1_555
Pt3 Tb4 2.960369 1_655
