# generated using pymatgen
data_CuH14C2N10(ClO3)2
_symmetry_space_group_name_H-M   'P 1'
_cell_length_a   7.98604500
_cell_length_b   13.14010300
_cell_length_c   7.94692912
_cell_angle_alpha   90.00000000
_cell_angle_beta   115.34512416
_cell_angle_gamma   90.00000000
_symmetry_Int_Tables_number   1
_chemical_formula_structural   CuH14C2N10(ClO3)2
_chemical_formula_sum   'Cu2 H28 C4 N20 Cl4 O12'
_cell_volume   753.66110845
_cell_formula_units_Z   2
loop_
 _symmetry_equiv_pos_site_id
 _symmetry_equiv_pos_as_xyz
  1  'x, y, z'
loop_
 _atom_site_type_symbol
 _atom_site_label
 _atom_site_symmetry_multiplicity
 _atom_site_fract_x
 _atom_site_fract_y
 _atom_site_fract_z
 _atom_site_occupancy
  Cu  Cu0  1  0.00000000  0.50000000  0.50000000  1
  Cu  Cu1  1  0.00000000  0.00000000  0.00000000  1
  H  H0  1  0.26377800  0.44573300  0.08637500  1
  H  H1  1  0.73622200  0.94573300  0.41362500  1
  H  H2  1  0.73622200  0.55426700  0.91362500  1
  H  H3  1  0.26377800  0.05426700  0.58637500  1
  H  H4  1  0.25754800  0.62982400  0.64678400  1
  H  H5  1  0.74245200  0.12982400  0.85321600  1
  H  H6  1  0.74245200  0.37017600  0.35321600  1
  H  H7  1  0.25754800  0.87017600  0.14678400  1
  H  H8  1  0.08788000  0.67986300  0.46124600  1
  H  H9  1  0.91212000  0.17986300  0.03875400  1
  H  H10  1  0.91212000  0.32013700  0.53875400  1
  H  H11  1  0.08788000  0.82013700  0.96124600  1
  H  H12  1  0.41457100  0.54882900  0.18937900  1
  H  H13  1  0.58542900  0.04882900  0.31062100  1
  H  H14  1  0.58542900  0.45117100  0.81062100  1
  H  H15  1  0.41457100  0.95117100  0.68937900  1
  H  H16  1  0.34712200  0.65704700  0.39066000  1
  H  H17  1  0.65287800  0.15704700  0.10934000  1
  H  H18  1  0.65287800  0.34295300  0.60934000  1
  H  H19  1  0.34712200  0.84295300  0.89066000  1
  H  H20  1  0.45880300  0.20668100  0.53527600  1
  H  H21  1  0.54119700  0.70668100  0.96472400  1
  H  H22  1  0.54119700  0.79331900  0.46472400  1
  H  H23  1  0.45880300  0.29331900  0.03527600  1
  H  H24  1  0.43901400  0.28306500  0.68026000  1
  H  H25  1  0.56098600  0.78306500  0.81974000  1
  H  H26  1  0.56098600  0.71693500  0.31974000  1
  H  H27  1  0.43901400  0.21693500  0.18026000  1
  C  C0  1  0.21908200  0.51737200  0.28859500  1
  C  C1  1  0.78091800  0.01737200  0.21140500  1
  C  C2  1  0.78091800  0.48262800  0.71140500  1
  C  C3  1  0.21908200  0.98262800  0.78859500  1
  N  N0  1  0.16708500  0.61542500  0.51123300  1
  N  N1  1  0.83291500  0.11542500  0.98876700  1
  N  N2  1  0.83291500  0.38457500  0.48876700  1
  N  N3  1  0.16708500  0.88457500  0.01123300  1
  N  N4  1  0.26764400  0.59666100  0.40602500  1
  N  N5  1  0.73235600  0.09666100  0.09397500  1
  N  N6  1  0.73235600  0.40333900  0.59397500  1
  N  N7  1  0.26764400  0.90333900  0.90602500  1
  N  N8  1  0.30227300  0.50515900  0.17705300  1
  N  N9  1  0.69772700  0.00515900  0.32294700  1
  N  N10  1  0.69772700  0.49484100  0.82294700  1
  N  N11  1  0.30227300  0.99484100  0.67705300  1
  N  N12  1  0.08660500  0.45548800  0.30202500  1
  N  N13  1  0.91339500  0.95548800  0.19797500  1
  N  N14  1  0.91339500  0.54451200  0.69797500  1
  N  N15  1  0.08660500  0.04451200  0.80202500  1
  N  N16  1  0.02670500  0.37172500  0.19252600  1
  N  N17  1  0.97329500  0.87172500  0.30747400  1
  N  N18  1  0.97329500  0.62827500  0.80747400  1
  N  N19  1  0.02670500  0.12827500  0.69252600  1
  Cl  Cl0  1  0.68112000  0.60655700  0.21162500  1
  Cl  Cl1  1  0.31888000  0.10655700  0.28837500  1
  Cl  Cl2  1  0.31888000  0.39344300  0.78837500  1
  Cl  Cl3  1  0.68112000  0.89344300  0.71162500  1
  O  O0  1  0.91463400  0.31647700  0.22069100  1
  O  O1  1  0.08536600  0.81647700  0.27930900  1
  O  O2  1  0.08536600  0.68352300  0.77930900  1
  O  O3  1  0.91463400  0.18352300  0.72069100  1
  O  O4  1  0.07899400  0.35146300  0.06874300  1
  O  O5  1  0.92100600  0.85146300  0.43125700  1
  O  O6  1  0.92100600  0.64853700  0.93125700  1
  O  O7  1  0.07899400  0.14853700  0.56874300  1
  O  O8  1  0.53050400  0.24743000  0.64758600  1
  O  O9  1  0.46949600  0.74743000  0.85241400  1
  O  O10  1  0.46949600  0.75257000  0.35241400  1
  O  O11  1  0.53050400  0.25257000  0.14758600  1
loop_
_geom_bond_atom_site_label_1
_geom_bond_atom_site_label_2
_geom_bond_distance
_geom_bond_site_symmetry_2
Cu0 N0 1.996708 1_555
Cu0 N2 1.996708 1_455
Cu0 N12 2.056041 1_555
Cu0 N14 2.056041 1_455
Cu1 N3 1.996708 1_545
Cu1 N1 1.996708 1_454
Cu1 N13 2.056041 1_445
Cu1 N15 2.056041 1_554
H0 N8 1.016797 1_555
H1 N9 1.016797 1_565
H2 N10 1.016797 1_555
H3 N11 1.016797 1_545
H4 N0 1.025593 1_555
H5 N1 1.025593 1_555
H6 N2 1.025593 1_555
H7 N3 1.025593 1_555
H8 N0 1.029426 1_555
H9 N1 1.029426 1_554
H10 N2 1.029426 1_555
H11 N3 1.029426 1_556
H12 N8 1.033414 1_555
H13 N9 1.033414 1_555
H14 N10 1.033414 1_555
H15 N11 1.033414 1_555
H16 N4 1.055335 1_555
H17 N5 1.055335 1_555
H18 N6 1.055335 1_555
H19 N7 1.055335 1_555
H20 O8 0.986728 1_555
H21 O9 0.986728 1_555
H22 O10 0.986728 1_555
H23 O11 0.986728 1_555
H24 O8 0.991434 1_555
H25 O9 0.991434 1_555
H26 O10 0.991434 1_555
H27 O11 0.991434 1_555
C0 N8 1.325540 1_555
C0 N4 1.340490 1_555
C0 N12 1.374259 1_555
C1 N9 1.325540 1_555
C1 N5 1.340490 1_555
C1 N13 1.374259 1_545
C2 N10 1.325540 1_555
C2 N6 1.340490 1_555
C2 N14 1.374259 1_555
C3 N11 1.325540 1_555
C3 N7 1.340490 1_555
C3 N15 1.374259 1_565
N0 N4 1.406976 1_555
N1 N5 1.406976 1_556
N2 N6 1.406976 1_555
N3 N7 1.406976 1_554
N12 N16 1.356874 1_555
N13 N17 1.356874 1_555
N14 N18 1.356874 1_555
N15 N19 1.356874 1_555
N16 O0 1.244853 1_455
N16 O4 1.250838 1_555
N17 O1 1.244853 1_655
N17 O5 1.250838 1_555
N18 O2 1.244853 1_655
N18 O6 1.250838 1_555
N19 O3 1.244853 1_455
N19 O7 1.250838 1_555
