# generated using pymatgen
data_YZr2Ni15
_symmetry_space_group_name_H-M   'P 1'
_cell_length_a   4.77708032
_cell_length_b   4.77708032
_cell_length_c   11.69867700
_cell_angle_alpha   90.00000000
_cell_angle_beta   90.00000000
_cell_angle_gamma   120.00000437
_symmetry_Int_Tables_number   1
_chemical_formula_structural   YZr2Ni15
_chemical_formula_sum   'Y1 Zr2 Ni15'
_cell_volume   231.20245902
_cell_formula_units_Z   1
loop_
 _symmetry_equiv_pos_site_id
 _symmetry_equiv_pos_as_xyz
  1  'x, y, z'
loop_
 _atom_site_type_symbol
 _atom_site_label
 _atom_site_symmetry_multiplicity
 _atom_site_fract_x
 _atom_site_fract_y
 _atom_site_fract_z
 _atom_site_occupancy
  Y  Y0  1  0.00000000  0.00000000  0.99984500  1
  Zr  Zr0  1  0.66666700  0.33333300  0.33490900  1
  Zr  Zr1  1  0.33333300  0.66666700  0.66558100  1
  Ni  Ni0  1  0.83059600  0.16940400  0.78868000  1
  Ni  Ni1  1  0.49924500  0.50075500  0.12893100  1
  Ni  Ni2  1  0.16512400  0.83487600  0.45871000  1
  Ni  Ni3  1  0.83059600  0.66119200  0.78868000  1
  Ni  Ni4  1  0.49924500  0.99849000  0.12893100  1
  Ni  Ni5  1  0.16512400  0.33024800  0.45871000  1
  Ni  Ni6  1  0.66666700  0.33333300  0.95641000  1
  Ni  Ni7  1  0.33333300  0.66666700  0.29190900  1
  Ni  Ni8  1  0.00000000  0.00000000  0.62284400  1
  Ni  Ni9  1  0.33880800  0.16940400  0.78868000  1
  Ni  Ni10  1  0.00151000  0.50075500  0.12893100  1
  Ni  Ni11  1  0.66975200  0.83487600  0.45871000  1
  Ni  Ni12  1  0.00000000  0.00000000  0.25530500  1
  Ni  Ni13  1  0.66666700  0.33333300  0.58308700  1
  Ni  Ni14  1  0.33333300  0.66666700  0.91114700  1
loop_
_geom_bond_atom_site_label_1
_geom_bond_atom_site_label_2
_geom_bond_distance
_geom_bond_site_symmetry_2
Ni0 Ni9 2.349311 1_555
Ni0 Ni3 2.349311 1_555
Ni0 Ni6 2.385383 1_555
Ni0 Ni8 2.393434 1_655
Ni0 Ni9 2.427770 1_655
Ni0 Ni3 2.427770 1_545
Ni0 Ni13 2.761262 1_555
Ni0 Ni14 2.785367 1_655
Ni0 Ni14 2.785367 1_545
Ni0 Zr1 2.789177 1_545
Ni0 Zr1 2.789177 1_655
Ni0 Y0 2.840303 1_655
Ni1 Ni7 2.349415 1_555
Ni1 Ni10 2.377720 1_555
Ni1 Ni4 2.377720 1_555
Ni1 Ni4 2.399360 1_545
Ni1 Ni10 2.399360 1_655
Ni1 Ni6 2.447935 1_554
Ni1 Zr0 2.779477 1_555
Ni1 Ni12 2.809066 1_555
Ni1 Ni12 2.809066 1_665
Ni1 Y0 2.825893 1_554
Ni1 Y0 2.825893 1_664
Ni1 Ni14 2.894086 1_554
Ni2 Ni8 2.356617 1_565
Ni2 Ni5 2.366432 1_565
Ni2 Ni7 2.396839 1_555
Ni2 Ni5 2.410648 1_555
Ni2 Zr1 2.791780 1_555
Ni2 Zr0 2.793364 1_455
Ni2 Zr0 2.793364 1_565
Ni3 Ni9 2.349311 1_555
Ni3 Ni6 2.385385 1_555
Ni3 Ni8 2.393434 1_665
Ni3 Ni9 2.427769 1_665
Ni3 Zr1 2.789176 1_655
Ni3 Zr1 2.789180 1_555
Ni3 Y0 2.840303 1_665
Ni4 Ni7 2.349413 1_555
Ni4 Ni6 2.447933 1_564
Ni4 Zr0 2.779475 1_565
Ni4 Y0 2.825893 1_664
Ni4 Y0 2.825893 1_564
Ni5 Ni8 2.356617 1_555
Ni5 Ni7 2.396842 1_555
Ni5 Zr1 2.791782 1_555
Ni5 Zr0 2.793362 1_455
Ni5 Zr0 2.793366 1_555
Ni6 Ni9 2.385385 1_555
Ni6 Y0 2.804463 1_655
Ni6 Y0 2.804467 1_665
Ni6 Y0 2.804467 1_555
Ni7 Zr0 2.803546 1_455
Ni7 Zr0 2.803546 1_565
Ni7 Zr0 2.803554 1_555
Ni8 Ni9 2.393434 1_555
Ni8 Zr1 2.802995 1_545
Ni8 Zr1 2.802999 1_445
Ni8 Zr1 2.802999 1_555
Ni9 Zr1 2.789176 1_545
Ni9 Zr1 2.789180 1_555
Ni9 Y0 2.840303 1_555
Ni10 Ni7 2.349413 1_555
Ni10 Ni4 2.377720 1_555
Ni10 Ni4 2.399360 1_445
Ni10 Ni6 2.447933 1_454
Ni10 Zr0 2.779475 1_455
Ni10 Ni12 2.809067 1_555
Ni10 Ni12 2.809067 1_565
Ni10 Y0 2.825893 1_554
Ni10 Y0 2.825893 1_564
Ni10 Ni14 2.894084 1_554
Ni11 Ni8 2.356617 1_665
Ni11 Ni5 2.366432 1_665
Ni11 Ni2 2.366432 1_655
Ni11 Ni7 2.396842 1_555
Ni11 Ni5 2.410648 1_555
Ni11 Ni2 2.410648 1_555
Ni11 Ni12 2.743905 1_665
Ni11 Zr1 2.791782 1_555
Ni11 Zr0 2.793362 1_565
Ni11 Zr0 2.793366 1_555
Ni11 Ni13 2.796862 1_565
Ni11 Ni13 2.796866 1_555
Ni12 Ni5 2.743905 1_555
Ni12 Ni2 2.743905 1_545
Ni12 Ni7 2.791091 1_545
Ni12 Ni7 2.791095 1_445
Ni12 Ni7 2.791095 1_555
Ni12 Ni4 2.809067 1_445
Ni12 Ni4 2.809067 1_545
Ni12 Zr0 2.911025 1_455
Ni12 Zr0 2.911029 1_445
Ni12 Zr0 2.911029 1_555
Ni12 Y0 2.988544 1_554
Ni13 Ni3 2.761264 1_555
Ni13 Ni9 2.761264 1_555
Ni13 Ni5 2.796862 1_655
Ni13 Ni2 2.796864 1_655
Ni13 Ni2 2.796864 1_545
Ni13 Ni5 2.796866 1_555
Ni13 Ni8 2.796988 1_655
Ni13 Ni8 2.796991 1_665
Ni13 Ni8 2.796991 1_555
Ni13 Zr0 2.903354 1_555
Ni13 Zr1 2.922016 1_545
Ni13 Zr1 2.922016 1_655
Ni13 Zr1 2.922024 1_555
Ni14 Ni3 2.785365 1_455
Ni14 Ni9 2.785365 1_565
Ni14 Ni9 2.785369 1_555
Ni14 Ni3 2.785369 1_555
Ni14 Ni6 2.808417 1_455
Ni14 Ni6 2.808417 1_565
Ni14 Ni6 2.808425 1_555
Ni14 Zr1 2.872797 1_555
Ni14 Ni4 2.894084 1_556
Ni14 Y0 2.946784 1_565
Ni14 Y0 2.946787 1_555
Ni14 Y0 2.946787 1_665
