# generated using pymatgen
data_Li5Mn(CoO4)2
_symmetry_space_group_name_H-M   'P 1'
_cell_length_a   6.38571818
_cell_length_b   6.38571818
_cell_length_c   9.84630503
_cell_angle_alpha   53.00111663
_cell_angle_beta   53.00111663
_cell_angle_gamma   26.71605787
_symmetry_Int_Tables_number   1
_chemical_formula_structural   Li5Mn(CoO4)2
_chemical_formula_sum   'Li5 Mn1 Co2 O8'
_cell_volume   141.83338513
_cell_formula_units_Z   1
loop_
 _symmetry_equiv_pos_site_id
 _symmetry_equiv_pos_as_xyz
  1  'x, y, z'
loop_
 _atom_site_type_symbol
 _atom_site_label
 _atom_site_symmetry_multiplicity
 _atom_site_fract_x
 _atom_site_fract_y
 _atom_site_fract_z
 _atom_site_occupancy
  Li  Li0  1  0.87745500  0.87745500  0.37934900  1
  Li  Li1  1  0.63021400  0.63021400  0.11335300  1
  Li  Li2  1  0.36661800  0.36661800  0.87500500  1
  Li  Li3  1  0.12729500  0.12729500  0.62386500  1
  Li  Li4  1  0.74991900  0.74991900  0.75720700  1
  Mn  Mn0  1  0.00751200  0.00751200  0.99281100  1
  Co  Co0  1  0.49105600  0.49105600  0.51248800  1
  Co  Co1  1  0.24490000  0.24490000  0.24901000  1
  O  O0  1  0.81554900  0.81554900  0.07047200  1
  O  O1  1  0.55382300  0.55382300  0.83590800  1
  O  O2  1  0.33324400  0.33324400  0.55156700  1
  O  O3  1  0.06569400  0.06569400  0.31992600  1
  O  O4  1  0.94511200  0.94511200  0.67197800  1
  O  O5  1  0.67819800  0.67819800  0.43550800  1
  O  O6  1  0.43760300  0.43760300  0.16872300  1
  O  O7  1  0.17580800  0.17580800  0.94282900  1
loop_
_geom_bond_atom_site_label_1
_geom_bond_atom_site_label_2
_geom_bond_distance
_geom_bond_site_symmetry_2
Li0 O3 2.029887 1_665
Li0 O2 2.049737 1_655
Li0 O2 2.049737 1_565
Li0 O5 2.177711 1_555
Li0 O6 2.262460 1_565
Li0 O6 2.262460 1_655
Li1 O7 2.034686 1_564
Li1 O7 2.034686 1_654
Li1 O0 2.068577 1_555
Li1 O6 2.100301 1_555
Li1 O3 2.222421 1_565
Li1 O3 2.222421 1_655
Li2 O7 2.027020 1_555
Li2 O1 2.109877 1_555
Li2 O4 2.170745 1_545
Li2 O4 2.170745 1_455
Li2 O0 2.184629 1_546
Li2 O0 2.184629 1_456
Li3 O4 2.005615 1_445
Li3 O5 2.136611 1_545
Li3 O5 2.136611 1_455
Li3 O2 2.191380 1_555
Li3 O1 2.238564 1_545
Li3 O1 2.238564 1_455
Li4 O4 2.017202 1_555
Li4 O1 2.049882 1_555
Li4 O7 2.069533 1_565
Li4 O7 2.069533 1_655
Li4 O2 2.180587 1_655
Li4 O2 2.180587 1_565
Mn0 O7 1.828193 1_555
Mn0 O1 1.948001 1_545
Mn0 O1 1.948001 1_455
Mn0 O0 2.004509 1_446
Mn0 O6 2.017419 1_546
Mn0 O6 2.017419 1_456
Co0 O2 1.749283 1_555
Co0 O5 1.949771 1_555
Co0 O4 1.964576 1_455
Co0 O4 1.964576 1_545
Co0 O3 2.110999 1_655
Co0 O3 2.110999 1_565
Co1 O3 1.876885 1_555
Co1 O6 2.004228 1_555
Co1 O0 2.031870 1_455
Co1 O0 2.031870 1_545
Co1 O5 2.086335 1_545
Co1 O5 2.086335 1_455
