# generated using pymatgen
data_ZnCuAsO5
_symmetry_space_group_name_H-M   'P 1'
_cell_length_a   5.81389600
_cell_length_b   8.70002100
_cell_length_c   8.89854000
_cell_angle_alpha   90.00000000
_cell_angle_beta   90.00000000
_cell_angle_gamma   90.00000000
_symmetry_Int_Tables_number   1
_chemical_formula_structural   ZnCuAsO5
_chemical_formula_sum   'Zn4 Cu4 As4 O20'
_cell_volume   450.09720561
_cell_formula_units_Z   4
loop_
 _symmetry_equiv_pos_site_id
 _symmetry_equiv_pos_as_xyz
  1  'x, y, z'
loop_
 _atom_site_type_symbol
 _atom_site_label
 _atom_site_symmetry_multiplicity
 _atom_site_fract_x
 _atom_site_fract_y
 _atom_site_fract_z
 _atom_site_occupancy
  Zn  Zn0  1  0.00000000  0.85079700  0.39114700  1
  Zn  Zn1  1  0.00000000  0.14920300  0.60885300  1
  Zn  Zn2  1  0.50000000  0.35079700  0.10885300  1
  Zn  Zn3  1  0.50000000  0.64920300  0.89114700  1
  Cu  Cu0  1  0.74602200  0.00000000  0.00000000  1
  Cu  Cu1  1  0.25397800  0.00000000  0.00000000  1
  Cu  Cu2  1  0.75397800  0.50000000  0.50000000  1
  Cu  Cu3  1  0.24602200  0.50000000  0.50000000  1
  As  As0  1  0.00000000  0.77295100  0.75460600  1
  As  As1  1  0.00000000  0.22704900  0.24539400  1
  As  As2  1  0.50000000  0.27295100  0.74539400  1
  As  As3  1  0.50000000  0.72704900  0.25460600  1
  O  O0  1  0.00000000  0.90575800  0.61053600  1
  O  O1  1  0.00000000  0.09424200  0.38946400  1
  O  O2  1  0.50000000  0.40575800  0.88946400  1
  O  O3  1  0.50000000  0.59424200  0.11053600  1
  O  O4  1  0.00000000  0.87584000  0.92916600  1
  O  O5  1  0.00000000  0.12416000  0.07083400  1
  O  O6  1  0.50000000  0.37584000  0.57083400  1
  O  O7  1  0.50000000  0.62416000  0.42916600  1
  O  O8  1  0.76054700  0.66118400  0.74977900  1
  O  O9  1  0.23945300  0.33881600  0.25022100  1
  O  O10  1  0.76054700  0.33881600  0.25022100  1
  O  O11  1  0.73945300  0.16118400  0.75022100  1
  O  O12  1  0.23945300  0.66118400  0.74977900  1
  O  O13  1  0.26054700  0.83881600  0.24977900  1
  O  O14  1  0.73945300  0.83881600  0.24977900  1
  O  O15  1  0.26054700  0.16118400  0.75022100  1
  O  O16  1  0.00000000  0.61556200  0.43439300  1
  O  O17  1  0.00000000  0.38443800  0.56560700  1
  O  O18  1  0.50000000  0.11556200  0.06560700  1
  O  O19  1  0.50000000  0.88443800  0.93439300  1
loop_
_geom_bond_atom_site_label_1
_geom_bond_atom_site_label_2
_geom_bond_distance
_geom_bond_site_symmetry_2
Cu0 O18 1.843240 1_555
Cu0 O19 1.843240 1_544
Cu0 O4 1.935065 1_644
Cu0 O5 1.935065 1_655
Cu1 O18 1.843240 1_555
Cu1 O19 1.843240 1_544
Cu1 O5 1.935065 1_555
Cu1 O4 1.935065 1_544
Cu2 O17 1.843240 1_655
Cu2 O16 1.843240 1_655
Cu2 O6 1.935065 1_555
Cu2 O7 1.935065 1_555
Cu3 O17 1.843240 1_555
Cu3 O16 1.843240 1_555
Cu3 O6 1.935065 1_555
Cu3 O7 1.935065 1_555
As0 O8 1.698662 1_455
As0 O12 1.698662 1_555
As0 O0 1.725851 1_555
As0 O4 1.792791 1_555
As1 O9 1.698662 1_555
As1 O10 1.698662 1_455
As1 O1 1.725851 1_555
As1 O5 1.792791 1_555
As2 O15 1.698662 1_555
As2 O11 1.698662 1_555
As2 O2 1.725851 1_555
As2 O6 1.792791 1_555
As3 O13 1.698662 1_555
As3 O14 1.698662 1_555
As3 O3 1.725851 1_555
As3 O7 1.792791 1_555
O0 Zn0 2.009947 1_555
O0 Zn1 2.118030 1_565
O1 Zn1 2.009947 1_555
O1 Zn0 2.118030 1_545
O2 Zn2 2.009947 1_556
O2 Zn3 2.118030 1_555
O3 Zn3 2.009947 1_554
O3 Zn2 2.118030 1_555
O8 Zn3 1.971788 1_555
O9 Zn2 1.971788 1_555
O10 Zn2 1.971788 1_555
O11 Zn1 1.971788 1_655
O12 Zn3 1.971788 1_555
O13 Zn0 1.971788 1_555
O14 Zn0 1.971788 1_655
O15 Zn1 1.971788 1_555
O16 Zn0 2.082416 1_555
O17 Zn1 2.082416 1_555
O18 Zn2 2.082416 1_555
O19 Zn3 2.082416 1_555
