# generated using pymatgen
data_TmOs2
_symmetry_space_group_name_H-M   'P 1'
_cell_length_a   5.24836366
_cell_length_b   5.24836366
_cell_length_c   8.81149849
_cell_angle_alpha   90.00000000
_cell_angle_beta   90.00000000
_cell_angle_gamma   119.99961833
_symmetry_Int_Tables_number   1
_chemical_formula_structural   TmOs2
_chemical_formula_sum   'Tm4 Os8'
_cell_volume   210.19864545
_cell_formula_units_Z   4
loop_
 _symmetry_equiv_pos_site_id
 _symmetry_equiv_pos_as_xyz
  1  'x, y, z'
loop_
 _atom_site_type_symbol
 _atom_site_label
 _atom_site_symmetry_multiplicity
 _atom_site_fract_x
 _atom_site_fract_y
 _atom_site_fract_z
 _atom_site_occupancy
  Tm  Tm0  1  0.66667080  0.33332920  0.56577029  1
  Tm  Tm1  1  0.33332920  0.66667080  0.43422971  1
  Tm  Tm2  1  0.33332920  0.66667080  0.06577029  1
  Tm  Tm3  1  0.66667080  0.33332920  0.93422971  1
  Os  Os0  1  -0.00000000  -0.00000000  0.50000000  1
  Os  Os1  1  -0.00000000  -0.00000000  0.00000000  1
  Os  Os2  1  0.17193478  0.34385701  0.75000000  1
  Os  Os3  1  0.17191974  0.82808026  0.75000000  1
  Os  Os4  1  0.65614299  0.82806522  0.75000000  1
  Os  Os5  1  0.82806522  0.65614299  0.25000000  1
  Os  Os6  1  0.82808026  0.17191974  0.25000000  1
  Os  Os7  1  0.34385701  0.17193478  0.25000000  1
loop_
_geom_bond_atom_site_label_1
_geom_bond_atom_site_label_2
_geom_bond_distance
_geom_bond_site_symmetry_2
Tm0 Tm1 3.244235 1_545
Tm0 Tm1 3.244235 1_655
Tm0 Tm1 3.244324 1_555
Tm0 Tm3 3.246680 1_555
Tm1 Tm2 3.246680 1_555
Tm2 Tm3 3.244235 1_454
Tm2 Tm3 3.244235 1_564
Tm2 Tm3 3.244324 1_554
Os0 Os6 2.700938 1_455
Os0 Os3 2.700938 1_545
Os0 Os4 2.700990 1_445
Os0 Os5 2.700990 1_445
Os0 Os7 2.700990 1_555
Os0 Os2 2.700990 1_555
Os0 Tm1 3.085024 1_545
Os0 Tm0 3.085024 1_455
Os0 Tm0 3.085096 1_555
Os0 Tm1 3.085096 1_555
Os0 Tm0 3.085096 1_445
Os0 Tm1 3.085096 1_445
Os1 Os6 2.700938 1_455
Os1 Os3 2.700938 1_544
Os1 Os4 2.700990 1_444
Os1 Os2 2.700990 1_554
Os1 Os5 2.700990 1_445
Os1 Os7 2.700990 1_555
Os1 Tm2 3.085024 1_545
Os1 Tm3 3.085024 1_454
Os1 Tm2 3.085096 1_445
Os1 Tm3 3.085096 1_554
Os1 Tm3 3.085096 1_444
Os1 Tm2 3.085096 1_555
Os2 Os4 2.541315 1_555
Os2 Os3 2.541419 1_555
Os2 Os3 2.706944 1_545
Os2 Os4 2.707079 1_445
Os2 Tm3 3.086073 1_555
Os2 Tm0 3.086073 1_555
Os2 Tm3 3.086075 1_455
Os2 Tm0 3.086075 1_455
Os2 Tm2 3.145579 1_556
Os2 Tm1 3.145579 1_555
Os3 Os4 2.541419 1_555
Os3 Os4 2.706944 1_455
Os3 Tm0 3.086085 1_455
Os3 Tm3 3.086085 1_455
Os3 Tm3 3.086085 1_565
Os3 Tm0 3.086085 1_565
Os3 Tm2 3.145586 1_556
Os3 Tm1 3.145586 1_555
Os4 Tm0 3.086073 1_555
Os4 Tm3 3.086073 1_555
Os4 Tm0 3.086075 1_565
Os4 Tm3 3.086075 1_565
Os4 Tm2 3.145579 1_556
Os4 Tm1 3.145579 1_555
Os5 Os7 2.541315 1_555
Os5 Os6 2.541419 1_555
Os5 Os6 2.706944 1_565
Os5 Os7 2.707079 1_665
Os5 Tm1 3.086073 1_555
Os5 Tm2 3.086073 1_555
Os5 Tm2 3.086075 1_655
Os5 Tm1 3.086075 1_655
Os5 Tm0 3.145579 1_555
Os5 Tm3 3.145579 1_554
Os6 Os7 2.541419 1_555
Os6 Os7 2.706944 1_655
Os6 Tm1 3.086085 1_545
Os6 Tm2 3.086085 1_655
Os6 Tm2 3.086085 1_545
Os6 Tm1 3.086085 1_655
Os6 Tm0 3.145586 1_555
Os6 Tm3 3.145586 1_554
Os7 Tm2 3.086073 1_555
Os7 Tm1 3.086073 1_555
Os7 Tm1 3.086075 1_545
Os7 Tm2 3.086075 1_545
Os7 Tm0 3.145579 1_555
Os7 Tm3 3.145579 1_554
