# generated using pymatgen
data_C
_symmetry_space_group_name_H-M   'P 1'
_cell_length_a   14.77696759
_cell_length_b   14.77696759
_cell_length_c   7.49673515
_cell_angle_alpha   89.98998204
_cell_angle_beta   89.98998204
_cell_angle_gamma   60.31941213
_symmetry_Int_Tables_number   1
_chemical_formula_structural   C
_chemical_formula_sum   C71
_cell_volume   1422.20525035
_cell_formula_units_Z   71
loop_
 _symmetry_equiv_pos_site_id
 _symmetry_equiv_pos_as_xyz
  1  'x, y, z'
loop_
 _atom_site_type_symbol
 _atom_site_label
 _atom_site_symmetry_multiplicity
 _atom_site_fract_x
 _atom_site_fract_y
 _atom_site_fract_z
 _atom_site_occupancy
  C  C0  1  0.05621100  0.22130400  0.49421400  1
  C  C1  1  0.22217700  0.72257900  0.49595900  1
  C  C2  1  0.72189400  0.05466000  0.49630700  1
  C  C3  1  0.22130400  0.05621100  0.49421400  1
  C  C4  1  0.72257900  0.22217700  0.49595900  1
  C  C5  1  0.05466000  0.72189400  0.49630700  1
  C  C6  1  0.00017500  0.16601400  0.49174600  1
  C  C7  1  0.16597700  0.83347600  0.49300700  1
  C  C8  1  0.83288000  0.99896600  0.49367000  1
  C  C9  1  0.16601400  0.00017500  0.49174600  1
  C  C10  1  0.83347600  0.16597700  0.49300700  1
  C  C11  1  0.99896600  0.83288000  0.49367000  1
  C  C12  1  0.50030400  0.16696700  0.49487700  1
  C  C13  1  0.16717100  0.33342000  0.49424400  1
  C  C14  1  0.33431600  0.50078700  0.49470900  1
  C  C15  1  0.16696700  0.50030400  0.49487700  1
  C  C16  1  0.33342000  0.16717100  0.49424400  1
  C  C17  1  0.50078700  0.33431600  0.49470900  1
  C  C18  1  0.05666500  0.38798100  0.50032600  1
  C  C19  1  0.38979200  0.55662500  0.50052400  1
  C  C20  1  0.55547000  0.05613700  0.50056900  1
  C  C21  1  0.38798100  0.05666500  0.50032600  1
  C  C22  1  0.55662500  0.38979200  0.50052400  1
  C  C23  1  0.05613700  0.55547000  0.50056900  1
  C  C24  1  0.00184400  0.33174700  0.50104900  1
  C  C25  1  0.33361600  0.66751900  0.50162700  1
  C  C26  1  0.66612300  0.99880000  0.50175300  1
  C  C27  1  0.33174700  0.00184400  0.50104900  1
  C  C28  1  0.66751900  0.33361600  0.50162700  1
  C  C29  1  0.99880000  0.66612300  0.50175300  1
  C  C30  1  0.89147300  0.38598000  0.50809000  1
  C  C31  1  0.38898300  0.72378000  0.50793900  1
  C  C32  1  0.72128800  0.88661400  0.50709200  1
  C  C33  1  0.38598000  0.89147300  0.50809000  1
  C  C34  1  0.72378000  0.38898300  0.50793900  1
  C  C35  1  0.88661400  0.72128800  0.50709200  1
  C  C36  1  0.83683600  0.49685400  0.51547500  1
  C  C37  1  0.50182300  0.66890200  0.51526200  1
  C  C38  1  0.66478200  0.82981800  0.51308900  1
  C  C39  1  0.49685400  0.83683600  0.51547500  1
  C  C40  1  0.66890200  0.50182300  0.51526200  1
  C  C41  1  0.82981800  0.66478200  0.51308900  1
  C  C42  1  0.88932700  0.22122300  0.49559300  1
  C  C43  1  0.22122300  0.88932700  0.49559300  1
  C  C44  1  0.88799200  0.88799200  0.49656600  1
  C  C45  1  0.83453900  0.33220100  0.50460500  1
  C  C46  1  0.33220100  0.83453900  0.50460500  1
  C  C47  1  0.83192600  0.83192600  0.50407500  1
  C  C48  1  0.72990600  0.54978200  0.51994100  1
  C  C49  1  0.54978200  0.72990600  0.51994100  1
  C  C50  1  0.71952300  0.71952300  0.51583900  1
  C  C51  1  0.66672400  0.16634200  0.49482600  1
  C  C52  1  0.16677800  0.16677800  0.49266200  1
  C  C53  1  0.16634200  0.66672400  0.49482600  1
  C  C54  1  0.55607200  0.22269900  0.49412300  1
  C  C55  1  0.22239300  0.22239300  0.49287900  1
  C  C56  1  0.22269900  0.55607200  0.49412300  1
  C  C57  1  0.38918700  0.22281100  0.49260500  1
  C  C58  1  0.22281100  0.38918700  0.49260500  1
  C  C59  1  0.38970800  0.38970800  0.49262100  1
  C  C60  1  0.33389700  0.33389700  0.49098000  1
  C  C61  1  0.00055000  0.49949200  0.50504900  1
  C  C62  1  0.50170100  0.50170100  0.50511800  1
  C  C63  1  0.49949200  0.00055000  0.50504900  1
  C  C64  1  0.89135300  0.55343000  0.51255700  1
  C  C65  1  0.55703100  0.55703100  0.51334400  1
  C  C66  1  0.55343000  0.89135300  0.51255700  1
  C  C67  1  0.05479700  0.88854800  0.48982300  1
  C  C68  1  0.88854800  0.05479700  0.48982300  1
  C  C69  1  0.05517700  0.05517700  0.48839600  1
  C  C70  1  0.99945300  0.99945300  0.48790200  1
loop_
_geom_bond_atom_site_label_1
_geom_bond_atom_site_label_2
_geom_bond_distance
_geom_bond_site_symmetry_2
C0 C24 1.418830 1_555
C0 C52 1.419534 1_555
C0 C6 1.422501 1_555
C1 C7 1.424017 1_555
C1 C53 1.427044 1_555
C1 C25 1.431315 1_555
C2 C8 1.425039 1_545
C2 C26 1.426839 1_545
C2 C51 1.433841 1_555
C3 C52 1.419534 1_555
C3 C9 1.422501 1_555
C4 C51 1.427044 1_555
C5 C53 1.433841 1_555
C6 C69 1.423175 1_555
C10 C42 1.419584 1_555
C10 C4 1.424017 1_555
C10 C68 1.427555 1_555
C11 C67 1.424863 1_655
C11 C44 1.424874 1_555
C11 C5 1.425039 1_655
C12 C20 1.423502 1_555
C12 C54 1.424599 1_555
C12 C57 1.426700 1_555
C13 C18 1.419430 1_555
C13 C58 1.423452 1_555
C13 C55 1.425431 1_555
C14 C19 1.422892 1_555
C14 C59 1.426156 1_555
C14 C56 1.432971 1_555
C15 C23 1.423502 1_555
C15 C56 1.424599 1_555
C15 C58 1.426700 1_555
C16 C21 1.419430 1_555
C16 C57 1.423452 1_555
C16 C55 1.425431 1_555
C17 C22 1.422892 1_555
C17 C59 1.426156 1_555
C17 C54 1.432971 1_555
C18 C24 1.418952 1_555
C18 C61 1.432106 1_555
C19 C25 1.423829 1_555
C19 C62 1.437147 1_555
C20 C26 1.421114 1_545
C20 C63 1.425811 1_555
C21 C27 1.418952 1_555
C21 C63 1.432106 1_555
C22 C28 1.423829 1_555
C22 C62 1.437147 1_555
C23 C29 1.421114 1_455
C23 C61 1.425811 1_555
C24 C30 1.417958 1_455
C25 C31 1.427034 1_555
C26 C32 1.440832 1_555
C27 C33 1.417958 1_545
C27 C3 1.418830 1_555
C28 C34 1.427034 1_555
C28 C4 1.431315 1_555
C29 C5 1.426839 1_655
C29 C35 1.440832 1_555
C30 C45 1.414974 1_555
C30 C36 1.424512 1_555
C31 C46 1.422454 1_555
C31 C37 1.449785 1_555
C32 C47 1.420573 1_555
C32 C38 1.448303 1_555
C33 C46 1.414974 1_555
C33 C39 1.424512 1_555
C34 C45 1.422454 1_555
C34 C40 1.449785 1_555
C35 C47 1.420573 1_555
C35 C41 1.448303 1_555
C36 C48 1.373196 1_555
C36 C64 1.419636 1_555
C37 C49 1.395987 1_555
C37 C65 1.436301 1_555
C38 C50 1.416141 1_555
C38 C66 1.432690 1_555
C39 C49 1.373196 1_555
C39 C66 1.419636 1_555
C40 C48 1.395987 1_555
C40 C65 1.436301 1_555
C41 C50 1.416141 1_555
C41 C64 1.432690 1_555
C42 C6 1.423388 1_655
C42 C45 1.426370 1_555
C43 C7 1.419584 1_555
C43 C9 1.423388 1_565
C43 C46 1.426370 1_555
C44 C8 1.424874 1_555
C44 C47 1.433758 1_555
C51 C54 1.420773 1_555
C53 C56 1.420773 1_555
C57 C60 1.426203 1_555
C58 C60 1.426203 1_555
C59 C60 1.426204 1_555
C61 C64 1.403020 1_455
C62 C65 1.415214 1_555
C63 C66 1.403020 1_545
C67 C70 1.423908 1_455
C67 C7 1.427555 1_555
C68 C70 1.423908 1_545
C68 C8 1.424863 1_545
C69 C9 1.423175 1_555
C69 C70 1.423930 1_445
