# generated using pymatgen
data_Mg5Cd
_symmetry_space_group_name_H-M   'P 1'
_cell_length_a   16.64782220
_cell_length_b   16.64782220
_cell_length_c   10.22837712
_cell_angle_alpha   90.00000000
_cell_angle_beta   90.00000000
_cell_angle_gamma   158.18311634
_symmetry_Int_Tables_number   1
_chemical_formula_structural   Mg5Cd
_chemical_formula_sum   'Mg40 Cd8'
_cell_volume   1053.52707839
_cell_formula_units_Z   8
loop_
 _symmetry_equiv_pos_site_id
 _symmetry_equiv_pos_as_xyz
  1  'x, y, z'
loop_
 _atom_site_type_symbol
 _atom_site_label
 _atom_site_symmetry_multiplicity
 _atom_site_fract_x
 _atom_site_fract_y
 _atom_site_fract_z
 _atom_site_occupancy
  Mg  Mg0_0  1  0.00039696  0.49960304  0.00000000  1
  Mg  Mg0_1  1  0.00039696  0.49960304  0.50000000  1
  Mg  Mg0_2  1  0.00039696  0.99960304  0.00000000  1
  Mg  Mg0_3  1  0.00039696  0.99960304  0.50000000  1
  Mg  Mg0_4  1  0.50039696  0.49960303  0.00000000  1
  Mg  Mg0_5  1  0.50039696  0.49960303  0.50000000  1
  Mg  Mg0_6  1  0.50039696  0.99960304  0.00000000  1
  Mg  Mg0_7  1  0.50039696  0.99960304  0.50000000  1
  Mg  Mg1_0  1  0.16590996  0.33409004  0.00000000  1
  Mg  Mg1_1  1  0.16590996  0.33409004  0.50000000  1
  Mg  Mg1_2  1  0.16590996  0.83409004  0.00000000  1
  Mg  Mg1_3  1  0.16590996  0.83409004  0.50000000  1
  Mg  Mg1_4  1  0.66590996  0.33409004  0.00000000  1
  Mg  Mg1_5  1  0.66590996  0.33409004  0.50000000  1
  Mg  Mg1_6  1  0.66590996  0.83409004  0.00000000  1
  Mg  Mg1_7  1  0.66590996  0.83409004  0.50000000  1
  Mg  Mg2_0  1  0.33362558  0.16637442  0.00000000  1
  Mg  Mg2_1  1  0.33362558  0.16637442  0.50000000  1
  Mg  Mg2_2  1  0.33362558  0.66637442  0.00000000  1
  Mg  Mg2_3  1  0.33362558  0.66637442  0.50000000  1
  Mg  Mg2_4  1  0.83362558  0.16637442  0.00000000  1
  Mg  Mg2_5  1  0.83362558  0.16637442  0.50000000  1
  Mg  Mg2_6  1  0.83362558  0.66637442  0.00000000  1
  Mg  Mg2_7  1  0.83362558  0.66637442  0.50000000  1
  Mg  Mg3_0  1  0.05689567  0.44310433  0.25000000  1
  Mg  Mg3_1  1  0.05689567  0.44310433  0.75000000  1
  Mg  Mg3_2  1  0.05689567  0.94310433  0.25000000  1
  Mg  Mg3_3  1  0.05689567  0.94310433  0.75000000  1
  Mg  Mg3_4  1  0.55689568  0.44310433  0.25000000  1
  Mg  Mg3_5  1  0.55689568  0.44310433  0.75000000  1
  Mg  Mg3_6  1  0.55689567  0.94310433  0.25000000  1
  Mg  Mg3_7  1  0.55689567  0.94310433  0.75000000  1
  Mg  Mg4_0  1  0.22123894  0.27876105  0.25000000  1
  Mg  Mg4_1  1  0.22123894  0.27876105  0.75000000  1
  Mg  Mg4_2  1  0.22123894  0.77876106  0.25000000  1
  Mg  Mg4_3  1  0.22123894  0.77876106  0.75000000  1
  Mg  Mg4_4  1  0.72123895  0.27876105  0.25000000  1
  Mg  Mg4_5  1  0.72123895  0.27876105  0.75000000  1
  Mg  Mg4_6  1  0.72123894  0.77876106  0.25000000  1
  Mg  Mg4_7  1  0.72123894  0.77876106  0.75000000  1
  Cd  Cd0_0  1  0.38859937  0.11140063  0.25000000  1
  Cd  Cd0_1  1  0.38859937  0.11140063  0.75000000  1
  Cd  Cd0_2  1  0.38859937  0.61140063  0.25000000  1
  Cd  Cd0_3  1  0.38859937  0.61140063  0.75000000  1
  Cd  Cd0_4  1  0.88859937  0.11140063  0.25000000  1
  Cd  Cd0_5  1  0.88859937  0.11140063  0.75000000  1
  Cd  Cd0_6  1  0.88859937  0.61140063  0.25000000  1
  Cd  Cd0_7  1  0.88859937  0.61140063  0.75000000  1
loop_
_geom_bond_atom_site_label_1
_geom_bond_atom_site_label_2
_geom_bond_distance
_geom_bond_site_symmetry_2
Mg0_0 Mg2_4 3.144134 1_455
Mg0_0 Mg2_2 3.144134 1_555
Mg0_0 Mg0_6 3.150436 1_445
Mg0_0 Mg0_6 3.150436 1_555
Mg0_0 Mg4_5 3.151001 1_454
Mg0_0 Mg4_4 3.151001 1_455
Mg0_0 Mg4_2 3.151001 1_555
Mg0_0 Mg4_3 3.151001 1_554
Mg0_0 Mg3_0 3.154484 1_555
Mg0_0 Mg3_1 3.154484 1_554
Mg0_0 Mg1_2 3.179806 1_555
Mg0_0 Mg1_4 3.179806 1_455
Mg0_1 Mg2_5 3.144134 1_455
Mg0_1 Mg2_3 3.144134 1_555
Mg0_1 Mg0_7 3.150436 1_445
Mg0_1 Mg0_7 3.150436 1_555
Mg0_1 Mg4_5 3.151001 1_455
Mg0_1 Mg4_4 3.151001 1_455
Mg0_1 Mg4_2 3.151001 1_555
Mg0_1 Mg4_3 3.151001 1_555
Mg0_1 Mg3_0 3.154484 1_555
Mg0_1 Mg3_1 3.154484 1_555
Mg0_1 Mg1_3 3.179806 1_555
Mg0_1 Mg1_5 3.179806 1_455
Mg0_2 Mg2_6 3.144134 1_455
Mg0_2 Mg2_0 3.144134 1_565
Mg0_2 Mg0_4 3.150436 1_565
Mg0_2 Mg0_4 3.150436 1_455
Mg0_2 Mg4_1 3.151001 1_564
Mg0_2 Mg4_0 3.151001 1_565
Mg0_2 Mg4_7 3.151001 1_454
Mg0_2 Mg4_6 3.151001 1_455
Mg0_2 Mg3_2 3.154484 1_555
Mg0_2 Mg3_3 3.154484 1_554
Mg0_2 Mg1_0 3.179806 1_565
Mg0_2 Mg1_6 3.179806 1_455
Mg0_3 Mg2_7 3.144134 1_455
Mg0_3 Mg2_1 3.144134 1_565
Mg0_3 Mg0_5 3.150436 1_565
Mg0_3 Mg0_5 3.150436 1_455
Mg0_3 Mg4_1 3.151001 1_565
Mg0_3 Mg4_0 3.151001 1_565
Mg0_3 Mg4_7 3.151001 1_455
Mg0_3 Mg4_6 3.151001 1_455
Mg0_3 Mg3_2 3.154484 1_555
Mg0_3 Mg3_3 3.154484 1_555
Mg0_3 Mg1_1 3.179806 1_565
Mg0_3 Mg1_7 3.179806 1_455
Mg0_4 Mg2_0 3.144134 1_555
Mg0_4 Mg2_6 3.144134 1_555
Mg0_4 Mg4_1 3.151001 1_554
Mg0_4 Mg4_0 3.151001 1_555
Mg0_4 Mg4_7 3.151001 1_554
Mg0_4 Mg4_6 3.151001 1_555
Mg0_4 Mg3_4 3.154484 1_555
Mg0_4 Mg3_5 3.154484 1_554
Mg0_4 Mg1_6 3.179806 1_555
Mg0_4 Mg1_0 3.179806 1_555
Mg0_5 Mg2_1 3.144134 1_555
Mg0_5 Mg2_7 3.144134 1_555
Mg0_5 Mg4_0 3.151001 1_555
Mg0_5 Mg4_1 3.151001 1_555
Mg0_5 Mg4_7 3.151001 1_555
Mg0_5 Mg4_6 3.151001 1_555
Mg0_5 Mg3_5 3.154484 1_555
Mg0_5 Mg3_4 3.154484 1_555
Mg0_5 Mg1_7 3.179806 1_555
Mg0_5 Mg1_1 3.179806 1_555
Mg0_6 Mg2_2 3.144134 1_555
Mg0_6 Mg2_4 3.144134 1_565
Mg0_6 Mg4_5 3.151001 1_564
Mg0_6 Mg4_4 3.151001 1_565
Mg0_6 Mg4_2 3.151001 1_555
Mg0_6 Mg4_3 3.151001 1_554
Mg0_6 Mg3_7 3.154484 1_554
Mg0_6 Mg3_6 3.154484 1_555
Mg0_6 Mg1_4 3.179806 1_565
Mg0_6 Mg1_2 3.179806 1_555
Mg0_7 Mg2_3 3.144134 1_555
Mg0_7 Mg2_5 3.144134 1_565
Mg0_7 Mg4_5 3.151001 1_565
Mg0_7 Mg4_4 3.151001 1_565
Mg0_7 Mg4_2 3.151001 1_555
Mg0_7 Mg4_3 3.151001 1_555
Mg0_7 Mg3_6 3.154484 1_555
Mg0_7 Mg3_7 3.154484 1_555
Mg0_7 Mg1_5 3.179806 1_565
Mg0_7 Mg1_3 3.179806 1_555
Mg1_0 Mg2_4 3.117455 1_455
Mg1_0 Mg2_2 3.117455 1_555
Mg1_0 Mg4_1 3.132243 1_554
Mg1_0 Mg4_0 3.132243 1_555
Mg1_0 Mg1_6 3.150436 1_555
Mg1_0 Mg1_6 3.150436 1_445
Mg1_1 Mg2_5 3.117455 1_455
Mg1_1 Mg2_3 3.117455 1_555
Mg1_1 Mg4_1 3.132243 1_555
Mg1_1 Mg4_0 3.132243 1_555
Mg1_1 Mg1_7 3.150436 1_445
Mg1_1 Mg1_7 3.150436 1_555
Mg1_2 Mg2_0 3.117455 1_565
Mg1_2 Mg2_6 3.117455 1_455
Mg1_2 Mg4_2 3.132243 1_555
Mg1_2 Mg4_3 3.132243 1_554
Mg1_2 Mg1_4 3.150436 1_565
Mg1_2 Mg1_4 3.150436 1_455
Mg1_3 Mg2_1 3.117455 1_565
Mg1_3 Mg2_7 3.117455 1_455
Mg1_3 Mg4_2 3.132243 1_555
Mg1_3 Mg4_3 3.132243 1_555
Mg1_3 Mg1_5 3.150436 1_565
Mg1_3 Mg1_5 3.150436 1_455
Mg1_4 Mg2_0 3.117455 1_555
Mg1_4 Mg2_6 3.117455 1_555
Mg1_4 Mg4_5 3.132243 1_554
Mg1_4 Mg4_4 3.132243 1_555
Mg1_5 Mg2_1 3.117455 1_555
Mg1_5 Mg2_7 3.117455 1_555
Mg1_5 Mg4_4 3.132243 1_555
Mg1_5 Mg4_5 3.132243 1_555
Mg1_6 Mg2_4 3.117455 1_565
Mg1_6 Mg2_2 3.117455 1_555
Mg1_6 Mg4_7 3.132243 1_554
Mg1_6 Mg4_6 3.132243 1_555
Mg1_7 Mg2_5 3.117455 1_565
Mg1_7 Mg2_3 3.117455 1_555
Mg1_7 Mg4_6 3.132243 1_555
Mg1_7 Mg4_7 3.132243 1_555
Mg2_0 Mg3_5 3.127900 1_554
Mg2_0 Mg3_4 3.127900 1_555
Mg2_0 Mg3_3 3.127900 1_544
Mg2_0 Mg3_2 3.127900 1_545
Mg2_0 Mg2_6 3.150436 1_445
Mg2_0 Mg2_6 3.150436 1_555
Mg2_1 Mg3_5 3.127900 1_555
Mg2_1 Mg3_4 3.127900 1_555
Mg2_1 Mg3_3 3.127900 1_545
Mg2_1 Mg3_2 3.127900 1_545
Mg2_1 Mg2_7 3.150436 1_445
Mg2_1 Mg2_7 3.150436 1_555
Mg2_2 Mg3_0 3.127900 1_555
Mg2_2 Mg3_1 3.127900 1_554
Mg2_2 Mg3_6 3.127900 1_555
Mg2_2 Mg3_7 3.127900 1_554
Mg2_2 Mg2_4 3.150436 1_565
Mg2_2 Mg2_4 3.150436 1_455
Mg2_3 Mg3_0 3.127900 1_555
Mg2_3 Mg3_1 3.127900 1_555
Mg2_3 Mg3_6 3.127900 1_555
Mg2_3 Mg3_7 3.127900 1_555
Mg2_3 Mg2_5 3.150436 1_565
Mg2_3 Mg2_5 3.150436 1_455
Mg2_4 Mg3_0 3.127900 1_655
Mg2_4 Mg3_1 3.127900 1_654
Mg2_4 Mg3_7 3.127900 1_544
Mg2_4 Mg3_6 3.127900 1_545
Mg2_5 Mg3_1 3.127900 1_655
Mg2_5 Mg3_0 3.127900 1_655
Mg2_5 Mg3_7 3.127900 1_545
Mg2_5 Mg3_6 3.127900 1_545
Mg2_6 Mg3_5 3.127900 1_554
Mg2_6 Mg3_4 3.127900 1_555
Mg2_6 Mg3_3 3.127900 1_654
Mg2_6 Mg3_2 3.127900 1_655
Mg2_7 Mg3_5 3.127900 1_555
Mg2_7 Mg3_4 3.127900 1_555
Mg2_7 Mg3_2 3.127900 1_655
Mg2_7 Mg3_3 3.127900 1_655
Mg3_0 Mg3_6 3.150436 1_445
Mg3_0 Mg3_6 3.150436 1_555
Mg3_0 Mg4_4 3.213083 1_455
Mg3_0 Mg4_2 3.213083 1_555
Mg3_1 Mg3_7 3.150436 1_445
Mg3_1 Mg3_7 3.150436 1_555
Mg3_1 Mg4_5 3.213083 1_455
Mg3_1 Mg4_3 3.213083 1_555
Mg3_2 Mg3_4 3.150436 1_565
Mg3_2 Mg3_4 3.150436 1_455
Mg3_2 Mg4_0 3.213083 1_565
Mg3_2 Mg4_6 3.213083 1_455
Mg3_3 Mg3_5 3.150436 1_455
Mg3_3 Mg3_5 3.150436 1_565
Mg3_3 Mg4_1 3.213083 1_565
Mg3_3 Mg4_7 3.213083 1_455
Mg3_4 Mg4_0 3.213083 1_555
Mg3_4 Mg4_6 3.213083 1_555
Mg3_5 Mg4_1 3.213083 1_555
Mg3_5 Mg4_7 3.213083 1_555
Mg3_6 Mg4_4 3.213083 1_565
Mg3_6 Mg4_2 3.213083 1_555
Mg3_7 Mg4_5 3.213083 1_565
Mg3_7 Mg4_3 3.213083 1_555
Mg4_0 Mg4_6 3.150436 1_555
Mg4_0 Mg4_6 3.150436 1_445
Mg4_1 Mg4_7 3.150436 1_555
Mg4_1 Mg4_7 3.150436 1_445
Mg4_2 Mg4_4 3.150436 1_455
Mg4_2 Mg4_4 3.150436 1_565
Mg4_3 Mg4_5 3.150436 1_455
Mg4_3 Mg4_5 3.150436 1_565
Cd0_0 Mg3_4 3.101087 1_555
Cd0_0 Mg3_2 3.101087 1_545
Cd0_0 Mg2_0 3.125551 1_555
Cd0_0 Mg2_1 3.125551 1_555
Cd0_0 Mg4_2 3.127482 1_545
Cd0_0 Mg4_4 3.127482 1_555
Cd0_0 Mg1_4 3.133257 1_555
Cd0_0 Mg1_2 3.133257 1_545
Cd0_0 Mg1_5 3.133257 1_555
Cd0_0 Mg1_3 3.133257 1_545
Cd0_0 Cd0_6 3.150436 1_555
Cd0_0 Cd0_6 3.150436 1_445
Cd0_1 Mg3_5 3.101087 1_555
Cd0_1 Mg3_3 3.101087 1_545
Cd0_1 Mg2_0 3.125551 1_556
Cd0_1 Mg2_1 3.125551 1_555
Cd0_1 Mg4_3 3.127482 1_545
Cd0_1 Mg4_5 3.127482 1_555
Cd0_1 Mg1_5 3.133257 1_555
Cd0_1 Mg1_2 3.133257 1_546
Cd0_1 Mg1_4 3.133257 1_556
Cd0_1 Mg1_3 3.133257 1_545
Cd0_1 Cd0_7 3.150436 1_445
Cd0_1 Cd0_7 3.150436 1_555
Cd0_2 Mg3_0 3.101087 1_555
Cd0_2 Mg3_6 3.101087 1_555
Cd0_2 Mg2_3 3.125551 1_555
Cd0_2 Mg2_2 3.125551 1_555
Cd0_2 Mg4_6 3.127482 1_555
Cd0_2 Mg4_0 3.127482 1_555
Cd0_2 Mg1_6 3.133257 1_555
Cd0_2 Mg1_7 3.133257 1_555
Cd0_2 Mg1_1 3.133257 1_555
Cd0_2 Mg1_0 3.133257 1_555
Cd0_2 Cd0_4 3.150436 1_455
Cd0_2 Cd0_4 3.150436 1_565
Cd0_3 Mg3_1 3.101087 1_555
Cd0_3 Mg3_7 3.101087 1_555
Cd0_3 Mg2_2 3.125551 1_556
Cd0_3 Mg2_3 3.125551 1_555
Cd0_3 Mg4_7 3.127482 1_555
Cd0_3 Mg4_1 3.127482 1_555
Cd0_3 Mg1_7 3.133257 1_555
Cd0_3 Mg1_1 3.133257 1_555
Cd0_3 Mg1_6 3.133257 1_556
Cd0_3 Mg1_0 3.133257 1_556
Cd0_3 Cd0_5 3.150436 1_455
Cd0_3 Cd0_5 3.150436 1_565
Cd0_4 Mg3_0 3.101087 1_655
Cd0_4 Mg3_6 3.101087 1_545
Cd0_4 Mg2_5 3.125551 1_555
Cd0_4 Mg2_4 3.125551 1_555
Cd0_4 Mg4_6 3.127482 1_545
Cd0_4 Mg4_0 3.127482 1_655
Cd0_4 Mg1_0 3.133257 1_655
Cd0_4 Mg1_1 3.133257 1_655
Cd0_4 Mg1_6 3.133257 1_545
Cd0_4 Mg1_7 3.133257 1_545
Cd0_5 Mg3_1 3.101087 1_655
Cd0_5 Mg3_7 3.101087 1_545
Cd0_5 Mg2_5 3.125551 1_555
Cd0_5 Mg2_4 3.125551 1_556
Cd0_5 Mg4_7 3.127482 1_545
Cd0_5 Mg4_1 3.127482 1_655
Cd0_5 Mg1_0 3.133257 1_656
Cd0_5 Mg1_1 3.133257 1_655
Cd0_5 Mg1_7 3.133257 1_545
Cd0_5 Mg1_6 3.133257 1_546
Cd0_6 Mg3_4 3.101087 1_555
Cd0_6 Mg3_2 3.101087 1_655
Cd0_6 Mg2_7 3.125551 1_555
Cd0_6 Mg2_6 3.125551 1_555
Cd0_6 Mg4_2 3.127482 1_655
Cd0_6 Mg4_4 3.127482 1_555
Cd0_6 Mg1_2 3.133257 1_655
Cd0_6 Mg1_3 3.133257 1_655
Cd0_6 Mg1_4 3.133257 1_555
Cd0_6 Mg1_5 3.133257 1_555
Cd0_7 Mg3_5 3.101087 1_555
Cd0_7 Mg3_3 3.101087 1_655
Cd0_7 Mg2_7 3.125551 1_555
Cd0_7 Mg2_6 3.125551 1_556
Cd0_7 Mg4_3 3.127482 1_655
Cd0_7 Mg4_5 3.127482 1_555
Cd0_7 Mg1_3 3.133257 1_655
Cd0_7 Mg1_2 3.133257 1_656
Cd0_7 Mg1_5 3.133257 1_555
Cd0_7 Mg1_4 3.133257 1_556
