# generated using pymatgen
data_K2Mg2Be3F12
_symmetry_space_group_name_H-M   'P 1'
_cell_length_a   10.03943700
_cell_length_b   10.03943700
_cell_length_c   10.03943700
_cell_angle_alpha   90.00000000
_cell_angle_beta   90.00000000
_cell_angle_gamma   90.00000000
_symmetry_Int_Tables_number   1
_chemical_formula_structural   K2Mg2Be3F12
_chemical_formula_sum   'K8 Mg8 Be12 F48'
_cell_volume   1011.87781964
_cell_formula_units_Z   4
loop_
 _symmetry_equiv_pos_site_id
 _symmetry_equiv_pos_as_xyz
  1  'x, y, z'
loop_
 _atom_site_type_symbol
 _atom_site_label
 _atom_site_symmetry_multiplicity
 _atom_site_fract_x
 _atom_site_fract_y
 _atom_site_fract_z
 _atom_site_occupancy
  K  K0  1  0.70150500  0.79849500  0.20150500  1
  K  K1  1  0.79849500  0.20150500  0.70150500  1
  K  K2  1  0.20150500  0.70150500  0.79849500  1
  K  K3  1  0.29849500  0.29849500  0.29849500  1
  K  K4  1  0.93519700  0.56480300  0.43519700  1
  K  K5  1  0.56480300  0.43519700  0.93519700  1
  K  K6  1  0.43519700  0.93519700  0.56480300  1
  K  K7  1  0.06480300  0.06480300  0.06480300  1
  Mg  Mg0  1  0.14670400  0.35329600  0.64670400  1
  Mg  Mg1  1  0.35329600  0.64670400  0.14670400  1
  Mg  Mg2  1  0.64670400  0.14670400  0.35329600  1
  Mg  Mg3  1  0.85329600  0.85329600  0.85329600  1
  Mg  Mg4  1  0.41469300  0.08530700  0.91469300  1
  Mg  Mg5  1  0.08530700  0.91469300  0.41469300  1
  Mg  Mg6  1  0.91469300  0.41469300  0.08530700  1
  Mg  Mg7  1  0.58530700  0.58530700  0.58530700  1
  Be  Be0  1  0.62619100  0.46004800  0.27145000  1
  Be  Be1  1  0.87380900  0.53995200  0.77145000  1
  Be  Be2  1  0.37380900  0.96004800  0.22855000  1
  Be  Be3  1  0.12619100  0.03995200  0.72855000  1
  Be  Be4  1  0.96004800  0.22855000  0.37380900  1
  Be  Be5  1  0.72855000  0.12619100  0.03995200  1
  Be  Be6  1  0.22855000  0.37380900  0.96004800  1
  Be  Be7  1  0.53995200  0.77145000  0.87380900  1
  Be  Be8  1  0.77145000  0.87380900  0.53995200  1
  Be  Be9  1  0.03995200  0.72855000  0.12619100  1
  Be  Be10  1  0.46004800  0.27145000  0.62619100  1
  Be  Be11  1  0.27145000  0.62619100  0.46004800  1
  F  F0  1  0.41719400  0.65254000  0.50354800  1
  F  F1  1  0.42396400  0.81278600  0.23351200  1
  F  F2  1  0.07603600  0.18721400  0.73351200  1
  F  F3  1  0.81278600  0.23351200  0.42396400  1
  F  F4  1  0.97831900  0.44799000  0.70011600  1
  F  F5  1  0.52168100  0.55201000  0.20011600  1
  F  F6  1  0.20011600  0.52168100  0.55201000  1
  F  F7  1  0.55201000  0.20011600  0.52168100  1
  F  F8  1  0.94799000  0.79988400  0.02168100  1
  F  F9  1  0.70011600  0.97831900  0.44799000  1
  F  F10  1  0.44799000  0.70011600  0.97831900  1
  F  F11  1  0.29988400  0.47831900  0.05201000  1
  F  F12  1  0.79988400  0.02168100  0.94799000  1
  F  F13  1  0.05201000  0.29988400  0.47831900  1
  F  F14  1  0.02168100  0.94799000  0.79988400  1
  F  F15  1  0.47831900  0.05201000  0.29988400  1
  F  F16  1  0.65254000  0.50354800  0.41719400  1
  F  F17  1  0.92396400  0.68721400  0.76648800  1
  F  F18  1  0.50354800  0.41719400  0.65254000  1
  F  F19  1  0.99645200  0.58280600  0.15254000  1
  F  F20  1  0.91719400  0.84746000  0.49645200  1
  F  F21  1  0.49645200  0.91719400  0.84746000  1
  F  F22  1  0.08280600  0.34746000  0.00354800  1
  F  F23  1  0.58280600  0.15254000  0.99645200  1
  F  F24  1  0.00354800  0.08280600  0.34746000  1
  F  F25  1  0.15254000  0.99645200  0.58280600  1
  F  F26  1  0.34746000  0.00354800  0.08280600  1
  F  F27  1  0.84746000  0.49645200  0.91719400  1
  F  F28  1  0.75695700  0.47921100  0.18958500  1
  F  F29  1  0.18958500  0.75695700  0.47921100  1
  F  F30  1  0.47921100  0.18958500  0.75695700  1
  F  F31  1  0.02078900  0.81041500  0.25695700  1
  F  F32  1  0.68958500  0.74304300  0.52078900  1
  F  F33  1  0.52078900  0.68958500  0.74304300  1
  F  F34  1  0.31041500  0.24304300  0.97921100  1
  F  F35  1  0.81041500  0.25695700  0.02078900  1
  F  F36  1  0.97921100  0.31041500  0.24304300  1
  F  F37  1  0.25695700  0.02078900  0.81041500  1
  F  F38  1  0.24304300  0.97921100  0.31041500  1
  F  F39  1  0.74304300  0.52078900  0.68958500  1
  F  F40  1  0.57603600  0.31278600  0.26648800  1
  F  F41  1  0.26648800  0.57603600  0.31278600  1
  F  F42  1  0.31278600  0.26648800  0.57603600  1
  F  F43  1  0.18721400  0.73351200  0.07603600  1
  F  F44  1  0.76648800  0.92396400  0.68721400  1
  F  F45  1  0.73351200  0.07603600  0.18721400  1
  F  F46  1  0.23351200  0.42396400  0.81278600  1
  F  F47  1  0.68721400  0.76648800  0.92396400  1
loop_
_geom_bond_atom_site_label_1
_geom_bond_atom_site_label_2
_geom_bond_distance
_geom_bond_site_symmetry_2
Be0 F16 1.549714 1_555
Be0 F28 1.560764 1_555
Be0 F40 1.562616 1_555
Be0 F5 1.570390 1_555
Be1 F27 1.549714 1_555
Be1 F39 1.560764 1_555
Be1 F17 1.562616 1_555
Be1 F4 1.570390 1_555
Be2 F26 1.549714 1_565
Be2 F38 1.560764 1_555
Be2 F1 1.562616 1_555
Be2 F15 1.570390 1_565
Be3 F25 1.549714 1_545
Be3 F37 1.560764 1_555
Be3 F2 1.562616 1_555
Be3 F14 1.570390 1_545
Be4 F24 1.549714 1_655
Be4 F36 1.560764 1_555
Be4 F3 1.562616 1_555
Be4 F13 1.570390 1_655
Be5 F23 1.549714 1_554
Be5 F35 1.560764 1_555
Be5 F45 1.562616 1_555
Be5 F12 1.570390 1_554
Be6 F22 1.549714 1_556
Be6 F34 1.560764 1_555
Be6 F46 1.562616 1_555
Be6 F11 1.570390 1_556
Be7 F21 1.549714 1_555
Be7 F33 1.560764 1_555
Be7 F47 1.562616 1_555
Be7 F10 1.570390 1_555
Be8 F20 1.549714 1_555
Be8 F32 1.560764 1_555
Be8 F44 1.562616 1_555
Be8 F9 1.570390 1_555
Be9 F19 1.549714 1_455
Be9 F31 1.560764 1_555
Be9 F43 1.562616 1_555
Be9 F8 1.570390 1_455
Be10 F18 1.549714 1_555
Be10 F30 1.560764 1_555
Be10 F42 1.562616 1_555
Be10 F7 1.570390 1_555
Be11 F0 1.549714 1_555
Be11 F29 1.560764 1_555
Be11 F41 1.562616 1_555
Be11 F6 1.570390 1_555
F0 Mg7 1.994460 1_555
F0 K6 2.909208 1_555
F1 Mg1 2.010717 1_555
F1 K0 2.808490 1_555
F2 Mg0 2.010717 1_555
F2 K1 2.808490 1_455
F3 Mg2 2.010717 1_555
F3 K1 2.808490 1_555
F4 Mg0 2.012232 1_655
F4 K4 2.938776 1_555
F4 K1 3.063155 1_555
F5 Mg1 2.012232 1_555
F5 K5 2.938776 1_554
F5 K0 3.063155 1_555
F6 Mg0 2.012232 1_555
F6 K4 2.938776 1_455
F6 K2 3.063155 1_555
F7 Mg2 2.012232 1_555
F7 K6 2.938776 1_545
F7 K1 3.063155 1_555
F8 Mg3 2.012232 1_554
F8 K7 2.938776 1_665
F8 K0 3.063155 1_555
F9 Mg2 2.012232 1_565
F9 K6 2.938776 1_555
F9 K0 3.063155 1_555
F10 Mg1 2.012232 1_556
F10 K5 2.938776 1_555
F10 K2 3.063155 1_555
F11 Mg1 2.012232 1_555
F11 K5 2.938776 1_554
F11 K3 3.063155 1_555
F12 Mg3 2.012232 1_545
F12 K7 2.938776 1_656
F12 K1 3.063155 1_555
F13 Mg0 2.012232 1_555
F13 K4 2.938776 1_455
F13 K3 3.063155 1_555
F14 Mg3 2.012232 1_455
F14 K7 2.938776 1_566
F14 K2 3.063155 1_555
F15 Mg2 2.012232 1_555
F15 K6 2.938776 1_545
F15 K3 3.063155 1_555
F16 Mg7 1.994460 1_555
F16 K4 2.909208 1_555
F17 Mg3 2.010717 1_555
F17 K2 2.808490 1_655
F18 Mg7 1.994460 1_555
F18 K5 2.909208 1_555
F19 Mg6 1.994460 1_555
F19 K4 2.909208 1_555
F20 Mg5 1.994460 1_655
F20 K4 2.909208 1_555
F21 Mg4 1.994460 1_565
F21 K6 2.909208 1_555
F22 Mg6 1.994460 1_455
F22 K7 2.909208 1_555
F23 Mg4 1.994460 1_555
F23 K5 2.909208 1_555
F24 Mg5 1.994460 1_545
F24 K7 2.909208 1_555
F25 Mg5 1.994460 1_555
F25 K6 2.909208 1_555
F26 Mg4 1.994460 1_554
F26 K7 2.909208 1_555
F27 Mg6 1.994460 1_556
F27 K5 2.909208 1_555
F28 Mg6 2.005806 1_555
F28 K4 3.165540 1_555
F28 K5 3.230978 1_554
F28 K0 3.255616 1_555
F29 Mg5 2.005806 1_555
F29 K6 3.165540 1_555
F29 K4 3.230978 1_455
F29 K2 3.255616 1_555
F30 Mg4 2.005806 1_555
F30 K5 3.165540 1_555
F30 K6 3.230978 1_545
F30 K1 3.255616 1_555
F31 Mg5 2.005806 1_555
F31 K4 3.165540 1_455
F31 K7 3.230978 1_565
F31 K0 3.255616 1_455
F32 Mg7 2.005806 1_555
F32 K4 3.165540 1_555
F32 K6 3.230978 1_555
F32 K0 3.255616 1_555
F33 Mg7 2.005806 1_555
F33 K6 3.165540 1_555
F33 K5 3.230978 1_555
F33 K2 3.255616 1_555
F34 Mg4 2.005806 1_555
F34 K7 3.165540 1_556
F34 K5 3.230978 1_555
F34 K3 3.255616 1_556
F35 Mg6 2.005806 1_555
F35 K5 3.165540 1_554
F35 K7 3.230978 1_655
F35 K1 3.255616 1_554
F36 Mg6 2.005806 1_555
F36 K7 3.165540 1_655
F36 K4 3.230978 1_555
F36 K3 3.255616 1_655
F37 Mg4 2.005806 1_555
F37 K6 3.165540 1_545
F37 K7 3.230978 1_556
F37 K2 3.255616 1_545
F38 Mg5 2.005806 1_555
F38 K7 3.165540 1_565
F38 K6 3.230978 1_555
F38 K3 3.255616 1_565
F39 Mg7 2.005806 1_555
F39 K5 3.165540 1_555
F39 K4 3.230978 1_555
F39 K1 3.255616 1_555
F40 Mg2 2.010717 1_555
F40 K3 2.808490 1_555
F41 Mg1 2.010717 1_555
F41 K3 2.808490 1_555
F42 Mg0 2.010717 1_555
F42 K3 2.808490 1_555
F43 Mg1 2.010717 1_555
F43 K2 2.808490 1_554
F44 Mg3 2.010717 1_555
F44 K1 2.808490 1_565
F45 Mg2 2.010717 1_555
F45 K0 2.808490 1_545
F46 Mg0 2.010717 1_555
F46 K2 2.808490 1_555
F47 Mg3 2.010717 1_555
F47 K0 2.808490 1_556
