# generated using pymatgen
data_Yb5(Co2Si7)2
_symmetry_space_group_name_H-M   'P 1'
_cell_length_a   7.87086000
_cell_length_b   7.68645300
_cell_length_c   12.74409445
_cell_angle_alpha   81.61826856
_cell_angle_beta   90.00000000
_cell_angle_gamma   90.00000000
_symmetry_Int_Tables_number   1
_chemical_formula_structural   Yb5(Co2Si7)2
_chemical_formula_sum   'Yb10 Co8 Si28'
_cell_volume   762.76970128
_cell_formula_units_Z   2
loop_
 _symmetry_equiv_pos_site_id
 _symmetry_equiv_pos_as_xyz
  1  'x, y, z'
loop_
 _atom_site_type_symbol
 _atom_site_label
 _atom_site_symmetry_multiplicity
 _atom_site_fract_x
 _atom_site_fract_y
 _atom_site_fract_z
 _atom_site_occupancy
  Yb  Yb0  1  0.00000000  0.00000000  0.50000000  1
  Yb  Yb1  1  0.50000000  0.50000000  0.50000000  1
  Yb  Yb2  1  0.25434900  0.15695800  0.85743400  1
  Yb  Yb3  1  0.75434900  0.34304200  0.14256600  1
  Yb  Yb4  1  0.74565100  0.84304200  0.14256600  1
  Yb  Yb5  1  0.24565100  0.65695800  0.85743400  1
  Yb  Yb6  1  0.24667500  0.83590600  0.14222800  1
  Yb  Yb7  1  0.74667500  0.66409400  0.85777200  1
  Yb  Yb8  1  0.75332500  0.16409400  0.85777200  1
  Yb  Yb9  1  0.25332500  0.33590600  0.14222800  1
  Co  Co0  1  0.37802200  0.87043400  0.49944400  1
  Co  Co1  1  0.87802200  0.62956600  0.50055600  1
  Co  Co2  1  0.62197800  0.12956600  0.50055600  1
  Co  Co3  1  0.12197800  0.37043400  0.49944400  1
  Co  Co4  1  0.99983500  0.94078400  0.74587500  1
  Co  Co5  1  0.49983500  0.55921600  0.25412500  1
  Co  Co6  1  0.00016500  0.05921600  0.25412500  1
  Co  Co7  1  0.50016500  0.44078400  0.74587500  1
  Si  Si0  1  0.66843000  0.83691500  0.49966400  1
  Si  Si1  1  0.16843000  0.66308500  0.50033600  1
  Si  Si2  1  0.33157000  0.16308500  0.50033600  1
  Si  Si3  1  0.83157000  0.33691500  0.49966400  1
  Si  Si4  1  0.99197000  0.76636500  0.32827100  1
  Si  Si5  1  0.49197000  0.73363500  0.67172900  1
  Si  Si6  1  0.00803000  0.23363500  0.67172900  1
  Si  Si7  1  0.50803000  0.26636500  0.32827100  1
  Si  Si8  1  0.99221700  0.68283300  0.67210000  1
  Si  Si9  1  0.49221700  0.81716700  0.32790000  1
  Si  Si10  1  0.00778300  0.31716700  0.32790000  1
  Si  Si11  1  0.50778300  0.18283300  0.67210000  1
  Si  Si12  1  0.49834700  0.88132200  0.95309900  1
  Si  Si13  1  0.99834700  0.61867800  0.04690100  1
  Si  Si14  1  0.50165300  0.11867800  0.04690100  1
  Si  Si15  1  0.00165300  0.38132200  0.95309900  1
  Si  Si16  1  0.27118100  0.95049800  0.67021800  1
  Si  Si17  1  0.77118100  0.54950200  0.32978200  1
  Si  Si18  1  0.72881900  0.04950200  0.32978200  1
  Si  Si19  1  0.22881900  0.45049800  0.67021800  1
  Si  Si20  1  0.00008100  0.89287200  0.93560300  1
  Si  Si21  1  0.50008100  0.60712800  0.06439700  1
  Si  Si22  1  0.99991900  0.10712800  0.06439700  1
  Si  Si23  1  0.49991900  0.39287200  0.93560300  1
  Si  Si24  1  0.72844200  0.96540700  0.67037800  1
  Si  Si25  1  0.22844200  0.53459300  0.32962200  1
  Si  Si26  1  0.27155800  0.03459300  0.32962200  1
  Si  Si27  1  0.77155800  0.46540700  0.67037800  1
loop_
_geom_bond_atom_site_label_1
_geom_bond_atom_site_label_2
_geom_bond_distance
_geom_bond_site_symmetry_2
Co0 Si2 2.280631 1_565
Co0 Si1 2.292681 1_555
Co0 Si0 2.300191 1_555
Co0 Si9 2.452714 1_555
Co0 Si5 2.461238 1_555
Co0 Si26 2.486377 1_565
Co0 Si16 2.492569 1_555
Co0 Co2 2.768153 1_565
Co0 Yb1 3.003857 1_555
Co0 Yb0 3.137943 1_565
Co1 Si3 2.280631 1_555
Co1 Si0 2.292681 1_555
Co1 Si1 2.300191 1_655
Co1 Si8 2.452714 1_555
Co1 Si4 2.461238 1_555
Co1 Si27 2.486377 1_555
Co1 Si17 2.492569 1_555
Co1 Co3 2.768153 1_655
Co1 Yb0 3.003857 1_665
Co1 Yb1 3.137943 1_555
Co2 Si0 2.280631 1_545
Co2 Si3 2.292681 1_555
Co2 Si2 2.300191 1_555
Co2 Si11 2.452714 1_555
Co2 Si7 2.461238 1_555
Co2 Si24 2.486377 1_545
Co2 Si18 2.492569 1_555
Co2 Yb1 3.003857 1_555
Co2 Yb0 3.137943 1_655
Co3 Si1 2.280631 1_555
Co3 Si2 2.292681 1_555
Co3 Si3 2.300191 1_455
Co3 Si10 2.452714 1_555
Co3 Si6 2.461238 1_555
Co3 Si25 2.486377 1_555
Co3 Si19 2.492569 1_555
Co3 Yb0 3.003857 1_555
Co3 Yb1 3.137943 1_555
Co4 Si6 2.311683 1_665
Co4 Si8 2.315651 1_555
Co4 Si24 2.339093 1_555
Co4 Si16 2.339991 1_655
Co4 Si20 2.392139 1_655
Co4 Yb8 3.075377 1_565
Co4 Yb2 3.079599 1_665
Co4 Yb0 3.099986 1_665
Co4 Yb5 3.101593 1_655
Co4 Yb7 3.105303 1_555
Co5 Si7 2.311683 1_555
Co5 Si9 2.315651 1_555
Co5 Si25 2.339093 1_555
Co5 Si17 2.339991 1_555
Co5 Si21 2.392139 1_555
Co5 Yb9 3.075377 1_555
Co5 Yb3 3.079599 1_555
Co5 Yb1 3.099986 1_555
Co5 Yb4 3.101593 1_555
Co5 Yb6 3.105303 1_555
Co6 Si4 2.311683 1_445
Co6 Si10 2.315651 1_555
Co6 Si26 2.339093 1_555
Co6 Si18 2.339991 1_455
Co6 Si22 2.392139 1_455
Co6 Yb6 3.075377 1_545
Co6 Yb4 3.079599 1_445
Co6 Yb0 3.099986 1_555
Co6 Yb3 3.101593 1_455
Co6 Yb9 3.105303 1_555
Co7 Si5 2.311683 1_555
Co7 Si11 2.315651 1_555
Co7 Si27 2.339093 1_555
Co7 Si19 2.339991 1_555
Co7 Si23 2.392139 1_555
Co7 Yb7 3.075377 1_555
Co7 Yb5 3.079599 1_555
Co7 Yb1 3.099986 1_555
Co7 Yb2 3.101593 1_555
Co7 Yb8 3.105303 1_555
Si0 Si18 2.559657 1_565
Si0 Si24 2.560899 1_555
Si0 Si9 2.614412 1_555
Si0 Si5 2.619190 1_555
Si0 Yb0 2.895463 1_665
Si0 Yb1 2.908726 1_555
Si1 Si19 2.559657 1_555
Si1 Si25 2.560899 1_555
Si1 Si8 2.614412 1_455
Si1 Si4 2.619190 1_455
Si1 Yb1 2.895463 1_555
Si1 Yb0 2.908726 1_565
Si2 Si26 2.560899 1_555
Si2 Si7 2.619190 1_555
Si2 Yb0 2.895463 1_555
Si2 Yb1 2.908726 1_555
Si3 Si6 2.619190 1_655
Si3 Yb1 2.895463 1_555
Si3 Yb0 2.908726 1_655
Si4 Yb0 3.027283 1_665
Si4 Yb4 3.049661 1_555
Si4 Yb6 3.091385 1_655
Si5 Yb1 3.027283 1_555
Si5 Yb5 3.049661 1_555
Si5 Yb7 3.091385 1_555
Si6 Yb0 3.027283 1_555
Si6 Yb2 3.049661 1_555
Si6 Yb8 3.091385 1_455
Si7 Yb1 3.027283 1_555
Si7 Yb3 3.049661 1_555
Si7 Yb9 3.091385 1_555
Si8 Yb0 3.032923 1_665
Si8 Yb7 3.042275 1_555
Si8 Yb5 3.075751 1_655
Si9 Yb1 3.032923 1_555
Si9 Yb6 3.042275 1_555
Si9 Yb4 3.075751 1_555
Si10 Si25 2.412590 1_555
Si10 Si17 2.582688 1_455
Si10 Si3 2.614412 1_455
Si10 Yb0 3.032923 1_555
Si10 Yb9 3.042275 1_555
Si10 Yb3 3.075751 1_455
Si11 Si24 2.412590 1_545
Si11 Si16 2.582688 1_545
Si11 Si2 2.614412 1_555
Si11 Yb1 3.032923 1_555
Si11 Yb8 3.042275 1_555
Si11 Yb2 3.075751 1_555
Si12 Si14 2.322513 1_566
Si12 Si21 2.362711 1_556
Si12 Yb7 2.945415 1_555
Si12 Yb2 2.985009 1_565
Si12 Yb5 3.004880 1_555
Si12 Yb8 3.075365 1_565
Si12 Yb4 3.081966 1_556
Si12 Yb6 3.099979 1_556
Si13 Si15 2.322513 1_654
Si13 Si20 2.362711 1_654
Si13 Yb6 2.945415 1_655
Si13 Yb3 2.985009 1_555
Si13 Yb4 3.004880 1_555
Si13 Yb9 3.075365 1_655
Si13 Yb5 3.081966 1_654
Si13 Yb7 3.099979 1_554
Si14 Si23 2.362711 1_554
Si14 Yb9 2.945415 1_555
Si14 Yb4 2.985009 1_545
Si14 Yb3 3.004880 1_555
Si14 Yb6 3.075365 1_545
Si14 Yb2 3.081966 1_554
Si14 Yb8 3.099979 1_554
Si15 Si22 2.362711 1_456
Si15 Yb8 2.945415 1_455
Si15 Yb5 2.985009 1_555
Si15 Yb2 3.004880 1_555
Si15 Yb7 3.075365 1_455
Si15 Yb3 3.081966 1_456
Si15 Yb9 3.099979 1_556
Si16 Si5 2.406146 1_555
Si16 Si2 2.559657 1_565
Si16 Yb0 3.027487 1_565
Si16 Yb5 3.042086 1_555
Si16 Yb2 3.054880 1_565
Si17 Si4 2.406146 1_555
Si17 Si3 2.559657 1_555
Si17 Yb1 3.027487 1_555
Si17 Yb4 3.042086 1_555
Si17 Yb3 3.054880 1_555
Si18 Si7 2.406146 1_555
Si18 Si9 2.582688 1_545
Si18 Yb0 3.027487 1_655
Si18 Yb3 3.042086 1_555
Si18 Yb4 3.054880 1_545
Si19 Si6 2.406146 1_555
Si19 Si8 2.582688 1_455
Si19 Yb1 3.027487 1_555
Si19 Yb2 3.042086 1_555
Si19 Yb5 3.054880 1_555
Si20 Si22 2.488835 1_466
Si20 Yb8 2.915336 1_465
Si20 Yb2 2.920366 1_565
Si20 Yb5 2.922866 1_555
Si20 Yb7 2.926218 1_455
Si20 Yb6 3.249108 1_556
Si20 Yb4 3.289259 1_456
Si21 Si23 2.488835 1_554
Si21 Yb9 2.915336 1_555
Si21 Yb3 2.920366 1_555
Si21 Yb4 2.922866 1_555
Si21 Yb6 2.926218 1_555
Si21 Yb7 3.249108 1_554
Si21 Yb5 3.289259 1_554
Si22 Yb6 2.915336 1_645
Si22 Yb4 2.920366 1_545
Si22 Yb3 2.922866 1_555
Si22 Yb9 2.926218 1_655
Si22 Yb8 3.249108 1_554
Si22 Yb2 3.289259 1_654
Si23 Yb7 2.915336 1_555
Si23 Yb5 2.920366 1_555
Si23 Yb2 2.922866 1_555
Si23 Yb8 2.926218 1_555
Si23 Yb9 3.249108 1_556
Si23 Yb3 3.289259 1_556
Si24 Si5 2.574747 1_555
Si24 Yb8 3.022800 1_565
Si24 Yb0 3.030750 1_665
Si24 Yb7 3.078218 1_555
Si25 Si4 2.574747 1_455
Si25 Yb9 3.022800 1_555
Si25 Yb1 3.030750 1_555
Si25 Yb6 3.078218 1_555
Si26 Si9 2.412590 1_545
Si26 Si7 2.574747 1_555
Si26 Yb6 3.022800 1_545
Si26 Yb0 3.030750 1_555
Si26 Yb9 3.078218 1_555
Si27 Si8 2.412590 1_555
Si27 Si3 2.560899 1_555
Si27 Si6 2.574747 1_655
Si27 Yb7 3.022800 1_555
Si27 Yb1 3.030750 1_555
Si27 Yb8 3.078218 1_555
