# generated using pymatgen
data_Tb2InAu2
_symmetry_space_group_name_H-M   'P 1'
_cell_length_a   7.91587793
_cell_length_b   7.91587793
_cell_length_c   3.74627552
_cell_angle_alpha   90.00000000
_cell_angle_beta   90.00000000
_cell_angle_gamma   90.00000000
_symmetry_Int_Tables_number   1
_chemical_formula_structural   Tb2InAu2
_chemical_formula_sum   'Tb4 In2 Au4'
_cell_volume   234.74583266
_cell_formula_units_Z   2
loop_
 _symmetry_equiv_pos_site_id
 _symmetry_equiv_pos_as_xyz
  1  'x, y, z'
loop_
 _atom_site_type_symbol
 _atom_site_label
 _atom_site_symmetry_multiplicity
 _atom_site_fract_x
 _atom_site_fract_y
 _atom_site_fract_z
 _atom_site_occupancy
  Tb  Tb0  1  0.67070081  0.17070081  0.50000000  1
  Tb  Tb1  1  0.32929919  0.82929919  0.50000000  1
  Tb  Tb2  1  0.17070081  0.32929919  0.50000000  1
  Tb  Tb3  1  0.82929919  0.67070081  0.50000000  1
  In  In0  1  0.50000000  0.50000000  0.00000000  1
  In  In1  1  -0.00000000  -0.00000000  0.00000000  1
  Au  Au0  1  0.12790630  0.62790630  -0.00000000  1
  Au  Au1  1  0.87209370  0.37209370  0.00000000  1
  Au  Au2  1  0.62790630  0.87209370  0.00000000  1
  Au  Au3  1  0.37209370  0.12790630  -0.00000000  1
loop_
_geom_bond_atom_site_label_1
_geom_bond_atom_site_label_2
_geom_bond_distance
_geom_bond_site_symmetry_2
In0 Tb0 3.482723 1_555
In0 Tb0 3.482723 1_554
In0 Tb3 3.482723 1_555
In0 Tb1 3.482723 1_554
In0 Tb1 3.482723 1_555
In0 Tb3 3.482723 1_554
In0 Tb2 3.482723 1_555
In0 Tb2 3.482723 1_554
In1 Tb0 3.482723 1_454
In1 Tb0 3.482723 1_455
In1 Tb3 3.482723 1_445
In1 Tb3 3.482723 1_444
In1 Tb2 3.482723 1_555
In1 Tb2 3.482723 1_554
In1 Tb1 3.482723 1_545
In1 Tb1 3.482723 1_544
Au0 Au1 2.863756 1_455
Au0 Tb1 2.931143 1_554
Au0 Tb1 2.931143 1_555
Au0 Tb2 3.034906 1_555
Au0 Tb2 3.034906 1_554
Au0 Tb3 3.034906 1_454
Au0 Tb3 3.034906 1_455
Au0 In1 3.114611 1_565
Au0 In0 3.114611 1_555
Au1 Tb0 2.931143 1_555
Au1 Tb0 2.931143 1_554
Au1 Tb2 3.034906 1_655
Au1 Tb3 3.034906 1_554
Au1 Tb3 3.034906 1_555
Au1 Tb2 3.034906 1_654
Au1 In0 3.114611 1_555
Au1 In1 3.114611 1_655
Au2 Au3 2.863756 1_565
Au2 Tb3 2.931143 1_555
Au2 Tb3 2.931143 1_554
Au2 Tb1 3.034906 1_554
Au2 Tb1 3.034906 1_555
Au2 Tb0 3.034906 1_564
Au2 Tb0 3.034906 1_565
Au2 In1 3.114611 1_665
Au2 In0 3.114611 1_555
Au3 Tb2 2.931143 1_555
Au3 Tb2 2.931143 1_554
Au3 Tb0 3.034906 1_555
Au3 Tb0 3.034906 1_554
Au3 Tb1 3.034906 1_544
Au3 Tb1 3.034906 1_545
Au3 In0 3.114611 1_555
Au3 In1 3.114611 1_555
