# generated using pymatgen
data_Ca(FeO2)2
_symmetry_space_group_name_H-M   'P 1'
_cell_length_a   6.23318212
_cell_length_b   6.22705453
_cell_length_c   6.19177313
_cell_angle_alpha   90.94439189
_cell_angle_beta   118.95181865
_cell_angle_gamma   119.23053457
_symmetry_Int_Tables_number   1
_chemical_formula_structural   Ca(FeO2)2
_chemical_formula_sum   'Ca2 Fe4 O8'
_cell_volume   173.16211258
_cell_formula_units_Z   2
loop_
 _symmetry_equiv_pos_site_id
 _symmetry_equiv_pos_as_xyz
  1  'x, y, z'
loop_
 _atom_site_type_symbol
 _atom_site_label
 _atom_site_symmetry_multiplicity
 _atom_site_fract_x
 _atom_site_fract_y
 _atom_site_fract_z
 _atom_site_occupancy
  Ca  Ca0  1  0.24633500  0.12222900  0.87685800  1
  Ca  Ca1  1  0.75363600  0.87777500  0.12313600  1
  Fe  Fe0  1  0.50010800  0.00003100  0.50008800  1
  Fe  Fe1  1  0.50014500  0.50004700  0.50011800  1
  Fe  Fe2  1  0.99983200  0.49992100  0.99971900  1
  Fe  Fe3  1  0.00001200  0.49998300  0.50002500  1
  O  O0  1  0.03761300  0.73003000  0.26186500  1
  O  O1  1  0.45262500  0.72850600  0.69720200  1
  O  O2  1  0.48291100  0.74053700  0.28062900  1
  O  O3  1  0.96044300  0.69297700  0.74051900  1
  O  O4  1  0.51705600  0.25945900  0.71936300  1
  O  O5  1  0.54735400  0.27149800  0.30279700  1
  O  O6  1  0.03955700  0.30701300  0.25951700  1
  O  O7  1  0.96237400  0.26999400  0.73816500  1
loop_
_geom_bond_atom_site_label_1
_geom_bond_atom_site_label_2
_geom_bond_distance
_geom_bond_site_symmetry_2
Ca0 O4 2.177381 1_555
Ca0 O5 2.182895 1_556
Ca0 O3 2.202306 1_445
Ca0 O7 2.205002 1_455
Ca1 O2 2.177392 1_555
Ca1 O1 2.182867 1_554
Ca1 O6 2.202233 1_665
Ca1 O0 2.204984 1_655
Fe0 O4 2.021492 1_555
Fe0 O2 2.021498 1_545
Fe0 O1 2.089257 1_545
Fe0 O5 2.089673 1_555
Fe0 O7 2.092082 1_555
Fe0 O0 2.093052 1_545
Fe1 O4 2.044789 1_555
Fe1 O2 2.045481 1_555
Fe1 O5 2.074736 1_555
Fe1 O1 2.074847 1_555
Fe1 O3 2.081052 1_555
Fe1 O6 2.082387 1_555
Fe2 O7 1.989523 1_555
Fe2 O0 1.991727 1_656
Fe2 O3 2.012859 1_555
Fe2 O6 2.015070 1_656
Fe2 O4 2.183392 1_555
Fe2 O2 2.185036 1_656
Fe3 O1 2.040092 1_555
Fe3 O5 2.040275 1_455
Fe3 O6 2.075567 1_555
Fe3 O3 2.075706 1_455
Fe3 O7 2.087260 1_455
Fe3 O0 2.087561 1_555
