# generated using pymatgen
data_MgAg20(BiO4)4
_symmetry_space_group_name_H-M   'P 1'
_cell_length_a   6.10570083
_cell_length_b   9.00731667
_cell_length_c   13.44102262
_cell_angle_alpha   95.08063592
_cell_angle_beta   85.52848473
_cell_angle_gamma   93.44450698
_symmetry_Int_Tables_number   1
_chemical_formula_structural   MgAg20(BiO4)4
_chemical_formula_sum   'Mg1 Ag20 Bi4 O16'
_cell_volume   733.00354600
_cell_formula_units_Z   1
loop_
 _symmetry_equiv_pos_site_id
 _symmetry_equiv_pos_as_xyz
  1  'x, y, z'
loop_
 _atom_site_type_symbol
 _atom_site_label
 _atom_site_symmetry_multiplicity
 _atom_site_fract_x
 _atom_site_fract_y
 _atom_site_fract_z
 _atom_site_occupancy
  Mg  Mg0  1  0.73011967  0.54033372  0.46431832  1
  Ag  Ag0  1  0.22233014  0.75956724  0.11549278  1
  Ag  Ag1  1  0.78262164  0.74708460  0.65099185  1
  Ag  Ag2  1  0.99055137  0.51114208  0.99864953  1
  Ag  Ag3  1  0.47668659  0.98182076  0.49570697  1
  Ag  Ag4  1  0.07970709  0.11038885  0.67332601  1
  Ag  Ag5  1  0.49541368  0.63396337  0.85354166  1
  Ag  Ag6  1  0.89965408  0.88186685  0.32793006  1
  Ag  Ag7  1  0.47330472  0.36985909  0.12722608  1
  Ag  Ag8  1  0.49323254  0.00687224  0.24487864  1
  Ag  Ag9  1  0.89628439  0.52759419  0.23345756  1
  Ag  Ag10  1  0.50082527  0.98996217  0.75630382  1
  Ag  Ag11  1  0.06228853  0.49054060  0.76162515  1
  Ag  Ag12  1  0.49759387  0.01065594  0.00259611  1
  Ag  Ag13  1  0.11411942  0.47284386  0.51732233  1
  Ag  Ag14  1  0.27200905  0.26610578  0.88043533  1
  Ag  Ag15  1  0.27762058  0.74040296  0.63529410  1
  Ag  Ag16  1  0.71563235  0.75618932  0.11681230  1
  Ag  Ag17  1  0.79037953  0.22109521  0.37846740  1
  Ag  Ag18  1  0.76198030  0.26192140  0.87889448  1
  Ag  Ag19  1  0.27556549  0.23123125  0.37763619  1
  Bi  Bi0  1  0.56211591  0.34357418  0.63777119  1
  Bi  Bi1  1  0.99739898  0.87624705  0.88404875  1
  Bi  Bi2  1  0.35837248  0.64121517  0.33710755  1
  Bi  Bi3  1  0.99739783  0.14640802  0.11706677  1
  O  O0  1  0.07137971  0.39303556  0.12086566  1
  O  O1  1  0.33546707  0.87502894  0.36355155  1
  O  O2  1  0.91043499  0.63429173  0.87981613  1
  O  O3  1  0.60397010  0.10045130  0.62429436  1
  O  O4  1  0.03706980  0.88491774  0.71225112  1
  O  O5  1  0.54018009  0.38958576  0.81077120  1
  O  O6  1  0.99785586  0.14416455  0.94538993  1
  O  O7  1  0.54202993  0.60414458  0.58426552  1
  O  O8  1  0.98756235  0.88685228  0.05964273  1
  O  O9  1  0.53907643  0.34931336  0.45500777  1
  O  O10  1  0.63669245  0.15022432  0.12693972  1
  O  O11  1  0.71975568  0.66351623  0.35194691  1
  O  O12  1  0.35764871  0.86417988  0.88279022  1
  O  O13  1  0.20689639  0.33133142  0.64822627  1
  O  O14  1  0.03416129  0.10295728  0.28816002  1
  O  O15  1  0.44411365  0.62140515  0.17397198  1
loop_
_geom_bond_atom_site_label_1
_geom_bond_atom_site_label_2
_geom_bond_distance
_geom_bond_site_symmetry_2
Mg0 O11 1.958703 1_555
Mg0 O7 1.968489 1_555
Mg0 O9 2.019933 1_555
Ag0 O8 2.109591 1_455
Ag0 O15 2.131186 1_555
Ag1 O7 2.096091 1_555
Ag1 O4 2.102277 1_655
Ag2 O2 2.126436 1_555
Ag2 O0 2.138407 1_656
Ag3 O3 2.124968 1_565
Ag3 O1 2.158823 1_555
Ag4 O4 2.137625 1_545
Ag4 O13 2.137695 1_555
Ag5 O5 2.252574 1_555
Ag5 O12 2.275014 1_555
Ag5 O2 2.585404 1_555
Ag6 O14 2.202175 1_665
Ag6 O11 2.230783 1_555
Ag6 O1 2.745401 1_655
Ag7 O10 2.268076 1_555
Ag7 O15 2.310652 1_555
Ag7 O0 2.484070 1_555
Ag8 O1 2.200211 1_545
Ag8 O10 2.226549 1_555
Ag9 O0 2.116766 1_655
Ag9 O11 2.177753 1_555
Ag10 O3 2.144424 1_565
Ag10 O12 2.220039 1_555
Ag11 O2 2.147122 1_455
Ag11 O13 2.171269 1_555
Ag12 O12 2.183279 1_544
Ag12 O10 2.194506 1_555
Ag13 O13 2.383440 1_555
Ag13 Mg0 2.623474 1_455
Ag14 O6 2.119340 1_455
Ag14 O5 2.126347 1_555
Ag15 O7 2.121177 1_555
Ag15 O4 2.162379 1_555
Ag16 O8 2.111568 1_555
Ag16 O15 2.130084 1_555
Ag17 O14 2.121564 1_655
Ag17 O9 2.121998 1_555
Ag18 O6 2.133108 1_555
Ag18 O5 2.135803 1_555
Ag19 O9 2.158873 1_555
Ag19 O14 2.186204 1_555
Bi0 O13 2.159250 1_555
Bi0 O3 2.209860 1_555
Bi0 O5 2.320373 1_555
Bi0 O9 2.476739 1_555
Bi0 O7 2.527477 1_555
Bi1 O12 2.207451 1_655
Bi1 O2 2.208736 1_555
Bi1 O4 2.310700 1_655
Bi1 O8 2.349842 1_556
Bi1 O6 2.480032 1_565
Bi2 O1 2.115735 1_555
Bi2 O15 2.208351 1_555
Bi2 O11 2.226439 1_555
Bi3 O10 2.198157 1_555
Bi3 O0 2.237058 1_655
Bi3 O6 2.305596 1_554
Bi3 O8 2.394969 1_545
Bi3 O14 2.396349 1_655
