# generated using pymatgen
data_ZnOs3
_symmetry_space_group_name_H-M   'P 1'
_cell_length_a   5.49752139
_cell_length_b   5.49752139
_cell_length_c   4.36213900
_cell_angle_alpha   90.00000000
_cell_angle_beta   90.00000000
_cell_angle_gamma   119.99999260
_symmetry_Int_Tables_number   1
_chemical_formula_structural   ZnOs3
_chemical_formula_sum   'Zn2 Os6'
_cell_volume   114.17315946
_cell_formula_units_Z   2
loop_
 _symmetry_equiv_pos_site_id
 _symmetry_equiv_pos_as_xyz
  1  'x, y, z'
loop_
 _atom_site_type_symbol
 _atom_site_label
 _atom_site_symmetry_multiplicity
 _atom_site_fract_x
 _atom_site_fract_y
 _atom_site_fract_z
 _atom_site_occupancy
  Zn  Zn0  1  0.33333300  0.66666700  0.75000000  1
  Zn  Zn1  1  0.66666700  0.33333300  0.25000000  1
  Os  Os0  1  0.17120000  0.34240100  0.25000000  1
  Os  Os1  1  0.65759900  0.82880000  0.25000000  1
  Os  Os2  1  0.17120000  0.82880000  0.25000000  1
  Os  Os3  1  0.82880000  0.65759900  0.75000000  1
  Os  Os4  1  0.34240100  0.17120000  0.75000000  1
  Os  Os5  1  0.82880000  0.17120000  0.75000000  1
loop_
_geom_bond_atom_site_label_1
_geom_bond_atom_site_label_2
_geom_bond_distance
_geom_bond_site_symmetry_2
Os0 Zn0 2.672166 1_555
Os0 Zn0 2.672166 1_554
Os0 Os2 2.673989 1_555
Os0 Os1 2.673989 1_555
Os0 Os5 2.722958 1_455
Os0 Os5 2.722958 1_454
Os0 Os4 2.722963 1_555
Os0 Os4 2.722963 1_554
Os0 Zn1 2.749094 1_455
Os0 Zn1 2.749105 1_555
Os0 Os2 2.823532 1_545
Os0 Os1 2.823533 1_445
Os1 Zn0 2.672166 1_555
Os1 Zn0 2.672166 1_554
Os1 Os2 2.673989 1_555
Os1 Os5 2.722958 1_565
Os1 Os5 2.722958 1_564
Os1 Os3 2.722963 1_555
Os1 Os3 2.722963 1_554
Os1 Zn1 2.749094 1_565
Os1 Zn1 2.749105 1_555
Os1 Os2 2.823532 1_655
Os2 Zn0 2.672166 1_554
Os2 Zn0 2.672166 1_555
Os2 Os4 2.722958 1_565
Os2 Os4 2.722958 1_564
Os2 Os3 2.722958 1_454
Os2 Os3 2.722958 1_455
Os2 Zn1 2.749100 1_565
Os2 Zn1 2.749100 1_455
Os3 Zn1 2.672166 1_555
Os3 Zn1 2.672166 1_556
Os3 Os5 2.673989 1_555
Os3 Os4 2.673989 1_555
Os3 Zn0 2.749094 1_655
Os3 Zn0 2.749105 1_555
Os3 Os5 2.823532 1_565
Os3 Os4 2.823533 1_665
Os4 Zn1 2.672166 1_555
Os4 Zn1 2.672166 1_556
Os4 Os5 2.673989 1_555
Os4 Zn0 2.749094 1_545
Os4 Zn0 2.749105 1_555
Os4 Os5 2.823532 1_455
Os5 Zn1 2.672166 1_555
Os5 Zn1 2.672166 1_556
Os5 Zn0 2.749100 1_545
Os5 Zn0 2.749100 1_655
