# generated using pymatgen
data_Sr6Mg(Te4O11)2
_symmetry_space_group_name_H-M   'P 1'
_cell_length_a   8.21038321
_cell_length_b   9.44157463
_cell_length_c   9.79380185
_cell_angle_alpha   96.61662654
_cell_angle_beta   112.16634675
_cell_angle_gamma   98.78774972
_symmetry_Int_Tables_number   1
_chemical_formula_structural   Sr6Mg(Te4O11)2
_chemical_formula_sum   'Sr6 Mg1 Te8 O22'
_cell_volume   682.33356982
_cell_formula_units_Z   1
loop_
 _symmetry_equiv_pos_site_id
 _symmetry_equiv_pos_as_xyz
  1  'x, y, z'
loop_
 _atom_site_type_symbol
 _atom_site_label
 _atom_site_symmetry_multiplicity
 _atom_site_fract_x
 _atom_site_fract_y
 _atom_site_fract_z
 _atom_site_occupancy
  Sr  Sr0  1  0.36341746  0.08358649  0.15883347  1
  Sr  Sr1  1  0.65642274  0.96406640  0.88766253  1
  Sr  Sr2  1  0.87882756  0.08561494  0.33096304  1
  Sr  Sr3  1  0.15877547  0.89740805  0.66449894  1
  Sr  Sr4  1  0.30244765  0.53807034  0.61422631  1
  Sr  Sr5  1  0.69976361  0.47601318  0.35669617  1
  Mg  Mg0  1  0.01315949  0.87469992  0.92793948  1
  Te  Te0  1  0.05315758  0.33759176  0.19301044  1
  Te  Te1  1  0.86829169  0.58709979  0.72421136  1
  Te  Te2  1  0.99549490  0.22240752  0.77337728  1
  Te  Te3  1  0.96866527  0.73752583  0.21961539  1
  Te  Te4  1  0.43609131  0.74476821  0.04657496  1
  Te  Te5  1  0.49434648  0.31669794  0.92678312  1
  Te  Te6  1  0.51144277  0.80289858  0.45957949  1
  Te  Te7  1  0.50234775  0.17574903  0.55062964  1
  O  O0  1  0.02607398  0.62125325  0.61874976  1
  O  O1  1  0.00911822  0.41141486  0.36174214  1
  O  O2  1  0.45396915  0.59652850  0.41120300  1
  O  O3  1  0.50541327  0.35693063  0.65143304  1
  O  O4  1  0.82371362  0.21018262  0.09132408  1
  O  O5  1  0.24721525  0.84869487  0.95102175  1
  O  O6  1  0.70838705  0.12414670  0.70159676  1
  O  O7  1  0.33540725  0.85550528  0.29212996  1
  O  O8  1  0.40322998  0.82057347  0.60057147  1
  O  O9  1  0.61599683  0.21985847  0.41766319  1
  O  O10  1  0.00461291  0.11090611  0.60788875  1
  O  O11  1  0.00220361  0.87008233  0.39100508  1
  O  O12  1  0.47947962  0.31891366  0.11487275  1
  O  O13  1  0.47986543  0.70881835  0.87201794  1
  O  O14  1  0.59593901  0.93106141  0.13522806  1
  O  O15  1  0.42356355  0.11313044  0.85116966  1
  O  O16  1  0.92786909  0.87485116  0.08670860  1
  O  O17  1  0.05390609  0.09006014  0.90903365  1
  O  O18  1  0.17959542  0.19878599  0.28521687  1
  O  O19  1  0.82115456  0.78737320  0.73324120  1
  O  O20  1  0.72838628  0.64316717  0.17984167  1
  O  O21  1  0.25558113  0.35784941  0.82535102  1
loop_
_geom_bond_atom_site_label_1
_geom_bond_atom_site_label_2
_geom_bond_distance
_geom_bond_site_symmetry_2
Mg0 O5 1.906152 1_555
Mg0 O16 1.931247 1_456
Mg0 O19 1.942474 1_455
Mg0 O17 2.050935 1_565
O0 Te1 1.951356 1_455
O0 Sr4 2.525889 1_555
O0 Sr3 2.584656 1_555
O0 Sr5 2.919407 1_455
O1 Te0 1.899960 1_555
O1 Sr5 2.685365 1_455
O1 Sr4 2.699911 1_555
O1 Sr2 3.038902 1_455
O2 Te6 1.892421 1_555
O2 Sr5 2.650820 1_555
O2 Sr4 2.777698 1_555
O3 Te7 1.865605 1_555
O3 Sr4 2.528024 1_555
O4 Te0 1.898285 1_655
O4 Sr2 2.663389 1_555
O4 Sr1 2.674715 1_544
O5 Te4 1.955725 1_556
O5 Sr0 2.611323 1_566
O5 Sr3 2.734073 1_555
O6 Te7 1.953364 1_555
O6 Te2 2.200593 1_555
O6 Sr1 2.609884 1_545
O7 Te6 1.908823 1_555
O7 Sr0 2.667880 1_565
O8 Te6 1.908384 1_555
O8 Sr3 2.497000 1_555
O8 Sr4 2.703381 1_555
O8 Sr1 2.813121 1_555
O9 Te7 1.913934 1_555
O9 Sr5 2.610199 1_555
O9 Sr0 2.616892 1_555
O9 Sr2 2.992421 1_555
O10 Te2 1.860963 1_455
O10 Sr2 2.478141 1_455
O10 Sr3 2.545652 1_545
O11 Te3 1.876572 1_455
O11 Sr2 2.443175 1_465
O11 Sr3 2.456587 1_555
O12 Te5 1.889521 1_554
O12 Sr0 2.431705 1_555
O12 Sr5 2.493758 1_555
O13 Te4 1.879953 1_556
O13 Sr1 2.571485 1_555
O13 Sr4 2.581577 1_555
O14 Te4 1.911253 1_555
O14 Sr2 2.481686 1_565
O14 Sr0 2.620734 1_565
O14 Sr1 2.694037 1_554
O15 Te5 1.893718 1_555
O15 Sr1 2.487205 1_545
O15 Sr3 2.647044 1_545
O16 Te3 1.918393 1_555
O16 Sr1 2.674014 1_554
O16 Sr2 3.117556 1_565
O17 Te2 1.908262 1_455
O17 Sr0 2.799529 1_556
O18 Te0 1.895182 1_555
O18 Sr0 2.567863 1_555
O18 Sr2 2.753079 1_455
O19 Te1 1.985946 1_555
O19 Sr1 2.924237 1_555
O20 Te3 1.907991 1_555
O20 Sr5 2.523848 1_555
O20 Te4 2.647900 1_555
O21 Te5 1.957795 1_555
O21 Te2 2.156331 1_455
O21 Sr4 2.920613 1_555
