# generated using pymatgen
data_Lu2S3
_symmetry_space_group_name_H-M   'P 1'
_cell_length_a   13.90487303
_cell_length_b   7.10182664
_cell_length_c   7.88941803
_cell_angle_alpha   122.44334249
_cell_angle_beta   151.79177467
_cell_angle_gamma   52.49974049
_symmetry_Int_Tables_number   1
_chemical_formula_structural   Lu2S3
_chemical_formula_sum   'Lu4 S6'
_cell_volume   292.15406568
_cell_formula_units_Z   2
loop_
 _symmetry_equiv_pos_site_id
 _symmetry_equiv_pos_as_xyz
  1  'x, y, z'
loop_
 _atom_site_type_symbol
 _atom_site_label
 _atom_site_symmetry_multiplicity
 _atom_site_fract_x
 _atom_site_fract_y
 _atom_site_fract_z
 _atom_site_occupancy
  Lu  Lu0  1  0.26774600  0.26951900  0.21290100  1
  Lu  Lu1  1  0.73225400  0.73048100  0.78709900  1
  Lu  Lu2  1  0.05484500  0.76951900  0.78709900  1
  Lu  Lu3  1  0.94515500  0.23048100  0.21290100  1
  S  S0  1  0.36473300  0.81115300  0.10752300  1
  S  S1  1  0.93503300  0.25000000  0.87006700  1
  S  S2  1  0.74279000  0.68884700  0.10752300  1
  S  S3  1  0.63526700  0.18884700  0.89247700  1
  S  S4  1  0.06496700  0.75000000  0.12993300  1
  S  S5  1  0.25721000  0.31115300  0.89247700  1
loop_
_geom_bond_atom_site_label_1
_geom_bond_atom_site_label_2
_geom_bond_distance
_geom_bond_site_symmetry_2
Lu0 S5 2.568261 1_554
Lu0 S3 2.574941 1_555
Lu0 S0 2.614166 1_545
Lu0 S1 2.657519 1_454
Lu0 S4 2.729789 1_555
Lu1 S2 2.568261 1_556
Lu1 S0 2.574941 1_555
Lu1 S3 2.614166 1_565
Lu1 S4 2.657519 1_656
Lu1 S1 2.729789 1_555
Lu2 S0 2.568261 1_556
Lu2 S2 2.574941 1_455
Lu2 S5 2.614166 1_555
Lu2 S4 2.657506 1_556
Lu2 S1 2.729790 1_465
Lu3 S3 2.568261 1_554
Lu3 S5 2.574941 1_655
Lu3 S2 2.614166 1_555
Lu3 S1 2.657506 1_554
Lu3 S4 2.729790 1_645
