# generated using pymatgen
data_TbCuSe2
_symmetry_space_group_name_H-M   'P 1'
_cell_length_a   6.59944730
_cell_length_b   7.06749155
_cell_length_c   7.30369010
_cell_angle_alpha   90.00000000
_cell_angle_beta   90.00000000
_cell_angle_gamma   96.24186041
_symmetry_Int_Tables_number   1
_chemical_formula_structural   TbCuSe2
_chemical_formula_sum   'Tb4 Cu4 Se8'
_cell_volume   338.63586451
_cell_formula_units_Z   4
loop_
 _symmetry_equiv_pos_site_id
 _symmetry_equiv_pos_as_xyz
  1  'x, y, z'
loop_
 _atom_site_type_symbol
 _atom_site_label
 _atom_site_symmetry_multiplicity
 _atom_site_fract_x
 _atom_site_fract_y
 _atom_site_fract_z
 _atom_site_occupancy
  Tb  Tb0  1  0.19437432  0.29895571  0.54379775  1
  Tb  Tb1  1  0.80562568  0.20104429  0.04379775  1
  Tb  Tb2  1  0.80562568  0.70104429  0.45620225  1
  Tb  Tb3  1  0.19437432  0.79895571  0.95620225  1
  Cu  Cu0  1  0.42875191  0.95420364  0.34239713  1
  Cu  Cu1  1  0.57124809  0.04579636  0.65760287  1
  Cu  Cu2  1  0.42875191  0.45420364  0.15760287  1
  Cu  Cu3  1  0.57124809  0.54579636  0.84239713  1
  Se  Se0  1  0.92538844  0.50340889  0.77509124  1
  Se  Se1  1  0.92538844  0.00340889  0.72490876  1
  Se  Se2  1  0.07461156  0.99659111  0.27509124  1
  Se  Se3  1  0.07461156  0.49659111  0.22490876  1
  Se  Se4  1  0.59732729  0.28088179  0.38771830  1
  Se  Se5  1  0.40267271  0.21911821  0.88771930  1
  Se  Se6  1  0.40267271  0.71911821  0.61228070  1
  Se  Se7  1  0.59732729  0.78088179  0.11228170  1
loop_
_geom_bond_atom_site_label_1
_geom_bond_atom_site_label_2
_geom_bond_distance
_geom_bond_site_symmetry_2
Cu0 Se7 2.420585 1_555
Cu0 Se2 2.438406 1_555
Cu0 Se4 2.473709 1_565
Cu0 Se6 2.571638 1_555
Cu1 Se5 2.420590 1_555
Cu1 Se1 2.438406 1_555
Cu1 Se6 2.473710 1_545
Cu1 Se4 2.571643 1_555
Cu2 Se4 2.420585 1_555
Cu2 Se3 2.438406 1_555
Cu2 Se7 2.473709 1_555
Cu2 Se5 2.571638 1_554
Cu3 Se6 2.420590 1_555
Cu3 Se0 2.438406 1_555
Cu3 Se5 2.473710 1_555
Cu3 Se7 2.571643 1_556
Se0 Tb2 2.870593 1_555
Se0 Tb3 2.908199 1_655
Se0 Tb0 2.941194 1_655
Se0 Tb1 2.945438 1_556
Se1 Tb1 2.870593 1_556
Se1 Tb0 2.908199 1_655
Se1 Tb3 2.941194 1_645
Se1 Tb2 2.945438 1_545
Se2 Tb3 2.870593 1_554
Se2 Tb2 2.908199 1_455
Se2 Tb1 2.941194 1_465
Se2 Tb0 2.945438 1_565
Se3 Tb0 2.870593 1_555
Se3 Tb1 2.908199 1_455
Se3 Tb2 2.941194 1_455
Se3 Tb3 2.945438 1_554
Se4 Tb0 2.908846 1_555
Se4 Tb1 2.947254 1_555
Se4 Tb2 3.173345 1_555
Se5 Tb1 2.908843 1_556
Se5 Tb0 2.947260 1_555
Se5 Tb3 3.173344 1_545
Se6 Tb2 2.908843 1_555
Se6 Tb3 2.947260 1_555
Se6 Tb0 3.173344 1_555
Se7 Tb3 2.908846 1_554
Se7 Tb2 2.947254 1_555
Se7 Tb1 3.173345 1_565
