# generated using pymatgen
data_Te6RhI3
_symmetry_space_group_name_H-M   'P 1'
_cell_length_a   10.09793882
_cell_length_b   10.09793882
_cell_length_c   10.09793924
_cell_angle_alpha   109.57181871
_cell_angle_beta   109.57181871
_cell_angle_gamma   109.57180982
_symmetry_Int_Tables_number   1
_chemical_formula_structural   Te6RhI3
_chemical_formula_sum   'Te12 Rh2 I6'
_cell_volume   789.67470240
_cell_formula_units_Z   2
loop_
 _symmetry_equiv_pos_site_id
 _symmetry_equiv_pos_as_xyz
  1  'x, y, z'
loop_
 _atom_site_type_symbol
 _atom_site_label
 _atom_site_symmetry_multiplicity
 _atom_site_fract_x
 _atom_site_fract_y
 _atom_site_fract_z
 _atom_site_occupancy
  Te  Te0  1  0.94203600  0.16536900  0.18149200  1
  Te  Te1  1  0.18149200  0.94203600  0.16536900  1
  Te  Te2  1  0.16536900  0.18149200  0.94203600  1
  Te  Te3  1  0.68149200  0.66536900  0.44203600  1
  Te  Te4  1  0.44203600  0.68149200  0.66536900  1
  Te  Te5  1  0.66536900  0.44203600  0.68149200  1
  Te  Te6  1  0.05796400  0.83463100  0.81850800  1
  Te  Te7  1  0.81850800  0.05796400  0.83463100  1
  Te  Te8  1  0.83463100  0.81850800  0.05796400  1
  Te  Te9  1  0.31850800  0.33463100  0.55796400  1
  Te  Te10  1  0.55796400  0.31850800  0.33463100  1
  Te  Te11  1  0.33463100  0.55796400  0.31850800  1
  Rh  Rh0  1  0.25000000  0.25000000  0.25000000  1
  Rh  Rh1  1  0.75000000  0.75000000  0.75000000  1
  I  I0  1  0.99334500  0.50665500  0.25000000  1
  I  I1  1  0.25000000  0.99334500  0.50665500  1
  I  I2  1  0.50665500  0.25000000  0.99334500  1
  I  I3  1  0.75000000  0.00665500  0.49334500  1
  I  I4  1  0.49334500  0.75000000  0.00665500  1
  I  I5  1  0.00665500  0.49334500  0.75000000  1
loop_
_geom_bond_atom_site_label_1
_geom_bond_atom_site_label_2
_geom_bond_distance
_geom_bond_site_symmetry_2
Te0 Te8 2.936269 1_545
Te0 Te7 2.936269 1_554
Te1 Te6 2.936269 1_554
Te1 Te8 2.936269 1_455
Te2 Te6 2.936269 1_545
Te2 Te7 2.936269 1_455
Te4 Te9 2.936269 1_555
Te5 Te9 2.936269 1_555
Te10 Te5 2.936269 1_555
Te10 Te3 2.936269 1_555
Te11 Te3 2.936269 1_555
Te11 Te4 2.936269 1_555
Rh0 Te10 2.694772 1_555
Rh0 Te1 2.694772 1_545
Rh0 Te0 2.694772 1_455
Rh0 Te11 2.694772 1_555
Rh0 Te9 2.694772 1_555
Rh0 Te2 2.694772 1_554
Rh1 Te7 2.694772 1_565
Rh1 Te4 2.694772 1_555
Rh1 Te6 2.694772 1_655
Rh1 Te5 2.694772 1_555
Rh1 Te8 2.694772 1_556
Rh1 Te3 2.694772 1_555
I0 Te11 3.096801 1_655
I0 Te0 3.096801 1_555
I1 Te9 3.096801 1_565
I1 Te1 3.096801 1_555
I2 Te2 3.096801 1_555
I2 Te10 3.096801 1_556
I3 Te3 3.096801 1_545
I3 Te7 3.096801 1_555
I4 Te8 3.096801 1_555
I4 Te4 3.096801 1_554
I5 Te5 3.096801 1_455
I5 Te6 3.096801 1_555
