# generated using pymatgen
data_ReBi3O8
_symmetry_space_group_name_H-M   'P 1'
_cell_length_a   9.95865367
_cell_length_b   9.95865367
_cell_length_c   9.95865367
_cell_angle_alpha   109.47122063
_cell_angle_beta   109.47122063
_cell_angle_gamma   109.47122063
_symmetry_Int_Tables_number   1
_chemical_formula_structural   ReBi3O8
_chemical_formula_sum   'Re4 Bi12 O32'
_cell_volume   760.29125939
_cell_formula_units_Z   4
loop_
 _symmetry_equiv_pos_site_id
 _symmetry_equiv_pos_as_xyz
  1  'x, y, z'
loop_
 _atom_site_type_symbol
 _atom_site_label
 _atom_site_symmetry_multiplicity
 _atom_site_fract_x
 _atom_site_fract_y
 _atom_site_fract_z
 _atom_site_occupancy
  Re  Re0  1  0.73925752  0.00000000  0.50000000  1
  Re  Re1  1  0.50000000  0.73925752  0.00000000  1
  Re  Re2  1  -0.00000000  0.50000000  0.73925752  1
  Re  Re3  1  0.76074248  0.76074248  0.76074248  1
  Bi  Bi0  1  0.25286824  0.49017234  0.46662417  1
  Bi  Bi1  1  0.28624406  0.03337583  0.02354716  1
  Bi  Bi2  1  0.76269590  0.47645284  0.00982766  1
  Bi  Bi3  1  0.02354716  0.28624406  0.03337583  1
  Bi  Bi4  1  0.00982766  0.76269590  0.47645284  1
  Bi  Bi5  1  0.46662417  0.25286824  0.49017234  1
  Bi  Bi6  1  0.47645284  0.00982766  0.76269590  1
  Bi  Bi7  1  0.49017234  0.46662417  0.25286824  1
  Bi  Bi8  1  0.03337583  0.02354716  0.28624406  1
  Bi  Bi9  1  0.24713176  0.21375594  0.73730410  1
  Bi  Bi10  1  0.21375594  0.73730410  0.24713176  1
  Bi  Bi11  1  0.73730410  0.24713176  0.21375594  1
  O  O0  1  0.56373518  0.00000000  0.50000000  1
  O  O1  1  0.50000000  0.56373518  -0.00000000  1
  O  O2  1  0.00000000  0.50000000  0.56373518  1
  O  O3  1  0.93626482  0.93626482  0.93626482  1
  O  O4  1  0.68913319  0.80178217  0.37145940  1
  O  O5  1  0.81767479  0.12854060  0.43032277  1
  O  O6  1  0.88735202  0.06967723  0.69821783  1
  O  O7  1  0.43032277  0.81767479  0.12854060  1
  O  O8  1  0.69821783  0.88735202  0.06967723  1
  O  O9  1  0.37145940  0.68913319  0.80178217  1
  O  O10  1  0.06967723  0.69821783  0.88735202  1
  O  O11  1  0.80178217  0.37145940  0.68913319  1
  O  O12  1  0.12854060  0.43032277  0.81767479  1
  O  O13  1  0.81086681  0.68232521  0.61264798  1
  O  O14  1  0.68232521  0.61264798  0.81086681  1
  O  O15  1  0.61264798  0.81086681  0.68232521  1
  O  O16  1  0.05036013  0.00000000  0.50000000  1
  O  O17  1  0.50000000  0.05036013  -0.00000000  1
  O  O18  1  -0.00000000  0.50000000  0.05036013  1
  O  O19  1  0.44963987  0.44963987  0.44963987  1
  O  O20  1  0.25000000  0.27061703  0.52061703  1
  O  O21  1  0.22938297  0.97938297  0.75000000  1
  O  O22  1  0.97938297  0.75000000  0.22938297  1
  O  O23  1  0.75000000  0.22938297  0.97938297  1
  O  O24  1  0.52061703  0.25000000  0.27061703  1
  O  O25  1  0.27061703  0.52061703  0.25000000  1
  O  O26  1  0.75000000  0.47100593  0.22100593  1
  O  O27  1  0.02899407  0.27899407  0.25000000  1
  O  O28  1  0.27899407  0.25000000  0.02899407  1
  O  O29  1  0.25000000  0.02899407  0.27899407  1
  O  O30  1  0.22100593  0.75000000  0.47100593  1
  O  O31  1  0.47100593  0.22100593  0.75000000  1
loop_
_geom_bond_atom_site_label_1
_geom_bond_atom_site_label_2
_geom_bond_distance
_geom_bond_site_symmetry_2
Bi0 O27 2.165752 1_555
Bi0 O19 2.175837 1_555
Bi0 O25 2.330572 1_555
Bi0 O20 2.413086 1_555
Bi0 O30 2.698006 1_555
Bi0 O9 2.804325 1_555
Bi1 O28 2.165749 1_555
Bi1 O17 2.175832 1_555
Bi1 O24 2.330576 1_555
Bi1 O21 2.413076 1_544
Bi1 O29 2.698015 1_555
Bi1 O10 2.804329 1_544
Bi2 O26 2.165756 1_555
Bi2 O18 2.175840 1_655
Bi2 O23 2.330582 1_554
Bi2 O22 2.413081 1_555
Bi2 O31 2.698008 1_554
Bi2 O14 2.804311 1_554
Bi3 O27 2.165749 1_555
Bi3 O18 2.175832 1_555
Bi3 O25 2.330576 1_555
Bi3 O23 2.413076 1_454
Bi3 O28 2.698015 1_555
Bi3 O6 2.804329 1_454
Bi4 O30 2.165756 1_555
Bi4 O16 2.175840 1_565
Bi4 O22 2.330582 1_455
Bi4 O21 2.413081 1_555
Bi4 O26 2.698008 1_455
Bi4 O13 2.804311 1_455
Bi5 O29 2.165752 1_555
Bi5 O19 2.175837 1_555
Bi5 O20 2.330572 1_555
Bi5 O24 2.413086 1_555
Bi5 O31 2.698006 1_555
Bi5 O11 2.804325 1_555
Bi6 O31 2.165756 1_555
Bi6 O17 2.175840 1_556
Bi6 O21 2.330582 1_545
Bi6 O23 2.413081 1_555
Bi6 O30 2.698008 1_545
Bi6 O15 2.804311 1_545
Bi7 O28 2.165752 1_555
Bi7 O19 2.175837 1_555
Bi7 O24 2.330572 1_555
Bi7 O25 2.413086 1_555
Bi7 O26 2.698006 1_555
Bi7 O4 2.804325 1_555
Bi8 O29 2.165749 1_555
Bi8 O16 2.175832 1_555
Bi8 O20 2.330576 1_555
Bi8 O22 2.413076 1_445
Bi8 O27 2.698015 1_555
Bi8 O8 2.804329 1_445
Bi9 O31 2.165752 1_555
Bi9 O16 2.175837 1_555
Bi9 O21 2.330572 1_545
Bi9 O20 2.413086 1_555
Bi9 O28 2.698006 1_556
Bi9 O12 2.804327 1_555
Bi10 O30 2.165752 1_555
Bi10 O18 2.175837 1_555
Bi10 O22 2.330572 1_455
Bi10 O25 2.413086 1_555
Bi10 O29 2.698006 1_565
Bi10 O7 2.804327 1_555
Bi11 O26 2.165752 1_555
Bi11 O17 2.175837 1_555
Bi11 O23 2.330572 1_554
Bi11 O24 2.413086 1_555
Bi11 O27 2.698006 1_655
Bi11 O5 2.804327 1_555
O0 Re0 1.747966 1_555
O1 Re1 1.747966 1_555
O2 Re2 1.747966 1_555
O3 Re3 1.747966 1_555
O4 Re0 1.736933 1_565
O5 Re0 1.736936 1_555
O6 Re0 1.736936 1_555
O7 Re1 1.736936 1_555
O8 Re1 1.736936 1_555
O9 Re1 1.736933 1_556
O10 Re2 1.736936 1_555
O11 Re2 1.736933 1_655
O12 Re2 1.736936 1_555
O13 Re3 1.736943 1_555
O14 Re3 1.736943 1_555
O15 Re3 1.736943 1_555
