# generated using pymatgen
data_Cs9(NbAs3)2
_symmetry_space_group_name_H-M   'P 1'
_cell_length_a   17.30174855
_cell_length_b   17.94430583
_cell_length_c   18.47040846
_cell_angle_alpha   90.00000000
_cell_angle_beta   90.00000000
_cell_angle_gamma   90.00000000
_symmetry_Int_Tables_number   1
_chemical_formula_structural   Cs9(NbAs3)2
_chemical_formula_sum   'Cs72 Nb16 As48'
_cell_volume   5734.46832412
_cell_formula_units_Z   8
loop_
 _symmetry_equiv_pos_site_id
 _symmetry_equiv_pos_as_xyz
  1  'x, y, z'
loop_
 _atom_site_type_symbol
 _atom_site_label
 _atom_site_symmetry_multiplicity
 _atom_site_fract_x
 _atom_site_fract_y
 _atom_site_fract_z
 _atom_site_occupancy
  Cs  Cs0  1  0.78097914  0.50139077  0.87137687  1
  Cs  Cs1  1  0.71902086  0.00139077  0.12862313  1
  Cs  Cs2  1  0.28097914  0.49860923  0.62862313  1
  Cs  Cs3  1  0.21902086  0.99860923  0.37137687  1
  Cs  Cs4  1  0.21902086  0.49860923  0.12862313  1
  Cs  Cs5  1  0.28097914  0.99860923  0.87137687  1
  Cs  Cs6  1  0.71902086  0.50139077  0.37137687  1
  Cs  Cs7  1  0.78097914  0.00139077  0.62862313  1
  Cs  Cs8  1  0.76353808  0.73011697  0.86222939  1
  Cs  Cs9  1  0.73646192  0.23011697  0.13777061  1
  Cs  Cs10  1  0.26353808  0.26988303  0.63777061  1
  Cs  Cs11  1  0.23646192  0.76988303  0.36222939  1
  Cs  Cs12  1  0.23646192  0.26988303  0.13777061  1
  Cs  Cs13  1  0.26353808  0.76988303  0.86222939  1
  Cs  Cs14  1  0.73646192  0.73011697  0.36222939  1
  Cs  Cs15  1  0.76353808  0.23011697  0.63777061  1
  Cs  Cs16  1  0.76722890  0.27689718  0.88190210  1
  Cs  Cs17  1  0.73277110  0.77689718  0.11809790  1
  Cs  Cs18  1  0.26722890  0.72310282  0.61809790  1
  Cs  Cs19  1  0.23277110  0.22310282  0.38190210  1
  Cs  Cs20  1  0.23277110  0.72310282  0.11809790  1
  Cs  Cs21  1  0.26722890  0.22310282  0.88190210  1
  Cs  Cs22  1  0.73277110  0.27689718  0.38190210  1
  Cs  Cs23  1  0.76722890  0.77689718  0.61809790  1
  Cs  Cs24  1  0.54003212  0.70740828  0.66790614  1
  Cs  Cs25  1  0.95996788  0.20740828  0.33209386  1
  Cs  Cs26  1  0.04003212  0.29259172  0.83209386  1
  Cs  Cs27  1  0.45996788  0.79259172  0.16790614  1
  Cs  Cs28  1  0.45996788  0.29259172  0.33209386  1
  Cs  Cs29  1  0.04003212  0.79259172  0.66790614  1
  Cs  Cs30  1  0.95996788  0.70740828  0.16790614  1
  Cs  Cs31  1  0.54003212  0.20740828  0.83209386  1
  Cs  Cs32  1  0.56695895  0.55347800  0.83148293  1
  Cs  Cs33  1  0.93304105  0.05347800  0.16851707  1
  Cs  Cs34  1  0.06695895  0.44652200  0.66851707  1
  Cs  Cs35  1  0.43304105  0.94652200  0.33148293  1
  Cs  Cs36  1  0.43304105  0.44652200  0.16851707  1
  Cs  Cs37  1  0.06695895  0.94652200  0.83148293  1
  Cs  Cs38  1  0.93304105  0.55347800  0.33148293  1
  Cs  Cs39  1  0.56695895  0.05347800  0.66851707  1
  Cs  Cs40  1  0.55252411  0.78151880  0.91736499  1
  Cs  Cs41  1  0.94747589  0.28151880  0.08263501  1
  Cs  Cs42  1  0.05252411  0.21848120  0.58263501  1
  Cs  Cs43  1  0.44747589  0.71848120  0.41736499  1
  Cs  Cs44  1  0.44747589  0.21848120  0.08263501  1
  Cs  Cs45  1  0.05252411  0.71848120  0.91736499  1
  Cs  Cs46  1  0.94747589  0.78151880  0.41736499  1
  Cs  Cs47  1  0.55252411  0.28151880  0.58263501  1
  Cs  Cs48  1  0.01344871  0.50301669  0.89090785  1
  Cs  Cs49  1  0.48655129  0.00301669  0.10909215  1
  Cs  Cs50  1  0.51344871  0.49698331  0.60909215  1
  Cs  Cs51  1  0.98655129  0.99698331  0.39090785  1
  Cs  Cs52  1  0.98655129  0.49698331  0.10909215  1
  Cs  Cs53  1  0.51344871  0.99698331  0.89090785  1
  Cs  Cs54  1  0.48655129  0.50301669  0.39090785  1
  Cs  Cs55  1  0.01344871  0.00301669  0.60909215  1
  Cs  Cs56  1  0.59538755  0.39855458  0.01591320  1
  Cs  Cs57  1  0.90461245  0.89855458  0.98408680  1
  Cs  Cs58  1  0.09538755  0.60144542  0.48408680  1
  Cs  Cs59  1  0.40461245  0.10144542  0.51591320  1
  Cs  Cs60  1  0.40461245  0.60144542  0.98408680  1
  Cs  Cs61  1  0.09538755  0.10144542  0.01591320  1
  Cs  Cs62  1  0.90461245  0.39855458  0.51591320  1
  Cs  Cs63  1  0.59538755  0.89855458  0.48408680  1
  Cs  Cs64  1  0.91286152  0.59951594  0.69864843  1
  Cs  Cs65  1  0.58713848  0.09951594  0.30135157  1
  Cs  Cs66  1  0.41286152  0.40048406  0.80135157  1
  Cs  Cs67  1  0.08713848  0.90048406  0.19864843  1
  Cs  Cs68  1  0.08713848  0.40048406  0.30135157  1
  Cs  Cs69  1  0.41286152  0.90048406  0.69864843  1
  Cs  Cs70  1  0.58713848  0.59951594  0.19864843  1
  Cs  Cs71  1  0.91286152  0.09951594  0.80135157  1
  Nb  Nb0  1  0.73171345  0.43859942  0.68443184  1
  Nb  Nb1  1  0.76828655  0.93859942  0.31556816  1
  Nb  Nb2  1  0.23171345  0.56140058  0.81556816  1
  Nb  Nb3  1  0.26828655  0.06140058  0.18443184  1
  Nb  Nb4  1  0.26828655  0.56140058  0.31556816  1
  Nb  Nb5  1  0.23171345  0.06140058  0.68443184  1
  Nb  Nb6  1  0.76828655  0.43859942  0.18443184  1
  Nb  Nb7  1  0.73171345  0.93859942  0.81556816  1
  Nb  Nb8  1  0.77429401  0.56872398  0.05777128  1
  Nb  Nb9  1  0.72570599  0.06872398  0.94222872  1
  Nb  Nb10  1  0.27429401  0.43127602  0.44222872  1
  Nb  Nb11  1  0.22570599  0.93127602  0.55777128  1
  Nb  Nb12  1  0.22570599  0.43127602  0.94222872  1
  Nb  Nb13  1  0.27429401  0.93127602  0.05777128  1
  Nb  Nb14  1  0.72570599  0.56872398  0.55777128  1
  Nb  Nb15  1  0.77429401  0.06872398  0.44222872  1
  As  As0  1  0.62650300  0.37590746  0.75496987  1
  As  As1  1  0.87349700  0.87590746  0.24503013  1
  As  As2  1  0.12650300  0.62409254  0.74503013  1
  As  As3  1  0.37349700  0.12409254  0.25496987  1
  As  As4  1  0.37349700  0.62409254  0.24503013  1
  As  As5  1  0.12650300  0.12409254  0.75496987  1
  As  As6  1  0.87349700  0.37590746  0.25496987  1
  As  As7  1  0.62650300  0.87590746  0.74503013  1
  As  As8  1  0.86651661  0.39510601  0.71970882  1
  As  As9  1  0.63348339  0.89510601  0.28029118  1
  As  As10  1  0.36651661  0.60489399  0.78029118  1
  As  As11  1  0.13348339  0.10489399  0.21970882  1
  As  As12  1  0.13348339  0.60489399  0.28029118  1
  As  As13  1  0.36651661  0.10489399  0.71970882  1
  As  As14  1  0.63348339  0.39510601  0.21970882  1
  As  As15  1  0.86651661  0.89510601  0.78029118  1
  As  As16  1  0.88254168  0.63970496  0.99956607  1
  As  As17  1  0.61745832  0.13970496  0.00043393  1
  As  As18  1  0.38254168  0.36029504  0.50043393  1
  As  As19  1  0.11745832  0.86029504  0.49956607  1
  As  As20  1  0.11745832  0.36029504  0.00043393  1
  As  As21  1  0.38254168  0.86029504  0.99956607  1
  As  As22  1  0.61745832  0.63970496  0.49956607  1
  As  As23  1  0.88254168  0.13970496  0.50043393  1
  As  As24  1  0.64384284  0.60876026  0.01029818  1
  As  As25  1  0.85615716  0.10876026  0.98970182  1
  As  As26  1  0.14384284  0.39123974  0.48970182  1
  As  As27  1  0.35615716  0.89123974  0.51029818  1
  As  As28  1  0.35615716  0.39123974  0.98970182  1
  As  As29  1  0.14384284  0.89123974  0.01029818  1
  As  As30  1  0.85615716  0.60876026  0.51029818  1
  As  As31  1  0.64384284  0.10876026  0.48970182  1
  As  As32  1  0.71077755  0.58172650  0.69560937  1
  As  As33  1  0.78922245  0.08172650  0.30439063  1
  As  As34  1  0.21077755  0.41827350  0.80439063  1
  As  As35  1  0.28922245  0.91827350  0.19560937  1
  As  As36  1  0.28922245  0.41827350  0.30439063  1
  As  As37  1  0.21077755  0.91827350  0.69560937  1
  As  As38  1  0.78922245  0.58172650  0.19560937  1
  As  As39  1  0.71077755  0.08172650  0.80439063  1
  As  As40  1  0.79636782  0.42491539  0.04883823  1
  As  As41  1  0.70363218  0.92491539  0.95116177  1
  As  As42  1  0.29636782  0.57508461  0.45116177  1
  As  As43  1  0.20363218  0.07508461  0.54883823  1
  As  As44  1  0.20363218  0.57508461  0.95116177  1
  As  As45  1  0.29636782  0.07508461  0.04883823  1
  As  As46  1  0.70363218  0.42491539  0.54883823  1
  As  As47  1  0.79636782  0.92491539  0.45116177  1
loop_
_geom_bond_atom_site_label_1
_geom_bond_atom_site_label_2
_geom_bond_distance
_geom_bond_site_symmetry_2
Cs0 Nb8 3.650477 1_556
Cs0 Nb0 3.730816 1_555
Cs1 Nb9 3.650477 1_554
Cs1 Nb1 3.730816 1_545
Cs2 Nb10 3.650477 1_555
Cs2 Nb2 3.730816 1_555
Cs3 Nb11 3.650477 1_555
Cs3 Nb3 3.730816 1_565
Cs4 Nb12 3.650477 1_554
Cs4 Nb4 3.730816 1_555
Cs5 Nb13 3.650477 1_556
Cs5 Nb5 3.730816 1_565
Cs6 Nb14 3.650477 1_555
Cs6 Nb6 3.730816 1_555
Cs7 Nb15 3.650477 1_555
Cs7 Nb7 3.730816 1_545
As0 Nb0 2.505312 1_555
As0 Cs32 3.634773 1_555
As0 Cs31 3.661926 1_555
As0 Cs16 3.818568 1_555
As0 Cs66 3.819891 1_555
As0 Cs47 3.826115 1_555
As0 Cs50 3.975710 1_555
As0 Cs0 4.103222 1_555
As1 Nb1 2.505312 1_555
As1 Cs33 3.634773 1_565
As1 Cs30 3.661926 1_555
As1 Cs17 3.818568 1_555
As1 Cs67 3.819891 1_655
As1 Cs46 3.826115 1_555
As1 Cs51 3.975710 1_555
As1 Cs1 4.103222 1_565
As2 Nb2 2.505312 1_555
As2 Cs34 3.634773 1_555
As2 Cs29 3.661926 1_555
As2 Cs18 3.818568 1_555
As2 Cs64 3.819891 1_455
As2 Cs45 3.826115 1_555
As2 Cs48 3.975710 1_555
As2 Cs2 4.103222 1_555
As3 Nb3 2.505312 1_555
As3 Cs35 3.634773 1_545
As3 Cs28 3.661926 1_555
As3 Cs19 3.818568 1_555
As3 Cs65 3.819891 1_555
As3 Cs44 3.826115 1_555
As3 Cs49 3.975710 1_555
As3 Cs3 4.103222 1_545
As4 Nb4 2.505312 1_555
As4 Cs36 3.634773 1_555
As4 Cs27 3.661926 1_555
As4 Cs20 3.818568 1_555
As4 Cs70 3.819891 1_555
As4 Cs43 3.826115 1_555
As4 Cs54 3.975710 1_555
As4 Cs4 4.103222 1_555
As5 Nb5 2.505312 1_555
As5 Cs37 3.634773 1_545
As5 Cs26 3.661926 1_555
As5 Cs21 3.818568 1_555
As5 Cs71 3.819891 1_455
As5 Cs42 3.826115 1_555
As5 Cs55 3.975710 1_555
As5 Cs5 4.103222 1_545
As6 Nb6 2.505312 1_555
As6 Cs38 3.634773 1_555
As6 Cs25 3.661926 1_555
As6 Cs22 3.818568 1_555
As6 Cs68 3.819891 1_655
As6 Cs41 3.826115 1_555
As6 Cs52 3.975710 1_555
As6 Cs6 4.103222 1_555
As7 Nb7 2.505312 1_555
As7 Cs39 3.634773 1_565
As7 Cs24 3.661926 1_555
As7 Cs23 3.818568 1_555
As7 Cs69 3.819891 1_555
As7 Cs40 3.826115 1_555
As7 Cs53 3.975710 1_555
As7 Cs7 4.103222 1_565
As8 Nb0 2.544295 1_555
As8 Cs0 3.698021 1_555
As8 Cs34 3.711107 1_655
As8 Cs15 3.772293 1_555
As8 Cs64 3.774713 1_555
As8 Cs62 3.821961 1_555
As8 Cs16 4.052786 1_555
As8 Cs26 4.087249 1_655
As9 Nb1 2.544295 1_555
As9 Cs1 3.698021 1_565
As9 Cs35 3.711107 1_555
As9 Cs14 3.772293 1_555
As9 Cs65 3.774713 1_565
As9 Cs63 3.821961 1_555
As9 Cs17 4.052786 1_555
As9 Cs27 4.087249 1_555
As10 Nb2 2.544295 1_555
As10 Cs2 3.698021 1_555
As10 Cs32 3.711107 1_555
As10 Cs13 3.772293 1_555
As10 Cs66 3.774713 1_555
As10 Cs60 3.821961 1_555
As10 Cs18 4.052786 1_555
As10 Cs24 4.087249 1_555
As11 Nb3 2.544295 1_555
As11 Cs3 3.698021 1_545
As11 Cs33 3.711107 1_455
As11 Cs12 3.772293 1_555
As11 Cs67 3.774713 1_545
As11 Cs61 3.821961 1_555
As11 Cs19 4.052786 1_555
As11 Cs25 4.087249 1_455
As12 Nb4 2.544295 1_555
As12 Cs4 3.698021 1_555
As12 Cs38 3.711107 1_455
As12 Cs11 3.772293 1_555
As12 Cs68 3.774713 1_555
As12 Cs58 3.821961 1_555
As12 Cs20 4.052786 1_555
As12 Cs30 4.087249 1_455
As13 Nb5 2.544295 1_555
As13 Cs5 3.698021 1_545
As13 Cs39 3.711107 1_555
As13 Cs10 3.772293 1_555
As13 Cs69 3.774713 1_545
As13 Cs59 3.821961 1_555
As13 Cs21 4.052786 1_555
As13 Cs31 4.087249 1_555
As14 Nb6 2.544295 1_555
As14 Cs6 3.698021 1_555
As14 Cs36 3.711107 1_555
As14 Cs9 3.772293 1_555
As14 Cs70 3.774713 1_555
As14 Cs56 3.821961 1_555
As14 Cs22 4.052786 1_555
As14 Cs28 4.087249 1_555
As15 Nb7 2.544295 1_555
As15 Cs7 3.698021 1_565
As15 Cs37 3.711107 1_655
As15 Cs8 3.772293 1_555
As15 Cs71 3.774713 1_565
As15 Cs57 3.821961 1_555
As15 Cs23 4.052786 1_555
As15 Cs29 4.087249 1_655
As16 Nb8 2.507143 1_556
As16 Cs30 3.596987 1_556
As16 Cs45 3.599008 1_655
As16 Cs8 3.647759 1_555
As16 Cs52 3.726902 1_556
As16 Cs0 3.854077 1_555
As16 Cs48 3.895365 1_655
As16 Cs17 4.191482 1_556
As17 Nb9 2.507143 1_554
As17 Cs31 3.596987 1_554
As17 Cs44 3.599008 1_555
As17 Cs9 3.647759 1_555
As17 Cs53 3.726902 1_544
As17 Cs1 3.854077 1_555
As17 Cs49 3.895365 1_555
As17 Cs16 4.191482 1_554
As18 Nb10 2.507143 1_555
As18 Cs28 3.596987 1_555
As18 Cs47 3.599008 1_555
As18 Cs10 3.647759 1_555
As18 Cs54 3.726902 1_555
As18 Cs2 3.854077 1_555
As18 Cs50 3.895365 1_555
As18 Cs19 4.191482 1_555
As19 Nb11 2.507143 1_555
As19 Cs29 3.596987 1_555
As19 Cs46 3.599008 1_455
As19 Cs11 3.647759 1_555
As19 Cs55 3.726902 1_565
As19 Cs3 3.854077 1_555
As19 Cs51 3.895365 1_455
As19 Cs18 4.191482 1_555
As20 Nb12 2.507143 1_554
As20 Cs26 3.596987 1_554
As20 Cs41 3.599008 1_455
As20 Cs12 3.647759 1_555
As20 Cs48 3.726902 1_554
As20 Cs4 3.854077 1_555
As20 Cs52 3.895365 1_455
As20 Cs21 4.191482 1_554
As21 Nb13 2.507143 1_556
As21 Cs27 3.596987 1_556
As21 Cs40 3.599008 1_555
As21 Cs13 3.647759 1_555
As21 Cs49 3.726902 1_566
As21 Cs5 3.854077 1_555
As21 Cs53 3.895365 1_555
As21 Cs20 4.191482 1_556
As22 Nb14 2.507143 1_555
As22 Cs24 3.596987 1_555
As22 Cs43 3.599008 1_555
As22 Cs14 3.647759 1_555
As22 Cs50 3.726902 1_555
As22 Cs6 3.854077 1_555
As22 Cs54 3.895365 1_555
As22 Cs23 4.191482 1_555
As23 Nb15 2.507143 1_555
As23 Cs25 3.596987 1_555
As23 Cs42 3.599008 1_655
As23 Cs15 3.647759 1_555
As23 Cs51 3.726902 1_545
As23 Cs7 3.854077 1_555
As23 Cs55 3.895365 1_655
As23 Cs22 4.191482 1_555
As24 Nb8 2.525706 1_555
As24 Cs70 3.618402 1_555
As24 Cs32 3.696214 1_554
As24 Cs56 3.865430 1_555
As24 Cs40 3.879811 1_554
As24 Cs17 3.928706 1_555
As24 Cs0 3.990710 1_554
As24 Cs8 4.063326 1_554
As24 Cs60 4.169388 1_554
As25 Nb9 2.525706 1_555
As25 Cs71 3.618402 1_555
As25 Cs33 3.696214 1_556
As25 Cs57 3.865430 1_545
As25 Cs41 3.879811 1_556
As25 Cs16 3.928706 1_555
As25 Cs1 3.990710 1_556
As25 Cs9 4.063326 1_556
As25 Cs61 4.169388 1_656
As26 Nb10 2.525706 1_555
As26 Cs68 3.618402 1_555
As26 Cs34 3.696214 1_555
As26 Cs58 3.865430 1_555
As26 Cs42 3.879811 1_555
As26 Cs19 3.928706 1_555
As26 Cs2 3.990710 1_555
As26 Cs10 4.063326 1_555
As26 Cs62 4.169388 1_455
As27 Nb11 2.525706 1_555
As27 Cs69 3.618402 1_555
As27 Cs35 3.696214 1_555
As27 Cs59 3.865430 1_565
As27 Cs43 3.879811 1_555
As27 Cs18 3.928706 1_555
As27 Cs3 3.990710 1_555
As27 Cs11 4.063326 1_555
As27 Cs63 4.169388 1_555
As28 Nb12 2.525706 1_555
As28 Cs66 3.618402 1_555
As28 Cs36 3.696214 1_556
As28 Cs60 3.865430 1_555
As28 Cs44 3.879811 1_556
As28 Cs21 3.928706 1_555
As28 Cs4 3.990710 1_556
As28 Cs12 4.063326 1_556
As28 Cs56 4.169388 1_556
As29 Nb13 2.525706 1_555
As29 Cs67 3.618402 1_555
As29 Cs37 3.696214 1_554
As29 Cs61 3.865430 1_565
As29 Cs45 3.879811 1_554
As29 Cs20 3.928706 1_555
As29 Cs5 3.990710 1_554
As29 Cs13 4.063326 1_554
As29 Cs57 4.169388 1_454
As30 Nb14 2.525706 1_555
As30 Cs64 3.618402 1_555
As30 Cs38 3.696214 1_555
As30 Cs62 3.865430 1_555
As30 Cs46 3.879811 1_555
As30 Cs23 3.928706 1_555
As30 Cs6 3.990710 1_555
As30 Cs14 4.063326 1_555
As30 Cs58 4.169388 1_655
As31 Nb15 2.525706 1_555
As31 Cs65 3.618402 1_555
As31 Cs39 3.696214 1_555
As31 Cs63 3.865430 1_545
As31 Cs47 3.879811 1_555
As31 Cs22 3.928706 1_555
As31 Cs7 3.990710 1_555
As31 Cs15 4.063326 1_555
As31 Cs59 4.169388 1_555
As32 Nb14 2.569609 1_555
As32 Nb0 2.601938 1_555
As32 Cs64 3.511397 1_555
As32 Cs32 3.570286 1_555
As32 Cs24 3.751712 1_555
As32 Cs0 3.754084 1_555
As32 Cs23 3.907564 1_555
As32 Cs50 4.064768 1_555
As32 Cs8 4.170714 1_555
As33 Nb15 2.569609 1_555
As33 Nb1 2.601938 1_545
As33 Cs65 3.511397 1_555
As33 Cs33 3.570286 1_555
As33 Cs25 3.751712 1_555
As33 Cs1 3.754084 1_555
As33 Cs22 3.907564 1_555
As33 Cs51 4.064768 1_545
As33 Cs9 4.170714 1_555
As34 Nb12 2.569609 1_555
As34 Nb2 2.601938 1_555
As34 Cs66 3.511397 1_555
As34 Cs34 3.570286 1_555
As34 Cs26 3.751712 1_555
As34 Cs2 3.754084 1_555
As34 Cs21 3.907564 1_555
As34 Cs48 4.064768 1_555
As34 Cs10 4.170714 1_555
As35 Nb13 2.569609 1_555
As35 Nb3 2.601938 1_565
As35 Cs67 3.511397 1_555
As35 Cs35 3.570286 1_555
As35 Cs27 3.751712 1_555
As35 Cs3 3.754084 1_555
As35 Cs20 3.907564 1_555
As35 Cs49 4.064768 1_565
As35 Cs11 4.170714 1_555
As36 Nb10 2.569609 1_555
As36 Nb4 2.601938 1_555
As36 Cs68 3.511397 1_555
As36 Cs36 3.570286 1_555
As36 Cs28 3.751712 1_555
As36 Cs4 3.754084 1_555
As36 Cs19 3.907564 1_555
As36 Cs54 4.064768 1_555
As36 Cs12 4.170714 1_555
As37 Nb11 2.569609 1_555
As37 Nb5 2.601938 1_565
As37 Cs69 3.511397 1_555
As37 Cs37 3.570286 1_555
As37 Cs29 3.751712 1_555
As37 Cs5 3.754084 1_555
As37 Cs18 3.907564 1_555
As37 Cs55 4.064768 1_565
As37 Cs13 4.170714 1_555
As38 Nb8 2.569609 1_555
As38 Nb6 2.601938 1_555
As38 Cs70 3.511397 1_555
As38 Cs38 3.570286 1_555
As38 Cs30 3.751712 1_555
As38 Cs6 3.754084 1_555
As38 Cs17 3.907564 1_555
As38 Cs52 4.064768 1_555
As38 Cs14 4.170714 1_555
As39 Nb9 2.569609 1_555
As39 Nb7 2.601938 1_545
As39 Cs71 3.511397 1_555
As39 Cs39 3.570286 1_555
As39 Cs31 3.751712 1_555
As39 Cs7 3.754084 1_555
As39 Cs16 3.907564 1_555
As39 Cs53 4.064768 1_545
As39 Cs15 4.170714 1_555
As40 Nb6 2.562951 1_555
As40 Nb8 2.613866 1_555
As40 Cs56 3.561639 1_555
As40 Cs0 3.563419 1_554
As40 Cs52 3.706535 1_555
As40 Cs41 3.721028 1_555
As40 Cs9 3.998894 1_555
As40 Cs16 4.100753 1_554
As41 Nb7 2.562951 1_555
As41 Nb9 2.613866 1_565
As41 Cs57 3.561639 1_555
As41 Cs1 3.563419 1_566
As41 Cs53 3.706535 1_555
As41 Cs40 3.721028 1_555
As41 Cs8 3.998894 1_555
As41 Cs17 4.100753 1_556
As42 Nb4 2.562951 1_555
As42 Nb10 2.613866 1_555
As42 Cs58 3.561639 1_555
As42 Cs2 3.563419 1_555
As42 Cs54 3.706535 1_555
As42 Cs43 3.721028 1_555
As42 Cs11 3.998894 1_555
As42 Cs18 4.100753 1_555
As43 Nb5 2.562951 1_555
As43 Nb11 2.613866 1_545
As43 Cs59 3.561639 1_555
As43 Cs3 3.563419 1_545
As43 Cs55 3.706535 1_555
As43 Cs42 3.721028 1_555
As43 Cs10 3.998894 1_555
As43 Cs19 4.100753 1_555
As44 Nb2 2.562951 1_555
As44 Nb12 2.613866 1_555
As44 Cs60 3.561639 1_555
As44 Cs4 3.563419 1_556
As44 Cs48 3.706535 1_555
As44 Cs45 3.721028 1_555
As44 Cs13 3.998894 1_555
As44 Cs20 4.100753 1_556
As45 Nb3 2.562951 1_555
As45 Nb13 2.613866 1_545
As45 Cs61 3.561639 1_555
As45 Cs5 3.563419 1_544
As45 Cs49 3.706535 1_555
As45 Cs44 3.721028 1_555
As45 Cs12 3.998894 1_555
As45 Cs21 4.100753 1_554
As46 Nb0 2.562951 1_555
As46 Nb14 2.613866 1_555
As46 Cs62 3.561639 1_555
As46 Cs6 3.563419 1_555
As46 Cs50 3.706535 1_555
As46 Cs47 3.721028 1_555
As46 Cs15 3.998894 1_555
As46 Cs22 4.100753 1_555
As47 Nb1 2.562951 1_555
As47 Nb15 2.613866 1_565
As47 Cs63 3.561639 1_555
As47 Cs7 3.563419 1_565
As47 Cs51 3.706535 1_555
As47 Cs46 3.721028 1_555
As47 Cs14 3.998894 1_555
As47 Cs23 4.100753 1_555
