# generated using pymatgen
data_Li2CuSbCl6
_symmetry_space_group_name_H-M   'P 1'
_cell_length_a   7.22333194
_cell_length_b   7.22333194
_cell_length_c   7.22333194
_cell_angle_alpha   60.00000000
_cell_angle_beta   60.00000000
_cell_angle_gamma   60.00000000
_symmetry_Int_Tables_number   1
_chemical_formula_structural   Li2CuSbCl6
_chemical_formula_sum   'Li2 Cu1 Sb1 Cl6'
_cell_volume   266.50031168
_cell_formula_units_Z   1
loop_
 _symmetry_equiv_pos_site_id
 _symmetry_equiv_pos_as_xyz
  1  'x, y, z'
loop_
 _atom_site_type_symbol
 _atom_site_label
 _atom_site_symmetry_multiplicity
 _atom_site_fract_x
 _atom_site_fract_y
 _atom_site_fract_z
 _atom_site_occupancy
  Li  Li0  1  0.75000000  0.75000000  0.75000000  1
  Li  Li1  1  0.25000000  0.25000000  0.25000000  1
  Cu  Cu0  1  0.50000000  0.50000000  0.50000000  1
  Sb  Sb0  1  0.00000000  0.00000000  0.00000000  1
  Cl  Cl0  1  0.74071200  0.25928800  0.25928800  1
  Cl  Cl1  1  0.25928800  0.25928800  0.74071200  1
  Cl  Cl2  1  0.25928800  0.74071200  0.74071200  1
  Cl  Cl3  1  0.25928800  0.74071200  0.25928800  1
  Cl  Cl4  1  0.74071200  0.25928800  0.74071200  1
  Cl  Cl5  1  0.74071200  0.74071200  0.25928800  1
loop_
_geom_bond_atom_site_label_1
_geom_bond_atom_site_label_2
_geom_bond_distance
_geom_bond_site_symmetry_2
Cl0 Cu0 2.458953 1_555
Cl0 Sb0 2.648714 1_655
Cl1 Cu0 2.458953 1_555
Cl1 Sb0 2.648714 1_556
Cl2 Cu0 2.458953 1_555
Cl2 Sb0 2.648714 1_566
Cl3 Cu0 2.458953 1_555
Cl3 Sb0 2.648714 1_565
Cl4 Cu0 2.458953 1_555
Cl4 Sb0 2.648714 1_656
Cl5 Cu0 2.458953 1_555
Cl5 Sb0 2.648714 1_665
