# generated using pymatgen
data_MgSc
_symmetry_space_group_name_H-M   'P 1'
_cell_length_a   6.72559800
_cell_length_b   10.39736000
_cell_length_c   10.69782800
_cell_angle_alpha   90.00000000
_cell_angle_beta   90.00000000
_cell_angle_gamma   90.00000000
_symmetry_Int_Tables_number   1
_chemical_formula_structural   MgSc
_chemical_formula_sum   'Mg16 Sc16'
_cell_volume   748.08267612
_cell_formula_units_Z   16
loop_
 _symmetry_equiv_pos_site_id
 _symmetry_equiv_pos_as_xyz
  1  'x, y, z'
loop_
 _atom_site_type_symbol
 _atom_site_label
 _atom_site_symmetry_multiplicity
 _atom_site_fract_x
 _atom_site_fract_y
 _atom_site_fract_z
 _atom_site_occupancy
  Mg  Mg0_0  1  0.25000000  0.37500000  0.09729400  1
  Mg  Mg0_1  1  0.25000000  0.37500000  0.59729400  1
  Mg  Mg0_2  1  0.25000000  0.87500000  0.09729400  1
  Mg  Mg0_3  1  0.25000000  0.87500000  0.59729400  1
  Mg  Mg0_4  1  0.75000000  0.37500000  0.09729400  1
  Mg  Mg0_5  1  0.75000000  0.37500000  0.59729400  1
  Mg  Mg0_6  1  0.75000000  0.87500000  0.09729400  1
  Mg  Mg0_7  1  0.75000000  0.87500000  0.59729400  1
  Mg  Mg1_0  1  0.25000000  0.12500000  0.40270600  1
  Mg  Mg1_1  1  0.25000000  0.12500000  0.90270600  1
  Mg  Mg1_2  1  0.25000000  0.62500000  0.40270600  1
  Mg  Mg1_3  1  0.25000000  0.62500000  0.90270600  1
  Mg  Mg1_4  1  0.75000000  0.12500000  0.40270600  1
  Mg  Mg1_5  1  0.75000000  0.12500000  0.90270600  1
  Mg  Mg1_6  1  0.75000000  0.62500000  0.40270600  1
  Mg  Mg1_7  1  0.75000000  0.62500000  0.90270600  1
  Sc  Sc0_0  1  0.00000000  0.37500000  0.34797650  1
  Sc  Sc0_1  1  0.00000000  0.37500000  0.84797650  1
  Sc  Sc0_2  1  0.00000000  0.87500000  0.34797650  1
  Sc  Sc0_3  1  0.00000000  0.87500000  0.84797650  1
  Sc  Sc0_4  1  0.50000000  0.37500000  0.34797650  1
  Sc  Sc0_5  1  0.50000000  0.37500000  0.84797650  1
  Sc  Sc0_6  1  0.50000000  0.87500000  0.34797650  1
  Sc  Sc0_7  1  0.50000000  0.87500000  0.84797650  1
  Sc  Sc1_0  1  0.00000000  0.12500000  0.15202350  1
  Sc  Sc1_1  1  0.00000000  0.12500000  0.65202350  1
  Sc  Sc1_2  1  0.00000000  0.62500000  0.15202350  1
  Sc  Sc1_3  1  0.00000000  0.62500000  0.65202350  1
  Sc  Sc1_4  1  0.50000000  0.12500000  0.15202350  1
  Sc  Sc1_5  1  0.50000000  0.12500000  0.65202350  1
  Sc  Sc1_6  1  0.50000000  0.62500000  0.15202350  1
  Sc  Sc1_7  1  0.50000000  0.62500000  0.65202350  1
loop_
_geom_bond_atom_site_label_1
_geom_bond_atom_site_label_2
_geom_bond_distance
_geom_bond_site_symmetry_2
Mg0_0 Sc1_6 3.150630 1_555
Mg0_0 Sc1_2 3.150630 1_555
Mg0_0 Sc1_0 3.150630 1_555
Mg0_0 Sc1_4 3.150630 1_555
Mg0_0 Sc0_1 3.152907 1_554
Mg0_0 Sc0_5 3.152907 1_554
Mg0_0 Sc0_0 3.165270 1_555
Mg0_0 Sc0_4 3.165270 1_555
Mg0_0 Mg1_3 3.330152 1_554
Mg0_0 Mg1_1 3.330152 1_554
Mg0_0 Mg0_4 3.362799 1_455
Mg0_0 Mg0_4 3.362799 1_555
Mg0_1 Sc1_3 3.150630 1_555
Mg0_1 Sc1_7 3.150630 1_555
Mg0_1 Sc1_1 3.150630 1_555
Mg0_1 Sc1_5 3.150630 1_555
Mg0_1 Sc0_4 3.152907 1_555
Mg0_1 Sc0_0 3.152907 1_555
Mg0_1 Sc0_1 3.165270 1_555
Mg0_1 Sc0_5 3.165270 1_555
Mg0_1 Mg1_2 3.330152 1_555
Mg0_1 Mg1_0 3.330152 1_555
Mg0_1 Mg0_5 3.362799 1_455
Mg0_1 Mg0_5 3.362799 1_555
Mg0_2 Sc1_0 3.150630 1_565
Mg0_2 Sc1_6 3.150630 1_555
Mg0_2 Sc1_4 3.150630 1_565
Mg0_2 Sc1_2 3.150630 1_555
Mg0_2 Sc0_3 3.152907 1_554
Mg0_2 Sc0_7 3.152907 1_554
Mg0_2 Sc0_2 3.165270 1_555
Mg0_2 Sc0_6 3.165270 1_555
Mg0_2 Mg1_1 3.330152 1_564
Mg0_2 Mg1_3 3.330152 1_554
Mg0_2 Mg0_6 3.362799 1_455
Mg0_2 Mg0_6 3.362799 1_555
Mg0_3 Sc1_7 3.150630 1_555
Mg0_3 Sc1_1 3.150630 1_565
Mg0_3 Sc1_5 3.150630 1_565
Mg0_3 Sc1_3 3.150630 1_555
Mg0_3 Sc0_2 3.152907 1_555
Mg0_3 Sc0_6 3.152907 1_555
Mg0_3 Sc0_3 3.165270 1_555
Mg0_3 Sc0_7 3.165270 1_555
Mg0_3 Mg1_2 3.330152 1_555
Mg0_3 Mg1_0 3.330152 1_565
Mg0_3 Mg0_7 3.362799 1_455
Mg0_3 Mg0_7 3.362799 1_555
Mg0_4 Sc1_2 3.150630 1_655
Mg0_4 Sc1_0 3.150630 1_655
Mg0_4 Sc1_6 3.150630 1_555
Mg0_4 Sc1_4 3.150630 1_555
Mg0_4 Sc0_1 3.152907 1_654
Mg0_4 Sc0_5 3.152907 1_554
Mg0_4 Sc0_0 3.165270 1_655
Mg0_4 Sc0_4 3.165270 1_555
Mg0_4 Mg1_7 3.330152 1_554
Mg0_4 Mg1_5 3.330152 1_554
Mg0_5 Sc1_3 3.150630 1_655
Mg0_5 Sc1_7 3.150630 1_555
Mg0_5 Sc1_1 3.150630 1_655
Mg0_5 Sc1_5 3.150630 1_555
Mg0_5 Sc0_0 3.152907 1_655
Mg0_5 Sc0_4 3.152907 1_555
Mg0_5 Sc0_1 3.165270 1_655
Mg0_5 Sc0_5 3.165270 1_555
Mg0_5 Mg1_6 3.330152 1_555
Mg0_5 Mg1_4 3.330152 1_555
Mg0_6 Sc1_2 3.150630 1_655
Mg0_6 Sc1_0 3.150630 1_665
Mg0_6 Sc1_4 3.150630 1_565
Mg0_6 Sc1_6 3.150630 1_555
Mg0_6 Sc0_3 3.152907 1_654
Mg0_6 Sc0_7 3.152907 1_554
Mg0_6 Sc0_2 3.165270 1_655
Mg0_6 Sc0_6 3.165270 1_555
Mg0_6 Mg1_5 3.330152 1_564
Mg0_6 Mg1_7 3.330152 1_554
Mg0_7 Sc1_3 3.150630 1_655
Mg0_7 Sc1_1 3.150630 1_665
Mg0_7 Sc1_5 3.150630 1_565
Mg0_7 Sc1_7 3.150630 1_555
Mg0_7 Sc0_2 3.152907 1_655
Mg0_7 Sc0_6 3.152907 1_555
Mg0_7 Sc0_3 3.165270 1_655
Mg0_7 Sc0_7 3.165270 1_555
Mg0_7 Mg1_4 3.330152 1_565
Mg0_7 Mg1_6 3.330152 1_555
Mg1_0 Sc0_2 3.150630 1_545
Mg1_0 Sc0_6 3.150630 1_545
Mg1_0 Sc0_4 3.150630 1_555
Mg1_0 Sc0_0 3.150630 1_555
Mg1_0 Sc1_5 3.152907 1_555
Mg1_0 Sc1_1 3.152907 1_555
Mg1_0 Sc1_0 3.165270 1_555
Mg1_0 Sc1_4 3.165270 1_555
Mg1_0 Mg1_4 3.362799 1_455
Mg1_0 Mg1_4 3.362799 1_555
Mg1_1 Sc0_3 3.150630 1_545
Mg1_1 Sc0_7 3.150630 1_545
Mg1_1 Sc0_1 3.150630 1_555
Mg1_1 Sc0_5 3.150630 1_555
Mg1_1 Sc1_4 3.152907 1_556
Mg1_1 Sc1_0 3.152907 1_556
Mg1_1 Sc1_1 3.165270 1_555
Mg1_1 Sc1_5 3.165270 1_555
Mg1_1 Mg1_5 3.362799 1_455
Mg1_1 Mg1_5 3.362799 1_555
Mg1_2 Sc0_4 3.150630 1_555
Mg1_2 Sc0_0 3.150630 1_555
Mg1_2 Sc0_6 3.150630 1_555
Mg1_2 Sc0_2 3.150630 1_555
Mg1_2 Sc1_7 3.152907 1_555
Mg1_2 Sc1_3 3.152907 1_555
Mg1_2 Sc1_2 3.165270 1_555
Mg1_2 Sc1_6 3.165270 1_555
Mg1_2 Mg1_6 3.362799 1_455
Mg1_2 Mg1_6 3.362799 1_555
Mg1_3 Sc0_1 3.150630 1_555
Mg1_3 Sc0_5 3.150630 1_555
Mg1_3 Sc0_7 3.150630 1_555
Mg1_3 Sc0_3 3.150630 1_555
Mg1_3 Sc1_2 3.152907 1_556
Mg1_3 Sc1_6 3.152907 1_556
Mg1_3 Sc1_3 3.165270 1_555
Mg1_3 Sc1_7 3.165270 1_555
Mg1_3 Mg1_7 3.362799 1_455
Mg1_3 Mg1_7 3.362799 1_555
Mg1_4 Sc0_2 3.150630 1_645
Mg1_4 Sc0_0 3.150630 1_655
Mg1_4 Sc0_6 3.150630 1_545
Mg1_4 Sc0_4 3.150630 1_555
Mg1_4 Sc1_1 3.152907 1_655
Mg1_4 Sc1_5 3.152907 1_555
Mg1_4 Sc1_0 3.165270 1_655
Mg1_4 Sc1_4 3.165270 1_555
Mg1_5 Sc0_3 3.150630 1_645
Mg1_5 Sc0_1 3.150630 1_655
Mg1_5 Sc0_7 3.150630 1_545
Mg1_5 Sc0_5 3.150630 1_555
Mg1_5 Sc1_0 3.152907 1_656
Mg1_5 Sc1_4 3.152907 1_556
Mg1_5 Sc1_1 3.165270 1_655
Mg1_5 Sc1_5 3.165270 1_555
Mg1_6 Sc0_0 3.150630 1_655
Mg1_6 Sc0_2 3.150630 1_655
Mg1_6 Sc0_4 3.150630 1_555
Mg1_6 Sc0_6 3.150630 1_555
Mg1_6 Sc1_3 3.152907 1_655
Mg1_6 Sc1_7 3.152907 1_555
Mg1_6 Sc1_2 3.165270 1_655
Mg1_6 Sc1_6 3.165270 1_555
Mg1_7 Sc0_1 3.150630 1_655
Mg1_7 Sc0_3 3.150630 1_655
Mg1_7 Sc0_5 3.150630 1_555
Mg1_7 Sc0_7 3.150630 1_555
Mg1_7 Sc1_2 3.152907 1_656
Mg1_7 Sc1_6 3.152907 1_556
Mg1_7 Sc1_3 3.165270 1_655
Mg1_7 Sc1_7 3.165270 1_555
Sc0_0 Sc1_2 3.339300 1_555
Sc0_0 Sc1_0 3.339300 1_555
Sc0_0 Sc0_4 3.362799 1_555
Sc0_0 Sc0_4 3.362799 1_455
Sc0_1 Sc1_3 3.339300 1_555
Sc0_1 Sc1_1 3.339300 1_555
Sc0_1 Sc0_5 3.362799 1_455
Sc0_1 Sc0_5 3.362799 1_555
Sc0_2 Sc1_2 3.339300 1_555
Sc0_2 Sc1_0 3.339300 1_565
Sc0_2 Sc0_6 3.362799 1_555
Sc0_2 Sc0_6 3.362799 1_455
Sc0_3 Sc1_1 3.339300 1_565
Sc0_3 Sc1_3 3.339300 1_555
Sc0_3 Sc0_7 3.362799 1_555
Sc0_3 Sc0_7 3.362799 1_455
Sc0_4 Sc1_6 3.339300 1_555
Sc0_4 Sc1_4 3.339300 1_555
Sc0_5 Sc1_7 3.339300 1_555
Sc0_5 Sc1_5 3.339300 1_555
Sc0_6 Sc1_6 3.339300 1_555
Sc0_6 Sc1_4 3.339300 1_565
Sc0_7 Sc1_5 3.339300 1_565
Sc0_7 Sc1_7 3.339300 1_555
Sc1_0 Sc1_4 3.362799 1_455
Sc1_0 Sc1_4 3.362799 1_555
Sc1_1 Sc1_5 3.362799 1_555
Sc1_1 Sc1_5 3.362799 1_455
Sc1_2 Sc1_6 3.362799 1_555
Sc1_2 Sc1_6 3.362799 1_455
Sc1_3 Sc1_7 3.362799 1_455
Sc1_3 Sc1_7 3.362799 1_555
