# generated using pymatgen
data_CaBO3
_symmetry_space_group_name_H-M   'P 1'
_cell_length_a   5.47948400
_cell_length_b   3.67337800
_cell_length_c   6.63469626
_cell_angle_alpha   86.49954592
_cell_angle_beta   90.00000000
_cell_angle_gamma   90.00000000
_symmetry_Int_Tables_number   1
_chemical_formula_structural   CaBO3
_chemical_formula_sum   'Ca2 B2 O6'
_cell_volume   133.29544697
_cell_formula_units_Z   2
loop_
 _symmetry_equiv_pos_site_id
 _symmetry_equiv_pos_as_xyz
  1  'x, y, z'
loop_
 _atom_site_type_symbol
 _atom_site_label
 _atom_site_symmetry_multiplicity
 _atom_site_fract_x
 _atom_site_fract_y
 _atom_site_fract_z
 _atom_site_occupancy
  Ca  Ca0  1  0.25000000  0.25953300  0.82531000  1
  Ca  Ca1  1  0.75000000  0.74046700  0.17469000  1
  B  B0  1  0.25000000  0.26662600  0.27701400  1
  B  B1  1  0.75000000  0.73337400  0.72298600  1
  O  O0  1  0.25000000  0.35308000  0.47335100  1
  O  O1  1  0.75000000  0.64692000  0.52664900  1
  O  O2  1  0.46844800  0.23495900  0.17773500  1
  O  O3  1  0.96844800  0.76504100  0.82226500  1
  O  O4  1  0.53155200  0.76504100  0.82226500  1
  O  O5  1  0.03155200  0.23495900  0.17773500  1
loop_
_geom_bond_atom_site_label_1
_geom_bond_atom_site_label_2
_geom_bond_distance
_geom_bond_site_symmetry_2
Ca0 O0 2.339440 1_555
Ca0 O4 2.384221 1_545
Ca0 O3 2.384221 1_445
Ca0 O3 2.413316 1_455
Ca0 O4 2.413316 1_555
Ca0 O5 2.623447 1_556
Ca0 O2 2.623447 1_556
Ca1 O1 2.339440 1_555
Ca1 O5 2.384221 1_665
Ca1 O2 2.384221 1_565
Ca1 O5 2.413316 1_655
Ca1 O2 2.413316 1_555
Ca1 O3 2.623447 1_554
Ca1 O4 2.623447 1_554
B0 O0 1.359498 1_555
B0 O2 1.374599 1_555
B0 O5 1.374599 1_555
B1 O1 1.359498 1_555
B1 O3 1.374599 1_555
B1 O4 1.374599 1_555
