# generated using pymatgen
data_HfCrAgS4
_symmetry_space_group_name_H-M   'P 1'
_cell_length_a   11.29880300
_cell_length_b   3.59933900
_cell_length_c   13.14896000
_cell_angle_alpha   90.00000000
_cell_angle_beta   90.00000000
_cell_angle_gamma   90.00000000
_symmetry_Int_Tables_number   1
_chemical_formula_structural   HfCrAgS4
_chemical_formula_sum   'Hf4 Cr4 Ag4 S16'
_cell_volume   534.74482818
_cell_formula_units_Z   4
loop_
 _symmetry_equiv_pos_site_id
 _symmetry_equiv_pos_as_xyz
  1  'x, y, z'
loop_
 _atom_site_type_symbol
 _atom_site_label
 _atom_site_symmetry_multiplicity
 _atom_site_fract_x
 _atom_site_fract_y
 _atom_site_fract_z
 _atom_site_occupancy
  Hf  Hf0  1  0.05796500  0.25000000  0.11692400  1
  Hf  Hf1  1  0.55796500  0.25000000  0.38307600  1
  Hf  Hf2  1  0.08561600  0.25000000  0.59567000  1
  Hf  Hf3  1  0.58561600  0.25000000  0.90433000  1
  Cr  Cr0  1  0.94385700  0.75000000  0.88984500  1
  Cr  Cr1  1  0.44385700  0.75000000  0.61015500  1
  Cr  Cr2  1  0.91780400  0.75000000  0.40514500  1
  Cr  Cr3  1  0.41780400  0.75000000  0.09485500  1
  Ag  Ag0  1  0.24530700  0.25000000  0.33150000  1
  Ag  Ag1  1  0.75855300  0.75000000  0.66436200  1
  Ag  Ag2  1  0.25855300  0.75000000  0.83563800  1
  Ag  Ag3  1  0.74530700  0.25000000  0.16850000  1
  S  S0  1  0.02343300  0.75000000  0.71669900  1
  S  S1  1  0.96639500  0.25000000  0.29073300  1
  S  S2  1  0.46639500  0.25000000  0.20926700  1
  S  S3  1  0.52343300  0.75000000  0.78330100  1
  S  S4  1  0.08332700  0.25000000  0.92434500  1
  S  S5  1  0.90818900  0.75000000  0.06871800  1
  S  S6  1  0.40818900  0.75000000  0.43128200  1
  S  S7  1  0.58332700  0.25000000  0.57565500  1
  S  S8  1  0.11878500  0.75000000  0.46193900  1
  S  S9  1  0.87607400  0.25000000  0.52159400  1
  S  S10  1  0.37607400  0.25000000  0.97840600  1
  S  S11  1  0.61878500  0.75000000  0.03806100  1
  S  S12  1  0.21132000  0.75000000  0.15949700  1
  S  S13  1  0.80337600  0.25000000  0.84784500  1
  S  S14  1  0.30337600  0.25000000  0.65215500  1
  S  S15  1  0.71132000  0.75000000  0.34050300  1
loop_
_geom_bond_atom_site_label_1
_geom_bond_atom_site_label_2
_geom_bond_distance
_geom_bond_site_symmetry_2
Hf0 S1 2.508695 1_455
Hf0 S4 2.548376 1_554
Hf0 S5 2.550379 1_455
Hf0 S5 2.550379 1_445
Hf0 S12 2.560180 1_555
Hf0 S12 2.560180 1_545
Hf1 S2 2.508695 1_555
Hf1 S7 2.548376 1_555
Hf1 S6 2.550379 1_545
Hf1 S6 2.550379 1_555
Hf1 S15 2.560180 1_545
Hf1 S15 2.560180 1_555
Hf2 S0 2.503002 1_555
Hf2 S0 2.503002 1_545
Hf2 S8 2.543878 1_555
Hf2 S8 2.543878 1_545
Hf2 S9 2.560103 1_455
Hf2 S14 2.570084 1_555
Hf3 S3 2.503002 1_555
Hf3 S3 2.503002 1_545
Hf3 S11 2.543878 1_546
Hf3 S11 2.543878 1_556
Hf3 S10 2.560103 1_555
Hf3 S13 2.570084 1_555
Cr0 S5 2.386271 1_556
Cr0 S4 2.434724 1_655
Cr0 S4 2.434724 1_665
Cr0 S0 2.447799 1_655
Cr0 S13 2.462360 1_565
Cr0 S13 2.462360 1_555
Cr1 S6 2.386271 1_555
Cr1 S7 2.434724 1_555
Cr1 S7 2.434724 1_565
Cr1 S3 2.447799 1_555
Cr1 S14 2.462360 1_565
Cr1 S14 2.462360 1_555
Cr2 S8 2.390485 1_655
Cr2 S1 2.409035 1_565
Cr2 S1 2.409035 1_555
Cr2 S9 2.409490 1_555
Cr2 S9 2.409490 1_565
Cr2 S15 2.483032 1_555
Cr3 S11 2.390485 1_555
Cr3 S2 2.409035 1_555
Cr3 S2 2.409035 1_565
Cr3 S10 2.409490 1_564
Cr3 S10 2.409490 1_554
Cr3 S12 2.483032 1_555
Ag0 S8 2.867771 1_545
Ag0 S8 2.867771 1_555
Ag0 S6 2.889152 1_555
Ag0 S6 2.889152 1_545
Ag0 S12 2.915713 1_555
Ag0 S12 2.915713 1_545
Ag0 S2 2.970415 1_555
Ag1 S7 2.918749 1_565
Ag1 S7 2.918749 1_555
Ag1 S9 2.919941 1_555
Ag1 S9 2.919941 1_565
Ag1 S13 3.052210 1_555
Ag1 S13 3.052210 1_565
Ag1 S0 3.070928 1_655
Ag1 S3 3.082734 1_555
Ag2 S4 2.918749 1_555
Ag2 S4 2.918749 1_565
Ag2 S10 2.919941 1_555
Ag2 S10 2.919941 1_565
Ag2 S14 3.052210 1_565
Ag2 S14 3.052210 1_555
Ag2 S3 3.070928 1_555
Ag2 S0 3.082734 1_555
Ag3 S11 2.867771 1_545
Ag3 S11 2.867771 1_555
Ag3 S5 2.889152 1_545
Ag3 S5 2.889152 1_555
Ag3 S15 2.915713 1_555
Ag3 S15 2.915713 1_545
Ag3 S1 2.970415 1_555
