# generated using pymatgen
data_Li9Mn2Co5O16
_symmetry_space_group_name_H-M   'P 1'
_cell_length_a   10.66570666
_cell_length_b   10.66570666
_cell_length_c   9.79257609
_cell_angle_alpha   72.62232100
_cell_angle_beta   72.62232100
_cell_angle_gamma   15.77609158
_symmetry_Int_Tables_number   1
_chemical_formula_structural   Li9Mn2Co5O16
_chemical_formula_sum   'Li9 Mn2 Co5 O16'
_cell_volume   288.77098028
_cell_formula_units_Z   1
loop_
 _symmetry_equiv_pos_site_id
 _symmetry_equiv_pos_as_xyz
  1  'x, y, z'
loop_
 _atom_site_type_symbol
 _atom_site_label
 _atom_site_symmetry_multiplicity
 _atom_site_fract_x
 _atom_site_fract_y
 _atom_site_fract_z
 _atom_site_occupancy
  Li  Li0  1  0.56102500  0.56102500  0.69407500  1
  Li  Li1  1  0.43897500  0.43897500  0.30592500  1
  Li  Li2  1  0.31397300  0.31397300  0.93745100  1
  Li  Li3  1  0.94109300  0.94109300  0.81444600  1
  Li  Li4  1  0.81303500  0.81303500  0.43975700  1
  Li  Li5  1  0.68602700  0.68602700  0.06254900  1
  Li  Li6  1  0.18696500  0.18696500  0.56024300  1
  Li  Li7  1  0.05890700  0.05890700  0.18555400  1
  Li  Li8  1  0.50000000  0.50000000  0.00000000  1
  Mn  Mn0  1  0.12025600  0.12025600  0.87680600  1
  Mn  Mn1  1  0.87974400  0.87974400  0.12319400  1
  Co  Co0  1  0.00000000  0.00000000  0.50000000  1
  Co  Co1  1  0.74953800  0.74953800  0.75125600  1
  Co  Co2  1  0.62514200  0.62514200  0.37328500  1
  Co  Co3  1  0.37485800  0.37485800  0.62671500  1
  Co  Co4  1  0.25046200  0.25046200  0.24874400  1
  O  O0  1  0.65433600  0.65433600  0.73579200  1
  O  O1  1  0.53038900  0.53038900  0.35334700  1
  O  O2  1  0.40212500  0.40212500  0.98601400  1
  O  O3  1  0.04016600  0.04016600  0.84387700  1
  O  O4  1  0.90485500  0.90485500  0.48333100  1
  O  O5  1  0.78442400  0.78442400  0.10546200  1
  O  O6  1  0.27987800  0.27987800  0.60501400  1
  O  O7  1  0.15684600  0.15684600  0.22661200  1
  O  O8  1  0.46961100  0.46961100  0.64665300  1
  O  O9  1  0.34566400  0.34566400  0.26420800  1
  O  O10  1  0.21557600  0.21557600  0.89453800  1
  O  O11  1  0.84315400  0.84315400  0.77338800  1
  O  O12  1  0.72012200  0.72012200  0.39498600  1
  O  O13  1  0.59787500  0.59787500  0.01398600  1
  O  O14  1  0.09514500  0.09514500  0.51666900  1
  O  O15  1  0.95983400  0.95983400  0.15612300  1
loop_
_geom_bond_atom_site_label_1
_geom_bond_atom_site_label_2
_geom_bond_distance
_geom_bond_site_symmetry_2
Li0 O3 2.024556 1_655
Li0 O3 2.024556 1_565
Li0 O8 2.118351 1_555
Li0 O0 2.130703 1_555
Li0 O14 2.219251 1_565
Li0 O14 2.219251 1_655
Li1 O15 2.024556 1_545
Li1 O15 2.024556 1_455
Li1 O1 2.118351 1_555
Li1 O9 2.130703 1_555
Li1 O4 2.219251 1_545
Li1 O4 2.219251 1_455
Li2 O2 2.056612 1_555
Li2 O11 2.122850 1_455
Li2 O11 2.122850 1_545
Li2 O5 2.149365 1_456
Li2 O5 2.149365 1_546
Li2 O10 2.241890 1_555
Li3 O8 2.146721 1_655
Li3 O8 2.146721 1_565
Li3 O2 2.192937 1_565
Li3 O2 2.192937 1_655
Li3 O3 2.197519 1_665
Li3 O11 2.223930 1_555
Li4 O4 2.108403 1_555
Li4 O12 2.136696 1_555
Li4 O6 2.137410 1_655
Li4 O6 2.137410 1_565
Li4 O9 2.204168 1_655
Li4 O9 2.204168 1_565
Li5 O13 2.056612 1_555
Li5 O7 2.122850 1_655
Li5 O7 2.122850 1_565
Li5 O10 2.149365 1_654
Li5 O10 2.149365 1_564
Li5 O5 2.241890 1_555
Li6 O14 2.108403 1_555
Li6 O6 2.136696 1_555
Li6 O12 2.137410 1_545
Li6 O12 2.137410 1_455
Li6 O0 2.204168 1_545
Li6 O0 2.204168 1_455
Li7 O1 2.146721 1_455
Li7 O1 2.146721 1_545
Li7 O13 2.192937 1_545
Li7 O13 2.192937 1_455
Li7 O15 2.197519 1_445
Li7 O7 2.223930 1_555
Li8 O15 2.101837 1_545
Li8 O15 2.101837 1_455
Li8 O3 2.101837 1_654
Li8 O3 2.101837 1_564
Li8 O13 2.113392 1_555
Li8 O2 2.113392 1_554
Mn0 O3 1.815716 1_555
Mn0 O13 1.946188 1_546
Mn0 O13 1.946188 1_456
Mn0 O0 1.992054 1_545
Mn0 O0 1.992054 1_455
Mn0 O10 2.073050 1_555
Mn1 O15 1.815716 1_555
Mn1 O2 1.946188 1_654
Mn1 O2 1.946188 1_564
Mn1 O9 1.992054 1_655
Mn1 O9 1.992054 1_565
Mn1 O5 2.073050 1_555
Co0 O8 2.015232 1_545
Co0 O8 2.015232 1_455
Co0 O1 2.015232 1_455
Co0 O1 2.015232 1_545
Co0 O14 2.065464 1_555
Co0 O4 2.065464 1_445
Co1 O10 2.004742 1_655
Co1 O10 2.004742 1_565
Co1 O6 2.012645 1_655
Co1 O6 2.012645 1_565
Co1 O11 2.053837 1_555
Co1 O0 2.062299 1_555
Co2 O14 1.994763 1_655
Co2 O14 1.994763 1_565
Co2 O7 2.018423 1_655
Co2 O7 2.018423 1_565
Co2 O1 2.069352 1_555
Co2 O12 2.080852 1_555
Co3 O4 1.994763 1_545
Co3 O4 1.994763 1_455
Co3 O11 2.018423 1_455
Co3 O11 2.018423 1_545
Co3 O8 2.069352 1_555
Co3 O6 2.080852 1_555
Co4 O5 2.004742 1_455
Co4 O5 2.004742 1_545
Co4 O12 2.012645 1_455
Co4 O12 2.012645 1_545
Co4 O7 2.053837 1_555
Co4 O9 2.062299 1_555
