# generated using pymatgen
data_Mg14MnCd
_symmetry_space_group_name_H-M   'P 1'
_cell_length_a   6.30155625
_cell_length_b   6.29954243
_cell_length_c   10.20021315
_cell_angle_alpha   90.00000000
_cell_angle_beta   90.00000000
_cell_angle_gamma   119.98943440
_symmetry_Int_Tables_number   1
_chemical_formula_structural   Mg14MnCd
_chemical_formula_sum   'Mg14 Mn1 Cd1'
_cell_volume   350.70578452
_cell_formula_units_Z   1
loop_
 _symmetry_equiv_pos_site_id
 _symmetry_equiv_pos_as_xyz
  1  'x, y, z'
loop_
 _atom_site_type_symbol
 _atom_site_label
 _atom_site_symmetry_multiplicity
 _atom_site_fract_x
 _atom_site_fract_y
 _atom_site_fract_z
 _atom_site_occupancy
  Mg  Mg0  1  0.16712936  0.33356418  0.62500000  1
  Mg  Mg1  1  0.16755613  0.83377756  0.62500000  1
  Mg  Mg2  1  0.66848338  0.33234836  0.12500000  1
  Mg  Mg3  1  0.66624114  0.33281269  0.62500000  1
  Mg  Mg4  1  0.66848338  0.83613402  0.12500000  1
  Mg  Mg5  1  0.66624114  0.83342745  0.62500000  1
  Mg  Mg6  1  0.33014624  0.16885726  0.36823939  1
  Mg  Mg7  1  0.33014624  0.16885726  0.88176061  1
  Mg  Mg8  1  0.33014624  0.66128998  0.36823939  1
  Mg  Mg9  1  0.33014624  0.66128998  0.88176061  1
  Mg  Mg10  1  0.83883237  0.16941668  0.37114648  1
  Mg  Mg11  1  0.83883237  0.16941668  0.87885352  1
  Mg  Mg12  1  0.83399423  0.66699762  0.37438084  1
  Mg  Mg13  1  0.83399423  0.66699762  0.87561916  1
  Mn  Mn0  1  0.16252127  0.33126013  0.12500000  1
  Cd  Cd0  1  0.16710602  0.83355251  0.12500000  1
loop_
_geom_bond_atom_site_label_1
_geom_bond_atom_site_label_2
_geom_bond_distance
_geom_bond_site_symmetry_2
Mg0 Mg5 3.147550 1_555
Mg0 Mg3 3.147550 1_555
Mg0 Mg10 3.148867 1_455
Mg0 Mg11 3.148867 1_455
Mg0 Mg1 3.149772 1_555
Mg0 Mg1 3.149772 1_545
Mg0 Mg5 3.154011 1_445
Mg0 Mg3 3.154012 1_455
Mg0 Mg6 3.171212 1_555
Mg0 Mg7 3.171212 1_555
Mg0 Mg8 3.171218 1_555
Mg0 Mg9 3.171218 1_555
Mg1 Mg12 3.138376 1_455
Mg1 Mg13 3.138376 1_455
Mg1 Mg3 3.143594 1_565
Mg1 Mg5 3.143595 1_555
Mg1 Mg3 3.157962 1_455
Mg1 Mg5 3.157963 1_455
Mg1 Mg8 3.194150 1_555
Mg1 Mg9 3.194150 1_555
Mg1 Mg6 3.194156 1_565
Mg1 Mg7 3.194156 1_565
Mg2 Mg7 3.093066 1_554
Mg2 Mg6 3.093066 1_555
Mg2 Mn0 3.116640 1_655
Mg2 Mg4 3.125923 1_545
Mg2 Mg4 3.173619 1_555
Mg2 Mn0 3.184928 1_555
Mg3 Mg5 3.145899 1_545
Mg3 Mg5 3.153644 1_555
Mg3 Mg6 3.197624 1_555
Mg3 Mg7 3.197624 1_555
Mg4 Mg9 3.093066 1_554
Mg4 Mg8 3.093066 1_555
Mg4 Mn0 3.116640 1_665
Mg4 Mn0 3.184927 1_555
Mg5 Mg8 3.197624 1_555
Mg5 Mg9 3.197624 1_555
Mg6 Mn0 3.065708 1_555
Mg6 Mg8 3.102101 1_555
Mg6 Mg8 3.197442 1_545
Mg7 Mn0 3.065708 1_556
Mg7 Mg9 3.102101 1_555
Mg7 Mg9 3.197442 1_545
Mg8 Mn0 3.065714 1_555
Mg9 Mn0 3.065714 1_556
Mg10 Mn0 3.070005 1_655
Mg10 Mg8 3.097947 1_655
Mg10 Mg6 3.097947 1_655
Mg10 Mg2 3.100178 1_555
Mg10 Mg4 3.100185 1_545
Mg10 Mg12 3.150055 1_545
Mg10 Mg12 3.150055 1_555
Mg10 Mg3 3.172738 1_555
Mg10 Mg5 3.172744 1_545
Mg10 Mg8 3.203891 1_545
Mg10 Mg6 3.203891 1_555
Mg11 Mn0 3.070005 1_656
Mg11 Mg9 3.097947 1_655
Mg11 Mg7 3.097947 1_655
Mg11 Mg2 3.100178 1_556
Mg11 Mg4 3.100185 1_546
Mg11 Mg13 3.150055 1_545
Mg11 Mg13 3.150055 1_555
Mg11 Mg3 3.172738 1_555
Mg11 Mg5 3.172744 1_545
Mg11 Mg9 3.203891 1_545
Mg11 Mg7 3.203891 1_555
Mg12 Mg4 3.131225 1_555
Mg12 Mg2 3.131231 1_555
Mg12 Mg5 3.140008 1_555
Mg12 Mg3 3.140015 1_555
Mg12 Mg6 3.145280 1_665
Mg12 Mg8 3.145280 1_655
Mg12 Mg6 3.157829 1_555
Mg12 Mg8 3.157829 1_555
Mg13 Mg4 3.131225 1_556
Mg13 Mg2 3.131231 1_556
Mg13 Mg5 3.140008 1_555
Mg13 Mg3 3.140015 1_555
Mg13 Mg7 3.145280 1_665
Mg13 Mg9 3.145280 1_655
Mg13 Mg7 3.157829 1_555
Mg13 Mg9 3.157829 1_555
Cd0 Mg9 3.082784 1_554
Cd0 Mg8 3.082784 1_555
Cd0 Mg7 3.082790 1_564
Cd0 Mg6 3.082790 1_565
Cd0 Mg13 3.126666 1_454
Cd0 Mg12 3.126666 1_455
Cd0 Mn0 3.149871 1_565
Cd0 Mn0 3.149871 1_555
Cd0 Mg2 3.150258 1_455
Cd0 Mg4 3.150259 1_455
Cd0 Mg2 3.151360 1_565
Cd0 Mg4 3.151361 1_555
