# generated using pymatgen
data_Sm10Sb3Se7
_symmetry_space_group_name_H-M   'P 1'
_cell_length_a   11.26306928
_cell_length_b   11.26306928
_cell_length_c   7.37301741
_cell_angle_alpha   83.76193229
_cell_angle_beta   83.76193229
_cell_angle_gamma   141.65050457
_symmetry_Int_Tables_number   1
_chemical_formula_structural   Sm10Sb3Se7
_chemical_formula_sum   'Sm10 Sb3 Se7'
_cell_volume   547.64670655
_cell_formula_units_Z   1
loop_
 _symmetry_equiv_pos_site_id
 _symmetry_equiv_pos_as_xyz
  1  'x, y, z'
loop_
 _atom_site_type_symbol
 _atom_site_label
 _atom_site_symmetry_multiplicity
 _atom_site_fract_x
 _atom_site_fract_y
 _atom_site_fract_z
 _atom_site_occupancy
  Sm  Sm0  1  0.24704602  0.24704602  0.74424510  1
  Sm  Sm1  1  0.85294291  0.65190784  0.74808682  1
  Sm  Sm2  1  0.75295398  0.75295398  0.25575490  1
  Sm  Sm3  1  0.44364048  0.05008640  0.76198065  1
  Sm  Sm4  1  0.34809216  0.14705709  0.25191318  1
  Sm  Sm5  1  0.05008640  0.44364048  0.76198065  1
  Sm  Sm6  1  0.94991360  0.55635952  0.23801935  1
  Sm  Sm7  1  0.65190784  0.85294291  0.74808682  1
  Sm  Sm8  1  0.55635952  0.94991360  0.23801935  1
  Sm  Sm9  1  0.14705709  0.34809216  0.25191318  1
  Sb  Sb0  1  0.50000000  0.50000000  0.00000000  1
  Sb  Sb1  1  0.20310982  0.79689018  0.50000000  1
  Sb  Sb2  1  0.79689018  0.20310982  0.50000000  1
  Se  Se0  1  0.90312501  0.09687499  0.00000000  1
  Se  Se1  1  0.40052241  0.59947759  0.50000000  1
  Se  Se2  1  0.00000000  0.00000000  0.50000000  1
  Se  Se3  1  0.59947759  0.40052241  0.50000000  1
  Se  Se4  1  0.09687499  0.90312501  0.00000000  1
  Se  Se5  1  0.70009625  0.29990375  0.00000000  1
  Se  Se6  1  0.29990375  0.70009625  0.00000000  1
loop_
_geom_bond_atom_site_label_1
_geom_bond_atom_site_label_2
_geom_bond_distance
_geom_bond_site_symmetry_2
Sb0 Sm1 3.035865 1_554
Sb0 Sm7 3.035865 1_554
Sb0 Sm9 3.035865 1_555
Sb0 Sm4 3.035865 1_555
Sb0 Sm2 3.064883 1_555
Sb0 Sm0 3.064883 1_554
Sb1 Sm1 3.041178 1_455
Sb1 Sm4 3.041178 1_565
Sb1 Sm8 3.063041 1_555
Sb1 Sm5 3.063041 1_555
Sb1 Sm6 3.069119 1_455
Sb1 Sm3 3.069119 1_565
Sb2 Sm7 3.041178 1_545
Sb2 Sm9 3.041178 1_655
Sb2 Sm3 3.063041 1_555
Sb2 Sm6 3.063041 1_555
Sb2 Sm8 3.069119 1_545
Sb2 Sm5 3.069119 1_655
Se0 Sm5 2.968660 1_654
Se0 Sm8 2.968660 1_545
Se0 Sm2 2.977345 1_545
Se0 Sm0 2.977345 1_654
Se0 Sm7 3.010334 1_544
Se0 Sm9 3.010334 1_655
Se1 Sm2 2.999221 1_555
Se1 Sm0 2.999221 1_555
Se1 Sm9 3.015726 1_555
Se1 Sm7 3.015726 1_555
Se1 Sm5 3.021717 1_555
Se1 Sm8 3.021717 1_555
Se2 Sm2 2.960032 1_445
Se2 Sm0 2.960032 1_555
Se2 Sm9 3.009651 1_555
Se2 Sm4 3.009651 1_555
Se2 Sm1 3.009651 1_445
Se2 Sm7 3.009651 1_445
Se3 Sm2 2.999221 1_555
Se3 Sm0 2.999221 1_555
Se3 Sm4 3.015726 1_555
Se3 Sm1 3.015726 1_555
Se3 Sm6 3.021717 1_555
Se3 Sm3 3.021717 1_555
Se4 Sm3 2.968660 1_564
Se4 Sm6 2.968660 1_455
Se4 Sm0 2.977345 1_564
Se4 Sm2 2.977345 1_455
Se4 Sm1 3.010334 1_454
Se4 Sm4 3.010334 1_565
Se5 Sm3 2.960934 1_554
Se5 Sm6 2.960934 1_555
Se5 Sm8 3.018165 1_545
Se5 Sm5 3.018165 1_654
Se5 Sm1 3.021826 1_554
Se5 Sm4 3.021826 1_555
Se6 Sm8 2.960934 1_555
Se6 Sm5 2.960934 1_554
Se6 Sm6 3.018165 1_455
Se6 Sm3 3.018165 1_564
Se6 Sm7 3.021826 1_554
Se6 Sm9 3.021826 1_555
