# generated using pymatgen
data_KLiTbF5
_symmetry_space_group_name_H-M   'P 1'
_cell_length_a   6.45976352
_cell_length_b   6.27793690
_cell_length_c   11.67826082
_cell_angle_alpha   90.00000000
_cell_angle_beta   90.00000000
_cell_angle_gamma   113.48783611
_symmetry_Int_Tables_number   1
_chemical_formula_structural   KLiTbF5
_chemical_formula_sum   'K4 Li4 Tb4 F20'
_cell_volume   434.35977664
_cell_formula_units_Z   4
loop_
 _symmetry_equiv_pos_site_id
 _symmetry_equiv_pos_as_xyz
  1  'x, y, z'
loop_
 _atom_site_type_symbol
 _atom_site_label
 _atom_site_symmetry_multiplicity
 _atom_site_fract_x
 _atom_site_fract_y
 _atom_site_fract_z
 _atom_site_occupancy
  K  K0  1  0.94617478  0.96110376  0.34873116  1
  K  K1  1  0.05382522  0.03889624  0.65126884  1
  K  K2  1  0.05382522  0.53889624  0.84873116  1
  K  K3  1  0.94617478  0.46110376  0.15126884  1
  Li  Li0  1  0.55955303  0.95999088  0.74424714  1
  Li  Li1  1  0.44044697  0.04000912  0.25575286  1
  Li  Li2  1  0.44044697  0.54000912  0.24424714  1
  Li  Li3  1  0.55955303  0.45999088  0.75575286  1
  Tb  Tb0  1  0.68253156  0.82037187  0.99680383  1
  Tb  Tb1  1  0.31746844  0.17962813  0.00319617  1
  Tb  Tb2  1  0.31746844  0.67962813  0.49680383  1
  Tb  Tb3  1  0.68253156  0.32037187  0.50319617  1
  F  F0  1  0.72271930  0.77776365  0.80181502  1
  F  F1  1  0.27728070  0.22223635  0.19818498  1
  F  F2  1  0.27728070  0.72223635  0.30181502  1
  F  F3  1  0.72271930  0.27776365  0.69818498  1
  F  F4  1  0.66528692  0.95091095  0.53468113  1
  F  F5  1  0.33471308  0.04908905  0.46531887  1
  F  F6  1  0.33471308  0.54908905  0.03468113  1
  F  F7  1  0.66528692  0.45091095  0.96531887  1
  F  F8  1  0.95683934  0.67625294  0.50791335  1
  F  F9  1  0.04316066  0.32374706  0.49208665  1
  F  F10  1  0.04316066  0.82374706  0.00791335  1
  F  F11  1  0.95683934  0.17625294  0.99208665  1
  F  F12  1  0.46173490  0.96326975  0.89352775  1
  F  F13  1  0.53826510  0.03673025  0.10647225  1
  F  F14  1  0.53826510  0.53673025  0.39352775  1
  F  F15  1  0.46173490  0.46326975  0.60647225  1
  F  F16  1  0.28943953  0.78462153  0.67522893  1
  F  F17  1  0.71056047  0.21537847  0.32477107  1
  F  F18  1  0.71056047  0.71537847  0.17522893  1
  F  F19  1  0.28943953  0.28462153  0.82477107  1
loop_
_geom_bond_atom_site_label_1
_geom_bond_atom_site_label_2
_geom_bond_distance
_geom_bond_site_symmetry_2
F0 Li3 1.924597 1_555
F0 Li0 1.957765 1_555
F0 Tb0 2.319401 1_555
F0 K1 2.749234 1_665
F0 K2 3.111334 1_655
F1 Li2 1.924597 1_555
F1 Li1 1.957765 1_555
F1 Tb1 2.319401 1_555
F1 K0 2.749234 1_445
F1 K3 3.111334 1_455
F2 Li1 1.924597 1_565
F2 Li2 1.957765 1_555
F2 Tb2 2.319401 1_555
F2 K3 2.749234 1_455
F2 K0 3.111334 1_455
F3 Li0 1.924597 1_545
F3 Li3 1.957765 1_555
F3 Tb3 2.319401 1_555
F3 K2 2.749234 1_655
F3 K1 3.111334 1_655
F4 Tb2 2.257043 1_555
F4 Tb3 2.306839 1_565
F4 Li0 2.547626 1_555
F4 K1 2.711687 1_665
F4 K0 2.814173 1_555
F5 Tb3 2.257043 1_555
F5 Tb2 2.306839 1_545
F5 Li1 2.547626 1_555
F5 K0 2.711687 1_445
F5 K1 2.814173 1_555
F6 Tb0 2.257043 1_554
F6 Tb1 2.306839 1_555
F6 Li2 2.547626 1_555
F6 K3 2.711687 1_455
F6 K2 2.814173 1_554
F7 Tb1 2.257043 1_556
F7 Tb0 2.306839 1_555
F7 Li3 2.547626 1_555
F7 K2 2.711687 1_655
F7 K3 2.814173 1_556
F8 Tb3 2.231333 1_555
F8 Tb2 2.324838 1_655
F8 K0 2.599355 1_555
F8 K1 2.690997 1_665
F9 Tb2 2.231333 1_555
F9 Tb3 2.324838 1_455
F9 K1 2.599355 1_555
F9 K0 2.690997 1_445
F10 Tb1 2.231333 1_565
F10 Tb0 2.324838 1_454
F10 K2 2.599355 1_554
F10 K3 2.690997 1_455
F11 Tb0 2.231333 1_545
F11 Tb1 2.324838 1_656
F11 K3 2.599355 1_556
F11 K2 2.690997 1_655
F12 Li0 1.857227 1_555
F12 Tb0 2.305142 1_555
F12 Tb1 2.315752 1_566
F12 K2 2.952795 1_555
F13 Li1 1.857227 1_555
F13 Tb1 2.305142 1_555
F13 Tb0 2.315752 1_544
F13 K3 2.952795 1_555
F14 Li2 1.857227 1_555
F14 Tb2 2.305142 1_555
F14 Tb3 2.315752 1_555
F14 K0 2.952795 1_555
F15 Li3 1.857227 1_555
F15 Tb3 2.305142 1_555
F15 Tb2 2.315752 1_555
F15 K1 2.952795 1_555
F16 Li0 1.837135 1_555
F16 Tb2 2.214535 1_555
F16 K1 2.622924 1_565
F16 K2 2.632534 1_555
F17 Li1 1.837135 1_555
F17 Tb3 2.214535 1_555
F17 K0 2.622924 1_545
F17 K3 2.632534 1_555
F18 Li2 1.837135 1_555
F18 Tb0 2.214535 1_554
F18 K3 2.622924 1_555
F18 K0 2.632534 1_555
F19 Li3 1.837135 1_555
F19 Tb1 2.214535 1_556
F19 K2 2.622924 1_555
F19 K1 2.632534 1_555
