# generated using pymatgen
data_Cs3Cr2Cl9
_symmetry_space_group_name_H-M   'P 1'
_cell_length_a   7.28598550
_cell_length_b   7.28598647
_cell_length_c   18.17655302
_cell_angle_alpha   90.00000768
_cell_angle_beta   89.99999015
_cell_angle_gamma   120.00005236
_symmetry_Int_Tables_number   1
_chemical_formula_structural   Cs3Cr2Cl9
_chemical_formula_sum   'Cs6 Cr4 Cl18'
_cell_volume   835.63879343
_cell_formula_units_Z   2
loop_
 _symmetry_equiv_pos_site_id
 _symmetry_equiv_pos_as_xyz
  1  'x, y, z'
loop_
 _atom_site_type_symbol
 _atom_site_label
 _atom_site_symmetry_multiplicity
 _atom_site_fract_x
 _atom_site_fract_y
 _atom_site_fract_z
 _atom_site_occupancy
  Cs  Cs0  1  0.00000051  0.00000006  0.24994113  1
  Cs  Cs1  1  -0.00000022  0.00000023  0.75003905  1
  Cs  Cs2  1  0.33333314  0.66666653  0.42655808  1
  Cs  Cs3  1  0.66666515  0.33333473  0.57349973  1
  Cs  Cs4  1  0.66666617  0.33333297  0.92648292  1
  Cs  Cs5  1  0.33333386  0.66666681  0.07344817  1
  Cr  Cr0  1  0.33333337  0.66666680  0.66254379  1
  Cr  Cr1  1  0.66666654  0.33333346  0.33742411  1
  Cr  Cr2  1  0.66666682  0.33333360  0.16256589  1
  Cr  Cr3  1  0.33333358  0.66666659  0.83746886  1
  Cl  Cl0  1  0.51969372  0.48030004  0.24999287  1
  Cl  Cl1  1  0.51969993  0.03939313  0.24999291  1
  Cl  Cl2  1  0.96060696  0.48030653  0.24999291  1
  Cl  Cl3  1  0.48035148  0.51964203  0.75001043  1
  Cl  Cl4  1  0.48035816  0.96070968  0.75001039  1
  Cl  Cl5  1  0.03929021  0.51964850  0.75001041  1
  Cl  Cl6  1  0.81957451  0.18043186  0.40518873  1
  Cl  Cl7  1  0.81956812  0.63914279  0.40518858  1
  Cl  Cl8  1  0.36085727  0.18042541  0.40518861  1
  Cl  Cl9  1  0.18038670  0.81961984  0.59479025  1
  Cl  Cl10  1  0.18037995  0.36076680  0.59479028  1
  Cl  Cl11  1  0.63923308  0.81961347  0.59479038  1
  Cl  Cl12  1  0.18040078  0.81960586  0.90522905  1
  Cl  Cl13  1  0.18039412  0.36079472  0.90522899  1
  Cl  Cl14  1  0.63920543  0.81959947  0.90522900  1
  Cl  Cl15  1  0.81956739  0.18043937  0.09479781  1
  Cl  Cl16  1  0.81956068  0.63912774  0.09479780  1
  Cl  Cl17  1  0.36087261  0.18043298  0.09479786  1
loop_
_geom_bond_atom_site_label_1
_geom_bond_atom_site_label_2
_geom_bond_distance
_geom_bond_site_symmetry_2
Cl0 Cr2 2.442390 1_555
Cl0 Cr1 2.442441 1_555
Cl0 Cs0 3.651436 1_555
Cl0 Cs0 3.651485 1_665
Cl0 Cs5 3.978531 1_555
Cl0 Cs2 3.978833 1_555
Cl1 Cr2 2.442395 1_555
Cl1 Cr1 2.442443 1_555
Cl1 Cs0 3.651442 1_655
Cl1 Cs0 3.651484 1_555
Cl1 Cs5 3.978529 1_545
Cl1 Cs2 3.978830 1_545
Cl2 Cr2 2.442393 1_555
Cl2 Cr1 2.442443 1_555
Cl2 Cs0 3.651440 1_665
Cl2 Cs0 3.651487 1_655
Cl2 Cs5 3.978531 1_655
Cl2 Cs2 3.978829 1_655
Cl3 Cr3 2.443256 1_555
Cl3 Cr0 2.443355 1_555
Cl3 Cs1 3.651392 1_555
Cl3 Cs1 3.651440 1_665
Cl3 Cs4 3.977089 1_555
Cl3 Cs3 3.977638 1_555
Cl4 Cr3 2.443258 1_555
Cl4 Cr0 2.443353 1_555
Cl4 Cs1 3.651392 1_665
Cl4 Cs1 3.651446 1_565
Cl4 Cs4 3.977087 1_565
Cl4 Cs3 3.977652 1_565
Cl5 Cr3 2.443259 1_555
Cl5 Cr0 2.443355 1_555
Cl5 Cs1 3.651397 1_565
Cl5 Cs1 3.651441 1_555
Cl5 Cs4 3.977089 1_455
Cl5 Cs3 3.977653 1_455
Cl6 Cr1 2.289226 1_555
Cl6 Cs3 3.617025 1_555
Cl6 Cs0 3.625944 1_655
Cl6 Cs2 3.667728 1_655
Cl6 Cs2 3.667777 1_545
Cl7 Cr1 2.289222 1_555
Cl7 Cs3 3.617013 1_555
Cl7 Cs0 3.625939 1_665
Cl7 Cs2 3.667733 1_555
Cl7 Cs2 3.667778 1_655
Cl8 Cr1 2.289222 1_555
Cl8 Cs3 3.617012 1_555
Cl8 Cs0 3.625937 1_555
Cl8 Cs2 3.667733 1_545
Cl8 Cs2 3.667779 1_555
Cl9 Cr0 2.289598 1_555
Cl9 Cs2 3.616108 1_555
Cl9 Cs1 3.625602 1_565
Cl9 Cs3 3.667551 1_565
Cl9 Cs3 3.667599 1_455
Cl10 Cr0 2.289597 1_555
Cl10 Cs2 3.616108 1_555
Cl10 Cs1 3.625598 1_555
Cl10 Cs3 3.667567 1_455
Cl10 Cs3 3.667586 1_555
Cl11 Cr0 2.289595 1_555
Cl11 Cs2 3.616110 1_555
Cl11 Cs1 3.625597 1_665
Cl11 Cs3 3.667539 1_555
Cl11 Cs3 3.667615 1_565
Cl12 Cr3 2.289515 1_555
Cl12 Cs5 3.615815 1_556
Cl12 Cs1 3.624882 1_565
Cl12 Cs4 3.667485 1_565
Cl12 Cs4 3.667540 1_455
Cl13 Cr3 2.289513 1_555
Cl13 Cs5 3.615814 1_556
Cl13 Cs1 3.624876 1_555
Cl13 Cs4 3.667494 1_455
Cl13 Cs4 3.667537 1_555
Cl14 Cr3 2.289512 1_555
Cl14 Cs5 3.615812 1_556
Cl14 Cs1 3.624876 1_665
Cl14 Cs4 3.667493 1_555
Cl14 Cs4 3.667538 1_565
Cl15 Cr2 2.289181 1_555
Cl15 Cs4 3.617027 1_554
Cl15 Cs0 3.624527 1_655
Cl15 Cs5 3.667697 1_655
Cl15 Cs5 3.667741 1_545
Cl16 Cr2 2.289177 1_555
Cl16 Cs4 3.617025 1_554
Cl16 Cs0 3.624526 1_665
Cl16 Cs5 3.667696 1_555
Cl16 Cs5 3.667748 1_655
Cl17 Cr2 2.289177 1_555
Cl17 Cs4 3.617022 1_554
Cl17 Cs0 3.624524 1_555
Cl17 Cs5 3.667699 1_545
Cl17 Cs5 3.667746 1_555
