# generated using pymatgen
data_Yb4Rh
_symmetry_space_group_name_H-M   'P 1'
_cell_length_a   7.99890787
_cell_length_b   7.99890787
_cell_length_c   7.99890787
_cell_angle_alpha   60.00000000
_cell_angle_beta   60.00000000
_cell_angle_gamma   60.00000000
_symmetry_Int_Tables_number   1
_chemical_formula_structural   Yb4Rh
_chemical_formula_sum   'Yb8 Rh2'
_cell_volume   361.89042031
_cell_formula_units_Z   2
loop_
 _symmetry_equiv_pos_site_id
 _symmetry_equiv_pos_as_xyz
  1  'x, y, z'
loop_
 _atom_site_type_symbol
 _atom_site_label
 _atom_site_symmetry_multiplicity
 _atom_site_fract_x
 _atom_site_fract_y
 _atom_site_fract_z
 _atom_site_occupancy
  Yb  Yb0  1  0.62162700  0.62162700  0.62162700  1
  Yb  Yb1  1  0.13511800  0.62162700  0.62162700  1
  Yb  Yb2  1  0.62162700  0.13511800  0.62162700  1
  Yb  Yb3  1  0.61488200  0.12837300  0.12837300  1
  Yb  Yb4  1  0.12837300  0.12837300  0.12837300  1
  Yb  Yb5  1  0.62162700  0.62162700  0.13511800  1
  Yb  Yb6  1  0.12837300  0.61488200  0.12837300  1
  Yb  Yb7  1  0.12837300  0.12837300  0.61488200  1
  Rh  Rh0  1  0.00000000  0.00000000  0.00000000  1
  Rh  Rh1  1  0.75000000  0.75000000  0.75000000  1
loop_
_geom_bond_atom_site_label_1
_geom_bond_atom_site_label_2
_geom_bond_distance
_geom_bond_site_symmetry_2
Rh0 Yb3 2.515237 1_455
Rh0 Yb6 2.515237 1_545
Rh0 Yb7 2.515237 1_554
Rh0 Yb4 2.515243 1_555
Rh1 Yb1 2.515237 1_655
Rh1 Yb5 2.515237 1_556
Rh1 Yb2 2.515237 1_565
Rh1 Yb0 2.515243 1_555
