# generated using pymatgen
data_Li3Mn3FeO8
_symmetry_space_group_name_H-M   'P 1'
_cell_length_a   5.94799800
_cell_length_b   5.95974039
_cell_length_c   5.96317366
_cell_angle_alpha   89.51456432
_cell_angle_beta   119.79893668
_cell_angle_gamma   119.75739124
_symmetry_Int_Tables_number   1
_chemical_formula_structural   Li3Mn3FeO8
_chemical_formula_sum   'Li3 Mn3 Fe1 O8'
_cell_volume   151.07773588
_cell_formula_units_Z   1
loop_
 _symmetry_equiv_pos_site_id
 _symmetry_equiv_pos_as_xyz
  1  'x, y, z'
loop_
 _atom_site_type_symbol
 _atom_site_label
 _atom_site_symmetry_multiplicity
 _atom_site_fract_x
 _atom_site_fract_y
 _atom_site_fract_z
 _atom_site_occupancy
  Li  Li0  1  0.00000000  0.50000000  0.00000000  1
  Li  Li1  1  0.50000000  0.50000000  0.50000000  1
  Li  Li2  1  0.50000000  0.50000000  0.00000000  1
  Mn  Mn0  1  0.00000000  0.00000000  0.50000000  1
  Mn  Mn1  1  0.50000000  0.00000000  0.00000000  1
  Mn  Mn2  1  0.50000000  0.00000000  0.50000000  1
  Fe  Fe0  1  0.00000000  0.00000000  0.00000000  1
  O  O0  1  0.51530000  0.24191300  0.77567100  1
  O  O1  1  0.47118700  0.21965300  0.21883000  1
  O  O2  1  0.95766000  0.20151900  0.72197300  1
  O  O3  1  0.48470000  0.75808700  0.22432900  1
  O  O4  1  0.96322800  0.20871900  0.23355500  1
  O  O5  1  0.52881300  0.78034700  0.78117000  1
  O  O6  1  0.04234000  0.79848100  0.27802700  1
  O  O7  1  0.03677200  0.79128100  0.76644500  1
loop_
_geom_bond_atom_site_label_1
_geom_bond_atom_site_label_2
_geom_bond_distance
_geom_bond_site_symmetry_2
Li0 O3 2.065631 1_555
Li0 O0 2.065631 1_454
Li0 O7 2.210426 1_554
Li0 O4 2.210426 1_455
Li0 O6 2.273059 1_555
Li0 O2 2.273059 1_454
Li1 O0 2.241398 1_555
Li1 O3 2.241398 1_555
Li1 O1 2.260480 1_555
Li1 O5 2.260480 1_555
Li1 O4 2.287918 1_455
Li1 O7 2.287918 1_655
Li2 O1 2.103531 1_555
Li2 O5 2.103531 1_554
Li2 O3 2.111496 1_555
Li2 O0 2.111496 1_554
Li2 O6 2.314569 1_655
Li2 O2 2.314569 1_454
Mn0 O6 1.978991 1_545
Mn0 O2 1.978991 1_455
Mn0 O4 2.002699 1_455
Mn0 O7 2.002699 1_545
Mn0 O0 2.195684 1_555
Mn0 O3 2.195684 1_445
Mn1 O0 1.958174 1_554
Mn1 O3 1.958174 1_545
Mn1 O4 1.972755 1_555
Mn1 O7 1.972755 1_544
Mn1 O1 1.979846 1_555
Mn1 O5 1.979846 1_544
Mn2 O6 1.950634 1_545
Mn2 O2 1.950634 1_555
Mn2 O5 2.110490 1_545
Mn2 O1 2.110490 1_555
Mn2 O0 2.133177 1_555
Mn2 O3 2.133177 1_545
Fe0 O1 2.005810 1_555
Fe0 O5 2.005810 1_444
Fe0 O6 2.026338 1_545
Fe0 O2 2.026338 1_454
Fe0 O7 2.033971 1_544
Fe0 O4 2.033971 1_455
