# generated using pymatgen
data_YbAl7Cu5
_symmetry_space_group_name_H-M   'P 1'
_cell_length_a   6.67557875
_cell_length_b   6.67557875
_cell_length_c   6.67557875
_cell_angle_alpha   135.22453127
_cell_angle_beta   99.02206686
_cell_angle_gamma   97.66106785
_symmetry_Int_Tables_number   1
_chemical_formula_structural   YbAl7Cu5
_chemical_formula_sum   'Yb1 Al7 Cu5'
_cell_volume   193.71755962
_cell_formula_units_Z   1
loop_
 _symmetry_equiv_pos_site_id
 _symmetry_equiv_pos_as_xyz
  1  'x, y, z'
loop_
 _atom_site_type_symbol
 _atom_site_label
 _atom_site_symmetry_multiplicity
 _atom_site_fract_x
 _atom_site_fract_y
 _atom_site_fract_z
 _atom_site_occupancy
  Yb  Yb0  1  0.00302900  0.00000000  0.00302900  1
  Al  Al0  1  0.65121500  0.00000000  0.65121500  1
  Al  Al1  1  0.34531100  0.00000000  0.34531100  1
  Al  Al2  1  0.34214500  0.34922000  0.99292500  1
  Al  Al3  1  0.64370600  0.65078000  0.99292500  1
  Al  Al4  1  0.77678100  0.50000000  0.27678100  1
  Al  Al5  1  0.79313900  0.28699800  0.50614000  1
  Al  Al6  1  0.21914200  0.71300200  0.50614000  1
  Cu  Cu0  1  0.50271100  0.49996700  0.49988000  1
  Cu  Cu1  1  0.50271100  0.00283100  0.00274500  1
  Cu  Cu2  1  0.99991300  0.99716900  0.49988000  1
  Cu  Cu3  1  0.99991300  0.50003300  0.00274500  1
  Cu  Cu4  1  0.22028300  0.50000000  0.72028300  1
loop_
_geom_bond_atom_site_label_1
_geom_bond_atom_site_label_2
_geom_bond_distance
_geom_bond_site_symmetry_2
Al0 Al1 2.651860 1_555
Al0 Cu3 2.676114 1_556
Al0 Cu0 2.676115 1_545
Al0 Cu2 2.676115 1_545
Al0 Cu1 2.676121 1_556
Al0 Al4 2.765757 1_556
Al0 Al4 2.765757 1_545
Al0 Al6 2.818541 1_545
Al0 Al5 2.818543 1_555
Al0 Yb0 3.049850 1_656
Al1 Cu1 2.672760 1_555
Al1 Cu0 2.672766 1_555
Al1 Cu2 2.672766 1_445
Al1 Cu3 2.672767 1_445
Al1 Cu4 2.763925 1_544
Al1 Cu4 2.763925 1_555
Al1 Al6 2.882072 1_545
Al1 Al5 2.882078 1_555
Al1 Yb0 2.967218 1_555
Al2 Cu3 2.608405 1_456
Al2 Cu2 2.608406 1_445
Al2 Al3 2.650389 1_555
Al2 Cu4 2.709674 1_555
Al2 Cu0 2.711853 1_556
Al2 Cu1 2.711857 1_556
Al2 Al4 2.794873 1_556
Al2 Al6 2.812643 1_545
Al2 Al6 2.812643 1_556
Al2 Yb0 3.070513 1_556
Al3 Cu1 2.608405 1_566
Al3 Cu0 2.608406 1_555
Al3 Cu4 2.709680 1_555
Al3 Cu3 2.711848 1_556
Al3 Cu2 2.711849 1_556
Al3 Al4 2.794871 1_556
Al3 Al5 2.812643 1_555
Al3 Al5 2.812643 1_566
Al3 Yb0 3.070509 1_666
Al4 Cu3 2.533835 1_555
Al4 Cu0 2.533841 1_555
Al4 Cu2 2.533841 1_555
Al4 Cu1 2.533843 1_555
Al4 Al6 2.730919 1_655
Al4 Al5 2.730919 1_555
Al4 Yb0 3.211127 1_655
Al4 Yb0 3.211127 1_666
Al5 Cu2 2.503157 1_545
Al5 Cu3 2.503165 1_556
Al5 Cu1 2.564296 1_555
Al5 Cu0 2.564303 1_555
Al5 Cu4 2.636427 1_655
Al5 Yb0 3.157502 1_655
Al5 Yb0 3.157506 1_666
Al6 Cu0 2.503162 1_555
Al6 Cu1 2.503166 1_566
Al6 Cu3 2.564292 1_455
Al6 Cu2 2.564298 1_455
Al6 Cu4 2.636433 1_555
Al6 Yb0 3.157507 1_566
Al6 Yb0 3.157507 1_555
Cu0 Cu1 2.527978 1_555
Cu0 Cu1 2.557110 1_566
Cu0 Cu4 2.566914 1_555
Cu0 Yb0 3.333506 1_555
Cu0 Yb0 3.342194 1_666
Cu1 Cu4 2.566912 1_544
Cu1 Yb0 3.333505 1_555
Cu1 Yb0 3.342195 1_655
Cu2 Cu3 2.527978 1_555
Cu2 Cu3 2.557110 1_566
Cu2 Cu4 2.566914 1_665
Cu2 Yb0 3.333506 1_665
Cu2 Yb0 3.342194 1_666
Cu3 Cu4 2.566920 1_654
Cu3 Yb0 3.333511 1_665
Cu3 Yb0 3.342189 1_655
Cu4 Yb0 3.164107 1_566
Cu4 Yb0 3.164107 1_555
