# generated using pymatgen
data_K5NaFe2(CO2)12
_symmetry_space_group_name_H-M   'P 1'
_cell_length_a   13.80314029
_cell_length_b   13.80314029
_cell_length_c   13.80314029
_cell_angle_alpha   90.00000000
_cell_angle_beta   90.00000000
_cell_angle_gamma   90.00000000
_symmetry_Int_Tables_number   1
_chemical_formula_structural   K5NaFe2(CO2)12
_chemical_formula_sum   'K20 Na4 Fe8 C48 O96'
_cell_volume   2629.86651878
_cell_formula_units_Z   4
loop_
 _symmetry_equiv_pos_site_id
 _symmetry_equiv_pos_as_xyz
  1  'x, y, z'
loop_
 _atom_site_type_symbol
 _atom_site_label
 _atom_site_symmetry_multiplicity
 _atom_site_fract_x
 _atom_site_fract_y
 _atom_site_fract_z
 _atom_site_occupancy
  K  K0  1  0.07993591  0.57993591  0.92006409  1
  K  K1  1  0.92006409  0.07993591  0.57993591  1
  K  K2  1  0.57993591  0.92006409  0.07993591  1
  K  K3  1  0.42006409  0.42006409  0.42006409  1
  K  K4  1  0.67006409  0.17006409  0.32993591  1
  K  K5  1  0.17006409  0.32993591  0.67006409  1
  K  K6  1  0.32993591  0.67006409  0.17006409  1
  K  K7  1  0.82993591  0.82993591  0.82993591  1
  K  K8  1  0.75915328  0.50915328  0.87500000  1
  K  K9  1  0.24084672  0.00915328  0.62500000  1
  K  K10  1  0.00915328  0.62500000  0.24084672  1
  K  K11  1  0.99084672  0.12500000  0.25915328  1
  K  K12  1  0.12500000  0.25915328  0.99084672  1
  K  K13  1  0.87500000  0.75915328  0.50915328  1
  K  K14  1  0.25915328  0.99084672  0.12500000  1
  K  K15  1  0.74084672  0.49084672  0.37500000  1
  K  K16  1  0.50915328  0.87500000  0.75915328  1
  K  K17  1  0.49084672  0.37500000  0.74084672  1
  K  K18  1  0.62500000  0.24084672  0.00915328  1
  K  K19  1  0.37500000  0.74084672  0.49084672  1
  Na  Na0  1  0.87500000  0.37500000  0.12500000  1
  Na  Na1  1  0.12500000  0.87500000  0.37500000  1
  Na  Na2  1  0.37500000  0.12500000  0.87500000  1
  Na  Na3  1  0.62500000  0.62500000  0.62500000  1
  Fe  Fe0  1  0.23948508  0.73948508  0.76051492  1
  Fe  Fe1  1  0.76051492  0.23948508  0.73948508  1
  Fe  Fe2  1  0.73948508  0.76051492  0.23948508  1
  Fe  Fe3  1  0.26051492  0.26051492  0.26051492  1
  Fe  Fe4  1  0.51051492  0.01051492  0.48948508  1
  Fe  Fe5  1  0.01051492  0.48948508  0.51051492  1
  Fe  Fe6  1  0.48948508  0.51051492  0.01051492  1
  Fe  Fe7  1  0.98948508  0.98948508  0.98948508  1
  C  C0  1  0.27030526  0.80102818  0.95527184  1
  C  C1  1  0.72969474  0.30102818  0.54472816  1
  C  C2  1  0.30102818  0.54472816  0.72969474  1
  C  C3  1  0.69897182  0.04472816  0.77030526  1
  C  C4  1  0.04472816  0.77030526  0.69897182  1
  C  C5  1  0.95527184  0.27030526  0.80102818  1
  C  C6  1  0.77030526  0.69897182  0.04472816  1
  C  C7  1  0.22969474  0.19897182  0.45527184  1
  C  C8  1  0.80102818  0.95527184  0.27030526  1
  C  C9  1  0.19897182  0.45527184  0.22969474  1
  C  C10  1  0.54472816  0.72969474  0.30102818  1
  C  C11  1  0.45527184  0.22969474  0.19897182  1
  C  C12  1  0.44897182  0.97969474  0.29472816  1
  C  C13  1  0.94897182  0.52030526  0.70527184  1
  C  C14  1  0.55102818  0.47969474  0.20527184  1
  C  C15  1  0.05102818  0.02030526  0.79472816  1
  C  C16  1  0.52030526  0.70527184  0.94897182  1
  C  C17  1  0.47969474  0.20527184  0.55102818  1
  C  C18  1  0.97969474  0.29472816  0.44897182  1
  C  C19  1  0.02030526  0.79472816  0.05102818  1
  C  C20  1  0.70527184  0.94897182  0.52030526  1
  C  C21  1  0.20527184  0.55102818  0.47969474  1
  C  C22  1  0.29472816  0.44897182  0.97969474  1
  C  C23  1  0.79472816  0.05102818  0.02030526  1
  C  C24  1  0.30652232  0.88660408  0.89132112  1
  C  C25  1  0.69347768  0.38660408  0.60867888  1
  C  C26  1  0.38660408  0.60867888  0.69347768  1
  C  C27  1  0.61339592  0.10867888  0.80652232  1
  C  C28  1  0.10867888  0.80652232  0.61339592  1
  C  C29  1  0.89132112  0.30652232  0.88660408  1
  C  C30  1  0.80652232  0.61339592  0.10867888  1
  C  C31  1  0.19347768  0.11339592  0.39132112  1
  C  C32  1  0.88660408  0.89132112  0.30652232  1
  C  C33  1  0.11339592  0.39132112  0.19347768  1
  C  C34  1  0.60867888  0.69347768  0.38660408  1
  C  C35  1  0.39132112  0.19347768  0.11339592  1
  C  C36  1  0.36339592  0.94347768  0.35867888  1
  C  C37  1  0.86339592  0.55652232  0.64132112  1
  C  C38  1  0.63660408  0.44347768  0.14132112  1
  C  C39  1  0.13660408  0.05652232  0.85867888  1
  C  C40  1  0.55652232  0.64132112  0.86339592  1
  C  C41  1  0.44347768  0.14132112  0.63660408  1
  C  C42  1  0.94347768  0.35867888  0.36339592  1
  C  C43  1  0.05652232  0.85867888  0.13660408  1
  C  C44  1  0.64132112  0.86339592  0.55652232  1
  C  C45  1  0.14132112  0.63660408  0.44347768  1
  C  C46  1  0.35867888  0.36339592  0.94347768  1
  C  C47  1  0.85867888  0.13660408  0.05652232  1
  O  O0  1  0.24769861  0.72422707  0.90685864  1
  O  O1  1  0.75230139  0.22422707  0.59314136  1
  O  O2  1  0.22422707  0.59314136  0.75230139  1
  O  O3  1  0.77577293  0.09314136  0.74769861  1
  O  O4  1  0.09314136  0.74769861  0.77577293  1
  O  O5  1  0.90685864  0.24769861  0.72422707  1
  O  O6  1  0.74769861  0.77577293  0.09314136  1
  O  O7  1  0.25230139  0.27577293  0.40685864  1
  O  O8  1  0.72422707  0.90685864  0.24769861  1
  O  O9  1  0.27577293  0.40685864  0.25230139  1
  O  O10  1  0.59314136  0.75230139  0.22422707  1
  O  O11  1  0.40685864  0.25230139  0.27577293  1
  O  O12  1  0.52577293  0.00230139  0.34314136  1
  O  O13  1  0.02577293  0.49769861  0.65685864  1
  O  O14  1  0.47422707  0.50230139  0.15685864  1
  O  O15  1  0.97422707  0.99769861  0.84314136  1
  O  O16  1  0.49769861  0.65685864  0.02577293  1
  O  O17  1  0.50230139  0.15685864  0.47422707  1
  O  O18  1  0.00230139  0.34314136  0.52577293  1
  O  O19  1  0.99769861  0.84314136  0.97422707  1
  O  O20  1  0.65685864  0.02577293  0.49769861  1
  O  O21  1  0.15685864  0.47422707  0.50230139  1
  O  O22  1  0.34314136  0.52577293  0.00230139  1
  O  O23  1  0.84314136  0.97422707  0.99769861  1
  O  O24  1  0.29500567  0.87236343  0.79857913  1
  O  O25  1  0.70499433  0.37236343  0.70142087  1
  O  O26  1  0.37236343  0.70142087  0.70499433  1
  O  O27  1  0.62763657  0.20142087  0.79500567  1
  O  O28  1  0.20142087  0.79500567  0.62763657  1
  O  O29  1  0.79857913  0.29500567  0.87236343  1
  O  O30  1  0.79500567  0.62763657  0.20142087  1
  O  O31  1  0.20499433  0.12763657  0.29857913  1
  O  O32  1  0.87236343  0.79857913  0.29500567  1
  O  O33  1  0.12763657  0.29857913  0.20499433  1
  O  O34  1  0.70142087  0.70499433  0.37236343  1
  O  O35  1  0.29857913  0.20499433  0.12763657  1
  O  O36  1  0.37763657  0.95499433  0.45142087  1
  O  O37  1  0.87763657  0.54500567  0.54857913  1
  O  O38  1  0.62236343  0.45499433  0.04857913  1
  O  O39  1  0.12236343  0.04500567  0.95142087  1
  O  O40  1  0.54500567  0.54857913  0.87763657  1
  O  O41  1  0.45499433  0.04857913  0.62236343  1
  O  O42  1  0.95499433  0.45142087  0.37763657  1
  O  O43  1  0.04500567  0.95142087  0.12236343  1
  O  O44  1  0.54857913  0.87763657  0.54500567  1
  O  O45  1  0.04857913  0.62236343  0.45499433  1
  O  O46  1  0.45142087  0.37763657  0.95499433  1
  O  O47  1  0.95142087  0.12236343  0.04500567  1
  O  O48  1  0.26554790  0.81013965  0.04469550  1
  O  O49  1  0.73445210  0.31013965  0.45530450  1
  O  O50  1  0.31013965  0.45530450  0.73445210  1
  O  O51  1  0.68986035  0.95530450  0.76554790  1
  O  O52  1  0.95530450  0.76554790  0.68986035  1
  O  O53  1  0.04469550  0.26554790  0.81013965  1
  O  O54  1  0.76554790  0.68986035  0.95530450  1
  O  O55  1  0.23445210  0.18986035  0.54469550  1
  O  O56  1  0.81013965  0.04469550  0.26554790  1
  O  O57  1  0.18986035  0.54469550  0.23445210  1
  O  O58  1  0.45530450  0.73445210  0.31013965  1
  O  O59  1  0.54469550  0.23445210  0.18986035  1
  O  O60  1  0.43986035  0.98445210  0.20530450  1
  O  O61  1  0.93986035  0.51554790  0.79469550  1
  O  O62  1  0.56013965  0.48445210  0.29469550  1
  O  O63  1  0.06013965  0.01554790  0.70530450  1
  O  O64  1  0.51554790  0.79469550  0.93986035  1
  O  O65  1  0.48445210  0.29469550  0.56013965  1
  O  O66  1  0.98445210  0.20530450  0.43986035  1
  O  O67  1  0.01554790  0.70530450  0.06013965  1
  O  O68  1  0.79469550  0.93986035  0.51554790  1
  O  O69  1  0.29469550  0.56013965  0.48445210  1
  O  O70  1  0.20530450  0.43986035  0.98445210  1
  O  O71  1  0.70530450  0.06013965  0.01554790  1
  O  O72  1  0.34349600  0.95910701  0.92894094  1
  O  O73  1  0.65650400  0.45910701  0.57105906  1
  O  O74  1  0.45910701  0.57105906  0.65650400  1
  O  O75  1  0.54089299  0.07105906  0.84349600  1
  O  O76  1  0.07105906  0.84349600  0.54089299  1
  O  O77  1  0.92894094  0.34349600  0.95910701  1
  O  O78  1  0.84349600  0.54089299  0.07105906  1
  O  O79  1  0.15650400  0.04089299  0.42894094  1
  O  O80  1  0.95910701  0.92894094  0.34349600  1
  O  O81  1  0.04089299  0.42894094  0.15650400  1
  O  O82  1  0.57105906  0.65650400  0.45910701  1
  O  O83  1  0.42894094  0.15650400  0.04089299  1
  O  O84  1  0.29089299  0.90650400  0.32105906  1
  O  O85  1  0.79089299  0.59349600  0.67894094  1
  O  O86  1  0.70910701  0.40650400  0.17894094  1
  O  O87  1  0.20910701  0.09349600  0.82105906  1
  O  O88  1  0.59349600  0.67894094  0.79089299  1
  O  O89  1  0.40650400  0.17894094  0.70910701  1
  O  O90  1  0.90650400  0.32105906  0.29089299  1
  O  O91  1  0.09349600  0.82105906  0.20910701  1
  O  O92  1  0.67894094  0.79089299  0.59349600  1
  O  O93  1  0.17894094  0.70910701  0.40650400  1
  O  O94  1  0.32105906  0.29089299  0.90650400  1
  O  O95  1  0.82105906  0.20910701  0.09349600  1
loop_
_geom_bond_atom_site_label_1
_geom_bond_atom_site_label_2
_geom_bond_distance
_geom_bond_site_symmetry_2
K0 O67 2.742773 1_556
K0 O61 2.742773 1_455
K0 O70 2.742773 1_555
K0 O0 3.059775 1_555
K0 O2 3.059775 1_555
K0 O4 3.059775 1_555
K1 O63 2.742773 1_655
K1 O66 2.742773 1_555
K1 O68 2.742773 1_545
K1 O5 3.059775 1_555
K1 O1 3.059775 1_555
K1 O3 3.059775 1_555
K2 O71 2.742773 1_565
K2 O64 2.742773 1_554
K2 O60 2.742773 1_555
K2 O8 3.059775 1_555
K2 O6 3.059775 1_555
K2 O10 3.059775 1_555
K3 O65 2.742773 1_555
K3 O69 2.742773 1_555
K3 O62 2.742773 1_555
K3 O7 3.059775 1_555
K3 O11 3.059775 1_555
K3 O9 3.059775 1_555
K4 O56 2.742773 1_555
K4 O59 2.742773 1_555
K4 O49 2.742773 1_555
K4 O20 3.059775 1_555
K4 O12 3.059775 1_555
K4 O17 3.059775 1_555
K5 O55 2.742773 1_555
K5 O53 2.742773 1_555
K5 O50 2.742773 1_555
K5 O13 3.059775 1_555
K5 O18 3.059775 1_555
K5 O21 3.059775 1_555
K6 O48 2.742773 1_555
K6 O57 2.742773 1_555
K6 O58 2.742773 1_555
K6 O16 3.059775 1_555
K6 O22 3.059775 1_555
K6 O14 3.059775 1_555
K7 O54 2.742773 1_555
K7 O51 2.742773 1_555
K7 O52 2.742773 1_555
K7 O15 3.059775 1_555
K7 O19 3.059775 1_555
K7 O23 3.059775 1_555
K8 O54 2.730956 1_555
K8 O61 2.730956 1_555
K8 O85 2.978418 1_555
K8 O78 2.978418 1_556
K8 O40 3.005808 1_555
K8 O29 3.005808 1_555
K8 O38 3.140764 1_556
K8 O25 3.140764 1_555
K9 O63 2.730956 1_555
K9 O55 2.730956 1_555
K9 O87 2.978418 1_555
K9 O79 2.978418 1_555
K9 O28 3.005808 1_545
K9 O41 3.005808 1_555
K9 O24 3.140764 1_545
K9 O36 3.140764 1_545
K10 O67 2.730956 1_555
K10 O57 2.730956 1_555
K10 O91 2.978418 1_555
K10 O81 2.978418 1_555
K10 O30 3.005808 1_455
K10 O45 3.005808 1_555
K10 O32 3.140764 1_455
K10 O42 3.140764 1_455
K11 O56 2.730956 1_555
K11 O66 2.730956 1_555
K11 O80 2.978418 1_545
K11 O90 2.978418 1_555
K11 O31 3.005808 1_655
K11 O47 3.005808 1_555
K11 O33 3.140764 1_655
K11 O43 3.140764 1_645
K12 O53 2.730956 1_555
K12 O70 2.730956 1_555
K12 O77 2.978418 1_455
K12 O94 2.978418 1_555
K12 O33 3.005808 1_556
K12 O39 3.005808 1_555
K12 O35 3.140764 1_556
K12 O47 3.140764 1_456
K13 O52 2.730956 1_555
K13 O68 2.730956 1_555
K13 O92 2.978418 1_555
K13 O76 2.978418 1_655
K13 O32 3.005808 1_555
K13 O37 3.005808 1_555
K13 O45 3.140764 1_655
K13 O34 3.140764 1_555
K14 O48 2.730956 1_555
K14 O60 2.730956 1_555
K14 O72 2.978418 1_554
K14 O84 2.978418 1_555
K14 O35 3.005808 1_565
K14 O43 3.005808 1_555
K14 O31 3.140764 1_565
K14 O39 3.140764 1_564
K15 O62 2.730956 1_555
K15 O49 2.730956 1_555
K15 O73 2.978418 1_555
K15 O86 2.978418 1_555
K15 O34 3.005808 1_555
K15 O42 3.005808 1_555
K15 O30 3.140764 1_555
K15 O37 3.140764 1_555
K16 O51 2.730956 1_555
K16 O64 2.730956 1_555
K16 O88 2.978418 1_555
K16 O75 2.978418 1_565
K16 O44 3.005808 1_555
K16 O24 3.005808 1_555
K16 O41 3.140764 1_565
K16 O26 3.140764 1_555
K17 O65 2.730956 1_555
K17 O50 2.730956 1_555
K17 O74 2.978418 1_555
K17 O89 2.978418 1_555
K17 O25 3.005808 1_555
K17 O46 3.005808 1_555
K17 O27 3.140764 1_555
K17 O40 3.140764 1_555
K18 O71 2.730956 1_555
K18 O59 2.730956 1_555
K18 O95 2.978418 1_555
K18 O83 2.978418 1_555
K18 O27 3.005808 1_554
K18 O38 3.005808 1_555
K18 O29 3.140764 1_554
K18 O46 3.140764 1_554
K19 O69 2.730956 1_555
K19 O58 2.730956 1_555
K19 O82 2.978418 1_555
K19 O93 2.978418 1_555
K19 O26 3.005808 1_555
K19 O36 3.005808 1_555
K19 O28 3.140764 1_555
K19 O44 3.140764 1_555
Na0 O81 2.446803 1_655
Na0 O86 2.446803 1_555
Na0 O90 2.446803 1_555
Na0 O78 2.446803 1_555
Na0 O95 2.446803 1_555
Na0 O77 2.446803 1_554
Na1 O79 2.446803 1_565
Na1 O93 2.446803 1_555
Na1 O91 2.446803 1_555
Na1 O84 2.446803 1_555
Na1 O76 2.446803 1_555
Na1 O80 2.446803 1_455
Na2 O83 2.446803 1_556
Na2 O87 2.446803 1_555
Na2 O94 2.446803 1_555
Na2 O75 2.446803 1_555
Na2 O89 2.446803 1_555
Na2 O72 2.446803 1_545
Na3 O73 2.446803 1_555
Na3 O88 2.446803 1_555
Na3 O85 2.446803 1_555
Na3 O82 2.446803 1_555
Na3 O92 2.446803 1_555
Na3 O74 2.446803 1_555
Fe0 O4 2.034114 1_555
Fe0 O2 2.034114 1_555
Fe0 O0 2.034114 1_555
Fe0 O28 2.056069 1_555
Fe0 O26 2.056069 1_555
Fe0 O24 2.056069 1_555
Fe1 O3 2.034114 1_555
Fe1 O1 2.034114 1_555
Fe1 O5 2.034114 1_555
Fe1 O25 2.056069 1_555
Fe1 O27 2.056069 1_555
Fe1 O29 2.056069 1_555
Fe2 O6 2.034114 1_555
Fe2 O10 2.034114 1_555
Fe2 O8 2.034114 1_555
Fe2 O34 2.056069 1_555
Fe2 O32 2.056069 1_555
Fe2 O30 2.056069 1_555
Fe3 O9 2.034114 1_555
Fe3 O11 2.034114 1_555
Fe3 O7 2.034114 1_555
Fe3 O35 2.056069 1_555
Fe3 O31 2.056069 1_555
Fe3 O33 2.056069 1_555
Fe4 O17 2.034114 1_555
Fe4 O12 2.034114 1_555
Fe4 O20 2.034114 1_555
Fe4 O36 2.056069 1_545
Fe4 O41 2.056069 1_555
Fe4 O44 2.056069 1_545
Fe5 O21 2.034114 1_555
Fe5 O18 2.034114 1_555
Fe5 O13 2.034114 1_555
Fe5 O42 2.056069 1_455
Fe5 O45 2.056069 1_555
Fe5 O37 2.056069 1_455
Fe6 O14 2.034114 1_555
Fe6 O22 2.034114 1_555
Fe6 O16 2.034114 1_555
Fe6 O38 2.056069 1_555
Fe6 O46 2.056069 1_554
Fe6 O40 2.056069 1_554
Fe7 O15 2.034114 1_555
Fe7 O19 2.034114 1_555
Fe7 O23 2.034114 1_555
Fe7 O47 2.056069 1_566
Fe7 O43 2.056069 1_656
Fe7 O39 2.056069 1_665
C0 O48 1.242455 1_556
C0 O0 1.291410 1_555
C1 O49 1.242455 1_555
C1 O1 1.291410 1_555
C2 O50 1.242455 1_555
C2 O2 1.291410 1_555
C3 O51 1.242455 1_545
C3 O3 1.291410 1_555
C4 O52 1.242455 1_455
C4 O4 1.291410 1_555
C5 O53 1.242455 1_655
C5 O5 1.291410 1_555
C6 O54 1.242455 1_554
C6 O6 1.291410 1_555
C7 O55 1.242455 1_555
C7 O7 1.291410 1_555
C8 O56 1.242455 1_565
C8 O8 1.291410 1_555
C9 O57 1.242455 1_555
C9 O9 1.291410 1_555
C10 O58 1.242455 1_555
C10 O10 1.291410 1_555
C11 O59 1.242455 1_555
C11 O11 1.291410 1_555
C12 O60 1.242455 1_555
C12 O12 1.291410 1_565
C13 O61 1.242455 1_555
C13 O13 1.291410 1_655
C14 O62 1.242455 1_555
C14 O14 1.291410 1_555
C15 O63 1.242455 1_555
C15 O15 1.291410 1_445
C16 O64 1.242455 1_555
C16 O16 1.291410 1_556
C17 O65 1.242455 1_555
C17 O17 1.291410 1_555
C18 O66 1.242455 1_555
C18 O18 1.291410 1_655
C19 O67 1.242455 1_555
C19 O19 1.291410 1_454
C20 O68 1.242455 1_555
C20 O20 1.291410 1_565
C21 O69 1.242455 1_555
C21 O21 1.291410 1_555
C22 O70 1.242455 1_555
C22 O22 1.291410 1_556
C23 O71 1.242455 1_555
C23 O23 1.291410 1_544
C24 O72 1.237594 1_555
C24 O24 1.304854 1_555
C25 O73 1.237594 1_555
C25 O25 1.304854 1_555
C26 O74 1.237594 1_555
C26 O26 1.304854 1_555
C27 O75 1.237594 1_555
C27 O27 1.304854 1_555
C28 O76 1.237594 1_555
C28 O28 1.304854 1_555
C29 O77 1.237594 1_555
C29 O29 1.304854 1_555
C30 O78 1.237594 1_555
C30 O30 1.304854 1_555
C31 O79 1.237594 1_555
C31 O31 1.304854 1_555
C32 O80 1.237594 1_555
C32 O32 1.304854 1_555
C33 O81 1.237594 1_555
C33 O33 1.304854 1_555
C34 O82 1.237594 1_555
C34 O34 1.304854 1_555
C35 O83 1.237594 1_555
C35 O35 1.304854 1_555
C36 O84 1.237594 1_555
C36 O36 1.304854 1_555
C37 O85 1.237594 1_555
C37 O37 1.304854 1_555
C38 O86 1.237594 1_555
C38 O38 1.304854 1_555
C39 O87 1.237594 1_555
C39 O39 1.304854 1_555
C40 O88 1.237594 1_555
C40 O40 1.304854 1_555
C41 O89 1.237594 1_555
C41 O41 1.304854 1_555
C42 O90 1.237594 1_555
C42 O42 1.304854 1_555
C43 O91 1.237594 1_555
C43 O43 1.304854 1_555
C44 O92 1.237594 1_555
C44 O44 1.304854 1_555
C45 O93 1.237594 1_555
C45 O45 1.304854 1_555
C46 O94 1.237594 1_555
C46 O46 1.304854 1_555
C47 O95 1.237594 1_555
C47 O47 1.304854 1_555
