# generated using pymatgen
data_H2C2N3
_symmetry_space_group_name_H-M   'P 1'
_cell_length_a   6.64163700
_cell_length_b   7.61738500
_cell_length_c   14.63843900
_cell_angle_alpha   90.00000000
_cell_angle_beta   90.00000000
_cell_angle_gamma   90.00000000
_symmetry_Int_Tables_number   1
_chemical_formula_structural   H2C2N3
_chemical_formula_sum   'H16 C16 N24'
_cell_volume   740.58653074
_cell_formula_units_Z   8
loop_
 _symmetry_equiv_pos_site_id
 _symmetry_equiv_pos_as_xyz
  1  'x, y, z'
loop_
 _atom_site_type_symbol
 _atom_site_label
 _atom_site_symmetry_multiplicity
 _atom_site_fract_x
 _atom_site_fract_y
 _atom_site_fract_z
 _atom_site_occupancy
  H  H0  1  0.00452500  0.25000000  0.53774500  1
  H  H1  1  0.99547500  0.75000000  0.46225500  1
  H  H2  1  0.49547500  0.75000000  0.03774500  1
  H  H3  1  0.50452500  0.25000000  0.96225500  1
  H  H4  1  0.19823500  0.13558900  0.58596600  1
  H  H5  1  0.80176500  0.86441100  0.41403400  1
  H  H6  1  0.30176500  0.86441100  0.08596600  1
  H  H7  1  0.80176500  0.63558900  0.41403400  1
  H  H8  1  0.69823500  0.13558900  0.91403400  1
  H  H9  1  0.19823500  0.36441100  0.58596600  1
  H  H10  1  0.69823500  0.36441100  0.91403400  1
  H  H11  1  0.30176500  0.63558900  0.08596600  1
  H  H12  1  0.03392100  0.25000000  0.65100200  1
  H  H13  1  0.96607900  0.75000000  0.34899800  1
  H  H14  1  0.46607900  0.75000000  0.15100200  1
  H  H15  1  0.53392100  0.25000000  0.84899800  1
  C  C0  1  0.01153600  0.15785000  0.12105600  1
  C  C1  1  0.98846400  0.84215000  0.87894400  1
  C  C2  1  0.48846400  0.84215000  0.62105600  1
  C  C3  1  0.98846400  0.65785000  0.87894400  1
  C  C4  1  0.51153600  0.15785000  0.37894400  1
  C  C5  1  0.01153600  0.34215000  0.12105600  1
  C  C6  1  0.51153600  0.34215000  0.37894400  1
  C  C7  1  0.48846400  0.65785000  0.62105600  1
  C  C8  1  0.36185600  0.04567300  0.34369500  1
  C  C9  1  0.63814400  0.95432700  0.65630500  1
  C  C10  1  0.13814400  0.95432700  0.84369500  1
  C  C11  1  0.63814400  0.54567300  0.65630500  1
  C  C12  1  0.86185600  0.04567300  0.15630500  1
  C  C13  1  0.36185600  0.45432700  0.34369500  1
  C  C14  1  0.86185600  0.45432700  0.15630500  1
  C  C15  1  0.13814400  0.54567300  0.84369500  1
  N  N0  1  0.11177900  0.25000000  0.59015200  1
  N  N1  1  0.88822100  0.75000000  0.40984800  1
  N  N2  1  0.38822100  0.75000000  0.09015200  1
  N  N3  1  0.61177900  0.25000000  0.90984800  1
  N  N4  1  0.18362900  0.10463800  0.07924200  1
  N  N5  1  0.81637100  0.89536200  0.92075800  1
  N  N6  1  0.31637100  0.89536200  0.57924200  1
  N  N7  1  0.81637100  0.60463800  0.92075800  1
  N  N8  1  0.68362900  0.10463800  0.42075800  1
  N  N9  1  0.18362900  0.39536200  0.07924200  1
  N  N10  1  0.68362900  0.39536200  0.42075800  1
  N  N11  1  0.31637100  0.60463800  0.57924200  1
  N  N12  1  0.28289000  0.25000000  0.05496100  1
  N  N13  1  0.71711000  0.75000000  0.94503900  1
  N  N14  1  0.21711000  0.75000000  0.55496100  1
  N  N15  1  0.78289000  0.25000000  0.44503900  1
  N  N16  1  0.23155400  0.54032900  0.31442100  1
  N  N17  1  0.76844600  0.45967100  0.68557900  1
  N  N18  1  0.26844600  0.45967100  0.81442100  1
  N  N19  1  0.76844600  0.04032900  0.68557900  1
  N  N20  1  0.73155400  0.54032900  0.18557900  1
  N  N21  1  0.23155400  0.95967100  0.31442100  1
  N  N22  1  0.73155400  0.95967100  0.18557900  1
  N  N23  1  0.26844600  0.04032900  0.81442100  1
loop_
_geom_bond_atom_site_label_1
_geom_bond_atom_site_label_2
_geom_bond_distance
_geom_bond_site_symmetry_2
H0 N0 1.046881 1_555
H1 N1 1.046881 1_555
H2 N2 1.046881 1_555
H3 N3 1.046881 1_555
H4 N0 1.045469 1_555
H5 N1 1.045469 1_555
H6 N2 1.045469 1_555
H7 N1 1.045469 1_555
H8 N3 1.045469 1_555
H9 N0 1.045469 1_555
H10 N3 1.045469 1_555
H11 N2 1.045469 1_555
H12 N0 1.029966 1_555
H13 N1 1.029966 1_555
H14 N2 1.029966 1_555
H15 N3 1.029966 1_555
C0 N4 1.358439 1_555
C0 C5 1.403884 1_555
C0 C12 1.408788 1_455
C1 N5 1.358439 1_555
C1 C3 1.403884 1_555
C1 C10 1.408788 1_655
C2 N6 1.358439 1_555
C2 C7 1.403884 1_555
C2 C9 1.408788 1_555
C3 N7 1.358439 1_555
C4 N8 1.358439 1_555
C4 C6 1.403884 1_555
C4 C8 1.408788 1_555
C5 N9 1.358439 1_555
C6 N10 1.358439 1_555
C7 N11 1.358439 1_555
C8 N21 1.166942 1_545
C9 N19 1.166942 1_565
C10 N23 1.166942 1_565
C11 N17 1.166942 1_555
C11 C7 1.408788 1_555
C12 N22 1.166942 1_545
C13 N16 1.166942 1_555
C13 C6 1.408788 1_555
C14 N20 1.166942 1_555
C14 C5 1.408788 1_655
C15 N18 1.166942 1_555
C15 C3 1.408788 1_455
N10 N15 1.336794 1_555
N11 N14 1.336794 1_555
N12 N4 1.336794 1_555
N12 N9 1.336794 1_555
N13 N5 1.336794 1_555
N13 N7 1.336794 1_555
N14 N6 1.336794 1_555
N15 N8 1.336794 1_555
