# generated using pymatgen
data_ZrCuB
_symmetry_space_group_name_H-M   'P 1'
_cell_length_a   3.91354188
_cell_length_b   3.91354188
_cell_length_c   3.91354188
_cell_angle_alpha   60.00000000
_cell_angle_beta   60.00000000
_cell_angle_gamma   60.00000000
_symmetry_Int_Tables_number   1
_chemical_formula_structural   ZrCuB
_chemical_formula_sum   'Zr1 Cu1 B1'
_cell_volume   42.38331856
_cell_formula_units_Z   1
loop_
 _symmetry_equiv_pos_site_id
 _symmetry_equiv_pos_as_xyz
  1  'x, y, z'
loop_
 _atom_site_type_symbol
 _atom_site_label
 _atom_site_symmetry_multiplicity
 _atom_site_fract_x
 _atom_site_fract_y
 _atom_site_fract_z
 _atom_site_occupancy
  Zr  Zr0  1  0.50000000  0.50000000  0.50000000  1
  Cu  Cu0  1  0.00000000  0.00000000  0.00000000  1
  B  B0  1  0.75000000  0.75000000  0.75000000  1
loop_
_geom_bond_atom_site_label_1
_geom_bond_atom_site_label_2
_geom_bond_distance
_geom_bond_site_symmetry_2
Cu0 Zr0 2.767292 1_454
Cu0 Zr0 2.767292 1_544
Cu0 Zr0 2.767292 1_445
Cu0 Zr0 2.767292 1_545
Cu0 Zr0 2.767292 1_455
Cu0 Zr0 2.767292 1_554
B0 Cu0 2.396545 1_665
B0 Zr0 2.396545 1_565
B0 Zr0 2.396545 1_555
B0 Cu0 2.396545 1_666
B0 Zr0 2.396545 1_556
B0 Cu0 2.396545 1_656
B0 Zr0 2.396545 1_655
B0 Cu0 2.396545 1_566
