# generated using pymatgen
data_Sr4Mn2Cu3(SO)4
_symmetry_space_group_name_H-M   'P 1'
_cell_length_a   5.72531845
_cell_length_b   11.45016243
_cell_length_c   9.07627777
_cell_angle_alpha   89.99996427
_cell_angle_beta   108.38635082
_cell_angle_gamma   89.99998939
_symmetry_Int_Tables_number   1
_chemical_formula_structural   Sr4Mn2Cu3(SO)4
_chemical_formula_sum   'Sr8 Mn4 Cu6 S8 O8'
_cell_volume   564.62869271
_cell_formula_units_Z   2
loop_
 _symmetry_equiv_pos_site_id
 _symmetry_equiv_pos_as_xyz
  1  'x, y, z'
loop_
 _atom_site_type_symbol
 _atom_site_label
 _atom_site_symmetry_multiplicity
 _atom_site_fract_x
 _atom_site_fract_y
 _atom_site_fract_z
 _atom_site_occupancy
  Sr  Sr0  1  0.59864100  0.49888000  0.20078600  1
  Sr  Sr1  1  0.59864100  0.99887500  0.20078800  1
  Sr  Sr2  1  0.10215100  0.25112400  0.20078600  1
  Sr  Sr3  1  0.10215000  0.75112000  0.20078800  1
  Sr  Sr4  1  0.89785000  0.25112500  0.79921300  1
  Sr  Sr5  1  0.89785100  0.75111900  0.79921300  1
  Sr  Sr6  1  0.40135900  0.49888100  0.79921300  1
  Sr  Sr7  1  0.40136100  0.99887400  0.79921400  1
  Mn  Mn0  1  0.50000000  0.24909400  0.99999400  1
  Mn  Mn1  1  0.49999500  0.74909500  0.99999900  1
  Mn  Mn2  1  0.99999400  0.00090800  0.00000300  1
  Mn  Mn3  1  0.99999800  0.50091400  0.00000200  1
  Cu  Cu0  1  0.00000100  0.12500000  0.50000000  1
  Cu  Cu1  1  0.00000000  0.62500000  0.50000000  1
  Cu  Cu2  1  0.50000100  0.62499800  0.50000000  1
  Cu  Cu3  1  0.00000100  0.37499500  0.50000100  1
  Cu  Cu4  1  0.00000000  0.87500700  0.50000000  1
  Cu  Cu5  1  0.50000000  0.12499800  0.50000100  1
  S  S0  1  0.83186300  0.00195400  0.65559500  1
  S  S1  1  0.83186900  0.50195300  0.65560100  1
  S  S2  1  0.32373000  0.24804600  0.65560100  1
  S  S3  1  0.32372800  0.74804700  0.65560500  1
  S  S4  1  0.67627000  0.24804600  0.34439900  1
  S  S5  1  0.67627300  0.74804700  0.34439400  1
  S  S6  1  0.16813800  0.00195400  0.34440500  1
  S  S7  1  0.16813100  0.50195400  0.34439900  1
  O  O0  1  0.25156400  0.12498700  0.00319800  1
  O  O1  1  0.25156200  0.62498600  0.00319800  1
  O  O2  1  0.74843700  0.12498700  0.99680100  1
  O  O3  1  0.74843800  0.62498600  0.99680300  1
  O  O4  1  0.74996700  0.37501500  0.99987000  1
  O  O5  1  0.74996800  0.87500900  0.99986900  1
  O  O6  1  0.25003400  0.37501500  0.00013100  1
  O  O7  1  0.25003300  0.87501000  0.00013100  1
loop_
_geom_bond_atom_site_label_1
_geom_bond_atom_site_label_2
_geom_bond_distance
_geom_bond_site_symmetry_2
Mn0 O2 2.017271 1_555
Mn0 O0 2.017291 1_556
Mn0 O4 2.031752 1_555
Mn0 O6 2.031774 1_556
Mn0 S2 2.966353 1_555
Mn0 S4 2.966456 1_556
Mn1 O1 2.017284 1_556
Mn1 O3 2.017318 1_555
Mn1 O7 2.031699 1_556
Mn1 O5 2.031731 1_555
Mn1 S3 2.966362 1_555
Mn1 S5 2.966371 1_556
Mn2 O2 2.016730 1_554
Mn2 O0 2.016797 1_655
Mn2 O5 2.031291 1_544
Mn2 O7 2.031347 1_645
Mn2 S6 2.966431 1_655
Mn2 S0 2.966483 1_554
Mn3 O3 2.016691 1_554
Mn3 O1 2.016714 1_655
Mn3 O4 2.031315 1_554
Mn3 O6 2.031341 1_655
Mn3 S7 2.966388 1_655
Mn3 S1 2.966423 1_554
Cu0 S2 2.400731 1_555
Cu0 S4 2.400736 1_455
Cu0 S6 2.400760 1_555
Cu0 S0 2.400762 1_455
Cu1 S5 2.400745 1_455
Cu1 S3 2.400747 1_555
Cu1 S7 2.400779 1_555
Cu1 S1 2.400785 1_455
Cu2 S1 2.428345 1_555
Cu2 S7 2.428347 1_555
Cu2 S3 2.428458 1_555
Cu2 S5 2.428461 1_555
Cu3 S2 2.427223 1_555
Cu3 S4 2.427237 1_455
Cu3 S1 2.427333 1_455
Cu3 S7 2.427346 1_555
Cu4 S0 2.427242 1_465
Cu4 S6 2.427245 1_565
Cu4 S3 2.427311 1_555
Cu4 S5 2.427312 1_455
Cu5 S0 2.428300 1_555
Cu5 S6 2.428304 1_555
Cu5 S2 2.428409 1_555
Cu5 S4 2.428421 1_555
S0 Sr7 3.106513 1_645
S0 Sr4 3.109840 1_555
S0 Sr5 3.127328 1_545
S0 Sr7 3.130863 1_545
S1 Sr6 3.106464 1_655
S1 Sr5 3.109768 1_555
S1 Sr4 3.127234 1_555
S1 Sr6 3.130862 1_555
S2 Sr4 3.106530 1_455
S2 Sr7 3.109832 1_545
S2 Sr6 3.127308 1_555
S2 Sr4 3.130797 1_555
S3 Sr5 3.106490 1_455
S3 Sr6 3.109752 1_555
S3 Sr7 3.127214 1_555
S3 Sr5 3.130809 1_555
S4 Sr2 3.106542 1_655
S4 Sr1 3.109816 1_545
S4 Sr0 3.127300 1_555
S4 Sr2 3.130793 1_555
S5 Sr3 3.106478 1_655
S5 Sr0 3.109764 1_555
S5 Sr1 3.127213 1_555
S5 Sr3 3.130808 1_555
S6 Sr1 3.106506 1_445
S6 Sr2 3.109832 1_555
S6 Sr3 3.127315 1_545
S6 Sr1 3.130856 1_545
S7 Sr0 3.106465 1_455
S7 Sr3 3.109762 1_555
S7 Sr2 3.127260 1_555
S7 Sr0 3.130868 1_555
O0 Sr2 2.646070 1_555
O0 Sr1 2.646110 1_545
O0 Sr4 2.692514 1_454
O0 Sr7 2.692608 1_544
O1 Sr3 2.646062 1_555
O1 Sr0 2.646071 1_555
O1 Sr5 2.692474 1_454
O1 Sr6 2.692566 1_554
O2 Sr4 2.646075 1_555
O2 Sr7 2.646103 1_545
O2 Sr2 2.692510 1_656
O2 Sr1 2.692620 1_546
O3 Sr5 2.646058 1_555
O3 Sr6 2.646074 1_555
O3 Sr3 2.692485 1_656
O3 Sr0 2.692557 1_556
O4 Sr4 2.649296 1_555
O4 Sr6 2.649312 1_555
O4 Sr2 2.661554 1_656
O4 Sr0 2.661621 1_556
O5 Sr5 2.649289 1_555
O5 Sr7 2.649295 1_555
O5 Sr3 2.661547 1_656
O5 Sr1 2.661652 1_556
O6 Sr2 2.649287 1_555
O6 Sr0 2.649296 1_555
O6 Sr4 2.661557 1_454
O6 Sr6 2.661638 1_554
O7 Sr3 2.649295 1_555
O7 Sr1 2.649308 1_555
O7 Sr5 2.661557 1_454
O7 Sr7 2.661628 1_554
