# generated using pymatgen
data_Ba3Li
_symmetry_space_group_name_H-M   'P 1'
_cell_length_a   7.68765028
_cell_length_b   7.68765028
_cell_length_c   7.68765028
_cell_angle_alpha   135.56098581
_cell_angle_beta   135.56098581
_cell_angle_gamma   64.65979320
_symmetry_Int_Tables_number   1
_chemical_formula_structural   Ba3Li
_chemical_formula_sum   'Ba3 Li1'
_cell_volume   219.59918938
_cell_formula_units_Z   1
loop_
 _symmetry_equiv_pos_site_id
 _symmetry_equiv_pos_as_xyz
  1  'x, y, z'
loop_
 _atom_site_type_symbol
 _atom_site_label
 _atom_site_symmetry_multiplicity
 _atom_site_fract_x
 _atom_site_fract_y
 _atom_site_fract_z
 _atom_site_occupancy
  Ba  Ba0  1  0.75000000  0.25000000  0.50000000  1
  Ba  Ba1  1  0.25000000  0.75000000  0.50000000  1
  Ba  Ba2  1  0.50000000  0.50000000  0.00000000  1
  Li  Li0  1  0.00000000  0.00000000  0.00000000  1
loop_
_geom_bond_atom_site_label_1
_geom_bond_atom_site_label_2
_geom_bond_distance
_geom_bond_site_symmetry_2
Ba0 Ba1 4.111304 1_656
Ba0 Ba1 4.111304 1_645
Ba0 Ba1 4.111304 1_555
Ba0 Ba1 4.111304 1_544
Ba0 Ba2 4.358979 1_555
Ba0 Ba2 4.358979 1_545
Ba0 Ba2 4.358979 1_656
Ba0 Ba2 4.358979 1_556
Ba1 Ba2 4.358979 1_555
Ba1 Ba2 4.358979 1_566
Ba1 Ba2 4.358979 1_455
Ba1 Ba2 4.358979 1_556
Ba2 Li0 4.111304 1_554
Ba2 Li0 4.111304 1_565
Ba2 Li0 4.111304 1_655
Ba2 Li0 4.111304 1_666
