# generated using pymatgen
data_BaSn2S3
_symmetry_space_group_name_H-M   'P 1'
_cell_length_a   4.27357500
_cell_length_b   13.15565976
_cell_length_c   11.98474844
_cell_angle_alpha   90.60913042
_cell_angle_beta   90.00000000
_cell_angle_gamma   90.00000000
_symmetry_Int_Tables_number   1
_chemical_formula_structural   BaSn2S3
_chemical_formula_sum   'Ba4 Sn8 S12'
_cell_volume   673.76483703
_cell_formula_units_Z   4
loop_
 _symmetry_equiv_pos_site_id
 _symmetry_equiv_pos_as_xyz
  1  'x, y, z'
loop_
 _atom_site_type_symbol
 _atom_site_label
 _atom_site_symmetry_multiplicity
 _atom_site_fract_x
 _atom_site_fract_y
 _atom_site_fract_z
 _atom_site_occupancy
  Ba  Ba0  1  0.25000000  0.14646200  0.60823900  1
  Ba  Ba1  1  0.25000000  0.47703900  0.61413400  1
  Ba  Ba2  1  0.25000000  0.80908600  0.60995200  1
  Ba  Ba3  1  0.25000000  0.02357300  0.09523300  1
  Sn  Sn0  1  0.25000000  0.36624600  0.12511100  1
  Sn  Sn1  1  0.25000000  0.70046700  0.12158800  1
  Sn  Sn2  1  0.75000000  0.21083100  0.35696700  1
  Sn  Sn3  1  0.75000000  0.53961000  0.35887500  1
  Sn  Sn4  1  0.75000000  0.87153200  0.36721000  1
  Sn  Sn5  1  0.75000000  0.29546700  0.87188500  1
  Sn  Sn6  1  0.75000000  0.62495700  0.87311900  1
  Sn  Sn7  1  0.75000000  0.96173700  0.86205100  1
  S  S0  1  0.25000000  0.16488400  0.87369300  1
  S  S1  1  0.25000000  0.49713300  0.87573100  1
  S  S2  1  0.25000000  0.83597400  0.87848800  1
  S  S3  1  0.25000000  0.99575900  0.36899800  1
  S  S4  1  0.25000000  0.34229100  0.35797100  1
  S  S5  1  0.25000000  0.67038000  0.34835800  1
  S  S6  1  0.75000000  0.18956100  0.15303700  1
  S  S7  1  0.75000000  0.50392000  0.15327600  1
  S  S8  1  0.75000000  0.83740500  0.15651600  1
  S  S9  1  0.75000000  0.97837900  0.65477100  1
  S  S10  1  0.75000000  0.31172100  0.65703800  1
  S  S11  1  0.75000000  0.64558700  0.65775500  1
loop_
_geom_bond_atom_site_label_1
_geom_bond_atom_site_label_2
_geom_bond_distance
_geom_bond_site_symmetry_2
Ba0 S10 3.099603 1_555
Ba0 S10 3.099603 1_455
Ba0 S9 3.129325 1_545
Ba0 S9 3.129325 1_445
Ba0 S0 3.188047 1_555
Ba0 S3 3.468560 1_545
Ba1 S10 3.095817 1_555
Ba1 S10 3.095817 1_455
Ba1 S11 3.119488 1_455
Ba1 S11 3.119488 1_555
Ba1 S1 3.143498 1_555
Ba1 S4 3.528732 1_555
Ba1 Sn3 3.828289 1_455
Ba1 Sn3 3.828289 1_555
Ba2 S11 3.089792 1_455
Ba2 S11 3.089792 1_555
Ba2 S9 3.128769 1_555
Ba2 S9 3.128769 1_455
Ba2 S2 3.233977 1_555
Ba2 S5 3.610711 1_555
Ba2 Sn4 3.708777 1_455
Ba2 Sn4 3.708777 1_555
Ba2 S3 3.810644 1_555
Ba3 S6 3.127633 1_455
Ba3 S6 3.127633 1_555
Ba3 S0 3.257382 1_554
Ba3 S3 3.305209 1_545
Ba3 S8 3.337954 1_545
Ba3 S8 3.337954 1_445
Ba3 S2 3.564037 1_544
Ba3 Sn7 3.604059 1_544
Ba3 Sn7 3.604059 1_444
S0 Sn5 2.741956 1_555
S0 Sn5 2.741956 1_455
S1 Sn6 2.719516 1_555
S1 Sn6 2.719516 1_455
S2 Sn7 2.710895 1_455
S2 Sn7 2.710895 1_555
S3 Sn4 2.690069 1_555
S3 Sn4 2.690069 1_455
S4 Sn2 2.748915 1_455
S4 Sn2 2.748915 1_555
S4 Sn0 2.811833 1_555
S5 Sn3 2.747001 1_555
S5 Sn3 2.747001 1_455
S5 Sn1 2.750614 1_555
S6 Sn2 2.457059 1_555
S7 Sn3 2.503479 1_555
S7 Sn0 2.819081 1_555
S7 Sn0 2.819081 1_655
S8 Sn4 2.560013 1_555
S8 Sn1 2.823206 1_655
S8 Sn1 2.823206 1_555
S9 Sn7 2.496145 1_555
S10 Sn5 2.586015 1_555
S11 Sn6 2.598181 1_555
