# generated using pymatgen
data_HfReSi
_symmetry_space_group_name_H-M   'P 1'
_cell_length_a   6.96676434
_cell_length_b   6.96676434
_cell_length_c   3.40514800
_cell_angle_alpha   90.00000000
_cell_angle_beta   90.00000000
_cell_angle_gamma   120.00000324
_symmetry_Int_Tables_number   1
_chemical_formula_structural   HfReSi
_chemical_formula_sum   'Hf3 Re3 Si3'
_cell_volume   143.12940000
_cell_formula_units_Z   3
loop_
 _symmetry_equiv_pos_site_id
 _symmetry_equiv_pos_as_xyz
  1  'x, y, z'
loop_
 _atom_site_type_symbol
 _atom_site_label
 _atom_site_symmetry_multiplicity
 _atom_site_fract_x
 _atom_site_fract_y
 _atom_site_fract_z
 _atom_site_occupancy
  Hf  Hf0  1  0.40459800  0.40459800  0.50000000  1
  Hf  Hf1  1  0.59540200  0.00000000  0.50000000  1
  Hf  Hf2  1  0.00000000  0.59540200  0.50000000  1
  Re  Re0  1  0.74401400  0.74401400  0.00000000  1
  Re  Re1  1  0.25598600  0.00000000  0.00000000  1
  Re  Re2  1  0.00000000  0.25598600  0.00000000  1
  Si  Si0  1  0.66666700  0.33333300  0.00000000  1
  Si  Si1  1  0.33333300  0.66666700  0.00000000  1
  Si  Si2  1  0.00000000  0.00000000  0.50000000  1
loop_
_geom_bond_atom_site_label_1
_geom_bond_atom_site_label_2
_geom_bond_distance
_geom_bond_site_symmetry_2
Hf0 Si0 2.717568 1_555
Hf0 Si1 2.717568 1_555
Hf0 Si1 2.717568 1_556
Hf0 Si0 2.717568 1_556
Hf0 Si2 2.818739 1_555
Hf0 Re0 2.913801 1_556
Hf0 Re0 2.913801 1_555
Hf0 Re1 2.999603 1_555
Hf0 Re1 2.999603 1_556
Hf0 Re2 2.999603 1_556
Hf0 Re2 2.999603 1_555
Hf1 Si0 2.717563 1_556
Hf1 Si0 2.717563 1_555
Hf1 Si1 2.717564 1_545
Hf1 Si1 2.717564 1_546
Hf1 Si2 2.818739 1_655
Hf1 Re1 2.913802 1_556
Hf1 Re1 2.913802 1_555
Hf1 Re2 2.999603 1_655
Hf1 Re2 2.999603 1_656
Hf1 Re0 2.999603 1_545
Hf1 Re0 2.999603 1_546
Hf2 Si1 2.717563 1_555
Hf2 Si1 2.717563 1_556
Hf2 Si0 2.717564 1_456
Hf2 Si0 2.717564 1_455
Hf2 Si2 2.818739 1_565
Hf2 Re2 2.913802 1_556
Hf2 Re2 2.913802 1_555
Hf2 Re1 2.999603 1_565
Hf2 Re1 2.999603 1_566
Hf2 Re0 2.999603 1_455
Hf2 Re0 2.999603 1_456
Re0 Si2 2.465614 1_664
Re0 Si2 2.465614 1_665
Re0 Si0 2.633368 1_555
Re0 Si1 2.633368 1_555
Re1 Si2 2.465614 1_555
Re1 Si2 2.465614 1_554
Re1 Si1 2.633361 1_545
Re1 Si0 2.633365 1_555
Re2 Si2 2.465614 1_555
Re2 Si2 2.465614 1_554
Re2 Si0 2.633361 1_455
Re2 Si1 2.633365 1_555
