# generated using pymatgen
data_MgCrGaS4
_symmetry_space_group_name_H-M   'P 1'
_cell_length_a   7.26832859
_cell_length_b   7.28257706
_cell_length_c   7.28245492
_cell_angle_alpha   59.88811832
_cell_angle_beta   60.06395678
_cell_angle_gamma   60.06457536
_symmetry_Int_Tables_number   1
_chemical_formula_structural   MgCrGaS4
_chemical_formula_sum   'Mg2 Cr2 Ga2 S8'
_cell_volume   272.60534136
_cell_formula_units_Z   2
loop_
 _symmetry_equiv_pos_site_id
 _symmetry_equiv_pos_as_xyz
  1  'x, y, z'
loop_
 _atom_site_type_symbol
 _atom_site_label
 _atom_site_symmetry_multiplicity
 _atom_site_fract_x
 _atom_site_fract_y
 _atom_site_fract_z
 _atom_site_occupancy
  Mg  Mg0  1  0.87442728  0.87557768  0.87557797  1
  Mg  Mg1  1  0.12559197  0.12441768  0.12441555  1
  Cr  Cr0  1  0.50001675  0.50001071  -0.00002822  1
  Cr  Cr1  1  0.49999200  -0.00004266  0.50003255  1
  Ga  Ga0  1  0.50001737  0.50001055  0.49998750  1
  Ga  Ga1  1  -0.00002239  0.50001340  0.50004376  1
  S  S0  1  0.73135798  0.74037184  0.74037070  1
  S  S1  1  0.26569551  0.25501680  0.71360526  1
  S  S2  1  0.26569750  0.71361329  0.25500481  1
  S  S3  1  0.71213569  0.25963278  0.25962082  1
  S  S4  1  0.73430520  0.28638144  0.74499335  1
  S  S5  1  0.28786259  0.74036833  0.74038380  1
  S  S6  1  0.26859255  0.25961485  0.25962625  1
  S  S7  1  0.73433398  0.74500834  0.28636689  1
loop_
_geom_bond_atom_site_label_1
_geom_bond_atom_site_label_2
_geom_bond_distance
_geom_bond_site_symmetry_2
Mg0 S7 2.441772 1_556
Mg0 S4 2.441916 1_565
Mg0 S5 2.456746 1_655
Mg0 S0 2.457035 1_555
Mg1 S1 2.441896 1_554
Mg1 S2 2.441919 1_545
Mg1 S6 2.456593 1_555
Mg1 S3 2.456870 1_455
Cr0 S4 2.422145 1_554
Cr0 S2 2.422307 1_555
Cr0 S0 2.431027 1_554
Cr0 S5 2.431214 1_554
Cr0 S3 2.431373 1_555
Cr0 S6 2.431625 1_555
Cr1 S7 2.422174 1_545
Cr1 S1 2.422310 1_555
Cr1 S0 2.431031 1_545
Cr1 S5 2.431101 1_545
Cr1 S6 2.431565 1_555
Cr1 S3 2.431637 1_555
Ga0 S4 2.471205 1_555
Ga0 S2 2.471265 1_555
Ga0 S7 2.471323 1_555
Ga0 S1 2.471330 1_555
Ga0 S3 2.488581 1_555
Ga0 S5 2.488611 1_555
Ga1 S1 2.471170 1_555
Ga1 S4 2.471251 1_455
Ga1 S7 2.471325 1_455
Ga1 S2 2.471362 1_555
Ga1 S0 2.488290 1_455
Ga1 S6 2.488920 1_555
