# generated using pymatgen
data_V5B6
_symmetry_space_group_name_H-M   'P 1'
_cell_length_a   2.96752672
_cell_length_b   3.03389158
_cell_length_c   10.68319602
_cell_angle_alpha   90.00000000
_cell_angle_beta   97.98347558
_cell_angle_gamma   90.00000000
_symmetry_Int_Tables_number   1
_chemical_formula_structural   V5B6
_chemical_formula_sum   'V5 B6'
_cell_volume   95.25027806
_cell_formula_units_Z   1
loop_
 _symmetry_equiv_pos_site_id
 _symmetry_equiv_pos_as_xyz
  1  'x, y, z'
loop_
 _atom_site_type_symbol
 _atom_site_label
 _atom_site_symmetry_multiplicity
 _atom_site_fract_x
 _atom_site_fract_y
 _atom_site_fract_z
 _atom_site_occupancy
  V  V0  1  0.80573521  0.50000000  0.61146841  1
  V  V1  1  0.19426479  0.50000000  0.38853059  1
  V  V2  1  0.61677036  -0.00000000  0.23354172  1
  V  V3  1  0.38322964  0.00000000  0.76645828  1
  V  V4  1  0.00000000  0.00000000  0.00000000  1
  B  B0  1  0.91500336  0.50000000  0.83000772  1
  B  B1  1  0.08499664  0.50000000  0.16999228  1
  B  B2  1  0.54084396  0.50000000  0.08168792  1
  B  B3  1  0.45915604  0.50000000  0.91831208  1
  B  B4  1  0.72608986  0.00000000  0.45217973  1
  B  B5  1  0.27391014  0.00000000  0.54782027  1
loop_
_geom_bond_atom_site_label_1
_geom_bond_atom_site_label_2
_geom_bond_distance
_geom_bond_site_symmetry_2
B0 B3 1.753378 1_555
B0 B3 1.753381 1_655
B0 V3 2.225915 1_565
B0 V3 2.225915 1_555
B0 V3 2.225919 1_665
B0 V3 2.225919 1_655
B0 V0 2.312071 1_555
B0 V4 2.352782 1_656
B0 V4 2.352782 1_666
B1 B2 1.753378 1_555
B1 B2 1.753381 1_455
B1 V2 2.225915 1_555
B1 V2 2.225915 1_565
B1 V2 2.225919 1_455
B1 V2 2.225919 1_465
B1 V1 2.312060 1_555
B1 V4 2.352782 1_565
B1 V4 2.352782 1_555
B2 B3 1.728460 1_554
B2 V2 2.209562 1_555
B2 V2 2.209562 1_565
B2 V4 2.291194 1_665
B2 V4 2.291194 1_655
B2 V4 2.291194 1_555
B2 V4 2.291194 1_565
B3 V3 2.209562 1_555
B3 V3 2.209562 1_565
B3 V4 2.291194 1_556
B3 V4 2.291194 1_566
B3 V4 2.291194 1_656
B3 V4 2.291194 1_666
B4 B5 1.795935 1_555
B4 B5 1.795935 1_655
B4 V1 2.226235 1_655
B4 V1 2.226235 1_645
B4 V1 2.226237 1_555
B4 V1 2.226237 1_545
B4 V0 2.267397 1_545
B4 V0 2.267397 1_555
B4 V2 2.313115 1_555
B5 V0 2.226231 1_445
B5 V0 2.226231 1_455
B5 V0 2.226235 1_545
B5 V0 2.226235 1_555
B5 V1 2.267405 1_545
B5 V1 2.267405 1_555
B5 V3 2.313115 1_555
