# generated using pymatgen
data_CeInCu
_symmetry_space_group_name_H-M   'P 1'
_cell_length_a   3.51186400
_cell_length_b   4.76565805
_cell_length_c   4.76811307
_cell_angle_alpha   120.02460341
_cell_angle_beta   90.00000000
_cell_angle_gamma   90.00000000
_symmetry_Int_Tables_number   1
_chemical_formula_structural   CeInCu
_chemical_formula_sum   'Ce1 In1 Cu1'
_cell_volume   69.09235884
_cell_formula_units_Z   1
loop_
 _symmetry_equiv_pos_site_id
 _symmetry_equiv_pos_as_xyz
  1  'x, y, z'
loop_
 _atom_site_type_symbol
 _atom_site_label
 _atom_site_symmetry_multiplicity
 _atom_site_fract_x
 _atom_site_fract_y
 _atom_site_fract_z
 _atom_site_occupancy
  Ce  Ce0  1  0.00000000  0.99956600  0.99983100  1
  In  In0  1  0.50000000  0.66663900  0.33333300  1
  Cu  Cu0  1  0.50000000  0.33369500  0.66683600  1
loop_
_geom_bond_atom_site_label_1
_geom_bond_atom_site_label_2
_geom_bond_distance
_geom_bond_site_symmetry_2
Ce0 Cu0 3.260673 1_455
Ce0 Cu0 3.260673 1_555
Ce0 In0 3.264050 1_455
Ce0 In0 3.264050 1_555
Ce0 In0 3.264074 1_556
Ce0 In0 3.264074 1_456
Ce0 In0 3.264853 1_466
Ce0 In0 3.264853 1_566
Ce0 Cu0 3.265812 1_466
Ce0 Cu0 3.265812 1_566
Ce0 Cu0 3.266492 1_565
Ce0 Cu0 3.266492 1_465
Cu0 In0 2.751490 1_556
Cu0 In0 2.751598 1_555
Cu0 In0 2.752378 1_545
