# generated using pymatgen
data_EuSi3Ni
_symmetry_space_group_name_H-M   'P 1'
_cell_length_a   5.71920095
_cell_length_b   5.71920095
_cell_length_c   5.71920095
_cell_angle_alpha   137.71930484
_cell_angle_beta   137.71930484
_cell_angle_gamma   61.33316924
_symmetry_Int_Tables_number   1
_chemical_formula_structural   EuSi3Ni
_chemical_formula_sum   'Eu1 Si3 Ni1'
_cell_volume   83.71841222
_cell_formula_units_Z   1
loop_
 _symmetry_equiv_pos_site_id
 _symmetry_equiv_pos_as_xyz
  1  'x, y, z'
loop_
 _atom_site_type_symbol
 _atom_site_label
 _atom_site_symmetry_multiplicity
 _atom_site_fract_x
 _atom_site_fract_y
 _atom_site_fract_z
 _atom_site_occupancy
  Eu  Eu0  1  0.00000000  0.00000000  0.00000000  1
  Si  Si0  1  0.62435300  0.62435300  0.00000000  1
  Si  Si1  1  0.37564700  0.37564700  0.00000000  1
  Si  Si2  1  0.75000000  0.25000000  0.50000000  1
  Ni  Ni0  1  0.25000000  0.75000000  0.50000000  1
loop_
_geom_bond_atom_site_label_1
_geom_bond_atom_site_label_2
_geom_bond_distance
_geom_bond_site_symmetry_2
Eu0 Si0 3.163219 1_455
Eu0 Si0 3.163219 1_444
Eu0 Si0 3.163219 1_545
Eu0 Si0 3.163219 1_556
Eu0 Si1 3.163219 1_545
Eu0 Si1 3.163219 1_455
Eu0 Si1 3.163219 1_444
Eu0 Si1 3.163219 1_556
Eu0 Ni0 3.210075 1_545
Eu0 Si2 3.210075 1_555
Eu0 Si2 3.210075 1_455
Eu0 Si2 3.210075 1_444
Eu0 Si2 3.210075 1_454
Eu0 Ni0 3.210075 1_544
Eu0 Ni0 3.210075 1_444
Eu0 Ni0 3.210075 1_555
Si0 Si2 2.404733 1_565
Si0 Si2 2.404733 1_554
Si0 Si1 2.446954 1_555
Si1 Si2 2.404733 1_555
Si1 Si2 2.404733 1_454
Ni0 Si1 2.404733 1_555
Ni0 Si1 2.404733 1_566
Ni0 Si0 2.404733 1_556
Ni0 Si0 2.404733 1_455
Ni0 Si2 2.917029 1_465
Ni0 Si2 2.917029 1_566
Ni0 Si2 2.917029 1_555
Ni0 Si2 2.917029 1_454
