# generated using pymatgen
data_FeCoPt2
_symmetry_space_group_name_H-M   'P 1'
_cell_length_a   17.49452604
_cell_length_b   17.49452604
_cell_length_c   17.49452512
_cell_angle_alpha   17.61502296
_cell_angle_beta   17.61502296
_cell_angle_gamma   17.61502821
_symmetry_Int_Tables_number   1
_chemical_formula_structural   FeCoPt2
_chemical_formula_sum   'Fe8 Co8 Pt16'
_cell_volume   427.99504961
_cell_formula_units_Z   8
loop_
 _symmetry_equiv_pos_site_id
 _symmetry_equiv_pos_as_xyz
  1  'x, y, z'
loop_
 _atom_site_type_symbol
 _atom_site_label
 _atom_site_symmetry_multiplicity
 _atom_site_fract_x
 _atom_site_fract_y
 _atom_site_fract_z
 _atom_site_occupancy
  Fe  Fe0_0  1  0.37172650  0.37172650  0.37172650  1
  Fe  Fe0_1  1  0.37172650  0.37172650  0.87172650  1
  Fe  Fe0_2  1  0.37172650  0.87172650  0.37172650  1
  Fe  Fe0_3  1  0.37172650  0.87172650  0.87172650  1
  Fe  Fe0_4  1  0.87172650  0.37172650  0.37172650  1
  Fe  Fe0_5  1  0.87172650  0.37172650  0.87172650  1
  Fe  Fe0_6  1  0.87172650  0.87172650  0.37172650  1
  Fe  Fe0_7  1  0.87172650  0.87172650  0.87172650  1
  Co  Co0_0  1  0.00357400  0.00357400  0.00357400  1
  Co  Co0_1  1  0.00357400  0.00357400  0.50357400  1
  Co  Co0_2  1  0.00357400  0.50357400  0.00357400  1
  Co  Co0_3  1  0.00357400  0.50357400  0.50357400  1
  Co  Co0_4  1  0.50357400  0.00357400  0.00357400  1
  Co  Co0_5  1  0.50357400  0.00357400  0.50357400  1
  Co  Co0_6  1  0.50357400  0.50357400  0.00357400  1
  Co  Co0_7  1  0.50357400  0.50357400  0.50357400  1
  Pt  Pt0_0  1  0.24647250  0.24647250  0.24647250  1
  Pt  Pt0_1  1  0.24647250  0.24647250  0.74647250  1
  Pt  Pt0_2  1  0.24647250  0.74647250  0.24647250  1
  Pt  Pt0_3  1  0.24647250  0.74647250  0.74647250  1
  Pt  Pt0_4  1  0.74647250  0.24647250  0.24647250  1
  Pt  Pt0_5  1  0.74647250  0.24647250  0.74647250  1
  Pt  Pt0_6  1  0.74647250  0.74647250  0.24647250  1
  Pt  Pt0_7  1  0.74647250  0.74647250  0.74647250  1
  Pt  Pt1_0  1  0.12822650  0.12822650  0.12822650  1
  Pt  Pt1_1  1  0.12822650  0.12822650  0.62822650  1
  Pt  Pt1_2  1  0.12822650  0.62822650  0.12822650  1
  Pt  Pt1_3  1  0.12822650  0.62822650  0.62822650  1
  Pt  Pt1_4  1  0.62822650  0.12822650  0.12822650  1
  Pt  Pt1_5  1  0.62822650  0.12822650  0.62822650  1
  Pt  Pt1_6  1  0.62822650  0.62822650  0.12822650  1
  Pt  Pt1_7  1  0.62822650  0.62822650  0.62822650  1
loop_
_geom_bond_atom_site_label_1
_geom_bond_atom_site_label_2
_geom_bond_distance
_geom_bond_site_symmetry_2
Fe0_0 Pt0_1 2.639724 1_555
Fe0_0 Pt0_4 2.639725 1_555
Fe0_0 Pt0_2 2.639725 1_555
Fe0_0 Fe0_5 2.678681 1_554
Fe0_0 Fe0_5 2.678681 1_455
Fe0_0 Fe0_3 2.678681 1_545
Fe0_0 Fe0_3 2.678681 1_554
Fe0_0 Fe0_6 2.678682 1_455
Fe0_0 Fe0_6 2.678682 1_545
Fe0_1 Pt0_0 2.639724 1_556
Fe0_1 Pt0_5 2.639725 1_555
Fe0_1 Pt0_3 2.639725 1_555
Fe0_1 Fe0_2 2.678681 1_546
Fe0_1 Fe0_4 2.678681 1_456
Fe0_1 Fe0_2 2.678681 1_555
Fe0_1 Fe0_4 2.678681 1_555
Fe0_1 Fe0_7 2.678682 1_455
Fe0_1 Fe0_7 2.678682 1_545
Fe0_2 Pt0_3 2.639724 1_555
Fe0_2 Pt0_0 2.639725 1_565
Fe0_2 Pt0_6 2.639725 1_555
Fe0_2 Fe0_7 2.678681 1_554
Fe0_2 Fe0_7 2.678681 1_455
Fe0_2 Fe0_4 2.678682 1_555
Fe0_2 Fe0_4 2.678682 1_465
Fe0_3 Pt0_2 2.639724 1_556
Fe0_3 Pt0_1 2.639725 1_565
Fe0_3 Pt0_7 2.639725 1_555
Fe0_3 Fe0_6 2.678681 1_456
Fe0_3 Fe0_6 2.678681 1_555
Fe0_3 Fe0_5 2.678682 1_465
Fe0_3 Fe0_5 2.678682 1_555
Fe0_4 Pt0_5 2.639724 1_555
Fe0_4 Pt0_0 2.639725 1_655
Fe0_4 Pt0_6 2.639725 1_555
Fe0_4 Fe0_7 2.678681 1_554
Fe0_4 Fe0_7 2.678681 1_545
Fe0_5 Pt0_4 2.639724 1_556
Fe0_5 Pt0_1 2.639725 1_655
Fe0_5 Pt0_7 2.639725 1_555
Fe0_5 Fe0_6 2.678681 1_546
Fe0_5 Fe0_6 2.678681 1_555
Fe0_6 Pt0_7 2.639724 1_555
Fe0_6 Pt0_4 2.639725 1_565
Fe0_6 Pt0_2 2.639725 1_655
Fe0_7 Pt0_6 2.639724 1_556
Fe0_7 Pt0_3 2.639725 1_655
Fe0_7 Pt0_5 2.639725 1_565
Co0_0 Fe0_6 2.372109 1_445
Co0_0 Fe0_3 2.372110 1_544
Co0_0 Fe0_5 2.372110 1_454
Co0_0 Pt1_1 2.664967 1_554
Co0_0 Pt1_2 2.664967 1_545
Co0_0 Pt1_4 2.664967 1_455
Co0_0 Co0_5 2.678681 1_554
Co0_0 Co0_3 2.678681 1_554
Co0_0 Co0_3 2.678681 1_545
Co0_0 Co0_5 2.678681 1_455
Co0_0 Co0_6 2.678682 1_545
Co0_0 Co0_6 2.678682 1_455
Co0_1 Fe0_7 2.372109 1_445
Co0_1 Fe0_4 2.372110 1_455
Co0_1 Fe0_2 2.372110 1_545
Co0_1 Pt1_0 2.664967 1_555
Co0_1 Pt1_5 2.664967 1_455
Co0_1 Pt1_3 2.664967 1_545
Co0_1 Co0_4 2.678681 1_456
Co0_1 Co0_2 2.678681 1_546
Co0_1 Co0_2 2.678681 1_555
Co0_1 Co0_4 2.678681 1_555
Co0_1 Co0_7 2.678682 1_545
Co0_1 Co0_7 2.678682 1_455
Co0_2 Fe0_4 2.372109 1_455
Co0_2 Fe0_1 2.372110 1_554
Co0_2 Fe0_7 2.372110 1_454
Co0_2 Pt1_3 2.664967 1_554
Co0_2 Pt1_6 2.664967 1_455
Co0_2 Pt1_0 2.664967 1_555
Co0_2 Co0_7 2.678681 1_554
Co0_2 Co0_7 2.678681 1_455
Co0_2 Co0_4 2.678682 1_465
Co0_2 Co0_4 2.678682 1_555
Co0_3 Fe0_5 2.372109 1_455
Co0_3 Fe0_0 2.372110 1_555
Co0_3 Fe0_6 2.372110 1_455
Co0_3 Pt1_2 2.664967 1_555
Co0_3 Pt1_1 2.664967 1_555
Co0_3 Pt1_7 2.664967 1_455
Co0_3 Co0_6 2.678681 1_456
Co0_3 Co0_6 2.678681 1_555
Co0_3 Co0_5 2.678682 1_555
Co0_3 Co0_5 2.678682 1_465
Co0_4 Fe0_2 2.372109 1_545
Co0_4 Fe0_1 2.372110 1_554
Co0_4 Fe0_7 2.372110 1_544
Co0_4 Pt1_5 2.664967 1_554
Co0_4 Pt1_6 2.664967 1_545
Co0_4 Pt1_0 2.664967 1_555
Co0_4 Co0_7 2.678681 1_554
Co0_4 Co0_7 2.678681 1_545
Co0_5 Fe0_3 2.372109 1_545
Co0_5 Fe0_0 2.372110 1_555
Co0_5 Fe0_6 2.372110 1_545
Co0_5 Pt1_4 2.664967 1_555
Co0_5 Pt1_1 2.664967 1_555
Co0_5 Pt1_7 2.664967 1_545
Co0_5 Co0_6 2.678681 1_546
Co0_5 Co0_6 2.678681 1_555
Co0_6 Fe0_0 2.372109 1_555
Co0_6 Fe0_3 2.372110 1_554
Co0_6 Fe0_5 2.372110 1_554
Co0_6 Pt1_7 2.664967 1_554
Co0_6 Pt1_4 2.664967 1_555
Co0_6 Pt1_2 2.664967 1_555
Co0_7 Fe0_1 2.372109 1_555
Co0_7 Fe0_2 2.372110 1_555
Co0_7 Fe0_4 2.372110 1_555
Co0_7 Pt1_6 2.664967 1_555
Co0_7 Pt1_3 2.664967 1_555
Co0_7 Pt1_5 2.664967 1_555
Pt0_0 Pt1_1 2.940757 1_555
Pt0_0 Pt1_4 2.940758 1_555
Pt0_0 Pt1_2 2.940758 1_555
Pt0_1 Pt1_0 2.940757 1_556
Pt0_1 Pt1_5 2.940758 1_555
Pt0_1 Pt1_3 2.940758 1_555
Pt0_2 Pt1_3 2.940757 1_555
Pt0_2 Pt1_6 2.940758 1_555
Pt0_2 Pt1_0 2.940758 1_565
Pt0_3 Pt1_2 2.940757 1_556
Pt0_3 Pt1_7 2.940758 1_555
Pt0_3 Pt1_1 2.940758 1_565
Pt0_4 Pt1_5 2.940757 1_555
Pt0_4 Pt1_0 2.940758 1_655
Pt0_4 Pt1_6 2.940758 1_555
Pt0_5 Pt1_4 2.940757 1_556
Pt0_5 Pt1_7 2.940758 1_555
Pt0_5 Pt1_1 2.940758 1_655
Pt0_6 Pt1_7 2.940757 1_555
Pt0_6 Pt1_4 2.940758 1_565
Pt0_6 Pt1_2 2.940758 1_655
Pt0_7 Pt1_6 2.940757 1_556
Pt0_7 Pt1_3 2.940758 1_655
Pt0_7 Pt1_5 2.940758 1_565
Pt1_0 Pt1_5 2.678681 1_455
Pt1_0 Pt1_3 2.678681 1_545
Pt1_0 Pt1_5 2.678681 1_554
Pt1_0 Pt1_3 2.678681 1_554
Pt1_0 Pt1_6 2.678682 1_545
Pt1_0 Pt1_6 2.678682 1_455
Pt1_1 Pt1_4 2.678681 1_555
Pt1_1 Pt1_2 2.678681 1_555
Pt1_1 Pt1_4 2.678681 1_456
Pt1_1 Pt1_2 2.678681 1_546
Pt1_1 Pt1_7 2.678682 1_455
Pt1_1 Pt1_7 2.678682 1_545
Pt1_2 Pt1_7 2.678681 1_455
Pt1_2 Pt1_7 2.678681 1_554
Pt1_2 Pt1_4 2.678682 1_555
Pt1_2 Pt1_4 2.678682 1_465
Pt1_3 Pt1_6 2.678681 1_555
Pt1_3 Pt1_6 2.678681 1_456
Pt1_3 Pt1_5 2.678682 1_555
Pt1_3 Pt1_5 2.678682 1_465
Pt1_4 Pt1_7 2.678681 1_545
Pt1_4 Pt1_7 2.678681 1_554
Pt1_5 Pt1_6 2.678681 1_555
Pt1_5 Pt1_6 2.678681 1_546
