# generated using pymatgen
data_K2BaLiCo(NO2)6
_symmetry_space_group_name_H-M   'P 1'
_cell_length_a   7.99867888
_cell_length_b   7.55353249
_cell_length_c   7.85612530
_cell_angle_alpha   118.62747041
_cell_angle_beta   120.49975307
_cell_angle_gamma   90.18331265
_symmetry_Int_Tables_number   1
_chemical_formula_structural   K2BaLiCo(NO2)6
_chemical_formula_sum   'K2 Ba1 Li1 Co1 N6 O12'
_cell_volume   339.39999643
_cell_formula_units_Z   1
loop_
 _symmetry_equiv_pos_site_id
 _symmetry_equiv_pos_as_xyz
  1  'x, y, z'
loop_
 _atom_site_type_symbol
 _atom_site_label
 _atom_site_symmetry_multiplicity
 _atom_site_fract_x
 _atom_site_fract_y
 _atom_site_fract_z
 _atom_site_occupancy
  K  K0  1  0.22139400  0.71533200  0.40804300  1
  K  K1  1  0.81335200  0.30729000  0.59195700  1
  Ba  Ba0  1  0.50281500  0.48474100  0.00000000  1
  Li  Li0  1  0.43169800  0.91516700  0.00000000  1
  Co  Co0  1  0.99601500  0.99311800  0.00000000  1
  N  N0  1  0.17662200  0.79862500  0.00000000  1
  N  N1  1  0.81298700  0.19193500  0.00000100  1
  N  N2  1  0.19028700  0.19212000  0.39007300  1
  N  N3  1  0.80021500  0.80204700  0.60992700  1
  N  N4  1  0.18728000  0.18265400  0.99999900  1
  N  N5  1  0.80618500  0.80344400  0.00000000  1
  O  O0  1  0.65287900  0.15377300  0.80795800  1
  O  O1  1  0.84492100  0.34581500  0.19204300  1
  O  O2  1  0.16706300  0.67588500  0.80755600  1
  O  O3  1  0.35950500  0.86832800  0.19244400  1
  O  O4  1  0.34496300  0.14678600  0.00000100  1
  O  O5  1  0.65538600  0.63002700  0.48965000  1
  O  O6  1  0.83751900  0.63911600  0.00000000  1
  O  O7  1  0.65006000  0.84152300  0.00000000  1
  O  O8  1  0.82145200  0.85669300  0.49097300  1
  O  O9  1  0.33047800  0.36571900  0.50902700  1
  O  O10  1  0.16573700  0.14037700  0.51035000  1
  O  O11  1  0.15529200  0.34681300  0.00000000  1
loop_
_geom_bond_atom_site_label_1
_geom_bond_atom_site_label_2
_geom_bond_distance
_geom_bond_site_symmetry_2
K0 O11 2.832635 1_555
K0 O6 2.874813 1_455
K0 O10 3.008613 1_565
K0 O3 3.031764 1_555
K0 O9 3.111951 1_555
K0 O1 3.155746 1_455
K0 O5 3.320792 1_555
K1 O11 2.832635 1_656
K1 O6 2.874815 1_556
K1 O5 3.008610 1_555
K1 O2 3.031770 1_655
K1 O8 3.111952 1_545
K1 O0 3.155753 1_555
K1 O10 3.320794 1_655
Ba0 O4 2.844316 1_555
Ba0 O0 2.865323 1_554
Ba0 O1 2.865325 1_555
Ba0 O6 2.916694 1_555
Ba0 O7 2.937627 1_555
Ba0 O10 2.944860 1_554
Ba0 O5 2.944862 1_555
Ba0 O11 2.965430 1_555
Ba0 O9 2.976265 1_554
Ba0 O8 2.976269 1_555
Ba0 O2 3.094785 1_554
Ba0 O3 3.094790 1_555
Li0 O7 1.834746 1_555
Li0 O4 1.884135 1_565
Li0 O2 2.035122 1_554
Li0 O3 2.035136 1_555
Co0 N0 2.063682 1_655
Co0 N5 2.084284 1_555
Co0 N4 2.091930 1_664
Co0 N1 2.100626 1_565
Co0 N3 2.191462 1_554
Co0 N2 2.191462 1_665
N0 O3 1.300075 1_555
N0 O2 1.300082 1_554
N1 O1 1.272408 1_555
N1 O0 1.272413 1_554
N2 O9 1.266041 1_555
N2 O10 1.275113 1_555
N3 O8 1.266046 1_555
N3 O5 1.275122 1_555
N4 O11 1.266901 1_556
N4 O4 1.290868 1_556
N5 O6 1.267093 1_555
N5 O7 1.282387 1_555
