# generated using pymatgen
data_Co2SiO4
_symmetry_space_group_name_H-M   'P 1'
_cell_length_a   7.73166650
_cell_length_b   7.73166650
_cell_length_c   7.73166650
_cell_angle_alpha   135.75643111
_cell_angle_beta   114.41960988
_cell_angle_gamma   82.54217538
_symmetry_Int_Tables_number   1
_chemical_formula_structural   Co2SiO4
_chemical_formula_sum   'Co8 Si4 O16'
_cell_volume   283.37903595
_cell_formula_units_Z   4
loop_
 _symmetry_equiv_pos_site_id
 _symmetry_equiv_pos_as_xyz
  1  'x, y, z'
loop_
 _atom_site_type_symbol
 _atom_site_label
 _atom_site_symmetry_multiplicity
 _atom_site_fract_x
 _atom_site_fract_y
 _atom_site_fract_z
 _atom_site_occupancy
  Co  Co0  1  0.12652800  0.12652800  0.50000000  1
  Co  Co1  1  0.87347200  0.37347200  0.00000000  1
  Co  Co2  1  0.87347200  0.87347200  0.50000000  1
  Co  Co3  1  0.12652800  0.62652800  0.00000000  1
  Co  Co4  1  0.72406100  0.75000000  0.97406100  1
  Co  Co5  1  0.27593900  0.25000000  0.02593900  1
  Co  Co6  1  0.00000000  0.00000000  0.00000000  1
  Co  Co7  1  0.50000000  0.50000000  0.00000000  1
  Si  Si0  1  0.49552700  0.87856500  0.61696200  1
  Si  Si1  1  0.50447300  0.12143500  0.38303800  1
  Si  Si2  1  0.23839700  0.62143500  0.61696200  1
  Si  Si3  1  0.76160300  0.37856500  0.38303800  1
  O  O0  1  0.13082600  0.38755900  0.27233900  1
  O  O1  1  0.86917400  0.14151300  0.25673200  1
  O  O2  1  0.38478000  0.11244100  0.74326800  1
  O  O3  1  0.61522000  0.35848700  0.72766100  1
  O  O4  1  0.86917400  0.61244100  0.72766100  1
  O  O5  1  0.13082600  0.85848700  0.74326800  1
  O  O6  1  0.61522000  0.88755900  0.25673200  1
  O  O7  1  0.38478000  0.64151300  0.27233900  1
  O  O8  1  0.26692200  0.01289900  0.25402300  1
  O  O9  1  0.73307800  0.98710100  0.74597700  1
  O  O10  1  0.74112500  0.48710100  0.25402300  1
  O  O11  1  0.25887500  0.51289900  0.74597700  1
  O  O12  1  0.03123200  0.25000000  0.78123200  1
  O  O13  1  0.96876800  0.75000000  0.21876800  1
  O  O14  1  0.53306700  0.25000000  0.28306700  1
  O  O15  1  0.46693300  0.75000000  0.71693300  1
loop_
_geom_bond_atom_site_label_1
_geom_bond_atom_site_label_2
_geom_bond_distance
_geom_bond_site_symmetry_2
Co0 O12 2.085708 1_555
Co0 O13 2.085708 1_445
Co0 O11 2.152308 1_555
Co0 O8 2.152311 1_555
Co0 O2 2.160612 1_555
Co0 O1 2.160612 1_455
Co1 O13 2.085708 1_555
Co1 O12 2.085708 1_654
Co1 O10 2.152304 1_555
Co1 O9 2.152311 1_544
Co1 O3 2.160608 1_554
Co1 O0 2.160608 1_655
Co2 O13 2.085708 1_555
Co2 O12 2.085708 1_665
Co2 O10 2.152308 1_555
Co2 O9 2.152311 1_555
Co2 O6 2.160612 1_555
Co2 O5 2.160612 1_655
Co3 O12 2.085708 1_554
Co3 O13 2.085708 1_455
Co3 O11 2.152304 1_554
Co3 O8 2.152311 1_565
Co3 O7 2.160608 1_555
Co3 O4 2.160608 1_454
Co4 O13 2.049272 1_556
Co4 O6 2.138644 1_556
Co4 O3 2.138650 1_555
Co4 O4 2.138650 1_555
Co4 O1 2.138652 1_566
Co4 O15 2.153290 1_555
Co5 O12 2.049272 1_554
Co5 O2 2.138644 1_554
Co5 O0 2.138650 1_555
Co5 O7 2.138650 1_555
Co5 O5 2.138652 1_544
Co5 O14 2.153290 1_555
Co6 O1 2.102732 1_455
Co6 O5 2.102732 1_544
Co6 O0 2.102738 1_555
Co6 O4 2.102738 1_444
Co6 O9 2.132564 1_444
Co6 O8 2.132564 1_555
Co7 O7 2.102738 1_555
Co7 O3 2.102738 1_554
Co7 O2 2.102740 1_554
Co7 O6 2.102740 1_555
Co7 O10 2.132567 1_555
Co7 O11 2.132567 1_554
O0 Si2 1.648032 1_555
O1 Si3 1.648032 1_555
O2 Si0 1.648032 1_545
O3 Si1 1.648032 1_555
O4 Si3 1.648032 1_555
O5 Si2 1.648032 1_555
O6 Si1 1.648032 1_565
O7 Si0 1.648032 1_555
O8 Si1 1.660876 1_555
O9 Si0 1.660876 1_555
O10 Si3 1.660878 1_555
O11 Si2 1.660878 1_555
O14 Si3 1.712762 1_555
O14 Si1 1.712762 1_555
O15 Si0 1.712762 1_555
O15 Si2 1.712762 1_555
