# generated using pymatgen
data_Eu2Cu(GeO4)2
_symmetry_space_group_name_H-M   'P 1'
_cell_length_a   9.15850281
_cell_length_b   9.15850281
_cell_length_c   5.22457808
_cell_angle_alpha   74.42005791
_cell_angle_beta   74.42005791
_cell_angle_gamma   112.86653501
_symmetry_Int_Tables_number   1
_chemical_formula_structural   Eu2Cu(GeO4)2
_chemical_formula_sum   'Eu4 Cu2 Ge4 O16'
_cell_volume   352.94782169
_cell_formula_units_Z   2
loop_
 _symmetry_equiv_pos_site_id
 _symmetry_equiv_pos_as_xyz
  1  'x, y, z'
loop_
 _atom_site_type_symbol
 _atom_site_label
 _atom_site_symmetry_multiplicity
 _atom_site_fract_x
 _atom_site_fract_y
 _atom_site_fract_z
 _atom_site_occupancy
  Eu  Eu0  1  0.45820800  0.69863700  0.19291000  1
  Eu  Eu1  1  0.69863700  0.45820800  0.19291000  1
  Eu  Eu2  1  0.20039600  0.95891400  0.67582200  1
  Eu  Eu3  1  0.95891400  0.20039600  0.67582200  1
  Cu  Cu0  1  0.66446500  0.07759900  0.36204900  1
  Cu  Cu1  1  0.07759900  0.66446500  0.36204900  1
  Ge  Ge0  1  0.84254500  0.84254500  0.35250900  1
  Ge  Ge1  1  0.52779200  0.10559700  0.91854400  1
  Ge  Ge2  1  0.10559700  0.52779200  0.91854400  1
  Ge  Ge3  1  0.33349800  0.33349800  0.98848300  1
  O  O0  1  0.37554000  0.90707500  0.93465200  1
  O  O1  1  0.90707500  0.37554000  0.93465200  1
  O  O2  1  0.75615300  0.94785100  0.55028800  1
  O  O3  1  0.94785100  0.75615300  0.55028800  1
  O  O4  1  0.49969400  0.49969400  0.01929400  1
  O  O5  1  0.71684000  0.22606300  0.56424400  1
  O  O6  1  0.22606300  0.71684000  0.56424400  1
  O  O7  1  0.42766600  0.24124200  0.77282300  1
  O  O8  1  0.24124200  0.42766600  0.77282300  1
  O  O9  1  0.67234000  0.67234000  0.33560700  1
  O  O10  1  0.17563400  0.17563400  0.34373700  1
  O  O11  1  0.51572900  0.15662100  0.24174300  1
  O  O12  1  0.15662100  0.51572900  0.24174300  1
  O  O13  1  0.99831000  0.99831000  0.99233900  1
  O  O14  1  0.65518700  0.99600300  0.07854000  1
  O  O15  1  0.99600300  0.65518700  0.07854000  1
loop_
_geom_bond_atom_site_label_1
_geom_bond_atom_site_label_2
_geom_bond_distance
_geom_bond_site_symmetry_2
Eu0 O9 2.348585 1_555
Eu0 O4 2.351076 1_555
Eu0 O14 2.399390 1_555
Eu0 O12 2.509250 1_555
Eu0 O0 2.515235 1_554
Eu0 O6 2.558410 1_555
Eu0 O8 2.860340 1_555
Eu0 O2 3.170150 1_554
Eu1 O9 2.348585 1_555
Eu1 O4 2.351076 1_555
Eu1 O15 2.399390 1_555
Eu1 O11 2.509250 1_555
Eu1 O1 2.515235 1_554
Eu1 O5 2.558410 1_555
Eu1 O7 2.860340 1_555
Eu1 O3 3.170150 1_554
Eu2 O13 2.342159 1_455
Eu2 O10 2.390099 1_565
Eu2 O0 2.457484 1_555
Eu2 O6 2.517140 1_555
Eu2 O15 2.522388 1_456
Eu2 O11 2.640879 1_565
Eu2 O3 2.712801 1_455
Eu2 O7 2.891872 1_565
Eu3 O13 2.342159 1_545
Eu3 O10 2.390099 1_655
Eu3 O1 2.457484 1_555
Eu3 O5 2.517140 1_555
Eu3 O14 2.522388 1_546
Eu3 O12 2.640879 1_655
Eu3 O2 2.712801 1_545
Eu3 O8 2.891872 1_655
Cu0 O14 1.836443 1_545
Cu0 O2 1.917225 1_545
Cu0 O5 1.931766 1_555
Cu0 O11 1.938088 1_555
Cu0 O1 2.592065 1_554
Cu1 O15 1.836443 1_455
Cu1 O3 1.917225 1_455
Cu1 O6 1.931766 1_555
Cu1 O12 1.938088 1_555
Cu1 O0 2.592065 1_554
Ge0 O9 1.768352 1_555
Ge0 O13 1.773571 1_554
Ge0 O2 1.820198 1_555
Ge0 O3 1.820198 1_555
Ge1 O0 1.772457 1_545
Ge1 O5 1.827087 1_555
Ge1 O11 1.856247 1_556
Ge1 O7 1.927735 1_555
Ge1 O14 2.012668 1_546
Ge2 O1 1.772457 1_455
Ge2 O6 1.827087 1_555
Ge2 O12 1.856247 1_556
Ge2 O8 1.927735 1_555
Ge2 O15 2.012668 1_456
Ge3 O10 1.765816 1_556
Ge3 O4 1.766976 1_556
Ge3 O8 1.811892 1_555
Ge3 O7 1.811892 1_555
