# generated using pymatgen
data_Ba2Tl2Zn2Cu3O10
_symmetry_space_group_name_H-M   'P 1'
_cell_length_a   3.75612100
_cell_length_b   3.77671252
_cell_length_c   19.00282171
_cell_angle_alpha   95.67402787
_cell_angle_beta   94.83978911
_cell_angle_gamma   90.03008371
_symmetry_Int_Tables_number   1
_chemical_formula_structural   Ba2Tl2Zn2Cu3O10
_chemical_formula_sum   'Ba2 Tl2 Zn2 Cu3 O10'
_cell_volume   267.28213472
_cell_formula_units_Z   1
loop_
 _symmetry_equiv_pos_site_id
 _symmetry_equiv_pos_as_xyz
  1  'x, y, z'
loop_
 _atom_site_type_symbol
 _atom_site_label
 _atom_site_symmetry_multiplicity
 _atom_site_fract_x
 _atom_site_fract_y
 _atom_site_fract_z
 _atom_site_occupancy
  Ba  Ba0  1  0.83061700  0.89818500  0.72013000  1
  Ba  Ba1  1  0.17064600  0.19495400  0.28037500  1
  Tl  Tl0  1  0.27709800  0.35581600  0.56427400  1
  Tl  Tl1  1  0.72906100  0.79478800  0.43646300  1
  Zn  Zn0  1  0.07787200  0.12872300  0.08642100  1
  Zn  Zn1  1  0.93867300  0.01048000  0.91414900  1
  Cu  Cu0  1  0.61683100  0.64525100  0.15858800  1
  Cu  Cu1  1  0.38506300  0.46704300  0.84197500  1
  Cu  Cu2  1  0.48933900  0.58758900  0.00026800  1
  O  O0  1  0.12657900  0.64606800  0.17946600  1
  O  O1  1  0.68812600  0.70729000  0.32452100  1
  O  O2  1  0.60336400  0.13554900  0.13970700  1
  O  O3  1  0.23445500  0.19369000  0.45024300  1
  O  O4  1  0.46290500  0.07434800  0.97395600  1
  O  O5  1  0.36773400  0.95638800  0.82169600  1
  O  O6  1  0.31616900  0.37003700  0.67621400  1
  O  O7  1  0.89287900  0.48188400  0.86222500  1
  O  O8  1  0.77227400  0.74166900  0.55041900  1
  O  O9  1  0.00235400  0.60916200  0.02795000  1
loop_
_geom_bond_atom_site_label_1
_geom_bond_atom_site_label_2
_geom_bond_distance
_geom_bond_site_symmetry_2
Ba0 O5 2.664993 1_655
Ba0 O5 2.697963 1_555
Ba0 O6 2.762537 1_565
Ba0 O6 2.783134 1_665
Ba0 O6 2.793511 1_555
Ba0 O6 2.816527 1_655
Ba0 O8 3.209617 1_555
Ba0 O7 3.248242 1_555
Ba0 O7 3.304744 1_565
Ba1 O0 2.676144 1_545
Ba1 O0 2.683254 1_555
Ba1 O1 2.761474 1_555
Ba1 O1 2.769808 1_455
Ba1 O1 2.812121 1_545
Ba1 O1 2.817663 1_445
Ba1 O3 3.217105 1_555
Ba1 O2 3.233016 1_555
Ba1 O2 3.264318 1_455
Cu0 O0 1.916084 1_555
Cu0 O2 1.920559 1_565
Cu0 O0 1.922229 1_655
Cu0 O2 1.922803 1_555
Cu1 O7 1.913435 1_555
Cu1 O7 1.919584 1_455
Cu1 O5 1.924834 1_555
Cu1 O5 1.928964 1_545
Cu2 O9 1.945065 1_555
Cu2 O4 1.952680 1_564
Cu2 O9 1.953661 1_655
Cu2 O4 1.953687 1_554
O1 Tl1 2.112732 1_555
O2 Zn0 2.121800 1_655
O2 Zn0 2.139967 1_555
O3 Tl0 2.185188 1_555
O3 Tl1 2.403531 1_445
O3 Tl1 2.407627 1_545
O4 Zn1 2.189696 1_455
O4 Zn1 2.198247 1_555
O5 Zn1 2.476435 1_465
O6 Tl0 2.115189 1_555
O7 Zn1 2.119407 1_555
O7 Zn1 2.137779 1_565
O8 Tl1 2.186904 1_555
O8 Tl0 2.404774 1_655
O8 Tl0 2.409968 1_555
O9 Zn0 2.163447 1_565
O9 Zn0 2.225621 1_555
