# generated using pymatgen
data_CaAl2Si3H6O13
_symmetry_space_group_name_H-M   'P 1'
_cell_length_a   10.19603409
_cell_length_b   10.19603409
_cell_length_c   10.00032927
_cell_angle_alpha   84.03982035
_cell_angle_beta   84.03982035
_cell_angle_gamma   141.96630031
_symmetry_Int_Tables_number   1
_chemical_formula_structural   CaAl2Si3H6O13
_chemical_formula_sum   'Ca2 Al4 Si6 H12 O26'
_cell_volume   607.14508072
_cell_formula_units_Z   2
loop_
 _symmetry_equiv_pos_site_id
 _symmetry_equiv_pos_as_xyz
  1  'x, y, z'
loop_
 _atom_site_type_symbol
 _atom_site_label
 _atom_site_symmetry_multiplicity
 _atom_site_fract_x
 _atom_site_fract_y
 _atom_site_fract_z
 _atom_site_occupancy
  Ca  Ca0  1  0.57192300  0.36655100  0.55390100  1
  Ca  Ca1  1  0.36655100  0.57192300  0.05390100  1
  Al  Al0  1  0.24808900  0.31827500  0.42589400  1
  Al  Al1  1  0.31827500  0.24808900  0.92589400  1
  Al  Al2  1  0.97406000  0.39952300  0.59771500  1
  Al  Al3  1  0.39952300  0.97406000  0.09771500  1
  Si  Si0  1  0.72971500  0.97802900  0.50421400  1
  Si  Si1  1  0.97802900  0.72971500  0.00421400  1
  Si  Si2  1  0.46782000  0.30869800  0.19327300  1
  Si  Si3  1  0.30869800  0.46782000  0.69327300  1
  Si  Si4  1  0.73316800  0.39481000  0.82609100  1
  Si  Si5  1  0.39481000  0.73316800  0.32609100  1
  H  H0  1  0.88953400  0.86650400  0.44667400  1
  H  H1  1  0.86650400  0.88953400  0.94667400  1
  H  H2  1  0.97659400  0.80676900  0.37245600  1
  H  H3  1  0.80676900  0.97659400  0.87245600  1
  H  H4  1  0.18545600  0.85763000  0.71189700  1
  H  H5  1  0.85763000  0.18545600  0.21189700  1
  H  H6  1  0.33782300  0.92567700  0.57467700  1
  H  H7  1  0.92567700  0.33782300  0.07467700  1
  H  H8  1  0.83646100  0.50233500  0.26994600  1
  H  H9  1  0.50233500  0.83646200  0.76994600  1
  H  H10  1  0.95510900  0.51814600  0.36999800  1
  H  H11  1  0.51814600  0.95510900  0.86999800  1
  O  O0  1  0.95655700  0.07283500  0.45636900  1
  O  O1  1  0.07283500  0.95655700  0.95636900  1
  O  O2  1  0.76812400  0.14500500  0.56138500  1
  O  O3  1  0.14500500  0.76812400  0.06138500  1
  O  O4  1  0.38990100  0.29423500  0.35133600  1
  O  O5  1  0.29423500  0.38990100  0.85133600  1
  O  O6  1  0.84525800  0.43920000  0.66943200  1
  O  O7  1  0.43920000  0.84525800  0.16943200  1
  O  O8  1  0.34793800  0.54090000  0.30784500  1
  O  O9  1  0.54090000  0.34793800  0.80784500  1
  O  O10  1  0.09923700  0.39587200  0.70144400  1
  O  O11  1  0.39587200  0.09923700  0.20144400  1
  O  O12  1  0.32377800  0.36577000  0.58479400  1
  O  O13  1  0.36577000  0.32377800  0.08479400  1
  O  O14  1  0.18465900  0.62683900  0.44066500  1
  O  O15  1  0.62683900  0.18465900  0.94066500  1
  O  O16  1  0.54279700  0.74289400  0.63372500  1
  O  O17  1  0.74289400  0.54279700  0.13372500  1
  O  O18  1  0.63038100  0.92935300  0.36859000  1
  O  O19  1  0.92935300  0.63038100  0.86859000  1
  O  O20  1  0.85052000  0.74146800  0.44189000  1
  O  O21  1  0.74146800  0.85052000  0.94189000  1
  O  O22  1  0.32449300  0.98706200  0.63310700  1
  O  O23  1  0.98706200  0.32449300  0.13310700  1
  O  O24  1  0.81408700  0.44833600  0.36828000  1
  O  O25  1  0.44833600  0.81408700  0.86828000  1
loop_
_geom_bond_atom_site_label_1
_geom_bond_atom_site_label_2
_geom_bond_distance
_geom_bond_site_symmetry_2
Ca0 O20 2.298010 1_555
Ca0 O22 2.352583 1_545
Ca0 O24 2.391831 1_555
Ca0 O9 2.494750 1_555
Ca0 O12 2.510440 1_555
Ca0 O4 2.650819 1_555
Ca0 O6 2.691640 1_555
Ca1 O21 2.298010 1_554
Ca1 O23 2.352583 1_455
Ca1 O25 2.391831 1_554
Ca1 O8 2.494750 1_555
Ca1 O13 2.510440 1_555
Ca1 O5 2.650819 1_554
Ca1 O7 2.691640 1_555
Al0 O4 1.754725 1_555
Al0 O0 1.768173 1_455
Al0 O8 1.770896 1_555
Al0 O12 1.783515 1_555
Al1 O5 1.754725 1_555
Al1 O1 1.768173 1_545
Al1 O9 1.770896 1_555
Al1 O13 1.783515 1_556
Al2 O2 1.745215 1_555
Al2 O10 1.745900 1_655
Al2 O6 1.761897 1_555
Al2 O14 1.775675 1_655
Al3 O3 1.745215 1_555
Al3 O11 1.745900 1_565
Al3 O7 1.761897 1_555
Al3 O15 1.775675 1_564
H0 O20 1.001779 1_555
H0 O0 1.641217 1_565
H1 O21 1.001779 1_555
H1 O1 1.641217 1_655
H2 O20 0.973762 1_555
H3 O21 0.973762 1_555
H4 O22 0.988460 1_555
H5 O23 0.988460 1_555
H6 O22 0.972159 1_555
H7 O23 0.972159 1_555
H8 O24 0.982502 1_555
H9 O25 0.982499 1_555
H10 O24 0.984794 1_555
H11 O25 0.984794 1_555
O0 Si0 1.632469 1_545
O1 Si1 1.632469 1_456
O2 Si0 1.605324 1_545
O3 Si1 1.605324 1_455
O4 Si2 1.630250 1_555
O5 Si3 1.630250 1_555
O6 Si4 1.622170 1_555
O7 Si5 1.622170 1_555
O8 Si5 1.649630 1_555
O9 Si4 1.649630 1_555
O10 Si3 1.609104 1_555
O11 Si2 1.609104 1_555
O12 Si3 1.653765 1_555
O13 Si2 1.653765 1_555
O14 Si5 1.628538 1_555
O15 Si4 1.628538 1_555
O16 Si0 1.643829 1_555
O16 Si3 1.652348 1_555
O17 Si1 1.643829 1_555
O17 Si2 1.652348 1_555
O18 Si0 1.656756 1_555
O18 Si5 1.664614 1_555
O19 Si1 1.656756 1_556
O19 Si4 1.664614 1_555
