# generated using pymatgen
data_TeMoWS3
_symmetry_space_group_name_H-M   'P 1'
_cell_length_a   3.27751726
_cell_length_b   3.27751726
_cell_length_c   37.21319000
_cell_angle_alpha   90.00000000
_cell_angle_beta   90.00000000
_cell_angle_gamma   119.99998515
_symmetry_Int_Tables_number   1
_chemical_formula_structural   TeMoWS3
_chemical_formula_sum   'Te2 Mo2 W2 S6'
_cell_volume   346.19243471
_cell_formula_units_Z   2
loop_
 _symmetry_equiv_pos_site_id
 _symmetry_equiv_pos_as_xyz
  1  'x, y, z'
loop_
 _atom_site_type_symbol
 _atom_site_label
 _atom_site_symmetry_multiplicity
 _atom_site_fract_x
 _atom_site_fract_y
 _atom_site_fract_z
 _atom_site_occupancy
  Te  Te0  1  0.33333300  0.66666700  0.70943500  1
  Te  Te1  1  0.33333300  0.66666700  0.60565600  1
  Mo  Mo0  1  0.33333300  0.66666700  0.09392100  1
  Mo  Mo1  1  0.33333300  0.66666700  0.46963400  1
  W  W0  1  0.66666700  0.33333300  0.28180000  1
  W  W1  1  0.66666700  0.33333300  0.65755200  1
  S  S0  1  0.33333300  0.66666700  0.32319600  1
  S  S1  1  0.66666700  0.33333300  0.05258300  1
  S  S2  1  0.66666700  0.33333300  0.42831900  1
  S  S3  1  0.66666700  0.33333300  0.13526200  1
  S  S4  1  0.66666700  0.33333300  0.51099000  1
  S  S5  1  0.33333300  0.66666700  0.24040100  1
loop_
_geom_bond_atom_site_label_1
_geom_bond_atom_site_label_2
_geom_bond_distance
_geom_bond_site_symmetry_2
Te0 W1 2.703410 1_565
Te0 W1 2.703410 1_455
Te0 W1 2.703414 1_555
Te1 W1 2.703756 1_455
Te1 W1 2.703756 1_565
Te1 W1 2.703759 1_555
Mo0 S1 2.438673 1_455
Mo0 S1 2.438673 1_565
Mo0 S1 2.438677 1_555
Mo0 S3 2.438743 1_455
Mo0 S3 2.438743 1_565
Mo0 S3 2.438747 1_555
Mo1 S2 2.438133 1_565
Mo1 S2 2.438133 1_455
Mo1 S2 2.438137 1_555
Mo1 S4 2.439095 1_455
Mo1 S4 2.439095 1_565
Mo1 S4 2.439100 1_555
S0 W0 2.440035 1_455
S0 W0 2.440035 1_565
S0 W0 2.440039 1_555
S5 W0 2.440105 1_455
S5 W0 2.440105 1_565
S5 W0 2.440109 1_555
