# generated using pymatgen
data_La3Ag
_symmetry_space_group_name_H-M   'P 1'
_cell_length_a   5.01950200
_cell_length_b   5.01950200
_cell_length_c   5.01950200
_cell_angle_alpha   90.00000000
_cell_angle_beta   90.00000000
_cell_angle_gamma   90.00000000
_symmetry_Int_Tables_number   1
_chemical_formula_structural   La3Ag
_chemical_formula_sum   'La3 Ag1'
_cell_volume   126.46836234
_cell_formula_units_Z   1
loop_
 _symmetry_equiv_pos_site_id
 _symmetry_equiv_pos_as_xyz
  1  'x, y, z'
loop_
 _atom_site_type_symbol
 _atom_site_label
 _atom_site_symmetry_multiplicity
 _atom_site_fract_x
 _atom_site_fract_y
 _atom_site_fract_z
 _atom_site_occupancy
  La  La0  1  0.00000000  0.50000000  0.50000000  1
  La  La1  1  0.50000000  0.00000000  0.50000000  1
  La  La2  1  0.50000000  0.50000000  0.00000000  1
  Ag  Ag0  1  0.00000000  0.00000000  0.00000000  1
loop_
_geom_bond_atom_site_label_1
_geom_bond_atom_site_label_2
_geom_bond_distance
_geom_bond_site_symmetry_2
Ag0 La1 3.549324 1_555
Ag0 La2 3.549324 1_455
Ag0 La0 3.549324 1_544
Ag0 La1 3.549324 1_454
Ag0 La2 3.549324 1_555
Ag0 La2 3.549324 1_545
Ag0 La1 3.549324 1_554
Ag0 La0 3.549324 1_554
Ag0 La2 3.549324 1_445
Ag0 La0 3.549324 1_545
Ag0 La1 3.549324 1_455
Ag0 La0 3.549324 1_555
