# generated using pymatgen
data_Ba2ZnPd
_symmetry_space_group_name_H-M   'P 1'
_cell_length_a   12.75554631
_cell_length_b   12.75554631
_cell_length_c   12.75554631
_cell_angle_alpha   125.35131502
_cell_angle_beta   118.28065614
_cell_angle_gamma   86.99751553
_symmetry_Int_Tables_number   1
_chemical_formula_structural   Ba2ZnPd
_chemical_formula_sum   'Ba2 Zn1 Pd1'
_cell_volume   1417.85158566
_cell_formula_units_Z   1
loop_
 _symmetry_equiv_pos_site_id
 _symmetry_equiv_pos_as_xyz
  1  'x, y, z'
loop_
 _atom_site_type_symbol
 _atom_site_label
 _atom_site_symmetry_multiplicity
 _atom_site_fract_x
 _atom_site_fract_y
 _atom_site_fract_z
 _atom_site_occupancy
  Ba  Ba0  1  -0.00000000  0.26294237  0.26294237  1
  Ba  Ba1  1  0.00000000  0.73705763  0.73705763  1
  Zn  Zn0  1  0.00000000  -0.00000000  -0.00000000  1
  Pd  Pd0  1  0.00000000  0.50000000  0.50000000  1
loop_
_geom_bond_atom_site_label_1
_geom_bond_atom_site_label_2
_geom_bond_distance
_geom_bond_site_symmetry_2
Ba0 Pd0 2.776012 1_555
Ba0 Zn0 3.079129 1_555
Ba1 Pd0 2.776012 1_555
Ba1 Zn0 3.079129 1_566
