# generated using pymatgen
data_RbPr2Cl7
_symmetry_space_group_name_H-M   'P 1'
_cell_length_a   9.74515366
_cell_length_b   14.79133419
_cell_length_c   16.71160917
_cell_angle_alpha   90.00000000
_cell_angle_beta   90.00000000
_cell_angle_gamma   90.00000000
_symmetry_Int_Tables_number   1
_chemical_formula_structural   RbPr2Cl7
_chemical_formula_sum   'Rb8 Pr16 Cl56'
_cell_volume   2408.87525961
_cell_formula_units_Z   8
loop_
 _symmetry_equiv_pos_site_id
 _symmetry_equiv_pos_as_xyz
  1  'x, y, z'
loop_
 _atom_site_type_symbol
 _atom_site_label
 _atom_site_symmetry_multiplicity
 _atom_site_fract_x
 _atom_site_fract_y
 _atom_site_fract_z
 _atom_site_occupancy
  Rb  Rb0  1  0.25000000  0.91492126  0.60067723  1
  Rb  Rb1  1  0.75000000  0.08507874  0.39932277  1
  Rb  Rb2  1  0.75000000  0.58507874  0.10067723  1
  Rb  Rb3  1  0.25000000  0.41492126  0.89932277  1
  Rb  Rb4  1  0.25000000  0.57236835  0.56472632  1
  Rb  Rb5  1  0.75000000  0.42763165  0.43527368  1
  Rb  Rb6  1  0.75000000  0.92763165  0.06472632  1
  Rb  Rb7  1  0.25000000  0.07236835  0.93527368  1
  Pr  Pr0  1  0.02748218  0.74414069  0.83854332  1
  Pr  Pr1  1  0.97251782  0.25585931  0.16145668  1
  Pr  Pr2  1  0.97251782  0.75585931  0.33854332  1
  Pr  Pr3  1  0.52748218  0.25585931  0.16145668  1
  Pr  Pr4  1  0.02748218  0.24414069  0.66145668  1
  Pr  Pr5  1  0.47251782  0.74414069  0.83854332  1
  Pr  Pr6  1  0.47251782  0.24414069  0.66145668  1
  Pr  Pr7  1  0.52748218  0.75585931  0.33854332  1
  Pr  Pr8  1  0.25000000  0.70842700  0.06011931  1
  Pr  Pr9  1  0.75000000  0.29157300  0.93988069  1
  Pr  Pr10  1  0.75000000  0.79157300  0.56011931  1
  Pr  Pr11  1  0.25000000  0.20842700  0.43988069  1
  Pr  Pr12  1  0.25000000  0.50955152  0.25496008  1
  Pr  Pr13  1  0.75000000  0.49044848  0.74503992  1
  Pr  Pr14  1  0.75000000  0.99044848  0.75496008  1
  Pr  Pr15  1  0.25000000  0.00955152  0.24503992  1
  Cl  Cl0  1  0.57646255  0.91580623  0.88211562  1
  Cl  Cl1  1  0.42353745  0.08419377  0.11788438  1
  Cl  Cl2  1  0.42353745  0.58419377  0.38211562  1
  Cl  Cl3  1  0.07646255  0.08419377  0.11788438  1
  Cl  Cl4  1  0.57646255  0.41580623  0.61788438  1
  Cl  Cl5  1  0.92353745  0.91580623  0.88211562  1
  Cl  Cl6  1  0.92353745  0.41580623  0.61788438  1
  Cl  Cl7  1  0.07646255  0.58419377  0.38211562  1
  Cl  Cl8  1  0.02577670  0.77930763  0.50534951  1
  Cl  Cl9  1  0.97422330  0.22069237  0.49465049  1
  Cl  Cl10  1  0.97422330  0.72069237  0.00534951  1
  Cl  Cl11  1  0.52577670  0.22069237  0.49465049  1
  Cl  Cl12  1  0.02577670  0.27930763  0.99465049  1
  Cl  Cl13  1  0.47422330  0.77930763  0.50534951  1
  Cl  Cl14  1  0.47422330  0.27930763  0.99465049  1
  Cl  Cl15  1  0.52577670  0.72069237  0.00534951  1
  Cl  Cl16  1  0.25000000  0.81061504  0.33649998  1
  Cl  Cl17  1  0.75000000  0.18938496  0.66350002  1
  Cl  Cl18  1  0.75000000  0.68938496  0.83649998  1
  Cl  Cl19  1  0.25000000  0.31061504  0.16350002  1
  Cl  Cl20  1  0.25000000  0.75073593  0.72757193  1
  Cl  Cl21  1  0.75000000  0.24926407  0.27242807  1
  Cl  Cl22  1  0.75000000  0.74926407  0.22757193  1
  Cl  Cl23  1  0.25000000  0.25073593  0.77242807  1
  Cl  Cl24  1  0.57467699  0.83437494  0.69666702  1
  Cl  Cl25  1  0.42532301  0.16562506  0.30333298  1
  Cl  Cl26  1  0.42532301  0.66562506  0.19666702  1
  Cl  Cl27  1  0.07467699  0.16562506  0.30333298  1
  Cl  Cl28  1  0.57467699  0.33437494  0.80333298  1
  Cl  Cl29  1  0.92532301  0.83437494  0.69666702  1
  Cl  Cl30  1  0.92532301  0.33437494  0.80333298  1
  Cl  Cl31  1  0.07467699  0.66562506  0.19666702  1
  Cl  Cl32  1  0.01551659  0.56871720  0.76741003  1
  Cl  Cl33  1  0.98448341  0.43128280  0.23258997  1
  Cl  Cl34  1  0.98448341  0.93128280  0.26741003  1
  Cl  Cl35  1  0.51551659  0.43128280  0.23258997  1
  Cl  Cl36  1  0.01551659  0.06871720  0.73258997  1
  Cl  Cl37  1  0.48448341  0.56871720  0.76741003  1
  Cl  Cl38  1  0.48448341  0.06871720  0.73258997  1
  Cl  Cl39  1  0.51551659  0.93128280  0.26741003  1
  Cl  Cl40  1  0.25000000  0.51967504  0.08195226  1
  Cl  Cl41  1  0.75000000  0.48032496  0.91804774  1
  Cl  Cl42  1  0.75000000  0.98032496  0.58195226  1
  Cl  Cl43  1  0.25000000  0.01967504  0.41804774  1
  Cl  Cl44  1  0.25000000  0.87826357  0.12306466  1
  Cl  Cl45  1  0.75000000  0.12173643  0.87693534  1
  Cl  Cl46  1  0.75000000  0.62173643  0.62306466  1
  Cl  Cl47  1  0.25000000  0.37826357  0.37693534  1
  Cl  Cl48  1  0.25000000  0.84283908  0.91929893  1
  Cl  Cl49  1  0.75000000  0.15716092  0.08070107  1
  Cl  Cl50  1  0.75000000  0.65716092  0.41929893  1
  Cl  Cl51  1  0.25000000  0.34283908  0.58070107  1
  Cl  Cl52  1  0.25000000  0.62909185  0.90380642  1
  Cl  Cl53  1  0.75000000  0.37090815  0.09619358  1
  Cl  Cl54  1  0.75000000  0.87090815  0.40380642  1
  Cl  Cl55  1  0.25000000  0.12909185  0.59619358  1
loop_
_geom_bond_atom_site_label_1
_geom_bond_atom_site_label_2
_geom_bond_distance
_geom_bond_site_symmetry_2
Cl0 Pr5 2.829072 1_555
Cl0 Pr14 2.931628 1_555
Cl0 Rb6 3.493360 1_556
Cl1 Pr3 2.829072 1_555
Cl1 Pr15 2.931628 1_555
Cl1 Rb7 3.493360 1_554
Cl2 Pr7 2.829072 1_555
Cl2 Pr12 2.931628 1_555
Cl2 Rb4 3.493360 1_555
Cl3 Pr1 2.829072 1_455
Cl3 Pr15 2.931628 1_555
Cl3 Rb7 3.493360 1_554
Cl4 Pr6 2.829072 1_555
Cl4 Pr13 2.931628 1_555
Cl4 Rb5 3.493360 1_555
Cl5 Pr0 2.829072 1_655
Cl5 Pr14 2.931628 1_555
Cl5 Rb6 3.493360 1_556
Cl6 Pr4 2.829072 1_655
Cl6 Pr13 2.931628 1_555
Cl6 Rb5 3.493360 1_555
Cl7 Pr2 2.829072 1_455
Cl7 Pr12 2.931628 1_555
Cl7 Rb4 3.493360 1_555
Cl8 Pr10 2.844865 1_455
Cl8 Pr2 2.856638 1_455
Cl8 Rb0 3.366925 1_555
Cl8 Rb4 3.889525 1_555
Cl9 Pr11 2.844865 1_655
Cl9 Pr4 2.856638 1_655
Cl9 Rb1 3.366925 1_555
Cl9 Rb5 3.889525 1_555
Cl10 Pr8 2.844865 1_655
Cl10 Pr0 2.856638 1_654
Cl10 Rb2 3.366925 1_555
Cl10 Rb6 3.889525 1_555
Cl11 Pr11 2.844865 1_555
Cl11 Pr6 2.856638 1_555
Cl11 Rb1 3.366925 1_555
Cl11 Rb5 3.889525 1_555
Cl12 Pr9 2.844865 1_455
Cl12 Pr1 2.856638 1_456
Cl12 Rb3 3.366925 1_555
Cl12 Rb7 3.889525 1_555
Cl13 Pr10 2.844865 1_555
Cl13 Pr7 2.856638 1_555
Cl13 Rb0 3.366925 1_555
Cl13 Rb4 3.889525 1_555
Cl14 Pr9 2.844865 1_555
Cl14 Pr3 2.856638 1_556
Cl14 Rb3 3.366925 1_555
Cl14 Rb7 3.889525 1_555
Cl15 Pr8 2.844865 1_555
Cl15 Pr5 2.856638 1_554
Cl15 Rb2 3.366925 1_555
Cl15 Rb6 3.889525 1_555
Cl16 Pr7 2.822997 1_555
Cl16 Pr2 2.822997 1_455
Cl16 Pr15 3.315820 1_565
Cl17 Pr6 2.822997 1_555
Cl17 Pr4 2.822997 1_655
Cl17 Pr14 3.315820 1_545
Cl18 Pr0 2.822997 1_655
Cl18 Pr5 2.822997 1_555
Cl18 Pr13 3.315820 1_555
Cl19 Pr1 2.822997 1_455
Cl19 Pr3 2.822997 1_555
Cl19 Pr12 3.315820 1_555
Cl20 Pr0 2.854994 1_555
Cl20 Pr5 2.854994 1_555
Cl20 Rb0 3.224084 1_555
Cl20 Rb4 3.790341 1_555
Cl21 Pr1 2.854994 1_555
Cl21 Pr3 2.854994 1_555
Cl21 Rb1 3.224084 1_555
Cl21 Rb5 3.790341 1_555
Cl22 Pr2 2.854994 1_555
Cl22 Pr7 2.854994 1_555
Cl22 Rb2 3.224084 1_555
Cl22 Rb6 3.790341 1_555
Cl23 Pr4 2.854994 1_555
Cl23 Pr6 2.854994 1_555
Cl23 Rb3 3.224084 1_555
Cl23 Rb7 3.790341 1_555
Cl24 Pr5 2.897252 1_555
Cl24 Pr10 2.920132 1_555
Cl24 Pr14 3.032736 1_555
Cl24 Rb0 3.742158 1_555
Cl25 Pr3 2.897252 1_555
Cl25 Pr11 2.920132 1_555
Cl25 Pr15 3.032736 1_555
Cl25 Rb1 3.742158 1_555
Cl26 Pr7 2.897252 1_555
Cl26 Pr8 2.920132 1_555
Cl26 Pr12 3.032736 1_555
Cl26 Rb2 3.742158 1_555
Cl27 Pr1 2.897252 1_455
Cl27 Pr11 2.920132 1_555
Cl27 Pr15 3.032736 1_555
Cl27 Rb1 3.742158 1_455
Cl28 Pr6 2.897252 1_555
Cl28 Pr9 2.920132 1_555
Cl28 Pr13 3.032736 1_555
Cl28 Rb3 3.742158 1_555
Cl29 Pr0 2.897252 1_655
Cl29 Pr10 2.920132 1_555
Cl29 Pr14 3.032736 1_555
Cl29 Rb0 3.742158 1_655
Cl30 Pr4 2.897252 1_655
Cl30 Pr9 2.920132 1_555
Cl30 Pr13 3.032736 1_555
Cl30 Rb3 3.742158 1_655
Cl31 Pr2 2.897252 1_455
Cl31 Pr8 2.920132 1_555
Cl31 Pr12 3.032736 1_555
Cl31 Rb2 3.742158 1_455
Cl32 Pr0 2.856474 1_555
Cl32 Pr13 2.859227 1_455
Cl32 Rb3 3.905920 1_555
Cl33 Pr1 2.856474 1_555
Cl33 Pr12 2.859227 1_655
Cl33 Rb2 3.905920 1_555
Cl34 Pr2 2.856474 1_555
Cl34 Pr15 2.859227 1_665
Cl34 Rb1 3.905920 1_565
Cl35 Pr3 2.856474 1_555
Cl35 Pr12 2.859227 1_555
Cl35 Rb2 3.905920 1_555
Cl36 Pr4 2.856474 1_555
Cl36 Pr14 2.859227 1_445
Cl36 Rb0 3.905920 1_545
Cl37 Pr5 2.856474 1_555
Cl37 Pr13 2.859227 1_555
Cl37 Rb3 3.905920 1_555
Cl38 Pr6 2.856474 1_555
Cl38 Pr14 2.859227 1_545
Cl38 Rb0 3.905920 1_545
Cl39 Pr7 2.856474 1_555
Cl39 Pr15 2.859227 1_565
Cl39 Rb1 3.905920 1_565
Cl40 Pr8 2.815634 1_555
Cl40 Pr12 2.895114 1_555
Cl40 Rb3 3.422819 1_554
Cl41 Pr9 2.815634 1_555
Cl41 Pr13 2.895114 1_555
Cl41 Rb2 3.422819 1_556
Cl42 Pr10 2.815634 1_555
Cl42 Pr14 2.895114 1_555
Cl42 Rb1 3.422819 1_565
Cl43 Pr11 2.815634 1_555
Cl43 Pr15 2.895114 1_555
Cl43 Rb0 3.422819 1_545
Cl44 Pr8 2.723458 1_555
Cl44 Pr15 2.815343 1_565
Cl45 Pr9 2.723458 1_555
Cl45 Pr14 2.815343 1_545
Cl46 Pr10 2.723458 1_555
Cl46 Pr13 2.815343 1_555
Cl47 Pr11 2.723458 1_555
Cl47 Pr12 2.815343 1_555
Cl48 Pr0 2.941907 1_555
Cl48 Pr5 2.941907 1_555
Cl48 Pr8 3.080724 1_556
Cl48 Rb7 3.405524 1_565
Cl49 Pr1 2.941907 1_555
Cl49 Pr3 2.941907 1_555
Cl49 Pr9 3.080724 1_554
Cl49 Rb6 3.405524 1_545
Cl50 Pr7 2.941907 1_555
Cl50 Pr2 2.941907 1_555
Cl50 Pr10 3.080724 1_555
Cl50 Rb5 3.405524 1_555
Cl51 Pr4 2.941907 1_555
Cl51 Pr6 2.941907 1_555
Cl51 Pr11 3.080724 1_555
Cl51 Rb4 3.405524 1_555
Cl52 Pr8 2.863710 1_556
Cl52 Pr5 2.964398 1_555
Cl52 Pr0 2.964398 1_555
Cl52 Rb3 3.168755 1_555
Cl53 Pr9 2.863710 1_554
Cl53 Pr1 2.964398 1_555
Cl53 Pr3 2.964398 1_555
Cl53 Rb2 3.168755 1_555
Cl54 Pr10 2.863710 1_555
Cl54 Pr2 2.964398 1_555
Cl54 Pr7 2.964398 1_555
Cl54 Rb1 3.168755 1_565
Cl55 Pr11 2.863710 1_555
Cl55 Pr4 2.964398 1_555
Cl55 Pr6 2.964398 1_555
Cl55 Rb0 3.168755 1_545
