# generated using pymatgen
data_Sr3NbGa3(SiO7)2
_symmetry_space_group_name_H-M   'P 1'
_cell_length_a   5.18578700
_cell_length_b   8.65925334
_cell_length_c   8.67489573
_cell_angle_alpha   120.05977489
_cell_angle_beta   89.99999852
_cell_angle_gamma   90.02074264
_symmetry_Int_Tables_number   1
_chemical_formula_structural   Sr3NbGa3(SiO7)2
_chemical_formula_sum   'Sr3 Nb1 Ga3 Si2 O14'
_cell_volume   337.15381097
_cell_formula_units_Z   1
loop_
 _symmetry_equiv_pos_site_id
 _symmetry_equiv_pos_as_xyz
  1  'x, y, z'
loop_
 _atom_site_type_symbol
 _atom_site_label
 _atom_site_symmetry_multiplicity
 _atom_site_fract_x
 _atom_site_fract_y
 _atom_site_fract_z
 _atom_site_occupancy
  Sr  Sr0  1  0.00036300  0.58407800  0.58394400  1
  Sr  Sr1  1  0.99963700  0.41592200  0.99986600  1
  Sr  Sr2  1  0.00000000  0.00000000  0.41227900  1
  Nb  Nb0  1  0.00000000  0.00000000  0.99877000  1
  Ga  Ga0  1  0.50000300  0.25667400  0.25606000  1
  Ga  Ga1  1  0.49999700  0.74332600  0.99938700  1
  Ga  Ga2  1  0.50000000  0.00000000  0.74347700  1
  Si  Si0  1  0.28809500  0.33246600  0.66657400  1
  Si  Si1  1  0.71190500  0.66753400  0.33410800  1
  O  O0  1  0.97166400  0.33782000  0.66734600  1
  O  O1  1  0.02833600  0.66218000  0.32952600  1
  O  O2  1  0.64473200  0.84600300  0.52315300  1
  O  O3  1  0.62816300  0.48352700  0.32828800  1
  O  O4  1  0.63526400  0.68232000  0.16041700  1
  O  O5  1  0.35526800  0.15399700  0.67715100  1
  O  O6  1  0.36473600  0.31768000  0.47809700  1
  O  O7  1  0.37183700  0.51647300  0.84476100  1
  O  O8  1  0.23144200  0.88018000  0.78168800  1
  O  O9  1  0.23098400  0.21782800  0.09854100  1
  O  O10  1  0.22965000  0.89999300  0.11717100  1
  O  O11  1  0.76855800  0.11982000  0.90150800  1
  O  O12  1  0.77035000  0.10000700  0.21717800  1
  O  O13  1  0.76901600  0.78217200  0.88071200  1
loop_
_geom_bond_atom_site_label_1
_geom_bond_atom_site_label_2
_geom_bond_distance
_geom_bond_site_symmetry_2
Nb0 O9 2.025990 1_556
Nb0 O13 2.025990 1_445
Nb0 O8 2.026527 1_545
Nb0 O11 2.026527 1_455
Nb0 O12 2.028547 1_456
Nb0 O10 2.028547 1_546
Ga0 O3 1.859862 1_555
Ga0 O6 1.860666 1_555
Ga0 O12 1.860819 1_555
Ga0 O9 1.861661 1_555
Ga1 O7 1.859864 1_555
Ga1 O4 1.860658 1_556
Ga1 O10 1.860818 1_556
Ga1 O13 1.861673 1_555
Ga2 O5 1.855253 1_555
Ga2 O2 1.855259 1_545
Ga2 O8 1.862649 1_545
Ga2 O11 1.862649 1_555
O0 Si0 1.641534 1_655
O0 Sr0 2.576460 1_655
O0 Sr1 2.616250 1_555
O0 Sr2 2.643989 1_655
O1 Si1 1.641534 1_455
O1 Sr1 2.576460 1_454
O1 Sr0 2.616250 1_555
O1 Sr2 2.643989 1_565
O2 Si1 1.631097 1_555
O2 Sr2 2.716740 1_665
O3 Si1 1.627530 1_555
O3 Sr0 2.732481 1_655
O4 Si1 1.624179 1_555
O4 Sr1 2.759729 1_554
O5 Si0 1.631102 1_555
O5 Sr2 2.716745 1_555
O6 Si0 1.624179 1_555
O6 Sr0 2.759729 1_555
O7 Si0 1.627530 1_555
O7 Sr1 2.732481 1_455
O8 Sr0 2.558184 1_555
O9 Sr1 2.566502 1_454
O10 Sr2 2.549855 1_565
O11 Sr1 2.558184 1_555
O12 Sr2 2.549855 1_655
O13 Sr0 2.566496 1_655
