# generated using pymatgen
data_LaMgFeWO6
_symmetry_space_group_name_H-M   'P 1'
_cell_length_a   5.45735599
_cell_length_b   8.10752832
_cell_length_c   5.57873300
_cell_angle_alpha   90.00106353
_cell_angle_beta   90.00070804
_cell_angle_gamma   89.55606132
_symmetry_Int_Tables_number   1
_chemical_formula_structural   LaMgFeWO6
_chemical_formula_sum   'La2 Mg2 Fe2 W2 O12'
_cell_volume   246.82736027
_cell_formula_units_Z   2
loop_
 _symmetry_equiv_pos_site_id
 _symmetry_equiv_pos_as_xyz
  1  'x, y, z'
loop_
 _atom_site_type_symbol
 _atom_site_label
 _atom_site_symmetry_multiplicity
 _atom_site_fract_x
 _atom_site_fract_y
 _atom_site_fract_z
 _atom_site_occupancy
  La  La0  1  0.99500400  0.24618600  0.04999800  1
  La  La1  1  0.49500900  0.74618100  0.45002700  1
  Mg  Mg0  1  0.52234800  0.25514600  0.55256000  1
  Mg  Mg1  1  0.02234300  0.75514800  0.94743500  1
  Fe  Fe0  1  0.49887900  0.49656200  0.00435200  1
  Fe  Fe1  1  0.99889900  0.99656800  0.49569700  1
  W  W0  1  0.50240100  0.99881300  0.99042700  1
  W  W1  1  0.00240300  0.49881500  0.50956600  1
  O  O0  1  0.64877300  0.76649500  0.04137400  1
  O  O1  1  0.14879000  0.26650100  0.45860200  1
  O  O2  1  0.18776700  0.93416100  0.18553900  1
  O  O3  1  0.68779000  0.43414500  0.31444400  1
  O  O4  1  0.16048900  0.56980500  0.20992400  1
  O  O5  1  0.66049100  0.06979100  0.29008600  1
  O  O6  1  0.90043100  0.73839800  0.57576100  1
  O  O7  1  0.40044500  0.23840100  0.92424300  1
  O  O8  1  0.28402200  0.56252800  0.72045700  1
  O  O9  1  0.78402200  0.06251600  0.77955900  1
  O  O10  1  0.29984300  0.93193100  0.72419000  1
  O  O11  1  0.79984800  0.43190800  0.77576100  1
loop_
_geom_bond_atom_site_label_1
_geom_bond_atom_site_label_2
_geom_bond_distance
_geom_bond_site_symmetry_2
La0 O7 2.321592 1_654
La0 O11 2.391097 1_554
La0 O9 2.417813 1_554
La0 O1 2.435089 1_655
La0 O5 2.685604 1_555
La0 O3 2.696284 1_555
La0 O2 2.834937 1_645
La0 O4 2.921007 1_655
La1 O6 2.321442 1_555
La1 O10 2.390981 1_555
La1 O8 2.417761 1_555
La1 O0 2.435328 1_555
La1 O4 2.685540 1_555
La1 O2 2.696610 1_555
La1 O3 2.835096 1_555
La1 O5 2.920998 1_565
Mg0 O1 2.106263 1_555
Mg0 O3 2.169400 1_555
Mg0 O7 2.182188 1_555
Mg0 O5 2.225570 1_555
Mg0 O11 2.435412 1_555
Mg0 O9 2.459176 1_555
Mg1 O0 2.106309 1_456
Mg1 O2 2.169347 1_556
Mg1 O6 2.182137 1_455
Mg1 O4 2.225590 1_556
Mg1 O10 2.435684 1_555
Mg1 O8 2.459069 1_555
Fe0 O8 2.039490 1_554
Fe0 O3 2.074483 1_555
Fe0 O11 2.141378 1_554
Fe0 O7 2.210550 1_554
Fe0 O4 2.249718 1_555
Fe0 O0 2.351389 1_555
Fe1 O9 2.039379 1_565
Fe1 O2 2.074660 1_655
Fe1 O10 2.140903 1_655
Fe1 O6 2.210633 1_555
Fe1 O5 2.249856 1_565
Fe1 O1 2.351428 1_665
O0 W0 2.059911 1_554
O1 W1 2.059919 1_555
O2 W0 2.102826 1_554
O3 W1 2.102767 1_655
O4 W1 1.969176 1_555
O5 W0 1.969202 1_544
O6 W1 2.049953 1_655
O7 W0 2.049968 1_545
O8 W1 2.006308 1_555
O9 W0 2.006254 1_545
O10 W0 1.931642 1_555
O11 W1 1.931547 1_655
