# generated using pymatgen
data_Ti2ReB2
_symmetry_space_group_name_H-M   'P 1'
_cell_length_a   5.94909500
_cell_length_b   5.94909500
_cell_length_c   3.17834700
_cell_angle_alpha   90.00000000
_cell_angle_beta   90.00000000
_cell_angle_gamma   90.00000000
_symmetry_Int_Tables_number   1
_chemical_formula_structural   Ti2ReB2
_chemical_formula_sum   'Ti4 Re2 B4'
_cell_volume   112.48720306
_cell_formula_units_Z   2
loop_
 _symmetry_equiv_pos_site_id
 _symmetry_equiv_pos_as_xyz
  1  'x, y, z'
loop_
 _atom_site_type_symbol
 _atom_site_label
 _atom_site_symmetry_multiplicity
 _atom_site_fract_x
 _atom_site_fract_y
 _atom_site_fract_z
 _atom_site_occupancy
  Ti  Ti0  1  0.81991900  0.68008100  0.50000000  1
  Ti  Ti1  1  0.31991900  0.81991900  0.50000000  1
  Ti  Ti2  1  0.18008100  0.31991900  0.50000000  1
  Ti  Ti3  1  0.68008100  0.18008100  0.50000000  1
  Re  Re0  1  0.50000000  0.50000000  0.00000000  1
  Re  Re1  1  0.00000000  0.00000000  0.00000000  1
  B  B0  1  0.10822200  0.60822200  0.00000000  1
  B  B1  1  0.60822200  0.89177800  0.00000000  1
  B  B2  1  0.39177800  0.10822200  0.00000000  1
  B  B3  1  0.89177800  0.39177800  0.00000000  1
loop_
_geom_bond_atom_site_label_1
_geom_bond_atom_site_label_2
_geom_bond_distance
_geom_bond_site_symmetry_2
Re0 Ti2 2.701014 1_555
Re0 Ti1 2.701014 1_554
Re0 Ti2 2.701014 1_554
Re0 Ti0 2.701014 1_555
Re0 Ti0 2.701014 1_554
Re0 Ti1 2.701014 1_555
Re0 Ti3 2.701014 1_555
Re0 Ti3 2.701014 1_554
Re1 Ti2 2.701014 1_555
Re1 Ti0 2.701014 1_444
Re1 Ti3 2.701014 1_455
Re1 Ti3 2.701014 1_454
Re1 Ti0 2.701014 1_445
Re1 Ti2 2.701014 1_554
Re1 Ti1 2.701014 1_545
Re1 Ti1 2.701014 1_544
B0 B3 1.821006 1_455
B0 Ti2 2.376960 1_554
B0 Ti2 2.376960 1_555
B0 Ti0 2.376960 1_455
B0 Ti0 2.376960 1_454
B0 Ti1 2.386981 1_555
B0 Ti1 2.386981 1_554
B0 Re1 2.418013 1_565
B0 Re0 2.418013 1_555
B1 B2 1.821006 1_565
B1 Ti3 2.376960 1_565
B1 Ti3 2.376960 1_564
B1 Ti1 2.376960 1_555
B1 Ti1 2.376960 1_554
B1 Ti0 2.386981 1_554
B1 Ti0 2.386981 1_555
B1 Re0 2.418013 1_555
B1 Re1 2.418013 1_665
B2 Ti3 2.376960 1_555
B2 Ti1 2.376960 1_545
B2 Ti3 2.376960 1_554
B2 Ti1 2.376960 1_544
B2 Ti2 2.386981 1_554
B2 Ti2 2.386981 1_555
B2 Re0 2.418013 1_555
B2 Re1 2.418013 1_555
B3 Ti2 2.376960 1_654
B3 Ti0 2.376960 1_554
B3 Ti2 2.376960 1_655
B3 Ti0 2.376960 1_555
B3 Ti3 2.386981 1_555
B3 Ti3 2.386981 1_554
B3 Re0 2.418013 1_555
B3 Re1 2.418013 1_655
