# generated using pymatgen
data_CaSmMgNbO6
_symmetry_space_group_name_H-M   'P 1'
_cell_length_a   5.72762500
_cell_length_b   5.50178600
_cell_length_c   9.60516830
_cell_angle_alpha   55.29215373
_cell_angle_beta   90.00000000
_cell_angle_gamma   90.00000000
_symmetry_Int_Tables_number   1
_chemical_formula_structural   CaSmMgNbO6
_chemical_formula_sum   'Ca2 Sm2 Mg2 Nb2 O12'
_cell_volume   248.82268644
_cell_formula_units_Z   2
loop_
 _symmetry_equiv_pos_site_id
 _symmetry_equiv_pos_as_xyz
  1  'x, y, z'
loop_
 _atom_site_type_symbol
 _atom_site_label
 _atom_site_symmetry_multiplicity
 _atom_site_fract_x
 _atom_site_fract_y
 _atom_site_fract_z
 _atom_site_occupancy
  Ca  Ca0  1  0.19780000  0.73679600  0.75131300  1
  Ca  Ca1  1  0.80220000  0.73679600  0.25131300  1
  Sm  Sm0  1  0.31178800  0.26772000  0.24719300  1
  Sm  Sm1  1  0.68821200  0.26772000  0.74719300  1
  Mg  Mg0  1  0.24684100  0.50173200  0.49973100  1
  Mg  Mg1  1  0.75315900  0.50173200  0.99973100  1
  Nb  Nb0  1  0.75454700  0.00141100  0.49915500  1
  Nb  Nb1  1  0.24545300  0.00141100  0.99915500  1
  O  O0  1  0.95136200  0.24324500  0.94299300  1
  O  O1  1  0.04863800  0.24324500  0.44299300  1
  O  O2  1  0.53798400  0.74934500  0.05533900  1
  O  O3  1  0.46201600  0.74934500  0.55533900  1
  O  O4  1  0.94108500  0.64681000  0.55281800  1
  O  O5  1  0.05891500  0.64681000  0.05281800  1
  O  O6  1  0.55374100  0.34189900  0.45146500  1
  O  O7  1  0.44625900  0.34189900  0.95146500  1
  O  O8  1  0.78665600  0.86271800  0.74486600  1
  O  O9  1  0.21334400  0.86271800  0.24486600  1
  O  O10  1  0.71285600  0.14832400  0.25512700  1
  O  O11  1  0.28714400  0.14832400  0.75512700  1
loop_
_geom_bond_atom_site_label_1
_geom_bond_atom_site_label_2
_geom_bond_distance
_geom_bond_site_symmetry_2
Ca0 O11 2.341792 1_565
Ca0 O7 2.384309 1_555
Ca0 O3 2.385420 1_555
Ca0 O8 2.445485 1_455
Ca0 O0 2.657497 1_455
Ca0 O4 2.667779 1_455
Ca0 O5 2.762608 1_556
Ca0 O1 2.804835 1_565
Ca1 O10 2.341792 1_565
Ca1 O6 2.384309 1_555
Ca1 O2 2.385420 1_555
Ca1 O9 2.445485 1_655
Ca1 O1 2.657497 1_655
Ca1 O5 2.667779 1_655
Ca1 O4 2.762608 1_555
Ca1 O0 2.804835 1_564
Mg0 O11 2.102362 1_555
Mg0 O4 2.104162 1_455
Mg0 O9 2.106511 1_555
Mg0 O3 2.118662 1_555
Mg0 O1 2.119159 1_555
Mg0 O6 2.131281 1_555
Mg1 O10 2.102362 1_556
Mg1 O5 2.104162 1_656
Mg1 O8 2.106511 1_555
Mg1 O2 2.118662 1_556
Mg1 O0 2.119159 1_555
Mg1 O7 2.131281 1_555
Nb0 O10 2.011680 1_555
Nb0 O6 2.016107 1_555
Nb0 O4 2.016980 1_545
Nb0 O1 2.020217 1_655
Nb0 O8 2.033545 1_545
Nb0 O3 2.041944 1_545
Nb1 O11 2.011680 1_555
Nb1 O7 2.016107 1_555
Nb1 O5 2.016980 1_546
Nb1 O0 2.020217 1_455
Nb1 O9 2.033545 1_546
Nb1 O2 2.041944 1_546
O0 Sm1 2.353395 1_555
O1 Sm0 2.353395 1_555
O2 Sm0 2.556382 1_555
O2 Sm1 2.832274 1_564
O3 Sm1 2.556382 1_555
O3 Sm0 2.832274 1_565
O4 Sm1 2.345017 1_555
O5 Sm0 2.345017 1_555
O6 Sm0 2.616990 1_555
O6 Sm1 2.740101 1_555
O7 Sm1 2.616990 1_555
O7 Sm0 2.740101 1_556
O8 Sm1 2.310881 1_565
O9 Sm0 2.310881 1_565
O10 Sm0 2.378504 1_555
O11 Sm1 2.378504 1_555
