# generated using pymatgen
data_KSiO3
_symmetry_space_group_name_H-M   'P 1'
_cell_length_a   7.76175628
_cell_length_b   7.76175628
_cell_length_c   11.26160900
_cell_angle_alpha   90.00000000
_cell_angle_beta   90.00000000
_cell_angle_gamma   98.93432999
_symmetry_Int_Tables_number   1
_chemical_formula_structural   KSiO3
_chemical_formula_sum   'K8 Si8 O24'
_cell_volume   670.22237394
_cell_formula_units_Z   8
loop_
 _symmetry_equiv_pos_site_id
 _symmetry_equiv_pos_as_xyz
  1  'x, y, z'
loop_
 _atom_site_type_symbol
 _atom_site_label
 _atom_site_symmetry_multiplicity
 _atom_site_fract_x
 _atom_site_fract_y
 _atom_site_fract_z
 _atom_site_occupancy
  K  K0  1  0.98601800  0.48601800  0.25000000  1
  K  K1  1  0.51398200  0.01398200  0.75000000  1
  K  K2  1  0.01398200  0.51398200  0.75000000  1
  K  K3  1  0.48601800  0.98601800  0.25000000  1
  K  K4  1  0.32161200  0.32161200  0.46845700  1
  K  K5  1  0.67838800  0.67838800  0.53154300  1
  K  K6  1  0.17838800  0.17838800  0.96845700  1
  K  K7  1  0.82161200  0.82161200  0.03154300  1
  Si  Si0  1  0.99124200  0.99124200  0.31597100  1
  Si  Si1  1  0.00875800  0.00875800  0.68402900  1
  Si  Si2  1  0.50875800  0.50875800  0.81597100  1
  Si  Si3  1  0.49124200  0.49124200  0.18402900  1
  Si  Si4  1  0.19594600  0.80405400  0.50000000  1
  Si  Si5  1  0.69594600  0.30405400  0.00000000  1
  Si  Si6  1  0.80405400  0.19594600  0.50000000  1
  Si  Si7  1  0.30405400  0.69594600  0.00000000  1
  O  O0  1  0.04456100  0.04456100  0.18035500  1
  O  O1  1  0.95543900  0.95543900  0.81964500  1
  O  O2  1  0.45543900  0.45543900  0.68035500  1
  O  O3  1  0.54456100  0.54456100  0.31964500  1
  O  O4  1  0.15859100  0.93710700  0.39067800  1
  O  O5  1  0.06289300  0.84140900  0.60932200  1
  O  O6  1  0.56289300  0.34140900  0.89067800  1
  O  O7  1  0.65859100  0.43710700  0.10932200  1
  O  O8  1  0.84140900  0.06289300  0.60932200  1
  O  O9  1  0.93710700  0.15859100  0.39067800  1
  O  O10  1  0.43710700  0.65859100  0.10932200  1
  O  O11  1  0.34140900  0.56289300  0.89067800  1
  O  O12  1  0.83322700  0.83322700  0.29041800  1
  O  O13  1  0.16677300  0.16677300  0.70958200  1
  O  O14  1  0.66677300  0.66677300  0.79041800  1
  O  O15  1  0.33322700  0.33322700  0.20958200  1
  O  O16  1  0.16027100  0.59964900  0.46561800  1
  O  O17  1  0.40035100  0.83972900  0.53438200  1
  O  O18  1  0.90035100  0.33972900  0.96561800  1
  O  O19  1  0.66027100  0.09964900  0.03438200  1
  O  O20  1  0.83972900  0.40035100  0.53438200  1
  O  O21  1  0.59964900  0.16027100  0.46561800  1
  O  O22  1  0.09964900  0.66027100  0.03438200  1
  O  O23  1  0.33972900  0.90035100  0.96561800  1
loop_
_geom_bond_atom_site_label_1
_geom_bond_atom_site_label_2
_geom_bond_distance
_geom_bond_site_symmetry_2
K0 O16 2.851812 1_655
K0 O22 2.851812 1_655
K0 O9 2.968685 1_555
K0 O7 2.968685 1_555
K0 O12 3.141507 1_555
K0 O15 3.141507 1_655
K1 O23 2.851812 1_545
K1 O17 2.851812 1_545
K1 O6 2.968685 1_555
K1 O8 2.968685 1_555
K1 O13 3.141507 1_555
K1 O14 3.141507 1_545
K2 O18 2.851812 1_455
K2 O20 2.851812 1_455
K2 O11 2.968685 1_555
K2 O5 2.968685 1_555
K2 O13 3.141507 1_555
K2 O14 3.141507 1_455
K3 O21 2.851812 1_565
K3 O19 2.851812 1_565
K3 O4 2.968685 1_555
K3 O10 2.968685 1_555
K3 O12 3.141507 1_555
K3 O15 3.141507 1_565
K4 O16 2.658170 1_555
K4 O21 2.658170 1_555
K4 O2 2.741767 1_555
K4 O3 2.804904 1_555
K4 O15 2.917703 1_555
K4 O13 3.132702 1_555
K4 O4 3.178396 1_545
K4 O9 3.178396 1_455
K5 O20 2.658170 1_555
K5 O17 2.658170 1_555
K5 O3 2.741767 1_555
K5 O2 2.804904 1_555
K5 O14 2.917703 1_555
K5 O12 3.132702 1_555
K5 O8 3.178396 1_565
K5 O5 3.178396 1_655
K6 O23 2.658170 1_545
K6 O18 2.658170 1_455
K6 O0 2.741767 1_556
K6 O1 2.804904 1_445
K6 O13 2.917703 1_555
K6 O15 3.132702 1_556
K6 O6 3.178396 1_555
K6 O11 3.178396 1_555
K7 O19 2.658170 1_565
K7 O22 2.658170 1_655
K7 O1 2.741767 1_554
K7 O0 2.804904 1_665
K7 O12 2.917703 1_555
K7 O14 3.132702 1_554
K7 O7 3.178396 1_555
K7 O10 3.178396 1_555
O0 Si0 1.619213 1_445
O1 Si1 1.619213 1_665
O2 Si2 1.619213 1_555
O3 Si3 1.619213 1_555
O4 Si0 1.655626 1_455
O4 Si4 1.661114 1_555
O5 Si1 1.655626 1_565
O5 Si4 1.661114 1_555
O6 Si2 1.655626 1_555
O6 Si5 1.661114 1_556
O7 Si3 1.655626 1_555
O7 Si5 1.661114 1_555
O8 Si1 1.655626 1_655
O8 Si6 1.661114 1_555
O9 Si0 1.655626 1_545
O9 Si6 1.661114 1_555
O10 Si3 1.655626 1_555
O10 Si7 1.661114 1_555
O11 Si2 1.655626 1_555
O11 Si7 1.661114 1_556
O12 Si0 1.619896 1_555
O13 Si1 1.619896 1_555
O14 Si2 1.619896 1_555
O15 Si3 1.619896 1_555
O16 Si4 1.614700 1_555
O17 Si4 1.614700 1_555
O18 Si5 1.614700 1_556
O19 Si5 1.614700 1_555
O20 Si6 1.614700 1_555
O21 Si6 1.614700 1_555
O22 Si7 1.614700 1_555
O23 Si7 1.614700 1_556
