# generated using pymatgen
data_KFeAs3H7O13
_symmetry_space_group_name_H-M   'P 1'
_cell_length_a   4.76563082
_cell_length_b   8.73561300
_cell_length_c   14.25900582
_cell_angle_alpha   90.00000000
_cell_angle_beta   94.62827422
_cell_angle_gamma   90.00000000
_symmetry_Int_Tables_number   1
_chemical_formula_structural   KFeAs3H7O13
_chemical_formula_sum   'K2 Fe2 As6 H14 O26'
_cell_volume   591.67682309
_cell_formula_units_Z   2
loop_
 _symmetry_equiv_pos_site_id
 _symmetry_equiv_pos_as_xyz
  1  'x, y, z'
loop_
 _atom_site_type_symbol
 _atom_site_label
 _atom_site_symmetry_multiplicity
 _atom_site_fract_x
 _atom_site_fract_y
 _atom_site_fract_z
 _atom_site_occupancy
  K  K0  1  0.12751200  0.00645000  0.51259100  1
  K  K1  1  0.62751200  0.99355000  0.01259100  1
  Fe  Fe0  1  0.25072500  0.22714700  0.74933500  1
  Fe  Fe1  1  0.75072500  0.77285300  0.24933500  1
  As  As0  1  0.74951500  0.96522100  0.74871200  1
  As  As1  1  0.24951500  0.03477900  0.24871200  1
  As  As2  1  0.70768400  0.35469000  0.60175800  1
  As  As3  1  0.29637100  0.65446200  0.39640200  1
  As  As4  1  0.79637100  0.34553800  0.89640200  1
  As  As5  1  0.20768400  0.64531000  0.10175800  1
  H  H0  1  0.48465200  0.77036400  0.80598100  1
  H  H1  1  0.51417800  0.22935800  0.19222000  1
  H  H2  1  0.01417800  0.77064200  0.69222000  1
  H  H3  1  0.98465200  0.22963600  0.30598100  1
  H  H4  1  0.40858300  0.32573500  0.46985300  1
  H  H5  1  0.60632700  0.66305300  0.52681000  1
  H  H6  1  0.10632700  0.33694700  0.02681000  1
  H  H7  1  0.90858300  0.67426500  0.96985300  1
  H  H8  1  0.34980500  0.58266400  0.71043100  1
  H  H9  1  0.64991200  0.41571100  0.28911800  1
  H  H10  1  0.14991200  0.58428900  0.78911800  1
  H  H11  1  0.84980500  0.41733600  0.21043100  1
  H  H12  1  0.02334100  0.49715600  0.48455400  1
  H  H13  1  0.52334100  0.50284400  0.98455400  1
  O  O0  1  0.47880100  0.39246400  0.68636400  1
  O  O1  1  0.52876100  0.60707700  0.31623600  1
  O  O2  1  0.02876100  0.39292300  0.81623600  1
  O  O3  1  0.97880100  0.60753600  0.18636400  1
  O  O4  1  0.53448800  0.25180100  0.50595500  1
  O  O5  1  0.46112400  0.73916000  0.49813800  1
  O  O6  1  0.96112400  0.26084000  0.99813800  1
  O  O7  1  0.03448800  0.74819900  0.00595500  1
  O  O8  1  0.24915000  0.65660300  0.74921000  1
  O  O9  1  0.74915000  0.34339700  0.24921000  1
  O  O10  1  0.97471300  0.23025500  0.63473200  1
  O  O11  1  0.02668300  0.77700100  0.36657200  1
  O  O12  1  0.52668300  0.22299900  0.86657200  1
  O  O13  1  0.47471300  0.76974500  0.13473200  1
  O  O14  1  0.47330800  0.05834600  0.69092400  1
  O  O15  1  0.51601400  0.93663800  0.30804700  1
  O  O16  1  0.01601400  0.06336200  0.80804700  1
  O  O17  1  0.97330800  0.94165400  0.19092400  1
  O  O18  1  0.82339700  0.52281500  0.55762400  1
  O  O19  1  0.16681800  0.47791600  0.43263100  1
  O  O20  1  0.66681800  0.52208400  0.93263100  1
  O  O21  1  0.32339700  0.47718500  0.05762400  1
  O  O22  1  0.63428000  0.84216000  0.83545300  1
  O  O23  1  0.37435700  0.15324500  0.16145200  1
  O  O24  1  0.87435700  0.84675500  0.66145200  1
  O  O25  1  0.13428000  0.15784000  0.33545300  1
loop_
_geom_bond_atom_site_label_1
_geom_bond_atom_site_label_2
_geom_bond_distance
_geom_bond_site_symmetry_2
K0 O10 2.755074 1_455
K0 O5 2.841653 1_545
K0 O25 2.853573 1_555
K0 O24 2.884504 1_445
K0 O4 2.897226 1_555
K0 O11 2.902076 1_545
K0 O14 2.951448 1_555
K1 O13 2.755074 1_555
K1 O6 2.841653 1_564
K1 O22 2.853573 1_554
K1 O23 2.884504 1_565
K1 O7 2.897226 1_655
K1 O12 2.902076 1_564
K1 O17 2.951448 1_555
Fe0 O10 2.013558 1_455
Fe0 O14 2.033678 1_555
Fe0 O16 2.037206 1_555
Fe0 O12 2.042198 1_555
Fe0 O0 2.056866 1_555
Fe0 O2 2.070976 1_555
Fe1 O13 2.013558 1_555
Fe1 O17 2.033678 1_555
Fe1 O15 2.037206 1_555
Fe1 O11 2.042198 1_655
Fe1 O3 2.056866 1_555
Fe1 O1 2.070976 1_555
As0 O16 1.700117 1_665
As0 O14 1.702460 1_565
As0 O24 1.758559 1_555
As0 O22 1.759724 1_555
As1 O15 1.700117 1_545
As1 O17 1.702460 1_445
As1 O23 1.758559 1_555
As1 O25 1.759724 1_555
As2 O18 1.706789 1_555
As2 O10 1.710416 1_555
As2 O0 1.722332 1_555
As2 O4 1.781362 1_555
As3 O11 1.700115 1_555
As3 O1 1.705525 1_555
As3 O19 1.754428 1_555
As3 O5 1.756270 1_555
As4 O12 1.700115 1_555
As4 O2 1.705525 1_655
As4 O20 1.754428 1_555
As4 O6 1.756270 1_555
As5 O21 1.706789 1_555
As5 O13 1.710416 1_555
As5 O3 1.722332 1_455
As5 O7 1.781362 1_555
H0 O22 1.014924 1_555
H0 O8 1.660074 1_555
H1 O23 1.015571 1_555
H1 O9 1.661278 1_555
H2 O24 1.015571 1_455
H2 O8 1.661278 1_555
H3 O25 1.014924 1_655
H3 O9 1.660074 1_555
H4 O4 0.996145 1_555
H5 O5 1.020953 1_555
H5 O18 1.640312 1_555
H6 O6 1.020953 1_454
H6 O21 1.640312 1_555
H7 O7 0.996145 1_656
H8 O8 0.997921 1_555
H9 O9 0.994970 1_555
H10 O8 0.994970 1_555
H11 O9 0.997921 1_555
H12 O19 1.060952 1_555
H12 O18 1.484577 1_455
H13 O20 1.060952 1_555
H13 O21 1.484577 1_556
