# generated using pymatgen
data_Sr2NdNb(CuO4)2
_symmetry_space_group_name_H-M   'P 1'
_cell_length_a   5.53993635
_cell_length_b   5.53993582
_cell_length_c   12.47795864
_cell_angle_alpha   102.73269393
_cell_angle_beta   102.73269386
_cell_angle_gamma   89.96656481
_symmetry_Int_Tables_number   1
_chemical_formula_structural   Sr2NdNb(CuO4)2
_chemical_formula_sum   'Sr4 Nd2 Nb2 Cu4 O16'
_cell_volume   363.89262015
_cell_formula_units_Z   2
loop_
 _symmetry_equiv_pos_site_id
 _symmetry_equiv_pos_as_xyz
  1  'x, y, z'
loop_
 _atom_site_type_symbol
 _atom_site_label
 _atom_site_symmetry_multiplicity
 _atom_site_fract_x
 _atom_site_fract_y
 _atom_site_fract_z
 _atom_site_occupancy
  Sr  Sr0  1  0.58886500  0.08886500  0.19856500  1
  Sr  Sr1  1  0.91193900  0.41193900  0.80064400  1
  Sr  Sr2  1  0.08806100  0.58806100  0.19935600  1
  Sr  Sr3  1  0.41113500  0.91113500  0.80143500  1
  Nd  Nd0  1  0.24942500  0.74942500  0.50013500  1
  Nd  Nd1  1  0.75057500  0.25057500  0.49986500  1
  Nb  Nb0  1  0.00000000  0.00000000  0.00000000  1
  Nb  Nb1  1  0.50000000  0.50000000  0.00000000  1
  Cu  Cu0  1  0.67183400  0.67143500  0.35336900  1
  Cu  Cu1  1  0.82856500  0.82816600  0.64663100  1
  Cu  Cu2  1  0.17143500  0.17183400  0.35336900  1
  Cu  Cu3  1  0.32816600  0.32856500  0.64663100  1
  O  O0  1  0.18618100  0.31381900  0.00000000  1
  O  O1  1  0.43729400  0.42264900  0.36986800  1
  O  O2  1  0.59233500  0.56837900  0.16616300  1
  O  O3  1  0.57767100  0.07767100  0.63335700  1
  O  O4  1  0.68180200  0.18180200  0.99097400  1
  O  O5  1  0.94165200  0.44165200  0.37271300  1
  O  O6  1  0.93162100  0.90766500  0.83383700  1
  O  O7  1  0.06837900  0.09233500  0.16616300  1
  O  O8  1  0.07735100  0.06270600  0.63013200  1
  O  O9  1  0.31819800  0.81819800  0.00902600  1
  O  O10  1  0.42232900  0.92232900  0.36664300  1
  O  O11  1  0.40766500  0.43162100  0.83383700  1
  O  O12  1  0.56270600  0.57735100  0.63013200  1
  O  O13  1  0.81381900  0.68618100  0.00000000  1
  O  O14  1  0.92264900  0.93729400  0.36986800  1
  O  O15  1  0.05834800  0.55834800  0.62728700  1
loop_
_geom_bond_atom_site_label_1
_geom_bond_atom_site_label_2
_geom_bond_distance
_geom_bond_site_symmetry_2
Nd0 O5 2.440433 1_455
Nd0 O8 2.447614 1_565
Nd0 O12 2.447614 1_555
Nd0 O10 2.453031 1_555
Nd0 O15 2.498067 1_555
Nd0 O1 2.539495 1_555
Nd0 O14 2.539495 1_455
Nd0 O3 2.591489 1_565
Nd1 O15 2.440433 1_655
Nd1 O14 2.447614 1_545
Nd1 O1 2.447614 1_555
Nd1 O3 2.453031 1_555
Nd1 O5 2.498067 1_555
Nd1 O12 2.539495 1_555
Nd1 O8 2.539495 1_655
Nd1 O10 2.591489 1_545
Nb0 O7 1.972445 1_555
Nb0 O6 1.972445 1_444
Nb0 O0 2.021993 1_555
Nb0 O13 2.021993 1_445
Nb0 O4 2.023597 1_454
Nb0 O9 2.023597 1_545
Nb1 O2 1.972445 1_555
Nb1 O11 1.972445 1_554
Nb1 O13 2.021993 1_555
Nb1 O0 2.021993 1_555
Nb1 O4 2.023597 1_554
Nb1 O9 2.023597 1_555
Cu0 O10 1.966506 1_555
Cu0 O1 1.968588 1_555
Cu0 O14 1.971037 1_555
Cu0 O5 1.971618 1_555
Cu0 O2 2.221597 1_555
Cu1 O3 1.966506 1_565
Cu1 O8 1.968588 1_665
Cu1 O12 1.971037 1_555
Cu1 O15 1.971618 1_655
Cu1 O6 2.221597 1_555
Cu2 O10 1.966506 1_545
Cu2 O14 1.968588 1_445
Cu2 O1 1.971037 1_555
Cu2 O5 1.971618 1_455
Cu2 O7 2.221597 1_555
Cu3 O3 1.966506 1_555
Cu3 O12 1.968588 1_555
Cu3 O8 1.971037 1_555
Cu3 O15 1.971618 1_555
Cu3 O11 2.221597 1_555
O0 Sr2 2.778629 1_555
O0 Sr1 2.778629 1_454
O1 Sr0 2.782162 1_555
O1 Sr2 2.855277 1_555
O2 Sr2 2.684137 1_655
O2 Sr0 2.774461 1_555
O2 Sr0 2.822700 1_565
O2 Sr2 2.911645 1_555
O3 Sr3 2.794240 1_545
O3 Sr1 2.794973 1_555
O4 Sr3 2.639412 1_545
O4 Sr0 2.901029 1_556
O5 Sr2 2.746362 1_655
O5 Sr0 2.936282 1_555
O6 Sr1 2.684136 1_555
O6 Sr3 2.774462 1_655
O6 Sr3 2.822701 1_555
O6 Sr1 2.911644 1_565
O7 Sr2 2.684136 1_555
O7 Sr0 2.774462 1_455
O7 Sr0 2.822701 1_555
O7 Sr2 2.911644 1_545
O8 Sr3 2.782162 1_545
O8 Sr1 2.855277 1_455
O9 Sr0 2.639412 1_565
O9 Sr3 2.901029 1_554
O10 Sr0 2.794240 1_565
O10 Sr2 2.794973 1_555
O11 Sr1 2.684137 1_455
O11 Sr3 2.774461 1_555
O11 Sr3 2.822700 1_545
O11 Sr1 2.911645 1_555
O12 Sr3 2.782162 1_555
O12 Sr1 2.855277 1_555
O13 Sr1 2.778629 1_554
O13 Sr2 2.778629 1_655
O14 Sr0 2.782162 1_565
O14 Sr2 2.855277 1_655
O15 Sr1 2.746362 1_455
O15 Sr3 2.936282 1_555
