# generated using pymatgen
data_Cs3Zr2P5S18
_symmetry_space_group_name_H-M   'P 1'
_cell_length_a   6.94851616
_cell_length_b   6.94851616
_cell_length_c   34.40189759
_cell_angle_alpha   86.69096941
_cell_angle_beta   86.69096941
_cell_angle_gamma   93.44480675
_symmetry_Int_Tables_number   1
_chemical_formula_structural   Cs3Zr2P5S18
_chemical_formula_sum   'Cs6 Zr4 P10 S36'
_cell_volume   1652.09940998
_cell_formula_units_Z   2
loop_
 _symmetry_equiv_pos_site_id
 _symmetry_equiv_pos_as_xyz
  1  'x, y, z'
loop_
 _atom_site_type_symbol
 _atom_site_label
 _atom_site_symmetry_multiplicity
 _atom_site_fract_x
 _atom_site_fract_y
 _atom_site_fract_z
 _atom_site_occupancy
  Cs  Cs0  1  0.72042825  0.52661929  0.86390536  1
  Cs  Cs1  1  0.52661929  0.72042825  0.36390536  1
  Cs  Cs2  1  0.22618353  0.00618051  0.56889827  1
  Cs  Cs3  1  0.00618051  0.22618353  0.06889827  1
  Cs  Cs4  1  0.34084462  0.06021926  0.75409775  1
  Cs  Cs5  1  0.06021926  0.34084462  0.25409775  1
  Zr  Zr0  1  0.65157619  0.47564130  0.65396395  1
  Zr  Zr1  1  0.47564130  0.65157619  0.15396395  1
  Zr  Zr2  1  0.46190390  0.87562416  0.96396651  1
  Zr  Zr3  1  0.87562416  0.46190390  0.46396651  1
  P  P0  1  0.84297044  0.35008347  0.73729351  1
  P  P1  1  0.35008347  0.84297044  0.23729351  1
  P  P2  1  0.19806737  0.56617159  0.67324320  1
  P  P3  1  0.56617159  0.19806737  0.17324320  1
  P  P4  1  0.73808240  0.44029281  0.55858847  1
  P  P5  1  0.44029281  0.73808240  0.05858847  1
  P  P6  1  0.25273747  0.80812653  0.88081070  1
  P  P7  1  0.80812653  0.25273747  0.38081070  1
  P  P8  1  0.92577934  0.98624876  0.94519292  1
  P  P9  1  0.98624876  0.92577934  0.44519292  1
  S  S0  1  0.11785561  0.51863432  0.73355925  1
  S  S1  1  0.51863432  0.11785561  0.23355925  1
  S  S2  1  0.83951319  0.20538796  0.78794939  1
  S  S3  1  0.20538796  0.83951319  0.28794939  1
  S  S4  1  0.82441950  0.19263144  0.68964273  1
  S  S5  1  0.19263144  0.82441950  0.18964273  1
  S  S6  1  0.30128883  0.31666558  0.65488467  1
  S  S7  1  0.31666558  0.30128883  0.15488467  1
  S  S8  1  0.41842067  0.77047111  0.66865232  1
  S  S9  1  0.77047111  0.41842067  0.16865232  1
  S  S10  1  0.73285981  0.22478382  0.60169339  1
  S  S11  1  0.22478382  0.73285981  0.10169339  1
  S  S12  1  0.00782144  0.51050930  0.53377446  1
  S  S13  1  0.51050930  0.00782144  0.03377446  1
  S  S14  1  0.48143759  0.99294757  0.88950265  1
  S  S15  1  0.99294757  0.48143759  0.38950265  1
  S  S16  1  0.64235835  0.54516319  0.72840871  1
  S  S17  1  0.54516319  0.64235835  0.22840871  1
  S  S18  1  0.72710743  0.18402143  0.95002708  1
  S  S19  1  0.18402143  0.72710743  0.45002708  1
  S  S20  1  0.58141867  0.36110564  0.51334892  1
  S  S21  1  0.36110564  0.58141867  0.01334892  1
  S  S22  1  0.25210941  0.61962704  0.92806149  1
  S  S23  1  0.61962704  0.25210941  0.42806149  1
  S  S24  1  0.79579563  0.72541317  0.96401356  1
  S  S25  1  0.72541317  0.79579563  0.46401356  1
  S  S26  1  0.07030376  0.15483468  0.47545623  1
  S  S27  1  0.15483468  0.07030376  0.97545623  1
  S  S28  1  0.62492790  0.66250156  0.58664383  1
  S  S29  1  0.66250156  0.62492790  0.08664383  1
  S  S30  1  0.98401949  0.66941718  0.64226954  1
  S  S31  1  0.66941718  0.98401949  0.14226954  1
  S  S32  1  0.00193137  0.97683778  0.88462865  1
  S  S33  1  0.97683778  0.00193137  0.38462865  1
  S  S34  1  0.23778149  0.69247492  0.83025448  1
  S  S35  1  0.69247492  0.23778149  0.33025448  1
loop_
_geom_bond_atom_site_label_1
_geom_bond_atom_site_label_2
_geom_bond_distance
_geom_bond_site_symmetry_2
Cs0 S2 3.624979 1_555
Cs0 S18 3.696212 1_555
Cs0 S32 3.715370 1_655
Cs0 S34 3.802480 1_655
Cs0 S34 3.830680 1_555
Cs0 S24 3.835790 1_555
Cs0 S14 3.852253 1_555
Cs0 S22 3.932746 1_555
Cs0 S14 3.999783 1_545
Cs1 S3 3.624979 1_555
Cs1 S19 3.696212 1_555
Cs1 S33 3.715370 1_565
Cs1 S35 3.802480 1_565
Cs1 S35 3.830680 1_555
Cs1 S25 3.835790 1_555
Cs1 S15 3.852253 1_555
Cs1 S23 3.932746 1_555
Cs1 S15 3.999783 1_455
Cs2 S26 3.567456 1_555
Cs2 S30 3.610100 1_445
Cs2 S20 3.742553 1_555
Cs2 S6 3.802202 1_555
Cs2 S28 3.817629 1_545
Cs2 S12 3.960894 1_545
Cs2 S10 3.963271 1_455
Cs2 S10 3.998602 1_555
Cs2 S8 4.048056 1_545
Cs2 S12 4.050235 1_555
Cs3 S27 3.567456 1_554
Cs3 S31 3.610100 1_445
Cs3 S21 3.742553 1_555
Cs3 S7 3.802202 1_555
Cs3 S29 3.817629 1_455
Cs3 S13 3.960894 1_455
Cs3 S11 3.963271 1_545
Cs3 S11 3.998602 1_555
Cs3 S9 4.048056 1_455
Cs3 S13 4.050235 1_555
Cs4 S34 3.563285 1_545
Cs4 S0 3.675030 1_555
Cs4 S8 3.689891 1_545
Cs4 S6 3.790146 1_555
Cs4 S2 3.815938 1_555
Cs4 S2 3.820745 1_455
Cs4 S16 3.888305 1_555
Cs4 S4 3.947983 1_555
Cs4 S0 4.098096 1_545
Cs5 S35 3.563285 1_455
Cs5 S1 3.675030 1_555
Cs5 S9 3.689891 1_455
Cs5 S7 3.790146 1_555
Cs5 S3 3.815938 1_555
Cs5 S3 3.820745 1_545
Cs5 S17 3.888305 1_555
Cs5 S5 3.947983 1_555
Cs5 S1 4.098096 1_455
P0 S2 1.959158 1_555
P0 S16 2.025435 1_555
P0 S4 2.028619 1_555
P0 S0 2.172994 1_655
P1 S3 1.959158 1_555
P1 S17 2.025435 1_555
P1 S5 2.028619 1_555
P1 S1 2.172994 1_565
P2 S8 2.017300 1_555
P2 S30 2.021166 1_455
P2 S6 2.035326 1_555
P2 S0 2.119094 1_555
P3 S9 2.017300 1_555
P3 S31 2.021166 1_545
P3 S7 2.035326 1_555
P3 S1 2.119094 1_555
P4 S20 2.032824 1_555
P4 S12 2.033969 1_655
P4 S28 2.040600 1_555
P4 S10 2.042939 1_555
P5 S21 2.032824 1_555
P5 S13 2.033969 1_565
P5 S29 2.040600 1_555
P5 S11 2.042939 1_555
P6 S34 1.963080 1_555
P6 S22 2.027458 1_555
P6 S14 2.029267 1_555
P6 S32 2.159976 1_555
P7 S35 1.963080 1_555
P7 S23 2.027458 1_555
P7 S15 2.029267 1_555
P7 S33 2.159976 1_555
P8 S18 2.012393 1_565
P8 S27 2.026819 1_665
P8 S24 2.029812 1_555
P8 S32 2.125550 1_655
P9 S19 2.012393 1_655
P9 S26 2.026819 1_665
P9 S25 2.029812 1_555
P9 S33 2.125550 1_565
S4 Zr0 2.644133 1_555
S5 Zr1 2.644133 1_555
S6 Zr0 2.609491 1_555
S7 Zr1 2.609491 1_555
S8 Zr0 2.738749 1_555
S9 Zr1 2.738749 1_555
S10 Zr0 2.637008 1_555
S11 Zr1 2.637008 1_555
S12 Zr3 2.652581 1_455
S13 Zr2 2.652581 1_544
S14 Zr2 2.636435 1_555
S15 Zr3 2.636435 1_555
S16 Zr0 2.631349 1_555
S17 Zr1 2.631349 1_555
S18 Zr2 2.742736 1_545
S19 Zr3 2.742736 1_455
S20 Zr3 2.616375 1_555
S21 Zr2 2.616375 1_554
S22 Zr2 2.639094 1_555
S23 Zr3 2.639094 1_555
S24 Zr2 2.600632 1_555
S25 Zr3 2.600632 1_555
S26 Zr3 2.617235 1_455
S27 Zr2 2.617235 1_545
S28 Zr0 2.610550 1_555
S29 Zr1 2.610550 1_555
S30 Zr0 2.601392 1_555
S31 Zr1 2.601392 1_555
