# generated using pymatgen
data_K6Ta11O30
_symmetry_space_group_name_H-M   'P 1'
_cell_length_a   12.88161929
_cell_length_b   12.88161929
_cell_length_c   3.96009900
_cell_angle_alpha   90.00000000
_cell_angle_beta   90.00000000
_cell_angle_gamma   90.39404024
_symmetry_Int_Tables_number   1
_chemical_formula_structural   K6Ta11O30
_chemical_formula_sum   'K6 Ta11 O30'
_cell_volume   657.10790507
_cell_formula_units_Z   1
loop_
 _symmetry_equiv_pos_site_id
 _symmetry_equiv_pos_as_xyz
  1  'x, y, z'
loop_
 _atom_site_type_symbol
 _atom_site_label
 _atom_site_symmetry_multiplicity
 _atom_site_fract_x
 _atom_site_fract_y
 _atom_site_fract_z
 _atom_site_occupancy
  K  K0  1  0.83777100  0.16222900  0.00000000  1
  K  K1  1  0.17011200  0.82988800  0.00000000  1
  K  K2  1  0.31238800  0.32541300  0.00000000  1
  K  K3  1  0.67458700  0.68761200  0.00000000  1
  K  K4  1  0.49795200  0.98996400  0.00000000  1
  K  K5  1  0.01003600  0.50204800  0.00000000  1
  Ta  Ta0  1  0.57207000  0.19443600  0.50000000  1
  Ta  Ta1  1  0.42073400  0.79465400  0.50000000  1
  Ta  Ta2  1  0.08447500  0.28722200  0.50000000  1
  Ta  Ta3  1  0.93035000  0.71900300  0.50000000  1
  Ta  Ta4  1  0.28099700  0.06965000  0.50000000  1
  Ta  Ta5  1  0.71277800  0.91552500  0.50000000  1
  Ta  Ta6  1  0.20534600  0.57926600  0.50000000  1
  Ta  Ta7  1  0.80556400  0.42793000  0.50000000  1
  Ta  Ta8  1  0.48631400  0.51368600  0.50000000  1
  Ta  Ta9  1  0.99403700  0.00596300  0.50000000  1
  Ta  Ta10  1  0.61658300  0.38341700  0.00000000  1
  O  O0  1  0.70872200  0.29127800  0.50000000  1
  O  O1  1  0.29034200  0.70965800  0.50000000  1
  O  O2  1  0.21491500  0.21279300  0.50000000  1
  O  O3  1  0.78720700  0.78508500  0.50000000  1
  O  O4  1  0.50586700  0.49413300  0.00000000  1
  O  O5  1  0.99942600  0.00057400  0.00000000  1
  O  O6  1  0.51524800  0.34901300  0.50000000  1
  O  O7  1  0.50534900  0.65556800  0.50000000  1
  O  O8  1  0.99993500  0.15711800  0.50000000  1
  O  O9  1  0.00107100  0.84554000  0.50000000  1
  O  O10  1  0.15446000  0.99892900  0.50000000  1
  O  O11  1  0.84288200  0.00006500  0.50000000  1
  O  O12  1  0.34443200  0.49465100  0.50000000  1
  O  O13  1  0.65098700  0.48475200  0.50000000  1
  O  O14  1  0.64193800  0.06936600  0.50000000  1
  O  O15  1  0.35736700  0.93112200  0.50000000  1
  O  O16  1  0.14313700  0.43150500  0.50000000  1
  O  O17  1  0.85624000  0.56330700  0.50000000  1
  O  O18  1  0.43669300  0.14376000  0.50000000  1
  O  O19  1  0.56849500  0.85686300  0.50000000  1
  O  O20  1  0.06887800  0.64263300  0.50000000  1
  O  O21  1  0.93063400  0.35806200  0.50000000  1
  O  O22  1  0.58098300  0.23031100  0.00000000  1
  O  O23  1  0.42471800  0.79201900  0.00000000  1
  O  O24  1  0.07581800  0.29533700  0.00000000  1
  O  O25  1  0.92096000  0.70163400  0.00000000  1
  O  O26  1  0.29836600  0.07904000  0.00000000  1
  O  O27  1  0.70466300  0.92418200  0.00000000  1
  O  O28  1  0.20798100  0.57528200  0.00000000  1
  O  O29  1  0.76968900  0.41901700  0.00000000  1
loop_
_geom_bond_atom_site_label_1
_geom_bond_atom_site_label_2
_geom_bond_distance
_geom_bond_site_symmetry_2
K0 O8 2.879318 1_554
K0 O11 2.879318 1_554
K0 O11 2.879318 1_555
K0 O8 2.879318 1_555
K0 O5 2.955037 1_555
K0 O0 3.079852 1_554
K0 O0 3.079852 1_555
K1 O10 2.951082 1_555
K1 O10 2.951082 1_554
K1 O9 2.951082 1_555
K1 O9 2.951082 1_554
K1 O1 2.958190 1_554
K1 O1 2.958190 1_555
K1 O5 3.120122 1_465
K1 O23 3.319133 1_555
K1 O28 3.319133 1_555
K1 O20 3.375849 1_555
K1 O20 3.375849 1_554
K1 O15 3.375849 1_555
K1 O15 3.375849 1_554
K2 O2 2.752582 1_555
K2 O2 2.752582 1_554
K2 O12 2.971744 1_555
K2 O12 2.971744 1_554
K2 O24 3.069289 1_555
K2 O26 3.177579 1_555
K2 O16 3.253101 1_555
K2 O16 3.253101 1_554
K2 O6 3.291006 1_554
K2 O6 3.291006 1_555
K2 O4 3.295569 1_555
K3 O3 2.752582 1_554
K3 O3 2.752582 1_555
K3 O7 2.971744 1_554
K3 O7 2.971744 1_555
K3 O27 3.069289 1_555
K3 O25 3.177579 1_555
K3 O19 3.253101 1_554
K3 O19 3.253101 1_555
K3 O13 3.291006 1_554
K3 O13 3.291006 1_555
K3 O4 3.295569 1_555
K4 O23 2.712676 1_555
K4 O19 2.776235 1_555
K4 O19 2.776235 1_554
K4 O15 2.784930 1_555
K4 O15 2.784930 1_554
K4 O27 2.799901 1_555
K4 O26 2.822622 1_565
K4 O14 2.894971 1_564
K4 O14 2.894971 1_565
K4 O18 2.913713 1_565
K4 O18 2.913713 1_564
K4 O22 3.268642 1_565
K5 O28 2.712676 1_555
K5 O16 2.776235 1_555
K5 O16 2.776235 1_554
K5 O20 2.784930 1_555
K5 O20 2.784930 1_554
K5 O24 2.799901 1_555
K5 O25 2.822622 1_455
K5 O21 2.894971 1_454
K5 O21 2.894971 1_455
K5 O17 2.913713 1_455
K5 O17 2.913713 1_454
K5 O29 3.268642 1_455
O0 Ta7 2.150502 1_555
O0 Ta0 2.150502 1_555
O0 Ta10 2.599506 1_555
O0 Ta10 2.599506 1_556
O1 Ta1 1.998684 1_555
O1 Ta6 1.998684 1_555
O2 Ta2 1.940290 1_555
O2 Ta4 2.036227 1_555
O3 Ta5 1.940290 1_555
O3 Ta3 2.036227 1_555
O4 Ta8 2.012051 1_554
O4 Ta8 2.012051 1_555
O4 Ta10 2.023877 1_555
O5 Ta9 1.982499 1_555
O5 Ta9 1.982499 1_554
O6 Ta0 2.126193 1_555
O6 Ta8 2.156273 1_555
O6 Ta10 2.411018 1_556
O6 Ta10 2.411018 1_555
O7 Ta8 1.842373 1_555
O7 Ta1 2.103553 1_555
O8 Ta9 1.948081 1_555
O8 Ta2 1.992399 1_655
O9 Ta3 1.861828 1_455
O9 Ta9 2.069116 1_465
O10 Ta4 1.861828 1_565
O10 Ta9 2.069116 1_465
O11 Ta9 1.948081 1_555
O11 Ta5 1.992399 1_545
O12 Ta8 1.842373 1_555
O12 Ta6 2.103553 1_555
O13 Ta7 2.126193 1_555
O13 Ta8 2.156273 1_555
O13 Ta10 2.411018 1_555
O13 Ta10 2.411018 1_556
O14 Ta0 1.850844 1_555
O14 Ta5 2.187421 1_545
O15 Ta1 1.943282 1_555
O15 Ta4 2.043591 1_565
O16 Ta2 2.001523 1_555
O16 Ta6 2.060127 1_555
O17 Ta7 1.857842 1_555
O17 Ta3 2.215295 1_555
O18 Ta0 1.857842 1_555
O18 Ta4 2.215295 1_555
O19 Ta5 2.001523 1_555
O19 Ta1 2.060127 1_555
O20 Ta6 1.943282 1_555
O20 Ta3 2.043591 1_455
O21 Ta7 1.850844 1_555
O21 Ta2 2.187421 1_655
O22 Ta10 2.021792 1_555
O22 Ta0 2.036323 1_554
O22 Ta0 2.036323 1_555
O23 Ta1 1.981011 1_554
O23 Ta1 1.981011 1_555
O24 Ta2 1.985981 1_555
O24 Ta2 1.985981 1_554
O25 Ta3 1.996225 1_555
O25 Ta3 1.996225 1_554
O26 Ta4 1.996225 1_555
O26 Ta4 1.996225 1_554
O27 Ta5 1.985981 1_554
O27 Ta5 1.985981 1_555
O28 Ta6 1.981011 1_554
O28 Ta6 1.981011 1_555
O29 Ta10 2.021792 1_555
O29 Ta7 2.036323 1_555
O29 Ta7 2.036323 1_554
