# generated using pymatgen
data_Ca3Ti4PbO12
_symmetry_space_group_name_H-M   'P 1'
_cell_length_a   7.78879100
_cell_length_b   5.47798200
_cell_length_c   5.52976820
_cell_angle_alpha   89.78703263
_cell_angle_beta   90.00000000
_cell_angle_gamma   90.00000000
_symmetry_Int_Tables_number   1
_chemical_formula_structural   Ca3Ti4PbO12
_chemical_formula_sum   'Ca3 Ti4 Pb1 O12'
_cell_volume   235.93619860
_cell_formula_units_Z   1
loop_
 _symmetry_equiv_pos_site_id
 _symmetry_equiv_pos_as_xyz
  1  'x, y, z'
loop_
 _atom_site_type_symbol
 _atom_site_label
 _atom_site_symmetry_multiplicity
 _atom_site_fract_x
 _atom_site_fract_y
 _atom_site_fract_z
 _atom_site_occupancy
  Ca  Ca0  1  0.50000000  0.99654800  0.53409700  1
  Ca  Ca1  1  0.00000000  0.49584800  0.95597600  1
  Ca  Ca2  1  0.00000000  0.00152600  0.46644700  1
  Ti  Ti0  1  0.24692800  0.50129100  0.49149500  1
  Ti  Ti1  1  0.75454100  0.99945800  0.99700100  1
  Ti  Ti2  1  0.75307200  0.50129100  0.49149500  1
  Ti  Ti3  1  0.24545900  0.99945800  0.99700100  1
  Pb  Pb0  1  0.50000000  0.50423000  0.01340700  1
  O  O0  1  0.50000000  0.43195800  0.50179800  1
  O  O1  1  0.50000000  0.04647000  0.97753700  1
  O  O2  1  0.00000000  0.56685600  0.51134600  1
  O  O3  1  0.00000000  0.92841900  0.02851900  1
  O  O4  1  0.26861900  0.71599700  0.78738200  1
  O  O5  1  0.71721000  0.79628600  0.29969000  1
  O  O6  1  0.78974400  0.28960100  0.21426600  1
  O  O7  1  0.21023800  0.21143800  0.71560400  1
  O  O8  1  0.21025600  0.28960100  0.21426600  1
  O  O9  1  0.78976200  0.21143800  0.71560400  1
  O  O10  1  0.73138100  0.71599700  0.78738200  1
  O  O11  1  0.28279000  0.79628600  0.29969000  1
loop_
_geom_bond_atom_site_label_1
_geom_bond_atom_site_label_2
_geom_bond_distance
_geom_bond_site_symmetry_2
Ca0 O0 2.391184 1_565
Ca0 O11 2.399255 1_555
Ca0 O5 2.399255 1_555
Ca0 O1 2.468333 1_565
Ca0 O9 2.737786 1_565
Ca0 O7 2.737786 1_565
Ca0 O10 2.748720 1_555
Ca0 O4 2.748720 1_555
Ca1 O3 2.404800 1_556
Ca1 O8 2.446702 1_556
Ca1 O6 2.446702 1_456
Ca1 O2 2.487852 1_555
Ca1 O4 2.586995 1_555
Ca1 O10 2.586995 1_455
Ca1 O7 2.625056 1_555
Ca1 O9 2.625056 1_455
Ca2 O2 2.393106 1_545
Ca2 O7 2.431814 1_555
Ca2 O9 2.431814 1_455
Ca2 O3 2.456000 1_545
Ca2 O5 2.640737 1_445
Ca2 O11 2.640737 1_545
Ca2 O6 2.664666 1_455
Ca2 O8 2.664666 1_555
O0 Ti2 2.008151 1_555
O0 Ti0 2.008151 1_555
O0 Pb0 2.728097 1_555
O0 Pb0 2.858104 1_556
O1 Ti1 2.002067 1_545
O1 Ti3 2.002067 1_545
O1 Pb0 2.516169 1_556
O2 Ti0 1.959671 1_555
O2 Ti2 1.959671 1_455
O3 Ti3 1.958673 1_554
O3 Ti1 1.958673 1_454
O4 Ti3 1.949540 1_555
O4 Ti0 2.025660 1_555
O4 Pb0 2.478903 1_556
O5 Ti2 1.949773 1_555
O5 Ti1 2.027562 1_554
O5 Pb0 2.819002 1_555
O6 Ti2 1.946709 1_555
O6 Ti1 2.014692 1_544
O6 Pb0 2.774752 1_555
O7 Ti3 1.957443 1_545
O7 Ti0 2.030756 1_555
O8 Ti0 1.946709 1_555
O8 Ti3 2.014692 1_544
O8 Pb0 2.774752 1_555
O9 Ti1 1.957443 1_545
O9 Ti2 2.030756 1_555
O10 Ti1 1.949540 1_555
O10 Ti2 2.025660 1_555
O10 Pb0 2.478903 1_556
O11 Ti0 1.949773 1_555
O11 Ti3 2.027562 1_554
O11 Pb0 2.819002 1_555
