# generated using pymatgen
data_Li9Mn2Co5O16
_symmetry_space_group_name_H-M   'P 1'
_cell_length_a   2.87554400
_cell_length_b   5.88491600
_cell_length_c   17.11276069
_cell_angle_alpha   89.84993991
_cell_angle_beta   90.00000000
_cell_angle_gamma   90.00000000
_symmetry_Int_Tables_number   1
_chemical_formula_structural   Li9Mn2Co5O16
_chemical_formula_sum   'Li9 Mn2 Co5 O16'
_cell_volume   289.58687419
_cell_formula_units_Z   1
loop_
 _symmetry_equiv_pos_site_id
 _symmetry_equiv_pos_as_xyz
  1  'x, y, z'
loop_
 _atom_site_type_symbol
 _atom_site_label
 _atom_site_symmetry_multiplicity
 _atom_site_fract_x
 _atom_site_fract_y
 _atom_site_fract_z
 _atom_site_occupancy
  Li  Li0  1  0.50000000  0.75026000  0.87021200  1
  Li  Li1  1  0.50000000  0.24709300  0.61771900  1
  Li  Li2  1  0.50000000  0.75632700  0.38346300  1
  Li  Li3  1  0.00000000  0.99399600  0.74617800  1
  Li  Li4  1  0.00000000  0.50020200  0.50399300  1
  Li  Li5  1  0.00000000  0.00209300  0.25706800  1
  Li  Li6  1  0.50000000  0.24564500  0.12567600  1
  Li  Li7  1  0.00000000  0.50189800  0.99424100  1
  Li  Li8  1  0.00000000  0.99927900  0.49992700  1
  Mn  Mn0  1  0.00000000  0.99883200  0.99877000  1
  Mn  Mn1  1  0.00000000  0.49658900  0.25295800  1
  Co  Co0  1  0.00000000  0.51089100  0.74739100  1
  Co  Co1  1  0.50000000  0.75818400  0.61159000  1
  Co  Co2  1  0.50000000  0.23773300  0.39051000  1
  Co  Co3  1  0.50000000  0.75239300  0.12876300  1
  Co  Co4  1  0.50000000  0.24890800  0.86831500  1
  O  O0  1  0.50000000  0.76898800  0.00263400  1
  O  O1  1  0.50000000  0.26984800  0.75149000  1
  O  O2  1  0.50000000  0.74783600  0.50611200  1
  O  O3  1  0.00000000  0.01453800  0.87242700  1
  O  O4  1  0.00000000  0.52684000  0.62766000  1
  O  O5  1  0.00000000  0.01892600  0.37331600  1
  O  O6  1  0.50000000  0.27797500  0.24572000  1
  O  O7  1  0.00000000  0.52629500  0.13501200  1
  O  O8  1  0.50000000  0.73294800  0.74986000  1
  O  O9  1  0.50000000  0.25584100  0.49394800  1
  O  O10  1  0.50000000  0.71955500  0.25332900  1
  O  O11  1  0.00000000  0.97485900  0.62545400  1
  O  O12  1  0.00000000  0.47731700  0.36353700  1
  O  O13  1  0.00000000  0.97390700  0.12887700  1
  O  O14  1  0.50000000  0.22833600  0.00038800  1
  O  O15  1  0.00000000  0.48566600  0.87346000  1
loop_
_geom_bond_atom_site_label_1
_geom_bond_atom_site_label_2
_geom_bond_distance
_geom_bond_site_symmetry_2
Li0 O8 2.062340 1_555
Li0 O3 2.118431 1_665
Li0 O3 2.118431 1_565
Li0 O15 2.120006 1_655
Li0 O15 2.120006 1_555
Li0 O0 2.269073 1_556
Li1 O9 2.118554 1_555
Li1 O11 2.156442 1_545
Li1 O11 2.156442 1_645
Li1 O4 2.192683 1_655
Li1 O4 2.192683 1_555
Li1 O1 2.293455 1_555
Li2 O2 2.099327 1_555
Li2 O5 2.117572 1_565
Li2 O5 2.117572 1_665
Li2 O12 2.209614 1_655
Li2 O12 2.209614 1_555
Li2 O10 2.238005 1_555
Li3 O11 2.069283 1_555
Li3 O8 2.104923 1_455
Li3 O8 2.104923 1_555
Li3 O3 2.164164 1_565
Li3 O1 2.170609 1_565
Li3 O1 2.170609 1_465
Li4 O9 2.041079 1_455
Li4 O9 2.041079 1_555
Li4 O2 2.047564 1_555
Li4 O2 2.047564 1_455
Li4 O4 2.122491 1_555
Li4 O12 2.407712 1_555
Li5 O5 1.992048 1_555
Li5 O6 2.176956 1_455
Li5 O6 2.176956 1_555
Li5 O10 2.199194 1_445
Li5 O10 2.199194 1_545
Li5 O13 2.200397 1_545
Li6 O6 2.063572 1_555
Li6 O14 2.146708 1_555
Li6 O13 2.151053 1_645
Li6 O13 2.151053 1_545
Li6 O7 2.195879 1_655
Li6 O7 2.195879 1_555
Li7 O15 2.069352 1_555
Li7 O0 2.135313 1_456
Li7 O0 2.135313 1_556
Li7 O14 2.160812 1_456
Li7 O14 2.160812 1_556
Li7 O7 2.413630 1_556
Li8 O2 2.065707 1_555
Li8 O2 2.065707 1_455
Li8 O9 2.087219 1_565
Li8 O9 2.087219 1_465
Li8 O11 2.152540 1_555
Li8 O5 2.169444 1_565
Mn0 O14 1.972892 1_466
Mn0 O14 1.972892 1_566
Mn0 O0 1.975007 1_456
Mn0 O0 1.975007 1_556
Mn0 O3 2.163810 1_565
Mn0 O13 2.230933 1_556
Mn1 O12 1.895411 1_555
Mn1 O6 1.933523 1_455
Mn1 O6 1.933523 1_555
Mn1 O10 1.946529 1_455
Mn1 O10 1.946529 1_555
Mn1 O7 2.025482 1_555
Co0 O8 1.943439 1_555
Co0 O8 1.943439 1_455
Co0 O1 2.020837 1_455
Co0 O1 2.020837 1_555
Co0 O4 2.050831 1_555
Co0 O15 2.162102 1_555
Co1 O2 1.806206 1_555
Co1 O11 1.936744 1_555
Co1 O11 1.936744 1_655
Co1 O4 1.998593 1_555
Co1 O4 1.998593 1_655
Co1 O8 2.370449 1_555
Co2 O9 1.773593 1_555
Co2 O5 1.952900 1_555
Co2 O5 1.952900 1_655
Co2 O12 2.065126 1_655
Co2 O12 2.065126 1_555
Co2 O6 2.488431 1_555
Co3 O13 1.940762 1_655
Co3 O13 1.940762 1_555
Co3 O7 1.961706 1_555
Co3 O7 1.961706 1_655
Co3 O10 2.139906 1_555
Co3 O0 2.160368 1_555
Co4 O3 1.993478 1_655
Co4 O3 1.993478 1_555
Co4 O1 2.002670 1_555
Co4 O15 2.004213 1_555
Co4 O15 2.004213 1_655
Co4 O14 2.263057 1_556
