# generated using pymatgen
data_K2MgFe4P6(O4F3)4
_symmetry_space_group_name_H-M   'P 1'
_cell_length_a   7.58272765
_cell_length_b   7.81125757
_cell_length_c   10.88651906
_cell_angle_alpha   101.33150897
_cell_angle_beta   109.24957725
_cell_angle_gamma   92.03068971
_symmetry_Int_Tables_number   1
_chemical_formula_structural   K2MgFe4P6(O4F3)4
_chemical_formula_sum   'K2 Mg1 Fe4 P6 O16 F12'
_cell_volume   593.38993042
_cell_formula_units_Z   1
loop_
 _symmetry_equiv_pos_site_id
 _symmetry_equiv_pos_as_xyz
  1  'x, y, z'
loop_
 _atom_site_type_symbol
 _atom_site_label
 _atom_site_symmetry_multiplicity
 _atom_site_fract_x
 _atom_site_fract_y
 _atom_site_fract_z
 _atom_site_occupancy
  K  K0  1  0.75014806  0.10444231  0.77951261  1
  K  K1  1  0.22375122  0.96805192  0.18580550  1
  Mg  Mg0  1  0.41028970  0.51550290  0.28308751  1
  Fe  Fe0  1  0.71062063  0.29663883  0.33874656  1
  Fe  Fe1  1  0.33632038  0.68378204  0.67747150  1
  Fe  Fe2  1  0.49889902  0.49938419  0.99228185  1
  Fe  Fe3  1  0.01196478  0.99476629  0.50898223  1
  P  P0  1  0.65065326  0.72791323  0.51775782  1
  P  P1  1  0.32180548  0.28899560  0.48286289  1
  P  P2  1  0.30705937  0.08664034  0.81812001  1
  P  P3  1  0.70037657  0.88849978  0.20381779  1
  P  P4  1  0.06160497  0.59562380  0.84345175  1
  P  P5  1  0.94085992  0.41061633  0.14816567  1
  O  O0  1  0.67547603  0.55536978  0.43419475  1
  O  O1  1  0.26058131  0.44933532  0.55385041  1
  O  O2  1  0.79746040  0.88049516  0.55405151  1
  O  O3  1  0.20245466  0.11524819  0.45403671  1
  O  O4  1  0.60262417  0.05108075  0.23324776  1
  O  O5  1  0.41019703  0.92784358  0.78854268  1
  O  O6  1  0.44391974  0.25061152  0.87641055  1
  O  O7  1  0.55985615  0.72422858  0.14688983  1
  O  O8  1  0.88059321  0.87301443  0.31574221  1
  O  O9  1  0.12669868  0.09960293  0.70557497  1
  O  O10  1  0.91970858  0.36656056  0.26900458  1
  O  O11  1  0.10695474  0.65073613  0.73244398  1
  O  O12  1  0.80054441  0.47542800  0.04228415  1
  O  O13  1  0.20494678  0.54306575  0.95687020  1
  O  O14  1  0.36036661  0.31240830  0.35691723  1
  O  O15  1  0.57098110  0.71867565  0.62599534  1
  F  F0  1  0.86398998  0.19544384  0.49515550  1
  F  F1  1  0.16740982  0.79350256  0.53289217  1
  F  F2  1  0.50551559  0.38055264  0.16260890  1
  F  F3  1  0.49088764  0.59769928  0.82606393  1
  F  F4  1  0.77708264  0.91556584  0.08700706  1
  F  F5  1  0.22999347  0.05337967  0.93397075  1
  F  F6  1  0.89009577  0.44924557  0.77953169  1
  F  F7  1  0.13107021  0.55168388  0.20276545  1
  F  F8  1  0.52216635  0.25995505  0.58250371  1
  F  F9  1  0.45961159  0.77207347  0.39478660  1
  F  F10  1  0.02875267  0.25383262  0.07977762  1
  F  F11  1  0.96070731  0.74750338  0.90306607  1
loop_
_geom_bond_atom_site_label_1
_geom_bond_atom_site_label_2
_geom_bond_distance
_geom_bond_site_symmetry_2
K0 O2 2.855013 1_545
K0 O5 2.919892 1_545
K0 O6 3.022912 1_555
K0 O15 3.154790 1_545
K0 O9 3.211396 1_655
K1 O4 2.774678 1_565
K1 O14 2.887835 1_565
K1 O3 2.979897 1_565
Mg0 O14 1.991278 1_555
Mg0 O0 2.102323 1_555
Fe0 O4 2.017843 1_555
Fe0 O10 2.069721 1_555
Fe0 O0 2.151917 1_555
Fe1 O1 1.985467 1_555
Fe1 O5 1.995542 1_555
Fe1 O11 2.040797 1_555
Fe1 O15 2.058550 1_555
Fe2 O6 2.042968 1_555
Fe2 O7 2.097400 1_556
Fe2 O13 2.184561 1_555
Fe2 O12 2.193728 1_556
Fe3 O3 2.006107 1_565
Fe3 O9 2.010237 1_565
Fe3 O8 2.021695 1_455
Fe3 O2 2.068450 1_455
O0 P0 1.525969 1_555
O1 P1 1.509573 1_555
O2 P0 1.498916 1_555
O3 P1 1.522428 1_555
O4 P3 1.525871 1_545
O5 P2 1.527004 1_565
O6 P2 1.507430 1_555
O7 P3 1.523525 1_555
O8 P3 1.529197 1_555
O9 P2 1.528242 1_555
O10 P5 1.479134 1_555
O11 P4 1.493983 1_555
O12 P5 1.475075 1_555
O13 P4 1.490110 1_555
O14 P1 1.535572 1_555
O15 P0 1.502780 1_555
F0 Fe3 1.960832 1_645
F0 Fe0 2.040839 1_555
F1 Fe3 2.004616 1_555
F1 Fe1 2.032492 1_555
F2 Mg0 1.867604 1_555
F2 Fe2 2.218278 1_554
F2 Fe0 2.263878 1_555
F3 Fe1 1.917236 1_555
F3 Fe2 2.084417 1_555
F4 P3 1.607722 1_555
F4 K1 3.181628 1_655
F5 P2 1.613571 1_555
F5 K1 2.960455 1_546
F6 P4 1.571033 1_655
F6 K0 2.859600 1_555
F7 P5 1.646964 1_455
F7 Mg0 2.060584 1_555
F8 P1 1.603373 1_555
F8 K0 2.791405 1_555
F9 P0 1.716928 1_555
F9 Mg0 2.079532 1_555
F9 K1 3.098033 1_555
F10 P5 1.589030 1_455
F10 K1 2.936492 1_545
F10 K0 3.206705 1_454
F11 P4 1.582141 1_655
F11 K1 3.169414 1_656
