# generated using pymatgen
data_Mo2N3O4F5
_symmetry_space_group_name_H-M   'P 1'
_cell_length_a   6.49506800
_cell_length_b   9.83771500
_cell_length_c   15.43396700
_cell_angle_alpha   90.00000000
_cell_angle_beta   90.00000000
_cell_angle_gamma   90.00000000
_symmetry_Int_Tables_number   1
_chemical_formula_structural   Mo2N3O4F5
_chemical_formula_sum   'Mo8 N12 O16 F20'
_cell_volume   986.17844626
_cell_formula_units_Z   4
loop_
 _symmetry_equiv_pos_site_id
 _symmetry_equiv_pos_as_xyz
  1  'x, y, z'
loop_
 _atom_site_type_symbol
 _atom_site_label
 _atom_site_symmetry_multiplicity
 _atom_site_fract_x
 _atom_site_fract_y
 _atom_site_fract_z
 _atom_site_occupancy
  Mo  Mo0  1  0.50000000  0.44787300  0.82980100  1
  Mo  Mo1  1  0.50000000  0.55212700  0.17019900  1
  Mo  Mo2  1  0.00000000  0.05212700  0.32980100  1
  Mo  Mo3  1  0.00000000  0.94787300  0.67019900  1
  Mo  Mo4  1  0.50000000  0.23342300  0.97328700  1
  Mo  Mo5  1  0.50000000  0.76657700  0.02671300  1
  Mo  Mo6  1  0.00000000  0.26657700  0.47328700  1
  Mo  Mo7  1  0.00000000  0.73342300  0.52671300  1
  N  N0  1  0.00000000  0.61337600  0.91791300  1
  N  N1  1  0.00000000  0.38662400  0.08208700  1
  N  N2  1  0.50000000  0.88662400  0.41791300  1
  N  N3  1  0.50000000  0.11337600  0.58208700  1
  N  N4  1  0.50000000  0.16259300  0.21680100  1
  N  N5  1  0.50000000  0.83740700  0.78319900  1
  N  N6  1  0.00000000  0.33740700  0.71680100  1
  N  N7  1  0.00000000  0.66259300  0.28319900  1
  N  N8  1  0.00000000  0.93665800  0.10483100  1
  N  N9  1  0.00000000  0.06334200  0.89516900  1
  N  N10  1  0.50000000  0.56334200  0.60483100  1
  N  N11  1  0.50000000  0.43665800  0.39516900  1
  O  O0  1  0.69063000  0.35648700  0.91102600  1
  O  O1  1  0.69063000  0.64351300  0.08897400  1
  O  O2  1  0.80937000  0.14351300  0.41102600  1
  O  O3  1  0.80937000  0.85648700  0.58897400  1
  O  O4  1  0.30937000  0.64351300  0.08897400  1
  O  O5  1  0.30937000  0.35648700  0.91102600  1
  O  O6  1  0.19063000  0.85648700  0.58897400  1
  O  O7  1  0.19063000  0.14351300  0.41102600  1
  O  O8  1  0.50000000  0.32397800  0.75205600  1
  O  O9  1  0.50000000  0.67602200  0.24794400  1
  O  O10  1  0.00000000  0.17602200  0.25205600  1
  O  O11  1  0.00000000  0.82397800  0.74794400  1
  O  O12  1  0.50000000  0.10614300  0.89781300  1
  O  O13  1  0.50000000  0.89385700  0.10218700  1
  O  O14  1  0.00000000  0.39385700  0.39781300  1
  O  O15  1  0.00000000  0.60614300  0.60218700  1
  F  F0  1  0.71731100  0.55615000  0.78557600  1
  F  F1  1  0.71731100  0.44385000  0.21442400  1
  F  F2  1  0.78268900  0.94385000  0.28557600  1
  F  F3  1  0.78268900  0.05615000  0.71442400  1
  F  F4  1  0.28268900  0.44385000  0.21442400  1
  F  F5  1  0.28268900  0.55615000  0.78557600  1
  F  F6  1  0.21731100  0.05615000  0.71442400  1
  F  F7  1  0.21731100  0.94385000  0.28557600  1
  F  F8  1  0.28107800  0.16831200  0.04304500  1
  F  F9  1  0.28107800  0.83168800  0.95695500  1
  F  F10  1  0.21892200  0.33168800  0.54304500  1
  F  F11  1  0.21892200  0.66831200  0.45695500  1
  F  F12  1  0.71892200  0.83168800  0.95695500  1
  F  F13  1  0.71892200  0.16831200  0.04304500  1
  F  F14  1  0.78107800  0.66831200  0.45695500  1
  F  F15  1  0.78107800  0.33168800  0.54304500  1
  F  F16  1  0.50000000  0.39475800  0.06985600  1
  F  F17  1  0.50000000  0.60524200  0.93014400  1
  F  F18  1  0.00000000  0.10524200  0.56985600  1
  F  F19  1  0.00000000  0.89475800  0.43014400  1
loop_
_geom_bond_atom_site_label_1
_geom_bond_atom_site_label_2
_geom_bond_distance
_geom_bond_site_symmetry_2
Mo0 O8 1.710372 1_555
Mo0 O0 1.978094 1_555
Mo0 O5 1.978094 1_555
Mo1 O9 1.710372 1_555
Mo1 O1 1.978094 1_555
Mo1 O4 1.978094 1_555
Mo2 O10 1.710372 1_555
Mo2 O2 1.978094 1_455
Mo2 O7 1.978094 1_555
Mo3 O11 1.710372 1_555
Mo3 O6 1.978094 1_555
Mo3 O3 1.978094 1_455
Mo4 O12 1.710196 1_555
Mo4 O0 1.980439 1_555
Mo4 O5 1.980439 1_555
Mo5 O13 1.710196 1_555
Mo5 O1 1.980439 1_555
Mo5 O4 1.980439 1_555
Mo6 O14 1.710196 1_555
Mo6 O7 1.980439 1_555
Mo6 O2 1.980439 1_455
Mo7 O15 1.710196 1_555
Mo7 O3 1.980439 1_455
Mo7 O6 1.980439 1_555
F0 Mo0 1.895451 1_555
F1 Mo1 1.895451 1_555
F2 Mo2 1.895451 1_665
F3 Mo3 1.895451 1_645
F4 Mo1 1.895451 1_555
F5 Mo0 1.895451 1_555
F6 Mo3 1.895451 1_545
F7 Mo2 1.895451 1_565
F8 Mo4 1.895071 1_554
F9 Mo5 1.895071 1_556
F10 Mo6 1.895071 1_555
F11 Mo7 1.895071 1_555
F12 Mo5 1.895071 1_556
F13 Mo4 1.895071 1_554
F14 Mo7 1.895071 1_655
F15 Mo6 1.895071 1_655
F16 Mo4 2.177274 1_554
F16 Mo1 2.189798 1_555
F17 Mo5 2.177274 1_556
F17 Mo0 2.189798 1_555
F18 Mo6 2.177274 1_555
F18 Mo3 2.189798 1_545
F19 Mo7 2.177274 1_555
F19 Mo2 2.189798 1_565
