# generated using pymatgen
data_Li2ZnGe
_symmetry_space_group_name_H-M   'P 1'
_cell_length_a   4.28997146
_cell_length_b   4.28997168
_cell_length_c   4.28997232
_cell_angle_alpha   60.00000232
_cell_angle_beta   60.00000061
_cell_angle_gamma   59.99999365
_symmetry_Int_Tables_number   1
_chemical_formula_structural   Li2ZnGe
_chemical_formula_sum   'Li2 Zn1 Ge1'
_cell_volume   55.82751656
_cell_formula_units_Z   1
loop_
 _symmetry_equiv_pos_site_id
 _symmetry_equiv_pos_as_xyz
  1  'x, y, z'
loop_
 _atom_site_type_symbol
 _atom_site_label
 _atom_site_symmetry_multiplicity
 _atom_site_fract_x
 _atom_site_fract_y
 _atom_site_fract_z
 _atom_site_occupancy
  Li  Li0  1  0.25000000  0.25000000  0.25000000  1
  Li  Li1  1  0.00000000  0.00000000  0.00000000  1
  Zn  Zn0  1  0.75000000  0.75000000  0.75000000  1
  Ge  Ge0  1  0.50000000  0.50000000  0.50000000  1
loop_
_geom_bond_atom_site_label_1
_geom_bond_atom_site_label_2
_geom_bond_distance
_geom_bond_site_symmetry_2
Li1 Zn0 2.627060 1_544
Li1 Zn0 2.627060 1_454
Li1 Zn0 2.627061 1_444
Li1 Zn0 2.627061 1_445
Ge0 Li0 2.627060 1_655
Ge0 Zn0 2.627060 1_455
Ge0 Zn0 2.627060 1_545
Ge0 Li0 2.627060 1_565
Ge0 Li0 2.627061 1_555
Ge0 Zn0 2.627061 1_555
Ge0 Zn0 2.627061 1_554
Ge0 Li0 2.627061 1_556
