# generated using pymatgen
data_Ba3Sn5
_symmetry_space_group_name_H-M   'P 1'
_cell_length_a   7.21550717
_cell_length_b   7.21550682
_cell_length_c   11.25598863
_cell_angle_alpha   90.00000000
_cell_angle_beta   90.00000000
_cell_angle_gamma   101.29185530
_symmetry_Int_Tables_number   1
_chemical_formula_structural   Ba3Sn5
_chemical_formula_sum   'Ba6 Sn10'
_cell_volume   574.68261921
_cell_formula_units_Z   2
loop_
 _symmetry_equiv_pos_site_id
 _symmetry_equiv_pos_as_xyz
  1  'x, y, z'
loop_
 _atom_site_type_symbol
 _atom_site_label
 _atom_site_symmetry_multiplicity
 _atom_site_fract_x
 _atom_site_fract_y
 _atom_site_fract_z
 _atom_site_occupancy
  Ba  Ba0  1  0.70683142  0.29316858  0.50000000  1
  Ba  Ba1  1  0.29316858  0.70683142  -0.00000000  1
  Ba  Ba2  1  0.29316858  0.70683142  0.50000000  1
  Ba  Ba3  1  0.70683142  0.29316858  -0.00000000  1
  Ba  Ba4  1  0.85062533  0.85062533  0.75000000  1
  Ba  Ba5  1  0.14937467  0.14937467  0.25000000  1
  Sn  Sn0  1  0.80251075  0.80251075  0.43780301  1
  Sn  Sn1  1  0.19748825  0.19748825  0.93780301  1
  Sn  Sn2  1  0.80251075  0.80251075  0.06219699  1
  Sn  Sn3  1  0.19748825  0.19748825  0.56219699  1
  Sn  Sn4  1  0.02310919  0.40465632  0.75000000  1
  Sn  Sn5  1  0.97689081  0.59534368  0.25000000  1
  Sn  Sn6  1  0.55347792  0.55347792  0.25000000  1
  Sn  Sn7  1  0.44652208  0.44652208  0.75000000  1
  Sn  Sn8  1  0.59534368  0.97689081  0.25000000  1
  Sn  Sn9  1  0.40465632  0.02310919  0.75000000  1
loop_
_geom_bond_atom_site_label_1
_geom_bond_atom_site_label_2
_geom_bond_distance
_geom_bond_site_symmetry_2
Ba0 Sn8 3.613139 1_545
Ba0 Sn4 3.613139 1_655
Ba0 Sn0 3.671504 1_555
Ba0 Sn3 3.671511 1_555
Ba0 Sn6 3.672160 1_555
Ba0 Sn7 3.672160 1_555
Ba0 Sn3 3.802357 1_655
Ba0 Sn0 3.802361 1_545
Ba0 Sn5 3.847826 1_555
Ba0 Sn9 3.847826 1_555
Ba1 Sn9 3.613139 1_564
Ba1 Sn5 3.613139 1_455
Ba1 Sn2 3.671504 1_555
Ba1 Sn1 3.671511 1_554
Ba1 Sn7 3.672160 1_554
Ba1 Sn6 3.672160 1_555
Ba1 Sn1 3.802357 1_564
Ba1 Sn2 3.802361 1_455
Ba1 Sn4 3.847826 1_554
Ba1 Sn8 3.847826 1_555
Ba2 Sn9 3.613139 1_565
Ba2 Sn5 3.613139 1_455
Ba2 Sn0 3.671504 1_555
Ba2 Sn3 3.671511 1_555
Ba2 Sn7 3.672160 1_555
Ba2 Sn6 3.672160 1_555
Ba2 Sn3 3.802357 1_565
Ba2 Sn0 3.802361 1_455
Ba2 Sn4 3.847826 1_555
Ba2 Sn8 3.847826 1_555
Ba3 Sn8 3.613139 1_545
Ba3 Sn4 3.613139 1_654
Ba3 Sn2 3.671504 1_555
Ba3 Sn1 3.671511 1_554
Ba3 Sn6 3.672160 1_555
Ba3 Sn7 3.672160 1_554
Ba3 Sn1 3.802357 1_654
Ba3 Sn2 3.802361 1_545
Ba3 Sn5 3.847826 1_555
Ba3 Sn9 3.847826 1_554
Ba4 Sn2 3.541561 1_556
Ba4 Sn0 3.541561 1_555
Ba4 Sn4 3.670438 1_655
Ba4 Sn9 3.670438 1_565
Ba4 Sn7 3.697894 1_555
Ba4 Sn1 3.813593 1_665
Ba4 Sn3 3.813593 1_665
Ba4 Sn4 3.947337 1_665
Ba4 Sn9 3.947337 1_665
Ba5 Sn3 3.541560 1_555
Ba5 Sn1 3.541560 1_554
Ba5 Sn5 3.670438 1_455
Ba5 Sn8 3.670438 1_545
Ba5 Sn6 3.697894 1_555
Ba5 Sn2 3.813600 1_445
Ba5 Sn0 3.813600 1_445
Ba5 Sn5 3.947337 1_445
Ba5 Sn8 3.947337 1_445
Sn0 Sn5 3.003800 1_555
Sn0 Sn8 3.003800 1_555
Sn0 Sn6 3.108350 1_555
Sn1 Sn4 3.003800 1_555
Sn1 Sn9 3.003800 1_555
Sn1 Sn7 3.108356 1_555
Sn2 Sn5 3.003800 1_555
Sn2 Sn8 3.003800 1_555
Sn2 Sn6 3.108350 1_555
Sn3 Sn4 3.003800 1_555
Sn3 Sn9 3.003800 1_555
Sn3 Sn7 3.108356 1_555
Sn4 Sn7 3.010599 1_555
Sn5 Sn6 3.010599 1_555
Sn6 Sn8 3.010599 1_555
Sn7 Sn9 3.010599 1_555
