# generated using pymatgen
data_Ca2Ti3O8
_symmetry_space_group_name_H-M   'P 1'
_cell_length_a   6.09280619
_cell_length_b   6.09280619
_cell_length_c   10.61944600
_cell_angle_alpha   90.00000000
_cell_angle_beta   90.00000000
_cell_angle_gamma   120.00000210
_symmetry_Int_Tables_number   1
_chemical_formula_structural   Ca2Ti3O8
_chemical_formula_sum   'Ca4 Ti6 O16'
_cell_volume   341.40290410
_cell_formula_units_Z   2
loop_
 _symmetry_equiv_pos_site_id
 _symmetry_equiv_pos_as_xyz
  1  'x, y, z'
loop_
 _atom_site_type_symbol
 _atom_site_label
 _atom_site_symmetry_multiplicity
 _atom_site_fract_x
 _atom_site_fract_y
 _atom_site_fract_z
 _atom_site_occupancy
  Ca  Ca0  1  0.66666700  0.33333300  0.02399000  1
  Ca  Ca1  1  0.33333300  0.66666700  0.52399000  1
  Ca  Ca2  1  0.66666700  0.33333300  0.42818300  1
  Ca  Ca3  1  0.33333300  0.66666700  0.92818300  1
  Ti  Ti0  1  0.67349000  0.83674500  0.24532400  1
  Ti  Ti1  1  0.83674500  0.16325500  0.74532400  1
  Ti  Ti2  1  0.16325500  0.32651000  0.24532400  1
  Ti  Ti3  1  0.83674500  0.67349000  0.74532400  1
  Ti  Ti4  1  0.32651000  0.16325500  0.74532400  1
  Ti  Ti5  1  0.16325500  0.83674500  0.24532400  1
  O  O0  1  0.84332100  0.15667900  0.15616500  1
  O  O1  1  0.68664200  0.84332100  0.65616500  1
  O  O2  1  0.15667900  0.31335800  0.65616500  1
  O  O3  1  0.84332100  0.68664200  0.15616500  1
  O  O4  1  0.31335800  0.15667900  0.15616500  1
  O  O5  1  0.15667900  0.84332100  0.65616500  1
  O  O6  1  0.52314300  0.47685700  0.84978700  1
  O  O7  1  0.04628600  0.52314300  0.34978700  1
  O  O8  1  0.47685700  0.95371400  0.34978700  1
  O  O9  1  0.52314300  0.04628600  0.84978700  1
  O  O10  1  0.00000000  0.00000000  0.34352600  1
  O  O11  1  0.00000000  0.00000000  0.84352600  1
  O  O12  1  0.33333300  0.66666700  0.14397700  1
  O  O13  1  0.95371400  0.47685700  0.84978700  1
  O  O14  1  0.47685700  0.52314300  0.34978700  1
  O  O15  1  0.66666700  0.33333300  0.64397700  1
loop_
_geom_bond_atom_site_label_1
_geom_bond_atom_site_label_2
_geom_bond_distance
_geom_bond_site_symmetry_2
Ca0 O0 2.333570 1_555
Ca0 O3 2.333574 1_555
Ca0 O4 2.333574 1_555
Ca0 O13 2.390883 1_554
Ca0 O9 2.390883 1_554
Ca0 O6 2.390886 1_554
Ca1 O5 2.333570 1_555
Ca1 O1 2.333574 1_555
Ca1 O2 2.333574 1_555
Ca1 O8 2.390883 1_555
Ca1 O7 2.390883 1_555
Ca1 O14 2.390886 1_555
Ca2 O7 2.169189 1_655
Ca2 O8 2.169189 1_545
Ca2 O14 2.169193 1_555
Ca2 O15 2.291613 1_555
Ca3 O13 2.169189 1_455
Ca3 O9 2.169189 1_565
Ca3 O6 2.169193 1_555
Ca3 O12 2.291613 1_556
O0 Ti0 1.936464 1_545
O0 Ti2 1.936464 1_655
O1 Ti1 1.936464 1_565
O1 Ti3 1.936464 1_555
O2 Ti1 1.936464 1_455
O2 Ti4 1.936464 1_555
O3 Ti5 1.936464 1_655
O3 Ti0 1.936464 1_555
O4 Ti5 1.936464 1_545
O4 Ti2 1.936464 1_555
O5 Ti4 1.936464 1_565
O5 Ti3 1.936464 1_455
O6 Ti3 2.006903 1_555
O6 Ti4 2.006903 1_555
O7 Ti5 2.006903 1_555
O7 Ti2 2.006903 1_555
O8 Ti5 2.006903 1_555
O8 Ti0 2.006903 1_555
O9 Ti1 2.006903 1_555
O9 Ti4 2.006903 1_555
O10 Ti0 2.013879 1_445
O10 Ti2 2.013879 1_555
O10 Ti5 2.013879 1_545
O11 Ti4 2.013879 1_555
O11 Ti3 2.013879 1_445
O11 Ti1 2.013879 1_455
O12 Ti5 2.092790 1_555
O12 Ti0 2.092794 1_555
O12 Ti2 2.092794 1_555
O13 Ti1 2.006903 1_555
O13 Ti3 2.006903 1_555
O14 Ti0 2.006903 1_555
O14 Ti2 2.006903 1_555
O15 Ti1 2.092790 1_555
O15 Ti4 2.092794 1_555
O15 Ti3 2.092794 1_555
