# generated using pymatgen
data_La5ZnPb3
_symmetry_space_group_name_H-M   'P 1'
_cell_length_a   9.82996216
_cell_length_b   9.82996216
_cell_length_c   6.93621400
_cell_angle_alpha   90.00000000
_cell_angle_beta   90.00000000
_cell_angle_gamma   120.00000111
_symmetry_Int_Tables_number   1
_chemical_formula_structural   La5ZnPb3
_chemical_formula_sum   'La10 Zn2 Pb6'
_cell_volume   580.43929119
_cell_formula_units_Z   2
loop_
 _symmetry_equiv_pos_site_id
 _symmetry_equiv_pos_as_xyz
  1  'x, y, z'
loop_
 _atom_site_type_symbol
 _atom_site_label
 _atom_site_symmetry_multiplicity
 _atom_site_fract_x
 _atom_site_fract_y
 _atom_site_fract_z
 _atom_site_occupancy
  La  La0  1  0.73065800  0.73065800  0.25000000  1
  La  La1  1  0.26934200  0.00000000  0.25000000  1
  La  La2  1  0.00000000  0.26934200  0.25000000  1
  La  La3  1  0.26934200  0.26934200  0.75000000  1
  La  La4  1  0.73065800  0.00000000  0.75000000  1
  La  La5  1  0.00000000  0.73065800  0.75000000  1
  La  La6  1  0.66666700  0.33333300  0.50000000  1
  La  La7  1  0.33333300  0.66666700  0.50000000  1
  La  La8  1  0.33333300  0.66666700  0.00000000  1
  La  La9  1  0.66666700  0.33333300  0.00000000  1
  Zn  Zn0  1  0.00000000  0.00000000  0.50000000  1
  Zn  Zn1  1  0.00000000  0.00000000  0.00000000  1
  Pb  Pb0  1  0.37854900  0.37854900  0.25000000  1
  Pb  Pb1  1  0.62145100  0.00000000  0.25000000  1
  Pb  Pb2  1  0.00000000  0.62145100  0.25000000  1
  Pb  Pb3  1  0.62145100  0.62145100  0.75000000  1
  Pb  Pb4  1  0.37854900  0.00000000  0.75000000  1
  Pb  Pb5  1  0.00000000  0.37854900  0.75000000  1
loop_
_geom_bond_atom_site_label_1
_geom_bond_atom_site_label_2
_geom_bond_distance
_geom_bond_site_symmetry_2
La0 Zn0 3.164939 1_665
La0 Zn1 3.164939 1_665
La0 Pb2 3.317307 1_655
La0 Pb1 3.317307 1_565
La0 Pb0 3.461218 1_555
La0 Pb3 3.630450 1_555
La0 Pb3 3.630450 1_554
La1 Zn0 3.164940 1_555
La1 Zn1 3.164940 1_555
La1 Pb2 3.317307 1_545
La1 Pb0 3.317307 1_555
La1 Pb1 3.461218 1_555
La1 Pb4 3.630450 1_554
La1 Pb4 3.630450 1_555
La2 Zn0 3.164940 1_555
La2 Zn1 3.164940 1_555
La2 Pb1 3.317307 1_455
La2 Pb0 3.317307 1_555
La2 Pb2 3.461218 1_555
La2 Pb5 3.630450 1_554
La2 Pb5 3.630450 1_555
La3 Zn1 3.164939 1_556
La3 Zn0 3.164939 1_555
La3 Pb5 3.317307 1_555
La3 Pb4 3.317307 1_555
La3 Pb3 3.461218 1_555
La3 Pb0 3.630450 1_555
La3 Pb0 3.630450 1_556
La4 Zn1 3.164940 1_656
La4 Zn0 3.164940 1_655
La4 Pb5 3.317307 1_655
La4 Pb3 3.317307 1_545
La4 Pb4 3.461218 1_555
La4 Pb1 3.630450 1_556
La4 Pb1 3.630450 1_555
La5 Zn0 3.164940 1_565
La5 Zn1 3.164940 1_566
La5 Pb4 3.317307 1_565
La5 Pb3 3.317307 1_455
La5 Pb5 3.461218 1_555
La5 Pb2 3.630450 1_555
La5 Pb2 3.630450 1_556
La6 Pb1 3.533349 1_555
La6 Pb5 3.533349 1_655
La6 Pb2 3.533353 1_655
La6 Pb4 3.533353 1_555
La6 Pb3 3.533358 1_555
La6 Pb0 3.533358 1_555
La7 Pb2 3.533349 1_555
La7 Pb4 3.533349 1_565
La7 Pb1 3.533353 1_565
La7 Pb5 3.533353 1_555
La7 Pb3 3.533358 1_555
La7 Pb0 3.533358 1_555
La8 Pb2 3.533349 1_555
La8 Pb4 3.533349 1_564
La8 Pb1 3.533353 1_565
La8 Pb5 3.533353 1_554
La8 Pb3 3.533358 1_554
La8 Pb0 3.533358 1_555
La9 Pb1 3.533349 1_555
La9 Pb5 3.533349 1_654
La9 Pb2 3.533353 1_655
La9 Pb4 3.533353 1_554
La9 Pb3 3.533358 1_554
La9 Pb0 3.533358 1_555
