# generated using pymatgen
data_CaLaCrSnO6
_symmetry_space_group_name_H-M   'P 1'
_cell_length_a   5.73122282
_cell_length_b   5.73122282
_cell_length_c   5.73122282
_cell_angle_alpha   60.00000000
_cell_angle_beta   60.00000000
_cell_angle_gamma   60.00000000
_symmetry_Int_Tables_number   1
_chemical_formula_structural   CaLaCrSnO6
_chemical_formula_sum   'Ca1 La1 Cr1 Sn1 O6'
_cell_volume   133.11496497
_cell_formula_units_Z   1
loop_
 _symmetry_equiv_pos_site_id
 _symmetry_equiv_pos_as_xyz
  1  'x, y, z'
loop_
 _atom_site_type_symbol
 _atom_site_label
 _atom_site_symmetry_multiplicity
 _atom_site_fract_x
 _atom_site_fract_y
 _atom_site_fract_z
 _atom_site_occupancy
  Ca  Ca0  1  -0.00000000  0.00000000  -0.00000000  1
  La  La0  1  0.25000000  0.25000000  0.25000000  1
  Cr  Cr0  1  0.50000000  0.50000000  0.50000000  1
  Sn  Sn0  1  0.75000000  0.75000000  0.75000000  1
  O  O0  1  0.73046515  0.26953485  0.26953485  1
  O  O1  1  0.26953485  0.73046515  0.73046515  1
  O  O2  1  0.73046515  0.26953485  0.73046515  1
  O  O3  1  0.26953485  0.73046515  0.26953485  1
  O  O4  1  0.73046515  0.73046515  0.26953485  1
  O  O5  1  0.26953485  0.26953485  0.73046515  1
loop_
_geom_bond_atom_site_label_1
_geom_bond_atom_site_label_2
_geom_bond_distance
_geom_bond_site_symmetry_2
Ca0 O5 2.184627 1_554
Ca0 O0 2.184627 1_455
Ca0 O3 2.184627 1_545
Ca0 O2 2.184627 1_454
Ca0 O4 2.184627 1_445
Ca0 O1 2.184627 1_544
La0 O3 2.869982 1_555
La0 O0 2.869982 1_555
La0 O4 2.869982 1_455
La0 O0 2.869982 1_455
La0 O1 2.869982 1_554
La0 O3 2.869982 1_545
La0 O2 2.869982 1_455
La0 O5 2.869982 1_555
La0 O5 2.869982 1_554
La0 O1 2.869982 1_545
La0 O2 2.869982 1_554
La0 O4 2.869982 1_545
Cr0 O3 1.867960 1_555
Cr0 O0 1.867960 1_555
Cr0 O2 1.867960 1_555
Cr0 O1 1.867960 1_555
Cr0 O4 1.867960 1_555
Cr0 O5 1.867960 1_555
