# generated using pymatgen
data_RbLiCu2H3(SO5)2
_symmetry_space_group_name_H-M   'P 1'
_cell_length_a   5.60031347
_cell_length_b   6.24651368
_cell_length_c   8.04703207
_cell_angle_alpha   72.45334846
_cell_angle_beta   80.48236733
_cell_angle_gamma   114.68997988
_symmetry_Int_Tables_number   1
_chemical_formula_structural   RbLiCu2H3(SO5)2
_chemical_formula_sum   'Rb1 Li1 Cu2 H3 S2 O10'
_cell_volume   229.67088927
_cell_formula_units_Z   1
loop_
 _symmetry_equiv_pos_site_id
 _symmetry_equiv_pos_as_xyz
  1  'x, y, z'
loop_
 _atom_site_type_symbol
 _atom_site_label
 _atom_site_symmetry_multiplicity
 _atom_site_fract_x
 _atom_site_fract_y
 _atom_site_fract_z
 _atom_site_occupancy
  Rb  Rb0  1  0.51473600  0.02259700  0.51679700  1
  Li  Li0  1  0.40067100  0.64668000  0.27962400  1
  Cu  Cu0  1  0.01204800  0.53058700  0.99344900  1
  Cu  Cu1  1  0.48401100  0.12480500  0.94572400  1
  H  H0  1  0.76225800  0.59113300  0.77285100  1
  H  H1  1  0.19416400  0.29917900  0.17458100  1
  H  H2  1  0.48131700  0.51527000  0.00598700  1
  S  S0  1  0.08929600  0.24298000  0.72276700  1
  S  S1  1  0.93075800  0.75246300  0.30578300  1
  O  O0  1  0.77701200  0.08899000  0.79271400  1
  O  O1  1  0.19075600  0.47161100  0.77104500  1
  O  O2  1  0.24934600  0.90888100  0.22227400  1
  O  O3  1  0.83093800  0.53948300  0.23958100  1
  O  O4  1  0.69972200  0.49530800  0.90769300  1
  O  O5  1  0.30041600  0.48750600  0.10199300  1
  O  O6  1  0.19369100  0.06697400  0.81069500  1
  O  O7  1  0.80991400  0.92063700  0.23903400  1
  O  O8  1  0.19366700  0.33276900  0.51883900  1
  O  O9  1  0.85344900  0.64592200  0.50756800  1
loop_
_geom_bond_atom_site_label_1
_geom_bond_atom_site_label_2
_geom_bond_distance
_geom_bond_site_symmetry_2
Li0 O8 1.995345 1_555
Li0 O5 2.000753 1_555
Li0 O7 2.103989 1_555
Li0 O2 2.108759 1_555
Cu0 O4 1.937281 1_455
Cu0 O5 2.032544 1_556
Cu0 O3 2.098533 1_456
Cu0 O1 2.110349 1_555
Cu1 O4 2.006050 1_555
Cu1 O0 2.015753 1_555
Cu1 O2 2.059344 1_546
Cu1 O6 2.069999 1_555
H0 O4 0.982807 1_555
H1 O5 0.982392 1_555
H2 O5 1.080232 1_555
H2 O4 1.415695 1_554
O0 S0 1.497765 1_655
O0 Rb0 2.895525 1_555
O1 S0 1.497667 1_555
O1 Rb0 2.938219 1_565
O2 S1 1.529974 1_455
O2 Rb0 3.103005 1_565
O3 S1 1.506898 1_555
O3 Rb0 2.848000 1_555
O6 S0 1.501971 1_555
O6 Rb0 2.882393 1_555
O7 S1 1.491305 1_555
O7 Rb0 2.941142 1_565
O8 S0 1.484287 1_555
O8 Rb0 3.147555 1_555
O9 S1 1.463624 1_555
