# generated using pymatgen
data_Cs2MoO8
_symmetry_space_group_name_H-M   'P 1'
_cell_length_a   9.24486200
_cell_length_b   7.30405600
_cell_length_c   14.14141422
_cell_angle_alpha   63.03497523
_cell_angle_beta   90.00000000
_cell_angle_gamma   90.00000000
_symmetry_Int_Tables_number   1
_chemical_formula_structural   Cs2MoO8
_chemical_formula_sum   'Cs8 Mo4 O32'
_cell_volume   851.08557866
_cell_formula_units_Z   4
loop_
 _symmetry_equiv_pos_site_id
 _symmetry_equiv_pos_as_xyz
  1  'x, y, z'
loop_
 _atom_site_type_symbol
 _atom_site_label
 _atom_site_symmetry_multiplicity
 _atom_site_fract_x
 _atom_site_fract_y
 _atom_site_fract_z
 _atom_site_occupancy
  Cs  Cs0  1  0.81587900  0.66388400  0.08741800  1
  Cs  Cs1  1  0.18412100  0.33611600  0.91258200  1
  Cs  Cs2  1  0.31587900  0.33611600  0.41258200  1
  Cs  Cs3  1  0.68412100  0.66388400  0.58741800  1
  Cs  Cs4  1  0.98223400  0.99537300  0.26663200  1
  Cs  Cs5  1  0.01776600  0.00462700  0.73336800  1
  Cs  Cs6  1  0.48223400  0.00462700  0.23336800  1
  Cs  Cs7  1  0.51776600  0.99537300  0.76663200  1
  Mo  Mo0  1  0.27921600  0.67251900  0.09158700  1
  Mo  Mo1  1  0.72078400  0.32748100  0.90841300  1
  Mo  Mo2  1  0.77921600  0.32748100  0.40841300  1
  Mo  Mo3  1  0.22078400  0.67251900  0.59158700  1
  O  O0  1  0.13749600  0.70948400  0.18801900  1
  O  O1  1  0.86250400  0.29051600  0.81198100  1
  O  O2  1  0.63749600  0.29051600  0.31198100  1
  O  O3  1  0.36250400  0.70948400  0.68801900  1
  O  O4  1  0.48168300  0.77630600  0.08222800  1
  O  O5  1  0.51831700  0.22369400  0.91777200  1
  O  O6  1  0.98168300  0.22369400  0.41777200  1
  O  O7  1  0.01831700  0.77630600  0.58222800  1
  O  O8  1  0.23802600  0.83866200  0.43381000  1
  O  O9  1  0.76197400  0.16133800  0.56619000  1
  O  O10  1  0.73802600  0.16133800  0.06619000  1
  O  O11  1  0.26197400  0.83866200  0.93381000  1
  O  O12  1  0.34201100  0.42067000  0.08134400  1
  O  O13  1  0.65798900  0.57933000  0.91865600  1
  O  O14  1  0.84201100  0.57933000  0.41865600  1
  O  O15  1  0.15798900  0.42067000  0.58134400  1
  O  O16  1  0.20699500  0.90803900  0.11516400  1
  O  O17  1  0.79300500  0.09196100  0.88483600  1
  O  O18  1  0.70699500  0.09196100  0.38483600  1
  O  O19  1  0.29300500  0.90803900  0.61516400  1
  O  O20  1  0.23158300  0.37122500  0.16586200  1
  O  O21  1  0.76841700  0.62877500  0.83413800  1
  O  O22  1  0.73158300  0.62877500  0.33413800  1
  O  O23  1  0.26841700  0.37122500  0.66586200  1
  O  O24  1  0.37252100  0.72087600  0.48080300  1
  O  O25  1  0.62747900  0.27912400  0.51919700  1
  O  O26  1  0.87252100  0.27912400  0.01919700  1
  O  O27  1  0.12747900  0.72087600  0.98080300  1
  O  O28  1  0.44190900  0.63070600  0.19223900  1
  O  O29  1  0.55809100  0.36929400  0.80776100  1
  O  O30  1  0.94190900  0.36929400  0.30776100  1
  O  O31  1  0.05809100  0.63070600  0.69223900  1
loop_
_geom_bond_atom_site_label_1
_geom_bond_atom_site_label_2
_geom_bond_distance
_geom_bond_site_symmetry_2
Cs0 O13 3.089378 1_554
Cs0 O30 3.100999 1_555
Cs0 O17 3.147166 1_564
Cs0 O4 3.189138 1_555
Cs0 O27 3.189930 1_654
Cs0 O0 3.377143 1_655
Cs0 O26 3.400229 1_555
Cs0 O22 3.469090 1_555
Cs0 O2 3.519577 1_555
Cs0 O10 3.580613 1_565
Cs1 O12 3.089378 1_556
Cs1 O31 3.100999 1_555
Cs1 O16 3.147166 1_546
Cs1 O5 3.189138 1_555
Cs1 O26 3.189930 1_456
Cs1 O1 3.377143 1_455
Cs1 O27 3.400229 1_555
Cs1 O23 3.469090 1_555
Cs1 O3 3.519577 1_555
Cs1 O11 3.580613 1_545
Cs2 O15 3.089378 1_555
Cs2 O28 3.100999 1_555
Cs2 O19 3.147166 1_545
Cs2 O6 3.189138 1_455
Cs2 O25 3.189930 1_555
Cs2 O2 3.377143 1_555
Cs2 O24 3.400229 1_555
Cs2 O20 3.469090 1_555
Cs2 O0 3.519577 1_555
Cs2 O8 3.580613 1_545
Cs3 O14 3.089378 1_555
Cs3 O29 3.100999 1_555
Cs3 O18 3.147166 1_565
Cs3 O7 3.189138 1_655
Cs3 O24 3.189930 1_555
Cs3 O3 3.377143 1_555
Cs3 O25 3.400229 1_555
Cs3 O21 3.469090 1_555
Cs3 O1 3.519577 1_555
Cs3 O9 3.580613 1_565
Cs4 O30 3.062186 1_565
Cs4 O14 3.100314 1_555
Cs4 O0 3.124388 1_655
Cs4 O8 3.168169 1_655
Cs4 O16 3.248336 1_655
Cs4 O6 3.252974 1_565
Cs4 O18 3.291815 1_565
Cs4 O26 3.315264 1_565
Cs4 O22 3.336547 1_555
Cs4 O20 3.366481 1_665
Cs4 O10 3.388949 1_565
Cs5 O31 3.062186 1_545
Cs5 O15 3.100314 1_555
Cs5 O1 3.124388 1_455
Cs5 O9 3.168169 1_455
Cs5 O17 3.248336 1_455
Cs5 O7 3.252974 1_545
Cs5 O19 3.291815 1_545
Cs5 O27 3.315264 1_545
Cs5 O23 3.336547 1_555
Cs5 O21 3.366481 1_445
Cs5 O11 3.388949 1_545
Cs6 O28 3.062186 1_545
Cs6 O12 3.100314 1_555
Cs6 O2 3.124388 1_555
Cs6 O10 3.168169 1_555
Cs6 O18 3.248336 1_555
Cs6 O4 3.252974 1_545
Cs6 O16 3.291815 1_545
Cs6 O24 3.315264 1_545
Cs6 O20 3.336547 1_555
Cs6 O22 3.366481 1_545
Cs6 O8 3.388949 1_545
Cs7 O29 3.062186 1_565
Cs7 O13 3.100314 1_555
Cs7 O3 3.124388 1_555
Cs7 O11 3.168169 1_555
Cs7 O19 3.248336 1_555
Cs7 O5 3.252974 1_565
Cs7 O17 3.291815 1_565
Cs7 O25 3.315264 1_565
Cs7 O21 3.336547 1_555
Cs7 O23 3.366481 1_565
Cs7 O9 3.388949 1_565
Mo0 O0 1.995750 1_555
Mo0 O12 1.995865 1_555
Mo0 O28 1.996808 1_555
Mo0 O4 2.001187 1_555
Mo0 O11 2.005181 1_554
Mo0 O16 2.009071 1_555
Mo0 O20 2.010929 1_555
Mo0 O27 2.011246 1_554
Mo1 O1 1.995750 1_555
Mo1 O13 1.995865 1_555
Mo1 O29 1.996808 1_555
Mo1 O5 2.001187 1_555
Mo1 O10 2.005181 1_556
Mo1 O17 2.009071 1_555
Mo1 O21 2.010929 1_555
Mo1 O26 2.011246 1_556
Mo2 O2 1.995750 1_555
Mo2 O14 1.995865 1_555
Mo2 O30 1.996808 1_555
Mo2 O6 2.001187 1_555
Mo2 O9 2.005181 1_555
Mo2 O18 2.009071 1_555
Mo2 O22 2.010929 1_555
Mo2 O25 2.011246 1_555
Mo3 O3 1.995750 1_555
Mo3 O15 1.995865 1_555
Mo3 O31 1.996808 1_555
Mo3 O7 2.001187 1_555
Mo3 O8 2.005181 1_555
Mo3 O19 2.009071 1_555
Mo3 O23 2.010929 1_555
Mo3 O24 2.011246 1_555
O0 O16 1.490799 1_555
O1 O17 1.490799 1_555
O10 O26 1.486368 1_555
O11 O27 1.486368 1_555
O12 O20 1.486507 1_555
O13 O21 1.486507 1_555
O14 O22 1.486507 1_555
O15 O23 1.486507 1_555
O18 O2 1.490799 1_555
O19 O3 1.490799 1_555
O24 O8 1.486368 1_555
O25 O9 1.486368 1_555
O28 O4 1.478513 1_555
O29 O5 1.478513 1_555
O30 O6 1.478513 1_555
O31 O7 1.478513 1_555
