# generated using pymatgen
data_SiO2
_symmetry_space_group_name_H-M   'P 1'
_cell_length_a   12.08489643
_cell_length_b   12.08487434
_cell_length_c   29.96061935
_cell_angle_alpha   90.00176297
_cell_angle_beta   89.99803849
_cell_angle_gamma   120.00223210
_symmetry_Int_Tables_number   1
_chemical_formula_structural   SiO2
_chemical_formula_sum   'Si60 O120'
_cell_volume   3789.28020694
_cell_formula_units_Z   60
loop_
 _symmetry_equiv_pos_site_id
 _symmetry_equiv_pos_as_xyz
  1  'x, y, z'
loop_
 _atom_site_type_symbol
 _atom_site_label
 _atom_site_symmetry_multiplicity
 _atom_site_fract_x
 _atom_site_fract_y
 _atom_site_fract_z
 _atom_site_occupancy
  Si  Si0  1  0.68295712  0.37429232  0.03264044  1
  Si  Si1  1  0.61118626  0.32324587  0.36596945  1
  Si  Si2  1  0.66227724  0.30248986  0.69930648  1
  Si  Si3  1  0.28795963  0.62574416  0.53263554  1
  Si  Si4  1  0.35976933  0.67679456  0.86597793  1
  Si  Si5  1  0.30865409  0.69750586  0.19930640  1
  Si  Si6  1  0.35973699  0.69749686  0.30069593  1
  Si  Si7  1  0.30869894  0.62573129  0.96736205  1
  Si  Si8  1  0.28793926  0.67682350  0.63402469  1
  Si  Si9  1  0.61118704  0.30250840  0.80069605  1
  Si  Si10  1  0.66224528  0.37431852  0.46735559  1
  Si  Si11  1  0.68295952  0.32321291  0.13402691  1
  Si  Si12  1  0.51373482  0.41334145  0.96786773  1
  Si  Si13  1  0.57212798  0.11494965  0.30120207  1
  Si  Si14  1  0.87051809  0.47174499  0.63453436  1
  Si  Si15  1  0.45720656  0.58669839  0.46786461  1
  Si  Si16  1  0.39879518  0.88506095  0.80120542  1
  Si  Si17  1  0.10038159  0.52828339  0.13453824  1
  Si  Si18  1  0.39879976  0.52828710  0.36546551  1
  Si  Si19  1  0.10040143  0.58667338  0.03213063  1
  Si  Si20  1  0.45720561  0.88506363  0.69879974  1
  Si  Si21  1  0.57214996  0.47174903  0.86546662  1
  Si  Si22  1  0.87052219  0.41334382  0.53212718  1
  Si  Si23  1  0.51373499  0.11493515  0.19879742  1
  Si  Si24  1  0.28312156  0.39574773  0.85038401  1
  Si  Si25  1  0.58970562  0.90193085  0.18371061  1
  Si  Si26  1  0.08355816  0.70237830  0.51704152  1
  Si  Si27  1  0.68782005  0.60428600  0.35037851  1
  Si  Si28  1  0.38122776  0.09806852  0.68371546  1
  Si  Si29  1  0.88735464  0.29763357  0.01704594  1
  Si  Si30  1  0.38120860  0.29768212  0.48295029  1
  Si  Si31  1  0.88737789  0.60426224  0.14962152  1
  Si  Si32  1  0.68783317  0.09810577  0.81629059  1
  Si  Si33  1  0.58973899  0.70237206  0.98295558  1
  Si  Si34  1  0.08351426  0.39577756  0.64961841  1
  Si  Si35  1  0.28308066  0.90190204  0.31628590  1
  Si  Si36  1  0.23399844  0.33542655  0.95222524  1
  Si  Si37  1  0.65004766  0.91313734  0.28555487  1
  Si  Si38  1  0.07234238  0.75149652  0.61889450  1
  Si  Si39  1  0.73694206  0.66461997  0.45222435  1
  Si  Si40  1  0.32088212  0.08687488  0.78555967  1
  Si  Si41  1  0.89855072  0.24852996  0.11889541  1
  Si  Si42  1  0.32088089  0.24855188  0.38110723  1
  Si  Si43  1  0.89858951  0.66459643  0.04777790  1
  Si  Si44  1  0.73695327  0.08689392  0.71443834  1
  Si  Si45  1  0.65007202  0.75149072  0.88111309  1
  Si  Si46  1  0.07232667  0.33542743  0.54777222  1
  Si  Si47  1  0.23398327  0.91309967  0.21443389  1
  Si  Si48  1  0.95548931  0.12058406  0.96707529  1
  Si  Si49  1  0.86488038  0.84945888  0.30040202  1
  Si  Si50  1  0.13606937  0.03001079  0.63374537  1
  Si  Si51  1  0.01545231  0.87944756  0.46707701  1
  Si  Si52  1  0.10606346  0.15058822  0.80040128  1
  Si  Si53  1  0.83489417  0.97003905  0.13374759  1
  Si  Si54  1  0.10603586  0.97004324  0.36625709  1
  Si  Si55  1  0.83490803  0.87942978  0.03293111  1
  Si  Si56  1  0.01546608  0.15061611  0.69958803  1
  Si  Si57  1  0.86489790  0.02998947  0.86625661  1
  Si  Si58  1  0.13604874  0.12061128  0.53293086  1
  Si  Si59  1  0.95548828  0.84944190  0.19958722  1
  O  O0  1  0.91287865  0.00000049  -0.00000031  1
  O  O1  1  0.98545256  0.92743425  0.33333451  1
  O  O2  1  0.05815625  0.07270369  0.66666769  1
  O  O3  1  0.05807728  0.00002446  0.50000735  1
  O  O4  1  0.98547748  0.07261620  0.83332782  1
  O  O5  1  0.91284706  0.92740034  0.16666800  1
  O  O6  1  0.32421390  0.57775177  0.33353098  1
  O  O7  1  0.40769278  0.76098391  0.66687140  1
  O  O8  1  0.22449848  0.66127004  0.00021033  1
  O  O9  1  0.64673201  0.42227181  0.83352857  1
  O  O10  1  0.56320877  0.23901460  0.16687206  1
  O  O11  1  0.74643732  0.33877123  0.50020119  1
  O  O12  1  0.56320107  0.33875236  0.99980150  1
  O  O13  1  0.74644049  0.42224029  0.66646188  1
  O  O14  1  0.64671669  0.23904502  0.33312339  1
  O  O15  1  0.40772752  0.66127702  0.49980311  1
  O  O16  1  0.22447007  0.57776024  0.16646283  1
  O  O17  1  0.32422249  0.76098339  0.83313175  1
  O  O18  1  0.10900566  0.21426258  0.97329879  1
  O  O19  1  0.77122092  0.90931689  0.30661349  1
  O  O20  1  0.07615596  0.87648011  0.63996809  1
  O  O21  1  0.86192283  0.78578202  0.47329581  1
  O  O22  1  0.19970971  0.09071855  0.80661166  1
  O  O23  1  0.89474612  0.12355590  0.13997076  1
  O  O24  1  0.19971820  0.12356067  0.36003252  1
  O  O25  1  0.89476633  0.78577193  0.02671949  1
  O  O26  1  0.86193458  0.09070513  0.69336552  1
  O  O27  1  0.77123742  0.87647323  0.86003740  1
  O  O28  1  0.07617031  0.21426274  0.52671942  1
  O  O29  1  0.10900456  0.90929263  0.19336302  1
  O  O30  1  0.91820413  0.06729444  0.91666559  1
  O  O31  1  0.91819698  0.86545234  0.24999729  1
  O  O32  1  0.12006755  0.06731694  0.58333753  1
  O  O33  1  0.05274732  0.93276073  0.41666915  1
  O  O34  1  0.05276116  0.13462073  0.74999617  1
  O  O35  1  0.85090213  0.93274732  0.08333730  1
  O  O36  1  0.88581294  0.20355023  0.97818768  1
  O  O37  1  0.78189392  0.69681345  0.31151273  1
  O  O38  1  0.28871306  0.09964010  0.64485262  1
  O  O39  1  0.08510229  0.79646553  0.47818442  1
  O  O40  1  0.18905780  0.30323448  0.81151683  1
  O  O41  1  0.68223984  0.90035295  0.14485304  1
  O  O42  1  0.18899520  0.90036099  0.35514482  1
  O  O43  1  0.68226229  0.79643732  0.02182151  1
  O  O44  1  0.08509614  0.30326305  0.68848046  1
  O  O45  1  0.78192241  0.09965404  0.85514785  1
  O  O46  1  0.28868366  0.20360826  0.52181575  1
  O  O47  1  0.88580027  0.69678512  0.18848106  1
  O  O48  1  0.63294830  0.32354634  0.08331591  1
  O  O49  1  0.66173285  0.32377109  0.41666225  1
  O  O50  1  0.66194457  0.35250375  0.75001775  1
  O  O51  1  0.33795803  0.67649350  0.58331472  1
  O  O52  1  0.30922348  0.67627694  0.91667297  1
  O  O53  1  0.30898903  0.64749465  0.25001657  1
  O  O54  1  0.35843033  0.32905834  0.96898915  1
  O  O55  1  0.65627420  0.04380257  0.30240236  1
  O  O56  1  0.94143221  0.62705222  0.63558651  1
  O  O57  1  0.61250775  0.67098344  0.46898730  1
  O  O58  1  0.31463693  0.95620158  0.80240651  1
  O  O59  1  0.02945555  0.37297829  0.13558695  1
  O  O60  1  0.31451569  0.37298124  0.36434623  1
  O  O61  1  0.02926027  0.67082921  0.03092882  1
  O  O62  1  0.61250752  0.95597789  0.69774858  1
  O  O63  1  0.65643081  0.62705274  0.86434819  1
  O  O64  1  0.94164884  0.32917300  0.53092605  1
  O  O65  1  0.35843297  0.04400767  0.19774613  1
  O  O66  1  0.75518535  0.30117286  0.01318549  1
  O  O67  1  0.68449949  0.46866996  0.34657705  1
  O  O68  1  0.51678484  0.23045301  0.67997677  1
  O  O69  1  0.21574050  0.69886141  0.51317975  1
  O  O70  1  0.28646360  0.53137219  0.84658497  1
  O  O71  1  0.45414998  0.76953375  0.17997283  1
  O  O72  1  0.28661728  0.76973224  0.32014820  1
  O  O73  1  0.45411533  0.69903788  0.98675725  1
  O  O74  1  0.21590486  0.53133500  0.65335598  1
  O  O75  1  0.68431073  0.23028421  0.82015297  1
  O  O76  1  0.51683196  0.30101991  0.48674807  1
  O  O77  1  0.75498467  0.46870383  0.15336238  1
  O  O78  1  0.77728206  0.52910213  0.03183085  1
  O  O79  1  0.45639542  0.26290350  0.36509514  1
  O  O80  1  0.72250705  0.20794238  0.69835494  1
  O  O81  1  0.19363391  0.47092789  0.53182809  1
  O  O82  1  0.51456579  0.73714417  0.86510134  1
  O  O83  1  0.24843222  0.79204934  0.19835565  1
  O  O84  1  0.51455369  0.79182962  0.30150137  1
  O  O85  1  0.24835844  0.47094132  0.96823715  1
  O  O86  1  0.19340409  0.73706139  0.63497751  1
  O  O87  1  0.45637665  0.20817811  0.80150422  1
  O  O88  1  0.72259638  0.52910775  0.46823039  1
  O  O89  1  0.77749805  0.26297432  0.13497800  1
  O  O90  1  0.22261190  0.32622669  0.89797644  1
  O  O91  1  0.65934815  0.91123144  0.23130307  1
  O  O92  1  0.07481002  0.76300662  0.56464583  1
  O  O93  1  0.74833365  0.67381729  0.39797183  1
  O  O94  1  0.31158908  0.08877066  0.73130426  1
  O  O95  1  0.89609614  0.23701056  0.06464881  1
  O  O96  1  0.31168171  0.23715748  0.43535686  1
  O  O97  1  0.89668063  0.67389003  0.10202859  1
  O  O98  1  0.74846779  0.08936121  0.76868723  1
  O  O99  1  0.65926437  0.76287967  0.93536200  1
  O  O100  1  0.07422743  0.32613451  0.60202639  1
  O  O101  1  0.22246031  0.91064070  0.26868525  1
  O  O102  1  0.56444645  0.55698399  0.98766540  1
  O  O103  1  0.42839818  0.02215796  0.32095768  1
  O  O104  1  0.96353207  0.42122439  0.65439124  1
  O  O105  1  0.40647865  0.44305608  0.48766223  1
  O  O106  1  0.54251366  0.97786298  0.82096007  1
  O  O107  1  0.00736077  0.57880737  0.15439764  1
  O  O108  1  0.54243680  0.57899740  0.34566735  1
  O  O109  1  0.00760592  0.44295158  0.01237464  1
  O  O110  1  0.40668052  0.97808562  0.67894153  1
  O  O111  1  0.42850877  0.42103231  0.84567034  1
  O  O112  1  0.96331591  0.55706662  0.51237173  1
  O  O113  1  0.56425121  0.02190887  0.17893676  1
  O  O114  1  0.56434297  0.42114068  0.91666802  1
  O  O115  1  0.56452113  0.15771715  0.24997880  1
  O  O116  1  0.82774364  0.42095491  0.58334820  1
  O  O117  1  0.40659886  0.57889815  0.41666597  1
  O  O118  1  0.40640123  0.84228857  0.74998331  1
  O  O119  1  0.14316473  0.57907693  0.08335291  1
loop_
_geom_bond_atom_site_label_1
_geom_bond_atom_site_label_2
_geom_bond_distance
_geom_bond_site_symmetry_2
O0 Si48 1.615973 1_554
O0 Si55 1.615982 1_545
O1 Si54 1.615946 1_655
O1 Si49 1.616026 1_555
O2 Si56 1.615924 1_555
O2 Si50 1.615987 1_555
O3 Si58 1.615942 1_555
O3 Si51 1.615966 1_545
O4 Si57 1.615957 1_555
O4 Si52 1.615988 1_655
O5 Si53 1.615967 1_555
O5 Si59 1.616012 1_555
O6 Si18 1.619924 1_555
O6 Si6 1.620176 1_555
O7 Si20 1.619946 1_555
O7 Si8 1.620289 1_555
O8 Si19 1.619967 1_555
O8 Si7 1.620304 1_554
O9 Si21 1.619993 1_555
O9 Si9 1.620214 1_555
O10 Si23 1.619966 1_555
O10 Si11 1.620302 1_555
O11 Si22 1.619973 1_555
O11 Si10 1.620296 1_555
O12 Si12 1.619951 1_555
O12 Si0 1.620316 1_556
O13 Si14 1.619920 1_555
O13 Si2 1.620229 1_555
O14 Si13 1.619966 1_555
O14 Si1 1.620210 1_555
O15 Si15 1.619984 1_555
O15 Si3 1.620278 1_555
O16 Si17 1.620036 1_555
O16 Si5 1.620210 1_555
O17 Si16 1.619915 1_555
O17 Si4 1.620272 1_555
O18 Si36 1.616295 1_555
O18 Si48 1.630293 1_455
O19 Si37 1.616246 1_555
O19 Si49 1.630283 1_555
O20 Si38 1.616302 1_555
O20 Si50 1.630348 1_565
O21 Si39 1.616195 1_555
O21 Si51 1.630376 1_655
O22 Si40 1.616254 1_555
O22 Si52 1.630258 1_555
O23 Si41 1.616299 1_555
O23 Si53 1.630282 1_545
O24 Si42 1.616296 1_555
O24 Si54 1.630309 1_545
O25 Si43 1.616280 1_555
O25 Si55 1.630267 1_555
O26 Si44 1.616281 1_555
O26 Si56 1.630364 1_655
O27 Si45 1.616268 1_555
O27 Si57 1.630242 1_565
O28 Si46 1.616177 1_555
O28 Si58 1.630402 1_555
O29 Si47 1.616290 1_555
O29 Si59 1.630283 1_455
O30 Si48 1.615109 1_555
O30 Si57 1.615172 1_555
O31 Si49 1.615083 1_555
O31 Si59 1.615155 1_555
O32 Si58 1.615085 1_555
O32 Si50 1.615165 1_555
O33 Si51 1.615149 1_555
O33 Si54 1.615166 1_555
O34 Si52 1.615091 1_555
O34 Si56 1.615109 1_555
O35 Si55 1.615130 1_555
O35 Si53 1.615156 1_555
O36 Si29 1.620870 1_556
O36 Si48 1.633833 1_555
O37 Si27 1.620929 1_555
O37 Si49 1.633823 1_555
O38 Si28 1.620926 1_555
O38 Si50 1.633813 1_555
O39 Si26 1.620917 1_555
O39 Si51 1.633731 1_555
O40 Si24 1.620864 1_555
O40 Si52 1.633856 1_555
O41 Si25 1.620948 1_555
O41 Si53 1.633865 1_555
O42 Si35 1.620904 1_555
O42 Si54 1.633819 1_555
O43 Si33 1.620884 1_554
O43 Si55 1.633828 1_555
O44 Si34 1.620948 1_555
O44 Si56 1.633844 1_555
O45 Si32 1.620925 1_555
O45 Si57 1.633816 1_555
O46 Si30 1.620913 1_555
O46 Si58 1.633743 1_555
O47 Si31 1.620895 1_555
O47 Si59 1.633893 1_555
O48 Si0 1.635791 1_555
O48 Si11 1.635898 1_555
O49 Si1 1.635873 1_555
O49 Si10 1.635883 1_555
O50 Si9 1.635866 1_555
O50 Si2 1.635879 1_555
O51 Si8 1.635857 1_555
O51 Si3 1.635882 1_555
O52 Si7 1.635764 1_555
O52 Si4 1.635910 1_555
O53 Si5 1.635876 1_555
O53 Si6 1.635893 1_555
O54 Si36 1.623338 1_555
O54 Si12 1.627671 1_555
O55 Si37 1.623281 1_545
O55 Si13 1.627585 1_555
O56 Si38 1.623347 1_655
O56 Si14 1.627726 1_555
O57 Si39 1.623295 1_555
O57 Si15 1.627640 1_555
O58 Si40 1.623297 1_565
O58 Si16 1.627647 1_555
O59 Si41 1.623336 1_455
O59 Si17 1.627695 1_555
O60 Si42 1.623260 1_555
O60 Si18 1.627681 1_555
O61 Si43 1.623327 1_455
O61 Si19 1.627629 1_555
O62 Si44 1.623373 1_565
O62 Si20 1.627671 1_555
O63 Si45 1.623325 1_555
O63 Si21 1.627658 1_555
O64 Si46 1.623298 1_655
O64 Si22 1.627640 1_555
O65 Si47 1.623324 1_545
O65 Si23 1.627666 1_555
O66 Si29 1.623193 1_555
O66 Si0 1.629037 1_555
O67 Si27 1.623207 1_555
O67 Si1 1.629101 1_555
O68 Si28 1.623177 1_555
O68 Si2 1.629113 1_555
O69 Si26 1.623205 1_555
O69 Si3 1.628977 1_555
O70 Si24 1.623186 1_555
O70 Si4 1.629073 1_555
O71 Si25 1.623240 1_555
O71 Si5 1.629166 1_555
O72 Si35 1.623183 1_555
O72 Si6 1.629081 1_555
O73 Si33 1.623223 1_555
O73 Si7 1.629062 1_555
O74 Si34 1.623213 1_555
O74 Si8 1.629086 1_555
O75 Si32 1.623192 1_555
O75 Si9 1.629101 1_555
O76 Si30 1.623198 1_555
O76 Si10 1.628979 1_555
O77 Si31 1.623240 1_555
O77 Si11 1.629138 1_555
O78 Si43 1.630326 1_555
O78 Si0 1.633198 1_555
O79 Si42 1.630372 1_555
O79 Si1 1.633252 1_555
O80 Si44 1.630360 1_555
O80 Si2 1.633354 1_555
O81 Si46 1.630341 1_555
O81 Si3 1.633260 1_555
O82 Si45 1.630328 1_555
O82 Si4 1.633304 1_555
O83 Si47 1.630324 1_555
O83 Si5 1.633235 1_555
O84 Si37 1.630318 1_555
O84 Si6 1.633277 1_555
O85 Si36 1.630332 1_555
O85 Si7 1.633243 1_555
O86 Si38 1.630438 1_555
O86 Si8 1.633296 1_555
O87 Si40 1.630289 1_555
O87 Si9 1.633213 1_555
O88 Si39 1.630346 1_555
O88 Si10 1.633217 1_555
O89 Si41 1.630360 1_555
O89 Si11 1.633341 1_555
O90 Si36 1.630242 1_555
O90 Si24 1.630758 1_555
O91 Si37 1.630251 1_555
O91 Si25 1.630835 1_555
O92 Si38 1.630269 1_555
O92 Si26 1.630827 1_555
O93 Si39 1.630353 1_555
O93 Si27 1.630825 1_555
O94 Si40 1.630356 1_555
O94 Si28 1.630678 1_555
O95 Si41 1.630213 1_555
O95 Si29 1.630781 1_555
O96 Si42 1.630271 1_555
O96 Si30 1.630844 1_555
O97 Si43 1.630214 1_555
O97 Si31 1.630753 1_555
O98 Si44 1.630280 1_555
O98 Si32 1.630825 1_555
O99 Si45 1.630243 1_555
O99 Si33 1.630793 1_555
O100 Si46 1.630321 1_555
O100 Si34 1.630815 1_555
O101 Si47 1.630357 1_555
O101 Si35 1.630700 1_555
O102 Si33 1.631966 1_555
O102 Si12 1.636097 1_555
O103 Si35 1.631969 1_545
O103 Si13 1.636124 1_555
O104 Si34 1.631977 1_655
O104 Si14 1.636033 1_555
O105 Si30 1.631891 1_555
O105 Si15 1.636087 1_555
O106 Si32 1.631920 1_565
O106 Si16 1.636053 1_555
O107 Si31 1.632066 1_455
O107 Si17 1.636120 1_555
O108 Si27 1.631933 1_555
O108 Si18 1.636047 1_555
O109 Si29 1.631950 1_455
O109 Si19 1.636067 1_555
O110 Si28 1.632032 1_565
O110 Si20 1.636169 1_555
O111 Si24 1.631994 1_555
O111 Si21 1.636087 1_555
O112 Si26 1.631858 1_655
O112 Si22 1.636078 1_555
O113 Si25 1.631996 1_545
O113 Si23 1.636124 1_555
O114 Si12 1.636553 1_555
O114 Si21 1.636621 1_555
O115 Si23 1.636478 1_555
O115 Si13 1.636580 1_555
O116 Si22 1.636537 1_555
O116 Si14 1.636605 1_555
O117 Si15 1.636554 1_555
O117 Si18 1.636589 1_555
O118 Si16 1.636530 1_555
O118 Si20 1.636567 1_555
O119 Si19 1.636509 1_555
O119 Si17 1.636607 1_555
