# generated using pymatgen
data_Y2NiRu3
_symmetry_space_group_name_H-M   'P 1'
_cell_length_a   5.27988166
_cell_length_b   5.27988166
_cell_length_c   5.27988215
_cell_angle_alpha   59.21832711
_cell_angle_beta   59.21832711
_cell_angle_gamma   59.21834608
_symmetry_Int_Tables_number   1
_chemical_formula_structural   Y2NiRu3
_chemical_formula_sum   'Y2 Ni1 Ru3'
_cell_volume   102.22434147
_cell_formula_units_Z   1
loop_
 _symmetry_equiv_pos_site_id
 _symmetry_equiv_pos_as_xyz
  1  'x, y, z'
loop_
 _atom_site_type_symbol
 _atom_site_label
 _atom_site_symmetry_multiplicity
 _atom_site_fract_x
 _atom_site_fract_y
 _atom_site_fract_z
 _atom_site_occupancy
  Y  Y0  1  0.12303883  0.12303883  0.12303883  1
  Y  Y1  1  0.87696117  0.87696117  0.87696117  1
  Ni  Ni0  1  0.50000000  0.50000000  0.50000000  1
  Ru  Ru0  1  0.50000000  0.00000000  0.50000000  1
  Ru  Ru1  1  0.00000000  0.50000000  0.50000000  1
  Ru  Ru2  1  0.50000000  0.50000000  -0.00000000  1
loop_
_geom_bond_atom_site_label_1
_geom_bond_atom_site_label_2
_geom_bond_distance
_geom_bond_site_symmetry_2
Ni0 Ru0 2.639941 1_555
Ni0 Ru1 2.639941 1_555
Ni0 Ru1 2.639941 1_655
Ni0 Ru0 2.639941 1_565
Ni0 Ru2 2.639941 1_555
Ni0 Ru2 2.639941 1_556
Ni0 Y0 3.065255 1_556
Ni0 Y1 3.065255 1_554
Ni0 Y1 3.065256 1_545
Ni0 Y0 3.065256 1_655
Ni0 Y1 3.065256 1_455
Ni0 Y0 3.065256 1_565
Ru0 Ru2 2.608689 1_546
Ru0 Ru2 2.608689 1_555
Ru0 Ru1 2.608690 1_645
Ru0 Ru1 2.608690 1_555
Ru0 Y1 3.060584 1_445
Ru0 Y0 3.060584 1_655
Ru0 Y0 3.060584 1_556
Ru0 Y1 3.060584 1_544
Ru0 Y1 3.122894 1_545
Ru0 Y0 3.122894 1_555
Ru1 Ru2 2.608689 1_456
Ru1 Ru2 2.608689 1_555
Ru1 Y1 3.060584 1_445
Ru1 Y0 3.060584 1_565
Ru1 Y0 3.060584 1_556
Ru1 Y1 3.060584 1_454
Ru1 Y1 3.122894 1_455
Ru1 Y0 3.122894 1_555
Ru2 Y0 3.060585 1_565
Ru2 Y1 3.060585 1_544
Ru2 Y1 3.060585 1_454
Ru2 Y0 3.060585 1_655
Ru2 Y1 3.122893 1_554
Ru2 Y0 3.122893 1_555
