# generated using pymatgen
data_CdFe4Cu10(SnSe4)5
_symmetry_space_group_name_H-M   'P 1'
_cell_length_a   10.79069513
_cell_length_b   10.79069513
_cell_length_c   10.79069513
_cell_angle_alpha   106.19053934
_cell_angle_beta   106.19053934
_cell_angle_gamma   116.25295351
_symmetry_Int_Tables_number   1
_chemical_formula_structural   CdFe4Cu10(SnSe4)5
_chemical_formula_sum   'Cd1 Fe4 Cu10 Sn5 Se20'
_cell_volume   956.94309519
_cell_formula_units_Z   1
loop_
 _symmetry_equiv_pos_site_id
 _symmetry_equiv_pos_as_xyz
  1  'x, y, z'
loop_
 _atom_site_type_symbol
 _atom_site_label
 _atom_site_symmetry_multiplicity
 _atom_site_fract_x
 _atom_site_fract_y
 _atom_site_fract_z
 _atom_site_occupancy
  Cd  Cd0  1  0.00000000  0.00000000  0.00000000  1
  Fe  Fe0  1  0.20023100  0.39994400  0.59970400  1
  Fe  Fe1  1  0.39947300  0.79976900  0.19971300  1
  Fe  Fe2  1  0.60005600  0.19976000  0.80028700  1
  Fe  Fe3  1  0.80024000  0.60052700  0.40029600  1
  Cu  Cu0  1  0.85036300  0.94933700  0.30336900  1
  Cu  Cu1  1  0.25000000  0.75000000  0.50000000  1
  Cu  Cu2  1  0.64596800  0.54699300  0.69663100  1
  Cu  Cu3  1  0.05066300  0.35403200  0.90102500  1
  Cu  Cu4  1  0.45300700  0.14963700  0.09897500  1
  Cu  Cu5  1  0.75000000  0.25000000  0.50000000  1
  Cu  Cu6  1  0.15244400  0.04974000  0.69818400  1
  Cu  Cu7  1  0.54574000  0.84755600  0.89729600  1
  Cu  Cu8  1  0.95026000  0.64844400  0.10270400  1
  Cu  Cu9  1  0.35155600  0.45426000  0.30181600  1
  Sn  Sn0  1  0.69664600  0.89845400  0.59754100  1
  Sn  Sn1  1  0.10154600  0.69908800  0.79819300  1
  Sn  Sn2  1  0.50000000  0.50000000  0.00000000  1
  Sn  Sn3  1  0.90089500  0.30335400  0.20180700  1
  Sn  Sn4  1  0.30091200  0.09910500  0.40245900  1
  Se  Se0  1  0.59264000  0.28464800  0.61338900  1
  Se  Se1  1  0.79422700  0.68696200  0.21458600  1
  Se  Se2  1  0.99198500  0.09362000  0.79702500  1
  Se  Se3  1  0.19455300  0.48719600  0.41481500  1
  Se  Se4  1  0.39207200  0.88580000  0.01446500  1
  Se  Se5  1  0.29659500  0.19496000  0.20297500  1
  Se  Se6  1  0.47237600  0.57964100  0.78541400  1
  Se  Se7  1  0.67125800  0.97925000  0.38661100  1
  Se  Se8  1  0.87133500  0.37760700  0.98553500  1
  Se  Se9  1  0.07238000  0.77973800  0.58518500  1
  Se  Se10  1  0.31303800  0.52762400  0.10726500  1
  Se  Se11  1  0.51280400  0.92762000  0.70735700  1
  Se  Se12  1  0.71535200  0.32874200  0.30799200  1
  Se  Se13  1  0.90638000  0.70340500  0.89836500  1
  Se  Se14  1  0.11420000  0.12866500  0.50627200  1
  Se  Se15  1  0.42035900  0.20577300  0.89273500  1
  Se  Se16  1  0.62239300  0.60792800  0.49372800  1
  Se  Se17  1  0.80504000  0.00801500  0.10163500  1
  Se  Se18  1  0.02075000  0.40736000  0.69200800  1
  Se  Se19  1  0.22026200  0.80544700  0.29264300  1
loop_
_geom_bond_atom_site_label_1
_geom_bond_atom_site_label_2
_geom_bond_distance
_geom_bond_site_symmetry_2
Cd0 Se5 2.651558 1_555
Cd0 Se17 2.651558 1_455
Cd0 Se2 2.651558 1_454
Cd0 Se13 2.651558 1_444
Fe0 Se14 2.423927 1_555
Fe0 Se3 2.429181 1_555
Fe0 Se6 2.431716 1_555
Fe0 Se18 2.432649 1_555
Fe1 Se4 2.423927 1_555
Fe1 Se19 2.429181 1_555
Fe1 Se10 2.431716 1_555
Fe1 Se7 2.432652 1_555
Fe2 Se8 2.423927 1_555
Fe2 Se11 2.429171 1_545
Fe2 Se15 2.431716 1_555
Fe2 Se0 2.432659 1_555
Fe3 Se16 2.423927 1_555
Fe3 Se9 2.429174 1_655
Fe3 Se1 2.431716 1_555
Fe3 Se12 2.432649 1_555
Cu0 Se17 2.414057 1_565
Cu0 Se14 2.435363 1_665
Cu0 Se1 2.438660 1_555
Cu0 Se7 2.450414 1_555
Cu1 Se3 2.446116 1_555
Cu1 Se19 2.446116 1_555
Cu1 Se11 2.446116 1_555
Cu1 Se9 2.446126 1_555
Cu2 Se13 2.414056 1_555
Cu2 Se16 2.435369 1_555
Cu2 Se6 2.438664 1_555
Cu2 Se0 2.450397 1_555
Cu3 Se2 2.414056 1_455
Cu3 Se8 2.435369 1_455
Cu3 Se10 2.438664 1_556
Cu3 Se18 2.450398 1_555
Cu4 Se5 2.414060 1_555
Cu4 Se4 2.435359 1_545
Cu4 Se15 2.438670 1_554
Cu4 Se12 2.450398 1_555
Cu5 Se0 2.446481 1_555
Cu5 Se7 2.446488 1_545
Cu5 Se12 2.446488 1_555
Cu5 Se18 2.446488 1_655
Cu6 Se2 2.415209 1_455
Cu6 Se9 2.434401 1_545
Cu6 Se15 2.436799 1_555
Cu6 Se14 2.449893 1_555
Cu7 Se17 2.415209 1_566
Cu7 Se11 2.434411 1_555
Cu7 Se6 2.436799 1_555
Cu7 Se4 2.449893 1_556
Cu8 Se13 2.415209 1_554
Cu8 Se19 2.434404 1_655
Cu8 Se1 2.436799 1_555
Cu8 Se8 2.449893 1_554
Cu9 Se5 2.415209 1_555
Cu9 Se3 2.434404 1_555
Cu9 Se10 2.436799 1_555
Cu9 Se16 2.449893 1_555
Se0 Sn4 2.643100 1_555
Se1 Sn2 2.672172 1_555
Se2 Sn0 2.633237 1_545
Se3 Sn3 2.663446 1_455
Se4 Sn1 2.654012 1_554
Se5 Sn4 2.633238 1_555
Se6 Sn2 2.672172 1_556
Se7 Sn0 2.643087 1_555
Se8 Sn3 2.654006 1_556
Se9 Sn1 2.663446 1_555
Se10 Sn2 2.672172 1_555
Se11 Sn0 2.663446 1_555
Se12 Sn3 2.643103 1_555
Se13 Sn1 2.633228 1_655
Se14 Sn4 2.654006 1_555
Se15 Sn2 2.672172 1_556
Se16 Sn0 2.654016 1_555
Se17 Sn3 2.633238 1_555
Se18 Sn1 2.643107 1_555
Se19 Sn4 2.663446 1_565
