# generated using pymatgen
data_Bi12RuO20
_symmetry_space_group_name_H-M   'P 1'
_cell_length_a   8.94770692
_cell_length_b   8.94770692
_cell_length_c   8.94770692
_cell_angle_alpha   109.47122063
_cell_angle_beta   109.47122063
_cell_angle_gamma   109.47122063
_symmetry_Int_Tables_number   1
_chemical_formula_structural   Bi12RuO20
_chemical_formula_sum   'Bi12 Ru1 O20'
_cell_volume   551.45916750
_cell_formula_units_Z   1
loop_
 _symmetry_equiv_pos_site_id
 _symmetry_equiv_pos_as_xyz
  1  'x, y, z'
loop_
 _atom_site_type_symbol
 _atom_site_label
 _atom_site_symmetry_multiplicity
 _atom_site_fract_x
 _atom_site_fract_y
 _atom_site_fract_z
 _atom_site_occupancy
  Bi  Bi0  1  0.49736400  0.33569900  0.19332800  1
  Bi  Bi1  1  0.50263600  0.69596500  0.83833600  1
  Bi  Bi2  1  0.85762900  0.66430100  0.16166400  1
  Bi  Bi3  1  0.33569900  0.19332800  0.49736400  1
  Bi  Bi4  1  0.14237100  0.30403600  0.80667200  1
  Bi  Bi5  1  0.69596500  0.83833600  0.50263600  1
  Bi  Bi6  1  0.66430100  0.16166400  0.85762900  1
  Bi  Bi7  1  0.30403600  0.80667200  0.14237100  1
  Bi  Bi8  1  0.19332800  0.49736400  0.33569900  1
  Bi  Bi9  1  0.16166400  0.85762900  0.66430100  1
  Bi  Bi10  1  0.80667200  0.14237100  0.30403500  1
  Bi  Bi11  1  0.83833600  0.50263600  0.69596500  1
  Ru  Ru0  1  0.00000000  0.00000000  0.00000000  1
  O  O0  1  0.38479100  0.38479100  0.38479100  1
  O  O1  1  0.61520900  0.00000000  0.00000000  1
  O  O2  1  0.00000000  0.61520900  0.00000000  1
  O  O3  1  0.00000000  0.00000000  0.61520900  1
  O  O4  1  0.74001200  0.62132400  0.38156400  1
  O  O5  1  0.25998800  0.64155200  0.88131200  1
  O  O6  1  0.76024000  0.37867600  0.11868800  1
  O  O7  1  0.62132400  0.38156400  0.74001200  1
  O  O8  1  0.23976000  0.35844800  0.61843600  1
  O  O9  1  0.64155200  0.88131200  0.25998800  1
  O  O10  1  0.37867600  0.11868800  0.76024000  1
  O  O11  1  0.35844800  0.61843600  0.23976000  1
  O  O12  1  0.38156400  0.74001200  0.62132400  1
  O  O13  1  0.11868800  0.76024000  0.37867600  1
  O  O14  1  0.61843600  0.23976000  0.35844800  1
  O  O15  1  0.88131200  0.25998800  0.64155200  1
  O  O16  1  0.78746000  0.78746000  0.78746000  1
  O  O17  1  0.21254000  0.00000000  0.00000000  1
  O  O18  1  0.00000000  0.21254000  0.00000000  1
  O  O19  1  0.00000000  0.00000000  0.21254000  1
loop_
_geom_bond_atom_site_label_1
_geom_bond_atom_site_label_2
_geom_bond_distance
_geom_bond_site_symmetry_2
Bi0 O14 2.119386 1_555
Bi0 O4 2.252885 1_555
Bi0 O0 2.255247 1_555
Bi0 O6 2.596523 1_555
Bi0 O17 2.646382 1_555
Bi1 O12 2.119388 1_555
Bi1 O5 2.252879 1_555
Bi1 O1 2.255238 1_566
Bi1 O8 2.596529 1_555
Bi1 O16 2.646387 1_555
Bi2 O13 2.119390 1_655
Bi2 O6 2.252888 1_555
Bi2 O2 2.255240 1_655
Bi2 O4 2.596531 1_555
Bi2 O19 2.646379 1_665
Bi3 O8 2.119386 1_555
Bi3 O7 2.252885 1_555
Bi3 O0 2.255247 1_555
Bi3 O10 2.596523 1_555
Bi3 O19 2.646382 1_555
Bi4 O15 2.119386 1_455
Bi4 O8 2.252885 1_555
Bi4 O3 2.255247 1_555
Bi4 O5 2.596523 1_555
Bi4 O18 2.646382 1_556
Bi5 O4 2.119388 1_555
Bi5 O9 2.252879 1_555
Bi5 O3 2.255238 1_665
Bi5 O11 2.596529 1_555
Bi5 O16 2.646387 1_555
Bi6 O6 2.119390 1_556
Bi6 O10 2.252888 1_555
Bi6 O1 2.255240 1_556
Bi6 O7 2.596531 1_555
Bi6 O18 2.646379 1_656
Bi7 O5 2.119386 1_554
Bi7 O11 2.252885 1_555
Bi7 O2 2.255247 1_555
Bi7 O9 2.596523 1_555
Bi7 O17 2.646382 1_565
Bi8 O11 2.119386 1_555
Bi8 O12 2.252885 1_555
Bi8 O0 2.255247 1_555
Bi8 O13 2.596523 1_555
Bi8 O18 2.646382 1_555
Bi9 O10 2.119390 1_565
Bi9 O13 2.252888 1_555
Bi9 O3 2.255240 1_565
Bi9 O12 2.596531 1_555
Bi9 O17 2.646379 1_566
Bi10 O9 2.119390 1_545
Bi10 O14 2.252888 1_555
Bi10 O1 2.255240 1_555
Bi10 O15 2.596531 1_555
Bi10 O19 2.646379 1_655
Bi11 O7 2.119388 1_555
Bi11 O15 2.252879 1_555
Bi11 O2 2.255238 1_656
Bi11 O14 2.596529 1_555
Bi11 O16 2.646387 1_555
O16 Ru0 1.901746 1_666
O17 Ru0 1.901746 1_555
O18 Ru0 1.901746 1_555
O19 Ru0 1.901746 1_555
