# generated using pymatgen
data_Li2TlHg
_symmetry_space_group_name_H-M   'P 1'
_cell_length_a   3.36415288
_cell_length_b   3.36415288
_cell_length_c   6.76637865
_cell_angle_alpha   90.00000000
_cell_angle_beta   90.00000000
_cell_angle_gamma   90.00000000
_symmetry_Int_Tables_number   1
_chemical_formula_structural   Li2TlHg
_chemical_formula_sum   'Li2 Tl1 Hg1'
_cell_volume   76.57865682
_cell_formula_units_Z   1
loop_
 _symmetry_equiv_pos_site_id
 _symmetry_equiv_pos_as_xyz
  1  'x, y, z'
loop_
 _atom_site_type_symbol
 _atom_site_label
 _atom_site_symmetry_multiplicity
 _atom_site_fract_x
 _atom_site_fract_y
 _atom_site_fract_z
 _atom_site_occupancy
  Li  Li0  1  0.50000000  0.50000000  0.23701776  1
  Li  Li1  1  0.50000000  0.50000000  0.76298224  1
  Tl  Tl0  1  0.00000000  -0.00000000  0.50000000  1
  Hg  Hg0  1  0.00000000  -0.00000000  0.00000000  1
loop_
_geom_bond_atom_site_label_1
_geom_bond_atom_site_label_2
_geom_bond_distance
_geom_bond_site_symmetry_2
Li0 Tl0 2.970717 1_555
Li0 Tl0 2.970717 1_665
Li0 Tl0 2.970717 1_565
Li0 Tl0 2.970717 1_655
Li1 Tl0 2.970717 1_555
Li1 Tl0 2.970717 1_665
Li1 Tl0 2.970717 1_565
Li1 Tl0 2.970717 1_655
Hg0 Li1 2.868934 1_554
Hg0 Li1 2.868934 1_454
Hg0 Li0 2.868934 1_555
Hg0 Li0 2.868934 1_445
Hg0 Li1 2.868934 1_444
Hg0 Li1 2.868934 1_544
Hg0 Li0 2.868934 1_545
Hg0 Li0 2.868934 1_455
