# generated using pymatgen
data_Sr4In17Au15
_symmetry_space_group_name_H-M   'P 1'
_cell_length_a   4.40058500
_cell_length_b   12.85077200
_cell_length_c   15.35853790
_cell_angle_alpha   87.98542043
_cell_angle_beta   90.00000000
_cell_angle_gamma   90.00000000
_symmetry_Int_Tables_number   1
_chemical_formula_structural   Sr4In17Au15
_chemical_formula_sum   'Sr4 In17 Au15'
_cell_volume   868.00253148
_cell_formula_units_Z   1
loop_
 _symmetry_equiv_pos_site_id
 _symmetry_equiv_pos_as_xyz
  1  'x, y, z'
loop_
 _atom_site_type_symbol
 _atom_site_label
 _atom_site_symmetry_multiplicity
 _atom_site_fract_x
 _atom_site_fract_y
 _atom_site_fract_z
 _atom_site_occupancy
  Sr  Sr0  1  0.50000000  0.39122600  0.79507200  1
  Sr  Sr1  1  0.50000000  0.10670200  0.29254300  1
  Sr  Sr2  1  0.00000000  0.60714300  0.20593000  1
  Sr  Sr3  1  0.00000000  0.89698600  0.70783300  1
  In  In0  1  0.50000000  0.27924300  0.52517600  1
  In  In1  1  0.50000000  0.22282600  0.02815600  1
  In  In2  1  0.00000000  0.71959900  0.47086800  1
  In  In3  1  0.00000000  0.77720300  0.97522300  1
  In  In4  1  0.50000000  0.90899700  0.50289500  1
  In  In5  1  0.50000000  0.58849600  0.00331800  1
  In  In6  1  0.00000000  0.08308800  0.50005100  1
  In  In7  1  0.00000000  0.41291200  0.99596100  1
  In  In8  1  0.50000000  0.70205000  0.80369000  1
  In  In9  1  0.50000000  0.81114600  0.29030200  1
  In  In10  1  0.00000000  0.30693400  0.20864500  1
  In  In11  1  0.00000000  0.18817500  0.70888100  1
  In  In12  1  0.00000000  0.60361700  0.68786400  1
  In  In13  1  0.50000000  0.51473400  0.56319200  1
  In  In14  1  0.50000000  0.98035400  0.07766200  1
  In  In15  1  0.00000000  0.47703400  0.41558400  1
  In  In16  1  0.00000000  0.02225600  0.92222600  1
  Au  Au0  1  0.50000000  0.07805900  0.62196700  1
  Au  Au1  1  0.50000000  0.41763500  0.12119100  1
  Au  Au2  1  0.00000000  0.92123800  0.37835800  1
  Au  Au3  1  0.00000000  0.58274900  0.87422100  1
  Au  Au4  1  0.50000000  0.72846300  0.60996500  1
  Au  Au5  1  0.50000000  0.76383100  0.10263200  1
  Au  Au6  1  0.00000000  0.26081100  0.39553200  1
  Au  Au7  1  0.00000000  0.23676000  0.89873200  1
  Au  Au8  1  0.50000000  0.89063500  0.88573100  1
  Au  Au9  1  0.50000000  0.61536200  0.37620900  1
  Au  Au10  1  0.00000000  0.11692000  0.12058300  1
  Au  Au11  1  0.00000000  0.38710800  0.62521400  1
  Au  Au12  1  0.50000000  0.10671400  0.80947400  1
  Au  Au13  1  0.50000000  0.39496900  0.30787600  1
  Au  Au14  1  0.00000000  0.89802800  0.19124400  1
loop_
_geom_bond_atom_site_label_1
_geom_bond_atom_site_label_2
_geom_bond_distance
_geom_bond_site_symmetry_2
In0 In13 3.102139 1_555
In0 In6 3.378273 1_555
In0 In6 3.378273 1_655
In1 In14 3.181305 1_545
In1 In7 3.311782 1_554
In1 In7 3.311782 1_654
In2 In4 3.330365 1_555
In2 In4 3.330365 1_455
In3 In5 3.291608 1_456
In3 In5 3.291608 1_556
In4 In6 3.137101 1_665
In4 In6 3.137101 1_565
In4 Sr3 3.839012 1_555
In4 Sr3 3.839012 1_655
In5 In7 3.156466 1_654
In5 In7 3.156466 1_554
In5 In8 3.348909 1_554
In5 Sr2 3.825518 1_655
In5 Sr2 3.825518 1_555
In6 Sr1 3.875883 1_455
In6 Sr1 3.875883 1_555
In6 Sr3 3.920061 1_545
In7 Sr0 3.807737 1_555
In7 Sr0 3.807737 1_455
In8 Sr3 3.608995 1_555
In8 Sr3 3.608995 1_655
In9 Sr2 3.692164 1_555
In9 Sr2 3.692164 1_655
In9 Sr1 3.799488 1_565
In10 In7 3.494584 1_554
In10 Sr1 3.590204 1_555
In10 Sr1 3.590204 1_455
In10 Sr2 3.856677 1_555
In11 Sr3 3.742604 1_545
In12 In8 3.124759 1_455
In12 In8 3.124759 1_555
In12 In13 3.156912 1_555
In12 In13 3.156912 1_455
In12 Sr3 3.793203 1_555
In13 In15 3.208225 1_655
In13 In15 3.208225 1_555
In14 In16 3.277181 1_664
In14 In16 3.277181 1_564
In14 Sr1 3.728907 1_565
In15 In2 3.259391 1_555
In15 Sr2 3.575658 1_555
In16 In3 3.224790 1_545
In16 Sr3 3.715707 1_545
Au0 In6 2.888430 1_555
Au0 In6 2.888430 1_655
Au0 In4 2.888571 1_545
Au0 Au12 2.916093 1_555
Au0 In0 2.936632 1_555
Au0 In11 2.959462 1_555
Au0 In11 2.959462 1_655
Au0 Sr3 3.432098 1_545
Au0 Sr3 3.432098 1_645
Au1 In5 2.796247 1_555
Au1 Au13 2.871761 1_555
Au1 In10 2.921440 1_555
Au1 In10 2.921440 1_655
Au1 In7 2.924458 1_554
Au1 In7 2.924458 1_654
Au1 In1 2.925824 1_555
Au1 Sr2 3.562127 1_555
Au1 Sr2 3.562127 1_655
Au2 In6 2.844740 1_565
Au2 In2 2.911062 1_555
Au2 In4 2.916046 1_455
Au2 In4 2.916046 1_555
Au2 In9 2.967557 1_455
Au2 In9 2.967557 1_555
Au2 Sr1 3.469571 1_565
Au2 Sr1 3.469571 1_465
Au3 In7 2.823564 1_555
Au3 In12 2.865305 1_555
Au3 In8 2.872001 1_555
Au3 In8 2.872001 1_455
Au3 In5 2.964507 1_556
Au3 In5 2.964507 1_456
Au3 In3 2.987192 1_555
Au3 Sr0 3.547809 1_555
Au3 Sr0 3.547809 1_455
Au4 In4 2.796132 1_555
Au4 In13 2.863300 1_555
Au4 In12 2.951565 1_655
Au4 In12 2.951565 1_555
Au4 In8 2.982752 1_555
Au4 In2 3.071687 1_555
Au4 In2 3.071687 1_655
Au4 Sr3 3.466920 1_555
Au4 Sr3 3.466920 1_655
Au5 In5 2.764977 1_555
Au5 In14 2.795405 1_555
Au5 In3 2.945557 1_654
Au5 In3 2.945557 1_554
Au5 In9 2.966612 1_555
Au5 Sr2 3.344865 1_555
Au5 Sr2 3.344865 1_655
Au6 In6 2.745030 1_555
Au6 In15 2.806387 1_555
Au6 In10 2.910393 1_555
Au6 In0 2.982482 1_455
Au6 In0 2.982482 1_555
Au6 Sr1 3.389035 1_455
Au6 Sr1 3.389035 1_555
Au7 In7 2.755337 1_555
Au7 In16 2.767452 1_555
Au7 In1 2.966400 1_556
Au7 In1 2.966400 1_456
Au7 In11 3.003315 1_555
Au7 Sr0 3.330769 1_455
Au7 Sr0 3.330769 1_555
Au8 In8 2.770477 1_555
Au8 In16 2.843071 1_665
Au8 In16 2.843071 1_565
Au8 In3 2.952022 1_555
Au8 In3 2.952022 1_655
Au8 In14 3.202760 1_556
Au8 Sr3 3.506776 1_555
Au8 Sr3 3.506776 1_655
Au9 In9 2.799566 1_555
Au9 In15 2.879472 1_555
Au9 In15 2.879472 1_655
Au9 In2 2.980963 1_655
Au9 In2 2.980963 1_555
Au9 In13 3.107778 1_555
Au9 Sr2 3.422181 1_555
Au9 Sr2 3.422181 1_655
Au10 In10 2.832663 1_555
Au10 In14 2.904673 1_445
Au10 In14 2.904673 1_545
Au10 In1 2.927936 1_555
Au10 In1 2.927936 1_455
Au10 Au14 2.979214 1_545
Au10 In16 3.319857 1_554
Au10 Sr1 3.436468 1_455
Au10 Sr1 3.436468 1_555
Au11 In11 2.820579 1_555
Au11 In13 2.885955 1_455
Au11 In13 2.885955 1_555
Au11 In12 2.975788 1_555
Au11 In0 3.045172 1_455
Au11 In0 3.045172 1_555
Au11 In15 3.382271 1_555
Au11 Sr0 3.414598 1_455
Au11 Sr0 3.414598 1_555
Au12 In11 2.865371 1_655
Au12 In11 2.865371 1_555
Au12 Au8 2.975494 1_545
Au12 In16 2.980928 1_555
Au12 In16 2.980928 1_655
Au12 Au7 3.110391 1_555
Au12 Au7 3.110391 1_655
Au12 Sr3 3.852002 1_645
Au12 Sr3 3.852002 1_545
Au13 In10 2.926619 1_555
Au13 In10 2.926619 1_655
Au13 In15 2.968606 1_555
Au13 In15 2.968606 1_655
Au13 Au9 3.054815 1_555
Au13 Au6 3.076172 1_655
Au13 Au6 3.076172 1_555
Au13 Sr1 3.720184 1_555
Au13 Sr2 3.798292 1_555
Au13 Sr2 3.798292 1_655
Au14 In9 2.878029 1_455
Au14 In9 2.878029 1_555
Au14 Au2 2.899645 1_555
Au14 In14 2.978911 1_455
Au14 In14 2.978911 1_555
Au14 Au5 3.135683 1_555
Au14 Au5 3.135683 1_455
Au14 Sr2 3.736972 1_555
Au14 Sr1 3.840083 1_565
Au14 Sr1 3.840083 1_465
