# generated using pymatgen
data_ZnFeO2
_symmetry_space_group_name_H-M   'P 1'
_cell_length_a   3.01088200
_cell_length_b   8.18827938
_cell_length_c   8.42244969
_cell_angle_alpha   89.66513835
_cell_angle_beta   99.38458444
_cell_angle_gamma   99.95881503
_symmetry_Int_Tables_number   1
_chemical_formula_structural   ZnFeO2
_chemical_formula_sum   'Zn4 Fe4 O8'
_cell_volume   201.72718715
_cell_formula_units_Z   4
loop_
 _symmetry_equiv_pos_site_id
 _symmetry_equiv_pos_as_xyz
  1  'x, y, z'
loop_
 _atom_site_type_symbol
 _atom_site_label
 _atom_site_symmetry_multiplicity
 _atom_site_fract_x
 _atom_site_fract_y
 _atom_site_fract_z
 _atom_site_occupancy
  Zn  Zn0  1  0.63677800  0.08186400  0.75238900  1
  Zn  Zn1  1  0.36322200  0.91813600  0.24761100  1
  Zn  Zn2  1  0.91104500  0.74013100  0.58876200  1
  Zn  Zn3  1  0.08895500  0.25986900  0.41123800  1
  Fe  Fe0  1  0.37973400  0.23771000  0.08639600  1
  Fe  Fe1  1  0.81088400  0.41628400  0.73459200  1
  Fe  Fe2  1  0.18911600  0.58371600  0.26540800  1
  Fe  Fe3  1  0.62026600  0.76229000  0.91360400  1
  O  O0  1  0.17776300  0.73656500  0.07010600  1
  O  O1  1  0.60802700  0.40140200  0.30076300  1
  O  O2  1  0.39197300  0.59859800  0.69923700  1
  O  O3  1  0.82223700  0.26343500  0.92989400  1
  O  O4  1  0.94362000  0.09288300  0.23253000  1
  O  O5  1  0.17114000  0.23723900  0.63843300  1
  O  O6  1  0.05638000  0.90711700  0.76747000  1
  O  O7  1  0.82886000  0.76276100  0.36156700  1
loop_
_geom_bond_atom_site_label_1
_geom_bond_atom_site_label_2
_geom_bond_distance
_geom_bond_site_symmetry_2
Fe0 O3 1.999220 1_454
Fe0 O3 2.007321 1_554
Fe0 O4 2.148677 1_455
Fe0 O1 2.198575 1_555
Fe0 O4 2.408643 1_555
Fe1 O3 2.060524 1_555
Fe1 O2 2.105153 1_555
Fe1 O2 2.153978 1_655
Fe1 O5 2.198236 1_655
Fe1 O5 2.245862 1_555
Fe2 O0 2.060524 1_555
Fe2 O1 2.105153 1_555
Fe2 O1 2.153978 1_455
Fe2 O7 2.198236 1_455
Fe2 O7 2.245862 1_555
Fe3 O0 1.999220 1_656
Fe3 O0 2.007321 1_556
Fe3 O6 2.148677 1_655
Fe3 O2 2.198575 1_555
Fe3 O6 2.408643 1_555
O0 Zn1 2.055220 1_555
O1 Zn3 2.105715 1_655
O1 Zn3 2.118153 1_555
O2 Zn2 2.105715 1_455
O2 Zn2 2.118153 1_555
O3 Zn0 2.055220 1_555
O4 Zn3 1.982141 1_655
O4 Zn1 2.056807 1_645
O4 Zn1 2.079118 1_545
O5 Zn3 1.901182 1_555
O5 Zn0 2.160836 1_555
O5 Zn0 2.215788 1_455
O6 Zn2 1.982141 1_455
O6 Zn0 2.056807 1_465
O6 Zn0 2.079118 1_565
O7 Zn2 1.901182 1_555
O7 Zn1 2.160836 1_555
O7 Zn1 2.215788 1_655
