# generated using pymatgen
data_Mg2Cd(ClO2)6
_symmetry_space_group_name_H-M   'P 1'
_cell_length_a   10.72690527
_cell_length_b   10.72690619
_cell_length_c   8.84840800
_cell_angle_alpha   97.68576048
_cell_angle_beta   97.68575696
_cell_angle_gamma   123.47536572
_symmetry_Int_Tables_number   1
_chemical_formula_structural   Mg2Cd(ClO2)6
_chemical_formula_sum   'Mg4 Cd2 Cl12 O24'
_cell_volume   814.68791164
_cell_formula_units_Z   2
loop_
 _symmetry_equiv_pos_site_id
 _symmetry_equiv_pos_as_xyz
  1  'x, y, z'
loop_
 _atom_site_type_symbol
 _atom_site_label
 _atom_site_symmetry_multiplicity
 _atom_site_fract_x
 _atom_site_fract_y
 _atom_site_fract_z
 _atom_site_occupancy
  Mg  Mg0  1  0.36192800  0.62993600  0.68673900  1
  Mg  Mg1  1  0.62993600  0.36192800  0.18673900  1
  Mg  Mg2  1  0.00941500  0.01619900  0.93063000  1
  Mg  Mg3  1  0.01619900  0.00941500  0.43063000  1
  Cd  Cd0  1  0.61903400  0.23362300  0.72052400  1
  Cd  Cd1  1  0.23362300  0.61903400  0.22052400  1
  Cl  Cl0  1  0.53056700  0.41406700  0.85138000  1
  Cl  Cl1  1  0.58590900  0.07246600  0.94213500  1
  Cl  Cl2  1  0.88339300  0.48436600  0.98855700  1
  Cl  Cl3  1  0.41406700  0.53056700  0.35138000  1
  Cl  Cl4  1  0.07246600  0.58590900  0.44213500  1
  Cl  Cl5  1  0.48436600  0.88339300  0.48855700  1
  Cl  Cl6  1  0.82859600  0.27819300  0.61829700  1
  Cl  Cl7  1  0.70765500  0.52454600  0.57347200  1
  Cl  Cl8  1  0.31568000  0.11432600  0.63640200  1
  Cl  Cl9  1  0.27819300  0.82859600  0.11829700  1
  Cl  Cl10  1  0.52454600  0.70765500  0.07347200  1
  Cl  Cl11  1  0.11432600  0.31568000  0.13640200  1
  O  O0  1  0.52100500  0.70973900  0.89161500  1
  O  O1  1  0.16246200  0.85567100  0.80891700  1
  O  O2  1  0.22013900  0.42106200  0.75843900  1
  O  O3  1  0.70973900  0.52100500  0.39161500  1
  O  O4  1  0.85567100  0.16246200  0.30891700  1
  O  O5  1  0.42106200  0.22013900  0.25843900  1
  O  O6  1  0.17591300  0.62974000  0.61717300  1
  O  O7  1  0.42184900  0.52944700  0.53521900  1
  O  O8  1  0.49652500  0.85618900  0.66653100  1
  O  O9  1  0.62974000  0.17591300  0.11717300  1
  O  O10  1  0.52944700  0.42184900  0.03521900  1
  O  O11  1  0.85618900  0.49652500  0.16653100  1
  O  O12  1  0.97867200  0.18028400  0.98038200  1
  O  O13  1  0.91233200  0.84990300  0.06217500  1
  O  O14  1  0.23956200  0.11849300  0.02694700  1
  O  O15  1  0.18028400  0.97867200  0.48038200  1
  O  O16  1  0.84990300  0.91233200  0.56217500  1
  O  O17  1  0.11849300  0.23956200  0.52694700  1
  O  O18  1  0.85181500  0.94373100  0.70912800  1
  O  O19  1  0.04387500  0.85248500  0.77468400  1
  O  O20  1  0.14557100  0.27363500  0.68910400  1
  O  O21  1  0.94373100  0.85181500  0.20912800  1
  O  O22  1  0.85248500  0.04387500  0.27468400  1
  O  O23  1  0.27363500  0.14557100  0.18910400  1
loop_
_geom_bond_atom_site_label_1
_geom_bond_atom_site_label_2
_geom_bond_distance
_geom_bond_site_symmetry_2
Mg0 O7 1.995214 1_555
Mg0 O6 2.006709 1_555
Mg0 O0 2.019160 1_555
Mg0 O8 2.080000 1_555
Mg0 O2 2.148242 1_555
Mg1 O10 1.995214 1_555
Mg1 O9 2.006709 1_555
Mg1 O3 2.019160 1_555
Mg1 O11 2.080000 1_555
Mg1 O5 2.148242 1_555
Mg2 O12 1.967864 1_455
Mg2 O14 2.055203 1_556
Mg2 O13 2.109903 1_446
Mg2 O18 2.135443 1_445
Mg2 O19 2.308489 1_545
Mg3 O15 1.967864 1_545
Mg3 O17 2.055203 1_555
Mg3 O16 2.109903 1_445
Mg3 O21 2.135443 1_445
Mg3 O22 2.308489 1_455
Cd0 Cl6 2.360937 1_555
Cd0 Cl8 2.698908 1_555
Cd0 Cl1 2.715755 1_555
Cd0 Cl0 2.776427 1_555
Cd0 Cl2 2.996906 1_555
Cd1 Cl9 2.360937 1_555
Cd1 Cl11 2.698908 1_555
Cd1 Cl4 2.715754 1_555
Cd1 Cl3 2.776427 1_555
Cd1 Cl5 2.996906 1_555
Cl0 O10 1.619636 1_556
Cl1 O9 1.619008 1_556
Cl2 O11 1.640758 1_556
Cl3 O7 1.619636 1_555
Cl4 O6 1.619007 1_555
Cl5 O8 1.640758 1_555
Cl7 O3 1.607949 1_555
Cl8 O15 1.651556 1_545
Cl10 O0 1.607949 1_554
Cl11 O12 1.651556 1_454
O1 O19 1.247916 1_555
O2 O20 1.315641 1_555
O13 O21 1.293347 1_555
O14 O23 1.381243 1_555
O16 O18 1.293347 1_555
O17 O20 1.381243 1_555
O22 O4 1.247916 1_555
O23 O5 1.315641 1_555
