# generated using pymatgen
data_Fe10CuN8
_symmetry_space_group_name_H-M   'P 1'
_cell_length_a   8.80875196
_cell_length_b   3.76808244
_cell_length_c   6.04061004
_cell_angle_alpha   90.00000001
_cell_angle_beta   69.13556531
_cell_angle_gamma   77.65000987
_symmetry_Int_Tables_number   1
_chemical_formula_structural   Fe10CuN8
_chemical_formula_sum   'Fe10 Cu1 N8'
_cell_volume   182.37899093
_cell_formula_units_Z   1
loop_
 _symmetry_equiv_pos_site_id
 _symmetry_equiv_pos_as_xyz
  1  'x, y, z'
loop_
 _atom_site_type_symbol
 _atom_site_label
 _atom_site_symmetry_multiplicity
 _atom_site_fract_x
 _atom_site_fract_y
 _atom_site_fract_z
 _atom_site_occupancy
  Fe  Fe0  1  0.35970458  0.82014771  0.78802264  1
  Fe  Fe1  1  0.64029542  0.17985229  0.21197736  1
  Fe  Fe2  1  0.04085578  0.97957261  0.75547373  1
  Fe  Fe3  1  0.95914422  0.02042739  0.24452627  1
  Fe  Fe4  1  0.68931068  0.65534516  0.49660544  1
  Fe  Fe5  1  0.31068932  0.34465484  0.50339456  1
  Fe  Fe6  1  0.83866960  0.58066570  0.98606737  1
  Fe  Fe7  1  0.16133040  0.41933430  0.01393263  1
  Fe  Fe8  1  0.60209932  0.19895084  0.80562494  1
  Fe  Fe9  1  0.39790068  0.80104916  0.19437506  1
  Cu  Cu0  1  0.00000000  0.50000000  0.50000000  1
  N  N0  1  0.21062129  0.89468885  0.09158422  1
  N  N1  1  0.78937871  0.10531115  0.90841578  1
  N  N2  1  0.28646396  0.85676752  0.53549195  1
  N  N3  1  0.71353604  0.14323248  0.46450805  1
  N  N4  1  0.55522121  0.72238990  0.82994323  1
  N  N5  1  0.44477879  0.27761010  0.17005677  1
  N  N6  1  0.07246210  0.46376845  0.75500789  1
  N  N7  1  0.92753790  0.53623155  0.24499211  1
loop_
_geom_bond_atom_site_label_1
_geom_bond_atom_site_label_2
_geom_bond_distance
_geom_bond_site_symmetry_2
Fe0 N4 1.790324 1_555
Fe0 N0 1.814616 1_556
Fe0 N2 1.850724 1_555
Fe1 N5 1.790324 1_555
Fe1 N1 1.814616 1_554
Fe1 N3 1.850724 1_555
Fe2 N6 1.903422 1_565
Fe2 N6 1.903429 1_555
Fe2 N1 2.019497 1_465
Fe2 N2 2.045615 1_555
Fe3 N7 1.903422 1_545
Fe3 N7 1.903429 1_555
Fe3 N0 2.019497 1_645
Fe3 N3 2.045615 1_555
Fe4 N3 1.897679 1_565
Fe4 N3 1.897679 1_555
Fe4 N4 1.921360 1_555
Fe4 N7 2.059213 1_555
Fe5 N2 1.897679 1_545
Fe5 N2 1.897679 1_555
Fe5 N5 1.921360 1_555
Fe5 N6 2.059213 1_555
Fe6 N7 1.975654 1_556
Fe6 N6 1.986905 1_655
Fe6 N1 2.023512 1_555
Fe6 N1 2.023512 1_565
Fe7 N6 1.975654 1_554
Fe7 N7 1.986905 1_455
Fe7 N0 2.023512 1_555
Fe7 N0 2.023512 1_545
Fe8 N4 1.921119 1_545
Fe8 N4 1.921119 1_555
Fe8 N1 1.926705 1_555
Fe8 N3 1.929920 1_555
Fe8 N5 2.122653 1_556
Fe9 N5 1.921119 1_565
Fe9 N5 1.921119 1_555
Fe9 N0 1.926705 1_555
Fe9 N2 1.929920 1_555
Fe9 N4 2.122653 1_554
Cu0 N7 1.860648 1_455
Cu0 N6 1.860648 1_555
