# generated using pymatgen
data_V2PO5
_symmetry_space_group_name_H-M   'P 1'
_cell_length_a   5.39161625
_cell_length_b   5.39169816
_cell_length_c   7.25863418
_cell_angle_alpha   68.22309205
_cell_angle_beta   111.77751590
_cell_angle_gamma   90.00271155
_symmetry_Int_Tables_number   1
_chemical_formula_structural   V2PO5
_chemical_formula_sum   'V4 P2 O10'
_cell_volume   179.63399894
_cell_formula_units_Z   2
loop_
 _symmetry_equiv_pos_site_id
 _symmetry_equiv_pos_as_xyz
  1  'x, y, z'
loop_
 _atom_site_type_symbol
 _atom_site_label
 _atom_site_symmetry_multiplicity
 _atom_site_fract_x
 _atom_site_fract_y
 _atom_site_fract_z
 _atom_site_occupancy
  V  V0  1  0.50000072  0.99999997  0.99999931  1
  V  V1  1  0.49999891  0.49999890  0.00000051  1
  V  V2  1  0.99999909  1.00000013  0.50000016  1
  V  V3  1  0.50000080  0.99999799  0.50000049  1
  P  P0  1  0.87532144  0.37538268  0.74999674  1
  P  P1  1  0.12467873  0.62461708  0.25000324  1
  O  O0  1  0.37558530  0.87560863  0.74999643  1
  O  O1  1  0.62441465  0.12439101  0.25000390  1
  O  O2  1  0.19198052  0.31897460  0.38338743  1
  O  O3  1  0.81905146  0.69202519  0.11653314  1
  O  O4  1  0.29353225  0.69339876  0.11375313  1
  O  O5  1  0.80801951  0.68102568  0.61661300  1
  O  O6  1  0.19344665  0.79337012  0.38633819  1
  O  O7  1  0.70646867  0.30660101  0.88624710  1
  O  O8  1  0.18094933  0.30797514  0.88346602  1
  O  O9  1  0.80655297  0.20663112  0.61366121  1
loop_
_geom_bond_atom_site_label_1
_geom_bond_atom_site_label_2
_geom_bond_distance
_geom_bond_site_symmetry_2
O0 V0 2.047589 1_555
O0 V3 2.047635 1_555
O0 V2 2.052772 1_455
O0 V1 2.052910 1_556
O1 V0 2.047599 1_544
O1 V3 2.047633 1_545
O1 V2 2.052765 1_545
O1 V1 2.052901 1_555
O2 P1 1.529793 1_555
O2 V3 2.075900 1_545
O2 V2 2.077367 1_445
O3 P1 1.529787 1_655
O3 V0 2.076123 1_554
O3 V1 2.077625 1_555
O4 P1 1.529823 1_555
O4 V0 2.079134 1_554
O4 V1 2.080686 1_555
O5 P0 1.529795 1_555
O5 V3 2.075880 1_555
O5 V2 2.077361 1_555
O6 P1 1.529853 1_555
O6 V3 2.079342 1_555
O6 V2 2.080941 1_455
O7 P0 1.529821 1_555
O7 V0 2.079128 1_545
O7 V1 2.080695 1_556
O8 P0 1.529789 1_455
O8 V0 2.076127 1_545
O8 V1 2.077609 1_556
O9 P0 1.529849 1_555
O9 V3 2.079351 1_545
O9 V2 2.080934 1_545
