# generated using pymatgen
data_ZnCu2(NiO4)2
_symmetry_space_group_name_H-M   'P 1'
_cell_length_a   6.37546090
_cell_length_b   8.32317100
_cell_length_c   11.65686573
_cell_angle_alpha   90.00000000
_cell_angle_beta   91.87262508
_cell_angle_gamma   90.00000000
_symmetry_Int_Tables_number   1
_chemical_formula_structural   ZnCu2(NiO4)2
_chemical_formula_sum   'Zn4 Cu8 Ni8 O32'
_cell_volume   618.23017430
_cell_formula_units_Z   4
loop_
 _symmetry_equiv_pos_site_id
 _symmetry_equiv_pos_as_xyz
  1  'x, y, z'
loop_
 _atom_site_type_symbol
 _atom_site_label
 _atom_site_symmetry_multiplicity
 _atom_site_fract_x
 _atom_site_fract_y
 _atom_site_fract_z
 _atom_site_occupancy
  Zn  Zn0  1  0.10879700  0.15874000  0.04809900  1
  Zn  Zn1  1  0.89120300  0.84126000  0.95190100  1
  Zn  Zn2  1  0.89120300  0.65874000  0.45190100  1
  Zn  Zn3  1  0.10879700  0.34126000  0.54809900  1
  Cu  Cu0  1  0.74869600  0.19008600  0.87594200  1
  Cu  Cu1  1  0.38175300  0.05941900  0.62338700  1
  Cu  Cu2  1  0.61824700  0.94058100  0.37661300  1
  Cu  Cu3  1  0.25130400  0.80991400  0.12405800  1
  Cu  Cu4  1  0.74869600  0.30991400  0.37594200  1
  Cu  Cu5  1  0.38175300  0.44058100  0.12338700  1
  Cu  Cu6  1  0.25130400  0.69008600  0.62405800  1
  Cu  Cu7  1  0.61824700  0.55941900  0.87661300  1
  Ni  Ni0  1  0.09879900  0.46221600  0.84026100  1
  Ni  Ni1  1  0.09879900  0.03778400  0.34026100  1
  Ni  Ni2  1  0.60619600  0.09198400  0.13344500  1
  Ni  Ni3  1  0.90120100  0.96221600  0.65973900  1
  Ni  Ni4  1  0.39380400  0.90801600  0.86655500  1
  Ni  Ni5  1  0.39380400  0.59198400  0.36655500  1
  Ni  Ni6  1  0.60619600  0.40801600  0.63344500  1
  Ni  Ni7  1  0.90120100  0.53778400  0.15973900  1
  O  O0  1  0.02023800  0.23766300  0.39608500  1
  O  O1  1  0.65864800  0.02389300  0.58695400  1
  O  O2  1  0.19170600  0.57768700  0.47740300  1
  O  O3  1  0.80829400  0.07768700  0.02259700  1
  O  O4  1  0.02023800  0.26233600  0.89608500  1
  O  O5  1  0.97976200  0.76233600  0.60391500  1
  O  O6  1  0.10176000  0.11219500  0.62252400  1
  O  O7  1  0.51949900  0.88153100  0.14181200  1
  O  O8  1  0.51949900  0.61846900  0.64181200  1
  O  O9  1  0.32566500  0.87438500  0.71125500  1
  O  O10  1  0.67433500  0.37438500  0.78874500  1
  O  O11  1  0.48050100  0.11846900  0.85818800  1
  O  O12  1  0.89824000  0.88780500  0.37747600  1
  O  O13  1  0.85449500  0.52671100  0.30966400  1
  O  O14  1  0.41018300  0.26898700  0.57080500  1
  O  O15  1  0.41018300  0.23101300  0.07080500  1
  O  O16  1  0.14550500  0.02671100  0.19033600  1
  O  O17  1  0.48050100  0.38153100  0.35818800  1
  O  O18  1  0.14550500  0.47328900  0.69033600  1
  O  O19  1  0.80829400  0.42231300  0.52259700  1
  O  O20  1  0.65864800  0.47610700  0.08695400  1
  O  O21  1  0.67433500  0.12561500  0.28874500  1
  O  O22  1  0.97976200  0.73766400  0.10391500  1
  O  O23  1  0.10176000  0.38780500  0.12252400  1
  O  O24  1  0.19170600  0.92231300  0.97740300  1
  O  O25  1  0.58981700  0.76898700  0.92919500  1
  O  O26  1  0.34135200  0.97610700  0.41304600  1
  O  O27  1  0.34135200  0.52389300  0.91304600  1
  O  O28  1  0.89824000  0.61219500  0.87747600  1
  O  O29  1  0.58981700  0.73101300  0.42919500  1
  O  O30  1  0.32566500  0.62561500  0.21125500  1
  O  O31  1  0.85449500  0.97328900  0.80966400  1
loop_
_geom_bond_atom_site_label_1
_geom_bond_atom_site_label_2
_geom_bond_distance
_geom_bond_site_symmetry_2
Cu0 O11 1.816221 1_555
Cu0 O4 1.840451 1_655
Cu0 O10 1.891938 1_555
Cu0 O3 1.974748 1_556
Cu0 O31 2.083730 1_545
Cu1 O6 1.838044 1_555
Cu1 O1 1.852889 1_555
Cu1 O14 1.859648 1_555
Cu1 O9 1.890169 1_545
Cu1 O26 2.552998 1_545
Cu2 O12 1.838044 1_555
Cu2 O26 1.852889 1_555
Cu2 O29 1.859648 1_555
Cu2 O21 1.890169 1_565
Cu2 O1 2.552998 1_565
Cu3 O7 1.816221 1_555
Cu3 O22 1.840451 1_455
Cu3 O30 1.891938 1_555
Cu3 O24 1.974748 1_554
Cu3 O16 2.083730 1_565
Cu4 O17 1.816221 1_555
Cu4 O0 1.840454 1_655
Cu4 O21 1.891938 1_555
Cu4 O19 1.974748 1_555
Cu4 O13 2.083730 1_555
Cu5 O23 1.838044 1_555
Cu5 O20 1.852889 1_555
Cu5 O15 1.859648 1_555
Cu5 O30 1.890169 1_555
Cu5 O27 2.552998 1_554
Cu6 O8 1.816221 1_555
Cu6 O5 1.840451 1_455
Cu6 O9 1.891938 1_555
Cu6 O2 1.974748 1_555
Cu6 O18 2.083730 1_555
Cu7 O28 1.838044 1_555
Cu7 O27 1.852889 1_555
Cu7 O25 1.859648 1_555
Cu7 O10 1.890169 1_555
Cu7 O20 2.552998 1_556
Ni0 O18 1.784789 1_555
Ni0 O27 1.813546 1_555
Ni0 O28 1.848691 1_455
Ni0 O4 1.860994 1_555
Ni1 O16 1.784789 1_555
Ni1 O26 1.813546 1_545
Ni1 O12 1.848691 1_445
Ni1 O0 1.860987 1_555
Ni2 O15 1.836911 1_555
Ni2 O7 1.840321 1_545
Ni2 O3 1.858156 1_555
Ni2 O21 1.868931 1_555
Ni3 O31 1.784789 1_555
Ni3 O1 1.813546 1_565
Ni3 O6 1.848691 1_665
Ni3 O5 1.860994 1_555
Ni4 O25 1.836911 1_555
Ni4 O11 1.840321 1_565
Ni4 O24 1.858156 1_555
Ni4 O9 1.868931 1_555
Ni5 O29 1.836911 1_555
Ni5 O17 1.840321 1_555
Ni5 O2 1.858156 1_555
Ni5 O30 1.868931 1_555
Ni6 O14 1.836911 1_555
Ni6 O8 1.840321 1_555
Ni6 O19 1.858156 1_555
Ni6 O10 1.868931 1_555
Ni7 O13 1.784789 1_555
Ni7 O20 1.813546 1_555
Ni7 O23 1.848691 1_655
Ni7 O22 1.860994 1_555
O0 Zn3 2.033933 1_555
O2 Zn2 2.043703 1_455
O2 Zn3 2.204388 1_555
O3 Zn0 2.043703 1_655
O3 Zn1 2.204388 1_544
O4 Zn0 2.033930 1_556
O5 Zn2 2.033930 1_555
O6 Zn3 2.095744 1_555
O12 Zn2 2.095744 1_555
O13 Zn2 1.996517 1_555
O14 Zn3 2.022556 1_555
O15 Zn0 2.022556 1_555
O16 Zn0 1.996517 1_555
O18 Zn3 1.996517 1_555
O19 Zn3 2.043703 1_655
O19 Zn2 2.204388 1_555
O22 Zn1 2.033930 1_554
O23 Zn0 2.095744 1_555
O24 Zn1 2.043703 1_455
O24 Zn0 2.204388 1_566
O25 Zn1 2.022556 1_555
O28 Zn1 2.095744 1_555
O29 Zn2 2.022556 1_555
O31 Zn1 1.996517 1_555
