# generated using pymatgen
data_MnNi7O8
_symmetry_space_group_name_H-M   'P 1'
_cell_length_a   6.02798490
_cell_length_b   6.02798490
_cell_length_c   6.02798490
_cell_angle_alpha   60.00000000
_cell_angle_beta   60.00000000
_cell_angle_gamma   60.00000000
_symmetry_Int_Tables_number   1
_chemical_formula_structural   MnNi7O8
_chemical_formula_sum   'Mn1 Ni7 O8'
_cell_volume   154.88218596
_cell_formula_units_Z   1
loop_
 _symmetry_equiv_pos_site_id
 _symmetry_equiv_pos_as_xyz
  1  'x, y, z'
loop_
 _atom_site_type_symbol
 _atom_site_label
 _atom_site_symmetry_multiplicity
 _atom_site_fract_x
 _atom_site_fract_y
 _atom_site_fract_z
 _atom_site_occupancy
  Mn  Mn0  1  0.00000000  0.00000000  0.00000000  1
  Ni  Ni0  1  0.00000000  0.00000000  0.50000000  1
  Ni  Ni1  1  0.50000000  0.00000000  0.50000000  1
  Ni  Ni2  1  0.00000000  0.50000000  0.50000000  1
  Ni  Ni3  1  0.50000000  0.50000000  0.00000000  1
  Ni  Ni4  1  0.00000000  0.50000000  0.00000000  1
  Ni  Ni5  1  0.50000000  0.00000000  0.00000000  1
  Ni  Ni6  1  0.50000000  0.50000000  0.50000000  1
  O  O0  1  0.75000000  0.75000000  0.75000000  1
  O  O1  1  0.25000000  0.25000000  0.25000000  1
  O  O2  1  0.74473600  0.74473600  0.25526400  1
  O  O3  1  0.25526400  0.74473600  0.25526400  1
  O  O4  1  0.74473600  0.25526400  0.25526400  1
  O  O5  1  0.25526400  0.25526400  0.74473600  1
  O  O6  1  0.74473600  0.25526400  0.74473600  1
  O  O7  1  0.25526400  0.74473600  0.74473600  1
loop_
_geom_bond_atom_site_label_1
_geom_bond_atom_site_label_2
_geom_bond_distance
_geom_bond_site_symmetry_2
Mn0 O4 2.176089 1_455
Mn0 O3 2.176089 1_545
Mn0 O5 2.176089 1_554
Mn0 O7 2.176089 1_544
Mn0 O2 2.176089 1_445
Mn0 O6 2.176089 1_454
Ni0 O0 2.131215 1_445
Ni0 O1 2.131215 1_555
Ni0 O7 2.131687 1_545
Ni0 O6 2.131687 1_455
Ni0 O4 2.131687 1_455
Ni0 O3 2.131687 1_545
Ni1 O1 2.131215 1_555
Ni1 O0 2.131215 1_545
Ni1 O5 2.131687 1_555
Ni1 O4 2.131687 1_555
Ni1 O2 2.131687 1_545
Ni1 O7 2.131687 1_545
Ni2 O0 2.131215 1_455
Ni2 O1 2.131215 1_555
Ni2 O5 2.131687 1_555
Ni2 O3 2.131687 1_555
Ni2 O2 2.131687 1_455
Ni2 O6 2.131687 1_455
Ni3 O0 2.131215 1_554
Ni3 O1 2.131215 1_555
Ni3 O4 2.131687 1_555
Ni3 O3 2.131687 1_555
Ni3 O6 2.131687 1_554
Ni3 O7 2.131687 1_554
Ni4 O0 2.131215 1_454
Ni4 O1 2.131215 1_555
Ni4 O7 2.131687 1_554
Ni4 O4 2.131687 1_455
Ni4 O2 2.131687 1_455
Ni4 O5 2.131687 1_554
Ni5 O1 2.131215 1_555
Ni5 O0 2.131215 1_544
Ni5 O6 2.131687 1_554
Ni5 O2 2.131687 1_545
Ni5 O3 2.131687 1_545
Ni5 O5 2.131687 1_554
Ni6 O2 2.086340 1_555
Ni6 O6 2.086340 1_555
Ni6 O7 2.086340 1_555
Ni6 O4 2.086340 1_555
Ni6 O5 2.086340 1_555
Ni6 O3 2.086340 1_555
