# generated using pymatgen
data_Tl4Sn
_symmetry_space_group_name_H-M   'P 1'
_cell_length_a   28.56169417
_cell_length_b   28.56169417
_cell_length_c   28.56169503
_cell_angle_alpha   13.96512670
_cell_angle_beta   13.96512670
_cell_angle_gamma   13.96512270
_symmetry_Int_Tables_number   1
_chemical_formula_structural   Tl4Sn
_chemical_formula_sum   'Tl32 Sn8'
_cell_volume   1181.01191462
_cell_formula_units_Z   8
loop_
 _symmetry_equiv_pos_site_id
 _symmetry_equiv_pos_as_xyz
  1  'x, y, z'
loop_
 _atom_site_type_symbol
 _atom_site_label
 _atom_site_symmetry_multiplicity
 _atom_site_fract_x
 _atom_site_fract_y
 _atom_site_fract_z
 _atom_site_occupancy
  Tl  Tl0_0  1  0.30103963  0.30103963  0.30103963  1
  Tl  Tl0_1  1  0.30103963  0.30103963  0.80103963  1
  Tl  Tl0_2  1  0.30103963  0.80103963  0.30103963  1
  Tl  Tl0_3  1  0.30103963  0.80103963  0.80103963  1
  Tl  Tl0_4  1  0.80103963  0.30103963  0.30103963  1
  Tl  Tl0_5  1  0.80103963  0.30103963  0.80103963  1
  Tl  Tl0_6  1  0.80103963  0.80103963  0.30103963  1
  Tl  Tl0_7  1  0.80103963  0.80103963  0.80103963  1
  Tl  Tl1_0  1  0.10042890  0.10042889  0.10042890  1
  Tl  Tl1_1  1  0.10042890  0.10042889  0.60042890  1
  Tl  Tl1_2  1  0.10042890  0.60042890  0.10042890  1
  Tl  Tl1_3  1  0.10042890  0.60042890  0.60042890  1
  Tl  Tl1_4  1  0.60042890  0.10042890  0.10042890  1
  Tl  Tl1_5  1  0.60042890  0.10042890  0.60042890  1
  Tl  Tl1_6  1  0.60042890  0.60042890  0.10042890  1
  Tl  Tl1_7  1  0.60042890  0.60042890  0.60042890  1
  Tl  Tl2_0  1  0.39957111  0.39957111  0.39957111  1
  Tl  Tl2_1  1  0.39957111  0.39957111  0.89957111  1
  Tl  Tl2_2  1  0.39957111  0.89957111  0.39957111  1
  Tl  Tl2_3  1  0.39957111  0.89957110  0.89957111  1
  Tl  Tl2_4  1  0.89957111  0.39957111  0.39957111  1
  Tl  Tl2_5  1  0.89957111  0.39957110  0.89957111  1
  Tl  Tl2_6  1  0.89957111  0.89957111  0.39957111  1
  Tl  Tl2_7  1  0.89957111  0.89957111  0.89957111  1
  Tl  Tl3_0  1  0.19896037  0.19896037  0.19896037  1
  Tl  Tl3_1  1  0.19896037  0.19896037  0.69896037  1
  Tl  Tl3_2  1  0.19896037  0.69896037  0.19896037  1
  Tl  Tl3_3  1  0.19896037  0.69896037  0.69896037  1
  Tl  Tl3_4  1  0.69896037  0.19896037  0.19896037  1
  Tl  Tl3_5  1  0.69896037  0.19896037  0.69896037  1
  Tl  Tl3_6  1  0.69896037  0.69896037  0.19896037  1
  Tl  Tl3_7  1  0.69896037  0.69896037  0.69896037  1
  Sn  Sn0_0  1  0.00000000  0.00000000  0.00000000  1
  Sn  Sn0_1  1  0.00000000  0.00000000  0.50000000  1
  Sn  Sn0_2  1  0.00000000  0.50000000  0.00000000  1
  Sn  Sn0_3  1  0.00000000  0.50000000  0.50000000  1
  Sn  Sn0_4  1  0.50000000  0.00000000  0.00000000  1
  Sn  Sn0_5  1  0.50000000  0.00000000  0.50000000  1
  Sn  Sn0_6  1  0.50000000  0.50000000  0.00000000  1
  Sn  Sn0_7  1  0.50000000  0.50000000  0.50000000  1
loop_
_geom_bond_atom_site_label_1
_geom_bond_atom_site_label_2
_geom_bond_distance
_geom_bond_site_symmetry_2
Tl0_0 Tl0_6 3.472166 1_455
Tl0_0 Tl0_6 3.472166 1_545
Tl0_0 Tl0_5 3.472168 1_455
Tl0_0 Tl0_3 3.472168 1_545
Tl0_0 Tl0_3 3.472168 1_554
Tl0_0 Tl0_5 3.472168 1_554
Tl0_0 Tl1_2 3.508751 1_555
Tl0_0 Tl1_4 3.508751 1_555
Tl0_0 Tl1_1 3.508751 1_555
Tl0_1 Tl0_7 3.472166 1_455
Tl0_1 Tl0_7 3.472166 1_545
Tl0_1 Tl0_4 3.472168 1_456
Tl0_1 Tl0_2 3.472168 1_546
Tl0_1 Tl0_4 3.472168 1_555
Tl0_1 Tl0_2 3.472168 1_555
Tl0_1 Tl1_3 3.508751 1_555
Tl0_1 Tl1_5 3.508751 1_555
Tl0_1 Tl1_0 3.508751 1_556
Tl0_2 Tl0_4 3.472166 1_465
Tl0_2 Tl0_4 3.472166 1_555
Tl0_2 Tl0_7 3.472168 1_455
Tl0_2 Tl0_7 3.472168 1_554
Tl0_2 Tl1_6 3.508751 1_555
Tl0_2 Tl1_0 3.508751 1_565
Tl0_2 Tl1_3 3.508751 1_555
Tl0_3 Tl0_5 3.472166 1_465
Tl0_3 Tl0_5 3.472166 1_555
Tl0_3 Tl0_6 3.472168 1_456
Tl0_3 Tl0_6 3.472168 1_555
Tl0_3 Tl1_7 3.508751 1_555
Tl0_3 Tl1_1 3.508751 1_565
Tl0_3 Tl1_2 3.508751 1_556
Tl0_4 Tl0_7 3.472168 1_545
Tl0_4 Tl0_7 3.472168 1_554
Tl0_4 Tl1_6 3.508751 1_555
Tl0_4 Tl1_0 3.508751 1_655
Tl0_4 Tl1_5 3.508751 1_555
Tl0_5 Tl0_6 3.472168 1_546
Tl0_5 Tl0_6 3.472168 1_555
Tl0_5 Tl1_7 3.508751 1_555
Tl0_5 Tl1_1 3.508751 1_655
Tl0_5 Tl1_4 3.508751 1_556
Tl0_6 Tl1_2 3.508751 1_655
Tl0_6 Tl1_4 3.508751 1_565
Tl0_6 Tl1_7 3.508751 1_555
Tl0_7 Tl1_3 3.508751 1_655
Tl0_7 Tl1_5 3.508751 1_565
Tl0_7 Tl1_6 3.508751 1_556
Tl1_0 Tl1_6 3.472166 1_545
Tl1_0 Tl1_6 3.472166 1_455
Tl1_0 Tl1_5 3.472168 1_455
Tl1_0 Tl1_3 3.472168 1_545
Tl1_0 Tl1_5 3.472168 1_554
Tl1_0 Tl1_3 3.472168 1_554
Tl1_0 Tl2_5 3.525973 1_454
Tl1_0 Tl2_3 3.525973 1_544
Tl1_0 Tl2_6 3.525973 1_445
Tl1_1 Tl1_7 3.472166 1_455
Tl1_1 Tl1_7 3.472166 1_545
Tl1_1 Tl1_2 3.472168 1_546
Tl1_1 Tl1_4 3.472168 1_555
Tl1_1 Tl1_4 3.472168 1_456
Tl1_1 Tl1_2 3.472168 1_555
Tl1_1 Tl2_2 3.525973 1_545
Tl1_1 Tl2_4 3.525973 1_455
Tl1_1 Tl2_7 3.525973 1_445
Tl1_2 Tl1_4 3.472166 1_555
Tl1_2 Tl1_4 3.472166 1_465
Tl1_2 Tl1_7 3.472168 1_455
Tl1_2 Tl1_7 3.472168 1_554
Tl1_2 Tl2_7 3.525973 1_454
Tl1_2 Tl2_1 3.525973 1_554
Tl1_2 Tl2_4 3.525973 1_455
Tl1_3 Tl1_5 3.472166 1_555
Tl1_3 Tl1_5 3.472166 1_465
Tl1_3 Tl1_6 3.472168 1_555
Tl1_3 Tl1_6 3.472168 1_456
Tl1_3 Tl2_0 3.525973 1_555
Tl1_3 Tl2_6 3.525973 1_455
Tl1_3 Tl2_5 3.525973 1_455
Tl1_4 Tl1_7 3.472168 1_554
Tl1_4 Tl1_7 3.472168 1_545
Tl1_4 Tl2_7 3.525973 1_544
Tl1_4 Tl2_1 3.525973 1_554
Tl1_4 Tl2_2 3.525973 1_545
Tl1_5 Tl1_6 3.472168 1_546
Tl1_5 Tl1_6 3.472168 1_555
Tl1_5 Tl2_0 3.525973 1_555
Tl1_5 Tl2_6 3.525973 1_545
Tl1_5 Tl2_3 3.525973 1_545
Tl1_6 Tl2_3 3.525973 1_554
Tl1_6 Tl2_5 3.525973 1_554
Tl1_6 Tl2_0 3.525973 1_555
Tl1_7 Tl2_2 3.525973 1_555
Tl1_7 Tl2_4 3.525973 1_555
Tl1_7 Tl2_1 3.525973 1_555
Tl2_0 Tl2_6 3.472166 1_545
Tl2_0 Tl2_6 3.472166 1_455
Tl2_0 Tl2_3 3.472168 1_554
Tl2_0 Tl2_5 3.472168 1_554
Tl2_0 Tl2_3 3.472168 1_545
Tl2_0 Tl2_5 3.472168 1_455
Tl2_0 Tl3_2 3.508751 1_555
Tl2_0 Tl3_4 3.508751 1_555
Tl2_0 Tl3_1 3.508751 1_555
Tl2_1 Tl2_7 3.472166 1_455
Tl2_1 Tl2_7 3.472166 1_545
Tl2_1 Tl2_4 3.472168 1_555
Tl2_1 Tl2_2 3.472168 1_546
Tl2_1 Tl2_4 3.472168 1_456
Tl2_1 Tl2_2 3.472168 1_555
Tl2_1 Tl3_3 3.508751 1_555
Tl2_1 Tl3_5 3.508751 1_555
Tl2_1 Tl3_0 3.508751 1_556
Tl2_2 Tl2_4 3.472166 1_465
Tl2_2 Tl2_4 3.472166 1_555
Tl2_2 Tl2_7 3.472168 1_455
Tl2_2 Tl2_7 3.472168 1_554
Tl2_2 Tl3_6 3.508751 1_555
Tl2_2 Tl3_0 3.508751 1_565
Tl2_2 Tl3_3 3.508751 1_555
Tl2_3 Tl2_5 3.472166 1_555
Tl2_3 Tl2_5 3.472166 1_465
Tl2_3 Tl2_6 3.472168 1_456
Tl2_3 Tl2_6 3.472168 1_555
Tl2_3 Tl3_7 3.508751 1_555
Tl2_3 Tl3_1 3.508751 1_565
Tl2_3 Tl3_2 3.508751 1_556
Tl2_4 Tl2_7 3.472168 1_554
Tl2_4 Tl2_7 3.472168 1_545
Tl2_4 Tl3_6 3.508751 1_555
Tl2_4 Tl3_0 3.508751 1_655
Tl2_4 Tl3_5 3.508751 1_555
Tl2_5 Tl2_6 3.472168 1_546
Tl2_5 Tl2_6 3.472168 1_555
Tl2_5 Tl3_7 3.508751 1_555
Tl2_5 Tl3_1 3.508751 1_655
Tl2_5 Tl3_4 3.508751 1_556
Tl2_6 Tl3_2 3.508751 1_655
Tl2_6 Tl3_4 3.508751 1_565
Tl2_6 Tl3_7 3.508751 1_555
Tl2_7 Tl3_3 3.508751 1_655
Tl2_7 Tl3_5 3.508751 1_565
Tl2_7 Tl3_6 3.508751 1_556
Tl3_0 Tl3_6 3.472166 1_545
Tl3_0 Tl3_6 3.472166 1_455
Tl3_0 Tl3_5 3.472168 1_455
Tl3_0 Tl3_3 3.472168 1_545
Tl3_0 Tl3_3 3.472168 1_554
Tl3_0 Tl3_5 3.472168 1_554
Tl3_1 Tl3_7 3.472166 1_545
Tl3_1 Tl3_7 3.472166 1_455
Tl3_1 Tl3_4 3.472168 1_555
Tl3_1 Tl3_2 3.472168 1_546
Tl3_1 Tl3_2 3.472168 1_555
Tl3_1 Tl3_4 3.472168 1_456
Tl3_2 Tl3_4 3.472166 1_465
Tl3_2 Tl3_4 3.472166 1_555
Tl3_2 Tl3_7 3.472168 1_554
Tl3_2 Tl3_7 3.472168 1_455
Tl3_3 Tl3_5 3.472166 1_465
Tl3_3 Tl3_5 3.472166 1_555
Tl3_3 Tl3_6 3.472168 1_555
Tl3_3 Tl3_6 3.472168 1_456
Tl3_4 Tl3_7 3.472168 1_554
Tl3_4 Tl3_7 3.472168 1_545
Tl3_5 Tl3_6 3.472168 1_555
Tl3_5 Tl3_6 3.472168 1_546
Sn0_0 Tl0_5 3.394783 1_454
Sn0_0 Tl0_3 3.394783 1_544
Sn0_0 Tl3_4 3.394783 1_455
Sn0_0 Tl3_2 3.394783 1_545
Sn0_0 Tl0_6 3.394783 1_445
Sn0_0 Tl3_1 3.394783 1_554
Sn0_1 Tl0_4 3.394783 1_455
Sn0_1 Tl0_2 3.394783 1_545
Sn0_1 Tl3_5 3.394783 1_455
Sn0_1 Tl3_3 3.394783 1_545
Sn0_1 Tl0_7 3.394783 1_445
Sn0_1 Tl3_0 3.394783 1_555
Sn0_2 Tl0_7 3.394783 1_454
Sn0_2 Tl0_1 3.394783 1_554
Sn0_2 Tl3_0 3.394783 1_555
Sn0_2 Tl3_6 3.394783 1_455
Sn0_2 Tl0_4 3.394783 1_455
Sn0_2 Tl3_3 3.394783 1_554
Sn0_3 Tl0_6 3.394783 1_455
Sn0_3 Tl3_1 3.394783 1_555
Sn0_3 Tl3_7 3.394783 1_455
Sn0_3 Tl0_0 3.394783 1_555
Sn0_3 Tl0_5 3.394783 1_455
Sn0_3 Tl3_2 3.394783 1_555
Sn0_4 Tl0_7 3.394783 1_544
Sn0_4 Tl0_1 3.394783 1_554
Sn0_4 Tl3_0 3.394783 1_555
Sn0_4 Tl3_6 3.394783 1_545
Sn0_4 Tl0_2 3.394783 1_545
Sn0_4 Tl3_5 3.394783 1_554
Sn0_5 Tl0_6 3.394783 1_545
Sn0_5 Tl3_1 3.394783 1_555
Sn0_5 Tl0_0 3.394783 1_555
Sn0_5 Tl3_7 3.394783 1_545
Sn0_5 Tl0_3 3.394783 1_545
Sn0_5 Tl3_4 3.394783 1_555
Sn0_6 Tl0_5 3.394783 1_554
Sn0_6 Tl0_3 3.394783 1_554
Sn0_6 Tl3_4 3.394783 1_555
Sn0_6 Tl3_2 3.394783 1_555
Sn0_6 Tl3_7 3.394783 1_554
Sn0_6 Tl0_0 3.394783 1_555
Sn0_7 Tl0_4 3.394783 1_555
Sn0_7 Tl0_2 3.394783 1_555
Sn0_7 Tl3_5 3.394783 1_555
Sn0_7 Tl3_3 3.394783 1_555
Sn0_7 Tl0_1 3.394783 1_555
Sn0_7 Tl3_6 3.394783 1_555
