# generated using pymatgen
data_Ba10MgAs6(ClO12)2
_symmetry_space_group_name_H-M   'P 1'
_cell_length_a   11.13649135
_cell_length_b   10.74776646
_cell_length_c   7.89551799
_cell_angle_alpha   90.13706753
_cell_angle_beta   89.26125783
_cell_angle_gamma   120.11188854
_symmetry_Int_Tables_number   1
_chemical_formula_structural   Ba10MgAs6(ClO12)2
_chemical_formula_sum   'Ba10 Mg1 As6 Cl2 O24'
_cell_volume   817.42174417
_cell_formula_units_Z   1
loop_
 _symmetry_equiv_pos_site_id
 _symmetry_equiv_pos_as_xyz
  1  'x, y, z'
loop_
 _atom_site_type_symbol
 _atom_site_label
 _atom_site_symmetry_multiplicity
 _atom_site_fract_x
 _atom_site_fract_y
 _atom_site_fract_z
 _atom_site_occupancy
  Ba  Ba0  1  0.65233326  0.31472994  0.49677200  1
  Ba  Ba1  1  0.38593226  0.65180144  0.48955550  1
  Ba  Ba2  1  0.99601559  0.26504145  0.25540474  1
  Ba  Ba3  1  0.30886519  0.66953661  0.02548663  1
  Ba  Ba4  1  0.75985929  0.75065517  0.25213985  1
  Ba  Ba5  1  0.25305744  0.98991606  0.25681030  1
  Ba  Ba6  1  0.73599619  0.00391609  0.74532647  1
  Ba  Ba7  1  0.95644167  0.75929945  0.79130834  1
  Ba  Ba8  1  0.65511333  0.32372851  0.00180637  1
  Ba  Ba9  1  0.25551617  0.25463414  0.75623277  1
  Mg  Mg0  1  0.12653509  0.70814789  0.49666130  1
  As  As0  1  0.96605244  0.58141878  0.19294712  1
  As  As1  1  0.61000851  0.62584108  0.75642487  1
  As  As2  1  0.34965875  0.95461154  0.75843028  1
  As  As3  1  0.39946414  0.36250371  0.24619325  1
  As  As4  1  0.02590352  0.41380087  0.73776632  1
  As  As5  1  0.63396643  0.02508102  0.24070929  1
  Cl  Cl0  1  0.01478227  0.02055218  0.02721284  1
  Cl  Cl1  1  0.98917231  0.01005470  0.52768818  1
  O  O0  1  0.70309680  0.75384205  0.90680314  1
  O  O1  1  0.31484200  0.45962091  0.23394816  1
  O  O2  1  0.34750318  0.25584777  0.42664922  1
  O  O3  1  0.43293325  0.53851116  0.79145149  1
  O  O4  1  0.10422117  0.37280175  0.57387848  1
  O  O5  1  0.67120690  0.50739748  0.73665105  1
  O  O6  1  0.84683005  0.31614782  0.73681844  1
  O  O7  1  0.08354131  0.59754444  0.71321445  1
  O  O8  1  0.57796115  0.46841704  0.26084221  1
  O  O9  1  0.73922512  0.10203997  0.06412480  1
  O  O10  1  0.09363796  0.39138618  0.92306593  1
  O  O11  1  0.84998922  0.39997044  0.26083824  1
  O  O12  1  0.44396430  0.86723232  0.73485952  1
  O  O13  1  0.85338046  0.60911270  0.05967180  1
  O  O14  1  0.96017720  0.68193086  0.37971986  1
  O  O15  1  0.45877513  0.13809380  0.74907154  1
  O  O16  1  0.36847986  0.25504266  0.07054559  1
  O  O17  1  0.73552479  0.08864379  0.41947104  1
  O  O18  1  0.25288152  0.73422820  0.31912128  1
  O  O19  1  0.25483731  0.89401437  0.94415801  1
  O  O20  1  0.55662919  0.84077517  0.22920744  1
  O  O21  1  0.22186676  0.90545618  0.60563801  1
  O  O22  1  0.64788271  0.72745474  0.57236888  1
  O  O23  1  0.52468882  0.09671757  0.24967202  1
loop_
_geom_bond_atom_site_label_1
_geom_bond_atom_site_label_2
_geom_bond_distance
_geom_bond_site_symmetry_2
Ba0 O11 2.652107 1_555
Ba0 O5 2.733875 1_555
Ba0 O15 2.831970 1_555
Ba0 O23 2.832831 1_555
Ba0 O8 2.882986 1_555
Ba0 O6 2.890773 1_555
Ba0 O17 3.061456 1_555
Ba0 O2 3.181578 1_555
Ba1 O18 2.483012 1_555
Ba1 O22 2.695441 1_555
Ba1 O1 2.710448 1_555
Ba1 O20 2.830097 1_555
Ba1 O12 2.835372 1_555
Ba1 O3 2.850225 1_555
Ba1 O4 3.129516 1_555
Ba2 O11 2.667147 1_555
Ba2 O4 2.789285 1_655
Ba2 O17 2.843294 1_555
Ba2 O10 2.893684 1_654
Ba2 O9 2.932567 1_555
Ba2 O1 3.089457 1_655
Ba2 Cl0 3.273122 1_655
Ba2 Cl1 3.457236 1_555
Ba3 O18 2.576251 1_555
Ba3 O1 2.823973 1_555
Ba3 O19 2.840612 1_554
Ba3 O10 2.860905 1_554
Ba3 O20 2.931324 1_555
Ba3 O12 2.961494 1_554
Ba3 O3 3.029959 1_554
Ba4 O8 2.672396 1_555
Ba4 O13 2.691864 1_555
Ba4 O22 2.760369 1_555
Ba4 O0 2.811014 1_554
Ba4 O14 2.872584 1_555
Ba4 O20 2.881724 1_555
Ba4 Cl0 3.355546 1_665
Ba4 Cl1 3.463814 1_565
Ba5 O23 2.642607 1_565
Ba5 O19 2.676492 1_554
Ba5 O18 2.791952 1_555
Ba5 O2 2.841702 1_565
Ba5 O21 2.863751 1_555
Ba5 O16 2.868970 1_565
Ba5 Cl0 3.382239 1_565
Ba5 Cl1 3.705563 1_465
Ba6 O9 2.720435 1_556
Ba6 O17 2.732201 1_555
Ba6 O12 2.820346 1_545
Ba6 O0 2.828414 1_545
Ba6 O6 2.938068 1_555
Ba6 O22 2.957396 1_545
Ba6 Cl1 3.255095 1_555
Ba7 O13 2.550922 1_556
Ba7 O7 2.801340 1_655
Ba7 O0 2.926260 1_555
Ba7 O21 2.931602 1_655
Ba7 O5 3.001174 1_555
Ba7 O19 3.140544 1_655
Ba7 Cl0 3.154564 1_666
Ba7 Cl1 3.278734 1_565
Ba7 O14 3.357389 1_555
Ba8 O13 2.777755 1_555
Ba8 O11 2.808247 1_555
Ba8 O5 2.822575 1_554
Ba8 O23 2.878592 1_555
Ba8 O15 2.908555 1_554
Ba8 O8 2.935907 1_555
Ba8 O16 2.936288 1_555
Ba8 O6 3.000166 1_554
Ba8 O9 3.008899 1_555
Ba9 O3 2.692853 1_555
Ba9 O2 2.781946 1_555
Ba9 O16 2.795745 1_556
Ba9 O4 2.956900 1_555
Ba9 O15 3.088224 1_555
Ba9 O10 3.119839 1_555
Ba9 Cl0 3.347345 1_556
Ba9 Cl1 3.354998 1_455
Mg0 O18 1.891724 1_555
Mg0 O14 1.970600 1_455
Mg0 O7 1.995818 1_555
Mg0 O21 2.029861 1_555
As0 O13 1.783429 1_555
As0 O11 1.794180 1_555
As0 O14 1.845736 1_555
As1 O0 1.723355 1_555
As1 O3 1.725175 1_555
As1 O5 1.725178 1_555
As1 O22 1.735529 1_555
As2 O19 1.721689 1_555
As2 O15 1.721893 1_565
As2 O12 1.733019 1_555
As2 O21 1.745460 1_555
As3 O1 1.725334 1_555
As3 O16 1.726588 1_555
As3 O8 1.730747 1_555
As3 O2 1.732023 1_555
As4 O6 1.725935 1_455
As4 O10 1.726267 1_555
As4 O4 1.727152 1_555
As4 O7 1.753934 1_555
As5 O20 1.721402 1_545
As5 O9 1.729919 1_555
As5 O17 1.731836 1_555
As5 O23 1.736804 1_555
