# generated using pymatgen
data_TaNiP2O9
_symmetry_space_group_name_H-M   'P 1'
_cell_length_a   6.45644900
_cell_length_b   7.97633700
_cell_length_c   14.29875800
_cell_angle_alpha   90.00000000
_cell_angle_beta   90.00000000
_cell_angle_gamma   90.00000000
_symmetry_Int_Tables_number   1
_chemical_formula_structural   TaNiP2O9
_chemical_formula_sum   'Ta4 Ni4 P8 O36'
_cell_volume   736.36906505
_cell_formula_units_Z   4
loop_
 _symmetry_equiv_pos_site_id
 _symmetry_equiv_pos_as_xyz
  1  'x, y, z'
loop_
 _atom_site_type_symbol
 _atom_site_label
 _atom_site_symmetry_multiplicity
 _atom_site_fract_x
 _atom_site_fract_y
 _atom_site_fract_z
 _atom_site_occupancy
  Ta  Ta0  1  0.75000000  0.84475600  0.38019300  1
  Ta  Ta1  1  0.25000000  0.15524400  0.61980700  1
  Ta  Ta2  1  0.25000000  0.34475600  0.11980700  1
  Ta  Ta3  1  0.75000000  0.65524400  0.88019300  1
  Ni  Ni0  1  0.50000000  0.50000000  0.50000000  1
  Ni  Ni1  1  0.50000000  0.00000000  0.00000000  1
  Ni  Ni2  1  0.00000000  0.00000000  0.00000000  1
  Ni  Ni3  1  0.00000000  0.50000000  0.50000000  1
  P  P0  1  0.25000000  0.84376200  0.44319900  1
  P  P1  1  0.75000000  0.15623800  0.55680100  1
  P  P2  1  0.75000000  0.34376200  0.05680100  1
  P  P3  1  0.25000000  0.65623800  0.94319900  1
  P  P4  1  0.75000000  0.89319600  0.18653800  1
  P  P5  1  0.25000000  0.10680400  0.81346200  1
  P  P6  1  0.25000000  0.39319600  0.31346200  1
  P  P7  1  0.75000000  0.60680400  0.68653800  1
  O  O0  1  0.05523100  0.10429200  0.87448000  1
  O  O1  1  0.55523100  0.89570800  0.12552000  1
  O  O2  1  0.94476900  0.60429200  0.62552000  1
  O  O3  1  0.44476900  0.39570800  0.37448000  1
  O  O4  1  0.94476900  0.89570800  0.12552000  1
  O  O5  1  0.44476900  0.10429200  0.87448000  1
  O  O6  1  0.05523100  0.39570800  0.37448000  1
  O  O7  1  0.55523100  0.60429200  0.62552000  1
  O  O8  1  0.25000000  0.83536300  0.98239200  1
  O  O9  1  0.75000000  0.16463700  0.01760800  1
  O  O10  1  0.75000000  0.33536300  0.51760800  1
  O  O11  1  0.25000000  0.66463700  0.48239200  1
  O  O12  1  0.75000000  0.65012800  0.44754100  1
  O  O13  1  0.25000000  0.34987200  0.55245900  1
  O  O14  1  0.25000000  0.15012800  0.05245900  1
  O  O15  1  0.75000000  0.84987200  0.94754100  1
  O  O16  1  0.75000000  0.73507200  0.25295800  1
  O  O17  1  0.25000000  0.26492800  0.74704200  1
  O  O18  1  0.25000000  0.23507200  0.24704200  1
  O  O19  1  0.75000000  0.76492800  0.75295800  1
  O  O20  1  0.44318400  0.62994000  0.88105200  1
  O  O21  1  0.94318400  0.37006000  0.11894800  1
  O  O22  1  0.55681600  0.12994000  0.61894800  1
  O  O23  1  0.05681600  0.87006000  0.38105200  1
  O  O24  1  0.55681600  0.37006000  0.11894800  1
  O  O25  1  0.05681600  0.62994000  0.88105200  1
  O  O26  1  0.44318400  0.87006000  0.38105200  1
  O  O27  1  0.94318400  0.12994000  0.61894800  1
  O  O28  1  0.75000000  0.46355200  0.76044600  1
  O  O29  1  0.25000000  0.53644800  0.23955400  1
  O  O30  1  0.25000000  0.96355200  0.73955400  1
  O  O31  1  0.75000000  0.03644800  0.26044600  1
  O  O32  1  0.75000000  0.47570200  0.97809300  1
  O  O33  1  0.25000000  0.52429800  0.02190700  1
  O  O34  1  0.25000000  0.97570200  0.52190700  1
  O  O35  1  0.75000000  0.02429800  0.47809300  1
loop_
_geom_bond_atom_site_label_1
_geom_bond_atom_site_label_2
_geom_bond_distance
_geom_bond_site_symmetry_2
Ni0 O7 2.010075 1_555
Ni0 O3 2.010075 1_555
Ni0 O10 2.096006 1_555
Ni0 O11 2.096006 1_555
Ni0 O12 2.145214 1_555
Ni0 O13 2.145214 1_555
Ni1 O5 2.010075 1_554
Ni1 O1 2.010075 1_545
Ni1 O9 2.096006 1_555
Ni1 O8 2.096006 1_544
Ni1 O14 2.145214 1_555
Ni1 O15 2.145214 1_544
Ni2 O0 2.010075 1_554
Ni2 O4 2.010075 1_445
Ni2 O9 2.096006 1_455
Ni2 O8 2.096006 1_544
Ni2 O14 2.145214 1_555
Ni2 O15 2.145214 1_444
Ni3 O2 2.010075 1_455
Ni3 O6 2.010075 1_555
Ni3 O10 2.096006 1_455
Ni3 O11 2.096006 1_555
Ni3 O12 2.145214 1_455
Ni3 O13 2.145214 1_555
O0 P5 1.530677 1_555
O1 P4 1.530677 1_555
O2 P7 1.530677 1_555
O3 P6 1.530677 1_555
O4 P4 1.530677 1_555
O5 P5 1.530677 1_555
O6 P6 1.530677 1_555
O7 P7 1.530677 1_555
O8 P3 1.534738 1_555
O9 P2 1.534738 1_555
O10 P1 1.534738 1_555
O11 P0 1.534738 1_555
O12 Ta0 1.826844 1_555
O13 Ta1 1.826844 1_555
O14 Ta2 1.826844 1_555
O15 Ta3 1.826844 1_555
O16 P4 1.578837 1_555
O16 Ta0 2.018730 1_555
O17 P5 1.578837 1_555
O17 Ta1 2.018730 1_555
O18 P6 1.578837 1_555
O18 Ta2 2.018730 1_555
O19 P7 1.578837 1_555
O19 Ta3 2.018730 1_555
O20 P3 1.545758 1_555
O20 Ta3 1.991235 1_555
O21 P2 1.545758 1_555
O21 Ta2 1.991235 1_655
O22 P1 1.545758 1_555
O22 Ta1 1.991235 1_555
O23 P0 1.545758 1_555
O23 Ta0 1.991235 1_455
O24 P2 1.545758 1_555
O24 Ta2 1.991235 1_555
O25 P3 1.545758 1_555
O25 Ta3 1.991235 1_455
O26 P0 1.545758 1_555
O26 Ta0 1.991235 1_555
O27 P1 1.545758 1_555
O27 Ta1 1.991235 1_655
O28 P7 1.556408 1_555
O28 Ta3 2.295557 1_555
O29 P6 1.556408 1_555
O29 Ta2 2.295557 1_555
O30 P5 1.556408 1_565
O30 Ta1 2.295557 1_565
O31 P4 1.556408 1_545
O31 Ta0 2.295557 1_545
O32 P2 1.540820 1_556
O32 Ta3 2.002611 1_555
O33 P3 1.540820 1_554
O33 Ta2 2.002611 1_555
O34 P0 1.540820 1_555
O34 Ta1 2.002611 1_565
O35 P1 1.540820 1_555
O35 Ta0 2.002611 1_545
