# generated using pymatgen
data_SmIn2Cu9
_symmetry_space_group_name_H-M   'P 1'
_cell_length_a   5.02361500
_cell_length_b   8.46511500
_cell_length_c   8.46511500
_cell_angle_alpha   90.00000000
_cell_angle_beta   90.00000000
_cell_angle_gamma   90.00000000
_symmetry_Int_Tables_number   1
_chemical_formula_structural   SmIn2Cu9
_chemical_formula_sum   'Sm2 In4 Cu18'
_cell_volume   359.98306755
_cell_formula_units_Z   2
loop_
 _symmetry_equiv_pos_site_id
 _symmetry_equiv_pos_as_xyz
  1  'x, y, z'
loop_
 _atom_site_type_symbol
 _atom_site_label
 _atom_site_symmetry_multiplicity
 _atom_site_fract_x
 _atom_site_fract_y
 _atom_site_fract_z
 _atom_site_occupancy
  Sm  Sm0  1  0.00000000  0.00000000  0.00000000  1
  Sm  Sm1  1  0.00000000  0.50000000  0.50000000  1
  In  In0  1  0.00000000  0.62333200  0.12333200  1
  In  In1  1  0.00000000  0.37666800  0.87666800  1
  In  In2  1  0.00000000  0.87666800  0.62333200  1
  In  In3  1  0.00000000  0.12333200  0.37666800  1
  Cu  Cu0  1  0.50000000  0.00000000  0.50000000  1
  Cu  Cu1  1  0.50000000  0.50000000  0.00000000  1
  Cu  Cu2  1  0.50000000  0.06329000  0.20562600  1
  Cu  Cu3  1  0.50000000  0.93671000  0.79437400  1
  Cu  Cu4  1  0.50000000  0.79437400  0.06329000  1
  Cu  Cu5  1  0.50000000  0.43671000  0.70562600  1
  Cu  Cu6  1  0.50000000  0.20562600  0.93671000  1
  Cu  Cu7  1  0.50000000  0.56329000  0.29437400  1
  Cu  Cu8  1  0.50000000  0.70562600  0.56329000  1
  Cu  Cu9  1  0.50000000  0.29437400  0.43671000  1
  Cu  Cu10  1  0.24601200  0.17651000  0.67651000  1
  Cu  Cu11  1  0.75398800  0.82349000  0.32349000  1
  Cu  Cu12  1  0.24601200  0.82349000  0.32349000  1
  Cu  Cu13  1  0.24601200  0.32349000  0.17651000  1
  Cu  Cu14  1  0.75398800  0.32349000  0.17651000  1
  Cu  Cu15  1  0.75398800  0.17651000  0.67651000  1
  Cu  Cu16  1  0.75398800  0.67651000  0.82349000  1
  Cu  Cu17  1  0.24601200  0.67651000  0.82349000  1
loop_
_geom_bond_atom_site_label_1
_geom_bond_atom_site_label_2
_geom_bond_distance
_geom_bond_site_symmetry_2
In0 In1 2.952933 1_554
In0 Sm1 3.355108 1_555
In0 Sm0 3.355108 1_565
In1 Sm1 3.355108 1_555
In1 Sm0 3.355108 1_556
In2 In3 2.952933 1_565
In2 Sm0 3.355108 1_566
In2 Sm1 3.355108 1_555
In3 Sm1 3.355108 1_555
In3 Sm0 3.355108 1_555
Cu0 Cu11 2.468431 1_545
Cu0 Cu15 2.468431 1_555
Cu0 Cu12 2.468431 1_545
Cu0 Cu10 2.468431 1_555
Cu0 Cu9 2.548853 1_555
Cu0 Cu3 2.548853 1_545
Cu0 Cu8 2.548853 1_545
Cu0 Cu2 2.548853 1_555
Cu0 In2 2.913611 1_645
Cu0 In2 2.913611 1_545
Cu0 In3 2.913611 1_555
Cu0 In3 2.913611 1_655
Cu1 Cu16 2.468431 1_554
Cu1 Cu14 2.468431 1_555
Cu1 Cu17 2.468431 1_554
Cu1 Cu13 2.468431 1_555
Cu1 Cu7 2.548853 1_555
Cu1 Cu4 2.548853 1_555
Cu1 Cu6 2.548853 1_554
Cu1 Cu5 2.548853 1_554
Cu1 In0 2.913611 1_655
Cu1 In1 2.913611 1_554
Cu1 In0 2.913611 1_555
Cu1 In1 2.913611 1_654
Cu2 Cu6 2.575613 1_554
Cu2 Cu4 2.575613 1_545
Cu2 Cu9 2.766418 1_555
Cu2 In3 2.943449 1_555
Cu2 In3 2.943449 1_655
Cu2 Sm0 3.102590 1_555
Cu2 Sm0 3.102590 1_655
Cu3 Cu6 2.575613 1_565
Cu3 Cu4 2.575613 1_556
Cu3 Cu8 2.766418 1_555
Cu3 In2 2.943449 1_555
Cu3 In2 2.943449 1_655
Cu3 Sm0 3.102590 1_566
Cu3 Sm0 3.102590 1_666
Cu4 Cu7 2.766418 1_555
Cu4 In0 2.943449 1_655
Cu4 In0 2.943449 1_555
Cu4 Sm0 3.102590 1_565
Cu4 Sm0 3.102590 1_665
Cu5 Cu8 2.575613 1_555
Cu5 Cu9 2.575613 1_555
Cu5 Cu6 2.766418 1_555
Cu5 In1 2.943449 1_655
Cu5 In1 2.943449 1_555
Cu5 Sm1 3.102590 1_655
Cu5 Sm1 3.102590 1_555
Cu6 In1 2.943449 1_655
Cu6 In1 2.943449 1_555
Cu6 Sm0 3.102590 1_556
Cu6 Sm0 3.102590 1_656
Cu7 Cu8 2.575613 1_555
Cu7 Cu9 2.575613 1_555
Cu7 In0 2.943449 1_555
Cu7 In0 2.943449 1_655
Cu7 Sm1 3.102590 1_655
Cu7 Sm1 3.102590 1_555
Cu8 In2 2.943449 1_555
Cu8 In2 2.943449 1_655
Cu8 Sm1 3.102590 1_655
Cu8 Sm1 3.102590 1_555
Cu9 In3 2.943449 1_555
Cu9 In3 2.943449 1_655
Cu9 Sm1 3.102590 1_655
Cu9 Sm1 3.102590 1_555
Cu10 Cu15 2.471739 1_455
Cu10 Cu15 2.551876 1_555
Cu10 Cu5 2.557404 1_555
Cu10 Cu6 2.557404 1_555
Cu10 Cu3 2.596945 1_545
Cu10 Cu9 2.596945 1_555
Cu10 In1 2.696125 1_555
Cu10 In2 2.858751 1_545
Cu10 In3 2.858751 1_555
Cu10 Sm0 3.355393 1_556
Cu10 Sm1 3.355393 1_555
Cu11 Cu12 2.471739 1_655
Cu11 Cu12 2.551876 1_555
Cu11 Cu7 2.557404 1_555
Cu11 Cu4 2.557404 1_555
Cu11 Cu2 2.596945 1_565
Cu11 Cu8 2.596945 1_555
Cu11 In0 2.696125 1_655
Cu11 In3 2.858751 1_665
Cu11 In2 2.858751 1_655
Cu11 Sm0 3.355393 1_665
Cu11 Sm1 3.355393 1_655
Cu12 Cu7 2.557404 1_555
Cu12 Cu4 2.557404 1_555
Cu12 Cu2 2.596945 1_565
Cu12 Cu8 2.596945 1_555
Cu12 In0 2.696125 1_555
Cu12 In3 2.858751 1_565
Cu12 In2 2.858751 1_555
Cu12 Sm0 3.355393 1_565
Cu12 Sm1 3.355393 1_555
Cu13 Cu14 2.471739 1_455
Cu13 Cu14 2.551876 1_555
Cu13 Cu2 2.557404 1_555
Cu13 Cu9 2.557404 1_555
Cu13 Cu7 2.596945 1_555
Cu13 Cu6 2.596945 1_554
Cu13 In3 2.696125 1_555
Cu13 In0 2.858751 1_555
Cu13 In1 2.858751 1_554
Cu13 Sm1 3.355393 1_555
Cu13 Sm0 3.355393 1_555
Cu14 Cu2 2.557404 1_555
Cu14 Cu9 2.557404 1_555
Cu14 Cu7 2.596945 1_555
Cu14 Cu6 2.596945 1_554
Cu14 In3 2.696125 1_655
Cu14 In0 2.858751 1_655
Cu14 In1 2.858751 1_654
Cu14 Sm1 3.355393 1_655
Cu14 Sm0 3.355393 1_655
Cu15 Cu6 2.557404 1_555
Cu15 Cu5 2.557404 1_555
Cu15 Cu3 2.596945 1_545
Cu15 Cu9 2.596945 1_555
Cu15 In1 2.696125 1_655
Cu15 In2 2.858751 1_645
Cu15 In3 2.858751 1_655
Cu15 Sm0 3.355393 1_656
Cu15 Sm1 3.355393 1_655
Cu16 Cu17 2.471739 1_655
Cu16 Cu17 2.551876 1_555
Cu16 Cu8 2.557404 1_555
Cu16 Cu3 2.557404 1_555
Cu16 Cu4 2.596945 1_556
Cu16 Cu5 2.596945 1_555
Cu16 In2 2.696125 1_655
Cu16 In0 2.858751 1_656
Cu16 In1 2.858751 1_655
Cu16 Sm0 3.355393 1_666
Cu16 Sm1 3.355393 1_655
Cu17 Cu8 2.557404 1_555
Cu17 Cu3 2.557404 1_555
Cu17 Cu4 2.596945 1_556
Cu17 Cu5 2.596945 1_555
Cu17 In2 2.696125 1_555
Cu17 In0 2.858751 1_556
Cu17 In1 2.858751 1_555
Cu17 Sm0 3.355393 1_566
Cu17 Sm1 3.355393 1_555
