# generated using pymatgen
data_CaLa2Co2Sb2(PbO6)2
_symmetry_space_group_name_H-M   'P 1'
_cell_length_a   6.27273002
_cell_length_b   6.61846877
_cell_length_c   8.94033476
_cell_angle_alpha   104.12826613
_cell_angle_beta   104.65159702
_cell_angle_gamma   70.51372457
_symmetry_Int_Tables_number   1
_chemical_formula_structural   CaLa2Co2Sb2(PbO6)2
_chemical_formula_sum   'Ca1 La2 Co2 Sb2 Pb2 O12'
_cell_volume   333.29660473
_cell_formula_units_Z   1
loop_
 _symmetry_equiv_pos_site_id
 _symmetry_equiv_pos_as_xyz
  1  'x, y, z'
loop_
 _atom_site_type_symbol
 _atom_site_label
 _atom_site_symmetry_multiplicity
 _atom_site_fract_x
 _atom_site_fract_y
 _atom_site_fract_z
 _atom_site_occupancy
  Ca  Ca0  1  0.89362300  0.84305500  0.36619400  1
  La  La0  1  0.47665300  0.44783500  0.72504700  1
  La  La1  1  0.08092200  0.13462200  0.18661700  1
  Co  Co0  1  0.93971800  0.40811900  0.59598700  1
  Co  Co1  1  0.53700200  0.03700600  0.96480100  1
  Sb  Sb0  1  0.97422100  0.53566800  0.99787700  1
  Sb  Sb1  1  0.43573700  0.93094600  0.51902000  1
  Pb  Pb0  1  0.52987900  0.45790100  0.25638700  1
  Pb  Pb1  1  0.96096600  0.94889300  0.75100600  1
  O  O0  1  0.72441400  0.09732400  0.18160500  1
  O  O1  1  0.10790400  0.51477800  0.80948400  1
  O  O2  1  0.50138500  0.07911000  0.74227600  1
  O  O3  1  0.87547500  0.52697900  0.20181100  1
  O  O4  1  0.25426800  0.75807500  0.55830000  1
  O  O5  1  0.66424100  0.72384000  0.90936100  1
  O  O6  1  0.75987400  0.19829400  0.56786300  1
  O  O7  1  0.27785300  0.28412900  0.05981100  1
  O  O8  1  0.17324300  0.23480000  0.47016800  1
  O  O9  1  0.82207400  0.29820200  0.91607700  1
  O  O10  1  0.77959200  0.70784800  0.55287800  1
  O  O11  1  0.13571700  0.74924300  0.13409500  1
loop_
_geom_bond_atom_site_label_1
_geom_bond_atom_site_label_2
_geom_bond_distance
_geom_bond_site_symmetry_2
Ca0 O3 2.263266 1_555
Ca0 O10 2.420358 1_555
Ca0 O0 2.441328 1_565
Ca0 O4 2.457838 1_655
Ca0 O6 2.619590 1_565
Ca0 O11 2.708045 1_655
La0 O2 2.433548 1_555
La0 O6 2.455828 1_555
La0 O9 2.472737 1_555
La0 O1 2.480474 1_555
La0 O5 2.533878 1_555
La0 O4 2.629793 1_555
La0 O8 2.971628 1_555
La1 O0 2.318640 1_455
La1 O11 2.399240 1_545
La1 O7 2.421141 1_555
La1 O8 2.427830 1_555
La1 O3 2.471091 1_455
La1 O9 2.788826 1_454
Co0 O8 1.951797 1_655
Co0 O10 1.985129 1_555
Co0 O6 1.998911 1_555
Co0 O1 2.018655 1_655
Co1 O5 1.942580 1_545
Co1 O0 2.020150 1_556
Co1 O2 2.022308 1_555
Co1 O7 2.070164 1_556
O0 Pb0 2.306992 1_555
O1 Sb0 2.020547 1_455
O1 Pb1 2.846186 1_455
O2 Sb1 2.003301 1_545
O2 Pb1 2.705731 1_545
O3 Sb0 2.087445 1_554
O3 Pb0 2.540042 1_555
O4 Sb1 1.998850 1_555
O4 Pb1 2.634237 1_455
O5 Sb0 2.011267 1_555
O6 Pb1 2.425326 1_545
O7 Sb0 2.122913 1_454
O7 Pb0 2.394028 1_555
O8 Sb1 2.191353 1_545
O9 Sb0 2.000575 1_555
O9 Pb1 2.433692 1_545
O10 Sb1 2.165007 1_555
O10 Pb1 2.406038 1_555
O11 Sb0 1.999568 1_454
O11 Pb0 2.739995 1_555
