# generated using pymatgen
data_Ca(BiO2)2
_symmetry_space_group_name_H-M   'P 1'
_cell_length_a   7.06996896
_cell_length_b   7.06996896
_cell_length_c   17.30987900
_cell_angle_alpha   90.00000000
_cell_angle_beta   90.00000000
_cell_angle_gamma   120.00000898
_symmetry_Int_Tables_number   1
_chemical_formula_structural   Ca(BiO2)2
_chemical_formula_sum   'Ca6 Bi12 O24'
_cell_volume   749.30673910
_cell_formula_units_Z   6
loop_
 _symmetry_equiv_pos_site_id
 _symmetry_equiv_pos_as_xyz
  1  'x, y, z'
loop_
 _atom_site_type_symbol
 _atom_site_label
 _atom_site_symmetry_multiplicity
 _atom_site_fract_x
 _atom_site_fract_y
 _atom_site_fract_z
 _atom_site_occupancy
  Ca  Ca0  1  0.66666700  0.33333300  0.95595900  1
  Ca  Ca1  1  0.33333300  0.66666700  0.62543000  1
  Ca  Ca2  1  0.33333300  0.66666700  0.99830400  1
  Ca  Ca3  1  0.00000000  0.00000000  0.29205500  1
  Ca  Ca4  1  0.66666700  0.33333300  0.70856700  1
  Ca  Ca5  1  0.33333300  0.66666700  0.37558500  1
  Bi  Bi0  1  0.16959600  0.83040400  0.83560800  1
  Bi  Bi1  1  0.16959600  0.33919200  0.83560800  1
  Bi  Bi2  1  0.83392700  0.16607300  0.50150300  1
  Bi  Bi3  1  0.66080800  0.83040400  0.83560800  1
  Bi  Bi4  1  0.00000000  0.00000000  0.67082900  1
  Bi  Bi5  1  0.83392700  0.66785400  0.50150300  1
  Bi  Bi6  1  0.50042700  0.49957300  0.16711500  1
  Bi  Bi7  1  0.33214600  0.16607300  0.50150300  1
  Bi  Bi8  1  0.99914700  0.49957300  0.16711500  1
  Bi  Bi9  1  0.66666700  0.33333300  0.33599100  1
  Bi  Bi10  1  0.50042700  0.00085300  0.16711500  1
  Bi  Bi11  1  0.00000000  0.00000000  0.04504600  1
  O  O0  1  0.48681800  0.97363600  0.91233400  1
  O  O1  1  0.33333300  0.66666700  0.76088300  1
  O  O2  1  0.02636400  0.51318200  0.91233400  1
  O  O3  1  0.48681800  0.51318200  0.91233400  1
  O  O4  1  0.84462700  0.15537300  0.75080100  1
  O  O5  1  0.15794700  0.31589500  0.57897700  1
  O  O6  1  0.31074600  0.15537300  0.75080100  1
  O  O7  1  0.00000000  0.00000000  0.91589000  1
  O  O8  1  0.68410500  0.84205300  0.57897700  1
  O  O9  1  0.00000000  0.00000000  0.42483600  1
  O  O10  1  0.84462700  0.68925400  0.75080100  1
  O  O11  1  0.15794700  0.84205300  0.57897700  1
  O  O12  1  0.51166800  0.48833200  0.41778500  1
  O  O13  1  0.82331600  0.64663200  0.24493700  1
  O  O14  1  0.97666400  0.48833200  0.41778500  1
  O  O15  1  0.66666700  0.33333300  0.57586600  1
  O  O16  1  0.66666700  0.33333300  0.09079400  1
  O  O17  1  0.35336800  0.17668400  0.24493700  1
  O  O18  1  0.51166800  0.02333600  0.41778500  1
  O  O19  1  0.82331600  0.17668400  0.24493700  1
  O  O20  1  0.17822100  0.82177900  0.08476100  1
  O  O21  1  0.33333300  0.66666700  0.24252100  1
  O  O22  1  0.64355900  0.82177900  0.08476100  1
  O  O23  1  0.17822100  0.35644100  0.08476100  1
loop_
_geom_bond_atom_site_label_1
_geom_bond_atom_site_label_2
_geom_bond_distance
_geom_bond_site_symmetry_2
Ca0 O2 2.328209 1_655
Ca0 O0 2.328209 1_545
Ca0 O3 2.328215 1_555
Ca0 O16 2.333978 1_556
Ca1 O8 2.293289 1_555
Ca1 O5 2.293289 1_555
Ca1 O11 2.293289 1_555
Ca1 O1 2.344675 1_555
Ca2 O2 2.397302 1_555
Ca2 O0 2.397302 1_555
Ca2 O3 2.397307 1_555
Ca2 O20 2.418167 1_556
Ca2 O22 2.418176 1_556
Ca2 O23 2.418176 1_556
Ca3 O9 2.298423 1_555
Ca3 O13 2.312216 1_445
Ca3 O17 2.312216 1_555
Ca3 O19 2.312216 1_455
Ca4 O15 2.297038 1_555
Ca4 O4 2.298575 1_555
Ca4 O6 2.298580 1_555
Ca4 O10 2.298580 1_555
Ca5 O18 2.302736 1_565
Ca5 O14 2.302736 1_455
Ca5 O12 2.302742 1_555
Ca5 O21 2.303322 1_555
Bi0 O2 2.355454 1_555
Bi0 O0 2.355454 1_555
Bi0 O1 2.386067 1_555
Bi0 O6 2.477241 1_565
Bi0 O10 2.477241 1_455
Bi0 O7 2.498853 1_565
Bi1 O3 2.355454 1_555
Bi1 O2 2.355454 1_555
Bi1 O1 2.386071 1_555
Bi1 O4 2.477241 1_455
Bi1 O6 2.477241 1_555
Bi1 O7 2.498853 1_555
Bi2 O8 2.396194 1_545
Bi2 O5 2.396194 1_655
Bi2 O15 2.419091 1_555
Bi2 O9 2.428361 1_655
Bi2 O14 2.451558 1_555
Bi2 O18 2.451558 1_555
Bi3 O3 2.355454 1_555
Bi3 O0 2.355454 1_555
Bi3 O1 2.386071 1_555
Bi3 O4 2.477241 1_565
Bi3 O10 2.477241 1_555
Bi3 O7 2.498853 1_665
Bi4 O10 2.352933 1_445
Bi4 O6 2.352933 1_555
Bi4 O4 2.352933 1_455
Bi4 O11 2.503769 1_545
Bi4 O5 2.503773 1_555
Bi4 O8 2.503773 1_445
Bi5 O11 2.396194 1_655
Bi5 O8 2.396199 1_555
Bi5 O15 2.419096 1_555
Bi5 O9 2.428361 1_665
Bi5 O12 2.451558 1_555
Bi5 O14 2.451558 1_555
Bi6 O17 2.394458 1_555
Bi6 O13 2.394458 1_555
Bi6 O16 2.426808 1_555
Bi6 O21 2.427032 1_555
Bi6 O22 2.437256 1_555
Bi6 O23 2.437256 1_555
Bi7 O11 2.396194 1_545
Bi7 O5 2.396199 1_555
Bi7 O15 2.419096 1_555
Bi7 O9 2.428361 1_555
Bi7 O12 2.451558 1_555
Bi7 O18 2.451558 1_555
Bi8 O19 2.394458 1_555
Bi8 O13 2.394463 1_555
Bi8 O16 2.426808 1_555
Bi8 O21 2.427022 1_655
Bi8 O20 2.437256 1_655
Bi8 O23 2.437256 1_655
Bi9 O18 2.367947 1_555
Bi9 O14 2.367947 1_555
Bi9 O12 2.367952 1_555
Bi9 O19 2.482718 1_555
Bi9 O13 2.482723 1_555
Bi9 O17 2.482723 1_555
Bi10 O19 2.394458 1_555
Bi10 O17 2.394463 1_555
Bi10 O16 2.426808 1_555
Bi10 O21 2.427022 1_545
Bi10 O20 2.437256 1_545
Bi10 O22 2.437256 1_545
Bi11 O7 2.235675 1_554
Bi11 O22 2.288122 1_445
Bi11 O23 2.288122 1_555
Bi11 O20 2.288129 1_545
