# generated using pymatgen
data_Rb(WO3)3
_symmetry_space_group_name_H-M   'P 1'
_cell_length_a   7.54730592
_cell_length_b   7.54730592
_cell_length_c   7.79446100
_cell_angle_alpha   90.00000000
_cell_angle_beta   90.00000000
_cell_angle_gamma   120.21596313
_symmetry_Int_Tables_number   1
_chemical_formula_structural   Rb(WO3)3
_chemical_formula_sum   'Rb2 W6 O18'
_cell_volume   383.66431083
_cell_formula_units_Z   2
loop_
 _symmetry_equiv_pos_site_id
 _symmetry_equiv_pos_as_xyz
  1  'x, y, z'
loop_
 _atom_site_type_symbol
 _atom_site_label
 _atom_site_symmetry_multiplicity
 _atom_site_fract_x
 _atom_site_fract_y
 _atom_site_fract_z
 _atom_site_occupancy
  Rb  Rb0  1  0.50000000  0.50000000  0.25000000  1
  Rb  Rb1  1  0.50000000  0.50000000  0.75000000  1
  W  W0  1  0.50000000  0.00000000  0.00000000  1
  W  W1  1  0.00000000  0.00000000  0.00000000  1
  W  W2  1  0.00000000  0.50000000  0.50000000  1
  W  W3  1  0.50000000  0.00000000  0.50000000  1
  W  W4  1  0.00000000  0.00000000  0.50000000  1
  W  W5  1  0.00000000  0.50000000  0.00000000  1
  O  O0  1  0.00000000  0.50000000  0.24102500  1
  O  O1  1  0.00000000  0.00000000  0.75000000  1
  O  O2  1  0.50000000  0.00000000  0.74102500  1
  O  O3  1  0.50000000  0.00000000  0.25897500  1
  O  O4  1  0.00000000  0.00000000  0.25000000  1
  O  O5  1  0.00000000  0.50000000  0.75897500  1
  O  O6  1  0.28902400  0.07876700  0.50000000  1
  O  O7  1  0.71008900  0.28901200  0.00000000  1
  O  O8  1  0.92123300  0.71097600  0.00000000  1
  O  O9  1  0.71097600  0.92123300  0.50000000  1
  O  O10  1  0.71098800  0.28991100  0.50000000  1
  O  O11  1  0.28991100  0.71098800  0.00000000  1
  O  O12  1  0.28461600  0.07928600  0.00000000  1
  O  O13  1  0.07876700  0.28902400  0.00000000  1
  O  O14  1  0.71538400  0.92071400  0.00000000  1
  O  O15  1  0.28901200  0.71008900  0.50000000  1
  O  O16  1  0.92071400  0.71538400  0.50000000  1
  O  O17  1  0.07928600  0.28461600  0.50000000  1
loop_
_geom_bond_atom_site_label_1
_geom_bond_atom_site_label_2
_geom_bond_distance
_geom_bond_site_symmetry_2
O0 W5 1.878660 1_555
O0 W2 2.018571 1_555
O1 W1 1.948615 1_556
O1 W4 1.948615 1_555
O2 W3 1.878660 1_555
O2 W0 2.018571 1_556
O3 W3 1.878660 1_555
O3 W0 2.018571 1_555
O4 W1 1.948615 1_555
O4 W4 1.948615 1_555
O5 W5 1.878660 1_556
O5 W2 2.018571 1_555
O6 W4 1.951020 1_555
O6 W3 1.959997 1_555
O6 Rb0 3.368153 1_555
O6 Rb1 3.368153 1_555
O7 W0 1.947016 1_555
O7 W5 1.953538 1_655
O7 Rb1 3.374660 1_554
O7 Rb0 3.374660 1_555
O8 W1 1.951020 1_665
O8 W5 1.959997 1_655
O8 Rb0 3.368153 1_555
O8 Rb1 3.368153 1_554
O9 W4 1.951020 1_665
O9 W3 1.959997 1_565
O9 Rb0 3.368153 1_555
O9 Rb1 3.368153 1_555
O10 W2 1.947016 1_655
O10 W3 1.953538 1_555
O10 Rb1 3.374660 1_555
O10 Rb0 3.374660 1_555
O11 W0 1.947016 1_565
O11 W5 1.953538 1_555
O11 Rb1 3.374660 1_554
O11 Rb0 3.374660 1_555
O12 W1 1.917956 1_555
O12 W0 1.994901 1_555
O12 Rb1 3.365498 1_554
O12 Rb0 3.365498 1_555
O13 W1 1.951020 1_555
O13 W5 1.959997 1_555
O13 Rb0 3.368153 1_555
O13 Rb1 3.368153 1_554
O14 W1 1.917956 1_665
O14 W0 1.994901 1_565
O14 Rb1 3.365498 1_554
O14 Rb0 3.365498 1_555
O15 W2 1.947016 1_555
O15 W3 1.953538 1_565
O15 Rb1 3.374660 1_555
O15 Rb0 3.374660 1_555
O16 W4 1.917956 1_665
O16 W2 1.994901 1_655
O16 Rb1 3.365498 1_555
O16 Rb0 3.365498 1_555
O17 W4 1.917956 1_555
O17 W2 1.994901 1_555
O17 Rb1 3.365498 1_555
O17 Rb0 3.365498 1_555
