# generated using pymatgen
data_NaFePO4
_symmetry_space_group_name_H-M   'P 1'
_cell_length_a   5.19399600
_cell_length_b   6.33604000
_cell_length_c   10.34509600
_cell_angle_alpha   90.00017904
_cell_angle_beta   89.99995025
_cell_angle_gamma   90.00030816
_symmetry_Int_Tables_number   1
_chemical_formula_structural   NaFePO4
_chemical_formula_sum   'Na4 Fe4 P4 O16'
_cell_volume   340.45055487
_cell_formula_units_Z   4
loop_
 _symmetry_equiv_pos_site_id
 _symmetry_equiv_pos_as_xyz
  1  'x, y, z'
loop_
 _atom_site_type_symbol
 _atom_site_label
 _atom_site_symmetry_multiplicity
 _atom_site_fract_x
 _atom_site_fract_y
 _atom_site_fract_z
 _atom_site_occupancy
  Na  Na0  1  0.50000300  0.00000400  0.49998800  1
  Na  Na1  1  0.99999600  0.49999600  0.99999000  1
  Na  Na2  1  0.50000700  0.49998900  0.49999000  1
  Na  Na3  1  0.99999800  0.00000400  0.99998900  1
  Fe  Fe0  1  0.50826800  0.25001900  0.83752000  1
  Fe  Fe1  1  0.99172400  0.24999300  0.33749500  1
  Fe  Fe2  1  0.49173800  0.75005300  0.16248800  1
  Fe  Fe3  1  0.00826000  0.74998000  0.66247400  1
  P  P0  1  0.98320700  0.74999900  0.31632600  1
  P  P1  1  0.51679200  0.74999800  0.81632700  1
  P  P2  1  0.01678900  0.24999700  0.68368300  1
  P  P3  1  0.48320800  0.25000200  0.18368500  1
  O  O0  1  0.89539800  0.74999500  0.17042500  1
  O  O1  1  0.60460600  0.74999900  0.67042600  1
  O  O2  1  0.10459600  0.24999900  0.82958600  1
  O  O3  1  0.39541300  0.24999600  0.32958800  1
  O  O4  1  0.28122500  0.75000000  0.33102600  1
  O  O5  1  0.21877500  0.74999800  0.83102300  1
  O  O6  1  0.71876800  0.25000200  0.66898600  1
  O  O7  1  0.78122900  0.24998900  0.16897900  1
  O  O8  1  0.87237300  0.94992800  0.38345700  1
  O  O9  1  0.62762900  0.55007000  0.88346000  1
  O  O10  1  0.12761300  0.44992100  0.61654100  1
  O  O11  1  0.37238200  0.05007500  0.11654200  1
  O  O12  1  0.12761500  0.05007800  0.61654300  1
  O  O13  1  0.37238900  0.44991600  0.11654500  1
  O  O14  1  0.87237000  0.55007400  0.38345900  1
  O  O15  1  0.62762800  0.94992400  0.88346100  1
loop_
_geom_bond_atom_site_label_1
_geom_bond_atom_site_label_2
_geom_bond_distance
_geom_bond_site_symmetry_2
Na0 O8 2.301012 1_545
Na0 O12 2.301219 1_555
Na0 O3 2.431367 1_555
Na0 O1 2.431721 1_545
Na0 O4 2.618327 1_545
Na0 O6 2.618524 1_555
Na1 O9 2.300994 1_555
Na1 O13 2.301249 1_656
Na1 O2 2.431421 1_655
Na1 O0 2.431660 1_556
Na1 O5 2.618362 1_655
Na1 O7 2.618506 1_556
Na2 O14 2.300987 1_555
Na2 O10 2.301216 1_555
Na2 O3 2.431380 1_555
Na2 O1 2.431711 1_555
Na2 O4 2.618391 1_555
Na2 O6 2.618473 1_555
Na3 O15 2.300998 1_545
Na3 O11 2.301187 1_656
Na3 O2 2.431406 1_655
Na3 O0 2.431714 1_546
Na3 O5 2.618366 1_645
Na3 O7 2.618434 1_556
Fe0 O9 2.055362 1_555
Fe0 O15 2.055630 1_545
Fe0 O6 2.057954 1_555
Fe0 O2 2.098277 1_555
Fe1 O8 2.055484 1_545
Fe1 O14 2.055590 1_555
Fe1 O7 2.057784 1_555
Fe1 O3 2.098354 1_655
Fe2 O11 2.055208 1_565
Fe2 O13 2.055855 1_555
Fe2 O4 2.058025 1_555
Fe2 O0 2.098216 1_555
Fe3 O10 2.055386 1_555
Fe3 O12 2.055609 1_565
Fe3 O5 2.058128 1_555
Fe3 O1 2.098190 1_455
O0 P0 1.576762 1_555
O1 P1 1.576768 1_555
O2 P2 1.576778 1_555
O3 P3 1.576760 1_555
O4 P0 1.555357 1_455
O5 P1 1.555347 1_555
O6 P2 1.555369 1_655
O7 P3 1.555378 1_555
O8 P0 1.555112 1_555
O9 P1 1.555126 1_555
O10 P2 1.555116 1_555
O11 P3 1.555137 1_555
O12 P2 1.555087 1_555
O13 P3 1.555051 1_555
O14 P0 1.555105 1_555
O15 P1 1.555110 1_555
