# generated using pymatgen
data_K2SrB8(HO)28
_symmetry_space_group_name_H-M   'P 1'
_cell_length_a   11.61635790
_cell_length_b   13.14280049
_cell_length_c   16.73806517
_cell_angle_alpha   90.00000000
_cell_angle_beta   90.00000000
_cell_angle_gamma   90.00000000
_symmetry_Int_Tables_number   1
_chemical_formula_structural   K2SrB8(HO)28
_chemical_formula_sum   'K8 Sr4 B32 H112 O112'
_cell_volume   2555.42508644
_cell_formula_units_Z   4
loop_
 _symmetry_equiv_pos_site_id
 _symmetry_equiv_pos_as_xyz
  1  'x, y, z'
loop_
 _atom_site_type_symbol
 _atom_site_label
 _atom_site_symmetry_multiplicity
 _atom_site_fract_x
 _atom_site_fract_y
 _atom_site_fract_z
 _atom_site_occupancy
  K  K0  1  0.72677306  0.69799543  0.25412516  1
  K  K1  1  0.22677306  0.30200457  0.74587484  1
  K  K2  1  0.22677306  0.19799543  0.24587484  1
  K  K3  1  0.72677306  0.80200457  0.75412516  1
  K  K4  1  0.04387429  0.75160841  0.17870627  1
  K  K5  1  0.54387429  0.24839159  0.82129373  1
  K  K6  1  0.54387429  0.25160841  0.32129373  1
  K  K7  1  0.04387429  0.74839159  0.67870627  1
  Sr  Sr0  1  0.37085287  0.70562380  0.30340843  1
  Sr  Sr1  1  0.87085287  0.29437620  0.69659157  1
  Sr  Sr2  1  0.87085287  0.20562380  0.19659157  1
  Sr  Sr3  1  0.37085287  0.79437620  0.80340843  1
  B  B0  1  0.94049175  0.97245812  0.05242195  1
  B  B1  1  0.44049175  0.02754188  0.94757805  1
  B  B2  1  0.44049175  0.47245812  0.44757805  1
  B  B3  1  0.94049175  0.52754188  0.55242195  1
  B  B4  1  0.92990423  0.85093329  0.93646362  1
  B  B5  1  0.42990423  0.14906671  0.06353638  1
  B  B6  1  0.42990423  0.35093329  0.56353638  1
  B  B7  1  0.92990423  0.64906671  0.43646362  1
  B  B8  1  0.04801937  0.00885957  0.93057673  1
  B  B9  1  0.54801937  0.99114043  0.06942327  1
  B  B10  1  0.54801937  0.50885957  0.56942327  1
  B  B11  1  0.04801937  0.49114043  0.43057673  1
  B  B12  1  0.15336324  0.96264279  0.05601297  1
  B  B13  1  0.65336324  0.03735721  0.94398703  1
  B  B14  1  0.65336324  0.46264279  0.44398703  1
  B  B15  1  0.15336324  0.53735721  0.55601297  1
  B  B16  1  0.59981583  0.51602191  0.06926563  1
  B  B17  1  0.09981583  0.48397809  0.93073437  1
  B  B18  1  0.09981583  0.01602191  0.43073437  1
  B  B19  1  0.59981583  0.98397809  0.56926563  1
  B  B20  1  0.48799814  0.53940430  0.94363899  1
  B  B21  1  0.98799814  0.46059570  0.05636101  1
  B  B22  1  0.98799814  0.03940430  0.55636101  1
  B  B23  1  0.48799814  0.96059570  0.44363899  1
  B  B24  1  0.70136164  0.55109647  0.94558176  1
  B  B25  1  0.20136164  0.44890353  0.05441824  1
  B  B26  1  0.20136164  0.05109647  0.55441824  1
  B  B27  1  0.70136164  0.94890353  0.44558176  1
  B  B28  1  0.69945129  0.68067283  0.05462789  1
  B  B29  1  0.19945129  0.31932717  0.94537211  1
  B  B30  1  0.19945129  0.18067283  0.44537211  1
  B  B31  1  0.69945129  0.81932717  0.55462789  1
  H  H0  1  0.78001187  0.01212749  0.08213434  1
  H  H1  1  0.28001187  0.98787251  0.91786566  1
  H  H2  1  0.28001187  0.51212749  0.41786566  1
  H  H3  1  0.78001187  0.48787251  0.58213434  1
  H  H4  1  0.83126155  0.72513595  0.92998760  1
  H  H5  1  0.33126155  0.27486405  0.07001240  1
  H  H6  1  0.33126155  0.22513595  0.57001240  1
  H  H7  1  0.83126155  0.77486405  0.42998760  1
  H  H8  1  0.13500992  0.12863577  0.88364274  1
  H  H9  1  0.63500992  0.87136423  0.11635726  1
  H  H10  1  0.63500992  0.62863577  0.61635726  1
  H  H11  1  0.13500992  0.37136423  0.38364274  1
  H  H12  1  0.32658163  0.94665519  0.06696996  1
  H  H13  1  0.82658163  0.05334481  0.93303004  1
  H  H14  1  0.82658163  0.44665519  0.43303004  1
  H  H15  1  0.32658163  0.55334481  0.56696996  1
  H  H16  1  0.55341472  0.38527539  0.12675422  1
  H  H17  1  0.05341472  0.61472461  0.87324578  1
  H  H18  1  0.05341472  0.88527539  0.37324578  1
  H  H19  1  0.55341472  0.11472461  0.62675422  1
  H  H20  1  0.31563869  0.53430552  0.93143965  1
  H  H21  1  0.81563869  0.46569448  0.06856035  1
  H  H22  1  0.81563869  0.03430552  0.56856035  1
  H  H23  1  0.31563869  0.96569448  0.43143965  1
  H  H24  1  0.86511837  0.51241541  0.91967560  1
  H  H25  1  0.36511837  0.48758459  0.08032440  1
  H  H26  1  0.36511837  0.01241541  0.58032440  1
  H  H27  1  0.86511837  0.98758459  0.41967560  1
  H  H28  1  0.79789404  0.80860052  0.05878761  1
  H  H29  1  0.29789404  0.19139948  0.94121239  1
  H  H30  1  0.29789404  0.30860052  0.44121239  1
  H  H31  1  0.79789404  0.69139948  0.55878761  1
  H  H32  1  0.54283944  0.52871665  0.22048132  1
  H  H33  1  0.04283944  0.47128335  0.77951868  1
  H  H34  1  0.04283944  0.02871665  0.27951868  1
  H  H35  1  0.54283944  0.97128335  0.72048132  1
  H  H36  1  0.53828308  0.52532605  0.31461835  1
  H  H37  1  0.03828308  0.47467395  0.68538165  1
  H  H38  1  0.03828308  0.02532605  0.18538165  1
  H  H39  1  0.53828308  0.97467395  0.81461835  1
  H  H40  1  0.54342339  0.86990390  0.22209981  1
  H  H41  1  0.04342339  0.13009610  0.77790019  1
  H  H42  1  0.04342339  0.36990390  0.27790019  1
  H  H43  1  0.54342339  0.63009610  0.72209981  1
  H  H44  1  0.55995700  0.87511023  0.31708599  1
  H  H45  1  0.05995700  0.12488977  0.68291401  1
  H  H46  1  0.05995700  0.37511023  0.18291401  1
  H  H47  1  0.55995700  0.62488977  0.81708599  1
  H  H48  1  0.19468616  0.74140061  0.44857847  1
  H  H49  1  0.69468616  0.25859939  0.55142153  1
  H  H50  1  0.69468616  0.24140061  0.05142153  1
  H  H51  1  0.19468616  0.75859939  0.94857847  1
  H  H52  1  0.13151807  0.67168189  0.38644370  1
  H  H53  1  0.63151807  0.32831811  0.61355630  1
  H  H54  1  0.63151807  0.17168189  0.11355630  1
  H  H55  1  0.13151807  0.82831811  0.88644370  1
  H  H56  1  0.37399344  0.62910867  0.12417688  1
  H  H57  1  0.87399344  0.37089133  0.87582312  1
  H  H58  1  0.87399344  0.12910867  0.37582312  1
  H  H59  1  0.37399344  0.87089133  0.62417688  1
  H  H60  1  0.46080022  0.71666005  0.11757603  1
  H  H61  1  0.96080022  0.28333995  0.88242397  1
  H  H62  1  0.96080022  0.21666005  0.38242397  1
  H  H63  1  0.46080022  0.78333995  0.61757603  1
  H  H64  1  0.85341019  0.92373497  0.19791771  1
  H  H65  1  0.35341019  0.07626503  0.80208229  1
  H  H66  1  0.35341019  0.42373497  0.30208229  1
  H  H67  1  0.85341019  0.57626503  0.69791771  1
  H  H68  1  0.84895645  0.90509386  0.29122971  1
  H  H69  1  0.34895645  0.09490614  0.70877029  1
  H  H70  1  0.34895645  0.40509386  0.20877029  1
  H  H71  1  0.84895645  0.59490614  0.79122971  1
  H  H72  1  0.91362626  0.52463814  0.20344497  1
  H  H73  1  0.41362626  0.47536186  0.79655503  1
  H  H74  1  0.41362626  0.02463814  0.29655503  1
  H  H75  1  0.91362626  0.97536186  0.70344497  1
  H  H76  1  0.95137513  0.57078295  0.28869717  1
  H  H77  1  0.45137513  0.42921705  0.71130283  1
  H  H78  1  0.45137513  0.07078295  0.21130283  1
  H  H79  1  0.95137513  0.92921705  0.78869717  1
  H  H80  1  0.19871778  0.89543793  0.28709753  1
  H  H81  1  0.69871778  0.10456207  0.71290247  1
  H  H82  1  0.69871778  0.39543793  0.21290247  1
  H  H83  1  0.19871778  0.60456207  0.78709753  1
  H  H84  1  0.25002075  0.89437906  0.19819021  1
  H  H85  1  0.75002075  0.10562094  0.80180979  1
  H  H86  1  0.75002075  0.39437906  0.30180979  1
  H  H87  1  0.25002075  0.60562094  0.69819021  1
  H  H88  1  0.23278784  0.54867220  0.19184391  1
  H  H89  1  0.73278784  0.45132780  0.80815609  1
  H  H90  1  0.73278784  0.04867220  0.30815609  1
  H  H91  1  0.23278784  0.95132780  0.69184391  1
  H  H92  1  0.16859296  0.54259627  0.27428284  1
  H  H93  1  0.66859296  0.45740373  0.72571716  1
  H  H94  1  0.66859296  0.04259627  0.22571716  1
  H  H95  1  0.16859296  0.95740373  0.77428284  1
  H  H96  1  0.48792813  0.65470161  0.46725825  1
  H  H97  1  0.98792813  0.34529839  0.53274175  1
  H  H98  1  0.98792813  0.15470161  0.03274175  1
  H  H99  1  0.48792813  0.84529839  0.96725825  1
  H  H100  1  0.57054443  0.74610460  0.43898907  1
  H  H101  1  0.07054443  0.25389540  0.56101093  1
  H  H102  1  0.07054443  0.24610460  0.06101093  1
  H  H103  1  0.57054443  0.75389540  0.93898907  1
  H  H104  1  0.25560259  0.72491012  0.07088684  1
  H  H105  1  0.75560259  0.27508988  0.92911316  1
  H  H106  1  0.75560259  0.22491012  0.42911316  1
  H  H107  1  0.25560259  0.77508988  0.57088684  1
  H  H108  1  0.18498450  0.63990871  0.02497465  1
  H  H109  1  0.68498450  0.36009129  0.97502535  1
  H  H110  1  0.68498450  0.13990871  0.47502535  1
  H  H111  1  0.18498450  0.86009129  0.52497465  1
  O  O0  1  0.95886175  0.04633581  0.98634344  1
  O  O1  1  0.45886175  0.95366419  0.01365656  1
  O  O2  1  0.45886175  0.54633581  0.51365656  1
  O  O3  1  0.95886175  0.45366419  0.48634344  1
  O  O4  1  0.90243444  0.87260517  0.01489471  1
  O  O5  1  0.40243444  0.12739483  0.98510529  1
  O  O6  1  0.40243444  0.37260517  0.48510529  1
  O  O7  1  0.90243444  0.62739483  0.51489471  1
  O  O8  1  0.00472449  0.91218833  0.89291737  1
  O  O9  1  0.50472449  0.08781167  0.10708263  1
  O  O10  1  0.50472449  0.41218833  0.60708263  1
  O  O11  1  0.00472449  0.58781167  0.39291737  1
  O  O12  1  0.15620880  0.98664391  0.97630133  1
  O  O13  1  0.65620880  0.01335609  0.02369867  1
  O  O14  1  0.65620880  0.48664391  0.52369867  1
  O  O15  1  0.15620880  0.51335609  0.47630133  1
  O  O16  1  0.05049406  0.95509462  0.09713814  1
  O  O17  1  0.55049406  0.04490538  0.90286186  1
  O  O18  1  0.55049406  0.45509462  0.40286186  1
  O  O19  1  0.05049406  0.54490538  0.59713814  1
  O  O20  1  0.85561776  0.00771879  0.10985581  1
  O  O21  1  0.35561776  0.99228121  0.89014419  1
  O  O22  1  0.35561776  0.50771879  0.39014419  1
  O  O23  1  0.85561776  0.49228121  0.60985581  1
  O  O24  1  0.88529034  0.76758694  0.89748105  1
  O  O25  1  0.38529034  0.23241306  0.10251895  1
  O  O26  1  0.38529034  0.26758694  0.60251895  1
  O  O27  1  0.88529034  0.73241306  0.39748105  1
  O  O28  1  0.07649348  0.07892773  0.86613607  1
  O  O29  1  0.57649348  0.92107227  0.13386393  1
  O  O30  1  0.57649348  0.57892773  0.63386393  1
  O  O31  1  0.07649348  0.42107227  0.36613607  1
  O  O32  1  0.25366171  0.94613085  0.09889275  1
  O  O33  1  0.75366171  0.05386915  0.90110725  1
  O  O34  1  0.75366171  0.44613085  0.40110725  1
  O  O35  1  0.25366171  0.55386915  0.59889275  1
  O  O36  1  0.69137845  0.48104618  0.01420752  1
  O  O37  1  0.19137845  0.51895382  0.98579248  1
  O  O38  1  0.19137845  0.98104618  0.48579248  1
  O  O39  1  0.69137845  0.01895382  0.51420752  1
  O  O40  1  0.48728325  0.51915626  0.02468606  1
  O  O41  1  0.98728325  0.48084374  0.97531394  1
  O  O42  1  0.98728325  0.01915626  0.47531394  1
  O  O43  1  0.48728325  0.98084374  0.52468606  1
  O  O44  1  0.58973736  0.55620343  0.90262202  1
  O  O45  1  0.08973736  0.44379657  0.09737798  1
  O  O46  1  0.08973736  0.05620343  0.59737798  1
  O  O47  1  0.58973736  0.94379657  0.40262202  1
  O  O48  1  0.73057005  0.65651156  0.97724504  1
  O  O49  1  0.23057005  0.34348844  0.02275496  1
  O  O50  1  0.23057005  0.15651156  0.52275496  1
  O  O51  1  0.73057005  0.84348844  0.47724504  1
  O  O52  1  0.62911713  0.61963505  0.09954644  1
  O  O53  1  0.12911713  0.38036495  0.90045356  1
  O  O54  1  0.12911713  0.11963505  0.40045356  1
  O  O55  1  0.62911713  0.88036495  0.59954644  1
  O  O56  1  0.58775481  0.45082874  0.13990911  1
  O  O57  1  0.08775481  0.54917126  0.86009089  1
  O  O58  1  0.08775481  0.95082874  0.36009089  1
  O  O59  1  0.58775481  0.04917126  0.63990911  1
  O  O60  1  0.38795947  0.54355539  0.89949503  1
  O  O61  1  0.88795947  0.45644461  0.10050497  1
  O  O62  1  0.88795947  0.04355539  0.60050497  1
  O  O63  1  0.38795947  0.95644461  0.39949503  1
  O  O64  1  0.79137852  0.51916090  0.88951616  1
  O  O65  1  0.29137852  0.48083910  0.11048384  1
  O  O66  1  0.29137852  0.01916090  0.61048384  1
  O  O67  1  0.79137852  0.98083910  0.38951616  1
  O  O68  1  0.73732844  0.77017973  0.08970199  1
  O  O69  1  0.23732844  0.22982027  0.91029801  1
  O  O70  1  0.23732844  0.27017973  0.41029801  1
  O  O71  1  0.73732844  0.72982027  0.58970199  1
  O  O72  1  0.53241692  0.57246666  0.26830193  1
  O  O73  1  0.03241692  0.42753334  0.73169807  1
  O  O74  1  0.03241692  0.07246666  0.23169807  1
  O  O75  1  0.53241692  0.92753334  0.76830193  1
  O  O76  1  0.53856188  0.82888435  0.27232271  1
  O  O77  1  0.03856188  0.17111565  0.72767729  1
  O  O78  1  0.03856188  0.32888435  0.22767729  1
  O  O79  1  0.53856188  0.67111565  0.77232271  1
  O  O80  1  0.19367929  0.72258026  0.39070520  1
  O  O81  1  0.69367929  0.27741974  0.60929480  1
  O  O82  1  0.69367929  0.22258026  0.10929480  1
  O  O83  1  0.19367929  0.77741974  0.89070520  1
  O  O84  1  0.38434345  0.70089169  0.13865367  1
  O  O85  1  0.88434345  0.29910831  0.86134633  1
  O  O86  1  0.88434345  0.20089169  0.36134633  1
  O  O87  1  0.38434345  0.79910831  0.63865367  1
  O  O88  1  0.86235614  0.87088855  0.23993420  1
  O  O89  1  0.36235614  0.12911145  0.76006580  1
  O  O90  1  0.36235614  0.37088855  0.26006580  1
  O  O91  1  0.86235614  0.62911145  0.73993420  1
  O  O92  1  0.91963557  0.58708367  0.23552826  1
  O  O93  1  0.41963557  0.41291633  0.76447174  1
  O  O94  1  0.41963557  0.08708367  0.26447174  1
  O  O95  1  0.91963557  0.91291633  0.73552826  1
  O  O96  1  0.23681796  0.85242135  0.24661280  1
  O  O97  1  0.73681796  0.14757865  0.75338720  1
  O  O98  1  0.73681796  0.35242135  0.25338720  1
  O  O99  1  0.23681796  0.64757865  0.74661280  1
  O  O100  1  0.20944376  0.58980050  0.23906987  1
  O  O101  1  0.70944376  0.41019950  0.76093013  1
  O  O102  1  0.70944376  0.08980050  0.26093013  1
  O  O103  1  0.20944376  0.91019950  0.73906987  1
  O  O104  1  0.49469825  0.71634617  0.43146486  1
  O  O105  1  0.99469825  0.28365383  0.56853514  1
  O  O106  1  0.99469825  0.21634617  0.06853514  1
  O  O107  1  0.49469825  0.78365383  0.93146486  1
  O  O108  1  0.18206814  0.71271519  0.04287257  1
  O  O109  1  0.68206814  0.28728481  0.95712743  1
  O  O110  1  0.68206814  0.21271519  0.45712743  1
  O  O111  1  0.18206814  0.78728481  0.54287257  1
loop_
_geom_bond_atom_site_label_1
_geom_bond_atom_site_label_2
_geom_bond_distance
_geom_bond_site_symmetry_2
K0 O92 2.690905 1_555
K0 O88 2.774947 1_555
K0 O76 2.798581 1_555
K0 O72 2.806315 1_555
K0 O68 2.913635 1_555
K0 O52 3.006974 1_555
K0 O27 3.058259 1_555
K1 O93 2.690905 1_555
K1 O89 2.774947 1_555
K1 O77 2.798581 1_555
K1 O73 2.806315 1_555
K1 O69 2.913635 1_555
K1 O53 3.006974 1_555
K1 O26 3.058259 1_555
K2 O94 2.690905 1_555
K2 O90 2.774947 1_555
K2 O78 2.798581 1_555
K2 O74 2.806315 1_555
K2 O70 2.913635 1_555
K2 O54 3.006974 1_555
K2 O25 3.058259 1_555
K3 O95 2.690905 1_555
K3 O91 2.774947 1_555
K3 O79 2.798581 1_555
K3 O75 2.806315 1_555
K3 O71 2.913635 1_555
K3 O55 3.006974 1_555
K3 O24 3.058259 1_555
K4 O92 2.768215 1_455
K4 O88 2.820285 1_455
K4 O108 2.829759 1_555
K4 O96 2.840930 1_555
K4 O16 3.003704 1_555
K4 O100 3.040140 1_555
K5 O93 2.768215 1_555
K5 O89 2.820285 1_555
K5 O109 2.829759 1_555
K5 O97 2.840930 1_555
K5 O17 3.003704 1_555
K5 O101 3.040140 1_555
K6 O94 2.768215 1_555
K6 O90 2.820285 1_555
K6 O110 2.829759 1_555
K6 O98 2.840930 1_555
K6 O18 3.003704 1_555
K6 O102 3.040140 1_555
K7 O95 2.768215 1_455
K7 O91 2.820285 1_455
K7 O111 2.829759 1_555
K7 O99 2.840930 1_555
K7 O19 3.003704 1_555
K7 O103 3.040140 1_555
B0 O20 1.452918 1_565
B0 O0 1.487143 1_564
B0 O16 1.498370 1_655
B0 O4 1.520608 1_555
B1 O21 1.452918 1_545
B1 O1 1.487143 1_546
B1 O17 1.498370 1_555
B1 O5 1.520608 1_555
B2 O22 1.452918 1_555
B2 O2 1.487143 1_555
B2 O18 1.498370 1_555
B2 O6 1.520608 1_555
B3 O23 1.452918 1_555
B3 O3 1.487143 1_555
B3 O19 1.498370 1_655
B3 O7 1.520608 1_555
B4 O24 1.376315 1_555
B4 O4 1.380708 1_556
B4 O8 1.390969 1_655
B5 O25 1.376315 1_555
B5 O5 1.380708 1_554
B5 O9 1.390969 1_555
B6 O26 1.376315 1_555
B6 O6 1.380708 1_555
B6 O10 1.390969 1_555
B7 O27 1.376315 1_555
B7 O7 1.380708 1_555
B7 O11 1.390969 1_655
B8 O28 1.456314 1_555
B8 O0 1.478692 1_455
B8 O12 1.500154 1_545
B8 O8 1.504832 1_545
B9 O29 1.456314 1_555
B9 O1 1.478692 1_555
B9 O13 1.500154 1_565
B9 O9 1.504832 1_565
B10 O30 1.456314 1_555
B10 O2 1.478692 1_555
B10 O14 1.500154 1_555
B10 O10 1.504832 1_555
B11 O31 1.456314 1_555
B11 O3 1.478692 1_455
B11 O15 1.500154 1_555
B11 O11 1.504832 1_555
B12 O12 1.371399 1_554
B12 O16 1.382612 1_555
B12 O32 1.385528 1_555
B13 O13 1.371399 1_556
B13 O17 1.382612 1_555
B13 O33 1.385528 1_555
B14 O14 1.371399 1_555
B14 O18 1.382612 1_555
B14 O34 1.385528 1_555
B15 O15 1.371399 1_555
B15 O19 1.382612 1_555
B15 O35 1.385528 1_555
B16 O56 1.466944 1_555
B16 O36 1.480502 1_555
B16 O52 1.492365 1_555
B16 O40 1.505754 1_555
B17 O57 1.466944 1_555
B17 O37 1.480502 1_555
B17 O53 1.492365 1_555
B17 O41 1.505754 1_455
B18 O58 1.466944 1_545
B18 O38 1.480502 1_545
B18 O54 1.492365 1_555
B18 O42 1.505754 1_455
B19 O59 1.466944 1_565
B19 O39 1.480502 1_565
B19 O55 1.492365 1_555
B19 O43 1.505754 1_555
B20 O60 1.378176 1_555
B20 O40 1.382451 1_556
B20 O44 1.384498 1_555
B21 O61 1.378176 1_555
B21 O41 1.382451 1_554
B21 O45 1.384498 1_655
B22 O62 1.378176 1_555
B22 O42 1.382451 1_555
B22 O46 1.384498 1_655
B23 O63 1.378176 1_555
B23 O43 1.382451 1_555
B23 O47 1.384498 1_555
B24 O64 1.466370 1_555
B24 O36 1.476646 1_556
B24 O44 1.484218 1_555
B24 O48 1.521668 1_555
B25 O65 1.466370 1_555
B25 O37 1.476646 1_554
B25 O45 1.484218 1_555
B25 O49 1.521668 1_555
B26 O66 1.466370 1_555
B26 O38 1.476646 1_545
B26 O46 1.484218 1_555
B26 O50 1.521668 1_555
B27 O67 1.466370 1_555
B27 O39 1.476646 1_565
B27 O47 1.484218 1_555
B27 O51 1.521668 1_555
B28 O52 1.369798 1_555
B28 O48 1.381721 1_554
B28 O68 1.386398 1_555
B29 O53 1.369798 1_555
B29 O49 1.381721 1_556
B29 O69 1.386398 1_555
B30 O54 1.369798 1_555
B30 O50 1.381721 1_555
B30 O70 1.386398 1_555
B31 O55 1.369798 1_555
B31 O51 1.381721 1_555
B31 O71 1.386398 1_555
H0 O20 0.994991 1_555
H1 O21 0.994991 1_555
H2 O22 0.994991 1_555
H3 O23 0.994991 1_555
H4 O24 1.000613 1_555
H4 O48 1.675487 1_555
H5 O25 1.000613 1_555
H5 O49 1.675487 1_555
H6 O26 1.000613 1_555
H6 O50 1.675487 1_555
H7 O27 1.000613 1_555
H7 O51 1.675487 1_555
H8 O28 0.987283 1_555
H9 O29 0.987283 1_555
H10 O30 0.987283 1_555
H11 O31 0.987283 1_555
H12 O32 1.001533 1_555
H13 O33 1.001533 1_555
H14 O34 1.001533 1_555
H15 O35 1.001533 1_555
H16 O56 0.974621 1_555
H17 O57 0.974621 1_555
H18 O58 0.974621 1_555
H19 O59 0.974621 1_555
H20 O60 1.003219 1_555
H21 O61 1.003219 1_555
H22 O62 1.003219 1_555
H23 O63 1.003219 1_555
H24 O64 0.998217 1_555
H25 O65 0.998217 1_555
H26 O66 0.998217 1_555
H27 O67 0.998217 1_555
H28 O68 1.008820 1_555
H28 O4 1.649876 1_555
H29 O69 1.008820 1_555
H29 O5 1.649876 1_555
H30 O70 1.008820 1_555
H30 O6 1.649876 1_555
H31 O71 1.008820 1_555
H31 O7 1.649876 1_555
H32 O72 0.992955 1_555
H33 O73 0.992955 1_555
H34 O74 0.992955 1_555
H35 O75 0.992955 1_555
H36 O72 0.994739 1_555
H37 O73 0.994739 1_555
H38 O74 0.994739 1_555
H39 O75 0.994739 1_555
H40 O76 1.000248 1_555
H41 O77 1.000248 1_555
H42 O78 1.000248 1_555
H43 O79 1.000248 1_555
H44 O76 0.996116 1_555
H45 O77 0.996116 1_555
H46 O78 0.996116 1_555
H47 O79 0.996116 1_555
H48 O80 0.999837 1_555
H49 O81 0.999837 1_555
H50 O82 0.999837 1_555
H51 O83 0.999837 1_555
H52 O80 0.986908 1_555
H53 O81 0.986908 1_555
H54 O82 0.986908 1_555
H55 O83 0.986908 1_555
H56 O84 0.981443 1_555
H57 O85 0.981443 1_555
H58 O86 0.981443 1_555
H59 O87 0.981443 1_555
H60 O84 0.977867 1_555
H61 O85 0.977867 1_555
H62 O86 0.977867 1_555
H63 O87 0.977867 1_555
H64 O88 0.993878 1_555
H65 O89 0.993878 1_555
H66 O90 0.993878 1_555
H67 O91 0.993878 1_555
H68 O88 0.981580 1_555
H69 O89 0.981580 1_555
H70 O90 0.981580 1_555
H71 O91 0.981580 1_555
H72 O92 0.983269 1_555
H73 O93 0.983269 1_555
H74 O94 0.983269 1_555
H75 O95 0.983269 1_555
H76 O92 0.986832 1_555
H77 O93 0.986832 1_555
H78 O94 0.986832 1_555
H79 O95 0.986832 1_555
H80 O96 0.987270 1_555
H81 O97 0.987270 1_555
H82 O98 0.987270 1_555
H83 O99 0.987270 1_555
H84 O96 0.992230 1_555
H85 O97 0.992230 1_555
H86 O98 0.992230 1_555
H87 O99 0.992230 1_555
H88 O100 0.995271 1_555
H89 O101 0.995271 1_555
H90 O102 0.995271 1_555
H91 O103 0.995271 1_555
H92 O100 0.978502 1_555
H93 O101 0.978502 1_555
H94 O102 0.978502 1_555
H95 O103 0.978502 1_555
H96 O104 1.010700 1_555
H96 O2 1.656977 1_555
H97 O105 1.010700 1_555
H97 O3 1.656977 1_555
H98 O106 1.010700 1_555
H98 O0 1.656977 1_554
H99 O107 1.010700 1_555
H99 O1 1.656977 1_556
H100 O104 0.972156 1_555
H101 O105 0.972156 1_455
H102 O106 0.972156 1_455
H103 O107 0.972156 1_555
H104 O108 0.987533 1_555
H105 O109 0.987533 1_555
H106 O110 0.987533 1_555
H107 O111 0.987533 1_555
H108 O108 1.003252 1_555
H109 O109 1.003252 1_555
H110 O110 1.003252 1_555
H111 O111 1.003252 1_555
O20 Sr2 2.984015 1_555
O21 Sr3 2.984015 1_555
O22 Sr0 2.984015 1_555
O23 Sr1 2.984015 1_555
O72 Sr0 2.632550 1_555
O73 Sr1 2.632550 1_455
O74 Sr2 2.632550 1_455
O75 Sr3 2.632550 1_555
O76 Sr0 2.586590 1_555
O77 Sr1 2.586590 1_455
O78 Sr2 2.586590 1_455
O79 Sr3 2.586590 1_555
O80 Sr0 2.533877 1_555
O81 Sr1 2.533877 1_555
O82 Sr2 2.533877 1_555
O83 Sr3 2.533877 1_555
O84 Sr0 2.762825 1_555
O85 Sr1 2.762825 1_555
O86 Sr2 2.762825 1_555
O87 Sr3 2.762825 1_555
O96 Sr0 2.655239 1_555
O97 Sr1 2.655239 1_555
O98 Sr2 2.655239 1_555
O99 Sr3 2.655239 1_555
O100 Sr0 2.644336 1_555
O101 Sr1 2.644336 1_555
O102 Sr2 2.644336 1_555
O103 Sr3 2.644336 1_555
O104 Sr0 2.585296 1_555
O105 Sr1 2.585296 1_555
O106 Sr2 2.585296 1_555
O107 Sr3 2.585296 1_555
