# generated using pymatgen
data_Nd2Fe4Co13
_symmetry_space_group_name_H-M   'P 1'
_cell_length_a   6.35681007
_cell_length_b   6.35681007
_cell_length_c   6.35681053
_cell_angle_alpha   82.78488334
_cell_angle_beta   82.78488334
_cell_angle_gamma   82.78488662
_symmetry_Int_Tables_number   1
_chemical_formula_structural   Nd2Fe4Co13
_chemical_formula_sum   'Nd2 Fe4 Co13'
_cell_volume   251.24186507
_cell_formula_units_Z   1
loop_
 _symmetry_equiv_pos_site_id
 _symmetry_equiv_pos_as_xyz
  1  'x, y, z'
loop_
 _atom_site_type_symbol
 _atom_site_label
 _atom_site_symmetry_multiplicity
 _atom_site_fract_x
 _atom_site_fract_y
 _atom_site_fract_z
 _atom_site_occupancy
  Nd  Nd0  1  0.34303900  0.34303900  0.34303900  1
  Nd  Nd1  1  0.65684100  0.65684100  0.65684100  1
  Fe  Fe0  1  0.00214600  0.00214600  0.49586100  1
  Fe  Fe1  1  0.00214600  0.49586100  0.00214600  1
  Fe  Fe2  1  0.49586100  0.00214600  0.00214600  1
  Fe  Fe3  1  0.90595600  0.90595600  0.90595600  1
  Co  Co0  1  0.71466000  0.28550800  0.99995500  1
  Co  Co1  1  0.28550800  0.99995500  0.71466000  1
  Co  Co2  1  0.99995500  0.71466000  0.28550800  1
  Co  Co3  1  0.71466000  0.99995500  0.28550800  1
  Co  Co4  1  0.99995500  0.28550800  0.71466000  1
  Co  Co5  1  0.28550800  0.71466000  0.99995500  1
  Co  Co6  1  0.65653900  0.65653900  0.15215700  1
  Co  Co7  1  0.65653900  0.15215700  0.65653900  1
  Co  Co8  1  0.15215700  0.65653900  0.65653900  1
  Co  Co9  1  0.34385000  0.34385000  0.84366200  1
  Co  Co10  1  0.34385000  0.84366200  0.34385000  1
  Co  Co11  1  0.84366200  0.34385000  0.34385000  1
  Co  Co12  1  0.09717100  0.09717100  0.09717100  1
loop_
_geom_bond_atom_site_label_1
_geom_bond_atom_site_label_2
_geom_bond_distance
_geom_bond_site_symmetry_2
Fe0 Fe3 2.614726 1_445
Fe0 Nd0 3.233792 1_555
Fe0 Nd1 3.281066 1_445
Fe1 Fe3 2.614726 1_454
Fe1 Nd0 3.233792 1_555
Fe1 Nd1 3.281066 1_454
Fe2 Fe3 2.614726 1_544
Fe2 Nd0 3.233792 1_555
Fe2 Nd1 3.281066 1_544
Fe3 Nd1 3.068043 1_555
Co0 Co4 2.398307 1_555
Co0 Fe1 2.398512 1_656
Co0 Co3 2.400476 1_546
Co0 Fe2 2.407789 1_556
Co0 Co11 2.513819 1_556
Co0 Co7 2.523252 1_555
Co0 Co6 2.626784 1_556
Co0 Co9 2.637612 1_555
Co0 Fe3 2.664532 1_545
Co0 Co12 2.681053 1_656
Co0 Nd1 3.025632 1_555
Co0 Nd0 3.026537 1_556
Co1 Co5 2.398307 1_555
Co1 Fe2 2.398512 1_566
Co1 Co4 2.400476 1_465
Co1 Fe0 2.407789 1_565
Co1 Co9 2.513818 1_565
Co1 Co8 2.523252 1_555
Co1 Co7 2.626784 1_565
Co1 Co10 2.637612 1_555
Co1 Fe3 2.664532 1_455
Co1 Co12 2.681053 1_566
Co1 Nd1 3.025632 1_555
Co1 Nd0 3.026537 1_565
Co2 Co3 2.398307 1_555
Co2 Fe0 2.398512 1_665
Co2 Co5 2.400476 1_654
Co2 Fe1 2.407789 1_655
Co2 Co6 2.523252 1_555
Co2 Co8 2.626784 1_655
Co2 Fe3 2.664532 1_554
Co2 Nd1 3.025632 1_555
Co2 Nd0 3.026537 1_655
Co3 Fe0 2.398512 1_665
Co3 Fe2 2.407789 1_565
Co3 Co6 2.523252 1_555
Co3 Co7 2.626784 1_565
Co3 Fe3 2.664532 1_554
Co3 Nd1 3.025632 1_555
Co3 Nd0 3.026537 1_565
Co4 Fe1 2.398512 1_656
Co4 Fe0 2.407789 1_655
Co4 Co9 2.513818 1_655
Co4 Co7 2.523252 1_555
Co4 Co8 2.626784 1_655
Co4 Fe3 2.664532 1_545
Co4 Nd1 3.025632 1_555
Co4 Nd0 3.026537 1_655
Co5 Fe2 2.398512 1_566
Co5 Fe1 2.407789 1_556
Co5 Co8 2.523252 1_555
Co5 Co6 2.626784 1_556
Co5 Co9 2.637612 1_555
Co5 Fe3 2.664532 1_455
Co5 Nd1 3.025632 1_555
Co5 Nd0 3.026537 1_556
Co6 Fe1 2.435974 1_655
Co6 Fe2 2.435974 1_565
Co6 Fe3 2.619510 1_554
Co6 Nd0 3.032837 1_555
Co6 Nd1 3.148149 1_554
Co6 Nd1 3.208664 1_555
Co7 Fe0 2.435974 1_655
Co7 Fe2 2.435974 1_556
Co7 Co9 2.452048 1_555
Co7 Fe3 2.619510 1_545
Co7 Nd0 3.032837 1_555
Co7 Nd1 3.148149 1_545
Co7 Nd1 3.208664 1_555
Co8 Fe0 2.435974 1_565
Co8 Fe1 2.435974 1_556
Co8 Co9 2.452048 1_555
Co8 Fe3 2.619510 1_455
Co8 Nd0 3.032837 1_555
Co8 Nd1 3.148149 1_455
Co8 Nd1 3.208664 1_555
Co9 Fe2 2.415480 1_556
Co9 Fe1 2.415480 1_556
Co9 Nd1 3.022397 1_555
Co9 Nd0 3.173159 1_556
Co9 Nd0 3.183670 1_555
Co10 Fe0 2.415480 1_565
Co10 Fe2 2.415480 1_565
Co10 Co8 2.452048 1_555
Co10 Co6 2.452048 1_555
Co10 Co2 2.513818 1_455
Co10 Co5 2.513819 1_554
Co10 Co12 2.619719 1_565
Co10 Co3 2.637612 1_555
Co10 Nd1 3.022397 1_555
Co10 Nd0 3.173159 1_565
Co10 Nd0 3.183669 1_555
Co11 Fe0 2.415480 1_655
Co11 Fe1 2.415480 1_655
Co11 Co7 2.452048 1_555
Co11 Co6 2.452048 1_555
Co11 Co3 2.513818 1_545
Co11 Co12 2.619719 1_655
Co11 Co2 2.637612 1_555
Co11 Co4 2.637612 1_555
Co11 Nd1 3.022397 1_555
Co11 Nd0 3.173159 1_655
Co11 Nd0 3.183669 1_555
Co12 Fe3 2.354960 1_444
Co12 Fe1 2.544698 1_555
Co12 Fe2 2.544698 1_555
Co12 Fe0 2.544698 1_555
Co12 Co9 2.619719 1_554
Co12 Co2 2.681053 1_445
Co12 Co3 2.681053 1_445
Co12 Co5 2.681053 1_544
Co12 Co4 2.681053 1_454
Co12 Nd0 3.028053 1_555
