# generated using pymatgen
data_Sm5Pb4
_symmetry_space_group_name_H-M   'P 1'
_cell_length_a   8.35146236
_cell_length_b   8.43415739
_cell_length_c   15.91681389
_cell_angle_alpha   90.00000000
_cell_angle_beta   90.00000000
_cell_angle_gamma   90.00000000
_symmetry_Int_Tables_number   1
_chemical_formula_structural   Sm5Pb4
_chemical_formula_sum   'Sm20 Pb16'
_cell_volume   1121.14134208
_cell_formula_units_Z   4
loop_
 _symmetry_equiv_pos_site_id
 _symmetry_equiv_pos_as_xyz
  1  'x, y, z'
loop_
 _atom_site_type_symbol
 _atom_site_label
 _atom_site_symmetry_multiplicity
 _atom_site_fract_x
 _atom_site_fract_y
 _atom_site_fract_z
 _atom_site_occupancy
  Sm  Sm0  1  0.38440282  0.84254742  0.88221845  1
  Sm  Sm1  1  0.88440282  0.65745258  0.61778155  1
  Sm  Sm2  1  0.61559718  0.15745258  0.38221845  1
  Sm  Sm3  1  0.11559718  0.34254742  0.11778155  1
  Sm  Sm4  1  0.61559718  0.15745258  0.11778155  1
  Sm  Sm5  1  0.11559718  0.34254742  0.38221845  1
  Sm  Sm6  1  0.38440282  0.84254742  0.61778155  1
  Sm  Sm7  1  0.88440282  0.65745258  0.88221845  1
  Sm  Sm8  1  0.54059986  0.32541865  0.89707486  1
  Sm  Sm9  1  0.04059986  0.17458135  0.60292514  1
  Sm  Sm10  1  0.45940014  0.67458135  0.39707486  1
  Sm  Sm11  1  0.95940014  0.82541865  0.10292514  1
  Sm  Sm12  1  0.45940014  0.67458135  0.10292514  1
  Sm  Sm13  1  0.95940014  0.82541865  0.39707486  1
  Sm  Sm14  1  0.54059986  0.32541865  0.60292514  1
  Sm  Sm15  1  0.04059986  0.17458135  0.89707486  1
  Sm  Sm16  1  0.21813774  0.50316135  0.75000000  1
  Sm  Sm17  1  0.71813774  0.99683865  0.75000000  1
  Sm  Sm18  1  0.78186226  0.49683865  0.25000000  1
  Sm  Sm19  1  0.28186226  0.00316135  0.25000000  1
  Pb  Pb0  1  0.27368769  0.02925588  0.04408707  1
  Pb  Pb1  1  0.77368769  0.47074412  0.45591193  1
  Pb  Pb2  1  0.72631231  0.97074412  0.54408807  1
  Pb  Pb3  1  0.22631231  0.52925588  0.95591293  1
  Pb  Pb4  1  0.72631231  0.97074412  0.95591193  1
  Pb  Pb5  1  0.22631231  0.52925588  0.54408707  1
  Pb  Pb6  1  0.27368769  0.02925588  0.45591293  1
  Pb  Pb7  1  0.77368769  0.47074412  0.04408807  1
  Pb  Pb8  1  0.58077526  0.62631450  0.75000000  1
  Pb  Pb9  1  0.08077526  0.87368650  0.75000000  1
  Pb  Pb10  1  0.41922474  0.37368650  0.25000000  1
  Pb  Pb11  1  0.91922474  0.12631450  0.25000000  1
  Pb  Pb12  1  0.35028416  0.14686366  0.75000000  1
  Pb  Pb13  1  0.85028416  0.35313534  0.75000000  1
  Pb  Pb14  1  0.64971584  0.85313534  0.25000000  1
  Pb  Pb15  1  0.14971584  0.64686366  0.25000000  1
loop_
_geom_bond_atom_site_label_1
_geom_bond_atom_site_label_2
_geom_bond_distance
_geom_bond_site_symmetry_2
Pb0 Sm0 3.157962 1_544
Pb0 Sm3 3.178216 1_555
Pb0 Sm4 3.270857 1_555
Pb0 Sm11 3.274456 1_445
Pb0 Sm15 3.281329 1_554
Pb0 Sm19 3.285568 1_555
Pb0 Sm12 3.497274 1_545
Pb1 Sm1 3.157975 1_555
Pb1 Sm2 3.178210 1_555
Pb1 Sm5 3.270852 1_655
Pb1 Sm10 3.274451 1_555
Pb1 Sm14 3.281341 1_555
Pb1 Sm18 3.285552 1_555
Pb1 Sm13 3.497270 1_555
Pb2 Sm2 3.157975 1_565
Pb2 Sm1 3.178210 1_555
Pb2 Sm6 3.270852 1_555
Pb2 Sm9 3.274451 1_665
Pb2 Sm13 3.281341 1_555
Pb2 Sm17 3.285552 1_555
Pb2 Sm14 3.497270 1_565
Pb3 Sm3 3.157962 1_556
Pb3 Sm0 3.178216 1_555
Pb3 Sm7 3.270857 1_455
Pb3 Sm8 3.274456 1_555
Pb3 Sm12 3.281329 1_556
Pb3 Sm16 3.285568 1_555
Pb3 Sm15 3.497274 1_555
Pb4 Sm4 3.157975 1_566
Pb4 Sm7 3.178210 1_555
Pb4 Sm0 3.270852 1_555
Pb4 Sm15 3.274451 1_665
Pb4 Sm11 3.281341 1_556
Pb4 Sm17 3.285552 1_555
Pb4 Sm8 3.497270 1_565
Pb5 Sm5 3.157962 1_555
Pb5 Sm6 3.178216 1_555
Pb5 Sm1 3.270857 1_455
Pb5 Sm14 3.274456 1_555
Pb5 Sm10 3.281329 1_555
Pb5 Sm16 3.285568 1_555
Pb5 Sm9 3.497274 1_555
Pb6 Sm6 3.157962 1_545
Pb6 Sm5 3.178216 1_555
Pb6 Sm2 3.270857 1_555
Pb6 Sm13 3.274456 1_445
Pb6 Sm9 3.281329 1_555
Pb6 Sm19 3.285568 1_555
Pb6 Sm10 3.497274 1_545
Pb7 Sm7 3.157975 1_554
Pb7 Sm4 3.178210 1_555
Pb7 Sm3 3.270852 1_655
Pb7 Sm12 3.274451 1_555
Pb7 Sm8 3.281341 1_554
Pb7 Sm18 3.285552 1_555
Pb7 Sm11 3.497270 1_555
Pb8 Sm16 3.201721 1_555
Pb8 Sm6 3.231800 1_555
Pb8 Sm0 3.231800 1_555
Pb8 Sm1 3.305726 1_555
Pb8 Sm7 3.305726 1_555
Pb8 Sm17 3.328965 1_555
Pb8 Sm14 3.468880 1_555
Pb8 Sm8 3.468880 1_555
Pb9 Sm17 3.201719 1_455
Pb9 Sm1 3.231805 1_455
Pb9 Sm7 3.231805 1_455
Pb9 Sm6 3.305727 1_555
Pb9 Sm0 3.305727 1_555
Pb9 Sm16 3.328973 1_555
Pb9 Sm9 3.468874 1_565
Pb9 Sm15 3.468874 1_565
Pb10 Sm18 3.201719 1_555
Pb10 Sm4 3.231805 1_555
Pb10 Sm2 3.231805 1_555
Pb10 Sm5 3.305727 1_555
Pb10 Sm3 3.305727 1_555
Pb10 Sm19 3.328973 1_555
Pb10 Sm10 3.468874 1_555
Pb10 Sm12 3.468874 1_555
Pb11 Sm19 3.201721 1_655
Pb11 Sm5 3.231800 1_655
Pb11 Sm3 3.231800 1_655
Pb11 Sm2 3.305726 1_555
Pb11 Sm4 3.305726 1_555
Pb11 Sm18 3.328965 1_555
Pb11 Sm13 3.468880 1_545
Pb11 Sm11 3.468880 1_545
Pb12 Sm16 3.201315 1_555
Pb12 Sm8 3.205349 1_555
Pb12 Sm14 3.205349 1_555
Pb12 Sm17 3.322494 1_545
Pb12 Sm6 3.331335 1_545
Pb12 Sm0 3.331335 1_545
Pb12 Sm15 3.496254 1_555
Pb12 Sm9 3.496254 1_555
Pb13 Sm17 3.201307 1_545
Pb13 Sm9 3.205345 1_655
Pb13 Sm15 3.205345 1_655
Pb13 Sm16 3.322497 1_655
Pb13 Sm7 3.331342 1_555
Pb13 Sm1 3.331342 1_555
Pb13 Sm8 3.496254 1_555
Pb13 Sm14 3.496254 1_555
Pb14 Sm18 3.201307 1_555
Pb14 Sm12 3.205345 1_555
Pb14 Sm10 3.205345 1_555
Pb14 Sm19 3.322497 1_565
Pb14 Sm4 3.331342 1_565
Pb14 Sm2 3.331342 1_565
Pb14 Sm13 3.496254 1_555
Pb14 Sm11 3.496254 1_555
Pb15 Sm19 3.201315 1_565
Pb15 Sm11 3.205349 1_455
Pb15 Sm13 3.205349 1_455
Pb15 Sm18 3.322494 1_455
Pb15 Sm5 3.331335 1_555
Pb15 Sm3 3.331335 1_555
Pb15 Sm10 3.496254 1_555
Pb15 Sm12 3.496254 1_555
