# generated using pymatgen
data_BaAlCdF7
_symmetry_space_group_name_H-M   'P 1'
_cell_length_a   7.52163318
_cell_length_b   7.52163318
_cell_length_c   15.03544540
_cell_angle_alpha   88.33674011
_cell_angle_beta   88.33674011
_cell_angle_gamma   41.95825514
_symmetry_Int_Tables_number   1
_chemical_formula_structural   BaAlCdF7
_chemical_formula_sum   'Ba4 Al4 Cd4 F28'
_cell_volume   568.44686462
_cell_formula_units_Z   4
loop_
 _symmetry_equiv_pos_site_id
 _symmetry_equiv_pos_as_xyz
  1  'x, y, z'
loop_
 _atom_site_type_symbol
 _atom_site_label
 _atom_site_symmetry_multiplicity
 _atom_site_fract_x
 _atom_site_fract_y
 _atom_site_fract_z
 _atom_site_occupancy
  Ba  Ba0  1  0.65282700  0.72800000  0.87736200  1
  Ba  Ba1  1  0.34717300  0.27200000  0.12263800  1
  Ba  Ba2  1  0.27200000  0.34717300  0.62263800  1
  Ba  Ba3  1  0.72800000  0.65282700  0.37736200  1
  Al  Al0  1  0.38530600  0.36963500  0.87541000  1
  Al  Al1  1  0.61469400  0.63036500  0.12459000  1
  Al  Al2  1  0.63036500  0.61469400  0.62459000  1
  Al  Al3  1  0.36963500  0.38530600  0.37541000  1
  Cd  Cd0  1  0.00000000  0.00000000  0.50000000  1
  Cd  Cd1  1  0.00000000  0.00000000  0.00000000  1
  Cd  Cd2  1  0.94853400  0.05146600  0.75000000  1
  Cd  Cd3  1  0.05146600  0.94853400  0.25000000  1
  F  F0  1  0.42845400  0.74435700  0.52518700  1
  F  F1  1  0.57154600  0.25564300  0.47481300  1
  F  F2  1  0.25564300  0.57154600  0.97481300  1
  F  F3  1  0.74435700  0.42845400  0.02518700  1
  F  F4  1  0.68903700  0.80211500  0.59240400  1
  F  F5  1  0.31096300  0.19788500  0.40759600  1
  F  F6  1  0.19788500  0.31096300  0.90759600  1
  F  F7  1  0.80211500  0.68903700  0.09240400  1
  F  F8  1  0.54325500  0.13160600  0.78247300  1
  F  F9  1  0.45674500  0.86839400  0.21752700  1
  F  F10  1  0.86839400  0.45674500  0.71752700  1
  F  F11  1  0.13160600  0.54325500  0.28247300  1
  F  F12  1  0.60111300  0.40004300  0.65332300  1
  F  F13  1  0.39888700  0.59995700  0.34667700  1
  F  F14  1  0.59995700  0.39888700  0.84667700  1
  F  F15  1  0.40004300  0.60111300  0.15332300  1
  F  F16  1  0.35864400  0.88241700  0.69670600  1
  F  F17  1  0.64135600  0.11758300  0.30329400  1
  F  F18  1  0.11758300  0.64135600  0.80329400  1
  F  F19  1  0.88241700  0.35864400  0.19670600  1
  F  F20  1  0.65609200  0.07685500  0.94847400  1
  F  F21  1  0.34390800  0.92314500  0.05152600  1
  F  F22  1  0.92314500  0.34390800  0.55152600  1
  F  F23  1  0.07685500  0.65609200  0.44847400  1
  F  F24  1  0.84262000  0.02290700  0.12966200  1
  F  F25  1  0.15738000  0.97709300  0.87033800  1
  F  F26  1  0.97709300  0.15738000  0.37033800  1
  F  F27  1  0.02290700  0.84262000  0.62966200  1
loop_
_geom_bond_atom_site_label_1
_geom_bond_atom_site_label_2
_geom_bond_distance
_geom_bond_site_symmetry_2
Ba0 F25 2.652548 1_555
Ba0 F10 2.775862 1_555
Ba0 F6 2.784434 1_655
Ba0 F3 2.825156 1_556
Ba0 F8 2.833089 1_565
Ba0 F14 2.835484 1_555
Ba0 F20 2.879094 1_565
Ba0 F6 2.975336 1_565
Ba0 F21 3.034503 1_556
Ba0 F16 3.157000 1_555
Ba0 F18 3.211370 1_655
Ba1 F24 2.652548 1_555
Ba1 F11 2.775862 1_555
Ba1 F7 2.784434 1_455
Ba1 F2 2.825156 1_554
Ba1 F9 2.833089 1_545
Ba1 F15 2.835484 1_555
Ba1 F21 2.879094 1_545
Ba1 F7 2.975336 1_545
Ba1 F20 3.034503 1_554
Ba1 F17 3.157000 1_555
Ba1 F19 3.211370 1_455
Ba2 F27 2.652548 1_555
Ba2 F8 2.775862 1_555
Ba2 F4 2.784434 1_545
Ba2 F1 2.825156 1_555
Ba2 F10 2.833089 1_455
Ba2 F12 2.835484 1_555
Ba2 F22 2.879094 1_455
Ba2 F4 2.975336 1_455
Ba2 F23 3.034503 1_555
Ba2 F18 3.157000 1_555
Ba2 F16 3.211370 1_545
Ba3 F26 2.652548 1_555
Ba3 F9 2.775862 1_555
Ba3 F5 2.784434 1_565
Ba3 F0 2.825156 1_555
Ba3 F11 2.833089 1_655
Ba3 F13 2.835484 1_555
Ba3 F23 2.879094 1_655
Ba3 F5 2.975336 1_655
Ba3 F22 3.034503 1_555
Ba3 F19 3.157000 1_555
Ba3 F17 3.211370 1_565
Al0 F18 1.812436 1_555
Al0 F6 1.813694 1_555
Al0 F14 1.823200 1_555
Al0 F2 1.826371 1_555
Al0 F8 1.858722 1_555
Al0 F20 1.877073 1_555
Al1 F19 1.812436 1_555
Al1 F7 1.813694 1_555
Al1 F15 1.823200 1_555
Al1 F3 1.826371 1_555
Al1 F9 1.858722 1_555
Al1 F21 1.877073 1_555
Al2 F16 1.812436 1_555
Al2 F4 1.813694 1_555
Al2 F12 1.823200 1_555
Al2 F0 1.826371 1_555
Al2 F10 1.858722 1_555
Al2 F22 1.877073 1_555
Al3 F17 1.812436 1_555
Al3 F5 1.813694 1_555
Al3 F13 1.823200 1_555
Al3 F1 1.826371 1_555
Al3 F11 1.858722 1_555
Al3 F23 1.877073 1_555
Cd0 F27 2.194039 1_545
Cd0 F26 2.194039 1_455
Cd0 F0 2.244728 1_545
Cd0 F1 2.244728 1_455
Cd0 F22 2.343503 1_455
Cd0 F23 2.343503 1_545
Cd1 F24 2.194039 1_455
Cd1 F25 2.194039 1_544
Cd1 F3 2.244728 1_455
Cd1 F2 2.244728 1_544
Cd1 F21 2.343503 1_545
Cd1 F20 2.343503 1_454
Cd2 F25 2.203076 1_645
Cd2 F27 2.203076 1_645
Cd2 F14 2.371750 1_555
Cd2 F12 2.371750 1_555
Cd2 F16 2.420004 1_645
Cd2 F18 2.420004 1_645
Cd2 F10 2.663093 1_555
Cd2 F8 2.663093 1_555
Cd3 F24 2.203076 1_465
Cd3 F26 2.203076 1_465
Cd3 F13 2.371750 1_555
Cd3 F15 2.371750 1_555
Cd3 F19 2.420004 1_465
Cd3 F17 2.420004 1_465
Cd3 F9 2.663093 1_555
Cd3 F11 2.663093 1_555
