# generated using pymatgen
data_Ba6Sm3Al(Cu2O5)4
_symmetry_space_group_name_H-M   'P 1'
_cell_length_a   5.54678500
_cell_length_b   8.67480131
_cell_length_c   12.67449835
_cell_angle_alpha   74.32509264
_cell_angle_beta   77.78694691
_cell_angle_gamma   73.28461105
_symmetry_Int_Tables_number   1
_chemical_formula_structural   Ba6Sm3Al(Cu2O5)4
_chemical_formula_sum   'Ba6 Sm3 Al1 Cu8 O20'
_cell_volume   556.41522223
_cell_formula_units_Z   1
loop_
 _symmetry_equiv_pos_site_id
 _symmetry_equiv_pos_as_xyz
  1  'x, y, z'
loop_
 _atom_site_type_symbol
 _atom_site_label
 _atom_site_symmetry_multiplicity
 _atom_site_fract_x
 _atom_site_fract_y
 _atom_site_fract_z
 _atom_site_occupancy
  Ba  Ba0  1  0.93760100  0.43759800  0.18721500  1
  Ba  Ba1  1  0.61061800  0.10571000  0.19163600  1
  Ba  Ba2  1  0.26160500  0.76652900  0.19168100  1
  Ba  Ba3  1  0.73839500  0.23347100  0.80831900  1
  Ba  Ba4  1  0.38938200  0.89429000  0.80836400  1
  Ba  Ba5  1  0.06239900  0.56240200  0.81278500  1
  Sm  Sm0  1  0.83361200  0.33326900  0.49924200  1
  Sm  Sm1  1  0.50000000  0.00000000  0.50000000  1
  Sm  Sm2  1  0.16638800  0.66673100  0.50075800  1
  Al  Al0  1  0.50000000  0.50000000  0.00000000  1
  Cu  Cu0  1  0.71224000  0.71403800  0.35803400  1
  Cu  Cu1  1  0.38052200  0.38060000  0.35854000  1
  Cu  Cu2  1  0.04940400  0.04733200  0.35742800  1
  Cu  Cu3  1  0.61947800  0.61940000  0.64146000  1
  Cu  Cu4  1  0.28776000  0.28596200  0.64196600  1
  Cu  Cu5  1  0.95059600  0.95266800  0.64257200  1
  Cu  Cu6  1  0.86676600  0.81506400  0.99998500  1
  Cu  Cu7  1  0.13323400  0.18493600  0.00001500  1
  O  O0  1  0.75727400  0.79329000  0.15016000  1
  O  O1  1  0.45002000  0.44997300  0.15012800  1
  O  O2  1  0.14245300  0.10661900  0.15029800  1
  O  O3  1  0.54998000  0.55002700  0.84987200  1
  O  O4  1  0.24272600  0.20671000  0.84984000  1
  O  O5  1  0.85754700  0.89338100  0.84970200  1
  O  O6  1  0.54023400  0.54034600  0.37744400  1
  O  O7  1  0.20828000  0.20810500  0.37729400  1
  O  O8  1  0.87406900  0.87411200  0.37738200  1
  O  O9  1  0.04216000  0.54267300  0.37350000  1
  O  O10  1  0.70878600  0.20869000  0.37315200  1
  O  O11  1  0.37519500  0.87464900  0.37524600  1
  O  O12  1  0.45976600  0.45965400  0.62255600  1
  O  O13  1  0.12593100  0.12588800  0.62261800  1
  O  O14  1  0.79172000  0.79189500  0.62270600  1
  O  O15  1  0.95784000  0.45732700  0.62650000  1
  O  O16  1  0.62480500  0.12535100  0.62475400  1
  O  O17  1  0.29121400  0.79131000  0.62684800  1
  O  O18  1  0.19133200  0.65745900  0.00001700  1
  O  O19  1  0.80866800  0.34254100  0.99998300  1
loop_
_geom_bond_atom_site_label_1
_geom_bond_atom_site_label_2
_geom_bond_distance
_geom_bond_site_symmetry_2
Ba0 O1 2.808992 1_555
Ba0 O1 2.809627 1_655
Ba0 O2 2.894482 1_655
Ba0 O0 2.895180 1_555
Ba0 O10 2.960296 1_555
Ba0 O9 2.964493 1_655
Ba0 O18 2.988947 1_655
Ba0 O19 2.989576 1_554
Ba0 O7 3.039885 1_655
Ba0 O6 3.041130 1_555
Ba1 O2 2.753114 1_555
Ba1 O0 2.757516 1_545
Ba1 O1 2.794275 1_555
Ba1 O10 2.882326 1_555
Ba1 O2 2.886890 1_655
Ba1 O19 2.966604 1_554
Ba1 O11 2.972864 1_545
Ba1 O8 2.987499 1_545
Ba1 O7 3.012290 1_555
Ba2 O0 2.752969 1_555
Ba2 O2 2.757639 1_565
Ba2 O1 2.794315 1_555
Ba2 O9 2.884084 1_555
Ba2 O0 2.887847 1_455
Ba2 O18 2.967010 1_555
Ba2 O11 2.971363 1_555
Ba2 O8 2.987267 1_455
Ba2 O6 3.013429 1_555
Ba3 O4 2.752969 1_555
Ba3 O5 2.757639 1_545
Ba3 O3 2.794315 1_555
Ba3 O15 2.884084 1_555
Ba3 O4 2.887847 1_655
Ba3 O19 2.967010 1_555
Ba3 O16 2.971363 1_555
Ba3 O13 2.987267 1_655
Ba3 O12 3.013429 1_555
Ba4 O5 2.753114 1_555
Ba4 O4 2.757516 1_565
Ba4 O3 2.794275 1_555
Ba4 O17 2.882326 1_555
Ba4 O5 2.886890 1_455
Ba4 O18 2.966604 1_556
Ba4 O16 2.972864 1_565
Ba4 O13 2.987499 1_565
Ba4 O14 3.012290 1_555
Ba5 O3 2.808992 1_555
Ba5 O3 2.809627 1_455
Ba5 O5 2.894482 1_455
Ba5 O4 2.895180 1_555
Ba5 O17 2.960296 1_555
Ba5 O15 2.964493 1_455
Ba5 O19 2.988947 1_455
Ba5 O18 2.989576 1_556
Ba5 O14 3.039885 1_455
Ba5 O12 3.041130 1_555
Al0 O1 1.812633 1_555
Al0 O3 1.812633 1_554
Al0 O18 1.857912 1_555
Al0 O19 1.857912 1_554
Cu0 O6 1.941235 1_555
Cu0 O8 1.946345 1_555
Cu0 O11 1.994298 1_555
Cu0 O9 2.006641 1_655
Cu0 O0 2.513612 1_555
Cu1 O6 1.933377 1_555
Cu1 O7 1.934540 1_555
Cu1 O10 2.001262 1_555
Cu1 O9 2.002676 1_555
Cu1 O1 2.516349 1_555
Cu2 O7 1.943129 1_555
Cu2 O8 1.949100 1_445
Cu2 O11 1.998314 1_545
Cu2 O10 2.009668 1_455
Cu2 O2 2.504548 1_555
Cu3 O12 1.933377 1_555
Cu3 O14 1.934540 1_555
Cu3 O17 2.001262 1_555
Cu3 O15 2.002676 1_555
Cu3 O3 2.516349 1_555
Cu4 O12 1.941235 1_555
Cu4 O13 1.946345 1_555
Cu4 O16 1.994298 1_555
Cu4 O15 2.006641 1_455
Cu4 O4 2.513612 1_555
Cu5 O14 1.943129 1_555
Cu5 O13 1.949100 1_665
Cu5 O16 1.998314 1_565
Cu5 O17 2.009668 1_655
Cu5 O5 2.504548 1_555
Cu6 O0 1.846634 1_556
Cu6 O5 1.847772 1_555
Cu6 O18 1.922092 1_656
Cu7 O4 1.846634 1_554
Cu7 O2 1.847772 1_555
Cu7 O19 1.922092 1_454
O6 Sm0 2.478098 1_555
O6 Sm2 2.488315 1_555
O7 Sm0 2.477216 1_455
O7 Sm1 2.482603 1_555
O8 Sm1 2.482409 1_565
O8 Sm2 2.487041 1_655
O9 Sm0 2.458099 1_455
O9 Sm2 2.463591 1_555
O10 Sm0 2.456247 1_555
O10 Sm1 2.459438 1_555
O11 Sm1 2.446847 1_565
O11 Sm2 2.448866 1_555
O12 Sm2 2.478098 1_555
O12 Sm0 2.488315 1_555
O13 Sm1 2.482409 1_555
O13 Sm0 2.487041 1_455
O14 Sm2 2.477216 1_655
O14 Sm1 2.482603 1_565
O15 Sm2 2.458099 1_655
O15 Sm0 2.463591 1_555
O16 Sm1 2.446847 1_555
O16 Sm0 2.448866 1_555
O17 Sm2 2.456247 1_555
O17 Sm1 2.459438 1_565
