# generated using pymatgen
data_MnBi
_symmetry_space_group_name_H-M   'P 1'
_cell_length_a   4.22016000
_cell_length_b   5.58522800
_cell_length_c   7.72310100
_cell_angle_alpha   90.00000000
_cell_angle_beta   90.00000000
_cell_angle_gamma   90.00000000
_symmetry_Int_Tables_number   1
_chemical_formula_structural   MnBi
_chemical_formula_sum   'Mn4 Bi4'
_cell_volume   182.03778304
_cell_formula_units_Z   4
loop_
 _symmetry_equiv_pos_site_id
 _symmetry_equiv_pos_as_xyz
  1  'x, y, z'
loop_
 _atom_site_type_symbol
 _atom_site_label
 _atom_site_symmetry_multiplicity
 _atom_site_fract_x
 _atom_site_fract_y
 _atom_site_fract_z
 _atom_site_occupancy
  Mn  Mn0  1  0.00000000  0.50000000  0.00000000  1
  Mn  Mn1  1  0.00000000  0.00000000  0.00000000  1
  Mn  Mn2  1  0.50000000  0.75000000  0.88060600  1
  Mn  Mn3  1  0.50000000  0.25000000  0.11939400  1
  Bi  Bi0  1  0.50000000  0.75000000  0.23257200  1
  Bi  Bi1  1  0.50000000  0.25000000  0.76742800  1
  Bi  Bi2  1  0.00000000  0.75000000  0.65549300  1
  Bi  Bi3  1  0.00000000  0.25000000  0.34450700  1
loop_
_geom_bond_atom_site_label_1
_geom_bond_atom_site_label_2
_geom_bond_distance
_geom_bond_site_symmetry_2
Mn0 Mn3 2.693021 1_555
Mn0 Mn2 2.693021 1_554
Mn0 Mn2 2.693021 1_454
Mn0 Mn3 2.693021 1_455
Mn0 Mn1 2.792614 1_555
Mn0 Mn1 2.792614 1_565
Mn1 Mn3 2.693021 1_555
Mn1 Mn2 2.693021 1_444
Mn1 Mn2 2.693021 1_544
Mn1 Mn3 2.693021 1_455
Bi0 Mn2 2.718269 1_554
Bi0 Mn3 2.926212 1_555
Bi0 Mn3 2.926212 1_565
Bi0 Mn0 3.102960 1_655
Bi0 Mn0 3.102960 1_555
Bi0 Mn1 3.102960 1_565
Bi0 Mn1 3.102960 1_665
Bi0 Bi3 3.605338 1_555
Bi0 Bi3 3.605338 1_655
Bi0 Bi3 3.605338 1_565
Bi0 Bi3 3.605338 1_665
Bi1 Mn3 2.718269 1_556
Bi1 Mn2 2.926212 1_555
Bi1 Mn2 2.926212 1_545
Bi1 Mn1 3.102960 1_556
Bi1 Mn0 3.102960 1_656
Bi1 Mn1 3.102960 1_656
Bi1 Mn0 3.102960 1_556
Bi1 Bi2 3.605338 1_555
Bi1 Bi2 3.605338 1_655
Bi1 Bi2 3.605338 1_645
Bi1 Bi2 3.605338 1_545
Bi2 Mn2 2.734056 1_555
Bi2 Mn2 2.734056 1_455
Bi2 Mn1 3.004796 1_566
Bi2 Mn0 3.004796 1_556
Bi3 Mn3 2.734056 1_455
Bi3 Mn3 2.734056 1_555
Bi3 Mn1 3.004796 1_555
Bi3 Mn0 3.004796 1_555
