# generated using pymatgen
data_FeCO3
_symmetry_space_group_name_H-M   'P 1'
_cell_length_a   5.67936581
_cell_length_b   5.67936593
_cell_length_c   5.67936026
_cell_angle_alpha   48.88741061
_cell_angle_beta   48.88740146
_cell_angle_gamma   48.88743182
_symmetry_Int_Tables_number   1
_chemical_formula_structural   FeCO3
_chemical_formula_sum   'Fe2 C2 O6'
_cell_volume   95.45334472
_cell_formula_units_Z   2
loop_
 _symmetry_equiv_pos_site_id
 _symmetry_equiv_pos_as_xyz
  1  'x, y, z'
loop_
 _atom_site_type_symbol
 _atom_site_label
 _atom_site_symmetry_multiplicity
 _atom_site_fract_x
 _atom_site_fract_y
 _atom_site_fract_z
 _atom_site_occupancy
  Fe  Fe0  1  0.50000000  0.49999900  0.50000100  1
  Fe  Fe1  1  -0.00000000  0.00000000  -0.00000000  1
  C  C0  1  0.74999651  0.74999651  0.74999651  1
  C  C1  1  0.25000349  0.25000349  0.25000449  1
  O  O0  1  0.02449959  0.75000774  0.47546624  1
  O  O1  1  0.75000674  0.47546724  0.02450059  1
  O  O2  1  0.52453276  0.97550041  0.24999226  1
  O  O3  1  0.47546724  0.02449959  0.75000674  1
  O  O4  1  0.97550041  0.24999226  0.52453276  1
  O  O5  1  0.24999126  0.52453276  0.97550141  1
loop_
_geom_bond_atom_site_label_1
_geom_bond_atom_site_label_2
_geom_bond_distance
_geom_bond_site_symmetry_2
Fe0 O1 2.126128 1_555
Fe0 O3 2.126130 1_555
Fe0 O5 2.126131 1_555
Fe0 O4 2.126131 1_555
Fe0 O2 2.126136 1_555
Fe0 O0 2.126137 1_555
Fe1 O0 2.125892 1_545
Fe1 O4 2.125897 1_454
Fe1 O3 2.125898 1_554
Fe1 O5 2.125898 1_544
Fe1 O2 2.125899 1_445
Fe1 O1 2.125901 1_455
C0 O3 1.290290 1_565
C0 O0 1.290291 1_655
C0 O1 1.290291 1_556
C1 O4 1.290286 1_455
C1 O5 1.290289 1_554
C1 O2 1.290290 1_545
