# generated using pymatgen
data_Al2O3
_symmetry_space_group_name_H-M   'P 1'
_cell_length_a   2.96460756
_cell_length_b   5.63642615
_cell_length_c   30.32976250
_cell_angle_alpha   103.10785446
_cell_angle_beta   104.18997765
_cell_angle_gamma   89.77887551
_symmetry_Int_Tables_number   1
_chemical_formula_structural   Al2O3
_chemical_formula_sum   'Al18 O27'
_cell_volume   477.81978620
_cell_formula_units_Z   9
loop_
 _symmetry_equiv_pos_site_id
 _symmetry_equiv_pos_as_xyz
  1  'x, y, z'
loop_
 _atom_site_type_symbol
 _atom_site_label
 _atom_site_symmetry_multiplicity
 _atom_site_fract_x
 _atom_site_fract_y
 _atom_site_fract_z
 _atom_site_occupancy
  Al  Al0  1  0.09108100  0.79108400  0.83635200  1
  Al  Al1  1  0.34444500  0.67085100  0.93756800  1
  Al  Al2  1  0.08855600  0.78933000  0.63572300  1
  Al  Al3  1  0.34096700  0.67311800  0.73640200  1
  Al  Al4  1  0.65839700  0.30635300  0.86340300  1
  Al  Al5  1  0.33746800  0.65001000  0.53534000  1
  Al  Al6  1  0.91551700  0.19482600  0.96617800  1
  Al  Al7  1  0.65614900  0.30343800  0.66284300  1
  Al  Al8  1  0.37737100  0.79244600  0.34520100  1
  Al  Al9  1  0.90976600  0.19579800  0.76395500  1
  Al  Al10  1  0.09513600  0.77550600  0.03773500  1
  Al  Al11  1  0.59829700  0.60398600  0.43973400  1
  Al  Al12  1  0.34958300  0.65188700  0.13908000  1
  Al  Al13  1  0.90665700  0.18741800  0.56287800  1
  Al  Al14  1  0.63974800  0.52444800  0.25669800  1
  Al  Al15  1  0.88613800  0.27450900  0.35430600  1
  Al  Al16  1  0.66573600  0.28694400  0.06639600  1
  Al  Al17  1  0.94098400  0.18584400  0.17611800  1
  O  O0  1  0.17083100  0.10359000  0.86811100  1
  O  O1  1  0.18062000  0.56371500  0.87212000  1
  O  O2  1  0.50536900  0.24444600  0.00216800  1
  O  O3  1  0.17119900  0.10191400  0.66859700  1
  O  O4  1  0.17618100  0.56008200  0.67063100  1
  O  O5  1  0.49852100  0.24892900  0.79953300  1
  O  O6  1  0.51124500  0.73793400  0.80436000  1
  O  O7  1  0.16693300  0.56413500  0.46701600  1
  O  O8  1  0.83610500  0.42765300  0.93429000  1
  O  O9  1  0.85135000  0.88172800  0.94061700  1
  O  O10  1  0.49673400  0.23534100  0.59894300  1
  O  O11  1  0.50814700  0.74285400  0.60355600  1
  O  O12  1  0.10166300  0.64203600  0.24181000  1
  O  O13  1  0.83229100  0.43201800  0.73299500  1
  O  O14  1  0.84631100  0.88271200  0.73883400  1
  O  O15  1  0.46521200  0.32017900  0.38597300  1
  O  O16  1  0.50099800  0.79714800  0.40195700  1
  O  O17  1  0.17466100  0.08683800  0.06958000  1
  O  O18  1  0.18741900  0.55192100  0.07450100  1
  O  O19  1  0.83903100  0.43352800  0.53569000  1
  O  O20  1  0.83104400  0.87591200  0.53290000  1
  O  O21  1  0.52367500  0.23505700  0.20923800  1
  O  O22  1  0.77201000  0.48819600  0.31556300  1
  O  O23  1  0.82949000  0.95087900  0.32786100  1
  O  O24  1  0.51536600  0.72752700  0.00577500  1
  O  O25  1  0.84602800  0.40895600  0.13816800  1
  O  O26  1  0.87556800  0.86217700  0.14970300  1
loop_
_geom_bond_atom_site_label_1
_geom_bond_atom_site_label_2
_geom_bond_distance
_geom_bond_site_symmetry_2
Al0 O6 1.743713 1_455
Al0 O6 1.743749 1_555
Al0 O0 1.791180 1_565
Al0 O1 1.837518 1_555
Al1 O1 1.877967 1_555
Al1 O9 1.887133 1_455
Al1 O9 1.890882 1_555
Al1 O24 1.955996 1_556
Al1 O8 2.001808 1_555
Al1 O8 2.010148 1_455
Al2 O11 1.744808 1_555
Al2 O11 1.745201 1_455
Al2 O3 1.801412 1_565
Al2 O4 1.827877 1_555
Al3 O14 1.884595 1_455
Al3 O14 1.888242 1_555
Al3 O4 1.889984 1_555
Al3 O6 1.945867 1_555
Al3 O13 1.993454 1_555
Al3 O13 2.001816 1_455
Al4 O5 1.829932 1_555
Al4 O0 1.894372 1_655
Al4 O0 1.898362 1_555
Al4 O8 2.036705 1_555
Al4 O1 2.043081 1_555
Al4 O1 2.052737 1_655
Al5 O19 1.919395 1_555
Al5 O19 1.923527 1_455
Al5 O11 1.951470 1_555
Al5 O7 1.953819 1_555
Al5 O20 1.963231 1_455
Al5 O20 1.969278 1_555
Al6 O9 1.749660 1_545
Al6 O8 1.781751 1_555
Al6 O2 1.804740 1_656
Al6 O2 1.804953 1_556
Al7 O10 1.828041 1_555
Al7 O3 1.896849 1_655
Al7 O3 1.900826 1_555
Al7 O13 2.020838 1_555
Al7 O4 2.041305 1_555
Al7 O4 2.051541 1_655
Al8 O16 1.663821 1_555
Al8 O23 1.854304 1_555
Al8 O23 1.869557 1_455
Al8 O22 2.217789 1_555
Al8 O22 2.345910 1_455
Al9 O14 1.747131 1_545
Al9 O13 1.779377 1_555
Al9 O5 1.798514 1_655
Al9 O5 1.798913 1_555
Al10 O24 1.742079 1_455
Al10 O24 1.742234 1_555
Al10 O17 1.786220 1_565
Al10 O18 1.841635 1_555
Al11 O7 1.724670 1_655
Al11 O7 1.725064 1_555
Al11 O16 1.727048 1_555
Al11 O15 1.969693 1_555
Al12 O18 1.850632 1_555
Al12 O26 1.876006 1_455
Al12 O26 1.880154 1_555
Al12 O25 2.007227 1_555
Al12 O25 2.020539 1_455
Al13 O19 1.755012 1_555
Al13 O20 1.771649 1_545
Al13 O10 1.805867 1_655
Al13 O10 1.805960 1_555
Al14 O12 1.721132 1_555
Al14 O12 1.721722 1_655
Al14 O22 1.790152 1_555
Al14 O21 1.883494 1_555
Al15 O15 1.737462 1_655
Al15 O15 1.737507 1_555
Al15 O23 1.808768 1_545
Al15 O22 1.841134 1_555
Al16 O2 1.847528 1_555
Al16 O17 1.876871 1_655
Al16 O17 1.879344 1_555
Al16 O25 2.061699 1_555
Al16 O18 2.071197 1_555
Al16 O18 2.085156 1_655
Al17 O21 1.759730 1_655
Al17 O21 1.759780 1_555
Al17 O26 1.808662 1_545
Al17 O25 1.865599 1_555
