# generated using pymatgen
data_Tm2ReC2
_symmetry_space_group_name_H-M   'P 1'
_cell_length_a   5.03640600
_cell_length_b   6.51670400
_cell_length_c   9.72898100
_cell_angle_alpha   90.00000000
_cell_angle_beta   90.00000000
_cell_angle_gamma   90.00000000
_symmetry_Int_Tables_number   1
_chemical_formula_structural   Tm2ReC2
_chemical_formula_sum   'Tm8 Re4 C8'
_cell_volume   319.31261977
_cell_formula_units_Z   4
loop_
 _symmetry_equiv_pos_site_id
 _symmetry_equiv_pos_as_xyz
  1  'x, y, z'
loop_
 _atom_site_type_symbol
 _atom_site_label
 _atom_site_symmetry_multiplicity
 _atom_site_fract_x
 _atom_site_fract_y
 _atom_site_fract_z
 _atom_site_occupancy
  Tm  Tm0  1  0.25000000  0.81782300  0.94396800  1
  Tm  Tm1  1  0.25000000  0.31782300  0.55603200  1
  Tm  Tm2  1  0.75000000  0.18217700  0.05603200  1
  Tm  Tm3  1  0.75000000  0.68217700  0.44396800  1
  Tm  Tm4  1  0.25000000  0.46877000  0.21813300  1
  Tm  Tm5  1  0.25000000  0.96877000  0.28186700  1
  Tm  Tm6  1  0.75000000  0.53123000  0.78186700  1
  Tm  Tm7  1  0.75000000  0.03123000  0.71813300  1
  Re  Re0  1  0.25000000  0.27616300  0.86751500  1
  Re  Re1  1  0.25000000  0.77616300  0.63248500  1
  Re  Re2  1  0.75000000  0.72383700  0.13248500  1
  Re  Re3  1  0.75000000  0.22383700  0.36751500  1
  C  C0  1  0.25000000  0.04203800  0.74021100  1
  C  C1  1  0.25000000  0.54203800  0.75978900  1
  C  C2  1  0.75000000  0.95796200  0.25978900  1
  C  C3  1  0.75000000  0.45796200  0.24021100  1
  C  C4  1  0.25000000  0.67314500  0.44596600  1
  C  C5  1  0.25000000  0.17314500  0.05403400  1
  C  C6  1  0.75000000  0.32685500  0.55403400  1
  C  C7  1  0.75000000  0.82685500  0.94596600  1
loop_
_geom_bond_atom_site_label_1
_geom_bond_atom_site_label_2
_geom_bond_distance
_geom_bond_site_symmetry_2
C0 Re0 1.965148 1_555
C0 Re1 2.024954 1_545
C0 Tm0 2.462649 1_545
C0 Tm7 2.528328 1_555
C0 Tm7 2.528328 1_455
C0 Tm1 2.537868 1_555
C1 Re1 1.965148 1_555
C1 Re0 2.024954 1_555
C1 Tm1 2.462649 1_555
C1 Tm6 2.528328 1_455
C1 Tm6 2.528328 1_555
C1 Tm0 2.537868 1_555
C2 Re2 1.965148 1_555
C2 Re3 2.024954 1_565
C2 Tm2 2.462649 1_565
C2 Tm5 2.528328 1_655
C2 Tm5 2.528328 1_555
C2 Tm3 2.537868 1_555
C3 Re3 1.965148 1_555
C3 Re2 2.024954 1_555
C3 Tm3 2.462649 1_555
C3 Tm4 2.528328 1_655
C3 Tm4 2.528328 1_555
C3 Tm2 2.537868 1_555
C4 Re1 1.934842 1_555
C4 Tm5 2.502053 1_555
C4 Tm3 2.518966 1_455
C4 Tm3 2.518966 1_555
C4 Tm1 2.551146 1_555
C4 Tm4 2.585937 1_555
C5 Re0 1.934842 1_554
C5 Tm4 2.502053 1_555
C5 Tm2 2.518966 1_555
C5 Tm2 2.518966 1_455
C5 Tm0 2.551146 1_544
C5 Tm5 2.585937 1_545
C6 Re3 1.934842 1_555
C6 Tm7 2.502053 1_555
C6 Tm1 2.518966 1_655
C6 Tm1 2.518966 1_555
C6 Tm3 2.551146 1_555
C6 Tm6 2.585937 1_555
C7 Re2 1.934842 1_556
C7 Tm6 2.502053 1_555
C7 Tm0 2.518966 1_555
C7 Tm0 2.518966 1_655
C7 Tm2 2.551146 1_566
C7 Tm7 2.585937 1_565
