# generated using pymatgen
data_Tm5Mg24
_symmetry_space_group_name_H-M   'P 1'
_cell_length_a   9.66026896
_cell_length_b   9.66026896
_cell_length_c   9.66027423
_cell_angle_alpha   109.47123536
_cell_angle_beta   109.47123536
_cell_angle_gamma   109.47120591
_symmetry_Int_Tables_number   1
_chemical_formula_structural   Tm5Mg24
_chemical_formula_sum   'Tm5 Mg24'
_cell_volume   693.97835046
_cell_formula_units_Z   1
loop_
 _symmetry_equiv_pos_site_id
 _symmetry_equiv_pos_as_xyz
  1  'x, y, z'
loop_
 _atom_site_type_symbol
 _atom_site_label
 _atom_site_symmetry_multiplicity
 _atom_site_fract_x
 _atom_site_fract_y
 _atom_site_fract_z
 _atom_site_occupancy
  Tm  Tm0  1  0.37221867  0.37221867  0.37221867  1
  Tm  Tm1  1  0.00000000  0.62778133  -0.00000000  1
  Tm  Tm2  1  0.62778133  0.00000000  -0.00000000  1
  Tm  Tm3  1  -0.00000000  -0.00000000  0.62778133  1
  Tm  Tm4  1  -0.00000000  -0.00000000  0.00000000  1
  Mg  Mg0  1  0.63012150  0.63012150  0.82070255  1
  Mg  Mg1  1  -0.00000000  0.19058205  0.36987850  1
  Mg  Mg2  1  0.19058205  -0.00000000  0.36987850  1
  Mg  Mg3  1  0.80941795  0.17929745  0.80941795  1
  Mg  Mg4  1  0.17929745  0.80941795  0.80941795  1
  Mg  Mg5  1  0.32237051  0.32237051  0.71378253  1
  Mg  Mg6  1  0.39141302  0.67762949  -0.00000000  1
  Mg  Mg7  1  0.67762949  0.39141302  -0.00000000  1
  Mg  Mg8  1  0.60858698  0.28621747  0.60858698  1
  Mg  Mg9  1  0.39141302  -0.00000000  0.67762949  1
  Mg  Mg10  1  -0.00000000  0.39141302  0.67762949  1
  Mg  Mg11  1  0.28621747  0.60858698  0.60858698  1
  Mg  Mg12  1  0.71378253  0.32237051  0.32237051  1
  Mg  Mg13  1  0.32237051  0.71378253  0.32237051  1
  Mg  Mg14  1  0.67762949  0.00000000  0.39141302  1
  Mg  Mg15  1  0.00000000  0.67762949  0.39141302  1
  Mg  Mg16  1  0.60858698  0.60858698  0.28621747  1
  Mg  Mg17  1  0.80941795  0.80941795  0.17929745  1
  Mg  Mg18  1  0.36987850  0.19058205  -0.00000000  1
  Mg  Mg19  1  0.19058205  0.36987850  -0.00000000  1
  Mg  Mg20  1  0.63012150  0.82070255  0.63012150  1
  Mg  Mg21  1  0.36987850  0.00000000  0.19058205  1
  Mg  Mg22  1  0.00000000  0.36987850  0.19058205  1
  Mg  Mg23  1  0.82070255  0.63012150  0.63012150  1
loop_
_geom_bond_atom_site_label_1
_geom_bond_atom_site_label_2
_geom_bond_distance
_geom_bond_site_symmetry_2
Tm0 Tm4 3.595732 1_555
Tm1 Tm4 3.595732 1_565
Tm2 Tm4 3.595732 1_655
Tm3 Tm4 3.595734 1_556
Mg0 Mg17 2.828446 1_556
Mg0 Mg5 2.959257 1_555
Mg0 Mg20 3.006446 1_555
Mg0 Mg23 3.006446 1_555
Mg0 Mg11 3.161620 1_555
Mg0 Mg8 3.161620 1_555
Mg0 Mg7 3.371437 1_556
Mg0 Mg6 3.371437 1_556
Mg0 Tm2 3.423713 1_566
Mg0 Tm1 3.423713 1_656
Mg0 Tm4 3.430915 1_666
Mg0 Tm0 3.557323 1_555
Mg1 Mg22 2.828430 1_555
Mg1 Mg10 2.959258 1_555
Mg1 Mg2 3.006461 1_555
Mg1 Mg17 3.006461 1_445
Mg1 Mg5 3.161626 1_555
Mg1 Mg14 3.161632 1_455
Mg1 Mg11 3.371432 1_555
Mg1 Mg12 3.371438 1_455
Mg1 Tm2 3.423712 1_455
Mg1 Tm0 3.423713 1_555
Mg1 Tm4 3.430918 1_555
Mg1 Tm3 3.557331 1_555
Mg2 Mg21 2.828430 1_555
Mg2 Mg9 2.959258 1_555
Mg2 Mg5 3.161626 1_555
Mg2 Mg8 3.371432 1_555
Mg2 Tm1 3.423712 1_545
Mg2 Tm0 3.423713 1_555
Mg2 Tm4 3.430918 1_555
Mg2 Tm3 3.557331 1_555
Mg3 Mg8 2.959258 1_555
Mg3 Mg7 3.161626 1_556
Mg3 Mg9 3.371430 1_555
Mg3 Tm3 3.423717 1_655
Mg3 Tm2 3.423719 1_556
Mg3 Tm4 3.430925 1_656
Mg3 Tm1 3.557321 1_656
Mg4 Mg6 3.161626 1_556
Mg4 Mg9 3.161627 1_565
Mg4 Tm3 3.423717 1_565
Mg4 Tm1 3.423719 1_556
Mg4 Tm4 3.430925 1_566
Mg4 Tm2 3.557321 1_566
Mg5 Tm3 3.189267 1_555
Mg5 Mg7 3.284244 1_556
Mg5 Mg6 3.284244 1_556
Mg5 Mg8 3.328639 1_555
Mg5 Mg9 3.328648 1_555
Mg5 Tm0 3.648986 1_555
Mg6 Tm2 3.189264 1_565
Mg6 Tm1 3.648993 1_555
Mg7 Tm1 3.189264 1_655
Mg7 Mg9 3.328646 1_554
Mg7 Mg8 3.328649 1_554
Mg7 Tm2 3.648993 1_555
Mg8 Tm0 3.189257 1_555
Mg8 Mg9 3.284248 1_555
Mg8 Tm1 3.648991 1_656
Mg9 Tm2 3.189264 1_556
Mg9 Tm3 3.648993 1_555
Mg10 Mg3 3.161627 1_455
Mg10 Mg19 3.161632 1_556
Mg10 Tm1 3.189264 1_556
Mg10 Mg12 3.284245 1_455
Mg10 Mg11 3.284248 1_555
Mg10 Mg14 3.328646 1_455
Mg10 Mg6 3.328646 1_556
Mg10 Mg5 3.328648 1_555
Mg10 Mg8 3.328648 1_455
Mg10 Mg4 3.371430 1_555
Mg10 Mg23 3.371436 1_455
Mg10 Tm3 3.648993 1_555
Mg11 Mg4 2.959258 1_555
Mg11 Mg20 3.161621 1_555
Mg11 Tm0 3.189257 1_555
Mg11 Mg15 3.284247 1_555
Mg11 Mg5 3.328639 1_555
Mg11 Mg13 3.328640 1_555
Mg11 Mg9 3.328648 1_565
Mg11 Mg6 3.328649 1_556
Mg11 Mg22 3.371432 1_555
Mg11 Tm2 3.648991 1_566
Mg12 Mg23 2.959258 1_555
Mg12 Mg21 3.161625 1_555
Mg12 Mg18 3.161625 1_555
Mg12 Tm2 3.189267 1_555
Mg12 Mg15 3.284245 1_655
Mg12 Mg16 3.328638 1_555
Mg12 Mg8 3.328640 1_555
Mg12 Mg14 3.328648 1_555
Mg12 Mg7 3.328649 1_555
Mg12 Mg22 3.371440 1_655
Mg12 Tm0 3.648984 1_555
Mg13 Mg20 2.959258 1_555
Mg13 Mg22 3.161625 1_555
Mg13 Mg19 3.161625 1_555
Mg13 Tm1 3.189267 1_555
Mg13 Mg14 3.284245 1_565
Mg13 Mg9 3.284245 1_565
Mg13 Mg16 3.328638 1_555
Mg13 Mg15 3.328648 1_555
Mg13 Mg6 3.328649 1_555
Mg13 Mg2 3.371438 1_565
Mg13 Mg21 3.371440 1_565
Mg13 Tm0 3.648984 1_555
Mg14 Mg21 2.959257 1_555
Mg14 Mg17 3.161626 1_545
Mg14 Tm3 3.189263 1_655
Mg14 Mg8 3.284247 1_555
Mg14 Mg6 3.328647 1_545
Mg14 Mg16 3.328648 1_545
Mg14 Mg3 3.371431 1_555
Mg14 Mg20 3.371438 1_545
Mg14 Tm2 3.648995 1_555
Mg15 Mg22 2.959257 1_555
Mg15 Mg17 3.161626 1_455
Mg15 Mg2 3.161632 1_565
Mg15 Tm3 3.189263 1_565
Mg15 Mg9 3.328646 1_565
Mg15 Mg7 3.328647 1_455
Mg15 Mg16 3.328648 1_455
Mg15 Mg4 3.371431 1_555
Mg15 Mg23 3.371438 1_455
Mg15 Tm1 3.648995 1_555
Mg16 Mg17 2.959259 1_555
Mg16 Mg23 3.161621 1_555
Mg16 Mg20 3.161621 1_555
Mg16 Tm0 3.189257 1_555
Mg16 Mg7 3.284248 1_555
Mg16 Mg6 3.284248 1_555
Mg16 Mg18 3.371432 1_555
Mg16 Mg19 3.371432 1_555
Mg16 Tm3 3.648991 1_665
Mg17 Mg2 3.006461 1_665
Mg17 Mg6 3.371430 1_555
Mg17 Mg7 3.371430 1_555
Mg17 Tm1 3.423717 1_655
Mg17 Tm2 3.423717 1_565
Mg17 Tm4 3.430926 1_665
Mg17 Tm3 3.557322 1_665
Mg18 Mg19 2.828429 1_555
Mg18 Mg7 2.959258 1_555
Mg18 Mg4 3.006461 1_544
Mg18 Mg21 3.006462 1_555
Mg18 Mg9 3.161632 1_554
Mg18 Mg5 3.371440 1_554
Mg18 Tm3 3.423712 1_554
Mg18 Tm0 3.423713 1_555
Mg18 Tm4 3.430917 1_555
Mg18 Tm2 3.557329 1_555
Mg19 Mg6 2.959258 1_555
Mg19 Mg3 3.006461 1_454
Mg19 Mg22 3.006462 1_555
Mg19 Mg5 3.371440 1_554
Mg19 Tm3 3.423712 1_554
Mg19 Tm0 3.423713 1_555
Mg19 Tm4 3.430917 1_555
Mg19 Tm1 3.557329 1_555
Mg20 Mg3 2.828444 1_565
Mg20 Mg23 3.006445 1_555
Mg20 Mg9 3.371436 1_565
Mg20 Tm3 3.423714 1_665
Mg20 Tm2 3.423715 1_566
Mg20 Tm4 3.430915 1_666
Mg20 Tm0 3.557322 1_555
Mg21 Mg4 3.006462 1_544
Mg21 Mg6 3.161631 1_545
Mg21 Mg8 3.371432 1_555
Mg21 Tm0 3.423712 1_555
Mg21 Tm1 3.423712 1_545
Mg21 Tm4 3.430916 1_555
Mg21 Tm2 3.557331 1_555
Mg22 Mg3 3.006462 1_454
Mg22 Mg7 3.161631 1_455
Mg22 Tm0 3.423712 1_555
Mg22 Tm2 3.423712 1_455
Mg22 Tm4 3.430916 1_555
Mg22 Tm1 3.557331 1_555
Mg23 Mg4 2.828444 1_655
Mg23 Mg8 3.161621 1_555
Mg23 Tm3 3.423714 1_665
Mg23 Tm1 3.423715 1_656
Mg23 Tm4 3.430915 1_666
Mg23 Tm0 3.557322 1_555
