# generated using pymatgen
data_Mg14MnVO16
_symmetry_space_group_name_H-M   'P 1'
_cell_length_a   4.29166800
_cell_length_b   8.56555000
_cell_length_c   8.58885800
_cell_angle_alpha   90.00000000
_cell_angle_beta   90.00000000
_cell_angle_gamma   90.00000000
_symmetry_Int_Tables_number   1
_chemical_formula_structural   Mg14MnVO16
_chemical_formula_sum   'Mg14 Mn1 V1 O16'
_cell_volume   315.73068735
_cell_formula_units_Z   1
loop_
 _symmetry_equiv_pos_site_id
 _symmetry_equiv_pos_as_xyz
  1  'x, y, z'
loop_
 _atom_site_type_symbol
 _atom_site_label
 _atom_site_symmetry_multiplicity
 _atom_site_fract_x
 _atom_site_fract_y
 _atom_site_fract_z
 _atom_site_occupancy
  Mg  Mg0  1  0.00000000  0.50000000  0.00000000  1
  Mg  Mg1  1  0.00000000  0.50000000  0.50000000  1
  Mg  Mg2  1  0.50000000  0.00000000  0.25071700  1
  Mg  Mg3  1  0.50000000  0.00000000  0.74928300  1
  Mg  Mg4  1  0.50000000  0.50000000  0.25007500  1
  Mg  Mg5  1  0.50000000  0.50000000  0.74992500  1
  Mg  Mg6  1  0.50000000  0.25197200  0.00000000  1
  Mg  Mg7  1  0.50000000  0.25093400  0.50000000  1
  Mg  Mg8  1  0.50000000  0.74802800  0.00000000  1
  Mg  Mg9  1  0.50000000  0.74906600  0.50000000  1
  Mg  Mg10  1  0.00000000  0.25139000  0.25021100  1
  Mg  Mg11  1  0.00000000  0.25139000  0.74978900  1
  Mg  Mg12  1  0.00000000  0.74861000  0.25021100  1
  Mg  Mg13  1  0.00000000  0.74861000  0.74978900  1
  Mn  Mn0  1  0.00000000  0.00000000  0.00000000  1
  V  V0  1  0.00000000  0.00000000  0.50000000  1
  O  O0  1  0.00000000  0.25789000  0.00000000  1
  O  O1  1  0.00000000  0.25553700  0.50000000  1
  O  O2  1  0.00000000  0.74211000  0.00000000  1
  O  O3  1  0.00000000  0.74446300  0.50000000  1
  O  O4  1  0.50000000  0.24914900  0.25001500  1
  O  O5  1  0.50000000  0.24914900  0.74998500  1
  O  O6  1  0.50000000  0.75085100  0.25001500  1
  O  O7  1  0.50000000  0.75085100  0.74998500  1
  O  O8  1  0.50000000  0.00000000  0.00000000  1
  O  O9  1  0.50000000  0.00000000  0.50000000  1
  O  O10  1  0.50000000  0.50000000  0.00000000  1
  O  O11  1  0.50000000  0.50000000  0.50000000  1
  O  O12  1  0.00000000  0.00000000  0.25092600  1
  O  O13  1  0.00000000  0.00000000  0.74907400  1
  O  O14  1  0.00000000  0.50000000  0.25067400  1
  O  O15  1  0.00000000  0.50000000  0.74932600  1
loop_
_geom_bond_atom_site_label_1
_geom_bond_atom_site_label_2
_geom_bond_distance
_geom_bond_site_symmetry_2
Mg0 O0 2.073805 1_555
Mg0 O2 2.073805 1_555
Mg0 O10 2.145834 1_455
Mg0 O10 2.145834 1_555
Mg0 O14 2.153003 1_555
Mg0 O15 2.153003 1_554
Mg1 O3 2.093960 1_555
Mg1 O1 2.093960 1_555
Mg1 O15 2.141426 1_555
Mg1 O14 2.141426 1_555
Mg1 O11 2.145834 1_455
Mg1 O11 2.145834 1_555
Mg2 O4 2.134107 1_555
Mg2 O6 2.134107 1_545
Mg2 O9 2.141056 1_555
Mg2 O12 2.145835 1_655
Mg2 O12 2.145835 1_555
Mg2 O8 2.153373 1_555
Mg3 O5 2.134107 1_555
Mg3 O7 2.134107 1_545
Mg3 O9 2.141056 1_555
Mg3 O13 2.145835 1_555
Mg3 O13 2.145835 1_655
Mg3 O8 2.153373 1_556
Mg4 O14 2.145840 1_655
Mg4 O14 2.145840 1_555
Mg4 O11 2.146570 1_555
Mg4 O10 2.147859 1_555
Mg4 O6 2.148677 1_555
Mg4 O4 2.148677 1_555
Mg5 O15 2.145840 1_655
Mg5 O15 2.145840 1_555
Mg5 O11 2.146570 1_555
Mg5 O10 2.147859 1_556
Mg5 O7 2.148677 1_555
Mg5 O5 2.148677 1_555
Mg6 O10 2.124496 1_555
Mg6 O0 2.146433 1_555
Mg6 O0 2.146433 1_655
Mg6 O5 2.147479 1_554
Mg6 O4 2.147479 1_555
Mg6 O8 2.158279 1_555
Mg7 O11 2.133387 1_555
Mg7 O1 2.146196 1_655
Mg7 O1 2.146196 1_555
Mg7 O5 2.147140 1_555
Mg7 O4 2.147140 1_555
Mg7 O9 2.149388 1_555
Mg8 O10 2.124496 1_555
Mg8 O2 2.146433 1_655
Mg8 O2 2.146433 1_555
Mg8 O7 2.147479 1_554
Mg8 O6 2.147479 1_555
Mg8 O8 2.158279 1_565
Mg9 O11 2.133387 1_555
Mg9 O3 2.146196 1_555
Mg9 O3 2.146196 1_655
Mg9 O7 2.147140 1_555
Mg9 O6 2.147140 1_555
Mg9 O9 2.149388 1_565
Mg10 O14 2.129485 1_555
Mg10 O1 2.145696 1_555
Mg10 O4 2.145921 1_455
Mg10 O4 2.145921 1_555
Mg10 O0 2.149748 1_555
Mg10 O12 2.153302 1_555
Mg11 O15 2.129485 1_555
Mg11 O1 2.145696 1_555
Mg11 O5 2.145921 1_455
Mg11 O5 2.145921 1_555
Mg11 O0 2.149748 1_556
Mg11 O13 2.153302 1_555
Mg12 O14 2.129485 1_555
Mg12 O3 2.145696 1_555
Mg12 O6 2.145921 1_455
Mg12 O6 2.145921 1_555
Mg12 O2 2.149748 1_555
Mg12 O12 2.153302 1_565
Mg13 O15 2.129485 1_555
Mg13 O3 2.145696 1_555
Mg13 O7 2.145921 1_555
Mg13 O7 2.145921 1_455
Mg13 O2 2.149748 1_556
Mg13 O13 2.153302 1_565
Mn0 O8 2.145834 1_455
Mn0 O8 2.145834 1_555
Mn0 O13 2.155168 1_554
Mn0 O12 2.155168 1_555
Mn0 O2 2.208970 1_545
Mn0 O0 2.208970 1_555
O1 V0 2.188815 1_555
O3 V0 2.188815 1_565
O9 V0 2.145834 1_555
O9 V0 2.145834 1_655
O12 V0 2.139261 1_555
O13 V0 2.139261 1_555
