# generated using pymatgen
data_Li9Mn2Co5O16
_symmetry_space_group_name_H-M   'P 1'
_cell_length_a   6.48194400
_cell_length_b   6.51561879
_cell_length_c   7.84010659
_cell_angle_alpha   114.53770026
_cell_angle_beta   87.67343945
_cell_angle_gamma   107.91951278
_symmetry_Int_Tables_number   1
_chemical_formula_structural   Li9Mn2Co5O16
_chemical_formula_sum   'Li9 Mn2 Co5 O16'
_cell_volume   285.14468820
_cell_formula_units_Z   1
loop_
 _symmetry_equiv_pos_site_id
 _symmetry_equiv_pos_as_xyz
  1  'x, y, z'
loop_
 _atom_site_type_symbol
 _atom_site_label
 _atom_site_symmetry_multiplicity
 _atom_site_fract_x
 _atom_site_fract_y
 _atom_site_fract_z
 _atom_site_occupancy
  Li  Li0  1  0.19029800  0.69281700  0.93634200  1
  Li  Li1  1  0.68651900  0.19323300  0.43706100  1
  Li  Li2  1  0.31348100  0.80676700  0.56293900  1
  Li  Li3  1  0.80970200  0.30718300  0.06365800  1
  Li  Li4  1  0.43730900  0.93579700  0.18604800  1
  Li  Li5  1  0.92916600  0.43932600  0.67642000  1
  Li  Li6  1  0.56269100  0.06420300  0.81395200  1
  Li  Li7  1  0.07083400  0.56067400  0.32358000  1
  Li  Li8  1  0.50000000  0.50000000  0.50000000  1
  Mn  Mn0  1  0.25082700  0.24504200  0.25493100  1
  Mn  Mn1  1  0.74917300  0.75495800  0.74506900  1
  Co  Co0  1  0.37746500  0.37371000  0.86671100  1
  Co  Co1  1  0.87595600  0.87477900  0.37480500  1
  Co  Co2  1  0.00000000  0.00000000  0.00000000  1
  Co  Co3  1  0.62253500  0.62629000  0.13328900  1
  Co  Co4  1  0.12404400  0.12522100  0.62519500  1
  O  O0  1  0.34298900  0.57544200  0.20953800  1
  O  O1  1  0.85086200  0.08115200  0.71614300  1
  O  O2  1  0.48292300  0.71682700  0.83809600  1
  O  O3  1  0.97655200  0.20470300  0.33864400  1
  O  O4  1  0.62303100  0.83820700  0.48708600  1
  O  O5  1  0.11338800  0.31944500  0.99052300  1
  O  O6  1  0.73281700  0.96762400  0.08706200  1
  O  O7  1  0.21470100  0.43860000  0.61092100  1
  O  O8  1  0.02344800  0.79529700  0.66135600  1
  O  O9  1  0.51707700  0.28317300  0.16190400  1
  O  O10  1  0.14913800  0.91884800  0.28385700  1
  O  O11  1  0.65701100  0.42455800  0.79046200  1
  O  O12  1  0.26718300  0.03237600  0.91293800  1
  O  O13  1  0.78529900  0.56140000  0.38907900  1
  O  O14  1  0.37696900  0.16179300  0.51291400  1
  O  O15  1  0.88661200  0.68055500  0.00947700  1
loop_
_geom_bond_atom_site_label_1
_geom_bond_atom_site_label_2
_geom_bond_distance
_geom_bond_site_symmetry_2
Li0 O2 2.003599 1_555
Li0 O15 2.014866 1_456
Li0 O12 2.197311 1_565
Li1 O3 1.994726 1_555
Li1 O14 2.042788 1_555
Li1 O4 2.414287 1_545
Li2 O8 1.994726 1_555
Li2 O4 2.042788 1_555
Li2 O14 2.414287 1_565
Li3 O9 2.003599 1_555
Li3 O5 2.014866 1_654
Li3 O6 2.197311 1_545
Li4 O10 1.978994 1_555
Li4 O6 2.020602 1_555
Li4 O9 2.248061 1_565
Li4 O0 2.321028 1_555
Li4 O2 2.554651 1_554
Li5 O7 1.901439 1_655
Li5 O11 1.938980 1_555
Li5 O8 2.261931 1_655
Li5 O1 2.379667 1_555
Li6 O1 1.978994 1_555
Li6 O12 2.020602 1_555
Li6 O2 2.248061 1_545
Li6 O11 2.321028 1_555
Li6 O9 2.554651 1_556
Li7 O13 1.901439 1_455
Li7 O0 1.938980 1_555
Li7 O3 2.261931 1_455
Li7 O10 2.379667 1_555
Li8 O7 2.009807 1_555
Li8 O13 2.009807 1_555
Li8 O4 2.144657 1_555
Li8 O14 2.144657 1_555
Li8 O2 2.448760 1_555
Li8 O9 2.448760 1_555
Mn0 O9 1.832094 1_555
Mn0 O3 1.849739 1_455
Mn0 O10 2.128185 1_545
Mn0 O0 2.223873 1_555
Mn1 O2 1.832094 1_555
Mn1 O8 1.849739 1_655
Mn1 O1 2.128185 1_565
Mn1 O11 2.223873 1_555
Co0 O11 1.859466 1_555
Co0 O5 1.942944 1_555
Co0 O2 2.231440 1_555
Co1 O4 1.826510 1_555
Co1 O10 1.865770 1_655
Co1 O13 1.993270 1_555
Co1 O3 2.180646 1_565
Co2 O12 1.818948 1_554
Co2 O6 1.818948 1_445
Co2 O15 2.015072 1_445
Co2 O5 2.015072 1_554
Co3 O0 1.859466 1_555
Co3 O15 1.942944 1_555
Co3 O9 2.231440 1_555
Co4 O14 1.826510 1_555
Co4 O1 1.865770 1_455
Co4 O7 1.993270 1_555
Co4 O8 2.180646 1_545
