# generated using pymatgen
data_Tb3CuSe6
_symmetry_space_group_name_H-M   'P 1'
_cell_length_a   7.77984800
_cell_length_b   7.11467100
_cell_length_c   17.11074477
_cell_angle_alpha   89.60492434
_cell_angle_beta   90.00000000
_cell_angle_gamma   90.00000000
_symmetry_Int_Tables_number   1
_chemical_formula_structural   Tb3CuSe6
_chemical_formula_sum   'Tb12 Cu4 Se24'
_cell_volume   947.07532729
_cell_formula_units_Z   4
loop_
 _symmetry_equiv_pos_site_id
 _symmetry_equiv_pos_as_xyz
  1  'x, y, z'
loop_
 _atom_site_type_symbol
 _atom_site_label
 _atom_site_symmetry_multiplicity
 _atom_site_fract_x
 _atom_site_fract_y
 _atom_site_fract_z
 _atom_site_occupancy
  Tb  Tb0  1  0.93957000  0.26565500  0.75039000  1
  Tb  Tb1  1  0.06043000  0.73434500  0.24961000  1
  Tb  Tb2  1  0.56043000  0.26565500  0.25039000  1
  Tb  Tb3  1  0.43957000  0.73434500  0.74961000  1
  Tb  Tb4  1  0.55802300  0.23883400  0.58802000  1
  Tb  Tb5  1  0.44179600  0.76818000  0.09111500  1
  Tb  Tb6  1  0.94179600  0.23182000  0.40888500  1
  Tb  Tb7  1  0.05802300  0.76116600  0.91198000  1
  Tb  Tb8  1  0.44197700  0.76116600  0.41198000  1
  Tb  Tb9  1  0.55820400  0.23182000  0.90888500  1
  Tb  Tb10  1  0.05820400  0.76818000  0.59111500  1
  Tb  Tb11  1  0.94197700  0.23883400  0.08802000  1
  Cu  Cu0  1  0.21097800  0.39372500  0.52688600  1
  Cu  Cu1  1  0.71097800  0.60627500  0.97311400  1
  Cu  Cu2  1  0.78902200  0.60627500  0.47311400  1
  Cu  Cu3  1  0.28902200  0.39372500  0.02688600  1
  Se  Se0  1  0.90889300  0.39043100  0.58163500  1
  Se  Se1  1  0.09213100  0.61752700  0.08121300  1
  Se  Se2  1  0.59213100  0.38247300  0.41878700  1
  Se  Se3  1  0.40889300  0.60956900  0.91836500  1
  Se  Se4  1  0.09110700  0.60956900  0.41836500  1
  Se  Se5  1  0.90786900  0.38247300  0.91878700  1
  Se  Se6  1  0.40786900  0.61752700  0.58121300  1
  Se  Se7  1  0.59110700  0.39043100  0.08163500  1
  Se  Se8  1  0.59674800  0.38117500  0.74892500  1
  Se  Se9  1  0.40325200  0.61882500  0.25107500  1
  Se  Se10  1  0.90325200  0.38117500  0.24892500  1
  Se  Se11  1  0.09674800  0.61882500  0.75107500  1
  Se  Se12  1  0.25000400  0.07823100  0.67905700  1
  Se  Se13  1  0.75059600  0.92506700  0.17736600  1
  Se  Se14  1  0.25059600  0.07493300  0.32263400  1
  Se  Se15  1  0.75000400  0.92176900  0.82094300  1
  Se  Se16  1  0.74999600  0.92176900  0.32094300  1
  Se  Se17  1  0.24940400  0.07493300  0.82263400  1
  Se  Se18  1  0.74940400  0.92506700  0.67736600  1
  Se  Se19  1  0.24999600  0.07823100  0.17905700  1
  Se  Se20  1  0.25074500  0.06389000  0.49926900  1
  Se  Se21  1  0.75074500  0.93611000  0.00073100  1
  Se  Se22  1  0.74925500  0.93611000  0.50073100  1
  Se  Se23  1  0.24925500  0.06389000  0.99926900  1
loop_
_geom_bond_atom_site_label_1
_geom_bond_atom_site_label_2
_geom_bond_distance
_geom_bond_site_symmetry_2
Cu0 Se6 2.401297 1_555
Cu0 Se20 2.416849 1_555
Cu0 Se0 2.530051 1_455
Cu0 Se4 2.576162 1_555
Cu0 Tb4 3.095560 1_555
Cu0 Tb10 3.123847 1_555
Cu0 Tb6 3.133896 1_455
Cu1 Se5 2.401297 1_555
Cu1 Se21 2.416849 1_556
Cu1 Se3 2.530051 1_555
Cu1 Se7 2.576162 1_556
Cu1 Tb7 3.095560 1_655
Cu1 Tb9 3.123847 1_555
Cu1 Tb5 3.133896 1_556
Cu2 Se2 2.401297 1_555
Cu2 Se22 2.416849 1_555
Cu2 Se4 2.530051 1_655
Cu2 Se0 2.576162 1_555
Cu2 Tb8 3.095560 1_555
Cu2 Tb6 3.123847 1_555
Cu2 Tb10 3.133896 1_655
Cu3 Se1 2.401297 1_555
Cu3 Se23 2.416849 1_554
Cu3 Se7 2.530051 1_555
Cu3 Se3 2.576162 1_554
Cu3 Tb11 3.095560 1_455
Cu3 Tb5 3.123847 1_555
Cu3 Tb9 3.133896 1_554
Se0 Tb10 2.933369 1_655
Se0 Tb4 2.936827 1_555
Se0 Tb0 3.024481 1_555
Se0 Tb6 3.181539 1_555
Se1 Tb5 2.929218 1_555
Se1 Tb11 2.938196 1_455
Se1 Tb1 3.014477 1_555
Se1 Tb7 3.075560 1_554
Se2 Tb6 2.929218 1_555
Se2 Tb8 2.938196 1_555
Se2 Tb2 3.014477 1_555
Se2 Tb4 3.075560 1_555
Se3 Tb9 2.933369 1_555
Se3 Tb7 2.936827 1_555
Se3 Tb3 3.024481 1_555
Se3 Tb5 3.181539 1_556
Se4 Tb6 2.933369 1_455
Se4 Tb8 2.936827 1_555
Se4 Tb1 3.024481 1_555
Se4 Tb10 3.181539 1_555
Se5 Tb9 2.929218 1_555
Se5 Tb7 2.938196 1_655
Se5 Tb0 3.014477 1_555
Se5 Tb11 3.075560 1_556
Se6 Tb10 2.929218 1_555
Se6 Tb4 2.938196 1_555
Se6 Tb3 3.014477 1_555
Se6 Tb8 3.075560 1_555
Se7 Tb5 2.933369 1_555
Se7 Tb11 2.936827 1_555
Se7 Tb2 3.024481 1_555
Se7 Tb9 3.181539 1_554
Se8 Tb0 2.790928 1_555
Se8 Tb3 2.794537 1_555
Se8 Tb9 2.944540 1_555
Se8 Tb4 2.955492 1_555
Se9 Tb1 2.790928 1_555
Se9 Tb2 2.794537 1_555
Se9 Tb5 2.944540 1_555
Se9 Tb8 2.955492 1_555
Se10 Tb2 2.790928 1_555
Se10 Tb1 2.794537 1_655
Se10 Tb6 2.944540 1_555
Se10 Tb11 2.955492 1_555
Se11 Tb3 2.790928 1_555
Se11 Tb0 2.794537 1_455
Se11 Tb10 2.944540 1_555
Se11 Tb7 2.955492 1_555
Se12 Se17 2.456664 1_555
Se12 Tb0 3.020460 1_455
Se12 Tb10 3.066380 1_545
Se12 Tb4 3.074083 1_555
Se12 Tb3 3.094783 1_545
Se13 Se16 2.456664 1_555
Se13 Se21 3.022836 1_555
Se13 Tb1 3.025971 1_655
Se13 Tb5 3.036160 1_555
Se13 Tb11 3.080640 1_565
Se13 Tb2 3.108627 1_565
Se14 Se19 2.456664 1_555
Se14 Se20 3.022836 1_555
Se14 Tb2 3.025971 1_555
Se14 Tb6 3.036160 1_455
Se14 Tb8 3.080640 1_545
Se14 Tb1 3.108627 1_545
Se15 Se18 2.456664 1_555
Se15 Tb3 3.020460 1_555
Se15 Tb9 3.066380 1_565
Se15 Tb7 3.074083 1_655
Se15 Tb0 3.094783 1_565
Se16 Tb1 3.020460 1_655
Se16 Tb6 3.066380 1_565
Se16 Tb8 3.074083 1_555
Se16 Tb2 3.094783 1_565
Se17 Se23 3.022836 1_555
Se17 Tb0 3.025971 1_455
Se17 Tb9 3.036160 1_555
Se17 Tb7 3.080640 1_545
Se17 Tb3 3.108627 1_545
Se18 Se22 3.022836 1_555
Se18 Tb3 3.025971 1_555
Se18 Tb10 3.036160 1_655
Se18 Tb4 3.080640 1_565
Se18 Tb0 3.108627 1_565
Se19 Tb2 3.020460 1_555
Se19 Tb5 3.066380 1_545
Se19 Tb11 3.074083 1_455
Se19 Tb1 3.094783 1_545
Se20 Tb10 3.015678 1_545
Se20 Tb8 3.021148 1_545
Se20 Tb6 3.093694 1_455
Se20 Tb4 3.097782 1_555
Se21 Tb9 3.015678 1_564
Se21 Tb11 3.021148 1_565
Se21 Tb5 3.093694 1_555
Se21 Tb7 3.097782 1_654
Se22 Tb6 3.015678 1_565
Se22 Tb4 3.021148 1_565
Se22 Tb10 3.093694 1_655
Se22 Tb8 3.097782 1_555
Se23 Tb5 3.015678 1_546
Se23 Tb7 3.021148 1_545
Se23 Tb9 3.093694 1_555
Se23 Tb11 3.097782 1_456
