# generated using pymatgen
data_ZrCrAgS4
_symmetry_space_group_name_H-M   'P 1'
_cell_length_a   7.14491313
_cell_length_b   6.12202297
_cell_length_c   6.56542107
_cell_angle_alpha   92.21634455
_cell_angle_beta   89.99909616
_cell_angle_gamma   90.00027733
_symmetry_Int_Tables_number   1
_chemical_formula_structural   ZrCrAgS4
_chemical_formula_sum   'Zr2 Cr2 Ag2 S8'
_cell_volume   286.96536695
_cell_formula_units_Z   2
loop_
 _symmetry_equiv_pos_site_id
 _symmetry_equiv_pos_as_xyz
  1  'x, y, z'
loop_
 _atom_site_type_symbol
 _atom_site_label
 _atom_site_symmetry_multiplicity
 _atom_site_fract_x
 _atom_site_fract_y
 _atom_site_fract_z
 _atom_site_occupancy
  Zr  Zr0  1  0.76471100  0.50001400  0.49999700  1
  Zr  Zr1  1  0.48363700  0.00001000  0.49999500  1
  Cr  Cr0  1  0.24770200  0.49999900  0.50001200  1
  Cr  Cr1  1  0.00204400  0.99997500  0.49998900  1
  Ag  Ag0  1  0.00635800  0.00000100  0.99999600  1
  Ag  Ag1  1  0.49343200  0.99999300  0.99999600  1
  S  S0  1  0.01528700  0.31597300  0.28664800  1
  S  S1  1  0.49096700  0.33760200  0.28005200  1
  S  S2  1  0.23607100  0.81317100  0.28205800  1
  S  S3  1  0.75874000  0.83621400  0.27774200  1
  S  S4  1  0.23606500  0.18682000  0.71796000  1
  S  S5  1  0.75873700  0.16380200  0.72225500  1
  S  S6  1  0.49095900  0.66240700  0.71994100  1
  S  S7  1  0.01528800  0.68401900  0.71335800  1
loop_
_geom_bond_atom_site_label_1
_geom_bond_atom_site_label_2
_geom_bond_distance
_geom_bond_site_symmetry_2
Cr0 S7 2.422098 1_555
Cr0 S0 2.422209 1_555
Cr0 S2 2.437742 1_555
Cr0 S4 2.437752 1_555
Cr0 S6 2.446084 1_555
Cr0 S1 2.446190 1_555
Cr1 S7 2.433602 1_555
Cr1 S0 2.433698 1_565
Cr1 S2 2.454462 1_555
Cr1 S4 2.454716 1_565
Cr1 S3 2.458274 1_455
Cr1 S5 2.458491 1_465
Ag0 S7 2.646910 1_545
Ag0 S0 2.646931 1_556
Ag0 S4 2.755750 1_555
Ag0 S2 2.755964 1_546
Ag0 S3 2.757182 1_446
Ag0 S5 2.757250 1_455
Ag1 S6 2.712642 1_555
Ag1 S1 2.712749 1_566
Ag1 S5 2.839954 1_565
Ag1 S3 2.839965 1_556
Ag1 S4 2.877896 1_565
Ag1 S2 2.877923 1_556
S0 Zr0 2.512906 1_455
S1 Zr1 2.567138 1_555
S1 Zr0 2.605439 1_555
S2 Zr1 2.521495 1_565
S3 Zr0 2.568981 1_555
S3 Zr1 2.623936 1_565
S4 Zr1 2.521526 1_555
S5 Zr0 2.569053 1_555
S5 Zr1 2.623963 1_555
S6 Zr1 2.567206 1_565
S6 Zr0 2.605410 1_555
S7 Zr0 2.512883 1_455
