# generated using pymatgen
data_BaMg14Nb
_symmetry_space_group_name_H-M   'P 1'
_cell_length_a   6.59272567
_cell_length_b   6.59272511
_cell_length_c   10.28401440
_cell_angle_alpha   90.00000000
_cell_angle_beta   90.00000000
_cell_angle_gamma   120.00000286
_symmetry_Int_Tables_number   1
_chemical_formula_structural   BaMg14Nb
_chemical_formula_sum   'Ba1 Mg14 Nb1'
_cell_volume   387.10008589
_cell_formula_units_Z   1
loop_
 _symmetry_equiv_pos_site_id
 _symmetry_equiv_pos_as_xyz
  1  'x, y, z'
loop_
 _atom_site_type_symbol
 _atom_site_label
 _atom_site_symmetry_multiplicity
 _atom_site_fract_x
 _atom_site_fract_y
 _atom_site_fract_z
 _atom_site_occupancy
  Ba  Ba0  1  0.16666700  0.33333300  0.12500000  1
  Mg  Mg0  1  0.17945606  0.83972753  0.12500000  1
  Mg  Mg1  1  0.16315563  0.83157731  0.62500000  1
  Mg  Mg2  1  0.66027247  0.32054394  0.12500000  1
  Mg  Mg3  1  0.66842269  0.33684437  0.62500000  1
  Mg  Mg4  1  0.66027247  0.83972753  0.12500000  1
  Mg  Mg5  1  0.66842269  0.83157731  0.62500000  1
  Mg  Mg6  1  0.33477442  0.16522558  0.39387321  1
  Mg  Mg7  1  0.33477442  0.16522558  0.85612679  1
  Mg  Mg8  1  0.33477442  0.66954984  0.39387321  1
  Mg  Mg9  1  0.33477442  0.66954984  0.85612679  1
  Mg  Mg10  1  0.83045016  0.16522558  0.39387321  1
  Mg  Mg11  1  0.83045016  0.16522558  0.85612679  1
  Mg  Mg12  1  0.83333300  0.66666700  0.36919372  1
  Mg  Mg13  1  0.83333300  0.66666700  0.88080628  1
  Nb  Nb0  1  0.16666700  0.33333300  0.62500000  1
loop_
_geom_bond_atom_site_label_1
_geom_bond_atom_site_label_2
_geom_bond_distance
_geom_bond_site_symmetry_2
Ba0 Mg4 3.297171 1_555
Ba0 Mg0 3.297171 1_555
Ba0 Mg4 3.297171 1_445
Ba0 Mg0 3.297171 1_545
Ba0 Mg2 3.297171 1_455
Ba0 Mg2 3.297171 1_555
Ba0 Mg6 3.366103 1_555
Ba0 Mg7 3.366103 1_554
Ba0 Mg9 3.366109 1_554
Ba0 Mg8 3.366109 1_555
Ba0 Mg10 3.366110 1_455
Ba0 Mg11 3.366110 1_454
Mg0 Mg2 3.169890 1_565
Mg0 Mg4 3.169891 1_555
Mg0 Mg13 3.195601 1_454
Mg0 Mg12 3.195601 1_455
Mg0 Mg8 3.331942 1_555
Mg0 Mg9 3.331942 1_554
Mg0 Mg6 3.331949 1_565
Mg0 Mg7 3.331949 1_564
Mg0 Mg2 3.422835 1_455
Mg0 Mg4 3.422835 1_455
Mg1 Mg8 3.046229 1_555
Mg1 Mg9 3.046229 1_555
Mg1 Mg6 3.046236 1_565
Mg1 Mg7 3.046236 1_565
Mg1 Mg12 3.235239 1_455
Mg1 Mg13 3.235239 1_455
Mg1 Mg3 3.261638 1_455
Mg1 Mg5 3.261639 1_455
Mg1 Nb0 3.296423 1_555
Mg1 Nb0 3.296424 1_565
Mg1 Mg3 3.331087 1_565
Mg1 Mg5 3.331087 1_555
Mg2 Mg4 3.169890 1_545
Mg2 Mg7 3.331949 1_554
Mg2 Mg6 3.331949 1_555
Mg2 Mg4 3.422835 1_555
Mg3 Mg6 3.046236 1_555
Mg3 Mg7 3.046236 1_555
Mg3 Mg5 3.261638 1_555
Mg3 Nb0 3.296424 1_655
Mg3 Nb0 3.296424 1_555
Mg3 Mg5 3.331087 1_545
Mg4 Mg9 3.331949 1_554
Mg4 Mg8 3.331949 1_555
Mg5 Mg9 3.046237 1_555
Mg5 Mg8 3.046237 1_555
Mg5 Nb0 3.296424 1_665
Mg5 Nb0 3.296424 1_555
Mg6 Nb0 3.055258 1_555
Mg6 Mg8 3.267854 1_545
Mg6 Mg8 3.324871 1_555
Mg7 Nb0 3.055258 1_555
Mg7 Mg9 3.267854 1_545
Mg7 Mg9 3.324871 1_555
Mg8 Nb0 3.055265 1_555
Mg9 Nb0 3.055265 1_555
Mg10 Mg3 3.046229 1_555
Mg10 Mg5 3.046236 1_545
Mg10 Nb0 3.055265 1_655
Mg10 Mg8 3.267854 1_545
Mg10 Mg6 3.267854 1_555
Mg10 Mg12 3.306160 1_555
Mg10 Mg12 3.306160 1_545
Mg10 Mg8 3.324871 1_655
Mg10 Mg6 3.324871 1_655
Mg10 Mg2 3.331942 1_555
Mg10 Mg4 3.331949 1_545
Mg11 Mg3 3.046229 1_555
Mg11 Mg5 3.046236 1_545
Mg11 Nb0 3.055265 1_655
Mg11 Mg9 3.267854 1_545
Mg11 Mg7 3.267854 1_555
Mg11 Mg13 3.306160 1_555
Mg11 Mg13 3.306160 1_545
Mg11 Mg9 3.324871 1_655
Mg11 Mg7 3.324871 1_655
Mg11 Mg2 3.331942 1_556
Mg11 Mg4 3.331949 1_546
Mg12 Mg4 3.195594 1_555
Mg12 Mg2 3.195601 1_555
Mg12 Mg5 3.235233 1_555
Mg12 Mg3 3.235239 1_555
Mg12 Mg6 3.306160 1_555
Mg12 Mg6 3.306160 1_665
Mg12 Mg8 3.306160 1_655
Mg12 Mg8 3.306160 1_555
Mg13 Mg4 3.195594 1_556
Mg13 Mg2 3.195601 1_556
Mg13 Mg5 3.235233 1_555
Mg13 Mg3 3.235239 1_555
Mg13 Mg7 3.306160 1_555
Mg13 Mg7 3.306160 1_665
Mg13 Mg9 3.306160 1_655
Mg13 Mg9 3.306160 1_555
