# generated using pymatgen
data_CoPtO2
_symmetry_space_group_name_H-M   'P 1'
_cell_length_a   2.82379033
_cell_length_b   8.35946915
_cell_length_c   7.34178154
_cell_angle_alpha   76.83159428
_cell_angle_beta   78.91037074
_cell_angle_gamma   80.27568891
_symmetry_Int_Tables_number   1
_chemical_formula_structural   CoPtO2
_chemical_formula_sum   'Co4 Pt4 O8'
_cell_volume   164.17239815
_cell_formula_units_Z   4
loop_
 _symmetry_equiv_pos_site_id
 _symmetry_equiv_pos_as_xyz
  1  'x, y, z'
loop_
 _atom_site_type_symbol
 _atom_site_label
 _atom_site_symmetry_multiplicity
 _atom_site_fract_x
 _atom_site_fract_y
 _atom_site_fract_z
 _atom_site_occupancy
  Co  Co0  1  0.24993185  0.12498598  0.37505670  1
  Co  Co1  1  0.75006669  0.37501369  0.12494213  1
  Co  Co2  1  0.25006916  0.62501922  0.87494894  1
  Co  Co3  1  0.74993092  0.87498005  0.62505229  1
  Pt  Pt0  1  0.99993030  -0.00004369  0.00010759  1
  Pt  Pt1  1  0.49999435  0.25000135  0.74999909  1
  Pt  Pt2  1  0.00006714  0.50004162  0.49989645  1
  Pt  Pt3  1  0.50000512  0.75000080  0.24999584  1
  O  O0  1  0.66832079  0.10965177  0.55365799  1
  O  O1  1  0.16848292  0.35968039  0.30351211  1
  O  O2  1  0.66850277  0.60972641  0.05350593  1
  O  O3  1  0.16831638  0.85969444  0.80365207  1
  O  O4  1  0.83151660  0.14031895  0.19648867  1
  O  O5  1  0.33167699  0.39034980  0.94634054  1
  O  O6  1  0.83168859  0.64030331  0.69634908  1
  O  O7  1  0.33150042  0.89027391  0.44649357  1
loop_
_geom_bond_atom_site_label_1
_geom_bond_atom_site_label_2
_geom_bond_distance
_geom_bond_site_symmetry_2
Co0 O4 1.896979 1_555
Co0 O0 1.897160 1_455
Co0 O4 1.897183 1_455
Co0 O0 1.897320 1_555
Co0 O1 1.898009 1_555
Co0 O7 1.898098 1_545
Co1 O1 1.896985 1_555
Co1 O5 1.897160 1_654
Co1 O1 1.897196 1_655
Co1 O5 1.897320 1_554
Co1 O4 1.898012 1_555
Co1 O2 1.898103 1_555
Co2 O2 1.896881 1_456
Co2 O6 1.897148 1_555
Co2 O2 1.897223 1_556
Co2 O6 1.897376 1_455
Co2 O5 1.897738 1_555
Co2 O3 1.897739 1_555
Co3 O7 1.896894 1_655
Co3 O3 1.897138 1_555
Co3 O7 1.897225 1_555
Co3 O3 1.897383 1_655
Co3 O6 1.897752 1_555
Co3 O0 1.897757 1_565
O0 Pt1 1.999737 1_555
O1 Pt2 2.000063 1_555
O2 Pt3 2.000174 1_555
O3 Pt0 1.999896 1_466
O4 Pt0 2.000052 1_555
O5 Pt1 1.999732 1_555
O6 Pt2 1.999877 1_655
O7 Pt3 2.000213 1_555
