# generated using pymatgen
data_S
_symmetry_space_group_name_H-M   'P 1'
_cell_length_a   10.22707600
_cell_length_b   14.09050300
_cell_length_c   19.20966032
_cell_angle_alpha   68.76723425
_cell_angle_beta   90.00000000
_cell_angle_gamma   90.00000000
_symmetry_Int_Tables_number   1
_chemical_formula_structural   S
_chemical_formula_sum   S80
_cell_volume   2580.28704960
_cell_formula_units_Z   80
loop_
 _symmetry_equiv_pos_site_id
 _symmetry_equiv_pos_as_xyz
  1  'x, y, z'
loop_
 _atom_site_type_symbol
 _atom_site_label
 _atom_site_symmetry_multiplicity
 _atom_site_fract_x
 _atom_site_fract_y
 _atom_site_fract_z
 _atom_site_occupancy
  S  S0  1  0.01224700  0.00000000  0.00000000  1
  S  S1  1  0.51216100  0.00000000  0.50000000  1
  S  S2  1  0.19442800  0.50000000  0.00000000  1
  S  S3  1  0.69533400  0.50000000  0.50000000  1
  S  S4  1  0.63199100  0.12493100  0.45092300  1
  S  S5  1  0.63199100  0.87506900  0.54907700  1
  S  S6  1  0.67644400  0.18527300  0.53153900  1
  S  S7  1  0.67644400  0.81472700  0.46846100  1
  S  S8  1  0.52833400  0.28567400  0.53075400  1
  S  S9  1  0.52833400  0.71432600  0.46924600  1
  S  S10  1  0.57568300  0.42504800  0.44998900  1
  S  S11  1  0.57568300  0.57495200  0.55001100  1
  S  S12  1  0.05001500  0.07054900  0.45719300  1
  S  S13  1  0.05001500  0.92945100  0.54280700  1
  S  S14  1  0.19071400  0.15818500  0.48273700  1
  S  S15  1  0.19071400  0.84181500  0.51726300  1
  S  S16  1  0.10406900  0.22339300  0.55182800  1
  S  S17  1  0.10406900  0.77660700  0.44817200  1
  S  S18  1  0.01576600  0.35714700  0.48388100  1
  S  S19  1  0.01576600  0.64285300  0.51611900  1
  S  S20  1  0.15602300  0.52943300  0.54217200  1
  S  S21  1  0.15602300  0.47056700  0.45782800  1
  S  S22  1  0.80532500  0.04906900  0.30290200  1
  S  S23  1  0.80532500  0.95093100  0.69709800  1
  S  S24  1  0.72331000  0.01529300  0.76829600  1
  S  S25  1  0.72331000  0.98470700  0.23170400  1
  S  S26  1  0.86568800  0.10372700  0.79127500  1
  S  S27  1  0.86568800  0.89627300  0.20872500  1
  S  S28  1  0.85954300  0.24523000  0.70613300  1
  S  S29  1  0.85954300  0.75477000  0.29386700  1
  S  S30  1  0.71987300  0.33077000  0.73440900  1
  S  S31  1  0.71987300  0.66923000  0.26559100  1
  S  S32  1  0.81100700  0.39773300  0.80147900  1
  S  S33  1  0.81100700  0.60226700  0.19852100  1
  S  S34  1  0.89667600  0.53116000  0.73205600  1
  S  S35  1  0.89667600  0.46884000  0.26794400  1
  S  S36  1  0.75500900  0.64375800  0.70669700  1
  S  S37  1  0.75500900  0.35624200  0.29330300  1
  S  S38  1  0.75824100  0.70352100  0.79048900  1
  S  S39  1  0.75824100  0.29647900  0.20951100  1
  S  S40  1  0.89725500  0.18186100  0.23700900  1
  S  S41  1  0.89725500  0.81813900  0.76299100  1
  S  S42  1  0.38219200  0.11123100  0.28209000  1
  S  S43  1  0.38219200  0.88876900  0.71791000  1
  S  S44  1  0.23394700  0.01213100  0.28051000  1
  S  S45  1  0.23394700  0.98786900  0.71949000  1
  S  S46  1  0.28275600  0.04876800  0.79925200  1
  S  S47  1  0.28275600  0.95123200  0.20074800  1
  S  S48  1  0.39998100  0.17455400  0.74792300  1
  S  S49  1  0.39998100  0.82544600  0.25207700  1
  S  S50  1  0.27805500  0.29861000  0.70068900  1
  S  S51  1  0.27805500  0.70139000  0.29931100  1
  S  S52  1  0.23841500  0.35907900  0.78187100  1
  S  S53  1  0.23841500  0.64092100  0.21812900  1
  S  S54  1  0.38661600  0.46080400  0.77815900  1
  S  S55  1  0.38661600  0.53919600  0.22184100  1
  S  S56  1  0.33410500  0.59989200  0.69887600  1
  S  S57  1  0.33410500  0.40010800  0.30112400  1
  S  S58  1  0.21716100  0.67286200  0.75175900  1
  S  S59  1  0.21716100  0.32713800  0.24824100  1
  S  S60  1  0.33952300  0.74903800  0.79950200  1
  S  S61  1  0.33952300  0.25096200  0.20049800  1
  S  S62  1  0.60417800  0.77711300  0.94721400  1
  S  S63  1  0.60417800  0.22288700  0.05278600  1
  S  S64  1  0.69019500  0.15784600  0.98327700  1
  S  S65  1  0.69019500  0.84215400  0.01672300  1
  S  S66  1  0.54884800  0.07075400  0.95753700  1
  S  S67  1  0.54884800  0.92924600  0.04246300  1
  S  S68  1  0.51497100  0.35625200  0.98507200  1
  S  S69  1  0.51497100  0.64374800  0.01492800  1
  S  S70  1  0.65478100  0.47005300  0.95806000  1
  S  S71  1  0.65478100  0.52994700  0.04194000  1
  S  S72  1  0.17491200  0.81377400  0.96937300  1
  S  S73  1  0.17491200  0.18622600  0.03062700  1
  S  S74  1  0.13157400  0.12492400  0.95022000  1
  S  S75  1  0.13157400  0.87507600  0.04978000  1
  S  S76  1  0.02696800  0.71311300  0.97060800  1
  S  S77  1  0.02696800  0.28688700  0.02939200  1
  S  S78  1  0.07567200  0.42597500  0.94875100  1
  S  S79  1  0.07567200  0.57402500  0.05124900  1
loop_
_geom_bond_atom_site_label_1
_geom_bond_atom_site_label_2
_geom_bond_distance
_geom_bond_site_symmetry_2
S0 S74 2.069535 1_554
S0 S75 2.069535 1_545
S1 S5 2.070606 1_545
S1 S4 2.070606 1_555
S2 S79 2.067846 1_555
S2 S78 2.067846 1_554
S4 S6 2.069177 1_555
S5 S7 2.069177 1_555
S6 S8 2.068953 1_555
S7 S9 2.068953 1_555
S10 S3 2.066540 1_555
S10 S8 2.071562 1_555
S11 S3 2.066540 1_555
S11 S9 2.071562 1_555
S12 S14 2.067613 1_555
S12 S13 2.071027 1_545
S13 S15 2.067613 1_555
S14 S16 2.067416 1_555
S15 S17 2.067416 1_555
S16 S18 2.071083 1_555
S17 S19 2.071083 1_555
S18 S21 2.069486 1_555
S19 S20 2.069486 1_555
S20 S21 2.070387 1_555
S22 S40 2.066808 1_555
S22 S25 2.072432 1_545
S23 S41 2.066808 1_555
S23 S24 2.072432 1_565
S24 S26 2.065485 1_555
S25 S27 2.065485 1_555
S26 S28 2.071807 1_555
S27 S29 2.071807 1_555
S28 S30 2.064548 1_555
S29 S31 2.064548 1_555
S30 S32 2.073507 1_555
S31 S33 2.073507 1_555
S32 S34 2.065109 1_555
S33 S35 2.065109 1_555
S34 S36 2.072152 1_555
S35 S37 2.072152 1_555
S36 S38 2.069502 1_555
S37 S39 2.069502 1_555
S38 S41 2.071393 1_555
S39 S40 2.071393 1_555
S42 S44 2.068831 1_555
S42 S61 2.070828 1_555
S43 S45 2.068831 1_555
S43 S60 2.070828 1_555
S44 S47 2.070135 1_545
S45 S46 2.070135 1_565
S46 S48 2.070038 1_555
S47 S49 2.070038 1_555
S48 S50 2.069999 1_555
S49 S51 2.069999 1_555
S50 S52 2.069956 1_555
S51 S53 2.069956 1_555
S52 S54 2.069492 1_555
S53 S55 2.069492 1_555
S54 S56 2.070480 1_555
S55 S57 2.070480 1_555
S56 S58 2.067871 1_555
S57 S59 2.067871 1_555
S58 S60 2.066943 1_555
S59 S61 2.066943 1_555
S62 S65 2.069540 1_556
S62 S69 2.070060 1_556
S63 S64 2.069540 1_554
S63 S68 2.070060 1_554
S64 S66 2.068719 1_555
S65 S67 2.068719 1_555
S66 S67 2.069074 1_546
S68 S70 2.069372 1_555
S69 S71 2.069372 1_555
S70 S71 2.072074 1_556
S72 S76 2.068144 1_555
S72 S75 2.072362 1_556
S73 S77 2.068144 1_555
S73 S74 2.072362 1_554
S76 S79 2.071158 1_556
S77 S78 2.071158 1_554
