# generated using pymatgen
data_Eu2Hf2O7
_symmetry_space_group_name_H-M   'P 1'
_cell_length_a   7.46603575
_cell_length_b   7.46624905
_cell_length_c   7.46621134
_cell_angle_alpha   60.00066367
_cell_angle_beta   59.99932056
_cell_angle_gamma   59.99929367
_symmetry_Int_Tables_number   1
_chemical_formula_structural   Eu2Hf2O7
_chemical_formula_sum   'Eu4 Hf4 O14'
_cell_volume   294.28996160
_cell_formula_units_Z   2
loop_
 _symmetry_equiv_pos_site_id
 _symmetry_equiv_pos_as_xyz
  1  'x, y, z'
loop_
 _atom_site_type_symbol
 _atom_site_label
 _atom_site_symmetry_multiplicity
 _atom_site_fract_x
 _atom_site_fract_y
 _atom_site_fract_z
 _atom_site_occupancy
  Eu  Eu0  1  0.62500035  0.12499991  0.12500002  1
  Eu  Eu1  1  0.12499999  0.62500030  0.12500000  1
  Eu  Eu2  1  0.12499983  0.12499989  0.62500044  1
  Eu  Eu3  1  0.12500001  0.12499980  0.12499991  1
  Hf  Hf0  1  0.12500001  0.62500002  0.62500005  1
  Hf  Hf1  1  0.62499991  0.12499999  0.62500004  1
  Hf  Hf2  1  0.62500007  0.62499995  0.12500006  1
  Hf  Hf3  1  0.62499999  0.62499996  0.62500017  1
  O  O0  1  0.24990266  0.25006172  0.25003274  1
  O  O1  1  0.00009753  0.99993829  0.99996533  1
  O  O2  1  0.70856331  0.70850776  0.29146868  1
  O  O3  1  0.29141151  0.29152824  0.70853537  1
  O  O4  1  0.70855051  0.29149151  0.70852142  1
  O  O5  1  0.29143184  0.70851835  0.29149914  1
  O  O6  1  0.29143618  0.70851328  0.70855287  1
  O  O7  1  0.70856069  0.29148305  0.29143655  1
  O  O8  1  0.54143660  0.54149239  0.95853151  1
  O  O9  1  0.95858839  0.95847179  0.54146489  1
  O  O10  1  0.54144948  0.95850849  0.54147882  1
  O  O11  1  0.95856808  0.54148164  0.95850108  1
  O  O12  1  0.95856377  0.54148677  0.54144734  1
  O  O13  1  0.54143931  0.95851691  0.95856356  1
loop_
_geom_bond_atom_site_label_1
_geom_bond_atom_site_label_2
_geom_bond_distance
_geom_bond_site_symmetry_2
Eu0 O1 2.286562 1_644
Eu0 O0 2.286565 1_555
Eu0 O7 2.563938 1_555
Eu0 O13 2.563941 1_544
Eu0 O4 2.563956 1_554
Eu0 O10 2.563957 1_545
Eu0 O2 2.564043 1_545
Eu0 O8 2.564045 1_554
Eu1 O1 2.285688 1_554
Eu1 O0 2.285691 1_555
Eu1 O8 2.563627 1_554
Eu1 O2 2.563628 1_455
Eu1 O5 2.563769 1_555
Eu1 O11 2.563772 1_454
Eu1 O6 2.563773 1_554
Eu1 O12 2.563774 1_455
Eu2 O1 2.285841 1_545
Eu2 O0 2.285858 1_555
Eu2 O4 2.563696 1_455
Eu2 O10 2.563697 1_545
Eu2 O3 2.563921 1_555
Eu2 O9 2.563922 1_445
Eu2 O6 2.564000 1_545
Eu2 O12 2.564002 1_455
Eu3 O0 2.286025 1_555
Eu3 O1 2.286032 1_544
Eu3 O13 2.563632 1_544
Eu3 O7 2.563632 1_455
Eu3 O3 2.563881 1_554
Eu3 O9 2.563883 1_445
Eu3 O5 2.563975 1_545
Eu3 O11 2.563977 1_454
Hf0 O3 2.064045 1_555
Hf0 O9 2.064045 1_455
Hf0 O5 2.064223 1_555
Hf0 O11 2.064224 1_455
Hf0 O12 2.064226 1_455
Hf0 O6 2.064226 1_555
Hf1 O10 2.064646 1_545
Hf1 O4 2.064648 1_555
Hf1 O7 2.064654 1_555
Hf1 O13 2.064654 1_545
Hf1 O3 2.064761 1_555
Hf1 O9 2.064762 1_545
Hf2 O7 2.064347 1_555
Hf2 O13 2.064348 1_554
Hf2 O8 2.064484 1_554
Hf2 O2 2.064484 1_555
Hf2 O11 2.064613 1_554
Hf2 O5 2.064615 1_555
Hf3 O4 2.064294 1_555
Hf3 O10 2.064295 1_555
Hf3 O8 2.064438 1_555
Hf3 O2 2.064439 1_555
Hf3 O12 2.064588 1_555
Hf3 O6 2.064589 1_555
