# generated using pymatgen
data_MgIn2
_symmetry_space_group_name_H-M   'P 1'
_cell_length_a   13.90466002
_cell_length_b   13.90466002
_cell_length_c   13.90466002
_cell_angle_alpha   152.41803392
_cell_angle_beta   152.41803392
_cell_angle_gamma   39.40314634
_symmetry_Int_Tables_number   1
_chemical_formula_structural   MgIn2
_chemical_formula_sum   'Mg8 In16'
_cell_volume   575.28821595
_cell_formula_units_Z   8
loop_
 _symmetry_equiv_pos_site_id
 _symmetry_equiv_pos_as_xyz
  1  'x, y, z'
loop_
 _atom_site_type_symbol
 _atom_site_label
 _atom_site_symmetry_multiplicity
 _atom_site_fract_x
 _atom_site_fract_y
 _atom_site_fract_z
 _atom_site_occupancy
  Mg  Mg0_0  1  0.00000000  0.00000000  0.00000000  1
  Mg  Mg0_1  1  0.00000000  0.00000000  0.50000000  1
  Mg  Mg0_2  1  0.00000000  0.50000000  0.00000000  1
  Mg  Mg0_3  1  0.00000000  0.50000000  0.50000000  1
  Mg  Mg0_4  1  0.50000000  0.00000000  0.00000000  1
  Mg  Mg0_5  1  0.50000000  0.00000000  0.50000000  1
  Mg  Mg0_6  1  0.50000000  0.50000000  0.00000000  1
  Mg  Mg0_7  1  0.50000000  0.50000000  0.50000000  1
  In  In0_0  1  0.16953383  0.16953383  0.00000000  1
  In  In0_1  1  0.16953383  0.16953383  0.50000000  1
  In  In0_2  1  0.16953383  0.66953383  0.00000000  1
  In  In0_3  1  0.16953383  0.66953383  0.50000000  1
  In  In0_4  1  0.66953383  0.16953383  0.00000000  1
  In  In0_5  1  0.66953383  0.16953383  0.50000000  1
  In  In0_6  1  0.66953383  0.66953383  0.00000000  1
  In  In0_7  1  0.66953383  0.66953383  0.50000000  1
  In  In1_0  1  0.33046617  0.33046617  0.00000000  1
  In  In1_1  1  0.33046617  0.33046617  0.50000000  1
  In  In1_2  1  0.33046617  0.83046617  0.00000000  1
  In  In1_3  1  0.33046617  0.83046617  0.50000000  1
  In  In1_4  1  0.83046617  0.33046617  0.00000000  1
  In  In1_5  1  0.83046617  0.33046617  0.50000000  1
  In  In1_6  1  0.83046617  0.83046617  0.00000000  1
  In  In1_7  1  0.83046617  0.83046617  0.50000000  1
loop_
_geom_bond_atom_site_label_1
_geom_bond_atom_site_label_2
_geom_bond_distance
_geom_bond_site_symmetry_2
Mg0_0 Mg0_5 3.314602 1_454
Mg0_0 Mg0_3 3.314602 1_555
Mg0_0 Mg0_5 3.314602 1_555
Mg0_0 Mg0_3 3.314602 1_544
Mg0_1 Mg0_2 3.314602 1_545
Mg0_1 Mg0_4 3.314602 1_455
Mg0_1 Mg0_2 3.314602 1_556
Mg0_1 Mg0_4 3.314602 1_556
Mg0_2 Mg0_7 3.314602 1_454
Mg0_2 Mg0_7 3.314602 1_555
Mg0_3 Mg0_6 3.314602 1_556
Mg0_3 Mg0_6 3.314602 1_455
Mg0_4 Mg0_7 3.314602 1_544
Mg0_4 Mg0_7 3.314602 1_555
Mg0_5 Mg0_6 3.314602 1_556
Mg0_5 Mg0_6 3.314602 1_545
In0_0 Mg0_1 3.151436 1_554
In0_0 Mg0_2 3.151436 1_555
In0_0 Mg0_4 3.151436 1_555
In0_0 Mg0_7 3.151436 1_555
In0_0 In1_2 3.306225 1_545
In0_0 In1_4 3.306225 1_455
In0_0 In1_7 3.306225 1_444
In0_0 In1_1 3.306225 1_555
In0_0 In0_5 3.314602 1_555
In0_0 In0_3 3.314602 1_544
In0_0 In0_3 3.314602 1_555
In0_0 In0_5 3.314602 1_454
In0_1 Mg0_0 3.151436 1_555
In0_1 Mg0_3 3.151436 1_555
In0_1 Mg0_6 3.151436 1_556
In0_1 Mg0_5 3.151436 1_555
In0_1 In1_6 3.306225 1_445
In0_1 In1_3 3.306225 1_545
In0_1 In1_5 3.306225 1_455
In0_1 In1_0 3.306225 1_556
In0_1 In0_2 3.314602 1_545
In0_1 In0_2 3.314602 1_556
In0_1 In0_4 3.314602 1_556
In0_1 In0_4 3.314602 1_455
In0_2 Mg0_3 3.151436 1_554
In0_2 Mg0_0 3.151436 1_565
In0_2 Mg0_5 3.151436 1_565
In0_2 Mg0_6 3.151436 1_555
In0_2 In1_6 3.306225 1_455
In0_2 In1_3 3.306225 1_555
In0_2 In1_0 3.306225 1_555
In0_2 In1_5 3.306225 1_454
In0_2 In0_7 3.314602 1_555
In0_2 In0_7 3.314602 1_454
In0_3 Mg0_7 3.151436 1_555
In0_3 Mg0_4 3.151436 1_566
In0_3 Mg0_2 3.151436 1_555
In0_3 Mg0_1 3.151436 1_565
In0_3 In1_1 3.306225 1_555
In0_3 In1_7 3.306225 1_455
In0_3 In1_4 3.306225 1_455
In0_3 In1_2 3.306225 1_556
In0_3 In0_6 3.314602 1_455
In0_3 In0_6 3.314602 1_556
In0_4 Mg0_5 3.151436 1_554
In0_4 Mg0_6 3.151436 1_555
In0_4 Mg0_3 3.151436 1_655
In0_4 Mg0_0 3.151436 1_655
In0_4 In1_6 3.306225 1_545
In0_4 In1_3 3.306225 1_544
In0_4 In1_5 3.306225 1_555
In0_4 In1_0 3.306225 1_555
In0_4 In0_7 3.314602 1_555
In0_4 In0_7 3.314602 1_544
In0_5 Mg0_7 3.151436 1_555
In0_5 Mg0_4 3.151436 1_555
In0_5 Mg0_2 3.151436 1_656
In0_5 Mg0_1 3.151436 1_655
In0_5 In1_4 3.306225 1_556
In0_5 In1_7 3.306225 1_545
In0_5 In1_1 3.306225 1_555
In0_5 In1_2 3.306225 1_545
In0_5 In0_6 3.314602 1_545
In0_5 In0_6 3.314602 1_556
In0_6 Mg0_4 3.151436 1_565
In0_6 Mg0_7 3.151436 1_554
In0_6 Mg0_1 3.151436 1_665
In0_6 Mg0_2 3.151436 1_655
In0_6 In1_7 3.306225 1_555
In0_6 In1_4 3.306225 1_555
In0_6 In1_2 3.306225 1_555
In0_6 In1_1 3.306225 1_554
In0_7 Mg0_5 3.151436 1_565
In0_7 Mg0_6 3.151436 1_555
In0_7 Mg0_3 3.151436 1_655
In0_7 Mg0_0 3.151436 1_666
In0_7 In1_6 3.306225 1_556
In0_7 In1_3 3.306225 1_555
In0_7 In1_5 3.306225 1_555
In0_7 In1_0 3.306225 1_555
In1_0 Mg0_7 3.151436 1_555
In1_0 Mg0_4 3.151436 1_555
In1_0 Mg0_2 3.151436 1_555
In1_0 Mg0_1 3.151436 1_554
In1_0 In1_3 3.314602 1_544
In1_0 In1_3 3.314602 1_555
In1_0 In1_5 3.314602 1_555
In1_0 In1_5 3.314602 1_454
In1_1 Mg0_6 3.151436 1_556
In1_1 Mg0_5 3.151436 1_555
In1_1 Mg0_0 3.151436 1_555
In1_1 Mg0_3 3.151436 1_555
In1_1 In1_2 3.314602 1_556
In1_1 In1_4 3.314602 1_455
In1_1 In1_4 3.314602 1_556
In1_1 In1_2 3.314602 1_545
In1_2 Mg0_5 3.151436 1_565
In1_2 Mg0_6 3.151436 1_555
In1_2 Mg0_3 3.151436 1_554
In1_2 Mg0_0 3.151436 1_565
In1_2 In1_7 3.314602 1_555
In1_2 In1_7 3.314602 1_454
In1_3 Mg0_4 3.151436 1_566
In1_3 Mg0_2 3.151436 1_555
In1_3 Mg0_7 3.151436 1_555
In1_3 Mg0_1 3.151436 1_565
In1_3 In1_6 3.314601 1_556
In1_3 In1_6 3.314602 1_455
In1_4 Mg0_3 3.151436 1_655
In1_4 Mg0_0 3.151436 1_655
In1_4 Mg0_6 3.151436 1_555
In1_4 Mg0_5 3.151436 1_554
In1_4 In1_7 3.314602 1_544
In1_4 In1_7 3.314602 1_555
In1_5 Mg0_1 3.151436 1_655
In1_5 Mg0_2 3.151436 1_656
In1_5 Mg0_4 3.151436 1_555
In1_5 Mg0_7 3.151436 1_555
In1_5 In1_6 3.314602 1_556
In1_5 In1_6 3.314602 1_545
In1_6 Mg0_4 3.151436 1_565
In1_6 Mg0_7 3.151436 1_554
In1_6 Mg0_1 3.151436 1_665
In1_6 Mg0_2 3.151436 1_655
In1_7 Mg0_3 3.151436 1_655
In1_7 Mg0_0 3.151436 1_666
In1_7 Mg0_6 3.151436 1_555
In1_7 Mg0_5 3.151436 1_565
