# generated using pymatgen
data_Sr2CaTi6N2O11
_symmetry_space_group_name_H-M   'P 1'
_cell_length_a   3.88458524
_cell_length_b   7.61837972
_cell_length_c   10.09738925
_cell_angle_alpha   76.00398614
_cell_angle_beta   88.58333979
_cell_angle_gamma   72.90061493
_symmetry_Int_Tables_number   1
_chemical_formula_structural   Sr2CaTi6N2O11
_chemical_formula_sum   'Sr2 Ca1 Ti6 N2 O11'
_cell_volume   276.78931618
_cell_formula_units_Z   1
loop_
 _symmetry_equiv_pos_site_id
 _symmetry_equiv_pos_as_xyz
  1  'x, y, z'
loop_
 _atom_site_type_symbol
 _atom_site_label
 _atom_site_symmetry_multiplicity
 _atom_site_fract_x
 _atom_site_fract_y
 _atom_site_fract_z
 _atom_site_occupancy
  Sr  Sr0  1  0.44558700  0.97003900  0.52258700  1
  Sr  Sr1  1  0.47568500  0.06302100  0.18249600  1
  Ca  Ca0  1  0.57008400  0.96194500  0.86261300  1
  Ti  Ti0  1  0.16415700  0.71928900  0.08020100  1
  Ti  Ti1  1  0.16888600  0.65406700  0.42131800  1
  Ti  Ti2  1  0.22011700  0.54861400  0.75822600  1
  Ti  Ti3  1  0.78485100  0.46481200  0.25824600  1
  Ti  Ti4  1  0.84898900  0.33996700  0.59697500  1
  Ti  Ti5  1  0.86664100  0.28176600  0.94938200  1
  N  N0  1  0.24364600  0.54085000  0.26469400  1
  N  N1  1  0.84106900  0.32902200  0.11966700  1
  O  O0  1  0.04166700  0.90824900  0.33878700  1
  O  O1  1  0.07440400  0.76305200  0.62041700  1
  O  O2  1  0.16432800  0.68348700  0.90440100  1
  O  O3  1  0.64540400  0.74372000  0.10652400  1
  O  O4  1  0.68596800  0.62647000  0.44885600  1
  O  O5  1  0.75767200  0.48179900  0.76734200  1
  O  O6  1  0.31478900  0.40231600  0.59007800  1
  O  O7  1  0.37569600  0.26894600  0.90811900  1
  O  O8  1  0.90673600  0.25905200  0.42905500  1
  O  O9  1  0.01540200  0.10442800  0.71145000  1
  O  O10  1  0.01221500  0.00343500  0.01326300  1
loop_
_geom_bond_atom_site_label_1
_geom_bond_atom_site_label_2
_geom_bond_distance
_geom_bond_site_symmetry_2
Ca0 O7 2.390744 1_565
Ca0 O10 2.458591 1_666
Ca0 O9 2.477212 1_565
Ca0 O9 2.583169 1_665
Ca0 O3 2.585399 1_556
Ca0 O2 2.596630 1_655
Ca0 O10 2.603251 1_566
Ca0 O2 2.943334 1_555
N0 Ti1 1.954284 1_555
N0 Ti0 1.992579 1_555
N0 Ti3 2.013706 1_555
N0 Ti3 2.036481 1_455
N1 Ti5 1.834634 1_554
N1 Ti3 1.904762 1_555
N1 Sr1 2.665357 1_655
N1 Sr1 2.747513 1_555
O0 Ti1 1.834550 1_555
O0 Sr1 2.541979 1_465
O0 Sr1 2.619299 1_565
O0 Sr0 2.669990 1_555
O0 Sr0 2.932017 1_455
O1 Ti2 1.822398 1_555
O1 Ti1 2.336115 1_555
O1 Sr0 2.460624 1_555
O1 Sr0 2.555361 1_455
O2 Ti0 1.859968 1_556
O2 Ti2 1.966751 1_555
O3 Ti0 1.962964 1_555
O3 Ti0 1.985689 1_655
O3 Ti3 2.223719 1_555
O3 Sr1 2.622018 1_565
O4 Ti1 1.954104 1_655
O4 Ti1 1.976661 1_555
O4 Ti4 2.248771 1_555
O4 Ti3 2.490073 1_555
O4 Sr0 2.783545 1_555
O5 Ti2 1.997458 1_555
O5 Ti2 2.000386 1_655
O5 Ti5 2.045588 1_555
O5 Ti4 2.212740 1_555
O6 Ti4 1.987008 1_555
O6 Ti4 1.996933 1_455
O6 Ti1 2.175106 1_555
O6 Ti2 2.214413 1_555
O7 Ti5 1.989694 1_455
O7 Ti5 1.997183 1_555
O7 Ti2 2.218945 1_555
O7 Sr1 2.807162 1_556
O8 Ti4 1.926311 1_555
O8 Ti3 1.988028 1_555
O8 Sr0 2.550112 1_645
O8 Sr0 3.190438 1_545
O9 Ti4 1.823584 1_455
O9 Sr0 2.694111 1_545
O10 Ti5 1.970631 1_454
O10 Ti0 2.012936 1_545
O10 Sr1 2.666969 1_455
O10 Sr1 2.715779 1_555
