# generated using pymatgen
data_CuAs7PS7Cl
_symmetry_space_group_name_H-M   'P 1'
_cell_length_a   13.71316800
_cell_length_b   9.69432100
_cell_length_c   14.06342485
_cell_angle_alpha   83.78025031
_cell_angle_beta   90.00000000
_cell_angle_gamma   90.00000000
_symmetry_Int_Tables_number   1
_chemical_formula_structural   CuAs7PS7Cl
_chemical_formula_sum   'Cu4 As28 P4 S28 Cl4'
_cell_volume   1858.58461854
_cell_formula_units_Z   4
loop_
 _symmetry_equiv_pos_site_id
 _symmetry_equiv_pos_as_xyz
  1  'x, y, z'
loop_
 _atom_site_type_symbol
 _atom_site_label
 _atom_site_symmetry_multiplicity
 _atom_site_fract_x
 _atom_site_fract_y
 _atom_site_fract_z
 _atom_site_occupancy
  Cu  Cu0  1  0.66957400  0.62652100  0.28949100  1
  Cu  Cu1  1  0.16957400  0.37347900  0.21050900  1
  Cu  Cu2  1  0.33042600  0.37347900  0.71050900  1
  Cu  Cu3  1  0.83042600  0.62652100  0.78949100  1
  As  As0  1  0.43856300  0.07581600  0.17302800  1
  As  As1  1  0.93856300  0.92418400  0.32697200  1
  As  As2  1  0.56143700  0.92418400  0.82697200  1
  As  As3  1  0.06143700  0.07581600  0.67302800  1
  As  As4  1  0.38759000  0.02440600  0.34552500  1
  As  As5  1  0.88759000  0.97559400  0.15447500  1
  As  As6  1  0.61241000  0.97559400  0.65447500  1
  As  As7  1  0.11241000  0.02440600  0.84552500  1
  As  As8  1  0.53711200  0.16871200  0.30224200  1
  As  As9  1  0.03711200  0.83128800  0.19775800  1
  As  As10  1  0.46288800  0.83128800  0.69775800  1
  As  As11  1  0.96288800  0.16871200  0.80224200  1
  As  As12  1  0.61105700  0.59816200  0.00960400  1
  As  As13  1  0.11105700  0.40183800  0.49039600  1
  As  As14  1  0.38894300  0.40183800  0.99039600  1
  As  As15  1  0.88894300  0.59816200  0.50960400  1
  As  As16  1  0.66969500  0.38485200  0.92539400  1
  As  As17  1  0.16969500  0.61514800  0.57460600  1
  As  As18  1  0.33030500  0.61514800  0.07460600  1
  As  As19  1  0.83030500  0.38485200  0.42539400  1
  As  As20  1  0.74894400  0.36020700  0.16462800  1
  As  As21  1  0.24894400  0.63979300  0.33537200  1
  As  As22  1  0.25105600  0.63979300  0.83537200  1
  As  As23  1  0.75105600  0.36020700  0.66462800  1
  As  As24  1  0.85799500  0.53377900  0.05695700  1
  As  As25  1  0.35799500  0.46622100  0.44304300  1
  As  As26  1  0.14200500  0.46622100  0.94304300  1
  As  As27  1  0.64200500  0.53377900  0.55695700  1
  P  P0  1  0.58422200  0.82310400  0.29062300  1
  P  P1  1  0.08422200  0.17689600  0.20937700  1
  P  P2  1  0.41577800  0.17689600  0.70937700  1
  P  P3  1  0.91577800  0.82310400  0.79062300  1
  S  S0  1  0.52486900  0.88076100  0.15489000  1
  S  S1  1  0.02486900  0.11923900  0.34511000  1
  S  S2  1  0.47513100  0.11923900  0.84511000  1
  S  S3  1  0.97513100  0.88076100  0.65489000  1
  S  S4  1  0.46197800  0.81592700  0.38228100  1
  S  S5  1  0.96197800  0.18407300  0.11771900  1
  S  S6  1  0.53802200  0.18407300  0.61771900  1
  S  S7  1  0.03802200  0.81592700  0.88228100  1
  S  S8  1  0.65475500  0.00387900  0.32470100  1
  S  S9  1  0.15475500  0.99612100  0.17529900  1
  S  S10  1  0.34524500  0.99612100  0.67529900  1
  S  S11  1  0.84524500  0.00387900  0.82470100  1
  S  S12  1  0.61283700  0.49582000  0.16504600  1
  S  S13  1  0.11283700  0.50418000  0.33495400  1
  S  S14  1  0.38716300  0.50418000  0.83495400  1
  S  S15  1  0.88716300  0.49582000  0.66504600  1
  S  S16  1  0.75304400  0.70977900  0.01955000  1
  S  S17  1  0.25304400  0.29022100  0.48045000  1
  S  S18  1  0.24695600  0.29022100  0.98045000  1
  S  S19  1  0.74695600  0.70977900  0.51955000  1
  S  S20  1  0.83237000  0.44219200  0.91350000  1
  S  S21  1  0.33237000  0.55780800  0.58650000  1
  S  S22  1  0.16763000  0.55780800  0.08650000  1
  S  S23  1  0.66763000  0.44219200  0.41350000  1
  S  S24  1  0.69181900  0.22808300  0.05432800  1
  S  S25  1  0.19181900  0.77191700  0.44567200  1
  S  S26  1  0.30818100  0.77191700  0.94567200  1
  S  S27  1  0.80818100  0.22808300  0.55432800  1
  Cl  Cl0  1  0.84073300  0.64841200  0.26418200  1
  Cl  Cl1  1  0.34073300  0.35158800  0.23581800  1
  Cl  Cl2  1  0.15926700  0.35158800  0.73581800  1
  Cl  Cl3  1  0.65926700  0.64841200  0.76418200  1
loop_
_geom_bond_atom_site_label_1
_geom_bond_atom_site_label_2
_geom_bond_distance
_geom_bond_site_symmetry_2
Cu0 P0 2.237993 1_555
Cu0 S23 2.357988 1_555
Cu0 S12 2.398795 1_555
Cu1 P1 2.237993 1_555
Cu1 S22 2.357988 1_555
Cu1 S13 2.398795 1_555
Cu2 P2 2.237993 1_555
Cu2 S21 2.357988 1_555
Cu2 S14 2.398795 1_555
Cu3 P3 2.237993 1_555
Cu3 S20 2.357988 1_555
Cu3 S15 2.398795 1_555
As0 S0 2.268463 1_545
As1 S1 2.268463 1_665
As2 S2 2.268463 1_565
As3 S3 2.268463 1_445
As4 S4 2.272909 1_545
As5 S5 2.272909 1_565
As6 S6 2.272909 1_565
As7 S7 2.272909 1_545
As8 S8 2.268574 1_555
As9 S9 2.268574 1_555
As10 S10 2.268574 1_555
As11 S11 2.268574 1_555
As12 S16 2.239277 1_555
As12 S12 2.300820 1_555
As13 S17 2.239277 1_555
As13 S13 2.300820 1_555
As14 S18 2.239277 1_555
As14 S14 2.300820 1_555
As15 S19 2.239277 1_555
As15 S15 2.300820 1_555
As16 S24 2.256659 1_556
As16 S20 2.300706 1_555
As17 S25 2.256659 1_555
As17 S21 2.300706 1_555
As18 S26 2.256659 1_554
As18 S22 2.300706 1_555
As19 S27 2.256659 1_555
As19 S23 2.300706 1_555
As20 S24 2.256318 1_555
As20 S12 2.283363 1_555
As21 S25 2.256318 1_555
As21 S13 2.283363 1_555
As22 S26 2.256318 1_555
As22 S14 2.283363 1_555
As23 S27 2.256318 1_555
As23 S15 2.283363 1_555
As24 S16 2.250490 1_555
As24 S20 2.317377 1_554
As25 S17 2.250490 1_555
As25 S21 2.317377 1_555
As26 S18 2.250490 1_555
As26 S22 2.317377 1_556
As27 S19 2.250490 1_555
As27 S23 2.317377 1_555
P0 S0 2.094631 1_555
P0 S8 2.102007 1_565
P0 S4 2.111197 1_555
P1 S1 2.094631 1_555
P1 S9 2.102007 1_545
P1 S5 2.111197 1_455
P2 S2 2.094631 1_555
P2 S10 2.102007 1_545
P2 S6 2.111197 1_555
P3 S3 2.094631 1_555
P3 S11 2.102007 1_565
P3 S7 2.111197 1_655
Cl0 Cu0 2.379997 1_555
Cl1 Cu1 2.379997 1_555
Cl2 Cu2 2.379997 1_555
Cl3 Cu3 2.379997 1_555
