# generated using pymatgen
data_K3GaBr6
_symmetry_space_group_name_H-M   'P 1'
_cell_length_a   8.01549377
_cell_length_b   8.01549377
_cell_length_c   8.01549377
_cell_angle_alpha   60.00000000
_cell_angle_beta   60.00000000
_cell_angle_gamma   60.00000000
_symmetry_Int_Tables_number   1
_chemical_formula_structural   K3GaBr6
_chemical_formula_sum   'K3 Ga1 Br6'
_cell_volume   364.14625260
_cell_formula_units_Z   1
loop_
 _symmetry_equiv_pos_site_id
 _symmetry_equiv_pos_as_xyz
  1  'x, y, z'
loop_
 _atom_site_type_symbol
 _atom_site_label
 _atom_site_symmetry_multiplicity
 _atom_site_fract_x
 _atom_site_fract_y
 _atom_site_fract_z
 _atom_site_occupancy
  K  K0  1  0.75000000  0.75000000  0.75000000  1
  K  K1  1  0.25000000  0.25000000  0.25000000  1
  K  K2  1  0.50000000  0.50000000  0.50000000  1
  Ga  Ga0  1  0.00000000  0.00000000  0.00000000  1
  Br  Br0  1  0.77391600  0.22608400  0.22608400  1
  Br  Br1  1  0.22608400  0.22608400  0.77391600  1
  Br  Br2  1  0.22608400  0.77391600  0.77391600  1
  Br  Br3  1  0.22608400  0.77391600  0.22608400  1
  Br  Br4  1  0.77391600  0.22608400  0.77391600  1
  Br  Br5  1  0.77391600  0.77391600  0.22608400  1
loop_
_geom_bond_atom_site_label_1
_geom_bond_atom_site_label_2
_geom_bond_distance
_geom_bond_site_symmetry_2
Br0 Ga0 2.562802 1_655
Br0 K2 3.105008 1_555
Br1 Ga0 2.562802 1_556
Br1 K2 3.105008 1_555
Br2 Ga0 2.562802 1_566
Br2 K2 3.105008 1_555
Br3 Ga0 2.562802 1_565
Br3 K2 3.105008 1_555
Br4 Ga0 2.562802 1_656
Br4 K2 3.105008 1_555
Br5 Ga0 2.562802 1_665
Br5 K2 3.105008 1_555
