# generated using pymatgen
data_TmNiAs
_symmetry_space_group_name_H-M   'P 1'
_cell_length_a   4.00256821
_cell_length_b   4.00256821
_cell_length_c   15.01615762
_cell_angle_alpha   90.00000000
_cell_angle_beta   90.00000000
_cell_angle_gamma   119.99999859
_symmetry_Int_Tables_number   1
_chemical_formula_structural   TmNiAs
_chemical_formula_sum   'Tm4 Ni4 As4'
_cell_volume   208.33725641
_cell_formula_units_Z   4
loop_
 _symmetry_equiv_pos_site_id
 _symmetry_equiv_pos_as_xyz
  1  'x, y, z'
loop_
 _atom_site_type_symbol
 _atom_site_label
 _atom_site_symmetry_multiplicity
 _atom_site_fract_x
 _atom_site_fract_y
 _atom_site_fract_z
 _atom_site_occupancy
  Tm  Tm0  1  -0.00000000  0.00000000  0.24999796  1
  Tm  Tm1  1  -0.00000000  0.00000000  0.75000764  1
  Tm  Tm2  1  -0.00000000  0.00000000  -0.00001739  1
  Tm  Tm3  1  -0.00000000  0.00000000  0.50001325  1
  Ni  Ni0  1  0.33333300  0.66666700  0.13603308  1
  Ni  Ni1  1  0.66666700  0.33333300  0.86395720  1
  Ni  Ni2  1  0.66666700  0.33333300  0.63605814  1
  Ni  Ni3  1  0.33333300  0.66666700  0.36395528  1
  As  As0  1  0.33333300  0.66666700  0.62000488  1
  As  As1  1  0.66666700  0.33333300  0.37997198  1
  As  As2  1  0.66666700  0.33333300  0.12002026  1
  As  As3  1  0.33333300  0.66666700  0.87999772  1
loop_
_geom_bond_atom_site_label_1
_geom_bond_atom_site_label_2
_geom_bond_distance
_geom_bond_site_symmetry_2
Ni0 Tm0 2.875547 1_565
Ni0 Tm0 2.875550 1_665
Ni0 Tm0 2.875550 1_555
Ni0 Tm2 3.084451 1_565
Ni0 Tm2 3.084454 1_665
Ni0 Tm2 3.084454 1_555
Ni1 Tm1 2.875410 1_655
Ni1 Tm1 2.875413 1_665
Ni1 Tm1 2.875413 1_555
Ni1 Tm2 3.084202 1_656
Ni1 Tm2 3.084205 1_666
Ni1 Tm2 3.084205 1_556
Ni2 Tm1 2.875410 1_655
Ni2 Tm1 2.875412 1_665
Ni2 Tm1 2.875412 1_555
Ni2 Tm3 3.084396 1_655
Ni2 Tm3 3.084398 1_665
Ni2 Tm3 3.084398 1_555
Ni3 Tm0 2.875480 1_565
Ni3 Tm0 2.875482 1_665
Ni3 Tm0 2.875482 1_555
Ni3 Tm3 3.084526 1_565
Ni3 Tm3 3.084529 1_665
Ni3 Tm3 3.084529 1_555
As0 Ni2 2.323420 1_455
As0 Ni2 2.323420 1_565
As0 Ni2 2.323427 1_555
As0 Tm3 2.930308 1_565
As0 Tm3 2.930311 1_555
As0 Tm3 2.930311 1_665
As0 Tm1 3.025067 1_565
As0 Tm1 3.025070 1_665
As0 Tm1 3.025070 1_555
As1 Ni3 2.323364 1_545
As1 Ni3 2.323364 1_655
As1 Ni3 2.323370 1_555
As1 Tm3 2.930766 1_655
As1 Tm3 2.930769 1_665
As1 Tm3 2.930769 1_555
As1 Tm0 3.024789 1_655
As1 Tm0 3.024791 1_555
As1 Tm0 3.024791 1_665
As2 Ni0 2.323358 1_655
As2 Ni0 2.323358 1_545
As2 Ni0 2.323364 1_555
As2 Tm2 2.930733 1_655
As2 Tm2 2.930736 1_555
As2 Tm2 2.930736 1_665
As2 Tm0 3.024824 1_655
As2 Tm0 3.024827 1_665
As2 Tm0 3.024827 1_555
As3 Ni1 2.323401 1_565
As3 Ni1 2.323401 1_455
As3 Ni1 2.323407 1_555
As3 Tm2 2.930246 1_566
As3 Tm2 2.930248 1_666
As3 Tm2 2.930248 1_556
As3 Tm1 3.024944 1_565
As3 Tm1 3.024947 1_665
As3 Tm1 3.024947 1_555
