# generated using pymatgen
data_CaLaMg6
_symmetry_space_group_name_H-M   'P 1'
_cell_length_a   5.35272100
_cell_length_b   7.31639400
_cell_length_c   11.37187000
_cell_angle_alpha   90.00000000
_cell_angle_beta   90.00000000
_cell_angle_gamma   90.00000000
_symmetry_Int_Tables_number   1
_chemical_formula_structural   CaLaMg6
_chemical_formula_sum   'Ca2 La2 Mg12'
_cell_volume   445.35217583
_cell_formula_units_Z   2
loop_
 _symmetry_equiv_pos_site_id
 _symmetry_equiv_pos_as_xyz
  1  'x, y, z'
loop_
 _atom_site_type_symbol
 _atom_site_label
 _atom_site_symmetry_multiplicity
 _atom_site_fract_x
 _atom_site_fract_y
 _atom_site_fract_z
 _atom_site_occupancy
  Ca  Ca0  1  0.50000000  0.00000000  0.16186700  1
  Ca  Ca1  1  0.50000000  0.50000000  0.66186700  1
  La  La0  1  0.50000000  0.00000000  0.65504400  1
  La  La1  1  0.50000000  0.50000000  0.15504400  1
  Mg  Mg0  1  0.50000000  0.25674000  0.41551800  1
  Mg  Mg1  1  0.50000000  0.74326000  0.41551800  1
  Mg  Mg2  1  0.00000000  0.25103000  0.58111800  1
  Mg  Mg3  1  0.00000000  0.74897000  0.58111800  1
  Mg  Mg4  1  0.00000000  0.00000000  0.34717300  1
  Mg  Mg5  1  0.00000000  0.00000000  0.84264000  1
  Mg  Mg6  1  0.50000000  0.75674000  0.91551800  1
  Mg  Mg7  1  0.50000000  0.24326000  0.91551800  1
  Mg  Mg8  1  0.00000000  0.75103000  0.08111800  1
  Mg  Mg9  1  0.00000000  0.24897000  0.08111800  1
  Mg  Mg10  1  0.00000000  0.50000000  0.84717300  1
  Mg  Mg11  1  0.00000000  0.50000000  0.34264000  1
loop_
_geom_bond_atom_site_label_1
_geom_bond_atom_site_label_2
_geom_bond_distance
_geom_bond_site_symmetry_2
Ca0 Mg7 3.318999 1_554
Ca0 Mg6 3.318999 1_544
Ca0 Mg9 3.365146 1_555
Ca0 Mg9 3.365146 1_655
Ca0 Mg8 3.365146 1_545
Ca0 Mg8 3.365146 1_645
Ca0 Mg4 3.406393 1_655
Ca0 Mg4 3.406393 1_555
Ca0 Mg1 3.442192 1_545
Ca0 Mg0 3.442192 1_555
Ca0 La1 3.659020 1_555
Ca0 La1 3.659020 1_545
Ca1 Mg0 3.318999 1_555
Ca1 Mg1 3.318999 1_555
Ca1 Mg2 3.365146 1_555
Ca1 Mg3 3.365146 1_555
Ca1 Mg2 3.365146 1_655
Ca1 Mg3 3.365146 1_655
Ca1 Mg10 3.406393 1_655
Ca1 Mg10 3.406393 1_555
Ca1 Mg6 3.442192 1_555
Ca1 Mg7 3.442192 1_555
Ca1 La0 3.659020 1_565
Ca1 La0 3.659020 1_555
La0 Mg1 3.308751 1_545
La0 Mg0 3.308751 1_555
La0 Mg3 3.353039 1_545
La0 Mg2 3.353039 1_655
La0 Mg2 3.353039 1_555
La0 Mg3 3.353039 1_645
La0 Mg5 3.422565 1_655
La0 Mg5 3.422565 1_555
La0 Mg7 3.455653 1_555
La0 Mg6 3.455653 1_545
La1 Mg6 3.308751 1_554
La1 Mg7 3.308751 1_554
La1 Mg9 3.353039 1_555
La1 Mg9 3.353039 1_655
La1 Mg8 3.353039 1_555
La1 Mg8 3.353039 1_655
La1 Mg11 3.422565 1_555
La1 Mg11 3.422565 1_655
La1 Mg1 3.455653 1_555
La1 Mg0 3.455653 1_555
Mg0 Mg2 3.272770 1_555
Mg0 Mg2 3.272770 1_655
Mg0 Mg11 3.319245 1_555
Mg0 Mg11 3.319245 1_655
Mg0 Mg4 3.360861 1_655
Mg0 Mg4 3.360861 1_555
Mg1 Mg3 3.272770 1_655
Mg1 Mg3 3.272770 1_555
Mg1 Mg11 3.319245 1_555
Mg1 Mg11 3.319245 1_655
Mg1 Mg4 3.360861 1_665
Mg1 Mg4 3.360861 1_565
Mg2 Mg4 3.232787 1_555
Mg2 Mg5 3.495407 1_555
Mg3 Mg4 3.232787 1_565
Mg3 Mg5 3.495407 1_565
Mg5 Mg9 3.266912 1_556
Mg5 Mg8 3.266912 1_546
Mg5 Mg7 3.319245 1_555
Mg5 Mg6 3.319245 1_545
Mg5 Mg6 3.319245 1_445
Mg5 Mg7 3.319245 1_455
Mg6 Mg8 3.272770 1_556
Mg6 Mg8 3.272770 1_656
Mg7 Mg9 3.272770 1_656
Mg7 Mg9 3.272770 1_556
Mg10 Mg9 3.232787 1_556
Mg10 Mg8 3.232787 1_556
Mg10 Mg7 3.360861 1_555
Mg10 Mg6 3.360861 1_455
Mg10 Mg6 3.360861 1_555
Mg10 Mg7 3.360861 1_455
Mg11 Mg3 3.266912 1_555
Mg11 Mg2 3.266912 1_555
Mg11 Mg8 3.495407 1_555
Mg11 Mg9 3.495407 1_555
