# generated using pymatgen
data_Ce2Fe17C3
_symmetry_space_group_name_H-M   'P 1'
_cell_length_a   6.53609661
_cell_length_b   6.53609661
_cell_length_c   6.53609657
_cell_angle_alpha   83.70402342
_cell_angle_beta   83.70402342
_cell_angle_gamma   83.70402422
_symmetry_Int_Tables_number   1
_chemical_formula_structural   Ce2Fe17C3
_chemical_formula_sum   'Ce2 Fe17 C3'
_cell_volume   274.51717888
_cell_formula_units_Z   1
loop_
 _symmetry_equiv_pos_site_id
 _symmetry_equiv_pos_as_xyz
  1  'x, y, z'
loop_
 _atom_site_type_symbol
 _atom_site_label
 _atom_site_symmetry_multiplicity
 _atom_site_fract_x
 _atom_site_fract_y
 _atom_site_fract_z
 _atom_site_occupancy
  Ce  Ce0  1  0.65798800  0.65798800  0.65798800  1
  Ce  Ce1  1  0.34201200  0.34201200  0.34201200  1
  Fe  Fe0  1  0.00000000  0.00000000  0.50000000  1
  Fe  Fe1  1  0.00000000  0.50000000  0.00000000  1
  Fe  Fe2  1  0.50000000  0.00000000  0.00000000  1
  Fe  Fe3  1  0.28390600  0.71609400  0.00000000  1
  Fe  Fe4  1  0.71609400  0.00000000  0.28390600  1
  Fe  Fe5  1  0.00000000  0.28390600  0.71609400  1
  Fe  Fe6  1  0.28390600  0.00000000  0.71609400  1
  Fe  Fe7  1  0.00000000  0.71609400  0.28390600  1
  Fe  Fe8  1  0.71609400  0.28390600  0.00000000  1
  Fe  Fe9  1  0.34276900  0.34276900  0.85296100  1
  Fe  Fe10  1  0.34276900  0.85296100  0.34276900  1
  Fe  Fe11  1  0.85296100  0.34276900  0.34276900  1
  Fe  Fe12  1  0.65723100  0.65723100  0.14703900  1
  Fe  Fe13  1  0.65723100  0.14703900  0.65723100  1
  Fe  Fe14  1  0.14703900  0.65723100  0.65723100  1
  Fe  Fe15  1  0.90484200  0.90484200  0.90484200  1
  Fe  Fe16  1  0.09515800  0.09515800  0.09515800  1
  C  C0  1  0.50000000  0.50000000  0.00000000  1
  C  C1  1  0.50000000  0.00000000  0.50000000  1
  C  C2  1  0.00000000  0.50000000  0.50000000  1
loop_
_geom_bond_atom_site_label_1
_geom_bond_atom_site_label_2
_geom_bond_distance
_geom_bond_site_symmetry_2
Ce0 Fe15 3.085885 1_555
Ce0 Fe0 3.338261 1_665
Ce0 Fe2 3.338261 1_566
Ce0 Fe1 3.338261 1_656
Ce1 Fe16 3.085885 1_555
Ce1 Fe0 3.338261 1_555
Ce1 Fe2 3.338261 1_555
Ce1 Fe1 3.338261 1_555
Fe0 Fe7 2.452170 1_545
Fe0 Fe5 2.452170 1_555
Fe0 Fe6 2.452170 1_555
Fe0 Fe4 2.452170 1_455
Fe0 Fe13 2.497683 1_455
Fe0 Fe10 2.497683 1_545
Fe0 Fe14 2.497683 1_545
Fe0 Fe11 2.497683 1_455
Fe0 Fe16 2.671771 1_555
Fe0 Fe15 2.671771 1_445
Fe1 Fe3 2.452170 1_555
Fe1 Fe8 2.452170 1_455
Fe1 Fe5 2.452170 1_554
Fe1 Fe7 2.452170 1_555
Fe1 Fe14 2.497683 1_554
Fe1 Fe11 2.497683 1_455
Fe1 Fe12 2.497683 1_455
Fe1 Fe9 2.497683 1_554
Fe1 Fe16 2.671772 1_555
Fe1 Fe15 2.671772 1_454
Fe2 Fe8 2.452170 1_555
Fe2 Fe3 2.452170 1_545
Fe2 Fe6 2.452170 1_554
Fe2 Fe4 2.452170 1_555
Fe2 Fe9 2.497683 1_554
Fe10 Fe2 2.497683 1_565
Fe10 Fe16 2.682369 1_565
Fe11 Fe16 2.682369 1_655
Fe12 Fe2 2.497683 1_565
Fe12 Fe15 2.682369 1_554
Fe13 Fe2 2.497683 1_556
Fe13 Fe15 2.682369 1_545
Fe14 Fe15 2.682369 1_455
Fe15 Fe16 2.379112 1_666
Fe15 Fe2 2.671772 1_566
Fe15 Fe5 2.747105 1_665
Fe15 Fe6 2.747105 1_665
Fe15 Fe7 2.747105 1_656
Fe15 Fe4 2.747105 1_566
Fe15 Fe8 2.747105 1_566
Fe15 Fe3 2.747105 1_656
Fe16 Fe2 2.671772 1_555
Fe16 Fe9 2.682369 1_554
Fe16 Fe4 2.747105 1_455
Fe16 Fe6 2.747105 1_554
Fe16 Fe7 2.747105 1_545
Fe16 Fe5 2.747105 1_554
Fe16 Fe8 2.747105 1_455
Fe16 Fe3 2.747105 1_545
C0 Fe3 1.884747 1_555
C0 Fe8 1.884747 1_555
C0 Fe12 1.923736 1_555
C0 Fe9 1.923736 1_554
C0 Ce1 2.520127 1_555
C0 Ce0 2.520127 1_554
C1 Fe4 1.884747 1_555
C1 Fe6 1.884747 1_555
C1 Fe10 1.923736 1_545
C1 Fe13 1.923736 1_555
C1 Ce1 2.520127 1_555
C1 Ce0 2.520127 1_545
C2 Fe7 1.884747 1_555
C2 Fe5 1.884747 1_555
C2 Fe14 1.923736 1_555
C2 Fe11 1.923736 1_455
C2 Ce1 2.520127 1_555
C2 Ce0 2.520127 1_455
