# generated using pymatgen
data_Cr3FeO6
_symmetry_space_group_name_H-M   'P 1'
_cell_length_a   10.06045022
_cell_length_b   9.24392109
_cell_length_c   10.80210828
_cell_angle_alpha   89.02980090
_cell_angle_beta   81.14865852
_cell_angle_gamma   91.44994278
_symmetry_Int_Tables_number   1
_chemical_formula_structural   Cr3FeO6
_chemical_formula_sum   'Cr24 Fe8 O48'
_cell_volume   992.07257855
_cell_formula_units_Z   8
loop_
 _symmetry_equiv_pos_site_id
 _symmetry_equiv_pos_as_xyz
  1  'x, y, z'
loop_
 _atom_site_type_symbol
 _atom_site_label
 _atom_site_symmetry_multiplicity
 _atom_site_fract_x
 _atom_site_fract_y
 _atom_site_fract_z
 _atom_site_occupancy
  Cr  Cr0  1  0.30868600  0.75172300  0.48739500  1
  Cr  Cr1  1  0.02107500  0.89490700  0.06630100  1
  Cr  Cr2  1  0.03055100  0.67802300  0.29049000  1
  Cr  Cr3  1  0.64652200  0.34983200  0.07257900  1
  Cr  Cr4  1  0.74094900  0.34140500  0.31432600  1
  Cr  Cr5  1  0.31980000  0.61194500  0.27665400  1
  Cr  Cr6  1  0.04049900  0.99802300  0.56137500  1
  Cr  Cr7  1  0.57622700  0.73795700  0.02230300  1
  Cr  Cr8  1  0.11022400  0.33071600  0.34644500  1
  Cr  Cr9  1  0.22766100  0.98209400  0.33117500  1
  Cr  Cr10  1  0.95737500  0.21819800  0.06284400  1
  Cr  Cr11  1  0.82745000  0.76804500  0.78061700  1
  Cr  Cr12  1  0.52458700  0.51218500  0.80633000  1
  Cr  Cr13  1  0.53888400  0.83792600  0.76290200  1
  Cr  Cr14  1  0.83463200  0.49453500  0.54369000  1
  Cr  Cr15  1  0.51456400  0.27357600  0.67479600  1
  Cr  Cr16  1  0.93053400  0.39110400  0.81679000  1
  Cr  Cr17  1  0.72964800  0.03530900  0.95267800  1
  Cr  Cr18  1  0.31023000  0.07242900  0.63766400  1
  Cr  Cr19  1  0.75135200  0.81701000  0.48146400  1
  Cr  Cr20  1  0.94467500  0.06572200  0.31064100  1
  Cr  Cr21  1  0.01208300  0.02645100  0.82959200  1
  Cr  Cr22  1  0.23936300  0.46193600  0.61187200  1
  Cr  Cr23  1  0.39414300  0.31162000  0.37236800  1
  Fe  Fe0  1  0.22452400  0.34177700  0.89662200  1
  Fe  Fe1  1  0.87481500  0.55103800  0.02514000  1
  Fe  Fe2  1  0.52420200  0.99197100  0.26809100  1
  Fe  Fe3  1  0.11635600  0.71836900  0.78773800  1
  Fe  Fe4  1  0.54751900  0.55844200  0.54221600  1
  Fe  Fe5  1  0.29405400  0.67481200  0.01158000  1
  Fe  Fe6  1  0.29839100  0.99394200  0.90014900  1
  Fe  Fe7  1  0.76326500  0.80134400  0.20249600  1
  O  O0  1  0.13358700  0.39222300  0.74817900  1
  O  O1  1  0.16843300  0.66036800  0.41036800  1
  O  O2  1  0.02178000  0.39960200  0.97602800  1
  O  O3  1  0.75357500  0.43114600  0.92330100  1
  O  O4  1  0.44445800  0.18335500  0.54038600  1
  O  O5  1  0.99595100  0.87321800  0.70999100  1
  O  O6  1  0.34716700  0.50638100  0.92131700  1
  O  O7  1  0.16958600  0.80683400  0.94414800  1
  O  O8  1  0.83322800  0.68450100  0.60485600  1
  O  O9  1  0.22260900  0.33553100  0.48962700  1
  O  O10  1  0.65541700  0.42872000  0.66561900  1
  O  O11  1  0.44264100  0.63736600  0.11247100  1
  O  O12  1  0.23234400  0.94597700  0.51193300  1
  O  O13  1  0.63013700  0.90265600  0.09452800  1
  O  O14  1  0.40418800  0.56227100  0.43824200  1
  O  O15  1  0.13085400  0.10921600  0.68221600  1
  O  O16  1  0.04213100  0.22644000  0.20978500  1
  O  O17  1  0.91806400  0.38587500  0.63959700  1
  O  O18  1  0.65963900  0.89053800  0.34636900  1
  O  O19  1  0.88399000  0.88986900  0.93309500  1
  O  O20  1  0.97136700  0.47766700  0.37485000  1
  O  O21  1  0.37743300  0.91622800  0.70582900  1
  O  O22  1  0.70169600  0.47309300  0.43529400  1
  O  O23  1  0.37052000  0.12253500  0.30052900  1
  O  O24  1  0.28582100  0.40418400  0.26217200  1
  O  O25  1  0.58837000  0.77015800  0.58774500  1
  O  O26  1  0.63644800  0.68492200  0.85140100  1
  O  O27  1  0.24327000  0.65841500  0.64749700  1
  O  O28  1  0.57444900  0.32014300  0.26123100  1
  O  O29  1  0.78949300  0.18272600  0.37544400  1
  O  O30  1  0.94203900  0.70563500  0.12941400  1
  O  O31  1  0.08505500  0.11956300  0.41100200  1
  O  O32  1  0.81380700  0.35709500  0.14191200  1
  O  O33  1  0.70177500  0.63341400  0.10616800  1
  O  O34  1  0.08033300  0.90398900  0.24193700  1
  O  O35  1  0.88205000  0.95666100  0.48585400  1
  O  O36  1  0.35986700  0.17687500  0.78948000  1
  O  O37  1  0.87233000  0.01358700  0.15143300  1
  O  O38  1  0.18635700  0.63625400  0.16697500  1
  O  O39  1  0.84030600  0.71964900  0.35317500  1
  O  O40  1  0.43539400  0.83761400  0.93669900  1
  O  O41  1  0.60228900  0.17563900  0.01035600  1
  O  O42  1  0.36573600  0.82884900  0.31093100  1
  O  O43  1  0.41001500  0.44198500  0.67211600  1
  O  O44  1  0.93801100  0.61234500  0.84112000  1
  O  O45  1  0.88800400  0.17639900  0.88738700  1
  O  O46  1  0.10642700  0.08672300  0.97156500  1
  O  O47  1  0.69793000  0.94939500  0.78942200  1
loop_
_geom_bond_atom_site_label_1
_geom_bond_atom_site_label_2
_geom_bond_distance
_geom_bond_site_symmetry_2
Cr0 O1 1.929040 1_555
Cr0 O27 1.933528 1_555
Cr0 O12 1.976822 1_555
Cr0 O42 2.016886 1_555
Cr0 O14 2.057102 1_555
Cr1 O30 1.969915 1_455
Cr1 O37 1.995576 1_465
Cr1 O7 2.031616 1_554
Cr1 O34 2.076755 1_555
Cr1 O46 2.125946 1_564
Cr1 O19 2.141111 1_454
Cr2 O38 1.946970 1_555
Cr2 O39 1.979150 1_455
Cr2 O1 2.045674 1_555
Cr2 O20 2.082107 1_455
Cr2 O30 2.087779 1_455
Cr2 O34 2.172133 1_555
Cr3 O41 1.826216 1_555
Cr3 O3 1.925791 1_554
Cr3 O32 1.944649 1_555
Cr3 O28 2.066428 1_555
Cr4 O29 1.711318 1_555
Cr4 O22 1.806843 1_555
Cr4 O28 1.859093 1_555
Cr4 O32 1.895343 1_555
Cr5 O38 1.937056 1_555
Cr5 O24 1.955290 1_555
Cr5 O1 1.996274 1_555
Cr5 O11 2.006135 1_555
Cr5 O42 2.098040 1_555
Cr5 O14 2.104040 1_555
Cr6 O35 1.932010 1_455
Cr6 O31 1.946878 1_565
Cr6 O5 1.949039 1_455
Cr6 O15 1.987464 1_565
Cr6 O12 1.995059 1_555
Cr7 O11 1.767125 1_555
Cr7 O13 1.830134 1_555
Cr7 O26 1.927946 1_554
Cr7 O33 1.932406 1_555
Cr7 O40 2.037540 1_554
Cr8 O24 1.958107 1_555
Cr8 O20 1.967017 1_455
Cr8 O16 1.975760 1_555
Cr8 O9 2.051940 1_555
Cr8 O31 2.057865 1_555
Cr9 O23 1.898736 1_565
Cr9 O12 1.983238 1_555
Cr9 O42 2.000179 1_555
Cr9 O34 2.014069 1_555
Cr9 O31 2.040916 1_565
Cr10 O16 1.915627 1_655
Cr10 O2 1.953457 1_654
Cr10 O32 2.053179 1_555
Cr10 O46 2.091808 1_654
Cr10 O45 2.155635 1_554
Cr10 O37 2.197738 1_555
Cr11 O5 1.973422 1_555
Cr11 O44 2.002183 1_555
Cr11 O8 2.054845 1_555
Cr11 O26 2.078628 1_555
Cr11 O47 2.143596 1_555
Cr11 O19 2.150193 1_555
Cr12 O6 2.010539 1_555
Cr12 O10 2.028163 1_555
Cr12 O26 2.038912 1_555
Cr12 O43 2.088031 1_555
Cr13 O47 1.942079 1_555
Cr13 O21 1.973525 1_555
Cr13 O25 1.996555 1_555
Cr13 O40 2.001671 1_555
Cr13 O26 2.047179 1_555
Cr14 O17 1.749790 1_555
Cr14 O8 1.886285 1_555
Cr14 O22 1.917105 1_555
Cr14 O20 2.119286 1_555
Cr14 O10 2.131237 1_555
Cr15 O43 1.902985 1_555
Cr15 O4 1.904578 1_555
Cr15 O10 1.980835 1_555
Cr15 O36 2.013615 1_555
Cr16 O17 1.938664 1_555
Cr16 O3 2.011865 1_555
Cr16 O0 2.062813 1_655
Cr16 O44 2.067318 1_555
Cr16 O2 2.072311 1_655
Cr16 O45 2.123459 1_555
Cr17 O41 1.891672 1_556
Cr17 O47 2.012534 1_545
Cr17 O45 2.062622 1_555
Cr17 O13 2.062995 1_546
Cr17 O19 2.068208 1_545
Cr18 O21 1.802984 1_545
Cr18 O15 1.836619 1_555
Cr18 O4 1.853628 1_555
Cr18 O36 2.037686 1_555
Cr18 O12 2.039570 1_545
Cr19 O39 1.797953 1_555
Cr19 O35 1.825651 1_555
Cr19 O25 1.887340 1_555
Cr19 O18 1.963518 1_555
Cr19 O8 2.071023 1_555
Cr20 O31 1.967595 1_655
Cr20 O29 1.967725 1_555
Cr20 O16 1.974375 1_655
Cr20 O37 2.028584 1_555
Cr20 O34 2.116059 1_645
Cr20 O35 2.128799 1_545
Cr21 O45 1.935542 1_455
Cr21 O5 1.953643 1_445
Cr21 O15 1.968391 1_555
Cr21 O19 1.982730 1_445
Cr21 O46 2.003339 1_555
Cr22 O0 1.779507 1_555
Cr22 O9 1.802293 1_555
Cr22 O27 1.863615 1_555
Cr22 O43 1.939282 1_555
Cr22 O14 2.456383 1_555
Cr23 O24 1.936123 1_555
Cr23 O23 1.948192 1_555
Cr23 O9 1.996852 1_555
Cr23 O28 2.014271 1_555
Cr23 O4 2.279542 1_555
Cr23 O14 2.439498 1_555
Fe0 O6 1.982115 1_555
Fe0 O0 2.018257 1_555
Fe0 O2 2.171200 1_555
Fe0 O36 2.279671 1_555
Fe0 O46 2.668954 1_555
Fe1 O33 1.999321 1_555
Fe1 O30 2.002105 1_555
Fe1 O44 2.057046 1_554
Fe1 O3 2.076530 1_554
Fe1 O2 2.077409 1_654
Fe1 O32 2.193488 1_555
Fe2 O18 1.960377 1_555
Fe2 O23 1.977861 1_565
Fe2 O42 2.158042 1_555
Fe2 O13 2.194213 1_555
Fe3 O27 1.923879 1_555
Fe3 O44 2.021336 1_455
Fe3 O7 2.028100 1_555
Fe3 O5 2.140486 1_455
Fe4 O14 1.960005 1_555
Fe4 O22 1.975803 1_555
Fe4 O25 2.072452 1_555
Fe4 O43 2.077890 1_555
Fe4 O10 2.202321 1_555
Fe5 O38 1.875938 1_555
Fe5 O6 1.895657 1_554
Fe5 O7 1.978864 1_554
Fe5 O11 2.014177 1_555
Fe5 O40 2.106546 1_554
Fe6 O36 2.079004 1_565
Fe6 O40 2.095909 1_555
Fe6 O7 2.136783 1_555
Fe6 O46 2.169827 1_565
Fe6 O21 2.262916 1_555
Fe7 O18 1.941718 1_555
Fe7 O33 2.019741 1_555
Fe7 O39 2.048536 1_555
Fe7 O30 2.075563 1_555
Fe7 O13 2.130323 1_555
Fe7 O37 2.241790 1_565
