# generated using pymatgen
data_CaAsO6
_symmetry_space_group_name_H-M   'P 1'
_cell_length_a   7.60304897
_cell_length_b   7.60304897
_cell_length_c   5.93356949
_cell_angle_alpha   75.74983955
_cell_angle_beta   75.74983955
_cell_angle_gamma   127.72137508
_symmetry_Int_Tables_number   1
_chemical_formula_structural   CaAsO6
_chemical_formula_sum   'Ca2 As2 O12'
_cell_volume   225.00880380
_cell_formula_units_Z   2
loop_
 _symmetry_equiv_pos_site_id
 _symmetry_equiv_pos_as_xyz
  1  'x, y, z'
loop_
 _atom_site_type_symbol
 _atom_site_label
 _atom_site_symmetry_multiplicity
 _atom_site_fract_x
 _atom_site_fract_y
 _atom_site_fract_z
 _atom_site_occupancy
  Ca  Ca0  1  0.63731200  0.81735200  0.72708900  1
  Ca  Ca1  1  0.81735200  0.63731200  0.22708900  1
  As  As0  1  0.14998500  0.33329200  0.77144700  1
  As  As1  1  0.33329200  0.14998500  0.27144700  1
  O  O0  1  0.39553600  0.04104500  0.01909100  1
  O  O1  1  0.04104500  0.39553600  0.51909100  1
  O  O2  1  0.93719900  0.00917800  0.89300200  1
  O  O3  1  0.00917800  0.93719900  0.39300200  1
  O  O4  1  0.62294800  0.99572500  0.32648300  1
  O  O5  1  0.99572500  0.62294800  0.82648300  1
  O  O6  1  0.49911600  0.95246400  0.05678200  1
  O  O7  1  0.95246400  0.49911600  0.55678200  1
  O  O8  1  0.46621200  0.50467900  0.57952400  1
  O  O9  1  0.50467900  0.46621200  0.07952400  1
  O  O10  1  0.15161900  0.47853700  0.94758200  1
  O  O11  1  0.47853700  0.15161900  0.44758200  1
loop_
_geom_bond_atom_site_label_1
_geom_bond_atom_site_label_2
_geom_bond_distance
_geom_bond_site_symmetry_2
Ca0 O9 2.331622 1_556
Ca0 O8 2.431396 1_555
Ca0 O3 2.439815 1_655
Ca0 O2 2.457184 1_565
Ca0 O4 2.494669 1_555
Ca0 O10 2.511218 1_555
Ca0 O6 2.698957 1_556
Ca0 O1 3.036837 1_665
Ca1 O8 2.331622 1_555
Ca1 O9 2.431396 1_555
Ca1 O2 2.439815 1_564
Ca1 O3 2.457184 1_655
Ca1 O5 2.494669 1_554
Ca1 O11 2.511218 1_555
Ca1 O7 2.698957 1_555
Ca1 O0 3.036837 1_665
As0 O8 1.692137 1_555
As0 O10 1.694015 1_555
As0 O2 1.697734 1_455
As0 O1 1.973191 1_555
As1 O9 1.692137 1_555
As1 O11 1.694015 1_555
As1 O3 1.697734 1_545
As1 O0 1.973191 1_555
O0 O6 1.336171 1_545
O1 O7 1.336171 1_455
