# generated using pymatgen
data_Rb3In(IO3)6
_symmetry_space_group_name_H-M   'P 1'
_cell_length_a   7.21729000
_cell_length_b   7.22675045
_cell_length_c   10.94885742
_cell_angle_alpha   87.86541330
_cell_angle_beta   108.24590670
_cell_angle_gamma   107.35924992
_symmetry_Int_Tables_number   1
_chemical_formula_structural   Rb3In(IO3)6
_chemical_formula_sum   'Rb3 In1 I6 O18'
_cell_volume   516.65585056
_cell_formula_units_Z   1
loop_
 _symmetry_equiv_pos_site_id
 _symmetry_equiv_pos_as_xyz
  1  'x, y, z'
loop_
 _atom_site_type_symbol
 _atom_site_label
 _atom_site_symmetry_multiplicity
 _atom_site_fract_x
 _atom_site_fract_y
 _atom_site_fract_z
 _atom_site_occupancy
  Rb  Rb0  1  0.00000000  0.00000000  0.00000000  1
  Rb  Rb1  1  0.83179000  0.02343800  0.60114700  1
  Rb  Rb2  1  0.16821000  0.97656200  0.39885300  1
  In  In0  1  0.50000000  0.50000000  0.00000000  1
  I  I0  1  0.02554300  0.47199700  0.18898100  1
  I  I1  1  0.97445700  0.52800300  0.81101900  1
  I  I2  1  0.55545600  0.95565500  0.18953200  1
  I  I3  1  0.44454400  0.04434500  0.81046800  1
  I  I4  1  0.41396000  0.55257300  0.63984600  1
  I  I5  1  0.58604000  0.44742700  0.36015400  1
  O  O0  1  0.82949200  0.53993700  0.05037700  1
  O  O1  1  0.17050800  0.46006300  0.94962300  1
  O  O2  1  0.95700600  0.55020200  0.32082600  1
  O  O3  1  0.04299400  0.44979800  0.67917400  1
  O  O4  1  0.91718100  0.20775500  0.18427600  1
  O  O5  1  0.08281900  0.79224500  0.81572400  1
  O  O6  1  0.56965900  0.81268200  0.05488100  1
  O  O7  1  0.43034100  0.18731800  0.94511900  1
  O  O8  1  0.29039300  0.84408200  0.18630100  1
  O  O9  1  0.70960700  0.15591800  0.81369900  1
  O  O10  1  0.69265700  0.84339100  0.32617000  1
  O  O11  1  0.30734300  0.15660900  0.67383000  1
  O  O12  1  0.52735400  0.60486800  0.81744700  1
  O  O13  1  0.47264600  0.39513200  0.18255300  1
  O  O14  1  0.66240700  0.57019000  0.61765200  1
  O  O15  1  0.33759300  0.42981000  0.38234800  1
  O  O16  1  0.40782100  0.79930600  0.60372900  1
  O  O17  1  0.59217900  0.20069400  0.39627100  1
loop_
_geom_bond_atom_site_label_1
_geom_bond_atom_site_label_2
_geom_bond_distance
_geom_bond_site_symmetry_2
In0 O12 2.157146 1_554
In0 O13 2.157146 1_555
In0 O0 2.196259 1_555
In0 O1 2.196259 1_554
In0 O7 2.225763 1_554
In0 O6 2.225763 1_555
I0 O2 1.822819 1_455
I0 O4 1.830800 1_455
I0 O0 1.886953 1_455
I1 O3 1.822819 1_655
I1 O5 1.830800 1_655
I1 O1 1.886953 1_655
I2 O10 1.827071 1_555
I2 O8 1.830409 1_555
I2 O6 1.876930 1_555
I2 O4 2.717755 1_565
I3 O11 1.827071 1_555
I3 O9 1.830409 1_555
I3 O7 1.876930 1_555
I3 O5 2.717755 1_545
I4 O16 1.822457 1_555
I4 O14 1.850630 1_555
I4 O12 1.862110 1_555
I5 O17 1.822457 1_555
I5 O15 1.850630 1_555
I5 O13 1.862110 1_555
O0 Rb0 3.274080 1_665
O1 Rb0 3.274080 1_556
O2 Rb2 3.020787 1_655
O3 Rb1 3.020787 1_455
O4 Rb0 2.863315 1_655
O4 Rb2 3.231407 1_645
O5 Rb0 2.863315 1_566
O5 Rb1 3.231407 1_465
O6 Rb0 3.230993 1_665
O7 Rb0 3.230993 1_556
O8 Rb0 2.895497 1_565
O8 Rb2 3.010805 1_555
O9 Rb0 2.895497 1_656
O9 Rb1 3.010805 1_555
O10 Rb1 3.063431 1_565
O10 Rb2 3.116917 1_655
O11 Rb2 3.063431 1_545
O11 Rb1 3.116917 1_455
O14 Rb1 3.156089 1_565
O15 Rb2 3.156089 1_545
O16 Rb2 2.888258 1_555
O16 Rb1 3.013410 1_565
O17 Rb1 2.888258 1_555
O17 Rb2 3.013410 1_545
