# generated using pymatgen
data_Ca3B4(H4O)3
_symmetry_space_group_name_H-M   'P 1'
_cell_length_a   6.06699344
_cell_length_b   6.06699344
_cell_length_c   11.86968800
_cell_angle_alpha   90.00000000
_cell_angle_beta   90.00000000
_cell_angle_gamma   96.26681637
_symmetry_Int_Tables_number   1
_chemical_formula_structural   Ca3B4(H4O)3
_chemical_formula_sum   'Ca6 B8 H24 O6'
_cell_volume   434.29354527
_cell_formula_units_Z   2
loop_
 _symmetry_equiv_pos_site_id
 _symmetry_equiv_pos_as_xyz
  1  'x, y, z'
loop_
 _atom_site_type_symbol
 _atom_site_label
 _atom_site_symmetry_multiplicity
 _atom_site_fract_x
 _atom_site_fract_y
 _atom_site_fract_z
 _atom_site_occupancy
  Ca  Ca0  1  0.92278400  0.92278400  0.53943800  1
  Ca  Ca1  1  0.07721600  0.07721600  0.03943800  1
  Ca  Ca2  1  0.99135300  0.45190900  0.76906600  1
  Ca  Ca3  1  0.45190900  0.99135300  0.76906600  1
  Ca  Ca4  1  0.00864700  0.54809100  0.26906600  1
  Ca  Ca5  1  0.54809100  0.00864700  0.26906600  1
  B  B0  1  0.00134300  0.00134300  0.26431500  1
  B  B1  1  0.99865700  0.99865700  0.76431500  1
  B  B2  1  0.49462000  0.49462000  0.27996400  1
  B  B3  1  0.50538000  0.50538000  0.77996400  1
  B  B4  1  0.55534100  0.00637300  0.01613000  1
  B  B5  1  0.00637300  0.55534100  0.01613000  1
  B  B6  1  0.44465900  0.99362700  0.51613000  1
  B  B7  1  0.99362700  0.44465900  0.51613000  1
  H  H0  1  0.40123200  0.61745300  0.34116500  1
  H  H1  1  0.61745300  0.40123200  0.34116500  1
  H  H2  1  0.59876800  0.38254700  0.84116500  1
  H  H3  1  0.38254700  0.59876800  0.84116500  1
  H  H4  1  0.35740700  0.35740700  0.23556900  1
  H  H5  1  0.64259300  0.64259300  0.73556900  1
  H  H6  1  0.59732000  0.59732000  0.20433800  1
  H  H7  1  0.40268000  0.40268000  0.70433800  1
  H  H8  1  0.64292600  0.88997500  0.08308600  1
  H  H9  1  0.88997500  0.64292600  0.08308600  1
  H  H10  1  0.35707400  0.11002500  0.58308600  1
  H  H11  1  0.11002500  0.35707400  0.58308600  1
  H  H12  1  0.69129400  0.07173900  0.94377800  1
  H  H13  1  0.07173900  0.69129400  0.94377800  1
  H  H14  1  0.30870600  0.92826100  0.44377800  1
  H  H15  1  0.92826100  0.30870600  0.44377800  1
  H  H16  1  0.40286900  0.88637100  0.97362200  1
  H  H17  1  0.88637100  0.40286900  0.97362200  1
  H  H18  1  0.59713100  0.11362900  0.47362200  1
  H  H19  1  0.11362900  0.59713100  0.47362200  1
  H  H20  1  0.49164300  0.16991800  0.06152500  1
  H  H21  1  0.16991800  0.49164300  0.06152500  1
  H  H22  1  0.50835700  0.83008200  0.56152500  1
  H  H23  1  0.83008200  0.50835700  0.56152500  1
  O  O0  1  0.87940700  0.87940700  0.34692200  1
  O  O1  1  0.12059300  0.12059300  0.84692200  1
  O  O2  1  0.18261500  0.91763300  0.21595400  1
  O  O3  1  0.91763300  0.18261500  0.21595400  1
  O  O4  1  0.81738500  0.08236700  0.71595400  1
  O  O5  1  0.08236700  0.81738500  0.71595400  1
loop_
_geom_bond_atom_site_label_1
_geom_bond_atom_site_label_2
_geom_bond_distance
_geom_bond_site_symmetry_2
Ca0 O0 2.311947 1_555
Ca0 O4 2.423072 1_565
Ca0 O5 2.423072 1_655
Ca0 H18 2.520690 1_565
Ca0 H19 2.520690 1_655
Ca0 H23 2.529458 1_555
Ca0 H22 2.529458 1_555
Ca0 H15 2.599128 1_565
Ca0 H14 2.599128 1_655
Ca1 O1 2.311947 1_554
Ca1 O2 2.423072 1_545
Ca1 O3 2.423072 1_455
Ca1 H16 2.520690 1_544
Ca1 H17 2.520690 1_454
Ca1 H20 2.529458 1_555
Ca1 H21 2.529458 1_555
Ca1 H13 2.599128 1_544
Ca1 H12 2.599128 1_454
Ca2 O5 2.313360 1_655
Ca2 H11 2.411021 1_655
Ca2 O1 2.419376 1_655
Ca2 O4 2.453859 1_555
Ca2 H17 2.519541 1_555
Ca2 H2 2.522631 1_555
Ca2 H13 2.548152 1_655
Ca2 H5 2.551079 1_555
Ca2 H3 2.587948 1_655
Ca2 H7 2.658914 1_655
Ca2 H23 2.686324 1_555
Ca3 O4 2.313360 1_565
Ca3 H10 2.411021 1_565
Ca3 O1 2.419376 1_565
Ca3 O5 2.453859 1_555
Ca3 H16 2.519541 1_555
Ca3 H3 2.522631 1_555
Ca3 H12 2.548152 1_565
Ca3 H5 2.551079 1_555
Ca3 H2 2.587948 1_565
Ca3 H7 2.658914 1_565
Ca3 H22 2.686324 1_555
Ca4 O3 2.313360 1_455
Ca4 H9 2.411021 1_455
Ca4 O0 2.419376 1_455
Ca4 O2 2.453859 1_555
Ca4 H19 2.519541 1_555
Ca4 H0 2.522631 1_555
Ca4 H15 2.548152 1_455
Ca4 H4 2.551079 1_555
Ca4 H1 2.587948 1_455
Ca4 H6 2.658914 1_455
Ca4 H21 2.686324 1_555
Ca5 O2 2.313360 1_545
Ca5 H8 2.411021 1_545
Ca5 O0 2.419376 1_545
Ca5 O3 2.453859 1_555
Ca5 H18 2.519541 1_555
Ca5 H1 2.522631 1_555
Ca5 H14 2.548152 1_545
Ca5 H4 2.551079 1_555
Ca5 H0 2.587948 1_545
Ca5 H6 2.658914 1_545
Ca5 H20 2.686324 1_555
B0 O3 1.385239 1_455
B0 O2 1.385239 1_545
B0 O0 1.391582 1_445
B1 O4 1.385239 1_565
B1 O5 1.385239 1_655
B1 O1 1.391582 1_665
B2 H0 1.223222 1_555
B2 H1 1.223222 1_555
B2 H6 1.223719 1_555
B2 H4 1.229797 1_555
B3 H2 1.223222 1_555
B3 H3 1.223222 1_555
B3 H7 1.223719 1_555
B3 H5 1.229797 1_555
B4 H16 1.222013 1_544
B4 H8 1.222541 1_545
B4 H12 1.226265 1_554
B4 H20 1.227969 1_555
B5 H17 1.222013 1_454
B5 H9 1.222541 1_455
B5 H13 1.226265 1_554
B5 H21 1.227969 1_555
B6 H18 1.222013 1_565
B6 H10 1.222541 1_565
B6 H14 1.226265 1_555
B6 H22 1.227969 1_555
B7 H19 1.222013 1_655
B7 H11 1.222541 1_655
B7 H15 1.226265 1_555
B7 H23 1.227969 1_555
