# generated using pymatgen
data_LiNd(WO4)2
_symmetry_space_group_name_H-M   'P 1'
_cell_length_a   7.22204700
_cell_length_b   7.44933063
_cell_length_c   7.53787028
_cell_angle_alpha   113.76090677
_cell_angle_beta   115.54359046
_cell_angle_gamma   91.51022738
_symmetry_Int_Tables_number   1
_chemical_formula_structural   LiNd(WO4)2
_chemical_formula_sum   'Li2 Nd2 W4 O16'
_cell_volume   324.90024121
_cell_formula_units_Z   2
loop_
 _symmetry_equiv_pos_site_id
 _symmetry_equiv_pos_as_xyz
  1  'x, y, z'
loop_
 _atom_site_type_symbol
 _atom_site_label
 _atom_site_symmetry_multiplicity
 _atom_site_fract_x
 _atom_site_fract_y
 _atom_site_fract_z
 _atom_site_occupancy
  Li  Li0  1  0.25064700  0.67652100  0.00984500  1
  Li  Li1  1  0.74935400  0.32347900  0.99015500  1
  Nd  Nd0  1  0.18408900  0.28749400  0.46129300  1
  Nd  Nd1  1  0.81591100  0.71250600  0.53870700  1
  W  W0  1  0.26178000  0.29309500  0.02977300  1
  W  W1  1  0.73822000  0.70690500  0.97022700  1
  W  W2  1  0.64727000  0.10447200  0.28628000  1
  W  W3  1  0.35273000  0.89552800  0.71372000  1
  O  O0  1  0.18436500  0.36461300  0.80671500  1
  O  O1  1  0.81563500  0.63538700  0.19328500  1
  O  O2  1  0.44758700  0.53749600  0.25116300  1
  O  O3  1  0.55241300  0.46250400  0.74883700  1
  O  O4  1  0.86320200  0.01074300  0.19965700  1
  O  O5  1  0.13679800  0.98925700  0.80034300  1
  O  O6  1  0.70685500  0.00905000  0.48309700  1
  O  O7  1  0.29314500  0.99095000  0.51690300  1
  O  O8  1  0.17834200  0.63887600  0.56110500  1
  O  O9  1  0.82165800  0.36112400  0.43889500  1
  O  O10  1  0.48119100  0.82766100  0.00891900  1
  O  O11  1  0.51880900  0.17233900  0.99108100  1
  O  O12  1  0.04262200  0.30428900  0.09282300  1
  O  O13  1  0.95737800  0.69571100  0.90717700  1
  O  O14  1  0.38466000  0.17182800  0.26008000  1
  O  O15  1  0.61534000  0.82817200  0.73992000  1
loop_
_geom_bond_atom_site_label_1
_geom_bond_atom_site_label_2
_geom_bond_distance
_geom_bond_site_symmetry_2
Li0 O13 1.948546 1_454
Li0 O10 1.989334 1_555
Li0 O0 2.101106 1_554
Li0 O2 2.401854 1_555
Li1 O12 1.948539 1_656
Li1 O11 1.989340 1_555
Li1 O1 2.101107 1_556
Li1 O3 2.401856 1_555
Nd0 O8 2.421789 1_555
Nd0 O0 2.428911 1_555
Nd0 O4 2.457751 1_455
Nd0 O3 2.457915 1_555
Nd0 O14 2.459362 1_555
Nd0 O7 2.495827 1_545
Nd0 O12 2.571657 1_555
Nd0 O9 2.636250 1_455
Nd1 O9 2.421789 1_555
Nd1 O1 2.428911 1_555
Nd1 O5 2.457751 1_655
Nd1 O2 2.457915 1_555
Nd1 O15 2.459362 1_555
Nd1 O6 2.495827 1_565
Nd1 O13 2.571657 1_555
Nd1 O8 2.636250 1_655
O0 W0 1.830389 1_556
O1 W1 1.830389 1_554
O2 W0 1.841718 1_555
O3 W1 1.841718 1_555
O4 W2 1.978373 1_555
O4 W1 2.078534 1_544
O5 W3 1.978373 1_555
O5 W0 2.078534 1_566
O6 W2 1.790766 1_555
O7 W3 1.790766 1_555
O8 W3 1.848272 1_555
O9 W2 1.848272 1_555
O10 W2 2.072366 1_565
O10 W1 2.164141 1_554
O10 W3 2.284434 1_554
O11 W3 2.072366 1_545
O11 W0 2.164141 1_556
O11 W2 2.284434 1_556
O12 W0 1.833502 1_555
O13 W1 1.833502 1_555
O14 W2 1.922181 1_555
O14 W0 2.143545 1_555
O15 W3 1.922181 1_555
O15 W1 2.143545 1_555
