# generated using pymatgen
data_BaCaSmBiO6
_symmetry_space_group_name_H-M   'P 1'
_cell_length_a   6.03924114
_cell_length_b   6.13558853
_cell_length_c   8.63964866
_cell_angle_alpha   90.13235816
_cell_angle_beta   89.64077798
_cell_angle_gamma   90.10938679
_symmetry_Int_Tables_number   1
_chemical_formula_structural   BaCaSmBiO6
_chemical_formula_sum   'Ba2 Ca2 Sm2 Bi2 O12'
_cell_volume   320.12840112
_cell_formula_units_Z   2
loop_
 _symmetry_equiv_pos_site_id
 _symmetry_equiv_pos_as_xyz
  1  'x, y, z'
loop_
 _atom_site_type_symbol
 _atom_site_label
 _atom_site_symmetry_multiplicity
 _atom_site_fract_x
 _atom_site_fract_y
 _atom_site_fract_z
 _atom_site_occupancy
  Ba  Ba0  1  0.99376665  0.03713056  0.25048381  1
  Ba  Ba1  1  0.00623335  0.96286944  0.74951619  1
  Ca  Ca0  1  0.51036697  0.54063035  0.25273724  1
  Ca  Ca1  1  0.48963303  0.45936965  0.74726276  1
  Sm  Sm0  1  0.50000000  -0.00000000  -0.00000000  1
  Sm  Sm1  1  -0.00000000  0.50000000  0.50000000  1
  Bi  Bi0  1  -0.00000000  0.50000000  -0.00000000  1
  Bi  Bi1  1  0.50000000  -0.00000000  0.50000000  1
  O  O0  1  0.19801384  0.21861019  0.95846915  1
  O  O1  1  0.31503165  0.70740785  0.56117536  1
  O  O2  1  0.80198616  0.78138981  0.04153085  1
  O  O3  1  0.68496835  0.29259215  0.43882464  1
  O  O4  1  0.28747215  0.69114981  0.93417093  1
  O  O5  1  0.21564447  0.19976327  0.53342288  1
  O  O6  1  0.71252785  0.30885019  0.06582907  1
  O  O7  1  0.78435553  0.80023673  0.46657712  1
  O  O8  1  0.42898030  0.93222238  0.26054933  1
  O  O9  1  0.11710096  0.49208852  0.23850401  1
  O  O10  1  0.57101970  0.06777762  0.73945067  1
  O  O11  1  0.88289904  0.50791148  0.76149599  1
loop_
_geom_bond_atom_site_label_1
_geom_bond_atom_site_label_2
_geom_bond_distance
_geom_bond_site_symmetry_2
Ba0 O2 2.658724 1_545
Ba0 O7 2.678345 1_545
Ba0 O8 2.709195 1_645
Ba0 O6 2.875142 1_555
Ba0 O9 2.889644 1_655
Ba0 O3 2.922969 1_555
Ba0 O5 2.965043 1_655
Ba0 O0 3.015812 1_654
Ba1 O0 2.658724 1_565
Ba1 O5 2.678345 1_565
Ba1 O10 2.709195 1_465
Ba1 O4 2.875142 1_555
Ba1 O11 2.889644 1_455
Ba1 O1 2.922969 1_555
Ba1 O7 2.965043 1_455
Ba1 O2 3.015812 1_456
Ca0 O9 2.396952 1_555
Ca0 O8 2.454017 1_555
Ca0 O3 2.459965 1_555
Ca0 O6 2.468183 1_555
Ca0 O2 2.928436 1_555
Ca0 O7 2.950092 1_555
Ca0 O1 3.080986 1_555
Ca1 O11 2.396952 1_555
Ca1 O10 2.454017 1_555
Ca1 O1 2.459965 1_555
Ca1 O4 2.468183 1_555
Ca1 O0 2.928436 1_555
Ca1 O5 2.950092 1_555
Ca1 O3 3.080986 1_555
Bi0 O0 2.130546 1_554
Bi0 O2 2.130546 1_455
Bi0 O4 2.167021 1_554
Bi0 O6 2.167021 1_455
Bi0 O11 2.183435 1_454
Bi0 O9 2.183435 1_555
Bi1 O5 2.129533 1_555
Bi1 O7 2.129533 1_545
Bi1 O10 2.154802 1_555
Bi1 O8 2.154802 1_545
Bi1 O1 2.177004 1_545
Bi1 O3 2.177004 1_555
O0 Sm0 2.296461 1_556
O1 Sm1 2.349200 1_555
O2 Sm0 2.296461 1_565
O3 Sm1 2.349200 1_655
O4 Sm0 2.357262 1_566
O5 Sm1 2.277985 1_555
O6 Sm0 2.357262 1_555
O7 Sm1 2.277985 1_655
O8 Sm0 2.327161 1_565
O9 Sm1 2.363518 1_555
O10 Sm0 2.327161 1_556
O11 Sm1 2.363518 1_655
