# generated using pymatgen
data_K2Nd4MgNb2O12
_symmetry_space_group_name_H-M   'P 1'
_cell_length_a   5.87128249
_cell_length_b   6.98202887
_cell_length_c   8.73875322
_cell_angle_alpha   103.04674951
_cell_angle_beta   88.84292538
_cell_angle_gamma   111.73041718
_symmetry_Int_Tables_number   1
_chemical_formula_structural   K2Nd4MgNb2O12
_chemical_formula_sum   'K2 Nd4 Mg1 Nb2 O12'
_cell_volume   323.38803326
_cell_formula_units_Z   1
loop_
 _symmetry_equiv_pos_site_id
 _symmetry_equiv_pos_as_xyz
  1  'x, y, z'
loop_
 _atom_site_type_symbol
 _atom_site_label
 _atom_site_symmetry_multiplicity
 _atom_site_fract_x
 _atom_site_fract_y
 _atom_site_fract_z
 _atom_site_occupancy
  K  K0  1  0.12138100  0.23730000  0.47577300  1
  K  K1  1  0.96993000  0.81935900  0.61432800  1
  Nd  Nd0  1  0.15399900  0.28387800  0.93959500  1
  Nd  Nd1  1  0.55010100  0.10033600  0.19377100  1
  Nd  Nd2  1  0.45117400  0.83158200  0.78681600  1
  Nd  Nd3  1  0.89545600  0.75376800  0.04815900  1
  Mg  Mg0  1  0.63849000  0.56871700  0.35036300  1
  Nb  Nb0  1  0.67942000  0.33573600  0.69777100  1
  Nb  Nb1  1  0.23049400  0.64022900  0.29051800  1
  O  O0  1  0.01294600  0.54172700  0.80722600  1
  O  O1  1  0.18355500  0.89916400  0.29692800  1
  O  O2  1  0.26207300  0.99331100  0.98087600  1
  O  O3  1  0.80139200  0.11770500  0.70727000  1
  O  O4  1  0.63610300  0.81801400  0.26414300  1
  O  O5  1  0.77706000  0.01568300  0.99005600  1
  O  O6  1  0.35006700  0.13857500  0.71385200  1
  O  O7  1  0.88594500  0.47352700  0.19974600  1
  O  O8  1  0.68307600  0.36915600  0.48710400  1
  O  O9  1  0.40587300  0.66414200  0.50437200  1
  O  O10  1  0.33262700  0.37611100  0.20901200  1
  O  O11  1  0.56217300  0.54975900  0.84232000  1
loop_
_geom_bond_atom_site_label_1
_geom_bond_atom_site_label_2
_geom_bond_distance
_geom_bond_site_symmetry_2
K0 O1 2.664358 1_545
K0 O9 2.780054 1_555
K0 O3 2.786929 1_455
K0 O10 2.815158 1_555
K0 O6 2.837620 1_555
K0 O8 3.030290 1_455
K0 O8 3.075250 1_555
K1 O6 2.494990 1_665
K1 O3 2.589978 1_565
K1 O0 2.918538 1_655
K1 O1 3.101081 1_655
Nd0 O5 2.421464 1_455
Nd0 O2 2.437516 1_545
Nd0 O10 2.443925 1_556
Nd0 O6 2.472954 1_555
Nd0 O3 2.661120 1_455
Nd0 O11 2.692200 1_555
Nd0 O0 2.710710 1_555
Nd0 O7 3.072145 1_456
Nd1 O5 2.303585 1_554
Nd1 O2 2.333040 1_544
Nd1 O1 2.381598 1_545
Nd1 O4 2.411548 1_545
Nd1 O7 2.611208 1_555
Nd1 O10 2.655817 1_555
Nd1 O8 2.743484 1_555
Nd2 O2 2.317624 1_555
Nd2 O5 2.398537 1_565
Nd2 O11 2.434141 1_555
Nd2 O9 2.454181 1_555
Nd2 O3 2.495937 1_565
Nd2 O6 2.632067 1_565
Nd2 O0 2.652601 1_555
Nd3 O5 2.336648 1_564
Nd3 O2 2.345923 1_654
Nd3 O11 2.452552 1_554
Nd3 O4 2.467750 1_555
Nd3 O0 2.528008 1_654
Nd3 O1 2.549183 1_655
Nd3 O7 2.583162 1_555
Mg0 O10 2.027444 1_555
Mg0 O4 2.051385 1_555
Mg0 O9 2.077312 1_555
Mg0 O8 2.114772 1_555
Mg0 O7 2.127863 1_555
Nb0 O8 1.905967 1_555
Nb0 O3 1.924534 1_555
Nb0 O6 1.938886 1_555
Nb0 O11 2.043732 1_555
Nb0 O0 2.046246 1_655
Nb1 O1 1.915764 1_555
Nb1 O7 1.995170 1_455
Nb1 O9 2.095274 1_555
Nb1 O10 2.115676 1_555
Nb1 O4 2.276688 1_555
