# generated using pymatgen
data_PrZrF7
_symmetry_space_group_name_H-M   'P 1'
_cell_length_a   5.82006271
_cell_length_b   6.27204997
_cell_length_c   8.44519780
_cell_angle_alpha   77.91241233
_cell_angle_beta   90.00000000
_cell_angle_gamma   90.00000000
_symmetry_Int_Tables_number   1
_chemical_formula_structural   PrZrF7
_chemical_formula_sum   'Pr2 Zr2 F14'
_cell_volume   301.44615353
_cell_formula_units_Z   2
loop_
 _symmetry_equiv_pos_site_id
 _symmetry_equiv_pos_as_xyz
  1  'x, y, z'
loop_
 _atom_site_type_symbol
 _atom_site_label
 _atom_site_symmetry_multiplicity
 _atom_site_fract_x
 _atom_site_fract_y
 _atom_site_fract_z
 _atom_site_occupancy
  Pr  Pr0  1  0.19999044  0.65978923  0.31288999  1
  Pr  Pr1  1  0.69999044  0.34021077  0.68711001  1
  Zr  Zr0  1  0.21004081  0.80804608  0.77658999  1
  Zr  Zr1  1  0.71004081  0.19195392  0.22341001  1
  F  F0  1  0.37433818  0.43946139  0.53129005  1
  F  F1  1  0.87433818  0.56053861  0.46870995  1
  F  F2  1  0.93237769  0.94549475  0.22551688  1
  F  F3  1  0.43237769  0.05450525  0.77448312  1
  F  F4  1  0.45671830  0.96708688  0.23901440  1
  F  F5  1  0.95671830  0.03291312  0.76098560  1
  F  F6  1  0.49846925  0.44905372  0.21494384  1
  F  F7  1  0.99846925  0.55094628  0.78505616  1
  F  F8  1  0.19870995  0.75297182  0.01929539  1
  F  F9  1  0.69870995  0.24702818  0.98070461  1
  F  F10  1  0.21310993  0.85973588  0.53248234  1
  F  F11  1  0.71310993  0.14026412  0.46751766  1
  F  F12  1  0.99260343  0.38226597  0.21382157  1
  F  F13  1  0.49260343  0.61773403  0.78617843  1
loop_
_geom_bond_atom_site_label_1
_geom_bond_atom_site_label_2
_geom_bond_distance
_geom_bond_site_symmetry_2
F0 Pr0 2.296466 1_555
F0 Pr1 2.316966 1_555
F1 Pr1 2.296466 1_555
F1 Pr0 2.316966 1_655
F2 Zr1 2.013152 1_565
F2 Pr0 2.372275 1_655
F3 Zr0 2.013152 1_545
F3 Pr1 2.372275 1_555
F4 Zr1 2.025440 1_565
F4 Pr0 2.415159 1_555
F5 Zr0 2.025440 1_645
F5 Pr1 2.415159 1_555
F6 Zr1 2.018258 1_555
F6 Pr0 2.430404 1_555
F7 Zr0 2.018258 1_655
F7 Pr1 2.430404 1_555
F8 Zr0 2.007085 1_554
F8 Pr0 2.425380 1_555
F9 Zr1 2.007085 1_556
F9 Pr1 2.425380 1_555
F10 Zr0 2.018774 1_555
F10 Pr0 2.447802 1_555
F11 Zr1 2.018774 1_555
F11 Pr1 2.447802 1_555
F12 Zr1 2.023698 1_555
F12 Pr0 2.407613 1_655
F13 Zr0 2.023698 1_555
F13 Pr1 2.407613 1_555
