# generated using pymatgen
data_BaSrEuWO6
_symmetry_space_group_name_H-M   'P 1'
_cell_length_a   6.03230633
_cell_length_b   6.12716345
_cell_length_c   8.58755158
_cell_angle_alpha   88.65300804
_cell_angle_beta   90.73326893
_cell_angle_gamma   89.56513196
_symmetry_Int_Tables_number   1
_chemical_formula_structural   BaSrEuWO6
_chemical_formula_sum   'Ba2 Sr2 Eu2 W2 O12'
_cell_volume   317.28028586
_cell_formula_units_Z   2
loop_
 _symmetry_equiv_pos_site_id
 _symmetry_equiv_pos_as_xyz
  1  'x, y, z'
loop_
 _atom_site_type_symbol
 _atom_site_label
 _atom_site_symmetry_multiplicity
 _atom_site_fract_x
 _atom_site_fract_y
 _atom_site_fract_z
 _atom_site_occupancy
  Ba  Ba0  1  0.99267189  0.04028800  0.24845248  1
  Ba  Ba1  1  0.00732811  0.95971200  0.75154752  1
  Sr  Sr0  1  0.00000000  0.50000000  0.00000000  1
  Sr  Sr1  1  0.50000000  -0.00000000  0.50000000  1
  Eu  Eu0  1  0.51101830  0.55058881  0.24653520  1
  Eu  Eu1  1  0.48898170  0.44941119  0.75346480  1
  W  W0  1  0.50000000  -0.00000000  0.00000000  1
  W  W1  1  0.00000000  0.50000000  0.50000000  1
  O  O0  1  0.23743242  0.18402137  0.95915381  1
  O  O1  1  0.26205699  0.67403772  0.55632274  1
  O  O2  1  0.76256758  0.81597863  0.04084619  1
  O  O3  1  0.73794301  0.32596228  0.44367726  1
  O  O4  1  0.33500402  0.73076587  0.94812340  1
  O  O5  1  0.17772528  0.23725953  0.55012952  1
  O  O6  1  0.66499598  0.26923413  0.05187660  1
  O  O7  1  0.82227472  0.76274047  0.44987048  1
  O  O8  1  0.42375049  0.95288404  0.22049951  1
  O  O9  1  0.10693501  0.48717753  0.28287717  1
  O  O10  1  0.57624951  0.04711596  0.77950049  1
  O  O11  1  0.89306499  0.51282247  0.71712283  1
loop_
_geom_bond_atom_site_label_1
_geom_bond_atom_site_label_2
_geom_bond_distance
_geom_bond_site_symmetry_2
Ba0 O7 2.621849 1_545
Ba0 O2 2.659874 1_545
Ba0 O8 2.665966 1_645
Ba0 O9 2.849829 1_655
Ba0 O3 2.898049 1_555
Ba0 O6 2.913040 1_555
Ba0 O0 3.022978 1_654
Ba0 O5 3.083449 1_655
Ba1 O5 2.621849 1_565
Ba1 O0 2.659874 1_565
Ba1 O10 2.665966 1_465
Ba1 O11 2.849829 1_455
Ba1 O1 2.898049 1_555
Ba1 O4 2.913040 1_555
Ba1 O2 3.022978 1_456
Ba1 O7 3.083449 1_455
Eu0 O9 2.493626 1_555
Eu0 O8 2.520787 1_555
Eu0 O3 2.537080 1_555
Eu0 O6 2.603824 1_555
Eu0 O2 2.835100 1_555
Eu0 O7 2.885128 1_555
Eu0 O4 2.948344 1_554
Eu0 O1 3.175605 1_555
Eu1 O11 2.493626 1_555
Eu1 O10 2.520787 1_555
Eu1 O1 2.537080 1_555
Eu1 O4 2.603824 1_555
Eu1 O0 2.835100 1_555
Eu1 O5 2.885128 1_555
Eu1 O6 2.948344 1_556
Eu1 O3 3.175605 1_555
O0 W0 1.960392 1_556
O0 Sr0 2.434218 1_556
O1 W1 1.974913 1_555
O1 Sr1 2.509767 1_565
O2 W0 1.960392 1_565
O2 Sr0 2.434218 1_655
O3 W1 1.974913 1_655
O3 Sr1 2.509767 1_555
O4 W0 1.989608 1_566
O4 Sr0 2.513626 1_556
O5 W1 1.963604 1_555
O5 Sr1 2.466974 1_555
O6 W0 1.989608 1_555
O6 Sr0 2.513626 1_655
O7 W1 1.963604 1_655
O7 Sr1 2.466974 1_565
O8 W0 1.969530 1_565
O8 Sr1 2.462178 1_565
O9 W1 1.983871 1_555
O9 Sr0 2.504706 1_555
O10 W0 1.969530 1_556
O10 Sr1 2.462178 1_555
O11 W1 1.983871 1_655
O11 Sr0 2.504706 1_656
