# generated using pymatgen
data_V2Cu2BiO8
_symmetry_space_group_name_H-M   'P 1'
_cell_length_a   3.10948348
_cell_length_b   7.09427203
_cell_length_c   7.07510357
_cell_angle_alpha   91.68215213
_cell_angle_beta   102.91950042
_cell_angle_gamma   77.61468254
_symmetry_Int_Tables_number   1
_chemical_formula_structural   V2Cu2BiO8
_chemical_formula_sum   'V2 Cu2 Bi1 O8'
_cell_volume   148.55376142
_cell_formula_units_Z   1
loop_
 _symmetry_equiv_pos_site_id
 _symmetry_equiv_pos_as_xyz
  1  'x, y, z'
loop_
 _atom_site_type_symbol
 _atom_site_label
 _atom_site_symmetry_multiplicity
 _atom_site_fract_x
 _atom_site_fract_y
 _atom_site_fract_z
 _atom_site_occupancy
  V  V0  1  0.34809100  0.48747100  0.18597700  1
  V  V1  1  0.16787900  0.18825000  0.52805000  1
  Cu  Cu0  1  0.64450300  0.52322200  0.81282100  1
  Cu  Cu1  1  0.83286400  0.81294400  0.48176900  1
  Bi  Bi0  1  0.95364900  0.99900000  0.00427900  1
  O  O0  1  0.84408500  0.34454000  0.04233000  1
  O  O1  1  0.14270500  0.66422300  0.96664900  1
  O  O2  1  0.80462600  0.04559100  0.65933900  1
  O  O3  1  0.18610300  0.95810500  0.34171000  1
  O  O4  1  0.45612000  0.70650500  0.61771200  1
  O  O5  1  0.53957900  0.28834700  0.37180000  1
  O  O6  1  0.83809900  0.61058000  0.28934000  1
  O  O7  1  0.16818600  0.37122200  0.69822500  1
loop_
_geom_bond_atom_site_label_1
_geom_bond_atom_site_label_2
_geom_bond_distance
_geom_bond_site_symmetry_2
Cu0 O4 1.832054 1_555
Cu0 O0 1.990349 1_556
Cu0 O7 2.027467 1_555
Cu0 O7 2.063393 1_655
Cu0 O1 2.105200 1_655
Cu0 O1 2.155378 1_555
Cu1 O4 1.947709 1_555
Cu1 O6 1.949354 1_555
Cu1 O4 1.957677 1_655
Cu1 O2 2.043407 1_565
Cu1 O3 2.069000 1_655
Cu1 O3 2.089812 1_555
Bi0 O3 2.342048 1_655
Bi0 O1 2.343295 1_654
Bi0 O2 2.399149 1_564
Bi0 O0 2.416961 1_565
O0 V0 2.099828 1_555
O0 V0 2.103841 1_655
O1 V0 1.927627 1_556
O2 V1 2.043934 1_655
O2 V1 2.044632 1_555
O3 V1 2.067465 1_565
O5 V0 1.864601 1_555
O5 V1 2.007099 1_655
O5 V1 2.007918 1_555
O6 V0 1.911606 1_555
O6 V0 1.923366 1_655
O7 V1 1.744372 1_555
