# generated using pymatgen
data_Tb5BiPt2
_symmetry_space_group_name_H-M   'P 1'
_cell_length_a   8.81480542
_cell_length_b   8.81480542
_cell_length_c   8.81480542
_cell_angle_alpha   127.11251413
_cell_angle_beta   127.11251413
_cell_angle_gamma   78.06719795
_symmetry_Int_Tables_number   1
_chemical_formula_structural   Tb5BiPt2
_chemical_formula_sum   'Tb10 Bi2 Pt4'
_cell_volume   422.02351698
_cell_formula_units_Z   2
loop_
 _symmetry_equiv_pos_site_id
 _symmetry_equiv_pos_as_xyz
  1  'x, y, z'
loop_
 _atom_site_type_symbol
 _atom_site_label
 _atom_site_symmetry_multiplicity
 _atom_site_fract_x
 _atom_site_fract_y
 _atom_site_fract_z
 _atom_site_occupancy
  Tb  Tb0  1  -0.00000000  -0.00000000  -0.00000000  1
  Tb  Tb1  1  0.50000000  0.50000000  -0.00000000  1
  Tb  Tb2  1  0.79083021  0.29083021  0.81112289  1
  Tb  Tb3  1  0.20916979  0.70916979  0.18887711  1
  Tb  Tb4  1  0.47970533  0.97970533  0.18887711  1
  Tb  Tb5  1  0.29083021  0.47970533  0.50000000  1
  Tb  Tb6  1  0.02029467  0.20916979  0.50000000  1
  Tb  Tb7  1  0.52029467  0.02029467  0.81112289  1
  Tb  Tb8  1  0.70916979  0.52029467  0.50000000  1
  Tb  Tb9  1  0.97970533  0.79083021  0.50000000  1
  Bi  Bi0  1  0.25000000  0.25000000  -0.00000000  1
  Bi  Bi1  1  0.75000000  0.75000000  -0.00000000  1
  Pt  Pt0  1  0.13916352  0.63916352  0.77832804  1
  Pt  Pt1  1  0.86083648  0.36083648  0.22167196  1
  Pt  Pt2  1  0.63916352  0.86083648  0.50000000  1
  Pt  Pt3  1  0.36083648  0.13916352  0.50000000  1
loop_
_geom_bond_atom_site_label_1
_geom_bond_atom_site_label_2
_geom_bond_distance
_geom_bond_site_symmetry_2
Tb0 Tb4 3.497870 1_545
Tb0 Tb7 3.497870 1_454
Tb0 Tb6 3.497874 1_555
Tb0 Tb5 3.497874 1_555
Tb0 Tb8 3.497874 1_444
Tb0 Tb9 3.497874 1_444
Tb0 Tb2 3.497884 1_454
Tb0 Tb3 3.497884 1_545
Tb1 Tb7 3.497870 1_554
Tb1 Tb4 3.497870 1_555
Tb1 Tb5 3.497874 1_554
Tb1 Tb8 3.497874 1_555
Tb1 Tb9 3.497874 1_555
Tb1 Tb6 3.497874 1_554
Tb1 Tb2 3.497884 1_554
Tb1 Tb3 3.497884 1_555
Bi0 Tb3 3.357429 1_555
Bi0 Tb2 3.357429 1_454
Bi0 Tb5 3.357432 1_555
Bi0 Tb9 3.357432 1_444
Bi0 Tb8 3.357432 1_555
Bi0 Tb6 3.357432 1_554
Bi0 Tb7 3.357442 1_554
Bi0 Tb4 3.357442 1_545
Bi0 Tb0 3.423568 1_555
Bi0 Tb1 3.423568 1_555
Bi1 Tb2 3.357429 1_554
Bi1 Tb3 3.357429 1_655
Bi1 Tb5 3.357432 1_554
Bi1 Tb6 3.357432 1_665
Bi1 Tb8 3.357432 1_554
Bi1 Tb9 3.357432 1_555
Bi1 Tb7 3.357442 1_564
Bi1 Tb4 3.357442 1_555
Bi1 Tb0 3.423568 1_665
Bi1 Tb1 3.423568 1_555
Pt0 Tb4 2.936945 1_556
Pt0 Tb3 2.936954 1_556
Pt0 Tb6 2.966776 1_555
Pt0 Tb8 2.966776 1_455
Pt0 Tb9 2.966784 1_455
Pt0 Tb5 2.966784 1_555
Pt0 Tb1 3.036232 1_556
Pt0 Tb0 3.036232 1_566
Pt0 Pt1 3.090194 1_455
Pt1 Tb7 2.936945 1_554
Pt1 Tb2 2.936954 1_554
Pt1 Tb5 2.966776 1_655
Pt1 Tb9 2.966776 1_555
Pt1 Tb8 2.966784 1_555
Pt1 Tb6 2.966784 1_655
Pt1 Tb1 3.036232 1_555
Pt1 Tb0 3.036232 1_655
Pt2 Tb9 2.936945 1_555
Pt2 Tb8 2.936945 1_555
Pt2 Tb4 2.966762 1_555
Pt2 Tb7 2.966762 1_565
Pt2 Tb3 2.966779 1_555
Pt2 Tb2 2.966779 1_565
Pt2 Tb0 3.036234 1_666
Pt2 Tb1 3.036234 1_555
Pt2 Pt3 3.090183 1_565
Pt3 Tb5 2.936945 1_555
Pt3 Tb6 2.936945 1_555
Pt3 Tb4 2.966762 1_545
Pt3 Tb7 2.966762 1_555
Pt3 Tb3 2.966779 1_545
Pt3 Tb2 2.966779 1_555
Pt3 Tb0 3.036234 1_555
Pt3 Tb1 3.036234 1_556
