# generated using pymatgen
data_Sr5(Ga3O7)2
_symmetry_space_group_name_H-M   'P 1'
_cell_length_a   8.28493900
_cell_length_b   8.28094400
_cell_length_c   11.00438136
_cell_angle_alpha   87.69000846
_cell_angle_beta   90.00000000
_cell_angle_gamma   90.00000000
_symmetry_Int_Tables_number   1
_chemical_formula_structural   Sr5(Ga3O7)2
_chemical_formula_sum   'Sr10 Ga12 O28'
_cell_volume   754.36535787
_cell_formula_units_Z   2
loop_
 _symmetry_equiv_pos_site_id
 _symmetry_equiv_pos_as_xyz
  1  'x, y, z'
loop_
 _atom_site_type_symbol
 _atom_site_label
 _atom_site_symmetry_multiplicity
 _atom_site_fract_x
 _atom_site_fract_y
 _atom_site_fract_z
 _atom_site_occupancy
  Sr  Sr0  1  0.00000000  0.00000000  0.50000000  1
  Sr  Sr1  1  0.50000000  0.00000000  0.00000000  1
  Sr  Sr2  1  0.74701200  0.59161200  0.50247500  1
  Sr  Sr3  1  0.24701200  0.40838800  0.99752500  1
  Sr  Sr4  1  0.25298800  0.40838800  0.49752500  1
  Sr  Sr5  1  0.75298800  0.59161200  0.00247500  1
  Sr  Sr6  1  0.40799100  0.83923800  0.47021800  1
  Sr  Sr7  1  0.90799100  0.16076200  0.02978200  1
  Sr  Sr8  1  0.59200900  0.16076200  0.52978200  1
  Sr  Sr9  1  0.09200900  0.83923800  0.97021800  1
  Ga  Ga0  1  0.91377800  0.26918500  0.74631800  1
  Ga  Ga1  1  0.41377800  0.73081500  0.75368200  1
  Ga  Ga2  1  0.08622200  0.73081500  0.25368200  1
  Ga  Ga3  1  0.58622200  0.26918500  0.24631800  1
  Ga  Ga4  1  0.55881000  0.38601200  0.78717100  1
  Ga  Ga5  1  0.05881000  0.61398800  0.71282900  1
  Ga  Ga6  1  0.44119000  0.61398800  0.21282900  1
  Ga  Ga7  1  0.94119000  0.38601200  0.28717100  1
  Ga  Ga8  1  0.27144200  0.10455900  0.76060800  1
  Ga  Ga9  1  0.77144200  0.89544100  0.73939200  1
  Ga  Ga10  1  0.72855800  0.89544100  0.23939200  1
  Ga  Ga11  1  0.22855800  0.10455900  0.26060800  1
  O  O0  1  0.76183600  0.33784300  0.86096100  1
  O  O1  1  0.26183600  0.66215700  0.63903900  1
  O  O2  1  0.23816400  0.66215700  0.13903900  1
  O  O3  1  0.73816400  0.33784300  0.36096100  1
  O  O4  1  0.07739000  0.16486900  0.83865800  1
  O  O5  1  0.57739000  0.83513100  0.66134200  1
  O  O6  1  0.92261000  0.83513100  0.16134200  1
  O  O7  1  0.42261000  0.16486900  0.33865800  1
  O  O8  1  0.41787000  0.22790200  0.84995900  1
  O  O9  1  0.91787000  0.77209800  0.65004100  1
  O  O10  1  0.58213000  0.77209800  0.15004100  1
  O  O11  1  0.08213000  0.22790200  0.34995900  1
  O  O12  1  0.98989100  0.42511600  0.63458500  1
  O  O13  1  0.48989100  0.57488400  0.86541500  1
  O  O14  1  0.01010900  0.57488400  0.36541500  1
  O  O15  1  0.51010900  0.42511600  0.13458500  1
  O  O16  1  0.81891800  0.10119600  0.66131400  1
  O  O17  1  0.31891800  0.89880400  0.83868600  1
  O  O18  1  0.18108200  0.89880400  0.33868600  1
  O  O19  1  0.68108200  0.10119600  0.16131400  1
  O  O20  1  0.27929700  0.10533900  0.59450300  1
  O  O21  1  0.77929700  0.89466100  0.90549700  1
  O  O22  1  0.72070300  0.89466100  0.40549700  1
  O  O23  1  0.22070300  0.10533900  0.09450300  1
  O  O24  1  0.55852400  0.41164800  0.62204500  1
  O  O25  1  0.05852400  0.58835200  0.87795500  1
  O  O26  1  0.44147600  0.58835200  0.37795500  1
  O  O27  1  0.94147600  0.41164800  0.12204500  1
loop_
_geom_bond_atom_site_label_1
_geom_bond_atom_site_label_2
_geom_bond_distance
_geom_bond_site_symmetry_2
Ga0 O12 1.857095 1_555
Ga0 O16 1.879557 1_555
Ga0 O4 1.882929 1_655
Ga0 O0 1.886080 1_555
Ga1 O13 1.857095 1_555
Ga1 O17 1.879557 1_555
Ga1 O5 1.882929 1_555
Ga1 O1 1.886080 1_555
Ga2 O14 1.857095 1_555
Ga2 O18 1.879557 1_555
Ga2 O6 1.882929 1_455
Ga2 O2 1.886080 1_555
Ga3 O15 1.857095 1_555
Ga3 O19 1.879557 1_555
Ga3 O7 1.882929 1_555
Ga3 O3 1.886080 1_555
Ga4 O24 1.820951 1_555
Ga4 O8 1.866070 1_555
Ga4 O0 1.903072 1_555
Ga4 O13 1.903200 1_555
Ga5 O25 1.820951 1_555
Ga5 O9 1.866070 1_455
Ga5 O1 1.903072 1_555
Ga5 O12 1.903200 1_455
Ga6 O26 1.820951 1_555
Ga6 O10 1.866070 1_555
Ga6 O2 1.903072 1_555
Ga6 O15 1.903200 1_555
Ga7 O27 1.820951 1_555
Ga7 O11 1.866070 1_655
Ga7 O3 1.903072 1_555
Ga7 O14 1.903200 1_655
Ga8 O20 1.828792 1_555
Ga8 O8 1.887517 1_555
Ga8 O4 1.899059 1_555
Ga8 O17 1.917815 1_545
Ga9 O21 1.828792 1_555
Ga9 O9 1.887517 1_555
Ga9 O5 1.899059 1_555
Ga9 O16 1.917815 1_565
Ga10 O22 1.828792 1_555
Ga10 O10 1.887517 1_555
Ga10 O6 1.899059 1_555
Ga10 O19 1.917815 1_565
Ga11 O23 1.828792 1_555
Ga11 O11 1.887517 1_555
Ga11 O7 1.899059 1_555
Ga11 O18 1.917815 1_545
O0 Sr7 2.616920 1_556
O0 Sr5 2.666526 1_556
O1 Sr6 2.616920 1_555
O1 Sr4 2.666526 1_555
O2 Sr9 2.616920 1_554
O2 Sr3 2.666526 1_554
O3 Sr8 2.616920 1_555
O3 Sr2 2.666526 1_555
O4 Sr7 2.527558 1_456
O4 Sr9 3.011179 1_545
O4 Sr3 3.062996 1_555
O5 Sr6 2.527558 1_555
O5 Sr8 3.011179 1_565
O5 Sr2 3.062996 1_555
O6 Sr9 2.527558 1_654
O6 Sr7 3.011179 1_565
O6 Sr5 3.062996 1_555
O7 Sr8 2.527558 1_555
O7 Sr6 3.011179 1_545
O7 Sr4 3.062996 1_555
O8 Sr1 2.549443 1_556
O8 Sr3 2.658985 1_555
O9 Sr0 2.549443 1_665
O9 Sr2 2.658985 1_555
O10 Sr1 2.549443 1_565
O10 Sr5 2.658985 1_555
O11 Sr0 2.549443 1_555
O11 Sr4 2.658985 1_555
O12 Sr4 2.657472 1_655
O12 Sr2 2.811042 1_555
O13 Sr5 2.657472 1_556
O13 Sr3 2.811042 1_555
O14 Sr2 2.657472 1_455
O14 Sr4 2.811042 1_555
O15 Sr3 2.657472 1_554
O15 Sr5 2.811042 1_555
O16 Sr8 2.411416 1_555
O16 Sr0 2.494817 1_655
O17 Sr9 2.411416 1_555
O17 Sr1 2.494817 1_566
O18 Sr6 2.411416 1_555
O18 Sr0 2.494817 1_565
O19 Sr7 2.411416 1_555
O19 Sr1 2.494817 1_555
O20 Sr4 2.695969 1_555
O20 Sr0 2.696283 1_555
O20 Sr8 2.720989 1_555
O20 Sr6 2.847110 1_545
O21 Sr5 2.695969 1_556
O21 Sr1 2.696283 1_566
O21 Sr9 2.720989 1_655
O21 Sr7 2.847110 1_566
O22 Sr2 2.695969 1_555
O22 Sr0 2.696283 1_665
O22 Sr6 2.720989 1_555
O22 Sr8 2.847110 1_565
O23 Sr3 2.695969 1_554
O23 Sr1 2.696283 1_555
O23 Sr7 2.720989 1_455
O23 Sr9 2.847110 1_544
O24 Sr8 2.365193 1_555
O24 Sr2 2.496554 1_555
O24 Sr4 2.879072 1_555
O25 Sr9 2.365193 1_555
O25 Sr3 2.496554 1_555
O25 Sr5 2.879072 1_456
O26 Sr6 2.365193 1_555
O26 Sr4 2.496554 1_555
O26 Sr2 2.879072 1_555
O27 Sr7 2.365193 1_555
O27 Sr5 2.496554 1_555
O27 Sr3 2.879072 1_654
