# generated using pymatgen
data_TmSiRu2C
_symmetry_space_group_name_H-M   'P 1'
_cell_length_a   5.89132188
_cell_length_b   5.89132188
_cell_length_c   7.12823900
_cell_angle_alpha   90.00000000
_cell_angle_beta   90.00000000
_cell_angle_gamma   142.79098950
_symmetry_Int_Tables_number   1
_chemical_formula_structural   TmSiRu2C
_chemical_formula_sum   'Tm2 Si2 Ru4 C2'
_cell_volume   149.61158652
_cell_formula_units_Z   2
loop_
 _symmetry_equiv_pos_site_id
 _symmetry_equiv_pos_as_xyz
  1  'x, y, z'
loop_
 _atom_site_type_symbol
 _atom_site_label
 _atom_site_symmetry_multiplicity
 _atom_site_fract_x
 _atom_site_fract_y
 _atom_site_fract_z
 _atom_site_occupancy
  Tm  Tm0  1  0.54569800  0.45430200  0.25000000  1
  Tm  Tm1  1  0.45430200  0.54569800  0.75000000  1
  Si  Si0  1  0.26759200  0.73240800  0.25000000  1
  Si  Si1  1  0.73240800  0.26759200  0.75000000  1
  Ru  Ru0  1  0.83676300  0.16323700  0.05586800  1
  Ru  Ru1  1  0.16323700  0.83676300  0.94413200  1
  Ru  Ru2  1  0.16323700  0.83676300  0.55586800  1
  Ru  Ru3  1  0.83676300  0.16323700  0.44413200  1
  C  C0  1  0.00000000  0.00000000  0.00000000  1
  C  C1  1  0.00000000  0.00000000  0.50000000  1
loop_
_geom_bond_atom_site_label_1
_geom_bond_atom_site_label_2
_geom_bond_distance
_geom_bond_site_symmetry_2
Si0 Tm0 3.105588 1_555
Si0 Tm0 3.110063 1_565
Si0 Tm0 3.110063 1_455
Si1 Tm1 3.105588 1_555
Si1 Tm1 3.110063 1_655
Si1 Tm1 3.110063 1_545
Ru0 Si0 2.458503 1_655
Ru0 Si0 2.458503 1_545
Ru0 Si1 2.472183 1_554
Ru1 Si1 2.458503 1_565
Ru1 Si1 2.458503 1_455
Ru1 Si0 2.472183 1_556
Ru2 Si1 2.458503 1_565
Ru2 Si1 2.458503 1_455
Ru2 Si0 2.472183 1_555
Ru3 Si0 2.458503 1_655
Ru3 Si0 2.458503 1_545
Ru3 Si1 2.472183 1_555
C0 Ru0 1.865850 1_455
C0 Ru1 1.865850 1_544
C0 Tm1 2.639846 1_554
C0 Tm0 2.639846 1_445
C0 Tm1 2.639846 1_444
C0 Tm0 2.639846 1_555
C1 Ru2 1.865850 1_545
C1 Ru3 1.865850 1_455
C1 Tm0 2.639846 1_445
C1 Tm1 2.639846 1_445
C1 Tm1 2.639846 1_555
C1 Tm0 2.639846 1_555
