# generated using pymatgen
data_BaW4O7
_symmetry_space_group_name_H-M   'P 1'
_cell_length_a   6.83538470
_cell_length_b   6.83538470
_cell_length_c   11.07694900
_cell_angle_alpha   90.00000000
_cell_angle_beta   90.00000000
_cell_angle_gamma   120.00000680
_symmetry_Int_Tables_number   1
_chemical_formula_structural   BaW4O7
_chemical_formula_sum   'Ba2 W8 O14'
_cell_volume   448.20498486
_cell_formula_units_Z   2
loop_
 _symmetry_equiv_pos_site_id
 _symmetry_equiv_pos_as_xyz
  1  'x, y, z'
loop_
 _atom_site_type_symbol
 _atom_site_label
 _atom_site_symmetry_multiplicity
 _atom_site_fract_x
 _atom_site_fract_y
 _atom_site_fract_z
 _atom_site_occupancy
  Ba  Ba0  1  0.66666700  0.33333300  0.54168500  1
  Ba  Ba1  1  0.33333300  0.66666700  0.04168500  1
  W  W0  1  0.80719900  0.19280100  0.19528600  1
  W  W1  1  0.61439800  0.80719900  0.69528600  1
  W  W2  1  0.19280100  0.38560200  0.69528600  1
  W  W3  1  0.80719900  0.61439800  0.19528600  1
  W  W4  1  0.38560200  0.19280100  0.19528600  1
  W  W5  1  0.19280100  0.80719900  0.69528600  1
  W  W6  1  0.00000000  0.00000000  0.41924500  1
  W  W7  1  0.00000000  0.00000000  0.91924500  1
  O  O0  1  0.86294300  0.13705700  0.03239700  1
  O  O1  1  0.72588500  0.86294300  0.53239700  1
  O  O2  1  0.13705700  0.27411500  0.53239700  1
  O  O3  1  0.86294300  0.72588500  0.03239700  1
  O  O4  1  0.27411500  0.13705700  0.03239700  1
  O  O5  1  0.13705700  0.86294300  0.53239700  1
  O  O6  1  0.00000000  0.00000000  0.74215700  1
  O  O7  1  0.00000000  0.00000000  0.24215700  1
  O  O8  1  0.47984200  0.52015800  0.22263900  1
  O  O9  1  0.95968400  0.47984200  0.72263900  1
  O  O10  1  0.52015800  0.04031600  0.72263900  1
  O  O11  1  0.47984200  0.95968400  0.22263900  1
  O  O12  1  0.52015800  0.47984200  0.72263900  1
  O  O13  1  0.04031600  0.52015800  0.22263900  1
loop_
_geom_bond_atom_site_label_1
_geom_bond_atom_site_label_2
_geom_bond_distance
_geom_bond_site_symmetry_2
Ba0 O10 2.650726 1_555
Ba0 O9 2.650726 1_555
Ba0 O12 2.650730 1_555
Ba1 O13 2.650726 1_555
Ba1 O11 2.650726 1_555
Ba1 O8 2.650730 1_555
O0 W0 1.921224 1_555
O0 W7 2.050354 1_654
O1 W1 1.921222 1_555
O1 W6 2.050359 1_665
O2 W2 1.921222 1_555
O2 W6 2.050359 1_555
O3 W3 1.921222 1_555
O3 W7 2.050359 1_664
O4 W4 1.921222 1_555
O4 W7 2.050359 1_554
O5 W5 1.921224 1_555
O5 W6 2.050354 1_565
O6 W7 1.961595 1_555
O6 W1 2.340917 1_445
O6 W2 2.340917 1_555
O6 W5 2.340917 1_545
O7 W6 1.961595 1_555
O7 W4 2.340917 1_555
O7 W3 2.340917 1_445
O7 W0 2.340917 1_455
O8 W3 2.017984 1_555
O8 W4 2.017984 1_555
O9 W5 2.017984 1_655
O9 W2 2.017984 1_655
O10 W5 2.017984 1_545
O10 W1 2.017984 1_545
O11 W0 2.017984 1_565
O11 W4 2.017984 1_565
O12 W1 2.017984 1_555
O12 W2 2.017984 1_555
O13 W0 2.017984 1_455
O13 W3 2.017984 1_455
