# generated using pymatgen
data_SiO2
_symmetry_space_group_name_H-M   'P 1'
_cell_length_a   20.37203939
_cell_length_b   19.99454506
_cell_length_c   13.54104018
_cell_angle_alpha   89.99882125
_cell_angle_beta   89.98015501
_cell_angle_gamma   90.00581264
_symmetry_Int_Tables_number   1
_chemical_formula_structural   SiO2
_chemical_formula_sum   'Si96 O192'
_cell_volume   5515.66692746
_cell_formula_units_Z   96
loop_
 _symmetry_equiv_pos_site_id
 _symmetry_equiv_pos_as_xyz
  1  'x, y, z'
loop_
 _atom_site_type_symbol
 _atom_site_label
 _atom_site_symmetry_multiplicity
 _atom_site_fract_x
 _atom_site_fract_y
 _atom_site_fract_z
 _atom_site_occupancy
  Si  Si0  1  0.42816227  0.08158595  0.65857765  1
  Si  Si1  1  0.07864559  0.58152254  0.15835841  1
  Si  Si2  1  0.42802224  0.46436977  0.65769639  1
  Si  Si3  1  0.07849326  0.96398928  0.15925111  1
  Si  Si4  1  0.57759650  0.96412747  0.31695917  1
  Si  Si5  1  0.92711632  0.46422480  0.81725735  1
  Si  Si6  1  0.57775992  0.58136406  0.31782818  1
  Si  Si7  1  0.92722461  0.08173478  0.81627812  1
  Si  Si8  1  0.31533605  0.05289776  0.80652102  1
  Si  Si9  1  0.19087624  0.55328236  0.30631870  1
  Si  Si10  1  0.31504155  0.49281362  0.80555328  1
  Si  Si11  1  0.19058952  0.99254118  0.30728606  1
  Si  Si12  1  0.69039190  0.99284966  0.16899571  1
  Si  Si13  1  0.81488064  0.49247441  0.66926413  1
  Si  Si14  1  0.69069472  0.55294437  0.16995725  1
  Si  Si15  1  0.81515495  0.05318728  0.66821254  1
  Si  Si16  1  0.28162059  0.07892290  0.02585793  1
  Si  Si17  1  0.22378568  0.57862583  0.52647897  1
  Si  Si18  1  0.28164106  0.46653150  0.02497786  1
  Si  Si19  1  0.22376469  0.96742546  0.52735546  1
  Si  Si20  1  0.72410260  0.96682596  0.94966186  1
  Si  Si21  1  0.78195252  0.46707645  0.44915947  1
  Si  Si22  1  0.72408307  0.57919540  0.95050355  1
  Si  Si23  1  0.78197574  0.07831985  0.44816333  1
  Si  Si24  1  0.12556644  0.08710968  0.02037459  1
  Si  Si25  1  0.38014013  0.58694830  0.51955042  1
  Si  Si26  1  0.12549276  0.45820557  0.01974605  1
  Si  Si27  1  0.38004063  0.95915268  0.52022213  1
  Si  Si28  1  0.88015326  0.95861540  0.95516672  1
  Si  Si29  1  0.62561472  0.45876356  0.45603371  1
  Si  Si30  1  0.88024856  0.58752235  0.95585585  1
  Si  Si31  1  0.62569665  0.08656784  0.45534205  1
  Si  Si32  1  0.07531646  0.05515247  0.80780821  1
  Si  Si33  1  0.42993790  0.55472217  0.30651005  1
  Si  Si34  1  0.07507362  0.49072467  0.80733507  1
  Si  Si35  1  0.42967803  0.99085775  0.30700245  1
  Si  Si36  1  0.93040601  0.99056636  0.16774592  1
  Si  Si37  1  0.57579087  0.49099509  0.66907924  1
  Si  Si38  1  0.93066504  0.55500934  0.16826713  1
  Si  Si39  1  0.57606483  0.05487241  0.66857491  1
  Si  Si40  1  0.19417355  0.08990225  0.67669330  1
  Si  Si41  1  0.31130284  0.58909108  0.17495976  1
  Si  Si42  1  0.19372495  0.45624266  0.67575090  1
  Si  Si43  1  0.31083573  0.95627541  0.17588014  1
  Si  Si44  1  0.81152671  0.95582629  0.29882801  1
  Si  Si45  1  0.69445136  0.45661306  0.80056794  1
  Si  Si46  1  0.81197965  0.58946265  0.29982376  1
  Si  Si47  1  0.69492316  0.08948119  0.79963144  1
  Si  Si48  1  0.42668430  0.85126870  0.66979060  1
  Si  Si49  1  0.07883461  0.35098264  0.17022113  1
  Si  Si50  1  0.42654307  0.69478288  0.66928509  1
  Si  Si51  1  0.07870970  0.19441127  0.17071571  1
  Si  Si52  1  0.57903256  0.19446474  0.30576055  1
  Si  Si53  1  0.92690922  0.69474401  0.80534504  1
  Si  Si54  1  0.57917722  0.35094640  0.30629148  1
  Si  Si55  1  0.92703092  0.85131066  0.80483742  1
  Si  Si56  1  0.31166248  0.89370395  0.80608069  1
  Si  Si57  1  0.19436225  0.39397104  0.30547957  1
  Si  Si58  1  0.31141705  0.65205894  0.80546846  1
  Si  Si59  1  0.19415236  0.15180389  0.30612150  1
  Si  Si60  1  0.69406235  0.15203582  0.16946752  1
  Si  Si61  1  0.81136685  0.65178606  0.67007829  1
  Si  Si62  1  0.69429986  0.39369766  0.17010858  1
  Si  Si63  1  0.81159247  0.89392551  0.66942127  1
  Si  Si64  1  0.27217982  0.85306358  0.01952035  1
  Si  Si65  1  0.23357784  0.35322413  0.51936439  1
  Si  Si66  1  0.27228746  0.69256099  0.01920423  1
  Si  Si67  1  0.23365867  0.19265651  0.51974396  1
  Si  Si68  1  0.73357912  0.19266507  0.95604465  1
  Si  Si69  1  0.77214581  0.69250355  0.45618766  1
  Si  Si70  1  0.73347057  0.35316550  0.95639682  1
  Si  Si71  1  0.77206019  0.85306629  0.45581083  1
  Si  Si72  1  0.11878200  0.85032572  0.01577815  1
  Si  Si73  1  0.38682669  0.35033073  0.51557374  1
  Si  Si74  1  0.11890352  0.69531154  0.01504582  1
  Si  Si75  1  0.38692094  0.19547907  0.51624054  1
  Si  Si76  1  0.88696682  0.19538227  0.95975901  1
  Si  Si77  1  0.61889721  0.69537087  0.46000126  1
  Si  Si78  1  0.88685050  0.35041224  0.96050447  1
  Si  Si79  1  0.61880057  0.85024529  0.45930561  1
  Si  Si80  1  0.07279739  0.89649281  0.80331456  1
  Si  Si81  1  0.43317229  0.39594106  0.30323974  1
  Si  Si82  1  0.07269254  0.64941064  0.80264908  1
  Si  Si83  1  0.43302370  0.14962882  0.30379066  1
  Si  Si84  1  0.93295525  0.14923076  0.17223481  1
  Si  Si85  1  0.57254775  0.64977956  0.67237188  1
  Si  Si86  1  0.93306695  0.39631569  0.17287342  1
  Si  Si87  1  0.57268818  0.89610229  0.67175934  1
  Si  Si88  1  0.19068941  0.84990438  0.67152522  1
  Si  Si89  1  0.31559598  0.35007681  0.17061958  1
  Si  Si90  1  0.19046334  0.69578748  0.67083611  1
  Si  Si91  1  0.31533265  0.19575012  0.17126024  1
  Si  Si92  1  0.81504604  0.19584769  0.30399976  1
  Si  Si93  1  0.69013625  0.69569169  0.80491158  1
  Si  Si94  1  0.81528963  0.34996093  0.30472987  1
  Si  Si95  1  0.69038928  0.84998423  0.80426965  1
  O  O0  1  0.50118626  0.06982504  0.70246829  1
  O  O1  1  0.00569557  0.56905974  0.20233504  1
  O  O2  1  0.50082950  0.47596402  0.70252532  1
  O  O3  1  0.00532910  0.97655553  0.20230402  1
  O  O4  1  0.50455325  0.97588202  0.27314067  1
  O  O5  1  0.00005158  0.47668525  0.77322870  1
  O  O6  1  0.50492513  0.56970903  0.27313698  1
  O  O7  1  0.00039289  0.06913430  0.77325004  1
  O  O8  1  0.37865152  0.08579633  0.75227650  1
  O  O9  1  0.12811800  0.58717611  0.25194863  1
  O  O10  1  0.37797444  0.45962054  0.75070646  1
  O  O11  1  0.12741394  0.95901287  0.25355499  1
  O  O12  1  0.62706311  0.95995752  0.22320384  1
  O  O13  1  0.87765112  0.45863660  0.72365333  1
  O  O14  1  0.62775306  0.58616694  0.22475777  1
  O  O15  1  0.87833069  0.08671891  0.72194356  1
  O  O16  1  0.42626645  0.15162592  0.59771282  1
  O  O17  1  0.07955181  0.65101738  0.09607074  1
  O  O18  1  0.42658623  0.39462592  0.59605934  1
  O  O19  1  0.07994713  0.89411200  0.09794071  1
  O  O20  1  0.57951738  0.89405678  0.37773593  1
  O  O21  1  0.92617866  0.39469019  0.87944039  1
  O  O22  1  0.57915961  0.65109908  0.37947255  1
  O  O23  1  0.92578103  0.15161690  0.87756203  1
  O  O24  1  0.41093546  0.02021549  0.58397847  1
  O  O25  1  0.09759532  0.51975229  0.08551813  1
  O  O26  1  0.41127355  0.52610965  0.58352572  1
  O  O27  1  0.09782502  0.02533089  0.08583592  1
  O  O28  1  0.59487331  0.02545957  0.39158969  1
  O  O29  1  0.90823656  0.52595565  0.89020257  1
  O  O30  1  0.59469560  0.51964024  0.39191520  1
  O  O31  1  0.90784732  0.02040943  0.88968995  1
  O  O32  1  0.32205122  0.06742758  0.92390283  1
  O  O33  1  0.18431264  0.56810426  0.42358738  1
  O  O34  1  0.32185714  0.47795274  0.92281534  1
  O  O35  1  0.18408780  0.97807200  0.42466768  1
  O  O36  1  0.68366447  0.97835753  0.05159787  1
  O  O37  1  0.82147973  0.47767101  0.55198720  1
  O  O38  1  0.68388843  0.56779541  0.05268550  1
  O  O39  1  0.82167436  0.06764640  0.55082360  1
  O  O40  1  0.31353411  0.97320731  0.77983984  1
  O  O41  1  0.19155125  0.47354116  0.28004272  1
  O  O42  1  0.31381097  0.57256851  0.77934899  1
  O  O43  1  0.19193226  0.07222194  0.28051052  1
  O  O44  1  0.69221605  0.07253290  0.19571359  1
  O  O45  1  0.81414184  0.57221714  0.69553117  1
  O  O46  1  0.69188372  0.47319296  0.19616085  1
  O  O47  1  0.81381293  0.97351088  0.69499706  1
  O  O48  1  0.24807049  0.08703257  0.76556651  1
  O  O49  1  0.25876832  0.58644223  0.26574823  1
  O  O50  1  0.24744150  0.45923471  0.76486124  1
  O  O51  1  0.25810320  0.95876351  0.26641797  1
  O  O52  1  0.75764313  0.95868646  0.20993546  1
  O  O53  1  0.74701969  0.45926622  0.70982731  1
  O  O54  1  0.75831486  0.58649008  0.21063414  1
  O  O55  1  0.74764356  0.08697956  0.70906803  1
  O  O56  1  0.30240052  0.15033482  0.07348780  1
  O  O57  1  0.20456507  0.65081839  0.57296950  1
  O  O58  1  0.30249199  0.39512408  0.07252829  1
  O  O59  1  0.20444711  0.89528811  0.57396620  1
  O  O60  1  0.70325853  0.89543581  0.90202129  1
  O  O61  1  0.80127709  0.39492743  0.40262002  1
  O  O62  1  0.70324351  0.65061126  0.90296823  1
  O  O63  1  0.80131135  0.15044705  0.40154242  1
  O  O64  1  0.20351760  0.07666793  0.00209514  1
  O  O65  1  0.30217157  0.57360171  0.50594288  1
  O  O66  1  0.20346306  0.46877260  0.00183817  1
  O  O67  1  0.30207972  0.97227163  0.50613748  1
  O  O68  1  0.80219660  0.96900829  0.97345568  1
  O  O69  1  0.70358483  0.47192024  0.46989693  1
  O  O70  1  0.80226429  0.57691170  0.97356518  1
  O  O71  1  0.70366272  0.07351781  0.46946360  1
  O  O72  1  0.29964277  0.01884698  0.10160510  1
  O  O73  1  0.20243682  0.51944656  0.60186603  1
  O  O74  1  0.29988424  0.52667657  0.10048061  1
  O  O75  1  0.20277196  0.02660784  0.60294588  1
  O  O76  1  0.70613720  0.02691115  0.87389955  1
  O  O77  1  0.80310802  0.52629662  0.37372722  1
  O  O78  1  0.70576905  0.51906597  0.87500706  1
  O  O79  1  0.80291481  0.01913187  0.37254810  1
  O  O80  1  0.11136728  0.15820066  0.07441253  1
  O  O81  1  0.39395539  0.65834639  0.57305382  1
  O  O82  1  0.11110496  0.38702257  0.07346851  1
  O  O83  1  0.39372597  0.88784599  0.57399561  1
  O  O84  1  0.89438236  0.88752786  0.90114707  1
  O  O85  1  0.61173460  0.38737541  0.40253963  1
  O  O86  1  0.89465008  0.65869308  0.90210032  1
  O  O87  1  0.61197616  0.15785976  0.40154735  1
  O  O88  1  0.08743683  0.08900889  0.91543666  1
  O  O89  1  0.41548447  0.59007414  0.41244758  1
  O  O90  1  0.08762120  0.45651106  0.91459940  1
  O  O91  1  0.41569681  0.95588350  0.41335325  1
  O  O92  1  0.91828840  0.95674927  0.06009803  1
  O  O93  1  0.59012926  0.45576097  0.56302363  1
  O  O94  1  0.91801574  0.58928912  0.06107733  1
  O  O95  1  0.59000862  0.08981188  0.56218226  1
  O  O96  1  0.12124436  0.08892117  0.72391420  1
  O  O97  1  0.38484123  0.58616908  0.21969029  1
  O  O98  1  0.12073509  0.45735200  0.72276767  1
  O  O99  1  0.38430362  0.95896731  0.22087458  1
  O  O100  1  0.88446278  0.95679454  0.25161853  1
  O  O101  1  0.62093789  0.45943325  0.75574223  1
  O  O102  1  0.88500950  0.58827376  0.25295014  1
  O  O103  1  0.62145267  0.08680404  0.75465403  1
  O  O104  1  0.09141579  0.97522801  0.81623268  1
  O  O105  1  0.41503344  0.47468435  0.31747936  1
  O  O106  1  0.09101984  0.57066301  0.81636765  1
  O  O107  1  0.41463286  0.07089203  0.31732808  1
  O  O108  1  0.91432313  0.07049734  0.15937813  1
  O  O109  1  0.59072540  0.57103597  0.65829422  1
  O  O110  1  0.91475776  0.47506844  0.15912740  1
  O  O111  1  0.59112883  0.97483738  0.65832583  1
  O  O112  1  0.20187579  0.16027745  0.61823746  1
  O  O113  1  0.30390691  0.65994012  0.11765672  1
  O  O114  1  0.20150885  0.38580136  0.61750129  1
  O  O115  1  0.30347909  0.88552364  0.11831240  1
  O  O116  1  0.80381255  0.88546213  0.35730625  1
  O  O117  1  0.70187052  0.38578855  0.85793333  1
  O  O118  1  0.80419954  0.65991731  0.35804579  1
  O  O119  1  0.70230325  0.16022720  0.85721041  1
  O  O120  1  0.49600284  0.88614016  0.70196275  1
  O  O121  1  0.00977149  0.38621148  0.20285120  1
  O  O122  1  0.49575683  0.65987731  0.70190630  1
  O  O123  1  0.00955062  0.15918493  0.20290820  1
  O  O124  1  0.50970682  0.15959955  0.27359342  1
  O  O125  1  0.99597609  0.65951599  0.77271313  1
  O  O126  1  0.50995474  0.38584013  0.27367426  1
  O  O127  1  0.99619364  0.88653769  0.77265728  1
  O  O128  1  0.37719193  0.85751476  0.76384861  1
  O  O129  1  0.12905440  0.35737903  0.26330545  1
  O  O130  1  0.37666703  0.68856307  0.76287275  1
  O  O131  1  0.12855283  0.18803143  0.26427619  1
  O  O132  1  0.62852399  0.18820673  0.21169047  1
  O  O133  1  0.87667925  0.68834969  0.71226927  1
  O  O134  1  0.62905165  0.35719892  0.21270542  1
  O  O135  1  0.87718845  0.85769970  0.71127486  1
  O  O136  1  0.43764121  0.77305625  0.64090047  1
  O  O137  1  0.06741412  0.27266152  0.14251723  1
  O  O138  1  0.56808984  0.27266770  0.33465215  1
  O  O139  1  0.93832778  0.77306312  0.83304639  1
  O  O140  1  0.31160952  0.88173221  0.92431896  1
  O  O141  1  0.19467028  0.38154899  0.42356722  1
  O  O142  1  0.31152893  0.66415790  0.92366778  1
  O  O143  1  0.19456210  0.16407293  0.42426177  1
  O  O144  1  0.69411821  0.16399425  0.05121430  1
  O  O145  1  0.81107775  0.66420645  0.55197937  1
  O  O146  1  0.69421362  0.38155232  0.05191986  1
  O  O147  1  0.81117839  0.88163336  0.55127923  1
  O  O148  1  0.24510200  0.86206164  0.75843648  1
  O  O149  1  0.26111955  0.36323239  0.25718373  1
  O  O150  1  0.24454380  0.68319469  0.75811475  1
  O  O151  1  0.26060164  0.18310147  0.25760969  1
  O  O152  1  0.76061519  0.18369853  0.21710470  1
  O  O153  1  0.74460167  0.68254138  0.71832968  1
  O  O154  1  0.76116766  0.36260195  0.21753103  1
  O  O155  1  0.74513746  0.86265010  0.71794560  1
  O  O156  1  0.28101565  0.77281067  0.02761140  1
  O  O157  1  0.22507094  0.27294243  0.52759601  1
  O  O158  1  0.72475264  0.27291559  0.94796548  1
  O  O159  1  0.78064946  0.77278146  0.44790772  1
  O  O160  1  0.19513165  0.87518964  0.00912274  1
  O  O161  1  0.31059837  0.37567952  0.51004494  1
  O  O162  1  0.19524108  0.67034174  0.00922370  1
  O  O163  1  0.31067180  0.17024099  0.51007979  1
  O  O164  1  0.81061954  0.17052484  0.96648455  1
  O  O165  1  0.69512799  0.67004857  0.46555884  1
  O  O166  1  0.81051818  0.37538346  0.96641081  1
  O  O167  1  0.69504864  0.87546772  0.46555100  1
  O  O168  1  0.11409516  0.77273581  0.05040681  1
  O  O169  1  0.39128755  0.27297591  0.55141251  1
  O  O170  1  0.89163570  0.27297983  0.92514344  1
  O  O171  1  0.61442340  0.77273068  0.42420918  1
  O  O172  1  0.08503862  0.85815549  0.90767877  1
  O  O173  1  0.41973576  0.35684846  0.40667014  1
  O  O174  1  0.08579376  0.68825946  0.90637802  1
  O  O175  1  0.42033572  0.18827628  0.40778561  1
  O  O176  1  0.92075112  0.18753695  0.06783047  1
  O  O177  1  0.58594717  0.68879499  0.56886586  1
  O  O178  1  0.92000033  0.35745967  0.06914222  1
  O  O179  1  0.58531386  0.85751455  0.56769858  1
  O  O180  1  0.11793795  0.86482668  0.71615638  1
  O  O181  1  0.38840671  0.36507253  0.21503848  1
  O  O182  1  0.11754544  0.68049064  0.71465860  1
  O  O183  1  0.38801267  0.18099820  0.21629403  1
  O  O184  1  0.88779090  0.18093954  0.25932984  1
  O  O185  1  0.61731247  0.68073922  0.76049562  1
  O  O186  1  0.88818889  0.36523342  0.26082912  1
  O  O187  1  0.61771389  0.86466210  0.75917611  1
  O  O188  1  0.19437736  0.77291625  0.63476927  1
  O  O189  1  0.31136289  0.27284983  0.13494303  1
  O  O190  1  0.81135668  0.27282757  0.34076691  1
  O  O191  1  0.69439837  0.77289961  0.84063248  1
loop_
_geom_bond_atom_site_label_1
_geom_bond_atom_site_label_2
_geom_bond_distance
_geom_bond_site_symmetry_2
O0 Si0 1.619349 1_555
O0 Si39 1.620669 1_555
O1 Si1 1.620069 1_555
O1 Si38 1.621274 1_455
O2 Si2 1.619495 1_555
O2 Si37 1.620785 1_555
O3 Si3 1.619900 1_555
O3 Si36 1.621029 1_455
O4 Si4 1.619333 1_555
O4 Si35 1.620569 1_555
O5 Si5 1.620044 1_455
O5 Si34 1.621221 1_555
O6 Si6 1.619485 1_555
O6 Si33 1.620842 1_555
O7 Si7 1.619963 1_455
O7 Si32 1.620939 1_555
O8 Si0 1.622766 1_555
O8 Si8 1.623307 1_555
O9 Si1 1.623418 1_555
O9 Si9 1.623791 1_555
O10 Si2 1.622917 1_555
O10 Si10 1.623358 1_555
O11 Si3 1.623175 1_555
O11 Si11 1.623478 1_555
O12 Si4 1.622764 1_555
O12 Si12 1.623247 1_555
O13 Si5 1.623383 1_555
O13 Si13 1.623639 1_555
O14 Si6 1.622915 1_555
O14 Si14 1.623453 1_555
O15 Si7 1.623176 1_555
O15 Si15 1.623508 1_555
O16 Si75 1.621452 1_555
O16 Si0 1.625394 1_555
O17 Si74 1.621732 1_555
O17 Si1 1.625554 1_555
O18 Si73 1.621347 1_555
O18 Si2 1.625466 1_555
O19 Si72 1.621655 1_555
O19 Si3 1.625493 1_555
O20 Si79 1.621273 1_555
O20 Si4 1.625332 1_555
O21 Si78 1.621677 1_555
O21 Si5 1.625507 1_555
O22 Si77 1.621261 1_555
O22 Si6 1.625352 1_555
O23 Si76 1.621543 1_555
O23 Si7 1.625389 1_555
O24 Si27 1.622462 1_545
O24 Si0 1.627725 1_555
O25 Si26 1.621855 1_555
O25 Si1 1.627009 1_555
O26 Si25 1.622640 1_555
O26 Si2 1.627667 1_555
O27 Si24 1.621853 1_555
O27 Si3 1.627036 1_545
O28 Si31 1.622553 1_555
O28 Si4 1.627630 1_545
O29 Si30 1.621923 1_555
O29 Si5 1.626936 1_555
O30 Si29 1.622545 1_555
O30 Si6 1.627529 1_555
O31 Si28 1.621863 1_545
O31 Si7 1.626988 1_555
O32 Si8 1.621634 1_555
O32 Si16 1.623729 1_556
O33 Si9 1.620846 1_555
O33 Si17 1.622601 1_555
O34 Si10 1.621413 1_555
O34 Si18 1.623668 1_556
O35 Si11 1.620951 1_555
O35 Si19 1.622637 1_555
O36 Si12 1.621733 1_555
O36 Si20 1.623689 1_554
O37 Si13 1.620947 1_555
O37 Si21 1.622596 1_555
O38 Si14 1.621489 1_555
O38 Si22 1.623612 1_554
O39 Si15 1.621041 1_555
O39 Si23 1.622610 1_555
O40 Si56 1.629295 1_555
O40 Si8 1.634240 1_565
O41 Si57 1.628837 1_555
O41 Si9 1.633673 1_555
O42 Si58 1.628991 1_555
O42 Si10 1.633853 1_555
O43 Si59 1.629192 1_555
O43 Si11 1.634133 1_545
O44 Si60 1.629290 1_555
O44 Si12 1.634220 1_545
O45 Si61 1.628833 1_555
O45 Si13 1.633688 1_555
O46 Si62 1.628902 1_555
O46 Si14 1.633770 1_555
O47 Si63 1.629158 1_555
O47 Si15 1.634074 1_565
O48 Si8 1.628462 1_555
O48 Si40 1.630355 1_555
O49 Si9 1.628998 1_555
O49 Si41 1.630532 1_555
O50 Si10 1.628276 1_555
O50 Si42 1.630339 1_555
O51 Si11 1.629033 1_555
O51 Si43 1.630536 1_555
O52 Si12 1.628386 1_555
O52 Si44 1.630359 1_555
O53 Si13 1.628819 1_555
O53 Si45 1.630499 1_555
O54 Si14 1.628280 1_555
O54 Si46 1.630413 1_555
O55 Si15 1.629057 1_555
O55 Si47 1.630642 1_555
O56 Si16 1.622971 1_555
O56 Si91 1.626972 1_555
O57 Si17 1.622708 1_555
O57 Si90 1.626964 1_555
O58 Si18 1.622895 1_555
O58 Si89 1.626973 1_555
O59 Si19 1.622742 1_555
O59 Si88 1.626897 1_555
O60 Si20 1.622987 1_555
O60 Si95 1.626941 1_555
O61 Si21 1.622703 1_555
O61 Si94 1.626875 1_555
O62 Si22 1.622902 1_555
O62 Si93 1.626968 1_555
O63 Si23 1.622704 1_555
O63 Si92 1.626825 1_555
O64 Si24 1.620640 1_555
O64 Si16 1.624058 1_555
O65 Si25 1.621182 1_555
O65 Si17 1.623937 1_555
O66 Si26 1.620545 1_555
O66 Si18 1.623904 1_555
O67 Si27 1.621087 1_555
O67 Si19 1.623886 1_555
O68 Si28 1.620644 1_555
O68 Si20 1.623923 1_555
O69 Si29 1.620991 1_555
O69 Si21 1.623822 1_555
O70 Si30 1.620538 1_555
O70 Si22 1.623789 1_555
O71 Si31 1.621027 1_555
O71 Si23 1.623991 1_555
O72 Si43 1.621401 1_545
O72 Si16 1.621730 1_555
O73 Si42 1.621498 1_555
O73 Si17 1.621997 1_555
O74 Si41 1.621348 1_555
O74 Si18 1.621667 1_555
O75 Si40 1.621571 1_555
O75 Si19 1.621945 1_545
O76 Si47 1.621380 1_555
O76 Si20 1.621735 1_545
O77 Si46 1.621422 1_555
O77 Si21 1.621929 1_555
O78 Si45 1.621308 1_555
O78 Si22 1.621713 1_555
O79 Si44 1.621548 1_545
O79 Si23 1.621951 1_555
O80 Si24 1.624670 1_555
O80 Si51 1.633062 1_555
O81 Si25 1.625474 1_555
O81 Si50 1.634022 1_555
O82 Si26 1.624972 1_555
O82 Si49 1.633148 1_555
O83 Si27 1.625071 1_555
O83 Si48 1.633702 1_555
O84 Si28 1.624607 1_555
O84 Si55 1.633116 1_555
O85 Si29 1.625472 1_555
O85 Si54 1.633886 1_555
O86 Si30 1.625008 1_555
O86 Si53 1.633182 1_555
O87 Si31 1.625064 1_555
O87 Si52 1.633738 1_555
O88 Si24 1.620107 1_556
O88 Si32 1.625883 1_555
O89 Si25 1.620168 1_555
O89 Si33 1.626015 1_555
O90 Si26 1.619982 1_556
O90 Si34 1.625804 1_555
O91 Si27 1.620291 1_555
O91 Si35 1.625934 1_555
O92 Si28 1.620067 1_554
O92 Si36 1.625783 1_555
O93 Si29 1.619987 1_555
O93 Si37 1.625981 1_555
O94 Si30 1.619892 1_554
O94 Si38 1.625787 1_555
O95 Si31 1.620215 1_555
O95 Si39 1.626004 1_555
O96 Si40 1.617384 1_555
O96 Si32 1.618932 1_555
O97 Si41 1.617193 1_555
O97 Si33 1.619357 1_555
O98 Si42 1.617468 1_555
O98 Si34 1.619043 1_555
O99 Si43 1.617037 1_555
O99 Si35 1.619216 1_555
O100 Si44 1.617449 1_555
O100 Si36 1.618935 1_555
O101 Si45 1.617134 1_555
O101 Si37 1.619294 1_555
O102 Si46 1.617478 1_555
O102 Si38 1.619190 1_555
O103 Si47 1.616989 1_555
O103 Si39 1.619221 1_555
O104 Si80 1.628723 1_555
O104 Si32 1.635384 1_565
O105 Si81 1.628699 1_555
O105 Si33 1.635586 1_555
O106 Si82 1.628861 1_555
O106 Si34 1.635568 1_555
O107 Si83 1.628568 1_555
O107 Si35 1.635350 1_545
O108 Si84 1.628665 1_555
O108 Si36 1.635391 1_545
O109 Si85 1.628626 1_555
O109 Si37 1.635535 1_555
O110 Si86 1.628918 1_555
O110 Si38 1.635570 1_555
O111 Si87 1.628611 1_555
O111 Si39 1.635348 1_565
O112 Si67 1.617533 1_555
O112 Si40 1.622032 1_555
O113 Si66 1.618110 1_555
O113 Si41 1.622223 1_555
O114 Si65 1.617568 1_555
O114 Si42 1.622036 1_555
O115 Si64 1.617997 1_555
O115 Si43 1.622171 1_555
O116 Si71 1.617543 1_555
O116 Si44 1.622012 1_555
O117 Si70 1.618093 1_555
O117 Si45 1.622243 1_555
O118 Si69 1.617570 1_555
O118 Si46 1.622079 1_555
O119 Si68 1.618104 1_555
O119 Si47 1.622188 1_555
O120 Si87 1.626966 1_555
O120 Si48 1.634125 1_555
O121 Si86 1.627237 1_455
O121 Si49 1.634226 1_555
O122 Si85 1.627159 1_555
O122 Si50 1.634321 1_555
O123 Si84 1.627076 1_455
O123 Si51 1.634168 1_555
O124 Si83 1.626923 1_555
O124 Si52 1.634180 1_555
O125 Si82 1.627332 1_655
O125 Si53 1.634292 1_555
O126 Si81 1.627105 1_555
O126 Si54 1.634359 1_555
O127 Si80 1.627187 1_655
O127 Si55 1.634193 1_555
O128 Si56 1.622478 1_555
O128 Si48 1.628955 1_555
O129 Si57 1.622309 1_555
O129 Si49 1.628704 1_555
O130 Si58 1.622234 1_555
O130 Si50 1.628784 1_555
O131 Si59 1.622472 1_555
O131 Si51 1.628890 1_555
O132 Si60 1.622420 1_555
O132 Si52 1.629090 1_555
O133 Si61 1.622210 1_555
O133 Si53 1.628742 1_555
O134 Si62 1.622162 1_555
O134 Si54 1.628797 1_555
O135 Si63 1.622436 1_555
O135 Si55 1.628918 1_555
O136 Si50 1.627281 1_555
O136 Si48 1.627403 1_555
O137 Si51 1.626888 1_555
O137 Si49 1.627025 1_555
O138 Si52 1.627186 1_555
O138 Si54 1.627276 1_555
O139 Si55 1.626873 1_555
O139 Si53 1.626973 1_555
O140 Si56 1.618859 1_555
O140 Si64 1.623211 1_556
O141 Si57 1.618214 1_555
O141 Si65 1.622493 1_555
O142 Si58 1.618728 1_555
O142 Si66 1.623137 1_556
O143 Si59 1.618471 1_555
O143 Si67 1.622751 1_555
O144 Si60 1.619020 1_555
O144 Si68 1.623200 1_554
O145 Si61 1.618358 1_555
O145 Si69 1.622483 1_555
O146 Si62 1.618724 1_555
O146 Si70 1.623034 1_554
O147 Si63 1.618565 1_555
O147 Si71 1.622702 1_555
O148 Si56 1.629604 1_555
O148 Si88 1.635155 1_555
O149 Si57 1.629278 1_555
O149 Si89 1.635233 1_555
O150 Si58 1.629560 1_555
O150 Si90 1.635513 1_555
O151 Si59 1.629368 1_555
O151 Si91 1.635037 1_555
O152 Si60 1.629595 1_555
O152 Si92 1.635225 1_555
O153 Si61 1.629296 1_555
O153 Si93 1.635236 1_555
O154 Si62 1.629529 1_555
O154 Si94 1.635452 1_555
O155 Si63 1.629363 1_555
O155 Si95 1.635083 1_555
O156 Si66 1.618376 1_555
O156 Si64 1.618418 1_555
O157 Si67 1.618298 1_555
O157 Si65 1.618343 1_555
O158 Si68 1.618339 1_555
O158 Si70 1.618380 1_555
O159 Si69 1.618306 1_555
O159 Si71 1.618325 1_555
O160 Si72 1.635323 1_555
O160 Si64 1.636938 1_555
O161 Si73 1.635331 1_555
O161 Si65 1.636825 1_555
O162 Si74 1.635251 1_555
O162 Si66 1.636845 1_555
O163 Si75 1.635370 1_555
O163 Si67 1.636916 1_555
O164 Si76 1.635290 1_555
O164 Si68 1.636913 1_555
O165 Si77 1.635233 1_555
O165 Si69 1.636824 1_555
O166 Si78 1.635214 1_555
O166 Si70 1.636900 1_555
O167 Si79 1.635312 1_555
O167 Si71 1.636890 1_555
O168 Si74 1.623390 1_555
O168 Si72 1.623473 1_555
O169 Si75 1.623505 1_555
O169 Si73 1.623576 1_555
O170 Si78 1.623517 1_555
O170 Si76 1.623547 1_555
O171 Si77 1.623497 1_555
O171 Si79 1.623556 1_555
O172 Si72 1.624935 1_556
O172 Si80 1.627004 1_555
O173 Si73 1.624927 1_555
O173 Si81 1.626987 1_555
O174 Si74 1.625043 1_556
O174 Si82 1.627192 1_555
O175 Si75 1.624879 1_555
O175 Si83 1.626898 1_555
O176 Si76 1.624977 1_554
O176 Si84 1.627067 1_555
O177 Si77 1.624886 1_555
O177 Si85 1.627002 1_555
O178 Si78 1.625006 1_554
O178 Si86 1.627172 1_555
O179 Si79 1.624853 1_555
O179 Si87 1.626902 1_555
O180 Si80 1.624454 1_555
O180 Si88 1.627989 1_555
O181 Si81 1.624725 1_555
O181 Si89 1.628619 1_555
O182 Si82 1.624757 1_555
O182 Si90 1.628383 1_555
O183 Si83 1.624440 1_555
O183 Si91 1.628454 1_555
O184 Si84 1.624440 1_555
O184 Si92 1.628009 1_555
O185 Si85 1.624637 1_555
O185 Si93 1.628687 1_555
O186 Si86 1.624718 1_555
O186 Si94 1.628332 1_555
O187 Si87 1.624368 1_555
O187 Si95 1.628404 1_555
O188 Si88 1.619558 1_555
O188 Si90 1.619578 1_555
O189 Si91 1.620139 1_555
O189 Si89 1.620233 1_555
O190 Si92 1.619449 1_555
O190 Si94 1.619563 1_555
O191 Si95 1.620080 1_555
O191 Si93 1.620080 1_555
