# generated using pymatgen
data_InSn3
_symmetry_space_group_name_H-M   'P 1'
_cell_length_a   6.61189962
_cell_length_b   6.61189962
_cell_length_c   22.75687274
_cell_angle_alpha   90.00000000
_cell_angle_beta   90.00000000
_cell_angle_gamma   120.00000296
_symmetry_Int_Tables_number   1
_chemical_formula_structural   InSn3
_chemical_formula_sum   'In8 Sn24'
_cell_volume   861.58018497
_cell_formula_units_Z   8
loop_
 _symmetry_equiv_pos_site_id
 _symmetry_equiv_pos_as_xyz
  1  'x, y, z'
loop_
 _atom_site_type_symbol
 _atom_site_label
 _atom_site_symmetry_multiplicity
 _atom_site_fract_x
 _atom_site_fract_y
 _atom_site_fract_z
 _atom_site_occupancy
  In  In0_0  1  0.33333350  0.16666650  0.00000000  1
  In  In0_1  1  0.33333350  0.16666650  0.50000000  1
  In  In0_2  1  0.33333350  0.66666650  0.00000000  1
  In  In0_3  1  0.33333350  0.66666650  0.50000000  1
  In  In0_4  1  0.83333350  0.16666650  0.00000000  1
  In  In0_5  1  0.83333350  0.16666650  0.50000000  1
  In  In0_6  1  0.83333350  0.66666650  0.00000000  1
  In  In0_7  1  0.83333350  0.66666650  0.50000000  1
  Sn  Sn0_0  1  0.33333350  0.16666650  0.25000000  1
  Sn  Sn0_1  1  0.33333350  0.16666650  0.75000000  1
  Sn  Sn0_2  1  0.33333350  0.66666650  0.25000000  1
  Sn  Sn0_3  1  0.33333350  0.66666650  0.75000000  1
  Sn  Sn0_4  1  0.83333350  0.16666650  0.25000000  1
  Sn  Sn0_5  1  0.83333350  0.16666650  0.75000000  1
  Sn  Sn0_6  1  0.83333350  0.66666650  0.25000000  1
  Sn  Sn0_7  1  0.83333350  0.66666650  0.75000000  1
  Sn  Sn1_0  1  0.16666650  0.33333350  0.12655062  1
  Sn  Sn1_1  1  0.16666650  0.33333350  0.62655063  1
  Sn  Sn1_2  1  0.16666650  0.83333350  0.12655062  1
  Sn  Sn1_3  1  0.16666650  0.83333350  0.62655063  1
  Sn  Sn1_4  1  0.66666650  0.33333350  0.12655062  1
  Sn  Sn1_5  1  0.66666650  0.33333350  0.62655063  1
  Sn  Sn1_6  1  0.66666650  0.83333350  0.12655062  1
  Sn  Sn1_7  1  0.66666650  0.83333350  0.62655063  1
  Sn  Sn2_0  1  0.16666650  0.33333350  0.37344937  1
  Sn  Sn2_1  1  0.16666650  0.33333350  0.87344937  1
  Sn  Sn2_2  1  0.16666650  0.83333350  0.37344937  1
  Sn  Sn2_3  1  0.16666650  0.83333350  0.87344937  1
  Sn  Sn2_4  1  0.66666650  0.33333350  0.37344937  1
  Sn  Sn2_5  1  0.66666650  0.33333350  0.87344937  1
  Sn  Sn2_6  1  0.66666650  0.83333350  0.37344937  1
  Sn  Sn2_7  1  0.66666650  0.83333350  0.87344937  1
loop_
_geom_bond_atom_site_label_1
_geom_bond_atom_site_label_2
_geom_bond_distance
_geom_bond_site_symmetry_2
In0_0 In0_6 3.305950 1_445
In0_0 In0_6 3.305950 1_555
In0_0 In0_4 3.305950 1_555
In0_0 In0_4 3.305950 1_455
In0_0 In0_2 3.305950 1_545
In0_0 In0_2 3.305950 1_555
In0_0 Sn1_4 3.454982 1_555
In0_0 Sn1_2 3.454982 1_545
In0_0 Sn2_5 3.454982 1_554
In0_0 Sn2_3 3.454982 1_544
In0_0 Sn1_0 3.454985 1_555
In0_0 Sn2_1 3.454985 1_554
In0_1 In0_7 3.305950 1_445
In0_1 In0_7 3.305950 1_555
In0_1 In0_5 3.305950 1_555
In0_1 In0_5 3.305950 1_455
In0_1 In0_3 3.305950 1_555
In0_1 In0_3 3.305950 1_545
In0_1 Sn2_4 3.454982 1_555
In0_1 Sn1_5 3.454982 1_555
In0_1 Sn1_3 3.454982 1_545
In0_1 Sn2_2 3.454982 1_545
In0_1 Sn1_1 3.454985 1_555
In0_1 Sn2_0 3.454985 1_555
In0_2 In0_4 3.305950 1_565
In0_2 In0_4 3.305950 1_455
In0_2 In0_6 3.305950 1_455
In0_2 In0_6 3.305950 1_555
In0_2 Sn1_0 3.454982 1_555
In0_2 Sn1_6 3.454982 1_555
In0_2 Sn2_1 3.454982 1_554
In0_2 Sn2_7 3.454982 1_554
In0_2 Sn1_2 3.454985 1_555
In0_2 Sn2_3 3.454985 1_554
In0_3 In0_5 3.305950 1_565
In0_3 In0_5 3.305950 1_455
In0_3 In0_7 3.305950 1_455
In0_3 In0_7 3.305950 1_555
In0_3 Sn1_1 3.454982 1_555
In0_3 Sn2_0 3.454982 1_555
In0_3 Sn1_7 3.454982 1_555
In0_3 Sn2_6 3.454982 1_555
In0_3 Sn1_3 3.454985 1_555
In0_3 Sn2_2 3.454985 1_555
In0_4 In0_6 3.305950 1_545
In0_4 In0_6 3.305950 1_555
In0_4 Sn1_6 3.454982 1_545
In0_4 Sn2_7 3.454982 1_544
In0_4 Sn1_0 3.454982 1_655
In0_4 Sn2_1 3.454982 1_654
In0_4 Sn1_4 3.454985 1_555
In0_4 Sn2_5 3.454985 1_554
In0_5 In0_7 3.305950 1_545
In0_5 In0_7 3.305950 1_555
In0_5 Sn1_7 3.454982 1_545
In0_5 Sn2_6 3.454982 1_545
In0_5 Sn1_1 3.454982 1_655
In0_5 Sn2_0 3.454982 1_655
In0_5 Sn1_5 3.454985 1_555
In0_5 Sn2_4 3.454985 1_555
In0_6 Sn1_2 3.454982 1_655
In0_6 Sn1_4 3.454982 1_555
In0_6 Sn2_3 3.454982 1_654
In0_6 Sn2_5 3.454982 1_554
In0_6 Sn1_6 3.454985 1_555
In0_6 Sn2_7 3.454985 1_554
In0_7 Sn1_3 3.454982 1_655
In0_7 Sn2_2 3.454982 1_655
In0_7 Sn1_5 3.454982 1_555
In0_7 Sn2_4 3.454982 1_555
In0_7 Sn1_7 3.454985 1_555
In0_7 Sn2_6 3.454985 1_555
Sn0_0 Sn0_6 3.305950 1_445
Sn0_0 Sn0_6 3.305950 1_555
Sn0_0 Sn0_4 3.305950 1_555
Sn0_0 Sn0_4 3.305950 1_455
Sn0_0 Sn0_2 3.305950 1_545
Sn0_0 Sn0_2 3.305950 1_555
Sn0_0 Sn2_4 3.396378 1_555
Sn0_0 Sn2_2 3.396378 1_545
Sn0_0 Sn1_4 3.396378 1_555
Sn0_0 Sn1_2 3.396378 1_545
Sn0_0 Sn2_0 3.396381 1_555
Sn0_0 Sn1_0 3.396381 1_555
Sn0_1 Sn0_7 3.305950 1_445
Sn0_1 Sn0_7 3.305950 1_555
Sn0_1 Sn0_5 3.305950 1_555
Sn0_1 Sn0_3 3.305950 1_555
Sn0_1 Sn0_5 3.305950 1_455
Sn0_1 Sn0_3 3.305950 1_545
Sn0_1 Sn2_5 3.396378 1_555
Sn0_1 Sn1_5 3.396378 1_555
Sn0_1 Sn1_3 3.396378 1_545
Sn0_1 Sn2_3 3.396378 1_545
Sn0_1 Sn1_1 3.396381 1_555
Sn0_1 Sn2_1 3.396381 1_555
Sn0_2 Sn0_4 3.305950 1_565
Sn0_2 Sn0_4 3.305950 1_455
Sn0_2 Sn0_6 3.305950 1_455
Sn0_2 Sn0_6 3.305950 1_555
Sn0_2 Sn2_0 3.396378 1_555
Sn0_2 Sn2_6 3.396378 1_555
Sn0_2 Sn1_0 3.396378 1_555
Sn0_2 Sn1_6 3.396378 1_555
Sn0_2 Sn2_2 3.396381 1_555
Sn0_2 Sn1_2 3.396381 1_555
Sn0_3 Sn0_5 3.305950 1_565
Sn0_3 Sn0_5 3.305950 1_455
Sn0_3 Sn0_7 3.305950 1_455
Sn0_3 Sn0_7 3.305950 1_555
Sn0_3 Sn2_1 3.396378 1_555
Sn0_3 Sn1_1 3.396378 1_555
Sn0_3 Sn2_7 3.396378 1_555
Sn0_3 Sn1_7 3.396378 1_555
Sn0_3 Sn2_3 3.396381 1_555
Sn0_3 Sn1_3 3.396381 1_555
Sn0_4 Sn0_6 3.305950 1_545
Sn0_4 Sn0_6 3.305950 1_555
Sn0_4 Sn2_6 3.396378 1_545
Sn0_4 Sn1_6 3.396378 1_545
Sn0_4 Sn2_0 3.396378 1_655
Sn0_4 Sn1_0 3.396378 1_655
Sn0_4 Sn2_4 3.396381 1_555
Sn0_4 Sn1_4 3.396381 1_555
Sn0_5 Sn0_7 3.305950 1_545
Sn0_5 Sn0_7 3.305950 1_555
Sn0_5 Sn1_7 3.396378 1_545
Sn0_5 Sn2_7 3.396378 1_545
Sn0_5 Sn1_1 3.396378 1_655
Sn0_5 Sn2_1 3.396378 1_655
Sn0_5 Sn2_5 3.396381 1_555
Sn0_5 Sn1_5 3.396381 1_555
Sn0_6 Sn2_2 3.396378 1_655
Sn0_6 Sn2_4 3.396378 1_555
Sn0_6 Sn1_2 3.396378 1_655
Sn0_6 Sn1_4 3.396378 1_555
Sn0_6 Sn2_6 3.396381 1_555
Sn0_6 Sn1_6 3.396381 1_555
Sn0_7 Sn2_3 3.396378 1_655
Sn0_7 Sn1_3 3.396378 1_655
Sn0_7 Sn1_5 3.396378 1_555
Sn0_7 Sn2_5 3.396378 1_555
Sn0_7 Sn2_7 3.396381 1_555
Sn0_7 Sn1_7 3.396381 1_555
Sn1_0 Sn1_6 3.305950 1_445
Sn1_0 Sn1_6 3.305950 1_555
Sn1_0 Sn1_4 3.305950 1_555
Sn1_0 Sn1_2 3.305950 1_555
Sn1_0 Sn1_4 3.305950 1_455
Sn1_0 Sn1_2 3.305950 1_545
Sn1_1 Sn1_7 3.305950 1_445
Sn1_1 Sn1_7 3.305950 1_555
Sn1_1 Sn1_3 3.305950 1_555
Sn1_1 Sn1_5 3.305950 1_455
Sn1_1 Sn1_5 3.305950 1_555
Sn1_1 Sn1_3 3.305950 1_545
Sn1_2 Sn1_4 3.305950 1_565
Sn1_2 Sn1_4 3.305950 1_455
Sn1_2 Sn1_6 3.305950 1_455
Sn1_2 Sn1_6 3.305950 1_555
Sn1_3 Sn1_5 3.305950 1_565
Sn1_3 Sn1_5 3.305950 1_455
Sn1_3 Sn1_7 3.305950 1_455
Sn1_3 Sn1_7 3.305950 1_555
Sn1_4 Sn1_6 3.305950 1_545
Sn1_4 Sn1_6 3.305950 1_555
Sn1_5 Sn1_7 3.305950 1_545
Sn1_5 Sn1_7 3.305950 1_555
Sn2_0 Sn2_6 3.305950 1_445
Sn2_0 Sn2_6 3.305950 1_555
Sn2_0 Sn2_4 3.305950 1_555
Sn2_0 Sn2_2 3.305950 1_555
Sn2_0 Sn2_4 3.305950 1_455
Sn2_0 Sn2_2 3.305950 1_545
Sn2_1 Sn2_7 3.305950 1_445
Sn2_1 Sn2_7 3.305950 1_555
Sn2_1 Sn2_5 3.305950 1_555
Sn2_1 Sn2_5 3.305950 1_455
Sn2_1 Sn2_3 3.305950 1_555
Sn2_1 Sn2_3 3.305950 1_545
Sn2_2 Sn2_4 3.305950 1_565
Sn2_2 Sn2_4 3.305950 1_455
Sn2_2 Sn2_6 3.305950 1_455
Sn2_2 Sn2_6 3.305950 1_555
Sn2_3 Sn2_5 3.305950 1_565
Sn2_3 Sn2_5 3.305950 1_455
Sn2_3 Sn2_7 3.305950 1_455
Sn2_3 Sn2_7 3.305950 1_555
Sn2_4 Sn2_6 3.305950 1_545
Sn2_4 Sn2_6 3.305950 1_555
Sn2_5 Sn2_7 3.305950 1_545
Sn2_5 Sn2_7 3.305950 1_555
