# generated using pymatgen
data_Hf3TiV8
_symmetry_space_group_name_H-M   'P 1'
_cell_length_a   8.94164696
_cell_length_b   8.94164696
_cell_length_c   8.94164683
_cell_angle_alpha   33.34566693
_cell_angle_beta   33.34566693
_cell_angle_gamma   33.34566419
_symmetry_Int_Tables_number   1
_chemical_formula_structural   Hf3TiV8
_chemical_formula_sum   'Hf3 Ti1 V8'
_cell_volume   192.34395419
_cell_formula_units_Z   1
loop_
 _symmetry_equiv_pos_site_id
 _symmetry_equiv_pos_as_xyz
  1  'x, y, z'
loop_
 _atom_site_type_symbol
 _atom_site_label
 _atom_site_symmetry_multiplicity
 _atom_site_fract_x
 _atom_site_fract_y
 _atom_site_fract_z
 _atom_site_occupancy
  Hf  Hf0  1  0.62470800  0.62470800  0.62470800  1
  Hf  Hf1  1  0.00157400  0.00157400  0.00157400  1
  Hf  Hf2  1  0.49857300  0.49857300  0.49857300  1
  Ti  Ti0  1  0.12538600  0.12538600  0.12538600  1
  V  V0  1  0.56314500  0.06603100  0.56314500  1
  V  V1  1  0.06125900  0.55959400  0.06125900  1
  V  V2  1  0.06603100  0.56314500  0.56314500  1
  V  V3  1  0.55959400  0.06125900  0.06125900  1
  V  V4  1  0.81184700  0.81184700  0.81184700  1
  V  V5  1  0.31347800  0.31347800  0.31347800  1
  V  V6  1  0.56314500  0.56314500  0.06603100  1
  V  V7  1  0.06125900  0.06125900  0.55959400  1
loop_
_geom_bond_atom_site_label_1
_geom_bond_atom_site_label_2
_geom_bond_distance
_geom_bond_site_symmetry_2
Hf0 V5 3.014649 1_655
Hf0 V5 3.014649 1_565
Hf0 V5 3.014649 1_556
Hf0 V7 3.034075 1_565
Hf0 V7 3.034075 1_655
Hf0 V3 3.034075 1_565
Hf0 V1 3.034075 1_655
Hf0 V3 3.034075 1_556
Hf0 V1 3.034075 1_556
Hf0 V6 3.070163 1_556
Hf0 V2 3.070163 1_655
Hf0 V0 3.070163 1_565
Hf0 Hf1 3.160560 1_656
Hf0 Hf1 3.160560 1_566
Hf0 Hf1 3.160560 1_665
Hf0 Hf2 3.192490 1_555
Hf1 V5 3.011530 1_545
Hf1 V5 3.011530 1_455
Hf1 V5 3.011530 1_554
Hf1 V6 3.014369 1_455
Hf1 V6 3.014369 1_545
Hf1 V0 3.014369 1_455
Hf1 V2 3.014369 1_545
Hf1 V0 3.014369 1_554
Hf1 V2 3.014369 1_554
Hf1 V7 3.101035 1_554
Hf1 V1 3.101035 1_545
Hf1 V3 3.101035 1_455
Hf1 Ti0 3.133694 1_555
Hf2 V6 2.953047 1_555
Hf2 V2 2.953047 1_555
Hf2 V0 2.953047 1_555
Hf2 V4 3.005479 1_545
Hf2 V4 3.005479 1_455
Hf2 V4 3.005479 1_554
Hf2 V7 3.009031 1_565
Hf2 V7 3.009031 1_655
Hf2 V3 3.009031 1_556
Hf2 V1 3.009031 1_556
Hf2 V1 3.009031 1_655
Hf2 V3 3.009031 1_565
Hf2 Ti0 3.129315 1_565
Hf2 Ti0 3.129315 1_655
Hf2 Ti0 3.129316 1_556
Ti0 V7 2.973552 1_555
Ti0 V3 2.973552 1_555
Ti0 V1 2.973552 1_555
Ti0 V6 2.997826 1_455
Ti0 V6 2.997826 1_545
Ti0 V0 2.997826 1_554
Ti0 V2 2.997826 1_554
Ti0 V2 2.997826 1_545
Ti0 V0 2.997826 1_455
Ti0 V4 3.004353 1_454
Ti0 V4 3.004353 1_544
Ti0 V4 3.004353 1_445
V0 V4 2.535701 1_545
V0 V2 2.550607 1_555
V0 V6 2.550608 1_555
V0 V2 2.580223 1_645
V0 V6 2.580223 1_546
V0 V5 2.585452 1_555
V1 V4 2.556529 1_454
V1 V3 2.556872 1_555
V1 V7 2.556872 1_555
V1 V3 2.573958 1_465
V1 V7 2.573958 1_564
V1 V5 2.632284 1_555
V2 V4 2.535701 1_455
V2 V6 2.550608 1_555
V2 V6 2.580223 1_456
V2 V5 2.585452 1_555
V3 V4 2.556529 1_544
V3 V7 2.556872 1_555
V3 V7 2.573958 1_654
V3 V5 2.632284 1_555
V4 V6 2.535701 1_556
V4 V7 2.556529 1_665
V5 V6 2.585452 1_555
V5 V7 2.632284 1_555
