# generated using pymatgen
data_Na3Sr4La3Ti10O30
_symmetry_space_group_name_H-M   'P 1'
_cell_length_a   5.55363756
_cell_length_b   27.76353308
_cell_length_c   7.88908000
_cell_angle_alpha   44.73403418
_cell_angle_beta   135.25626974
_cell_angle_gamma   120.30196901
_symmetry_Int_Tables_number   1
_chemical_formula_structural   Na3Sr4La3Ti10O30
_chemical_formula_sum   'Na3 Sr4 La3 Ti10 O30'
_cell_volume   602.65956199
_cell_formula_units_Z   1
loop_
 _symmetry_equiv_pos_site_id
 _symmetry_equiv_pos_as_xyz
  1  'x, y, z'
loop_
 _atom_site_type_symbol
 _atom_site_label
 _atom_site_symmetry_multiplicity
 _atom_site_fract_x
 _atom_site_fract_y
 _atom_site_fract_z
 _atom_site_occupancy
  Na  Na0  1  0.50000000  0.69930400  0.25200300  1
  Na  Na1  1  0.50000000  0.50000000  0.25013700  1
  Na  Na2  1  0.50000000  0.30069600  0.24852500  1
  Sr  Sr0  1  0.50000000  0.89833900  0.75235500  1
  Sr  Sr1  1  0.50000000  0.89974500  0.24967400  1
  Sr  Sr2  1  0.50000000  0.10166100  0.74404800  1
  Sr  Sr3  1  0.50000000  0.10025500  0.24839700  1
  La  La0  1  0.50000000  0.69928300  0.75382200  1
  La  La1  1  0.50000000  0.50000000  0.74978900  1
  La  La2  1  0.50000000  0.30071700  0.75023800  1
  Ti  Ti0  1  0.00274200  0.79744100  0.50788200  1
  Ti  Ti1  1  0.00133200  0.59917900  0.50318700  1
  Ti  Ti2  1  0.99725800  0.79744100  0.00514100  1
  Ti  Ti3  1  0.99866800  0.40082100  0.49774900  1
  Ti  Ti4  1  0.99866800  0.59917900  0.00185500  1
  Ti  Ti5  1  0.00133200  0.40082100  0.99908200  1
  Ti  Ti6  1  0.00274200  0.20255900  0.99508700  1
  Ti  Ti7  1  0.00000000  0.00000000  0.99955900  1
  Ti  Ti8  1  0.99725800  0.20255900  0.49234500  1
  Ti  Ti9  1  0.00000000  0.00000000  0.49955900  1
  O  O0  1  0.00000000  0.00000000  0.74950600  1
  O  O1  1  0.04893600  0.89874300  0.77594700  1
  O  O2  1  0.07686700  0.69847000  0.78659000  1
  O  O3  1  0.01288300  0.79707100  0.26352100  1
  O  O4  1  0.50000000  0.99057700  0.27436400  1
  O  O5  1  0.50000000  0.80963800  0.72464700  1
  O  O6  1  0.08329800  0.50000000  0.78444600  1
  O  O7  1  0.00049300  0.59932100  0.25233000  1
  O  O8  1  0.50000000  0.61561100  0.71819500  1
  O  O9  1  0.50000000  0.78474500  0.29558500  1
  O  O10  1  0.98711700  0.79707100  0.75063800  1
  O  O11  1  0.95106400  0.89874300  0.22701100  1
  O  O12  1  0.07686700  0.30153000  0.77894000  1
  O  O13  1  0.01288300  0.20292900  0.74887500  1
  O  O14  1  0.99950700  0.40067900  0.24844300  1
  O  O15  1  0.50000000  0.58319700  0.29964800  1
  O  O16  1  0.50000000  0.41680300  0.71563400  1
  O  O17  1  0.99950700  0.59932100  0.75183700  1
  O  O18  1  0.92313300  0.69847000  0.20972400  1
  O  O19  1  0.04893600  0.10125700  0.76966300  1
  O  O20  1  0.98711700  0.20292900  0.23599200  1
  O  O21  1  0.50000000  0.38438900  0.29624800  1
  O  O22  1  0.50000000  0.21525500  0.71931000  1
  O  O23  1  0.00049300  0.40067900  0.74893600  1
  O  O24  1  0.91670200  0.50000000  0.20114800  1
  O  O25  1  0.50000000  0.19036200  0.27283500  1
  O  O26  1  0.50000000  0.00942300  0.72724800  1
  O  O27  1  0.92313300  0.30153000  0.20207400  1
  O  O28  1  0.95106400  0.10125700  0.22072700  1
  O  O29  1  0.00000000  0.00000000  0.24950600  1
loop_
_geom_bond_atom_site_label_1
_geom_bond_atom_site_label_2
_geom_bond_distance
_geom_bond_site_symmetry_2
Na0 O8 2.604604 1_555
Na0 O18 2.610217 1_555
Na0 O2 2.610223 1_554
Na0 O9 2.627556 1_555
Na0 O7 2.762306 1_555
Na0 O17 2.762306 1_555
Na0 O3 2.769475 1_655
Na0 O10 2.769475 1_454
Na0 O5 2.930111 1_554
Na0 O2 2.965417 1_655
Na0 O18 2.965422 1_455
Na0 O15 2.968338 1_555
Na1 O15 2.601879 1_555
Na1 O16 2.601885 1_555
Na1 O6 2.602969 1_554
Na1 O24 2.602969 1_555
Na1 O7 2.755908 1_655
Na1 O17 2.755908 1_454
Na1 O14 2.755908 1_455
Na1 O23 2.755908 1_655
Na1 O8 2.962426 1_554
Na1 O21 2.962436 1_555
Na1 O6 2.977380 1_655
Na1 O24 2.977380 1_455
Na2 O21 2.604579 1_555
Na2 O27 2.610229 1_555
Na2 O12 2.610235 1_554
Na2 O22 2.627543 1_555
Na2 O23 2.762306 1_554
Na2 O14 2.762306 1_555
Na2 O13 2.769475 1_655
Na2 O20 2.769475 1_455
Na2 O25 2.930133 1_555
Na2 O12 2.965406 1_655
Na2 O27 2.965412 1_455
Na2 O16 2.968343 1_554
La0 O2 2.527967 1_555
La0 O18 2.527973 1_556
La0 O8 2.530437 1_555
La0 O9 2.551834 1_555
La0 O10 2.697790 1_555
La0 O3 2.697790 1_555
La0 O17 2.764773 1_455
La0 O7 2.764773 1_656
La0 O5 2.904861 1_555
La0 O15 3.035115 1_556
La0 O18 3.036327 1_455
La0 O2 3.036332 1_655
La1 O16 2.508435 1_555
La1 O15 2.508441 1_555
La1 O24 2.515779 1_556
La1 O6 2.515779 1_555
La1 O7 2.753176 1_555
La1 O17 2.753176 1_555
La1 O23 2.753176 1_555
La1 O14 2.753176 1_556
La1 O21 3.037768 1_556
La1 O8 3.037778 1_555
La1 O24 3.051308 1_455
La1 O6 3.051308 1_655
La2 O12 2.527961 1_555
La2 O27 2.527967 1_556
La2 O21 2.530455 1_555
La2 O22 2.551840 1_555
La2 O20 2.697790 1_556
La2 O13 2.697790 1_555
La2 O14 2.764773 1_455
La2 O23 2.764773 1_655
La2 O25 2.904845 1_556
La2 O16 3.035116 1_555
La2 O27 3.036332 1_455
La2 O12 3.036338 1_655
O0 Ti9 1.971852 1_555
O0 Ti7 1.972688 1_555
O0 Sr1 2.767431 1_546
O0 Sr3 2.767431 1_455
O0 Sr0 2.786963 1_445
O0 Sr2 2.786963 1_555
O1 Ti9 1.987857 1_565
O1 Ti2 1.989818 1_456
O1 Sr0 2.646440 1_555
O1 Sr1 2.649831 1_556
O1 Sr1 2.910991 1_455
O1 Sr0 2.913954 1_455
O2 Ti0 1.956059 1_555
O2 Ti4 1.964724 1_456
O3 Ti2 1.970410 1_455
O3 Ti0 1.975494 1_555
O3 Sr1 2.766183 1_555
O3 Sr0 2.817125 1_454
O4 Ti9 1.963383 1_665
O4 Ti7 1.963383 1_564
O4 Sr0 2.656648 1_555
O4 Sr1 2.663716 1_555
O4 Sr3 2.903106 1_565
O4 Sr2 2.946694 1_564
O5 Ti0 1.958571 1_555
O5 Ti2 1.958571 1_556
O5 Sr0 2.622453 1_555
O5 Sr1 2.642132 1_555
O6 Ti5 1.965246 1_555
O6 Ti1 1.965246 1_555
O7 Ti4 1.971634 1_455
O7 Ti1 1.972926 1_555
O8 Ti1 1.976482 1_555
O8 Ti4 1.976482 1_556
O9 Ti2 1.981865 1_455
O9 Ti0 1.981865 1_655
O9 Sr1 2.946557 1_555
O9 Sr0 3.018249 1_554
O10 Ti0 1.970418 1_655
O10 Ti2 1.975501 1_556
O10 Sr1 2.766183 1_555
O10 Sr0 2.817125 1_655
O11 Ti7 1.987857 1_664
O11 Ti0 1.989818 1_655
O11 Sr0 2.646440 1_554
O11 Sr1 2.649831 1_555
O11 Sr1 2.910991 1_655
O11 Sr0 2.913954 1_655
O12 Ti6 1.956059 1_555
O12 Ti3 1.964724 1_455
O13 Ti8 1.970410 1_455
O13 Ti6 1.975501 1_555
O13 Sr3 2.766183 1_556
O13 Sr2 2.817125 1_455
O14 Ti5 1.971642 1_654
O14 Ti3 1.972910 1_555
O15 Ti4 1.985444 1_455
O15 Ti1 1.985444 1_655
O16 Ti5 1.985444 1_655
O16 Ti3 1.985444 1_455
O17 Ti1 1.971634 1_655
O17 Ti4 1.972926 1_556
O18 Ti2 1.956059 1_555
O18 Ti1 1.964724 1_655
O19 Ti7 1.987857 1_555
O19 Ti8 1.989818 1_455
O19 Sr2 2.646457 1_555
O19 Sr3 2.649814 1_556
O19 Sr3 2.911007 1_455
O19 Sr2 2.913938 1_455
O20 Ti6 1.970410 1_654
O20 Ti8 1.975501 1_555
O20 Sr3 2.766183 1_555
O20 Sr2 2.817125 1_655
O21 Ti5 1.976481 1_554
O21 Ti3 1.976482 1_555
O22 Ti6 1.981865 1_655
O22 Ti8 1.981865 1_455
O22 Sr3 2.946547 1_556
O22 Sr2 3.018260 1_555
O23 Ti3 1.971650 1_455
O23 Ti5 1.972918 1_555
O24 Ti3 1.965246 1_555
O24 Ti4 1.965246 1_555
O25 Ti8 1.958571 1_555
O25 Ti6 1.958571 1_554
O25 Sr2 2.622452 1_555
O25 Sr3 2.642132 1_555
O26 Ti7 1.963383 1_655
O26 Ti9 1.963383 1_555
O26 Sr2 2.656642 1_555
O26 Sr3 2.663722 1_555
O26 Sr1 2.903121 1_546
O26 Sr0 2.946678 1_545
O27 Ti8 1.956059 1_555
O27 Ti5 1.964724 1_654
O28 Ti9 1.987857 1_655
O28 Ti6 1.989818 1_654
O28 Sr2 2.646457 1_554
O28 Sr3 2.649814 1_555
O28 Sr3 2.911007 1_655
O28 Sr2 2.913938 1_655
O29 Ti7 1.971852 1_554
O29 Ti9 1.972688 1_555
O29 Sr1 2.767431 1_445
O29 Sr3 2.767431 1_555
O29 Sr0 2.786963 1_545
O29 Sr2 2.786963 1_454
