# generated using pymatgen
data_BaTb2(MoO4)4
_symmetry_space_group_name_H-M   'P 1'
_cell_length_a   6.90951984
_cell_length_b   6.90951984
_cell_length_c   19.56418146
_cell_angle_alpha   89.41162994
_cell_angle_beta   89.41162994
_cell_angle_gamma   134.53346675
_symmetry_Int_Tables_number   1
_chemical_formula_structural   BaTb2(MoO4)4
_chemical_formula_sum   'Ba2 Tb4 Mo8 O32'
_cell_volume   665.57447537
_cell_formula_units_Z   2
loop_
 _symmetry_equiv_pos_site_id
 _symmetry_equiv_pos_as_xyz
  1  'x, y, z'
loop_
 _atom_site_type_symbol
 _atom_site_label
 _atom_site_symmetry_multiplicity
 _atom_site_fract_x
 _atom_site_fract_y
 _atom_site_fract_z
 _atom_site_occupancy
  Ba  Ba0  1  0.53191400  0.46808600  0.75000000  1
  Ba  Ba1  1  0.46808600  0.53191400  0.25000000  1
  Tb  Tb0  1  0.64505000  0.34827100  0.96730900  1
  Tb  Tb1  1  0.35495000  0.65172900  0.03269100  1
  Tb  Tb2  1  0.65172900  0.35495000  0.53269100  1
  Tb  Tb3  1  0.34827100  0.64505000  0.46730900  1
  Mo  Mo0  1  0.93118500  0.04703900  0.59069100  1
  Mo  Mo1  1  0.06881500  0.95296100  0.40930900  1
  Mo  Mo2  1  0.95296100  0.06881500  0.90930900  1
  Mo  Mo3  1  0.04703900  0.93118500  0.09069100  1
  Mo  Mo4  1  0.24286900  0.76437300  0.64896700  1
  Mo  Mo5  1  0.75713100  0.23562700  0.35103300  1
  Mo  Mo6  1  0.23562700  0.75713100  0.85103300  1
  Mo  Mo7  1  0.76437300  0.24286900  0.14896700  1
  O  O0  1  0.67570600  0.01899200  0.54526600  1
  O  O1  1  0.32429400  0.98100800  0.45473400  1
  O  O2  1  0.98100800  0.32429400  0.95473400  1
  O  O3  1  0.01899200  0.67570600  0.04526600  1
  O  O4  1  0.42190100  0.90476300  0.93333300  1
  O  O5  1  0.57809900  0.09523700  0.06666700  1
  O  O6  1  0.09523700  0.57809900  0.56666700  1
  O  O7  1  0.90476300  0.42190100  0.43333300  1
  O  O8  1  0.80095500  0.96454000  0.83002700  1
  O  O9  1  0.19904500  0.03546000  0.16997300  1
  O  O10  1  0.03546000  0.19904500  0.66997300  1
  O  O11  1  0.96454000  0.80095500  0.33002700  1
  O  O12  1  0.71944000  0.81446000  0.10266800  1
  O  O13  1  0.28056000  0.18554000  0.89733200  1
  O  O14  1  0.18554000  0.28056000  0.39733200  1
  O  O15  1  0.81446000  0.71944000  0.60266800  1
  O  O16  1  0.41225900  0.11673200  0.63390200  1
  O  O17  1  0.58774100  0.88326800  0.36609800  1
  O  O18  1  0.88326800  0.58774100  0.86609800  1
  O  O19  1  0.11673200  0.41225900  0.13390200  1
  O  O20  1  0.72585100  0.75843900  0.96503200  1
  O  O21  1  0.27414900  0.24156100  0.03496800  1
  O  O22  1  0.24156100  0.27414900  0.53496800  1
  O  O23  1  0.75843900  0.72585100  0.46503200  1
  O  O24  1  0.48619800  0.76342700  0.67450000  1
  O  O25  1  0.51380200  0.23657300  0.32550000  1
  O  O26  1  0.23657300  0.51380200  0.82550000  1
  O  O27  1  0.76342700  0.48619800  0.17450000  1
  O  O28  1  0.40378400  0.01490900  0.78783400  1
  O  O29  1  0.59621600  0.98509100  0.21216600  1
  O  O30  1  0.98509100  0.59621600  0.71216600  1
  O  O31  1  0.01490900  0.40378400  0.28783400  1
loop_
_geom_bond_atom_site_label_1
_geom_bond_atom_site_label_2
_geom_bond_distance
_geom_bond_site_symmetry_2
Ba0 O30 2.680841 1_555
Ba0 O28 2.680841 1_555
Ba0 O24 2.701429 1_555
Ba0 O26 2.701429 1_555
Ba0 O8 2.983202 1_555
Ba0 O10 2.983202 1_555
Ba0 O18 3.012112 1_555
Ba0 O16 3.012112 1_555
Ba0 O13 3.187760 1_555
Ba0 O15 3.187760 1_555
Ba1 O29 2.680841 1_555
Ba1 O31 2.680841 1_555
Ba1 O27 2.701429 1_555
Ba1 O25 2.701429 1_555
Ba1 O11 2.983202 1_555
Ba1 O9 2.983202 1_555
Ba1 O17 3.012112 1_555
Ba1 O19 3.012112 1_555
Ba1 O14 3.187760 1_555
Ba1 O12 3.187760 1_555
Mo0 O10 1.738699 1_655
Mo0 O15 1.803774 1_545
Mo0 O22 1.856495 1_655
Mo0 O0 1.870651 1_555
Mo1 O11 1.738699 1_455
Mo1 O14 1.803774 1_565
Mo1 O23 1.856495 1_455
Mo1 O1 1.870651 1_555
Mo2 O8 1.738699 1_545
Mo2 O13 1.803774 1_655
Mo2 O20 1.856495 1_545
Mo2 O2 1.870651 1_555
Mo3 O9 1.738699 1_565
Mo3 O12 1.803774 1_455
Mo3 O21 1.856495 1_565
Mo3 O3 1.870651 1_555
Mo4 O30 1.753193 1_455
Mo4 O24 1.763206 1_555
Mo4 O16 1.834520 1_565
Mo4 O6 1.877328 1_555
Mo5 O31 1.753193 1_655
Mo5 O25 1.763206 1_555
Mo5 O17 1.834520 1_545
Mo5 O7 1.877328 1_555
Mo6 O28 1.753193 1_565
Mo6 O26 1.763206 1_555
Mo6 O18 1.834520 1_455
Mo6 O4 1.877328 1_555
Mo7 O29 1.753193 1_545
Mo7 O27 1.763206 1_555
Mo7 O19 1.834520 1_655
Mo7 O5 1.877328 1_555
O0 Tb2 2.450504 1_555
O0 Tb3 2.464349 1_545
O1 Tb3 2.450504 1_555
O1 Tb2 2.464349 1_565
O2 Tb0 2.450504 1_555
O2 Tb1 2.464349 1_656
O3 Tb1 2.450504 1_555
O3 Tb0 2.464349 1_454
O4 Tb0 2.375999 1_565
O4 Tb1 2.413831 1_556
O5 Tb1 2.375999 1_545
O5 Tb0 2.413831 1_554
O6 Tb2 2.375999 1_455
O6 Tb3 2.413831 1_555
O7 Tb3 2.375999 1_655
O7 Tb2 2.413831 1_555
O12 Tb1 2.368888 1_555
O13 Tb0 2.368888 1_555
O14 Tb3 2.368888 1_555
O15 Tb2 2.368888 1_555
O16 Tb2 2.326702 1_555
O17 Tb3 2.326702 1_555
O18 Tb0 2.326702 1_555
O19 Tb1 2.326702 1_555
O20 Tb0 2.474501 1_555
O20 Tb1 2.474546 1_556
O21 Tb1 2.474501 1_555
O21 Tb0 2.474546 1_554
O22 Tb2 2.474501 1_555
O22 Tb3 2.474546 1_555
O23 Tb3 2.474501 1_555
O23 Tb2 2.474546 1_555
