# generated using pymatgen
data_SmSi2Ni9
_symmetry_space_group_name_H-M   'P 1'
_cell_length_a   7.58093743
_cell_length_b   7.58093743
_cell_length_c   7.58093743
_cell_angle_alpha   99.54123670
_cell_angle_beta   99.54123670
_cell_angle_gamma   131.95025786
_symmetry_Int_Tables_number   1
_chemical_formula_structural   SmSi2Ni9
_chemical_formula_sum   'Sm2 Si4 Ni18'
_cell_volume   295.95628359
_cell_formula_units_Z   2
loop_
 _symmetry_equiv_pos_site_id
 _symmetry_equiv_pos_as_xyz
  1  'x, y, z'
loop_
 _atom_site_type_symbol
 _atom_site_label
 _atom_site_symmetry_multiplicity
 _atom_site_fract_x
 _atom_site_fract_y
 _atom_site_fract_z
 _atom_site_occupancy
  Sm  Sm0  1  0.50000000  0.50000000  0.00000000  1
  Sm  Sm1  1  0.75000000  0.25000000  0.50000000  1
  Si  Si0  1  0.62500000  0.87500000  0.75000000  1
  Si  Si1  1  0.12500000  0.37500000  0.25000000  1
  Si  Si2  1  0.12500000  0.87500000  0.75000000  1
  Si  Si3  1  0.12500000  0.87500000  0.25000000  1
  Ni  Ni0  1  0.25000000  0.75000000  0.50000000  1
  Ni  Ni1  1  0.00000000  0.00000000  0.00000000  1
  Ni  Ni2  1  0.68817800  0.01613800  0.07929200  1
  Ni  Ni3  1  0.68817800  0.60888500  0.67203900  1
  Ni  Ni4  1  0.26613800  0.43817800  0.57929200  1
  Ni  Ni5  1  0.26613800  0.68684600  0.82796100  1
  Ni  Ni6  1  0.93684600  0.01613800  0.32796100  1
  Ni  Ni7  1  0.93684600  0.60888500  0.92070800  1
  Ni  Ni8  1  0.85888500  0.43817800  0.17203900  1
  Ni  Ni9  1  0.85888500  0.68684600  0.42070800  1
  Ni  Ni10  1  0.56182200  0.73386200  0.42070800  1
  Ni  Ni11  1  0.56182200  0.14111500  0.82796100  1
  Ni  Ni12  1  0.98386200  0.31182200  0.92070800  1
  Ni  Ni13  1  0.98386200  0.06315400  0.67203900  1
  Ni  Ni14  1  0.31315400  0.73386200  0.17203900  1
  Ni  Ni15  1  0.31315400  0.14111500  0.57929200  1
  Ni  Ni16  1  0.39111500  0.31182200  0.32796100  1
  Ni  Ni17  1  0.39111500  0.06315400  0.07929200  1
loop_
_geom_bond_atom_site_label_1
_geom_bond_atom_site_label_2
_geom_bond_distance
_geom_bond_site_symmetry_2
Ni0 Si1 2.566796 1_555
Ni0 Si2 2.566796 1_555
Ni0 Si0 2.566796 1_555
Ni0 Si3 2.566796 1_555
Ni0 Ni10 2.607236 1_555
Ni0 Ni4 2.607236 1_555
Ni0 Ni9 2.607244 1_455
Ni0 Ni14 2.607244 1_555
Ni0 Ni5 2.607244 1_555
Ni0 Ni15 2.607244 1_565
Ni0 Ni8 2.607244 1_455
Ni0 Ni11 2.607244 1_565
Ni0 Sm1 3.086451 1_455
Ni0 Sm1 3.086451 1_565
Ni1 Si1 2.566796 1_555
Ni1 Si0 2.566796 1_444
Ni1 Si3 2.566796 1_545
Ni1 Si2 2.566796 1_544
Ni1 Ni2 2.607236 1_455
Ni1 Ni12 2.607236 1_454
Ni1 Ni7 2.607244 1_444
Ni1 Ni17 2.607244 1_555
Ni1 Ni6 2.607244 1_455
Ni1 Ni13 2.607244 1_454
Ni1 Ni16 2.607244 1_555
Ni1 Ni3 2.607244 1_444
Ni1 Sm0 3.086451 1_555
Ni1 Sm0 3.086451 1_445
Ni2 Si1 2.325819 1_655
Ni2 Si0 2.374648 1_544
Ni2 Ni5 2.412986 1_544
Ni2 Ni8 2.412992 1_555
Ni2 Ni6 2.435033 1_555
Ni2 Sm0 3.029799 1_545
Ni2 Sm1 3.170787 1_555
Ni3 Si2 2.325817 1_655
Ni3 Si0 2.374656 1_555
Ni3 Ni9 2.412978 1_555
Ni3 Ni4 2.412992 1_555
Ni3 Ni7 2.435033 1_555
Ni3 Sm0 3.029806 1_556
Ni3 Sm1 3.170778 1_555
Ni4 Si0 2.325819 1_555
Ni4 Si1 2.374648 1_555
Ni4 Ni6 2.412986 1_455
Ni4 Ni5 2.435033 1_555
Ni4 Sm1 3.029799 1_455
Ni4 Sm0 3.170787 1_556
Ni5 Si0 2.325823 1_555
Ni5 Si2 2.374650 1_555
Ni5 Ni7 2.412982 1_455
Ni5 Sm1 3.029802 1_455
Ni5 Sm0 3.170784 1_556
Ni6 Si1 2.325823 1_655
Ni6 Si3 2.374650 1_645
Ni6 Ni9 2.412982 1_545
Ni6 Sm0 3.029802 1_545
Ni6 Sm1 3.170784 1_555
Ni7 Si2 2.325823 1_655
Ni7 Si3 2.374650 1_656
Ni7 Ni8 2.412978 1_556
Ni7 Sm0 3.029802 1_556
Ni7 Sm1 3.170784 1_555
Ni8 Si3 2.325817 1_655
Ni8 Si1 2.374656 1_655
Ni8 Ni9 2.435033 1_555
Ni8 Sm1 3.029806 1_555
Ni8 Sm0 3.170778 1_555
Ni9 Si3 2.325823 1_655
Ni9 Si2 2.374650 1_655
Ni9 Sm1 3.029802 1_555
Ni9 Sm0 3.170784 1_555
Ni10 Si1 2.325819 1_555
Ni10 Si0 2.374648 1_555
Ni10 Ni13 2.412986 1_565
Ni10 Ni16 2.412992 1_555
Ni10 Ni14 2.435033 1_555
Ni10 Ni6 2.486764 1_565
Ni10 Ni9 2.504350 1_555
Ni10 Ni4 2.561941 1_555
Ni10 Ni3 2.579194 1_555
Ni10 Sm1 3.029799 1_565
Ni10 Sm0 3.170787 1_555
Ni11 Si2 2.325817 1_545
Ni11 Si0 2.374656 1_545
Ni11 Ni17 2.412978 1_556
Ni11 Ni12 2.412992 1_555
Ni11 Ni15 2.435033 1_555
Ni11 Ni7 2.486760 1_555
Ni11 Ni8 2.504344 1_556
Ni11 Ni5 2.561946 1_545
Ni11 Ni2 2.579194 1_556
Ni11 Sm1 3.029806 1_555
Ni11 Sm0 3.170778 1_556
Ni12 Si0 2.325819 1_545
Ni12 Si1 2.374648 1_656
Ni12 Ni14 2.412986 1_656
Ni12 Ni13 2.435033 1_555
Ni12 Ni5 2.486764 1_655
Ni12 Ni7 2.504350 1_555
Ni12 Ni2 2.561941 1_556
Ni12 Ni8 2.579194 1_556
Ni12 Sm0 3.029799 1_656
Ni12 Sm1 3.170787 1_555
Ni13 Si0 2.325823 1_545
Ni13 Si2 2.374650 1_645
Ni13 Ni15 2.412982 1_655
Ni13 Ni4 2.486764 1_655
Ni13 Ni6 2.504342 1_555
Ni13 Ni3 2.561946 1_545
Ni13 Ni9 2.579187 1_545
Ni13 Sm0 3.029802 1_656
Ni13 Sm1 3.170784 1_555
Ni14 Si1 2.325823 1_555
Ni14 Si3 2.374650 1_555
Ni14 Ni17 2.412982 1_565
Ni14 Ni2 2.486764 1_565
Ni14 Ni5 2.504342 1_554
Ni14 Ni8 2.561946 1_455
Ni14 Ni7 2.579187 1_454
Ni14 Sm1 3.029802 1_565
Ni14 Sm0 3.170784 1_555
Ni15 Si2 2.325823 1_545
Ni15 Si3 2.374650 1_545
Ni15 Ni16 2.412978 1_555
Ni15 Ni3 2.486760 1_555
Ni15 Ni4 2.504350 1_555
Ni15 Ni9 2.561946 1_445
Ni15 Ni6 2.579187 1_455
Ni15 Sm1 3.029802 1_555
Ni15 Sm0 3.170784 1_556
Ni16 Si3 2.325817 1_545
Ni16 Si1 2.374656 1_555
Ni16 Ni17 2.435033 1_555
Ni16 Ni9 2.486760 1_555
Ni16 Ni3 2.504344 1_555
Ni16 Ni6 2.561946 1_455
Ni16 Ni4 2.579194 1_555
Ni16 Sm0 3.029806 1_555
Ni16 Sm1 3.170778 1_555
Ni17 Si3 2.325823 1_545
Ni17 Si2 2.374650 1_544
Ni17 Ni8 2.486760 1_555
Ni17 Ni2 2.504350 1_555
Ni17 Ni7 2.561946 1_444
Ni17 Ni5 2.579187 1_544
Ni17 Sm0 3.029802 1_555
Ni17 Sm1 3.170784 1_555
