# generated using pymatgen
data_La2CrMoO6
_symmetry_space_group_name_H-M   'P 1'
_cell_length_a   5.64972100
_cell_length_b   5.64972700
_cell_length_c   5.69897192
_cell_angle_alpha   60.28527588
_cell_angle_beta   60.28544668
_cell_angle_gamma   89.99985802
_symmetry_Int_Tables_number   1
_chemical_formula_structural   La2CrMoO6
_chemical_formula_sum   'La2 Cr1 Mo1 O6'
_cell_volume   129.72997324
_cell_formula_units_Z   1
loop_
 _symmetry_equiv_pos_site_id
 _symmetry_equiv_pos_as_xyz
  1  'x, y, z'
loop_
 _atom_site_type_symbol
 _atom_site_label
 _atom_site_symmetry_multiplicity
 _atom_site_fract_x
 _atom_site_fract_y
 _atom_site_fract_z
 _atom_site_occupancy
  La  La0  1  0.24999900  0.74999900  0.50000300  1
  La  La1  1  0.75000400  0.25000300  0.50000000  1
  Cr  Cr0  1  0.00000600  0.00000700  0.99999000  1
  Mo  Mo0  1  0.50000100  0.50000200  0.99999700  1
  O  O0  1  0.75759900  0.75759500  0.48480000  1
  O  O1  1  0.24240000  0.24240400  0.51519200  1
  O  O2  1  0.31200700  0.17238700  0.00000800  1
  O  O3  1  0.68799300  0.82760700  0.00000400  1
  O  O4  1  0.82760800  0.31200700  0.00000200  1
  O  O5  1  0.17238300  0.68798800  0.00000400  1
loop_
_geom_bond_atom_site_label_1
_geom_bond_atom_site_label_2
_geom_bond_distance
_geom_bond_site_symmetry_2
La0 O2 2.491217 1_565
La0 O5 2.491229 1_556
La0 O4 2.491244 1_456
La0 O3 2.491250 1_555
La0 O0 2.825528 1_555
La0 O1 2.825535 1_565
La0 O1 2.825541 1_555
La0 O0 2.825545 1_455
La1 O5 2.491198 1_655
La1 O4 2.491255 1_555
La1 O3 2.491259 1_546
La1 O2 2.491268 1_556
La1 O1 2.825490 1_655
La1 O0 2.825494 1_555
La1 O1 2.825580 1_555
La1 O0 2.825584 1_545
Cr0 O1 1.970365 1_555
Cr0 O0 1.970414 1_446
Cr0 O4 2.013923 1_456
Cr0 O3 2.013929 1_446
Cr0 O5 2.013931 1_546
Cr0 O2 2.013938 1_556
Mo0 O1 2.093908 1_556
Mo0 O0 2.093916 1_555
Mo0 O2 2.133981 1_556
Mo0 O4 2.133987 1_556
Mo0 O3 2.133996 1_556
Mo0 O5 2.134003 1_556
