# generated using pymatgen
data_ZnNiP2O7
_symmetry_space_group_name_H-M   'P 1'
_cell_length_a   8.38860500
_cell_length_b   7.02607400
_cell_length_c   9.09797396
_cell_angle_alpha   66.73370863
_cell_angle_beta   90.00000000
_cell_angle_gamma   90.00000000
_symmetry_Int_Tables_number   1
_chemical_formula_structural   ZnNiP2O7
_chemical_formula_sum   'Zn4 Ni4 P8 O28'
_cell_volume   492.61871925
_cell_formula_units_Z   4
loop_
 _symmetry_equiv_pos_site_id
 _symmetry_equiv_pos_as_xyz
  1  'x, y, z'
loop_
 _atom_site_type_symbol
 _atom_site_label
 _atom_site_symmetry_multiplicity
 _atom_site_fract_x
 _atom_site_fract_y
 _atom_site_fract_z
 _atom_site_occupancy
  Zn  Zn0  1  0.94222800  0.69516300  0.18206900  1
  Zn  Zn1  1  0.44222800  0.30483700  0.31793100  1
  Zn  Zn2  1  0.55777200  0.69516300  0.68206900  1
  Zn  Zn3  1  0.05777200  0.30483700  0.81793100  1
  Ni  Ni0  1  0.07402100  0.22977300  0.39027400  1
  Ni  Ni1  1  0.92597900  0.77022700  0.60972600  1
  Ni  Ni2  1  0.57402100  0.77022700  0.10972600  1
  Ni  Ni3  1  0.42597900  0.22977300  0.89027400  1
  P  P0  1  0.73239700  0.06012700  0.75958200  1
  P  P1  1  0.22779100  0.53079800  0.03152200  1
  P  P2  1  0.76760300  0.06012700  0.25958200  1
  P  P3  1  0.27220900  0.53079800  0.53152200  1
  P  P4  1  0.23239700  0.93987300  0.74041800  1
  P  P5  1  0.72779100  0.46920200  0.46847800  1
  P  P6  1  0.77220900  0.46920200  0.96847800  1
  P  P7  1  0.26760300  0.93987300  0.24041800  1
  O  O0  1  0.17302200  0.74763500  0.89881600  1
  O  O1  1  0.61018600  0.10841700  0.31672500  1
  O  O2  1  0.88981400  0.10841700  0.81672500  1
  O  O3  1  0.39053400  0.55571500  0.10027500  1
  O  O4  1  0.82697800  0.25236500  0.10118400  1
  O  O5  1  0.09488400  0.97578600  0.61990200  1
  O  O6  1  0.60946600  0.44428500  0.89972500  1
  O  O7  1  0.09169500  0.47965800  0.15488500  1
  O  O8  1  0.26261900  0.37365300  0.45214900  1
  O  O9  1  0.90511600  0.02421400  0.38009800  1
  O  O10  1  0.40511600  0.97578600  0.11990200  1
  O  O11  1  0.75850600  0.88073100  0.20260100  1
  O  O12  1  0.25850600  0.11926900  0.29739900  1
  O  O13  1  0.32697800  0.74763500  0.39881600  1
  O  O14  1  0.59488400  0.02421400  0.88009800  1
  O  O15  1  0.11018600  0.89158300  0.18327500  1
  O  O16  1  0.24149400  0.11926900  0.79739900  1
  O  O17  1  0.90830500  0.52034200  0.84511500  1
  O  O18  1  0.23738100  0.37365300  0.95214900  1
  O  O19  1  0.76261900  0.62634700  0.04785100  1
  O  O20  1  0.89053400  0.44428500  0.39972500  1
  O  O21  1  0.40830500  0.47965800  0.65488500  1
  O  O22  1  0.59169500  0.52034200  0.34511500  1
  O  O23  1  0.38981400  0.89158300  0.68327500  1
  O  O24  1  0.74149400  0.88073100  0.70260100  1
  O  O25  1  0.10946600  0.55571500  0.60027500  1
  O  O26  1  0.73738100  0.62634700  0.54785100  1
  O  O27  1  0.67302200  0.25236500  0.60118400  1
loop_
_geom_bond_atom_site_label_1
_geom_bond_atom_site_label_2
_geom_bond_distance
_geom_bond_site_symmetry_2
Ni0 O9 2.051261 1_455
Ni0 O12 2.056710 1_555
Ni0 O8 2.071564 1_555
Ni0 O5 2.152777 1_545
Ni0 O7 2.172644 1_555
Ni0 O20 2.179563 1_455
Ni1 O5 2.051261 1_655
Ni1 O24 2.056710 1_555
Ni1 O26 2.071564 1_555
Ni1 O9 2.152777 1_565
Ni1 O17 2.172644 1_555
Ni1 O25 2.179563 1_655
Ni2 O10 2.051261 1_555
Ni2 O11 2.056710 1_555
Ni2 O19 2.071564 1_555
Ni2 O14 2.152777 1_564
Ni2 O22 2.172644 1_555
Ni2 O3 2.179563 1_555
Ni3 O14 2.051261 1_555
Ni3 O16 2.056710 1_555
Ni3 O18 2.071564 1_555
Ni3 O10 2.152777 1_546
Ni3 O21 2.172644 1_555
Ni3 O6 2.179563 1_555
O0 P1 1.592708 1_556
O0 P4 1.616000 1_555
O1 P2 1.506152 1_555
O1 Zn1 1.975284 1_555
O2 P0 1.506152 1_555
O2 Zn3 1.975284 1_655
O3 P1 1.540183 1_555
O3 Zn1 2.111603 1_555
O4 P6 1.592708 1_554
O4 P2 1.616000 1_555
O5 P4 1.542066 1_555
O6 P6 1.540183 1_555
O6 Zn2 2.111603 1_555
O7 P1 1.540639 1_555
O7 Zn0 2.054686 1_455
O8 P3 1.541720 1_555
O8 Zn1 2.112197 1_555
O9 P2 1.542066 1_555
O10 P7 1.542066 1_555
O11 P2 1.542571 1_565
O11 Zn0 2.074233 1_555
O12 P7 1.542571 1_545
O12 Zn1 2.074233 1_555
O13 P3 1.592708 1_555
O13 P7 1.616000 1_555
O14 P0 1.542066 1_555
O15 P7 1.506152 1_555
O15 Zn0 1.975284 1_455
O16 P4 1.542571 1_545
O16 Zn3 2.074233 1_555
O17 P6 1.540639 1_555
O17 Zn3 2.054686 1_655
O18 P1 1.541720 1_556
O18 Zn3 2.112197 1_555
O19 P6 1.541720 1_554
O19 Zn0 2.112197 1_555
O20 P5 1.540183 1_555
O20 Zn0 2.111603 1_555
O21 P3 1.540639 1_555
O21 Zn2 2.054686 1_555
O22 P5 1.540639 1_555
O22 Zn1 2.054686 1_555
O23 P4 1.506152 1_555
O23 Zn2 1.975284 1_555
O24 P0 1.542571 1_565
O24 Zn2 2.074233 1_555
O25 P3 1.540183 1_555
O25 Zn3 2.111603 1_555
O26 P5 1.541720 1_555
O26 Zn2 2.112197 1_555
O27 P5 1.592708 1_555
O27 P0 1.616000 1_555
