# generated using pymatgen
data_Ho5Cu(WO4)8
_symmetry_space_group_name_H-M   'P 1'
_cell_length_a   10.04996485
_cell_length_b   10.04996485
_cell_length_c   11.60068547
_cell_angle_alpha   70.23984306
_cell_angle_beta   70.23984306
_cell_angle_gamma   32.78997191
_symmetry_Int_Tables_number   1
_chemical_formula_structural   Ho5Cu(WO4)8
_chemical_formula_sum   'Ho5 Cu1 W8 O32'
_cell_volume   593.83240112
_cell_formula_units_Z   1
loop_
 _symmetry_equiv_pos_site_id
 _symmetry_equiv_pos_as_xyz
  1  'x, y, z'
loop_
 _atom_site_type_symbol
 _atom_site_label
 _atom_site_symmetry_multiplicity
 _atom_site_fract_x
 _atom_site_fract_y
 _atom_site_fract_z
 _atom_site_occupancy
  Ho  Ho0  1  0.52985900  0.17391900  0.70919300  1
  Ho  Ho1  1  0.82608100  0.47014100  0.29080700  1
  Ho  Ho2  1  0.47456400  0.81816200  0.79704800  1
  Ho  Ho3  1  0.18183800  0.52543600  0.20295200  1
  Ho  Ho4  1  0.30754400  0.69245600  0.50000000  1
  Cu  Cu0  1  0.70396300  0.29603700  0.00000000  1
  W  W0  1  0.93162400  0.69132000  0.53581700  1
  W  W1  1  0.30868000  0.06837600  0.46418300  1
  W  W2  1  0.06527800  0.31337700  0.96213000  1
  W  W3  1  0.68662300  0.93472200  0.03787000  1
  W  W4  1  0.75615000  0.12996900  0.33726000  1
  W  W5  1  0.87003100  0.24385000  0.66274000  1
  W  W6  1  0.24325300  0.87086000  0.15297900  1
  W  W7  1  0.12914000  0.75674700  0.84702100  1
  O  O0  1  0.96060200  0.77571100  0.35549300  1
  O  O1  1  0.22428900  0.03939800  0.64450700  1
  O  O2  1  0.03477600  0.22892300  0.14239000  1
  O  O3  1  0.77107700  0.96522400  0.85761000  1
  O  O4  1  0.63871000  0.38994200  0.36810400  1
  O  O5  1  0.61005800  0.36129000  0.63189600  1
  O  O6  1  0.35047200  0.61567900  0.13665500  1
  O  O7  1  0.38432100  0.64952800  0.86334500  1
  O  O8  1  0.47186400  0.28641400  0.32759000  1
  O  O9  1  0.71358600  0.52813600  0.67241000  1
  O  O10  1  0.52253600  0.71450200  0.17596900  1
  O  O11  1  0.28549800  0.47746400  0.82403100  1
  O  O12  1  0.74239500  0.79200600  0.69091100  1
  O  O13  1  0.20799400  0.25760500  0.30908900  1
  O  O14  1  0.26398400  0.20423500  0.80663900  1
  O  O15  1  0.79576500  0.73601600  0.19336100  1
  O  O16  1  0.22079800  0.52134800  0.57348600  1
  O  O17  1  0.47865200  0.77920200  0.42651400  1
  O  O18  1  0.78599200  0.48185000  0.91996200  1
  O  O19  1  0.51815000  0.21400800  0.08003800  1
  O  O20  1  0.77937900  0.01341500  0.52005500  1
  O  O21  1  0.98658500  0.22062100  0.47994500  1
  O  O22  1  0.23355900  0.97904800  0.97772500  1
  O  O23  1  0.02095200  0.76644100  0.02227500  1
  O  O24  1  0.07452500  0.41545900  0.51486900  1
  O  O25  1  0.58454100  0.92547500  0.48513100  1
  O  O26  1  0.93137000  0.58166400  0.98558400  1
  O  O27  1  0.41833600  0.06863000  0.01441600  1
  O  O28  1  0.86836500  0.10383600  0.16513100  1
  O  O29  1  0.89616400  0.13163500  0.83486900  1
  O  O30  1  0.12012200  0.91004500  0.33026400  1
  O  O31  1  0.08995500  0.87987800  0.66973600  1
loop_
_geom_bond_atom_site_label_1
_geom_bond_atom_site_label_2
_geom_bond_distance
_geom_bond_site_symmetry_2
Ho0 O11 2.247617 1_555
Ho0 O3 2.252124 1_545
Ho0 O14 2.309154 1_555
Ho0 O20 2.361429 1_555
Ho0 O16 2.381755 1_555
Ho0 O12 2.408175 1_545
Ho0 O5 2.433322 1_555
Ho1 O10 2.247617 1_555
Ho1 O2 2.252124 1_655
Ho1 O15 2.309154 1_555
Ho1 O21 2.361429 1_555
Ho1 O17 2.381755 1_555
Ho1 O13 2.408175 1_655
Ho1 O4 2.433322 1_555
Ho2 O9 2.255162 1_555
Ho2 O22 2.268995 1_555
Ho2 O18 2.285989 1_555
Ho2 O1 2.312568 1_565
Ho2 O7 2.348951 1_555
Ho2 O12 2.370356 1_555
Ho2 O14 2.423319 1_565
Ho3 O8 2.255162 1_555
Ho3 O23 2.268995 1_555
Ho3 O19 2.285989 1_555
Ho3 O0 2.312568 1_455
Ho3 O6 2.348951 1_555
Ho3 O13 2.370356 1_555
Ho3 O15 2.423319 1_455
Ho4 O30 2.208631 1_555
Ho4 O31 2.208631 1_555
Ho4 O4 2.313164 1_555
Ho4 O5 2.313164 1_555
Ho4 O16 2.338954 1_555
Ho4 O17 2.338954 1_555
Cu0 O28 2.098303 1_555
Cu0 O29 2.098303 1_554
Cu0 O7 2.429207 1_554
Cu0 O6 2.429207 1_555
Cu0 O19 2.434614 1_555
Cu0 O18 2.434614 1_554
O0 W0 1.995949 1_555
O0 W4 2.104125 1_565
O1 W1 1.995949 1_555
O1 W5 2.104125 1_455
O2 W2 1.997780 1_554
O2 W6 2.133758 1_545
O3 W3 1.997780 1_556
O3 W7 2.133758 1_655
O4 W4 1.873292 1_555
O5 W5 1.873292 1_555
O6 W6 1.821570 1_555
O7 W7 1.821570 1_555
O8 W4 1.786690 1_555
O9 W5 1.786690 1_555
O10 W6 1.796009 1_555
O11 W7 1.796009 1_555
O12 W0 1.886701 1_555
O13 W1 1.886701 1_555
O14 W2 1.914186 1_555
O15 W3 1.914186 1_555
O16 W0 1.887356 1_455
O17 W1 1.887356 1_565
O18 W2 1.833679 1_655
O19 W3 1.833679 1_545
O20 W4 2.029464 1_555
O20 W0 2.077150 1_545
O21 W5 2.029464 1_555
O21 W1 2.077150 1_655
O22 W6 1.945813 1_556
O22 W2 2.103399 1_565
O23 W7 1.945813 1_554
O23 W3 2.103399 1_455
O24 W0 1.825652 1_455
O24 W1 2.168152 1_555
O25 W1 1.825652 1_565
O25 W0 2.168152 1_555
O26 W2 1.817330 1_655
O26 W3 2.186435 1_556
O27 W3 1.817330 1_545
O27 W2 2.186435 1_554
O28 W4 1.913641 1_555
O28 W6 2.174675 1_645
O29 W5 1.913641 1_555
O29 W7 2.174675 1_645
O30 W6 1.980798 1_555
O30 W4 2.144611 1_465
O31 W7 1.980798 1_555
O31 W5 2.144611 1_465
