# generated using pymatgen
data_AgSbTe2
_symmetry_space_group_name_H-M   'P 1'
_cell_length_a   6.14098500
_cell_length_b   6.14098500
_cell_length_c   6.06829000
_cell_angle_alpha   90.00000000
_cell_angle_beta   90.00000000
_cell_angle_gamma   90.00000000
_symmetry_Int_Tables_number   1
_chemical_formula_structural   AgSbTe2
_chemical_formula_sum   'Ag2 Sb2 Te4'
_cell_volume   228.84551239
_cell_formula_units_Z   2
loop_
 _symmetry_equiv_pos_site_id
 _symmetry_equiv_pos_as_xyz
  1  'x, y, z'
loop_
 _atom_site_type_symbol
 _atom_site_label
 _atom_site_symmetry_multiplicity
 _atom_site_fract_x
 _atom_site_fract_y
 _atom_site_fract_z
 _atom_site_occupancy
  Ag  Ag0  1  0.00000000  0.50000000  0.50000000  1
  Ag  Ag1  1  0.50000000  0.00000000  0.50000000  1
  Sb  Sb0  1  0.50000000  0.50000000  0.50000000  1
  Sb  Sb1  1  0.50000000  0.50000000  0.00000000  1
  Te  Te0  1  0.00000000  0.50000000  0.00000000  1
  Te  Te1  1  0.00000000  0.00000000  0.50000000  1
  Te  Te2  1  0.50000000  0.00000000  0.00000000  1
  Te  Te3  1  0.00000000  0.00000000  0.00000000  1
loop_
_geom_bond_atom_site_label_1
_geom_bond_atom_site_label_2
_geom_bond_distance
_geom_bond_site_symmetry_2
Ag0 Te0 3.034145 1_556
Ag0 Te0 3.034145 1_555
Ag0 Sb0 3.070492 1_455
Ag0 Sb0 3.070492 1_555
Ag0 Te1 3.070492 1_555
Ag0 Te1 3.070492 1_565
Ag1 Te2 3.034145 1_555
Ag1 Te2 3.034145 1_556
Ag1 Te1 3.070492 1_655
Ag1 Sb0 3.070492 1_545
Ag1 Sb0 3.070492 1_555
Ag1 Te1 3.070492 1_555
Sb0 Sb1 3.034145 1_555
Sb0 Sb1 3.034145 1_556
Sb1 Te0 3.070492 1_555
Sb1 Te0 3.070492 1_655
Sb1 Te2 3.070492 1_565
Sb1 Te2 3.070492 1_555
Te0 Te3 3.070492 1_555
Te0 Te3 3.070492 1_565
Te1 Te3 3.034145 1_555
Te1 Te3 3.034145 1_556
Te2 Te3 3.070492 1_555
Te2 Te3 3.070492 1_655
