# generated using pymatgen
data_Te6Mo3WSe2
_symmetry_space_group_name_H-M   'P 1'
_cell_length_a   3.49645315
_cell_length_b   3.49645315
_cell_length_c   39.60687000
_cell_angle_alpha   90.00000000
_cell_angle_beta   90.00000000
_cell_angle_gamma   119.99998382
_symmetry_Int_Tables_number   1
_chemical_formula_structural   Te6Mo3WSe2
_chemical_formula_sum   'Te6 Mo3 W1 Se2'
_cell_volume   419.33069211
_cell_formula_units_Z   1
loop_
 _symmetry_equiv_pos_site_id
 _symmetry_equiv_pos_as_xyz
  1  'x, y, z'
loop_
 _atom_site_type_symbol
 _atom_site_label
 _atom_site_symmetry_multiplicity
 _atom_site_fract_x
 _atom_site_fract_y
 _atom_site_fract_z
 _atom_site_occupancy
  Te  Te0  1  0.00000000  0.00000000  0.32810000  1
  Te  Te1  1  0.00000000  0.00000000  0.70382200  1
  Te  Te2  1  0.33333300  0.66666700  0.04762900  1
  Te  Te3  1  0.33333300  0.66666700  0.14022400  1
  Te  Te4  1  0.00000000  0.00000000  0.23550300  1
  Te  Te5  1  0.00000000  0.00000000  0.61122500  1
  Mo  Mo0  1  0.00000000  0.00000000  0.09390600  1
  Mo  Mo1  1  0.33333300  0.66666700  0.28182100  1
  Mo  Mo2  1  0.33333300  0.66666700  0.65753400  1
  W  W0  1  0.00000000  0.00000000  0.46966300  1
  Se  Se0  1  0.33333300  0.66666700  0.42866400  1
  Se  Se1  1  0.33333300  0.66666700  0.51065800  1
loop_
_geom_bond_atom_site_label_1
_geom_bond_atom_site_label_2
_geom_bond_distance
_geom_bond_site_symmetry_2
Mo0 Te2 2.726633 1_545
Mo0 Te2 2.726636 1_555
Mo0 Te2 2.726636 1_445
Mo0 Te3 2.727725 1_545
Mo0 Te3 2.727728 1_445
Mo0 Te3 2.727728 1_555
Mo1 Te0 2.726686 1_565
Mo1 Te0 2.726689 1_555
Mo1 Te0 2.726689 1_665
Mo1 Te4 2.727725 1_565
Mo1 Te4 2.727728 1_555
Mo1 Te4 2.727728 1_665
Mo2 Te1 2.726926 1_565
Mo2 Te1 2.726929 1_665
Mo2 Te1 2.726929 1_555
Mo2 Te5 2.727485 1_565
Mo2 Te5 2.727488 1_665
Mo2 Te5 2.727488 1_555
Se0 W0 2.590737 1_565
Se0 W0 2.590739 1_665
Se0 W0 2.590739 1_555
Se1 W0 2.590637 1_565
Se1 W0 2.590640 1_665
Se1 W0 2.590640 1_555
