# generated using pymatgen
data_Sr7CN6
_symmetry_space_group_name_H-M   'P 1'
_cell_length_a   11.40716400
_cell_length_b   6.63189800
_cell_length_c   13.30079300
_cell_angle_alpha   90.00000000
_cell_angle_beta   90.00000000
_cell_angle_gamma   90.00000000
_symmetry_Int_Tables_number   1
_chemical_formula_structural   Sr7CN6
_chemical_formula_sum   'Sr28 C4 N24'
_cell_volume   1006.22026132
_cell_formula_units_Z   4
loop_
 _symmetry_equiv_pos_site_id
 _symmetry_equiv_pos_as_xyz
  1  'x, y, z'
loop_
 _atom_site_type_symbol
 _atom_site_label
 _atom_site_symmetry_multiplicity
 _atom_site_fract_x
 _atom_site_fract_y
 _atom_site_fract_z
 _atom_site_occupancy
  Sr  Sr0  1  0.04456700  0.74426600  0.98764300  1
  Sr  Sr1  1  0.45543300  0.75573400  0.48764300  1
  Sr  Sr2  1  0.54456700  0.75573400  0.01235700  1
  Sr  Sr3  1  0.95543300  0.74426600  0.51235700  1
  Sr  Sr4  1  0.95543300  0.25573400  0.01235700  1
  Sr  Sr5  1  0.54456700  0.24426600  0.51235700  1
  Sr  Sr6  1  0.45543300  0.24426600  0.98764300  1
  Sr  Sr7  1  0.04456700  0.25573400  0.48764300  1
  Sr  Sr8  1  0.20977200  0.86285300  0.62244600  1
  Sr  Sr9  1  0.29022800  0.63714700  0.12244600  1
  Sr  Sr10  1  0.70977200  0.63714700  0.37755400  1
  Sr  Sr11  1  0.79022800  0.86285300  0.87755400  1
  Sr  Sr12  1  0.79022800  0.13714700  0.37755400  1
  Sr  Sr13  1  0.70977200  0.36285300  0.87755400  1
  Sr  Sr14  1  0.29022800  0.36285300  0.62244600  1
  Sr  Sr15  1  0.20977200  0.13714700  0.12244600  1
  Sr  Sr16  1  0.29583500  0.62816200  0.86115900  1
  Sr  Sr17  1  0.20416500  0.87183800  0.36115900  1
  Sr  Sr18  1  0.79583500  0.87183800  0.13884100  1
  Sr  Sr19  1  0.70416500  0.62816200  0.63884100  1
  Sr  Sr20  1  0.70416500  0.37183800  0.13884100  1
  Sr  Sr21  1  0.79583500  0.12816200  0.63884100  1
  Sr  Sr22  1  0.20416500  0.12816200  0.86115900  1
  Sr  Sr23  1  0.29583500  0.37183800  0.36115900  1
  Sr  Sr24  1  0.00000000  0.46631800  0.75000000  1
  Sr  Sr25  1  0.50000000  0.03368200  0.25000000  1
  Sr  Sr26  1  0.00000000  0.53368200  0.25000000  1
  Sr  Sr27  1  0.50000000  0.96631800  0.75000000  1
  C  C0  1  0.00000000  0.93649100  0.75000000  1
  C  C1  1  0.50000000  0.56350900  0.25000000  1
  C  C2  1  0.00000000  0.06350900  0.25000000  1
  C  C3  1  0.50000000  0.43649100  0.75000000  1
  N  N0  1  0.10530100  0.79635100  0.78797900  1
  N  N1  1  0.39469900  0.70364900  0.28797900  1
  N  N2  1  0.60530100  0.70364900  0.21202100  1
  N  N3  1  0.89469900  0.79635100  0.71202100  1
  N  N4  1  0.89469900  0.20364900  0.21202100  1
  N  N5  1  0.60530100  0.29635100  0.71202100  1
  N  N6  1  0.39469900  0.29635100  0.78797900  1
  N  N7  1  0.10530100  0.20364900  0.28797900  1
  N  N8  1  0.16515200  0.59028600  0.49541000  1
  N  N9  1  0.33484800  0.90971400  0.99541000  1
  N  N10  1  0.66515200  0.90971400  0.50459000  1
  N  N11  1  0.83484800  0.59028600  0.00459000  1
  N  N12  1  0.83484800  0.40971400  0.50459000  1
  N  N13  1  0.66515200  0.09028600  0.00459000  1
  N  N14  1  0.33484800  0.09028600  0.49541000  1
  N  N15  1  0.16515200  0.40971400  0.99541000  1
  N  N16  1  0.46785000  0.57101200  0.65942500  1
  N  N17  1  0.03215000  0.92898800  0.15942500  1
  N  N18  1  0.96785000  0.92898800  0.34057500  1
  N  N19  1  0.53215000  0.57101200  0.84057500  1
  N  N20  1  0.53215000  0.42898800  0.34057500  1
  N  N21  1  0.96785000  0.07101200  0.84057500  1
  N  N22  1  0.03215000  0.07101200  0.65942500  1
  N  N23  1  0.46785000  0.42898800  0.15942500  1
loop_
_geom_bond_atom_site_label_1
_geom_bond_atom_site_label_2
_geom_bond_distance
_geom_bond_site_symmetry_2
C0 N21 1.543289 1_465
C0 N22 1.543289 1_565
C0 N0 1.600562 1_555
C0 N3 1.600562 1_455
C1 N20 1.543289 1_555
C1 N23 1.543289 1_555
C1 N2 1.600562 1_555
C1 N1 1.600562 1_555
C2 N18 1.543289 1_445
C2 N17 1.543289 1_545
C2 N7 1.600562 1_555
C2 N4 1.600562 1_455
C3 N19 1.543289 1_555
C3 N16 1.543289 1_555
C3 N5 1.600562 1_555
C3 N6 1.600562 1_555
N0 Sr8 2.542100 1_555
N0 Sr24 2.547279 1_555
N0 Sr16 2.629725 1_555
N0 Sr22 2.657370 1_565
N0 Sr0 2.766221 1_555
N1 Sr9 2.542100 1_555
N1 Sr25 2.547279 1_565
N1 Sr17 2.629725 1_555
N1 Sr23 2.657370 1_555
N1 Sr1 2.766221 1_555
N2 Sr10 2.542100 1_555
N2 Sr25 2.547279 1_565
N2 Sr18 2.629725 1_555
N2 Sr20 2.657370 1_555
N2 Sr2 2.766221 1_555
N3 Sr11 2.542100 1_555
N3 Sr24 2.547279 1_655
N3 Sr19 2.629725 1_555
N3 Sr21 2.657370 1_565
N3 Sr3 2.766221 1_555
N4 Sr12 2.542100 1_555
N4 Sr26 2.547279 1_655
N4 Sr20 2.629725 1_555
N4 Sr18 2.657370 1_545
N4 Sr4 2.766221 1_555
N5 Sr13 2.542100 1_555
N5 Sr27 2.547279 1_545
N5 Sr21 2.629725 1_555
N5 Sr19 2.657370 1_555
N5 Sr5 2.766221 1_555
N6 Sr14 2.542100 1_555
N6 Sr27 2.547279 1_545
N6 Sr22 2.629725 1_555
N6 Sr16 2.657370 1_555
N6 Sr6 2.766221 1_555
N7 Sr15 2.542100 1_555
N7 Sr26 2.547279 1_555
N7 Sr23 2.629725 1_555
N7 Sr17 2.657370 1_545
N7 Sr7 2.766221 1_555
N8 Sr8 2.526190 1_555
N8 Sr3 2.610883 1_455
N8 Sr7 2.612558 1_555
N8 Sr17 2.621660 1_555
N8 Sr14 2.676878 1_555
N8 Sr23 2.740362 1_555
N9 Sr9 2.526190 1_556
N9 Sr2 2.610883 1_556
N9 Sr6 2.612558 1_565
N9 Sr16 2.621660 1_555
N9 Sr15 2.676878 1_566
N9 Sr22 2.740362 1_565
N10 Sr10 2.526190 1_555
N10 Sr1 2.610883 1_555
N10 Sr5 2.612558 1_565
N10 Sr19 2.621660 1_555
N10 Sr12 2.676878 1_565
N10 Sr21 2.740362 1_565
N11 Sr11 2.526190 1_554
N11 Sr0 2.610883 1_654
N11 Sr4 2.612558 1_555
N11 Sr18 2.621660 1_555
N11 Sr13 2.676878 1_554
N11 Sr20 2.740362 1_555
N12 Sr12 2.526190 1_555
N12 Sr7 2.610883 1_655
N12 Sr3 2.612558 1_555
N12 Sr21 2.621660 1_555
N12 Sr10 2.676878 1_555
N12 Sr19 2.740362 1_555
N13 Sr13 2.526190 1_554
N13 Sr6 2.610883 1_554
N13 Sr2 2.612558 1_545
N13 Sr20 2.621660 1_555
N13 Sr11 2.676878 1_544
N13 Sr18 2.740362 1_545
N14 Sr14 2.526190 1_555
N14 Sr5 2.610883 1_555
N14 Sr1 2.612558 1_545
N14 Sr23 2.621660 1_555
N14 Sr8 2.676878 1_545
N14 Sr17 2.740362 1_545
N15 Sr15 2.526190 1_556
N15 Sr4 2.610883 1_456
N15 Sr0 2.612558 1_555
N15 Sr22 2.621660 1_555
N15 Sr9 2.676878 1_556
N15 Sr16 2.740362 1_555
N16 Sr14 2.500601 1_555
N16 Sr1 2.596403 1_555
N16 Sr19 2.735931 1_555
N16 Sr27 2.908399 1_555
N16 Sr5 3.047607 1_555
N17 Sr15 2.500601 1_565
N17 Sr0 2.596403 1_554
N17 Sr18 2.735931 1_455
N17 Sr26 2.908399 1_555
N17 Sr4 3.047607 1_465
N18 Sr12 2.500601 1_565
N18 Sr3 2.596403 1_555
N18 Sr17 2.735931 1_655
N18 Sr26 2.908399 1_655
N18 Sr7 3.047607 1_665
N19 Sr13 2.500601 1_555
N19 Sr2 2.596403 1_556
N19 Sr16 2.735931 1_555
N19 Sr27 2.908399 1_555
N19 Sr6 3.047607 1_555
N20 Sr10 2.500601 1_555
N20 Sr5 2.596403 1_555
N20 Sr23 2.735931 1_555
N20 Sr25 2.908399 1_555
N20 Sr1 3.047607 1_555
N21 Sr11 2.500601 1_545
N21 Sr4 2.596403 1_556
N21 Sr22 2.735931 1_655
N21 Sr24 2.908399 1_655
N21 Sr0 3.047607 1_645
N22 Sr8 2.500601 1_545
N22 Sr7 2.596403 1_555
N22 Sr21 2.735931 1_455
N22 Sr24 2.908399 1_555
N22 Sr3 3.047607 1_445
N23 Sr9 2.500601 1_555
N23 Sr6 2.596403 1_554
N23 Sr20 2.735931 1_555
N23 Sr25 2.908399 1_555
N23 Sr2 3.047607 1_555
