# generated using pymatgen
data_Mg4Si7
_symmetry_space_group_name_H-M   'P 1'
_cell_length_a   3.90221600
_cell_length_b   6.47984000
_cell_length_c   15.53648059
_cell_angle_alpha   80.41378010
_cell_angle_beta   90.00000000
_cell_angle_gamma   90.00000000
_symmetry_Int_Tables_number   1
_chemical_formula_structural   Mg4Si7
_chemical_formula_sum   'Mg8 Si14'
_cell_volume   387.36560618
_cell_formula_units_Z   2
loop_
 _symmetry_equiv_pos_site_id
 _symmetry_equiv_pos_as_xyz
  1  'x, y, z'
loop_
 _atom_site_type_symbol
 _atom_site_label
 _atom_site_symmetry_multiplicity
 _atom_site_fract_x
 _atom_site_fract_y
 _atom_site_fract_z
 _atom_site_occupancy
  Mg  Mg0  1  0.00000000  0.93786400  0.90361200  1
  Mg  Mg1  1  0.00000000  0.39201400  0.50389600  1
  Mg  Mg2  1  0.50000000  0.28525100  0.34909000  1
  Mg  Mg3  1  0.50000000  0.52187900  0.65562600  1
  Mg  Mg4  1  0.00000000  0.44978400  0.84443600  1
  Mg  Mg5  1  0.50000000  0.73050000  0.19233400  1
  Mg  Mg6  1  0.50000000  0.74410900  0.41822200  1
  Mg  Mg7  1  0.50000000  0.05066900  0.58069100  1
  Si  Si0  1  0.50000000  0.20585800  0.97306900  1
  Si  Si1  1  0.50000000  0.58778400  0.97511300  1
  Si  Si2  1  0.00000000  0.66828500  0.06047400  1
  Si  Si3  1  0.00000000  0.40298000  0.19292100  1
  Si  Si4  1  0.00000000  0.76091900  0.55546200  1
  Si  Si5  1  0.00000000  0.03985500  0.43467200  1
  Si  Si6  1  0.50000000  0.15642100  0.17700800  1
  Si  Si7  1  0.50000000  0.76274700  0.80987600  1
  Si  Si8  1  0.00000000  0.20215200  0.69583500  1
  Si  Si9  1  0.00000000  0.04945300  0.07132700  1
  Si  Si10  1  0.00000000  0.58889400  0.31776700  1
  Si  Si11  1  0.50000000  0.17235800  0.80375300  1
  Si  Si12  1  0.00000000  0.82186600  0.70755500  1
  Si  Si13  1  0.00000000  0.97202000  0.28083900  1
loop_
_geom_bond_atom_site_label_1
_geom_bond_atom_site_label_2
_geom_bond_distance
_geom_bond_site_symmetry_2
Mg0 Si2 2.751887 1_556
Mg0 Si11 2.781637 1_565
Mg0 Si11 2.781637 1_465
Mg0 Si7 2.786705 1_455
Mg0 Si7 2.786705 1_555
Mg0 Si9 2.817810 1_566
Mg0 Si0 2.934467 1_465
Mg0 Si0 2.934467 1_565
Mg0 Si1 3.057364 1_555
Mg0 Si1 3.057364 1_455
Mg1 Si4 2.644604 1_555
Mg1 Si5 2.679800 1_555
Mg1 Si10 2.959941 1_555
Mg1 Si8 3.030563 1_555
Mg2 Si5 2.720125 1_655
Mg2 Si5 2.720125 1_555
Mg2 Si10 2.756088 1_555
Mg2 Si10 2.756088 1_655
Mg2 Si6 2.930547 1_555
Mg2 Si3 3.107944 1_655
Mg2 Si3 3.107944 1_555
Mg2 Si13 3.125330 1_645
Mg2 Si13 3.125330 1_545
Mg3 Si4 2.797312 1_555
Mg3 Si4 2.797312 1_655
Mg3 Si8 2.838712 1_655
Mg3 Si8 2.838712 1_555
Mg3 Si11 2.947848 1_555
Mg3 Si12 2.959511 1_555
Mg3 Si12 2.959511 1_655
Mg3 Si7 3.070028 1_555
Mg4 Si11 2.795786 1_555
Mg4 Si11 2.795786 1_455
Mg4 Si7 2.800900 1_455
Mg4 Si7 2.800900 1_555
Mg4 Si12 2.937338 1_555
Mg4 Si8 3.023067 1_555
Mg4 Si0 3.040896 1_455
Mg4 Si0 3.040896 1_555
Mg4 Si1 3.055009 1_555
Mg4 Si1 3.055009 1_455
Mg5 Si6 2.730360 1_565
Mg5 Si10 2.801960 1_655
Mg5 Si10 2.801960 1_555
Mg5 Si3 2.881756 1_655
Mg5 Si3 2.881756 1_555
Mg5 Si2 2.905400 1_555
Mg5 Si2 2.905400 1_655
Mg5 Si13 2.977181 1_555
Mg5 Si13 2.977181 1_655
Mg5 Si9 3.212271 1_665
Mg5 Si9 3.212271 1_565
Mg6 Si5 2.776294 1_665
Mg6 Si5 2.776294 1_565
Mg6 Si10 2.788736 1_655
Mg6 Si10 2.788736 1_555
Mg6 Si4 2.905587 1_555
Mg6 Si4 2.905587 1_655
Mg6 Si13 3.081205 1_555
Mg6 Si13 3.081205 1_655
Mg7 Si4 2.780415 1_645
Mg7 Si4 2.780415 1_545
Mg7 Si8 2.924973 1_555
Mg7 Si8 2.924973 1_655
Mg7 Si12 2.986063 1_645
Mg7 Si12 2.986063 1_545
Mg7 Si5 3.001886 1_555
Mg7 Si5 3.001886 1_655
Si0 Si1 2.480306 1_555
Si0 Si9 2.578588 1_556
Si0 Si9 2.578588 1_656
Si0 Si11 2.675301 1_555
Si1 Si2 2.463365 1_656
Si1 Si2 2.463365 1_556
Si1 Si7 2.628019 1_555
Si2 Si3 2.451849 1_555
Si2 Si9 2.503515 1_565
Si3 Si6 2.559693 1_555
Si3 Si6 2.559693 1_455
Si4 Si5 2.378864 1_565
Si6 Si9 2.713333 1_655
Si6 Si9 2.713333 1_555
Si10 Si3 2.447829 1_555
Si10 Si13 2.453171 1_555
Si11 Si8 2.558807 1_655
Si11 Si8 2.558807 1_555
Si11 Si7 2.640039 1_545
Si12 Si8 2.440483 1_565
Si12 Si4 2.459778 1_555
Si12 Si7 2.505577 1_455
Si12 Si7 2.505577 1_555
Si13 Si5 2.501065 1_565
Si13 Si6 2.682330 1_565
Si13 Si6 2.682330 1_465
Si13 Si3 2.897184 1_565
