# generated using pymatgen
data_Er2MgS4
_symmetry_space_group_name_H-M   'P 1'
_cell_length_a   6.50801356
_cell_length_b   6.50801356
_cell_length_c   12.78572300
_cell_angle_alpha   90.00000000
_cell_angle_beta   90.00000000
_cell_angle_gamma   146.43429829
_symmetry_Int_Tables_number   1
_chemical_formula_structural   Er2MgS4
_chemical_formula_sum   'Er4 Mg2 S8'
_cell_volume   299.40783583
_cell_formula_units_Z   2
loop_
 _symmetry_equiv_pos_site_id
 _symmetry_equiv_pos_as_xyz
  1  'x, y, z'
loop_
 _atom_site_type_symbol
 _atom_site_label
 _atom_site_symmetry_multiplicity
 _atom_site_fract_x
 _atom_site_fract_y
 _atom_site_fract_z
 _atom_site_occupancy
  Er  Er0  1  0.38216200  0.61783800  0.78314100  1
  Er  Er1  1  0.61783800  0.38216200  0.28314100  1
  Er  Er2  1  0.13800900  0.86199100  0.58241200  1
  Er  Er3  1  0.86199100  0.13800900  0.08241200  1
  Mg  Mg0  1  0.12606200  0.87393800  0.94605200  1
  Mg  Mg1  1  0.87393800  0.12606200  0.44605200  1
  S  S0  1  0.78854200  0.21145800  0.63607000  1
  S  S1  1  0.21145800  0.78854200  0.13607000  1
  S  S2  1  0.48820100  0.51179900  0.99776200  1
  S  S3  1  0.51179900  0.48820100  0.49776200  1
  S  S4  1  0.76374200  0.23625800  0.89502900  1
  S  S5  1  0.23625800  0.76374200  0.39502900  1
  S  S6  1  0.03626500  0.96373500  0.76753300  1
  S  S7  1  0.96373500  0.03626500  0.26753300  1
loop_
_geom_bond_atom_site_label_1
_geom_bond_atom_site_label_2
_geom_bond_distance
_geom_bond_site_symmetry_2
Er0 S6 2.694233 1_545
Er0 S6 2.694233 1_655
Er0 S4 2.784864 1_565
Er0 S4 2.784864 1_455
Er0 S0 2.903147 1_565
Er0 S0 2.903147 1_455
Er0 S2 3.045677 1_555
Er1 S7 2.694233 1_455
Er1 S7 2.694233 1_565
Er1 S5 2.784864 1_655
Er1 S5 2.784864 1_545
Er1 S1 2.903147 1_655
Er1 S1 2.903147 1_545
Er1 S3 3.045677 1_555
Er2 S3 2.678857 1_455
Er2 S3 2.678857 1_565
Er2 S6 2.685107 1_555
Er2 S5 2.690539 1_555
Er2 S0 2.742418 1_565
Er2 S0 2.742418 1_455
Er3 S2 2.678857 1_544
Er3 S2 2.678857 1_654
Er3 S7 2.685107 1_555
Er3 S4 2.690539 1_554
Er3 S1 2.742418 1_655
Er3 S1 2.742418 1_545
Mg0 S6 2.542042 1_555
Mg0 S4 2.626880 1_565
Mg0 S4 2.626880 1_455
Mg0 S2 2.630548 1_565
Mg0 S2 2.630548 1_455
Mg0 S1 2.652361 1_556
Mg1 S7 2.542042 1_555
Mg1 S5 2.626880 1_655
Mg1 S5 2.626880 1_545
Mg1 S3 2.630548 1_655
Mg1 S3 2.630548 1_545
Mg1 S0 2.652361 1_555
