# generated using pymatgen
data_Si
_symmetry_space_group_name_H-M   'P 1'
_cell_length_a   3.84593083
_cell_length_b   6.33300792
_cell_length_c   7.17668911
_cell_angle_alpha   96.52403067
_cell_angle_beta   105.54208898
_cell_angle_gamma   90.00000000
_symmetry_Int_Tables_number   1
_chemical_formula_structural   Si
_chemical_formula_sum   Si8
_cell_volume   167.23079840
_cell_formula_units_Z   8
loop_
 _symmetry_equiv_pos_site_id
 _symmetry_equiv_pos_as_xyz
  1  'x, y, z'
loop_
 _atom_site_type_symbol
 _atom_site_label
 _atom_site_symmetry_multiplicity
 _atom_site_fract_x
 _atom_site_fract_y
 _atom_site_fract_z
 _atom_site_occupancy
  Si  Si0  1  0.05552936  0.87396351  0.11105773  1
  Si  Si1  1  0.94447064  0.12603649  0.88894227  1
  Si  Si2  1  0.55899985  0.65339544  0.11799771  1
  Si  Si3  1  0.44100015  0.34660456  0.88200229  1
  Si  Si4  1  0.21274317  0.05730781  0.42548434  1
  Si  Si5  1  0.78725683  0.94269219  0.57451566  1
  Si  Si6  1  0.72710984  0.58557765  0.45421767  1
  Si  Si7  1  0.27289016  0.41442235  0.54578233  1
loop_
_geom_bond_atom_site_label_1
_geom_bond_atom_site_label_2
_geom_bond_distance
_geom_bond_site_symmetry_2
Si0 Si4 2.340771 1_565
Si0 Si1 2.342064 1_464
Si0 Si2 2.380571 1_455
Si0 Si2 2.380574 1_555
Si1 Si5 2.340771 1_545
Si1 Si3 2.380571 1_655
Si1 Si3 2.380574 1_555
Si2 Si3 2.385307 1_554
Si2 Si6 2.413349 1_555
Si3 Si7 2.413349 1_555
Si4 Si7 2.315821 1_555
Si4 Si5 2.337278 1_545
Si4 Si5 2.337291 1_445
Si5 Si6 2.315821 1_555
Si6 Si7 2.331382 1_655
Si6 Si7 2.331395 1_555
