# generated using pymatgen
data_CsHo3Te5
_symmetry_space_group_name_H-M   'P 1'
_cell_length_a   4.39759229
_cell_length_b   13.14126371
_cell_length_c   23.73917205
_cell_angle_alpha   90.00000000
_cell_angle_beta   90.00000000
_cell_angle_gamma   90.00000000
_symmetry_Int_Tables_number   1
_chemical_formula_structural   CsHo3Te5
_chemical_formula_sum   'Cs4 Ho12 Te20'
_cell_volume   1371.88485297
_cell_formula_units_Z   4
loop_
 _symmetry_equiv_pos_site_id
 _symmetry_equiv_pos_as_xyz
  1  'x, y, z'
loop_
 _atom_site_type_symbol
 _atom_site_label
 _atom_site_symmetry_multiplicity
 _atom_site_fract_x
 _atom_site_fract_y
 _atom_site_fract_z
 _atom_site_occupancy
  Cs  Cs0  1  0.25000000  0.35457760  0.08875760  1
  Cs  Cs1  1  0.75000000  0.64542240  0.91124240  1
  Cs  Cs2  1  0.75000000  0.85457760  0.41124240  1
  Cs  Cs3  1  0.25000000  0.14542240  0.58875760  1
  Ho  Ho0  1  0.25000000  0.45393498  0.69765464  1
  Ho  Ho1  1  0.75000000  0.54606502  0.30234536  1
  Ho  Ho2  1  0.75000000  0.95393498  0.80234536  1
  Ho  Ho3  1  0.25000000  0.04606502  0.19765464  1
  Ho  Ho4  1  0.25000000  0.79749379  0.67486275  1
  Ho  Ho5  1  0.75000000  0.20250621  0.32513725  1
  Ho  Ho6  1  0.75000000  0.29749379  0.82513725  1
  Ho  Ho7  1  0.25000000  0.70250621  0.17486275  1
  Ho  Ho8  1  0.25000000  0.39213649  0.44442046  1
  Ho  Ho9  1  0.75000000  0.60786351  0.55557954  1
  Ho  Ho10  1  0.75000000  0.89213649  0.05557954  1
  Ho  Ho11  1  0.25000000  0.10786351  0.94442046  1
  Te  Te0  1  0.25000000  0.44420180  0.56878696  1
  Te  Te1  1  0.75000000  0.55579820  0.43121304  1
  Te  Te2  1  0.75000000  0.94420180  0.93121304  1
  Te  Te3  1  0.25000000  0.05579820  0.06878696  1
  Te  Te4  1  0.25000000  0.76897363  0.54714553  1
  Te  Te5  1  0.75000000  0.23102637  0.45285447  1
  Te  Te6  1  0.75000000  0.26897363  0.95285447  1
  Te  Te7  1  0.25000000  0.73102637  0.04714553  1
  Te  Te8  1  0.25000000  0.79818535  0.80284649  1
  Te  Te9  1  0.75000000  0.20181465  0.19715351  1
  Te  Te10  1  0.75000000  0.29818535  0.69715351  1
  Te  Te11  1  0.25000000  0.70181465  0.30284649  1
  Te  Te12  1  0.25000000  0.45489277  0.82557121  1
  Te  Te13  1  0.75000000  0.54510723  0.17442879  1
  Te  Te14  1  0.75000000  0.95489277  0.67442879  1
  Te  Te15  1  0.25000000  0.04510723  0.32557121  1
  Te  Te16  1  0.25000000  0.37498381  0.31387733  1
  Te  Te17  1  0.75000000  0.62501619  0.68612267  1
  Te  Te18  1  0.75000000  0.87498381  0.18612267  1
  Te  Te19  1  0.25000000  0.12501619  0.81387733  1
loop_
_geom_bond_atom_site_label_1
_geom_bond_atom_site_label_2
_geom_bond_distance
_geom_bond_site_symmetry_2
Cs0 Te13 3.903833 1_555
Cs0 Te13 3.903833 1_455
Cs0 Te9 3.935259 1_455
Cs0 Te9 3.935259 1_555
Cs0 Te3 3.954857 1_555
Cs0 Te6 4.063096 1_454
Cs0 Te6 4.063096 1_554
Cs1 Te12 3.903833 1_655
Cs1 Te12 3.903833 1_555
Cs1 Te8 3.935259 1_555
Cs1 Te8 3.935259 1_655
Cs1 Te2 3.954857 1_555
Cs1 Te7 4.063096 1_556
Cs1 Te7 4.063096 1_656
Cs2 Te15 3.903833 1_665
Cs2 Te15 3.903833 1_565
Cs2 Te11 3.935259 1_655
Cs2 Te11 3.935259 1_555
Cs2 Te1 3.954857 1_555
Cs2 Te4 4.063096 1_655
Cs2 Te4 4.063096 1_555
Cs3 Te14 3.903833 1_445
Cs3 Te14 3.903833 1_545
Cs3 Te10 3.935259 1_555
Cs3 Te10 3.935259 1_455
Cs3 Te0 3.954857 1_555
Cs3 Te5 4.063096 1_555
Cs3 Te5 4.063096 1_455
Ho0 Te10 3.004001 1_455
Ho0 Te10 3.004001 1_555
Ho0 Te12 3.036660 1_555
Ho0 Te0 3.061885 1_555
Ho0 Te17 3.156605 1_455
Ho0 Te17 3.156605 1_555
Ho1 Te11 3.004001 1_555
Ho1 Te11 3.004001 1_655
Ho1 Te13 3.036660 1_555
Ho1 Te1 3.061885 1_555
Ho1 Te16 3.156605 1_555
Ho1 Te16 3.156605 1_655
Ho2 Te8 3.004001 1_555
Ho2 Te8 3.004001 1_655
Ho2 Te14 3.036660 1_555
Ho2 Te2 3.061885 1_555
Ho2 Te19 3.156605 1_665
Ho2 Te19 3.156605 1_565
Ho3 Te9 3.004001 1_455
Ho3 Te9 3.004001 1_555
Ho3 Te15 3.036660 1_555
Ho3 Te3 3.061885 1_555
Ho3 Te18 3.156605 1_545
Ho3 Te18 3.156605 1_445
Ho4 Te14 3.018804 1_555
Ho4 Te14 3.018804 1_455
Ho4 Te8 3.038242 1_555
Ho4 Te4 3.054978 1_555
Ho4 Te17 3.169150 1_555
Ho4 Te17 3.169150 1_455
Ho5 Te15 3.018804 1_655
Ho5 Te15 3.018804 1_555
Ho5 Te9 3.038242 1_555
Ho5 Te5 3.054978 1_555
Ho5 Te16 3.169150 1_655
Ho5 Te16 3.169150 1_555
Ho6 Te12 3.018804 1_555
Ho6 Te12 3.018804 1_655
Ho6 Te10 3.038242 1_555
Ho6 Te6 3.054978 1_555
Ho6 Te19 3.169150 1_655
Ho6 Te19 3.169150 1_555
Ho7 Te13 3.018804 1_555
Ho7 Te13 3.018804 1_455
Ho7 Te11 3.038242 1_555
Ho7 Te7 3.054978 1_555
Ho7 Te18 3.169150 1_455
Ho7 Te18 3.169150 1_555
Ho8 Te0 3.030602 1_555
Ho8 Te5 3.058968 1_455
Ho8 Te5 3.058968 1_555
Ho8 Te1 3.091700 1_555
Ho8 Te1 3.091700 1_455
Ho8 Te16 3.107173 1_555
Ho9 Te1 3.030602 1_555
Ho9 Te4 3.058968 1_655
Ho9 Te4 3.058968 1_555
Ho9 Te0 3.091700 1_555
Ho9 Te0 3.091700 1_655
Ho9 Te17 3.107173 1_555
Ho10 Te2 3.030602 1_554
Ho10 Te7 3.058968 1_655
Ho10 Te7 3.058968 1_555
Ho10 Te3 3.091700 1_565
Ho10 Te3 3.091700 1_665
Ho10 Te18 3.107173 1_555
Ho11 Te3 3.030602 1_556
Ho11 Te6 3.058968 1_455
Ho11 Te6 3.058968 1_555
Ho11 Te2 3.091700 1_445
Ho11 Te2 3.091700 1_545
Ho11 Te19 3.107173 1_555
