# generated using pymatgen
data_HoTiFe11C
_symmetry_space_group_name_H-M   'P 1'
_cell_length_a   4.84672400
_cell_length_b   6.48188192
_cell_length_c   6.48188192
_cell_angle_alpha   97.82073066
_cell_angle_beta   111.95430622
_cell_angle_gamma   68.04569378
_symmetry_Int_Tables_number   1
_chemical_formula_structural   HoTiFe11C
_chemical_formula_sum   'Ho1 Ti1 Fe11 C1'
_cell_volume   175.16920876
_cell_formula_units_Z   1
loop_
 _symmetry_equiv_pos_site_id
 _symmetry_equiv_pos_as_xyz
  1  'x, y, z'
loop_
 _atom_site_type_symbol
 _atom_site_label
 _atom_site_symmetry_multiplicity
 _atom_site_fract_x
 _atom_site_fract_y
 _atom_site_fract_z
 _atom_site_occupancy
  Ho  Ho0  1  0.00628100  0.99371900  0.00628100  1
  Ti  Ti0  1  0.63526300  0.36473700  0.63526300  1
  Fe  Fe0  1  0.72347300  0.77652700  0.22347300  1
  Fe  Fe1  1  0.27837700  0.22162300  0.77837700  1
  Fe  Fe2  1  0.49789000  0.78149300  0.77727300  1
  Fe  Fe3  1  0.49789000  0.22272700  0.21850700  1
  Fe  Fe4  1  0.50014800  0.99745100  0.49916900  1
  Fe  Fe5  1  0.00157000  0.99745100  0.49916900  1
  Fe  Fe6  1  0.50014800  0.50083100  0.00254900  1
  Fe  Fe7  1  0.00157000  0.50083100  0.00254900  1
  Fe  Fe8  1  0.35652700  0.64347300  0.35652700  1
  Fe  Fe9  1  0.99971200  0.35848700  0.35791200  1
  Fe  Fe10  1  0.99971200  0.64208800  0.64151300  1
  C  C0  1  0.50143800  0.99856200  0.00143800  1
loop_
_geom_bond_atom_site_label_1
_geom_bond_atom_site_label_2
_geom_bond_distance
_geom_bond_site_symmetry_2
Ho0 Ti0 3.147604 1_464
Fe0 Fe7 2.450834 1_655
Fe0 Fe6 2.450834 1_555
Fe0 Fe4 2.450834 1_555
Fe0 Fe5 2.450834 1_655
Fe0 Fe9 2.636635 1_555
Fe0 Fe10 2.636635 1_555
Fe1 Fe6 2.472467 1_556
Fe1 Fe4 2.472467 1_545
Fe1 Fe7 2.472467 1_556
Fe1 Fe5 2.472467 1_545
Fe1 Fe10 2.654938 1_455
Fe1 Fe9 2.654938 1_455
Fe1 Ti0 2.710500 1_555
Fe1 Ti0 2.710500 1_455
Fe2 Fe4 2.433523 1_555
Fe2 Fe5 2.433523 1_555
Fe2 Fe7 2.477500 1_656
Fe2 Fe6 2.477500 1_556
Fe2 Ti0 2.650405 1_555
Fe3 Fe6 2.433523 1_555
Fe3 Fe7 2.433523 1_555
Fe3 Fe5 2.477500 1_645
Fe3 Fe4 2.477500 1_545
Fe3 Ti0 2.650405 1_555
Fe3 Fe9 2.692037 1_555
Fe3 Fe9 2.692041 1_455
Fe4 Fe5 2.416470 1_555
Fe4 Fe5 2.430254 1_655
Fe4 Fe8 2.596062 1_555
Fe4 Fe9 2.622241 1_465
Fe4 Ti0 2.652740 1_565
Fe4 Ho0 3.200191 1_555
Fe4 Ho0 3.281897 1_656
Fe5 Fe8 2.596062 1_555
Fe5 Fe9 2.622239 1_465
Fe5 Ti0 2.652740 1_465
Fe5 Ho0 3.200191 1_555
Fe5 Ho0 3.281897 1_556
Fe6 Fe7 2.416470 1_555
Fe6 Fe7 2.430254 1_655
Fe6 Fe8 2.596062 1_555
Fe6 Fe9 2.599466 1_555
Fe6 Ti0 2.652740 1_554
Fe6 Ho0 3.200191 1_555
Fe6 Ho0 3.281897 1_645
Fe7 Fe8 2.596062 1_555
Fe7 Fe9 2.599468 1_455
Fe7 Ti0 2.652740 1_454
Fe7 Ho0 3.200191 1_555
Fe7 Ho0 3.281897 1_545
Fe8 Ti0 2.364711 1_555
Fe8 Fe9 2.967823 1_555
Fe8 Fe9 2.967827 1_455
Fe9 Ti0 2.941905 1_555
Fe9 Ti0 2.941909 1_655
Fe9 Ho0 3.052472 1_645
Fe10 Fe9 2.416363 1_555
Fe10 Fe4 2.599466 1_555
Fe10 Fe5 2.599468 1_655
Fe10 Fe7 2.622239 1_656
Fe10 Fe6 2.622241 1_656
Fe10 Fe2 2.692037 1_555
Fe10 Fe2 2.692041 1_655
Fe10 Ti0 2.941905 1_555
Fe10 Ti0 2.941909 1_655
Fe10 Fe8 2.967823 1_555
Fe10 Fe8 2.967827 1_655
Fe10 Ho0 3.052472 1_656
C0 Fe3 1.879962 1_565
C0 Fe2 1.879962 1_554
C0 Fe0 1.883677 1_555
C0 Fe1 1.892382 1_564
C0 Ho0 2.423710 1_555
C0 Ho0 2.423710 1_655
