# generated using pymatgen
data_Li4MnCo3O8
_symmetry_space_group_name_H-M   'P 1'
_cell_length_a   5.19324892
_cell_length_b   6.06919935
_cell_length_c   5.81713212
_cell_angle_alpha   59.31967123
_cell_angle_beta   108.40511240
_cell_angle_gamma   106.16886464
_symmetry_Int_Tables_number   1
_chemical_formula_structural   Li4MnCo3O8
_chemical_formula_sum   'Li4 Mn1 Co3 O8'
_cell_volume   148.06397510
_cell_formula_units_Z   1
loop_
 _symmetry_equiv_pos_site_id
 _symmetry_equiv_pos_as_xyz
  1  'x, y, z'
loop_
 _atom_site_type_symbol
 _atom_site_label
 _atom_site_symmetry_multiplicity
 _atom_site_fract_x
 _atom_site_fract_y
 _atom_site_fract_z
 _atom_site_occupancy
  Li  Li0  1  0.50292800  0.25354800  0.74998000  1
  Li  Li1  1  0.50006600  0.74641100  0.75317800  1
  Li  Li2  1  0.49707200  0.74645200  0.25002000  1
  Li  Li3  1  0.49993400  0.25358900  0.24682200  1
  Mn  Mn0  1  0.00000000  0.00000000  0.50000000  1
  Co  Co0  1  0.00000000  0.00000000  0.00000000  1
  Co  Co1  1  0.00000000  0.50000000  0.00000000  1
  Co  Co2  1  0.00000000  0.50000000  0.50000000  1
  O  O0  1  0.22834700  0.87415800  0.86597400  1
  O  O1  1  0.22812800  0.37290200  0.86169500  1
  O  O2  1  0.23652400  0.38942700  0.35605500  1
  O  O3  1  0.22515200  0.87848600  0.36562100  1
  O  O4  1  0.76347600  0.61057300  0.64394500  1
  O  O5  1  0.77484800  0.12151400  0.63437900  1
  O  O6  1  0.77165300  0.12584200  0.13402600  1
  O  O7  1  0.77187200  0.62709800  0.13830500  1
loop_
_geom_bond_atom_site_label_1
_geom_bond_atom_site_label_2
_geom_bond_distance
_geom_bond_site_symmetry_2
Li0 O6 2.099025 1_556
Li0 O4 2.106359 1_555
Li0 O2 2.133120 1_555
Li0 O1 2.150688 1_555
Li0 O5 2.206430 1_555
Li0 O0 2.232488 1_545
Li1 O7 2.110156 1_556
Li1 O3 2.127010 1_555
Li1 O4 2.160169 1_555
Li1 O0 2.176240 1_555
Li1 O1 2.202585 1_555
Li1 O5 2.214638 1_565
Li2 O0 2.099025 1_554
Li2 O2 2.106359 1_555
Li2 O4 2.133120 1_555
Li2 O7 2.150688 1_555
Li2 O3 2.206430 1_555
Li2 O6 2.232488 1_565
Li3 O1 2.110156 1_554
Li3 O5 2.127010 1_555
Li3 O2 2.160169 1_555
Li3 O6 2.176240 1_555
Li3 O7 2.202585 1_555
Li3 O3 2.214638 1_545
Mn0 O0 1.942372 1_545
Mn0 O6 1.942372 1_455
Mn0 O5 2.041542 1_455
Mn0 O3 2.041542 1_545
Mn0 O2 2.192962 1_555
Mn0 O4 2.192962 1_445
Co0 O5 1.934898 1_454
Co0 O3 1.934898 1_545
Co0 O6 2.072045 1_455
Co0 O0 2.072045 1_544
Co0 O1 2.103192 1_554
Co0 O7 2.103192 1_445
Co1 O2 1.919165 1_555
Co1 O4 1.919165 1_454
Co1 O7 2.095251 1_455
Co1 O1 2.095251 1_554
Co1 O0 2.109061 1_554
Co1 O6 2.109061 1_455
Co2 O1 1.924625 1_555
Co2 O7 1.924625 1_455
Co2 O4 2.083827 1_455
Co2 O2 2.083827 1_555
Co2 O5 2.122208 1_455
Co2 O3 2.122208 1_555
