# generated using pymatgen
data_RbLi2(H2N)3
_symmetry_space_group_name_H-M   'P 1'
_cell_length_a   7.15469494
_cell_length_b   7.15469494
_cell_length_c   5.39667500
_cell_angle_alpha   90.00000000
_cell_angle_beta   90.00000000
_cell_angle_gamma   103.45013356
_symmetry_Int_Tables_number   1
_chemical_formula_structural   RbLi2(H2N)3
_chemical_formula_sum   'Rb2 Li4 H12 N6'
_cell_volume   268.67706413
_cell_formula_units_Z   2
loop_
 _symmetry_equiv_pos_site_id
 _symmetry_equiv_pos_as_xyz
  1  'x, y, z'
loop_
 _atom_site_type_symbol
 _atom_site_label
 _atom_site_symmetry_multiplicity
 _atom_site_fract_x
 _atom_site_fract_y
 _atom_site_fract_z
 _atom_site_occupancy
  Rb  Rb0  1  0.20958700  0.79041300  0.75000000  1
  Rb  Rb1  1  0.79041300  0.20958700  0.25000000  1
  Li  Li0  1  0.64150500  0.64150500  0.00000000  1
  Li  Li1  1  0.64150500  0.64150500  0.50000000  1
  Li  Li2  1  0.35849500  0.35849500  0.00000000  1
  Li  Li3  1  0.35849500  0.35849500  0.50000000  1
  H  H0  1  0.56456300  0.25626800  0.75000000  1
  H  H1  1  0.25626800  0.56456300  0.25000000  1
  H  H2  1  0.43543700  0.74373200  0.25000000  1
  H  H3  1  0.74373200  0.43543700  0.75000000  1
  H  H4  1  0.81040400  0.94335800  0.75000000  1
  H  H5  1  0.94335800  0.81040400  0.25000000  1
  H  H6  1  0.18959600  0.05664200  0.25000000  1
  H  H7  1  0.05664200  0.18959600  0.75000000  1
  H  H8  1  0.59443200  0.96921300  0.75000000  1
  H  H9  1  0.96921300  0.59443200  0.25000000  1
  H  H10  1  0.40556800  0.03078700  0.25000000  1
  H  H11  1  0.03078700  0.40556800  0.75000000  1
  N  N0  1  0.59616700  0.40383300  0.75000000  1
  N  N1  1  0.40383300  0.59616700  0.25000000  1
  N  N2  1  0.67074900  0.86441700  0.75000000  1
  N  N3  1  0.86441700  0.67074900  0.25000000  1
  N  N4  1  0.32925100  0.13558300  0.25000000  1
  N  N5  1  0.13558300  0.32925100  0.75000000  1
loop_
_geom_bond_atom_site_label_1
_geom_bond_atom_site_label_2
_geom_bond_distance
_geom_bond_site_symmetry_2
Li0 N3 2.062135 1_555
Li0 N2 2.062135 1_554
Li0 N0 2.135527 1_554
Li0 N1 2.135527 1_555
Li1 N2 2.062135 1_555
Li1 N3 2.062135 1_555
Li1 N0 2.135527 1_555
Li1 N1 2.135527 1_555
Li2 N4 2.062135 1_555
Li2 N5 2.062135 1_554
Li2 N0 2.135527 1_554
Li2 N1 2.135527 1_555
Li3 N4 2.062135 1_555
Li3 N5 2.062135 1_555
Li3 N0 2.135527 1_555
Li3 N1 2.135527 1_555
H0 N0 1.027010 1_555
H1 N1 1.027010 1_555
H2 N1 1.027010 1_555
H3 N0 1.027010 1_555
H4 N2 1.027057 1_555
H5 N3 1.027057 1_555
H6 N4 1.027057 1_555
H7 N5 1.027057 1_555
H8 N2 1.025071 1_555
H8 Rb0 2.753068 1_555
H9 N3 1.025071 1_555
H9 Rb1 2.753068 1_555
H10 N4 1.025071 1_555
H10 Rb1 2.753068 1_555
H11 N5 1.025071 1_555
H11 Rb0 2.753068 1_555
