# generated using pymatgen
data_LaNb2CuBrO7
_symmetry_space_group_name_H-M   'P 1'
_cell_length_a   7.90204600
_cell_length_b   7.93239000
_cell_length_c   11.78493300
_cell_angle_alpha   90.00000000
_cell_angle_beta   90.00000000
_cell_angle_gamma   90.00000000
_symmetry_Int_Tables_number   1
_chemical_formula_structural   LaNb2CuBrO7
_chemical_formula_sum   'La4 Nb8 Cu4 Br4 O28'
_cell_volume   738.70447454
_cell_formula_units_Z   4
loop_
 _symmetry_equiv_pos_site_id
 _symmetry_equiv_pos_as_xyz
  1  'x, y, z'
loop_
 _atom_site_type_symbol
 _atom_site_label
 _atom_site_symmetry_multiplicity
 _atom_site_fract_x
 _atom_site_fract_y
 _atom_site_fract_z
 _atom_site_occupancy
  La  La0  1  0.00002300  0.23664600  0.00000000  1
  La  La1  1  0.99997700  0.76335400  0.00000000  1
  La  La2  1  0.50002300  0.26335400  0.00000000  1
  La  La3  1  0.49997700  0.73664600  0.00000000  1
  Nb  Nb0  1  0.75172100  0.50016000  0.18910700  1
  Nb  Nb1  1  0.24827900  0.49984000  0.18910700  1
  Nb  Nb2  1  0.25172100  0.99984000  0.81089300  1
  Nb  Nb3  1  0.74827900  0.00016000  0.81089300  1
  Nb  Nb4  1  0.24827900  0.49984000  0.81089300  1
  Nb  Nb5  1  0.75172100  0.50016000  0.81089300  1
  Nb  Nb6  1  0.74827900  0.00016000  0.18910700  1
  Nb  Nb7  1  0.25172100  0.99984000  0.18910700  1
  Cu  Cu0  1  0.77171800  0.49484600  0.50000000  1
  Cu  Cu1  1  0.22828200  0.50515400  0.50000000  1
  Cu  Cu2  1  0.27171800  0.00515400  0.50000000  1
  Cu  Cu3  1  0.72828200  0.99484600  0.50000000  1
  Br  Br0  1  0.94393300  0.22948900  0.50000000  1
  Br  Br1  1  0.05606700  0.77051100  0.50000000  1
  Br  Br2  1  0.44393300  0.27051100  0.50000000  1
  Br  Br3  1  0.55606700  0.72948900  0.50000000  1
  O  O0  1  0.00000000  0.50000000  0.13355300  1
  O  O1  1  0.50000000  0.00000000  0.86644700  1
  O  O2  1  0.00000000  0.50000000  0.86644700  1
  O  O3  1  0.50000000  0.00000000  0.13355300  1
  O  O4  1  0.50000000  0.50000000  0.18237900  1
  O  O5  1  0.00000000  0.00000000  0.81762100  1
  O  O6  1  0.50000000  0.50000000  0.81762100  1
  O  O7  1  0.00000000  0.00000000  0.18237900  1
  O  O8  1  0.74984200  0.25003100  0.15137900  1
  O  O9  1  0.25015800  0.74996900  0.15137900  1
  O  O10  1  0.24984200  0.24996900  0.84862100  1
  O  O11  1  0.75015800  0.75003100  0.84862100  1
  O  O12  1  0.25015800  0.74996900  0.84862100  1
  O  O13  1  0.74984200  0.25003100  0.84862100  1
  O  O14  1  0.75015800  0.75003100  0.15137900  1
  O  O15  1  0.24984200  0.24996900  0.15137900  1
  O  O16  1  0.69863400  0.49999400  0.00000000  1
  O  O17  1  0.30136600  0.50000600  0.00000000  1
  O  O18  1  0.19863400  0.00000600  0.00000000  1
  O  O19  1  0.80136600  0.99999400  0.00000000  1
  O  O20  1  0.77942900  0.49971300  0.34137100  1
  O  O21  1  0.22057100  0.50028700  0.34137100  1
  O  O22  1  0.27942900  0.00028700  0.65862900  1
  O  O23  1  0.72057100  0.99971300  0.65862900  1
  O  O24  1  0.22057100  0.50028700  0.65862900  1
  O  O25  1  0.77942900  0.49971300  0.65862900  1
  O  O26  1  0.72057100  0.99971300  0.34137100  1
  O  O27  1  0.27942900  0.00028700  0.34137100  1
loop_
_geom_bond_atom_site_label_1
_geom_bond_atom_site_label_2
_geom_bond_distance
_geom_bond_site_symmetry_2
La0 O18 2.446774 1_555
La0 O19 2.447080 1_445
La0 O2 2.615575 1_554
La0 O0 2.615575 1_555
La0 O15 2.662854 1_555
La0 O10 2.662854 1_554
La0 O8 2.664995 1_455
La0 O13 2.664995 1_454
La0 O7 2.853657 1_555
La0 O5 2.853657 1_554
La0 O17 3.167723 1_555
La0 O16 3.167934 1_455
La1 O19 2.446774 1_555
La1 O18 2.447080 1_665
La1 O2 2.615575 1_654
La1 O0 2.615575 1_655
La1 O14 2.662854 1_555
La1 O11 2.662854 1_554
La1 O9 2.664995 1_655
La1 O12 2.664995 1_654
La1 O7 2.853657 1_665
La1 O5 2.853657 1_664
La1 O16 3.167723 1_555
La1 O17 3.167934 1_655
La2 O16 2.446774 1_555
La2 O17 2.447080 1_555
La2 O3 2.615575 1_555
La2 O1 2.615575 1_554
La2 O8 2.662854 1_555
La2 O13 2.662854 1_554
La2 O15 2.664995 1_555
La2 O10 2.664995 1_554
La2 O4 2.853657 1_555
La2 O6 2.853657 1_554
La2 O19 3.167723 1_545
La2 O18 3.167934 1_555
La3 O17 2.446774 1_555
La3 O16 2.447080 1_555
La3 O3 2.615575 1_565
La3 O1 2.615575 1_564
La3 O9 2.662854 1_555
La3 O12 2.662854 1_554
La3 O14 2.664995 1_555
La3 O11 2.664995 1_554
La3 O4 2.853657 1_555
La3 O6 2.853657 1_554
La3 O18 3.167723 1_565
La3 O19 3.167934 1_555
Nb0 O20 1.807733 1_555
Nb0 O4 1.990691 1_555
Nb0 O14 2.031369 1_555
Nb0 O8 2.033383 1_555
Nb0 O0 2.068268 1_655
Nb0 O16 2.267751 1_555
Nb1 O21 1.807733 1_555
Nb1 O4 1.990691 1_555
Nb1 O15 2.031369 1_555
Nb1 O9 2.033383 1_555
Nb1 O0 2.068268 1_555
Nb1 O17 2.267751 1_555
Nb2 O22 1.807733 1_565
Nb2 O5 1.990691 1_565
Nb2 O12 2.031369 1_555
Nb2 O10 2.033383 1_565
Nb2 O1 2.068268 1_565
Nb2 O18 2.267751 1_566
Nb3 O23 1.807733 1_545
Nb3 O5 1.990691 1_655
Nb3 O13 2.031369 1_555
Nb3 O11 2.033383 1_545
Nb3 O1 2.068268 1_555
Nb3 O19 2.267751 1_546
Nb4 O24 1.807733 1_555
Nb4 O6 1.990691 1_555
Nb4 O10 2.031369 1_555
Nb4 O12 2.033383 1_555
Nb4 O2 2.068268 1_555
Nb4 O17 2.267751 1_556
Nb5 O25 1.807733 1_555
Nb5 O6 1.990691 1_555
Nb5 O11 2.031369 1_555
Nb5 O13 2.033383 1_555
Nb5 O2 2.068268 1_655
Nb5 O16 2.267751 1_556
Nb6 O26 1.807733 1_545
Nb6 O7 1.990691 1_655
Nb6 O8 2.031369 1_555
Nb6 O14 2.033383 1_545
Nb6 O3 2.068268 1_555
Nb6 O19 2.267751 1_545
Nb7 O27 1.807733 1_565
Nb7 O7 1.990691 1_565
Nb7 O9 2.031369 1_555
Nb7 O15 2.033383 1_565
Nb7 O3 2.068268 1_565
Nb7 O18 2.267751 1_565
Cu0 O20 1.870823 1_555
Cu0 O25 1.870823 1_555
Cu1 O24 1.870823 1_555
Cu1 O21 1.870823 1_555
Cu2 O22 1.870823 1_555
Cu2 O27 1.870823 1_555
Cu3 O26 1.870823 1_555
Cu3 O23 1.870823 1_555
Br0 Cu0 2.506508 1_555
Br0 Cu3 2.523542 1_545
Br0 Cu1 3.135333 1_655
Br0 Cu2 3.142556 1_655
Br1 Cu1 2.506508 1_555
Br1 Cu2 2.523542 1_565
Br1 Cu0 3.135333 1_455
Br1 Cu3 3.142556 1_455
Br2 Cu2 2.506508 1_555
Br2 Cu1 2.523542 1_555
Br2 Cu3 3.135333 1_545
Br2 Cu0 3.142556 1_555
Br3 Cu3 2.506508 1_555
Br3 Cu0 2.523542 1_555
Br3 Cu2 3.135333 1_565
Br3 Cu1 3.142556 1_555
