# generated using pymatgen
data_Eu2Si5Pt3
_symmetry_space_group_name_H-M   'P 1'
_cell_length_a   8.36855962
_cell_length_b   8.36855962
_cell_length_c   8.36855962
_cell_angle_alpha   137.33728956
_cell_angle_beta   105.07061576
_cell_angle_gamma   90.26555925
_symmetry_Int_Tables_number   1
_chemical_formula_structural   Eu2Si5Pt3
_chemical_formula_sum   'Eu4 Si10 Pt6'
_cell_volume   365.93391603
_cell_formula_units_Z   2
loop_
 _symmetry_equiv_pos_site_id
 _symmetry_equiv_pos_as_xyz
  1  'x, y, z'
loop_
 _atom_site_type_symbol
 _atom_site_label
 _atom_site_symmetry_multiplicity
 _atom_site_fract_x
 _atom_site_fract_y
 _atom_site_fract_z
 _atom_site_occupancy
  Eu  Eu0  1  0.10400900  0.87064500  0.23336400  1
  Eu  Eu1  1  0.89599100  0.12935500  0.76663600  1
  Eu  Eu2  1  0.63728100  0.37064500  0.26663600  1
  Eu  Eu3  1  0.36271900  0.62935500  0.73336400  1
  Si  Si0  1  0.00000000  0.75000000  0.75000000  1
  Si  Si1  1  0.00000000  0.25000000  0.25000000  1
  Si  Si2  1  0.27013500  0.02013500  0.75000000  1
  Si  Si3  1  0.72986500  0.47986500  0.75000000  1
  Si  Si4  1  0.72986500  0.97986500  0.25000000  1
  Si  Si5  1  0.27013500  0.52013500  0.25000000  1
  Si  Si6  1  0.76075300  0.61167400  0.14907900  1
  Si  Si7  1  0.23924700  0.38832600  0.85092100  1
  Si  Si8  1  0.46259500  0.11167400  0.35092100  1
  Si  Si9  1  0.53740500  0.88832600  0.64907900  1
  Pt  Pt0  1  0.50000000  0.75000000  0.25000000  1
  Pt  Pt1  1  0.50000000  0.25000000  0.75000000  1
  Pt  Pt2  1  0.02332000  0.63565600  0.38766400  1
  Pt  Pt3  1  0.97668000  0.36434400  0.61233600  1
  Pt  Pt4  1  0.24799200  0.13565600  0.11233600  1
  Pt  Pt5  1  0.75200800  0.86434400  0.88766400  1
loop_
_geom_bond_atom_site_label_1
_geom_bond_atom_site_label_2
_geom_bond_distance
_geom_bond_site_symmetry_2
Eu0 Si8 3.087355 1_565
Eu0 Si6 3.175910 1_455
Eu0 Pt2 3.188453 1_555
Eu0 Si1 3.208432 1_565
Eu0 Si0 3.208432 1_554
Eu0 Si4 3.274800 1_455
Eu0 Si3 3.274800 1_454
Eu0 Si7 3.277627 1_565
Eu0 Si7 3.277627 1_554
Eu0 Pt3 3.284908 1_465
Eu0 Pt3 3.284908 1_454
Eu0 Si2 3.330753 1_565
Eu0 Si5 3.330753 1_555
Eu0 Pt4 3.362965 1_565
Eu0 Pt1 3.466743 1_565
Eu0 Pt0 3.466743 1_555
Eu0 Pt5 3.520264 1_454
Eu1 Si9 3.087355 1_545
Eu1 Si7 3.175910 1_655
Eu1 Pt3 3.188453 1_555
Eu1 Si1 3.208432 1_656
Eu1 Si0 3.208432 1_645
Eu1 Si5 3.274800 1_656
Eu1 Si2 3.274800 1_655
Eu1 Si6 3.277627 1_556
Eu1 Si6 3.277627 1_545
Eu1 Pt2 3.284908 1_656
Eu1 Pt2 3.284908 1_645
Eu1 Si3 3.330753 1_555
Eu1 Si4 3.330753 1_545
Eu1 Pt5 3.362965 1_545
Eu1 Pt0 3.466743 1_545
Eu1 Pt1 3.466743 1_555
Eu1 Pt4 3.520264 1_656
Eu2 Si6 3.087355 1_555
Eu2 Si8 3.175910 1_555
Eu2 Pt4 3.188453 1_555
Eu2 Si0 3.208432 1_655
Eu2 Si1 3.208432 1_655
Eu2 Si3 3.274800 1_555
Eu2 Si4 3.274800 1_545
Eu2 Si9 3.277627 1_555
Eu2 Si9 3.277627 1_544
Eu2 Pt5 3.284908 1_555
Eu2 Pt5 3.284908 1_544
Eu2 Si2 3.330753 1_554
Eu2 Si5 3.330753 1_555
Eu2 Pt2 3.362965 1_655
Eu2 Pt0 3.466743 1_555
Eu2 Pt1 3.466743 1_554
Eu2 Pt3 3.520264 1_555
Eu3 Si7 3.087355 1_555
Eu3 Si9 3.175910 1_555
Eu3 Pt5 3.188453 1_555
Eu3 Si0 3.208432 1_555
Eu3 Si1 3.208432 1_555
Eu3 Si2 3.274800 1_565
Eu3 Si5 3.274800 1_555
Eu3 Si8 3.277627 1_566
Eu3 Si8 3.277627 1_555
Eu3 Pt4 3.284908 1_566
Eu3 Pt4 3.284908 1_555
Eu3 Si4 3.330753 1_556
Eu3 Si3 3.330753 1_555
Eu3 Pt3 3.362965 1_455
Eu3 Pt0 3.466743 1_556
Eu3 Pt1 3.466743 1_555
Eu3 Pt2 3.520264 1_555
Si2 Si9 2.562764 1_545
Si2 Si7 2.562764 1_555
Si3 Si8 2.562764 1_555
Si3 Si6 2.562764 1_556
Si4 Si8 2.562764 1_565
Si4 Si6 2.562764 1_555
Si5 Si9 2.562764 1_555
Si5 Si7 2.562764 1_554
Pt0 Si9 2.521687 1_555
Pt0 Si8 2.521687 1_565
Pt0 Si7 2.521687 1_554
Pt0 Si6 2.521687 1_555
Pt0 Si4 2.714125 1_555
Pt0 Si5 2.714125 1_555
Pt1 Si6 2.521687 1_556
Pt1 Si7 2.521687 1_555
Pt1 Si8 2.521687 1_555
Pt1 Si9 2.521687 1_545
Pt1 Si3 2.714125 1_555
Pt1 Si2 2.714125 1_555
Pt2 Si6 2.445419 1_455
Pt2 Si5 2.479108 1_555
Pt2 Si2 2.479108 1_565
Pt2 Si1 2.488032 1_555
Pt2 Si0 2.488032 1_555
Pt3 Si7 2.445419 1_655
Pt3 Si4 2.479108 1_545
Pt3 Si3 2.479108 1_555
Pt3 Si1 2.488032 1_655
Pt3 Si0 2.488032 1_655
Pt4 Si8 2.445419 1_555
Pt4 Si2 2.479108 1_554
Pt4 Si5 2.479108 1_555
Pt4 Si0 2.488032 1_544
Pt4 Si1 2.488032 1_555
Pt5 Si9 2.445419 1_555
Pt5 Si3 2.479108 1_555
Pt5 Si4 2.479108 1_556
Pt5 Si1 2.488032 1_666
Pt5 Si0 2.488032 1_655
