# generated using pymatgen
data_CaBi2Br2O3
_symmetry_space_group_name_H-M   'P 1'
_cell_length_a   4.05872400
_cell_length_b   4.05872400
_cell_length_c   21.20787600
_cell_angle_alpha   90.00000000
_cell_angle_beta   90.00000000
_cell_angle_gamma   90.00000000
_symmetry_Int_Tables_number   1
_chemical_formula_structural   CaBi2Br2O3
_chemical_formula_sum   'Ca2 Bi4 Br4 O6'
_cell_volume   349.36244202
_cell_formula_units_Z   2
loop_
 _symmetry_equiv_pos_site_id
 _symmetry_equiv_pos_as_xyz
  1  'x, y, z'
loop_
 _atom_site_type_symbol
 _atom_site_label
 _atom_site_symmetry_multiplicity
 _atom_site_fract_x
 _atom_site_fract_y
 _atom_site_fract_z
 _atom_site_occupancy
  Ca  Ca0  1  0.00000000  0.50000000  0.26403800  1
  Ca  Ca1  1  0.50000000  0.00000000  0.73596200  1
  Bi  Bi0  1  0.00000000  0.50000000  0.05637900  1
  Bi  Bi1  1  0.50000000  0.00000000  0.94362100  1
  Bi  Bi2  1  0.00000000  0.50000000  0.63887900  1
  Bi  Bi3  1  0.50000000  0.00000000  0.36112100  1
  Br  Br0  1  0.00000000  0.50000000  0.43968400  1
  Br  Br1  1  0.50000000  0.00000000  0.56031600  1
  Br  Br2  1  0.00000000  0.50000000  0.86318800  1
  Br  Br3  1  0.50000000  0.00000000  0.13681200  1
  O  O0  1  0.50000000  0.50000000  0.30574000  1
  O  O1  1  0.00000000  0.00000000  0.69426000  1
  O  O2  1  0.50000000  0.50000000  0.69426000  1
  O  O3  1  0.00000000  0.00000000  0.30574000  1
  O  O4  1  0.50000000  0.50000000  0.00000000  1
  O  O5  1  0.00000000  0.00000000  0.00000000  1
loop_
_geom_bond_atom_site_label_1
_geom_bond_atom_site_label_2
_geom_bond_distance
_geom_bond_site_symmetry_2
Ca0 O0 2.213706 1_555
Ca0 O3 2.213706 1_565
Ca0 O0 2.213706 1_455
Ca0 O3 2.213706 1_555
Ca1 O1 2.213706 1_655
Ca1 O2 2.213706 1_545
Ca1 O1 2.213706 1_555
Ca1 O2 2.213706 1_555
Bi0 O5 2.355410 1_555
Bi0 O4 2.355410 1_455
Bi0 O5 2.355410 1_565
Bi0 O4 2.355410 1_555
Bi0 Br3 3.338625 1_465
Bi0 Br3 3.338625 1_555
Bi0 Br3 3.338625 1_565
Bi0 Br3 3.338625 1_455
Bi1 O4 2.355410 1_556
Bi1 O5 2.355410 1_556
Bi1 O4 2.355410 1_546
Bi1 O5 2.355410 1_656
Bi1 Br2 3.338625 1_555
Bi1 Br2 3.338625 1_655
Bi1 Br2 3.338625 1_545
Bi1 Br2 3.338625 1_645
Bi2 O1 2.344737 1_565
Bi2 O2 2.344737 1_455
Bi2 O2 2.344737 1_555
Bi2 O1 2.344737 1_555
Bi2 Br1 3.318537 1_455
Bi2 Br1 3.318537 1_465
Bi2 Br1 3.318537 1_565
Bi2 Br1 3.318537 1_555
Bi3 O0 2.344737 1_545
Bi3 O3 2.344737 1_655
Bi3 O3 2.344737 1_555
Bi3 O0 2.344737 1_555
Bi3 Br0 3.318537 1_545
Bi3 Br0 3.318537 1_555
Bi3 Br0 3.318537 1_655
Bi3 Br0 3.318537 1_645
