# generated using pymatgen
data_Sn3Te2Se
_symmetry_space_group_name_H-M   'P 1'
_cell_length_a   4.42834856
_cell_length_b   4.42834856
_cell_length_c   10.79260030
_cell_angle_alpha   90.00000000
_cell_angle_beta   90.00000000
_cell_angle_gamma   120.00000591
_symmetry_Int_Tables_number   1
_chemical_formula_structural   Sn3Te2Se
_chemical_formula_sum   'Sn3 Te2 Se1'
_cell_volume   183.29064227
_cell_formula_units_Z   1
loop_
 _symmetry_equiv_pos_site_id
 _symmetry_equiv_pos_as_xyz
  1  'x, y, z'
loop_
 _atom_site_type_symbol
 _atom_site_label
 _atom_site_symmetry_multiplicity
 _atom_site_fract_x
 _atom_site_fract_y
 _atom_site_fract_z
 _atom_site_occupancy
  Sn  Sn0  1  0.00000000  -0.00000000  0.50000000  1
  Sn  Sn1  1  0.33333300  0.66666700  0.15174809  1
  Sn  Sn2  1  0.66666700  0.33333300  0.84825191  1
  Te  Te0  1  0.33333300  0.66666700  0.67419140  1
  Te  Te1  1  0.66666700  0.33333300  0.32580860  1
  Se  Se0  1  0.00000000  -0.00000000  -0.00000000  1
loop_
_geom_bond_atom_site_label_1
_geom_bond_atom_site_label_2
_geom_bond_distance
_geom_bond_site_symmetry_2
Sn0 Te1 3.173494 1_455
Sn0 Te0 3.173494 1_545
Sn0 Te0 3.173497 1_555
Sn0 Te1 3.173497 1_555
Sn0 Te0 3.173497 1_445
Sn0 Te1 3.173497 1_445
Sn1 Te1 3.172657 1_455
Sn1 Te1 3.172657 1_565
Sn1 Te1 3.172663 1_555
Sn2 Te0 3.172657 1_545
Sn2 Te0 3.172657 1_655
Sn2 Te0 3.172663 1_555
Se0 Sn1 3.036279 1_545
Se0 Sn2 3.036279 1_454
Se0 Sn1 3.036282 1_555
Se0 Sn2 3.036282 1_444
Se0 Sn1 3.036282 1_445
Se0 Sn2 3.036282 1_554
