# generated using pymatgen
data_K2Hg3S4
_symmetry_space_group_name_H-M   'P 1'
_cell_length_a   6.63257560
_cell_length_b   10.66202014
_cell_length_c   13.74525221
_cell_angle_alpha   90.00000000
_cell_angle_beta   90.00000000
_cell_angle_gamma   90.00000000
_symmetry_Int_Tables_number   1
_chemical_formula_structural   K2Hg3S4
_chemical_formula_sum   'K8 Hg12 S16'
_cell_volume   972.01825330
_cell_formula_units_Z   4
loop_
 _symmetry_equiv_pos_site_id
 _symmetry_equiv_pos_as_xyz
  1  'x, y, z'
loop_
 _atom_site_type_symbol
 _atom_site_label
 _atom_site_symmetry_multiplicity
 _atom_site_fract_x
 _atom_site_fract_y
 _atom_site_fract_z
 _atom_site_occupancy
  K  K0  1  0.73552940  0.88017652  0.50138004  1
  K  K1  1  0.26447060  0.11982348  0.49861996  1
  K  K2  1  0.76447060  0.61982348  0.00138004  1
  K  K3  1  0.73552940  0.11982348  0.99861996  1
  K  K4  1  0.23552940  0.38017652  0.99861996  1
  K  K5  1  0.26447060  0.88017652  0.00138004  1
  K  K6  1  0.76447060  0.38017652  0.49861996  1
  K  K7  1  0.23552940  0.61982348  0.50138004  1
  Hg  Hg0  1  0.58734510  0.50000000  0.75000000  1
  Hg  Hg1  1  0.41265490  0.50000000  0.25000000  1
  Hg  Hg2  1  0.91265490  -0.00000000  0.25000000  1
  Hg  Hg3  1  0.08734510  -0.00000000  0.75000000  1
  Hg  Hg4  1  0.58891486  0.84474823  0.75847810  1
  Hg  Hg5  1  0.41108514  0.15525177  0.24152190  1
  Hg  Hg6  1  0.91108514  0.65525177  0.25847810  1
  Hg  Hg7  1  0.58891486  0.15525177  0.74152190  1
  Hg  Hg8  1  0.08891486  0.34474823  0.74152190  1
  Hg  Hg9  1  0.41108514  0.84474823  0.25847810  1
  Hg  Hg10  1  0.91108514  0.34474823  0.24152190  1
  Hg  Hg11  1  0.08891486  0.65525177  0.75847810  1
  S  S0  1  0.82935118  0.63293737  0.64001080  1
  S  S1  1  0.17064882  0.36706263  0.35998920  1
  S  S2  1  0.67064882  0.86706263  0.14001080  1
  S  S3  1  0.82935118  0.36706263  0.85998920  1
  S  S4  1  0.32935118  0.13293737  0.85998920  1
  S  S5  1  0.17064882  0.63293737  0.14001080  1
  S  S6  1  0.67064882  0.13293737  0.35998920  1
  S  S7  1  0.32935118  0.86706263  0.64001080  1
  S  S8  1  0.86340776  0.87114267  0.86889270  1
  S  S9  1  0.13659224  0.12885733  0.13110730  1
  S  S10  1  0.63659224  0.62885733  0.36889270  1
  S  S11  1  0.86340776  0.12885733  0.63110730  1
  S  S12  1  0.36340776  0.37114267  0.63110730  1
  S  S13  1  0.13659224  0.87114267  0.36889270  1
  S  S14  1  0.63659224  0.37114267  0.13110730  1
  S  S15  1  0.36340776  0.62885733  0.86889270  1
loop_
_geom_bond_atom_site_label_1
_geom_bond_atom_site_label_2
_geom_bond_distance
_geom_bond_site_symmetry_2
K0 S13 3.225152 1_655
K0 S7 3.302759 1_555
K0 S10 3.305603 1_555
K0 S11 3.305916 1_565
K0 S0 3.311658 1_555
K0 S6 3.350358 1_565
K1 S11 3.225152 1_455
K1 S6 3.302759 1_555
K1 S12 3.305603 1_555
K1 S13 3.305916 1_545
K1 S1 3.311658 1_555
K1 S7 3.350358 1_545
K2 S15 3.225152 1_554
K2 S5 3.302759 1_655
K2 S8 3.305603 1_554
K2 S14 3.305916 1_555
K2 S2 3.311658 1_555
K2 S3 3.350358 1_554
K3 S9 3.225152 1_656
K3 S4 3.302759 1_555
K3 S14 3.305603 1_556
K3 S8 3.305916 1_545
K3 S3 3.311658 1_555
K3 S2 3.350358 1_546
K4 S14 3.225152 1_556
K4 S3 3.302759 1_455
K4 S9 3.305603 1_556
K4 S15 3.305916 1_555
K4 S4 3.311658 1_555
K4 S5 3.350358 1_556
K5 S8 3.225152 1_454
K5 S2 3.302759 1_555
K5 S15 3.305603 1_554
K5 S9 3.305916 1_565
K5 S5 3.311658 1_555
K5 S4 3.350358 1_564
K6 S12 3.225152 1_555
K6 S1 3.302759 1_655
K6 S11 3.305603 1_555
K6 S10 3.305916 1_555
K6 S6 3.311658 1_555
K6 S0 3.350358 1_555
K7 S10 3.225152 1_555
K7 S0 3.302759 1_455
K7 S13 3.305603 1_555
K7 S12 3.305916 1_555
K7 S7 3.311658 1_555
K7 S1 3.350358 1_555
Hg0 S12 2.600817 1_555
Hg0 S15 2.600817 1_555
Hg0 S3 2.621263 1_555
Hg0 S0 2.621263 1_555
Hg1 S10 2.600817 1_555
Hg1 S14 2.600817 1_555
Hg1 S5 2.621263 1_555
Hg1 S1 2.621263 1_555
Hg2 S13 2.600817 1_645
Hg2 S9 2.600817 1_655
Hg2 S6 2.621263 1_555
Hg2 S2 2.621263 1_545
Hg3 S8 2.600817 1_445
Hg3 S11 2.600817 1_455
Hg3 S4 2.621263 1_555
Hg3 S7 2.621263 1_545
Hg4 S7 2.381595 1_555
Hg4 S8 2.386861 1_555
Hg5 S6 2.381595 1_555
Hg5 S9 2.386861 1_555
Hg6 S5 2.381595 1_655
Hg6 S10 2.386861 1_555
Hg7 S4 2.381595 1_555
Hg7 S11 2.386861 1_555
Hg8 S3 2.381595 1_455
Hg8 S12 2.386861 1_555
Hg9 S2 2.381595 1_555
Hg9 S13 2.386861 1_555
Hg10 S1 2.381595 1_655
Hg10 S14 2.386861 1_555
Hg11 S0 2.381595 1_455
Hg11 S15 2.386861 1_555
