# generated using pymatgen
data_Np3Si2
_symmetry_space_group_name_H-M   'P 1'
_cell_length_a   7.03957200
_cell_length_b   7.03957200
_cell_length_c   3.84480600
_cell_angle_alpha   90.00000000
_cell_angle_beta   90.00000000
_cell_angle_gamma   90.00000000
_symmetry_Int_Tables_number   1
_chemical_formula_structural   Np3Si2
_chemical_formula_sum   'Np6 Si4'
_cell_volume   190.53156803
_cell_formula_units_Z   2
loop_
 _symmetry_equiv_pos_site_id
 _symmetry_equiv_pos_as_xyz
  1  'x, y, z'
loop_
 _atom_site_type_symbol
 _atom_site_label
 _atom_site_symmetry_multiplicity
 _atom_site_fract_x
 _atom_site_fract_y
 _atom_site_fract_z
 _atom_site_occupancy
  Np  Np0  1  0.50000000  0.50000000  0.00000000  1
  Np  Np1  1  0.00000000  0.00000000  0.00000000  1
  Np  Np2  1  0.68421700  0.18421700  0.50000000  1
  Np  Np3  1  0.31578300  0.81578300  0.50000000  1
  Np  Np4  1  0.18421700  0.31578300  0.50000000  1
  Np  Np5  1  0.81578300  0.68421700  0.50000000  1
  Si  Si0  1  0.11635100  0.61635100  0.00000000  1
  Si  Si1  1  0.88364900  0.38364900  0.00000000  1
  Si  Si2  1  0.61635100  0.88364900  0.00000000  1
  Si  Si3  1  0.38364900  0.11635100  0.00000000  1
loop_
_geom_bond_atom_site_label_1
_geom_bond_atom_site_label_2
_geom_bond_distance
_geom_bond_site_symmetry_2
Np0 Si2 2.822193 1_555
Np0 Si1 2.822193 1_555
Np0 Si0 2.822193 1_555
Np0 Si3 2.822193 1_555
Np1 Si3 2.822193 1_555
Np1 Si1 2.822193 1_455
Np1 Si0 2.822193 1_545
Np1 Si2 2.822193 1_445
Np2 Si1 2.763620 1_556
Np2 Si1 2.763620 1_555
Np2 Si2 2.898410 1_546
Np2 Si3 2.898410 1_555
Np2 Si3 2.898410 1_556
Np2 Si2 2.898410 1_545
Np3 Si0 2.763620 1_556
Np3 Si0 2.763620 1_555
Np3 Si2 2.898410 1_555
Np3 Si2 2.898410 1_556
Np3 Si3 2.898410 1_566
Np3 Si3 2.898410 1_565
Np4 Si3 2.763620 1_555
Np4 Si3 2.763620 1_556
Np4 Si0 2.898410 1_556
Np4 Si0 2.898410 1_555
Np4 Si1 2.898410 1_456
Np4 Si1 2.898410 1_455
Np5 Si2 2.763620 1_556
Np5 Si2 2.763620 1_555
Np5 Si1 2.898410 1_555
Np5 Si1 2.898410 1_556
Np5 Si0 2.898410 1_655
Np5 Si0 2.898410 1_656
Si0 Si1 2.316655 1_455
Si2 Si3 2.316655 1_565
