# generated using pymatgen
data_Ba3LaIr2O9
_symmetry_space_group_name_H-M   'P 1'
_cell_length_a   6.02557386
_cell_length_b   6.02557386
_cell_length_c   15.16903700
_cell_angle_alpha   90.00000000
_cell_angle_beta   90.00000000
_cell_angle_gamma   119.99999851
_symmetry_Int_Tables_number   1
_chemical_formula_structural   Ba3LaIr2O9
_chemical_formula_sum   'Ba6 La2 Ir4 O18'
_cell_volume   476.96386519
_cell_formula_units_Z   2
loop_
 _symmetry_equiv_pos_site_id
 _symmetry_equiv_pos_as_xyz
  1  'x, y, z'
loop_
 _atom_site_type_symbol
 _atom_site_label
 _atom_site_symmetry_multiplicity
 _atom_site_fract_x
 _atom_site_fract_y
 _atom_site_fract_z
 _atom_site_occupancy
  Ba  Ba0  1  0.00000000  0.00000000  0.75000000  1
  Ba  Ba1  1  0.00000000  0.00000000  0.25000000  1
  Ba  Ba2  1  0.66666700  0.33333300  0.60259200  1
  Ba  Ba3  1  0.33333300  0.66666700  0.39740800  1
  Ba  Ba4  1  0.33333300  0.66666700  0.10259200  1
  Ba  Ba5  1  0.66666700  0.33333300  0.89740800  1
  La  La0  1  0.00000000  0.00000000  0.50000000  1
  La  La1  1  0.00000000  0.00000000  0.00000000  1
  Ir  Ir0  1  0.66666700  0.33333300  0.33331600  1
  Ir  Ir1  1  0.33333300  0.66666700  0.66668400  1
  Ir  Ir2  1  0.33333300  0.66666700  0.83331600  1
  Ir  Ir3  1  0.66666700  0.33333300  0.16668400  1
  O  O0  1  0.01867300  0.50933600  0.75000000  1
  O  O1  1  0.49066400  0.50933600  0.75000000  1
  O  O2  1  0.49066400  0.98132700  0.75000000  1
  O  O3  1  0.98132700  0.49066400  0.25000000  1
  O  O4  1  0.50933600  0.49066400  0.25000000  1
  O  O5  1  0.50933600  0.01867300  0.25000000  1
  O  O6  1  0.17890600  0.35781100  0.59241600  1
  O  O7  1  0.64218900  0.82109400  0.59241600  1
  O  O8  1  0.17890600  0.82109400  0.59241600  1
  O  O9  1  0.82109400  0.64218900  0.40758400  1
  O  O10  1  0.35781100  0.17890600  0.40758400  1
  O  O11  1  0.82109400  0.17890600  0.40758400  1
  O  O12  1  0.82109400  0.64218900  0.09241600  1
  O  O13  1  0.35781100  0.17890600  0.09241600  1
  O  O14  1  0.82109400  0.17890600  0.09241600  1
  O  O15  1  0.17890600  0.35781100  0.90758400  1
  O  O16  1  0.64218900  0.82109400  0.90758400  1
  O  O17  1  0.17890600  0.82109400  0.90758400  1
loop_
_geom_bond_atom_site_label_1
_geom_bond_atom_site_label_2
_geom_bond_distance
_geom_bond_site_symmetry_2
Ba0 O2 3.014359 1_445
Ba0 O0 3.014359 1_555
Ba0 O1 3.014362 1_555
Ba0 O1 3.014362 1_445
Ba0 O0 3.014365 1_545
Ba0 O2 3.014365 1_545
Ba0 O6 3.033201 1_555
Ba0 O16 3.033201 1_445
Ba0 O7 3.033201 1_445
Ba0 O15 3.033201 1_555
Ba0 O17 3.033204 1_545
Ba0 O8 3.033204 1_545
Ba1 O3 3.014359 1_445
Ba1 O5 3.014359 1_555
Ba1 O4 3.014362 1_555
Ba1 O4 3.014362 1_445
Ba1 O5 3.014365 1_455
Ba1 O3 3.014365 1_455
Ba1 O12 3.033201 1_445
Ba1 O13 3.033201 1_555
Ba1 O9 3.033201 1_445
Ba1 O10 3.033201 1_555
Ba1 O11 3.033204 1_455
Ba1 O14 3.033204 1_455
Ba2 O1 2.893780 1_555
Ba2 O0 2.893780 1_655
Ba2 O2 2.893780 1_545
Ba2 O6 3.019442 1_555
Ba2 O7 3.019442 1_555
Ba2 O7 3.019442 1_545
Ba2 O6 3.019442 1_655
Ba2 O8 3.019442 1_655
Ba2 O8 3.019442 1_545
Ba2 O11 3.368651 1_555
Ba2 O10 3.368656 1_555
Ba2 O9 3.368656 1_555
Ba3 O4 2.893780 1_555
Ba3 O5 2.893780 1_565
Ba3 O3 2.893780 1_455
Ba3 O9 3.019442 1_555
Ba3 O10 3.019442 1_555
Ba3 O10 3.019442 1_565
Ba3 O9 3.019442 1_455
Ba3 O11 3.019442 1_565
Ba3 O11 3.019442 1_455
Ba3 O8 3.368651 1_555
Ba3 O6 3.368656 1_555
Ba3 O7 3.368656 1_555
Ba4 O4 2.893780 1_555
Ba4 O5 2.893780 1_565
Ba4 O3 2.893780 1_455
Ba4 O12 3.019442 1_555
Ba4 O13 3.019442 1_555
Ba4 O12 3.019442 1_455
Ba4 O13 3.019442 1_565
Ba4 O14 3.019442 1_565
Ba4 O14 3.019442 1_455
Ba4 O17 3.368651 1_554
Ba4 O15 3.368656 1_554
Ba4 O16 3.368656 1_554
Ba5 O1 2.893780 1_555
Ba5 O0 2.893780 1_655
Ba5 O2 2.893780 1_545
Ba5 O16 3.019442 1_555
Ba5 O15 3.019442 1_555
Ba5 O16 3.019442 1_545
Ba5 O15 3.019442 1_655
Ba5 O17 3.019442 1_655
Ba5 O17 3.019442 1_545
Ba5 O14 3.368651 1_556
Ba5 O12 3.368656 1_556
Ba5 O13 3.368656 1_556
La0 O10 2.334849 1_555
La0 O9 2.334849 1_445
La0 O6 2.334849 1_555
La0 O7 2.334849 1_445
La0 O11 2.334854 1_455
La0 O8 2.334854 1_545
La1 O12 2.334849 1_445
La1 O13 2.334849 1_555
La1 O16 2.334849 1_444
La1 O15 2.334849 1_554
La1 O14 2.334854 1_455
La1 O17 2.334854 1_544
Ir0 O11 1.966398 1_555
Ir0 O9 1.966407 1_555
Ir0 O10 1.966407 1_555
Ir0 O3 2.072048 1_555
Ir0 O5 2.072048 1_555
Ir0 O4 2.072056 1_555
Ir1 O8 1.966398 1_555
Ir1 O6 1.966407 1_555
Ir1 O7 1.966407 1_555
Ir1 O2 2.072048 1_555
Ir1 O0 2.072048 1_555
Ir1 O1 2.072056 1_555
Ir2 O17 1.966398 1_555
Ir2 O15 1.966407 1_555
Ir2 O16 1.966407 1_555
Ir2 O2 2.072048 1_555
Ir2 O0 2.072048 1_555
Ir2 O1 2.072056 1_555
Ir3 O14 1.966398 1_555
Ir3 O12 1.966407 1_555
Ir3 O13 1.966407 1_555
Ir3 O3 2.072048 1_555
Ir3 O5 2.072048 1_555
Ir3 O4 2.072056 1_555
