# generated using pymatgen
data_SrLiTi4CrO11
_symmetry_space_group_name_H-M   'P 1'
_cell_length_a   5.86114565
_cell_length_b   10.00468209
_cell_length_c   13.98079817
_cell_angle_alpha   90.00000000
_cell_angle_beta   90.00000000
_cell_angle_gamma   90.00000000
_symmetry_Int_Tables_number   1
_chemical_formula_structural   SrLiTi4CrO11
_chemical_formula_sum   'Sr4 Li4 Ti16 Cr4 O44'
_cell_volume   819.81861059
_cell_formula_units_Z   4
loop_
 _symmetry_equiv_pos_site_id
 _symmetry_equiv_pos_as_xyz
  1  'x, y, z'
loop_
 _atom_site_type_symbol
 _atom_site_label
 _atom_site_symmetry_multiplicity
 _atom_site_fract_x
 _atom_site_fract_y
 _atom_site_fract_z
 _atom_site_occupancy
  Sr  Sr0  1  0.25000000  0.10497625  0.09168320  1
  Sr  Sr1  1  0.25000000  0.39502375  0.59168320  1
  Sr  Sr2  1  0.75000000  0.60497625  0.40831680  1
  Sr  Sr3  1  0.75000000  0.89502375  0.90831680  1
  Li  Li0  1  0.25000000  0.07974636  0.54460379  1
  Li  Li1  1  0.25000000  0.42025364  0.04460379  1
  Li  Li2  1  0.75000000  0.92025364  0.45539621  1
  Li  Li3  1  0.75000000  0.57974636  0.95539621  1
  Ti  Ti0  1  0.99961468  0.66897178  0.17105608  1
  Ti  Ti1  1  0.99961468  0.83102822  0.67105608  1
  Ti  Ti2  1  0.25000000  0.06017353  0.83486041  1
  Ti  Ti3  1  0.25000000  0.61036823  0.83720653  1
  Ti  Ti4  1  0.25000000  0.88963177  0.33720653  1
  Ti  Ti5  1  0.25000000  0.43982647  0.33486041  1
  Ti  Ti6  1  0.50038532  0.66897178  0.17105608  1
  Ti  Ti7  1  0.50038532  0.83102822  0.67105608  1
  Ti  Ti8  1  0.49961468  0.16897178  0.32894392  1
  Ti  Ti9  1  0.49961468  0.33102822  0.82894392  1
  Ti  Ti10  1  0.75000000  0.11036823  0.66279347  1
  Ti  Ti11  1  0.75000000  0.38963177  0.16279347  1
  Ti  Ti12  1  0.75000000  0.56017353  0.66513959  1
  Ti  Ti13  1  0.75000000  0.93982647  0.16513959  1
  Ti  Ti14  1  0.00038532  0.16897178  0.32894392  1
  Ti  Ti15  1  0.00038532  0.33102822  0.82894392  1
  Cr  Cr0  1  0.25000000  0.76804467  0.00241862  1
  Cr  Cr1  1  0.25000000  0.73195533  0.50241862  1
  Cr  Cr2  1  0.75000000  0.23195533  0.99758138  1
  Cr  Cr3  1  0.75000000  0.26804467  0.49758138  1
  O  O0  1  0.99845681  0.49343483  0.74423972  1
  O  O1  1  0.99845681  0.00656517  0.24423972  1
  O  O2  1  0.00962916  0.32564245  0.41106913  1
  O  O3  1  0.00962916  0.17435755  0.91106913  1
  O  O4  1  0.02476370  0.81726994  0.41241055  1
  O  O5  1  0.02476370  0.68273006  0.91241055  1
  O  O6  1  0.25000000  0.74679172  0.24451838  1
  O  O7  1  0.25000000  0.24587604  0.76058485  1
  O  O8  1  0.25000000  0.25412396  0.26058485  1
  O  O9  1  0.25000000  0.60553083  0.08838704  1
  O  O10  1  0.25000000  0.75320828  0.74451838  1
  O  O11  1  0.25000000  0.89446917  0.58838704  1
  O  O12  1  0.25000000  0.94074482  0.93260405  1
  O  O13  1  0.25000000  0.42716893  0.89736555  1
  O  O14  1  0.25000000  0.55925518  0.43260405  1
  O  O15  1  0.25000000  0.07283107  0.39736555  1
  O  O16  1  0.47523630  0.81726994  0.41241055  1
  O  O17  1  0.47523630  0.68273006  0.91241055  1
  O  O18  1  0.49037084  0.32564245  0.41106913  1
  O  O19  1  0.49037084  0.17435755  0.91106913  1
  O  O20  1  0.50154319  0.00656517  0.24423972  1
  O  O21  1  0.50154319  0.49343483  0.74423972  1
  O  O22  1  0.49845681  0.50656517  0.25576028  1
  O  O23  1  0.49845681  0.99343483  0.75576028  1
  O  O24  1  0.50962916  0.82564245  0.08893087  1
  O  O25  1  0.50962916  0.67435755  0.58893087  1
  O  O26  1  0.52476370  0.31726994  0.08758945  1
  O  O27  1  0.52476370  0.18273006  0.58758945  1
  O  O28  1  0.75000000  0.57283107  0.10263445  1
  O  O29  1  0.75000000  0.75412396  0.23941515  1
  O  O30  1  0.75000000  0.05925518  0.06739595  1
  O  O31  1  0.75000000  0.10553083  0.41161296  1
  O  O32  1  0.75000000  0.24679172  0.25548162  1
  O  O33  1  0.75000000  0.25320828  0.75548162  1
  O  O34  1  0.75000000  0.39446917  0.91161296  1
  O  O35  1  0.75000000  0.44074482  0.56739595  1
  O  O36  1  0.75000000  0.74587604  0.73941515  1
  O  O37  1  0.75000000  0.92716893  0.60263445  1
  O  O38  1  0.97523630  0.18273006  0.58758945  1
  O  O39  1  0.97523630  0.31726994  0.08758945  1
  O  O40  1  0.99037084  0.67435755  0.58893087  1
  O  O41  1  0.99037084  0.82564245  0.08893087  1
  O  O42  1  0.00154319  0.99343483  0.75576028  1
  O  O43  1  0.00154319  0.50656517  0.25576028  1
loop_
_geom_bond_atom_site_label_1
_geom_bond_atom_site_label_2
_geom_bond_distance
_geom_bond_site_symmetry_2
Li0 O11 1.952095 1_545
Li0 O27 2.004049 1_555
Li0 O38 2.004049 1_455
Li0 O15 2.059670 1_555
Li1 O9 1.952095 1_555
Li1 O26 2.004049 1_555
Li1 O39 2.004049 1_455
Li1 O13 2.059670 1_554
Li2 O31 1.952095 1_565
Li2 O16 2.004049 1_555
Li2 O4 2.004049 1_655
Li2 O37 2.059670 1_555
Li3 O34 1.952095 1_555
Li3 O17 2.004049 1_555
Li3 O5 2.004049 1_655
Li3 O28 2.059670 1_556
Cr0 O12 1.984446 1_554
Cr0 O5 2.013666 1_554
Cr0 O17 2.013666 1_554
Cr0 O9 2.021912 1_555
Cr0 O41 2.027467 1_455
Cr0 O24 2.027467 1_555
Cr1 O14 1.984446 1_555
Cr1 O4 2.013666 1_555
Cr1 O16 2.013666 1_555
Cr1 O11 2.021912 1_555
Cr1 O40 2.027467 1_455
Cr1 O25 2.027467 1_555
Cr2 O30 1.984446 1_556
Cr2 O39 2.013666 1_556
Cr2 O26 2.013666 1_556
Cr2 O34 2.021912 1_555
Cr2 O19 2.027467 1_555
Cr2 O3 2.027467 1_655
Cr3 O35 1.984446 1_555
Cr3 O38 2.013666 1_555
Cr3 O27 2.013666 1_555
Cr3 O31 2.021912 1_555
Cr3 O18 2.027467 1_555
Cr3 O2 2.027467 1_655
O0 Ti12 1.946648 1_555
O0 Ti15 2.010621 1_655
O0 Ti3 2.287275 1_655
O0 Sr1 2.773470 1_655
O1 Ti13 1.946648 1_545
O1 Ti14 2.010621 1_655
O1 Ti4 2.287275 1_645
O1 Sr0 2.773470 1_655
O2 Ti14 1.943737 1_555
O2 Ti5 2.103587 1_555
O2 Sr1 2.973711 1_555
O2 Sr2 3.182322 1_455
O3 Ti15 1.943737 1_555
O3 Ti2 2.103587 1_555
O3 Sr0 2.973711 1_556
O3 Sr3 3.182322 1_445
O4 Ti4 1.836398 1_555
O4 Sr2 2.666054 1_455
O5 Ti3 1.836398 1_555
O5 Sr3 2.666054 1_455
O6 Ti4 1.929113 1_555
O6 Ti0 1.953127 1_455
O6 Ti6 1.953127 1_555
O7 Ti15 1.944122 1_555
O7 Ti9 1.944122 1_555
O7 Ti2 2.128406 1_555
O7 Sr1 2.793332 1_555
O8 Ti14 1.944122 1_555
O8 Ti8 1.944122 1_555
O8 Ti5 2.128406 1_555
O8 Sr0 2.793332 1_555
O9 Ti6 1.972908 1_555
O9 Ti0 1.972908 1_455
O10 Ti3 1.929113 1_555
O10 Ti1 1.953127 1_455
O10 Ti7 1.953127 1_555
O11 Ti7 1.972908 1_555
O11 Ti1 1.972908 1_455
O12 Ti2 1.815234 1_565
O12 Sr0 2.765165 1_566
O12 Sr3 2.985430 1_555
O12 Sr3 2.985430 1_455
O13 Ti15 1.995165 1_555
O13 Ti9 1.995165 1_555
O13 Ti3 2.016617 1_555
O14 Ti5 1.815234 1_555
O14 Sr1 2.765165 1_555
O14 Sr2 2.985430 1_555
O14 Sr2 2.985430 1_455
O15 Ti8 1.995165 1_555
O15 Ti14 1.995165 1_555
O15 Ti4 2.016617 1_545
O16 Ti4 1.836398 1_555
O16 Sr2 2.666054 1_555
O17 Ti3 1.836398 1_555
O17 Sr3 2.666054 1_555
O18 Ti8 1.943737 1_555
O18 Ti5 2.103587 1_555
O18 Sr1 2.973711 1_555
O18 Sr2 3.182322 1_555
O19 Ti9 1.943737 1_555
O19 Ti2 2.103587 1_555
O19 Sr0 2.973711 1_556
O19 Sr3 3.182322 1_545
O20 Ti13 1.946648 1_545
O20 Ti8 2.010621 1_555
O20 Ti4 2.287275 1_545
O20 Sr0 2.773470 1_555
O21 Ti12 1.946648 1_555
O21 Ti9 2.010621 1_555
O21 Ti3 2.287275 1_555
O21 Sr1 2.773470 1_555
O22 Ti5 1.946648 1_555
O22 Ti6 2.010621 1_555
O22 Ti11 2.287275 1_555
O22 Sr2 2.773470 1_555
O23 Ti2 1.946648 1_565
O23 Ti7 2.010621 1_555
O23 Ti10 2.287275 1_565
O23 Sr3 2.773470 1_555
O24 Ti6 1.943737 1_555
O24 Ti13 2.103587 1_555
O24 Sr3 2.973711 1_554
O24 Sr0 3.182322 1_565
O25 Ti7 1.943737 1_555
O25 Ti12 2.103587 1_555
O25 Sr2 2.973711 1_555
O25 Sr1 3.182322 1_555
O26 Ti11 1.836398 1_555
O26 Sr0 2.666054 1_555
O27 Ti10 1.836398 1_555
O27 Sr1 2.666054 1_555
O28 Ti6 1.995165 1_555
O28 Ti0 1.995165 1_555
O28 Ti11 2.016617 1_555
O29 Ti6 1.944122 1_555
O29 Ti0 1.944122 1_555
O29 Ti13 2.128406 1_555
O29 Sr2 2.793332 1_555
O30 Ti13 1.815234 1_545
O30 Sr3 2.765165 1_544
O30 Sr0 2.985430 1_655
O30 Sr0 2.985430 1_555
O31 Ti14 1.972908 1_655
O31 Ti8 1.972908 1_555
O32 Ti11 1.929113 1_555
O32 Ti14 1.953127 1_655
O32 Ti8 1.953127 1_555
O33 Ti10 1.929113 1_555
O33 Ti9 1.953127 1_555
O33 Ti15 1.953127 1_655
O34 Ti15 1.972908 1_655
O34 Ti9 1.972908 1_555
O35 Ti12 1.815234 1_555
O35 Sr2 2.765165 1_555
O35 Sr1 2.985430 1_655
O35 Sr1 2.985430 1_555
O36 Ti7 1.944122 1_555
O36 Ti1 1.944122 1_555
O36 Ti12 2.128406 1_555
O36 Sr3 2.793332 1_555
O37 Ti7 1.995165 1_555
O37 Ti1 1.995165 1_555
O37 Ti10 2.016617 1_565
O38 Ti10 1.836398 1_555
O38 Sr1 2.666054 1_655
O39 Ti11 1.836398 1_555
O39 Sr0 2.666054 1_655
O40 Ti1 1.943737 1_555
O40 Ti12 2.103587 1_555
O40 Sr2 2.973711 1_555
O40 Sr1 3.182322 1_655
O41 Ti0 1.943737 1_555
O41 Ti13 2.103587 1_555
O41 Sr3 2.973711 1_554
O41 Sr0 3.182322 1_665
O42 Ti2 1.946648 1_565
O42 Ti1 2.010621 1_455
O42 Ti10 2.287275 1_465
O42 Sr3 2.773470 1_455
O43 Ti5 1.946648 1_555
O43 Ti0 2.010621 1_455
O43 Ti11 2.287275 1_455
O43 Sr2 2.773470 1_455
