# generated using pymatgen
data_VGaN2
_symmetry_space_group_name_H-M   'P 1'
_cell_length_a   5.61060300
_cell_length_b   6.50771100
_cell_length_c   5.20212600
_cell_angle_alpha   90.00000000
_cell_angle_beta   90.00000000
_cell_angle_gamma   90.00000000
_symmetry_Int_Tables_number   1
_chemical_formula_structural   VGaN2
_chemical_formula_sum   'V4 Ga4 N8'
_cell_volume   189.94097577
_cell_formula_units_Z   4
loop_
 _symmetry_equiv_pos_site_id
 _symmetry_equiv_pos_as_xyz
  1  'x, y, z'
loop_
 _atom_site_type_symbol
 _atom_site_label
 _atom_site_symmetry_multiplicity
 _atom_site_fract_x
 _atom_site_fract_y
 _atom_site_fract_z
 _atom_site_occupancy
  V  V0  1  0.57772000  0.87596900  0.99799400  1
  V  V1  1  0.42228000  0.12403100  0.49799400  1
  V  V2  1  0.92228000  0.37596900  0.49799400  1
  V  V3  1  0.07772000  0.62403100  0.99799400  1
  Ga  Ga0  1  0.58561500  0.37635700  0.00469100  1
  Ga  Ga1  1  0.41438500  0.62364300  0.50469100  1
  Ga  Ga2  1  0.91438500  0.87635700  0.50469100  1
  Ga  Ga3  1  0.08561500  0.12364300  0.00469100  1
  N  N0  1  0.58593900  0.37634800  0.38638300  1
  N  N1  1  0.41406100  0.62365200  0.88638300  1
  N  N2  1  0.91406100  0.87634800  0.88638300  1
  N  N3  1  0.08593900  0.12365200  0.38638300  1
  N  N4  1  0.58301800  0.87091300  0.38093200  1
  N  N5  1  0.41698200  0.12908700  0.88093200  1
  N  N6  1  0.91698200  0.37091300  0.88093200  1
  N  N7  1  0.08301800  0.62908700  0.38093200  1
loop_
_geom_bond_atom_site_label_1
_geom_bond_atom_site_label_2
_geom_bond_distance
_geom_bond_site_symmetry_2
Ga0 N6 1.967804 1_554
Ga0 N1 1.973615 1_554
Ga0 N5 1.974604 1_554
Ga0 N0 1.985611 1_555
Ga1 N7 1.967804 1_555
Ga1 N0 1.973615 1_555
Ga1 N4 1.974604 1_555
Ga1 N1 1.985611 1_555
Ga2 N4 1.967804 1_555
Ga2 N3 1.973615 1_665
Ga2 N7 1.974604 1_655
Ga2 N2 1.985611 1_555
Ga3 N5 1.967804 1_554
Ga3 N2 1.973615 1_444
Ga3 N6 1.974604 1_454
Ga3 N3 1.985611 1_555
N0 V1 1.968867 1_555
N0 V2 1.974380 1_555
N1 V0 1.968867 1_555
N1 V3 1.974380 1_555
N2 V3 1.968867 1_655
N2 V0 1.974380 1_555
N3 V2 1.968867 1_455
N3 V1 1.974380 1_555
N4 V1 1.974205 1_565
N4 V0 1.992585 1_554
N5 V0 1.974205 1_545
N5 V1 1.992585 1_555
N6 V3 1.974205 1_655
N6 V2 1.992585 1_555
N7 V2 1.974205 1_455
N7 V3 1.992585 1_554
