# generated using pymatgen
data_Pr(HoS2)3
_symmetry_space_group_name_H-M   'P 1'
_cell_length_a   3.97859229
_cell_length_b   11.04225961
_cell_length_c   11.31220719
_cell_angle_alpha   71.17148320
_cell_angle_beta   90.00000000
_cell_angle_gamma   90.00000000
_symmetry_Int_Tables_number   1
_chemical_formula_structural   Pr(HoS2)3
_chemical_formula_sum   'Pr2 Ho6 S12'
_cell_volume   470.38146045
_cell_formula_units_Z   2
loop_
 _symmetry_equiv_pos_site_id
 _symmetry_equiv_pos_as_xyz
  1  'x, y, z'
loop_
 _atom_site_type_symbol
 _atom_site_label
 _atom_site_symmetry_multiplicity
 _atom_site_fract_x
 _atom_site_fract_y
 _atom_site_fract_z
 _atom_site_occupancy
  Pr  Pr0  1  0.75000000  0.54941119  0.80482650  1
  Pr  Pr1  1  0.25000000  0.45058881  0.19517350  1
  Ho  Ho0  1  0.75000000  0.17941781  0.99821374  1
  Ho  Ho1  1  0.25000000  0.82058219  0.00178626  1
  Ho  Ho2  1  0.75000000  0.94167312  0.66702135  1
  Ho  Ho3  1  0.25000000  0.05832688  0.33297865  1
  Ho  Ho4  1  0.75000000  0.66160893  0.41265386  1
  Ho  Ho5  1  0.25000000  0.33839107  0.58734614  1
  S  S0  1  0.75000000  0.97774840  0.88824458  1
  S  S1  1  0.25000000  0.02225160  0.11175542  1
  S  S2  1  0.75000000  0.30275485  0.74875641  1
  S  S3  1  0.25000000  0.69724515  0.25124359  1
  S  S4  1  0.75000000  0.89458982  0.44144154  1
  S  S5  1  0.25000000  0.10541018  0.55855846  1
  S  S6  1  0.75000000  0.41807595  0.40721237  1
  S  S7  1  0.25000000  0.58192405  0.59278763  1
  S  S8  1  0.75000000  0.23365345  0.22825370  1
  S  S9  1  0.25000000  0.76634655  0.77174630  1
  S  S10  1  0.75000000  0.61944786  0.03647958  1
  S  S11  1  0.25000000  0.38055214  0.96352042  1
loop_
_geom_bond_atom_site_label_1
_geom_bond_atom_site_label_2
_geom_bond_distance
_geom_bond_site_symmetry_2
Pr0 S11 2.914802 1_555
Pr0 S11 2.914802 1_655
Pr0 S10 2.961971 1_556
Pr0 S2 2.989251 1_555
Pr0 S9 3.042522 1_555
Pr0 S9 3.042522 1_655
Pr0 S7 3.046926 1_555
Pr0 S7 3.046926 1_655
Pr1 S10 2.914802 1_555
Pr1 S10 2.914802 1_455
Pr1 S11 2.961971 1_554
Pr1 S3 2.989251 1_555
Pr1 S8 3.042522 1_555
Pr1 S8 3.042522 1_455
Pr1 S6 3.046926 1_455
Pr1 S6 3.046926 1_555
Ho0 S1 2.679564 1_556
Ho0 S1 2.679564 1_656
Ho0 S2 2.708749 1_555
Ho0 S8 2.852430 1_556
Ho0 S0 2.880044 1_545
Ho0 S11 2.912292 1_655
Ho0 S11 2.912292 1_555
Ho1 S0 2.679564 1_454
Ho1 S0 2.679564 1_554
Ho1 S3 2.708749 1_555
Ho1 S9 2.852430 1_554
Ho1 S1 2.880044 1_565
Ho1 S10 2.912292 1_555
Ho1 S10 2.912292 1_455
Ho2 S0 2.657964 1_555
Ho2 S5 2.701811 1_665
Ho2 S5 2.701811 1_565
Ho2 S9 2.761962 1_555
Ho2 S9 2.761962 1_655
Ho2 S4 2.763759 1_555
Ho3 S1 2.657964 1_555
Ho3 S4 2.701811 1_445
Ho3 S4 2.701811 1_545
Ho3 S8 2.761962 1_555
Ho3 S8 2.761962 1_455
Ho3 S5 2.763759 1_555
Ho4 S3 2.642405 1_555
Ho4 S3 2.642405 1_655
Ho4 S4 2.695417 1_555
Ho4 S6 2.709647 1_555
Ho4 S7 2.779652 1_555
Ho4 S7 2.779652 1_655
Ho5 S2 2.642405 1_455
Ho5 S2 2.642405 1_555
Ho5 S5 2.695417 1_555
Ho5 S7 2.709647 1_555
Ho5 S6 2.779652 1_555
Ho5 S6 2.779652 1_455
