# generated using pymatgen
data_HfTiW4
_symmetry_space_group_name_H-M   'P 1'
_cell_length_a   5.34686712
_cell_length_b   5.34686712
_cell_length_c   5.34686712
_cell_angle_alpha   60.00000000
_cell_angle_beta   60.00000000
_cell_angle_gamma   60.00000000
_symmetry_Int_Tables_number   1
_chemical_formula_structural   HfTiW4
_chemical_formula_sum   'Hf1 Ti1 W4'
_cell_volume   108.08941744
_cell_formula_units_Z   1
loop_
 _symmetry_equiv_pos_site_id
 _symmetry_equiv_pos_as_xyz
  1  'x, y, z'
loop_
 _atom_site_type_symbol
 _atom_site_label
 _atom_site_symmetry_multiplicity
 _atom_site_fract_x
 _atom_site_fract_y
 _atom_site_fract_z
 _atom_site_occupancy
  Hf  Hf0  1  0.25000000  0.25000000  0.25000000  1
  Ti  Ti0  1  0.00000000  0.00000000  0.00000000  1
  W  W0  1  0.62503600  0.62503600  0.12489300  1
  W  W1  1  0.62503600  0.12489300  0.62503600  1
  W  W2  1  0.12489300  0.62503600  0.62503600  1
  W  W3  1  0.62503600  0.62503600  0.62503600  1
loop_
_geom_bond_atom_site_label_1
_geom_bond_atom_site_label_2
_geom_bond_distance
_geom_bond_site_symmetry_2
Hf0 W1 3.134959 1_554
Hf0 W2 3.134959 1_554
Hf0 W0 3.134959 1_545
Hf0 W0 3.134959 1_455
Hf0 W2 3.134959 1_545
Hf0 W1 3.134959 1_455
Hf0 W3 3.134961 1_554
Hf0 W3 3.134961 1_455
Hf0 W3 3.134961 1_545
Hf0 W2 3.134963 1_555
Hf0 W0 3.134963 1_555
Hf0 W1 3.134963 1_555
Hf0 Ti0 3.274274 1_555
Hf0 Ti0 3.274274 1_556
Hf0 Ti0 3.274274 1_655
Hf0 Ti0 3.274274 1_565
Ti0 W1 3.134794 1_454
Ti0 W2 3.134794 1_544
Ti0 W0 3.134794 1_445
Ti0 W3 3.134797 1_544
Ti0 W3 3.134797 1_454
Ti0 W3 3.134797 1_445
Ti0 W1 3.134799 1_554
Ti0 W2 3.134799 1_554
Ti0 W0 3.134799 1_545
Ti0 W0 3.134799 1_455
Ti0 W2 3.134799 1_545
Ti0 W1 3.134799 1_455
W0 W3 2.672669 1_554
W0 W1 2.672669 1_564
W0 W2 2.672669 1_654
W0 W2 2.674198 1_555
W0 W1 2.674198 1_555
W0 W3 2.674198 1_555
W1 W3 2.672669 1_545
W1 W2 2.672669 1_645
W1 W2 2.674198 1_555
W1 W3 2.674198 1_555
W2 W3 2.672669 1_455
W2 W3 2.674198 1_555
