# generated using pymatgen
data_Pr4(SiS4)3
_symmetry_space_group_name_H-M   'P 1'
_cell_length_a   11.45063326
_cell_length_b   11.45063326
_cell_length_c   11.45063269
_cell_angle_alpha   114.73475048
_cell_angle_beta   114.73475048
_cell_angle_gamma   114.73474962
_symmetry_Int_Tables_number   1
_chemical_formula_structural   Pr4(SiS4)3
_chemical_formula_sum   'Pr8 Si6 S24'
_cell_volume   860.21076292
_cell_formula_units_Z   2
loop_
 _symmetry_equiv_pos_site_id
 _symmetry_equiv_pos_as_xyz
  1  'x, y, z'
loop_
 _atom_site_type_symbol
 _atom_site_label
 _atom_site_symmetry_multiplicity
 _atom_site_fract_x
 _atom_site_fract_y
 _atom_site_fract_z
 _atom_site_occupancy
  Pr  Pr0  1  0.50298770  0.50298770  0.50298770  1
  Pr  Pr1  1  0.00298770  0.00298770  0.00298770  1
  Pr  Pr2  1  0.06775207  0.29294074  0.52827929  1
  Pr  Pr3  1  0.29294074  0.52827929  0.06775207  1
  Pr  Pr4  1  0.52827929  0.06775207  0.29294074  1
  Pr  Pr5  1  0.56775207  0.02827929  0.79294074  1
  Pr  Pr6  1  0.02827929  0.79294074  0.56775207  1
  Pr  Pr7  1  0.79294074  0.56775207  0.02827929  1
  Si  Si0  1  0.36060754  0.14723673  0.53240909  1
  Si  Si1  1  0.14723673  0.53240909  0.36060754  1
  Si  Si2  1  0.53240909  0.36060754  0.14723673  1
  Si  Si3  1  0.86060754  0.03240909  0.64723673  1
  Si  Si4  1  0.03240909  0.64723673  0.86060754  1
  Si  Si5  1  0.64723673  0.86060754  0.03240909  1
  S  S0  1  0.10636155  0.17999742  0.71506394  1
  S  S1  1  0.17999742  0.71506394  0.10636155  1
  S  S2  1  0.71506394  0.10636155  0.17999742  1
  S  S3  1  0.60636155  0.21506394  0.67999742  1
  S  S4  1  0.21506394  0.67999742  0.60636155  1
  S  S5  1  0.67999742  0.60636155  0.21506394  1
  S  S6  1  0.31358524  0.12756936  0.31890235  1
  S  S7  1  0.12756936  0.31890235  0.31358524  1
  S  S8  1  0.31890235  0.31358524  0.12756936  1
  S  S9  1  0.81358524  0.81890235  0.62756936  1
  S  S10  1  0.81890235  0.62756936  0.81358524  1
  S  S11  1  0.62756936  0.81358524  0.81890235  1
  S  S12  1  0.41270728  0.37741608  0.69725001  1
  S  S13  1  0.37741608  0.69725001  0.41270728  1
  S  S14  1  0.69725001  0.41270728  0.37741608  1
  S  S15  1  0.91270728  0.19725001  0.87741608  1
  S  S16  1  0.19725001  0.87741608  0.91270728  1
  S  S17  1  0.87741608  0.91270728  0.19725001  1
  S  S18  1  0.65528090  0.92271878  0.38793691  1
  S  S19  1  0.92271878  0.38793691  0.65528090  1
  S  S20  1  0.38793691  0.65528090  0.92271878  1
  S  S21  1  0.15528090  0.88793691  0.42271878  1
  S  S22  1  0.88793691  0.42271878  0.15528090  1
  S  S23  1  0.42271878  0.15528090  0.88793691  1
loop_
_geom_bond_atom_site_label_1
_geom_bond_atom_site_label_2
_geom_bond_distance
_geom_bond_site_symmetry_2
Pr0 S8 2.901014 1_555
Pr0 S7 2.901014 1_555
Pr0 S6 2.901014 1_555
Pr0 S11 2.905045 1_555
Pr0 S10 2.905045 1_555
Pr0 S9 2.905045 1_555
Pr0 S12 3.382491 1_555
Pr0 S14 3.382492 1_555
Pr0 S13 3.382492 1_555
Pr1 S9 2.901014 1_444
Pr1 S10 2.901014 1_444
Pr1 S11 2.901014 1_444
Pr1 S6 2.905045 1_555
Pr1 S7 2.905045 1_555
Pr1 S8 2.905045 1_555
Pr1 S17 3.382491 1_445
Pr1 S15 3.382492 1_454
Pr1 S16 3.382492 1_544
Pr2 S19 2.874904 1_455
Pr2 S0 2.905925 1_555
Pr2 S7 2.907140 1_555
Pr2 S20 2.964285 1_555
Pr2 S2 2.991696 1_455
Pr2 S12 3.020318 1_555
Pr2 S17 3.067498 1_445
Pr2 S4 3.528932 1_555
Pr3 S20 2.874904 1_554
Pr3 S1 2.905925 1_555
Pr3 S8 2.907140 1_555
Pr3 S18 2.964285 1_555
Pr3 S0 2.991696 1_554
Pr3 S13 3.020318 1_555
Pr3 S15 3.067498 1_454
Pr3 S5 3.528932 1_555
Pr4 S18 2.874904 1_545
Pr4 S2 2.905925 1_555
Pr4 S6 2.907140 1_555
Pr4 S19 2.964285 1_555
Pr4 S1 2.991697 1_545
Pr4 S14 3.020318 1_555
Pr4 S16 3.067498 1_544
Pr4 S3 3.528932 1_555
Pr5 S23 2.874904 1_555
Pr5 S3 2.905925 1_555
Pr5 S11 2.907140 1_545
Pr5 S22 2.964285 1_556
Pr5 S4 2.991697 1_545
Pr5 S15 3.020318 1_555
Pr5 S13 3.067498 1_545
Pr5 S2 3.528932 1_556
Pr6 S21 2.874904 1_555
Pr6 S4 2.905925 1_555
Pr6 S9 2.907140 1_455
Pr6 S23 2.964285 1_565
Pr6 S5 2.991696 1_455
Pr6 S16 3.020318 1_555
Pr6 S14 3.067498 1_455
Pr6 S0 3.528932 1_565
Pr7 S22 2.874904 1_555
Pr7 S5 2.905925 1_555
Pr7 S10 2.907140 1_554
Pr7 S21 2.964285 1_655
Pr7 S3 2.991696 1_554
Pr7 S17 3.020318 1_555
Pr7 S12 3.067498 1_554
Pr7 S1 3.528932 1_655
S0 Si3 2.114473 1_455
S1 Si4 2.114472 1_554
S2 Si5 2.114473 1_545
S3 Si0 2.114473 1_555
S4 Si1 2.114472 1_555
S5 Si2 2.114473 1_555
S6 Si0 2.157272 1_555
S7 Si1 2.157272 1_555
S8 Si2 2.157272 1_555
S9 Si3 2.157272 1_565
S10 Si4 2.157272 1_655
S11 Si5 2.157272 1_556
S12 Si0 2.108128 1_555
S13 Si1 2.108128 1_555
S14 Si2 2.108127 1_555
S15 Si3 2.108127 1_555
S16 Si4 2.108128 1_555
S17 Si5 2.108128 1_555
S18 Si3 2.118333 1_565
S19 Si4 2.118333 1_655
S20 Si5 2.118333 1_556
S21 Si0 2.118333 1_565
S22 Si1 2.118333 1_655
S23 Si2 2.118333 1_556
