# generated using pymatgen
data_Sr3Ti3N5
_symmetry_space_group_name_H-M   'P 1'
_cell_length_a   5.97162598
_cell_length_b   7.95057763
_cell_length_c   8.70384614
_cell_angle_alpha   109.80010596
_cell_angle_beta   103.93880581
_cell_angle_gamma   101.53716988
_symmetry_Int_Tables_number   1
_chemical_formula_structural   Sr3Ti3N5
_chemical_formula_sum   'Sr6 Ti6 N10'
_cell_volume   358.96955475
_cell_formula_units_Z   2
loop_
 _symmetry_equiv_pos_site_id
 _symmetry_equiv_pos_as_xyz
  1  'x, y, z'
loop_
 _atom_site_type_symbol
 _atom_site_label
 _atom_site_symmetry_multiplicity
 _atom_site_fract_x
 _atom_site_fract_y
 _atom_site_fract_z
 _atom_site_occupancy
  Sr  Sr0  1  0.74983300  0.43391200  0.59681400  1
  Sr  Sr1  1  0.25016700  0.56608800  0.40318600  1
  Sr  Sr2  1  0.65335500  0.84592700  0.88490300  1
  Sr  Sr3  1  0.34664500  0.15407300  0.11509700  1
  Sr  Sr4  1  0.68552000  0.68028500  0.22460700  1
  Sr  Sr5  1  0.31448000  0.31971500  0.77539300  1
  Ti  Ti0  1  0.90202800  0.31146800  0.97064900  1
  Ti  Ti1  1  0.09797200  0.68853200  0.02935100  1
  Ti  Ti2  1  0.70558100  0.98695300  0.59530600  1
  Ti  Ti3  1  0.29441900  0.01304700  0.40469400  1
  Ti  Ti4  1  0.09348600  0.87231900  0.69512600  1
  Ti  Ti5  1  0.90651400  0.12768100  0.30487400  1
  N  N0  1  0.98980100  0.09303600  0.81966900  1
  N  N1  1  0.01019900  0.90696400  0.18033100  1
  N  N2  1  0.74343400  0.73286600  0.54067600  1
  N  N3  1  0.25656600  0.26713400  0.45932400  1
  N  N4  1  0.77486000  0.50985000  0.91738400  1
  N  N5  1  0.22514000  0.49015000  0.08261600  1
  N  N6  1  0.37456700  0.94314800  0.61806600  1
  N  N7  1  0.62543300  0.05685200  0.38193400  1
  N  N8  1  0.19065400  0.75308100  0.85026000  1
  N  N9  1  0.80934600  0.24691900  0.14974000  1
loop_
_geom_bond_atom_site_label_1
_geom_bond_atom_site_label_2
_geom_bond_distance
_geom_bond_site_symmetry_2
N0 Ti4 2.026598 1_645
N0 Ti2 2.029851 1_545
N0 Ti0 2.041429 1_555
N0 Sr5 2.566805 1_655
N0 Sr3 2.736685 1_656
N0 Sr2 2.818733 1_545
N1 Ti5 2.026598 1_465
N1 Ti3 2.029851 1_565
N1 Ti1 2.041429 1_555
N1 Sr4 2.566805 1_455
N1 Sr2 2.736685 1_454
N1 Sr3 2.818733 1_565
N2 Ti2 1.985404 1_555
N2 Ti4 2.028658 1_655
N2 Sr4 2.562640 1_555
N2 Sr0 2.589169 1_555
N2 Sr1 2.744319 1_555
N2 Sr2 3.036325 1_555
N3 Ti3 1.985404 1_555
N3 Ti5 2.028658 1_455
N3 Sr5 2.562640 1_555
N3 Sr1 2.589169 1_555
N3 Sr0 2.744319 1_555
N3 Sr3 3.036325 1_555
N4 Ti1 1.936641 1_656
N4 Ti0 2.020950 1_555
N4 Sr0 2.606485 1_555
N4 Sr5 2.608783 1_555
N4 Sr4 2.791569 1_556
N4 Sr2 2.989059 1_555
N5 Ti0 1.936641 1_454
N5 Ti1 2.020950 1_555
N5 Sr1 2.606485 1_555
N5 Sr4 2.608783 1_555
N5 Sr5 2.791569 1_554
N5 Sr3 2.989059 1_555
N6 Ti4 2.001137 1_555
N6 Ti2 2.006954 1_555
N6 Ti3 2.089099 1_565
N6 Sr1 2.770957 1_555
N6 Sr2 2.937909 1_555
N6 Sr5 2.975972 1_565
N7 Ti5 2.001137 1_555
N7 Ti3 2.006954 1_555
N7 Ti2 2.089099 1_545
N7 Sr0 2.770957 1_555
N7 Sr3 2.937909 1_555
N7 Sr4 2.975972 1_545
N8 Ti4 1.941241 1_555
N8 Ti1 1.960478 1_556
N8 Sr2 2.627237 1_555
N8 Sr0 2.995514 1_455
N8 Sr3 3.023929 1_566
N9 Ti5 1.941241 1_555
N9 Ti0 1.960478 1_554
N9 Sr3 2.627237 1_555
N9 Sr1 2.995514 1_655
N9 Sr2 3.023929 1_544
