# generated using pymatgen
data_Li9Mn2Co5O16
_symmetry_space_group_name_H-M   'P 1'
_cell_length_a   3.01520700
_cell_length_b   5.06206925
_cell_length_c   19.12388333
_cell_angle_alpha   92.41563117
_cell_angle_beta   93.34896047
_cell_angle_gamma   91.57656967
_symmetry_Int_Tables_number   1
_chemical_formula_structural   Li9Mn2Co5O16
_chemical_formula_sum   'Li9 Mn2 Co5 O16'
_cell_volume   291.00248202
_cell_formula_units_Z   1
loop_
 _symmetry_equiv_pos_site_id
 _symmetry_equiv_pos_as_xyz
  1  'x, y, z'
loop_
 _atom_site_type_symbol
 _atom_site_label
 _atom_site_symmetry_multiplicity
 _atom_site_fract_x
 _atom_site_fract_y
 _atom_site_fract_z
 _atom_site_occupancy
  Li  Li0  1  0.00426300  0.62241400  0.87415700  1
  Li  Li1  1  0.50723000  0.74605600  0.74934400  1
  Li  Li2  1  0.00009500  0.87427100  0.62463000  1
  Li  Li3  1  0.49172400  0.00313900  0.49975700  1
  Li  Li4  1  0.99810700  0.12595200  0.37592800  1
  Li  Li5  1  0.50137400  0.25279100  0.25065800  1
  Li  Li6  1  0.99893400  0.37626400  0.12521900  1
  Li  Li7  1  0.49982300  0.49975300  0.00038800  1
  Li  Li8  1  0.49840200  0.37554400  0.62405900  1
  Mn  Mn0  1  0.98999000  0.99812900  0.00088800  1
  Mn  Mn1  1  0.50238800  0.12860600  0.87247600  1
  Co  Co0  1  0.01035300  0.25318800  0.74254700  1
  Co  Co1  1  0.99173400  0.49801800  0.50418900  1
  Co  Co2  1  0.50059500  0.62068500  0.37547000  1
  Co  Co3  1  0.00748900  0.75211500  0.25219400  1
  Co  Co4  1  0.50403400  0.87313300  0.12846100  1
  O  O0  1  0.52834200  0.82858400  0.93517900  1
  O  O1  1  0.02614500  0.96855900  0.80873900  1
  O  O2  1  0.52929800  0.07301700  0.69082800  1
  O  O3  1  0.00059600  0.21796300  0.55374100  1
  O  O4  1  0.52380300  0.33629200  0.43716000  1
  O  O5  1  0.02599400  0.46138600  0.31351200  1
  O  O6  1  0.54045400  0.58300500  0.18980200  1
  O  O7  1  0.97815600  0.70802300  0.06496000  1
  O  O8  1  0.47580700  0.42110600  0.81069300  1
  O  O9  1  0.99766500  0.53289600  0.69334200  1
  O  O10  1  0.46575700  0.67747100  0.55661300  1
  O  O11  1  0.97174100  0.77709700  0.43755000  1
  O  O12  1  0.47550400  0.91299400  0.31400100  1
  O  O13  1  0.02375900  0.03750700  0.18965400  1
  O  O14  1  0.45963000  0.16691400  0.06576200  1
  O  O15  1  0.97082000  0.29713300  0.93809500  1
loop_
_geom_bond_atom_site_label_1
_geom_bond_atom_site_label_2
_geom_bond_distance
_geom_bond_site_symmetry_2
Li0 O15 2.095598 1_455
Li0 O0 2.130546 1_555
Li0 O8 2.151938 1_455
Li0 O0 2.164638 1_455
Li0 O8 2.170265 1_555
Li0 O1 2.197220 1_555
Li1 O2 2.038340 1_565
Li1 O8 2.063565 1_555
Li1 O9 2.071489 1_455
Li1 O1 2.143461 1_655
Li1 O9 2.161818 1_555
Li1 O1 2.199434 1_555
Li2 O2 2.174682 1_565
Li2 O2 2.193431 1_465
Li2 O10 2.199298 1_555
Li2 O10 2.199492 1_455
Li2 O9 2.214679 1_455
Li2 O3 2.250255 1_565
Li3 O10 2.014955 1_545
Li3 O3 2.056963 1_655
Li3 O4 2.112161 1_555
Li3 O3 2.147996 1_555
Li3 O11 2.179752 1_445
Li3 O11 2.235375 1_545
Li4 O5 2.118898 1_655
Li4 O4 2.145364 1_655
Li4 O12 2.151400 1_545
Li4 O11 2.166153 1_545
Li4 O4 2.173599 1_555
Li4 O12 2.193989 1_645
Li5 O13 2.057365 1_555
Li5 O6 2.081256 1_555
Li5 O12 2.147428 1_545
Li5 O5 2.154291 1_655
Li5 O5 2.189050 1_555
Li5 O13 2.287262 1_655
Li6 O7 2.076717 1_555
Li6 O14 2.123554 1_655
Li6 O13 2.153840 1_655
Li6 O14 2.155866 1_555
Li6 O6 2.168375 1_555
Li6 O6 2.201836 1_655
Li7 O7 2.077270 1_555
Li7 O0 2.124368 1_554
Li7 O15 2.144840 1_454
Li7 O14 2.144869 1_555
Li7 O15 2.159356 1_554
Li7 O7 2.306287 1_455
Li8 O2 2.035466 1_555
Li8 O10 2.041789 1_555
Li8 O9 2.065955 1_555
Li8 O3 2.074969 1_555
Li8 O9 2.209181 1_455
Li8 O3 2.225189 1_655
Mn0 O7 1.952730 1_555
Mn0 O15 1.971348 1_564
Mn0 O0 1.972870 1_554
Mn0 O14 1.978191 1_665
Mn0 O14 2.245904 1_565
Mn0 O0 2.274784 1_654
Mn1 O8 1.933317 1_555
Mn1 O1 1.962740 1_545
Mn1 O0 1.974757 1_545
Mn1 O15 1.983387 1_555
Mn1 O1 2.201847 1_645
Mn1 O15 2.256421 1_455
Co0 O9 1.732856 1_455
Co0 O2 1.896712 1_455
Co0 O1 1.957308 1_545
Co0 O8 2.004452 1_555
Co0 O2 2.107543 1_555
Co0 O8 2.290437 1_455
Co1 O3 1.738055 1_655
Co1 O10 1.886136 1_655
Co1 O11 1.941897 1_555
Co1 O4 1.985122 1_555
Co1 O10 2.129259 1_555
Co1 O4 2.260800 1_655
Co2 O4 1.899546 1_555
Co2 O11 1.927771 1_555
Co2 O12 1.928590 1_555
Co2 O5 1.939037 1_555
Co2 O5 2.184695 1_655
Co2 O11 2.188732 1_455
Co3 O13 1.915341 1_565
Co3 O5 1.920004 1_555
Co3 O12 1.926769 1_555
Co3 O6 1.946995 1_455
Co3 O12 2.201256 1_455
Co3 O6 2.225433 1_555
Co4 O6 1.919414 1_555
Co4 O14 1.951856 1_565
Co4 O13 2.037025 1_665
Co4 O7 2.074623 1_455
Co4 O13 2.083535 1_565
Co4 O7 2.097617 1_555
