# generated using pymatgen
data_K3MoIO13
_symmetry_space_group_name_H-M   'P 1'
_cell_length_a   7.95558953
_cell_length_b   8.04338868
_cell_length_c   10.07709929
_cell_angle_alpha   109.67700341
_cell_angle_beta   91.45917676
_cell_angle_gamma   99.33452136
_symmetry_Int_Tables_number   1
_chemical_formula_structural   K3MoIO13
_chemical_formula_sum   'K6 Mo2 I2 O26'
_cell_volume   596.90849791
_cell_formula_units_Z   2
loop_
 _symmetry_equiv_pos_site_id
 _symmetry_equiv_pos_as_xyz
  1  'x, y, z'
loop_
 _atom_site_type_symbol
 _atom_site_label
 _atom_site_symmetry_multiplicity
 _atom_site_fract_x
 _atom_site_fract_y
 _atom_site_fract_z
 _atom_site_occupancy
  K  K0  1  0.56592400  0.75440700  0.03354700  1
  K  K1  1  0.43407600  0.24559300  0.96645300  1
  K  K2  1  0.54854300  0.21857900  0.36621900  1
  K  K3  1  0.45145700  0.78142100  0.63378100  1
  K  K4  1  0.06530600  0.66541800  0.31977000  1
  K  K5  1  0.93469400  0.33458200  0.68023000  1
  Mo  Mo0  1  0.83709000  0.13665400  0.00163300  1
  Mo  Mo1  1  0.16291000  0.86334600  0.99836700  1
  I  I0  1  0.90245300  0.82349200  0.71810500  1
  I  I1  1  0.09754700  0.17650800  0.28189500  1
  O  O0  1  0.77518900  0.27511500  0.91199800  1
  O  O1  1  0.22481100  0.72488500  0.08800200  1
  O  O2  1  0.66324000  0.11655800  0.10582100  1
  O  O3  1  0.33676000  0.88344100  0.89417900  1
  O  O4  1  0.98774900  0.70164600  0.85769400  1
  O  O5  1  0.01225200  0.29835400  0.14230600  1
  O  O6  1  0.73368100  0.89291400  0.86327200  1
  O  O7  1  0.26631900  0.10708600  0.13672800  1
  O  O8  1  0.03762800  0.03468300  0.87619800  1
  O  O9  1  0.96237200  0.96531700  0.12380200  1
  O  O10  1  0.81877400  0.96443800  0.63114000  1
  O  O11  1  0.18122600  0.03556200  0.36886000  1
  O  O12  1  0.91131900  0.22360000  0.38054900  1
  O  O13  1  0.08868100  0.77640000  0.61945100  1
  O  O14  1  0.75444700  0.61134100  0.62774900  1
  O  O15  1  0.24555300  0.38865900  0.37225100  1
  O  O16  1  0.68876200  0.55345700  0.30340800  1
  O  O17  1  0.31123800  0.44654300  0.69659200  1
  O  O18  1  0.72944400  0.83533700  0.37105300  1
  O  O19  1  0.27055600  0.16466300  0.62894700  1
  O  O20  1  0.83150600  0.58592900  0.03964600  1
  O  O21  1  0.16849400  0.41407100  0.96035400  1
  O  O22  1  0.42523700  0.16498000  0.65084900  1
  O  O23  1  0.57476300  0.83502000  0.34915100  1
  O  O24  1  0.46634400  0.45954900  0.72928000  1
  O  O25  1  0.53365600  0.54045100  0.27072000  1
loop_
_geom_bond_atom_site_label_1
_geom_bond_atom_site_label_2
_geom_bond_distance
_geom_bond_site_symmetry_2
K0 O6 2.624537 1_554
K0 O20 2.698637 1_555
K0 O2 2.725059 1_565
K0 O1 2.770655 1_555
K0 O3 2.799719 1_554
K0 O23 3.020800 1_555
K0 O24 3.165947 1_554
K1 O7 2.624537 1_556
K1 O21 2.698637 1_555
K1 O3 2.725066 1_545
K1 O0 2.770655 1_555
K1 O2 2.799724 1_556
K1 O22 3.020800 1_555
K1 O25 3.165947 1_556
K2 O2 2.703039 1_555
K2 O12 2.879075 1_555
K2 O15 2.950710 1_555
K2 O7 2.979812 1_555
K2 O16 3.018216 1_555
K2 O11 3.056466 1_555
K2 O25 3.068269 1_555
K2 O23 3.073153 1_545
K2 O22 3.195910 1_555
K3 O3 2.703039 1_555
K3 O13 2.879075 1_555
K3 O14 2.950710 1_555
K3 O6 2.979812 1_555
K3 O17 3.018216 1_555
K3 O10 3.056466 1_555
K3 O24 3.068269 1_555
K3 O22 3.073153 1_565
K3 O23 3.195910 1_555
K4 O1 2.828460 1_555
K4 O11 2.837825 1_565
K4 O13 2.837858 1_555
K4 O5 2.845131 1_555
K4 O16 2.968449 1_455
K4 O15 3.013488 1_555
K4 O20 3.157253 1_455
K4 O18 3.170774 1_455
K5 O0 2.828460 1_555
K5 O10 2.837825 1_545
K5 O12 2.837858 1_555
K5 O4 2.845131 1_555
K5 O17 2.968449 1_655
K5 O14 3.013488 1_555
K5 O21 3.157253 1_655
K5 O19 3.170774 1_655
Mo0 O0 1.769582 1_554
Mo0 O2 1.776815 1_555
Mo0 O5 1.926871 1_655
Mo0 O6 2.010451 1_544
Mo0 O8 2.155173 1_654
Mo0 O9 2.435965 1_545
Mo1 O1 1.769582 1_556
Mo1 O3 1.776814 1_555
Mo1 O4 1.926867 1_455
Mo1 O7 2.010451 1_566
Mo1 O9 2.155173 1_456
Mo1 O8 2.435965 1_565
I0 O13 1.824903 1_655
I0 O14 1.837012 1_555
I0 O10 1.838638 1_555
I0 O6 2.011892 1_555
I0 O8 2.019343 1_665
I0 O4 2.120181 1_555
I1 O12 1.824903 1_455
I1 O15 1.837012 1_555
I1 O11 1.838638 1_555
I1 O7 2.011892 1_555
I1 O9 2.019343 1_445
I1 O5 2.120178 1_555
O16 O25 1.247526 1_555
O17 O24 1.247526 1_555
O18 O23 1.244111 1_555
O19 O22 1.244111 1_555
