# generated using pymatgen
data_BaTeO4
_symmetry_space_group_name_H-M   'P 1'
_cell_length_a   7.86153100
_cell_length_b   9.13701348
_cell_length_c   6.25465256
_cell_angle_alpha   91.94837021
_cell_angle_beta   90.00000000
_cell_angle_gamma   90.00000000
_symmetry_Int_Tables_number   1
_chemical_formula_structural   BaTeO4
_chemical_formula_sum   'Ba4 Te4 O16'
_cell_volume   449.01767358
_cell_formula_units_Z   4
loop_
 _symmetry_equiv_pos_site_id
 _symmetry_equiv_pos_as_xyz
  1  'x, y, z'
loop_
 _atom_site_type_symbol
 _atom_site_label
 _atom_site_symmetry_multiplicity
 _atom_site_fract_x
 _atom_site_fract_y
 _atom_site_fract_z
 _atom_site_occupancy
  Ba  Ba0  1  0.32893200  0.19713300  0.82509100  1
  Ba  Ba1  1  0.82893200  0.30286700  0.17490900  1
  Ba  Ba2  1  0.67106800  0.80286700  0.17490900  1
  Ba  Ba3  1  0.17106800  0.69713300  0.82509100  1
  Te  Te0  1  0.69050800  0.53780900  0.71079200  1
  Te  Te1  1  0.19050800  0.96219100  0.28920800  1
  Te  Te2  1  0.30949200  0.46219100  0.28920800  1
  Te  Te3  1  0.80949200  0.03780900  0.71079200  1
  O  O0  1  0.85077700  0.56452100  0.92615300  1
  O  O1  1  0.35077700  0.93547900  0.07384700  1
  O  O2  1  0.14922300  0.43547900  0.07384700  1
  O  O3  1  0.64922300  0.06452100  0.92615300  1
  O  O4  1  0.62593600  0.34505000  0.73253200  1
  O  O5  1  0.12593600  0.15495000  0.26746800  1
  O  O6  1  0.37406400  0.65495000  0.26746800  1
  O  O7  1  0.87406400  0.84505000  0.73253200  1
  O  O8  1  0.51829200  0.66586000  0.78930400  1
  O  O9  1  0.01829200  0.83414000  0.21069600  1
  O  O10  1  0.48170800  0.33414000  0.21069600  1
  O  O11  1  0.98170800  0.16586000  0.78930400  1
  O  O12  1  0.22615800  0.43809200  0.56244500  1
  O  O13  1  0.72615800  0.06190800  0.43755500  1
  O  O14  1  0.77384200  0.56190800  0.43755500  1
  O  O15  1  0.27384200  0.93809200  0.56244500  1
loop_
_geom_bond_atom_site_label_1
_geom_bond_atom_site_label_2
_geom_bond_distance
_geom_bond_site_symmetry_2
Ba0 O11 2.752949 1_455
Ba0 O4 2.768889 1_555
Ba0 O15 2.867729 1_545
Ba0 O3 2.874024 1_555
Ba0 O1 2.901519 1_546
Ba0 O12 2.905966 1_555
Ba0 O10 2.936192 1_556
Ba0 O2 2.988147 1_556
Ba0 O5 3.228568 1_556
Ba1 O10 2.752949 1_555
Ba1 O5 2.768889 1_655
Ba1 O14 2.867729 1_555
Ba1 O2 2.874024 1_655
Ba1 O0 2.901519 1_554
Ba1 O13 2.905966 1_555
Ba1 O11 2.936192 1_554
Ba1 O3 2.988147 1_554
Ba1 O4 3.228568 1_554
Ba2 O9 2.752949 1_655
Ba2 O6 2.768889 1_555
Ba2 O13 2.867729 1_565
Ba2 O1 2.874024 1_555
Ba2 O3 2.901519 1_564
Ba2 O14 2.905966 1_555
Ba2 O8 2.936192 1_554
Ba2 O0 2.988147 1_554
Ba2 O7 3.228568 1_554
Ba3 O8 2.752949 1_555
Ba3 O7 2.768889 1_455
Ba3 O12 2.867729 1_555
Ba3 O0 2.874024 1_455
Ba3 O2 2.901519 1_556
Ba3 O15 2.905966 1_555
Ba3 O9 2.936192 1_556
Ba3 O1 2.988147 1_556
Ba3 O6 3.228568 1_556
O0 Te0 1.854493 1_555
O1 Te1 1.854493 1_555
O2 Te2 1.854493 1_555
O3 Te3 1.854493 1_555
O4 Te0 1.842400 1_555
O5 Te1 1.842400 1_545
O6 Te2 1.842400 1_555
O7 Te3 1.842400 1_565
O8 Te0 1.844988 1_555
O9 Te1 1.844988 1_555
O10 Te2 1.844988 1_555
O11 Te3 1.844988 1_555
O12 Te2 1.850395 1_555
O13 Te3 1.850395 1_555
O14 Te0 1.850395 1_555
O15 Te1 1.850395 1_555
