# generated using pymatgen
data_BaY2(MoO4)4
_symmetry_space_group_name_H-M   'P 1'
_cell_length_a   6.91812458
_cell_length_b   6.91812458
_cell_length_c   19.63154869
_cell_angle_alpha   89.46344620
_cell_angle_beta   89.46344620
_cell_angle_gamma   134.73951036
_symmetry_Int_Tables_number   1
_chemical_formula_structural   BaY2(MoO4)4
_chemical_formula_sum   'Ba2 Y4 Mo8 O32'
_cell_volume   667.19563175
_cell_formula_units_Z   2
loop_
 _symmetry_equiv_pos_site_id
 _symmetry_equiv_pos_as_xyz
  1  'x, y, z'
loop_
 _atom_site_type_symbol
 _atom_site_label
 _atom_site_symmetry_multiplicity
 _atom_site_fract_x
 _atom_site_fract_y
 _atom_site_fract_z
 _atom_site_occupancy
  Ba  Ba0  1  0.53129600  0.46870400  0.75000000  1
  Ba  Ba1  1  0.46870400  0.53129600  0.25000000  1
  Y  Y0  1  0.64647300  0.34905200  0.96790100  1
  Y  Y1  1  0.35352700  0.65094800  0.03209900  1
  Y  Y2  1  0.65094800  0.35352700  0.53209900  1
  Y  Y3  1  0.34905200  0.64647300  0.46790100  1
  Mo  Mo0  1  0.92922900  0.04593000  0.59006500  1
  Mo  Mo1  1  0.07077100  0.95407000  0.40993500  1
  Mo  Mo2  1  0.95407000  0.07077100  0.90993500  1
  Mo  Mo3  1  0.04593000  0.92922900  0.09006500  1
  Mo  Mo4  1  0.24341400  0.76369000  0.64785500  1
  Mo  Mo5  1  0.75658600  0.23631000  0.35214500  1
  Mo  Mo6  1  0.23631000  0.75658600  0.85214500  1
  Mo  Mo7  1  0.76369000  0.24341400  0.14785500  1
  O  O0  1  0.67074600  0.01184500  0.54391000  1
  O  O1  1  0.32925400  0.98815500  0.45609000  1
  O  O2  1  0.98815500  0.32925400  0.95609000  1
  O  O3  1  0.01184500  0.67074600  0.04391000  1
  O  O4  1  0.42743700  0.90896600  0.93346600  1
  O  O5  1  0.57256300  0.09103400  0.06653400  1
  O  O6  1  0.09103400  0.57256300  0.56653400  1
  O  O7  1  0.90896600  0.42743700  0.43346600  1
  O  O8  1  0.79924400  0.96370600  0.83101700  1
  O  O9  1  0.20075600  0.03629400  0.16898300  1
  O  O10  1  0.03629400  0.20075600  0.66898300  1
  O  O11  1  0.96370600  0.79924400  0.33101700  1
  O  O12  1  0.72011000  0.81586100  0.10194000  1
  O  O13  1  0.27989000  0.18413900  0.89806000  1
  O  O14  1  0.18413900  0.27989000  0.39806000  1
  O  O15  1  0.81586100  0.72011000  0.60194000  1
  O  O16  1  0.41501500  0.11647400  0.63242000  1
  O  O17  1  0.58498500  0.88352600  0.36758000  1
  O  O18  1  0.88352600  0.58498500  0.86758000  1
  O  O19  1  0.11647400  0.41501500  0.13242000  1
  O  O20  1  0.72472900  0.75941900  0.96487400  1
  O  O21  1  0.27527100  0.24058100  0.03512600  1
  O  O22  1  0.24058100  0.27527100  0.53512600  1
  O  O23  1  0.75941900  0.72472900  0.46487400  1
  O  O24  1  0.48841700  0.76531800  0.67389700  1
  O  O25  1  0.51158300  0.23468200  0.32610300  1
  O  O26  1  0.23468200  0.51158300  0.82610300  1
  O  O27  1  0.76531800  0.48841700  0.17389700  1
  O  O28  1  0.40150500  0.01385800  0.78880700  1
  O  O29  1  0.59849500  0.98614200  0.21119300  1
  O  O30  1  0.98614200  0.59849500  0.71119300  1
  O  O31  1  0.01385800  0.40150500  0.28880700  1
loop_
_geom_bond_atom_site_label_1
_geom_bond_atom_site_label_2
_geom_bond_distance
_geom_bond_site_symmetry_2
Ba0 O30 2.693135 1_555
Ba0 O28 2.693135 1_555
Ba0 O26 2.708996 1_555
Ba0 O24 2.708996 1_555
Ba0 O8 2.985585 1_555
Ba0 O10 2.985585 1_555
Ba0 O18 3.048553 1_555
Ba0 O16 3.048553 1_555
Ba0 O13 3.213591 1_555
Ba0 O15 3.213591 1_555
Ba1 O31 2.693135 1_555
Ba1 O29 2.693135 1_555
Ba1 O25 2.708996 1_555
Ba1 O27 2.708996 1_555
Ba1 O9 2.985585 1_555
Ba1 O11 2.985585 1_555
Ba1 O19 3.048553 1_555
Ba1 O17 3.048553 1_555
Ba1 O12 3.213591 1_555
Ba1 O14 3.213591 1_555
Mo0 O10 1.741228 1_655
Mo0 O15 1.802298 1_545
Mo0 O22 1.852981 1_655
Mo0 O0 1.874851 1_555
Mo1 O11 1.741228 1_455
Mo1 O14 1.802298 1_565
Mo1 O23 1.852981 1_455
Mo1 O1 1.874851 1_555
Mo2 O8 1.741228 1_545
Mo2 O13 1.802298 1_655
Mo2 O20 1.852981 1_545
Mo2 O2 1.874851 1_555
Mo3 O9 1.741228 1_565
Mo3 O12 1.802298 1_455
Mo3 O21 1.852981 1_565
Mo3 O3 1.874851 1_555
Mo4 O30 1.757397 1_455
Mo4 O24 1.767443 1_555
Mo4 O16 1.832559 1_565
Mo4 O6 1.875390 1_555
Mo5 O31 1.757397 1_655
Mo5 O25 1.767443 1_555
Mo5 O17 1.832559 1_545
Mo5 O7 1.875390 1_555
Mo6 O28 1.757397 1_565
Mo6 O26 1.767443 1_555
Mo6 O18 1.832559 1_455
Mo6 O4 1.875390 1_555
Mo7 O29 1.757397 1_545
Mo7 O27 1.767443 1_555
Mo7 O19 1.832559 1_655
Mo7 O5 1.875390 1_555
O0 Y3 2.404636 1_545
O0 Y2 2.471067 1_555
O1 Y2 2.404636 1_565
O1 Y3 2.471067 1_555
O2 Y1 2.404636 1_656
O2 Y0 2.471067 1_555
O3 Y0 2.404636 1_454
O3 Y1 2.471067 1_555
O4 Y0 2.363385 1_565
O4 Y1 2.414301 1_556
O5 Y1 2.363385 1_545
O5 Y0 2.414301 1_554
O6 Y2 2.363385 1_455
O6 Y3 2.414301 1_555
O7 Y3 2.363385 1_655
O7 Y2 2.414301 1_555
O12 Y1 2.373682 1_555
O13 Y0 2.373682 1_555
O14 Y3 2.373682 1_555
O15 Y2 2.373682 1_555
O16 Y2 2.311577 1_555
O17 Y3 2.311577 1_555
O18 Y0 2.311577 1_555
O19 Y1 2.311577 1_555
O20 Y1 2.470756 1_556
O20 Y0 2.487752 1_555
O21 Y0 2.470756 1_554
O21 Y1 2.487752 1_555
O22 Y3 2.470756 1_555
O22 Y2 2.487752 1_555
O23 Y2 2.470756 1_555
O23 Y3 2.487752 1_555
