# generated using pymatgen
data_CsMg14MnO16
_symmetry_space_group_name_H-M   'P 1'
_cell_length_a   4.37406200
_cell_length_b   8.83520200
_cell_length_c   8.93457500
_cell_angle_alpha   90.00000000
_cell_angle_beta   90.00000000
_cell_angle_gamma   90.00000000
_symmetry_Int_Tables_number   1
_chemical_formula_structural   CsMg14MnO16
_chemical_formula_sum   'Cs1 Mg14 Mn1 O16'
_cell_volume   345.28309566
_cell_formula_units_Z   1
loop_
 _symmetry_equiv_pos_site_id
 _symmetry_equiv_pos_as_xyz
  1  'x, y, z'
loop_
 _atom_site_type_symbol
 _atom_site_label
 _atom_site_symmetry_multiplicity
 _atom_site_fract_x
 _atom_site_fract_y
 _atom_site_fract_z
 _atom_site_occupancy
  Cs  Cs0  1  0.00000000  0.00000000  0.50000000  1
  Mg  Mg0  1  0.00000000  0.50000000  0.00000000  1
  Mg  Mg1  1  0.00000000  0.00000000  0.00000000  1
  Mg  Mg2  1  0.50000000  0.26456200  0.50000000  1
  Mg  Mg3  1  0.50000000  0.73543800  0.50000000  1
  Mg  Mg4  1  0.50000000  0.25258400  0.00000000  1
  Mg  Mg5  1  0.50000000  0.74741600  0.00000000  1
  Mg  Mg6  1  0.50000000  0.50000000  0.24332300  1
  Mg  Mg7  1  0.50000000  0.00000000  0.23072900  1
  Mg  Mg8  1  0.50000000  0.50000000  0.75667700  1
  Mg  Mg9  1  0.50000000  0.00000000  0.76927100  1
  Mg  Mg10  1  0.00000000  0.25445400  0.23900400  1
  Mg  Mg11  1  0.00000000  0.74554600  0.23900400  1
  Mg  Mg12  1  0.00000000  0.25445400  0.76099600  1
  Mg  Mg13  1  0.00000000  0.74554600  0.76099600  1
  Mn  Mn0  1  0.00000000  0.50000000  0.50000000  1
  O  O0  1  0.00000000  0.50000000  0.23509800  1
  O  O1  1  0.00000000  0.00000000  0.21390500  1
  O  O2  1  0.00000000  0.50000000  0.76490200  1
  O  O3  1  0.00000000  0.00000000  0.78609500  1
  O  O4  1  0.50000000  0.25005300  0.25063800  1
  O  O5  1  0.50000000  0.74994700  0.25063800  1
  O  O6  1  0.50000000  0.25005300  0.74936200  1
  O  O7  1  0.50000000  0.74994700  0.74936200  1
  O  O8  1  0.50000000  0.50000000  0.50000000  1
  O  O9  1  0.50000000  0.00000000  0.50000000  1
  O  O10  1  0.50000000  0.50000000  0.00000000  1
  O  O11  1  0.50000000  0.00000000  0.00000000  1
  O  O12  1  0.00000000  0.28344000  0.50000000  1
  O  O13  1  0.00000000  0.71656000  0.50000000  1
  O  O14  1  0.00000000  0.25701500  0.00000000  1
  O  O15  1  0.00000000  0.74298500  0.00000000  1
loop_
_geom_bond_atom_site_label_1
_geom_bond_atom_site_label_2
_geom_bond_distance
_geom_bond_site_symmetry_2
Cs0 O9 2.187031 1_455
Cs0 O9 2.187031 1_555
Cs0 O13 2.504250 1_545
Cs0 O12 2.504250 1_555
Cs0 O3 2.556137 1_555
Cs0 O1 2.556137 1_555
Mg0 O2 2.100501 1_554
Mg0 O0 2.100501 1_555
Mg0 O14 2.146822 1_555
Mg0 O15 2.146822 1_555
Mg0 O10 2.187031 1_455
Mg0 O10 2.187031 1_555
Mg1 O1 1.911150 1_555
Mg1 O3 1.911150 1_554
Mg1 O11 2.187031 1_455
Mg1 O11 2.187031 1_555
Mg1 O15 2.270779 1_545
Mg1 O14 2.270779 1_555
Mg2 O8 2.080142 1_555
Mg2 O12 2.193382 1_655
Mg2 O12 2.193382 1_555
Mg2 O6 2.231628 1_555
Mg2 O4 2.231628 1_555
Mg2 O9 2.337459 1_555
Mg3 O8 2.080142 1_555
Mg3 O13 2.193382 1_555
Mg3 O13 2.193382 1_655
Mg3 O7 2.231628 1_555
Mg3 O5 2.231628 1_555
Mg3 O9 2.337459 1_565
Mg4 O10 2.185970 1_555
Mg4 O14 2.187381 1_555
Mg4 O14 2.187381 1_655
Mg4 O11 2.231631 1_555
Mg4 O4 2.239456 1_555
Mg4 O6 2.239456 1_554
Mg5 O10 2.185970 1_555
Mg5 O15 2.187381 1_555
Mg5 O15 2.187381 1_655
Mg5 O11 2.231631 1_565
Mg5 O5 2.239456 1_555
Mg5 O7 2.239456 1_554
Mg6 O10 2.173988 1_555
Mg6 O0 2.188265 1_555
Mg6 O0 2.188265 1_655
Mg6 O5 2.209299 1_555
Mg6 O4 2.209299 1_555
Mg6 O8 2.293300 1_555
Mg7 O11 2.061466 1_555
Mg7 O1 2.192191 1_555
Mg7 O1 2.192191 1_655
Mg7 O4 2.216418 1_555
Mg7 O5 2.216418 1_545
Mg7 O9 2.405822 1_555
Mg8 O10 2.173988 1_556
Mg8 O2 2.188265 1_655
Mg8 O2 2.188265 1_555
Mg8 O7 2.209299 1_555
Mg8 O6 2.209299 1_555
Mg8 O8 2.293300 1_555
Mg9 O11 2.061466 1_556
Mg9 O3 2.192191 1_555
Mg9 O3 2.192191 1_655
Mg9 O6 2.216418 1_555
Mg9 O7 2.216418 1_545
Mg9 O9 2.405822 1_555
Mg10 O14 2.135519 1_555
Mg10 O0 2.169729 1_555
Mg10 O4 2.189845 1_555
Mg10 O4 2.189845 1_455
Mg10 O1 2.259309 1_555
Mg10 O12 2.345909 1_555
Mg11 O15 2.135519 1_555
Mg11 O0 2.169729 1_555
Mg11 O5 2.189845 1_455
Mg11 O5 2.189845 1_555
Mg11 O1 2.259309 1_565
Mg11 O13 2.345909 1_555
Mg12 O14 2.135519 1_556
Mg12 O2 2.169729 1_555
Mg12 O6 2.189845 1_555
Mg12 O6 2.189845 1_455
Mg12 O3 2.259309 1_555
Mg12 O12 2.345909 1_555
Mg13 O15 2.135519 1_556
Mg13 O2 2.169729 1_555
Mg13 O7 2.189845 1_555
Mg13 O7 2.189845 1_455
Mg13 O3 2.259309 1_565
Mg13 O13 2.345909 1_555
Mn0 O12 1.913351 1_555
Mn0 O13 1.913351 1_555
Mn0 O8 2.187031 1_555
Mn0 O8 2.187031 1_455
Mn0 O0 2.366787 1_555
Mn0 O2 2.366787 1_555
