# generated using pymatgen
data_SrTl3
_symmetry_space_group_name_H-M   'P 1'
_cell_length_a   4.94518977
_cell_length_b   4.94368612
_cell_length_c   4.94368612
_cell_angle_alpha   90.00000000
_cell_angle_beta   90.00000000
_cell_angle_gamma   90.00000000
_symmetry_Int_Tables_number   1
_chemical_formula_structural   SrTl3
_chemical_formula_sum   'Sr1 Tl3'
_cell_volume   120.86059847
_cell_formula_units_Z   1
loop_
 _symmetry_equiv_pos_site_id
 _symmetry_equiv_pos_as_xyz
  1  'x, y, z'
loop_
 _atom_site_type_symbol
 _atom_site_label
 _atom_site_symmetry_multiplicity
 _atom_site_fract_x
 _atom_site_fract_y
 _atom_site_fract_z
 _atom_site_occupancy
  Sr  Sr0  1  -0.00000000  0.00000000  -0.00000000  1
  Tl  Tl0  1  0.50000000  0.00000000  0.50000000  1
  Tl  Tl1  1  0.50000000  0.50000000  -0.00000000  1
  Tl  Tl2  1  -0.00000000  0.50000000  0.50000000  1
loop_
_geom_bond_atom_site_label_1
_geom_bond_atom_site_label_2
_geom_bond_distance
_geom_bond_site_symmetry_2
Sr0 Tl2 3.495714 1_555
Sr0 Tl2 3.495714 1_545
Sr0 Tl2 3.495714 1_554
Sr0 Tl2 3.495714 1_544
Sr0 Tl1 3.496246 1_545
Sr0 Tl1 3.496246 1_555
Sr0 Tl0 3.496246 1_554
Sr0 Tl1 3.496246 1_445
Sr0 Tl0 3.496246 1_455
Sr0 Tl0 3.496246 1_454
Sr0 Tl0 3.496246 1_555
Sr0 Tl1 3.496246 1_455
Tl0 Tl1 3.495714 1_545
Tl0 Tl1 3.495714 1_546
Tl0 Tl1 3.495714 1_556
Tl0 Tl1 3.495714 1_555
Tl0 Tl2 3.496246 1_555
Tl0 Tl2 3.496246 1_655
Tl0 Tl2 3.496246 1_545
Tl0 Tl2 3.496246 1_645
Tl1 Tl2 3.496246 1_555
Tl1 Tl2 3.496246 1_554
Tl1 Tl2 3.496246 1_655
Tl1 Tl2 3.496246 1_654
