# generated using pymatgen
data_Cr2(PO3)5
_symmetry_space_group_name_H-M   'P 1'
_cell_length_a   12.96958280
_cell_length_b   8.35779600
_cell_length_c   5.30419195
_cell_angle_alpha   90.00000000
_cell_angle_beta   94.19056004
_cell_angle_gamma   90.00000000
_symmetry_Int_Tables_number   1
_chemical_formula_structural   Cr2(PO3)5
_chemical_formula_sum   'Cr4 P10 O30'
_cell_volume   573.42203354
_cell_formula_units_Z   2
loop_
 _symmetry_equiv_pos_site_id
 _symmetry_equiv_pos_as_xyz
  1  'x, y, z'
loop_
 _atom_site_type_symbol
 _atom_site_label
 _atom_site_symmetry_multiplicity
 _atom_site_fract_x
 _atom_site_fract_y
 _atom_site_fract_z
 _atom_site_occupancy
  Cr  Cr0  1  0.96393300  0.29570500  0.88907800  1
  Cr  Cr1  1  0.53724500  0.29601400  0.61026600  1
  Cr  Cr2  1  0.46393300  0.70429400  0.38907900  1
  Cr  Cr3  1  0.03724500  0.70398600  0.11026600  1
  P  P0  1  0.60260100  0.82542700  0.93743700  1
  P  P1  1  0.64386800  0.50108800  0.12870800  1
  P  P2  1  0.75088100  0.07154000  0.74984300  1
  P  P3  1  0.85701400  0.49937200  0.37029400  1
  P  P4  1  0.10260000  0.17457200  0.43743800  1
  P  P5  1  0.14386800  0.49891100  0.62870700  1
  P  P6  1  0.25088100  0.92846100  0.24984200  1
  P  P7  1  0.35701400  0.50062900  0.87029500  1
  P  P8  1  0.39879600  0.17472600  0.06115100  1
  P  P9  1  0.89879600  0.82527300  0.56114900  1
  O  O0  1  0.67496400  0.66991800  0.01833300  1
  O  O1  1  0.96390200  0.86020900  0.34566100  1
  O  O2  1  0.94815900  0.79799200  0.82055500  1
  O  O3  1  0.92660800  0.51316700  0.14984700  1
  O  O4  1  0.03710200  0.14231800  0.65408000  1
  O  O5  1  0.05257200  0.20065200  0.17815900  1
  O  O6  1  0.07427800  0.48108500  0.84830900  1
  O  O7  1  0.17496400  0.33008200  0.51833400  1
  O  O8  1  0.10997700  0.60985800  0.42040700  1
  O  O9  1  0.17098900  0.84087300  0.08385600  1
  O  O10  1  0.19356400  0.04624800  0.43890000  1
  O  O11  1  0.25003100  0.56654600  0.75050400  1
  O  O12  1  0.33173200  0.84212000  0.41617200  1
  O  O13  1  0.30682700  0.04793800  0.06198600  1
  O  O14  1  0.32699400  0.33061400  0.97702900  1
  O  O15  1  0.39011400  0.61036700  0.08124500  1
  O  O16  1  0.42660700  0.48683200  0.64984600  1
  O  O17  1  0.46390300  0.13979100  0.84566200  1
  O  O18  1  0.44816000  0.20200800  0.32055600  1
  O  O19  1  0.82699500  0.66938600  0.47703000  1
  O  O20  1  0.53710200  0.85768300  0.15408100  1
  O  O21  1  0.57427800  0.51891600  0.34831000  1
  O  O22  1  0.89011400  0.38963300  0.58124600  1
  O  O23  1  0.60997700  0.39014200  0.92040700  1
  O  O24  1  0.67098900  0.15912700  0.58385500  1
  O  O25  1  0.69356400  0.95375200  0.93889900  1
  O  O26  1  0.75003100  0.43345400  0.25050500  1
  O  O27  1  0.83173200  0.15788000  0.91617100  1
  O  O28  1  0.80682700  0.95206200  0.56198500  1
  O  O29  1  0.55257200  0.79934800  0.67815800  1
loop_
_geom_bond_atom_site_label_1
_geom_bond_atom_site_label_2
_geom_bond_distance
_geom_bond_site_symmetry_2
Cr0 O22 1.992602 1_555
Cr0 O5 2.011528 1_656
Cr0 O4 2.066539 1_655
Cr0 O27 2.079277 1_555
Cr0 O6 2.130883 1_655
Cr0 O3 2.355562 1_556
Cr1 O23 1.997026 1_555
Cr1 O18 2.013488 1_555
Cr1 O17 2.083783 1_555
Cr1 O24 2.091147 1_555
Cr1 O16 2.165771 1_555
Cr1 O21 2.393636 1_555
Cr2 O15 1.992607 1_555
Cr2 O29 2.011523 1_555
Cr2 O20 2.066550 1_555
Cr2 O12 2.079281 1_555
Cr2 O21 2.130871 1_555
Cr2 O16 2.355559 1_555
Cr3 O8 1.997026 1_555
Cr3 O2 2.013498 1_454
Cr3 O1 2.083786 1_455
Cr3 O9 2.091146 1_555
Cr3 O3 2.165770 1_455
Cr3 O6 2.393632 1_554
O0 P1 1.590901 1_555
O0 P0 1.641746 1_554
O1 P9 1.498580 1_555
O2 P9 1.492090 1_555
O3 P3 1.532802 1_555
O4 P4 1.502467 1_555
O5 P4 1.493135 1_555
O6 P5 1.532067 1_555
O7 P5 1.590889 1_555
O7 P4 1.641760 1_555
O8 P5 1.484179 1_555
O9 P6 1.500448 1_555
O10 P4 1.594000 1_555
O10 P6 1.623665 1_545
O11 P5 1.582001 1_555
O11 P7 1.582282 1_555
O12 P6 1.504480 1_555
O13 P8 1.595763 1_555
O13 P6 1.619305 1_545
O14 P7 1.588527 1_555
O14 P8 1.644103 1_556
O15 P7 1.485688 1_554
O16 P7 1.532803 1_555
O17 P8 1.498591 1_556
O18 P8 1.492092 1_555
O19 P3 1.588520 1_555
O19 P9 1.644086 1_555
O20 P0 1.502486 1_554
O21 P1 1.532069 1_555
O22 P3 1.485701 1_555
O23 P1 1.484177 1_556
O24 P2 1.500449 1_555
O25 P0 1.593997 1_555
O25 P2 1.623663 1_565
O26 P1 1.581998 1_555
O26 P3 1.582282 1_555
O27 P2 1.504470 1_555
O28 P9 1.595769 1_555
O28 P2 1.619317 1_565
O29 P0 1.493138 1_555
