# generated using pymatgen
data_Hf2H2Pd
_symmetry_space_group_name_H-M   'P 1'
_cell_length_a   6.45163849
_cell_length_b   6.45163849
_cell_length_c   6.45163849
_cell_angle_alpha   150.90666911
_cell_angle_beta   150.90666911
_cell_angle_gamma   41.61211826
_symmetry_Int_Tables_number   1
_chemical_formula_structural   Hf2H2Pd
_chemical_formula_sum   'Hf2 H2 Pd1'
_cell_volume   63.34515412
_cell_formula_units_Z   1
loop_
 _symmetry_equiv_pos_site_id
 _symmetry_equiv_pos_as_xyz
  1  'x, y, z'
loop_
 _atom_site_type_symbol
 _atom_site_label
 _atom_site_symmetry_multiplicity
 _atom_site_fract_x
 _atom_site_fract_y
 _atom_site_fract_z
 _atom_site_occupancy
  Hf  Hf0  1  0.64136500  0.64136500  0.00000000  1
  Hf  Hf1  1  0.35863500  0.35863500  0.00000000  1
  H  H0  1  0.75000000  0.25000000  0.50000000  1
  H  H1  1  0.25000000  0.75000000  0.50000000  1
  Pd  Pd0  1  0.00000000  0.00000000  0.00000000  1
loop_
_geom_bond_atom_site_label_1
_geom_bond_atom_site_label_2
_geom_bond_distance
_geom_bond_site_symmetry_2
Hf0 Pd0 2.856421 1_554
Hf0 Pd0 2.856421 1_655
Hf0 Pd0 2.856421 1_565
Hf0 Pd0 2.856421 1_666
Hf1 Pd0 2.856421 1_655
Hf1 Pd0 2.856421 1_565
Hf1 Pd0 2.856421 1_666
Hf1 Pd0 2.856421 1_554
H0 Hf1 2.083947 1_555
H0 Hf1 2.083947 1_656
H0 Hf0 2.083947 1_556
H0 Hf0 2.083947 1_545
H1 Hf1 2.083947 1_555
H1 Hf0 2.083947 1_455
H1 Hf0 2.083947 1_556
H1 Hf1 2.083947 1_566
