# generated using pymatgen
data_LiFe2P2O9
_symmetry_space_group_name_H-M   'P 1'
_cell_length_a   6.34389700
_cell_length_b   7.68106700
_cell_length_c   14.04571600
_cell_angle_alpha   90.00000000
_cell_angle_beta   90.00000000
_cell_angle_gamma   90.00000000
_symmetry_Int_Tables_number   1
_chemical_formula_structural   LiFe2P2O9
_chemical_formula_sum   'Li4 Fe8 P8 O36'
_cell_volume   684.41821515
_cell_formula_units_Z   4
loop_
 _symmetry_equiv_pos_site_id
 _symmetry_equiv_pos_as_xyz
  1  'x, y, z'
loop_
 _atom_site_type_symbol
 _atom_site_label
 _atom_site_symmetry_multiplicity
 _atom_site_fract_x
 _atom_site_fract_y
 _atom_site_fract_z
 _atom_site_occupancy
  Li  Li0  1  0.75000000  0.95378200  0.76969200  1
  Li  Li1  1  0.75000000  0.54621800  0.26969200  1
  Li  Li2  1  0.25000000  0.45378200  0.73030800  1
  Li  Li3  1  0.25000000  0.04621800  0.23030800  1
  Fe  Fe0  1  0.75000000  0.35104500  0.88116800  1
  Fe  Fe1  1  0.25000000  0.64895500  0.11883200  1
  Fe  Fe2  1  0.25000000  0.85104500  0.61883200  1
  Fe  Fe3  1  0.75000000  0.14895500  0.38116800  1
  Fe  Fe4  1  0.50000000  0.00000000  0.00000000  1
  Fe  Fe5  1  0.50000000  0.50000000  0.50000000  1
  Fe  Fe6  1  0.00000000  0.50000000  0.50000000  1
  Fe  Fe7  1  0.00000000  0.00000000  0.00000000  1
  P  P0  1  0.25000000  0.35338300  0.93476400  1
  P  P1  1  0.75000000  0.64661700  0.06523600  1
  P  P2  1  0.75000000  0.85338300  0.56523600  1
  P  P3  1  0.25000000  0.14661700  0.43476400  1
  P  P4  1  0.75000000  0.38946200  0.69299700  1
  P  P5  1  0.75000000  0.11053800  0.19299700  1
  P  P6  1  0.25000000  0.88946200  0.80700300  1
  P  P7  1  0.25000000  0.61053800  0.30700300  1
  O  O0  1  0.04588400  0.58753900  0.36582500  1
  O  O1  1  0.54588400  0.41246100  0.63417500  1
  O  O2  1  0.95411600  0.08753900  0.13417500  1
  O  O3  1  0.45411600  0.91246100  0.86582500  1
  O  O4  1  0.95411600  0.41246100  0.63417500  1
  O  O5  1  0.45411600  0.58753900  0.36582500  1
  O  O6  1  0.04588400  0.91246100  0.86582500  1
  O  O7  1  0.54588400  0.08753900  0.13417500  1
  O  O8  1  0.25000000  0.33040600  0.48540800  1
  O  O9  1  0.75000000  0.66959400  0.51459200  1
  O  O10  1  0.75000000  0.83040600  0.01459200  1
  O  O11  1  0.25000000  0.16959400  0.98540800  1
  O  O12  1  0.75000000  0.14240900  0.95309600  1
  O  O13  1  0.25000000  0.85759100  0.04690400  1
  O  O14  1  0.25000000  0.64240900  0.54690400  1
  O  O15  1  0.75000000  0.35759100  0.45309600  1
  O  O16  1  0.75000000  0.21528100  0.74957900  1
  O  O17  1  0.25000000  0.78471900  0.25042100  1
  O  O18  1  0.25000000  0.71528100  0.75042100  1
  O  O19  1  0.75000000  0.28471900  0.24957900  1
  O  O20  1  0.43931900  0.13854500  0.36629900  1
  O  O21  1  0.93931900  0.86145500  0.63370100  1
  O  O22  1  0.56068100  0.63854500  0.13370100  1
  O  O23  1  0.06068100  0.36145500  0.86629900  1
  O  O24  1  0.56068100  0.86145500  0.63370100  1
  O  O25  1  0.06068100  0.13854500  0.36629900  1
  O  O26  1  0.43931900  0.36145500  0.86629900  1
  O  O27  1  0.93931900  0.63854500  0.13370100  1
  O  O28  1  0.75000000  0.50531800  0.99020700  1
  O  O29  1  0.25000000  0.02398100  0.72243000  1
  O  O30  1  0.25000000  0.47601900  0.22243000  1
  O  O31  1  0.75000000  0.52398100  0.77757000  1
  O  O32  1  0.75000000  0.99468200  0.49020700  1
  O  O33  1  0.25000000  0.00531800  0.50979300  1
  O  O34  1  0.25000000  0.49468200  0.00979300  1
  O  O35  1  0.75000000  0.97601900  0.27757000  1
loop_
_geom_bond_atom_site_label_1
_geom_bond_atom_site_label_2
_geom_bond_distance
_geom_bond_site_symmetry_2
Li0 O16 2.028360 1_565
Li0 O3 2.333940 1_555
Li0 O6 2.333940 1_655
Li0 O21 2.365126 1_555
Li0 O24 2.365126 1_555
Li1 O19 2.028360 1_555
Li1 O5 2.333940 1_555
Li1 O0 2.333940 1_655
Li1 O27 2.365126 1_555
Li1 O22 2.365126 1_555
Li2 O18 2.028360 1_555
Li2 O4 2.333940 1_455
Li2 O1 2.333940 1_555
Li2 O26 2.365126 1_555
Li2 O23 2.365126 1_555
Li3 O17 2.028360 1_545
Li3 O7 2.333940 1_555
Li3 O2 2.333940 1_455
Li3 O25 2.365126 1_555
Li3 O20 2.365126 1_555
Fe0 O12 1.894419 1_555
Fe0 O28 1.936432 1_555
Fe0 O31 1.970230 1_555
Fe0 O26 1.983575 1_555
Fe0 O23 1.983575 1_655
Fe0 O16 2.122152 1_555
Fe1 O13 1.894419 1_555
Fe1 O34 1.936432 1_555
Fe1 O30 1.970230 1_555
Fe1 O27 1.983575 1_455
Fe1 O22 1.983575 1_555
Fe1 O17 2.122152 1_555
Fe2 O14 1.894419 1_555
Fe2 O33 1.936432 1_565
Fe2 O29 1.970230 1_565
Fe2 O24 1.983575 1_555
Fe2 O21 1.983575 1_455
Fe2 O18 2.122152 1_555
Fe3 O15 1.894419 1_555
Fe3 O32 1.936432 1_545
Fe3 O35 1.970230 1_545
Fe3 O25 1.983575 1_655
Fe3 O20 1.983575 1_555
Fe3 O19 2.122152 1_555
Fe4 O7 2.022004 1_555
Fe4 O3 2.022004 1_544
Fe4 O12 2.036135 1_554
Fe4 O13 2.036135 1_545
Fe4 O11 2.062584 1_554
Fe4 O10 2.062584 1_545
Fe5 O5 2.022004 1_555
Fe5 O1 2.022004 1_555
Fe5 O14 2.036135 1_555
Fe5 O15 2.036135 1_555
Fe5 O8 2.062584 1_555
Fe5 O9 2.062584 1_555
Fe6 O0 2.022004 1_555
Fe6 O4 2.022004 1_455
Fe6 O14 2.036135 1_555
Fe6 O15 2.036135 1_455
Fe6 O8 2.062584 1_555
Fe6 O9 2.062584 1_455
Fe7 O2 2.022004 1_455
Fe7 O6 2.022004 1_544
Fe7 O12 2.036135 1_454
Fe7 O13 2.036135 1_545
Fe7 O10 2.062584 1_445
Fe7 O11 2.062584 1_554
O0 P7 1.546141 1_555
O1 P4 1.546141 1_555
O2 P5 1.546141 1_555
O3 P6 1.546141 1_555
O4 P4 1.546141 1_555
O5 P7 1.546141 1_555
O6 P6 1.546141 1_555
O7 P5 1.546141 1_555
O8 P3 1.580784 1_555
O9 P2 1.580784 1_555
O10 P1 1.580784 1_555
O11 P0 1.580784 1_555
O16 P4 1.556139 1_555
O17 P7 1.556139 1_555
O18 P6 1.556139 1_555
O19 P5 1.556139 1_555
O20 P3 1.539820 1_555
O21 P2 1.539820 1_555
O22 P1 1.539820 1_555
O23 P0 1.539820 1_555
O24 P2 1.539820 1_555
O25 P3 1.539820 1_555
O26 P0 1.539820 1_555
O27 P1 1.539820 1_555
O28 P1 1.512781 1_556
O29 P6 1.574383 1_545
O30 P7 1.574383 1_555
O31 P4 1.574383 1_555
O32 P2 1.512781 1_555
O33 P3 1.512781 1_555
O34 P0 1.512781 1_554
O35 P5 1.574383 1_565
