# generated using pymatgen
data_SrMg30BiO32
_symmetry_space_group_name_H-M   'P 1'
_cell_length_a   8.70086100
_cell_length_b   8.70086100
_cell_length_c   8.79667900
_cell_angle_alpha   90.00000000
_cell_angle_beta   90.00000000
_cell_angle_gamma   90.00000000
_symmetry_Int_Tables_number   1
_chemical_formula_structural   SrMg30BiO32
_chemical_formula_sum   'Sr1 Mg30 Bi1 O32'
_cell_volume   665.95242660
_cell_formula_units_Z   1
loop_
 _symmetry_equiv_pos_site_id
 _symmetry_equiv_pos_as_xyz
  1  'x, y, z'
loop_
 _atom_site_type_symbol
 _atom_site_label
 _atom_site_symmetry_multiplicity
 _atom_site_fract_x
 _atom_site_fract_y
 _atom_site_fract_z
 _atom_site_occupancy
  Sr  Sr0  1  0.00000000  0.00000000  0.00000000  1
  Mg  Mg0  1  0.00000000  0.50000000  0.00000000  1
  Mg  Mg1  1  0.00000000  0.50000000  0.50000000  1
  Mg  Mg2  1  0.50000000  0.00000000  0.00000000  1
  Mg  Mg3  1  0.50000000  0.00000000  0.50000000  1
  Mg  Mg4  1  0.50000000  0.50000000  0.00000000  1
  Mg  Mg5  1  0.50000000  0.50000000  0.50000000  1
  Mg  Mg6  1  0.00000000  0.26207300  0.24771400  1
  Mg  Mg7  1  0.00000000  0.26207300  0.75228600  1
  Mg  Mg8  1  0.00000000  0.73792700  0.24771400  1
  Mg  Mg9  1  0.00000000  0.73792700  0.75228600  1
  Mg  Mg10  1  0.50000000  0.25119300  0.24964600  1
  Mg  Mg11  1  0.50000000  0.25119300  0.75035400  1
  Mg  Mg12  1  0.50000000  0.74880700  0.24964600  1
  Mg  Mg13  1  0.50000000  0.74880700  0.75035400  1
  Mg  Mg14  1  0.26207300  0.00000000  0.24771400  1
  Mg  Mg15  1  0.26207300  0.00000000  0.75228600  1
  Mg  Mg16  1  0.25119300  0.50000000  0.24964600  1
  Mg  Mg17  1  0.25119300  0.50000000  0.75035400  1
  Mg  Mg18  1  0.73792700  0.00000000  0.24771400  1
  Mg  Mg19  1  0.73792700  0.00000000  0.75228600  1
  Mg  Mg20  1  0.74880700  0.50000000  0.24964600  1
  Mg  Mg21  1  0.74880700  0.50000000  0.75035400  1
  Mg  Mg22  1  0.25578100  0.25578100  0.00000000  1
  Mg  Mg23  1  0.25691500  0.25691500  0.50000000  1
  Mg  Mg24  1  0.25578100  0.74421900  0.00000000  1
  Mg  Mg25  1  0.25691500  0.74308500  0.50000000  1
  Mg  Mg26  1  0.74421900  0.25578100  0.00000000  1
  Mg  Mg27  1  0.74308500  0.25691500  0.50000000  1
  Mg  Mg28  1  0.74421900  0.74421900  0.00000000  1
  Mg  Mg29  1  0.74308500  0.74308500  0.50000000  1
  Bi  Bi0  1  0.00000000  0.00000000  0.50000000  1
  O  O0  1  0.27121300  0.00000000  0.00000000  1
  O  O1  1  0.27042800  0.00000000  0.50000000  1
  O  O2  1  0.25344900  0.50000000  0.00000000  1
  O  O3  1  0.25303600  0.50000000  0.50000000  1
  O  O4  1  0.72878700  0.00000000  0.00000000  1
  O  O5  1  0.72957200  0.00000000  0.50000000  1
  O  O6  1  0.74655100  0.50000000  0.00000000  1
  O  O7  1  0.74696400  0.50000000  0.50000000  1
  O  O8  1  0.24843700  0.24843700  0.25048700  1
  O  O9  1  0.24843700  0.24843700  0.74951300  1
  O  O10  1  0.24843700  0.75156300  0.25048700  1
  O  O11  1  0.24843700  0.75156300  0.74951300  1
  O  O12  1  0.75156300  0.24843700  0.25048700  1
  O  O13  1  0.75156300  0.24843700  0.74951300  1
  O  O14  1  0.75156300  0.75156300  0.25048700  1
  O  O15  1  0.75156300  0.75156300  0.74951300  1
  O  O16  1  0.00000000  0.00000000  0.25076700  1
  O  O17  1  0.00000000  0.00000000  0.74923300  1
  O  O18  1  0.00000000  0.50000000  0.25087600  1
  O  O19  1  0.00000000  0.50000000  0.74912400  1
  O  O20  1  0.50000000  0.00000000  0.25087600  1
  O  O21  1  0.50000000  0.00000000  0.74912400  1
  O  O22  1  0.50000000  0.50000000  0.25053500  1
  O  O23  1  0.50000000  0.50000000  0.74946500  1
  O  O24  1  0.00000000  0.27121300  0.00000000  1
  O  O25  1  0.00000000  0.27042800  0.50000000  1
  O  O26  1  0.00000000  0.72878700  0.00000000  1
  O  O27  1  0.00000000  0.72957200  0.50000000  1
  O  O28  1  0.50000000  0.25344900  0.00000000  1
  O  O29  1  0.50000000  0.25303600  0.50000000  1
  O  O30  1  0.50000000  0.74655100  0.00000000  1
  O  O31  1  0.50000000  0.74696400  0.50000000  1
loop_
_geom_bond_atom_site_label_1
_geom_bond_atom_site_label_2
_geom_bond_distance
_geom_bond_site_symmetry_2
Mg0 O26 1.990644 1_555
Mg0 O24 1.990644 1_555
Mg0 O2 2.205225 1_555
Mg0 O6 2.205225 1_455
Mg0 O18 2.206876 1_555
Mg0 O19 2.206876 1_554
Mg1 O25 1.997474 1_555
Mg1 O27 1.997474 1_555
Mg1 O18 2.191464 1_555
Mg1 O19 2.191464 1_555
Mg1 O3 2.201631 1_555
Mg1 O7 2.201631 1_455
Mg2 O4 1.990644 1_555
Mg2 O0 1.990644 1_555
Mg2 O28 2.205225 1_555
Mg2 O30 2.205225 1_545
Mg2 O20 2.206876 1_555
Mg2 O21 2.206876 1_554
Mg3 O5 1.997474 1_555
Mg3 O1 1.997474 1_555
Mg3 O21 2.191464 1_555
Mg3 O20 2.191464 1_555
Mg3 O29 2.201631 1_555
Mg3 O31 2.201631 1_545
Mg4 O30 2.145206 1_555
Mg4 O6 2.145206 1_555
Mg4 O28 2.145206 1_555
Mg4 O2 2.145206 1_555
Mg4 O23 2.203876 1_554
Mg4 O22 2.203876 1_555
Mg5 O31 2.148799 1_555
Mg5 O7 2.148799 1_555
Mg5 O29 2.148799 1_555
Mg5 O3 2.148799 1_555
Mg5 O22 2.194464 1_555
Mg5 O23 2.194464 1_555
Mg6 O18 2.070357 1_555
Mg6 O12 2.165007 1_455
Mg6 O8 2.165007 1_555
Mg6 O24 2.180511 1_555
Mg6 O25 2.220469 1_555
Mg6 O16 2.280419 1_555
Mg7 O19 2.070357 1_555
Mg7 O9 2.165007 1_555
Mg7 O13 2.165007 1_455
Mg7 O24 2.180511 1_556
Mg7 O25 2.220469 1_555
Mg7 O17 2.280419 1_555
Mg8 O18 2.070357 1_555
Mg8 O14 2.165007 1_455
Mg8 O10 2.165007 1_555
Mg8 O26 2.180511 1_555
Mg8 O27 2.220469 1_555
Mg8 O16 2.280419 1_565
Mg9 O19 2.070357 1_555
Mg9 O11 2.165007 1_555
Mg9 O15 2.165007 1_455
Mg9 O26 2.180511 1_556
Mg9 O27 2.220469 1_555
Mg9 O17 2.280419 1_565
Mg10 O22 2.164849 1_555
Mg10 O20 2.185622 1_555
Mg10 O8 2.188959 1_555
Mg10 O12 2.188959 1_555
Mg10 O28 2.196143 1_555
Mg10 O29 2.202342 1_555
Mg11 O23 2.164849 1_555
Mg11 O21 2.185622 1_555
Mg11 O9 2.188959 1_555
Mg11 O13 2.188959 1_555
Mg11 O28 2.196143 1_556
Mg11 O29 2.202342 1_555
Mg12 O22 2.164849 1_555
Mg12 O20 2.185622 1_565
Mg12 O14 2.188959 1_555
Mg12 O10 2.188959 1_555
Mg12 O30 2.196143 1_555
Mg12 O31 2.202342 1_555
Mg13 O23 2.164849 1_555
Mg13 O21 2.185622 1_565
Mg13 O11 2.188959 1_555
Mg13 O15 2.188959 1_555
Mg13 O30 2.196143 1_556
Mg13 O31 2.202342 1_555
Mg14 O20 2.070357 1_555
Mg14 O8 2.165007 1_555
Mg14 O10 2.165007 1_545
Mg14 O0 2.180511 1_555
Mg14 O1 2.220469 1_555
Mg14 O16 2.280419 1_555
Mg15 O21 2.070357 1_555
Mg15 O9 2.165007 1_555
Mg15 O11 2.165007 1_545
Mg15 O0 2.180511 1_556
Mg15 O1 2.220469 1_555
Mg15 O17 2.280419 1_555
Mg16 O22 2.164849 1_555
Mg16 O18 2.185622 1_555
Mg16 O8 2.188959 1_555
Mg16 O10 2.188959 1_555
Mg16 O2 2.196143 1_555
Mg16 O3 2.202342 1_555
Mg17 O23 2.164849 1_555
Mg17 O19 2.185622 1_555
Mg17 O11 2.188959 1_555
Mg17 O9 2.188959 1_555
Mg17 O2 2.196143 1_556
Mg17 O3 2.202342 1_555
Mg18 O20 2.070357 1_555
Mg18 O14 2.165007 1_545
Mg18 O12 2.165007 1_555
Mg18 O4 2.180511 1_555
Mg18 O5 2.220469 1_555
Mg18 O16 2.280419 1_655
Mg19 O21 2.070357 1_555
Mg19 O15 2.165007 1_545
Mg19 O13 2.165007 1_555
Mg19 O4 2.180511 1_556
Mg19 O5 2.220469 1_555
Mg19 O17 2.280419 1_655
Mg20 O22 2.164849 1_555
Mg20 O18 2.185622 1_655
Mg20 O14 2.188959 1_555
Mg20 O12 2.188959 1_555
Mg20 O6 2.196143 1_555
Mg20 O7 2.202342 1_555
Mg21 O23 2.164849 1_555
Mg21 O19 2.185622 1_655
Mg21 O15 2.188959 1_555
Mg21 O13 2.188959 1_555
Mg21 O6 2.196143 1_556
Mg21 O7 2.202342 1_555
Mg22 O28 2.125012 1_555
Mg22 O2 2.125012 1_555
Mg22 O8 2.205306 1_555
Mg22 O9 2.205306 1_554
Mg22 O0 2.229562 1_555
Mg22 O24 2.229562 1_555
Mg23 O3 2.115318 1_555
Mg23 O29 2.115318 1_555
Mg23 O8 2.197363 1_555
Mg23 O9 2.197363 1_555
Mg23 O1 2.238472 1_555
Mg23 O25 2.238472 1_555
Mg24 O2 2.125012 1_555
Mg24 O30 2.125012 1_555
Mg24 O10 2.205306 1_555
Mg24 O11 2.205306 1_554
Mg24 O26 2.229562 1_555
Mg24 O0 2.229562 1_565
Mg25 O31 2.115318 1_555
Mg25 O3 2.115318 1_555
Mg25 O10 2.197363 1_555
Mg25 O11 2.197363 1_555
Mg25 O1 2.238472 1_565
Mg25 O27 2.238472 1_555
Mg26 O28 2.125012 1_555
Mg26 O6 2.125012 1_555
Mg26 O13 2.205306 1_554
Mg26 O12 2.205306 1_555
Mg26 O4 2.229562 1_555
Mg26 O24 2.229562 1_655
Mg27 O29 2.115318 1_555
Mg27 O7 2.115318 1_555
Mg27 O12 2.197363 1_555
Mg27 O13 2.197363 1_555
Mg27 O25 2.238472 1_655
Mg27 O5 2.238472 1_555
Mg28 O6 2.125012 1_555
Mg28 O30 2.125012 1_555
Mg28 O15 2.205306 1_554
Mg28 O14 2.205306 1_555
Mg28 O26 2.229562 1_655
Mg28 O4 2.229562 1_565
Mg29 O31 2.115318 1_555
Mg29 O7 2.115318 1_555
Mg29 O14 2.197363 1_555
Mg29 O15 2.197363 1_555
Mg29 O5 2.238472 1_565
Mg29 O27 2.238472 1_655
Bi0 O16 2.192423 1_555
Bi0 O17 2.192423 1_555
Bi0 O27 2.352956 1_545
Bi0 O1 2.352956 1_555
Bi0 O5 2.352956 1_455
Bi0 O25 2.352956 1_555
O0 Sr0 2.359787 1_555
O4 Sr0 2.359787 1_655
O16 Sr0 2.205917 1_555
O17 Sr0 2.205917 1_556
O24 Sr0 2.359787 1_555
O26 Sr0 2.359787 1_565
