# generated using pymatgen
data_Sr2CaTeO6
_symmetry_space_group_name_H-M   'P 1'
_cell_length_a   5.93686600
_cell_length_b   5.84812900
_cell_length_c   10.14294281
_cell_angle_alpha   55.00302029
_cell_angle_beta   90.00000000
_cell_angle_gamma   90.00000000
_symmetry_Int_Tables_number   1
_chemical_formula_structural   Sr2CaTeO6
_chemical_formula_sum   'Sr4 Ca2 Te2 O12'
_cell_volume   288.48199700
_cell_formula_units_Z   2
loop_
 _symmetry_equiv_pos_site_id
 _symmetry_equiv_pos_as_xyz
  1  'x, y, z'
loop_
 _atom_site_type_symbol
 _atom_site_label
 _atom_site_symmetry_multiplicity
 _atom_site_fract_x
 _atom_site_fract_y
 _atom_site_fract_z
 _atom_site_occupancy
  Sr  Sr0  1  0.53875400  0.74139900  0.74943400  1
  Sr  Sr1  1  0.03875400  0.25860100  0.75056600  1
  Sr  Sr2  1  0.96124600  0.74139900  0.24943400  1
  Sr  Sr3  1  0.46124600  0.25860100  0.25056600  1
  Ca  Ca0  1  0.00000000  0.00000000  0.50000000  1
  Ca  Ca1  1  0.50000000  0.00000000  0.00000000  1
  Te  Te0  1  0.00000000  0.50000000  0.00000000  1
  Te  Te1  1  0.50000000  0.50000000  0.50000000  1
  O  O0  1  0.52653300  0.80811300  0.27227700  1
  O  O1  1  0.02653300  0.19188700  0.22772300  1
  O  O2  1  0.47346700  0.19188700  0.72772300  1
  O  O3  1  0.97346700  0.80811300  0.77227700  1
  O  O4  1  0.76676000  0.64049400  0.54651700  1
  O  O5  1  0.26676000  0.35950600  0.95348300  1
  O  O6  1  0.23324000  0.35950600  0.45348300  1
  O  O7  1  0.73324000  0.64049400  0.04651700  1
  O  O8  1  0.19154000  0.72770600  0.03915800  1
  O  O9  1  0.69154000  0.27229400  0.46084200  1
  O  O10  1  0.80846000  0.27229400  0.96084200  1
  O  O11  1  0.30846000  0.72770600  0.53915800  1
loop_
_geom_bond_atom_site_label_1
_geom_bond_atom_site_label_2
_geom_bond_distance
_geom_bond_site_symmetry_2
Ca0 O9 2.306869 1_455
Ca0 O11 2.306869 1_545
Ca0 O3 2.314335 1_445
Ca0 O1 2.314335 1_555
Ca0 O6 2.328612 1_555
Ca0 O4 2.328612 1_445
Ca1 O8 2.306869 1_545
Ca1 O10 2.306869 1_554
Ca1 O0 2.314335 1_545
Ca1 O2 2.314335 1_554
Ca1 O5 2.328612 1_554
Ca1 O7 2.328612 1_545
O0 Te1 1.957715 1_555
O0 Sr3 2.544387 1_565
O0 Sr2 2.640131 1_555
O1 Te0 1.957715 1_555
O1 Sr2 2.544387 1_445
O1 Sr3 2.640131 1_555
O2 Te1 1.957715 1_555
O2 Sr0 2.544387 1_545
O2 Sr1 2.640131 1_555
O3 Te0 1.957715 1_656
O3 Sr1 2.544387 1_665
O3 Sr0 2.640131 1_555
O4 Te1 1.962274 1_555
O4 Sr1 2.564538 1_655
O4 Sr0 2.794604 1_555
O4 Sr2 2.953251 1_555
O5 Te0 1.962274 1_556
O5 Sr0 2.564538 1_555
O5 Sr1 2.794604 1_555
O5 Sr3 2.953251 1_556
O6 Te1 1.962274 1_555
O6 Sr2 2.564538 1_455
O6 Sr3 2.794604 1_555
O6 Sr1 2.953251 1_555
O7 Te0 1.962274 1_655
O7 Sr3 2.564538 1_555
O7 Sr2 2.794604 1_555
O7 Sr0 2.953251 1_554
O8 Te0 1.957254 1_555
O8 Sr2 2.573040 1_455
O8 Sr3 2.817850 1_555
O8 Sr1 2.933576 1_564
O9 Te1 1.957254 1_555
O9 Sr3 2.573040 1_555
O9 Sr2 2.817850 1_555
O9 Sr0 2.933576 1_545
O10 Te0 1.957254 1_656
O10 Sr1 2.573040 1_655
O10 Sr0 2.817850 1_555
O10 Sr2 2.933576 1_546
O11 Te1 1.957254 1_555
O11 Sr0 2.573040 1_555
O11 Sr1 2.817850 1_555
O11 Sr3 2.933576 1_565
