# generated using pymatgen
data_PrMgSn
_symmetry_space_group_name_H-M   'P 1'
_cell_length_a   4.52910869
_cell_length_b   4.52910869
_cell_length_c   8.75530578
_cell_angle_alpha   104.98992870
_cell_angle_beta   104.98992870
_cell_angle_gamma   90.00000000
_symmetry_Int_Tables_number   1
_chemical_formula_structural   PrMgSn
_chemical_formula_sum   'Pr2 Mg2 Sn2'
_cell_volume   167.14992146
_cell_formula_units_Z   2
loop_
 _symmetry_equiv_pos_site_id
 _symmetry_equiv_pos_as_xyz
  1  'x, y, z'
loop_
 _atom_site_type_symbol
 _atom_site_label
 _atom_site_symmetry_multiplicity
 _atom_site_fract_x
 _atom_site_fract_y
 _atom_site_fract_z
 _atom_site_occupancy
  Pr  Pr0  1  0.66486378  0.66486378  0.32972856  1
  Pr  Pr1  1  0.33513622  0.33513622  0.67027144  1
  Mg  Mg0  1  0.50000000  0.00000000  0.00000000  1
  Mg  Mg1  1  0.00000000  0.50000000  0.00000000  1
  Sn  Sn0  1  0.86790098  0.86790098  0.73580196  1
  Sn  Sn1  1  0.13209902  0.13209902  0.26419804  1
loop_
_geom_bond_atom_site_label_1
_geom_bond_atom_site_label_2
_geom_bond_distance
_geom_bond_site_symmetry_2
Pr0 Sn1 3.246772 1_555
Pr0 Sn1 3.246775 1_565
Pr0 Sn1 3.246775 1_655
Pr0 Sn1 3.246778 1_665
Pr0 Sn0 3.308912 1_555
Pr1 Sn0 3.246772 1_555
Pr1 Sn0 3.246775 1_455
Pr1 Sn0 3.246775 1_545
Pr1 Sn0 3.246778 1_445
Pr1 Sn1 3.308912 1_555
Mg0 Sn1 3.124563 1_555
Mg0 Sn0 3.124563 1_544
Mg0 Sn0 3.124563 1_444
Mg0 Sn1 3.124563 1_655
Mg0 Mg1 3.202563 1_545
Mg0 Mg1 3.202563 1_645
Mg0 Mg1 3.202563 1_555
Mg0 Mg1 3.202563 1_655
Mg0 Pr1 3.513852 1_544
Mg0 Pr0 3.513852 1_555
Mg0 Pr0 3.513854 1_545
Mg0 Pr1 3.513854 1_554
Mg1 Sn1 3.124563 1_555
Mg1 Sn0 3.124563 1_454
Mg1 Sn0 3.124563 1_444
Mg1 Sn1 3.124563 1_565
Mg1 Pr0 3.513852 1_555
Mg1 Pr1 3.513852 1_454
Mg1 Pr1 3.513854 1_554
Mg1 Pr0 3.513854 1_455
