# generated using pymatgen
data_EuAu
_symmetry_space_group_name_H-M   'P 1'
_cell_length_a   4.72049987
_cell_length_b   5.98607364
_cell_length_c   7.72010460
_cell_angle_alpha   89.99790182
_cell_angle_beta   90.00047317
_cell_angle_gamma   89.99975124
_symmetry_Int_Tables_number   1
_chemical_formula_structural   EuAu
_chemical_formula_sum   'Eu4 Au4'
_cell_volume   218.14900159
_cell_formula_units_Z   4
loop_
 _symmetry_equiv_pos_site_id
 _symmetry_equiv_pos_as_xyz
  1  'x, y, z'
loop_
 _atom_site_type_symbol
 _atom_site_label
 _atom_site_symmetry_multiplicity
 _atom_site_fract_x
 _atom_site_fract_y
 _atom_site_fract_z
 _atom_site_occupancy
  Eu  Eu0  1  0.25000100  0.35977045  0.68291415  1
  Eu  Eu1  1  0.25000000  0.14021392  0.18285524  1
  Eu  Eu2  1  0.74999900  0.64022917  0.31711578  1
  Eu  Eu3  1  0.75000000  0.85976759  0.81710849  1
  Au  Au0  1  0.25000000  0.85611543  0.53977722  1
  Au  Au1  1  0.25000000  0.64390092  0.03978741  1
  Au  Au2  1  0.75000000  0.14388175  0.46020342  1
  Au  Au3  1  0.75000000  0.35611978  0.96023828  1
loop_
_geom_bond_atom_site_label_1
_geom_bond_atom_site_label_2
_geom_bond_distance
_geom_bond_site_symmetry_2
Au0 Au2 2.985858 1_465
Au0 Au2 2.985878 1_565
Au0 Eu0 3.169958 1_555
Au0 Eu3 3.186718 1_555
Au0 Eu3 3.186744 1_455
Au0 Eu2 3.193094 1_455
Au0 Eu2 3.193100 1_555
Au0 Eu0 3.211084 1_565
Au0 Eu1 3.237971 1_565
Au1 Au3 2.985904 1_554
Au1 Au3 2.985908 1_454
Au1 Eu1 3.169668 1_565
Au1 Eu2 3.186699 1_555
Au1 Eu2 3.186732 1_455
Au1 Eu3 3.193056 1_454
Au1 Eu3 3.193086 1_554
Au1 Eu1 3.211004 1_555
Au1 Eu0 3.237858 1_554
Au2 Eu2 3.169839 1_555
Au2 Eu1 3.186806 1_555
Au2 Eu1 3.186833 1_655
Au2 Eu0 3.193305 1_655
Au2 Eu0 3.193310 1_555
Au2 Eu2 3.210939 1_545
Au2 Eu3 3.237909 1_545
Au3 Eu3 3.170055 1_545
Au3 Eu0 3.186676 1_555
Au3 Eu0 3.186710 1_655
Au3 Eu1 3.192894 1_656
Au3 Eu1 3.192923 1_556
Au3 Eu3 3.210948 1_555
Au3 Eu2 3.237819 1_556
