# generated using pymatgen
data_K8Ti4C16O45
_symmetry_space_group_name_H-M   'P 1'
_cell_length_a   9.93296300
_cell_length_b   11.28329261
_cell_length_c   11.68679980
_cell_angle_alpha   112.28917187
_cell_angle_beta   86.77309511
_cell_angle_gamma   101.36862772
_symmetry_Int_Tables_number   1
_chemical_formula_structural   K8Ti4C16O45
_chemical_formula_sum   'K8 Ti4 C16 O45'
_cell_volume   1187.92260385
_cell_formula_units_Z   1
loop_
 _symmetry_equiv_pos_site_id
 _symmetry_equiv_pos_as_xyz
  1  'x, y, z'
loop_
 _atom_site_type_symbol
 _atom_site_label
 _atom_site_symmetry_multiplicity
 _atom_site_fract_x
 _atom_site_fract_y
 _atom_site_fract_z
 _atom_site_occupancy
  K  K0  1  0.73211100  0.46427600  0.22549100  1
  K  K1  1  0.26992500  0.55297500  0.78211000  1
  K  K2  1  0.00119900  0.00598900  0.00823400  1
  K  K3  1  0.08416700  0.37496300  0.05533600  1
  K  K4  1  0.92028400  0.63279600  0.95145800  1
  K  K5  1  0.32301700  0.20693200  0.24704200  1
  K  K6  1  0.68798100  0.79203600  0.74743900  1
  K  K7  1  0.97605500  0.09674900  0.61551600  1
  Ti  Ti0  1  0.33582400  0.80810700  0.53594900  1
  Ti  Ti1  1  0.66518600  0.19136500  0.46393400  1
  Ti  Ti2  1  0.45662900  0.89698300  0.27985200  1
  Ti  Ti3  1  0.54411600  0.10152700  0.72043100  1
  C  C0  1  0.25113500  0.70872000  0.10156000  1
  C  C1  1  0.75038200  0.29194600  0.89955800  1
  C  C2  1  0.14098400  0.76615900  0.72085000  1
  C  C3  1  0.85398600  0.23652100  0.27771600  1
  C  C4  1  0.67431800  0.83355000  0.08800500  1
  C  C5  1  0.32751100  0.16680100  0.91261400  1
  C  C6  1  0.21405900  0.84496400  0.13268300  1
  C  C7  1  0.78837900  0.15582000  0.86832200  1
  C  C8  1  0.26637500  0.53608200  0.35130500  1
  C  C9  1  0.73491000  0.46289800  0.65258200  1
  C  C10  1  0.41930500  0.56250000  0.39659200  1
  C  C11  1  0.58090500  0.43595700  0.60632700  1
  C  C12  1  0.08460400  0.85615600  0.66955500  1
  C  C13  1  0.91636700  0.14991500  0.32921000  1
  C  C14  1  0.69235600  0.77362100  0.18734600  1
  C  C15  1  0.30503400  0.22028600  0.80987600  1
  O  O0  1  0.11015300  0.85756400  0.08959900  1
  O  O1  1  0.89606000  0.14445800  0.90690200  1
  O  O2  1  0.61488200  0.81099400  0.28235100  1
  O  O3  1  0.38891900  0.19063500  0.71893900  1
  O  O4  1  0.08770300  0.74338700  0.81053400  1
  O  O5  1  0.90567300  0.26131700  0.18839700  1
  O  O6  1  0.35641300  0.71294900  0.16270800  1
  O  O7  1  0.64445700  0.28686600  0.83898100  1
  O  O8  1  0.77094600  0.69641500  0.16901300  1
  O  O9  1  0.21466900  0.28519100  0.82041700  1
  O  O10  1  0.20971500  0.63612700  0.40342700  1
  O  O11  1  0.79234600  0.36374100  0.59830000  1
  O  O12  1  0.49190700  0.48001800  0.34779500  1
  O  O13  1  0.50872000  0.51874800  0.65509300  1
  O  O14  1  0.22523100  0.18299300  0.50077400  1
  O  O15  1  0.75944600  0.88992300  0.52145500  1
  O  O16  1  0.56657500  0.88468500  0.10685700  1
  O  O17  1  0.43574400  0.11632900  0.89406900  1
  O  O18  1  0.97678000  0.89681600  0.70847000  1
  O  O19  1  0.02420800  0.11186200  0.28975500  1
  O  O20  1  0.75824700  0.82572100  0.00341100  1
  O  O21  1  0.24547500  0.17745600  0.99889800  1
  O  O22  1  0.45679700  0.67528400  0.48482400  1
  O  O23  1  0.54267400  0.32311500  0.51879000  1
  O  O24  1  0.45470600  0.93011400  0.65519500  1
  O  O25  1  0.54441000  0.07062200  0.34778900  1
  O  O26  1  0.30416500  0.94013400  0.20730100  1
  O  O27  1  0.69962500  0.05974900  0.79322700  1
  O  O28  1  0.01070400  0.58207000  0.28892000  1
  O  O29  1  0.01623800  0.36774800  0.68032500  1
  O  O30  1  0.37414200  0.87347100  0.41300600  1
  O  O31  1  0.63213500  0.12450800  0.58841500  1
  O  O32  1  0.18219900  0.60929900  0.02268800  1
  O  O33  1  0.82248100  0.39164100  0.97504200  1
  O  O34  1  0.54432600  0.17018900  0.08206700  1
  O  O35  1  0.46305600  0.82785200  0.91564000  1
  O  O36  1  0.16215100  0.88431700  0.58663500  1
  O  O37  1  0.84267800  0.12518100  0.41678900  1
  O  O38  1  0.21524400  0.42821500  0.27338400  1
  O  O39  1  0.78317800  0.56975900  0.73298800  1
  O  O40  1  0.24603600  0.72306200  0.66113100  1
  O  O41  1  0.74800800  0.27695000  0.33789500  1
  O  O42  1  0.21527400  0.29876400  0.53793800  1
  O  O43  1  0.48756900  0.47379400  0.03764200  1
  O  O44  1  0.50953300  0.52457200  0.96023200  1
loop_
_geom_bond_atom_site_label_1
_geom_bond_atom_site_label_2
_geom_bond_distance
_geom_bond_site_symmetry_2
K0 O12 2.712531 1_555
K0 O28 2.829713 1_655
K0 O33 2.866890 1_554
K0 O8 2.886105 1_555
K0 O41 2.911919 1_555
K0 O5 3.020533 1_555
K0 O34 3.315478 1_555
K0 O43 3.407831 1_555
K1 O13 2.740190 1_555
K1 O32 2.766821 1_556
K1 O40 2.830898 1_555
K1 O29 2.916855 1_555
K1 O4 2.987715 1_555
K1 O9 3.158429 1_555
K1 O42 3.164912 1_555
K1 O35 3.170914 1_555
K1 O44 3.386016 1_555
K2 O0 2.630311 1_545
K2 O1 2.668366 1_454
K2 O21 2.814600 1_554
K2 O20 2.820866 1_445
K2 O19 3.049515 1_555
K2 O5 3.144012 1_455
K2 O4 3.231590 1_544
K2 O18 3.248623 1_444
K3 O38 2.730122 1_555
K3 O5 2.740776 1_455
K3 O32 2.791656 1_555
K3 O21 2.853485 1_554
K3 O9 2.872510 1_554
K3 O33 2.876424 1_454
K3 O1 2.879487 1_454
K3 O28 3.009046 1_555
K4 O4 2.732671 1_655
K4 O39 2.740714 1_555
K4 O8 2.791204 1_556
K4 O33 2.814305 1_555
K4 O0 2.818938 1_656
K4 O20 2.822484 1_556
K4 O32 2.866130 1_656
K5 O38 2.812177 1_555
K5 O34 2.827950 1_555
K5 O26 2.835492 1_545
K5 O21 2.921087 1_554
K5 O12 3.021173 1_555
K5 O19 3.032067 1_555
K5 O14 3.160597 1_555
K6 O39 2.794367 1_555
K6 O27 2.840306 1_565
K6 O35 2.877127 1_555
K6 O18 2.959474 1_555
K6 O20 2.974662 1_556
K6 O13 3.061219 1_555
K6 O15 3.223568 1_555
K7 O15 2.761247 1_545
K7 O29 2.806946 1_655
K7 O18 2.852287 1_545
K7 O37 2.886373 1_555
K7 O14 2.921938 1_655
C0 O32 1.249315 1_555
C0 O6 1.282612 1_555
C1 O33 1.247897 1_555
C1 O7 1.280937 1_555
C2 O4 1.238100 1_555
C2 O40 1.293453 1_555
C3 O5 1.239381 1_555
C3 O41 1.293619 1_555
C4 O20 1.245067 1_555
C4 O16 1.283450 1_555
C5 O21 1.244766 1_555
C5 O17 1.283974 1_555
C6 O0 1.228663 1_555
C6 O26 1.308916 1_555
C7 O1 1.231239 1_555
C7 O27 1.308117 1_555
C8 O38 1.239422 1_555
C8 O10 1.285433 1_555
C9 O39 1.236950 1_555
C9 O11 1.285370 1_555
C10 O12 1.235767 1_555
C10 O22 1.297074 1_555
C11 O13 1.235218 1_555
C11 O23 1.294975 1_555
C12 O18 1.242974 1_455
C12 O36 1.298625 1_555
C13 O19 1.232855 1_655
C13 O37 1.308828 1_555
C14 O8 1.233637 1_555
C14 O2 1.295909 1_555
C15 O9 1.239129 1_555
C15 O3 1.294664 1_555
O2 Ti2 2.010246 1_555
O3 Ti3 2.003746 1_555
O6 Ti2 2.087849 1_555
O7 Ti3 2.102877 1_555
O10 Ti0 2.171093 1_555
O11 Ti1 2.186805 1_555
O14 O42 1.233089 1_555
O16 Ti2 2.213093 1_555
O17 Ti3 2.207365 1_555
O22 Ti0 1.999204 1_555
O23 Ti1 2.001048 1_555
O24 Ti0 1.822298 1_555
O24 Ti3 1.841532 1_565
O25 Ti1 1.809396 1_555
O25 Ti2 1.858400 1_545
O26 Ti2 1.999461 1_555
O27 Ti3 2.017723 1_555
O30 Ti2 1.802001 1_555
O30 Ti0 1.839789 1_555
O31 Ti3 1.809482 1_555
O31 Ti1 1.863953 1_555
O36 Ti0 2.037064 1_555
O37 Ti1 2.016697 1_555
O40 Ti0 2.106454 1_555
O41 Ti1 2.099623 1_555
O43 O44 1.231252 1_554
