# generated using pymatgen
data_Pr7(IO6)3
_symmetry_space_group_name_H-M   'P 1'
_cell_length_a   17.15802513
_cell_length_b   17.15802513
_cell_length_c   4.01843953
_cell_angle_alpha   90.00000000
_cell_angle_beta   90.00000000
_cell_angle_gamma   119.99999628
_symmetry_Int_Tables_number   1
_chemical_formula_structural   Pr7(IO6)3
_chemical_formula_sum   'Pr14 I6 O36'
_cell_volume   1024.52529248
_cell_formula_units_Z   2
loop_
 _symmetry_equiv_pos_site_id
 _symmetry_equiv_pos_as_xyz
  1  'x, y, z'
loop_
 _atom_site_type_symbol
 _atom_site_label
 _atom_site_symmetry_multiplicity
 _atom_site_fract_x
 _atom_site_fract_y
 _atom_site_fract_z
 _atom_site_occupancy
  Pr  Pr0  1  0.44119690  0.32370919  0.25000000  1
  Pr  Pr1  1  0.55880310  0.67629081  0.75000000  1
  Pr  Pr2  1  0.67629081  0.11748771  0.25000000  1
  Pr  Pr3  1  0.32370919  0.88251229  0.75000000  1
  Pr  Pr4  1  0.88251229  0.55880310  0.25000000  1
  Pr  Pr5  1  0.11748771  0.44119690  0.75000000  1
  Pr  Pr6  1  0.15968032  0.22219909  0.25000000  1
  Pr  Pr7  1  0.84031968  0.77780091  0.75000000  1
  Pr  Pr8  1  0.77780091  0.93748123  0.25000000  1
  Pr  Pr9  1  0.22219909  0.06251877  0.75000000  1
  Pr  Pr10  1  0.06251877  0.84031968  0.25000000  1
  Pr  Pr11  1  0.93748123  0.15968032  0.75000000  1
  Pr  Pr12  1  0.33333300  0.66666700  0.25000000  1
  Pr  Pr13  1  0.66666700  0.33333300  0.75000000  1
  I  I0  1  0.45850652  0.12374120  0.25000000  1
  I  I1  1  0.54149348  0.87625880  0.75000000  1
  I  I2  1  0.87625880  0.33476532  0.25000000  1
  I  I3  1  0.12374120  0.66523468  0.75000000  1
  I  I4  1  0.66523468  0.54149348  0.25000000  1
  I  I5  1  0.33476532  0.45850652  0.75000000  1
  O  O0  1  0.10247948  0.51055332  0.25000000  1
  O  O1  1  0.89752052  0.48944668  0.75000000  1
  O  O2  1  0.48944668  0.59192616  0.25000000  1
  O  O3  1  0.51055332  0.40807384  0.75000000  1
  O  O4  1  0.40807384  0.89752052  0.25000000  1
  O  O5  1  0.59192616  0.10247948  0.75000000  1
  O  O6  1  0.31111996  0.31304463  0.25000000  1
  O  O7  1  0.68888004  0.68695537  0.75000000  1
  O  O8  1  0.68695537  0.99807533  0.25000000  1
  O  O9  1  0.31304463  0.00192467  0.75000000  1
  O  O10  1  0.00192467  0.68888004  0.25000000  1
  O  O11  1  0.99807533  0.31111996  0.75000000  1
  O  O12  1  0.18625931  0.10473667  0.25000000  1
  O  O13  1  0.81374069  0.89526333  0.75000000  1
  O  O14  1  0.89526333  0.08152263  0.25000000  1
  O  O15  1  0.10473667  0.91847737  0.75000000  1
  O  O16  1  0.91847737  0.81374069  0.25000000  1
  O  O17  1  0.08152263  0.18625931  0.75000000  1
  O  O18  1  0.19290562  0.51614379  0.25000000  1
  O  O19  1  0.80709438  0.48385621  0.75000000  1
  O  O20  1  0.48385621  0.67676183  0.25000000  1
  O  O21  1  0.51614379  0.32323817  0.75000000  1
  O  O22  1  0.32323817  0.80709438  0.25000000  1
  O  O23  1  0.67676183  0.19290562  0.75000000  1
  O  O24  1  0.37290931  0.16257170  0.25000000  1
  O  O25  1  0.62709069  0.83742830  0.75000000  1
  O  O26  1  0.83742830  0.21033761  0.25000000  1
  O  O27  1  0.16257170  0.78966239  0.75000000  1
  O  O28  1  0.78966239  0.62709069  0.25000000  1
  O  O29  1  0.21033761  0.37290931  0.75000000  1
  O  O30  1  0.56975974  0.23675389  0.25000000  1
  O  O31  1  0.43024026  0.76324611  0.75000000  1
  O  O32  1  0.76324611  0.33300485  0.25000000  1
  O  O33  1  0.23675389  0.66699515  0.75000000  1
  O  O34  1  0.66699515  0.43024026  0.25000000  1
  O  O35  1  0.33300485  0.56975974  0.75000000  1
loop_
_geom_bond_atom_site_label_1
_geom_bond_atom_site_label_2
_geom_bond_distance
_geom_bond_site_symmetry_2
I0 O24 1.891938 1_555
I0 O30 1.924158 1_555
I1 O25 1.891938 1_555
I1 O31 1.924158 1_555
I2 O26 1.891938 1_555
I2 O32 1.924149 1_555
I3 O27 1.891938 1_555
I3 O33 1.924149 1_555
I4 O28 1.891938 1_555
I4 O34 1.924166 1_555
I5 O29 1.891938 1_555
I5 O35 1.924166 1_555
O0 O18 1.505866 1_555
O0 Pr5 2.413683 1_555
O0 Pr5 2.413683 1_554
O1 O19 1.505866 1_555
O1 Pr4 2.413683 1_555
O1 Pr4 2.413683 1_556
O2 O20 1.505866 1_555
O2 Pr1 2.413683 1_554
O2 Pr1 2.413683 1_555
O3 Pr0 2.413683 1_555
O3 Pr0 2.413683 1_556
O4 Pr3 2.413683 1_554
O4 Pr3 2.413683 1_555
O5 Pr2 2.413683 1_555
O5 Pr2 2.413683 1_556
O6 Pr0 2.146230 1_555
O6 Pr6 2.265201 1_555
O7 Pr1 2.146230 1_555
O7 Pr7 2.265201 1_555
O8 Pr2 2.146230 1_565
O8 Pr8 2.265201 1_555
O9 Pr3 2.146230 1_545
O9 Pr9 2.265201 1_555
O10 Pr4 2.146230 1_455
O10 Pr10 2.265201 1_555
O11 Pr5 2.146230 1_655
O11 Pr11 2.265201 1_555
O12 Pr6 2.277943 1_555
O12 Pr9 2.321344 1_554
O12 Pr9 2.321344 1_555
O13 Pr7 2.277943 1_555
O13 Pr8 2.321344 1_555
O13 Pr8 2.321344 1_556
O14 Pr8 2.277943 1_545
O14 Pr11 2.321344 1_554
O14 Pr11 2.321344 1_555
O15 Pr9 2.277943 1_565
O15 Pr10 2.321344 1_555
O15 Pr10 2.321344 1_556
O16 Pr10 2.277943 1_655
O16 Pr7 2.321344 1_554
O16 Pr7 2.321344 1_555
O17 Pr11 2.277943 1_455
O17 Pr6 2.321344 1_556
O17 Pr6 2.321344 1_555
O18 Pr5 2.387690 1_555
O18 Pr5 2.387690 1_554
O18 Pr12 2.500573 1_555
O19 Pr4 2.387690 1_555
O19 Pr4 2.387690 1_556
O19 Pr13 2.500573 1_555
O20 Pr1 2.387690 1_554
O20 Pr1 2.387690 1_555
O20 Pr12 2.500580 1_555
O21 O3 1.505866 1_555
O21 Pr0 2.387690 1_555
O21 Pr0 2.387690 1_556
O21 Pr13 2.500580 1_555
O22 O4 1.505866 1_555
O22 Pr3 2.387690 1_555
O22 Pr3 2.387690 1_554
O22 Pr12 2.500563 1_555
O23 O5 1.505866 1_555
O23 Pr2 2.387690 1_556
O23 Pr2 2.387690 1_555
O23 Pr13 2.500563 1_555
O24 Pr0 2.403643 1_555
O25 Pr1 2.403643 1_555
O26 Pr2 2.403643 1_555
O27 Pr3 2.403643 1_555
O28 Pr4 2.403642 1_555
O29 Pr5 2.403642 1_555
O30 Pr13 2.606210 1_554
O30 Pr13 2.606210 1_555
O31 Pr12 2.606210 1_555
O31 Pr12 2.606210 1_556
O32 Pr13 2.606210 1_554
O32 Pr13 2.606210 1_555
O33 Pr12 2.606210 1_555
O33 Pr12 2.606210 1_556
O34 Pr13 2.606210 1_554
O34 Pr13 2.606210 1_555
O35 Pr12 2.606210 1_556
O35 Pr12 2.606210 1_555
