# generated using pymatgen
data_MgSi
_symmetry_space_group_name_H-M   'P 1'
_cell_length_a   4.51659100
_cell_length_b   5.42829522
_cell_length_c   9.93711230
_cell_angle_alpha   93.62204642
_cell_angle_beta   102.57385855
_cell_angle_gamma   110.70640004
_symmetry_Int_Tables_number   1
_chemical_formula_structural   MgSi
_chemical_formula_sum   'Mg6 Si6'
_cell_volume   219.79239595
_cell_formula_units_Z   6
loop_
 _symmetry_equiv_pos_site_id
 _symmetry_equiv_pos_as_xyz
  1  'x, y, z'
loop_
 _atom_site_type_symbol
 _atom_site_label
 _atom_site_symmetry_multiplicity
 _atom_site_fract_x
 _atom_site_fract_y
 _atom_site_fract_z
 _atom_site_occupancy
  Mg  Mg0  1  0.54464000  0.67388500  0.38671100  1
  Mg  Mg1  1  0.45536000  0.32611500  0.61328900  1
  Mg  Mg2  1  0.22589600  0.62306500  0.82318500  1
  Mg  Mg3  1  0.77410400  0.37693500  0.17681500  1
  Mg  Mg4  1  0.84102500  0.97349100  0.71278700  1
  Mg  Mg5  1  0.15897500  0.02650900  0.28721300  1
  Si  Si0  1  0.42402700  0.74352700  0.11103900  1
  Si  Si1  1  0.13816800  0.24158000  0.00910800  1
  Si  Si2  1  0.83676500  0.27025400  0.44120700  1
  Si  Si3  1  0.16323500  0.72974600  0.55879300  1
  Si  Si4  1  0.57597300  0.25647300  0.88896100  1
  Si  Si5  1  0.86183200  0.75842000  0.99089200  1
loop_
_geom_bond_atom_site_label_1
_geom_bond_atom_site_label_2
_geom_bond_distance
_geom_bond_site_symmetry_2
Mg0 Si3 2.751363 1_555
Mg0 Si0 2.751478 1_555
Mg0 Si3 2.842070 1_655
Mg0 Si2 2.952596 1_555
Mg0 Si2 2.993481 1_565
Mg0 Mg5 3.085906 1_565
Mg0 Mg3 3.117787 1_555
Mg0 Mg5 3.165159 1_665
Mg0 Mg4 3.292763 1_555
Mg0 Mg5 3.292936 1_555
Mg0 Mg3 3.392368 1_455
Mg1 Si2 2.751363 1_555
Mg1 Si4 2.751478 1_555
Mg1 Si2 2.842070 1_455
Mg1 Si3 2.952596 1_555
Mg1 Si3 2.993481 1_545
Mg1 Mg4 3.085906 1_545
Mg1 Mg2 3.117787 1_555
Mg1 Mg4 3.165159 1_445
Mg1 Mg5 3.292763 1_555
Mg1 Mg4 3.292936 1_555
Mg1 Mg2 3.392368 1_655
Mg2 Si3 2.702315 1_555
Mg2 Si0 2.765116 1_556
Mg2 Si5 2.799259 1_555
Mg2 Si5 2.813137 1_455
Mg2 Si1 2.842632 1_556
Mg2 Si4 2.970970 1_555
Mg2 Mg4 3.100855 1_455
Mg2 Si4 3.142116 1_455
Mg2 Si4 3.189192 1_565
Mg2 Mg4 3.224008 1_555
Mg2 Mg4 3.317368 1_445
Mg3 Si2 2.702315 1_555
Mg3 Si4 2.765116 1_554
Mg3 Si1 2.799259 1_555
Mg3 Si1 2.813137 1_655
Mg3 Si5 2.842632 1_554
Mg3 Si0 2.970970 1_555
Mg3 Mg5 3.100855 1_655
Mg3 Si0 3.142116 1_655
Mg3 Si0 3.189192 1_545
Mg3 Mg5 3.224008 1_555
Mg3 Mg5 3.317368 1_665
Mg4 Si3 2.878479 1_655
Mg4 Si3 2.881684 1_555
Mg4 Si4 2.954775 1_565
Mg4 Si1 2.991039 1_666
Mg4 Si5 3.062881 1_555
Mg4 Si4 3.157126 1_665
Mg4 Si2 3.229105 1_565
Mg5 Si2 2.878479 1_455
Mg5 Si2 2.881684 1_555
Mg5 Si0 2.954775 1_545
Mg5 Si5 2.991039 1_444
Mg5 Si1 3.062881 1_555
Mg5 Si0 3.157126 1_445
Mg5 Si3 3.229105 1_545
Si0 Si5 2.503811 1_554
Si0 Si1 2.590596 1_555
Si0 Si5 2.591707 1_454
Si1 Si5 2.448687 1_444
Si1 Si4 2.503811 1_554
Si1 Si4 2.591707 1_454
Si2 Si3 2.457976 1_655
Si4 Si5 2.590596 1_555
