# generated using pymatgen
data_TlCr5Te8
_symmetry_space_group_name_H-M   'P 1'
_cell_length_a   4.12184258
_cell_length_b   9.47637743
_cell_length_c   10.36956169
_cell_angle_alpha   104.06281960
_cell_angle_beta   101.27229766
_cell_angle_gamma   90.24114337
_symmetry_Int_Tables_number   1
_chemical_formula_structural   TlCr5Te8
_chemical_formula_sum   'Tl1 Cr5 Te8'
_cell_volume   384.74867614
_cell_formula_units_Z   1
loop_
 _symmetry_equiv_pos_site_id
 _symmetry_equiv_pos_as_xyz
  1  'x, y, z'
loop_
 _atom_site_type_symbol
 _atom_site_label
 _atom_site_symmetry_multiplicity
 _atom_site_fract_x
 _atom_site_fract_y
 _atom_site_fract_z
 _atom_site_occupancy
  Tl  Tl0  1  0.97009100  0.98881800  0.96422100  1
  Cr  Cr0  1  0.15398000  0.48818400  0.31778100  1
  Cr  Cr1  1  0.20915100  0.82891800  0.40643200  1
  Cr  Cr2  1  0.50236700  0.49968900  0.00213100  1
  Cr  Cr3  1  0.79138200  0.17435800  0.59234500  1
  Cr  Cr4  1  0.84747600  0.51405100  0.68135400  1
  Te  Te0  1  0.07204100  0.66094500  0.13897200  1
  Te  Te1  1  0.26152800  0.34384800  0.52253500  1
  Te  Te2  1  0.32074000  0.01555200  0.65594600  1
  Te  Te3  1  0.41715800  0.66753100  0.81916800  1
  Te  Te4  1  0.58452100  0.33092500  0.18125700  1
  Te  Te5  1  0.68107700  0.98911300  0.34385900  1
  Te  Te6  1  0.73934600  0.65792200  0.47592300  1
  Te  Te7  1  0.93110200  0.34064300  0.86199500  1
loop_
_geom_bond_atom_site_label_1
_geom_bond_atom_site_label_2
_geom_bond_distance
_geom_bond_site_symmetry_2
Cr0 Te4 2.711729 1_555
Cr0 Te4 2.716738 1_455
Cr0 Te0 2.732636 1_555
Cr0 Te1 2.761124 1_555
Cr0 Te6 2.834475 1_455
Cr0 Te6 2.869951 1_555
Cr1 Te2 2.708879 1_565
Cr1 Te5 2.723537 1_455
Cr1 Te5 2.730682 1_555
Cr1 Te0 2.789152 1_555
Cr1 Te6 2.811142 1_555
Cr1 Te6 2.825149 1_455
Cr2 Te4 2.706430 1_555
Cr2 Te0 2.729069 1_555
Cr2 Te3 2.731918 1_554
Cr2 Te7 2.732792 1_554
Cr2 Te0 2.734174 1_655
Cr2 Te7 2.737840 1_454
Cr3 Te5 2.695324 1_545
Cr3 Te2 2.721749 1_655
Cr3 Te2 2.724131 1_555
Cr3 Te1 2.801782 1_555
Cr3 Te7 2.802639 1_555
Cr3 Te1 2.818926 1_655
Cr4 Te3 2.703002 1_555
Cr4 Te3 2.705674 1_655
Cr4 Te7 2.752485 1_555
Cr4 Te6 2.764175 1_555
Cr4 Te1 2.838571 1_655
Cr4 Te1 2.875442 1_555
