# generated using pymatgen
data_Ba6Ho2Al2Rh2O15
_symmetry_space_group_name_H-M   'P 1'
_cell_length_a   5.93927168
_cell_length_b   5.93927168
_cell_length_c   14.89105100
_cell_angle_alpha   90.00000000
_cell_angle_beta   90.00000000
_cell_angle_gamma   119.80333440
_symmetry_Int_Tables_number   1
_chemical_formula_structural   Ba6Ho2Al2Rh2O15
_chemical_formula_sum   'Ba6 Ho2 Al2 Rh2 O15'
_cell_volume   455.80555630
_cell_formula_units_Z   1
loop_
 _symmetry_equiv_pos_site_id
 _symmetry_equiv_pos_as_xyz
  1  'x, y, z'
loop_
 _atom_site_type_symbol
 _atom_site_label
 _atom_site_symmetry_multiplicity
 _atom_site_fract_x
 _atom_site_fract_y
 _atom_site_fract_z
 _atom_site_occupancy
  Ba  Ba0  1  0.33059900  0.66940100  0.18884500  1
  Ba  Ba1  1  0.33059900  0.66940100  0.81115500  1
  Ba  Ba2  1  0.00482000  0.99518000  0.00000000  1
  Ba  Ba3  1  0.66865300  0.33134700  0.64560600  1
  Ba  Ba4  1  0.66865300  0.33134700  0.35439400  1
  Ba  Ba5  1  0.99367200  0.00632800  0.50000000  1
  Ho  Ho0  1  0.99593100  0.00406900  0.24784400  1
  Ho  Ho1  1  0.99593100  0.00406900  0.75215600  1
  Al  Al0  1  0.65822400  0.34177600  0.11459000  1
  Al  Al1  1  0.65822400  0.34177600  0.88541000  1
  Rh  Rh0  1  0.32613800  0.67386200  0.58484900  1
  Rh  Rh1  1  0.32613800  0.67386200  0.41515100  1
  O  O0  1  0.83110500  0.65888100  0.15919200  1
  O  O1  1  0.82764600  0.17235400  0.14222600  1
  O  O2  1  0.34111900  0.16889500  0.15919200  1
  O  O3  1  0.83110500  0.65888100  0.84080800  1
  O  O4  1  0.82764600  0.17235400  0.85777400  1
  O  O5  1  0.34111900  0.16889500  0.84080800  1
  O  O6  1  0.17000100  0.82999900  0.33095500  1
  O  O7  1  0.65224200  0.82520200  0.33939800  1
  O  O8  1  0.17479800  0.34775800  0.33939800  1
  O  O9  1  0.17000100  0.82999900  0.66904500  1
  O  O10  1  0.65224200  0.82520200  0.66060200  1
  O  O11  1  0.17479800  0.34775800  0.66060200  1
  O  O12  1  0.61793600  0.38206400  0.00000000  1
  O  O13  1  0.00333800  0.52169000  0.50000000  1
  O  O14  1  0.47831000  0.99666200  0.50000000  1
loop_
_geom_bond_atom_site_label_1
_geom_bond_atom_site_label_2
_geom_bond_distance
_geom_bond_site_symmetry_2
Ba0 O6 2.683683 1_555
Ba0 O7 2.788279 1_555
Ba0 O8 2.788279 1_555
Ba0 O0 2.969095 1_455
Ba0 O2 2.969095 1_565
Ba0 O2 3.036463 1_555
Ba0 O0 3.036463 1_555
Ba0 O1 3.058441 1_565
Ba0 O1 3.058441 1_455
Ba1 O9 2.683683 1_555
Ba1 O10 2.788279 1_555
Ba1 O11 2.788279 1_555
Ba1 O3 2.969095 1_455
Ba1 O5 2.969095 1_565
Ba1 O5 3.036463 1_555
Ba1 O3 3.036463 1_555
Ba1 O4 3.058441 1_565
Ba1 O4 3.058441 1_455
Ba2 O4 2.792991 1_464
Ba2 O1 2.792991 1_465
Ba2 O0 2.936821 1_455
Ba2 O2 2.936821 1_565
Ba2 O5 2.936821 1_564
Ba2 O3 2.936821 1_454
Ba2 O12 3.197278 1_565
Ba2 O12 3.197278 1_455
Ba3 O14 2.774294 1_545
Ba3 O13 2.774294 1_655
Ba3 O11 2.967311 1_655
Ba3 O10 2.967311 1_545
Ba3 O10 2.991130 1_555
Ba3 O11 2.991130 1_555
Ba3 O9 2.998872 1_655
Ba3 O9 2.998872 1_545
Ba3 O5 3.361352 1_555
Ba3 O3 3.361352 1_555
Ba4 O14 2.774294 1_545
Ba4 O13 2.774294 1_655
Ba4 O8 2.967311 1_655
Ba4 O7 2.967311 1_545
Ba4 O7 2.991130 1_555
Ba4 O8 2.991130 1_555
Ba4 O6 2.998872 1_655
Ba4 O6 2.998872 1_545
Ba4 O2 3.361352 1_555
Ba4 O0 3.361352 1_555
Ba5 O13 2.907357 1_645
Ba5 O14 2.907357 1_645
Ba5 O8 2.969908 1_655
Ba5 O10 2.969908 1_545
Ba5 O7 2.969908 1_545
Ba5 O11 2.969908 1_655
Ba5 O13 3.032750 1_655
Ba5 O14 3.032750 1_545
Ba5 O9 3.101670 1_645
Ba5 O6 3.101670 1_645
Ho0 O6 2.175281 1_645
Ho0 O0 2.215666 1_545
Ho0 O2 2.215666 1_655
Ho0 O7 2.235708 1_545
Ho0 O8 2.235708 1_655
Ho0 O1 2.337644 1_555
Ho1 O9 2.175281 1_645
Ho1 O5 2.215666 1_655
Ho1 O3 2.215666 1_545
Ho1 O10 2.235708 1_545
Ho1 O11 2.235708 1_655
Ho1 O4 2.337644 1_555
Al0 O12 1.755879 1_555
Al0 O0 1.766407 1_555
Al0 O2 1.766407 1_555
Al0 O1 1.789108 1_555
Al1 O12 1.755879 1_556
Al1 O3 1.766407 1_555
Al1 O5 1.766407 1_555
Al1 O4 1.789108 1_555
O6 Rh1 2.036343 1_555
O7 Rh1 2.025125 1_555
O8 Rh1 2.025125 1_555
O9 Rh0 2.036343 1_555
O10 Rh0 2.025125 1_555
O11 Rh0 2.025125 1_555
O13 Rh0 2.089607 1_555
O13 Rh1 2.089607 1_555
O14 Rh0 2.089607 1_555
O14 Rh1 2.089607 1_555
