# generated using pymatgen
data_K3YbB2(PO7)2
_symmetry_space_group_name_H-M   'P 1'
_cell_length_a   12.89078400
_cell_length_b   12.89078400
_cell_length_c   12.89078430
_cell_angle_alpha   25.93443806
_cell_angle_beta   25.93443806
_cell_angle_gamma   25.93444056
_symmetry_Int_Tables_number   1
_chemical_formula_structural   K3YbB2(PO7)2
_chemical_formula_sum   'K3 Yb1 B2 P2 O14'
_cell_volume   360.87633042
_cell_formula_units_Z   1
loop_
 _symmetry_equiv_pos_site_id
 _symmetry_equiv_pos_as_xyz
  1  'x, y, z'
loop_
 _atom_site_type_symbol
 _atom_site_label
 _atom_site_symmetry_multiplicity
 _atom_site_fract_x
 _atom_site_fract_y
 _atom_site_fract_z
 _atom_site_occupancy
  K  K0  1  0.50000000  0.50000000  0.50000000  1
  K  K1  1  0.39575700  0.39575700  0.39575700  1
  K  K2  1  0.60424300  0.60424300  0.60424300  1
  Yb  Yb0  1  0.00000000  0.00000000  0.00000000  1
  B  B0  1  0.11450300  0.11450300  0.11450300  1
  B  B1  1  0.88549700  0.88549700  0.88549700  1
  P  P0  1  0.71360000  0.71360000  0.71360000  1
  P  P1  1  0.28640000  0.28640000  0.28640000  1
  O  O0  1  0.84091400  0.85491500  0.40873000  1
  O  O1  1  0.85491500  0.40873000  0.84091400  1
  O  O2  1  0.40873000  0.84091400  0.85491500  1
  O  O3  1  0.15908600  0.14508500  0.59127000  1
  O  O4  1  0.14508500  0.59127000  0.15908600  1
  O  O5  1  0.59127000  0.15908600  0.14508500  1
  O  O6  1  0.75618500  0.75618500  0.75618500  1
  O  O7  1  0.24381500  0.24381500  0.24381500  1
  O  O8  1  0.18555500  0.85185800  0.31009600  1
  O  O9  1  0.85185800  0.31009600  0.18555500  1
  O  O10  1  0.31009600  0.18555500  0.85185800  1
  O  O11  1  0.81444500  0.14814200  0.68990400  1
  O  O12  1  0.14814200  0.68990400  0.81444500  1
  O  O13  1  0.68990400  0.81444500  0.14814200  1
loop_
_geom_bond_atom_site_label_1
_geom_bond_atom_site_label_2
_geom_bond_distance
_geom_bond_site_symmetry_2
K0 O13 2.793718 1_555
K0 O10 2.793718 1_555
K0 O12 2.793718 1_555
K0 O9 2.793718 1_555
K0 O8 2.793718 1_555
K0 O11 2.793718 1_555
K1 O9 2.860143 1_555
K1 O8 2.860144 1_555
K1 O10 2.860144 1_555
K1 O1 3.039128 1_455
K1 O2 3.039128 1_554
K1 O0 3.039128 1_545
K1 O2 3.115268 1_545
K1 O1 3.115268 1_554
K1 O0 3.115268 1_455
K2 O12 2.860143 1_555
K2 O11 2.860144 1_555
K2 O13 2.860144 1_555
K2 O4 3.039128 1_655
K2 O5 3.039128 1_556
K2 O3 3.039128 1_565
K2 O5 3.115268 1_565
K2 O4 3.115268 1_556
K2 O3 3.115268 1_655
B0 O10 1.371660 1_554
B0 O8 1.371660 1_545
B0 O9 1.371660 1_455
B1 O13 1.371660 1_556
B1 O11 1.371660 1_565
B1 O12 1.371660 1_655
O0 P0 1.535282 1_555
O0 Yb0 2.281483 1_665
O1 P0 1.535282 1_555
O1 Yb0 2.281483 1_656
O2 P0 1.535282 1_555
O2 Yb0 2.281483 1_566
O3 P1 1.535282 1_555
O3 Yb0 2.281483 1_556
O4 P1 1.535282 1_555
O4 Yb0 2.281483 1_565
O5 P1 1.535282 1_555
O5 Yb0 2.281483 1_655
O6 P0 1.590619 1_555
O7 P1 1.590619 1_555
