# generated using pymatgen
data_AlSi3W2
_symmetry_space_group_name_H-M   'P 1'
_cell_length_a   3.21373065
_cell_length_b   3.21373065
_cell_length_c   8.03288629
_cell_angle_alpha   90.00000000
_cell_angle_beta   90.00000000
_cell_angle_gamma   90.00000000
_symmetry_Int_Tables_number   1
_chemical_formula_structural   AlSi3W2
_chemical_formula_sum   'Al1 Si3 W2'
_cell_volume   82.96416926
_cell_formula_units_Z   1
loop_
 _symmetry_equiv_pos_site_id
 _symmetry_equiv_pos_as_xyz
  1  'x, y, z'
loop_
 _atom_site_type_symbol
 _atom_site_label
 _atom_site_symmetry_multiplicity
 _atom_site_fract_x
 _atom_site_fract_y
 _atom_site_fract_z
 _atom_site_occupancy
  Al  Al0  1  0.50000000  0.50000000  0.16815709  1
  Si  Si0  1  0.00000000  0.00000000  0.66665179  1
  Si  Si1  1  0.00000000  -0.00000000  0.33670998  1
  Si  Si2  1  0.50000000  0.50000000  0.83578434  1
  W  W0  1  0.00000000  -0.00000000  0.98798313  1
  W  W1  1  0.50000000  0.50000000  0.50471566  1
loop_
_geom_bond_atom_site_label_1
_geom_bond_atom_site_label_2
_geom_bond_distance
_geom_bond_site_symmetry_2
Al0 Si1 2.645233 1_655
Al0 Si1 2.645233 1_665
Al0 Si1 2.645233 1_565
Al0 Si1 2.645233 1_555
Al0 Si2 2.669913 1_554
Al0 W0 2.694208 1_654
Al0 W0 2.694208 1_564
Al0 W0 2.694208 1_664
Al0 W0 2.694208 1_554
Al0 W1 2.703537 1_555
Si0 W0 2.581218 1_555
Si0 W1 2.618425 1_545
Si0 W1 2.618425 1_455
Si0 W1 2.618425 1_555
Si0 W1 2.618425 1_445
Si0 Si2 2.647619 1_555
Si0 Si2 2.647619 1_445
Si0 Si2 2.647619 1_545
Si0 Si2 2.647619 1_455
Si0 Si1 2.650385 1_555
Si1 W1 2.642986 1_455
Si1 W1 2.642986 1_555
Si1 W1 2.642986 1_445
Si1 W1 2.642986 1_545
Si1 W0 2.801283 1_554
Si2 W0 2.580460 1_565
Si2 W0 2.580460 1_555
Si2 W0 2.580460 1_655
Si2 W0 2.580460 1_665
Si2 W1 2.659437 1_555
