# generated using pymatgen
data_Ca2YCoO5
_symmetry_space_group_name_H-M   'P 1'
_cell_length_a   9.34902568
_cell_length_b   9.34902568
_cell_length_c   5.39660578
_cell_angle_alpha   73.35711626
_cell_angle_beta   73.35711626
_cell_angle_gamma   32.08749789
_symmetry_Int_Tables_number   1
_chemical_formula_structural   Ca2YCoO5
_chemical_formula_sum   'Ca4 Y2 Co2 O10'
_cell_volume   239.18104446
_cell_formula_units_Z   2
loop_
 _symmetry_equiv_pos_site_id
 _symmetry_equiv_pos_as_xyz
  1  'x, y, z'
loop_
 _atom_site_type_symbol
 _atom_site_label
 _atom_site_symmetry_multiplicity
 _atom_site_fract_x
 _atom_site_fract_y
 _atom_site_fract_z
 _atom_site_occupancy
  Ca  Ca0  1  0.91554300  0.89004900  0.11934700  1
  Ca  Ca1  1  0.60754300  0.58890700  0.42077900  1
  Ca  Ca2  1  0.10995100  0.08445700  0.88065300  1
  Ca  Ca3  1  0.41109300  0.39245700  0.57922100  1
  Y  Y0  1  0.73147500  0.76673000  0.78335300  1
  Y  Y1  1  0.23327000  0.26852500  0.21664700  1
  Co  Co0  1  0.51763000  0.48237000  0.00000000  1
  Co  Co1  1  0.01704400  0.98295600  0.50000000  1
  O  O0  1  0.28752200  0.21324900  0.81024800  1
  O  O1  1  0.78675100  0.71247800  0.18975200  1
  O  O2  1  0.39963500  0.35056600  0.17367900  1
  O  O3  1  0.64943400  0.60036500  0.82632100  1
  O  O4  1  0.89686000  0.84260800  0.57415500  1
  O  O5  1  0.15739200  0.10314000  0.42584500  1
  O  O6  1  0.77267500  0.25030600  0.23937900  1
  O  O7  1  0.74969400  0.22732500  0.76062100  1
  O  O8  1  0.26086700  0.71808500  0.76326400  1
  O  O9  1  0.28191500  0.73913300  0.23673600  1
loop_
_geom_bond_atom_site_label_1
_geom_bond_atom_site_label_2
_geom_bond_distance
_geom_bond_site_symmetry_2
Ca0 O4 2.348093 1_555
Ca0 O7 2.456179 1_564
Ca0 O8 2.474123 1_654
Ca0 O2 2.571313 1_565
Ca0 O9 2.581898 1_655
Ca0 O6 2.584317 1_565
Ca0 O1 2.667190 1_555
Ca0 O2 2.690948 1_655
Ca1 O3 2.377174 1_555
Ca1 O9 2.432031 1_555
Ca1 O6 2.447651 1_555
Ca1 O5 2.559413 1_565
Ca1 O8 2.567854 1_555
Ca1 O7 2.605664 1_555
Ca1 O1 2.637099 1_555
Ca1 O5 2.738921 1_655
Ca2 O5 2.348093 1_555
Ca2 O6 2.456179 1_456
Ca2 O9 2.474123 1_546
Ca2 O3 2.571313 1_455
Ca2 O8 2.581898 1_545
Ca2 O7 2.584317 1_455
Ca2 O0 2.667190 1_555
Ca2 O3 2.690948 1_545
Ca3 O2 2.377174 1_555
Ca3 O8 2.432031 1_555
Ca3 O7 2.447651 1_555
Ca3 O4 2.559413 1_455
Ca3 O9 2.567854 1_555
Ca3 O6 2.605664 1_555
Ca3 O0 2.637099 1_555
Ca3 O4 2.738921 1_545
Co0 O9 1.852329 1_555
Co0 O8 1.852329 1_554
Co0 O6 1.858631 1_555
Co0 O7 1.858631 1_554
Co0 O3 2.159478 1_554
Co0 O2 2.159478 1_555
Co1 O7 1.896275 1_465
Co1 O6 1.896275 1_465
Co1 O8 1.903065 1_555
Co1 O9 1.903065 1_555
Co1 O4 2.254796 1_455
Co1 O5 2.254796 1_565
O0 Y1 2.214095 1_556
O0 Y0 2.305925 1_545
O0 Y0 2.870912 1_455
O0 Y1 3.213187 1_555
O1 Y0 2.214095 1_554
O1 Y1 2.305925 1_655
O1 Y1 2.870912 1_565
O1 Y0 3.213187 1_555
O2 Y1 2.184984 1_555
O3 Y0 2.184984 1_555
O4 Y0 2.137385 1_555
O5 Y1 2.137385 1_555
