# generated using pymatgen
data_Tb3Mg
_symmetry_space_group_name_H-M   'P 1'
_cell_length_a   7.23596368
_cell_length_b   7.23596368
_cell_length_c   18.33443776
_cell_angle_alpha   90.00000000
_cell_angle_beta   90.00000000
_cell_angle_gamma   90.00000000
_symmetry_Int_Tables_number   1
_chemical_formula_structural   Tb3Mg
_chemical_formula_sum   'Tb24 Mg8'
_cell_volume   959.97595047
_cell_formula_units_Z   8
loop_
 _symmetry_equiv_pos_site_id
 _symmetry_equiv_pos_as_xyz
  1  'x, y, z'
loop_
 _atom_site_type_symbol
 _atom_site_label
 _atom_site_symmetry_multiplicity
 _atom_site_fract_x
 _atom_site_fract_y
 _atom_site_fract_z
 _atom_site_occupancy
  Tb  Tb0_0  1  0.25000000  0.25000000  0.38309564  1
  Tb  Tb0_1  1  0.25000000  0.25000000  0.88309564  1
  Tb  Tb0_2  1  0.25000000  0.75000000  0.38309564  1
  Tb  Tb0_3  1  0.25000000  0.75000000  0.88309564  1
  Tb  Tb0_4  1  0.75000000  0.25000000  0.38309564  1
  Tb  Tb0_5  1  0.75000000  0.25000000  0.88309564  1
  Tb  Tb0_6  1  0.75000000  0.75000000  0.38309564  1
  Tb  Tb0_7  1  0.75000000  0.75000000  0.88309564  1
  Tb  Tb1_0  1  0.00000000  0.00000000  0.25000000  1
  Tb  Tb1_1  1  0.00000000  0.00000000  0.75000000  1
  Tb  Tb1_2  1  0.00000000  0.50000000  0.25000000  1
  Tb  Tb1_3  1  0.00000000  0.50000000  0.75000000  1
  Tb  Tb1_4  1  0.50000000  0.00000000  0.25000000  1
  Tb  Tb1_5  1  0.50000000  0.00000000  0.75000000  1
  Tb  Tb1_6  1  0.50000000  0.50000000  0.25000000  1
  Tb  Tb1_7  1  0.50000000  0.50000000  0.75000000  1
  Tb  Tb2_0  1  0.25000000  0.25000000  0.11690435  1
  Tb  Tb2_1  1  0.25000000  0.25000000  0.61690435  1
  Tb  Tb2_2  1  0.25000000  0.75000000  0.11690435  1
  Tb  Tb2_3  1  0.25000000  0.75000000  0.61690435  1
  Tb  Tb2_4  1  0.75000000  0.25000000  0.11690435  1
  Tb  Tb2_5  1  0.75000000  0.25000000  0.61690435  1
  Tb  Tb2_6  1  0.75000000  0.75000000  0.11690435  1
  Tb  Tb2_7  1  0.75000000  0.75000000  0.61690435  1
  Mg  Mg0_0  1  0.00000000  0.00000000  0.00000000  1
  Mg  Mg0_1  1  0.00000000  0.00000000  0.50000000  1
  Mg  Mg0_2  1  0.00000000  0.50000000  0.00000000  1
  Mg  Mg0_3  1  0.00000000  0.50000000  0.50000000  1
  Mg  Mg0_4  1  0.50000000  0.00000000  0.00000000  1
  Mg  Mg0_5  1  0.50000000  0.00000000  0.50000000  1
  Mg  Mg0_6  1  0.50000000  0.50000000  0.00000000  1
  Mg  Mg0_7  1  0.50000000  0.50000000  0.50000000  1
loop_
_geom_bond_atom_site_label_1
_geom_bond_atom_site_label_2
_geom_bond_distance
_geom_bond_site_symmetry_2
Tb0_0 Tb1_4 3.535483 1_555
Tb0_0 Tb1_2 3.535483 1_555
Tb0_0 Tb1_0 3.535483 1_555
Tb0_0 Tb1_6 3.535483 1_555
Tb0_0 Tb0_2 3.617982 1_555
Tb0_0 Tb0_4 3.617982 1_555
Tb0_0 Tb0_2 3.617982 1_545
Tb0_0 Tb0_4 3.617982 1_455
Tb0_1 Tb1_3 3.535483 1_555
Tb0_1 Tb1_7 3.535483 1_555
Tb0_1 Tb1_1 3.535483 1_555
Tb0_1 Tb1_5 3.535483 1_555
Tb0_1 Tb0_5 3.617982 1_555
Tb0_1 Tb0_3 3.617982 1_555
Tb0_1 Tb0_3 3.617982 1_545
Tb0_1 Tb0_5 3.617982 1_455
Tb0_2 Tb1_2 3.535483 1_555
Tb0_2 Tb1_6 3.535483 1_555
Tb0_2 Tb1_4 3.535483 1_565
Tb0_2 Tb1_0 3.535483 1_565
Tb0_2 Tb0_6 3.617982 1_555
Tb0_2 Tb0_6 3.617982 1_455
Tb0_3 Tb1_3 3.535483 1_555
Tb0_3 Tb1_7 3.535483 1_555
Tb0_3 Tb1_1 3.535483 1_565
Tb0_3 Tb1_5 3.535483 1_565
Tb0_3 Tb0_7 3.617982 1_555
Tb0_3 Tb0_7 3.617982 1_455
Tb0_4 Tb1_4 3.535483 1_555
Tb0_4 Tb1_6 3.535483 1_555
Tb0_4 Tb1_2 3.535483 1_655
Tb0_4 Tb1_0 3.535483 1_655
Tb0_4 Tb0_6 3.617982 1_555
Tb0_4 Tb0_6 3.617982 1_545
Tb0_5 Tb1_7 3.535483 1_555
Tb0_5 Tb1_5 3.535483 1_555
Tb0_5 Tb1_1 3.535483 1_655
Tb0_5 Tb1_3 3.535483 1_655
Tb0_5 Tb0_7 3.617982 1_555
Tb0_5 Tb0_7 3.617982 1_545
Tb0_6 Tb1_6 3.535483 1_555
Tb0_6 Tb1_4 3.535483 1_565
Tb0_6 Tb1_2 3.535483 1_655
Tb0_6 Tb1_0 3.535483 1_665
Tb0_7 Tb1_7 3.535483 1_555
Tb0_7 Tb1_5 3.535483 1_565
Tb0_7 Tb1_3 3.535483 1_655
Tb0_7 Tb1_1 3.535483 1_665
Tb1_0 Tb2_0 3.535483 1_555
Tb1_0 Tb2_4 3.535483 1_455
Tb1_0 Tb2_2 3.535483 1_545
Tb1_0 Tb2_6 3.535483 1_445
Tb1_0 Tb1_2 3.617982 1_555
Tb1_0 Tb1_4 3.617982 1_555
Tb1_0 Tb1_2 3.617982 1_545
Tb1_0 Tb1_4 3.617982 1_455
Tb1_1 Tb2_1 3.535483 1_555
Tb1_1 Tb2_3 3.535483 1_545
Tb1_1 Tb2_5 3.535483 1_455
Tb1_1 Tb2_7 3.535483 1_445
Tb1_1 Tb1_3 3.617982 1_555
Tb1_1 Tb1_5 3.617982 1_555
Tb1_1 Tb1_3 3.617982 1_545
Tb1_1 Tb1_5 3.617982 1_455
Tb1_2 Tb2_2 3.535483 1_555
Tb1_2 Tb2_0 3.535483 1_555
Tb1_2 Tb2_6 3.535483 1_455
Tb1_2 Tb2_4 3.535483 1_455
Tb1_2 Tb1_6 3.617982 1_555
Tb1_2 Tb1_6 3.617982 1_455
Tb1_3 Tb2_1 3.535483 1_555
Tb1_3 Tb2_3 3.535483 1_555
Tb1_3 Tb2_5 3.535483 1_455
Tb1_3 Tb2_7 3.535483 1_455
Tb1_3 Tb1_7 3.617982 1_555
Tb1_3 Tb1_7 3.617982 1_455
Tb1_4 Tb2_0 3.535483 1_555
Tb1_4 Tb2_4 3.535483 1_555
Tb1_4 Tb2_6 3.535483 1_545
Tb1_4 Tb2_2 3.535483 1_545
Tb1_4 Tb1_6 3.617982 1_555
Tb1_4 Tb1_6 3.617982 1_545
Tb1_5 Tb2_1 3.535483 1_555
Tb1_5 Tb2_5 3.535483 1_555
Tb1_5 Tb2_7 3.535483 1_545
Tb1_5 Tb2_3 3.535483 1_545
Tb1_5 Tb1_7 3.617982 1_555
Tb1_5 Tb1_7 3.617982 1_545
Tb1_6 Tb2_2 3.535483 1_555
Tb1_6 Tb2_6 3.535483 1_555
Tb1_6 Tb2_0 3.535483 1_555
Tb1_6 Tb2_4 3.535483 1_555
Tb1_7 Tb2_1 3.535483 1_555
Tb1_7 Tb2_7 3.535483 1_555
Tb1_7 Tb2_3 3.535483 1_555
Tb1_7 Tb2_5 3.535483 1_555
Tb2_0 Tb2_4 3.617982 1_555
Tb2_0 Tb2_2 3.617982 1_555
Tb2_0 Tb2_4 3.617982 1_455
Tb2_0 Tb2_2 3.617982 1_545
Tb2_1 Tb2_3 3.617982 1_555
Tb2_1 Tb2_5 3.617982 1_555
Tb2_1 Tb2_3 3.617982 1_545
Tb2_1 Tb2_5 3.617982 1_455
Tb2_2 Tb2_6 3.617982 1_555
Tb2_2 Tb2_6 3.617982 1_455
Tb2_3 Tb2_7 3.617982 1_555
Tb2_3 Tb2_7 3.617982 1_455
Tb2_4 Tb2_6 3.617982 1_555
Tb2_4 Tb2_6 3.617982 1_545
Tb2_5 Tb2_7 3.617982 1_555
Tb2_5 Tb2_7 3.617982 1_545
Mg0_0 Tb2_0 3.337507 1_555
Mg0_0 Tb2_4 3.337507 1_455
Mg0_0 Tb2_2 3.337507 1_545
Mg0_0 Tb2_6 3.337507 1_445
Mg0_0 Tb0_1 3.337507 1_554
Mg0_0 Tb0_3 3.337507 1_544
Mg0_0 Tb0_5 3.337507 1_454
Mg0_0 Tb0_7 3.337507 1_444
Mg0_1 Tb2_1 3.337507 1_555
Mg0_1 Tb0_0 3.337507 1_555
Mg0_1 Tb2_3 3.337507 1_545
Mg0_1 Tb2_5 3.337507 1_455
Mg0_1 Tb0_2 3.337507 1_545
Mg0_1 Tb0_4 3.337507 1_455
Mg0_1 Tb0_6 3.337507 1_445
Mg0_1 Tb2_7 3.337507 1_445
Mg0_2 Tb2_2 3.337507 1_555
Mg0_2 Tb2_0 3.337507 1_555
Mg0_2 Tb2_6 3.337507 1_455
Mg0_2 Tb2_4 3.337507 1_455
Mg0_2 Tb0_3 3.337507 1_554
Mg0_2 Tb0_1 3.337507 1_554
Mg0_2 Tb0_7 3.337507 1_454
Mg0_2 Tb0_5 3.337507 1_454
Mg0_3 Tb2_1 3.337507 1_555
Mg0_3 Tb0_2 3.337507 1_555
Mg0_3 Tb2_3 3.337507 1_555
Mg0_3 Tb0_0 3.337507 1_555
Mg0_3 Tb0_6 3.337507 1_455
Mg0_3 Tb2_5 3.337507 1_455
Mg0_3 Tb2_7 3.337507 1_455
Mg0_3 Tb0_4 3.337507 1_455
Mg0_4 Tb2_0 3.337507 1_555
Mg0_4 Tb2_4 3.337507 1_555
Mg0_4 Tb2_6 3.337507 1_545
Mg0_4 Tb2_2 3.337507 1_545
Mg0_4 Tb0_5 3.337507 1_554
Mg0_4 Tb0_1 3.337507 1_554
Mg0_4 Tb0_3 3.337507 1_544
Mg0_4 Tb0_7 3.337507 1_544
Mg0_5 Tb2_1 3.337507 1_555
Mg0_5 Tb2_5 3.337507 1_555
Mg0_5 Tb0_0 3.337507 1_555
Mg0_5 Tb0_4 3.337507 1_555
Mg0_5 Tb2_3 3.337507 1_545
Mg0_5 Tb0_2 3.337507 1_545
Mg0_5 Tb2_7 3.337507 1_545
Mg0_5 Tb0_6 3.337507 1_545
Mg0_6 Tb2_6 3.337507 1_555
Mg0_6 Tb2_2 3.337507 1_555
Mg0_6 Tb2_0 3.337507 1_555
Mg0_6 Tb2_4 3.337507 1_555
Mg0_6 Tb0_3 3.337507 1_554
Mg0_6 Tb0_7 3.337507 1_554
Mg0_6 Tb0_5 3.337507 1_554
Mg0_6 Tb0_1 3.337507 1_554
Mg0_7 Tb0_6 3.337507 1_555
Mg0_7 Tb2_7 3.337507 1_555
Mg0_7 Tb2_1 3.337507 1_555
Mg0_7 Tb0_2 3.337507 1_555
Mg0_7 Tb2_3 3.337507 1_555
Mg0_7 Tb2_5 3.337507 1_555
Mg0_7 Tb0_0 3.337507 1_555
Mg0_7 Tb0_4 3.337507 1_555
