# generated using pymatgen
data_RbMg6Ti
_symmetry_space_group_name_H-M   'P 1'
_cell_length_a   6.90064900
_cell_length_b   6.90064900
_cell_length_c   4.46276500
_cell_angle_alpha   90.00000000
_cell_angle_beta   90.00000000
_cell_angle_gamma   90.00000000
_symmetry_Int_Tables_number   1
_chemical_formula_structural   RbMg6Ti
_chemical_formula_sum   'Rb1 Mg6 Ti1'
_cell_volume   212.51221295
_cell_formula_units_Z   1
loop_
 _symmetry_equiv_pos_site_id
 _symmetry_equiv_pos_as_xyz
  1  'x, y, z'
loop_
 _atom_site_type_symbol
 _atom_site_label
 _atom_site_symmetry_multiplicity
 _atom_site_fract_x
 _atom_site_fract_y
 _atom_site_fract_z
 _atom_site_occupancy
  Rb  Rb0  1  0.50000000  0.50000000  0.50000000  1
  Mg  Mg0  1  0.00000000  0.50000000  0.50000000  1
  Mg  Mg1  1  0.50000000  0.00000000  0.50000000  1
  Mg  Mg2  1  0.21457000  0.78543000  0.00000000  1
  Mg  Mg3  1  0.78543000  0.21457000  0.00000000  1
  Mg  Mg4  1  0.21457000  0.21457000  0.00000000  1
  Mg  Mg5  1  0.78543000  0.78543000  0.00000000  1
  Ti  Ti0  1  0.00000000  0.00000000  0.50000000  1
loop_
_geom_bond_atom_site_label_1
_geom_bond_atom_site_label_2
_geom_bond_distance
_geom_bond_site_symmetry_2
Mg0 Mg3 3.324303 1_456
Mg0 Mg4 3.324303 1_556
Mg0 Mg5 3.324303 1_455
Mg0 Mg2 3.324303 1_556
Mg0 Mg4 3.324303 1_555
Mg0 Mg3 3.324303 1_455
Mg0 Mg2 3.324303 1_555
Mg0 Mg5 3.324303 1_456
Mg0 Rb0 3.450324 1_555
Mg0 Ti0 3.450324 1_555
Mg0 Ti0 3.450324 1_565
Mg0 Rb0 3.450324 1_455
Mg1 Mg5 3.324303 1_545
Mg1 Mg4 3.324303 1_556
Mg1 Mg4 3.324303 1_555
Mg1 Mg2 3.324303 1_545
Mg1 Mg5 3.324303 1_546
Mg1 Mg3 3.324303 1_555
Mg1 Mg2 3.324303 1_546
Mg1 Mg3 3.324303 1_556
Mg1 Rb0 3.450324 1_555
Mg1 Ti0 3.450324 1_555
Mg1 Rb0 3.450324 1_545
Mg1 Ti0 3.450324 1_655
Mg2 Mg4 2.961345 1_565
Mg2 Mg5 2.961345 1_455
Mg2 Ti0 3.060041 1_565
Mg2 Ti0 3.060041 1_564
Mg2 Rb0 3.569051 1_555
Mg2 Rb0 3.569051 1_554
Mg3 Mg4 2.961345 1_655
Mg3 Mg5 2.961345 1_545
Mg3 Ti0 3.060041 1_655
Mg3 Ti0 3.060041 1_654
Mg3 Rb0 3.569051 1_555
Mg3 Rb0 3.569051 1_554
Mg4 Ti0 3.060041 1_554
Mg4 Ti0 3.060041 1_555
Mg4 Rb0 3.569051 1_555
Mg4 Rb0 3.569051 1_554
Mg5 Ti0 3.060041 1_665
Mg5 Ti0 3.060041 1_664
Mg5 Rb0 3.569051 1_555
Mg5 Rb0 3.569051 1_554
