# generated using pymatgen
data_Cs3AuF6
_symmetry_space_group_name_H-M   'P 1'
_cell_length_a   8.74807591
_cell_length_b   7.78642037
_cell_length_c   7.72951150
_cell_angle_alpha   75.91646837
_cell_angle_beta   101.45844863
_cell_angle_gamma   125.24484221
_symmetry_Int_Tables_number   1
_chemical_formula_structural   Cs3AuF6
_chemical_formula_sum   'Cs3 Au1 F6'
_cell_volume   415.93986824
_cell_formula_units_Z   1
loop_
 _symmetry_equiv_pos_site_id
 _symmetry_equiv_pos_as_xyz
  1  'x, y, z'
loop_
 _atom_site_type_symbol
 _atom_site_label
 _atom_site_symmetry_multiplicity
 _atom_site_fract_x
 _atom_site_fract_y
 _atom_site_fract_z
 _atom_site_occupancy
  Cs  Cs0  1  0.00000000  0.00000000  0.50000000  1
  Cs  Cs1  1  0.50000000  0.50000000  0.00000000  1
  Cs  Cs2  1  0.00000000  0.50000000  0.00000000  1
  Au  Au0  1  0.00000000  0.00000000  0.00000000  1
  F  F0  1  0.06889200  0.24785000  0.80465800  1
  F  F1  1  0.93110800  0.75215000  0.19534200  1
  F  F2  1  0.80224200  0.68204000  0.78498700  1
  F  F3  1  0.19775800  0.31796000  0.21501300  1
  F  F4  1  0.77956900  0.99142000  0.04640300  1
  F  F5  1  0.22043100  0.00858000  0.95359700  1
loop_
_geom_bond_atom_site_label_1
_geom_bond_atom_site_label_2
_geom_bond_distance
_geom_bond_site_symmetry_2
Cs0 F3 2.809162 1_555
Cs0 F2 2.809162 1_445
Cs0 F0 3.152527 1_555
Cs0 F1 3.152527 1_445
Cs1 F2 2.834803 1_554
Cs1 F3 2.834803 1_555
Cs1 F4 3.204700 1_555
Cs1 F5 3.204700 1_554
Cs1 F0 3.315438 1_554
Cs1 F1 3.315438 1_555
Cs2 F3 2.881920 1_555
Cs2 F2 2.881920 1_454
Cs2 F1 3.109283 1_455
Cs2 F0 3.109283 1_554
Cs2 F5 3.209220 1_564
Cs2 F4 3.209220 1_445
Au0 F5 1.991503 1_554
Au0 F4 1.991503 1_445
Au0 F0 1.992099 1_554
Au0 F1 1.992099 1_445
