# generated using pymatgen
data_Mg3Si4
_symmetry_space_group_name_H-M   'P 1'
_cell_length_a   5.08061300
_cell_length_b   7.01584160
_cell_length_c   7.84105098
_cell_angle_alpha   110.64169052
_cell_angle_beta   93.50265225
_cell_angle_gamma   101.31653911
_symmetry_Int_Tables_number   1
_chemical_formula_structural   Mg3Si4
_chemical_formula_sum   'Mg6 Si8'
_cell_volume   253.86733978
_cell_formula_units_Z   2
loop_
 _symmetry_equiv_pos_site_id
 _symmetry_equiv_pos_as_xyz
  1  'x, y, z'
loop_
 _atom_site_type_symbol
 _atom_site_label
 _atom_site_symmetry_multiplicity
 _atom_site_fract_x
 _atom_site_fract_y
 _atom_site_fract_z
 _atom_site_occupancy
  Mg  Mg0  1  0.90242400  0.89812000  0.42343100  1
  Mg  Mg1  1  0.38635200  0.76957000  0.64369100  1
  Mg  Mg2  1  0.67584100  0.61139600  0.94211700  1
  Mg  Mg3  1  0.37166200  0.20589500  0.96081800  1
  Mg  Mg4  1  0.79828400  0.46761500  0.51436300  1
  Mg  Mg5  1  0.26117700  0.85009200  0.11919600  1
  Si  Si0  1  0.23253100  0.37291500  0.68410100  1
  Si  Si1  1  0.82114800  0.20662400  0.77052300  1
  Si  Si2  1  0.93224300  0.46403000  0.16771100  1
  Si  Si3  1  0.45781700  0.56546900  0.25810700  1
  Si  Si4  1  0.93494800  0.88739200  0.79933700  1
  Si  Si5  1  0.22024600  0.28112900  0.34070800  1
  Si  Si6  1  0.44953000  0.09958600  0.50220800  1
  Si  Si7  1  0.80914700  0.06661800  0.12035900  1
loop_
_geom_bond_atom_site_label_1
_geom_bond_atom_site_label_2
_geom_bond_distance
_geom_bond_site_symmetry_2
Mg0 Si3 2.769459 1_555
Mg0 Si6 2.781812 1_665
Mg0 Si6 2.916918 1_565
Mg0 Si1 2.932076 1_565
Mg0 Si4 2.970269 1_555
Mg0 Si2 3.038308 1_555
Mg0 Si7 3.054880 1_565
Mg0 Si5 3.146860 1_665
Mg1 Si4 2.794139 1_455
Mg1 Si4 2.812496 1_555
Mg1 Si0 2.872964 1_555
Mg1 Si6 2.873561 1_565
Mg1 Si3 2.934102 1_555
Mg1 Si1 3.192849 1_565
Mg2 Si2 2.726049 1_556
Mg2 Si4 2.728348 1_555
Mg2 Si0 2.746441 1_555
Mg2 Si3 2.868437 1_556
Mg2 Si7 2.915564 1_566
Mg2 Si1 2.944507 1_555
Mg3 Si4 2.689897 1_445
Mg3 Si3 2.699146 1_556
Mg3 Si1 2.803338 1_555
Mg3 Si0 2.917329 1_555
Mg3 Si7 2.972298 1_556
Mg3 Si5 3.012327 1_556
Mg3 Si2 3.059895 1_556
Mg3 Si1 3.090372 1_455
Mg4 Si6 2.797480 1_555
Mg4 Si0 2.814289 1_655
Mg4 Si2 2.834882 1_555
Mg4 Si5 2.891934 1_655
Mg4 Si3 2.918007 1_555
Mg4 Si4 2.918349 1_555
Mg4 Si5 2.989640 1_555
Mg4 Si1 3.169960 1_555
Mg5 Si6 2.878215 1_565
Mg5 Si3 2.890576 1_555
Mg5 Si7 2.895842 1_565
Mg5 Si5 2.965268 1_565
Mg5 Si7 2.990669 1_465
Mg5 Si4 3.038232 1_454
Mg5 Si2 3.049834 1_455
Si0 Si1 2.441765 1_455
Si0 Si6 2.453670 1_555
Si0 Si5 2.531735 1_555
Si1 Si4 2.500102 1_545
Si1 Si6 2.529666 1_555
Si1 Si2 2.949410 1_556
Si2 Si3 2.608895 1_655
Si2 Si7 2.619224 1_555
Si2 Si3 2.710189 1_555
Si2 Si5 2.710957 1_655
Si3 Si5 2.432573 1_555
Si4 Si7 2.570233 1_566
Si5 Si7 2.470761 1_455
Si5 Si6 2.474279 1_555
