# generated using pymatgen
data_CeSiNi4
_symmetry_space_group_name_H-M   'P 1'
_cell_length_a   4.75380319
_cell_length_b   4.75370117
_cell_length_c   4.00219692
_cell_angle_alpha   90.00000000
_cell_angle_beta   90.00000000
_cell_angle_gamma   116.15755380
_symmetry_Int_Tables_number   1
_chemical_formula_structural   CeSiNi4
_chemical_formula_sum   'Ce1 Si1 Ni4'
_cell_volume   81.17965703
_cell_formula_units_Z   1
loop_
 _symmetry_equiv_pos_site_id
 _symmetry_equiv_pos_as_xyz
  1  'x, y, z'
loop_
 _atom_site_type_symbol
 _atom_site_label
 _atom_site_symmetry_multiplicity
 _atom_site_fract_x
 _atom_site_fract_y
 _atom_site_fract_z
 _atom_site_occupancy
  Ce  Ce0  1  -0.00000000  -0.00000000  0.00000000  1
  Si  Si0  1  0.50000000  0.50000000  0.50000000  1
  Ni  Ni0  1  0.33819963  0.66208269  -0.00000000  1
  Ni  Ni1  1  0.66180037  0.33791731  0.00000000  1
  Ni  Ni2  1  0.50000000  -0.00000000  0.50000000  1
  Ni  Ni3  1  -0.00000000  0.50000000  0.50000000  1
loop_
_geom_bond_atom_site_label_1
_geom_bond_atom_site_label_2
_geom_bond_distance
_geom_bond_site_symmetry_2
Ce0 Ni0 2.728044 1_545
Ce0 Ni1 2.728044 1_455
Ce0 Ni1 2.832378 1_555
Ce0 Ni0 2.832378 1_445
Ce0 Ni0 2.833582 1_555
Ce0 Ni1 2.833582 1_445
Ce0 Ni3 3.107059 1_555
Ce0 Ni3 3.107059 1_545
Ce0 Ni3 3.107059 1_554
Ce0 Ni3 3.107059 1_544
Ce0 Ni2 3.107098 1_455
Ce0 Ni2 3.107098 1_554
Ce0 Ni2 3.107098 1_555
Ce0 Ni2 3.107098 1_454
Ce0 Si0 3.212846 1_555
Ce0 Si0 3.212846 1_444
Ce0 Si0 3.212846 1_445
Ce0 Si0 3.212846 1_554
Ni0 Si0 2.390019 1_554
Ni0 Si0 2.390019 1_555
Ni0 Ni2 2.467191 1_565
Ni0 Ni2 2.467191 1_564
Ni0 Ni3 2.467931 1_554
Ni0 Ni3 2.467931 1_555
Ni0 Ni1 2.613653 1_555
Ni0 Ni1 2.886267 1_565
Ni0 Ni1 2.888797 1_455
Ni1 Si0 2.390019 1_554
Ni1 Si0 2.390019 1_555
Ni1 Ni2 2.467191 1_555
Ni1 Ni2 2.467191 1_554
Ni1 Ni3 2.467931 1_655
Ni1 Ni3 2.467931 1_654
Ni2 Si0 2.376851 1_545
Ni2 Si0 2.376851 1_555
Ni2 Ni3 2.513560 1_545
Ni2 Ni3 2.513560 1_655
Ni3 Si0 2.376902 1_555
Ni3 Si0 2.376902 1_455
