# generated using pymatgen
data_PmSe2
_symmetry_space_group_name_H-M   'P 1'
_cell_length_a   4.13769296
_cell_length_b   4.13769296
_cell_length_c   8.50722995
_cell_angle_alpha   90.00000000
_cell_angle_beta   90.00000000
_cell_angle_gamma   90.00000000
_symmetry_Int_Tables_number   1
_chemical_formula_structural   PmSe2
_chemical_formula_sum   'Pm2 Se4'
_cell_volume   145.64805615
_cell_formula_units_Z   2
loop_
 _symmetry_equiv_pos_site_id
 _symmetry_equiv_pos_as_xyz
  1  'x, y, z'
loop_
 _atom_site_type_symbol
 _atom_site_label
 _atom_site_symmetry_multiplicity
 _atom_site_fract_x
 _atom_site_fract_y
 _atom_site_fract_z
 _atom_site_occupancy
  Pm  Pm0  1  -0.00000000  0.50000000  0.72628452  1
  Pm  Pm1  1  0.50000000  -0.00000000  0.27371548  1
  Se  Se0  1  0.00000000  -0.00000000  0.00000000  1
  Se  Se1  1  0.50000000  0.50000000  0.00000000  1
  Se  Se2  1  -0.00000000  0.50000000  0.36812169  1
  Se  Se3  1  0.50000000  -0.00000000  0.63187831  1
loop_
_geom_bond_atom_site_label_1
_geom_bond_atom_site_label_2
_geom_bond_distance
_geom_bond_site_symmetry_2
Pm0 Se3 3.034020 1_555
Pm0 Se3 3.034020 1_465
Pm0 Se3 3.034020 1_565
Pm0 Se3 3.034020 1_455
Pm0 Se2 3.046974 1_555
Pm0 Se0 3.114855 1_566
Pm0 Se1 3.114855 1_556
Pm0 Se1 3.114855 1_456
Pm0 Se0 3.114855 1_556
Pm1 Se2 3.034020 1_655
Pm1 Se2 3.034020 1_645
Pm1 Se2 3.034020 1_545
Pm1 Se2 3.034020 1_555
Pm1 Se3 3.046974 1_555
Pm1 Se0 3.114855 1_655
Pm1 Se0 3.114855 1_555
Pm1 Se1 3.114855 1_555
Pm1 Se1 3.114855 1_545
Se0 Se1 2.925791 1_545
Se0 Se1 2.925791 1_555
Se0 Se1 2.925791 1_455
Se0 Se1 2.925791 1_445
