# generated using pymatgen
data_Ba2Ti3AlO7
_symmetry_space_group_name_H-M   'P 1'
_cell_length_a   3.92322000
_cell_length_b   3.97977200
_cell_length_c   11.50074600
_cell_angle_alpha   90.00000000
_cell_angle_beta   90.00000000
_cell_angle_gamma   90.00000000
_symmetry_Int_Tables_number   1
_chemical_formula_structural   Ba2Ti3AlO7
_chemical_formula_sum   'Ba2 Ti3 Al1 O7'
_cell_volume   179.56714040
_cell_formula_units_Z   1
loop_
 _symmetry_equiv_pos_site_id
 _symmetry_equiv_pos_as_xyz
  1  'x, y, z'
loop_
 _atom_site_type_symbol
 _atom_site_label
 _atom_site_symmetry_multiplicity
 _atom_site_fract_x
 _atom_site_fract_y
 _atom_site_fract_z
 _atom_site_occupancy
  Ba  Ba0  1  0.50000000  0.50000000  0.81885800  1
  Ba  Ba1  1  0.50000000  0.50000000  0.18114200  1
  Ti  Ti0  1  0.00000000  0.00000000  0.62485200  1
  Ti  Ti1  1  0.00000000  0.00000000  0.37514800  1
  Ti  Ti2  1  0.00000000  0.00000000  0.00000000  1
  Al  Al0  1  0.50000000  0.50000000  0.50000000  1
  O  O0  1  0.00000000  0.50000000  0.00000000  1
  O  O1  1  0.50000000  0.00000000  0.62123100  1
  O  O2  1  0.50000000  0.00000000  0.37876900  1
  O  O3  1  0.00000000  0.50000000  0.61952100  1
  O  O4  1  0.00000000  0.50000000  0.38047900  1
  O  O5  1  0.00000000  0.00000000  0.82816300  1
  O  O6  1  0.00000000  0.00000000  0.17183700  1
loop_
_geom_bond_atom_site_label_1
_geom_bond_atom_site_label_2
_geom_bond_distance
_geom_bond_site_symmetry_2
Ba0 O5 2.796250 1_655
Ba0 O5 2.796250 1_665
Ba0 O5 2.796250 1_555
Ba0 O5 2.796250 1_565
Ba0 O0 2.861454 1_656
Ba0 O0 2.861454 1_556
Ba0 O3 3.017214 1_555
Ba0 O3 3.017214 1_655
Ba0 O1 3.020849 1_555
Ba0 O1 3.020849 1_565
Ba1 O6 2.796250 1_555
Ba1 O6 2.796250 1_655
Ba1 O6 2.796250 1_565
Ba1 O6 2.796250 1_665
Ba1 O0 2.861454 1_655
Ba1 O0 2.861454 1_555
Ba1 O4 3.017214 1_655
Ba1 O4 3.017214 1_555
Ba1 O2 3.020849 1_555
Ba1 O2 3.020849 1_565
Al0 O3 2.395284 1_555
Al0 O3 2.395284 1_655
Al0 O4 2.395284 1_555
Al0 O4 2.395284 1_655
Al0 O1 2.429726 1_555
Al0 O1 2.429726 1_565
Al0 O2 2.429726 1_555
Al0 O2 2.429726 1_565
O0 Ti2 1.989886 1_555
O0 Ti2 1.989886 1_565
O1 Ti0 1.962052 1_555
O1 Ti0 1.962052 1_655
O2 Ti1 1.962052 1_555
O2 Ti1 1.962052 1_655
O3 Ti0 1.990830 1_555
O3 Ti0 1.990830 1_565
O4 Ti1 1.990830 1_555
O4 Ti1 1.990830 1_565
O5 Ti2 1.976254 1_556
O5 Ti0 2.338228 1_555
O6 Ti2 1.976254 1_555
O6 Ti1 2.338228 1_555
