# generated using pymatgen
data_HoBiO3
_symmetry_space_group_name_H-M   'P 1'
_cell_length_a   6.13212136
_cell_length_b   6.13212136
_cell_length_c   6.13212112
_cell_angle_alpha   58.55441475
_cell_angle_beta   58.55441475
_cell_angle_gamma   58.55441423
_symmetry_Int_Tables_number   1
_chemical_formula_structural   HoBiO3
_chemical_formula_sum   'Ho2 Bi2 O6'
_cell_volume   157.65844353
_cell_formula_units_Z   2
loop_
 _symmetry_equiv_pos_site_id
 _symmetry_equiv_pos_as_xyz
  1  'x, y, z'
loop_
 _atom_site_type_symbol
 _atom_site_label
 _atom_site_symmetry_multiplicity
 _atom_site_fract_x
 _atom_site_fract_y
 _atom_site_fract_z
 _atom_site_occupancy
  Ho  Ho0  1  0.77674600  0.77674600  0.77674600  1
  Ho  Ho1  1  0.27674600  0.27674600  0.27674600  1
  Bi  Bi0  1  0.99053900  0.99053900  0.99053900  1
  Bi  Bi1  1  0.49053900  0.49053900  0.49053900  1
  O  O0  1  0.14287000  0.58936700  0.92206900  1
  O  O1  1  0.08936700  0.64287000  0.42206900  1
  O  O2  1  0.42206900  0.08936700  0.64287000  1
  O  O3  1  0.92206900  0.14287000  0.58936700  1
  O  O4  1  0.58936700  0.92206900  0.14287000  1
  O  O5  1  0.64287000  0.42206900  0.08936700  1
loop_
_geom_bond_atom_site_label_1
_geom_bond_atom_site_label_2
_geom_bond_distance
_geom_bond_site_symmetry_2
Ho0 O1 2.224835 1_655
Ho0 O2 2.224835 1_565
Ho0 O5 2.224835 1_556
Ho0 O4 2.341468 1_556
Ho0 O0 2.341468 1_655
Ho0 O3 2.341468 1_565
Ho1 O0 2.224835 1_554
Ho1 O4 2.224835 1_545
Ho1 O3 2.224835 1_455
Ho1 O2 2.341468 1_555
Ho1 O1 2.341468 1_555
Ho1 O5 2.341468 1_555
Bi0 O3 2.317644 1_565
Bi0 O0 2.317644 1_655
Bi0 O4 2.317644 1_556
Bi0 O1 2.520658 1_656
Bi0 O5 2.520658 1_566
Bi0 O2 2.520658 1_665
Bi1 O5 2.317644 1_555
Bi1 O1 2.317644 1_555
Bi1 O2 2.317644 1_555
Bi1 O0 2.520658 1_555
Bi1 O3 2.520658 1_555
Bi1 O4 2.520658 1_555
