# generated using pymatgen
data_Nb2Co2O9
_symmetry_space_group_name_H-M   'P 1'
_cell_length_a   4.88043998
_cell_length_b   4.88043998
_cell_length_c   14.23709200
_cell_angle_alpha   90.00000000
_cell_angle_beta   90.00000000
_cell_angle_gamma   119.99999975
_symmetry_Int_Tables_number   1
_chemical_formula_structural   Nb2Co2O9
_chemical_formula_sum   'Nb4 Co4 O18'
_cell_volume   293.67696060
_cell_formula_units_Z   2
loop_
 _symmetry_equiv_pos_site_id
 _symmetry_equiv_pos_as_xyz
  1  'x, y, z'
loop_
 _atom_site_type_symbol
 _atom_site_label
 _atom_site_symmetry_multiplicity
 _atom_site_fract_x
 _atom_site_fract_y
 _atom_site_fract_z
 _atom_site_occupancy
  Nb  Nb0  1  0.00000000  0.00000000  0.65931200  1
  Nb  Nb1  1  0.00000000  0.00000000  0.15931200  1
  Nb  Nb2  1  0.00000000  0.00000000  0.84068800  1
  Nb  Nb3  1  0.00000000  0.00000000  0.34068800  1
  Co  Co0  1  0.33333300  0.66666700  0.00000000  1
  Co  Co1  1  0.33333300  0.66666700  0.50000000  1
  Co  Co2  1  0.66666700  0.33333300  0.00000000  1
  Co  Co3  1  0.66666700  0.33333300  0.50000000  1
  O  O0  1  0.64768900  0.64768900  0.57429500  1
  O  O1  1  0.00000000  0.70150600  0.75000000  1
  O  O2  1  0.64768900  0.00000000  0.42570500  1
  O  O3  1  0.35231100  0.35231100  0.42570500  1
  O  O4  1  0.00000000  0.35231100  0.57429500  1
  O  O5  1  0.70150600  0.70150600  0.25000000  1
  O  O6  1  0.00000000  0.35231100  0.92570500  1
  O  O7  1  0.35231100  0.00000000  0.57429500  1
  O  O8  1  0.35231100  0.35231100  0.07429500  1
  O  O9  1  0.00000000  0.64768900  0.42570500  1
  O  O10  1  0.64768900  0.64768900  0.92570500  1
  O  O11  1  0.64768900  0.00000000  0.07429500  1
  O  O12  1  0.70150600  0.00000000  0.75000000  1
  O  O13  1  0.29849400  0.29849400  0.75000000  1
  O  O14  1  0.29849400  0.00000000  0.25000000  1
  O  O15  1  0.00000000  0.64768900  0.07429500  1
  O  O16  1  0.00000000  0.29849400  0.25000000  1
  O  O17  1  0.35231100  0.00000000  0.92570500  1
loop_
_geom_bond_atom_site_label_1
_geom_bond_atom_site_label_2
_geom_bond_distance
_geom_bond_site_symmetry_2
Nb0 O12 1.946597 1_455
Nb0 O1 1.946597 1_545
Nb0 O13 1.946597 1_555
Nb0 O7 2.102737 1_555
Nb0 O4 2.102737 1_555
Nb0 O0 2.102737 1_445
Nb1 O16 1.946597 1_555
Nb1 O14 1.946597 1_555
Nb1 O5 1.946597 1_445
Nb1 O15 2.102737 1_545
Nb1 O11 2.102737 1_455
Nb1 O8 2.102737 1_555
Nb2 O12 1.946597 1_455
Nb2 O1 1.946597 1_545
Nb2 O13 1.946597 1_555
Nb2 O6 2.102737 1_555
Nb2 O17 2.102737 1_555
Nb2 O10 2.102737 1_445
Nb3 O14 1.946597 1_555
Nb3 O16 1.946597 1_555
Nb3 O5 1.946597 1_445
Nb3 O9 2.102737 1_545
Nb3 O2 2.102737 1_455
Nb3 O3 2.102737 1_555
Co0 O15 1.903482 1_555
Co0 O17 1.903482 1_564
Co0 O11 1.903483 1_565
Co0 O6 1.903483 1_554
Co0 O10 1.903486 1_554
Co0 O8 1.903486 1_555
Co1 O9 1.903482 1_555
Co1 O7 1.903482 1_565
Co1 O2 1.903483 1_565
Co1 O4 1.903483 1_555
Co1 O0 1.903486 1_555
Co1 O3 1.903486 1_555
Co2 O11 1.903482 1_555
Co2 O6 1.903482 1_654
Co2 O17 1.903483 1_554
Co2 O15 1.903483 1_655
Co2 O10 1.903486 1_554
Co2 O8 1.903486 1_555
Co3 O2 1.903482 1_555
Co3 O4 1.903482 1_655
Co3 O9 1.903483 1_655
Co3 O7 1.903483 1_555
Co3 O0 1.903486 1_555
Co3 O3 1.903486 1_555
