# generated using pymatgen
data_LiTi2Zn2(PO5)2
_symmetry_space_group_name_H-M   'P 1'
_cell_length_a   5.75704338
_cell_length_b   7.07303545
_cell_length_c   8.30391433
_cell_angle_alpha   90.47562249
_cell_angle_beta   39.99523235
_cell_angle_gamma   106.52151136
_symmetry_Int_Tables_number   1
_chemical_formula_structural   LiTi2Zn2(PO5)2
_chemical_formula_sum   'Li1 Ti2 Zn2 P2 O10'
_cell_volume   195.93448269
_cell_formula_units_Z   1
loop_
 _symmetry_equiv_pos_site_id
 _symmetry_equiv_pos_as_xyz
  1  'x, y, z'
loop_
 _atom_site_type_symbol
 _atom_site_label
 _atom_site_symmetry_multiplicity
 _atom_site_fract_x
 _atom_site_fract_y
 _atom_site_fract_z
 _atom_site_occupancy
  Li  Li0  1  0.06247500  0.78485400  0.01992100  1
  Ti  Ti0  1  0.43462300  0.50466500  0.54896700  1
  Ti  Ti1  1  0.54397600  0.00501400  0.47055800  1
  Zn  Zn0  1  0.40870500  0.27123100  0.25196900  1
  Zn  Zn1  1  0.73366900  0.74970200  0.69706800  1
  P  P0  1  0.54762300  0.24844200  0.82114500  1
  P  P1  1  0.43278100  0.75143600  0.16746900  1
  O  O0  1  0.79112400  0.16698500  0.58008400  1
  O  O1  1  0.50290000  0.43459600  0.76564100  1
  O  O2  1  0.33510000  0.90428200  0.33058800  1
  O  O3  1  0.48316100  0.59129400  0.25693600  1
  O  O4  1  0.10613800  0.65612800  0.21065400  1
  O  O5  1  0.83855600  0.87120500  0.86316300  1
  O  O6  1  0.77151500  0.32937500  0.86868000  1
  O  O7  1  0.13267200  0.06502500  0.07400500  1
  O  O8  1  0.43476000  0.75627600  0.66746200  1
  O  O9  1  0.51357900  0.26202300  0.42322400  1
loop_
_geom_bond_atom_site_label_1
_geom_bond_atom_site_label_2
_geom_bond_distance
_geom_bond_site_symmetry_2
Li0 O8 1.955972 1_554
Li0 O7 2.024803 1_565
Li0 O4 2.040785 1_555
Li0 O3 2.064335 1_455
Li0 O5 2.600263 1_454
O0 P0 1.563577 1_555
O0 Zn0 2.075571 1_655
O0 Ti1 2.280898 1_555
O1 P0 1.548244 1_555
O1 Zn1 2.057793 1_555
O1 Ti0 2.201505 1_555
O2 P1 1.572921 1_555
O2 Zn1 2.050019 1_455
O2 Ti1 2.223751 1_565
O2 Zn0 2.514128 1_565
O3 P1 1.565255 1_555
O3 Zn0 2.187222 1_555
O3 Ti0 2.285426 1_555
O4 P1 1.539182 1_555
O4 Ti0 2.244824 1_455
O5 P1 1.557418 1_556
O5 Zn1 1.991665 1_555
O5 Ti1 2.365624 1_665
O6 P0 1.581474 1_555
O6 Zn0 2.002317 1_556
O6 Ti0 2.234482 1_655
O7 P0 1.547818 1_554
O7 Ti1 2.148317 1_455
O8 Zn1 1.928153 1_555
O8 Ti1 2.001864 1_565
O8 Ti0 2.026496 1_555
O9 Zn0 1.931465 1_555
O9 Ti1 1.946232 1_555
O9 Ti0 1.982171 1_555
