# generated using pymatgen
data_CoGe
_symmetry_space_group_name_H-M   'P 1'
_cell_length_a   6.54212871
_cell_length_b   6.15539551
_cell_length_c   3.79803526
_cell_angle_alpha   51.84568068
_cell_angle_beta   106.93265570
_cell_angle_gamma   109.99523107
_symmetry_Int_Tables_number   1
_chemical_formula_structural   CoGe
_chemical_formula_sum   'Co4 Ge4'
_cell_volume   112.35398106
_cell_formula_units_Z   4
loop_
 _symmetry_equiv_pos_site_id
 _symmetry_equiv_pos_as_xyz
  1  'x, y, z'
loop_
 _atom_site_type_symbol
 _atom_site_label
 _atom_site_symmetry_multiplicity
 _atom_site_fract_x
 _atom_site_fract_y
 _atom_site_fract_z
 _atom_site_occupancy
  Co  Co0  1  0.90879100  0.73184800  0.06632600  1
  Co  Co1  1  0.98083000  0.03141900  0.30327200  1
  Co  Co2  1  0.04021500  0.52018100  0.84315100  1
  Co  Co3  1  0.55926300  0.12934500  0.99386600  1
  Ge  Ge0  1  0.22727800  0.30290300  0.65523500  1
  Ge  Ge1  1  0.65578600  0.65754700  0.51462000  1
  Ge  Ge2  1  0.79497100  0.22196000  0.51938600  1
  Ge  Ge3  1  0.33286800  0.90479800  0.60414400  1
loop_
_geom_bond_atom_site_label_1
_geom_bond_atom_site_label_2
_geom_bond_distance
_geom_bond_site_symmetry_2
Co0 Co1 2.370602 1_564
Co0 Co1 2.375125 1_565
Co0 Co2 2.383392 1_655
Co0 Co2 2.389639 1_654
Co0 Ge2 2.416862 1_555
Co0 Ge1 2.446558 1_554
Co0 Ge1 2.451436 1_555
Co0 Ge2 2.619749 1_564
Co1 Co2 2.314343 1_654
Co1 Ge3 2.410726 1_645
Co1 Ge1 2.414014 1_545
Co1 Ge2 2.504022 1_554
Co1 Ge2 2.504766 1_555
Co1 Co2 2.580249 1_645
Co1 Ge0 2.614752 1_654
Co1 Ge0 2.615541 1_655
Co1 Co3 2.779281 1_554
Co2 Ge3 2.313377 1_555
Co2 Ge0 2.569684 1_555
Co2 Ge0 2.573582 1_556
Co2 Ge1 2.630551 1_455
Co2 Ge2 2.661119 1_455
Co2 Ge2 2.664809 1_456
Co3 Ge2 2.387160 1_556
Co3 Ge2 2.387162 1_555
Co3 Ge0 2.403033 1_555
Co3 Ge3 2.473434 1_546
Co3 Ge3 2.479071 1_545
Co3 Ge1 2.484785 1_546
Co3 Ge1 2.497230 1_555
Ge0 Ge2 2.648994 1_455
Ge0 Ge1 2.855851 1_555
