# generated using pymatgen
data_MgTe4Pb6(BrO3)4
_symmetry_space_group_name_H-M   'P 1'
_cell_length_a   5.84333690
_cell_length_b   9.50071862
_cell_length_c   11.36397908
_cell_angle_alpha   106.34528622
_cell_angle_beta   90.00000000
_cell_angle_gamma   107.90988484
_symmetry_Int_Tables_number   1
_chemical_formula_structural   MgTe4Pb6(BrO3)4
_chemical_formula_sum   'Mg1 Te4 Pb6 Br4 O12'
_cell_volume   573.45388313
_cell_formula_units_Z   1
loop_
 _symmetry_equiv_pos_site_id
 _symmetry_equiv_pos_as_xyz
  1  'x, y, z'
loop_
 _atom_site_type_symbol
 _atom_site_label
 _atom_site_symmetry_multiplicity
 _atom_site_fract_x
 _atom_site_fract_y
 _atom_site_fract_z
 _atom_site_occupancy
  Mg  Mg0  1  0.33977474  -0.00000000  0.50000000  1
  Te  Te0  1  0.60077223  0.19531508  0.05150280  1
  Te  Te1  1  0.40545615  0.80468492  0.94849720  1
  Te  Te2  1  0.84917590  0.73663373  0.41932323  1
  Te  Te3  1  0.11254117  0.26336627  0.58067677  1
  Pb  Pb0  1  0.26059344  0.49911036  0.20705345  1
  Pb  Pb1  1  0.76148408  0.50088964  0.79294655  1
  Pb  Pb2  1  0.03145612  0.06451483  0.19943949  1
  Pb  Pb3  1  0.96694129  0.93548517  0.80056051  1
  Pb  Pb4  1  0.69297597  0.34997612  0.39920954  1
  Pb  Pb5  1  0.34300085  0.65002388  0.60079046  1
  Br  Br0  1  0.81439309  0.63474272  0.10528644  1
  Br  Br1  1  0.17965137  0.36525728  0.89471356  1
  Br  Br2  1  0.49038591  0.91498536  0.28971224  1
  Br  Br3  1  0.57540155  0.08501464  0.71028776  1
  O  O0  1  0.86046567  0.26010185  0.18438898  1
  O  O1  1  0.39775078  0.26258131  0.17934280  1
  O  O2  1  0.13517047  0.73741869  0.82065720  1
  O  O3  1  0.60036482  0.73989815  0.81561102  1
  O  O4  1  0.71828081  -0.00000000  0.00000000  1
  O  O5  1  0.29713501  -0.00000000  0.00000000  1
  O  O6  1  0.81416326  0.76273512  0.59126271  1
  O  O7  1  0.05142914  0.23726488  0.40873729  1
  O  O8  1  0.01190295  0.58279566  0.39078948  1
  O  O9  1  0.52782414  0.56625534  0.38772021  1
  O  O10  1  0.96156880  0.43374466  0.61227979  1
  O  O11  1  0.42910729  0.41720434  0.60921052  1
loop_
_geom_bond_atom_site_label_1
_geom_bond_atom_site_label_2
_geom_bond_distance
_geom_bond_site_symmetry_2
Mg0 Te2 3.101071 1_445
Mg0 Te3 3.101075 1_555
Br2 Mg0 2.547233 1_565
Br2 Pb2 3.335332 1_665
Br3 Mg0 2.547236 1_555
Br3 Pb3 3.335328 1_545
O0 Te0 1.965809 1_555
O0 Pb2 2.408596 1_655
O0 Pb4 2.643333 1_555
O0 Pb0 2.663590 1_655
O1 Te0 1.967245 1_555
O1 Pb2 2.437036 1_555
O1 Pb0 2.549665 1_555
O1 Pb4 2.803488 1_555
O2 Te1 1.967236 1_555
O2 Pb3 2.437040 1_455
O2 Pb1 2.549665 1_455
O2 Pb5 2.803488 1_555
O3 Te1 1.965817 1_555
O3 Pb3 2.408592 1_555
O3 Pb5 2.643333 1_555
O3 Pb1 2.663590 1_555
O4 Te0 2.104703 1_555
O4 Te1 2.104706 1_544
O4 Pb3 2.718357 1_544
O4 Pb2 2.718357 1_655
O5 Te1 2.073080 1_544
O5 Te0 2.073083 1_555
O5 Pb3 2.779538 1_444
O5 Pb2 2.779538 1_555
O6 Te2 1.918235 1_555
O6 Pb3 2.459553 1_555
O6 Pb5 2.643920 1_555
O7 Te3 1.918233 1_555
O7 Pb2 2.459552 1_555
O7 Pb4 2.643930 1_455
O8 Te2 1.932227 1_455
O8 Pb4 2.441044 1_455
O8 Pb0 2.622925 1_555
O8 Pb5 2.868493 1_555
O9 Te2 2.019545 1_555
O9 Pb0 2.389695 1_555
O9 Pb4 2.557576 1_555
O9 Pb5 2.665818 1_555
O10 Te3 2.019541 1_655
O10 Pb1 2.389692 1_555
O10 Pb5 2.557579 1_655
O10 Pb4 2.665821 1_555
O11 Te3 1.932231 1_555
O11 Pb5 2.441042 1_555
O11 Pb1 2.622928 1_555
O11 Pb4 2.868490 1_555
