# generated using pymatgen
data_Ca3Ga2(SnO4)3
_symmetry_space_group_name_H-M   'P 1'
_cell_length_a   11.13986755
_cell_length_b   11.13986755
_cell_length_c   11.13986755
_cell_angle_alpha   109.79781667
_cell_angle_beta   109.79781667
_cell_angle_gamma   108.81998478
_symmetry_Int_Tables_number   1
_chemical_formula_structural   Ca3Ga2(SnO4)3
_chemical_formula_sum   'Ca12 Ga8 Sn12 O48'
_cell_volume   1064.08462043
_cell_formula_units_Z   4
loop_
 _symmetry_equiv_pos_site_id
 _symmetry_equiv_pos_as_xyz
  1  'x, y, z'
loop_
 _atom_site_type_symbol
 _atom_site_label
 _atom_site_symmetry_multiplicity
 _atom_site_fract_x
 _atom_site_fract_y
 _atom_site_fract_z
 _atom_site_occupancy
  Ca  Ca0  1  0.50000000  0.00000000  0.50000000  1
  Ca  Ca1  1  0.75000000  0.75000000  0.00000000  1
  Ca  Ca2  1  0.75209200  0.37500000  0.87709200  1
  Ca  Ca3  1  0.49790800  0.87500000  0.12290800  1
  Ca  Ca4  1  0.12500000  0.74790800  0.12290800  1
  Ca  Ca5  1  0.62500000  0.00209200  0.87709200  1
  Ca  Ca6  1  0.25000000  0.25000000  0.00000000  1
  Ca  Ca7  1  0.00000000  0.50000000  0.50000000  1
  Ca  Ca8  1  0.99790800  0.87500000  0.62290800  1
  Ca  Ca9  1  0.25209200  0.37500000  0.37709200  1
  Ca  Ca10  1  0.62500000  0.50209200  0.37709200  1
  Ca  Ca11  1  0.12500000  0.24790800  0.62290800  1
  Ga  Ga0  1  0.00139400  0.37500000  0.12639400  1
  Ga  Ga1  1  0.24860600  0.87500000  0.87360600  1
  Ga  Ga2  1  0.12500000  0.99860600  0.37360600  1
  Ga  Ga3  1  0.62500000  0.75139400  0.62639400  1
  Ga  Ga4  1  0.74860600  0.87500000  0.37360600  1
  Ga  Ga5  1  0.50139400  0.37500000  0.62639400  1
  Ga  Ga6  1  0.62500000  0.25139400  0.12639400  1
  Ga  Ga7  1  0.12500000  0.49860600  0.87360600  1
  Sn  Sn0  1  0.37500000  0.12500000  0.75000000  1
  Sn  Sn1  1  0.37500000  0.62500000  0.25000000  1
  Sn  Sn2  1  0.87500000  0.62500000  0.75000000  1
  Sn  Sn3  1  0.87500000  0.12500000  0.25000000  1
  Sn  Sn4  1  0.87500000  0.12500000  0.75000000  1
  Sn  Sn5  1  0.87500000  0.62500000  0.25000000  1
  Sn  Sn6  1  0.37500000  0.12500000  0.25000000  1
  Sn  Sn7  1  0.37500000  0.62500000  0.75000000  1
  Sn  Sn8  1  0.75000000  0.25000000  0.50000000  1
  Sn  Sn9  1  0.50000000  0.50000000  0.00000000  1
  Sn  Sn10  1  0.00000000  0.00000000  0.00000000  1
  Sn  Sn11  1  0.25000000  0.75000000  0.50000000  1
  O  O0  1  0.40999800  0.94981100  0.65554100  1
  O  O1  1  0.29427000  0.75445800  0.34445900  1
  O  O2  1  0.95573000  0.80018900  0.96018700  1
  O  O3  1  0.84000200  0.99554200  0.03981300  1
  O  O4  1  0.69585900  0.52271600  0.77024700  1
  O  O5  1  0.49753200  0.22728400  0.67314300  1
  O  O6  1  0.55414100  0.82438800  0.32685700  1
  O  O7  1  0.75246800  0.92561200  0.22975300  1
  O  O8  1  0.27678300  0.64378700  0.06682900  1
  O  O9  1  0.97321700  0.54004600  0.86700400  1
  O  O10  1  0.57695800  0.20995400  0.93317100  1
  O  O11  1  0.67304200  0.10621300  0.13299600  1
  O  O12  1  0.34000200  0.30018900  0.84445900  1
  O  O13  1  0.45573000  0.49554200  0.15554100  1
  O  O14  1  0.79427000  0.44981100  0.53981300  1
  O  O15  1  0.90999800  0.25445800  0.46018700  1
  O  O16  1  0.05414100  0.72728400  0.72975300  1
  O  O17  1  0.25246800  0.02271600  0.82685700  1
  O  O18  1  0.19585900  0.42561200  0.17314300  1
  O  O19  1  0.99753200  0.32438800  0.27024700  1
  O  O20  1  0.47321700  0.60621300  0.43317100  1
  O  O21  1  0.77678300  0.70995400  0.63299600  1
  O  O22  1  0.17304200  0.04004600  0.56682900  1
  O  O23  1  0.07695800  0.14378700  0.36700400  1
  O  O24  1  0.89378700  0.02678300  0.56682900  1
  O  O25  1  0.79004600  0.72321700  0.36700400  1
  O  O26  1  0.45995400  0.32695800  0.43317100  1
  O  O27  1  0.35621300  0.42304200  0.63299600  1
  O  O28  1  0.19981100  0.15999800  0.15554100  1
  O  O29  1  0.00445800  0.04427000  0.84445900  1
  O  O30  1  0.05018900  0.70573000  0.46018700  1
  O  O31  1  0.24554200  0.59000200  0.53981300  1
  O  O32  1  0.77271600  0.44585900  0.27024700  1
  O  O33  1  0.47728400  0.24753200  0.17314300  1
  O  O34  1  0.07438800  0.30414100  0.82685700  1
  O  O35  1  0.17561200  0.50246800  0.72975300  1
  O  O36  1  0.85621300  0.22321700  0.93317100  1
  O  O37  1  0.95995400  0.52678300  0.13299600  1
  O  O38  1  0.29004600  0.92304200  0.06682900  1
  O  O39  1  0.39378700  0.82695800  0.86700400  1
  O  O40  1  0.55018900  0.09000200  0.34445900  1
  O  O41  1  0.74554200  0.20573000  0.65554100  1
  O  O42  1  0.69981100  0.54427000  0.03981300  1
  O  O43  1  0.50445800  0.65999800  0.96018700  1
  O  O44  1  0.97728400  0.80414100  0.22975300  1
  O  O45  1  0.27271600  0.00246800  0.32685700  1
  O  O46  1  0.67561200  0.94585900  0.67314300  1
  O  O47  1  0.57438800  0.74753200  0.77024700  1
loop_
_geom_bond_atom_site_label_1
_geom_bond_atom_site_label_2
_geom_bond_distance
_geom_bond_site_symmetry_2
Ca0 O1 2.406540 1_545
Ca0 O41 2.406540 1_555
Ca0 O40 2.406547 1_555
Ca0 O0 2.406547 1_545
Ca0 O45 2.627600 1_555
Ca0 O5 2.627600 1_555
Ca0 O6 2.627607 1_545
Ca0 O46 2.627607 1_545
Ca1 O3 2.406536 1_555
Ca1 O43 2.406536 1_554
Ca1 O2 2.406547 1_554
Ca1 O42 2.406547 1_555
Ca1 O44 2.627607 1_555
Ca1 O4 2.627607 1_554
Ca1 O47 2.627613 1_554
Ca1 O7 2.627613 1_555
Ca2 O5 2.450222 1_555
Ca2 O4 2.450229 1_555
Ca2 O37 2.466699 1_556
Ca2 O36 2.466699 1_555
Ca2 O41 2.507776 1_555
Ca2 O42 2.507782 1_556
Ca2 O10 2.620366 1_555
Ca2 O9 2.620366 1_555
Ca3 O7 2.450219 1_555
Ca3 O6 2.450229 1_555
Ca3 O38 2.466699 1_555
Ca3 O39 2.466699 1_554
Ca3 O40 2.507782 1_565
Ca3 O43 2.507788 1_554
Ca3 O11 2.620366 1_565
Ca3 O8 2.620366 1_555
Ca4 O45 2.450222 1_565
Ca4 O44 2.450229 1_455
Ca4 O8 2.466699 1_555
Ca4 O9 2.466699 1_454
Ca4 O1 2.507776 1_555
Ca4 O2 2.507782 1_454
Ca4 O37 2.620366 1_455
Ca4 O38 2.620366 1_555
Ca5 O47 2.450219 1_545
Ca5 O46 2.450229 1_545
Ca5 O11 2.466699 1_556
Ca5 O10 2.466699 1_555
Ca5 O0 2.507782 1_545
Ca5 O3 2.507788 1_546
Ca5 O36 2.620366 1_555
Ca5 O39 2.620366 1_545
Ca6 O13 2.406540 1_555
Ca6 O29 2.406540 1_554
Ca6 O28 2.406547 1_555
Ca6 O12 2.406547 1_554
Ca6 O33 2.627600 1_555
Ca6 O17 2.627600 1_554
Ca6 O18 2.627607 1_555
Ca6 O34 2.627607 1_554
Ca7 O15 2.406536 1_455
Ca7 O31 2.406536 1_555
Ca7 O30 2.406547 1_555
Ca7 O14 2.406547 1_455
Ca7 O16 2.627607 1_555
Ca7 O32 2.627607 1_455
Ca7 O35 2.627613 1_555
Ca7 O19 2.627613 1_455
Ca8 O17 2.450222 1_665
Ca8 O16 2.450229 1_655
Ca8 O25 2.466699 1_555
Ca8 O24 2.466699 1_565
Ca8 O29 2.507776 1_665
Ca8 O30 2.507782 1_655
Ca8 O22 2.620366 1_665
Ca8 O21 2.620366 1_555
Ca9 O19 2.450219 1_455
Ca9 O18 2.450229 1_555
Ca9 O26 2.466699 1_555
Ca9 O27 2.466699 1_555
Ca9 O28 2.507782 1_555
Ca9 O31 2.507788 1_555
Ca9 O23 2.620366 1_555
Ca9 O20 2.620366 1_555
Ca10 O33 2.450222 1_555
Ca10 O32 2.450229 1_555
Ca10 O20 2.466699 1_555
Ca10 O21 2.466699 1_555
Ca10 O13 2.507776 1_555
Ca10 O14 2.507782 1_555
Ca10 O26 2.620366 1_555
Ca10 O25 2.620366 1_555
Ca11 O35 2.450219 1_555
Ca11 O34 2.450229 1_555
Ca11 O22 2.466699 1_555
Ca11 O23 2.466699 1_555
Ca11 O12 2.507782 1_555
Ca11 O15 2.507788 1_455
Ca11 O27 2.620366 1_555
Ca11 O24 2.620366 1_455
Ga0 O37 1.876122 1_455
Ga0 O36 1.876122 1_454
Ga0 O19 1.879054 1_455
Ga0 O18 1.879056 1_555
Ga1 O39 1.876122 1_555
Ga1 O38 1.876122 1_556
Ga1 O16 1.879056 1_555
Ga1 O17 1.879058 1_565
Ga2 O22 1.876122 1_565
Ga2 O23 1.876122 1_565
Ga2 O44 1.879056 1_455
Ga2 O45 1.879058 1_565
Ga3 O21 1.876122 1_555
Ga3 O20 1.876122 1_555
Ga3 O47 1.879054 1_555
Ga3 O46 1.879056 1_555
Ga4 O25 1.876122 1_555
Ga4 O24 1.876122 1_565
Ga4 O7 1.879054 1_555
Ga4 O6 1.879056 1_555
Ga5 O27 1.876122 1_555
Ga5 O26 1.876122 1_555
Ga5 O4 1.879056 1_555
Ga5 O5 1.879058 1_555
Ga6 O10 1.876122 1_554
Ga6 O11 1.876122 1_555
Ga6 O32 1.879056 1_555
Ga6 O33 1.879058 1_555
Ga7 O9 1.876122 1_455
Ga7 O8 1.876122 1_556
Ga7 O35 1.879054 1_555
Ga7 O34 1.879056 1_555
O0 Sn11 1.967046 1_555
O0 Sn0 2.108468 1_565
O1 Sn11 1.967048 1_555
O1 Sn1 2.108476 1_555
O2 Sn10 1.967046 1_666
O2 Sn2 2.108468 1_555
O3 Sn10 1.967043 1_665
O3 Sn3 2.108471 1_565
O4 Sn2 2.084117 1_555
O5 Sn0 2.084124 1_555
O6 Sn1 2.084117 1_555
O7 Sn3 2.084120 1_565
O8 Sn1 2.080679 1_555
O9 Sn2 2.080679 1_555
O10 Sn0 2.080679 1_555
O11 Sn3 2.080679 1_555
O12 Sn9 1.967046 1_556
O12 Sn0 2.108468 1_555
O13 Sn9 1.967048 1_555
O13 Sn1 2.108476 1_555
O14 Sn8 1.967046 1_555
O14 Sn2 2.108468 1_555
O15 Sn8 1.967043 1_555
O15 Sn3 2.108471 1_555
O16 Sn2 2.084117 1_455
O17 Sn0 2.084124 1_555
O18 Sn1 2.084117 1_555
O19 Sn3 2.084120 1_555
O20 Sn1 2.080679 1_555
O21 Sn2 2.080679 1_555
O22 Sn0 2.080679 1_555
O23 Sn3 2.080679 1_455
O24 Sn4 2.080679 1_555
O25 Sn5 2.080679 1_555
O26 Sn6 2.080679 1_555
O27 Sn7 2.080679 1_555
O28 Sn10 1.967046 1_555
O28 Sn6 2.108468 1_555
O29 Sn10 1.967048 1_556
O29 Sn4 2.108476 1_455
O30 Sn11 1.967046 1_555
O30 Sn5 2.108468 1_455
O31 Sn11 1.967043 1_555
O31 Sn7 2.108471 1_555
O32 Sn5 2.084117 1_555
O33 Sn6 2.084124 1_555
O34 Sn4 2.084117 1_455
O35 Sn7 2.084120 1_555
O36 Sn4 2.080679 1_555
O37 Sn5 2.080679 1_555
O38 Sn6 2.080679 1_565
O39 Sn7 2.080679 1_555
O40 Sn8 1.967046 1_555
O40 Sn6 2.108468 1_555
O41 Sn8 1.967048 1_555
O41 Sn4 2.108476 1_555
O42 Sn9 1.967046 1_555
O42 Sn5 2.108468 1_555
O43 Sn9 1.967043 1_556
O43 Sn7 2.108471 1_555
O44 Sn5 2.084117 1_555
O45 Sn6 2.084124 1_555
O46 Sn4 2.084117 1_565
O47 Sn7 2.084120 1_555
