# generated using pymatgen
data_Li3Mn2O5
_symmetry_space_group_name_H-M   'P 1'
_cell_length_a   2.88677384
_cell_length_b   9.87527634
_cell_length_c   6.74422510
_cell_angle_alpha   103.09512629
_cell_angle_beta   77.64228958
_cell_angle_gamma   90.00187715
_symmetry_Int_Tables_number   1
_chemical_formula_structural   Li3Mn2O5
_chemical_formula_sum   'Li6 Mn4 O10'
_cell_volume   182.68636951
_cell_formula_units_Z   2
loop_
 _symmetry_equiv_pos_site_id
 _symmetry_equiv_pos_as_xyz
  1  'x, y, z'
loop_
 _atom_site_type_symbol
 _atom_site_label
 _atom_site_symmetry_multiplicity
 _atom_site_fract_x
 _atom_site_fract_y
 _atom_site_fract_z
 _atom_site_occupancy
  Li  Li0  1  0.10014300  0.70002700  0.80005000  1
  Li  Li1  1  0.59984000  0.19997600  0.79996600  1
  Li  Li2  1  0.29380400  0.10218700  0.41211400  1
  Li  Li3  1  0.90592900  0.29783300  0.18777800  1
  Li  Li4  1  0.69354400  0.90922100  0.61252500  1
  Li  Li5  1  0.50611400  0.49077500  0.98745400  1
  Mn  Mn0  1  0.19040300  0.39244100  0.61893500  1
  Mn  Mn1  1  0.79899900  0.59687900  0.40270500  1
  Mn  Mn2  1  0.00935200  0.00760500  0.98114000  1
  Mn  Mn3  1  0.40147600  0.80307000  0.19731700  1
  O  O0  1  0.45470300  0.13480300  0.09037700  1
  O  O1  1  0.74507000  0.26520100  0.50957200  1
  O  O2  1  0.06114300  0.35447100  0.87733800  1
  O  O3  1  0.13855500  0.04550200  0.72259300  1
  O  O4  1  0.86288000  0.94266000  0.27448000  1
  O  O5  1  0.33744600  0.45735000  0.32555300  1
  O  O6  1  0.25211600  0.73190300  0.49685500  1
  O  O7  1  0.94860000  0.66810000  0.10324000  1
  O  O8  1  0.65121400  0.52966200  0.69747800  1
  O  O9  1  0.54866800  0.87033300  0.90253000  1
loop_
_geom_bond_atom_site_label_1
_geom_bond_atom_site_label_2
_geom_bond_distance
_geom_bond_site_symmetry_2
Li0 O6 2.092968 1_555
Li0 O7 2.093122 1_456
Li0 O9 2.199741 1_555
Li0 O8 2.200337 1_555
Li0 O9 2.200706 1_455
Li0 O8 2.201075 1_455
Li1 O3 2.075856 1_555
Li1 O2 2.076031 1_655
Li1 O3 2.076042 1_655
Li1 O2 2.076147 1_555
Li1 O0 2.155414 1_556
Li1 O1 2.155566 1_555
Li2 O1 2.146492 1_555
Li2 O1 2.146586 1_455
Li2 O4 2.173108 1_445
Li2 O4 2.174174 1_545
Li2 O0 2.216551 1_555
Li2 O3 2.242374 1_555
Li3 O0 2.146420 1_555
Li3 O0 2.146780 1_655
Li3 O5 2.173072 1_555
Li3 O5 2.174549 1_655
Li3 O1 2.216981 1_555
Li3 O2 2.241911 1_654
Li4 O3 1.991848 1_565
Li4 O3 1.991969 1_665
Li4 O9 2.034207 1_555
Li4 O6 2.259424 1_555
Li4 O6 2.262218 1_655
Li4 O4 2.325905 1_555
Li5 O2 1.992082 1_655
Li5 O2 1.992135 1_555
Li5 O8 2.034015 1_555
Li5 O7 2.260329 1_456
Li5 O7 2.261649 1_556
Li5 O5 2.326208 1_556
Mn0 O2 1.826114 1_555
Mn0 O1 1.939426 1_455
Mn0 O1 1.939430 1_555
Mn0 O8 1.965091 1_455
Mn0 O8 1.965373 1_555
Mn0 O5 2.172843 1_555
Mn1 O6 1.964924 1_555
Mn1 O6 1.965671 1_655
Mn1 O5 1.978503 1_655
Mn1 O5 1.978978 1_555
Mn1 O8 2.193114 1_555
Mn1 O7 2.242882 1_555
Mn2 O3 1.826740 1_555
Mn2 O0 1.938913 1_556
Mn2 O0 1.939110 1_456
Mn2 O9 1.965536 1_445
Mn2 O9 1.965651 1_545
Mn2 O4 2.172756 1_446
Mn3 O7 1.964683 1_455
Mn3 O7 1.965114 1_555
Mn3 O4 1.979066 1_555
Mn3 O4 1.979196 1_455
Mn3 O9 2.193433 1_554
Mn3 O6 2.243064 1_555
