# generated using pymatgen
data_Ca3As2(W5O4)2
_symmetry_space_group_name_H-M   'P 1'
_cell_length_a   6.27546952
_cell_length_b   10.96277720
_cell_length_c   14.08566225
_cell_angle_alpha   111.35863332
_cell_angle_beta   96.71634679
_cell_angle_gamma   98.40207088
_symmetry_Int_Tables_number   1
_chemical_formula_structural   Ca3As2(W5O4)2
_chemical_formula_sum   'Ca6 As4 W20 O16'
_cell_volume   877.44268485
_cell_formula_units_Z   2
loop_
 _symmetry_equiv_pos_site_id
 _symmetry_equiv_pos_as_xyz
  1  'x, y, z'
loop_
 _atom_site_type_symbol
 _atom_site_label
 _atom_site_symmetry_multiplicity
 _atom_site_fract_x
 _atom_site_fract_y
 _atom_site_fract_z
 _atom_site_occupancy
  Ca  Ca0  1  0.45555100  0.54373800  0.32987800  1
  Ca  Ca1  1  0.54444900  0.45626200  0.67012200  1
  Ca  Ca2  1  0.22938300  0.85534500  0.33148600  1
  Ca  Ca3  1  0.77061700  0.14465500  0.66851400  1
  Ca  Ca4  1  0.80655300  0.04354800  0.31270000  1
  Ca  Ca5  1  0.19344700  0.95645200  0.68730000  1
  As  As0  1  0.72090600  0.13773500  0.13641700  1
  As  As1  1  0.27909400  0.86226500  0.86358300  1
  As  As2  1  0.26240800  0.13931700  0.54058000  1
  As  As3  1  0.73759200  0.86068300  0.45942000  1
  W  W0  1  0.26196500  0.59242400  0.54926000  1
  W  W1  1  0.73803500  0.40757600  0.45074000  1
  W  W2  1  0.06297900  0.68176200  0.02981500  1
  W  W3  1  0.93702100  0.31823800  0.97018500  1
  W  W4  1  0.98057000  0.58007400  0.37926200  1
  W  W5  1  0.01943000  0.41992600  0.62073800  1
  W  W6  1  0.26639100  0.52584500  0.11079500  1
  W  W7  1  0.73360900  0.47415500  0.88920500  1
  W  W8  1  0.09699900  0.08168000  0.92695600  1
  W  W9  1  0.90300100  0.91832000  0.07304400  1
  W  W10  1  0.39804800  0.91467200  0.06367200  1
  W  W11  1  0.60195200  0.08532800  0.93632800  1
  W  W12  1  0.56249200  0.66876900  0.03424200  1
  W  W13  1  0.43750800  0.33123100  0.96575800  1
  W  W14  1  0.39200400  0.25266700  0.12734300  1
  W  W15  1  0.60799600  0.74733300  0.87265700  1
  W  W16  1  0.78592800  0.51959500  0.12911900  1
  W  W17  1  0.21407200  0.48040500  0.87088100  1
  W  W18  1  0.20386700  0.33823800  0.40645600  1
  W  W19  1  0.79613300  0.66176200  0.59354400  1
  O  O0  1  0.10671000  0.57459100  0.24185100  1
  O  O1  1  0.89329000  0.42540900  0.75814900  1
  O  O2  1  0.08489300  0.21861300  0.61870800  1
  O  O3  1  0.91510700  0.78138700  0.38129200  1
  O  O4  1  0.72916600  0.01470600  0.45682900  1
  O  O5  1  0.27083400  0.98529400  0.54317100  1
  O  O6  1  0.51976600  0.23256400  0.60171900  1
  O  O7  1  0.48023400  0.76743600  0.39828100  1
  O  O8  1  0.19919900  0.11163100  0.40875400  1
  O  O9  1  0.80080100  0.88836900  0.59124600  1
  O  O10  1  0.86024800  0.25540000  0.36575300  1
  O  O11  1  0.13975200  0.74460000  0.63424700  1
  O  O12  1  0.31284700  0.32023500  0.26610500  1
  O  O13  1  0.68715300  0.67976500  0.73389500  1
  O  O14  1  0.18304100  0.05769900  0.07933000  1
  O  O15  1  0.81695900  0.94230100  0.92067000  1
loop_
_geom_bond_atom_site_label_1
_geom_bond_atom_site_label_2
_geom_bond_distance
_geom_bond_site_symmetry_2
Ca0 O7 2.258167 1_555
Ca0 O12 2.275921 1_555
Ca0 O0 2.516167 1_555
Ca1 O6 2.258167 1_555
Ca1 O13 2.275921 1_555
Ca1 O1 2.516167 1_555
Ca2 O7 2.247105 1_555
Ca2 O3 2.304321 1_455
Ca2 O8 2.662831 1_565
Ca2 O5 2.757535 1_555
Ca2 O0 2.812378 1_555
Ca2 W2 3.906287 1_555
Ca3 O6 2.247105 1_555
Ca3 O2 2.304321 1_655
Ca3 O9 2.662831 1_545
Ca3 O4 2.757535 1_555
Ca3 O1 2.812378 1_555
Ca3 W3 3.906287 1_555
Ca4 O10 2.124646 1_555
Ca4 O4 2.260676 1_555
Ca4 O8 2.531066 1_655
Ca5 O11 2.124646 1_555
Ca5 O5 2.260676 1_555
Ca5 O9 2.531066 1_455
As0 W14 2.584496 1_555
As0 W11 2.652114 1_554
As0 W9 2.714121 1_545
As0 W10 2.715916 1_545
As0 Ca4 3.039443 1_555
As1 W15 2.584496 1_555
As1 W10 2.652114 1_556
As1 W8 2.714121 1_565
As1 W11 2.715916 1_565
As1 Ca5 3.039443 1_555
As2 O5 1.710484 1_545
As2 O6 1.716371 1_555
As2 O8 1.754820 1_555
As2 O2 1.755178 1_555
As3 O4 1.710484 1_565
As3 O7 1.716371 1_555
As3 O9 1.754820 1_555
As3 O3 1.755178 1_555
W2 W6 2.751264 1_555
W2 W7 2.785527 1_454
W2 W9 2.803149 1_455
W3 W7 2.751264 1_555
W3 W6 2.785527 1_656
W3 W8 2.803149 1_655
W10 W2 2.911675 1_555
W10 W12 2.933099 1_555
W11 W3 2.911675 1_555
W11 W13 2.933099 1_555
W12 W15 2.740751 1_554
W12 W7 2.808276 1_554
W12 W6 2.814078 1_555
W12 W16 2.872316 1_555
W12 W17 2.895224 1_554
W12 W9 3.046076 1_555
W12 W2 3.132138 1_655
W12 W2 3.153033 1_555
W13 W14 2.740751 1_556
W13 W6 2.808276 1_556
W13 W7 2.814078 1_555
W13 W17 2.872316 1_555
W13 W16 2.895224 1_556
W13 W8 3.046076 1_555
W13 W3 3.132138 1_455
W13 W3 3.153033 1_555
W16 W3 2.879600 1_554
W16 W2 3.101103 1_655
W17 W2 2.879600 1_556
W17 W3 3.101103 1_455
O0 W6 2.137310 1_555
O0 W4 2.159634 1_455
O0 W16 2.266629 1_455
O1 W7 2.137310 1_555
O1 W5 2.159634 1_655
O1 W17 2.266629 1_655
O2 W5 2.293893 1_555
O3 W4 2.293893 1_555
O8 W18 2.492166 1_555
O9 W19 2.492166 1_555
O10 W1 1.984526 1_555
O10 W18 2.136032 1_655
O11 W0 1.984526 1_555
O11 W19 2.136032 1_455
O12 W14 1.973771 1_555
O12 W18 2.118122 1_555
O13 W15 1.973771 1_555
O13 W19 2.118122 1_555
O14 W9 2.123978 1_445
O14 W14 2.160086 1_555
O14 W10 2.182587 1_545
O14 W8 2.269061 1_554
O15 W8 2.123978 1_665
O15 W15 2.160086 1_555
O15 W11 2.182587 1_565
O15 W9 2.269061 1_556
