# generated using pymatgen
data_TmB4Rh
_symmetry_space_group_name_H-M   'P 1'
_cell_length_a   3.52306293
_cell_length_b   5.91372401
_cell_length_c   11.46489650
_cell_angle_alpha   89.99879790
_cell_angle_beta   90.00000156
_cell_angle_gamma   89.99999893
_symmetry_Int_Tables_number   1
_chemical_formula_structural   TmB4Rh
_chemical_formula_sum   'Tm4 B16 Rh4'
_cell_volume   238.86448998
_cell_formula_units_Z   4
loop_
 _symmetry_equiv_pos_site_id
 _symmetry_equiv_pos_as_xyz
  1  'x, y, z'
loop_
 _atom_site_type_symbol
 _atom_site_label
 _atom_site_symmetry_multiplicity
 _atom_site_fract_x
 _atom_site_fract_y
 _atom_site_fract_z
 _atom_site_occupancy
  Tm  Tm0  1  0.00000005  0.13170478  0.64876744  1
  Tm  Tm1  1  0.00000018  0.86829208  0.35127731  1
  Tm  Tm2  1  0.00000000  0.63172161  0.85115844  1
  Tm  Tm3  1  0.00000004  0.36827428  0.14879692  1
  B  B0  1  0.50000011  0.79163900  0.68716335  1
  B  B1  1  0.49999994  0.20839847  0.31284893  1
  B  B2  1  0.49999998  0.29166524  0.81280759  1
  B  B3  1  0.49999997  0.70837296  0.18717991  1
  B  B4  1  0.50000006  0.86445132  0.53041877  1
  B  B5  1  0.49999997  0.13553127  0.46959279  1
  B  B6  1  0.49999996  0.36443912  0.96958364  1
  B  B7  1  0.49999993  0.63554357  0.03040568  1
  B  B8  1  0.49999998  0.02197506  0.19312069  1
  B  B9  1  0.49999993  0.97798471  0.80687109  1
  B  B10  1  0.49999995  0.52195331  0.30690361  1
  B  B11  1  0.50000007  0.47800747  0.69310512  1
  B  B12  1  0.49999994  0.11272139  0.04734011  1
  B  B13  1  0.49999997  0.88727593  0.95264306  1
  B  B14  1  0.50000004  0.61272764  0.45265806  1
  B  B15  1  0.50000009  0.38726913  0.54735889  1
  Rh  Rh0  1  0.00000021  0.64285636  0.59491148  1
  Rh  Rh1  1  -0.00000016  0.35716846  0.40515002  1
  Rh  Rh2  1  -0.00000014  0.14280638  0.90506671  1
  Rh  Rh3  1  -0.00000007  0.85722346  0.09487138  1
loop_
_geom_bond_atom_site_label_1
_geom_bond_atom_site_label_2
_geom_bond_distance
_geom_bond_site_symmetry_2
B0 B9 1.760126 1_555
B0 B4 1.847919 1_555
B0 B11 1.855979 1_555
B0 Rh0 2.235134 1_555
B0 Rh0 2.235135 1_655
B0 Tm0 2.709443 1_665
B0 Tm0 2.709443 1_565
B0 Tm2 2.744518 1_655
B0 Tm2 2.744519 1_555
B1 B8 1.760597 1_555
B1 B5 1.847986 1_555
B1 B10 1.855528 1_555
B1 Rh1 2.235372 1_655
B1 Rh1 2.235372 1_555
B1 Tm1 2.709681 1_545
B1 Tm1 2.709682 1_645
B1 Tm3 2.744881 1_555
B1 Tm3 2.744881 1_655
B2 B6 1.848234 1_555
B2 B9 1.856270 1_545
B2 Rh2 2.235333 1_655
B2 Rh2 2.235334 1_555
B2 Tm2 2.709331 1_555
B2 Tm2 2.709331 1_655
B2 Tm0 2.744987 1_555
B2 Tm0 2.744988 1_655
B3 B7 1.848290 1_555
B3 B8 1.855808 1_565
B3 Rh3 2.235582 1_655
B3 Rh3 2.235582 1_555
B3 Tm3 2.709577 1_555
B3 Tm3 2.709577 1_655
B3 Tm1 2.745353 1_555
B3 Tm1 2.745354 1_655
B4 B5 1.748191 1_565
B4 Rh0 2.316668 1_555
B4 Rh0 2.316668 1_655
B4 Tm1 2.705875 1_555
B4 Tm1 2.705875 1_655
B4 Tm0 2.728003 1_665
B4 Tm0 2.728004 1_565
B5 Rh1 2.316626 1_655
B5 Rh1 2.316627 1_555
B5 Tm0 2.706163 1_555
B5 Tm0 2.706163 1_655
B5 Tm1 2.727765 1_545
B5 Tm1 2.727766 1_645
B6 B7 1.748333 1_556
B6 Rh2 2.316900 1_655
B6 Rh2 2.316901 1_555
B6 Tm3 2.706500 1_556
B6 Tm3 2.706501 1_656
B6 Tm2 2.728506 1_555
B6 Tm2 2.728507 1_655
B7 Rh3 2.316871 1_555
B7 Rh3 2.316871 1_655
B7 Tm2 2.706795 1_554
B7 Tm2 2.706795 1_654
B7 Tm3 2.728267 1_555
B7 Tm3 2.728268 1_655
B8 Rh3 2.306753 1_645
B8 Rh3 2.306753 1_545
B8 Tm1 2.686407 1_545
B8 Tm1 2.686408 1_645
B8 Tm3 2.748663 1_555
B8 Tm3 2.748664 1_655
B9 Rh2 2.306627 1_665
B9 Rh2 2.306628 1_565
B9 Tm0 2.686071 1_565
B9 Tm0 2.686072 1_665
B9 Tm2 2.748427 1_555
B9 Tm2 2.748427 1_655
B10 B14 1.755177 1_555
B10 B3 1.760507 1_555
B10 Rh1 2.306799 1_655
B10 Rh1 2.306800 1_555
B10 Tm3 2.686039 1_555
B10 Tm3 2.686039 1_655
B10 Tm1 2.748959 1_555
B10 Tm1 2.748960 1_655
B11 B15 1.755023 1_555
B11 B2 1.760030 1_555
B11 Rh0 2.306664 1_555
B11 Rh0 2.306665 1_655
B11 Tm2 2.685696 1_655
B11 Tm2 2.685696 1_555
B11 Tm0 2.748724 1_655
B11 Tm0 2.748724 1_555
B12 B13 1.719380 1_544
B12 B6 1.735097 1_554
B12 B8 1.755391 1_555
B12 Rh3 2.383877 1_645
B12 Rh3 2.383878 1_545
B12 Rh2 2.407339 1_654
B12 Rh2 2.407340 1_554
B12 Tm3 2.596154 1_555
B12 Tm3 2.596154 1_655
B13 B7 1.735207 1_556
B13 B9 1.755229 1_555
B13 Rh2 2.384117 1_665
B13 Rh2 2.384118 1_565
B13 Rh3 2.406975 1_656
B13 Rh3 2.406975 1_556
B13 Tm2 2.596302 1_555
B13 Tm2 2.596302 1_655
B14 B15 1.719432 1_555
B14 B4 1.735184 1_555
B14 Rh1 2.384060 1_655
B14 Rh1 2.384061 1_555
B14 Rh0 2.407208 1_555
B14 Rh0 2.407209 1_655
B14 Tm1 2.595775 1_555
B14 Tm1 2.595775 1_655
B15 B5 1.735288 1_555
B15 Rh0 2.384282 1_555
B15 Rh0 2.384283 1_655
B15 Rh1 2.406850 1_655
B15 Rh1 2.406851 1_555
B15 Tm0 2.595917 1_655
B15 Tm0 2.595918 1_555
Rh0 Rh1 2.754580 1_555
Rh0 Tm2 2.938581 1_555
Rh0 Tm0 2.956131 1_565
Rh0 Tm0 3.085214 1_555
Rh0 Tm1 3.095055 1_555
Rh1 Tm3 2.939794 1_555
Rh1 Tm1 2.956333 1_545
Rh1 Tm1 3.085091 1_555
Rh1 Tm0 3.094953 1_555
Rh2 Rh3 2.754535 1_546
Rh2 Tm0 2.939179 1_555
Rh2 Tm2 2.956617 1_555
Rh2 Tm2 3.084973 1_545
Rh2 Tm3 3.096181 1_556
Rh3 Tm1 2.940397 1_555
Rh3 Tm3 2.956855 1_555
Rh3 Tm3 3.084816 1_565
Rh3 Tm2 3.096089 1_554
