# generated using pymatgen
data_RbCr4O8
_symmetry_space_group_name_H-M   'P 1'
_cell_length_a   3.02097352
_cell_length_b   7.23149909
_cell_length_c   7.25085886
_cell_angle_alpha   87.22054172
_cell_angle_beta   78.03435918
_cell_angle_gamma   77.44969107
_symmetry_Int_Tables_number   1
_chemical_formula_structural   RbCr4O8
_chemical_formula_sum   'Rb1 Cr4 O8'
_cell_volume   151.25800056
_cell_formula_units_Z   1
loop_
 _symmetry_equiv_pos_site_id
 _symmetry_equiv_pos_as_xyz
  1  'x, y, z'
loop_
 _atom_site_type_symbol
 _atom_site_label
 _atom_site_symmetry_multiplicity
 _atom_site_fract_x
 _atom_site_fract_y
 _atom_site_fract_z
 _atom_site_occupancy
  Rb  Rb0  1  0.49878200  0.00142500  0.00112500  1
  Cr  Cr0  1  0.14689100  0.18371400  0.49079000  1
  Cr  Cr1  1  0.65963500  0.51070800  0.18399400  1
  Cr  Cr2  1  0.83735800  0.81438100  0.50985200  1
  Cr  Cr3  1  0.34866900  0.49175500  0.81775600  1
  O  O0  1  0.46320500  0.69984400  0.37348600  1
  O  O1  1  0.54839300  0.29561800  0.62305200  1
  O  O2  1  0.83882400  0.62502800  0.69893400  1
  O  O3  1  0.16650300  0.37293500  0.29617400  1
  O  O4  1  0.84666300  0.36359600  0.95313300  1
  O  O5  1  0.20423500  0.94973600  0.63799900  1
  O  O6  1  0.15586900  0.64252400  0.05181900  1
  O  O7  1  0.78497500  0.04873600  0.36188300  1
loop_
_geom_bond_atom_site_label_1
_geom_bond_atom_site_label_2
_geom_bond_distance
_geom_bond_site_symmetry_2
Cr0 O1 1.887860 1_455
Cr0 O3 1.918461 1_555
Cr0 O5 1.950992 1_545
Cr0 O7 1.999452 1_455
Cr0 O1 2.007466 1_555
Cr0 O7 2.016397 1_555
Cr1 O0 1.897922 1_555
Cr1 O4 1.942261 1_554
Cr1 O3 1.942621 1_655
Cr1 O3 1.984328 1_555
Cr1 O6 2.002789 1_655
Cr1 O6 2.007219 1_555
Cr2 O2 1.890103 1_555
Cr2 O7 1.955966 1_565
Cr2 O0 1.965203 1_655
Cr2 O0 1.972565 1_555
Cr2 O5 2.004334 1_555
Cr2 O5 2.009113 1_655
Cr3 O1 1.959076 1_555
Cr3 O2 1.966730 1_455
Cr3 O2 1.968354 1_555
Cr3 O6 1.975324 1_556
Cr3 O4 2.000980 1_555
Cr3 O4 2.006915 1_455
O4 Rb0 2.969013 1_656
O4 Rb0 3.006842 1_556
O5 Rb0 3.006099 1_466
O5 Rb0 3.012561 1_566
O6 Rb0 2.963542 1_465
O6 Rb0 2.976975 1_565
O7 Rb0 2.976592 1_555
O7 Rb0 3.006121 1_655
