# generated using pymatgen
data_Na3Zn2CuH8S4O17
_symmetry_space_group_name_H-M   'P 1'
_cell_length_a   7.58532208
_cell_length_b   7.88897019
_cell_length_c   14.28122600
_cell_angle_alpha   90.00000000
_cell_angle_beta   90.00000000
_cell_angle_gamma   100.89560508
_symmetry_Int_Tables_number   1
_chemical_formula_structural   Na3Zn2CuH8S4O17
_chemical_formula_sum   'Na6 Zn4 Cu2 H16 S8 O34'
_cell_volume   839.18840428
_cell_formula_units_Z   2
loop_
 _symmetry_equiv_pos_site_id
 _symmetry_equiv_pos_as_xyz
  1  'x, y, z'
loop_
 _atom_site_type_symbol
 _atom_site_label
 _atom_site_symmetry_multiplicity
 _atom_site_fract_x
 _atom_site_fract_y
 _atom_site_fract_z
 _atom_site_occupancy
  Na  Na0  1  0.60808000  0.29266100  0.74876700  1
  Na  Na1  1  0.39192000  0.70733900  0.24876700  1
  Na  Na2  1  0.06491600  0.32901800  0.61000300  1
  Na  Na3  1  0.93508400  0.67098200  0.11000300  1
  Na  Na4  1  0.96833200  0.68860900  0.40018400  1
  Na  Na5  1  0.03166800  0.31139100  0.90018400  1
  Zn  Zn0  1  0.25733500  0.83535100  0.61229400  1
  Zn  Zn1  1  0.74266500  0.16464900  0.11229400  1
  Zn  Zn2  1  0.74499400  0.16622000  0.38881500  1
  Zn  Zn3  1  0.25500600  0.83378000  0.88881500  1
  Cu  Cu0  1  0.78992800  0.77688600  0.74928100  1
  Cu  Cu1  1  0.21007200  0.22311400  0.24928100  1
  H  H0  1  0.19639500  0.06057300  0.47946500  1
  H  H1  1  0.80360500  0.93942700  0.97946500  1
  H  H2  1  0.80057500  0.93878500  0.51971800  1
  H  H3  1  0.19942500  0.06121500  0.01971800  1
  H  H4  1  0.31412900  0.94337400  0.43140600  1
  H  H5  1  0.68587100  0.05662600  0.93140600  1
  H  H6  1  0.68693400  0.05817800  0.56912500  1
  H  H7  1  0.31306600  0.94182200  0.06912500  1
  H  H8  1  0.35495300  0.62683300  0.48478100  1
  H  H9  1  0.64504700  0.37316700  0.98478100  1
  H  H10  1  0.64702100  0.37431600  0.51438700  1
  H  H11  1  0.35297900  0.62568400  0.01438700  1
  H  H12  1  0.54111900  0.69882600  0.53797900  1
  H  H13  1  0.45888100  0.30117400  0.03797900  1
  H  H14  1  0.46084900  0.30250800  0.46141200  1
  H  H15  1  0.53915100  0.69749200  0.96141200  1
  S  S0  1  0.84100100  0.63419600  0.61730500  1
  S  S1  1  0.15899900  0.36580400  0.11730500  1
  S  S2  1  0.15882400  0.36581100  0.38110800  1
  S  S3  1  0.84117600  0.63418900  0.88110800  1
  S  S4  1  0.00859000  0.02186300  0.75060700  1
  S  S5  1  0.99141000  0.97813700  0.25060700  1
  S  S6  1  0.53969200  0.89994300  0.75036200  1
  S  S7  1  0.46030800  0.10005700  0.25036200  1
  O  O0  1  0.22135900  0.28313300  0.46874000  1
  O  O1  1  0.77864100  0.71686700  0.96874000  1
  O  O2  1  0.77642500  0.71548200  0.52948400  1
  O  O3  1  0.22357500  0.28451800  0.02948400  1
  O  O4  1  0.12547200  0.02812400  0.66354400  1
  O  O5  1  0.87452800  0.97187600  0.16354400  1
  O  O6  1  0.87425000  0.97145900  0.33764400  1
  O  O7  1  0.12575000  0.02854100  0.83764400  1
  O  O8  1  0.04138400  0.63404200  0.60198700  1
  O  O9  1  0.95861600  0.36595800  0.10198700  1
  O  O10  1  0.95933000  0.37121200  0.39513200  1
  O  O11  1  0.04067000  0.62878800  0.89513200  1
  O  O12  1  0.52977500  0.01044100  0.66317200  1
  O  O13  1  0.47022500  0.98955900  0.16317200  1
  O  O14  1  0.46867100  0.98808300  0.33692700  1
  O  O15  1  0.53132900  0.01191700  0.83692700  1
  O  O16  1  0.40842900  0.68132700  0.54376600  1
  O  O17  1  0.59157100  0.31867300  0.04376600  1
  O  O18  1  0.59331800  0.32487600  0.45421400  1
  O  O19  1  0.40668200  0.67512400  0.95421400  1
  O  O20  1  0.35537300  0.77445800  0.75078900  1
  O  O21  1  0.64462700  0.22554200  0.25078900  1
  O  O22  1  0.21720000  0.93927300  0.47876100  1
  O  O23  1  0.78280000  0.06072700  0.97876100  1
  O  O24  1  0.78114300  0.06037200  0.52059000  1
  O  O25  1  0.21885700  0.93962800  0.02059000  1
  O  O26  1  0.93174500  0.18372300  0.75100600  1
  O  O27  1  0.06825500  0.81627700  0.25100600  1
  O  O28  1  0.75337300  0.44510700  0.61774300  1
  O  O29  1  0.24662700  0.55489300  0.11774300  1
  O  O30  1  0.25110000  0.55422700  0.38072800  1
  O  O31  1  0.74890000  0.44577300  0.88072800  1
  O  O32  1  0.32819300  0.37062500  0.70497200  1
  O  O33  1  0.67180700  0.62937500  0.20497200  1
loop_
_geom_bond_atom_site_label_1
_geom_bond_atom_site_label_2
_geom_bond_distance
_geom_bond_site_symmetry_2
Na0 O28 2.379332 1_555
Na0 O31 2.379877 1_555
Na0 O32 2.402162 1_555
Na0 O12 2.510797 1_555
Na0 O15 2.518314 1_555
Na0 O26 2.750414 1_555
Na1 O29 2.379332 1_555
Na1 O30 2.379877 1_555
Na1 O33 2.402162 1_555
Na1 O13 2.510797 1_555
Na1 O14 2.518314 1_555
Na1 O27 2.750414 1_555
Na2 O32 2.384866 1_555
Na2 O0 2.402405 1_555
Na2 O26 2.439567 1_455
Na2 O8 2.449029 1_555
Na2 O4 2.615818 1_555
Na2 O28 2.693253 1_455
Na3 O33 2.384866 1_555
Na3 O1 2.402405 1_554
Na3 O27 2.439567 1_655
Na3 O9 2.449029 1_555
Na3 O5 2.615818 1_555
Na3 O29 2.693253 1_655
Na4 O2 2.385455 1_555
Na4 O27 2.416419 1_655
Na4 O10 2.492975 1_555
Na4 O30 2.580938 1_655
Na4 O6 2.624523 1_555
Na4 O22 2.705932 1_655
Na5 O3 2.385455 1_556
Na5 O26 2.416419 1_455
Na5 O11 2.492975 1_555
Na5 O31 2.580938 1_455
Na5 O7 2.624523 1_555
Na5 O23 2.705932 1_455
Cu0 S3 2.264552 1_555
Cu0 S0 2.265940 1_555
Cu0 S6 2.289574 1_555
Cu0 S4 2.296648 1_665
Cu1 S2 2.264552 1_555
Cu1 S1 2.265940 1_555
Cu1 S7 2.289574 1_555
Cu1 S5 2.296648 1_445
H0 O22 0.998907 1_545
H0 O0 1.736766 1_555
H1 O23 0.998907 1_565
H1 O1 1.736766 1_555
H2 O24 0.997691 1_565
H2 O2 1.741940 1_555
H3 O25 0.997691 1_545
H3 O3 1.741940 1_555
H4 O22 0.994984 1_555
H5 O23 0.994984 1_555
H6 O24 0.993341 1_555
H7 O25 0.993341 1_555
H8 O16 0.996509 1_555
H8 O30 1.728085 1_555
H9 O17 0.996509 1_556
H9 O31 1.728085 1_555
H10 O18 0.998234 1_555
H10 O28 1.723683 1_555
H11 O19 0.998234 1_554
H11 O29 1.723683 1_555
H12 O16 0.993175 1_555
H12 O2 1.768923 1_555
H13 O17 0.993175 1_555
H13 O3 1.768923 1_555
H14 O18 0.992138 1_555
H14 O0 1.797057 1_555
H15 O19 0.992138 1_555
H15 O1 1.797057 1_555
O0 S2 1.527620 1_555
O1 S3 1.527620 1_555
O2 S0 1.530651 1_555
O3 S1 1.530651 1_555
O4 S4 1.522459 1_555
O4 Zn0 2.103321 1_545
O5 S5 1.522459 1_555
O5 Zn1 2.103321 1_565
O6 S5 1.523120 1_555
O6 Zn2 2.103695 1_565
O7 S4 1.523120 1_555
O7 Zn3 2.103695 1_545
O8 S0 1.535859 1_455
O8 Zn0 2.059995 1_555
O9 S1 1.535859 1_655
O9 Zn1 2.059995 1_555
O10 S2 1.534977 1_655
O10 Zn2 2.067050 1_555
O11 S3 1.534977 1_455
O11 Zn3 2.067050 1_555
O12 S6 1.529970 1_545
O12 Zn0 2.372211 1_545
O13 S7 1.529970 1_565
O13 Zn1 2.372211 1_565
O14 S7 1.527697 1_565
O14 Zn2 2.409089 1_565
O15 S6 1.527697 1_545
O15 Zn3 2.409089 1_545
O16 Zn0 2.067421 1_555
O17 Zn1 2.067421 1_555
O18 Zn2 2.075321 1_555
O19 Zn3 2.075321 1_555
O20 S6 1.552913 1_555
O20 Zn3 2.195190 1_555
O20 Zn0 2.197916 1_555
O21 S7 1.552913 1_555
O21 Zn2 2.195190 1_555
O21 Zn1 2.197916 1_555
O22 Zn0 2.120348 1_555
O23 Zn1 2.120348 1_556
O24 Zn2 2.097761 1_555
O25 Zn3 2.097761 1_554
O26 S4 1.500557 1_655
O27 S5 1.500557 1_455
O28 S0 1.514012 1_555
O29 S1 1.514012 1_555
O30 S2 1.518567 1_555
O31 S3 1.518567 1_555
