# generated using pymatgen
data_TaPO5
_symmetry_space_group_name_H-M   'P 1'
_cell_length_a   6.49256800
_cell_length_b   6.49256800
_cell_length_c   4.08810500
_cell_angle_alpha   90.00000000
_cell_angle_beta   90.00000000
_cell_angle_gamma   90.00000000
_symmetry_Int_Tables_number   1
_chemical_formula_structural   TaPO5
_chemical_formula_sum   'Ta2 P2 O10'
_cell_volume   172.32768570
_cell_formula_units_Z   2
loop_
 _symmetry_equiv_pos_site_id
 _symmetry_equiv_pos_as_xyz
  1  'x, y, z'
loop_
 _atom_site_type_symbol
 _atom_site_label
 _atom_site_symmetry_multiplicity
 _atom_site_fract_x
 _atom_site_fract_y
 _atom_site_fract_z
 _atom_site_occupancy
  Ta  Ta0  1  0.00000000  0.50000000  0.76464600  1
  Ta  Ta1  1  0.50000000  0.00000000  0.23535400  1
  P  P0  1  0.50000000  0.50000000  0.50000000  1
  P  P1  1  0.00000000  0.00000000  0.50000000  1
  O  O0  1  0.00000000  0.50000000  0.20777100  1
  O  O1  1  0.50000000  0.00000000  0.79222900  1
  O  O2  1  0.69457100  0.48103800  0.71229600  1
  O  O3  1  0.30542900  0.51896200  0.71229600  1
  O  O4  1  0.19457100  0.98103800  0.28770400  1
  O  O5  1  0.80542900  0.01896200  0.28770400  1
  O  O6  1  0.48103800  0.30542900  0.28770400  1
  O  O7  1  0.51896200  0.69457100  0.28770400  1
  O  O8  1  0.98103800  0.80542900  0.71229600  1
  O  O9  1  0.01896200  0.19457100  0.71229600  1
loop_
_geom_bond_atom_site_label_1
_geom_bond_atom_site_label_2
_geom_bond_distance
_geom_bond_site_symmetry_2
O0 Ta0 1.811542 1_554
O0 Ta0 2.276563 1_555
O1 Ta1 1.811542 1_556
O1 Ta1 2.276563 1_555
O2 P0 1.537604 1_555
O2 Ta0 1.998329 1_655
O3 P0 1.537604 1_555
O3 Ta0 1.998329 1_555
O4 P1 1.537604 1_565
O4 Ta1 1.998329 1_565
O5 P1 1.537604 1_655
O5 Ta1 1.998329 1_555
O6 P0 1.537604 1_555
O6 Ta1 1.998329 1_555
O7 P0 1.537604 1_555
O7 Ta1 1.998329 1_565
O8 P1 1.537604 1_665
O8 Ta0 1.998329 1_655
O9 P1 1.537604 1_555
O9 Ta0 1.998329 1_555
