# generated using pymatgen
data_Li3Mn(CoO3)2
_symmetry_space_group_name_H-M   'P 1'
_cell_length_a   5.21225299
_cell_length_b   5.21225299
_cell_length_c   8.06499251
_cell_angle_alpha   66.23836716
_cell_angle_beta   66.23836716
_cell_angle_gamma   33.96790121
_symmetry_Int_Tables_number   1
_chemical_formula_structural   Li3Mn(CoO3)2
_chemical_formula_sum   'Li3 Mn1 Co2 O6'
_cell_volume   111.02574373
_cell_formula_units_Z   1
loop_
 _symmetry_equiv_pos_site_id
 _symmetry_equiv_pos_as_xyz
  1  'x, y, z'
loop_
 _atom_site_type_symbol
 _atom_site_label
 _atom_site_symmetry_multiplicity
 _atom_site_fract_x
 _atom_site_fract_y
 _atom_site_fract_z
 _atom_site_occupancy
  Li  Li0  1  0.50000000  0.50000000  0.50000000  1
  Li  Li1  1  0.16741300  0.16741300  0.16652300  1
  Li  Li2  1  0.83258700  0.83258700  0.83347700  1
  Mn  Mn0  1  0.50000000  0.50000000  0.00000000  1
  Co  Co0  1  0.16895600  0.16895600  0.66520100  1
  Co  Co1  1  0.83104400  0.83104400  0.33479900  1
  O  O0  1  0.17189300  0.17189300  0.42591900  1
  O  O1  1  0.83651300  0.83651300  0.09307600  1
  O  O2  1  0.50975300  0.50975300  0.75636100  1
  O  O3  1  0.82810700  0.82810700  0.57408100  1
  O  O4  1  0.49024700  0.49024700  0.24363900  1
  O  O5  1  0.16348700  0.16348700  0.90692400  1
loop_
_geom_bond_atom_site_label_1
_geom_bond_atom_site_label_2
_geom_bond_distance
_geom_bond_site_symmetry_2
Li0 O2 2.110359 1_555
Li0 O4 2.110359 1_555
Li0 O3 2.179268 1_545
Li0 O3 2.179268 1_455
Li0 O0 2.179268 1_655
Li0 O0 2.179268 1_565
Li1 O5 2.110453 1_554
Li1 O0 2.111233 1_555
Li1 O1 2.160958 1_545
Li1 O1 2.160958 1_455
Li1 O4 2.213393 1_545
Li1 O4 2.213393 1_455
Li2 O1 2.110453 1_556
Li2 O3 2.111233 1_555
Li2 O5 2.160958 1_565
Li2 O5 2.160958 1_655
Li2 O2 2.213393 1_565
Li2 O2 2.213393 1_655
Mn0 O4 1.926000 1_555
Mn0 O2 1.926000 1_554
Mn0 O5 2.123040 1_654
Mn0 O5 2.123040 1_564
Mn0 O1 2.123040 1_545
Mn0 O1 2.123040 1_455
Co0 O0 1.917655 1_555
Co0 O5 1.927157 1_555
Co0 O3 2.096007 1_455
Co0 O3 2.096007 1_545
Co0 O2 2.096333 1_455
Co0 O2 2.096333 1_545
Co1 O3 1.917655 1_555
Co1 O1 1.927157 1_555
Co1 O0 2.096007 1_655
Co1 O0 2.096007 1_565
Co1 O4 2.096333 1_655
Co1 O4 2.096333 1_565
