# generated using pymatgen
data_Er6Ag(GeS7)2
_symmetry_space_group_name_H-M   'P 1'
_cell_length_a   9.75076818
_cell_length_b   9.75076818
_cell_length_c   5.86646300
_cell_angle_alpha   90.00000000
_cell_angle_beta   90.00000000
_cell_angle_gamma   120.00000121
_symmetry_Int_Tables_number   1
_chemical_formula_structural   Er6Ag(GeS7)2
_chemical_formula_sum   'Er6 Ag1 Ge2 S14'
_cell_volume   483.04170093
_cell_formula_units_Z   1
loop_
 _symmetry_equiv_pos_site_id
 _symmetry_equiv_pos_as_xyz
  1  'x, y, z'
loop_
 _atom_site_type_symbol
 _atom_site_label
 _atom_site_symmetry_multiplicity
 _atom_site_fract_x
 _atom_site_fract_y
 _atom_site_fract_z
 _atom_site_occupancy
  Er  Er0  1  0.35781300  0.14091000  0.25458500  1
  Er  Er1  1  0.85909000  0.21690300  0.25458500  1
  Er  Er2  1  0.78309700  0.64218700  0.25458500  1
  Er  Er3  1  0.64200500  0.85902800  0.75390800  1
  Er  Er4  1  0.14097200  0.78297700  0.75390800  1
  Er  Er5  1  0.21702300  0.35799500  0.75390800  1
  Ag  Ag0  1  0.00000000  0.00000000  0.54295500  1
  Ge  Ge0  1  0.33333300  0.66666700  0.17907100  1
  Ge  Ge1  1  0.66666700  0.33333300  0.67660500  1
  S  S0  1  0.25951900  0.10441200  0.80662300  1
  S  S1  1  0.89558800  0.15510700  0.80662300  1
  S  S2  1  0.84489300  0.74048100  0.80662300  1
  S  S3  1  0.73855000  0.89278000  0.30909500  1
  S  S4  1  0.10722000  0.84577100  0.30909500  1
  S  S5  1  0.15422900  0.26145000  0.30909500  1
  S  S6  1  0.33333300  0.66666700  0.55699400  1
  S  S7  1  0.66666700  0.33333300  0.05521300  1
  S  S8  1  0.52177600  0.42693400  0.51373500  1
  S  S9  1  0.57306600  0.09484200  0.51373500  1
  S  S10  1  0.90515800  0.47822400  0.51373500  1
  S  S11  1  0.47866500  0.57319400  0.01631300  1
  S  S12  1  0.42680600  0.90547100  0.01631300  1
  S  S13  1  0.09452900  0.52133500  0.01631300  1
loop_
_geom_bond_atom_site_label_1
_geom_bond_atom_site_label_2
_geom_bond_distance
_geom_bond_site_symmetry_2
Er0 S4 2.706074 1_545
Er0 S0 2.758678 1_554
Er0 S5 2.785238 1_555
Er0 S9 2.803782 1_555
Er0 S8 2.861245 1_555
Er0 S7 2.882253 1_555
Er0 S12 3.036635 1_545
Er0 S0 3.345463 1_555
Er1 S5 2.706070 1_655
Er1 S1 2.758678 1_554
Er1 S3 2.785229 1_545
Er1 S10 2.803782 1_555
Er1 S9 2.861245 1_555
Er1 S7 2.882246 1_555
Er1 S13 3.036635 1_655
Er1 S1 3.345463 1_555
Er2 S3 2.706080 1_555
Er2 S2 2.758678 1_554
Er2 S4 2.785231 1_655
Er2 S8 2.803782 1_555
Er2 S10 2.861245 1_555
Er2 S7 2.882255 1_555
Er2 S11 3.036635 1_555
Er2 S2 3.345463 1_555
Er3 S1 2.721362 1_565
Er3 S3 2.737533 1_555
Er3 S2 2.762662 1_555
Er3 S12 2.815696 1_556
Er3 S11 2.869726 1_556
Er3 S6 2.875075 1_555
Er3 S9 3.044634 1_565
Er3 S3 3.360454 1_556
Er4 S2 2.721362 1_455
Er4 S4 2.737536 1_555
Er4 S0 2.762662 1_565
Er4 S13 2.815696 1_556
Er4 S12 2.869726 1_556
Er4 S6 2.875068 1_555
Er4 S10 3.044634 1_455
Er4 S4 3.360456 1_556
Er5 S0 2.721362 1_555
Er5 S5 2.737533 1_555
Er5 S1 2.762662 1_455
Er5 S11 2.815696 1_556
Er5 S13 2.869726 1_556
Er5 S6 2.875076 1_555
Er5 S8 3.044634 1_555
Er5 S5 3.360454 1_556
Ag0 S4 2.609412 1_545
Ag0 S5 2.609418 1_555
Ag0 S3 2.609419 1_445
Ag0 S2 2.693749 1_445
Ag0 S0 2.693749 1_555
Ag0 S1 2.693749 1_455
Ge0 S6 2.217071 1_555
Ge0 S12 2.245463 1_555
Ge0 S13 2.245464 1_555
Ge0 S11 2.245471 1_555
Ge1 S7 2.221090 1_556
Ge1 S9 2.243058 1_555
Ge1 S10 2.243059 1_555
Ge1 S8 2.243067 1_555
