# generated using pymatgen
data_LaNO6
_symmetry_space_group_name_H-M   'P 1'
_cell_length_a   4.06539694
_cell_length_b   6.11538206
_cell_length_c   10.62730318
_cell_angle_alpha   102.35314965
_cell_angle_beta   75.48330376
_cell_angle_gamma   93.45875236
_symmetry_Int_Tables_number   1
_chemical_formula_structural   LaNO6
_chemical_formula_sum   'La2 N2 O12'
_cell_volume   249.84711388
_cell_formula_units_Z   2
loop_
 _symmetry_equiv_pos_site_id
 _symmetry_equiv_pos_as_xyz
  1  'x, y, z'
loop_
 _atom_site_type_symbol
 _atom_site_label
 _atom_site_symmetry_multiplicity
 _atom_site_fract_x
 _atom_site_fract_y
 _atom_site_fract_z
 _atom_site_occupancy
  La  La0  1  0.20636100  0.77853900  0.58602500  1
  La  La1  1  0.79363900  0.22146100  0.41397500  1
  N  N0  1  0.65493800  0.18973700  0.82989000  1
  N  N1  1  0.34506200  0.81026300  0.17011000  1
  O  O0  1  0.06070900  0.69218700  0.82282300  1
  O  O1  1  0.93929100  0.30781300  0.17717700  1
  O  O2  1  0.61022700  0.00463100  0.75058900  1
  O  O3  1  0.38977300  0.99536900  0.24941100  1
  O  O4  1  0.68274400  0.55703400  0.59494100  1
  O  O5  1  0.31725600  0.44296600  0.40505900  1
  O  O6  1  0.80628900  0.84751600  0.46070700  1
  O  O7  1  0.19371100  0.15248400  0.53929300  1
  O  O8  1  0.82386300  0.18653500  0.91236600  1
  O  O9  1  0.17613700  0.81346500  0.08763400  1
  O  O10  1  0.53105700  0.36516400  0.82046900  1
  O  O11  1  0.46894300  0.63483600  0.17953100  1
loop_
_geom_bond_atom_site_label_1
_geom_bond_atom_site_label_2
_geom_bond_distance
_geom_bond_site_symmetry_2
La0 O4 2.445643 1_455
La0 O7 2.447807 1_565
La0 O6 2.450717 1_455
La0 O4 2.461320 1_555
La0 O5 2.470125 1_555
La0 O6 2.527431 1_555
La0 O0 2.597350 1_555
La0 O2 2.792307 1_565
La0 O2 2.844040 1_465
La1 O5 2.445643 1_655
La1 O6 2.447807 1_545
La1 O7 2.450717 1_655
La1 O5 2.461320 1_555
La1 O4 2.470125 1_555
La1 O7 2.527431 1_555
La1 O1 2.597350 1_555
La1 O3 2.792307 1_545
La1 O3 2.844040 1_645
N0 O8 1.245384 1_555
N0 O10 1.245390 1_555
N0 O2 1.291692 1_555
N1 O9 1.245384 1_555
N1 O11 1.245390 1_555
N1 O3 1.291692 1_555
