# generated using pymatgen
data_SrCa7Ti2Mn6O21
_symmetry_space_group_name_H-M   'P 1'
_cell_length_a   7.87932394
_cell_length_b   7.74648541
_cell_length_c   7.84983872
_cell_angle_alpha   89.93614473
_cell_angle_beta   89.36469910
_cell_angle_gamma   90.51777579
_symmetry_Int_Tables_number   1
_chemical_formula_structural   SrCa7Ti2Mn6O21
_chemical_formula_sum   'Sr1 Ca7 Ti2 Mn6 O21'
_cell_volume   479.08176973
_cell_formula_units_Z   1
loop_
 _symmetry_equiv_pos_site_id
 _symmetry_equiv_pos_as_xyz
  1  'x, y, z'
loop_
 _atom_site_type_symbol
 _atom_site_label
 _atom_site_symmetry_multiplicity
 _atom_site_fract_x
 _atom_site_fract_y
 _atom_site_fract_z
 _atom_site_occupancy
  Sr  Sr0  1  0.24050100  0.26046700  0.24290200  1
  Ca  Ca0  1  0.28210800  0.26460000  0.70718100  1
  Ca  Ca1  1  0.22354900  0.71818500  0.24621100  1
  Ca  Ca2  1  0.26511100  0.73048100  0.69766600  1
  Ca  Ca3  1  0.76802900  0.27066200  0.28180700  1
  Ca  Ca4  1  0.74626100  0.23842700  0.72895100  1
  Ca  Ca5  1  0.71938600  0.74782400  0.25316200  1
  Ca  Ca6  1  0.75449200  0.74535000  0.70634700  1
  Ti  Ti0  1  0.01717500  0.98636200  0.98776100  1
  Ti  Ti1  1  0.48738700  0.99208100  0.99240100  1
  Mn  Mn0  1  0.00573200  0.99765400  0.51081500  1
  Mn  Mn1  1  0.98020100  0.50442400  0.01455800  1
  Mn  Mn2  1  0.99760900  0.50133100  0.50678300  1
  Mn  Mn3  1  0.51301600  0.00121800  0.47664300  1
  Mn  Mn4  1  0.49236900  0.50244100  0.98428800  1
  Mn  Mn5  1  0.50632700  0.50786700  0.49934300  1
  O  O0  1  0.94908700  0.98540600  0.77122200  1
  O  O1  1  0.01656900  0.48542000  0.26239100  1
  O  O2  1  0.97064800  0.51697800  0.76247400  1
  O  O3  1  0.58159000  0.04574700  0.19784300  1
  O  O4  1  0.56600800  0.97677700  0.76939000  1
  O  O5  1  0.50658800  0.55473800  0.74122600  1
  O  O6  1  0.24901400  0.97301100  0.00677000  1
  O  O7  1  0.25802400  0.03695100  0.50884300  1
  O  O8  1  0.24253500  0.51876100  0.01400400  1
  O  O9  1  0.26530700  0.47294300  0.49945200  1
  O  O10  1  0.76535500  0.95855300  0.46991700  1
  O  O11  1  0.72494900  0.47623400  0.05736700  1
  O  O12  1  0.74168200  0.53962700  0.47200100  1
  O  O13  1  0.96904300  0.19124200  0.08228500  1
  O  O14  1  0.96823400  0.24587500  0.51696600  1
  O  O15  1  0.95457400  0.78964600  0.09324700  1
  O  O16  1  0.05026500  0.75325100  0.49851500  1
  O  O17  1  0.46176800  0.25528600  0.94807100  1
  O  O18  1  0.53995100  0.25637500  0.50914400  1
  O  O19  1  0.50680400  0.74692100  0.04308000  1
  O  O20  1  0.46275400  0.75088400  0.43897300  1
loop_
_geom_bond_atom_site_label_1
_geom_bond_atom_site_label_2
_geom_bond_distance
_geom_bond_site_symmetry_2
Ca0 O9 2.298706 1_555
Ca0 O7 2.361461 1_555
Ca0 O17 2.376071 1_555
Ca0 O18 2.545732 1_555
Ca1 O8 2.394965 1_555
Ca1 O16 2.410082 1_555
Ca1 O1 2.422561 1_555
Ca1 O20 2.441645 1_555
Ca1 O15 2.513163 1_455
Ca1 O6 2.728729 1_555
Ca1 O19 2.735805 1_555
Ca1 O9 2.772453 1_555
Ca2 O16 2.324696 1_555
Ca2 O5 2.377117 1_555
Ca2 O9 2.531399 1_555
Ca2 O20 2.549232 1_555
Ca2 O7 2.798696 1_565
Ca2 O2 2.877493 1_455
Ca2 O8 2.977192 1_556
Ca2 O6 3.072613 1_556
Ca2 O4 3.086815 1_555
Ca3 O13 2.303232 1_555
Ca3 O3 2.367658 1_555
Ca3 O11 2.402484 1_555
Ca3 O14 2.449927 1_555
Ca3 O18 2.520182 1_555
Ca3 O1 2.561218 1_655
Ca3 O12 2.573152 1_555
Ca3 O10 2.831400 1_545
Ca4 O18 2.388468 1_555
Ca4 O14 2.400999 1_555
Ca4 O4 2.482473 1_545
Ca4 O0 2.563737 1_545
Ca4 O2 2.791743 1_555
Ca4 O17 2.814386 1_555
Ca5 O15 2.247548 1_555
Ca5 O19 2.363539 1_555
Ca5 O12 2.364026 1_555
Ca5 O10 2.387509 1_555
Ca5 O20 2.480405 1_555
Ca5 O3 2.597520 1_565
Ca5 O11 2.607260 1_555
Ca6 O4 2.387099 1_555
Ca6 O12 2.437548 1_555
Ca6 O5 2.450670 1_555
Ca6 O0 2.456879 1_555
Ca6 O10 2.483267 1_555
Ca6 O2 2.508762 1_555
Mn0 O16 1.930948 1_555
Mn0 O10 1.945614 1_455
Mn0 O14 1.948615 1_465
Mn0 O7 2.008229 1_565
Mn0 O0 2.089339 1_455
Mn1 O1 1.975106 1_655
Mn1 O2 1.983394 1_554
Mn1 O11 2.045117 1_555
Mn1 O8 2.068950 1_655
Mn1 O15 2.304867 1_555
Mn1 O13 2.483622 1_555
Mn2 O1 1.926763 1_655
Mn2 O14 1.991710 1_555
Mn2 O16 1.992277 1_655
Mn2 O2 2.019890 1_555
Mn2 O12 2.061988 1_555
Mn2 O9 2.122840 1_655
Mn3 O20 1.998701 1_545
Mn3 O18 2.002924 1_555
Mn3 O10 2.018611 1_545
Mn3 O7 2.043575 1_555
Mn3 O3 2.273618 1_555
Mn3 O4 2.347936 1_545
Mn4 O11 1.938659 1_556
Mn4 O17 1.949097 1_555
Mn4 O5 1.951882 1_555
Mn4 O19 1.952397 1_556
Mn4 O8 1.984908 1_556
Mn5 O12 1.878390 1_555
Mn5 O9 1.915817 1_555
Mn5 O5 1.933564 1_555
Mn5 O18 1.970015 1_555
Mn5 O20 1.974756 1_555
O0 Ti0 1.788116 1_655
O1 Sr0 2.494683 1_555
O3 Ti1 1.829478 1_544
O3 Sr0 3.189939 1_555
O4 Ti1 1.854765 1_555
O6 Ti0 1.838300 1_554
O6 Ti1 1.884807 1_554
O6 Sr0 2.899653 1_565
O7 Sr0 2.716198 1_555
O8 Sr0 2.687572 1_555
O9 Sr0 2.610235 1_555
O13 Ti0 1.794586 1_644
O13 Sr0 2.548082 1_655
O14 Sr0 3.022594 1_655
O15 Ti0 1.796009 1_654
O17 Ti1 2.080006 1_545
O17 Sr0 2.882621 1_556
O18 Sr0 3.169629 1_555
O19 Ti1 1.947633 1_554
