# generated using pymatgen
data_PrBiRh
_symmetry_space_group_name_H-M   'P 1'
_cell_length_a   4.76454752
_cell_length_b   7.54607637
_cell_length_c   8.06120894
_cell_angle_alpha   90.00000000
_cell_angle_beta   90.00000000
_cell_angle_gamma   90.00000000
_symmetry_Int_Tables_number   1
_chemical_formula_structural   PrBiRh
_chemical_formula_sum   'Pr4 Bi4 Rh4'
_cell_volume   289.82979980
_cell_formula_units_Z   4
loop_
 _symmetry_equiv_pos_site_id
 _symmetry_equiv_pos_as_xyz
  1  'x, y, z'
loop_
 _atom_site_type_symbol
 _atom_site_label
 _atom_site_symmetry_multiplicity
 _atom_site_fract_x
 _atom_site_fract_y
 _atom_site_fract_z
 _atom_site_occupancy
  Pr  Pr0  1  0.75000000  0.01474616  0.30315134  1
  Pr  Pr1  1  0.25000000  0.98525384  0.69684866  1
  Pr  Pr2  1  0.25000000  0.48525384  0.80315134  1
  Pr  Pr3  1  0.75000000  0.51474616  0.19684866  1
  Bi  Bi0  1  0.75000000  0.68367704  0.59050351  1
  Bi  Bi1  1  0.25000000  0.31632296  0.40949649  1
  Bi  Bi2  1  0.25000000  0.81632296  0.09050351  1
  Bi  Bi3  1  0.75000000  0.18367704  0.90949649  1
  Rh  Rh0  1  0.75000000  0.79694458  0.91939701  1
  Rh  Rh1  1  0.25000000  0.20305542  0.08060299  1
  Rh  Rh2  1  0.25000000  0.70305542  0.41939701  1
  Rh  Rh3  1  0.75000000  0.29694458  0.58060299  1
loop_
_geom_bond_atom_site_label_1
_geom_bond_atom_site_label_2
_geom_bond_distance
_geom_bond_site_symmetry_2
Pr0 Rh3 3.088218 1_555
Pr0 Rh1 3.303472 1_655
Pr0 Rh1 3.303472 1_555
Pr0 Rh2 3.476413 1_645
Pr0 Rh2 3.476413 1_545
Pr0 Rh0 3.503018 1_544
Pr1 Rh2 3.088218 1_555
Pr1 Rh0 3.303472 1_555
Pr1 Rh0 3.303472 1_455
Pr1 Rh3 3.476413 1_565
Pr1 Rh3 3.476413 1_465
Pr1 Rh1 3.503018 1_566
Pr2 Rh1 3.088218 1_556
Pr2 Rh3 3.303472 1_455
Pr2 Rh3 3.303472 1_555
Pr2 Rh0 3.476413 1_455
Pr2 Rh0 3.476413 1_555
Pr2 Rh2 3.503018 1_555
Pr3 Rh0 3.088218 1_554
Pr3 Rh2 3.303472 1_555
Pr3 Rh2 3.303472 1_655
Pr3 Rh1 3.476413 1_555
Pr3 Rh1 3.476413 1_655
Pr3 Rh3 3.503018 1_555
Bi0 Rh2 2.756656 1_555
Bi0 Rh2 2.756656 1_655
Bi0 Rh0 2.785648 1_555
Bi0 Rh3 2.919404 1_555
Bi0 Pr2 3.294793 1_655
Bi0 Pr2 3.294793 1_555
Bi0 Pr1 3.404269 1_555
Bi0 Pr1 3.404269 1_655
Bi0 Pr0 3.406920 1_565
Bi0 Pr3 3.419806 1_555
Bi1 Rh3 2.756656 1_555
Bi1 Rh3 2.756656 1_455
Bi1 Rh1 2.785648 1_555
Bi1 Rh2 2.919404 1_555
Bi1 Pr3 3.294793 1_455
Bi1 Pr3 3.294793 1_555
Bi1 Pr0 3.404269 1_555
Bi1 Pr0 3.404269 1_455
Bi1 Pr1 3.406920 1_545
Bi1 Pr2 3.419806 1_555
Bi2 Rh0 2.756656 1_554
Bi2 Rh0 2.756656 1_454
Bi2 Rh2 2.785648 1_555
Bi2 Rh1 2.919404 1_565
Bi2 Pr0 3.294793 1_565
Bi2 Pr0 3.294793 1_465
Bi2 Pr3 3.404269 1_455
Bi2 Pr3 3.404269 1_555
Bi2 Pr2 3.406920 1_554
Bi2 Pr1 3.419806 1_554
Bi3 Rh1 2.756656 1_556
Bi3 Rh1 2.756656 1_656
Bi3 Rh3 2.785648 1_555
Bi3 Rh0 2.919404 1_545
Bi3 Pr1 3.294793 1_545
Bi3 Pr1 3.294793 1_645
Bi3 Pr2 3.404269 1_655
Bi3 Pr2 3.404269 1_555
Bi3 Pr3 3.406920 1_556
Bi3 Pr0 3.419806 1_556
