# generated using pymatgen
data_Fe4O7F
_symmetry_space_group_name_H-M   'P 1'
_cell_length_a   6.03215400
_cell_length_b   6.41624200
_cell_length_c   6.61664500
_cell_angle_alpha   90.00000000
_cell_angle_beta   90.00000000
_cell_angle_gamma   90.00000000
_symmetry_Int_Tables_number   1
_chemical_formula_structural   Fe4O7F
_chemical_formula_sum   'Fe8 O14 F2'
_cell_volume   256.08903906
_cell_formula_units_Z   2
loop_
 _symmetry_equiv_pos_site_id
 _symmetry_equiv_pos_as_xyz
  1  'x, y, z'
loop_
 _atom_site_type_symbol
 _atom_site_label
 _atom_site_symmetry_multiplicity
 _atom_site_fract_x
 _atom_site_fract_y
 _atom_site_fract_z
 _atom_site_occupancy
  Fe  Fe0  1  0.74278100  0.00000000  0.74156500  1
  Fe  Fe1  1  0.25721900  0.00000000  0.74156500  1
  Fe  Fe2  1  0.50000000  0.50000000  0.73173800  1
  Fe  Fe3  1  0.00000000  0.50000000  0.75624100  1
  Fe  Fe4  1  0.50000000  0.00000000  0.24375900  1
  Fe  Fe5  1  0.00000000  0.00000000  0.26826200  1
  Fe  Fe6  1  0.24278100  0.50000000  0.25843500  1
  Fe  Fe7  1  0.75721900  0.50000000  0.25843500  1
  O  O0  1  0.00000000  0.00000000  0.56681600  1
  O  O1  1  0.50000000  0.00000000  0.54644000  1
  O  O2  1  0.75257900  0.69391600  0.75265800  1
  O  O3  1  0.24742100  0.69391600  0.75265800  1
  O  O4  1  0.74742100  0.80608400  0.24734200  1
  O  O5  1  0.25257900  0.80608400  0.24734200  1
  O  O6  1  0.75257900  0.30608400  0.75265800  1
  O  O7  1  0.24742100  0.30608400  0.75265800  1
  O  O8  1  0.50000000  0.00000000  0.93695300  1
  O  O9  1  0.00000000  0.50000000  0.45356000  1
  O  O10  1  0.50000000  0.50000000  0.43318400  1
  O  O11  1  0.00000000  0.50000000  0.06304700  1
  O  O12  1  0.74742100  0.19391600  0.24734200  1
  O  O13  1  0.25257900  0.19391600  0.24734200  1
  F  F0  1  0.00000000  0.00000000  0.95339500  1
  F  F1  1  0.50000000  0.50000000  0.04660500  1
loop_
_geom_bond_atom_site_label_1
_geom_bond_atom_site_label_2
_geom_bond_distance
_geom_bond_site_symmetry_2
Fe0 O0 1.935028 1_655
Fe0 O1 1.952334 1_555
Fe0 O8 1.953485 1_555
Fe0 O6 1.966169 1_555
Fe0 O2 1.966169 1_545
Fe1 O0 1.935028 1_555
Fe1 O1 1.952334 1_555
Fe1 O8 1.953485 1_555
Fe1 O7 1.966169 1_555
Fe1 O3 1.966169 1_545
Fe2 O7 1.971945 1_555
Fe2 O2 1.971945 1_555
Fe2 O3 1.971945 1_555
Fe2 O6 1.971945 1_555
Fe2 O10 1.975426 1_555
Fe3 O2 1.943226 1_455
Fe3 O6 1.943226 1_455
Fe3 O3 1.943226 1_555
Fe3 O7 1.943226 1_555
Fe3 O9 2.002733 1_555
Fe3 O11 2.030026 1_556
Fe4 O4 1.943226 1_545
Fe4 O5 1.943226 1_545
Fe4 O12 1.943226 1_555
Fe4 O13 1.943226 1_555
Fe4 O1 2.002733 1_555
Fe4 O8 2.030026 1_554
Fe5 O5 1.971945 1_545
Fe5 O4 1.971945 1_445
Fe5 O13 1.971945 1_555
Fe5 O12 1.971945 1_455
Fe5 O0 1.975426 1_555
Fe6 O10 1.935028 1_555
Fe6 O9 1.952334 1_555
Fe6 O11 1.953485 1_555
Fe6 O5 1.966169 1_555
Fe6 O13 1.966169 1_555
Fe7 O10 1.935028 1_555
Fe7 O9 1.952334 1_655
Fe7 O11 1.953485 1_655
Fe7 O12 1.966169 1_555
Fe7 O4 1.966169 1_555
F0 Fe5 2.083363 1_556
F0 Fe0 2.090911 1_455
F0 Fe1 2.090911 1_555
F1 Fe2 2.083363 1_554
F1 Fe6 2.090911 1_555
F1 Fe7 2.090911 1_555
