# generated using pymatgen
data_Lu(Mo3Se4)2
_symmetry_space_group_name_H-M   'P 1'
_cell_length_a   6.75871646
_cell_length_b   6.75871646
_cell_length_c   6.75871592
_cell_angle_alpha   89.62027268
_cell_angle_beta   89.62027268
_cell_angle_gamma   89.62026808
_symmetry_Int_Tables_number   1
_chemical_formula_structural   Lu(Mo3Se4)2
_chemical_formula_sum   'Lu1 Mo6 Se8'
_cell_volume   308.71956820
_cell_formula_units_Z   1
loop_
 _symmetry_equiv_pos_site_id
 _symmetry_equiv_pos_as_xyz
  1  'x, y, z'
loop_
 _atom_site_type_symbol
 _atom_site_label
 _atom_site_symmetry_multiplicity
 _atom_site_fract_x
 _atom_site_fract_y
 _atom_site_fract_z
 _atom_site_occupancy
  Lu  Lu0  1  0.00000000  0.00000000  0.00000000  1
  Mo  Mo0  1  0.76709100  0.57767500  0.44214300  1
  Mo  Mo1  1  0.44214300  0.76709100  0.57767500  1
  Mo  Mo2  1  0.57767500  0.44214300  0.76709100  1
  Mo  Mo3  1  0.23290900  0.42232500  0.55785700  1
  Mo  Mo4  1  0.55785700  0.23290900  0.42232500  1
  Mo  Mo5  1  0.42232500  0.55785700  0.23290900  1
  Se  Se0  1  0.76602100  0.76602100  0.76602100  1
  Se  Se1  1  0.23397900  0.23397900  0.23397900  1
  Se  Se2  1  0.24333700  0.63134300  0.87770700  1
  Se  Se3  1  0.87770700  0.24333700  0.63134300  1
  Se  Se4  1  0.63134300  0.87770700  0.24333700  1
  Se  Se5  1  0.75666300  0.36865700  0.12229300  1
  Se  Se6  1  0.12229300  0.75666300  0.36865700  1
  Se  Se7  1  0.36865700  0.12229300  0.75666300  1
loop_
_geom_bond_atom_site_label_1
_geom_bond_atom_site_label_2
_geom_bond_distance
_geom_bond_site_symmetry_2
Lu0 Se1 2.757154 1_555
Lu0 Se0 2.757154 1_444
Lu0 Se6 3.090519 1_545
Lu0 Se3 3.090519 1_454
Lu0 Se5 3.090519 1_455
Lu0 Se2 3.090519 1_544
Lu0 Se7 3.090519 1_554
Lu0 Se4 3.090519 1_445
Mo0 Se0 2.539458 1_555
Mo0 Se4 2.591311 1_555
Mo0 Se5 2.591864 1_555
Mo0 Se3 2.693017 1_555
Mo0 Se6 2.736469 1_655
Mo1 Se0 2.539458 1_555
Mo1 Se2 2.591311 1_555
Mo1 Se6 2.591865 1_555
Mo1 Se4 2.693017 1_555
Mo1 Se7 2.736468 1_565
Mo2 Se0 2.539458 1_555
Mo2 Se3 2.591311 1_555
Mo2 Se7 2.591865 1_555
Mo2 Se2 2.693017 1_555
Mo2 Se5 2.736468 1_556
Mo3 Se1 2.539458 1_555
Mo3 Se7 2.591311 1_555
Mo3 Se2 2.591864 1_555
Mo3 Se6 2.693017 1_555
Mo3 Se3 2.736469 1_455
Mo4 Se1 2.539458 1_555
Mo4 Se5 2.591311 1_555
Mo4 Se3 2.591865 1_555
Mo4 Se7 2.693017 1_555
Mo4 Se4 2.736468 1_545
Mo5 Se1 2.539458 1_555
Mo5 Se6 2.591311 1_555
Mo5 Se4 2.591865 1_555
Mo5 Se5 2.693017 1_555
Mo5 Se2 2.736468 1_554
