# generated using pymatgen
data_CaSi(HO2)2
_symmetry_space_group_name_H-M   'P 1'
_cell_length_a   11.82664840
_cell_length_b   9.86852666
_cell_length_c   15.19174507
_cell_angle_alpha   51.09540739
_cell_angle_beta   40.49250019
_cell_angle_gamma   88.41209242
_symmetry_Int_Tables_number   1
_chemical_formula_structural   CaSi(HO2)2
_chemical_formula_sum   'Ca4 Si4 H8 O16'
_cell_volume   407.95363560
_cell_formula_units_Z   4
loop_
 _symmetry_equiv_pos_site_id
 _symmetry_equiv_pos_as_xyz
  1  'x, y, z'
loop_
 _atom_site_type_symbol
 _atom_site_label
 _atom_site_symmetry_multiplicity
 _atom_site_fract_x
 _atom_site_fract_y
 _atom_site_fract_z
 _atom_site_occupancy
  Ca  Ca0  1  0.46084000  0.16781200  0.12376100  1
  Ca  Ca1  1  0.16781200  0.46084000  0.24758800  1
  Ca  Ca2  1  0.12623900  0.00241200  0.78916000  1
  Ca  Ca3  1  0.00241200  0.12623900  0.08218800  1
  Si  Si0  1  0.18828100  0.54173600  0.51892400  1
  Si  Si1  1  0.54173600  0.18828100  0.75105900  1
  Si  Si2  1  0.73107600  0.49894100  0.06171900  1
  Si  Si3  1  0.49894100  0.73107600  0.70826400  1
  H  H0  1  0.71094100  0.37079700  0.40499800  1
  H  H1  1  0.37079700  0.71094100  0.51326500  1
  H  H2  1  0.84500200  0.73673500  0.53905900  1
  H  H3  1  0.73673500  0.84500200  0.87920300  1
  H  H4  1  0.31160600  0.77353900  0.60722200  1
  H  H5  1  0.77353900  0.31160600  0.30763200  1
  H  H6  1  0.64277800  0.94236800  0.93839400  1
  H  H7  1  0.94236800  0.64277800  0.47646100  1
  O  O0  1  0.87095800  0.87095800  0.12904200  1
  O  O1  1  0.12095800  0.12095800  0.37904200  1
  O  O2  1  0.04878900  0.56807000  0.65869900  1
  O  O3  1  0.56807000  0.04878900  0.72444100  1
  O  O4  1  0.59130100  0.52555900  0.20121100  1
  O  O5  1  0.52555900  0.59130100  0.68193000  1
  O  O6  1  0.56095400  0.95149100  0.07602700  1
  O  O7  1  0.95149100  0.56095400  0.41152700  1
  O  O8  1  0.17397300  0.83847300  0.68904600  1
  O  O9  1  0.83847300  0.17397300  0.29850900  1
  O  O10  1  0.39958100  0.73084400  0.55214400  1
  O  O11  1  0.73084400  0.39958100  0.31743100  1
  O  O12  1  0.69785600  0.93256900  0.85041900  1
  O  O13  1  0.93256900  0.69785600  0.51915600  1
  O  O14  1  0.25716000  0.25716000  0.74284000  1
  O  O15  1  0.50716000  0.50716000  0.99284000  1
loop_
_geom_bond_atom_site_label_1
_geom_bond_atom_site_label_2
_geom_bond_distance
_geom_bond_site_symmetry_2
Ca0 O15 2.355674 1_554
Ca0 O1 2.356240 1_555
Ca0 O2 2.370040 1_654
Ca0 O2 2.402010 1_545
Ca0 O13 2.481647 1_445
Ca0 O13 2.486264 1_554
Ca0 O6 2.642617 1_545
Ca1 O15 2.355677 1_554
Ca1 O1 2.356243 1_555
Ca1 O3 2.370049 1_564
Ca1 O3 2.402019 1_455
Ca1 O12 2.481637 1_445
Ca1 O12 2.486254 1_554
Ca1 O7 2.642604 1_455
Ca2 O14 2.355683 1_555
Ca2 O0 2.356248 1_446
Ca2 O4 2.370038 1_555
Ca2 O4 2.402002 1_446
Ca2 O11 2.481643 1_446
Ca2 O11 2.486262 1_555
Ca2 O8 2.642598 1_545
Ca3 O14 2.355669 1_554
Ca3 O0 2.356234 1_445
Ca3 O5 2.370057 1_554
Ca3 O5 2.402021 1_445
Ca3 O10 2.481638 1_445
Ca3 O10 2.486258 1_554
Ca3 O9 2.642622 1_455
H0 O11 0.979072 1_555
H1 O10 0.979057 1_555
H2 O13 0.979067 1_555
H3 O12 0.979063 1_555
H4 O10 1.026921 1_555
H4 O8 1.571794 1_555
H5 O11 1.026926 1_555
H5 O9 1.571786 1_555
H6 O12 1.026930 1_555
H6 O6 1.571777 1_556
H7 O13 1.026917 1_555
H7 O7 1.571804 1_555
O0 O14 1.389073 1_664
O1 O15 1.389073 1_554
O2 Si0 1.624602 1_555
O3 Si1 1.624611 1_555
O4 Si2 1.624611 1_555
O5 Si3 1.624601 1_555
O6 Si0 1.660468 1_555
O6 Si0 2.360466 1_664
O7 Si1 1.660460 1_555
O7 Si1 2.360461 1_664
O8 Si2 1.660467 1_456
O8 Si2 2.360463 1_565
O9 Si3 1.660463 1_545
O9 Si3 2.360460 1_654
