# generated using pymatgen
data_CsOsN2
_symmetry_space_group_name_H-M   'P 1'
_cell_length_a   10.43827350
_cell_length_b   13.22574251
_cell_length_c   9.27046994
_cell_angle_alpha   89.99955804
_cell_angle_beta   63.63545817
_cell_angle_gamma   129.31215113
_symmetry_Int_Tables_number   1
_chemical_formula_structural   CsOsN2
_chemical_formula_sum   'Cs10 Os10 N20'
_cell_volume   810.85625850
_cell_formula_units_Z   10
loop_
 _symmetry_equiv_pos_site_id
 _symmetry_equiv_pos_as_xyz
  1  'x, y, z'
loop_
 _atom_site_type_symbol
 _atom_site_label
 _atom_site_symmetry_multiplicity
 _atom_site_fract_x
 _atom_site_fract_y
 _atom_site_fract_z
 _atom_site_occupancy
  Cs  Cs0  1  0.60174942  0.70041186  0.96574506  1
  Cs  Cs1  1  0.39825188  0.29958704  0.56749381  1
  Cs  Cs2  1  0.79907479  0.59866802  0.11707847  1
  Cs  Cs3  1  0.20092547  0.40133474  0.91615281  1
  Cs  Cs4  1  0.60173194  0.20035632  0.71282753  1
  Cs  Cs5  1  0.39826846  0.79964444  0.31455632  1
  Cs  Cs6  1  0.79897957  0.09861843  0.36419950  1
  Cs  Cs7  1  0.20102007  0.90137707  0.16317931  1
  Cs  Cs8  1  0.00000085  0.00000282  0.51516044  1
  Cs  Cs9  1  0.00000108  0.50000028  0.76516247  1
  Os  Os0  1  0.00000219  0.49999892  0.26509994  1
  Os  Os1  1  0.99997632  0.99997563  0.01512779  1
  Os  Os2  1  0.19974434  0.39961041  0.41490403  1
  Os  Os3  1  0.80024314  0.60038777  0.61460623  1
  Os  Os4  1  0.59949088  0.69987971  0.46502125  1
  Os  Os5  1  0.40053997  0.30014658  0.06446271  1
  Os  Os6  1  0.40049507  0.80015127  0.81528908  1
  Os  Os7  1  0.59950484  0.19984392  0.21580614  1
  Os  Os8  1  0.19980611  0.89966595  0.66563185  1
  Os  Os9  1  0.80018777  0.10033298  0.86545880  1
  N  N0  1  0.09880814  0.44899363  0.34055322  1
  N  N1  1  0.90118965  0.55100401  0.43936543  1
  N  N2  1  0.79918240  0.85018964  0.24035590  1
  N  N3  1  0.20083098  0.14982319  0.03955396  1
  N  N4  1  0.09885147  0.94905552  0.84096508  1
  N  N5  1  0.90115775  0.05095382  0.93980570  1
  N  N6  1  0.79926609  0.35021312  0.24076624  1
  N  N7  1  0.20072898  0.64978327  0.04003510  1
  N  N8  1  0.30056267  0.35030188  0.23926418  1
  N  N9  1  0.69943705  0.64969086  0.53983726  1
  N  N10  1  0.40002608  0.54972585  0.43950713  1
  N  N11  1  0.59993724  0.45024778  0.83959479  1
  N  N12  1  0.30056058  0.85030662  0.74041995  1
  N  N13  1  0.69944737  0.14969832  0.04097254  1
  N  N14  1  0.40005879  0.04975503  0.44067576  1
  N  N15  1  0.59993894  0.95024619  0.84072759  1
  N  N16  1  0.49994708  0.74994676  0.64014464  1
  N  N17  1  0.50004816  0.25005558  0.14008736  1
  N  N18  1  0.99994578  0.74999686  0.64015093  1
  N  N19  1  0.00008065  0.25001792  0.64005169  1
loop_
_geom_bond_atom_site_label_1
_geom_bond_atom_site_label_2
_geom_bond_distance
_geom_bond_site_symmetry_2
Cs0 N4 3.482040 1_655
Cs0 N18 3.495782 1_555
Cs0 N8 3.496927 1_556
Cs0 N11 3.500757 1_555
Cs0 N5 3.506071 1_565
Cs0 N7 3.511825 1_556
Cs0 N15 3.515696 1_555
Cs0 N0 3.517131 1_556
Cs1 N5 3.481888 1_455
Cs1 N19 3.495837 1_555
Cs1 N9 3.496961 1_555
Cs1 N10 3.500796 1_555
Cs1 N4 3.505932 1_545
Cs1 N6 3.511733 1_555
Cs1 N14 3.515636 1_555
Cs1 N1 3.517201 1_555
Cs2 N6 3.481793 1_555
Cs2 N17 3.495689 1_555
Cs2 N10 3.497049 1_555
Cs2 N8 3.501039 1_555
Cs2 N7 3.506268 1_655
Cs2 N4 3.511527 1_654
Cs2 N12 3.515911 1_654
Cs2 N2 3.516895 1_555
Cs3 N7 3.481765 1_556
Cs3 N16 3.495605 1_555
Cs3 N11 3.497132 1_555
Cs3 N9 3.500919 1_555
Cs3 N6 3.506209 1_456
Cs3 N5 3.511555 1_455
Cs3 N13 3.515959 1_456
Cs3 N3 3.516903 1_556
Cs4 N0 3.481689 1_655
Cs4 N19 3.496292 1_655
Cs4 N12 3.496611 1_545
Cs4 N15 3.500022 1_545
Cs4 N1 3.506909 1_555
Cs4 N3 3.511610 1_556
Cs4 N11 3.516164 1_555
Cs4 N4 3.516729 1_545
Cs5 N1 3.481770 1_455
Cs5 N18 3.496220 1_455
Cs5 N13 3.496584 1_565
Cs5 N14 3.500096 1_565
Cs5 N0 3.506999 1_555
Cs5 N2 3.511631 1_555
Cs5 N10 3.516130 1_555
Cs5 N5 3.516712 1_564
Cs6 N2 3.481430 1_545
Cs6 N16 3.495973 1_545
Cs6 N14 3.496819 1_555
Cs6 N12 3.500190 1_545
Cs6 N3 3.507074 1_655
Cs6 N0 3.511536 1_655
Cs6 N8 3.516419 1_655
Cs6 N6 3.516550 1_555
Cs7 N3 3.481476 1_565
Cs7 N17 3.496090 1_565
Cs7 N15 3.496728 1_554
Cs7 N13 3.500313 1_565
Cs7 N2 3.507208 1_455
Cs7 N1 3.511457 1_455
Cs7 N9 3.516366 1_455
Cs7 N7 3.516526 1_555
Cs8 N19 3.503108 1_555
Cs8 N18 3.503229 1_445
Cs8 N17 3.504255 1_555
Cs8 N16 3.504358 1_445
Cs8 N8 3.507783 1_555
Cs8 N15 3.507813 1_445
Cs8 N14 3.507893 1_555
Cs8 N9 3.507942 1_445
Cs9 N17 3.503356 1_456
Cs9 N16 3.503417 1_555
Cs9 N18 3.504034 1_455
Cs9 N19 3.504123 1_555
Cs9 N13 3.507570 1_456
Cs9 N12 3.507683 1_555
Cs9 N10 3.508051 1_555
Cs9 N11 3.508113 1_455
N0 Os2 1.878472 1_555
N0 Os0 1.878924 1_555
N1 Os3 1.878237 1_555
N1 Os0 1.878967 1_655
N2 Os4 1.878373 1_555
N2 Os1 1.878581 1_555
N3 Os5 1.878224 1_555
N3 Os1 1.879205 1_445
N4 Os1 1.877844 1_456
N4 Os8 1.878853 1_555
N5 Os1 1.878046 1_546
N5 Os9 1.878745 1_555
N6 Os0 1.877773 1_655
N6 Os7 1.879001 1_555
N7 Os0 1.877673 1_555
N7 Os6 1.879065 1_554
N8 Os5 1.878901 1_555
N8 Os2 1.879290 1_555
N9 Os3 1.878837 1_555
N9 Os4 1.878879 1_555
N10 Os2 1.878469 1_555
N10 Os4 1.879630 1_555
N11 Os5 1.878717 1_556
N11 Os3 1.879094 1_555
N12 Os6 1.878755 1_555
N12 Os8 1.878960 1_555
N13 Os9 1.878774 1_554
N13 Os7 1.878850 1_555
N14 Os7 1.878641 1_555
N14 Os8 1.878700 1_545
N15 Os6 1.878812 1_555
N15 Os9 1.878896 1_565
N16 Os4 1.878136 1_555
N16 Os6 1.879159 1_555
N17 Os5 1.878286 1_555
N17 Os7 1.879441 1_555
N18 Os3 1.878497 1_555
N18 Os8 1.879230 1_655
N19 Os2 1.877800 1_555
N19 Os9 1.879595 1_455
