# generated using pymatgen
data_Cs2KMoBr6
_symmetry_space_group_name_H-M   'P 1'
_cell_length_a   8.18466907
_cell_length_b   8.18466907
_cell_length_c   8.18466907
_cell_angle_alpha   60.00000000
_cell_angle_beta   60.00000000
_cell_angle_gamma   60.00000000
_symmetry_Int_Tables_number   1
_chemical_formula_structural   Cs2KMoBr6
_chemical_formula_sum   'Cs2 K1 Mo1 Br6'
_cell_volume   387.69337063
_cell_formula_units_Z   1
loop_
 _symmetry_equiv_pos_site_id
 _symmetry_equiv_pos_as_xyz
  1  'x, y, z'
loop_
 _atom_site_type_symbol
 _atom_site_label
 _atom_site_symmetry_multiplicity
 _atom_site_fract_x
 _atom_site_fract_y
 _atom_site_fract_z
 _atom_site_occupancy
  Cs  Cs0  1  0.75000000  0.75000000  0.75000000  1
  Cs  Cs1  1  0.25000000  0.25000000  0.25000000  1
  K  K0  1  0.50000000  0.50000000  0.50000000  1
  Mo  Mo0  1  0.00000000  0.00000000  0.00000000  1
  Br  Br0  1  0.77389300  0.22610700  0.22610700  1
  Br  Br1  1  0.22610700  0.22610700  0.77389300  1
  Br  Br2  1  0.22610700  0.77389300  0.77389300  1
  Br  Br3  1  0.22610700  0.77389300  0.22610700  1
  Br  Br4  1  0.77389300  0.22610700  0.77389300  1
  Br  Br5  1  0.77389300  0.77389300  0.22610700  1
loop_
_geom_bond_atom_site_label_1
_geom_bond_atom_site_label_2
_geom_bond_distance
_geom_bond_site_symmetry_2
Br0 Mo0 2.617159 1_655
Br0 K0 3.170276 1_555
Br0 Cs1 4.101669 1_555
Br0 Cs0 4.101669 1_545
Br0 Cs0 4.101669 1_554
Br0 Cs1 4.101669 1_655
Br1 Mo0 2.617159 1_556
Br1 K0 3.170276 1_555
Br1 Cs1 4.101669 1_555
Br1 Cs0 4.101669 1_545
Br1 Cs0 4.101669 1_455
Br1 Cs1 4.101669 1_556
Br2 Mo0 2.617159 1_566
Br2 K0 3.170276 1_555
Br2 Cs0 4.101669 1_455
Br2 Cs1 4.101669 1_556
Br2 Cs1 4.101669 1_565
Br2 Cs0 4.101669 1_555
Br3 Mo0 2.617159 1_565
Br3 K0 3.170276 1_555
Br3 Cs1 4.101669 1_555
Br3 Cs0 4.101669 1_554
Br3 Cs0 4.101669 1_455
Br3 Cs1 4.101669 1_565
Br4 Mo0 2.617159 1_656
Br4 K0 3.170276 1_555
Br4 Cs0 4.101669 1_545
Br4 Cs1 4.101669 1_556
Br4 Cs1 4.101669 1_655
Br4 Cs0 4.101669 1_555
Br5 Mo0 2.617159 1_665
Br5 K0 3.170276 1_555
Br5 Cs0 4.101669 1_554
Br5 Cs1 4.101669 1_655
Br5 Cs1 4.101669 1_565
Br5 Cs0 4.101669 1_555
