# generated using pymatgen
data_YbZnGa3
_symmetry_space_group_name_H-M   'P 1'
_cell_length_a   4.21610800
_cell_length_b   4.21610800
_cell_length_c   6.24761429
_cell_angle_alpha   70.28040149
_cell_angle_beta   70.28040149
_cell_angle_gamma   90.00000000
_symmetry_Int_Tables_number   1
_chemical_formula_structural   YbZnGa3
_chemical_formula_sum   'Yb1 Zn1 Ga3'
_cell_volume   97.59564670
_cell_formula_units_Z   1
loop_
 _symmetry_equiv_pos_site_id
 _symmetry_equiv_pos_as_xyz
  1  'x, y, z'
loop_
 _atom_site_type_symbol
 _atom_site_label
 _atom_site_symmetry_multiplicity
 _atom_site_fract_x
 _atom_site_fract_y
 _atom_site_fract_z
 _atom_site_occupancy
  Yb  Yb0  1  0.99979700  0.99979700  0.00040600  1
  Zn  Zn0  1  0.38821400  0.38821400  0.22357100  1
  Ga  Ga0  1  0.60863900  0.60863900  0.78272200  1
  Ga  Ga1  1  0.75167500  0.25167500  0.49665000  1
  Ga  Ga2  1  0.25167500  0.75167500  0.49665000  1
loop_
_geom_bond_atom_site_label_1
_geom_bond_atom_site_label_2
_geom_bond_distance
_geom_bond_site_symmetry_2
Yb0 Zn0 3.223206 1_665
Yb0 Zn0 3.223209 1_565
Yb0 Zn0 3.223209 1_655
Yb0 Zn0 3.223212 1_555
Ga0 Zn0 2.420454 1_556
Ga0 Ga1 2.628852 1_555
Ga0 Ga2 2.628852 1_555
Ga0 Ga2 2.628853 1_655
Ga0 Ga1 2.628853 1_565
Ga0 Yb0 3.211890 1_556
Ga0 Yb0 3.211890 1_546
Ga0 Yb0 3.211890 1_456
Ga0 Yb0 3.211891 1_446
Ga1 Zn0 2.586862 1_655
Ga1 Zn0 2.586865 1_555
Ga1 Ga2 2.981239 1_545
Ga1 Ga2 2.981239 1_645
Ga1 Ga2 2.981239 1_555
Ga1 Ga2 2.981239 1_655
Ga1 Yb0 3.444897 1_545
Ga1 Yb0 3.444898 1_555
Ga1 Yb0 3.477609 1_546
Ga1 Yb0 3.477610 1_446
Ga2 Zn0 2.586862 1_565
Ga2 Zn0 2.586865 1_555
Ga2 Yb0 3.444897 1_455
Ga2 Yb0 3.444898 1_555
Ga2 Yb0 3.477609 1_456
Ga2 Yb0 3.477610 1_446
