# generated using pymatgen
data_MgV6(HO3)6
_symmetry_space_group_name_H-M   'P 1'
_cell_length_a   5.15028633
_cell_length_b   8.65594805
_cell_length_c   7.71472172
_cell_angle_alpha   89.99473343
_cell_angle_beta   102.76040172
_cell_angle_gamma   90.00917213
_symmetry_Int_Tables_number   1
_chemical_formula_structural   MgV6(HO3)6
_chemical_formula_sum   'Mg1 V6 H6 O18'
_cell_volume   335.43277512
_cell_formula_units_Z   1
loop_
 _symmetry_equiv_pos_site_id
 _symmetry_equiv_pos_as_xyz
  1  'x, y, z'
loop_
 _atom_site_type_symbol
 _atom_site_label
 _atom_site_symmetry_multiplicity
 _atom_site_fract_x
 _atom_site_fract_y
 _atom_site_fract_z
 _atom_site_occupancy
  Mg  Mg0  1  0.72041600  0.74701000  0.51140800  1
  V  V0  1  0.44125100  0.44368200  0.18907900  1
  V  V1  1  0.51587900  0.95663800  0.82497400  1
  V  V2  1  0.51595800  0.53722400  0.82495300  1
  V  V3  1  0.44113800  0.05026800  0.18909100  1
  V  V4  1  0.94090000  0.24691900  0.09775700  1
  V  V5  1  0.02487600  0.74690300  0.91080500  1
  H  H0  1  0.05765500  0.15564100  0.59780900  1
  H  H1  1  0.80152600  0.24691900  0.44856900  1
  H  H2  1  0.05764000  0.33821600  0.59780700  1
  H  H3  1  0.06259200  0.65620100  0.33358200  1
  H  H4  1  0.25300200  0.74690500  0.61030200  1
  H  H5  1  0.06333200  0.83895400  0.33442800  1
  O  O0  1  0.67002700  0.40835400  0.00431600  1
  O  O1  1  0.29972900  0.91327900  0.99707600  1
  O  O2  1  0.29975700  0.58053400  0.99705800  1
  O  O3  1  0.66984200  0.08552100  0.00431600  1
  O  O4  1  0.14430400  0.41025100  0.25522800  1
  O  O5  1  0.79758100  0.89378100  0.73687800  1
  O  O6  1  0.79765500  0.60011400  0.73679100  1
  O  O7  1  0.14410400  0.08353700  0.25532600  1
  O  O8  1  0.62133600  0.24695800  0.27053600  1
  O  O9  1  0.33307900  0.74693300  0.74036700  1
  O  O10  1  0.15969500  0.24681800  0.96822900  1
  O  O11  1  0.83983600  0.74672900  0.06067700  1
  O  O12  1  0.60022100  0.56665200  0.34461200  1
  O  O13  1  0.32964200  0.05542500  0.66251500  1
  O  O14  1  0.32969800  0.43844400  0.66254500  1
  O  O15  1  0.60005300  0.92733200  0.34469000  1
  O  O16  1  0.93098000  0.24690900  0.57641500  1
  O  O17  1  0.07379400  0.74732700  0.41185900  1
loop_
_geom_bond_atom_site_label_1
_geom_bond_atom_site_label_2
_geom_bond_distance
_geom_bond_site_symmetry_2
Mg0 O15 2.030408 1_555
Mg0 O12 2.030874 1_555
Mg0 O5 2.119547 1_555
Mg0 O6 2.119560 1_555
Mg0 O17 2.125950 1_655
H0 O16 1.014679 1_455
H0 O13 1.629529 1_555
H1 O16 1.061515 1_555
H1 O8 1.478042 1_555
H2 O16 1.014756 1_455
H2 O14 1.629712 1_555
H3 O17 0.987353 1_555
H4 O9 0.997058 1_555
H4 O17 1.603574 1_555
H5 O17 0.987160 1_555
O0 V2 1.817595 1_554
O0 V4 1.993671 1_555
O0 V0 2.062928 1_555
O1 V3 1.911623 1_566
O1 V1 1.948255 1_555
O1 V5 2.025870 1_555
O2 V0 1.910988 1_556
O2 V2 1.948497 1_555
O2 V5 2.026129 1_555
O3 V1 1.817410 1_544
O3 V4 1.993817 1_555
O3 V3 2.062545 1_555
O4 V0 1.740033 1_555
O4 V4 2.002436 1_455
O5 V1 1.816259 1_555
O5 V5 2.023232 1_655
O6 V2 1.816425 1_555
O6 V5 2.022863 1_655
O7 V3 1.740644 1_555
O7 V4 2.002791 1_455
O8 V3 1.974041 1_555
O8 V0 1.974239 1_555
O8 V4 2.335521 1_555
O9 V1 2.082200 1_555
O9 V2 2.082509 1_555
O9 V5 2.273882 1_555
O10 V4 1.663063 1_456
O11 V5 1.652826 1_654
O12 V0 1.676024 1_555
O13 V1 1.640440 1_545
O14 V2 1.640167 1_555
O15 V3 1.676080 1_565
