# generated using pymatgen
data_GdIn2Cu9
_symmetry_space_group_name_H-M   'P 1'
_cell_length_a   8.44756000
_cell_length_b   8.44756000
_cell_length_c   5.03915600
_cell_angle_alpha   90.00000000
_cell_angle_beta   90.00000000
_cell_angle_gamma   90.00000000
_symmetry_Int_Tables_number   1
_chemical_formula_structural   GdIn2Cu9
_chemical_formula_sum   'Gd2 In4 Cu18'
_cell_volume   359.60057165
_cell_formula_units_Z   2
loop_
 _symmetry_equiv_pos_site_id
 _symmetry_equiv_pos_as_xyz
  1  'x, y, z'
loop_
 _atom_site_type_symbol
 _atom_site_label
 _atom_site_symmetry_multiplicity
 _atom_site_fract_x
 _atom_site_fract_y
 _atom_site_fract_z
 _atom_site_occupancy
  Gd  Gd0  1  0.00000000  0.00000000  0.00000000  1
  Gd  Gd1  1  0.50000000  0.50000000  0.00000000  1
  In  In0  1  0.12439600  0.62439600  0.00000000  1
  In  In1  1  0.87560400  0.37560400  0.00000000  1
  In  In2  1  0.62439600  0.87560400  0.00000000  1
  In  In3  1  0.37560400  0.12439600  0.00000000  1
  Cu  Cu0  1  0.50000000  0.00000000  0.50000000  1
  Cu  Cu1  1  0.00000000  0.50000000  0.50000000  1
  Cu  Cu2  1  0.20328300  0.06307600  0.50000000  1
  Cu  Cu3  1  0.79671700  0.93692400  0.50000000  1
  Cu  Cu4  1  0.06307600  0.79671700  0.50000000  1
  Cu  Cu5  1  0.70328300  0.43692400  0.50000000  1
  Cu  Cu6  1  0.93692400  0.20328300  0.50000000  1
  Cu  Cu7  1  0.29671700  0.56307600  0.50000000  1
  Cu  Cu8  1  0.56307600  0.70328300  0.50000000  1
  Cu  Cu9  1  0.43692400  0.29671700  0.50000000  1
  Cu  Cu10  1  0.67732900  0.17732900  0.24589200  1
  Cu  Cu11  1  0.32267100  0.82267100  0.75410800  1
  Cu  Cu12  1  0.32267100  0.82267100  0.24589200  1
  Cu  Cu13  1  0.17732900  0.32267100  0.24589200  1
  Cu  Cu14  1  0.17732900  0.32267100  0.75410800  1
  Cu  Cu15  1  0.67732900  0.17732900  0.75410800  1
  Cu  Cu16  1  0.82267100  0.67732900  0.75410800  1
  Cu  Cu17  1  0.82267100  0.67732900  0.24589200  1
loop_
_geom_bond_atom_site_label_1
_geom_bond_atom_site_label_2
_geom_bond_distance
_geom_bond_site_symmetry_2
Gd0 In3 3.342425 1_555
Gd0 In0 3.342425 1_545
Gd0 In1 3.342425 1_455
Gd0 In2 3.342425 1_445
Gd1 In2 3.342425 1_555
Gd1 In1 3.342425 1_555
Gd1 In0 3.342425 1_555
Gd1 In3 3.342425 1_555
In0 In1 2.972232 1_455
In2 In3 2.972232 1_565
Cu0 Cu10 2.475408 1_555
Cu0 Cu15 2.475408 1_555
Cu0 Cu11 2.475408 1_545
Cu0 Cu12 2.475408 1_545
Cu0 Cu2 2.562544 1_555
Cu0 Cu8 2.562544 1_545
Cu0 Cu9 2.562544 1_555
Cu0 Cu3 2.562544 1_545
Cu0 In3 2.925203 1_556
Cu0 In3 2.925203 1_555
Cu0 In2 2.925203 1_545
Cu0 In2 2.925203 1_546
Cu1 Cu13 2.475408 1_555
Cu1 Cu14 2.475408 1_555
Cu1 Cu17 2.475408 1_455
Cu1 Cu16 2.475408 1_455
Cu1 Cu5 2.562544 1_455
Cu1 Cu7 2.562544 1_555
Cu1 Cu6 2.562544 1_455
Cu1 Cu4 2.562544 1_555
Cu1 In0 2.925203 1_556
Cu1 In0 2.925203 1_555
Cu1 In1 2.925203 1_456
Cu1 In1 2.925203 1_455
Cu2 Cu4 2.542773 1_545
Cu2 Cu6 2.542773 1_455
Cu2 Cu9 2.791228 1_555
Cu2 In3 2.955612 1_556
Cu2 In3 2.955612 1_555
Cu2 Gd0 3.095339 1_556
Cu2 Gd0 3.095339 1_555
Cu3 Cu6 2.542773 1_565
Cu3 Cu4 2.542773 1_655
Cu3 Cu8 2.791228 1_555
Cu3 In2 2.955612 1_555
Cu3 In2 2.955612 1_556
Cu3 Gd0 3.095339 1_665
Cu3 Gd0 3.095339 1_666
Cu4 Cu7 2.791228 1_555
Cu4 In0 2.955612 1_556
Cu4 In0 2.955612 1_555
Cu4 Gd0 3.095339 1_565
Cu4 Gd0 3.095339 1_566
Cu5 Cu8 2.542773 1_555
Cu5 Cu9 2.542773 1_555
Cu5 Cu6 2.791228 1_555
Cu5 In1 2.955612 1_555
Cu5 In1 2.955612 1_556
Cu5 Gd1 3.095339 1_556
Cu5 Gd1 3.095339 1_555
Cu6 In1 2.955612 1_555
Cu6 In1 2.955612 1_556
Cu6 Gd0 3.095339 1_655
Cu6 Gd0 3.095339 1_656
Cu7 Cu8 2.542773 1_555
Cu7 Cu9 2.542773 1_555
Cu7 In0 2.955612 1_556
Cu7 In0 2.955612 1_555
Cu7 Gd1 3.095339 1_556
Cu7 Gd1 3.095339 1_555
Cu8 In2 2.955612 1_556
Cu8 In2 2.955612 1_555
Cu8 Gd1 3.095339 1_556
Cu8 Gd1 3.095339 1_555
Cu9 In3 2.955612 1_556
Cu9 In3 2.955612 1_555
Cu9 Gd1 3.095339 1_556
Cu9 Gd1 3.095339 1_555
Cu10 Cu15 2.478176 1_554
Cu10 Cu6 2.548868 1_555
Cu10 Cu5 2.548868 1_555
Cu10 Cu15 2.560980 1_555
Cu10 Cu9 2.604054 1_555
Cu10 Cu3 2.604054 1_545
Cu10 In1 2.673235 1_555
Cu10 In3 2.869124 1_555
Cu10 In2 2.869124 1_545
Cu10 Gd0 3.348018 1_655
Cu10 Gd1 3.348018 1_555
Cu11 Cu12 2.478176 1_556
Cu11 Cu7 2.548868 1_555
Cu11 Cu4 2.548868 1_555
Cu11 Cu12 2.560980 1_555
Cu11 Cu8 2.604054 1_555
Cu11 Cu2 2.604054 1_565
Cu11 In0 2.673235 1_556
Cu11 In2 2.869124 1_556
Cu11 In3 2.869124 1_566
Cu11 Gd1 3.348018 1_556
Cu11 Gd0 3.348018 1_566
Cu12 Cu7 2.548868 1_555
Cu12 Cu4 2.548868 1_555
Cu12 Cu8 2.604054 1_555
Cu12 Cu2 2.604054 1_565
Cu12 In0 2.673235 1_555
Cu12 In2 2.869124 1_555
Cu12 In3 2.869124 1_565
Cu12 Gd1 3.348018 1_555
Cu12 Gd0 3.348018 1_565
Cu13 Cu14 2.478176 1_554
Cu13 Cu9 2.548868 1_555
Cu13 Cu2 2.548868 1_555
Cu13 Cu14 2.560980 1_555
Cu13 Cu6 2.604054 1_455
Cu13 Cu7 2.604054 1_555
Cu13 In3 2.673235 1_555
Cu13 In0 2.869124 1_555
Cu13 In1 2.869124 1_455
Cu13 Gd0 3.348018 1_555
Cu13 Gd1 3.348018 1_555
Cu14 Cu9 2.548868 1_555
Cu14 Cu2 2.548868 1_555
Cu14 Cu6 2.604054 1_455
Cu14 Cu7 2.604054 1_555
Cu14 In3 2.673235 1_556
Cu14 In0 2.869124 1_556
Cu14 In1 2.869124 1_456
Cu14 Gd0 3.348018 1_556
Cu14 Gd1 3.348018 1_556
Cu15 Cu5 2.548868 1_555
Cu15 Cu6 2.548868 1_555
Cu15 Cu9 2.604054 1_555
Cu15 Cu3 2.604054 1_545
Cu15 In1 2.673235 1_556
Cu15 In3 2.869124 1_556
Cu15 In2 2.869124 1_546
Cu15 Gd1 3.348018 1_556
Cu15 Gd0 3.348018 1_656
Cu16 Cu17 2.478176 1_556
Cu16 Cu8 2.548868 1_555
Cu16 Cu3 2.548868 1_555
Cu16 Cu17 2.560980 1_555
Cu16 Cu5 2.604054 1_555
Cu16 Cu4 2.604054 1_655
Cu16 In2 2.673235 1_556
Cu16 In1 2.869124 1_556
Cu16 In0 2.869124 1_656
Cu16 Gd1 3.348018 1_556
Cu16 Gd0 3.348018 1_666
Cu17 Cu8 2.548868 1_555
Cu17 Cu3 2.548868 1_555
Cu17 Cu5 2.604054 1_555
Cu17 Cu4 2.604054 1_655
Cu17 In2 2.673235 1_555
Cu17 In1 2.869124 1_555
Cu17 In0 2.869124 1_655
Cu17 Gd1 3.348018 1_555
Cu17 Gd0 3.348018 1_665
