# generated using pymatgen
data_Li5FeO4F
_symmetry_space_group_name_H-M   'P 1'
_cell_length_a   5.21092181
_cell_length_b   10.34839075
_cell_length_c   9.76035124
_cell_angle_alpha   63.73766043
_cell_angle_beta   83.42376667
_cell_angle_gamma   101.41039802
_symmetry_Int_Tables_number   1
_chemical_formula_structural   Li5FeO4F
_chemical_formula_sum   'Li20 Fe4 O16 F4'
_cell_volume   450.27722830
_cell_formula_units_Z   4
loop_
 _symmetry_equiv_pos_site_id
 _symmetry_equiv_pos_as_xyz
  1  'x, y, z'
loop_
 _atom_site_type_symbol
 _atom_site_label
 _atom_site_symmetry_multiplicity
 _atom_site_fract_x
 _atom_site_fract_y
 _atom_site_fract_z
 _atom_site_occupancy
  Li  Li0  1  0.76768700  0.93419600  0.52675500  1
  Li  Li1  1  0.26759300  0.93428600  0.02673300  1
  Li  Li2  1  0.41666500  0.43436400  0.28895500  1
  Li  Li3  1  0.91668100  0.43440300  0.78895600  1
  Li  Li4  1  0.55677700  0.56086500  0.68145400  1
  Li  Li5  1  0.05666500  0.56081200  0.18150300  1
  Li  Li6  1  0.25392600  0.06073700  0.50783600  1
  Li  Li7  1  0.75396500  0.06079500  0.00783300  1
  Li  Li8  1  0.79375500  0.74543400  0.39304800  1
  Li  Li9  1  0.29371500  0.74546500  0.89306000  1
  Li  Li10  1  0.20162000  0.24557600  0.61133600  1
  Li  Li11  1  0.70166700  0.24558600  0.11135400  1
  Li  Li12  1  0.70851800  0.45532000  0.48142500  1
  Li  Li13  1  0.20844500  0.45537000  0.98142800  1
  Li  Li14  1  0.49675200  0.95522800  0.31347900  1
  Li  Li15  1  0.99675000  0.95523600  0.81352000  1
  Li  Li16  1  0.55782700  0.04319100  0.74247200  1
  Li  Li17  1  0.05783100  0.04316400  0.24243500  1
  Li  Li18  1  0.23562300  0.54322400  0.46431400  1
  Li  Li19  1  0.73568900  0.54330600  0.96433700  1
  Fe  Fe0  1  0.32293900  0.23187900  0.91779000  1
  Fe  Fe1  1  0.65895000  0.73175200  0.10027900  1
  Fe  Fe2  1  0.82256400  0.23157400  0.41794400  1
  Fe  Fe3  1  0.15913400  0.73177600  0.60022800  1
  O  O0  1  0.26653300  0.11128700  0.82856100  1
  O  O1  1  0.76635800  0.11115500  0.32859100  1
  O  O2  1  0.59491900  0.61111600  0.31019000  1
  O  O3  1  0.09499300  0.61112200  0.81024000  1
  O  O4  1  0.51691000  0.76060100  0.53948300  1
  O  O5  1  0.01682100  0.76062500  0.03945100  1
  O  O6  1  0.49366500  0.26047800  0.44980300  1
  O  O7  1  0.99392400  0.26060000  0.94977600  1
  O  O8  1  0.93288600  0.59093600  0.56293300  1
  O  O9  1  0.43274400  0.59095600  0.06294200  1
  O  O10  1  0.90825900  0.09100200  0.59589200  1
  O  O11  1  0.40838400  0.09121900  0.09579300  1
  O  O12  1  0.11834000  0.90342900  0.44375400  1
  O  O13  1  0.61823400  0.90347000  0.94374100  1
  O  O14  1  0.03449800  0.40315200  0.40310800  1
  O  O15  1  0.53474400  0.40341600  0.90303900  1
  F  F0  1  0.37027000  0.41895500  0.62998500  1
  F  F1  1  0.87019200  0.41896700  0.12995900  1
  F  F2  1  0.79879700  0.91904100  0.20108900  1
  F  F3  1  0.29886300  0.91908800  0.70112100  1
loop_
_geom_bond_atom_site_label_1
_geom_bond_atom_site_label_2
_geom_bond_distance
_geom_bond_site_symmetry_2
Li0 O4 1.945952 1_555
Li0 O1 1.992000 1_565
Li0 O12 2.053244 1_655
Li0 O10 2.058395 1_565
Li1 O5 1.946501 1_555
Li1 O0 1.991842 1_564
Li1 O13 2.053414 1_554
Li1 O11 2.059261 1_565
Li2 O6 1.947719 1_555
Li2 O2 1.989648 1_555
Li2 O14 2.056782 1_555
Li2 O9 2.059053 1_555
Li3 O7 1.947691 1_555
Li3 O3 1.989710 1_655
Li3 O15 2.056126 1_555
Li3 O8 2.058781 1_555
Li4 O4 1.984119 1_555
Li4 O15 2.023867 1_555
Li4 O8 2.048648 1_555
Li5 O5 1.984869 1_555
Li5 O14 2.024550 1_555
Li5 O9 2.048448 1_555
Li6 O6 1.983449 1_555
Li6 O12 2.021778 1_545
Li6 O10 2.046478 1_455
Li7 O7 1.984364 1_554
Li7 O13 2.022171 1_544
Li7 O11 2.046573 1_555
Li8 O4 1.991079 1_555
Li8 O8 2.054055 1_555
Li8 O2 2.067968 1_555
Li8 O12 2.364860 1_655
Li9 O5 1.990920 1_556
Li9 O9 2.053777 1_556
Li9 O3 2.067639 1_555
Li9 O13 2.364573 1_555
Li10 O6 1.991950 1_555
Li10 O10 2.053516 1_455
Li10 O0 2.069698 1_555
Li10 O14 2.362713 1_555
Li11 O7 1.992480 1_554
Li11 O11 2.052425 1_555
Li11 O1 2.069676 1_555
Li11 O15 2.363601 1_554
Li12 O2 1.990642 1_555
Li12 O14 2.047391 1_655
Li12 O8 2.126325 1_555
Li12 O6 2.269554 1_555
Li13 O3 1.989755 1_555
Li13 O15 2.047751 1_555
Li13 O9 2.125979 1_556
Li13 O7 2.268516 1_455
Li14 O1 1.990051 1_565
Li14 O12 2.048589 1_555
Li14 O11 2.131016 1_565
Li14 O4 2.266825 1_555
Li15 O0 1.991109 1_665
Li15 O13 2.048906 1_555
Li15 O10 2.130289 1_565
Li15 O5 2.266179 1_656
Li16 O13 1.963885 1_545
Li16 O10 2.010936 1_555
Li16 O0 2.040038 1_555
Li17 O12 1.964494 1_545
Li17 O11 2.011102 1_555
Li17 O1 2.040333 1_455
Li18 O14 1.965966 1_555
Li18 O8 2.009947 1_455
Li18 O2 2.039861 1_555
Li19 O15 1.964748 1_555
Li19 O9 2.010331 1_556
Li19 O3 2.039895 1_655
Fe0 O0 1.810391 1_555
Fe0 O7 1.812830 1_455
Fe0 O15 1.830902 1_555
Fe0 O11 1.879123 1_556
Fe1 O2 1.811778 1_555
Fe1 O5 1.813376 1_655
Fe1 O13 1.832448 1_554
Fe1 O9 1.879856 1_555
Fe2 O1 1.809724 1_555
Fe2 O6 1.812891 1_555
Fe2 O14 1.831170 1_655
Fe2 O10 1.879067 1_555
Fe3 O3 1.812553 1_555
Fe3 O4 1.812882 1_555
Fe3 O12 1.831931 1_555
Fe3 O8 1.880050 1_455
F0 Li18 1.880799 1_555
F0 Li4 1.885069 1_555
F0 Li10 1.930378 1_555
F0 Li12 2.005014 1_555
F1 Li19 1.880330 1_554
F1 Li5 1.884956 1_655
F1 Li11 1.929973 1_555
F1 Li13 2.004761 1_654
F2 Li17 1.879410 1_665
F2 Li7 1.884734 1_565
F2 Li8 1.931291 1_555
F2 Li14 2.005519 1_555
F3 Li16 1.879086 1_565
F3 Li6 1.884748 1_565
F3 Li9 1.931109 1_555
F3 Li15 2.005600 1_455
