# generated using pymatgen
data_KNdTe4
_symmetry_space_group_name_H-M   'P 1'
_cell_length_a   6.96839505
_cell_length_b   6.96839505
_cell_length_c   8.86177040
_cell_angle_alpha   90.00000000
_cell_angle_beta   90.00000000
_cell_angle_gamma   90.00000000
_symmetry_Int_Tables_number   1
_chemical_formula_structural   KNdTe4
_chemical_formula_sum   'K2 Nd2 Te8'
_cell_volume   430.31454004
_cell_formula_units_Z   2
loop_
 _symmetry_equiv_pos_site_id
 _symmetry_equiv_pos_as_xyz
  1  'x, y, z'
loop_
 _atom_site_type_symbol
 _atom_site_label
 _atom_site_symmetry_multiplicity
 _atom_site_fract_x
 _atom_site_fract_y
 _atom_site_fract_z
 _atom_site_occupancy
  K  K0  1  0.75000000  0.75000000  0.00000000  1
  K  K1  1  0.25000000  0.25000000  0.00000000  1
  Nd  Nd0  1  0.75000000  0.75000000  0.50000000  1
  Nd  Nd1  1  0.25000000  0.25000000  0.50000000  1
  Te  Te0  1  0.60786281  0.10786281  0.28485035  1
  Te  Te1  1  0.39213719  0.60786281  0.28485035  1
  Te  Te2  1  0.10786281  0.89213719  0.28485035  1
  Te  Te3  1  0.60786281  0.39213719  0.71514965  1
  Te  Te4  1  0.89213719  0.10786281  0.71514965  1
  Te  Te5  1  0.89213719  0.39213719  0.28485035  1
  Te  Te6  1  0.10786281  0.60786281  0.71514965  1
  Te  Te7  1  0.39213719  0.89213719  0.71514965  1
loop_
_geom_bond_atom_site_label_1
_geom_bond_atom_site_label_2
_geom_bond_distance
_geom_bond_site_symmetry_2
K0 Te1 3.683978 1_555
K0 Te3 3.683978 1_554
K0 Te5 3.683978 1_555
K0 Te0 3.683978 1_565
K0 Te7 3.683978 1_554
K0 Te2 3.683978 1_655
K0 Te6 3.683978 1_654
K0 Te4 3.683978 1_564
K1 Te2 3.683978 1_545
K1 Te0 3.683978 1_555
K1 Te5 3.683978 1_455
K1 Te1 3.683978 1_555
K1 Te7 3.683978 1_544
K1 Te3 3.683978 1_554
K1 Te6 3.683978 1_554
K1 Te4 3.683978 1_454
Nd0 Te7 3.291635 1_555
Nd0 Te3 3.291635 1_555
Nd0 Te6 3.291635 1_655
Nd0 Te1 3.291635 1_555
Nd0 Te4 3.291635 1_565
Nd0 Te5 3.291635 1_555
Nd0 Te0 3.291635 1_565
Nd0 Te2 3.291635 1_655
Nd1 Te6 3.291635 1_555
Nd1 Te3 3.291635 1_555
Nd1 Te4 3.291635 1_455
Nd1 Te2 3.291635 1_545
Nd1 Te0 3.291635 1_555
Nd1 Te1 3.291635 1_555
Nd1 Te7 3.291635 1_545
Nd1 Te5 3.291635 1_455
Te0 Te5 2.801467 1_555
Te1 Te2 2.801467 1_555
Te3 Te4 2.801467 1_555
Te6 Te7 2.801467 1_555
