# generated using pymatgen
data_LiNiO2
_symmetry_space_group_name_H-M   'P 1'
_cell_length_a   4.03435300
_cell_length_b   5.02783609
_cell_length_c   7.72423134
_cell_angle_alpha   102.02854113
_cell_angle_beta   74.86523059
_cell_angle_gamma   113.65709688
_symmetry_Int_Tables_number   1
_chemical_formula_structural   LiNiO2
_chemical_formula_sum   'Li4 Ni4 O8'
_cell_volume   137.57940008
_cell_formula_units_Z   4
loop_
 _symmetry_equiv_pos_site_id
 _symmetry_equiv_pos_as_xyz
  1  'x, y, z'
loop_
 _atom_site_type_symbol
 _atom_site_label
 _atom_site_symmetry_multiplicity
 _atom_site_fract_x
 _atom_site_fract_y
 _atom_site_fract_z
 _atom_site_occupancy
  Li  Li0  1  0.25014700  0.62554200  0.12515500  1
  Li  Li1  1  0.24998400  0.12519900  0.62514100  1
  Li  Li2  1  0.49983700  0.24943200  0.24983800  1
  Li  Li3  1  0.50000400  0.74978200  0.74985300  1
  Ni  Ni0  1  0.99989800  0.49956900  0.49976500  1
  Ni  Ni1  1  0.75013400  0.37543200  0.87523900  1
  Ni  Ni2  1  0.99962600  0.99930000  0.00005600  1
  Ni  Ni3  1  0.75043000  0.87576600  0.37495400  1
  O  O0  1  0.77037300  0.65658600  0.11564400  1
  O  O1  1  0.77048800  0.15589300  0.61478200  1
  O  O2  1  0.23065400  0.84577300  0.38458600  1
  O  O3  1  0.23018100  0.34508600  0.88483700  1
  O  O4  1  0.51994900  0.52986500  0.49010000  1
  O  O5  1  0.51949000  0.02920400  0.99034100  1
  O  O6  1  0.97944400  0.21842000  0.25942700  1
  O  O7  1  0.97936100  0.71915100  0.76028100  1
loop_
_geom_bond_atom_site_label_1
_geom_bond_atom_site_label_2
_geom_bond_distance
_geom_bond_site_symmetry_2
Li0 O0 2.023855 1_555
Li0 O0 2.024279 1_455
Li0 O2 2.076213 1_555
Li0 O3 2.082434 1_554
Li0 O5 2.214576 1_564
Li0 O6 2.226592 1_455
Li1 O1 2.024135 1_555
Li1 O1 2.024325 1_455
Li1 O3 2.077342 1_555
Li1 O2 2.081369 1_545
Li1 O4 2.219638 1_555
Li1 O7 2.225729 1_445
Li2 O6 2.023714 1_555
Li2 O6 2.024448 1_455
Li2 O5 2.076639 1_554
Li2 O4 2.082050 1_555
Li2 O2 2.214292 1_545
Li2 O0 2.226406 1_555
Li3 O7 2.023781 1_555
Li3 O7 2.024684 1_455
Li3 O4 2.077766 1_555
Li3 O5 2.080965 1_565
Li3 O3 2.219527 1_555
Li3 O1 2.225704 1_565
Ni0 O1 1.886456 1_555
Ni0 O2 1.897517 1_655
Ni0 O4 2.023583 1_555
Ni0 O4 2.024141 1_655
Ni0 O7 2.082165 1_555
Ni0 O6 2.084211 1_555
Ni1 O7 1.886390 1_555
Ni1 O5 1.897300 1_555
Ni1 O3 2.023776 1_555
Ni1 O3 2.023938 1_655
Ni1 O1 2.081705 1_555
Ni1 O0 2.084616 1_556
Ni2 O0 1.884866 1_555
Ni2 O3 1.895962 1_664
Ni2 O5 2.023533 1_564
Ni2 O5 2.023962 1_664
Ni2 O6 2.073887 1_565
Ni2 O7 2.078511 1_554
Ni3 O6 1.884367 1_565
Ni3 O4 1.896135 1_555
Ni3 O2 2.023598 1_555
Ni3 O2 2.023901 1_655
Ni3 O0 2.073593 1_555
Ni3 O1 2.078769 1_565
