# generated using pymatgen
data_Li3CrN2
_symmetry_space_group_name_H-M   'P 1'
_cell_length_a   7.42821924
_cell_length_b   7.08648672
_cell_length_c   10.96709457
_cell_angle_alpha   89.99999887
_cell_angle_beta   137.57872343
_cell_angle_gamma   118.48949916
_symmetry_Int_Tables_number   1
_chemical_formula_structural   Li3CrN2
_chemical_formula_sum   'Li12 Cr4 N8'
_cell_volume   275.37437252
_cell_formula_units_Z   4
loop_
 _symmetry_equiv_pos_site_id
 _symmetry_equiv_pos_as_xyz
  1  'x, y, z'
loop_
 _atom_site_type_symbol
 _atom_site_label
 _atom_site_symmetry_multiplicity
 _atom_site_fract_x
 _atom_site_fract_y
 _atom_site_fract_z
 _atom_site_occupancy
  Li  Li0  1  0.00000000  0.50000000  0.37309906  1
  Li  Li1  1  -0.00000000  -0.00000000  0.87690094  1
  Li  Li2  1  -0.00000000  0.50000000  0.12690094  1
  Li  Li3  1  0.00000000  0.00000000  0.12309906  1
  Li  Li4  1  0.53228665  0.50000000  0.51614333  1
  Li  Li5  1  0.46771335  0.50000000  0.98385667  1
  Li  Li6  1  0.53228665  -0.00000000  0.26614333  1
  Li  Li7  1  0.46771335  0.00000000  0.73385667  1
  Li  Li8  1  0.46771335  0.96771335  0.98385667  1
  Li  Li9  1  0.53228665  0.03228665  0.51614333  1
  Li  Li10  1  0.46771335  0.46771335  0.73385667  1
  Li  Li11  1  0.53228665  0.53228665  0.26614333  1
  Cr  Cr0  1  0.00000000  0.50000000  0.62181843  1
  Cr  Cr1  1  -0.00000000  -0.00000000  0.62818157  1
  Cr  Cr2  1  -0.00000000  0.50000000  0.87818157  1
  Cr  Cr3  1  0.00000000  0.00000000  0.37181843  1
  N  N0  1  0.41015310  0.70507655  0.75087908  1
  N  N1  1  0.58984690  0.29492345  0.34072499  1
  N  N2  1  0.41015310  0.20507655  0.90927501  1
  N  N3  1  0.58984690  0.79492345  0.49912092  1
  N  N4  1  0.00000000  0.29492345  0.95419846  1
  N  N5  1  0.00000000  0.70507655  0.95419846  1
  N  N6  1  -0.00000000  0.79492345  0.29580154  1
  N  N7  1  -0.00000000  0.20507655  0.29580154  1
loop_
_geom_bond_atom_site_label_1
_geom_bond_atom_site_label_2
_geom_bond_distance
_geom_bond_site_symmetry_2
Li0 N6 2.255355 1_555
Li0 N7 2.255355 1_555
Li0 N1 2.387343 1_455
Li0 N0 2.387351 1_555
Li1 N5 2.255355 1_545
Li1 N4 2.255355 1_555
Li1 N2 2.387343 1_555
Li1 N3 2.387351 1_445
Li2 N3 2.255350 1_555
Li2 N2 2.255355 1_454
Li2 N5 2.387343 1_554
Li2 N4 2.387343 1_554
Li3 N0 2.255350 1_444
Li3 N1 2.255355 1_555
Li3 N6 2.387343 1_545
Li3 N7 2.387343 1_555
Li4 N7 1.962393 1_555
Li4 N3 1.962396 1_555
Li5 N6 1.962393 1_656
Li5 N2 1.962393 1_555
Li6 N5 1.962393 1_544
Li6 N1 1.962393 1_555
Li7 N4 1.962393 1_655
Li7 N0 1.962396 1_545
Li8 N7 1.962393 1_666
Li8 N2 1.962393 1_565
Li9 N6 1.962393 1_545
Li9 N3 1.962396 1_545
Li10 N5 1.962393 1_655
Li10 N0 1.962396 1_555
Li11 N4 1.962393 1_554
Li11 N1 1.962393 1_555
Cr0 N0 1.675414 1_555
Cr0 N1 1.675419 1_455
Cr1 N3 1.675414 1_445
Cr1 N2 1.675419 1_555
Cr2 N4 1.675419 1_555
Cr2 N5 1.675419 1_555
Cr3 N7 1.675419 1_555
Cr3 N6 1.675419 1_545
