# generated using pymatgen
data_TiSb3
_symmetry_space_group_name_H-M   'P 1'
_cell_length_a   5.82220266
_cell_length_b   5.82220266
_cell_length_c   5.82220266
_cell_angle_alpha   135.43419737
_cell_angle_beta   135.43419737
_cell_angle_gamma   64.85629854
_symmetry_Int_Tables_number   1
_chemical_formula_structural   TiSb3
_chemical_formula_sum   'Ti1 Sb3'
_cell_volume   95.80508047
_cell_formula_units_Z   1
loop_
 _symmetry_equiv_pos_site_id
 _symmetry_equiv_pos_as_xyz
  1  'x, y, z'
loop_
 _atom_site_type_symbol
 _atom_site_label
 _atom_site_symmetry_multiplicity
 _atom_site_fract_x
 _atom_site_fract_y
 _atom_site_fract_z
 _atom_site_occupancy
  Ti  Ti0  1  0.00000000  0.00000000  0.00000000  1
  Sb  Sb0  1  0.75000000  0.25000000  0.50000000  1
  Sb  Sb1  1  0.25000000  0.75000000  0.50000000  1
  Sb  Sb2  1  0.50000000  0.50000000  0.00000000  1
loop_
_geom_bond_atom_site_label_1
_geom_bond_atom_site_label_2
_geom_bond_distance
_geom_bond_site_symmetry_2
Sb0 Sb1 3.122107 1_555
Sb0 Sb1 3.122107 1_544
Sb0 Sb1 3.122107 1_656
Sb0 Sb1 3.122107 1_645
Sb0 Ti0 3.303241 1_555
Sb0 Sb2 3.303241 1_656
Sb0 Ti0 3.303241 1_656
Sb0 Ti0 3.303241 1_655
Sb0 Sb2 3.303241 1_545
Sb0 Ti0 3.303241 1_666
Sb0 Sb2 3.303241 1_555
Sb0 Sb2 3.303241 1_556
Sb1 Sb2 3.303241 1_455
Sb1 Ti0 3.303241 1_555
Sb1 Ti0 3.303241 1_566
Sb1 Ti0 3.303241 1_565
Sb1 Sb2 3.303241 1_566
Sb1 Ti0 3.303241 1_666
Sb1 Sb2 3.303241 1_555
Sb1 Sb2 3.303241 1_556
Sb2 Ti0 3.122107 1_666
Sb2 Ti0 3.122107 1_554
Sb2 Ti0 3.122107 1_655
Sb2 Ti0 3.122107 1_565
