# generated using pymatgen
data_Cs3Y2(H2N)9
_symmetry_space_group_name_H-M   'P 1'
_cell_length_a   9.85874519
_cell_length_b   9.85874519
_cell_length_c   9.85874577
_cell_angle_alpha   95.64789492
_cell_angle_beta   95.64789492
_cell_angle_gamma   95.64789503
_symmetry_Int_Tables_number   1
_chemical_formula_structural   Cs3Y2(H2N)9
_chemical_formula_sum   'Cs6 Y4 H36 N18'
_cell_volume   943.26815933
_cell_formula_units_Z   2
loop_
 _symmetry_equiv_pos_site_id
 _symmetry_equiv_pos_as_xyz
  1  'x, y, z'
loop_
 _atom_site_type_symbol
 _atom_site_label
 _atom_site_symmetry_multiplicity
 _atom_site_fract_x
 _atom_site_fract_y
 _atom_site_fract_z
 _atom_site_occupancy
  Cs  Cs0  1  0.86399100  0.63600900  0.25000000  1
  Cs  Cs1  1  0.25000000  0.86399100  0.63600900  1
  Cs  Cs2  1  0.63600900  0.25000000  0.86399100  1
  Cs  Cs3  1  0.75000000  0.13600900  0.36399100  1
  Cs  Cs4  1  0.36399100  0.75000000  0.13600900  1
  Cs  Cs5  1  0.13600900  0.36399100  0.75000000  1
  Y  Y0  1  0.36194900  0.36194900  0.36194900  1
  Y  Y1  1  0.86194900  0.86194900  0.86194900  1
  Y  Y2  1  0.63805100  0.63805100  0.63805100  1
  Y  Y3  1  0.13805100  0.13805100  0.13805100  1
  H  H0  1  0.37549100  0.06140200  0.31717900  1
  H  H1  1  0.31717900  0.37549100  0.06140200  1
  H  H2  1  0.06140200  0.31717900  0.37549100  1
  H  H3  1  0.81717900  0.56140200  0.87549100  1
  H  H4  1  0.87549100  0.81717900  0.56140200  1
  H  H5  1  0.56140200  0.87549100  0.81717900  1
  H  H6  1  0.62450900  0.93859800  0.68282100  1
  H  H7  1  0.68282100  0.62450900  0.93859800  1
  H  H8  1  0.93859800  0.68282100  0.62450900  1
  H  H9  1  0.18282100  0.43859800  0.12450900  1
  H  H10  1  0.12450900  0.18282100  0.43859800  1
  H  H11  1  0.43859800  0.12450900  0.18282100  1
  H  H12  1  0.45024400  0.90916200  0.41007200  1
  H  H13  1  0.41007200  0.45024400  0.90916200  1
  H  H14  1  0.90916200  0.41007200  0.45024400  1
  H  H15  1  0.91007200  0.40916200  0.95024400  1
  H  H16  1  0.95024400  0.91007200  0.40916200  1
  H  H17  1  0.40916200  0.95024400  0.91007200  1
  H  H18  1  0.54975600  0.09083800  0.58992800  1
  H  H19  1  0.58992800  0.54975600  0.09083800  1
  H  H20  1  0.09083800  0.58992800  0.54975600  1
  H  H21  1  0.08992800  0.59083800  0.04975600  1
  H  H22  1  0.04975600  0.08992800  0.59083800  1
  H  H23  1  0.59083800  0.04975600  0.08992800  1
  H  H24  1  0.99377100  0.92829200  0.35227800  1
  H  H25  1  0.35227800  0.99377000  0.92829200  1
  H  H26  1  0.92829200  0.35227800  0.99377100  1
  H  H27  1  0.85227800  0.42829200  0.49377100  1
  H  H28  1  0.49377100  0.85227800  0.42829200  1
  H  H29  1  0.42829200  0.49377000  0.85227800  1
  H  H30  1  0.00623000  0.07170800  0.64772200  1
  H  H31  1  0.64772200  0.00623000  0.07170800  1
  H  H32  1  0.07170800  0.64772200  0.00623000  1
  H  H33  1  0.14772200  0.57170800  0.50623000  1
  H  H34  1  0.50623000  0.14772200  0.57170800  1
  H  H35  1  0.57170800  0.50622900  0.14772200  1
  N  N0  1  0.36581000  0.13419000  0.25000000  1
  N  N1  1  0.25000000  0.36581000  0.13419000  1
  N  N2  1  0.13419000  0.25000000  0.36581000  1
  N  N3  1  0.75000000  0.63419000  0.86581000  1
  N  N4  1  0.86581000  0.75000000  0.63419000  1
  N  N5  1  0.63419000  0.86581000  0.75000000  1
  N  N6  1  0.08589500  0.00006300  0.89361500  1
  N  N7  1  0.89361500  0.08589500  0.00006300  1
  N  N8  1  0.00006300  0.89361500  0.08589500  1
  N  N9  1  0.39361500  0.50006300  0.58589500  1
  N  N10  1  0.58589500  0.39361500  0.50006300  1
  N  N11  1  0.50006300  0.58589500  0.39361500  1
  N  N12  1  0.91410500  0.99993700  0.10638500  1
  N  N13  1  0.10638500  0.91410500  0.99993700  1
  N  N14  1  0.99993700  0.10638500  0.91410500  1
  N  N15  1  0.60638500  0.49993700  0.41410500  1
  N  N16  1  0.41410500  0.60638500  0.49993700  1
  N  N17  1  0.49993700  0.41410500  0.60638500  1
loop_
_geom_bond_atom_site_label_1
_geom_bond_atom_site_label_2
_geom_bond_distance
_geom_bond_site_symmetry_2
Cs0 H16 2.989362 1_555
Cs0 H19 2.989362 1_555
Cs0 H35 3.066847 1_555
Cs0 H24 3.066847 1_555
Cs0 H21 3.153552 1_655
Cs0 H14 3.153552 1_555
Cs0 H32 3.310498 1_655
Cs0 H27 3.310506 1_555
Cs0 N8 3.381183 1_655
Cs0 N15 3.381183 1_555
Cs0 H7 3.382377 1_554
Cs0 H4 3.382377 1_555
Cs1 H20 2.989362 1_555
Cs1 H17 2.989362 1_555
Cs1 H33 3.066844 1_555
Cs1 H25 3.066845 1_555
Cs1 H22 3.153552 1_565
Cs1 H12 3.153552 1_555
Cs1 H30 3.310498 1_565
Cs1 H28 3.310506 1_555
Cs1 N16 3.381183 1_555
Cs1 N6 3.381183 1_565
Cs1 H8 3.382377 1_455
Cs1 H5 3.382377 1_555
Cs2 H15 2.989362 1_555
Cs2 H18 2.989362 1_555
Cs2 H34 3.066845 1_555
Cs2 H26 3.066847 1_555
Cs2 H13 3.153552 1_555
Cs2 H23 3.153552 1_556
Cs2 H29 3.310498 1_555
Cs2 H31 3.310498 1_556
Cs2 N7 3.381183 1_556
Cs2 N17 3.381183 1_555
Cs2 H3 3.382377 1_555
Cs2 H6 3.382377 1_545
Cs3 H14 2.989362 1_555
Cs3 H23 2.989362 1_555
Cs3 H31 3.066845 1_555
Cs3 H27 3.066847 1_555
Cs3 H16 3.153552 1_545
Cs3 H18 3.153552 1_555
Cs3 H34 3.310498 1_555
Cs3 H24 3.310506 1_545
Cs3 N10 3.381183 1_555
Cs3 N12 3.381183 1_545
Cs3 H2 3.382377 1_655
Cs3 H11 3.382377 1_555
Cs4 H21 2.989362 1_555
Cs4 H12 2.989362 1_555
Cs4 H32 3.066844 1_555
Cs4 H28 3.066847 1_555
Cs4 H19 3.153552 1_555
Cs4 H17 3.153552 1_554
Cs4 H25 3.310498 1_554
Cs4 H35 3.310506 1_555
Cs4 N13 3.381183 1_554
Cs4 N11 3.381183 1_555
Cs4 H9 3.382377 1_555
Cs4 H0 3.382377 1_565
Cs5 H22 2.989362 1_555
Cs5 H13 2.989362 1_555
Cs5 H30 3.066844 1_555
Cs5 H29 3.066844 1_555
Cs5 H15 3.153552 1_455
Cs5 H20 3.153552 1_555
Cs5 H33 3.310498 1_555
Cs5 H26 3.310506 1_455
Cs5 N9 3.381183 1_555
Cs5 N14 3.381183 1_455
Cs5 H1 3.382377 1_556
Cs5 H10 3.382377 1_555
H0 N0 1.028243 1_555
H1 N1 1.028243 1_555
H2 N2 1.028243 1_555
H3 N3 1.028243 1_555
H4 N4 1.028243 1_555
H5 N5 1.028243 1_555
H6 N5 1.028243 1_555
H7 N3 1.028243 1_555
H8 N4 1.028243 1_555
H9 N1 1.028243 1_555
H10 N2 1.028243 1_555
H11 N0 1.028243 1_555
H12 H28 0.763503 1_555
H13 H29 0.763497 1_555
H14 H27 0.763503 1_555
H15 H26 0.763503 1_555
H16 H24 0.763503 1_555
H17 H25 0.763497 1_555
H18 H34 0.763497 1_555
H19 H35 0.763503 1_555
H20 H33 0.763497 1_555
H21 H32 0.763497 1_555
H22 H30 0.763497 1_555
H23 H31 0.763497 1_555
N0 Y3 2.408061 1_555
N0 Y0 2.408061 1_555
N1 Y3 2.408061 1_555
N1 Y0 2.408061 1_555
N2 Y0 2.408061 1_555
N2 Y3 2.408061 1_555
N3 Y1 2.408061 1_555
N3 Y2 2.408061 1_555
N4 Y2 2.408061 1_555
N4 Y1 2.408061 1_555
N5 Y2 2.408061 1_555
N5 Y1 2.408061 1_555
N6 Y1 2.452538 1_445
N6 Y3 2.625928 1_556
N7 Y1 2.452538 1_544
N7 Y3 2.625928 1_655
N8 Y1 2.452538 1_454
N8 Y3 2.625928 1_565
N9 Y0 2.452538 1_555
N9 Y2 2.625928 1_555
N10 N15 1.422864 1_555
N10 N17 1.422864 1_555
N10 Y0 2.452538 1_555
N10 Y2 2.625928 1_555
N11 N15 1.422864 1_555
N11 N16 1.422864 1_555
N11 Y0 2.452538 1_555
N11 Y2 2.625928 1_555
N12 N8 1.422864 1_655
N12 N7 1.422864 1_565
N12 Y3 2.452538 1_665
N12 Y1 2.625928 1_554
N13 N8 1.422864 1_556
N13 N6 1.422864 1_565
N13 Y3 2.452538 1_566
N13 Y1 2.625928 1_455
N14 N6 1.422864 1_655
N14 N7 1.422864 1_556
N14 Y3 2.452538 1_656
N14 Y1 2.625928 1_545
N15 Y2 2.452538 1_555
N15 Y0 2.625928 1_555
N16 N9 1.422864 1_555
N16 Y2 2.452538 1_555
N16 Y0 2.625928 1_555
N17 N9 1.422864 1_555
N17 Y2 2.452538 1_555
N17 Y0 2.625928 1_555
