# generated using pymatgen
data_NdGa3Ni
_symmetry_space_group_name_H-M   'P 1'
_cell_length_a   4.22278062
_cell_length_b   4.22278062
_cell_length_c   5.88395596
_cell_angle_alpha   68.95663169
_cell_angle_beta   68.95663169
_cell_angle_gamma   90.06512436
_symmetry_Int_Tables_number   1
_chemical_formula_structural   NdGa3Ni
_chemical_formula_sum   'Nd1 Ga3 Ni1'
_cell_volume   90.36923130
_cell_formula_units_Z   1
loop_
 _symmetry_equiv_pos_site_id
 _symmetry_equiv_pos_as_xyz
  1  'x, y, z'
loop_
 _atom_site_type_symbol
 _atom_site_label
 _atom_site_symmetry_multiplicity
 _atom_site_fract_x
 _atom_site_fract_y
 _atom_site_fract_z
 _atom_site_occupancy
  Nd  Nd0  1  0.00466029  0.00466029  0.99007815  1
  Ga  Ga0  1  0.75615155  0.25559665  0.48831034  1
  Ga  Ga1  1  0.25559665  0.75615155  0.48831034  1
  Ga  Ga2  1  0.59069115  0.59069115  0.81838378  1
  Ni  Ni0  1  0.36190137  0.36190137  0.27691538  1
loop_
_geom_bond_atom_site_label_1
_geom_bond_atom_site_label_2
_geom_bond_distance
_geom_bond_site_symmetry_2
Nd0 Ni0 3.314551 1_446
Nd0 Ni0 3.322529 1_456
Nd0 Ni0 3.322529 1_546
Nd0 Ni0 3.324395 1_556
Ga0 Ni0 2.367115 1_655
Ga0 Ni0 2.368154 1_555
Ga0 Ga2 2.692300 1_545
Ga0 Ga2 2.695132 1_555
Ga0 Nd0 3.290069 1_664
Ga0 Nd0 3.292771 1_654
Ga0 Nd0 3.304759 1_655
Ga0 Nd0 3.305607 1_555
Ga1 Ni0 2.367115 1_565
Ga1 Ni0 2.368154 1_555
Ga1 Ga2 2.692300 1_455
Ga1 Ga2 2.695132 1_555
Ga1 Nd0 3.290069 1_664
Ga1 Nd0 3.292771 1_564
Ga1 Nd0 3.304759 1_565
Ga1 Nd0 3.305607 1_555
Ga2 Ni0 2.323776 1_556
Ga2 Nd0 3.108354 1_665
Ga2 Nd0 3.108692 1_555
Ga2 Nd0 3.111781 1_565
Ga2 Nd0 3.111781 1_655
