# generated using pymatgen
data_Sr3CaMn2FeO10
_symmetry_space_group_name_H-M   'P 1'
_cell_length_a   3.85917705
_cell_length_b   3.85907405
_cell_length_c   14.23578626
_cell_angle_alpha   82.20241728
_cell_angle_beta   82.20246442
_cell_angle_gamma   90.01502458
_symmetry_Int_Tables_number   1
_chemical_formula_structural   Sr3CaMn2FeO10
_chemical_formula_sum   'Sr3 Ca1 Mn2 Fe1 O10'
_cell_volume   208.07123472
_cell_formula_units_Z   1
loop_
 _symmetry_equiv_pos_site_id
 _symmetry_equiv_pos_as_xyz
  1  'x, y, z'
loop_
 _atom_site_type_symbol
 _atom_site_label
 _atom_site_symmetry_multiplicity
 _atom_site_fract_x
 _atom_site_fract_y
 _atom_site_fract_z
 _atom_site_occupancy
  Sr  Sr0  1  0.57047600  0.57047800  0.85919300  1
  Sr  Sr1  1  0.42999200  0.43001100  0.13988100  1
  Sr  Sr2  1  0.70403400  0.70405000  0.59211400  1
  Ca  Ca0  1  0.29939300  0.29939600  0.40140800  1
  Mn  Mn0  1  0.14226900  0.14217400  0.71533100  1
  Mn  Mn1  1  0.85742100  0.85743500  0.28451400  1
  Fe  Fe0  1  0.00015900  0.00018000  0.99979300  1
  O  O0  1  0.64061100  0.14074000  0.71931900  1
  O  O1  1  0.14073100  0.64060400  0.71932500  1
  O  O2  1  0.35686500  0.85688200  0.28561700  1
  O  O3  1  0.85688500  0.35686200  0.28561600  1
  O  O4  1  0.07194500  0.07194800  0.85595100  1
  O  O5  1  0.92786500  0.92785600  0.14495100  1
  O  O6  1  0.21253400  0.21255600  0.57563700  1
  O  O7  1  0.78942400  0.78942100  0.42005300  1
  O  O8  1  0.99969200  0.49970500  0.00064600  1
  O  O9  1  0.49970500  0.99970200  0.00064900  1
loop_
_geom_bond_atom_site_label_1
_geom_bond_atom_site_label_2
_geom_bond_distance
_geom_bond_site_symmetry_2
Ca0 O6 2.434192 1_555
Ca0 O2 2.516553 1_555
Ca0 O3 2.516624 1_555
Ca0 O2 2.519399 1_545
Ca0 O3 2.519426 1_455
Ca0 O7 2.737397 1_555
Ca0 O7 2.741562 1_455
Ca0 O7 2.741593 1_545
Ca0 O7 2.744329 1_445
Mn0 O1 1.928688 1_545
Mn0 O0 1.929089 1_455
Mn0 O0 1.931699 1_555
Mn0 O1 1.932001 1_555
Mn0 O6 1.951696 1_555
Mn0 O4 1.964633 1_555
Mn1 O7 1.893645 1_555
Mn1 O3 1.929516 1_565
Mn1 O2 1.929635 1_655
Mn1 O2 1.929665 1_555
Mn1 O3 1.929681 1_555
Mn1 O5 1.949867 1_555
Fe0 O8 1.929389 1_456
Fe0 O9 1.929527 1_546
Fe0 O9 1.929724 1_446
Fe0 O8 1.929759 1_446
Fe0 O4 2.009648 1_555
Fe0 O5 2.028035 1_446
O0 Sr2 2.622224 1_555
O0 Sr2 2.624332 1_545
O0 Sr0 2.745633 1_555
O0 Sr0 2.746925 1_545
O1 Sr2 2.622296 1_555
O1 Sr2 2.624449 1_455
O1 Sr0 2.745615 1_555
O1 Sr0 2.746897 1_455
O2 Sr1 2.804695 1_555
O2 Sr1 2.805601 1_565
O3 Sr1 2.804771 1_555
O3 Sr1 2.805575 1_655
O4 Sr0 2.727995 1_445
O4 Sr0 2.729545 1_455
O4 Sr0 2.729550 1_545
O4 Sr0 2.729669 1_555
O5 Sr1 2.727209 1_665
O5 Sr1 2.730015 1_655
O5 Sr1 2.730168 1_565
O5 Sr1 2.731542 1_555
O6 Sr2 2.736767 1_555
O6 Sr2 2.738848 1_455
O6 Sr2 2.738879 1_545
O6 Sr2 2.739534 1_445
O7 Sr2 2.403905 1_555
O8 Sr1 2.739966 1_555
O8 Sr1 2.739974 1_655
O8 Sr0 2.761982 1_654
O8 Sr0 2.762132 1_554
O9 Sr1 2.739873 1_555
O9 Sr1 2.739935 1_565
O9 Sr0 2.761944 1_564
O9 Sr0 2.762158 1_554
