# generated using pymatgen
data_Ba2NdV3O11
_symmetry_space_group_name_H-M   'P 1'
_cell_length_a   7.85824900
_cell_length_b   12.55076473
_cell_length_c   11.44512251
_cell_angle_alpha   103.14948449
_cell_angle_beta   90.00000000
_cell_angle_gamma   90.00000000
_symmetry_Int_Tables_number   1
_chemical_formula_structural   Ba2NdV3O11
_chemical_formula_sum   'Ba8 Nd4 V12 O44'
_cell_volume   1099.20122870
_cell_formula_units_Z   4
loop_
 _symmetry_equiv_pos_site_id
 _symmetry_equiv_pos_as_xyz
  1  'x, y, z'
loop_
 _atom_site_type_symbol
 _atom_site_label
 _atom_site_symmetry_multiplicity
 _atom_site_fract_x
 _atom_site_fract_y
 _atom_site_fract_z
 _atom_site_occupancy
  Ba  Ba0  1  0.27399600  0.76518300  0.94132200  1
  Ba  Ba1  1  0.72600400  0.23481700  0.05867800  1
  Ba  Ba2  1  0.77399600  0.23481700  0.55867800  1
  Ba  Ba3  1  0.22600400  0.76518300  0.44132200  1
  Ba  Ba4  1  0.74741400  0.55396000  0.88929000  1
  Ba  Ba5  1  0.25258600  0.44604000  0.11071000  1
  Ba  Ba6  1  0.24741400  0.44604000  0.61071000  1
  Ba  Ba7  1  0.75258600  0.55396000  0.38929000  1
  Nd  Nd0  1  0.50070200  0.99765700  0.71132000  1
  Nd  Nd1  1  0.49929800  0.00234300  0.28868000  1
  Nd  Nd2  1  0.00070200  0.00234300  0.78868000  1
  Nd  Nd3  1  0.99929800  0.99765700  0.21132000  1
  V  V0  1  0.75115200  0.90384200  0.97554200  1
  V  V1  1  0.24884800  0.09615800  0.02445800  1
  V  V2  1  0.25115200  0.09615800  0.52445800  1
  V  V3  1  0.74884800  0.90384200  0.47554200  1
  V  V4  1  0.51978700  0.68264900  0.67354300  1
  V  V5  1  0.48021300  0.31735100  0.32645700  1
  V  V6  1  0.01978700  0.31735100  0.82645700  1
  V  V7  1  0.98021300  0.68264900  0.17354300  1
  V  V8  1  0.98069900  0.68606700  0.67022500  1
  V  V9  1  0.01930100  0.31393300  0.32977500  1
  V  V10  1  0.48069900  0.31393300  0.82977500  1
  V  V11  1  0.51930100  0.68606700  0.17022500  1
  O  O0  1  0.44241400  0.81496400  0.71941200  1
  O  O1  1  0.55758600  0.18503600  0.28058800  1
  O  O2  1  0.94241400  0.18503600  0.78058800  1
  O  O3  1  0.05758600  0.81496400  0.21941200  1
  O  O4  1  0.55203600  0.18057100  0.80968800  1
  O  O5  1  0.44796400  0.81942900  0.19031200  1
  O  O6  1  0.05203600  0.81942900  0.69031200  1
  O  O7  1  0.94796400  0.18057100  0.30968800  1
  O  O8  1  0.75030900  0.66680800  0.66740600  1
  O  O9  1  0.24969100  0.33319200  0.33259400  1
  O  O10  1  0.25030900  0.33319200  0.83259400  1
  O  O11  1  0.74969100  0.66680800  0.16740600  1
  O  O12  1  0.94523100  0.37568400  0.96597500  1
  O  O13  1  0.05476900  0.62431600  0.03402500  1
  O  O14  1  0.44523100  0.62431600  0.53402500  1
  O  O15  1  0.55476900  0.37568400  0.46597500  1
  O  O16  1  0.94220200  0.39349400  0.73190400  1
  O  O17  1  0.05779800  0.60650600  0.26809600  1
  O  O18  1  0.44220200  0.60650600  0.76809600  1
  O  O19  1  0.55779800  0.39349400  0.23190400  1
  O  O20  1  0.78529200  0.98589200  0.62178100  1
  O  O21  1  0.21470800  0.01410800  0.37821900  1
  O  O22  1  0.28529200  0.01410800  0.87821900  1
  O  O23  1  0.71470800  0.98589200  0.12178100  1
  O  O24  1  0.96954800  0.88209100  0.97312300  1
  O  O25  1  0.03045200  0.11790900  0.02687700  1
  O  O26  1  0.46954800  0.11790900  0.52687700  1
  O  O27  1  0.53045200  0.88209100  0.47312300  1
  O  O28  1  0.63773300  0.78541600  0.94646500  1
  O  O29  1  0.36226700  0.21458400  0.05353500  1
  O  O30  1  0.13773300  0.21458400  0.55353500  1
  O  O31  1  0.86226700  0.78541600  0.44646500  1
  O  O32  1  0.71722500  0.98259400  0.86651000  1
  O  O33  1  0.28277500  0.01740600  0.13349000  1
  O  O34  1  0.21722500  0.01740600  0.63349000  1
  O  O35  1  0.78277500  0.98259400  0.36651000  1
  O  O36  1  0.55847400  0.37059200  0.71935800  1
  O  O37  1  0.44152600  0.62940800  0.28064200  1
  O  O38  1  0.05847400  0.62940800  0.78064200  1
  O  O39  1  0.94152600  0.37059200  0.21935800  1
  O  O40  1  0.56209800  0.38868400  0.96185900  1
  O  O41  1  0.43790200  0.61131600  0.03814100  1
  O  O42  1  0.06209800  0.61131600  0.53814100  1
  O  O43  1  0.93790200  0.38868400  0.46185900  1
loop_
_geom_bond_atom_site_label_1
_geom_bond_atom_site_label_2
_geom_bond_distance
_geom_bond_site_symmetry_2
Ba0 O41 2.754967 1_556
Ba0 O38 2.779991 1_555
Ba0 O24 2.786777 1_455
Ba0 O18 2.801345 1_555
Ba0 O13 2.841269 1_556
Ba0 O28 2.869013 1_555
Ba0 O0 3.051957 1_555
Ba0 O5 3.093640 1_556
Ba0 O22 3.364033 1_565
Ba0 O33 3.419834 1_566
Ba1 O40 2.754967 1_554
Ba1 O39 2.779991 1_555
Ba1 O25 2.786777 1_655
Ba1 O19 2.801345 1_555
Ba1 O12 2.841269 1_554
Ba1 O29 2.869013 1_555
Ba1 O1 3.051957 1_555
Ba1 O4 3.093640 1_554
Ba1 O23 3.364033 1_545
Ba1 O32 3.419834 1_544
Ba2 O43 2.754967 1_555
Ba2 O36 2.779991 1_555
Ba2 O26 2.786777 1_555
Ba2 O16 2.801345 1_555
Ba2 O15 2.841269 1_555
Ba2 O30 2.869013 1_655
Ba2 O2 3.051957 1_555
Ba2 O7 3.093640 1_555
Ba2 O20 3.364033 1_545
Ba2 O35 3.419834 1_545
Ba3 O42 2.754967 1_555
Ba3 O37 2.779991 1_555
Ba3 O27 2.786777 1_555
Ba3 O17 2.801345 1_555
Ba3 O14 2.841269 1_555
Ba3 O31 2.869013 1_455
Ba3 O3 3.051957 1_555
Ba3 O6 3.093640 1_555
Ba3 O21 3.364033 1_565
Ba3 O34 3.419834 1_565
Ba4 O40 2.810211 1_555
Ba4 O16 2.827226 1_555
Ba4 O18 2.920206 1_555
Ba4 O13 2.948181 1_656
Ba4 O28 2.957181 1_555
Ba4 O41 2.962810 1_556
Ba4 O38 2.992276 1_655
Ba4 O12 3.014408 1_555
Ba4 O36 3.040892 1_555
Ba4 O11 3.176013 1_556
Ba4 O8 3.176788 1_555
Ba5 O41 2.810211 1_555
Ba5 O17 2.827226 1_555
Ba5 O19 2.920206 1_555
Ba5 O12 2.948181 1_454
Ba5 O29 2.957181 1_555
Ba5 O40 2.962810 1_554
Ba5 O39 2.992276 1_455
Ba5 O13 3.014408 1_555
Ba5 O37 3.040892 1_555
Ba5 O10 3.176013 1_554
Ba5 O9 3.176788 1_555
Ba6 O42 2.810211 1_555
Ba6 O18 2.827226 1_555
Ba6 O16 2.920206 1_455
Ba6 O15 2.948181 1_555
Ba6 O30 2.957181 1_555
Ba6 O43 2.962810 1_455
Ba6 O36 2.992276 1_555
Ba6 O14 3.014408 1_555
Ba6 O38 3.040892 1_555
Ba6 O9 3.176013 1_555
Ba6 O10 3.176788 1_555
Ba7 O43 2.810211 1_555
Ba7 O19 2.827226 1_555
Ba7 O17 2.920206 1_655
Ba7 O14 2.948181 1_555
Ba7 O31 2.957181 1_555
Ba7 O42 2.962810 1_655
Ba7 O37 2.992276 1_555
Ba7 O15 3.014408 1_555
Ba7 O39 3.040892 1_555
Ba7 O8 3.176013 1_555
Ba7 O11 3.176788 1_555
Nd0 O4 2.350440 1_565
Nd0 O0 2.360627 1_555
Nd0 O34 2.432636 1_565
Nd0 O20 2.450414 1_555
Nd0 O32 2.497673 1_555
Nd0 O22 2.525343 1_565
Nd0 O27 2.791321 1_555
Nd0 O26 2.871162 1_565
Nd1 O5 2.350440 1_545
Nd1 O1 2.360627 1_555
Nd1 O35 2.432636 1_545
Nd1 O21 2.450414 1_555
Nd1 O33 2.497673 1_555
Nd1 O23 2.525343 1_545
Nd1 O26 2.791321 1_555
Nd1 O27 2.871162 1_545
Nd2 O6 2.350440 1_545
Nd2 O2 2.360627 1_455
Nd2 O32 2.432636 1_445
Nd2 O22 2.450414 1_555
Nd2 O34 2.497673 1_555
Nd2 O20 2.525343 1_445
Nd2 O25 2.791321 1_556
Nd2 O24 2.871162 1_445
Nd3 O7 2.350440 1_565
Nd3 O3 2.360627 1_655
Nd3 O33 2.432636 1_665
Nd3 O23 2.450414 1_555
Nd3 O35 2.497673 1_555
Nd3 O21 2.525343 1_665
Nd3 O24 2.791321 1_554
Nd3 O25 2.871162 1_665
O0 V4 1.733897 1_555
O1 V5 1.733897 1_555
O2 V6 1.733897 1_655
O3 V7 1.733897 1_455
O4 V10 1.730208 1_555
O5 V11 1.730208 1_555
O6 V8 1.730208 1_455
O7 V9 1.730208 1_655
O8 V4 1.821987 1_555
O8 V8 1.825840 1_555
O9 V5 1.821987 1_555
O9 V9 1.825840 1_555
O10 V6 1.821987 1_555
O10 V10 1.825840 1_555
O11 V7 1.821987 1_555
O11 V11 1.825840 1_555
O12 V6 1.702096 1_655
O13 V7 1.702096 1_455
O14 V4 1.702096 1_555
O15 V5 1.702096 1_555
O16 V6 1.710735 1_655
O17 V7 1.710735 1_455
O18 V4 1.710735 1_555
O19 V5 1.710735 1_555
O20 V3 1.777535 1_555
O21 V2 1.777535 1_555
O22 V1 1.777535 1_556
O23 V0 1.777535 1_554
O24 V0 1.737017 1_555
O25 V1 1.737017 1_555
O26 V2 1.737017 1_555
O27 V3 1.737017 1_555
O28 V0 1.699784 1_555
O29 V1 1.699784 1_555
O30 V2 1.699784 1_555
O31 V3 1.699784 1_555
O32 V0 1.779440 1_555
O33 V1 1.779440 1_555
O34 V2 1.779440 1_555
O35 V3 1.779440 1_555
O36 V10 1.698565 1_555
O37 V11 1.698565 1_555
O38 V8 1.698565 1_455
O39 V9 1.698565 1_655
O40 V10 1.711532 1_555
O41 V11 1.711532 1_555
O42 V8 1.711532 1_455
O43 V9 1.711532 1_655
