# generated using pymatgen
data_Ca3SiO4F
_symmetry_space_group_name_H-M   'P 1'
_cell_length_a   5.49887200
_cell_length_b   7.43007400
_cell_length_c   12.39638000
_cell_angle_alpha   90.00000000
_cell_angle_beta   90.00000000
_cell_angle_gamma   90.00000000
_symmetry_Int_Tables_number   1
_chemical_formula_structural   Ca3SiO4F
_chemical_formula_sum   'Ca12 Si4 O16 F4'
_cell_volume   506.47921844
_cell_formula_units_Z   4
loop_
 _symmetry_equiv_pos_site_id
 _symmetry_equiv_pos_as_xyz
  1  'x, y, z'
loop_
 _atom_site_type_symbol
 _atom_site_label
 _atom_site_symmetry_multiplicity
 _atom_site_fract_x
 _atom_site_fract_y
 _atom_site_fract_z
 _atom_site_occupancy
  Ca  Ca0  1  0.25158700  0.25000000  0.41954300  1
  Ca  Ca1  1  0.74841300  0.75000000  0.58045700  1
  Ca  Ca2  1  0.24841300  0.75000000  0.91954300  1
  Ca  Ca3  1  0.75158700  0.25000000  0.08045700  1
  Ca  Ca4  1  0.25890700  0.00614100  0.16254200  1
  Ca  Ca5  1  0.74109300  0.99385900  0.83745800  1
  Ca  Ca6  1  0.24109300  0.99385900  0.66254200  1
  Ca  Ca7  1  0.74109300  0.50614100  0.83745800  1
  Ca  Ca8  1  0.75890700  0.00614100  0.33745800  1
  Ca  Ca9  1  0.25890700  0.49385900  0.16254200  1
  Ca  Ca10  1  0.75890700  0.49385900  0.33745800  1
  Ca  Ca11  1  0.24109300  0.50614100  0.66254200  1
  Si  Si0  1  0.72062700  0.25000000  0.58776900  1
  Si  Si1  1  0.27937300  0.75000000  0.41223100  1
  Si  Si2  1  0.77937300  0.75000000  0.08776900  1
  Si  Si3  1  0.22062700  0.25000000  0.91223100  1
  O  O0  1  0.17898400  0.56599500  0.34756800  1
  O  O1  1  0.82101600  0.43400500  0.65243200  1
  O  O2  1  0.32101600  0.43400500  0.84756800  1
  O  O3  1  0.82101600  0.06599600  0.65243200  1
  O  O4  1  0.67898400  0.56599500  0.15243200  1
  O  O5  1  0.17898400  0.93400500  0.34756800  1
  O  O6  1  0.67898400  0.93400500  0.15243200  1
  O  O7  1  0.32101600  0.06599600  0.84756800  1
  O  O8  1  0.41498100  0.25000000  0.59589300  1
  O  O9  1  0.58501900  0.75000000  0.40410700  1
  O  O10  1  0.08501900  0.75000000  0.09589300  1
  O  O11  1  0.91498100  0.25000000  0.90410700  1
  O  O12  1  0.33614800  0.25000000  0.03683400  1
  O  O13  1  0.66385200  0.75000000  0.96316600  1
  O  O14  1  0.16385200  0.75000000  0.53683400  1
  O  O15  1  0.83614800  0.25000000  0.46316600  1
  F  F0  1  0.00146600  0.25000000  0.23705100  1
  F  F1  1  0.99853400  0.75000000  0.76294900  1
  F  F2  1  0.49853400  0.75000000  0.73705100  1
  F  F3  1  0.50146600  0.25000000  0.26294900  1
loop_
_geom_bond_atom_site_label_1
_geom_bond_atom_site_label_2
_geom_bond_distance
_geom_bond_site_symmetry_2
Ca0 O15 2.347578 1_455
Ca0 O8 2.363538 1_555
Ca0 F3 2.378292 1_555
Ca0 O5 2.543214 1_545
Ca0 O0 2.543214 1_555
Ca0 F0 2.647529 1_555
Ca1 O14 2.347578 1_655
Ca1 O9 2.363538 1_555
Ca1 F2 2.378292 1_555
Ca1 O1 2.543214 1_555
Ca1 O3 2.543221 1_565
Ca1 F1 2.647529 1_555
Ca2 O13 2.347578 1_555
Ca2 O10 2.363538 1_556
Ca2 F1 2.378292 1_455
Ca2 O2 2.543214 1_555
Ca2 O7 2.543221 1_565
Ca2 F2 2.647529 1_555
Ca3 O12 2.347578 1_555
Ca3 O11 2.363538 1_554
Ca3 F0 2.378292 1_655
Ca3 O4 2.543214 1_555
Ca3 O6 2.543214 1_545
Ca3 F3 2.647529 1_555
Ca4 O10 2.284487 1_545
Ca4 O6 2.374625 1_545
Ca4 O5 2.396093 1_545
Ca4 O12 2.427287 1_555
Ca4 F0 2.477919 1_555
Ca4 F3 2.571227 1_555
Ca5 O11 2.284487 1_565
Ca5 O7 2.374627 1_565
Ca5 O3 2.396094 1_565
Ca5 O13 2.427287 1_555
Ca5 F1 2.477919 1_555
Ca5 F2 2.571227 1_555
Ca6 O8 2.284487 1_565
Ca6 O3 2.374627 1_465
Ca6 O7 2.396094 1_565
Ca6 O14 2.427287 1_555
Ca6 F2 2.477919 1_555
Ca6 F1 2.571227 1_455
Ca7 O11 2.284487 1_555
Ca7 O2 2.374625 1_555
Ca7 O1 2.396093 1_555
Ca7 O13 2.427287 1_555
Ca7 F1 2.477919 1_555
Ca7 F2 2.571227 1_555
Ca8 O9 2.284487 1_545
Ca8 O5 2.374625 1_645
Ca8 O6 2.396093 1_545
Ca8 O15 2.427287 1_555
Ca8 F3 2.477919 1_555
Ca8 F0 2.571227 1_655
Ca9 O10 2.284487 1_555
Ca9 O4 2.374625 1_555
Ca9 O0 2.396093 1_555
Ca9 O12 2.427287 1_555
Ca9 F0 2.477919 1_555
Ca9 F3 2.571227 1_555
Ca10 O9 2.284487 1_555
Ca10 O0 2.374625 1_655
Ca10 O4 2.396093 1_555
Ca10 O15 2.427287 1_555
Ca10 F3 2.477919 1_555
Ca10 F0 2.571227 1_655
Ca11 O8 2.284487 1_555
Ca11 O1 2.374625 1_455
Ca11 O2 2.396093 1_555
Ca11 O14 2.427287 1_555
Ca11 F2 2.477919 1_555
Ca11 F1 2.571227 1_455
O0 Si1 1.678223 1_555
O1 Si0 1.678223 1_555
O2 Si3 1.678223 1_555
O3 Si0 1.678216 1_555
O4 Si2 1.678223 1_555
O5 Si1 1.678223 1_555
O6 Si2 1.678223 1_555
O7 Si3 1.678216 1_555
O8 Si0 1.683723 1_555
O9 Si1 1.683723 1_555
O10 Si2 1.683723 1_455
O11 Si3 1.683723 1_655
O12 Si3 1.670148 1_554
O13 Si2 1.670148 1_556
O14 Si1 1.670148 1_555
O15 Si0 1.670148 1_555
