# generated using pymatgen
data_K2NaNb3O9
_symmetry_space_group_name_H-M   'P 1'
_cell_length_a   4.00883500
_cell_length_b   8.11358300
_cell_length_c   13.04323566
_cell_angle_alpha   72.33081229
_cell_angle_beta   90.00000000
_cell_angle_gamma   90.00000000
_symmetry_Int_Tables_number   1
_chemical_formula_structural   K2NaNb3O9
_chemical_formula_sum   'K4 Na2 Nb6 O18'
_cell_volume   404.23068610
_cell_formula_units_Z   2
loop_
 _symmetry_equiv_pos_site_id
 _symmetry_equiv_pos_as_xyz
  1  'x, y, z'
loop_
 _atom_site_type_symbol
 _atom_site_label
 _atom_site_symmetry_multiplicity
 _atom_site_fract_x
 _atom_site_fract_y
 _atom_site_fract_z
 _atom_site_occupancy
  K  K0  1  0.00000000  0.48746200  0.50889900  1
  K  K1  1  0.00000000  0.65268800  0.16864800  1
  K  K2  1  0.00000000  0.98641300  0.50249100  1
  K  K3  1  0.00000000  0.31900800  0.83569000  1
  Na  Na0  1  0.00000000  0.80707700  0.85428000  1
  Na  Na1  1  0.00000000  0.14035800  0.18708200  1
  Nb  Nb0  1  0.50000000  0.64840900  0.68042800  1
  Nb  Nb1  1  0.50000000  0.98086000  0.01165000  1
  Nb  Nb2  1  0.50000000  0.31256400  0.34382700  1
  Nb  Nb3  1  0.50000000  0.13999500  0.67801900  1
  Nb  Nb4  1  0.50000000  0.47556600  0.00967500  1
  Nb  Nb5  1  0.50000000  0.81253300  0.34171800  1
  O  O0  1  0.50000000  0.26128100  0.49464500  1
  O  O1  1  0.50000000  0.60697100  0.83016900  1
  O  O2  1  0.50000000  0.93980000  0.16184400  1
  O  O3  1  0.50000000  0.92157700  0.65320900  1
  O  O4  1  0.50000000  0.25670700  0.98471400  1
  O  O5  1  0.50000000  0.58859200  0.32086400  1
  O  O6  1  0.00000000  0.16630200  0.66385700  1
  O  O7  1  0.00000000  0.50647400  0.99355700  1
  O  O8  1  0.00000000  0.84043700  0.32559900  1
  O  O9  1  0.50000000  0.06123700  0.82942900  1
  O  O10  1  0.50000000  0.39625100  0.16112800  1
  O  O11  1  0.50000000  0.73896400  0.49361800  1
  O  O12  1  0.50000000  0.41423300  0.67517900  1
  O  O13  1  0.50000000  0.74731400  0.00739300  1
  O  O14  1  0.50000000  0.08096500  0.33689200  1
  O  O15  1  0.00000000  0.00100000  0.99600800  1
  O  O16  1  0.00000000  0.33356800  0.32744700  1
  O  O17  1  0.00000000  0.67009300  0.66544400  1
loop_
_geom_bond_atom_site_label_1
_geom_bond_atom_site_label_2
_geom_bond_distance
_geom_bond_site_symmetry_2
K0 O0 2.761721 1_555
K0 O0 2.761721 1_455
K0 O6 2.770915 1_555
K0 O11 2.823915 1_455
K0 O11 2.823915 1_555
K0 O17 2.863833 1_555
K0 O12 2.879633 1_455
K0 O12 2.879633 1_555
K0 O16 2.992383 1_555
K0 O5 3.079693 1_555
K0 O5 3.079693 1_455
K0 O8 3.124335 1_555
K1 O5 2.757379 1_455
K1 O5 2.757379 1_555
K1 O16 2.781830 1_555
K1 O13 2.837375 1_455
K1 O13 2.837375 1_555
K1 O7 2.875329 1_554
K1 O8 2.899025 1_555
K1 O10 2.912076 1_455
K1 O10 2.912076 1_555
K1 O15 3.032181 1_564
K1 O2 3.053960 1_555
K1 O2 3.053960 1_455
K2 O3 2.744307 1_455
K2 O3 2.744307 1_555
K2 O17 2.791591 1_555
K2 O11 2.864085 1_555
K2 O11 2.864085 1_455
K2 O14 2.875015 1_565
K2 O14 2.875015 1_465
K2 O8 2.895686 1_555
K2 O6 2.902582 1_565
K2 O0 2.977121 1_565
K2 O0 2.977121 1_465
K2 O16 3.040159 1_565
K3 O4 2.730375 1_455
K3 O4 2.730375 1_555
K3 O15 2.784729 1_555
K3 O12 2.831219 1_455
K3 O12 2.831219 1_555
K3 O6 2.871243 1_555
K3 O7 2.907678 1_555
K3 O9 2.915851 1_455
K3 O9 2.915851 1_555
K3 O17 3.034038 1_555
K3 O1 3.062607 1_555
K3 O1 3.062607 1_455
Na0 O7 2.561068 1_555
Na0 O1 2.657544 1_455
Na0 O1 2.657544 1_555
Na0 O13 2.766466 1_456
Na0 O13 2.766466 1_556
Na0 O15 2.767408 1_565
Na0 O9 2.823022 1_465
Na0 O9 2.823022 1_565
Na0 O17 2.993924 1_555
Na1 O8 2.552829 1_545
Na1 O2 2.664422 1_445
Na1 O2 2.664422 1_545
Na1 O14 2.737965 1_555
Na1 O14 2.737965 1_455
Na1 O16 2.748009 1_555
Na1 O10 2.831303 1_555
Na1 O10 2.831303 1_455
Nb0 O1 1.878576 1_555
Nb0 O12 1.921894 1_555
Nb0 O17 2.016424 1_655
Nb0 O17 2.016424 1_555
Nb0 O3 2.135576 1_555
Nb0 O11 2.321665 1_555
Nb1 O2 1.884821 1_555
Nb1 O13 1.912480 1_555
Nb1 O15 2.016378 1_564
Nb1 O15 2.016378 1_664
Nb1 O4 2.157598 1_564
Nb1 O9 2.265686 1_564
Nb2 O0 1.883071 1_555
Nb2 O14 1.908500 1_555
Nb2 O16 2.017492 1_655
Nb2 O16 2.017492 1_555
Nb2 O5 2.167537 1_555
Nb2 O10 2.271000 1_555
Nb3 O9 1.882128 1_555
Nb3 O3 1.895617 1_545
Nb3 O6 2.018275 1_655
Nb3 O6 2.018275 1_555
Nb3 O12 2.214091 1_555
Nb3 O0 2.293527 1_555
Nb4 O10 1.882758 1_555
Nb4 O4 1.900043 1_554
Nb4 O7 2.023060 1_654
Nb4 O7 2.023060 1_554
Nb4 O13 2.195999 1_555
Nb4 O1 2.259037 1_554
Nb5 O11 1.887806 1_555
Nb5 O5 1.917122 1_555
Nb5 O8 2.020954 1_655
Nb5 O8 2.020954 1_555
Nb5 O14 2.159673 1_565
Nb5 O2 2.258316 1_555
