# generated using pymatgen
data_Mg(CuO2)2
_symmetry_space_group_name_H-M   'P 1'
_cell_length_a   3.04319814
_cell_length_b   9.06744190
_cell_length_c   9.83666443
_cell_angle_alpha   90.00000000
_cell_angle_beta   90.00000000
_cell_angle_gamma   90.00000000
_symmetry_Int_Tables_number   1
_chemical_formula_structural   Mg(CuO2)2
_chemical_formula_sum   'Mg4 Cu8 O16'
_cell_volume   271.43313788
_cell_formula_units_Z   4
loop_
 _symmetry_equiv_pos_site_id
 _symmetry_equiv_pos_as_xyz
  1  'x, y, z'
loop_
 _atom_site_type_symbol
 _atom_site_label
 _atom_site_symmetry_multiplicity
 _atom_site_fract_x
 _atom_site_fract_y
 _atom_site_fract_z
 _atom_site_occupancy
  Mg  Mg0  1  0.87588376  0.25000000  0.84924914  1
  Mg  Mg1  1  0.87588376  0.75000000  0.65075086  1
  Mg  Mg2  1  0.12411624  0.25000000  0.34924914  1
  Mg  Mg3  1  0.12411624  0.75000000  0.15075086  1
  Cu  Cu0  1  0.34691758  0.06981605  0.61509658  1
  Cu  Cu1  1  0.34691758  0.56981605  0.88490342  1
  Cu  Cu2  1  0.65308242  0.56981605  0.38490342  1
  Cu  Cu3  1  0.34691758  0.93018395  0.88490342  1
  Cu  Cu4  1  0.65308242  0.93018395  0.38490342  1
  Cu  Cu5  1  0.34691758  0.43018395  0.61509658  1
  Cu  Cu6  1  0.65308242  0.43018395  0.11509658  1
  Cu  Cu7  1  0.65308242  0.06981605  0.11509658  1
  O  O0  1  0.63484697  0.38313587  0.45597190  1
  O  O1  1  0.36515303  0.61686413  0.54402810  1
  O  O2  1  0.99260172  0.50000000  0.75000000  1
  O  O3  1  0.36515303  0.38313587  0.95597190  1
  O  O4  1  0.36515303  0.11686413  0.95597190  1
  O  O5  1  0.37108546  0.75000000  0.79866490  1
  O  O6  1  0.63484697  0.61686413  0.04402810  1
  O  O7  1  0.62891454  0.75000000  0.29866490  1
  O  O8  1  0.99260172  0.00000000  0.75000000  1
  O  O9  1  0.00739828  0.50000000  0.25000000  1
  O  O10  1  0.63484697  0.11686413  0.45597190  1
  O  O11  1  0.62891454  0.25000000  0.20133510  1
  O  O12  1  0.37108546  0.25000000  0.70133510  1
  O  O13  1  0.00739828  0.00000000  0.25000000  1
  O  O14  1  0.63484697  0.88313587  0.04402810  1
  O  O15  1  0.36515303  0.88313587  0.54402810  1
loop_
_geom_bond_atom_site_label_1
_geom_bond_atom_site_label_2
_geom_bond_distance
_geom_bond_site_symmetry_2
Mg0 O12 2.094757 1_655
Mg0 O12 2.115865 1_555
Mg0 O4 2.185488 1_655
Mg0 O3 2.185488 1_655
Mg0 O3 2.230497 1_555
Mg0 O4 2.230497 1_555
Mg0 O8 2.493581 1_555
Mg0 O2 2.493581 1_555
Mg1 O5 2.094757 1_655
Mg1 O5 2.115865 1_555
Mg1 O15 2.185488 1_655
Mg1 O1 2.185488 1_655
Mg1 O1 2.230497 1_555
Mg1 O15 2.230497 1_555
Mg1 O8 2.493581 1_565
Mg1 O2 2.493581 1_555
Mg2 O11 2.094757 1_455
Mg2 O11 2.115865 1_555
Mg2 O0 2.185488 1_455
Mg2 O10 2.185488 1_455
Mg2 O10 2.230497 1_555
Mg2 O0 2.230497 1_555
Mg2 O9 2.493581 1_555
Mg2 O13 2.493581 1_555
Mg3 O7 2.094757 1_455
Mg3 O7 2.115865 1_555
Mg3 O6 2.185488 1_455
Mg3 O14 2.185488 1_455
Mg3 O14 2.230497 1_555
Mg3 O6 2.230497 1_555
Mg3 O9 2.493581 1_555
Mg3 O13 2.493581 1_565
Cu0 O8 1.823270 1_455
Cu0 O15 1.832228 1_545
Cu0 O12 1.842376 1_555
Cu0 O10 1.843852 1_555
Cu0 O8 2.454117 1_555
Cu1 O2 1.823270 1_455
Cu1 O3 1.832228 1_555
Cu1 O5 1.842376 1_555
Cu1 O6 1.843852 1_556
Cu1 O2 2.454117 1_555
Cu2 O9 1.823270 1_655
Cu2 O0 1.832228 1_555
Cu2 O7 1.842376 1_555
Cu2 O1 1.843852 1_555
Cu2 O9 2.454117 1_555
Cu3 O8 1.823270 1_465
Cu3 O4 1.832228 1_565
Cu3 O5 1.842376 1_555
Cu3 O14 1.843852 1_556
Cu3 O8 2.454117 1_565
Cu4 O13 1.823270 1_665
Cu4 O10 1.832228 1_565
Cu4 O7 1.842376 1_555
Cu4 O15 1.843852 1_555
Cu4 O13 2.454117 1_565
Cu5 O2 1.823270 1_455
Cu5 O1 1.832228 1_555
Cu5 O12 1.842376 1_555
Cu5 O0 1.843852 1_555
Cu5 O2 2.454117 1_555
Cu6 O9 1.823270 1_655
Cu6 O6 1.832228 1_555
Cu6 O11 1.842376 1_555
Cu6 O3 1.843852 1_554
Cu6 O9 2.454117 1_555
Cu7 O13 1.823270 1_655
Cu7 O14 1.832228 1_545
Cu7 O11 1.842376 1_555
Cu7 O4 1.843852 1_554
Cu7 O13 2.454117 1_555
