# generated using pymatgen
data_BaYZn3CoO7
_symmetry_space_group_name_H-M   'P 1'
_cell_length_a   6.42615434
_cell_length_b   6.42615434
_cell_length_c   10.37686900
_cell_angle_alpha   90.00000000
_cell_angle_beta   90.00000000
_cell_angle_gamma   120.00000345
_symmetry_Int_Tables_number   1
_chemical_formula_structural   BaYZn3CoO7
_chemical_formula_sum   'Ba2 Y2 Zn6 Co2 O14'
_cell_volume   371.10709212
_cell_formula_units_Z   2
loop_
 _symmetry_equiv_pos_site_id
 _symmetry_equiv_pos_as_xyz
  1  'x, y, z'
loop_
 _atom_site_type_symbol
 _atom_site_label
 _atom_site_symmetry_multiplicity
 _atom_site_fract_x
 _atom_site_fract_y
 _atom_site_fract_z
 _atom_site_occupancy
  Ba  Ba0  1  0.66666700  0.33333300  0.99414000  1
  Ba  Ba1  1  0.33333300  0.66666700  0.49414000  1
  Y  Y0  1  0.66666700  0.33333300  0.63258300  1
  Y  Y1  1  0.33333300  0.66666700  0.13258300  1
  Zn  Zn0  1  0.17021100  0.82978900  0.81625900  1
  Zn  Zn1  1  0.65957800  0.82978900  0.81625900  1
  Zn  Zn2  1  0.17021100  0.34042200  0.81625900  1
  Zn  Zn3  1  0.82978900  0.17021100  0.31625900  1
  Zn  Zn4  1  0.34042200  0.17021100  0.31625900  1
  Zn  Zn5  1  0.82978900  0.65957800  0.31625900  1
  Co  Co0  1  0.00000000  0.00000000  0.06666000  1
  Co  Co1  1  0.00000000  0.00000000  0.56666000  1
  O  O0  1  0.50438900  0.49561100  0.76160600  1
  O  O1  1  0.99122300  0.49561100  0.76160600  1
  O  O2  1  0.50438900  0.00877700  0.76160600  1
  O  O3  1  0.49561100  0.50438900  0.26160600  1
  O  O4  1  0.00877700  0.50438900  0.26160600  1
  O  O5  1  0.49561100  0.99122300  0.26160600  1
  O  O6  1  0.15995900  0.84004100  0.00999100  1
  O  O7  1  0.68008300  0.84004100  0.00999100  1
  O  O8  1  0.15995900  0.31991700  0.00999100  1
  O  O9  1  0.84004100  0.15995900  0.50999100  1
  O  O10  1  0.31991700  0.15995900  0.50999100  1
  O  O11  1  0.84004100  0.68008300  0.50999100  1
  O  O12  1  0.00000000  0.00000000  0.25205100  1
  O  O13  1  0.00000000  0.00000000  0.75205100  1
loop_
_geom_bond_atom_site_label_1
_geom_bond_atom_site_label_2
_geom_bond_distance
_geom_bond_site_symmetry_2
Ba0 O2 3.014115 1_555
Ba0 O1 3.014115 1_555
Ba0 O0 3.014115 1_555
Ba0 O6 3.218151 1_656
Ba0 O6 3.218151 1_546
Ba0 O7 3.218151 1_556
Ba0 O8 3.218151 1_556
Ba0 O8 3.218151 1_656
Ba0 O7 3.218151 1_546
Ba0 O5 3.365720 1_546
Ba0 O4 3.365720 1_656
Ba0 O3 3.365726 1_556
Ba1 O5 3.014115 1_555
Ba1 O4 3.014115 1_555
Ba1 O3 3.014115 1_555
Ba1 O9 3.218151 1_565
Ba1 O9 3.218151 1_455
Ba1 O11 3.218151 1_555
Ba1 O10 3.218151 1_555
Ba1 O10 3.218151 1_565
Ba1 O11 3.218151 1_455
Ba1 O1 3.365720 1_455
Ba1 O2 3.365720 1_565
Ba1 O0 3.365726 1_555
Co0 O7 1.875005 1_445
Co0 O8 1.875005 1_555
Co0 O6 1.875011 1_545
Co0 O12 1.923778 1_555
Co1 O10 1.875005 1_555
Co1 O11 1.875005 1_445
Co1 O9 1.875011 1_455
Co1 O13 1.923778 1_555
O0 Zn2 1.945824 1_555
O0 Zn1 1.945824 1_555
O0 Y0 2.248327 1_555
O1 Zn2 1.945819 1_655
O1 Zn0 1.945824 1_655
O1 Y0 2.248327 1_555
O2 Zn1 1.945819 1_545
O2 Zn0 1.945824 1_545
O2 Y0 2.248327 1_555
O3 Zn4 1.945824 1_555
O3 Zn5 1.945824 1_555
O3 Y1 2.248327 1_555
O4 Zn5 1.945819 1_455
O4 Zn3 1.945824 1_455
O4 Y1 2.248327 1_555
O5 Zn4 1.945819 1_565
O5 Zn3 1.945824 1_565
O5 Y1 2.248327 1_555
O6 Zn0 2.013567 1_554
O6 Y1 2.311306 1_555
O7 Zn1 2.013568 1_554
O7 Y1 2.311315 1_555
O8 Zn2 2.013568 1_554
O8 Y1 2.311315 1_555
O9 Zn3 2.013567 1_555
O9 Y0 2.311306 1_555
O10 Zn4 2.013568 1_555
O10 Y0 2.311315 1_555
O11 Zn5 2.013568 1_555
O11 Y0 2.311315 1_555
O12 Zn4 2.008267 1_555
O12 Zn5 2.008267 1_445
O12 Zn3 2.008267 1_455
O13 Zn2 2.008267 1_555
O13 Zn1 2.008267 1_445
O13 Zn0 2.008267 1_545
