# generated using pymatgen
data_K2Zr
_symmetry_space_group_name_H-M   'P 1'
_cell_length_a   6.56437567
_cell_length_b   6.56437567
_cell_length_c   7.86504800
_cell_angle_alpha   90.00000000
_cell_angle_beta   90.00000000
_cell_angle_gamma   119.99999672
_symmetry_Int_Tables_number   1
_chemical_formula_structural   K2Zr
_chemical_formula_sum   'K4 Zr2'
_cell_volume   293.50728045
_cell_formula_units_Z   2
loop_
 _symmetry_equiv_pos_site_id
 _symmetry_equiv_pos_as_xyz
  1  'x, y, z'
loop_
 _atom_site_type_symbol
 _atom_site_label
 _atom_site_symmetry_multiplicity
 _atom_site_fract_x
 _atom_site_fract_y
 _atom_site_fract_z
 _atom_site_occupancy
  K  K0  1  0.66666700  0.33333300  0.25000000  1
  K  K1  1  0.33333300  0.66666700  0.75000000  1
  K  K2  1  0.00000000  0.00000000  0.50000000  1
  K  K3  1  0.00000000  0.00000000  0.00000000  1
  Zr  Zr0  1  0.33333300  0.66666700  0.25000000  1
  Zr  Zr1  1  0.66666700  0.33333300  0.75000000  1
loop_
_geom_bond_atom_site_label_1
_geom_bond_atom_site_label_2
_geom_bond_distance
_geom_bond_site_symmetry_2
K0 Zr0 3.789940 1_545
K0 Zr0 3.789940 1_655
K0 Zr0 3.789952 1_555
K0 Zr1 3.932524 1_554
K0 Zr1 3.932524 1_555
K0 K2 4.269641 1_655
K0 K3 4.269641 1_655
K0 K2 4.269646 1_555
K0 K3 4.269646 1_555
K0 K2 4.269646 1_665
K0 K3 4.269646 1_665
K1 Zr1 3.789940 1_455
K1 Zr1 3.789940 1_565
K1 Zr1 3.789952 1_555
K1 Zr0 3.932524 1_555
K1 Zr0 3.932524 1_556
K1 K2 4.269641 1_565
K1 K3 4.269641 1_566
K1 K3 4.269646 1_666
K1 K2 4.269646 1_555
K1 K3 4.269646 1_556
K1 K2 4.269646 1_665
K2 K3 3.932524 1_556
K2 K3 3.932524 1_555
K2 Zr0 4.269641 1_545
K2 Zr1 4.269641 1_455
K2 Zr0 4.269646 1_445
K2 Zr1 4.269646 1_555
K2 Zr1 4.269646 1_445
K2 Zr0 4.269646 1_555
K3 Zr0 4.269641 1_545
K3 Zr1 4.269641 1_454
K3 Zr0 4.269646 1_445
K3 Zr1 4.269646 1_554
K3 Zr1 4.269646 1_444
K3 Zr0 4.269646 1_555
