# generated using pymatgen
data_Li7Mn5O12
_symmetry_space_group_name_H-M   'P 1'
_cell_length_a   5.93221025
_cell_length_b   6.02049432
_cell_length_c   12.69579894
_cell_angle_alpha   103.44360286
_cell_angle_beta   88.24205386
_cell_angle_gamma   93.78039980
_symmetry_Int_Tables_number   1
_chemical_formula_structural   Li7Mn5O12
_chemical_formula_sum   'Li14 Mn10 O24'
_cell_volume   439.98949167
_cell_formula_units_Z   2
loop_
 _symmetry_equiv_pos_site_id
 _symmetry_equiv_pos_as_xyz
  1  'x, y, z'
loop_
 _atom_site_type_symbol
 _atom_site_label
 _atom_site_symmetry_multiplicity
 _atom_site_fract_x
 _atom_site_fract_y
 _atom_site_fract_z
 _atom_site_occupancy
  Li  Li0  1  0.25001000  0.33332000  0.16667100  1
  Li  Li1  1  0.75000200  0.33332500  0.16667000  1
  Li  Li2  1  0.00000700  0.83333500  0.66666700  1
  Li  Li3  1  0.50000800  0.83333300  0.66666400  1
  Li  Li4  1  0.25001300  0.83332800  0.16666300  1
  Li  Li5  1  0.75000400  0.83333300  0.16666400  1
  Li  Li6  1  0.99843400  0.51968300  0.01627500  1
  Li  Li7  1  0.49843400  0.51968700  0.01627800  1
  Li  Li8  1  0.50158500  0.14698000  0.31705500  1
  Li  Li9  1  0.00158400  0.14698100  0.31705900  1
  Li  Li10  1  0.24757900  0.67025300  0.83562000  1
  Li  Li11  1  0.74758800  0.67025200  0.83562000  1
  Li  Li12  1  0.25242600  0.99640200  0.49772000  1
  Li  Li13  1  0.75242800  0.99640200  0.49772000  1
  Mn  Mn0  1  0.49995200  0.33334900  0.66667300  1
  Mn  Mn1  1  0.50607100  0.99728200  0.00863600  1
  Mn  Mn2  1  0.49393000  0.66939600  0.32470100  1
  Mn  Mn3  1  0.24198100  0.50315800  0.49881800  1
  Mn  Mn4  1  0.75802800  0.16350800  0.83450600  1
  Mn  Mn5  1  0.99993900  0.33338000  0.66667000  1
  Mn  Mn6  1  0.00606500  0.99727400  0.00864300  1
  Mn  Mn7  1  0.99393200  0.66938200  0.32469600  1
  Mn  Mn8  1  0.74196400  0.50315800  0.49881800  1
  Mn  Mn9  1  0.25802500  0.16349800  0.83450500  1
  O  O0  1  0.26754400  0.21798300  0.99717900  1
  O  O1  1  0.76754100  0.21798200  0.99717900  1
  O  O2  1  0.23247000  0.44870100  0.33615100  1
  O  O3  1  0.73246400  0.44870000  0.33615000  1
  O  O4  1  0.49975800  0.07945900  0.15511400  1
  O  O5  1  0.99975700  0.07946300  0.15512400  1
  O  O6  1  0.00025300  0.58719600  0.17820000  1
  O  O7  1  0.50025100  0.58720100  0.17820300  1
  O  O8  1  0.48716800  0.40479100  0.82858700  1
  O  O9  1  0.98716300  0.40479300  0.82858300  1
  O  O10  1  0.01282900  0.26186500  0.50475200  1
  O  O11  1  0.51282000  0.26186000  0.50475600  1
  O  O12  1  0.23143600  0.57427100  0.66000200  1
  O  O13  1  0.73142400  0.57425900  0.66000200  1
  O  O14  1  0.26854900  0.09239100  0.67333900  1
  O  O15  1  0.76855600  0.09240400  0.67333900  1
  O  O16  1  0.47726100  0.73571600  0.48955900  1
  O  O17  1  0.97726100  0.73570600  0.48955600  1
  O  O18  1  0.02274200  0.93094700  0.84377700  1
  O  O19  1  0.52273600  0.93093800  0.84377400  1
  O  O20  1  0.25651900  0.88548200  0.33210500  1
  O  O21  1  0.75652200  0.88548000  0.33210500  1
  O  O22  1  0.24349300  0.78120600  0.00122600  1
  O  O23  1  0.74349400  0.78120600  0.00122600  1
loop_
_geom_bond_atom_site_label_1
_geom_bond_atom_site_label_2
_geom_bond_distance
_geom_bond_site_symmetry_2
Li0 O5 2.042354 1_455
Li0 O7 2.042420 1_555
Li0 O2 2.103312 1_555
Li0 O0 2.103429 1_554
Li0 O4 2.175646 1_555
Li0 O6 2.175792 1_555
Li1 O4 2.042346 1_555
Li1 O6 2.042421 1_655
Li1 O3 2.103308 1_555
Li1 O1 2.103421 1_554
Li1 O5 2.175697 1_555
Li1 O7 2.175760 1_555
Li2 O12 2.130372 1_555
Li2 O15 2.130472 1_465
Li2 O14 2.143989 1_565
Li2 O13 2.144248 1_455
Li2 O18 2.193916 1_555
Li2 O17 2.193936 1_455
Li3 O13 2.130370 1_555
Li3 O14 2.130448 1_565
Li3 O15 2.144070 1_565
Li3 O12 2.144151 1_555
Li3 O16 2.193861 1_555
Li3 O19 2.193912 1_555
Li4 O22 2.051433 1_555
Li4 O20 2.051476 1_555
Li4 O4 2.051946 1_565
Li4 O6 2.051977 1_555
Li4 O7 2.196634 1_555
Li4 O5 2.196743 1_465
Li5 O23 2.051441 1_555
Li5 O21 2.051470 1_555
Li5 O5 2.051949 1_565
Li5 O7 2.051955 1_555
Li5 O4 2.196695 1_565
Li5 O6 2.196713 1_655
Li6 O6 2.000940 1_655
Li6 O22 2.109483 1_655
Li6 O1 2.172944 1_554
Li6 O23 2.296600 1_555
Li6 O9 2.323448 1_554
Li6 O0 2.461796 1_654
Li7 O7 2.000939 1_555
Li7 O23 2.109478 1_555
Li7 O0 2.172945 1_554
Li7 O22 2.296597 1_555
Li7 O8 2.323436 1_554
Li7 O1 2.461803 1_554
Li8 O4 2.001138 1_555
Li8 O20 2.109404 1_545
Li8 O3 2.172985 1_555
Li8 O21 2.296488 1_545
Li8 O11 2.323545 1_555
Li8 O2 2.461912 1_555
Li9 O5 2.001064 1_455
Li9 O21 2.109389 1_445
Li9 O2 2.173011 1_555
Li9 O20 2.296461 1_545
Li9 O10 2.323451 1_555
Li9 O3 2.461929 1_455
Li10 O22 2.052628 1_556
Li10 O18 2.108326 1_555
Li10 O9 2.136649 1_455
Li10 O12 2.172782 1_555
Li10 O19 2.176069 1_555
Li10 O8 2.192652 1_555
Li11 O23 2.052628 1_556
Li11 O19 2.108355 1_555
Li11 O8 2.136675 1_555
Li11 O13 2.172791 1_555
Li11 O18 2.176092 1_655
Li11 O9 2.192573 1_555
Li12 O20 2.052718 1_555
Li12 O16 2.108273 1_555
Li12 O11 2.136554 1_565
Li12 O14 2.172789 1_565
Li12 O17 2.176134 1_455
Li12 O10 2.192691 1_565
Li13 O21 2.052720 1_555
Li13 O17 2.108307 1_555
Li13 O10 2.136609 1_665
Li13 O15 2.172792 1_565
Li13 O16 2.176106 1_555
Li13 O11 2.192706 1_565
Mn0 O14 1.945098 1_555
Mn0 O13 1.945174 1_555
Mn0 O8 1.999995 1_555
Mn0 O11 2.000036 1_555
Mn0 O12 2.240180 1_555
Mn0 O15 2.240659 1_555
Mn1 O4 1.809657 1_565
Mn1 O22 1.952527 1_555
Mn1 O23 1.965053 1_555
Mn1 O1 1.999203 1_564
Mn1 O0 2.034527 1_564
Mn1 O19 2.038130 1_554
Mn2 O7 1.809906 1_555
Mn2 O21 1.952625 1_555
Mn2 O20 1.965051 1_555
Mn2 O2 1.999122 1_555
Mn2 O3 2.034512 1_555
Mn2 O16 2.038087 1_555
Mn3 O16 1.931573 1_555
Mn3 O10 1.936009 1_555
Mn3 O12 1.990755 1_555
Mn3 O2 2.016322 1_555
Mn3 O17 2.194961 1_455
Mn3 O11 2.250257 1_555
Mn4 O19 1.931694 1_545
Mn4 O9 1.935882 1_555
Mn4 O15 1.990544 1_555
Mn4 O1 2.016390 1_555
Mn4 O18 2.195014 1_645
Mn4 O8 2.250238 1_555
Mn5 O15 1.945104 1_555
Mn5 O12 1.945182 1_655
Mn5 O9 1.999985 1_555
Mn5 O10 2.000048 1_655
Mn5 O13 2.239986 1_555
Mn5 O14 2.240880 1_655
Mn6 O5 1.809696 1_465
Mn6 O23 1.952459 1_455
Mn6 O22 1.965031 1_555
Mn6 O0 1.999294 1_564
Mn6 O1 2.034566 1_464
Mn6 O18 2.038186 1_554
Mn7 O6 1.809880 1_655
Mn7 O20 1.952655 1_655
Mn7 O21 1.965089 1_555
Mn7 O3 1.999118 1_555
Mn7 O2 2.034483 1_655
Mn7 O17 2.038111 1_555
Mn8 O17 1.931607 1_555
Mn8 O11 1.936009 1_555
Mn8 O13 1.990756 1_555
Mn8 O3 2.016331 1_555
Mn8 O16 2.194918 1_555
Mn8 O10 2.250342 1_655
Mn9 O18 1.931590 1_545
Mn9 O8 1.935935 1_555
Mn9 O14 1.990530 1_555
Mn9 O0 2.016399 1_555
Mn9 O19 2.194991 1_545
Mn9 O9 2.250306 1_455
