# generated using pymatgen
data_PrErMn4Co13
_symmetry_space_group_name_H-M   'P 1'
_cell_length_a   6.34381336
_cell_length_b   6.38446774
_cell_length_c   6.38446764
_cell_angle_alpha   83.06564421
_cell_angle_beta   82.60617607
_cell_angle_gamma   82.60618571
_symmetry_Int_Tables_number   1
_chemical_formula_structural   PrErMn4Co13
_chemical_formula_sum   'Pr1 Er1 Mn4 Co13'
_cell_volume   252.86988191
_cell_formula_units_Z   1
loop_
 _symmetry_equiv_pos_site_id
 _symmetry_equiv_pos_as_xyz
  1  'x, y, z'
loop_
 _atom_site_type_symbol
 _atom_site_label
 _atom_site_symmetry_multiplicity
 _atom_site_fract_x
 _atom_site_fract_y
 _atom_site_fract_z
 _atom_site_occupancy
  Pr  Pr0  1  0.34526700  0.34880600  0.34880600  1
  Er  Er0  1  0.65762400  0.65372800  0.65372800  1
  Mn  Mn0  1  0.89211000  0.89911500  0.89911500  1
  Mn  Mn1  1  0.10621300  0.09904900  0.09904900  1
  Mn  Mn2  1  0.99823200  0.99846900  0.50029700  1
  Mn  Mn3  1  0.99823200  0.50029700  0.99846900  1
  Co  Co0  1  0.28912800  0.71394100  0.99796200  1
  Co  Co1  1  0.71109400  0.99899200  0.28613400  1
  Co  Co2  1  0.99861300  0.28445700  0.71577200  1
  Co  Co3  1  0.28912800  0.99796200  0.71394100  1
  Co  Co4  1  0.99861300  0.71577200  0.28445700  1
  Co  Co5  1  0.71109400  0.28613400  0.99899200  1
  Co  Co6  1  0.34772600  0.34761500  0.84531800  1
  Co  Co7  1  0.34772600  0.84531800  0.34761500  1
  Co  Co8  1  0.84410300  0.34508100  0.34508100  1
  Co  Co9  1  0.65460700  0.65503200  0.15405100  1
  Co  Co10  1  0.65460700  0.15405100  0.65503200  1
  Co  Co11  1  0.15507100  0.65777400  0.65777400  1
  Co  Co12  1  0.50081000  0.99840500  0.99840500  1
loop_
_geom_bond_atom_site_label_1
_geom_bond_atom_site_label_2
_geom_bond_distance
_geom_bond_site_symmetry_2
Er0 Mn0 2.985619 1_555
Er0 Mn2 3.260587 1_555
Er0 Mn3 3.260587 1_555
Mn0 Mn1 2.527734 1_666
Mn0 Mn2 2.572479 1_555
Mn0 Mn3 2.572480 1_555
Mn1 Mn2 2.590083 1_445
Mn1 Mn3 2.590083 1_454
Mn1 Pr0 3.040365 1_555
Co0 Co12 2.394084 1_555
Co0 Co3 2.404644 1_555
Co0 Co4 2.423707 1_456
Co0 Mn3 2.431301 1_455
Co0 Co11 2.512172 1_555
Co0 Co7 2.563408 1_556
Co0 Co9 2.605740 1_556
Co0 Co6 2.606005 1_555
Co0 Mn1 2.695248 1_566
Co0 Mn0 2.757157 1_455
Co0 Er0 3.015460 1_555
Co0 Pr0 3.051139 1_556
Co1 Co4 2.397369 1_555
Co1 Co12 2.405785 1_554
Co1 Mn2 2.413706 1_555
Co1 Co5 2.431068 1_564
Co1 Co9 2.527730 1_555
Co1 Co8 2.549176 1_565
Co1 Co7 2.585840 1_555
Co1 Co10 2.628682 1_565
Co1 Mn0 2.700440 1_554
Co1 Mn1 2.752256 1_665
Co1 Pr0 3.029302 1_565
Co1 Er0 3.036511 1_555
Co2 Co5 2.397369 1_555
Co2 Mn3 2.398976 1_555
Co2 Mn2 2.415552 1_545
Co2 Co3 2.423707 1_645
Co2 Co6 2.556055 1_655
Co2 Co8 2.643841 1_555
Co2 Mn1 2.716169 1_656
Co2 Mn0 2.721794 1_545
Co2 Er0 3.012795 1_555
Co2 Pr0 3.027871 1_655
Co3 Mn2 2.431301 1_455
Co3 Co6 2.563408 1_565
Co3 Co7 2.606005 1_555
Co3 Mn1 2.695248 1_566
Co3 Mn0 2.757156 1_455
Co3 Er0 3.015460 1_555
Co3 Pr0 3.051138 1_565
Co4 Mn2 2.398977 1_555
Co4 Mn3 2.415552 1_554
Co4 Co9 2.523777 1_555
Co4 Co7 2.556055 1_655
Co4 Co8 2.643840 1_555
Co4 Mn1 2.716168 1_665
Co4 Mn0 2.721794 1_554
Co4 Er0 3.012795 1_555
Co4 Pr0 3.027871 1_655
Co5 Mn3 2.413706 1_555
Co5 Co8 2.549176 1_556
Co5 Co6 2.585840 1_555
Co5 Co9 2.628682 1_556
Co5 Mn0 2.700440 1_545
Co5 Mn1 2.752257 1_656
Co5 Pr0 3.029302 1_556
Co5 Er0 3.036511 1_555
Co6 Mn3 2.436774 1_455
Co6 Mn1 2.618446 1_556
Co6 Er0 2.995563 1_555
Co6 Pr0 3.171097 1_555
Co6 Pr0 3.213455 1_556
Co7 Co9 2.434692 1_555
Co7 Mn2 2.436774 1_455
Co7 Mn1 2.618447 1_565
Co7 Er0 2.995563 1_555
Co7 Pr0 3.171097 1_555
Co7 Pr0 3.213455 1_565
Co8 Mn3 2.449100 1_554
Co8 Mn2 2.449100 1_545
Co8 Co9 2.455779 1_555
Co8 Mn1 2.636448 1_655
Co8 Er0 2.983828 1_555
Co8 Pr0 3.158596 1_555
Co8 Pr0 3.185605 1_655
Co9 Mn3 2.416593 1_554
Co9 Mn0 2.590049 1_554
Co9 Pr0 2.998649 1_555
Co9 Er0 3.191691 1_555
Co9 Er0 3.192900 1_554
Co10 Mn2 2.416593 1_545
Co10 Co12 2.432770 1_545
Co10 Co6 2.434692 1_555
Co10 Co8 2.455779 1_555
Co10 Co2 2.523777 1_555
Co10 Co5 2.527730 1_555
Co10 Mn0 2.590049 1_545
Co10 Co3 2.605740 1_545
Co10 Pr0 2.998649 1_555
Co10 Er0 3.191691 1_555
Co10 Er0 3.192900 1_545
Co11 Mn3 2.429913 1_455
Co11 Mn2 2.429913 1_455
Co11 Co7 2.455568 1_555
Co11 Co6 2.455568 1_555
Co11 Co3 2.512172 1_555
Co11 Mn0 2.604095 1_455
Co11 Co2 2.665362 1_455
Co11 Co4 2.665362 1_455
Co11 Pr0 2.992072 1_555
Co11 Er0 3.162589 1_455
Co11 Er0 3.181682 1_555
Co12 Co3 2.394084 1_555
Co12 Co5 2.405785 1_565
Co12 Co9 2.432770 1_556
Co12 Co7 2.455604 1_556
Co12 Co6 2.455605 1_565
Co12 Mn0 2.500539 1_555
Co12 Mn1 2.522646 1_566
Co12 Er0 3.273707 1_555
Co12 Pr0 3.324945 1_566
