# generated using pymatgen
data_LiZnP2HO7
_symmetry_space_group_name_H-M   'P 1'
_cell_length_a   5.09930700
_cell_length_b   13.59292100
_cell_length_c   16.27862400
_cell_angle_alpha   90.00000000
_cell_angle_beta   90.00000000
_cell_angle_gamma   90.00000000
_symmetry_Int_Tables_number   1
_chemical_formula_structural   LiZnP2HO7
_chemical_formula_sum   'Li8 Zn8 P16 H8 O56'
_cell_volume   1128.34431219
_cell_formula_units_Z   8
loop_
 _symmetry_equiv_pos_site_id
 _symmetry_equiv_pos_as_xyz
  1  'x, y, z'
loop_
 _atom_site_type_symbol
 _atom_site_label
 _atom_site_symmetry_multiplicity
 _atom_site_fract_x
 _atom_site_fract_y
 _atom_site_fract_z
 _atom_site_occupancy
  Li  Li0  1  0.70443500  0.24078100  0.84811900  1
  Li  Li1  1  0.29556500  0.75921900  0.34811900  1
  Li  Li2  1  0.29556500  0.74078100  0.84811900  1
  Li  Li3  1  0.70443500  0.25921900  0.34811900  1
  Li  Li4  1  0.08348100  0.55276000  0.58641400  1
  Li  Li5  1  0.91651900  0.44724000  0.08641400  1
  Li  Li6  1  0.91651900  0.05276000  0.58641400  1
  Li  Li7  1  0.08348100  0.94724000  0.08641400  1
  Zn  Zn0  1  0.08126600  0.55349900  0.92260300  1
  Zn  Zn1  1  0.91873400  0.44650100  0.42260300  1
  Zn  Zn2  1  0.91873400  0.05349900  0.92260300  1
  Zn  Zn3  1  0.08126600  0.94650100  0.42260300  1
  Zn  Zn4  1  0.68783600  0.24059300  0.66584800  1
  Zn  Zn5  1  0.31216400  0.75940700  0.16584800  1
  Zn  Zn6  1  0.31216400  0.74059300  0.66584800  1
  Zn  Zn7  1  0.68783600  0.25940700  0.16584800  1
  P  P0  1  0.41559800  0.35036900  0.51386400  1
  P  P1  1  0.58440200  0.64963100  0.01386400  1
  P  P2  1  0.58440200  0.85036900  0.51386400  1
  P  P3  1  0.41559800  0.14963100  0.01386400  1
  P  P4  1  0.02401900  0.56420700  0.25736600  1
  P  P5  1  0.97598100  0.43579300  0.75736600  1
  P  P6  1  0.97598100  0.06420700  0.25736600  1
  P  P7  1  0.02401900  0.93579300  0.75736600  1
  P  P8  1  0.41140400  0.14003200  0.50112000  1
  P  P9  1  0.58859600  0.85996800  0.00112000  1
  P  P10  1  0.58859600  0.64003200  0.50112000  1
  P  P11  1  0.41140400  0.35996800  0.00112000  1
  P  P12  1  0.17996300  0.14169600  0.75437000  1
  P  P13  1  0.82003700  0.85830400  0.25437000  1
  P  P14  1  0.82003700  0.64169600  0.75437000  1
  P  P15  1  0.17996300  0.35830400  0.25437000  1
  H  H0  1  0.29139800  0.40692600  0.65867500  1
  H  H1  1  0.70860200  0.59307400  0.15867500  1
  H  H2  1  0.70860200  0.90692600  0.65867500  1
  H  H3  1  0.29139800  0.09307400  0.15867500  1
  H  H4  1  0.43084800  0.39925800  0.87316600  1
  H  H5  1  0.56915200  0.60074200  0.37316600  1
  H  H6  1  0.56915200  0.89925800  0.87316600  1
  H  H7  1  0.43084800  0.10074200  0.37316600  1
  O  O0  1  0.14714300  0.45213800  0.83320600  1
  O  O1  1  0.85285700  0.54786200  0.33320600  1
  O  O2  1  0.85285700  0.95213800  0.83320600  1
  O  O3  1  0.14714300  0.04786200  0.33320600  1
  O  O4  1  0.17159600  0.83956200  0.75645000  1
  O  O5  1  0.82840400  0.16043800  0.25645000  1
  O  O6  1  0.82840400  0.33956200  0.75645000  1
  O  O7  1  0.17159600  0.66043800  0.25645000  1
  O  O8  1  0.50932700  0.35154800  0.60436200  1
  O  O9  1  0.49067300  0.64845200  0.10436200  1
  O  O10  1  0.49067300  0.85154800  0.60436200  1
  O  O11  1  0.50932700  0.14845200  0.10436200  1
  O  O12  1  0.02662600  0.15786700  0.83380900  1
  O  O13  1  0.97337400  0.84213300  0.33380900  1
  O  O14  1  0.97337400  0.65786700  0.83380900  1
  O  O15  1  0.02662600  0.34213300  0.33380900  1
  O  O16  1  0.63554200  0.14994500  0.95009500  1
  O  O17  1  0.36445800  0.85005500  0.45009500  1
  O  O18  1  0.36445800  0.64994500  0.95009500  1
  O  O19  1  0.63554200  0.35005500  0.45009500  1
  O  O20  1  0.02629100  0.16371300  0.67526300  1
  O  O21  1  0.97370900  0.83628700  0.17526300  1
  O  O22  1  0.97370900  0.66371300  0.67526300  1
  O  O23  1  0.02629100  0.33628700  0.17526300  1
  O  O24  1  0.55314300  0.36712600  0.91344600  1
  O  O25  1  0.44685700  0.63287400  0.41344600  1
  O  O26  1  0.44685700  0.86712600  0.91344600  1
  O  O27  1  0.55314300  0.13287400  0.41344600  1
  O  O28  1  0.26429500  0.24518700  0.50018300  1
  O  O29  1  0.73570500  0.75481300  0.00018300  1
  O  O30  1  0.73570500  0.74518700  0.50018300  1
  O  O31  1  0.26429500  0.25481300  0.00018300  1
  O  O32  1  0.20988300  0.43028000  0.50195200  1
  O  O33  1  0.79011700  0.56972000  0.00195200  1
  O  O34  1  0.79011700  0.93028000  0.50195200  1
  O  O35  1  0.20988300  0.06972000  0.00195200  1
  O  O36  1  0.14233900  0.45244600  0.67644000  1
  O  O37  1  0.85766100  0.54755400  0.17644000  1
  O  O38  1  0.85766100  0.95244600  0.67644000  1
  O  O39  1  0.14233900  0.04755400  0.17644000  1
  O  O40  1  0.23835200  0.02196700  0.75063900  1
  O  O41  1  0.76164800  0.97803300  0.25063900  1
  O  O42  1  0.76164800  0.52196700  0.75063900  1
  O  O43  1  0.23835200  0.47803300  0.25063900  1
  O  O44  1  0.45170300  0.18935600  0.75625200  1
  O  O45  1  0.54829700  0.81064400  0.25625200  1
  O  O46  1  0.54829700  0.68935600  0.75625200  1
  O  O47  1  0.45170300  0.31064400  0.25625200  1
  O  O48  1  0.20353500  0.06109500  0.50743100  1
  O  O49  1  0.79646500  0.93890500  0.00743100  1
  O  O50  1  0.79646500  0.56109500  0.50743100  1
  O  O51  1  0.20353500  0.43890500  0.00743100  1
  O  O52  1  0.62158700  0.14268000  0.56671800  1
  O  O53  1  0.37841300  0.85732000  0.06671800  1
  O  O54  1  0.37841300  0.64268000  0.56671800  1
  O  O55  1  0.62158700  0.35732000  0.06671800  1
loop_
_geom_bond_atom_site_label_1
_geom_bond_atom_site_label_2
_geom_bond_distance
_geom_bond_site_symmetry_2
Li0 O12 2.005936 1_655
Li0 O44 2.094265 1_555
Li0 O16 2.098490 1_555
Li0 O6 2.104595 1_555
Li0 O24 2.162298 1_555
Li1 O13 2.005936 1_455
Li1 O45 2.094265 1_555
Li1 O17 2.098490 1_555
Li1 O7 2.104595 1_555
Li1 O25 2.162298 1_555
Li2 O14 2.005936 1_455
Li2 O46 2.094265 1_555
Li2 O18 2.098490 1_555
Li2 O4 2.104595 1_555
Li2 O26 2.162298 1_555
Li3 O15 2.005936 1_655
Li3 O47 2.094265 1_555
Li3 O19 2.098490 1_555
Li3 O5 2.104595 1_555
Li3 O27 2.162298 1_555
Li4 O50 1.951416 1_455
Li4 O54 1.964337 1_555
Li4 O36 2.024121 1_555
Li4 O22 2.163290 1_455
Li4 O32 2.253362 1_555
Li5 O51 1.951416 1_655
Li5 O55 1.964337 1_555
Li5 O37 2.024121 1_555
Li5 O23 2.163290 1_655
Li5 O33 2.253362 1_555
Li6 O48 1.951416 1_655
Li6 O52 1.964337 1_555
Li6 O38 2.024121 1_545
Li6 O20 2.163290 1_655
Li6 O34 2.253362 1_545
Li7 O49 1.951416 1_455
Li7 O53 1.964337 1_555
Li7 O39 2.024121 1_565
Li7 O21 2.163290 1_455
Li7 O35 2.253362 1_565
H0 O36 1.021876 1_555
H0 O8 1.607263 1_555
H1 O37 1.021876 1_555
H1 O9 1.607263 1_555
H2 O38 1.021876 1_555
H2 O10 1.607263 1_555
H3 O39 1.021876 1_555
H3 O11 1.607263 1_555
H4 O24 1.004796 1_555
H4 O0 1.741478 1_555
H5 O25 1.004796 1_555
H5 O1 1.741478 1_555
H6 O26 1.004796 1_555
H6 O2 1.741478 1_555
H7 O27 1.004796 1_555
H7 O3 1.741478 1_555
O0 P5 1.528176 1_455
O0 Zn0 2.031979 1_555
O1 P4 1.528176 1_655
O1 Zn1 2.031979 1_555
O2 P7 1.528176 1_655
O2 Zn2 2.031979 1_565
O3 P6 1.528176 1_455
O3 Zn3 2.031979 1_545
O4 P7 1.509159 1_555
O4 Zn6 2.121045 1_555
O5 P6 1.509159 1_555
O5 Zn7 2.121045 1_555
O6 P5 1.509159 1_555
O6 Zn4 2.121045 1_555
O7 P4 1.509159 1_555
O7 Zn5 2.121045 1_555
O8 P0 1.548859 1_555
O8 Zn4 2.026101 1_555
O9 P1 1.548859 1_555
O9 Zn5 2.026101 1_555
O10 P2 1.548859 1_555
O10 Zn6 2.026101 1_555
O11 P3 1.548859 1_555
O11 Zn7 2.026101 1_555
O12 P12 1.527076 1_555
O12 Zn2 2.098717 1_455
O13 P13 1.527076 1_555
O13 Zn3 2.098717 1_655
O14 P14 1.527076 1_555
O14 Zn0 2.098717 1_655
O15 P15 1.527076 1_555
O15 Zn1 2.098717 1_455
O16 P3 1.528238 1_556
O16 Zn2 2.001084 1_555
O17 P2 1.528238 1_555
O17 Zn3 2.001084 1_555
O18 P1 1.528238 1_556
O18 Zn0 2.001084 1_555
O19 P0 1.528238 1_555
O19 Zn1 2.001084 1_555
O20 P12 1.536859 1_555
O20 Zn4 2.023424 1_455
O21 P13 1.536859 1_555
O21 Zn5 2.023424 1_655
O22 P14 1.536859 1_555
O22 Zn6 2.023424 1_655
O23 P15 1.536859 1_555
O23 Zn7 2.023424 1_455
O24 P11 1.602747 1_556
O25 P10 1.602747 1_555
O26 P9 1.602747 1_556
O27 P8 1.602747 1_555
O28 P8 1.614325 1_555
O28 P0 1.639818 1_555
O29 P9 1.614325 1_555
O29 P1 1.639818 1_555
O30 P10 1.614325 1_555
O30 P2 1.639818 1_555
O31 P11 1.614325 1_555
O31 P3 1.639818 1_555
O32 P0 1.522463 1_555
O32 Zn1 1.980226 1_455
O33 P1 1.522463 1_555
O33 Zn0 1.980226 1_654
O34 P2 1.522463 1_555
O34 Zn3 1.980226 1_655
O35 P3 1.522463 1_555
O35 Zn2 1.980226 1_454
O36 P5 1.583136 1_455
O37 P4 1.583136 1_655
O38 P7 1.583136 1_655
O39 P6 1.583136 1_455
O40 P7 1.605804 1_545
O40 P12 1.655593 1_555
O41 P6 1.605804 1_565
O41 P13 1.655593 1_555
O42 P5 1.605804 1_555
O42 P14 1.655593 1_555
O43 P4 1.605804 1_555
O43 P15 1.655593 1_555
O44 P12 1.529954 1_555
O44 Zn4 2.025021 1_555
O45 P13 1.529954 1_555
O45 Zn5 2.025021 1_555
O46 P14 1.529954 1_555
O46 Zn6 2.025021 1_555
O47 P15 1.529954 1_555
O47 Zn7 2.025021 1_555
O48 P8 1.511762 1_555
O48 Zn3 2.172994 1_545
O49 P9 1.511762 1_555
O49 Zn2 2.172994 1_564
O50 P10 1.511762 1_555
O50 Zn1 2.172994 1_555
O51 P11 1.511762 1_555
O51 Zn0 2.172994 1_554
O52 P8 1.513380 1_555
O52 Zn4 2.118847 1_555
O53 P9 1.513380 1_555
O53 Zn5 2.118847 1_555
O54 P10 1.513380 1_555
O54 Zn6 2.118847 1_555
O55 P11 1.513380 1_555
O55 Zn7 2.118847 1_555
