# generated using pymatgen
data_Ni6SnSb
_symmetry_space_group_name_H-M   'P 1'
_cell_length_a   4.23675480
_cell_length_b   4.48066139
_cell_length_c   5.27442937
_cell_angle_alpha   90.00000000
_cell_angle_beta   90.00000000
_cell_angle_gamma   90.00000000
_symmetry_Int_Tables_number   1
_chemical_formula_structural   Ni6SnSb
_chemical_formula_sum   'Ni6 Sn1 Sb1'
_cell_volume   100.12693823
_cell_formula_units_Z   1
loop_
 _symmetry_equiv_pos_site_id
 _symmetry_equiv_pos_as_xyz
  1  'x, y, z'
loop_
 _atom_site_type_symbol
 _atom_site_label
 _atom_site_symmetry_multiplicity
 _atom_site_fract_x
 _atom_site_fract_y
 _atom_site_fract_z
 _atom_site_occupancy
  Ni  Ni0  1  0.50000000  0.17056046  0.74728253  1
  Ni  Ni1  1  0.50000000  0.17056046  0.25271747  1
  Ni  Ni2  1  0.00000000  0.82789579  0.74786103  1
  Ni  Ni3  1  -0.00000000  0.82789579  0.25213897  1
  Ni  Ni4  1  0.00000000  0.31117649  0.50000000  1
  Ni  Ni5  1  0.50000000  0.69348783  -0.00000000  1
  Sn  Sn0  1  0.00000000  0.32390767  -0.00000000  1
  Sb  Sb0  1  0.50000000  0.67451452  0.50000000  1
loop_
_geom_bond_atom_site_label_1
_geom_bond_atom_site_label_2
_geom_bond_distance
_geom_bond_site_symmetry_2
Ni0 Ni5 2.519140 1_546
Ni0 Ni4 2.566246 1_655
Ni0 Ni4 2.566246 1_555
Ni0 Sb0 2.577042 1_545
Ni0 Sn0 2.595449 1_656
Ni0 Sn0 2.595449 1_556
Ni0 Sb0 2.607664 1_555
Ni0 Ni1 2.608548 1_555
Ni0 Ni2 2.616271 1_545
Ni0 Ni2 2.616271 1_645
Ni0 Ni1 2.665881 1_556
Ni0 Ni5 2.695675 1_556
Ni1 Ni5 2.519140 1_545
Ni1 Ni4 2.566246 1_655
Ni1 Ni4 2.566246 1_555
Ni1 Sb0 2.577042 1_545
Ni1 Sn0 2.595449 1_555
Ni1 Sn0 2.595449 1_655
Ni1 Sb0 2.607664 1_555
Ni1 Ni3 2.616271 1_545
Ni1 Ni3 2.616271 1_645
Ni1 Ni5 2.695675 1_555
Ni2 Ni4 2.529453 1_565
Ni2 Ni5 2.572706 1_456
Ni2 Ni5 2.572706 1_556
Ni2 Sb0 2.582428 1_455
Ni2 Sb0 2.582428 1_555
Ni2 Sn0 2.589969 1_566
Ni2 Ni3 2.614651 1_555
Ni2 Sn0 2.620701 1_556
Ni2 Ni4 2.658845 1_555
Ni2 Ni3 2.659778 1_556
Ni3 Ni4 2.529453 1_565
Ni3 Ni5 2.572706 1_455
Ni3 Ni5 2.572706 1_555
Ni3 Sb0 2.582428 1_455
Ni3 Sb0 2.582428 1_555
Ni3 Sn0 2.589969 1_565
Ni3 Sn0 2.620701 1_555
Ni3 Ni4 2.658845 1_555
Ni4 Sn0 2.637832 1_555
Ni4 Sn0 2.637832 1_556
Ni4 Sb0 2.671683 1_555
Ni4 Sb0 2.671683 1_455
Ni5 Sb0 2.638585 1_555
Ni5 Sb0 2.638585 1_554
Ni5 Sn0 2.688817 1_555
Ni5 Sn0 2.688817 1_655
