# generated using pymatgen
data_La(Sn2Rh)2
_symmetry_space_group_name_H-M   'P 1'
_cell_length_a   4.59281100
_cell_length_b   7.21732500
_cell_length_c   18.72251900
_cell_angle_alpha   90.00000000
_cell_angle_beta   90.00000000
_cell_angle_gamma   90.00000000
_symmetry_Int_Tables_number   1
_chemical_formula_structural   La(Sn2Rh)2
_chemical_formula_sum   'La4 Sn16 Rh8'
_cell_volume   620.61049599
_cell_formula_units_Z   4
loop_
 _symmetry_equiv_pos_site_id
 _symmetry_equiv_pos_as_xyz
  1  'x, y, z'
loop_
 _atom_site_type_symbol
 _atom_site_label
 _atom_site_symmetry_multiplicity
 _atom_site_fract_x
 _atom_site_fract_y
 _atom_site_fract_z
 _atom_site_occupancy
  La  La0  1  0.25000000  0.99841300  0.85809600  1
  La  La1  1  0.25000000  0.50158700  0.35809600  1
  La  La2  1  0.75000000  0.00158700  0.14190400  1
  La  La3  1  0.75000000  0.49841300  0.64190400  1
  Sn  Sn0  1  0.25000000  0.30451800  0.18207600  1
  Sn  Sn1  1  0.25000000  0.19548200  0.68207600  1
  Sn  Sn2  1  0.75000000  0.69548200  0.81792400  1
  Sn  Sn3  1  0.75000000  0.80451800  0.31792400  1
  Sn  Sn4  1  0.25000000  0.72082600  0.19433200  1
  Sn  Sn5  1  0.25000000  0.77917400  0.69433200  1
  Sn  Sn6  1  0.75000000  0.27917400  0.80566800  1
  Sn  Sn7  1  0.75000000  0.22082600  0.30566800  1
  Sn  Sn8  1  0.25000000  0.86168000  0.03093500  1
  Sn  Sn9  1  0.25000000  0.63832000  0.53093500  1
  Sn  Sn10  1  0.75000000  0.13832000  0.96906500  1
  Sn  Sn11  1  0.75000000  0.36168000  0.46906500  1
  Sn  Sn12  1  0.25000000  0.51552200  0.93171700  1
  Sn  Sn13  1  0.25000000  0.98447800  0.43171700  1
  Sn  Sn14  1  0.75000000  0.48447800  0.06828300  1
  Sn  Sn15  1  0.75000000  0.01552200  0.56828300  1
  Rh  Rh0  1  0.25000000  0.24938000  0.03470500  1
  Rh  Rh1  1  0.25000000  0.25062000  0.53470500  1
  Rh  Rh2  1  0.75000000  0.75062000  0.96529500  1
  Rh  Rh3  1  0.75000000  0.74938000  0.46529500  1
  Rh  Rh4  1  0.25000000  0.01817000  0.28647000  1
  Rh  Rh5  1  0.25000000  0.48183000  0.78647000  1
  Rh  Rh6  1  0.75000000  0.98183000  0.71353000  1
  Rh  Rh7  1  0.75000000  0.51817000  0.21353000  1
loop_
_geom_bond_atom_site_label_1
_geom_bond_atom_site_label_2
_geom_bond_distance
_geom_bond_site_symmetry_2
La0 Sn6 3.216062 1_565
La0 Sn6 3.216062 1_465
La0 Sn10 3.257236 1_465
La0 Sn10 3.257236 1_565
La0 Sn2 3.258726 1_555
La0 Sn2 3.258726 1_455
La0 Sn8 3.383111 1_556
La1 Sn7 3.216062 1_555
La1 Sn7 3.216062 1_455
La1 Sn11 3.257236 1_455
La1 Sn11 3.257236 1_555
La1 Sn3 3.258726 1_455
La1 Sn3 3.258726 1_555
La1 Sn9 3.383111 1_555
La2 Sn4 3.216062 1_645
La2 Sn4 3.216062 1_545
La2 Sn8 3.257236 1_645
La2 Sn8 3.257236 1_545
La2 Sn0 3.258726 1_655
La2 Sn0 3.258726 1_555
La2 Sn10 3.383111 1_554
La3 Sn5 3.216062 1_655
La3 Sn5 3.216062 1_555
La3 Sn9 3.257236 1_655
La3 Sn9 3.257236 1_555
La3 Sn1 3.258726 1_655
La3 Sn1 3.258726 1_555
La3 Sn11 3.383111 1_555
Rh0 Sn12 2.721679 1_554
Rh0 Sn10 2.725120 1_554
Rh0 Sn10 2.725120 1_454
Rh0 Sn0 2.787706 1_555
Rh0 Sn8 2.799047 1_545
Rh0 Sn14 2.923654 1_455
Rh0 Sn14 2.923654 1_555
Rh1 Sn13 2.721679 1_545
Rh1 Sn11 2.725120 1_455
Rh1 Sn11 2.725120 1_555
Rh1 Sn1 2.787706 1_555
Rh1 Sn9 2.799047 1_555
Rh1 Sn15 2.923654 1_455
Rh1 Sn15 2.923654 1_555
Rh2 Sn14 2.721679 1_556
Rh2 Sn8 2.725120 1_556
Rh2 Sn8 2.725120 1_656
Rh2 Sn2 2.787706 1_555
Rh2 Sn10 2.799047 1_565
Rh2 Sn12 2.923654 1_555
Rh2 Sn12 2.923654 1_655
Rh3 Sn15 2.721679 1_565
Rh3 Sn9 2.725120 1_555
Rh3 Sn9 2.725120 1_655
Rh3 Sn3 2.787706 1_555
Rh3 Sn11 2.799047 1_555
Rh3 Sn13 2.923654 1_655
Rh3 Sn13 2.923654 1_555
Rh4 Sn13 2.730240 1_545
Rh4 Sn7 2.746265 1_455
Rh4 Sn7 2.746265 1_555
Rh4 Sn4 2.753408 1_545
Rh4 Sn3 2.828079 1_545
Rh4 Sn3 2.828079 1_445
Rh4 Sn0 2.844513 1_555
Rh5 Sn12 2.730240 1_555
Rh5 Sn6 2.746265 1_555
Rh5 Sn6 2.746265 1_455
Rh5 Sn5 2.753408 1_555
Rh5 Sn2 2.828079 1_455
Rh5 Sn2 2.828079 1_555
Rh5 Sn1 2.844513 1_555
Rh6 Sn15 2.730240 1_565
Rh6 Sn5 2.746265 1_655
Rh6 Sn5 2.746265 1_555
Rh6 Sn6 2.753408 1_565
Rh6 Sn1 2.828079 1_565
Rh6 Sn1 2.828079 1_665
Rh6 Sn2 2.844513 1_555
Rh7 Sn14 2.730240 1_555
Rh7 Sn4 2.746265 1_555
Rh7 Sn4 2.746265 1_655
Rh7 Sn7 2.753408 1_555
Rh7 Sn0 2.828079 1_655
Rh7 Sn0 2.828079 1_555
Rh7 Sn3 2.844513 1_555
