# generated using pymatgen
data_Na2Si3O7
_symmetry_space_group_name_H-M   'P 1'
_cell_length_a   5.12904577
_cell_length_b   5.12904577
_cell_length_c   11.70504039
_cell_angle_alpha   79.27226270
_cell_angle_beta   79.27226270
_cell_angle_gamma   57.13681412
_symmetry_Int_Tables_number   1
_chemical_formula_structural   Na2Si3O7
_chemical_formula_sum   'Na4 Si6 O14'
_cell_volume   252.77181009
_cell_formula_units_Z   2
loop_
 _symmetry_equiv_pos_site_id
 _symmetry_equiv_pos_as_xyz
  1  'x, y, z'
loop_
 _atom_site_type_symbol
 _atom_site_label
 _atom_site_symmetry_multiplicity
 _atom_site_fract_x
 _atom_site_fract_y
 _atom_site_fract_z
 _atom_site_occupancy
  Na  Na0  1  0.14732800  0.56015500  0.68193300  1
  Na  Na1  1  0.43984500  0.85267200  0.81806700  1
  Na  Na2  1  0.85267200  0.43984500  0.31806700  1
  Na  Na3  1  0.56015500  0.14732800  0.18193300  1
  Si  Si0  1  0.00000000  0.50000000  0.00000000  1
  Si  Si1  1  0.50000000  0.00000000  0.50000000  1
  Si  Si2  1  0.82705100  0.25926300  0.61518200  1
  Si  Si3  1  0.74073700  0.17294900  0.88481800  1
  Si  Si4  1  0.17294900  0.74073700  0.38481800  1
  Si  Si5  1  0.25926300  0.82705100  0.11518200  1
  O  O0  1  0.64770400  0.35229600  0.75000000  1
  O  O1  1  0.35229600  0.64770400  0.25000000  1
  O  O2  1  0.99025300  0.25562400  0.91087000  1
  O  O3  1  0.74437600  0.00974700  0.58913000  1
  O  O4  1  0.00974700  0.74437600  0.08913000  1
  O  O5  1  0.25562400  0.99025300  0.41087000  1
  O  O6  1  0.68077300  0.58952100  0.53660000  1
  O  O7  1  0.41047900  0.31922700  0.96340000  1
  O  O8  1  0.31922700  0.41047900  0.46340000  1
  O  O9  1  0.58952100  0.68077300  0.03660000  1
  O  O10  1  0.07858300  0.20325200  0.12727300  1
  O  O11  1  0.79674800  0.92141700  0.37272700  1
  O  O12  1  0.92141700  0.79674800  0.87272700  1
  O  O13  1  0.20325200  0.07858300  0.62727300  1
loop_
_geom_bond_atom_site_label_1
_geom_bond_atom_site_label_2
_geom_bond_distance
_geom_bond_site_symmetry_2
Na0 O3 2.345201 1_465
Na0 O0 2.415288 1_555
Na0 O12 2.514390 1_455
Na0 O13 2.518659 1_555
Na0 O8 2.658315 1_555
Na0 O13 2.772759 1_565
Na1 O2 2.345201 1_465
Na1 O0 2.415288 1_555
Na1 O13 2.514390 1_565
Na1 O12 2.518659 1_555
Na1 O9 2.658315 1_556
Na1 O12 2.772759 1_455
Na2 O5 2.345201 1_645
Na2 O1 2.415288 1_555
Na2 O10 2.514390 1_655
Na2 O11 2.518659 1_555
Na2 O6 2.658315 1_555
Na2 O11 2.772759 1_545
Na3 O4 2.345201 1_645
Na3 O1 2.415288 1_555
Na3 O11 2.514390 1_545
Na3 O10 2.518659 1_555
Na3 O7 2.658315 1_554
Na3 O10 2.772759 1_655
O0 Si3 1.681565 1_555
O0 Si2 1.681565 1_555
O1 Si5 1.681565 1_555
O1 Si4 1.681565 1_555
O2 Si3 1.641042 1_555
O2 Si0 1.798945 1_656
O3 Si2 1.641042 1_555
O3 Si1 1.798945 1_555
O4 Si5 1.641042 1_555
O4 Si0 1.798945 1_555
O5 Si4 1.641042 1_555
O5 Si1 1.798945 1_565
O6 Si2 1.604957 1_555
O6 Si1 1.780265 1_565
O7 Si3 1.604957 1_555
O7 Si0 1.780265 1_556
O8 Si4 1.604957 1_555
O8 Si1 1.780265 1_555
O9 Si5 1.604957 1_555
O9 Si0 1.780265 1_655
O10 Si5 1.647489 1_545
O10 Si0 1.847157 1_555
O11 Si4 1.647489 1_655
O11 Si1 1.847157 1_565
O12 Si3 1.647489 1_565
O12 Si0 1.847157 1_656
O13 Si2 1.647489 1_455
O13 Si1 1.847157 1_555
