# generated using pymatgen
data_Pr25(B7C13)2
_symmetry_space_group_name_H-M   'P 1'
_cell_length_a   8.57004264
_cell_length_b   8.60048151
_cell_length_c   29.66237901
_cell_angle_alpha   90.13212230
_cell_angle_beta   90.00000000
_cell_angle_gamma   90.00000000
_symmetry_Int_Tables_number   1
_chemical_formula_structural   Pr25(B7C13)2
_chemical_formula_sum   'Pr50 B28 C52'
_cell_volume   2186.30412602
_cell_formula_units_Z   2
loop_
 _symmetry_equiv_pos_site_id
 _symmetry_equiv_pos_as_xyz
  1  'x, y, z'
loop_
 _atom_site_type_symbol
 _atom_site_label
 _atom_site_symmetry_multiplicity
 _atom_site_fract_x
 _atom_site_fract_y
 _atom_site_fract_z
 _atom_site_occupancy
  Pr  Pr0  1  0.80913049  0.20849844  0.19687410  1
  Pr  Pr1  1  0.30913049  0.29150156  0.30312590  1
  Pr  Pr2  1  0.19086951  0.79150156  0.80312590  1
  Pr  Pr3  1  0.69086951  0.70849844  0.69687410  1
  Pr  Pr4  1  0.70760049  0.11133323  0.47870716  1
  Pr  Pr5  1  0.20760049  0.38866677  0.02129284  1
  Pr  Pr6  1  0.29239951  0.88866677  0.52129284  1
  Pr  Pr7  1  0.79239951  0.61133323  0.97870716  1
  Pr  Pr8  1  0.90102703  0.69366921  0.49725441  1
  Pr  Pr9  1  0.40102703  0.80633079  0.00274559  1
  Pr  Pr10  1  0.09897297  0.30633079  0.50274559  1
  Pr  Pr11  1  0.59897297  0.19366921  0.99725441  1
  Pr  Pr12  1  0.41119403  0.00276778  0.39294963  1
  Pr  Pr13  1  0.91119403  0.49723222  0.10705037  1
  Pr  Pr14  1  0.58880597  0.99723222  0.60705037  1
  Pr  Pr15  1  0.08880597  0.50276778  0.89294963  1
  Pr  Pr16  1  0.99870985  0.19910410  0.38615597  1
  Pr  Pr17  1  0.49870985  0.30089590  0.11384403  1
  Pr  Pr18  1  0.00129015  0.80089590  0.61384403  1
  Pr  Pr19  1  0.50129015  0.69910410  0.88615597  1
  Pr  Pr20  1  0.90843437  0.50031628  0.28980385  1
  Pr  Pr21  1  0.40843437  0.99968372  0.21019615  1
  Pr  Pr22  1  0.09156563  0.49968372  0.71019615  1
  Pr  Pr23  1  0.59156563  0.00031628  0.78980385  1
  Pr  Pr24  1  0.69619927  0.09954141  0.30635580  1
  Pr  Pr25  1  0.19619927  0.40045859  0.19364420  1
  Pr  Pr26  1  0.30380073  0.90045859  0.69364420  1
  Pr  Pr27  1  0.80380073  0.59954141  0.80635580  1
  Pr  Pr28  1  0.50364152  0.70891359  0.30103028  1
  Pr  Pr29  1  0.00364152  0.79108641  0.19896972  1
  Pr  Pr30  1  0.49635848  0.29108641  0.69896972  1
  Pr  Pr31  1  0.99635848  0.20891359  0.80103028  1
  Pr  Pr32  1  0.61956023  0.59748933  0.19465935  1
  Pr  Pr33  1  0.11956023  0.90251067  0.30534065  1
  Pr  Pr34  1  0.38043977  0.40251067  0.80534065  1
  Pr  Pr35  1  0.88043977  0.09748933  0.69465935  1
  Pr  Pr36  1  0.80221866  0.80652237  0.38551320  1
  Pr  Pr37  1  0.30221866  0.69347763  0.11448680  1
  Pr  Pr38  1  0.19778134  0.19347763  0.61448680  1
  Pr  Pr39  1  0.69778134  0.30652237  0.88551320  1
  Pr  Pr40  1  0.50000000  0.50000000  0.50000000  1
  Pr  Pr41  1  -0.00000000  0.00000000  0.00000000  1
  Pr  Pr42  1  0.61192273  0.40275604  0.38613437  1
  Pr  Pr43  1  0.11192273  0.09724396  0.11386563  1
  Pr  Pr44  1  0.38807727  0.59724396  0.61386563  1
  Pr  Pr45  1  0.88807727  0.90275604  0.88613437  1
  Pr  Pr46  1  0.70983292  0.90363852  0.11144217  1
  Pr  Pr47  1  0.20983292  0.59636148  0.38855783  1
  Pr  Pr48  1  0.29016708  0.09636148  0.88855783  1
  Pr  Pr49  1  0.79016708  0.40363852  0.61144217  1
  B  B0  1  0.52241283  0.71505067  0.42972838  1
  B  B1  1  0.02241283  0.78494933  0.07027162  1
  B  B2  1  0.47758717  0.28494933  0.57027162  1
  B  B3  1  0.97758717  0.21505067  0.92972838  1
  B  B4  1  0.88467969  0.46512636  0.42927696  1
  B  B5  1  0.38467969  0.03487364  0.07072304  1
  B  B6  1  0.11532031  0.53487364  0.57072304  1
  B  B7  1  0.61532031  0.96512636  0.92927696  1
  B  B8  1  0.58266257  0.79546188  0.47506081  1
  B  B9  1  0.08266257  0.70453812  0.02493919  1
  B  B10  1  0.41733743  0.20453812  0.52493919  1
  B  B11  1  0.91733743  0.29546188  0.97506081  1
  B  B12  1  0.06068810  0.15526799  0.25123216  1
  B  B13  1  0.56068810  0.34473201  0.24876784  1
  B  B14  1  0.93931190  0.84473201  0.74876784  1
  B  B15  1  0.43931190  0.65526799  0.75123216  1
  B  B16  1  0.24911117  0.65101912  0.25044679  1
  B  B17  1  0.74911117  0.84898088  0.24955321  1
  B  B18  1  0.75088883  0.34898088  0.74955321  1
  B  B19  1  0.25088883  0.15101912  0.75044679  1
  B  B20  1  0.07530745  0.92349657  0.43598730  1
  B  B21  1  0.57530745  0.57650343  0.06401270  1
  B  B22  1  0.92469255  0.07650343  0.56401270  1
  B  B23  1  0.42469255  0.42349657  0.93598730  1
  B  B24  1  0.33909251  0.28887995  0.43351558  1
  B  B25  1  0.83909251  0.21112005  0.06648442  1
  B  B26  1  0.66090749  0.71112005  0.56648442  1
  B  B27  1  0.16090749  0.78887995  0.93351558  1
  C  C0  1  0.80425233  0.80252731  0.29455696  1
  C  C1  1  0.30425233  0.69747269  0.20544304  1
  C  C2  1  0.19574767  0.19747269  0.70544304  1
  C  C3  1  0.69574767  0.30252731  0.79455696  1
  C  C4  1  0.91579901  0.50948898  0.38281925  1
  C  C5  1  0.41579901  0.99051102  0.11718075  1
  C  C6  1  0.08420099  0.49051102  0.61718075  1
  C  C7  1  0.58420099  0.00948898  0.88281925  1
  C  C8  1  0.10715716  0.10253398  0.20613390  1
  C  C9  1  0.60715716  0.39746602  0.29386610  1
  C  C10  1  0.89284284  0.89746602  0.79386610  1
  C  C11  1  0.39284284  0.60253398  0.70613390  1
  C  C12  1  0.50546037  0.70179471  0.38128907  1
  C  C13  1  0.00546037  0.79820529  0.11871093  1
  C  C14  1  0.49453963  0.29820529  0.61871093  1
  C  C15  1  0.99453963  0.20179471  0.88128907  1
  C  C16  1  0.01162775  0.99171950  0.47709724  1
  C  C17  1  0.51162775  0.50828050  0.02290276  1
  C  C18  1  0.98837225  0.00828050  0.52290276  1
  C  C19  1  0.48837225  0.49171950  0.97709724  1
  C  C20  1  0.70905350  0.10338729  0.38935507  1
  C  C21  1  0.20905350  0.39661271  0.11064493  1
  C  C22  1  0.29094650  0.89661271  0.61064493  1
  C  C23  1  0.79094650  0.60338729  0.88935507  1
  C  C24  1  0.30737144  0.30026209  0.38517135  1
  C  C25  1  0.80737144  0.19973791  0.11482865  1
  C  C26  1  0.69262856  0.69973791  0.61482865  1
  C  C27  1  0.19262856  0.80026209  0.88517135  1
  C  C28  1  0.00722683  0.19809314  0.29672624  1
  C  C29  1  0.50722683  0.30190686  0.20327376  1
  C  C30  1  0.99277317  0.80190686  0.70327376  1
  C  C31  1  0.49277317  0.69809314  0.79672624  1
  C  C32  1  0.10810174  0.89735472  0.38861233  1
  C  C33  1  0.60810174  0.60264528  0.11138767  1
  C  C34  1  0.89189826  0.10264528  0.61138767  1
  C  C35  1  0.39189826  0.39735472  0.88861233  1
  C  C36  1  0.60951589  0.78378571  0.52405051  1
  C  C37  1  0.10951589  0.71621429  0.97594949  1
  C  C38  1  0.39048411  0.21621429  0.47594949  1
  C  C39  1  0.89048411  0.28378571  0.02405051  1
  C  C40  1  0.90426455  0.49963362  0.19727230  1
  C  C41  1  0.40426455  0.00036638  0.30272770  1
  C  C42  1  0.09573545  0.50036638  0.80272770  1
  C  C43  1  0.59573545  0.99963362  0.69727230  1
  C  C44  1  0.20680941  0.60259782  0.29632435  1
  C  C45  1  0.70680941  0.89740218  0.20367565  1
  C  C46  1  0.79319059  0.39740218  0.70367565  1
  C  C47  1  0.29319059  0.10259782  0.79632435  1
  C  C48  1  0.82293448  0.39674342  0.47137076  1
  C  C49  1  0.32293448  0.10325658  0.02862924  1
  C  C50  1  0.17706552  0.60325658  0.52862924  1
  C  C51  1  0.67706552  0.89674342  0.97137076  1
loop_
_geom_bond_atom_site_label_1
_geom_bond_atom_site_label_2
_geom_bond_distance
_geom_bond_site_symmetry_2
B0 C12 1.448384 1_555
B0 Pr40 2.796478 1_555
B0 Pr42 3.075470 1_555
B1 C13 1.448384 1_555
B1 Pr41 2.796478 1_565
B1 Pr43 3.075470 1_565
B2 C14 1.448384 1_555
B2 Pr40 2.796478 1_555
B2 Pr44 3.075470 1_555
B3 C15 1.448384 1_555
B3 Pr41 2.796478 1_656
B3 Pr45 3.075470 1_545
B4 C4 1.455381 1_555
B4 C48 1.479289 1_555
B4 Pr42 2.717779 1_555
B4 Pr16 2.795015 1_555
B4 Pr8 2.816133 1_555
B4 Pr10 3.162405 1_655
B5 C5 1.455381 1_545
B5 C49 1.479289 1_555
B5 Pr43 2.717779 1_555
B5 Pr17 2.795015 1_555
B5 Pr9 2.816133 1_545
B5 Pr11 3.162405 1_554
B6 C6 1.455381 1_555
B6 C50 1.479289 1_555
B6 Pr44 2.717779 1_555
B6 Pr18 2.795015 1_555
B6 Pr10 2.816133 1_555
B6 Pr8 3.162405 1_455
B7 C7 1.455381 1_565
B7 C51 1.479289 1_555
B7 Pr45 2.717779 1_555
B7 Pr19 2.795015 1_555
B7 Pr11 2.816133 1_565
B7 Pr9 3.162405 1_556
B8 C36 1.474913 1_555
B8 Pr40 2.741356 1_555
B8 Pr4 2.921807 1_565
B8 Pr8 2.940515 1_555
B8 Pr6 2.950610 1_555
B9 C37 1.474913 1_554
B9 Pr41 2.741356 1_565
B9 Pr5 2.921807 1_555
B9 Pr9 2.940515 1_555
B9 Pr7 2.950610 1_454
B10 C38 1.474913 1_555
B10 Pr40 2.741356 1_555
B10 Pr6 2.921807 1_545
B10 Pr10 2.940515 1_555
B10 Pr4 2.950610 1_555
B11 C39 1.474913 1_556
B11 Pr41 2.741356 1_656
B11 Pr7 2.921807 1_555
B11 Pr11 2.940515 1_555
B11 Pr5 2.950610 1_656
B12 C8 1.466627 1_555
B12 C28 1.471166 1_555
B12 Pr0 2.731396 1_455
B12 Pr33 2.751761 1_545
B12 Pr1 2.875283 1_555
B12 Pr25 2.954675 1_555
B13 C9 1.466627 1_555
B13 C29 1.471166 1_555
B13 Pr1 2.731396 1_555
B13 Pr32 2.751761 1_555
B13 Pr0 2.875283 1_555
B13 Pr24 2.954675 1_555
B14 C10 1.466627 1_555
B14 C30 1.471166 1_555
B14 Pr2 2.731396 1_655
B14 Pr35 2.751761 1_565
B14 Pr3 2.875283 1_555
B14 Pr27 2.954675 1_555
B15 C11 1.466627 1_555
B15 C31 1.471166 1_555
B15 Pr3 2.731396 1_555
B15 Pr34 2.751761 1_555
B15 Pr2 2.875283 1_555
B15 Pr26 2.954675 1_555
B16 C44 1.469472 1_555
B16 C1 1.472209 1_555
B16 Pr28 2.693322 1_555
B16 Pr25 2.769754 1_555
B16 Pr29 2.866473 1_555
B16 Pr33 2.923368 1_555
B17 C45 1.469472 1_555
B17 C0 1.472209 1_555
B17 Pr29 2.693322 1_655
B17 Pr24 2.769754 1_565
B17 Pr28 2.866473 1_555
B17 Pr32 2.923368 1_555
B18 C46 1.469472 1_555
B18 C3 1.472209 1_555
B18 Pr30 2.693322 1_555
B18 Pr27 2.769754 1_555
B18 Pr31 2.866473 1_555
B18 Pr35 2.923368 1_555
B19 C47 1.469472 1_555
B19 C2 1.472209 1_555
B19 Pr31 2.693322 1_455
B19 Pr26 2.769754 1_545
B19 Pr30 2.866473 1_555
B19 Pr34 2.923368 1_555
B20 C32 1.450110 1_555
B20 C16 1.458008 1_555
B20 Pr16 2.872368 1_465
B20 Pr8 3.075242 1_455
B20 Pr6 3.155534 1_555
B21 C33 1.450110 1_555
B21 C17 1.458008 1_555
B21 Pr17 2.872368 1_555
B21 Pr9 3.075242 1_555
B21 Pr7 3.155534 1_554
B22 C34 1.450110 1_555
B22 C18 1.458008 1_555
B22 Pr18 2.872368 1_645
B22 Pr10 3.075242 1_655
B22 Pr4 3.155534 1_555
B23 C35 1.450110 1_555
B23 C19 1.458008 1_555
B23 Pr19 2.872368 1_555
B23 Pr11 3.075242 1_555
B23 Pr5 3.155534 1_556
B24 C24 1.463046 1_555
B24 C38 1.473934 1_555
B24 Pr42 2.899627 1_555
B24 Pr10 2.910801 1_555
B24 Pr40 3.011826 1_555
B25 C25 1.463046 1_555
B25 C39 1.473934 1_555
B25 Pr43 2.899627 1_655
B25 Pr11 2.910801 1_554
B25 Pr41 3.011826 1_655
B26 C26 1.463046 1_555
B26 C36 1.473934 1_555
B26 Pr44 2.899627 1_555
B26 Pr8 2.910801 1_555
B26 Pr40 3.011826 1_555
B27 C27 1.463046 1_555
B27 C37 1.473934 1_555
B27 Pr45 2.899627 1_455
B27 Pr9 2.910801 1_556
B27 Pr41 3.011826 1_566
C0 Pr36 2.698174 1_555
C0 Pr28 2.706078 1_555
C0 Pr24 2.738825 1_565
C0 Pr20 2.751544 1_555
C0 Pr33 2.853486 1_655
C1 Pr37 2.698174 1_555
C1 Pr29 2.706078 1_555
C1 Pr25 2.738825 1_555
C1 Pr21 2.751544 1_555
C1 Pr32 2.853486 1_555
C2 Pr38 2.698174 1_555
C2 Pr30 2.706078 1_555
C2 Pr26 2.738825 1_545
C2 Pr22 2.751544 1_555
C2 Pr35 2.853486 1_455
C3 Pr39 2.698174 1_555
C3 Pr31 2.706078 1_555
C3 Pr27 2.738825 1_555
C3 Pr23 2.751544 1_555
C3 Pr34 2.853486 1_555
C4 Pr47 2.633709 1_655
C4 Pr36 2.734788 1_555
C4 Pr20 2.760725 1_555
C4 Pr42 2.763106 1_555
C4 Pr16 2.764400 1_555
C5 Pr46 2.633709 1_555
C5 Pr37 2.734788 1_555
C5 Pr21 2.760725 1_555
C5 Pr43 2.763106 1_565
C5 Pr17 2.764400 1_565
C6 Pr49 2.633709 1_455
C6 Pr38 2.734788 1_555
C6 Pr22 2.760725 1_555
C6 Pr44 2.763106 1_555
C6 Pr18 2.764400 1_555
C7 Pr48 2.633709 1_555
C7 Pr39 2.734788 1_555
C7 Pr23 2.760725 1_555
C7 Pr45 2.763106 1_545
C7 Pr19 2.764400 1_545
C8 Pr25 2.699870 1_555
C8 Pr0 2.725909 1_455
C8 Pr21 2.732027 1_545
C8 Pr43 2.737474 1_555
C8 Pr29 2.829211 1_545
C9 Pr24 2.699870 1_555
C9 Pr1 2.725909 1_555
C9 Pr20 2.732027 1_555
C9 Pr42 2.737474 1_555
C9 Pr28 2.829211 1_555
C10 Pr27 2.699870 1_555
C10 Pr2 2.725909 1_655
C10 Pr23 2.732027 1_565
C10 Pr45 2.737474 1_555
C10 Pr31 2.829211 1_565
C11 Pr26 2.699870 1_555
C11 Pr3 2.725909 1_555
C11 Pr22 2.732027 1_555
C11 Pr44 2.737474 1_555
C11 Pr30 2.829211 1_555
C12 Pr28 2.381646 1_555
C12 Pr47 2.699714 1_555
C12 Pr36 2.700829 1_555
C12 Pr12 2.732865 1_565
C12 Pr42 2.733013 1_555
C13 Pr29 2.381646 1_555
C13 Pr46 2.699714 1_455
C13 Pr37 2.700829 1_555
C13 Pr13 2.732865 1_455
C13 Pr43 2.733013 1_565
C14 Pr30 2.381646 1_555
C14 Pr49 2.699714 1_555
C14 Pr38 2.700829 1_555
C14 Pr14 2.732865 1_545
C14 Pr44 2.733013 1_555
C15 Pr31 2.381646 1_555
C15 Pr48 2.699714 1_655
C15 Pr39 2.700829 1_555
C15 Pr15 2.732865 1_655
C15 Pr45 2.733013 1_545
C16 Pr8 2.798908 1_455
C16 Pr4 2.801628 1_465
C16 Pr6 2.880867 1_555
C16 Pr10 2.907067 1_565
C17 Pr9 2.798908 1_555
C17 Pr5 2.801628 1_555
C17 Pr7 2.880867 1_554
C17 Pr11 2.907067 1_554
C18 Pr10 2.798908 1_655
C18 Pr6 2.801628 1_645
C18 Pr4 2.880867 1_555
C18 Pr8 2.907067 1_545
C19 Pr11 2.798908 1_555
C19 Pr7 2.801628 1_555
C19 Pr5 2.880867 1_556
C19 Pr9 2.907067 1_556
C20 Pr24 2.464565 1_555
C20 Pr16 2.617095 1_555
C20 Pr4 2.651148 1_555
C20 Pr36 2.677288 1_545
C20 Pr12 2.697552 1_555
C20 Pr42 2.707828 1_555
C21 Pr25 2.464565 1_555
C21 Pr17 2.617095 1_555
C21 Pr5 2.651148 1_555
C21 Pr37 2.677288 1_555
C21 Pr13 2.697552 1_455
C21 Pr43 2.707828 1_555
C22 Pr26 2.464565 1_555
C22 Pr18 2.617095 1_555
C22 Pr6 2.651148 1_555
C22 Pr38 2.677288 1_565
C22 Pr14 2.697552 1_555
C22 Pr44 2.707828 1_555
C23 Pr27 2.464565 1_555
C23 Pr19 2.617095 1_555
C23 Pr7 2.651148 1_555
C23 Pr39 2.677288 1_555
C23 Pr15 2.697552 1_655
C23 Pr45 2.707828 1_555
C24 Pr1 2.434702 1_555
C24 Pr47 2.681942 1_555
C24 Pr12 2.719198 1_555
C24 Pr42 2.754983 1_555
C24 Pr16 2.784815 1_455
C25 Pr0 2.434702 1_555
C25 Pr46 2.681942 1_545
C25 Pr13 2.719198 1_555
C25 Pr43 2.754983 1_655
C25 Pr17 2.784815 1_555
C26 Pr3 2.434702 1_555
C26 Pr49 2.681942 1_555
C26 Pr14 2.719198 1_555
C26 Pr44 2.754983 1_555
C26 Pr18 2.784815 1_655
C27 Pr2 2.434702 1_555
C27 Pr48 2.681942 1_565
C27 Pr15 2.719198 1_555
C27 Pr45 2.754983 1_455
C27 Pr19 2.784815 1_555
C28 Pr16 2.653697 1_455
C28 Pr1 2.715691 1_555
C28 Pr33 2.730864 1_545
C28 Pr20 2.741829 1_455
C28 Pr24 2.811781 1_455
C29 Pr17 2.653697 1_555
C29 Pr0 2.715691 1_555
C29 Pr32 2.730864 1_555
C29 Pr21 2.741829 1_545
C29 Pr25 2.811781 1_555
C30 Pr18 2.653697 1_655
C30 Pr3 2.715691 1_555
C30 Pr35 2.730864 1_565
C30 Pr22 2.741829 1_655
C30 Pr26 2.811781 1_655
C31 Pr19 2.653697 1_555
C31 Pr2 2.715691 1_555
C31 Pr34 2.730864 1_555
C31 Pr23 2.741829 1_565
C31 Pr27 2.811781 1_555
C32 Pr33 2.472487 1_555
C32 Pr47 2.731554 1_555
C32 Pr36 2.736841 1_455
C32 Pr12 2.754092 1_565
C32 Pr16 2.760450 1_465
C33 Pr32 2.472487 1_555
C33 Pr46 2.731554 1_555
C33 Pr37 2.736841 1_555
C33 Pr13 2.754092 1_555
C33 Pr17 2.760450 1_555
C34 Pr35 2.472487 1_555
C34 Pr49 2.731554 1_555
C34 Pr38 2.736841 1_655
C34 Pr14 2.754092 1_545
C34 Pr18 2.760450 1_645
C35 Pr34 2.472487 1_555
C35 Pr48 2.731554 1_555
C35 Pr39 2.736841 1_555
C35 Pr15 2.754092 1_555
C35 Pr19 2.760450 1_555
C36 Pr40 2.709017 1_555
C36 Pr8 2.733301 1_555
C36 Pr6 2.864713 1_555
C36 Pr4 3.235573 1_565
C37 Pr41 2.709017 1_566
C37 Pr9 2.733301 1_556
C37 Pr7 2.864713 1_455
C37 Pr5 3.235573 1_556
C38 Pr40 2.709017 1_555
C38 Pr10 2.733301 1_555
C38 Pr4 2.864713 1_555
C38 Pr6 3.235573 1_545
C39 Pr41 2.709017 1_655
C39 Pr11 2.733301 1_554
C39 Pr5 2.864713 1_655
C39 Pr7 3.235573 1_554
C40 Pr32 2.582220 1_555
C40 Pr0 2.633297 1_555
C40 Pr25 2.645403 1_655
C40 Pr29 2.647735 1_655
C40 Pr13 2.676888 1_555
C40 Pr20 2.744931 1_555
C41 Pr33 2.582220 1_545
C41 Pr1 2.633297 1_555
C41 Pr24 2.645403 1_555
C41 Pr28 2.647735 1_545
C41 Pr12 2.676888 1_555
C41 Pr21 2.744931 1_545
C42 Pr34 2.582220 1_555
C42 Pr2 2.633297 1_555
C42 Pr27 2.645403 1_455
C42 Pr31 2.647735 1_455
C42 Pr15 2.676888 1_555
C42 Pr22 2.744931 1_555
C43 Pr35 2.582220 1_565
C43 Pr3 2.633297 1_555
C43 Pr26 2.645403 1_555
C43 Pr30 2.647735 1_565
C43 Pr14 2.676888 1_555
C43 Pr23 2.744931 1_565
C44 Pr33 2.698281 1_555
C44 Pr28 2.706697 1_555
C44 Pr20 2.710929 1_455
C44 Pr47 2.736636 1_555
C44 Pr1 2.823270 1_555
C45 Pr32 2.698281 1_555
C45 Pr29 2.706697 1_655
C45 Pr21 2.710929 1_555
C45 Pr46 2.736636 1_555
C45 Pr0 2.823270 1_565
C46 Pr35 2.698281 1_555
C46 Pr30 2.706697 1_555
C46 Pr22 2.710929 1_655
C46 Pr49 2.736636 1_555
C46 Pr3 2.823270 1_555
C47 Pr34 2.698281 1_555
C47 Pr31 2.706697 1_455
C47 Pr23 2.710929 1_555
C47 Pr48 2.736636 1_555
C47 Pr2 2.823270 1_545
C48 Pr4 2.655592 1_555
C48 Pr10 2.659033 1_655
C48 Pr8 2.747679 1_555
C48 Pr40 3.027495 1_555
C48 Pr42 3.109001 1_555
C49 Pr5 2.655592 1_555
C49 Pr11 2.659033 1_554
C49 Pr9 2.747679 1_545
C49 Pr41 3.027495 1_555
C49 Pr43 3.109001 1_555
C50 Pr6 2.655592 1_555
C50 Pr8 2.659033 1_455
C50 Pr10 2.747679 1_555
C50 Pr40 3.027495 1_555
C50 Pr44 3.109001 1_555
C51 Pr7 2.655592 1_555
C51 Pr9 2.659033 1_556
C51 Pr11 2.747679 1_565
C51 Pr41 3.027495 1_666
C51 Pr45 3.109001 1_555
