# generated using pymatgen
data_LiZn(CoO2)4
_symmetry_space_group_name_H-M   'P 1'
_cell_length_a   2.90645411
_cell_length_b   7.42744711
_cell_length_c   7.55883126
_cell_angle_alpha   69.66513315
_cell_angle_beta   88.54629264
_cell_angle_gamma   81.81888420
_symmetry_Int_Tables_number   1
_chemical_formula_structural   LiZn(CoO2)4
_chemical_formula_sum   'Li1 Zn1 Co4 O8'
_cell_volume   151.39886988
_cell_formula_units_Z   1
loop_
 _symmetry_equiv_pos_site_id
 _symmetry_equiv_pos_as_xyz
  1  'x, y, z'
loop_
 _atom_site_type_symbol
 _atom_site_label
 _atom_site_symmetry_multiplicity
 _atom_site_fract_x
 _atom_site_fract_y
 _atom_site_fract_z
 _atom_site_occupancy
  Li  Li0  1  0.85741100  0.54892600  0.50768900  1
  Zn  Zn0  1  0.55060000  0.99262200  0.17954100  1
  Co  Co0  1  0.56920000  0.20557800  0.55315800  1
  Co  Co1  1  0.01507500  0.56868900  0.16635700  1
  Co  Co2  1  0.94595400  0.38996300  0.86996400  1
  Co  Co3  1  0.25937900  0.84679400  0.59893300  1
  O  O0  1  0.82686300  0.68056400  0.69253400  1
  O  O1  1  0.46652900  0.37456400  0.68907300  1
  O  O2  1  0.51539500  0.71016300  0.24654700  1
  O  O3  1  0.02460000  0.34209000  0.40050100  1
  O  O4  1  0.11527300  0.06390900  0.69428500  1
  O  O5  1  0.00612500  0.14682800  0.03693100  1
  O  O6  1  0.67871400  0.99978100  0.44246700  1
  O  O7  1  0.42342000  0.48920300  0.01895700  1
loop_
_geom_bond_atom_site_label_1
_geom_bond_atom_site_label_2
_geom_bond_distance
_geom_bond_site_symmetry_2
Li0 O0 1.958190 1_555
Li0 O3 1.971124 1_655
Li0 O1 1.988290 1_555
Li0 O2 2.106304 1_555
Li0 O1 2.219856 1_655
Co0 O1 1.869204 1_555
Co0 O4 1.878650 1_555
Co0 O4 1.895953 1_655
Co0 O3 1.898101 1_655
Co0 O3 1.920351 1_555
Co0 O6 1.968429 1_545
Co1 O7 1.785822 1_555
Co1 O2 1.882663 1_455
Co1 O3 1.970981 1_555
Co1 O2 2.123304 1_555
Co1 O7 2.321708 1_455
Co2 O5 1.794958 1_656
Co2 O1 2.018667 1_555
Co2 O1 2.031350 1_655
Co2 O7 2.071172 1_556
Co2 O0 2.091966 1_555
Co2 O7 2.164451 1_656
Co3 O0 1.842477 1_455
Co3 O6 1.887423 1_555
Co3 O0 1.902076 1_555
Co3 O4 1.973747 1_565
Co3 O6 2.039526 1_455
O2 Zn0 1.997084 1_555
O5 Zn0 1.921128 1_545
O5 Zn0 1.930749 1_445
O6 Zn0 2.051321 1_555
