# generated using pymatgen
data_Fe3P3O13
_symmetry_space_group_name_H-M   'P 1'
_cell_length_a   6.38644600
_cell_length_b   7.61526500
_cell_length_c   10.43376672
_cell_angle_alpha   80.92634537
_cell_angle_beta   90.00000000
_cell_angle_gamma   90.00000000
_symmetry_Int_Tables_number   1
_chemical_formula_structural   Fe3P3O13
_chemical_formula_sum   'Fe6 P6 O26'
_cell_volume   501.09090683
_cell_formula_units_Z   2
loop_
 _symmetry_equiv_pos_site_id
 _symmetry_equiv_pos_as_xyz
  1  'x, y, z'
loop_
 _atom_site_type_symbol
 _atom_site_label
 _atom_site_symmetry_multiplicity
 _atom_site_fract_x
 _atom_site_fract_y
 _atom_site_fract_z
 _atom_site_occupancy
  Fe  Fe0  1  0.25000000  0.63843600  0.19181100  1
  Fe  Fe1  1  0.75000000  0.36156400  0.80818900  1
  Fe  Fe2  1  0.25000000  0.21300900  0.43921700  1
  Fe  Fe3  1  0.50000000  0.00000000  0.00000000  1
  Fe  Fe4  1  0.75000000  0.78699100  0.56078300  1
  Fe  Fe5  1  0.00000000  0.00000000  0.00000000  1
  P  P0  1  0.25000000  0.78334600  0.48196200  1
  P  P1  1  0.75000000  0.21665400  0.51803800  1
  P  P2  1  0.25000000  0.25681600  0.76435300  1
  P  P3  1  0.75000000  0.74318400  0.23564700  1
  P  P4  1  0.75000000  0.69253800  0.88396300  1
  P  P5  1  0.25000000  0.30746200  0.11603700  1
  O  O0  1  0.75000000  0.65426100  0.74102500  1
  O  O1  1  0.55415200  0.25562600  0.43351500  1
  O  O2  1  0.25000000  0.20574200  0.62757700  1
  O  O3  1  0.55209700  0.79476000  0.91247700  1
  O  O4  1  0.75000000  0.35055500  0.61537800  1
  O  O5  1  0.75000000  0.12052100  0.90665500  1
  O  O6  1  0.25000000  0.64944500  0.38462200  1
  O  O7  1  0.05209700  0.20524000  0.08752300  1
  O  O8  1  0.25000000  0.97503500  0.40687100  1
  O  O9  1  0.75000000  0.02496500  0.59312900  1
  O  O10  1  0.05472900  0.36655100  0.78554900  1
  O  O11  1  0.25000000  0.87947900  0.09334500  1
  O  O12  1  0.55472900  0.63344900  0.21445100  1
  O  O13  1  0.75000000  0.49895300  0.95614400  1
  O  O14  1  0.75000000  0.79425800  0.37242300  1
  O  O15  1  0.44790300  0.20524000  0.08752300  1
  O  O16  1  0.94584800  0.25562600  0.43351500  1
  O  O17  1  0.44584800  0.74437400  0.56648500  1
  O  O18  1  0.44527100  0.36655100  0.78554900  1
  O  O19  1  0.25000000  0.34573900  0.25897500  1
  O  O20  1  0.75000000  0.91614100  0.13064300  1
  O  O21  1  0.25000000  0.08385900  0.86935700  1
  O  O22  1  0.94527100  0.63344900  0.21445100  1
  O  O23  1  0.94790300  0.79476000  0.91247700  1
  O  O24  1  0.05415200  0.74437400  0.56648500  1
  O  O25  1  0.25000000  0.50104700  0.04385600  1
loop_
_geom_bond_atom_site_label_1
_geom_bond_atom_site_label_2
_geom_bond_distance
_geom_bond_site_symmetry_2
Fe0 O11 1.957072 1_555
Fe0 O22 1.960065 1_455
Fe0 O12 1.960065 1_555
Fe0 O25 1.996789 1_555
Fe0 O6 2.026658 1_555
Fe0 O19 2.228610 1_555
Fe1 O5 1.957072 1_555
Fe1 O10 1.960065 1_655
Fe1 O18 1.960065 1_555
Fe1 O13 1.996789 1_555
Fe1 O4 2.026658 1_555
Fe1 O0 2.228610 1_555
Fe2 O8 1.894994 1_545
Fe2 O2 1.957340 1_555
Fe2 O1 1.968728 1_555
Fe2 O16 1.968728 1_455
Fe2 O19 1.989669 1_555
Fe3 O3 1.958988 1_544
Fe3 O15 1.958988 1_555
Fe3 O11 2.014484 1_545
Fe3 O5 2.014484 1_554
Fe3 O21 2.130838 1_554
Fe3 O20 2.130838 1_545
Fe4 O9 1.894994 1_565
Fe4 O14 1.957340 1_555
Fe4 O17 1.968728 1_555
Fe4 O24 1.968728 1_655
Fe4 O0 1.989669 1_555
Fe5 O23 1.958988 1_444
Fe5 O7 1.958988 1_555
Fe5 O5 2.014484 1_454
Fe5 O11 2.014484 1_545
Fe5 O21 2.130838 1_554
Fe5 O20 2.130838 1_445
O0 P4 1.564065 1_555
O1 P1 1.532219 1_555
O2 P2 1.537182 1_555
O3 P4 1.537847 1_555
O4 P1 1.548517 1_555
O6 P0 1.548517 1_555
O7 P5 1.537847 1_555
O8 P0 1.544027 1_555
O9 P1 1.544027 1_555
O10 P2 1.536475 1_555
O12 P3 1.536475 1_555
O13 P4 1.546052 1_555
O14 P3 1.537182 1_555
O15 P5 1.537847 1_555
O16 P1 1.532219 1_555
O17 P0 1.532219 1_555
O18 P2 1.536475 1_555
O19 P5 1.564065 1_555
O20 P3 1.574789 1_555
O21 P2 1.574789 1_555
O22 P3 1.536475 1_555
O23 P4 1.537847 1_555
O24 P0 1.532219 1_555
O25 P5 1.546052 1_555
