# generated using pymatgen
data_BaBi2(BrO)2
_symmetry_space_group_name_H-M   'P 1'
_cell_length_a   16.15571674
_cell_length_b   16.15571674
_cell_length_c   16.15571674
_cell_angle_alpha   165.60758697
_cell_angle_beta   165.60758697
_cell_angle_gamma   20.40818788
_symmetry_Int_Tables_number   1
_chemical_formula_structural   BaBi2(BrO)2
_chemical_formula_sum   'Ba1 Bi2 Br2 O2'
_cell_volume   260.49036434
_cell_formula_units_Z   1
loop_
 _symmetry_equiv_pos_site_id
 _symmetry_equiv_pos_as_xyz
  1  'x, y, z'
loop_
 _atom_site_type_symbol
 _atom_site_label
 _atom_site_symmetry_multiplicity
 _atom_site_fract_x
 _atom_site_fract_y
 _atom_site_fract_z
 _atom_site_occupancy
  Ba  Ba0  1  0.59883400  0.59883400  0.00000000  1
  Bi  Bi0  1  0.42187000  0.42187000  0.00000000  1
  Bi  Bi1  1  0.00043300  0.00043300  0.00000000  1
  Br  Br0  1  0.14853300  0.14853300  0.00000000  1
  Br  Br1  1  0.87124400  0.87124400  0.00000000  1
  O  O0  1  0.46099300  0.96099300  0.50000000  1
  O  O1  1  0.96099300  0.46099300  0.50000000  1
loop_
_geom_bond_atom_site_label_1
_geom_bond_atom_site_label_2
_geom_bond_distance
_geom_bond_site_symmetry_2
Ba0 Br0 3.269440 1_666
Ba0 Br0 3.269440 1_655
Ba0 Br0 3.269440 1_565
Ba0 Br0 3.269440 1_554
Bi0 O0 2.375618 1_544
Bi0 O1 2.375618 1_454
Bi0 O1 2.375618 1_555
Bi0 O0 2.375618 1_555
Bi0 Br1 3.283791 1_444
Bi0 Br1 3.283791 1_545
Bi0 Br1 3.283791 1_455
Bi0 Br1 3.283791 1_556
Bi1 O0 2.380913 1_545
Bi1 O1 2.380913 1_455
Bi1 O0 2.380913 1_444
Bi1 O1 2.380913 1_444
