# generated using pymatgen
data_Er2Al4CoGe2
_symmetry_space_group_name_H-M   'P 1'
_cell_length_a   10.13718750
_cell_length_b   10.13718750
_cell_length_c   10.13718750
_cell_angle_alpha   156.60616253
_cell_angle_beta   156.60616253
_cell_angle_gamma   33.32218959
_symmetry_Int_Tables_number   1
_chemical_formula_structural   Er2Al4CoGe2
_chemical_formula_sum   'Er2 Al4 Co1 Ge2'
_cell_volume   164.07473887
_cell_formula_units_Z   1
loop_
 _symmetry_equiv_pos_site_id
 _symmetry_equiv_pos_as_xyz
  1  'x, y, z'
loop_
 _atom_site_type_symbol
 _atom_site_label
 _atom_site_symmetry_multiplicity
 _atom_site_fract_x
 _atom_site_fract_y
 _atom_site_fract_z
 _atom_site_occupancy
  Er  Er0  1  0.18468900  0.18468900  0.00000000  1
  Er  Er1  1  0.81531100  0.81531100  0.00000000  1
  Al  Al0  1  0.56615600  0.06615600  0.50000000  1
  Al  Al1  1  0.43384400  0.93384400  0.50000000  1
  Al  Al2  1  0.06615600  0.56615600  0.50000000  1
  Al  Al3  1  0.93384400  0.43384400  0.50000000  1
  Co  Co0  1  0.00000000  0.00000000  0.00000000  1
  Ge  Ge0  1  0.33561800  0.33561800  0.00000000  1
  Ge  Ge1  1  0.66438200  0.66438200  0.00000000  1
loop_
_geom_bond_atom_site_label_1
_geom_bond_atom_site_label_2
_geom_bond_distance
_geom_bond_site_symmetry_2
Er0 Ge0 2.931525 1_555
Er0 Ge1 2.933075 1_455
Er0 Ge1 2.933075 1_444
Er0 Ge1 2.933075 1_556
Er0 Ge1 2.933075 1_545
Er1 Ge1 2.931525 1_555
Er1 Ge0 2.933075 1_554
Er1 Ge0 2.933075 1_565
Er1 Ge0 2.933075 1_655
Er1 Ge0 2.933075 1_666
Al0 Co0 2.423800 1_656
Al0 Co0 2.423800 1_555
Al0 Al1 2.569923 1_545
Al0 Ge1 2.804215 1_556
Al0 Ge1 2.804215 1_545
Al0 Al2 2.906434 1_555
Al0 Al2 2.906434 1_656
Al0 Al2 2.906434 1_544
Al0 Al2 2.906434 1_645
Al0 Er0 3.086134 1_555
Al0 Er0 3.086134 1_656
Al1 Co0 2.423800 1_666
Al1 Co0 2.423800 1_565
Al1 Ge0 2.804215 1_555
Al1 Ge0 2.804215 1_566
Al1 Al3 2.906434 1_454
Al1 Al3 2.906434 1_555
Al1 Al3 2.906434 1_566
Al1 Al3 2.906434 1_465
Al1 Er1 3.086134 1_455
Al1 Er1 3.086134 1_556
Al2 Co0 2.423800 1_555
Al2 Co0 2.423800 1_566
Al2 Al3 2.569923 1_455
Al2 Ge1 2.804215 1_556
Al2 Ge1 2.804215 1_455
Al2 Er0 3.086134 1_555
Al2 Er0 3.086134 1_566
Al3 Co0 2.423800 1_666
Al3 Co0 2.423800 1_655
Al3 Ge0 2.804215 1_555
Al3 Ge0 2.804215 1_656
Al3 Er1 3.086134 1_545
Al3 Er1 3.086134 1_556
