# generated using pymatgen
data_LiCo2(PO4)2
_symmetry_space_group_name_H-M   'P 1'
_cell_length_a   5.11885300
_cell_length_b   8.56755600
_cell_length_c   10.11649709
_cell_angle_alpha   54.54449530
_cell_angle_beta   90.00000000
_cell_angle_gamma   90.00000000
_symmetry_Int_Tables_number   1
_chemical_formula_structural   LiCo2(PO4)2
_chemical_formula_sum   'Li2 Co4 P4 O16'
_cell_volume   361.39836003
_cell_formula_units_Z   2
loop_
 _symmetry_equiv_pos_site_id
 _symmetry_equiv_pos_as_xyz
  1  'x, y, z'
loop_
 _atom_site_type_symbol
 _atom_site_label
 _atom_site_symmetry_multiplicity
 _atom_site_fract_x
 _atom_site_fract_y
 _atom_site_fract_z
 _atom_site_occupancy
  Li  Li0  1  0.43630900  0.49781700  0.50415900  1
  Li  Li1  1  0.56369100  0.49781700  0.00415900  1
  Co  Co0  1  0.04418000  0.49858800  0.25149100  1
  Co  Co1  1  0.44792600  0.99954700  0.75315500  1
  Co  Co2  1  0.55207400  0.99954700  0.25315500  1
  Co  Co3  1  0.95582000  0.49858800  0.75149100  1
  P  P0  1  0.53970100  0.74751800  0.12678800  1
  P  P1  1  0.95018000  0.24979900  0.62561100  1
  P  P2  1  0.04982000  0.24979900  0.12561100  1
  P  P3  1  0.46029900  0.74751800  0.62678800  1
  O  O0  1  0.83614200  0.70915400  0.17403900  1
  O  O1  1  0.65141200  0.24804700  0.65184900  1
  O  O2  1  0.38750300  0.56894800  0.27327700  1
  O  O3  1  0.93285400  0.43119200  0.11025700  1
  O  O4  1  0.08434600  0.06580200  0.76026800  1
  O  O5  1  0.49021300  0.74967300  0.97445400  1
  O  O6  1  0.01383400  0.28289100  0.45929400  1
  O  O7  1  0.91565400  0.06580200  0.26026800  1
  O  O8  1  0.53961600  0.93355700  0.60242300  1
  O  O9  1  0.34858800  0.24804700  0.15184900  1
  O  O10  1  0.61249700  0.56894800  0.77327700  1
  O  O11  1  0.98616600  0.28289100  0.95929400  1
  O  O12  1  0.50978700  0.74967300  0.47445400  1
  O  O13  1  0.16385800  0.70915400  0.67403900  1
  O  O14  1  0.46038400  0.93355700  0.10242300  1
  O  O15  1  0.06714600  0.43119200  0.61025700  1
loop_
_geom_bond_atom_site_label_1
_geom_bond_atom_site_label_2
_geom_bond_distance
_geom_bond_site_symmetry_2
Li0 O12 2.033606 1_555
Li0 O2 2.058641 1_555
Li0 O1 2.077186 1_555
Li0 O15 2.082793 1_555
Li1 O5 2.033606 1_554
Li1 O10 2.058641 1_554
Li1 O9 2.077186 1_555
Li1 O3 2.082793 1_555
Co0 O6 1.830727 1_555
Co0 O0 1.833746 1_455
Co0 O2 1.911706 1_555
Co0 O3 1.912259 1_455
Co1 O4 1.959215 1_565
Co1 O8 1.966057 1_555
Co1 O5 2.020325 1_555
Co1 O1 2.033891 1_565
Co2 O7 1.959215 1_565
Co2 O14 1.966057 1_555
Co2 O12 2.020325 1_555
Co2 O9 2.033891 1_565
Co3 O11 1.830727 1_555
Co3 O13 1.833746 1_655
Co3 O10 1.911706 1_555
Co3 O15 1.912259 1_655
O0 P0 1.567441 1_555
O1 P1 1.550796 1_555
O2 P0 1.585383 1_555
O3 P2 1.586746 1_655
O4 P1 1.523513 1_455
O5 P0 1.551274 1_556
O6 P1 1.569741 1_455
O7 P2 1.523513 1_655
O8 P3 1.519975 1_555
O9 P2 1.550796 1_555
O10 P3 1.585383 1_555
O11 P2 1.569741 1_656
O12 P3 1.551274 1_555
O13 P3 1.567441 1_555
O14 P0 1.519975 1_555
O15 P1 1.586746 1_455
