# generated using pymatgen
data_CeZnAu
_symmetry_space_group_name_H-M   'P 1'
_cell_length_a   4.62705804
_cell_length_b   7.15439949
_cell_length_c   7.98910129
_cell_angle_alpha   90.00259377
_cell_angle_beta   90.00000000
_cell_angle_gamma   90.00000000
_symmetry_Int_Tables_number   1
_chemical_formula_structural   CeZnAu
_chemical_formula_sum   'Ce4 Zn4 Au4'
_cell_volume   264.46978436
_cell_formula_units_Z   4
loop_
 _symmetry_equiv_pos_site_id
 _symmetry_equiv_pos_as_xyz
  1  'x, y, z'
loop_
 _atom_site_type_symbol
 _atom_site_label
 _atom_site_symmetry_multiplicity
 _atom_site_fract_x
 _atom_site_fract_y
 _atom_site_fract_z
 _atom_site_occupancy
  Ce  Ce0  1  0.75000000  0.49410219  0.77641404  1
  Ce  Ce1  1  0.25000000  0.00589060  0.27642376  1
  Ce  Ce2  1  0.75000000  0.99410164  0.72357720  1
  Ce  Ce3  1  0.25000000  0.50589436  0.22358189  1
  Zn  Zn0  1  0.25000000  0.20549498  0.91798496  1
  Zn  Zn1  1  0.25000000  0.70549015  0.58200956  1
  Zn  Zn2  1  0.75000000  0.79449322  0.08201565  1
  Zn  Zn3  1  0.75000000  0.29448298  0.41798428  1
  Au  Au0  1  0.25000000  0.77522506  0.91357671  1
  Au  Au1  1  0.25000000  0.27523313  0.58641251  1
  Au  Au2  1  0.75000000  0.72479778  0.41365971  1
  Au  Au3  1  0.75000000  0.22479392  0.08636073  1
loop_
_geom_bond_atom_site_label_1
_geom_bond_atom_site_label_2
_geom_bond_distance
_geom_bond_site_symmetry_2
Ce0 Zn1 3.170491 1_555
Ce0 Zn1 3.170491 1_655
Ce0 Zn3 3.199855 1_555
Ce0 Zn2 3.252548 1_556
Ce0 Zn0 3.300801 1_555
Ce0 Zn0 3.300801 1_655
Ce1 Zn2 3.170471 1_445
Ce1 Zn2 3.170471 1_545
Ce1 Zn0 3.199988 1_554
Ce1 Zn1 3.252643 1_545
Ce1 Zn3 3.300642 1_455
Ce1 Zn3 3.300642 1_555
Ce2 Zn0 3.170456 1_665
Ce2 Zn0 3.170456 1_565
Ce2 Zn2 3.199998 1_556
Ce2 Zn3 3.252596 1_565
Ce2 Zn1 3.300748 1_555
Ce2 Zn1 3.300748 1_655
Ce3 Zn3 3.170563 1_555
Ce3 Zn3 3.170563 1_455
Ce3 Zn1 3.199765 1_555
Ce3 Zn0 3.252559 1_554
Ce3 Zn2 3.300751 1_455
Ce3 Zn2 3.300751 1_555
Au0 Zn2 2.679971 1_556
Au0 Zn2 2.679971 1_456
Au0 Zn1 2.695476 1_555
Au0 Zn0 3.078523 1_565
Au0 Ce3 3.138030 1_556
Au0 Ce2 3.179445 1_555
Au0 Ce2 3.179445 1_455
Au0 Ce0 3.255487 1_455
Au0 Ce0 3.255487 1_555
Au0 Ce1 3.335586 1_566
Au1 Zn3 2.679928 1_555
Au1 Zn3 2.679928 1_455
Au1 Zn0 2.695566 1_555
Au1 Zn1 3.078433 1_555
Au1 Ce1 3.137841 1_555
Au1 Ce0 3.179358 1_455
Au1 Ce0 3.179358 1_555
Au1 Ce2 3.255592 1_545
Au1 Ce2 3.255592 1_445
Au1 Ce3 3.335587 1_555
Au2 Zn1 2.679635 1_555
Au2 Zn1 2.679635 1_655
Au2 Zn2 2.696072 1_555
Au2 Zn3 3.078839 1_555
Au2 Ce2 3.137221 1_555
Au2 Ce3 3.179770 1_555
Au2 Ce3 3.179770 1_655
Au2 Ce1 3.255613 1_665
Au2 Ce1 3.255613 1_565
Au2 Ce0 3.335179 1_555
Au3 Zn0 2.679729 1_654
Au3 Zn0 2.679729 1_554
Au3 Zn3 2.695858 1_555
Au3 Zn2 3.078737 1_545
Au3 Ce0 3.137563 1_554
Au3 Ce1 3.179781 1_555
Au3 Ce1 3.179781 1_655
Au3 Ce3 3.255545 1_655
Au3 Ce3 3.255545 1_555
Au3 Ce2 3.335240 1_544
