# generated using pymatgen
data_Mg14AlSn
_symmetry_space_group_name_H-M   'P 1'
_cell_length_a   6.29670824
_cell_length_b   6.42352388
_cell_length_c   10.38895312
_cell_angle_alpha   90.00000000
_cell_angle_beta   90.00000000
_cell_angle_gamma   120.66849755
_symmetry_Int_Tables_number   1
_chemical_formula_structural   Mg14AlSn
_chemical_formula_sum   'Mg14 Al1 Sn1'
_cell_volume   361.43003024
_cell_formula_units_Z   1
loop_
 _symmetry_equiv_pos_site_id
 _symmetry_equiv_pos_as_xyz
  1  'x, y, z'
loop_
 _atom_site_type_symbol
 _atom_site_label
 _atom_site_symmetry_multiplicity
 _atom_site_fract_x
 _atom_site_fract_y
 _atom_site_fract_z
 _atom_site_occupancy
  Mg  Mg0  1  0.16806580  0.33403240  0.62500000  1
  Mg  Mg1  1  0.16807415  0.83403658  0.62500000  1
  Mg  Mg2  1  0.66796168  0.33369251  0.12500000  1
  Mg  Mg3  1  0.66639562  0.33329385  0.62500000  1
  Mg  Mg4  1  0.66796168  0.83426818  0.12500000  1
  Mg  Mg5  1  0.66639562  0.83310077  0.62500000  1
  Mg  Mg6  1  0.33253827  0.16953609  0.37451191  1
  Mg  Mg7  1  0.33253827  0.16953609  0.87548809  1
  Mg  Mg8  1  0.33253827  0.66300318  0.37451191  1
  Mg  Mg9  1  0.33253827  0.66300318  0.87548809  1
  Mg  Mg10  1  0.83570828  0.16785464  0.37438528  1
  Mg  Mg11  1  0.83570828  0.16785464  0.87561472  1
  Mg  Mg12  1  0.83214732  0.66607416  0.37781098  1
  Mg  Mg13  1  0.83214732  0.66607416  0.87218902  1
  Al  Al0  1  0.16324235  0.33162068  0.12500000  1
  Sn  Sn0  1  0.16603878  0.83301889  0.12500000  1
loop_
_geom_bond_atom_site_label_1
_geom_bond_atom_site_label_2
_geom_bond_distance
_geom_bond_site_symmetry_2
Mg0 Mg5 3.140260 1_555
Mg0 Mg3 3.140260 1_555
Mg0 Mg5 3.156453 1_445
Mg0 Mg3 3.156454 1_455
Mg0 Mg10 3.165287 1_455
Mg0 Mg11 3.165287 1_455
Mg0 Mg6 3.174491 1_555
Mg0 Mg7 3.174491 1_555
Mg0 Mg8 3.174497 1_555
Mg0 Mg9 3.174497 1_555
Mg0 Mg1 3.211762 1_545
Mg0 Mg1 3.211762 1_555
Mg1 Mg3 3.140855 1_565
Mg1 Mg5 3.140855 1_555
Mg1 Mg13 3.147214 1_455
Mg1 Mg12 3.147214 1_455
Mg1 Mg3 3.155861 1_455
Mg1 Mg5 3.155861 1_455
Mg1 Mg8 3.195636 1_555
Mg1 Mg9 3.195636 1_555
Mg1 Mg6 3.195643 1_565
Mg1 Mg7 3.195643 1_565
Mg2 Sn0 3.140347 1_655
Mg2 Sn0 3.156376 1_545
Mg2 Mg7 3.165453 1_554
Mg2 Mg6 3.165453 1_555
Mg2 Mg4 3.208064 1_545
Mg2 Mg4 3.215460 1_555
Mg3 Mg6 3.168899 1_555
Mg3 Mg7 3.168899 1_555
Mg3 Mg5 3.210522 1_555
Mg3 Mg5 3.213002 1_545
Mg4 Sn0 3.140347 1_655
Mg4 Sn0 3.156376 1_555
Mg4 Mg9 3.165452 1_554
Mg4 Mg8 3.165452 1_555
Mg5 Mg8 3.168898 1_555
Mg5 Mg9 3.168898 1_555
Mg6 Mg8 3.169798 1_555
Mg6 Sn0 3.190488 1_545
Mg6 Mg8 3.253726 1_545
Mg7 Mg9 3.169798 1_555
Mg7 Sn0 3.190488 1_546
Mg7 Mg9 3.253726 1_545
Mg8 Sn0 3.190481 1_555
Mg9 Sn0 3.190481 1_556
Mg10 Mg8 3.122898 1_655
Mg10 Mg6 3.122898 1_655
Mg10 Mg8 3.173838 1_545
Mg10 Mg6 3.173838 1_555
Mg10 Mg2 3.179751 1_555
Mg10 Mg4 3.179757 1_545
Mg10 Mg3 3.193833 1_555
Mg10 Mg5 3.193840 1_545
Mg10 Mg12 3.212017 1_545
Mg10 Mg12 3.212017 1_555
Mg11 Mg9 3.122898 1_655
Mg11 Mg7 3.122898 1_655
Mg11 Mg9 3.173838 1_545
Mg11 Mg7 3.173838 1_555
Mg11 Mg2 3.179751 1_556
Mg11 Mg4 3.179757 1_546
Mg11 Mg3 3.193833 1_555
Mg11 Mg5 3.193840 1_545
Mg11 Mg13 3.212017 1_545
Mg11 Mg13 3.212017 1_555
Mg12 Mg6 3.136063 1_555
Mg12 Mg8 3.136064 1_555
Mg12 Mg5 3.158723 1_555
Mg12 Mg3 3.158730 1_555
Mg12 Mg6 3.161109 1_665
Mg12 Mg8 3.161109 1_655
Mg12 Sn0 3.188786 1_655
Mg12 Mg4 3.205261 1_555
Mg12 Mg2 3.205268 1_555
Mg13 Mg7 3.136063 1_555
Mg13 Mg9 3.136064 1_555
Mg13 Mg5 3.158723 1_555
Mg13 Mg3 3.158730 1_555
Mg13 Mg7 3.161109 1_665
Mg13 Mg9 3.161109 1_655
Mg13 Sn0 3.188786 1_656
Mg13 Mg4 3.205261 1_556
Mg13 Mg2 3.205268 1_556
Al0 Mg4 3.125447 1_445
Al0 Mg2 3.125447 1_455
Al0 Mg11 3.139957 1_454
Al0 Mg10 3.139957 1_455
Al0 Mg4 3.171303 1_555
Al0 Mg2 3.171303 1_555
Al0 Mg7 3.173631 1_554
Al0 Mg6 3.173631 1_555
Al0 Mg9 3.173638 1_554
Al0 Mg8 3.173638 1_555
Al0 Sn0 3.211798 1_555
Al0 Sn0 3.211798 1_545
