# generated using pymatgen
data_Ce2MgSe4
_symmetry_space_group_name_H-M   'P 1'
_cell_length_a   13.64006689
_cell_length_b   8.20931718
_cell_length_c   13.70409774
_cell_angle_alpha   90.00000000
_cell_angle_beta   90.00000000
_cell_angle_gamma   90.00000000
_symmetry_Int_Tables_number   1
_chemical_formula_structural   Ce2MgSe4
_chemical_formula_sum   'Ce16 Mg8 Se32'
_cell_volume   1534.52505279
_cell_formula_units_Z   8
loop_
 _symmetry_equiv_pos_site_id
 _symmetry_equiv_pos_as_xyz
  1  'x, y, z'
loop_
 _atom_site_type_symbol
 _atom_site_label
 _atom_site_symmetry_multiplicity
 _atom_site_fract_x
 _atom_site_fract_y
 _atom_site_fract_z
 _atom_site_occupancy
  Ce  Ce0  1  0.10796261  0.88486544  0.68585240  1
  Ce  Ce1  1  0.89203739  0.11513456  0.18585240  1
  Ce  Ce2  1  0.39203739  0.88486544  0.18585240  1
  Ce  Ce3  1  0.60796261  0.11513456  0.68585240  1
  Ce  Ce4  1  0.12575531  0.38382969  0.32606629  1
  Ce  Ce5  1  0.87424469  0.61617031  0.82606629  1
  Ce  Ce6  1  0.37424469  0.38382969  0.82606629  1
  Ce  Ce7  1  0.62575531  0.61617031  0.32606629  1
  Ce  Ce8  1  0.13346761  0.63025667  0.99291716  1
  Ce  Ce9  1  0.86653239  0.36974333  0.49291716  1
  Ce  Ce10  1  0.36653239  0.63025667  0.49291716  1
  Ce  Ce11  1  0.63346761  0.36974333  0.99291716  1
  Ce  Ce12  1  0.13442134  0.13037380  0.99300909  1
  Ce  Ce13  1  0.86557866  0.86962620  0.49300909  1
  Ce  Ce14  1  0.36557866  0.13037380  0.49300909  1
  Ce  Ce15  1  0.63442134  0.86962620  0.99300909  1
  Mg  Mg0  1  0.11072680  0.38457933  0.69249133  1
  Mg  Mg1  1  0.88927320  0.61542067  0.19249133  1
  Mg  Mg2  1  0.38927320  0.38457933  0.19249133  1
  Mg  Mg3  1  0.61072680  0.61542067  0.69249133  1
  Mg  Mg4  1  0.12508987  0.87983465  0.32022464  1
  Mg  Mg5  1  0.87491013  0.12016535  0.82022464  1
  Mg  Mg6  1  0.37491013  0.87983465  0.82022464  1
  Mg  Mg7  1  0.62508987  0.12016535  0.32022464  1
  Se  Se0  1  0.01078683  0.88067457  0.87967673  1
  Se  Se1  1  0.98921317  0.11932543  0.37967673  1
  Se  Se2  1  0.48921317  0.88067457  0.37967673  1
  Se  Se3  1  0.51078683  0.11932543  0.87967673  1
  Se  Se4  1  0.02829218  0.38145885  0.12932322  1
  Se  Se5  1  0.97170782  0.61854115  0.62932322  1
  Se  Se6  1  0.47170782  0.38145885  0.62932322  1
  Se  Se7  1  0.52829218  0.61854115  0.12932322  1
  Se  Se8  1  0.02382955  0.37295952  0.86822514  1
  Se  Se9  1  0.97617045  0.62704048  0.36822514  1
  Se  Se10  1  0.47617045  0.37295952  0.36822514  1
  Se  Se11  1  0.52382955  0.62704048  0.86822514  1
  Se  Se12  1  0.04518280  0.87373250  0.13966398  1
  Se  Se13  1  0.95481720  0.12626750  0.63966398  1
  Se  Se14  1  0.45481720  0.87373250  0.63966398  1
  Se  Se15  1  0.54518280  0.12626750  0.13966398  1
  Se  Se16  1  0.20857918  0.88085521  0.49765498  1
  Se  Se17  1  0.79142082  0.11914479  0.99765498  1
  Se  Se18  1  0.29142082  0.88085521  0.99765498  1
  Se  Se19  1  0.70857918  0.11914479  0.49765498  1
  Se  Se20  1  0.20980989  0.38173048  0.52255114  1
  Se  Se21  1  0.79019011  0.61826952  0.02255114  1
  Se  Se22  1  0.29019011  0.38173048  0.02255114  1
  Se  Se23  1  0.70980989  0.61826952  0.52255114  1
  Se  Se24  1  0.23242442  0.13422122  0.77313180  1
  Se  Se25  1  0.76757558  0.86577878  0.27313180  1
  Se  Se26  1  0.26757558  0.13422122  0.27313180  1
  Se  Se27  1  0.73242442  0.86577878  0.77313180  1
  Se  Se28  1  0.23346233  0.63659760  0.77621309  1
  Se  Se29  1  0.76653767  0.36340240  0.27621309  1
  Se  Se30  1  0.26653767  0.63659760  0.27621309  1
  Se  Se31  1  0.73346233  0.36340240  0.77621309  1
loop_
_geom_bond_atom_site_label_1
_geom_bond_atom_site_label_2
_geom_bond_distance
_geom_bond_site_symmetry_2
Ce0 Se24 2.916003 1_565
Ce0 Se16 2.921685 1_555
Ce0 Se28 2.935583 1_555
Ce0 Se13 2.948140 1_465
Ce0 Se0 2.968741 1_555
Ce0 Se5 2.972260 1_455
Ce1 Se25 2.916003 1_545
Ce1 Se17 2.921685 1_554
Ce1 Se29 2.935583 1_555
Ce1 Se12 2.948140 1_645
Ce1 Se1 2.968741 1_555
Ce1 Se4 2.972260 1_655
Ce2 Se26 2.916003 1_565
Ce2 Se18 2.921685 1_554
Ce2 Se30 2.935583 1_555
Ce2 Se15 2.948140 1_565
Ce2 Se2 2.968741 1_555
Ce2 Se7 2.972260 1_555
Ce3 Se27 2.916003 1_545
Ce3 Se19 2.921685 1_555
Ce3 Se31 2.935583 1_555
Ce3 Se14 2.948140 1_545
Ce3 Se3 2.968741 1_555
Ce3 Se6 2.972260 1_555
Ce4 Se30 2.908620 1_555
Ce4 Se26 2.909838 1_555
Ce4 Se9 2.912594 1_455
Ce4 Se20 2.926625 1_555
Ce4 Se1 2.953546 1_455
Ce4 Se4 3.006179 1_555
Ce5 Se31 2.908620 1_555
Ce5 Se27 2.909838 1_555
Ce5 Se8 2.912594 1_655
Ce5 Se21 2.926625 1_556
Ce5 Se0 2.953546 1_655
Ce5 Se5 3.006179 1_555
Ce6 Se28 2.908620 1_555
Ce6 Se24 2.909838 1_555
Ce6 Se11 2.912594 1_555
Ce6 Se22 2.926625 1_556
Ce6 Se3 2.953546 1_555
Ce6 Se6 3.006179 1_555
Ce7 Se29 2.908620 1_555
Ce7 Se25 2.909838 1_555
Ce7 Se10 2.912594 1_555
Ce7 Se23 2.926625 1_555
Ce7 Se2 2.953546 1_555
Ce7 Se7 3.006179 1_555
Ce8 Se18 2.979648 1_555
Ce8 Se22 2.982825 1_556
Ce8 Se0 3.071578 1_555
Ce8 Se12 3.080497 1_556
Ce8 Se8 3.101279 1_555
Ce8 Se4 3.118347 1_556
Ce8 Se28 3.268386 1_555
Ce9 Se19 2.979648 1_555
Ce9 Se23 2.982825 1_555
Ce9 Se1 3.071578 1_555
Ce9 Se13 3.080497 1_555
Ce9 Se9 3.101279 1_555
Ce9 Se5 3.118347 1_555
Ce9 Se29 3.268386 1_555
Ce10 Se16 2.979648 1_555
Ce10 Se20 2.982825 1_555
Ce10 Se2 3.071578 1_555
Ce10 Se14 3.080497 1_555
Ce10 Se10 3.101279 1_555
Ce10 Se6 3.118347 1_555
Ce10 Se30 3.268386 1_555
Ce11 Se17 2.979648 1_555
Ce11 Se21 2.982825 1_556
Ce11 Se3 3.071578 1_555
Ce11 Se15 3.080497 1_556
Ce11 Se11 3.101279 1_555
Ce11 Se7 3.118347 1_556
Ce11 Se31 3.268386 1_555
Ce12 Se18 2.964094 1_545
Ce12 Se22 2.989336 1_556
Ce12 Se8 3.027493 1_555
Ce12 Se0 3.075384 1_545
Ce12 Se4 3.135909 1_556
Ce12 Se12 3.155888 1_546
Ce12 Se24 3.296580 1_555
Ce13 Se19 2.964094 1_565
Ce13 Se23 2.989336 1_555
Ce13 Se9 3.027493 1_555
Ce13 Se1 3.075384 1_565
Ce13 Se5 3.135909 1_555
Ce13 Se13 3.155888 1_565
Ce13 Se25 3.296580 1_555
Ce14 Se16 2.964094 1_545
Ce14 Se20 2.989336 1_555
Ce14 Se10 3.027493 1_555
Ce14 Se2 3.075384 1_545
Ce14 Se6 3.135909 1_555
Ce14 Se14 3.155888 1_545
Ce14 Se26 3.296580 1_555
Ce15 Se17 2.964094 1_565
Ce15 Se21 2.989336 1_556
Ce15 Se11 3.027493 1_555
Ce15 Se3 3.075384 1_565
Ce15 Se7 3.135909 1_556
Ce15 Se15 3.155888 1_566
Ce15 Se27 3.296580 1_555
Mg0 Se8 2.685848 1_555
Mg0 Se20 2.692725 1_555
Mg0 Se5 2.834433 1_455
Mg0 Se24 2.863716 1_555
Mg0 Se28 2.898170 1_555
Mg0 Se13 3.089239 1_455
Mg1 Se9 2.685848 1_555
Mg1 Se21 2.692725 1_555
Mg1 Se4 2.834433 1_655
Mg1 Se25 2.863716 1_555
Mg1 Se29 2.898170 1_555
Mg1 Se12 3.089239 1_655
Mg2 Se10 2.685848 1_555
Mg2 Se22 2.692725 1_555
Mg2 Se7 2.834433 1_555
Mg2 Se26 2.863716 1_555
Mg2 Se30 2.898170 1_555
Mg2 Se15 3.089239 1_555
Mg3 Se11 2.685848 1_555
Mg3 Se23 2.692725 1_555
Mg3 Se6 2.834433 1_555
Mg3 Se27 2.863716 1_555
Mg3 Se31 2.898170 1_555
Mg3 Se14 3.089239 1_555
Mg4 Se16 2.685002 1_555
Mg4 Se12 2.704299 1_555
Mg4 Se1 2.822081 1_465
Mg4 Se30 2.841381 1_555
Mg4 Se26 2.924878 1_565
Mg4 Se9 2.977499 1_455
Mg5 Se17 2.685002 1_555
Mg5 Se13 2.704299 1_555
Mg5 Se0 2.822081 1_645
Mg5 Se31 2.841381 1_555
Mg5 Se27 2.924878 1_545
Mg5 Se8 2.977499 1_655
Mg6 Se18 2.685002 1_555
Mg6 Se14 2.704299 1_555
Mg6 Se3 2.822081 1_565
Mg6 Se28 2.841381 1_555
Mg6 Se24 2.924878 1_565
Mg6 Se11 2.977499 1_555
Mg7 Se19 2.685002 1_555
Mg7 Se15 2.704299 1_555
Mg7 Se2 2.822081 1_545
Mg7 Se29 2.841381 1_555
Mg7 Se25 2.924878 1_545
Mg7 Se10 2.977499 1_555
