# generated using pymatgen
data_KSb
_symmetry_space_group_name_H-M   'P 1'
_cell_length_a   6.99911076
_cell_length_b   7.22698097
_cell_length_c   12.31412249
_cell_angle_alpha   97.08453605
_cell_angle_beta   90.00000000
_cell_angle_gamma   90.00000000
_symmetry_Int_Tables_number   1
_chemical_formula_structural   KSb
_chemical_formula_sum   'K8 Sb8'
_cell_volume   618.12285139
_cell_formula_units_Z   8
loop_
 _symmetry_equiv_pos_site_id
 _symmetry_equiv_pos_as_xyz
  1  'x, y, z'
loop_
 _atom_site_type_symbol
 _atom_site_label
 _atom_site_symmetry_multiplicity
 _atom_site_fract_x
 _atom_site_fract_y
 _atom_site_fract_z
 _atom_site_occupancy
  K  K0  1  0.39938013  0.11108419  0.33067805  1
  K  K1  1  0.89938013  0.38891581  0.16932195  1
  K  K2  1  0.60061987  0.88891581  0.66932295  1
  K  K3  1  0.10061987  0.61108419  0.83067705  1
  K  K4  1  0.66647237  0.79118522  0.03366973  1
  K  K5  1  0.16647237  0.70881478  0.46633027  1
  K  K6  1  0.33352763  0.20881478  0.96633027  1
  K  K7  1  0.83352763  0.29118522  0.53366973  1
  Sb  Sb0  1  0.89955077  0.96428864  0.28684116  1
  Sb  Sb1  1  0.39955077  0.53571136  0.21315884  1
  Sb  Sb2  1  0.10044923  0.03571136  0.71315884  1
  Sb  Sb3  1  0.60044923  0.46428864  0.78684116  1
  Sb  Sb4  1  0.16564109  0.80284797  0.12294882  1
  Sb  Sb5  1  0.66564109  0.69715203  0.37705118  1
  Sb  Sb6  1  0.83435891  0.19715203  0.87705118  1
  Sb  Sb7  1  0.33435891  0.30284797  0.62294882  1
loop_
_geom_bond_atom_site_label_1
_geom_bond_atom_site_label_2
_geom_bond_distance
_geom_bond_site_symmetry_2
K0 Sb1 3.550639 1_555
K0 Sb4 3.574419 1_545
K0 Sb5 3.628965 1_545
K0 Sb0 3.676160 1_445
K0 Sb0 3.678433 1_545
K0 Sb7 3.721644 1_555
K1 Sb0 3.550639 1_545
K1 Sb5 3.574419 1_555
K1 Sb4 3.628965 1_655
K1 Sb1 3.676160 1_555
K1 Sb1 3.678433 1_655
K1 Sb6 3.721644 1_554
K2 Sb3 3.550633 1_555
K2 Sb6 3.574411 1_565
K2 Sb7 3.628968 1_565
K2 Sb2 3.676158 1_665
K2 Sb2 3.678432 1_565
K2 Sb5 3.721655 1_555
K3 Sb2 3.550633 1_565
K3 Sb7 3.574411 1_555
K3 Sb6 3.628968 1_455
K3 Sb3 3.676158 1_555
K3 Sb3 3.678432 1_455
K3 Sb4 3.721655 1_556
K4 Sb1 3.576433 1_555
K4 Sb0 3.603277 1_555
K4 Sb3 3.641704 1_554
K4 Sb4 3.660480 1_655
K4 Sb4 3.671588 1_555
K4 Sb6 3.886378 1_564
K5 Sb0 3.576433 1_455
K5 Sb1 3.603277 1_555
K5 Sb2 3.641704 1_565
K5 Sb5 3.660480 1_555
K5 Sb5 3.671588 1_455
K5 Sb7 3.886378 1_555
K6 Sb3 3.576433 1_555
K6 Sb2 3.603277 1_555
K6 Sb1 3.641704 1_556
K6 Sb6 3.660480 1_455
K6 Sb6 3.671588 1_555
K6 Sb4 3.886378 1_546
K7 Sb2 3.576433 1_655
K7 Sb3 3.603277 1_555
K7 Sb0 3.641704 1_545
K7 Sb7 3.660480 1_555
K7 Sb7 3.671588 1_655
K7 Sb5 3.886378 1_555
Sb0 Sb5 2.858406 1_555
Sb0 Sb4 2.884795 1_655
Sb1 Sb4 2.858406 1_555
Sb1 Sb5 2.884795 1_555
Sb2 Sb7 2.858406 1_555
Sb2 Sb6 2.884795 1_455
Sb3 Sb6 2.858406 1_555
Sb3 Sb7 2.884795 1_555
