# generated using pymatgen
data_LiV(PO3)4
_symmetry_space_group_name_H-M   'P 1'
_cell_length_a   10.48555800
_cell_length_b   9.09849800
_cell_length_c   9.54888327
_cell_angle_alpha   89.02827136
_cell_angle_beta   90.00000000
_cell_angle_gamma   90.00000000
_symmetry_Int_Tables_number   1
_chemical_formula_structural   LiV(PO3)4
_chemical_formula_sum   'Li4 V4 P16 O48'
_cell_volume   910.85945905
_cell_formula_units_Z   4
loop_
 _symmetry_equiv_pos_site_id
 _symmetry_equiv_pos_as_xyz
  1  'x, y, z'
loop_
 _atom_site_type_symbol
 _atom_site_label
 _atom_site_symmetry_multiplicity
 _atom_site_fract_x
 _atom_site_fract_y
 _atom_site_fract_z
 _atom_site_occupancy
  Li  Li0  1  0.18445200  0.11047500  0.74997500  1
  Li  Li1  1  0.32947500  0.38134400  0.25049200  1
  Li  Li2  1  0.82947500  0.61865600  0.74950800  1
  Li  Li3  1  0.68445200  0.88952500  0.25002500  1
  V  V0  1  0.28732700  0.74319800  0.26206400  1
  V  V1  1  0.78732700  0.25680200  0.73793600  1
  V  V2  1  0.71151600  0.25401000  0.23703300  1
  V  V3  1  0.21151600  0.74599000  0.76296700  1
  P  P0  1  0.88805900  0.06113600  0.45491500  1
  P  P1  1  0.51708000  0.24616000  0.51815200  1
  P  P2  1  0.61103400  0.74643600  0.54924600  1
  P  P3  1  0.98180500  0.24501400  0.01478400  1
  P  P4  1  0.88787900  0.73681100  0.05234800  1
  P  P5  1  0.89391800  0.46081900  0.46698300  1
  P  P6  1  0.01708000  0.75384000  0.48184800  1
  P  P7  1  0.38805900  0.93886400  0.54508500  1
  P  P8  1  0.60542700  0.45979600  0.95483700  1
  P  P9  1  0.39391800  0.53918100  0.53301700  1
  P  P10  1  0.11103400  0.25356400  0.45075400  1
  P  P11  1  0.61232800  0.05761300  0.96569800  1
  P  P12  1  0.38787900  0.26318900  0.94765200  1
  P  P13  1  0.48180500  0.75498600  0.98521600  1
  P  P14  1  0.10542700  0.54020400  0.04516300  1
  P  P15  1  0.11232800  0.94238700  0.03430200  1
  O  O0  1  0.13138500  0.59603800  0.89860900  1
  O  O1  1  0.53389800  0.59055000  0.56985900  1
  O  O2  1  0.12167100  0.75202400  0.37520100  1
  O  O3  1  0.20914700  0.57181700  0.15197500  1
  O  O4  1  0.70914700  0.42818300  0.84802500  1
  O  O5  1  0.27776100  0.92502900  0.64841500  1
  O  O6  1  0.37464600  0.75069500  0.88181900  1
  O  O7  1  0.44830400  0.74733500  0.13928300  1
  O  O8  1  0.42830700  0.10650300  0.54297600  1
  O  O9  1  0.37284000  0.26534300  0.10128900  1
  O  O10  1  0.05251800  0.73822400  0.63508500  1
  O  O11  1  0.07445600  0.11017700  0.04894900  1
  O  O12  1  0.47014800  0.40920100  0.89728200  1
  O  O13  1  0.94830400  0.25266500  0.86071700  1
  O  O14  1  0.55251800  0.26177600  0.36491500  1
  O  O15  1  0.86200900  0.43355600  0.62118600  1
  O  O16  1  0.62167100  0.24797600  0.62479900  1
  O  O17  1  0.48985100  0.13559100  0.90516800  1
  O  O18  1  0.98985100  0.86440900  0.09483200  1
  O  O19  1  0.63522300  0.08332800  0.12105400  1
  O  O20  1  0.21936000  0.26217600  0.35226500  1
  O  O21  1  0.28097800  0.24793900  0.84802600  1
  O  O22  1  0.00656100  0.13980200  0.38289600  1
  O  O23  1  0.36200900  0.56644400  0.37881400  1
  O  O24  1  0.08665600  0.36744600  0.04878900  1
  O  O25  1  0.87284000  0.73465700  0.89871100  1
  O  O26  1  0.86250600  0.11118300  0.60123500  1
  O  O27  1  0.29896400  0.59613300  0.63658200  1
  O  O28  1  0.41058200  0.36619600  0.55669300  1
  O  O29  1  0.72135300  0.09250000  0.86841400  1
  O  O30  1  0.57445600  0.88982300  0.95105100  1
  O  O31  1  0.78097800  0.75206100  0.15197400  1
  O  O32  1  0.22135300  0.90750000  0.13158600  1
  O  O33  1  0.87464600  0.24930500  0.11818100  1
  O  O34  1  0.03389800  0.40945000  0.43014100  1
  O  O35  1  0.92830700  0.89349700  0.45702400  1
  O  O36  1  0.13522300  0.91667200  0.87894600  1
  O  O37  1  0.71936000  0.73782400  0.64773500  1
  O  O38  1  0.79896400  0.40386700  0.36341800  1
  O  O39  1  0.36250600  0.88881700  0.39876500  1
  O  O40  1  0.91058200  0.63380400  0.44330700  1
  O  O41  1  0.12349200  0.21885000  0.60143900  1
  O  O42  1  0.63138500  0.40396200  0.10139100  1
  O  O43  1  0.50656100  0.86019800  0.61710400  1
  O  O44  1  0.62349200  0.78115000  0.39856100  1
  O  O45  1  0.58665600  0.63255400  0.95121100  1
  O  O46  1  0.77776100  0.07497100  0.35158500  1
  O  O47  1  0.97014800  0.59079900  0.10271800  1
loop_
_geom_bond_atom_site_label_1
_geom_bond_atom_site_label_2
_geom_bond_distance
_geom_bond_site_symmetry_2
Li0 O41 1.828977 1_555
Li0 O21 1.872172 1_555
Li0 O5 2.190926 1_545
Li0 O36 2.195165 1_545
Li1 O9 1.844325 1_555
Li1 O20 1.848629 1_555
Li1 O23 2.126995 1_555
Li1 O3 2.329147 1_555
Li2 O25 1.844325 1_555
Li2 O37 1.848629 1_555
Li2 O15 2.126995 1_555
Li2 O4 2.329147 1_555
Li3 O44 1.828977 1_555
Li3 O31 1.872172 1_555
Li3 O46 2.190926 1_565
Li3 O19 2.195165 1_565
O0 P14 1.505469 1_556
O0 V3 2.045744 1_555
O1 P9 1.581812 1_555
O1 P2 1.641679 1_555
O2 P6 1.496877 1_555
O2 V0 2.047843 1_555
O3 P14 1.521756 1_555
O3 V0 2.064977 1_555
O4 P8 1.521756 1_555
O4 V1 2.064977 1_555
O5 P7 1.524060 1_555
O5 V3 2.066916 1_555
O6 P13 1.496720 1_555
O6 V3 2.053614 1_555
O7 P13 1.512978 1_554
O7 V0 2.055143 1_555
O8 P7 1.582370 1_545
O8 P1 1.589662 1_555
O9 P12 1.475973 1_554
O10 P6 1.514031 1_555
O10 V3 2.068472 1_555
O11 P15 1.585913 1_545
O11 P3 1.594282 1_455
O12 P8 1.592046 1_555
O12 P12 1.648846 1_555
O13 P3 1.512978 1_556
O13 V1 2.055143 1_555
O14 P1 1.514031 1_555
O14 V2 2.068472 1_555
O15 P5 1.526186 1_555
O15 V1 2.093216 1_555
O16 P1 1.496877 1_555
O16 V1 2.047843 1_555
O17 P11 1.572516 1_555
O17 P12 1.634506 1_555
O18 P15 1.572516 1_655
O18 P4 1.634506 1_555
O19 P11 1.524745 1_554
O19 V2 2.082411 1_555
O20 P10 1.475900 1_555
O21 P12 1.478238 1_555
O22 P0 1.585080 1_455
O22 P10 1.647421 1_555
O23 P9 1.526186 1_555
O23 V0 2.093216 1_555
O24 P14 1.583909 1_555
O24 P3 1.602283 1_455
O25 P4 1.475973 1_556
O26 P0 1.500954 1_555
O26 V1 2.034547 1_555
O27 P9 1.501726 1_555
O27 V3 2.052341 1_555
O28 P9 1.595853 1_555
O28 P1 1.608993 1_555
O29 P11 1.503525 1_555
O29 V1 2.049981 1_555
O30 P11 1.585913 1_565
O30 P13 1.594282 1_555
O31 P4 1.478238 1_555
O32 P15 1.503525 1_555
O32 V0 2.049981 1_555
O33 P3 1.496720 1_555
O33 V2 2.053614 1_555
O34 P5 1.581812 1_455
O34 P10 1.641679 1_555
O35 P0 1.582370 1_565
O35 P6 1.589662 1_655
O36 P15 1.524745 1_556
O36 V3 2.082411 1_555
O37 P2 1.475900 1_555
O38 P5 1.501726 1_555
O38 V2 2.052341 1_555
O39 P7 1.500954 1_555
O39 V0 2.034547 1_555
O40 P5 1.595853 1_555
O40 P6 1.608993 1_655
O41 P10 1.473691 1_555
O42 P8 1.505469 1_554
O42 V2 2.045744 1_555
O43 P7 1.585080 1_555
O43 P2 1.647421 1_555
O44 P2 1.473691 1_555
O45 P8 1.583909 1_555
O45 P13 1.602283 1_555
O46 P0 1.524060 1_555
O46 V2 2.066916 1_555
O47 P14 1.592046 1_655
O47 P4 1.648846 1_555
