# generated using pymatgen
data_CaH16C4(N7O2)2
_symmetry_space_group_name_H-M   'P 1'
_cell_length_a   8.34901915
_cell_length_b   10.36628325
_cell_length_c   10.36628325
_cell_angle_alpha   80.28897809
_cell_angle_beta   77.00987463
_cell_angle_gamma   77.00987463
_symmetry_Int_Tables_number   1
_chemical_formula_structural   CaH16C4(N7O2)2
_chemical_formula_sum   'Ca2 H32 C8 N28 O8'
_cell_volume   845.23049867
_cell_formula_units_Z   2
loop_
 _symmetry_equiv_pos_site_id
 _symmetry_equiv_pos_as_xyz
  1  'x, y, z'
loop_
 _atom_site_type_symbol
 _atom_site_label
 _atom_site_symmetry_multiplicity
 _atom_site_fract_x
 _atom_site_fract_y
 _atom_site_fract_z
 _atom_site_occupancy
  Ca  Ca0  1  0.25000000  0.74828500  0.25171500  1
  Ca  Ca1  1  0.75000000  0.25171500  0.74828500  1
  H  H0  1  0.12713800  0.15607100  0.60708000  1
  H  H1  1  0.87286200  0.84392900  0.39292000  1
  H  H2  1  0.37286200  0.39292000  0.84392900  1
  H  H3  1  0.62713800  0.60708000  0.15607100  1
  H  H4  1  0.47025000  0.24985400  0.44876100  1
  H  H5  1  0.52975000  0.75014600  0.55123900  1
  H  H6  1  0.02975000  0.55123900  0.75014600  1
  H  H7  1  0.97025000  0.44876100  0.24985400  1
  H  H8  1  0.30938500  0.03485600  0.62961300  1
  H  H9  1  0.69061500  0.96514400  0.37038700  1
  H  H10  1  0.19061500  0.37038700  0.96514400  1
  H  H11  1  0.80938500  0.62961300  0.03485600  1
  H  H12  1  0.49170300  0.38522700  0.52257000  1
  H  H13  1  0.50829700  0.61477300  0.47743000  1
  H  H14  1  0.00829700  0.47743000  0.61477300  1
  H  H15  1  0.99170300  0.52257000  0.38522700  1
  H  H16  1  0.09253400  0.75428300  0.72102700  1
  H  H17  1  0.90746600  0.24571700  0.27897300  1
  H  H18  1  0.40746600  0.27897300  0.24571700  1
  H  H19  1  0.59253400  0.72102700  0.75428300  1
  H  H20  1  0.31885900  0.90779200  0.83107100  1
  H  H21  1  0.68114100  0.09220800  0.16892900  1
  H  H22  1  0.18114100  0.16892900  0.09220800  1
  H  H23  1  0.81885900  0.83107100  0.90779200  1
  H  H24  1  0.12973700  0.84354300  0.55984900  1
  H  H25  1  0.87026300  0.15645700  0.44015100  1
  H  H26  1  0.37026300  0.44015100  0.15645700  1
  H  H27  1  0.62973700  0.55984900  0.84354300  1
  H  H28  1  0.64331400  0.96170700  0.92151900  1
  H  H29  1  0.35668600  0.03829300  0.07848100  1
  H  H30  1  0.85668600  0.07848100  0.03829300  1
  H  H31  1  0.14331400  0.92151900  0.96170700  1
  C  C0  1  0.05849900  0.66713400  0.56893200  1
  C  C1  1  0.94150100  0.33286600  0.43106800  1
  C  C2  1  0.44150100  0.43106800  0.33286600  1
  C  C3  1  0.55849900  0.56893200  0.66713400  1
  C  C4  1  0.10991700  0.04200700  0.78891000  1
  C  C5  1  0.89008300  0.95799300  0.21109000  1
  C  C6  1  0.39008300  0.21109000  0.95799300  1
  C  C7  1  0.60991700  0.78891000  0.04200700  1
  N  N0  1  0.19400900  0.94018300  0.86278000  1
  N  N1  1  0.80599100  0.05981800  0.13722000  1
  N  N2  1  0.30599100  0.13722000  0.05981800  1
  N  N3  1  0.69400900  0.86278000  0.94018300  1
  N  N4  1  0.18874000  0.07972000  0.66411400  1
  N  N5  1  0.81126000  0.92028000  0.33588600  1
  N  N6  1  0.31126000  0.33588600  0.92028000  1
  N  N7  1  0.68874000  0.66411400  0.07972000  1
  N  N8  1  0.46622600  0.34932800  0.44497200  1
  N  N9  1  0.53377400  0.65067200  0.55502800  1
  N  N10  1  0.03377400  0.55502800  0.65067200  1
  N  N11  1  0.96622600  0.44497200  0.34932800  1
  N  N12  1  0.36794000  0.99739800  0.36670500  1
  N  N13  1  0.63206000  0.00260200  0.63329500  1
  N  N14  1  0.13206000  0.63329500  0.00260200  1
  N  N15  1  0.86794000  0.36670500  0.99739800  1
  N  N16  1  0.55339900  0.91795600  0.64518000  1
  N  N17  1  0.44660100  0.08204400  0.35482000  1
  N  N18  1  0.94660100  0.35482000  0.08204400  1
  N  N19  1  0.05339900  0.64518000  0.91795600  1
  N  N20  1  0.28990100  0.91188300  0.38053300  1
  N  N21  1  0.71009900  0.08811700  0.61946700  1
  N  N22  1  0.21009900  0.61946700  0.08811700  1
  N  N23  1  0.78990100  0.38053300  0.91188300  1
  N  N24  1  0.07923100  0.77024200  0.62365100  1
  N  N25  1  0.92076900  0.22975800  0.37634900  1
  N  N26  1  0.42076900  0.37634900  0.22975800  1
  N  N27  1  0.57923100  0.62365100  0.77024200  1
  O  O0  1  0.03974600  0.90283900  0.16482500  1
  O  O1  1  0.96025400  0.09716100  0.83517500  1
  O  O2  1  0.46025400  0.83517500  0.09716100  1
  O  O3  1  0.53974600  0.16482500  0.90283900  1
  O  O4  1  0.05899100  0.67707000  0.44377600  1
  O  O5  1  0.94100900  0.32293000  0.55622400  1
  O  O6  1  0.44100900  0.55622400  0.32293000  1
  O  O7  1  0.55899100  0.44377600  0.67707000  1
loop_
_geom_bond_atom_site_label_1
_geom_bond_atom_site_label_2
_geom_bond_distance
_geom_bond_site_symmetry_2
Ca0 O0 2.327936 1_555
Ca0 O2 2.327936 1_555
Ca0 O6 2.378680 1_555
Ca0 O4 2.378680 1_555
Ca0 N20 2.447088 1_555
Ca0 N22 2.447088 1_555
Ca1 O3 2.327936 1_555
Ca1 O1 2.327936 1_555
Ca1 O5 2.378680 1_555
Ca1 O7 2.378680 1_555
Ca1 N21 2.447088 1_555
Ca1 N23 2.447088 1_555
H0 N4 1.018010 1_555
H1 N5 1.018010 1_555
H2 N6 1.018010 1_555
H3 N7 1.018010 1_555
H4 N8 1.018504 1_555
H5 N9 1.018504 1_555
H6 N10 1.018504 1_555
H7 N11 1.018504 1_555
H8 N4 1.020956 1_555
H9 N5 1.020956 1_555
H10 N6 1.020956 1_555
H11 N7 1.020956 1_555
H12 N8 1.021906 1_555
H13 N9 1.021906 1_555
H14 N10 1.021906 1_555
H15 N11 1.021906 1_555
H16 N24 1.021985 1_555
H17 N25 1.021985 1_555
H18 N26 1.021985 1_555
H19 N27 1.021985 1_555
H20 N0 1.016457 1_555
H21 N1 1.016456 1_555
H22 N2 1.016456 1_555
H23 N3 1.016457 1_555
H24 N24 1.020664 1_555
H25 N25 1.020664 1_555
H26 N26 1.020664 1_555
H27 N27 1.020664 1_555
H28 N3 1.021266 1_555
H29 N2 1.021264 1_555
H30 N1 1.021264 1_555
H31 N0 1.021266 1_555
C0 O4 1.283196 1_555
C0 N10 1.344671 1_555
C0 N24 1.351294 1_555
C1 O5 1.283196 1_555
C1 N11 1.344671 1_555
C1 N25 1.351294 1_555
C2 O6 1.283196 1_555
C2 N8 1.344671 1_555
C2 N26 1.351294 1_555
C3 O7 1.283196 1_555
C3 N9 1.344671 1_555
C3 N27 1.351294 1_555
C4 O1 1.272857 1_455
C4 N4 1.349745 1_555
C4 N0 1.352524 1_545
C5 O0 1.272857 1_655
C5 N5 1.349745 1_555
C5 N1 1.352530 1_565
C6 O3 1.272857 1_555
C6 N6 1.349745 1_555
C6 N2 1.352530 1_556
C7 O2 1.272857 1_555
C7 N7 1.349745 1_555
C7 N3 1.352524 1_554
N12 N17 1.184338 1_565
N12 N20 1.185623 1_555
N13 N16 1.184338 1_545
N13 N21 1.185623 1_555
N14 N19 1.184338 1_554
N14 N22 1.185623 1_555
N15 N18 1.184338 1_556
N15 N23 1.185623 1_555
