# generated using pymatgen
data_HfAsOs
_symmetry_space_group_name_H-M   'P 1'
_cell_length_a   6.59174644
_cell_length_b   6.59174644
_cell_length_c   3.98210200
_cell_angle_alpha   90.00000000
_cell_angle_beta   90.00000000
_cell_angle_gamma   120.00000442
_symmetry_Int_Tables_number   1
_chemical_formula_structural   HfAsOs
_chemical_formula_sum   'Hf3 As3 Os3'
_cell_volume   149.84559452
_cell_formula_units_Z   3
loop_
 _symmetry_equiv_pos_site_id
 _symmetry_equiv_pos_as_xyz
  1  'x, y, z'
loop_
 _atom_site_type_symbol
 _atom_site_label
 _atom_site_symmetry_multiplicity
 _atom_site_fract_x
 _atom_site_fract_y
 _atom_site_fract_z
 _atom_site_occupancy
  Hf  Hf0  1  0.41964800  0.41964800  0.50000000  1
  Hf  Hf1  1  0.58035200  0.00000000  0.50000000  1
  Hf  Hf2  1  0.00000000  0.58035200  0.50000000  1
  As  As0  1  0.66666700  0.33333300  0.00000000  1
  As  As1  1  0.33333300  0.66666700  0.00000000  1
  As  As2  1  0.00000000  0.00000000  0.50000000  1
  Os  Os0  1  0.75326300  0.75326300  0.00000000  1
  Os  Os1  1  0.24673700  0.00000000  0.00000000  1
  Os  Os2  1  0.00000000  0.24673700  0.00000000  1
loop_
_geom_bond_atom_site_label_1
_geom_bond_atom_site_label_2
_geom_bond_distance
_geom_bond_site_symmetry_2
Hf0 Os0 2.966538 1_555
Hf0 Os0 2.966538 1_556
Hf0 Os2 3.124490 1_556
Hf0 Os2 3.124490 1_555
Hf0 Os1 3.124490 1_556
Hf0 Os1 3.124490 1_555
Hf1 Os1 2.966538 1_555
Hf1 Os1 2.966538 1_556
Hf1 Os2 3.124490 1_655
Hf1 Os2 3.124490 1_656
Hf1 Os0 3.124491 1_546
Hf1 Os0 3.124491 1_545
Hf2 Os2 2.966538 1_555
Hf2 Os2 2.966538 1_556
Hf2 Os1 3.124490 1_565
Hf2 Os1 3.124490 1_566
Hf2 Os0 3.124491 1_456
Hf2 Os0 3.124491 1_455
As0 Os2 2.531394 1_655
As0 Os1 2.531398 1_555
As0 Os0 2.531401 1_555
As0 Hf1 2.804593 1_554
As0 Hf1 2.804593 1_555
As0 Hf2 2.804594 1_655
As0 Hf2 2.804594 1_654
As0 Hf0 2.804597 1_555
As0 Hf0 2.804597 1_554
As1 Os1 2.531394 1_565
As1 Os2 2.531398 1_555
As1 Os0 2.531401 1_555
As1 Hf2 2.804593 1_554
As1 Hf2 2.804593 1_555
As1 Hf1 2.804594 1_565
As1 Hf1 2.804594 1_564
As1 Hf0 2.804597 1_555
As1 Hf0 2.804597 1_554
As2 Os0 2.570905 1_446
As2 Os0 2.570905 1_445
As2 Os1 2.570905 1_555
As2 Os1 2.570905 1_556
As2 Os2 2.570905 1_555
As2 Os2 2.570905 1_556
As2 Hf0 2.766213 1_555
As2 Hf1 2.766213 1_455
As2 Hf2 2.766213 1_545
Os0 Os2 2.817055 1_665
Os0 Os1 2.817055 1_665
Os1 Os2 2.817056 1_555
