# generated using pymatgen
data_YbMgSe3
_symmetry_space_group_name_H-M   'P 1'
_cell_length_a   5.88789073
_cell_length_b   5.88789073
_cell_length_c   7.57070570
_cell_angle_alpha   80.29697890
_cell_angle_beta   80.29697890
_cell_angle_gamma   100.81878621
_symmetry_Int_Tables_number   1
_chemical_formula_structural   YbMgSe3
_chemical_formula_sum   'Yb2 Mg2 Se6'
_cell_volume   248.61226441
_cell_formula_units_Z   2
loop_
 _symmetry_equiv_pos_site_id
 _symmetry_equiv_pos_as_xyz
  1  'x, y, z'
loop_
 _atom_site_type_symbol
 _atom_site_label
 _atom_site_symmetry_multiplicity
 _atom_site_fract_x
 _atom_site_fract_y
 _atom_site_fract_z
 _atom_site_occupancy
  Yb  Yb0  1  0.18714100  0.18714100  0.60349000  1
  Yb  Yb1  1  0.81285900  0.81285900  0.39651000  1
  Mg  Mg0  1  0.29644600  0.70355400  0.00000000  1
  Mg  Mg1  1  0.70355400  0.29644600  0.00000000  1
  Se  Se0  1  0.04290700  0.61978200  0.73639800  1
  Se  Se1  1  0.95709300  0.38021800  0.26360200  1
  Se  Se2  1  0.38021800  0.95709300  0.26360200  1
  Se  Se3  1  0.61978200  0.04290700  0.73639800  1
  Se  Se4  1  0.47552700  0.47552700  0.26333800  1
  Se  Se5  1  0.52447300  0.52447300  0.73666200  1
loop_
_geom_bond_atom_site_label_1
_geom_bond_atom_site_label_2
_geom_bond_distance
_geom_bond_site_symmetry_2
Mg0 Se5 2.688267 1_554
Mg0 Se4 2.688267 1_555
Mg0 Se2 2.741167 1_555
Mg0 Se0 2.741167 1_554
Mg0 Se3 2.747088 1_564
Mg0 Se1 2.747088 1_455
Mg1 Se5 2.688267 1_554
Mg1 Se4 2.688267 1_555
Mg1 Se1 2.741167 1_555
Mg1 Se3 2.741167 1_554
Mg1 Se2 2.747088 1_545
Mg1 Se0 2.747088 1_654
Se0 Yb0 3.100109 1_555
Se0 Yb0 3.225965 1_565
Se0 Yb1 3.242715 1_455
Se1 Yb1 3.100109 1_555
Se1 Yb1 3.225965 1_545
Se1 Yb0 3.242715 1_655
Se2 Yb1 3.100109 1_555
Se2 Yb1 3.225965 1_455
Se2 Yb0 3.242715 1_565
Se3 Yb0 3.100109 1_555
Se3 Yb0 3.225965 1_655
Se3 Yb1 3.242715 1_545
Se4 Yb0 2.892694 1_555
Se4 Yb1 2.962316 1_555
Se5 Yb1 2.892694 1_555
Se5 Yb0 2.962316 1_555
