# generated using pymatgen
data_LiMg
_symmetry_space_group_name_H-M   'P 1'
_cell_length_a   6.22949669
_cell_length_b   6.22949669
_cell_length_c   30.33765606
_cell_angle_alpha   90.00000000
_cell_angle_beta   90.00000000
_cell_angle_gamma   119.99996872
_symmetry_Int_Tables_number   1
_chemical_formula_structural   LiMg
_chemical_formula_sum   'Li24 Mg24'
_cell_volume   1019.57390464
_cell_formula_units_Z   24
loop_
 _symmetry_equiv_pos_site_id
 _symmetry_equiv_pos_as_xyz
  1  'x, y, z'
loop_
 _atom_site_type_symbol
 _atom_site_label
 _atom_site_symmetry_multiplicity
 _atom_site_fract_x
 _atom_site_fract_y
 _atom_site_fract_z
 _atom_site_occupancy
  Li  Li0_0  1  0.16666650  0.33333350  0.41531308  1
  Li  Li0_1  1  0.16666650  0.33333350  0.91531308  1
  Li  Li0_2  1  0.16666650  0.83333350  0.41531308  1
  Li  Li0_3  1  0.16666650  0.83333350  0.91531308  1
  Li  Li0_4  1  0.66666650  0.33333350  0.41531308  1
  Li  Li0_5  1  0.66666650  0.33333350  0.91531308  1
  Li  Li0_6  1  0.66666650  0.83333350  0.41531308  1
  Li  Li0_7  1  0.66666650  0.83333350  0.91531308  1
  Li  Li1_0  1  0.00000000  0.00000000  0.33406704  1
  Li  Li1_1  1  0.00000000  0.00000000  0.83406704  1
  Li  Li1_2  1  0.00000000  0.50000000  0.33406704  1
  Li  Li1_3  1  0.00000000  0.50000000  0.83406704  1
  Li  Li1_4  1  0.50000000  0.00000000  0.33406704  1
  Li  Li1_5  1  0.50000000  0.00000000  0.83406704  1
  Li  Li1_6  1  0.50000000  0.50000000  0.33406704  1
  Li  Li1_7  1  0.50000000  0.50000000  0.83406704  1
  Li  Li2_0  1  0.16666650  0.33333350  0.08338813  1
  Li  Li2_1  1  0.16666650  0.33333350  0.58338812  1
  Li  Li2_2  1  0.16666650  0.83333350  0.08338813  1
  Li  Li2_3  1  0.16666650  0.83333350  0.58338812  1
  Li  Li2_4  1  0.66666650  0.33333350  0.08338813  1
  Li  Li2_5  1  0.66666650  0.33333350  0.58338812  1
  Li  Li2_6  1  0.66666650  0.83333350  0.08338813  1
  Li  Li2_7  1  0.66666650  0.83333350  0.58338812  1
  Mg  Mg0_0  1  0.00000000  0.00000000  0.00078629  1
  Mg  Mg0_1  1  0.00000000  0.00000000  0.50078629  1
  Mg  Mg0_2  1  0.00000000  0.50000000  0.00078629  1
  Mg  Mg0_3  1  0.00000000  0.50000000  0.50078629  1
  Mg  Mg0_4  1  0.50000000  0.00000000  0.00078629  1
  Mg  Mg0_5  1  0.50000000  0.00000000  0.50078629  1
  Mg  Mg0_6  1  0.50000000  0.50000000  0.00078629  1
  Mg  Mg0_7  1  0.50000000  0.50000000  0.50078629  1
  Mg  Mg1_0  1  0.16666650  0.33333350  0.25126682  1
  Mg  Mg1_1  1  0.16666650  0.33333350  0.75126682  1
  Mg  Mg1_2  1  0.16666650  0.83333350  0.25126682  1
  Mg  Mg1_3  1  0.16666650  0.83333350  0.75126682  1
  Mg  Mg1_4  1  0.66666650  0.33333350  0.25126682  1
  Mg  Mg1_5  1  0.66666650  0.33333350  0.75126682  1
  Mg  Mg1_6  1  0.66666650  0.83333350  0.25126682  1
  Mg  Mg1_7  1  0.66666650  0.83333350  0.75126682  1
  Mg  Mg2_0  1  0.00000000  0.00000000  0.16517765  1
  Mg  Mg2_1  1  0.00000000  0.00000000  0.66517764  1
  Mg  Mg2_2  1  0.00000000  0.50000000  0.16517765  1
  Mg  Mg2_3  1  0.00000000  0.50000000  0.66517764  1
  Mg  Mg2_4  1  0.50000000  0.00000000  0.16517765  1
  Mg  Mg2_5  1  0.50000000  0.00000000  0.66517764  1
  Mg  Mg2_6  1  0.50000000  0.50000000  0.16517765  1
  Mg  Mg2_7  1  0.50000000  0.50000000  0.66517764  1
loop_
_geom_bond_atom_site_label_1
_geom_bond_atom_site_label_2
_geom_bond_distance
_geom_bond_site_symmetry_2
Li0_0 Li1_2 3.051096 1_555
Li0_0 Li1_0 3.051098 1_555
Li0_0 Li1_6 3.051098 1_555
Li0_0 Li0_4 3.114748 1_455
Li0_0 Li0_2 3.114748 1_545
Li0_0 Li0_4 3.114748 1_555
Li0_0 Li0_2 3.114748 1_555
Li0_0 Li0_6 3.114750 1_555
Li0_0 Li0_6 3.114750 1_445
Li0_0 Mg0_3 3.155602 1_555
Li0_0 Mg0_7 3.155604 1_555
Li0_0 Mg0_1 3.155604 1_555
Li0_1 Li1_3 3.051096 1_555
Li0_1 Li1_7 3.051098 1_555
Li0_1 Li1_1 3.051098 1_555
Li0_1 Li0_5 3.114748 1_455
Li0_1 Li0_3 3.114748 1_545
Li0_1 Li0_3 3.114748 1_555
Li0_1 Li0_5 3.114748 1_555
Li0_1 Li0_7 3.114750 1_555
Li0_1 Li0_7 3.114750 1_445
Li0_1 Mg0_2 3.155602 1_556
Li0_1 Mg0_0 3.155604 1_556
Li0_1 Mg0_6 3.155604 1_556
Li0_2 Li1_0 3.051096 1_565
Li0_2 Li1_4 3.051098 1_565
Li0_2 Li1_2 3.051098 1_555
Li0_2 Li0_6 3.114748 1_555
Li0_2 Li0_6 3.114748 1_455
Li0_2 Li0_4 3.114750 1_565
Li0_2 Li0_4 3.114750 1_455
Li0_2 Mg0_1 3.155602 1_565
Li0_2 Mg0_5 3.155604 1_565
Li0_2 Mg0_3 3.155604 1_555
Li0_3 Li1_1 3.051096 1_565
Li0_3 Li1_5 3.051098 1_565
Li0_3 Li1_3 3.051098 1_555
Li0_3 Li0_7 3.114748 1_555
Li0_3 Li0_7 3.114748 1_455
Li0_3 Li0_5 3.114750 1_565
Li0_3 Li0_5 3.114750 1_455
Li0_3 Mg0_0 3.155602 1_566
Li0_3 Mg0_2 3.155604 1_556
Li0_3 Mg0_4 3.155604 1_566
Li0_4 Li1_6 3.051096 1_555
Li0_4 Li1_2 3.051098 1_655
Li0_4 Li1_4 3.051098 1_555
Li0_4 Li0_6 3.114748 1_545
Li0_4 Li0_6 3.114748 1_555
Li0_4 Mg0_7 3.155602 1_555
Li0_4 Mg0_5 3.155604 1_555
Li0_4 Mg0_3 3.155604 1_655
Li0_5 Li1_7 3.051096 1_555
Li0_5 Li1_3 3.051098 1_655
Li0_5 Li1_5 3.051098 1_555
Li0_5 Li0_7 3.114748 1_545
Li0_5 Li0_7 3.114748 1_555
Li0_5 Mg0_6 3.155602 1_556
Li0_5 Mg0_2 3.155604 1_656
Li0_5 Mg0_4 3.155604 1_556
Li0_6 Li1_4 3.051096 1_565
Li0_6 Li1_0 3.051098 1_665
Li0_6 Li1_6 3.051098 1_555
Li0_6 Mg0_5 3.155602 1_565
Li0_6 Mg0_7 3.155604 1_555
Li0_6 Mg0_1 3.155604 1_665
Li0_7 Li1_5 3.051096 1_565
Li0_7 Li1_1 3.051098 1_665
Li0_7 Li1_7 3.051098 1_555
Li0_7 Mg0_4 3.155602 1_566
Li0_7 Mg0_0 3.155604 1_666
Li0_7 Mg0_6 3.155604 1_556
Li1_0 Mg1_2 3.089311 1_545
Li1_0 Mg1_6 3.089314 1_445
Li1_0 Mg1_0 3.089314 1_555
Li1_0 Li1_4 3.114748 1_555
Li1_0 Li1_4 3.114748 1_455
Li1_0 Li1_2 3.114748 1_545
Li1_0 Li1_2 3.114748 1_555
Li1_0 Li1_6 3.114750 1_445
Li1_0 Li1_6 3.114750 1_555
Li1_1 Mg1_3 3.089311 1_545
Li1_1 Mg1_7 3.089314 1_445
Li1_1 Mg1_1 3.089314 1_555
Li1_1 Li1_3 3.114748 1_545
Li1_1 Li1_3 3.114748 1_555
Li1_1 Li1_5 3.114748 1_455
Li1_1 Li1_5 3.114748 1_555
Li1_1 Li1_7 3.114750 1_555
Li1_1 Li1_7 3.114750 1_445
Li1_2 Mg1_0 3.089311 1_555
Li1_2 Mg1_4 3.089314 1_455
Li1_2 Mg1_2 3.089314 1_555
Li1_2 Li1_6 3.114748 1_555
Li1_2 Li1_6 3.114748 1_455
Li1_2 Li1_4 3.114750 1_565
Li1_2 Li1_4 3.114750 1_455
Li1_3 Mg1_1 3.089311 1_555
Li1_3 Mg1_5 3.089314 1_455
Li1_3 Mg1_3 3.089314 1_555
Li1_3 Li1_7 3.114748 1_455
Li1_3 Li1_7 3.114748 1_555
Li1_3 Li1_5 3.114750 1_455
Li1_3 Li1_5 3.114750 1_565
Li1_4 Mg1_6 3.089311 1_545
Li1_4 Mg1_4 3.089314 1_555
Li1_4 Mg1_2 3.089314 1_545
Li1_4 Li1_6 3.114748 1_555
Li1_4 Li1_6 3.114748 1_545
Li1_5 Mg1_7 3.089311 1_545
Li1_5 Mg1_5 3.089314 1_555
Li1_5 Mg1_3 3.089314 1_545
Li1_5 Li1_7 3.114748 1_545
Li1_5 Li1_7 3.114748 1_555
Li1_6 Mg1_4 3.089311 1_555
Li1_6 Mg1_6 3.089314 1_555
Li1_6 Mg1_0 3.089314 1_555
Li1_7 Mg1_5 3.089311 1_555
Li1_7 Mg1_1 3.089314 1_555
Li1_7 Mg1_7 3.089314 1_555
Li2_0 Mg2_2 3.064431 1_555
Li2_0 Mg2_6 3.064433 1_555
Li2_0 Mg2_0 3.064433 1_555
Li2_0 Mg0_2 3.084420 1_555
Li2_0 Mg0_6 3.084422 1_555
Li2_0 Mg0_0 3.084422 1_555
Li2_0 Li2_2 3.114748 1_545
Li2_0 Li2_4 3.114748 1_455
Li2_0 Li2_2 3.114748 1_555
Li2_0 Li2_4 3.114748 1_555
Li2_0 Li2_6 3.114750 1_555
Li2_0 Li2_6 3.114750 1_445
Li2_1 Mg2_3 3.064431 1_555
Li2_1 Mg2_1 3.064433 1_555
Li2_1 Mg2_7 3.064433 1_555
Li2_1 Mg0_3 3.084420 1_555
Li2_1 Mg0_1 3.084422 1_555
Li2_1 Mg0_7 3.084422 1_555
Li2_1 Li2_5 3.114748 1_455
Li2_1 Li2_3 3.114748 1_545
Li2_1 Li2_5 3.114748 1_555
Li2_1 Li2_3 3.114748 1_555
Li2_1 Li2_7 3.114750 1_555
Li2_1 Li2_7 3.114750 1_445
Li2_2 Mg2_0 3.064431 1_565
Li2_2 Mg2_4 3.064433 1_565
Li2_2 Mg2_2 3.064433 1_555
Li2_2 Mg0_0 3.084420 1_565
Li2_2 Mg0_2 3.084422 1_555
Li2_2 Mg0_4 3.084422 1_565
Li2_2 Li2_6 3.114748 1_555
Li2_2 Li2_6 3.114748 1_455
Li2_2 Li2_4 3.114750 1_565
Li2_2 Li2_4 3.114750 1_455
Li2_3 Mg2_1 3.064431 1_565
Li2_3 Mg2_3 3.064433 1_555
Li2_3 Mg2_5 3.064433 1_565
Li2_3 Mg0_1 3.084420 1_565
Li2_3 Mg0_3 3.084422 1_555
Li2_3 Mg0_5 3.084422 1_565
Li2_3 Li2_7 3.114748 1_555
Li2_3 Li2_7 3.114748 1_455
Li2_3 Li2_5 3.114750 1_565
Li2_3 Li2_5 3.114750 1_455
Li2_4 Mg2_6 3.064431 1_555
Li2_4 Mg2_4 3.064433 1_555
Li2_4 Mg2_2 3.064433 1_655
Li2_4 Mg0_6 3.084420 1_555
Li2_4 Mg0_2 3.084422 1_655
Li2_4 Mg0_4 3.084422 1_555
Li2_4 Li2_6 3.114748 1_545
Li2_4 Li2_6 3.114748 1_555
Li2_5 Mg2_7 3.064431 1_555
Li2_5 Mg2_5 3.064433 1_555
Li2_5 Mg2_3 3.064433 1_655
Li2_5 Mg0_7 3.084420 1_555
Li2_5 Mg0_3 3.084422 1_655
Li2_5 Mg0_5 3.084422 1_555
Li2_5 Li2_7 3.114748 1_545
Li2_5 Li2_7 3.114748 1_555
Li2_6 Mg2_4 3.064431 1_565
Li2_6 Mg2_6 3.064433 1_555
Li2_6 Mg2_0 3.064433 1_665
Li2_6 Mg0_4 3.084420 1_565
Li2_6 Mg0_6 3.084422 1_555
Li2_6 Mg0_0 3.084422 1_665
Li2_7 Mg2_5 3.064431 1_565
Li2_7 Mg2_1 3.064433 1_665
Li2_7 Mg2_7 3.064433 1_555
Li2_7 Mg0_5 3.084420 1_565
Li2_7 Mg0_1 3.084422 1_665
Li2_7 Mg0_7 3.084422 1_555
Mg0_0 Mg0_4 3.114748 1_555
Mg0_0 Mg0_2 3.114748 1_545
Mg0_0 Mg0_4 3.114748 1_455
Mg0_0 Mg0_2 3.114748 1_555
Mg0_0 Mg0_6 3.114750 1_555
Mg0_0 Mg0_6 3.114750 1_445
Mg0_1 Mg0_5 3.114748 1_455
Mg0_1 Mg0_5 3.114748 1_555
Mg0_1 Mg0_3 3.114748 1_545
Mg0_1 Mg0_3 3.114748 1_555
Mg0_1 Mg0_7 3.114750 1_445
Mg0_1 Mg0_7 3.114750 1_555
Mg0_2 Mg0_6 3.114748 1_555
Mg0_2 Mg0_6 3.114748 1_455
Mg0_2 Mg0_4 3.114750 1_565
Mg0_2 Mg0_4 3.114750 1_455
Mg0_3 Mg0_7 3.114748 1_455
Mg0_3 Mg0_7 3.114748 1_555
Mg0_3 Mg0_5 3.114750 1_455
Mg0_3 Mg0_5 3.114750 1_565
Mg0_4 Mg0_6 3.114748 1_555
Mg0_4 Mg0_6 3.114748 1_545
Mg0_5 Mg0_7 3.114748 1_555
Mg0_5 Mg0_7 3.114748 1_545
Mg1_0 Mg1_4 3.114748 1_455
Mg1_0 Mg1_2 3.114748 1_545
Mg1_0 Mg1_4 3.114748 1_555
Mg1_0 Mg1_2 3.114748 1_555
Mg1_0 Mg1_6 3.114750 1_445
Mg1_0 Mg1_6 3.114750 1_555
Mg1_0 Mg2_2 3.170975 1_555
Mg1_0 Mg2_0 3.170977 1_555
Mg1_0 Mg2_6 3.170977 1_555
Mg1_1 Mg1_3 3.114748 1_545
Mg1_1 Mg1_5 3.114748 1_455
Mg1_1 Mg1_5 3.114748 1_555
Mg1_1 Mg1_3 3.114748 1_555
Mg1_1 Mg1_7 3.114750 1_555
Mg1_1 Mg1_7 3.114750 1_445
Mg1_1 Mg2_3 3.170975 1_555
Mg1_1 Mg2_1 3.170977 1_555
Mg1_1 Mg2_7 3.170977 1_555
Mg1_2 Mg1_6 3.114748 1_555
Mg1_2 Mg1_6 3.114748 1_455
Mg1_2 Mg1_4 3.114750 1_565
Mg1_2 Mg1_4 3.114750 1_455
Mg1_2 Mg2_0 3.170975 1_565
Mg1_2 Mg2_2 3.170977 1_555
Mg1_2 Mg2_4 3.170977 1_565
Mg1_3 Mg1_7 3.114748 1_555
Mg1_3 Mg1_7 3.114748 1_455
Mg1_3 Mg1_5 3.114750 1_565
Mg1_3 Mg1_5 3.114750 1_455
Mg1_3 Mg2_1 3.170975 1_565
Mg1_3 Mg2_5 3.170977 1_565
Mg1_3 Mg2_3 3.170977 1_555
Mg1_4 Mg1_6 3.114748 1_545
Mg1_4 Mg1_6 3.114748 1_555
Mg1_4 Mg2_6 3.170975 1_555
Mg1_4 Mg2_4 3.170977 1_555
Mg1_4 Mg2_2 3.170977 1_655
Mg1_5 Mg1_7 3.114748 1_545
Mg1_5 Mg1_7 3.114748 1_555
Mg1_5 Mg2_7 3.170975 1_555
Mg1_5 Mg2_5 3.170977 1_555
Mg1_5 Mg2_3 3.170977 1_655
Mg1_6 Mg2_4 3.170975 1_565
Mg1_6 Mg2_6 3.170977 1_555
Mg1_6 Mg2_0 3.170977 1_665
Mg1_7 Mg2_5 3.170975 1_565
Mg1_7 Mg2_1 3.170977 1_665
Mg1_7 Mg2_7 3.170977 1_555
Mg2_0 Mg2_2 3.114748 1_545
Mg2_0 Mg2_2 3.114748 1_555
Mg2_0 Mg2_4 3.114748 1_455
Mg2_0 Mg2_4 3.114748 1_555
Mg2_0 Mg2_6 3.114750 1_555
Mg2_0 Mg2_6 3.114750 1_445
Mg2_1 Mg2_5 3.114748 1_555
Mg2_1 Mg2_3 3.114748 1_555
Mg2_1 Mg2_5 3.114748 1_455
Mg2_1 Mg2_3 3.114748 1_545
Mg2_1 Mg2_7 3.114750 1_445
Mg2_1 Mg2_7 3.114750 1_555
Mg2_2 Mg2_6 3.114748 1_455
Mg2_2 Mg2_6 3.114748 1_555
Mg2_2 Mg2_4 3.114750 1_565
Mg2_2 Mg2_4 3.114750 1_455
Mg2_3 Mg2_7 3.114748 1_455
Mg2_3 Mg2_7 3.114748 1_555
Mg2_3 Mg2_5 3.114750 1_455
Mg2_3 Mg2_5 3.114750 1_565
Mg2_4 Mg2_6 3.114748 1_555
Mg2_4 Mg2_6 3.114748 1_545
Mg2_5 Mg2_7 3.114748 1_545
Mg2_5 Mg2_7 3.114748 1_555
