# generated using pymatgen
data_Zr2Pt
_symmetry_space_group_name_H-M   'P 1'
_cell_length_a   8.90791340
_cell_length_b   8.90791340
_cell_length_c   8.90791340
_cell_angle_alpha   60.00000000
_cell_angle_beta   60.00000000
_cell_angle_gamma   60.00000000
_symmetry_Int_Tables_number   1
_chemical_formula_structural   Zr2Pt
_chemical_formula_sum   'Zr16 Pt8'
_cell_volume   499.81922963
_cell_formula_units_Z   8
loop_
 _symmetry_equiv_pos_site_id
 _symmetry_equiv_pos_as_xyz
  1  'x, y, z'
loop_
 _atom_site_type_symbol
 _atom_site_label
 _atom_site_symmetry_multiplicity
 _atom_site_fract_x
 _atom_site_fract_y
 _atom_site_fract_z
 _atom_site_occupancy
  Zr  Zr0  1  0.12500000  0.62500000  0.62500000  1
  Zr  Zr1  1  0.62500000  0.12500000  0.62500000  1
  Zr  Zr2  1  0.62500000  0.62500000  0.12500000  1
  Zr  Zr3  1  0.62500000  0.62500000  0.62500000  1
  Zr  Zr4  1  0.81346162  0.81346162  0.18653838  1
  Zr  Zr5  1  0.18653838  0.18653838  0.81346162  1
  Zr  Zr6  1  0.81346162  0.18653838  0.81346162  1
  Zr  Zr7  1  0.18653838  0.81346162  0.18653838  1
  Zr  Zr8  1  0.18653838  0.81346162  0.81346162  1
  Zr  Zr9  1  0.81346162  0.18653838  0.18653838  1
  Zr  Zr10  1  0.43653838  0.43653838  0.06346162  1
  Zr  Zr11  1  0.06346162  0.06346162  0.43653838  1
  Zr  Zr12  1  0.43653838  0.06346162  0.43653838  1
  Zr  Zr13  1  0.06346162  0.43653838  0.06346162  1
  Zr  Zr14  1  0.06346162  0.43653838  0.43653838  1
  Zr  Zr15  1  0.43653838  0.06346162  0.06346162  1
  Pt  Pt0  1  0.79506984  0.40164405  0.40164405  1
  Pt  Pt1  1  0.40164405  0.79506984  0.40164405  1
  Pt  Pt2  1  0.40164405  0.40164405  0.79506984  1
  Pt  Pt3  1  0.40164405  0.40164405  0.40164405  1
  Pt  Pt4  1  0.45493016  0.84835595  0.84835595  1
  Pt  Pt5  1  0.84835595  0.45493016  0.84835595  1
  Pt  Pt6  1  0.84835595  0.84835595  0.45493016  1
  Pt  Pt7  1  0.84835595  0.84835595  0.84835595  1
loop_
_geom_bond_atom_site_label_1
_geom_bond_atom_site_label_2
_geom_bond_distance
_geom_bond_site_symmetry_2
Pt0 Zr14 2.737176 1_655
Pt0 Zr13 2.737186 1_655
Pt0 Zr11 2.737186 1_655
Pt0 Zr3 2.853526 1_555
Pt0 Zr2 2.853539 1_555
Pt0 Zr1 2.853539 1_555
Pt0 Zr4 3.227026 1_555
Pt0 Zr6 3.227026 1_555
Pt0 Zr9 3.227042 1_555
Pt1 Zr12 2.737176 1_565
Pt1 Zr15 2.737186 1_565
Pt1 Zr11 2.737186 1_565
Pt1 Zr3 2.853526 1_555
Pt1 Zr0 2.853539 1_555
Pt1 Zr2 2.853539 1_555
Pt1 Zr8 3.227026 1_555
Pt1 Zr4 3.227026 1_555
Pt1 Zr7 3.227042 1_555
Pt2 Zr10 2.737176 1_556
Pt2 Zr15 2.737186 1_556
Pt2 Zr13 2.737186 1_556
Pt2 Zr3 2.853526 1_555
Pt2 Zr0 2.853539 1_555
Pt2 Zr1 2.853539 1_555
Pt2 Zr8 3.227026 1_555
Pt2 Zr6 3.227026 1_555
Pt2 Zr5 3.227042 1_555
Pt3 Zr14 2.737193 1_555
Pt3 Zr12 2.737193 1_555
Pt3 Zr10 2.737193 1_555
Pt3 Zr2 2.853529 1_555
Pt3 Zr1 2.853529 1_555
Pt3 Zr0 2.853529 1_555
Pt3 Zr5 3.227032 1_555
Pt3 Zr9 3.227032 1_555
Pt3 Zr7 3.227032 1_555
Pt4 Zr8 2.737176 1_555
Pt4 Zr5 2.737186 1_565
Pt4 Zr7 2.737186 1_556
Pt4 Zr3 2.853526 1_555
Pt4 Zr1 2.853539 1_565
Pt4 Zr2 2.853539 1_556
Pt4 Zr12 3.227026 1_565
Pt4 Zr10 3.227026 1_556
Pt4 Zr15 3.227042 1_566
Pt5 Zr6 2.737176 1_555
Pt5 Zr5 2.737186 1_655
Pt5 Zr9 2.737186 1_556
Pt5 Zr3 2.853526 1_555
Pt5 Zr0 2.853539 1_655
Pt5 Zr2 2.853539 1_556
Pt5 Zr10 3.227026 1_556
Pt5 Zr14 3.227026 1_655
Pt5 Zr13 3.227042 1_656
Pt6 Zr4 2.737176 1_555
Pt6 Zr7 2.737186 1_655
Pt6 Zr9 2.737186 1_565
Pt6 Zr3 2.853526 1_555
Pt6 Zr0 2.853539 1_655
Pt6 Zr1 2.853539 1_565
Pt6 Zr14 3.227026 1_655
Pt6 Zr12 3.227026 1_565
Pt6 Zr11 3.227042 1_665
Pt7 Zr4 2.737193 1_556
Pt7 Zr8 2.737193 1_655
Pt7 Zr6 2.737193 1_565
Pt7 Zr0 2.853529 1_655
Pt7 Zr2 2.853529 1_556
Pt7 Zr1 2.853529 1_565
Pt7 Zr15 3.227032 1_566
Pt7 Zr11 3.227032 1_665
Pt7 Zr13 3.227032 1_656
