# generated using pymatgen
data_Al2Te4O11
_symmetry_space_group_name_H-M   'P 1'
_cell_length_a   7.50809163
_cell_length_b   6.85784957
_cell_length_c   9.54761210
_cell_angle_alpha   79.67713480
_cell_angle_beta   90.00000000
_cell_angle_gamma   90.00000000
_symmetry_Int_Tables_number   1
_chemical_formula_structural   Al2Te4O11
_chemical_formula_sum   'Al4 Te8 O22'
_cell_volume   483.64322519
_cell_formula_units_Z   2
loop_
 _symmetry_equiv_pos_site_id
 _symmetry_equiv_pos_as_xyz
  1  'x, y, z'
loop_
 _atom_site_type_symbol
 _atom_site_label
 _atom_site_symmetry_multiplicity
 _atom_site_fract_x
 _atom_site_fract_y
 _atom_site_fract_z
 _atom_site_occupancy
  Al  Al0  1  0.49812874  0.81847843  0.11399719  1
  Al  Al1  1  0.50187126  0.18152157  0.88600281  1
  Al  Al2  1  -0.00187126  0.18152157  0.38600281  1
  Al  Al3  1  0.00187126  0.81847843  0.61399719  1
  Te  Te0  1  0.63929960  0.35141505  0.17881359  1
  Te  Te1  1  0.36070040  0.64858495  0.82118641  1
  Te  Te2  1  0.13929960  0.64858495  0.32118641  1
  Te  Te3  1  0.86070040  0.35141505  0.67881359  1
  Te  Te4  1  0.64362918  0.82255815  0.41485861  1
  Te  Te5  1  0.35637082  0.17744185  0.58514139  1
  Te  Te6  1  0.14362918  0.17744185  0.08514139  1
  Te  Te7  1  0.85637082  0.82255815  0.91485861  1
  O  O0  1  0.35416481  0.66858994  0.01365469  1
  O  O1  1  0.64583519  0.33141006  0.98634531  1
  O  O2  1  0.85416481  0.33141006  0.48634531  1
  O  O3  1  0.14583519  0.66858994  0.51365469  1
  O  O4  1  0.86468410  0.94167703  0.45061706  1
  O  O5  1  0.13531590  0.05832297  0.54938294  1
  O  O6  1  0.36468410  0.05832297  0.04938294  1
  O  O7  1  0.63531590  0.94167703  0.95061706  1
  O  O8  1  0.87953179  0.28927507  0.21680013  1
  O  O9  1  0.12046821  0.71072493  0.78319987  1
  O  O10  1  0.37953179  0.71072493  0.28319987  1
  O  O11  1  0.62046821  0.28927507  0.71680013  1
  O  O12  1  -0.00000000  0.00000000  -0.00000000  1
  O  O13  1  0.50000000  0.00000000  0.50000000  1
  O  O14  1  0.63079614  0.96636755  0.23093207  1
  O  O15  1  0.36920386  0.03363245  0.76906793  1
  O  O16  1  0.13079614  0.03363245  0.26906793  1
  O  O17  1  0.86920386  0.96636755  0.73093207  1
  O  O18  1  0.68106916  0.62777073  0.15014245  1
  O  O19  1  0.31893084  0.37222927  0.84985755  1
  O  O20  1  0.18106916  0.37222927  0.34985755  1
  O  O21  1  0.81893084  0.62777073  0.65014245  1
loop_
_geom_bond_atom_site_label_1
_geom_bond_atom_site_label_2
_geom_bond_distance
_geom_bond_site_symmetry_2
Al0 O0 1.869677 1_555
Al0 O10 1.876401 1_555
Al0 O18 1.885309 1_555
Al0 O14 1.916518 1_555
Al0 O6 1.930331 1_565
Al0 O7 1.932790 1_554
Al1 O1 1.869677 1_555
Al1 O11 1.876401 1_555
Al1 O19 1.885309 1_555
Al1 O15 1.916518 1_555
Al1 O7 1.930331 1_545
Al1 O6 1.932790 1_556
Al2 O2 1.869677 1_455
Al2 O8 1.876401 1_455
Al2 O20 1.885309 1_555
Al2 O16 1.916518 1_555
Al2 O4 1.930331 1_445
Al2 O5 1.932790 1_555
Al3 O3 1.869677 1_555
Al3 O9 1.876401 1_555
Al3 O21 1.885309 1_455
Al3 O17 1.916518 1_455
Al3 O5 1.930331 1_565
Al3 O4 1.932790 1_455
O0 Te1 1.867726 1_554
O1 Te0 1.867726 1_556
O2 Te3 1.867726 1_555
O3 Te2 1.867726 1_555
O4 Te4 1.907470 1_555
O5 Te5 1.907470 1_555
O6 Te6 1.907470 1_555
O7 Te7 1.907470 1_555
O8 Te0 1.873774 1_555
O9 Te1 1.873774 1_555
O10 Te2 1.873774 1_555
O11 Te3 1.873774 1_555
O12 Te6 1.912850 1_555
O12 Te7 1.912850 1_444
O13 Te5 1.912850 1_555
O13 Te4 1.912850 1_545
O14 Te4 1.856066 1_555
O14 Te0 2.598755 1_565
O15 Te5 1.856066 1_555
O15 Te1 2.598755 1_545
O16 Te6 1.856066 1_555
O16 Te2 2.598755 1_545
O17 Te7 1.856066 1_555
O17 Te3 2.598755 1_565
O18 Te0 1.891866 1_555
O19 Te1 1.891866 1_555
O20 Te2 1.891866 1_555
O21 Te3 1.891866 1_555
