# generated using pymatgen
data_ThMg149
_symmetry_space_group_name_H-M   'P 1'
_cell_length_a   15.94795905
_cell_length_b   15.94796290
_cell_length_c   15.60625750
_cell_angle_alpha   90.00000000
_cell_angle_beta   90.00000000
_cell_angle_gamma   120.00001226
_symmetry_Int_Tables_number   1
_chemical_formula_structural   ThMg149
_chemical_formula_sum   'Th1 Mg149'
_cell_volume   3437.47600136
_cell_formula_units_Z   1
loop_
 _symmetry_equiv_pos_site_id
 _symmetry_equiv_pos_as_xyz
  1  'x, y, z'
loop_
 _atom_site_type_symbol
 _atom_site_label
 _atom_site_symmetry_multiplicity
 _atom_site_fract_x
 _atom_site_fract_y
 _atom_site_fract_z
 _atom_site_occupancy
  Th  Th0  1  0.00000000  0.00000000  0.00000000  1
  Mg  Mg0  1  0.60005508  0.20011015  0.00000000  1
  Mg  Mg1  1  0.79918187  0.20081713  0.00000000  1
  Mg  Mg2  1  0.40163526  0.20081713  0.00000000  1
  Mg  Mg3  1  0.20331672  0.20710656  0.00000000  1
  Mg  Mg4  1  0.00378984  0.20710656  0.00000000  1
  Mg  Mg5  1  0.79988985  0.39994492  0.00000000  1
  Mg  Mg6  1  0.60005508  0.39994492  0.00000000  1
  Mg  Mg7  1  0.40038430  0.40058453  0.00000000  1
  Mg  Mg8  1  0.00020023  0.40058553  0.00000000  1
  Mg  Mg9  1  0.20194464  0.40388927  0.00000000  1
  Mg  Mg10  1  0.79918187  0.59836474  0.00000000  1
  Mg  Mg11  1  0.59941447  0.59961470  0.00000000  1
  Mg  Mg12  1  0.00020023  0.59961470  0.00000000  1
  Mg  Mg13  1  0.20064179  0.60032039  0.00000000  1
  Mg  Mg14  1  0.39967961  0.60032139  0.00000000  1
  Mg  Mg15  1  0.00378984  0.79668328  0.00000000  1
  Mg  Mg16  1  0.79289344  0.79668328  0.00000000  1
  Mg  Mg17  1  0.59610973  0.79805536  0.00000000  1
  Mg  Mg18  1  0.20194464  0.79805536  0.00000000  1
  Mg  Mg19  1  0.39967961  0.79935821  0.00000000  1
  Mg  Mg20  1  0.20331672  0.99621016  0.00000000  1
  Mg  Mg21  1  0.79289344  0.99621016  0.00000000  1
  Mg  Mg22  1  0.40038430  0.99979877  0.00000000  1
  Mg  Mg23  1  0.59941447  0.99979877  0.00000000  1
  Mg  Mg24  1  0.86867667  0.13132233  0.16392618  1
  Mg  Mg25  1  0.26264565  0.13132233  0.16392618  1
  Mg  Mg26  1  0.86867667  0.73735435  0.16392618  1
  Mg  Mg27  1  0.66666600  0.33333300  0.16609586  1
  Mg  Mg28  1  0.46537256  0.13291185  0.16648590  1
  Mg  Mg29  1  0.66753929  0.13291185  0.16648590  1
  Mg  Mg30  1  0.86708815  0.33246071  0.16648590  1
  Mg  Mg31  1  0.46537256  0.33246071  0.16648590  1
  Mg  Mg32  1  0.66753929  0.53462744  0.16648590  1
  Mg  Mg33  1  0.86708815  0.53462744  0.16648590  1
  Mg  Mg34  1  0.46660341  0.53339659  0.16730978  1
  Mg  Mg35  1  0.06679218  0.53339659  0.16730978  1
  Mg  Mg36  1  0.46660341  0.93320782  0.16730978  1
  Mg  Mg37  1  0.26721421  0.53442943  0.16738610  1
  Mg  Mg38  1  0.46557057  0.73278479  0.16738610  1
  Mg  Mg39  1  0.26721421  0.73278479  0.16738610  1
  Mg  Mg40  1  0.26807212  0.33629014  0.16792189  1
  Mg  Mg41  1  0.06821701  0.33629014  0.16792189  1
  Mg  Mg42  1  0.66370986  0.73192788  0.16792189  1
  Mg  Mg43  1  0.06821701  0.73192788  0.16792189  1
  Mg  Mg44  1  0.26807212  0.93178199  0.16792189  1
  Mg  Mg45  1  0.66370986  0.93178199  0.16792189  1
  Mg  Mg46  1  0.06865721  0.13731441  0.17081272  1
  Mg  Mg47  1  0.86268459  0.93134279  0.17081272  1
  Mg  Mg48  1  0.06865721  0.93134279  0.17081272  1
  Mg  Mg49  1  0.80013005  0.19986995  0.33268068  1
  Mg  Mg50  1  0.39973989  0.19986995  0.33268068  1
  Mg  Mg51  1  0.80013005  0.60026011  0.33268068  1
  Mg  Mg52  1  0.60004582  0.20009263  0.33286393  1
  Mg  Mg53  1  0.60004582  0.39995318  0.33286393  1
  Mg  Mg54  1  0.79990737  0.39995418  0.33286393  1
  Mg  Mg55  1  0.20084064  0.00017044  0.33362768  1
  Mg  Mg56  1  0.79932980  0.00017044  0.33362768  1
  Mg  Mg57  1  0.20084064  0.20066920  0.33362768  1
  Mg  Mg58  1  0.99982956  0.20066920  0.33362768  1
  Mg  Mg59  1  0.79932980  0.79915936  0.33362768  1
  Mg  Mg60  1  0.99982956  0.79915936  0.33362768  1
  Mg  Mg61  1  0.59972194  0.00021606  0.33373872  1
  Mg  Mg62  1  0.40049412  0.00021606  0.33373872  1
  Mg  Mg63  1  0.40049412  0.40027706  0.33373872  1
  Mg  Mg64  1  0.99978394  0.40027806  0.33373872  1
  Mg  Mg65  1  0.59972194  0.59950588  0.33373872  1
  Mg  Mg66  1  0.99978394  0.59950588  0.33373872  1
  Mg  Mg67  1  0.19997264  0.59998682  0.33388848  1
  Mg  Mg68  1  0.40001418  0.59998682  0.33388848  1
  Mg  Mg69  1  0.40001418  0.80002736  0.33388848  1
  Mg  Mg70  1  0.20027508  0.40055116  0.33422703  1
  Mg  Mg71  1  0.20027508  0.79972392  0.33422703  1
  Mg  Mg72  1  0.59944884  0.79972392  0.33422703  1
  Mg  Mg73  1  0.00000000  0.00000000  0.33466678  1
  Mg  Mg74  1  0.26704481  0.13352240  0.50000000  1
  Mg  Mg75  1  0.86647760  0.13352240  0.50000000  1
  Mg  Mg76  1  0.06680833  0.13361665  0.50000000  1
  Mg  Mg77  1  0.66727599  0.13439163  0.50000000  1
  Mg  Mg78  1  0.46711564  0.13439263  0.50000000  1
  Mg  Mg79  1  0.86560737  0.33272301  0.50000000  1
  Mg  Mg80  1  0.46711564  0.33272401  0.50000000  1
  Mg  Mg81  1  0.66666600  0.33333300  0.50000000  1
  Mg  Mg82  1  0.26678881  0.33361659  0.50000000  1
  Mg  Mg83  1  0.06682678  0.33361659  0.50000000  1
  Mg  Mg84  1  0.86560737  0.53288336  0.50000000  1
  Mg  Mg85  1  0.66727599  0.53288436  0.50000000  1
  Mg  Mg86  1  0.46699490  0.53300510  0.50000000  1
  Mg  Mg87  1  0.06601021  0.53300510  0.50000000  1
  Mg  Mg88  1  0.26670343  0.53340686  0.50000000  1
  Mg  Mg89  1  0.66638341  0.73321019  0.50000000  1
  Mg  Mg90  1  0.06682678  0.73321119  0.50000000  1
  Mg  Mg91  1  0.86647760  0.73295519  0.50000000  1
  Mg  Mg92  1  0.26670343  0.73329657  0.50000000  1
  Mg  Mg93  1  0.46659314  0.73329657  0.50000000  1
  Mg  Mg94  1  0.86638335  0.93319167  0.50000000  1
  Mg  Mg95  1  0.06680833  0.93319267  0.50000000  1
  Mg  Mg96  1  0.26678881  0.93317322  0.50000000  1
  Mg  Mg97  1  0.66638341  0.93317322  0.50000000  1
  Mg  Mg98  1  0.46699490  0.93398979  0.50000000  1
  Mg  Mg99  1  0.00000000  0.00000000  0.66533322  1
  Mg  Mg100  1  0.20027508  0.40055116  0.66577297  1
  Mg  Mg101  1  0.20027508  0.79972392  0.66577297  1
  Mg  Mg102  1  0.59944884  0.79972392  0.66577297  1
  Mg  Mg103  1  0.19997264  0.59998682  0.66611152  1
  Mg  Mg104  1  0.40001418  0.59998682  0.66611152  1
  Mg  Mg105  1  0.40001418  0.80002736  0.66611152  1
  Mg  Mg106  1  0.59972194  0.00021606  0.66626128  1
  Mg  Mg107  1  0.40049412  0.00021606  0.66626128  1
  Mg  Mg108  1  0.40049412  0.40027706  0.66626128  1
  Mg  Mg109  1  0.99978394  0.40027806  0.66626128  1
  Mg  Mg110  1  0.59972194  0.59950588  0.66626128  1
  Mg  Mg111  1  0.99978394  0.59950588  0.66626128  1
  Mg  Mg112  1  0.20084064  0.00017044  0.66637232  1
  Mg  Mg113  1  0.79932980  0.00017044  0.66637232  1
  Mg  Mg114  1  0.20084064  0.20066920  0.66637232  1
  Mg  Mg115  1  0.99982956  0.20066920  0.66637232  1
  Mg  Mg116  1  0.79932980  0.79915936  0.66637232  1
  Mg  Mg117  1  0.99982956  0.79915936  0.66637232  1
  Mg  Mg118  1  0.60004582  0.20009263  0.66713607  1
  Mg  Mg119  1  0.60004582  0.39995318  0.66713607  1
  Mg  Mg120  1  0.79990737  0.39995418  0.66713607  1
  Mg  Mg121  1  0.80013005  0.19986995  0.66732032  1
  Mg  Mg122  1  0.39973989  0.19986995  0.66732032  1
  Mg  Mg123  1  0.80013005  0.60026011  0.66732032  1
  Mg  Mg124  1  0.06865721  0.13731441  0.82918728  1
  Mg  Mg125  1  0.86268459  0.93134279  0.82918728  1
  Mg  Mg126  1  0.06865721  0.93134279  0.82918728  1
  Mg  Mg127  1  0.26807212  0.33629014  0.83207811  1
  Mg  Mg128  1  0.06821701  0.33629014  0.83207811  1
  Mg  Mg129  1  0.66370986  0.73192788  0.83207811  1
  Mg  Mg130  1  0.06821701  0.73192788  0.83207811  1
  Mg  Mg131  1  0.26807212  0.93178199  0.83207811  1
  Mg  Mg132  1  0.66370986  0.93178199  0.83207811  1
  Mg  Mg133  1  0.26721421  0.53442943  0.83261390  1
  Mg  Mg134  1  0.46557057  0.73278479  0.83261390  1
  Mg  Mg135  1  0.26721421  0.73278479  0.83261390  1
  Mg  Mg136  1  0.46660341  0.53339659  0.83269022  1
  Mg  Mg137  1  0.06679218  0.53339659  0.83269022  1
  Mg  Mg138  1  0.46660341  0.93320782  0.83269022  1
  Mg  Mg139  1  0.46537256  0.13291185  0.83351310  1
  Mg  Mg140  1  0.66753929  0.13291185  0.83351310  1
  Mg  Mg141  1  0.86708815  0.33246071  0.83351310  1
  Mg  Mg142  1  0.46537256  0.33246071  0.83351310  1
  Mg  Mg143  1  0.66753929  0.53462744  0.83351310  1
  Mg  Mg144  1  0.86708815  0.53462744  0.83351310  1
  Mg  Mg145  1  0.66666600  0.33333300  0.83390414  1
  Mg  Mg146  1  0.86867667  0.13132233  0.83607382  1
  Mg  Mg147  1  0.26264565  0.13132233  0.83607382  1
  Mg  Mg148  1  0.86867667  0.73735435  0.83607382  1
loop_
_geom_bond_atom_site_label_1
_geom_bond_atom_site_label_2
_geom_bond_distance
_geom_bond_site_symmetry_2
Mg0 Mg1 3.170043 1_555
Mg0 Mg2 3.170044 1_555
Mg0 Mg27 3.178791 1_555
Mg0 Mg145 3.178791 1_554
Mg0 Mg5 3.186957 1_555
Mg0 Mg6 3.186957 1_555
Mg0 Mg22 3.189462 1_545
Mg0 Mg23 3.189463 1_545
Mg0 Mg28 3.195450 1_555
Mg0 Mg29 3.195451 1_555
Mg0 Mg139 3.195463 1_554
Mg0 Mg140 3.195463 1_554
Mg1 Mg5 3.170052 1_555
Mg1 Mg29 3.171367 1_555
Mg1 Mg30 3.171375 1_555
Mg1 Mg140 3.171379 1_554
Mg1 Mg141 3.171388 1_554
Mg1 Mg23 3.195904 1_545
Mg1 Mg8 3.195912 1_655
Mg1 Mg146 3.198399 1_554
Mg1 Mg24 3.198399 1_555
Mg1 Mg21 3.214094 1_545
Mg1 Mg4 3.214102 1_655
Mg2 Mg6 3.170051 1_555
Mg2 Mg28 3.171367 1_555
Mg2 Mg31 3.171375 1_555
Mg2 Mg22 3.195905 1_545
Mg2 Mg7 3.195905 1_555
Mg2 Mg25 3.198399 1_555
Mg2 Mg20 3.214093 1_545
Mg2 Mg3 3.214102 1_555
Mg3 Mg7 3.114597 1_555
Mg3 Mg9 3.149281 1_555
Mg3 Mg40 3.170344 1_555
Mg3 Mg4 3.182047 1_555
Mg3 Mg46 3.250648 1_555
Mg3 Th0 3.273125 1_555
Mg4 Mg8 3.114614 1_555
Mg4 Mg9 3.149280 1_555
Mg4 Mg41 3.170344 1_555
Mg4 Mg46 3.250648 1_555
Mg4 Th0 3.273126 1_555
Mg5 Mg6 3.186957 1_555
Mg5 Mg8 3.189446 1_655
Mg6 Mg7 3.189454 1_555
Mg7 Mg9 3.191386 1_555
Mg8 Mg9 3.191394 1_555
Mg10 Mg6 3.170043 1_555
Mg10 Mg5 3.170052 1_555
Mg10 Mg32 3.171367 1_555
Mg10 Mg33 3.171375 1_555
Mg10 Mg143 3.171379 1_554
Mg10 Mg144 3.171388 1_554
Mg10 Mg11 3.195896 1_555
Mg10 Mg12 3.195912 1_655
Mg10 Mg26 3.198399 1_555
Mg10 Mg148 3.198399 1_554
Mg10 Mg16 3.214094 1_555
Mg10 Mg15 3.214102 1_655
Mg11 Mg16 3.114613 1_555
Mg11 Mg7 3.174125 1_555
Mg11 Mg32 3.182971 1_555
Mg11 Mg143 3.182984 1_554
Mg11 Mg6 3.189447 1_555
Mg11 Mg136 3.190987 1_554
Mg11 Mg34 3.190987 1_555
Mg11 Mg14 3.191013 1_555
Mg11 Mg17 3.191403 1_555
Mg11 Mg42 3.195006 1_555
Mg11 Mg129 3.195006 1_554
Mg12 Mg15 3.114614 1_555
Mg12 Mg8 3.174110 1_555
Mg12 Mg33 3.182971 1_455
Mg12 Mg144 3.182983 1_454
Mg12 Mg5 3.189446 1_455
Mg12 Mg137 3.190979 1_554
Mg12 Mg35 3.190979 1_555
Mg12 Mg13 3.191022 1_555
Mg12 Mg18 3.191394 1_555
Mg12 Mg43 3.195006 1_555
Mg12 Mg130 3.195006 1_554
Mg13 Mg9 3.143117 1_555
Mg13 Mg18 3.143133 1_555
Mg13 Mg14 3.174239 1_555
Mg13 Mg19 3.174247 1_555
Mg13 Mg37 3.189208 1_555
Mg13 Mg133 3.189208 1_554
Mg13 Mg39 3.189216 1_555
Mg13 Mg135 3.189216 1_554
Mg13 Mg8 3.191013 1_555
Mg13 Mg137 3.199252 1_554
Mg13 Mg35 3.199252 1_555
Mg14 Mg17 3.143108 1_555
Mg14 Mg9 3.143132 1_555
Mg14 Mg19 3.174232 1_555
Mg14 Mg38 3.189208 1_555
Mg14 Mg37 3.189223 1_555
Mg14 Mg7 3.191030 1_555
Mg14 Mg34 3.199244 1_555
Mg15 Mg18 3.149281 1_555
Mg15 Mg26 3.169273 1_455
Mg15 Mg43 3.170337 1_555
Mg15 Mg20 3.182046 1_555
Mg15 Mg48 3.250648 1_555
Mg15 Th0 3.273126 1_565
Mg15 Mg16 3.363367 1_455
Mg16 Mg17 3.149297 1_555
Mg16 Mg26 3.169264 1_555
Mg16 Mg42 3.170344 1_555
Mg16 Mg21 3.182047 1_555
Mg16 Mg47 3.250648 1_555
Mg16 Th0 3.273125 1_665
Mg17 Mg19 3.143100 1_555
Mg17 Mg21 3.149288 1_555
Mg17 Mg38 3.174032 1_555
Mg17 Mg23 3.191371 1_555
Mg17 Mg45 3.206096 1_555
Mg17 Mg42 3.206104 1_555
Mg18 Mg19 3.143132 1_555
Mg18 Mg20 3.149281 1_555
Mg18 Mg39 3.174040 1_555
Mg18 Mg22 3.191378 1_555
Mg18 Mg44 3.206096 1_555
Mg18 Mg43 3.206104 1_555
Mg19 Mg38 3.189216 1_555
Mg19 Mg39 3.189223 1_555
Mg19 Mg23 3.191005 1_555
Mg19 Mg22 3.191014 1_555
Mg19 Mg36 3.199252 1_555
Mg20 Mg22 3.114605 1_555
Mg20 Mg25 3.169264 1_565
Mg20 Mg44 3.170344 1_555
Mg20 Mg48 3.250648 1_555
Mg20 Th0 3.273125 1_565
Mg20 Mg3 3.363368 1_565
Mg21 Mg23 3.114605 1_555
Mg21 Mg24 3.169264 1_565
Mg21 Mg45 3.170344 1_555
Mg21 Mg47 3.250640 1_555
Mg21 Th0 3.273125 1_665
Mg21 Mg4 3.363367 1_665
Mg22 Mg23 3.174125 1_555
Mg22 Mg28 3.182979 1_565
Mg22 Mg36 3.190979 1_555
Mg22 Mg44 3.194998 1_555
Mg23 Mg29 3.182979 1_565
Mg23 Mg36 3.190986 1_555
Mg23 Mg45 3.194999 1_555
Mg24 Mg47 3.144413 1_545
Mg24 Mg46 3.144428 1_655
Mg24 Mg4 3.169273 1_655
Mg24 Mg56 3.209171 1_555
Mg24 Mg58 3.209178 1_555
Mg24 Mg29 3.220728 1_555
Mg24 Mg30 3.220737 1_555
Mg24 Mg45 3.227005 1_545
Mg24 Mg41 3.227013 1_655
Mg24 Mg49 3.243634 1_555
Mg25 Mg48 3.144419 1_545
Mg25 Mg46 3.144428 1_555
Mg25 Mg3 3.169273 1_555
Mg25 Mg57 3.209171 1_555
Mg25 Mg55 3.209171 1_555
Mg25 Mg28 3.220728 1_555
Mg25 Mg31 3.220736 1_555
Mg25 Mg44 3.227006 1_545
Mg25 Mg40 3.227022 1_555
Mg25 Mg50 3.243633 1_555
Mg26 Mg48 3.144427 1_655
Mg26 Mg47 3.144428 1_555
Mg26 Mg59 3.209171 1_555
Mg26 Mg60 3.209178 1_555
Mg26 Mg32 3.220728 1_555
Mg26 Mg33 3.220737 1_555
Mg26 Mg42 3.227005 1_555
Mg26 Mg43 3.227005 1_655
Mg26 Mg51 3.243634 1_555
Mg27 Mg6 3.178791 1_555
Mg27 Mg5 3.178799 1_555
Mg27 Mg53 3.187491 1_555
Mg27 Mg52 3.187491 1_555
Mg27 Mg54 3.187499 1_555
Mg27 Mg28 3.203292 1_555
Mg27 Mg31 3.203292 1_555
Mg27 Mg32 3.203301 1_555
Mg27 Mg29 3.203301 1_555
Mg27 Mg33 3.203308 1_555
Mg27 Mg30 3.203308 1_555
Mg28 Mg50 3.175024 1_555
Mg28 Mg44 3.177594 1_545
Mg28 Mg31 3.182398 1_555
Mg28 Mg62 3.189429 1_555
Mg28 Mg52 3.194007 1_555
Mg28 Mg36 3.194758 1_545
Mg28 Mg29 3.224147 1_555
Mg29 Mg49 3.175024 1_555
Mg29 Mg45 3.177595 1_545
Mg29 Mg30 3.182397 1_555
Mg29 Mg61 3.189429 1_555
Mg29 Mg52 3.194016 1_555
Mg29 Mg36 3.194765 1_545
Mg30 Mg49 3.175024 1_555
Mg30 Mg41 3.177578 1_655
Mg30 Mg8 3.182971 1_655
Mg30 Mg64 3.189429 1_555
Mg30 Mg54 3.194016 1_555
Mg30 Mg35 3.194765 1_655
Mg30 Mg5 3.195451 1_555
Mg30 Mg33 3.224148 1_555
Mg31 Mg50 3.175024 1_555
Mg31 Mg40 3.177594 1_555
Mg31 Mg7 3.182971 1_555
Mg31 Mg63 3.189421 1_555
Mg31 Mg53 3.194007 1_555
Mg31 Mg34 3.194774 1_555
Mg31 Mg6 3.195450 1_555
Mg31 Mg32 3.224147 1_555
Mg32 Mg51 3.175024 1_555
Mg32 Mg42 3.177595 1_555
Mg32 Mg33 3.182397 1_555
Mg32 Mg65 3.189429 1_555
Mg32 Mg53 3.194016 1_555
Mg32 Mg34 3.194774 1_555
Mg32 Mg6 3.195451 1_555
Mg33 Mg51 3.175024 1_555
Mg33 Mg43 3.177586 1_655
Mg33 Mg66 3.189429 1_555
Mg33 Mg54 3.194008 1_555
Mg33 Mg35 3.194758 1_655
Mg33 Mg5 3.195451 1_555
Mg34 Mg40 3.154883 1_555
Mg34 Mg42 3.154883 1_555
Mg34 Mg65 3.182206 1_555
Mg34 Mg63 3.182214 1_555
Mg34 Mg68 3.184592 1_555
Mg34 Mg38 3.188104 1_555
Mg34 Mg37 3.188119 1_555
Mg34 Mg7 3.190995 1_555
Mg35 Mg41 3.154884 1_555
Mg35 Mg43 3.154884 1_555
Mg35 Mg66 3.182199 1_455
Mg35 Mg64 3.182206 1_455
Mg35 Mg67 3.184600 1_555
Mg35 Mg39 3.188111 1_555
Mg35 Mg37 3.188119 1_555
Mg35 Mg8 3.190987 1_555
Mg36 Mg44 3.154875 1_555
Mg36 Mg45 3.154891 1_555
Mg36 Mg62 3.182199 1_565
Mg36 Mg61 3.182206 1_565
Mg36 Mg69 3.184600 1_555
Mg36 Mg39 3.188127 1_555
Mg36 Mg38 3.188135 1_555
Mg37 Mg39 3.163364 1_555
Mg37 Mg38 3.163371 1_555
Mg37 Mg41 3.166791 1_555
Mg37 Mg40 3.166792 1_555
Mg37 Mg9 3.174040 1_555
Mg37 Mg67 3.180615 1_555
Mg37 Mg68 3.180623 1_555
Mg37 Mg70 3.193512 1_555
Mg38 Mg39 3.163379 1_555
Mg38 Mg42 3.166783 1_555
Mg38 Mg45 3.166791 1_555
Mg38 Mg68 3.180607 1_555
Mg38 Mg69 3.180615 1_555
Mg38 Mg72 3.193512 1_555
Mg39 Mg44 3.166792 1_555
Mg39 Mg43 3.166799 1_555
Mg39 Mg67 3.180607 1_555
Mg39 Mg69 3.180623 1_555
Mg39 Mg71 3.193512 1_555
Mg40 Mg63 3.169042 1_555
Mg40 Mg70 3.172303 1_555
Mg40 Mg46 3.177085 1_555
Mg40 Mg41 3.187281 1_555
Mg40 Mg57 3.193157 1_555
Mg40 Mg7 3.194998 1_555
Mg40 Mg9 3.206096 1_555
Mg41 Mg64 3.169034 1_455
Mg41 Mg70 3.172303 1_555
Mg41 Mg46 3.177094 1_555
Mg41 Mg58 3.193157 1_455
Mg41 Mg8 3.194998 1_555
Mg41 Mg9 3.206104 1_555
Mg42 Mg65 3.169043 1_555
Mg42 Mg72 3.172295 1_555
Mg42 Mg47 3.177077 1_555
Mg42 Mg45 3.187266 1_555
Mg42 Mg59 3.193149 1_555
Mg43 Mg66 3.169042 1_455
Mg43 Mg71 3.172303 1_555
Mg43 Mg48 3.177078 1_555
Mg43 Mg44 3.187273 1_555
Mg43 Mg60 3.193141 1_455
Mg44 Mg62 3.169042 1_565
Mg44 Mg71 3.172303 1_555
Mg44 Mg48 3.177085 1_555
Mg44 Mg55 3.193149 1_565
Mg45 Mg61 3.169042 1_565
Mg45 Mg72 3.172303 1_555
Mg45 Mg47 3.177069 1_555
Mg45 Mg56 3.193149 1_565
Mg46 Mg58 3.129076 1_455
Mg46 Mg57 3.129084 1_555
Mg46 Mg73 3.183662 1_555
Mg46 Th0 3.271530 1_555
Mg46 Mg48 3.284828 1_545
Mg46 Mg47 3.284835 1_445
Mg47 Mg56 3.129076 1_565
Mg47 Mg59 3.129084 1_555
Mg47 Mg73 3.183670 1_665
Mg47 Th0 3.271537 1_665
Mg47 Mg48 3.284843 1_655
Mg48 Mg55 3.129084 1_565
Mg48 Mg60 3.129084 1_455
Mg48 Mg73 3.183663 1_565
Mg48 Th0 3.271530 1_565
Mg49 Mg56 3.178473 1_555
Mg49 Mg58 3.178480 1_555
Mg49 Mg61 3.190146 1_555
Mg49 Mg64 3.190146 1_555
Mg49 Mg75 3.190187 1_555
Mg49 Mg79 3.191477 1_555
Mg49 Mg77 3.191484 1_555
Mg49 Mg52 3.192714 1_555
Mg49 Mg54 3.192714 1_555
Mg50 Mg57 3.178464 1_555
Mg50 Mg55 3.178472 1_555
Mg50 Mg63 3.190131 1_555
Mg50 Mg62 3.190147 1_555
Mg50 Mg74 3.190186 1_555
Mg50 Mg78 3.191477 1_555
Mg50 Mg80 3.191484 1_555
Mg50 Mg53 3.192698 1_555
Mg50 Mg52 3.192698 1_555
Mg51 Mg60 3.178472 1_555
Mg51 Mg59 3.178473 1_555
Mg51 Mg65 3.190146 1_555
Mg51 Mg66 3.190146 1_555
Mg51 Mg91 3.190187 1_555
Mg51 Mg85 3.191484 1_555
Mg51 Mg84 3.191485 1_555
Mg51 Mg54 3.192699 1_555
Mg51 Mg53 3.192713 1_555
Mg52 Mg62 3.185065 1_555
Mg52 Mg61 3.185074 1_555
Mg52 Mg53 3.187369 1_555
Mg52 Mg54 3.187384 1_555
Mg52 Mg78 3.189737 1_555
Mg52 Mg77 3.189745 1_555
Mg52 Mg81 3.192182 1_555
Mg53 Mg63 3.185057 1_555
Mg53 Mg65 3.185074 1_555
Mg53 Mg54 3.187376 1_555
Mg53 Mg80 3.189737 1_555
Mg53 Mg85 3.189745 1_555
Mg53 Mg81 3.192182 1_555
Mg54 Mg66 3.185065 1_555
Mg54 Mg64 3.185073 1_555
Mg54 Mg84 3.189729 1_555
Mg54 Mg79 3.189745 1_555
Mg54 Mg81 3.192190 1_555
Mg55 Mg96 3.180107 1_545
Mg55 Mg74 3.183350 1_555
Mg55 Mg62 3.183702 1_555
Mg55 Mg95 3.188787 1_545
Mg55 Mg71 3.192227 1_545
Mg55 Mg57 3.197547 1_555
Mg55 Mg73 3.201681 1_555
Mg55 Mg60 3.205716 1_445
Mg56 Mg97 3.180115 1_545
Mg56 Mg75 3.183350 1_555
Mg56 Mg61 3.183702 1_555
Mg56 Mg94 3.188787 1_545
Mg56 Mg72 3.192226 1_545
Mg56 Mg58 3.197554 1_555
Mg56 Mg73 3.201681 1_655
Mg56 Mg59 3.205717 1_545
Mg57 Mg82 3.180123 1_555
Mg57 Mg74 3.183342 1_555
Mg57 Mg63 3.183702 1_555
Mg57 Mg76 3.188787 1_555
Mg57 Mg70 3.192243 1_555
Mg57 Mg73 3.201673 1_555
Mg57 Mg58 3.205716 1_455
Mg58 Mg83 3.180123 1_655
Mg58 Mg75 3.183350 1_555
Mg58 Mg64 3.183719 1_555
Mg58 Mg76 3.188779 1_655
Mg58 Mg70 3.192226 1_655
Mg58 Mg73 3.201666 1_655
Mg59 Mg89 3.180115 1_555
Mg59 Mg91 3.183350 1_555
Mg59 Mg65 3.183702 1_555
Mg59 Mg94 3.188787 1_555
Mg59 Mg72 3.192218 1_555
Mg59 Mg60 3.197562 1_555
Mg59 Mg73 3.201681 1_665
Mg60 Mg90 3.180107 1_655
Mg60 Mg91 3.183350 1_555
Mg60 Mg66 3.183703 1_555
Mg60 Mg95 3.188795 1_655
Mg60 Mg71 3.192218 1_655
Mg60 Mg73 3.201682 1_665
Mg61 Mg98 3.176941 1_545
Mg61 Mg62 3.177277 1_555
Mg61 Mg97 3.184749 1_545
Mg61 Mg77 3.188534 1_555
Mg61 Mg69 3.188774 1_545
Mg61 Mg72 3.195275 1_545
Mg62 Mg98 3.176941 1_545
Mg62 Mg96 3.184757 1_545
Mg62 Mg78 3.188543 1_555
Mg62 Mg69 3.188783 1_545
Mg62 Mg71 3.195274 1_545
Mg63 Mg86 3.176949 1_555
Mg63 Mg65 3.177285 1_555
Mg63 Mg82 3.184757 1_555
Mg63 Mg80 3.188527 1_555
Mg63 Mg68 3.188799 1_555
Mg63 Mg70 3.195282 1_555
Mg64 Mg87 3.176941 1_655
Mg64 Mg66 3.177278 1_555
Mg64 Mg83 3.184749 1_655
Mg64 Mg79 3.188542 1_555
Mg64 Mg67 3.188782 1_655
Mg64 Mg70 3.195258 1_655
Mg65 Mg86 3.176941 1_555
Mg65 Mg89 3.184749 1_555
Mg65 Mg85 3.188535 1_555
Mg65 Mg68 3.188774 1_555
Mg65 Mg72 3.195259 1_555
Mg66 Mg87 3.176941 1_655
Mg66 Mg90 3.184757 1_655
Mg66 Mg84 3.188542 1_555
Mg66 Mg67 3.188774 1_655
Mg66 Mg71 3.195258 1_655
Mg67 Mg92 3.179685 1_555
Mg67 Mg88 3.179693 1_555
Mg67 Mg71 3.182995 1_555
Mg67 Mg70 3.183011 1_555
Mg67 Mg87 3.184913 1_555
Mg67 Mg69 3.190246 1_555
Mg67 Mg68 3.190254 1_555
Mg68 Mg93 3.179685 1_555
Mg68 Mg88 3.179693 1_555
Mg68 Mg72 3.182994 1_555
Mg68 Mg70 3.183018 1_555
Mg68 Mg86 3.184913 1_555
Mg68 Mg69 3.190239 1_555
Mg69 Mg93 3.179685 1_555
Mg69 Mg92 3.179693 1_555
Mg69 Mg72 3.183003 1_555
Mg69 Mg71 3.183019 1_555
Mg69 Mg98 3.184913 1_555
Mg70 Mg88 3.171747 1_555
Mg70 Mg83 3.176490 1_555
Mg70 Mg82 3.176491 1_555
Mg71 Mg92 3.171747 1_555
Mg71 Mg90 3.176490 1_555
Mg71 Mg96 3.176499 1_555
Mg72 Mg93 3.171747 1_555
Mg72 Mg89 3.176491 1_555
Mg72 Mg97 3.176499 1_555
Mg73 Mg95 3.172246 1_545
Mg73 Mg94 3.172254 1_445
Mg73 Mg76 3.172254 1_555
Mg74 Mg78 3.183805 1_555
Mg74 Mg80 3.183813 1_555
Mg74 Mg96 3.193122 1_545
Mg74 Mg82 3.193138 1_555
Mg74 Mg95 3.194107 1_545
Mg74 Mg76 3.194115 1_555
Mg75 Mg79 3.183806 1_555
Mg75 Mg77 3.183813 1_555
Mg75 Mg83 3.193129 1_655
Mg75 Mg97 3.193129 1_545
Mg75 Mg76 3.194115 1_655
Mg75 Mg94 3.194116 1_545
Mg76 Mg99 3.172254 1_555
Mg76 Mg82 3.189435 1_555
Mg76 Mg83 3.189445 1_555
Mg76 Mg95 3.196354 1_545
Mg76 Mg94 3.196369 1_445
Mg77 Mg79 3.162981 1_555
Mg77 Mg81 3.177585 1_555
Mg77 Mg78 3.192157 1_555
Mg77 Mg98 3.195038 1_545
Mg77 Mg97 3.201930 1_545
Mg78 Mg80 3.162981 1_555
Mg78 Mg81 3.177568 1_555
Mg78 Mg98 3.195055 1_545
Mg78 Mg96 3.201945 1_545
Mg79 Mg81 3.177584 1_555
Mg79 Mg84 3.192150 1_555
Mg79 Mg87 3.195054 1_655
Mg79 Mg83 3.201937 1_655
Mg80 Mg81 3.177576 1_555
Mg80 Mg85 3.192149 1_555
Mg80 Mg86 3.195039 1_555
Mg80 Mg82 3.201945 1_555
Mg81 Mg84 3.177576 1_555
Mg81 Mg85 3.177585 1_555
Mg82 Mg86 3.186379 1_555
Mg82 Mg88 3.186929 1_555
Mg82 Mg83 3.188986 1_555
Mg83 Mg87 3.186372 1_555
Mg83 Mg88 3.186936 1_555
Mg84 Mg85 3.162989 1_555
Mg84 Mg91 3.183822 1_555
Mg84 Mg87 3.195046 1_655
Mg84 Mg90 3.201953 1_655
Mg85 Mg91 3.183813 1_555
Mg85 Mg86 3.195038 1_555
Mg85 Mg89 3.201930 1_555
Mg86 Mg89 3.186371 1_555
Mg86 Mg88 3.197449 1_555
Mg86 Mg93 3.197449 1_555
Mg87 Mg90 3.186388 1_555
Mg87 Mg92 3.197448 1_555
Mg87 Mg88 3.197448 1_555
Mg88 Mg93 3.187833 1_555
Mg88 Mg92 3.187834 1_555
Mg89 Mg93 3.186936 1_555
Mg89 Mg97 3.189003 1_555
Mg89 Mg94 3.189443 1_555
Mg89 Mg91 3.193129 1_555
Mg90 Mg92 3.186944 1_555
Mg90 Mg96 3.188986 1_555
Mg90 Mg95 3.189444 1_555
Mg90 Mg91 3.193121 1_455
Mg91 Mg94 3.194116 1_555
Mg91 Mg95 3.194123 1_655
Mg92 Mg96 3.186945 1_555
Mg92 Mg93 3.187833 1_555
Mg92 Mg98 3.197448 1_555
Mg93 Mg97 3.186936 1_555
Mg93 Mg98 3.197449 1_555
Mg94 Mg99 3.172254 1_665
Mg94 Mg97 3.189444 1_555
Mg94 Mg95 3.196361 1_655
Mg95 Mg99 3.172246 1_565
Mg95 Mg96 3.189436 1_555
Mg96 Mg98 3.186387 1_555
Mg97 Mg98 3.186371 1_555
Mg100 Mg88 3.171747 1_555
Mg100 Mg128 3.172303 1_555
Mg100 Mg127 3.172303 1_555
Mg100 Mg83 3.176490 1_555
Mg100 Mg82 3.176491 1_555
Mg100 Mg103 3.183011 1_555
Mg100 Mg104 3.183018 1_555
Mg100 Mg115 3.192226 1_455
Mg100 Mg114 3.192243 1_555
Mg100 Mg133 3.193512 1_555
Mg100 Mg109 3.195258 1_455
Mg100 Mg108 3.195282 1_555
Mg101 Mg92 3.171747 1_555
Mg101 Mg130 3.172303 1_555
Mg101 Mg131 3.172303 1_555
Mg101 Mg90 3.176490 1_555
Mg101 Mg96 3.176499 1_555
Mg101 Mg103 3.182995 1_555
Mg101 Mg105 3.183019 1_555
Mg101 Mg117 3.192218 1_455
Mg101 Mg112 3.192227 1_565
Mg101 Mg135 3.193512 1_555
Mg101 Mg111 3.195258 1_455
Mg101 Mg107 3.195274 1_565
Mg102 Mg93 3.171747 1_555
Mg102 Mg129 3.172295 1_555
Mg102 Mg132 3.172303 1_555
Mg102 Mg89 3.176491 1_555
Mg102 Mg97 3.176499 1_555
Mg102 Mg104 3.182994 1_555
Mg102 Mg105 3.183003 1_555
Mg102 Mg116 3.192218 1_555
Mg102 Mg113 3.192226 1_565
Mg102 Mg134 3.193512 1_555
Mg102 Mg110 3.195259 1_555
Mg102 Mg106 3.195275 1_565
Mg103 Mg92 3.179685 1_555
Mg103 Mg88 3.179693 1_555
Mg103 Mg135 3.180607 1_555
Mg103 Mg133 3.180615 1_555
Mg103 Mg137 3.184600 1_555
Mg103 Mg87 3.184913 1_555
Mg103 Mg111 3.188774 1_455
Mg103 Mg109 3.188782 1_455
Mg103 Mg105 3.190246 1_555
Mg103 Mg104 3.190254 1_555
Mg104 Mg93 3.179685 1_555
Mg104 Mg88 3.179693 1_555
Mg104 Mg134 3.180607 1_555
Mg104 Mg133 3.180623 1_555
Mg104 Mg136 3.184592 1_555
Mg104 Mg86 3.184913 1_555
Mg104 Mg110 3.188774 1_555
Mg104 Mg108 3.188799 1_555
Mg104 Mg105 3.190239 1_555
Mg105 Mg93 3.179685 1_555
Mg105 Mg92 3.179693 1_555
Mg105 Mg134 3.180615 1_555
Mg105 Mg135 3.180623 1_555
Mg105 Mg138 3.184600 1_555
Mg105 Mg98 3.184913 1_555
Mg105 Mg106 3.188774 1_565
Mg105 Mg107 3.188783 1_565
Mg106 Mg132 3.169042 1_545
Mg106 Mg98 3.176941 1_545
Mg106 Mg107 3.177277 1_555
Mg106 Mg138 3.182206 1_545
Mg106 Mg113 3.183702 1_555
Mg106 Mg97 3.184749 1_545
Mg106 Mg118 3.185074 1_555
Mg106 Mg77 3.188534 1_555
Mg106 Mg140 3.189416 1_555
Mg106 Mg121 3.190146 1_555
Mg107 Mg131 3.169042 1_545
Mg107 Mg98 3.176941 1_545
Mg107 Mg138 3.182199 1_545
Mg107 Mg112 3.183702 1_555
Mg107 Mg96 3.184757 1_545
Mg107 Mg118 3.185065 1_555
Mg107 Mg78 3.188543 1_555
Mg107 Mg139 3.189416 1_555
Mg107 Mg122 3.190147 1_555
Mg108 Mg127 3.169042 1_555
Mg108 Mg86 3.176949 1_555
Mg108 Mg110 3.177285 1_555
Mg108 Mg136 3.182214 1_555
Mg108 Mg114 3.183702 1_555
Mg108 Mg82 3.184757 1_555
Mg108 Mg119 3.185057 1_555
Mg108 Mg80 3.188527 1_555
Mg108 Mg142 3.189408 1_555
Mg108 Mg122 3.190131 1_555
Mg109 Mg128 3.169034 1_655
Mg109 Mg87 3.176941 1_655
Mg109 Mg111 3.177278 1_555
Mg109 Mg137 3.182206 1_655
Mg109 Mg115 3.183719 1_555
Mg109 Mg83 3.184749 1_655
Mg109 Mg120 3.185073 1_555
Mg109 Mg79 3.188542 1_555
Mg109 Mg141 3.189416 1_555
Mg109 Mg121 3.190146 1_555
Mg110 Mg129 3.169043 1_555
Mg110 Mg86 3.176941 1_555
Mg110 Mg136 3.182206 1_555
Mg110 Mg116 3.183702 1_555
Mg110 Mg89 3.184749 1_555
Mg110 Mg119 3.185074 1_555
Mg110 Mg85 3.188535 1_555
Mg110 Mg143 3.189416 1_555
Mg110 Mg123 3.190146 1_555
Mg111 Mg130 3.169042 1_655
Mg111 Mg87 3.176941 1_655
Mg111 Mg137 3.182199 1_655
Mg111 Mg117 3.183703 1_555
Mg111 Mg90 3.184757 1_655
Mg111 Mg120 3.185065 1_555
Mg111 Mg84 3.188542 1_555
Mg111 Mg144 3.189416 1_555
Mg111 Mg123 3.190146 1_555
Mg112 Mg126 3.129084 1_545
Mg112 Mg122 3.178472 1_555
Mg112 Mg96 3.180107 1_545
Mg112 Mg74 3.183350 1_555
Mg112 Mg95 3.188787 1_545
Mg112 Mg131 3.193149 1_545
Mg112 Mg114 3.197547 1_555
Mg112 Mg99 3.201681 1_555
Mg112 Mg117 3.205716 1_445
Mg112 Mg147 3.209171 1_555
Mg113 Mg125 3.129076 1_545
Mg113 Mg121 3.178473 1_555
Mg113 Mg97 3.180115 1_545
Mg113 Mg75 3.183350 1_555
Mg113 Mg94 3.188787 1_545
Mg113 Mg132 3.193149 1_545
Mg113 Mg115 3.197554 1_555
Mg113 Mg99 3.201681 1_655
Mg113 Mg116 3.205717 1_545
Mg113 Mg146 3.209171 1_555
Mg114 Mg124 3.129084 1_555
Mg114 Mg122 3.178464 1_555
Mg114 Mg82 3.180123 1_555
Mg114 Mg74 3.183342 1_555
Mg114 Mg76 3.188787 1_555
Mg114 Mg127 3.193157 1_555
Mg114 Mg99 3.201673 1_555
Mg114 Mg115 3.205716 1_455
Mg114 Mg147 3.209171 1_555
Mg115 Mg124 3.129076 1_655
Mg115 Mg121 3.178480 1_555
Mg115 Mg83 3.180123 1_655
Mg115 Mg75 3.183350 1_555
Mg115 Mg76 3.188779 1_655
Mg115 Mg128 3.193157 1_655
Mg115 Mg99 3.201666 1_655
Mg115 Mg146 3.209178 1_555
Mg116 Mg125 3.129084 1_555
Mg116 Mg123 3.178473 1_555
Mg116 Mg89 3.180115 1_555
Mg116 Mg91 3.183350 1_555
Mg116 Mg94 3.188787 1_555
Mg116 Mg129 3.193149 1_555
Mg116 Mg117 3.197562 1_555
Mg116 Mg99 3.201681 1_665
Mg116 Mg148 3.209171 1_555
Mg117 Mg126 3.129084 1_655
Mg117 Mg123 3.178472 1_555
Mg117 Mg90 3.180107 1_655
Mg117 Mg91 3.183350 1_555
Mg117 Mg95 3.188795 1_655
Mg117 Mg130 3.193141 1_655
Mg117 Mg99 3.201682 1_665
Mg117 Mg148 3.209178 1_555
Mg118 Mg119 3.187369 1_555
Mg118 Mg120 3.187384 1_555
Mg118 Mg145 3.187491 1_555
Mg118 Mg78 3.189737 1_555
Mg118 Mg77 3.189745 1_555
Mg118 Mg81 3.192182 1_555
Mg118 Mg122 3.192698 1_555
Mg118 Mg121 3.192714 1_555
Mg118 Mg139 3.193995 1_555
Mg118 Mg140 3.194003 1_555
Mg119 Mg120 3.187376 1_555
Mg119 Mg145 3.187491 1_555
Mg119 Mg80 3.189737 1_555
Mg119 Mg85 3.189745 1_555
Mg119 Mg81 3.192182 1_555
Mg119 Mg122 3.192698 1_555
Mg119 Mg123 3.192713 1_555
Mg119 Mg142 3.193995 1_555
Mg119 Mg143 3.194003 1_555
Mg120 Mg145 3.187499 1_555
Mg120 Mg84 3.189729 1_555
Mg120 Mg79 3.189745 1_555
Mg120 Mg81 3.192190 1_555
Mg120 Mg123 3.192699 1_555
Mg120 Mg121 3.192714 1_555
Mg120 Mg144 3.193995 1_555
Mg120 Mg141 3.194003 1_555
Mg121 Mg140 3.174998 1_555
Mg121 Mg141 3.174999 1_555
Mg121 Mg75 3.190200 1_555
Mg121 Mg79 3.191489 1_555
Mg121 Mg77 3.191497 1_555
Mg121 Mg146 3.243621 1_555
Mg122 Mg142 3.174999 1_555
Mg122 Mg139 3.174999 1_555
Mg122 Mg74 3.190199 1_555
Mg122 Mg78 3.191489 1_555
Mg122 Mg80 3.191497 1_555
Mg122 Mg147 3.243621 1_555
Mg123 Mg143 3.174998 1_555
Mg123 Mg144 3.174999 1_555
Mg123 Mg91 3.190199 1_555
Mg123 Mg85 3.191497 1_555
Mg123 Mg84 3.191497 1_555
Mg123 Mg148 3.243621 1_555
Mg124 Mg147 3.144428 1_555
Mg124 Mg146 3.144428 1_455
Mg124 Mg127 3.177085 1_555
Mg124 Mg128 3.177094 1_555
Mg124 Mg99 3.183662 1_555
Mg124 Mg3 3.250648 1_556
Mg124 Mg4 3.250648 1_556
Mg124 Th0 3.271530 1_556
Mg124 Mg126 3.284828 1_545
Mg124 Mg125 3.284835 1_445
Mg125 Mg146 3.144413 1_565
Mg125 Mg148 3.144428 1_555
Mg125 Mg132 3.177069 1_555
Mg125 Mg129 3.177077 1_555
Mg125 Mg99 3.183670 1_665
Mg125 Mg21 3.250640 1_556
Mg125 Mg16 3.250648 1_556
Mg125 Th0 3.271537 1_666
Mg125 Mg126 3.284843 1_655
Mg126 Mg147 3.144419 1_565
Mg126 Mg148 3.144427 1_455
Mg126 Mg130 3.177078 1_555
Mg126 Mg131 3.177085 1_555
Mg126 Mg99 3.183663 1_565
Mg126 Mg20 3.250648 1_556
Mg126 Mg15 3.250648 1_556
Mg126 Th0 3.271530 1_566
Mg127 Mg136 3.154883 1_555
Mg127 Mg133 3.166792 1_555
Mg127 Mg3 3.170344 1_556
Mg127 Mg142 3.177594 1_555
Mg127 Mg128 3.187281 1_555
Mg127 Mg7 3.194998 1_556
Mg127 Mg9 3.206096 1_556
Mg127 Mg147 3.227022 1_555
Mg128 Mg137 3.154884 1_555
Mg128 Mg133 3.166791 1_555
Mg128 Mg4 3.170344 1_556
Mg128 Mg141 3.177578 1_455
Mg128 Mg8 3.194998 1_556
Mg128 Mg9 3.206104 1_556
Mg128 Mg146 3.227013 1_455
Mg129 Mg136 3.154883 1_555
Mg129 Mg134 3.166783 1_555
Mg129 Mg16 3.170344 1_556
Mg129 Mg143 3.177595 1_555
Mg129 Mg132 3.187266 1_555
Mg129 Mg17 3.206104 1_556
Mg129 Mg148 3.227005 1_555
Mg130 Mg137 3.154884 1_555
Mg130 Mg135 3.166799 1_555
Mg130 Mg15 3.170337 1_556
Mg130 Mg144 3.177586 1_455
Mg130 Mg131 3.187273 1_555
Mg130 Mg18 3.206104 1_556
Mg130 Mg148 3.227005 1_455
Mg131 Mg138 3.154875 1_555
Mg131 Mg135 3.166792 1_555
Mg131 Mg20 3.170344 1_556
Mg131 Mg139 3.177594 1_565
Mg131 Mg22 3.194998 1_556
Mg131 Mg18 3.206096 1_556
Mg131 Mg147 3.227006 1_565
Mg132 Mg138 3.154891 1_555
Mg132 Mg134 3.166791 1_555
Mg132 Mg21 3.170344 1_556
Mg132 Mg140 3.177595 1_565
Mg132 Mg23 3.194999 1_556
Mg132 Mg17 3.206096 1_556
Mg132 Mg146 3.227005 1_565
Mg133 Mg135 3.163364 1_555
Mg133 Mg134 3.163371 1_555
Mg133 Mg9 3.174040 1_556
Mg133 Mg137 3.188119 1_555
Mg133 Mg136 3.188119 1_555
Mg133 Mg14 3.189223 1_556
Mg134 Mg135 3.163379 1_555
Mg134 Mg17 3.174032 1_556
Mg134 Mg136 3.188104 1_555
Mg134 Mg138 3.188135 1_555
Mg134 Mg14 3.189208 1_556
Mg134 Mg19 3.189216 1_556
Mg135 Mg18 3.174040 1_556
Mg135 Mg137 3.188111 1_555
Mg135 Mg138 3.188127 1_555
Mg135 Mg19 3.189223 1_556
Mg136 Mg7 3.190995 1_556
Mg136 Mg143 3.194773 1_555
Mg136 Mg142 3.194774 1_555
Mg136 Mg14 3.199244 1_556
Mg137 Mg8 3.190987 1_556
Mg137 Mg144 3.194758 1_455
Mg137 Mg141 3.194765 1_455
Mg138 Mg22 3.190979 1_556
Mg138 Mg23 3.190986 1_556
Mg138 Mg139 3.194758 1_565
Mg138 Mg140 3.194765 1_565
Mg138 Mg19 3.199252 1_556
Mg139 Mg2 3.171380 1_556
Mg139 Mg142 3.182398 1_555
Mg139 Mg22 3.182992 1_546
Mg139 Mg145 3.203292 1_555
Mg139 Mg147 3.220728 1_555
Mg139 Mg140 3.224147 1_555
Mg140 Mg141 3.182397 1_555
Mg140 Mg23 3.182991 1_546
Mg140 Mg145 3.203301 1_555
Mg140 Mg146 3.220728 1_555
Mg141 Mg8 3.182983 1_656
Mg141 Mg5 3.195463 1_556
Mg141 Mg145 3.203308 1_555
Mg141 Mg146 3.220737 1_555
Mg141 Mg144 3.224148 1_555
Mg142 Mg2 3.171388 1_556
Mg142 Mg7 3.182984 1_556
Mg142 Mg6 3.195463 1_556
Mg142 Mg145 3.203292 1_555
Mg142 Mg147 3.220736 1_555
Mg142 Mg143 3.224147 1_555
Mg143 Mg144 3.182397 1_555
Mg143 Mg6 3.195463 1_556
Mg143 Mg145 3.203301 1_555
Mg143 Mg148 3.220728 1_555
Mg144 Mg5 3.195463 1_556
Mg144 Mg145 3.203308 1_555
Mg144 Mg148 3.220737 1_555
Mg145 Mg6 3.178791 1_556
Mg145 Mg5 3.178799 1_556
Mg146 Mg21 3.169264 1_546
Mg146 Mg4 3.169273 1_656
Mg147 Mg20 3.169264 1_546
Mg147 Mg3 3.169273 1_556
Mg147 Mg2 3.198399 1_556
Mg148 Mg16 3.169264 1_556
Mg148 Mg15 3.169273 1_656
