# generated using pymatgen
data_K7Hg31
_symmetry_space_group_name_H-M   'P 1'
_cell_length_a   11.09858356
_cell_length_b   11.09828224
_cell_length_c   10.41971886
_cell_angle_alpha   90.00000000
_cell_angle_beta   90.00000000
_cell_angle_gamma   120.00390292
_symmetry_Int_Tables_number   1
_chemical_formula_structural   K7Hg31
_chemical_formula_sum   'K7 Hg31'
_cell_volume   1111.45753061
_cell_formula_units_Z   1
loop_
 _symmetry_equiv_pos_site_id
 _symmetry_equiv_pos_as_xyz
  1  'x, y, z'
loop_
 _atom_site_type_symbol
 _atom_site_label
 _atom_site_symmetry_multiplicity
 _atom_site_fract_x
 _atom_site_fract_y
 _atom_site_fract_z
 _atom_site_occupancy
  K  K0  1  0.00007600  -0.00002385  0.00000000  1
  K  K1  1  0.33310695  0.66688308  0.00000000  1
  K  K2  1  0.16549267  0.33093660  0.50000000  1
  K  K3  1  0.66906508  0.83457291  0.50000000  1
  K  K4  1  0.16547372  0.83452190  0.50000000  1
  K  K5  1  0.66668089  0.33331486  0.79482351  1
  K  K6  1  0.66668089  0.33331486  0.20517649  1
  Hg  Hg0  1  0.39574250  0.33555462  0.00000000  1
  Hg  Hg1  1  0.66444659  0.06017123  0.00000000  1
  Hg  Hg2  1  0.93982101  0.60425823  0.00000000  1
  Hg  Hg3  1  0.93982658  0.33555037  0.00000000  1
  Hg  Hg4  1  0.66444325  0.60425243  0.00000000  1
  Hg  Hg5  1  0.39574043  0.06017383  0.00000000  1
  Hg  Hg6  1  0.17477286  0.34952592  0.82880177  1
  Hg  Hg7  1  0.65047050  0.82521929  0.82880093  1
  Hg  Hg8  1  0.17474438  0.82525104  0.82877327  1
  Hg  Hg9  1  0.17477286  0.34952592  0.17119823  1
  Hg  Hg10  1  0.65047050  0.82521929  0.17119907  1
  Hg  Hg11  1  0.17474438  0.82525104  0.17122673  1
  Hg  Hg12  1  0.85394227  0.70788099  0.73553710  1
  Hg  Hg13  1  0.29211479  0.14605316  0.73553620  1
  Hg  Hg14  1  0.85394940  0.14605412  0.73554090  1
  Hg  Hg15  1  0.49112336  0.98223289  0.68723621  1
  Hg  Hg16  1  0.49113118  0.50886703  0.68725104  1
  Hg  Hg17  1  0.01776430  0.50887002  0.68723775  1
  Hg  Hg18  1  0.49112336  0.98223289  0.31276379  1
  Hg  Hg19  1  0.01776430  0.50887002  0.31276225  1
  Hg  Hg20  1  0.49113118  0.50886703  0.31274896  1
  Hg  Hg21  1  0.85394227  0.70788099  0.26446290  1
  Hg  Hg22  1  0.85394940  0.14605412  0.26445910  1
  Hg  Hg23  1  0.29211479  0.14605316  0.26446380  1
  Hg  Hg24  1  0.00000196  -0.00000173  0.64044652  1
  Hg  Hg25  1  0.33334967  0.66664983  0.64594822  1
  Hg  Hg26  1  0.33334967  0.66664983  0.35405178  1
  Hg  Hg27  1  0.00000196  -0.00000173  0.35955348  1
  Hg  Hg28  1  0.76359124  0.52717101  0.50000000  1
  Hg  Hg29  1  0.47282583  0.23640423  0.50000000  1
  Hg  Hg30  1  0.76359202  0.23640261  0.50000000  1
loop_
_geom_bond_atom_site_label_1
_geom_bond_atom_site_label_2
_geom_bond_distance
_geom_bond_site_symmetry_2
Hg0 Hg4 2.981965 1_555
Hg0 Hg5 3.056242 1_555
Hg0 Hg9 3.098539 1_555
Hg0 Hg6 3.098539 1_554
Hg0 Hg23 3.304598 1_555
Hg0 Hg13 3.304598 1_554
Hg0 K5 3.699751 1_554
Hg0 K6 3.699751 1_555
Hg1 Hg5 2.982272 1_555
Hg1 Hg3 3.056101 1_555
Hg1 Hg10 3.098553 1_545
Hg1 Hg7 3.098553 1_544
Hg1 Hg22 3.304596 1_555
Hg1 Hg14 3.304596 1_554
Hg1 K5 3.699393 1_554
Hg1 K6 3.699393 1_555
Hg2 Hg3 2.982227 1_555
Hg2 Hg4 3.056271 1_555
Hg2 Hg8 3.098567 1_654
Hg2 Hg21 3.304663 1_555
Hg2 K5 3.699419 1_554
Hg2 K6 3.699419 1_555
Hg3 Hg6 3.098559 1_654
Hg3 Hg9 3.098559 1_655
Hg3 K5 3.699474 1_554
Hg3 K6 3.699474 1_555
Hg4 Hg7 3.098474 1_554
Hg4 K5 3.699667 1_554
Hg4 K6 3.699667 1_555
Hg5 Hg8 3.098570 1_544
Hg5 K5 3.699409 1_554
Hg5 K6 3.699409 1_555
Hg6 K2 3.430677 1_555
Hg6 K1 3.533462 1_556
Hg6 K0 3.803749 1_556
Hg7 K3 3.430672 1_555
Hg7 K1 3.533591 1_556
Hg7 K0 3.804307 1_666
Hg8 K4 3.430358 1_555
Hg8 K1 3.528603 1_556
Hg8 K0 3.802777 1_566
Hg9 K2 3.430677 1_555
Hg9 K1 3.533462 1_555
Hg9 K0 3.803749 1_555
Hg10 Hg4 3.098474 1_555
Hg10 Hg22 3.268151 1_565
Hg10 Hg21 3.268191 1_555
Hg10 K3 3.430672 1_555
Hg10 K1 3.533591 1_555
Hg10 K0 3.804307 1_665
Hg11 Hg2 3.098567 1_455
Hg11 Hg5 3.098570 1_565
Hg11 Hg23 3.267781 1_565
Hg11 Hg21 3.267870 1_455
Hg11 K4 3.430358 1_555
Hg11 K1 3.528603 1_555
Hg11 K0 3.802777 1_565
Hg12 Hg24 2.977251 1_665
Hg12 Hg28 3.006617 1_555
Hg12 Hg8 3.267870 1_655
Hg12 Hg7 3.268191 1_555
Hg12 Hg4 3.304604 1_556
Hg12 Hg2 3.304663 1_556
Hg12 K5 3.652579 1_555
Hg12 K4 3.884999 1_655
Hg12 K3 3.885338 1_555
Hg12 K0 3.933777 1_666
Hg13 Hg24 2.977279 1_555
Hg13 Hg29 3.006642 1_555
Hg13 Hg8 3.267781 1_545
Hg13 Hg6 3.268208 1_555
Hg13 Hg5 3.304693 1_556
Hg13 K5 3.652677 1_555
Hg13 K2 3.884881 1_555
Hg13 K4 3.884921 1_545
Hg13 K0 3.933451 1_556
Hg14 Hg24 2.977376 1_655
Hg14 Hg30 3.006699 1_555
Hg14 Hg6 3.268111 1_655
Hg14 Hg7 3.268151 1_545
Hg14 Hg3 3.304534 1_556
Hg14 K5 3.652480 1_555
Hg14 K3 3.884573 1_545
Hg14 K2 3.885057 1_655
Hg14 K0 3.934645 1_656
Hg15 Hg25 3.063432 1_555
Hg15 K5 3.555601 1_565
Hg15 K3 3.691721 1_555
Hg15 K4 3.691985 1_555
Hg16 Hg25 3.063494 1_555
Hg16 K5 3.555967 1_555
Hg16 K2 3.691951 1_555
Hg16 K3 3.692417 1_555
Hg17 Hg25 3.063538 1_555
Hg17 K5 3.555696 1_455
Hg17 K4 3.691937 1_555
Hg17 K2 3.692191 1_555
Hg18 Hg26 3.063432 1_555
Hg18 K6 3.555601 1_565
Hg18 K3 3.691721 1_555
Hg18 K4 3.691985 1_555
Hg19 Hg26 3.063538 1_555
Hg19 K6 3.555696 1_455
Hg19 K4 3.691937 1_555
Hg19 K2 3.692191 1_555
Hg20 Hg26 3.063494 1_555
Hg20 K6 3.555967 1_555
Hg20 K2 3.691951 1_555
Hg20 K3 3.692417 1_555
Hg21 Hg27 2.977251 1_665
Hg21 Hg28 3.006617 1_555
Hg21 Hg4 3.304604 1_555
Hg21 K6 3.652579 1_555
Hg21 K4 3.884999 1_655
Hg21 K3 3.885338 1_555
Hg21 K0 3.933777 1_665
Hg22 Hg27 2.977376 1_655
Hg22 Hg30 3.006699 1_555
Hg22 Hg9 3.268111 1_655
Hg22 Hg3 3.304534 1_555
Hg22 K6 3.652480 1_555
Hg22 K3 3.884573 1_545
Hg22 K2 3.885057 1_655
Hg22 K0 3.934645 1_655
Hg23 Hg27 2.977279 1_555
Hg23 Hg29 3.006642 1_555
Hg23 Hg9 3.268208 1_555
Hg23 Hg5 3.304693 1_555
Hg23 K6 3.652677 1_555
Hg23 K2 3.884881 1_555
Hg23 K4 3.884921 1_545
Hg23 K0 3.933451 1_555
Hg24 Hg27 2.926827 1_555
Hg24 K2 3.501162 1_555
Hg24 K3 3.501228 1_445
Hg24 K4 3.501457 1_545
Hg24 K0 3.746446 1_556
Hg25 Hg26 3.041479 1_555
Hg25 K2 3.566966 1_555
Hg25 K3 3.567064 1_555
Hg25 K4 3.567480 1_555
Hg25 K1 3.689123 1_556
Hg26 K2 3.566966 1_555
Hg26 K3 3.567064 1_555
Hg26 K4 3.567480 1_555
Hg26 K1 3.689123 1_555
Hg27 K2 3.501162 1_555
Hg27 K3 3.501228 1_445
Hg27 K4 3.501457 1_545
Hg27 K0 3.746446 1_555
Hg28 Hg29 3.226858 1_555
Hg28 Hg30 3.227034 1_555
Hg28 K6 3.592825 1_555
Hg28 K5 3.592825 1_555
Hg28 K4 4.039012 1_655
Hg28 K3 4.039734 1_555
Hg29 Hg30 3.227102 1_555
Hg29 K6 3.592846 1_555
Hg29 K5 3.592846 1_555
Hg29 K4 4.038960 1_545
Hg29 K2 4.039109 1_555
Hg30 K6 3.592732 1_555
Hg30 K5 3.592732 1_555
Hg30 K3 4.038520 1_545
Hg30 K2 4.039390 1_655
