# generated using pymatgen
data_Mg3Si4(MoO7)2
_symmetry_space_group_name_H-M   'P 1'
_cell_length_a   9.49239507
_cell_length_b   9.49239507
_cell_length_c   9.98993354
_cell_angle_alpha   59.22046147
_cell_angle_beta   59.22046147
_cell_angle_gamma   48.05290383
_symmetry_Int_Tables_number   1
_chemical_formula_structural   Mg3Si4(MoO7)2
_chemical_formula_sum   'Mg6 Si8 Mo4 O28'
_cell_volume   554.54621007
_cell_formula_units_Z   2
loop_
 _symmetry_equiv_pos_site_id
 _symmetry_equiv_pos_as_xyz
  1  'x, y, z'
loop_
 _atom_site_type_symbol
 _atom_site_label
 _atom_site_symmetry_multiplicity
 _atom_site_fract_x
 _atom_site_fract_y
 _atom_site_fract_z
 _atom_site_occupancy
  Mg  Mg0  1  0.07404600  0.28260900  0.09648200  1
  Mg  Mg1  1  0.71739100  0.92595400  0.40351800  1
  Mg  Mg2  1  0.28260900  0.07404600  0.59648200  1
  Mg  Mg3  1  0.37719700  0.62280300  0.75000000  1
  Mg  Mg4  1  0.92595400  0.71739100  0.90351800  1
  Mg  Mg5  1  0.62280300  0.37719700  0.25000000  1
  Si  Si0  1  0.52911900  0.09277500  0.71550300  1
  Si  Si1  1  0.09277500  0.52911900  0.21550300  1
  Si  Si2  1  0.51143700  0.24476000  0.10453200  1
  Si  Si3  1  0.24476000  0.51143700  0.60453200  1
  Si  Si4  1  0.90722500  0.47088100  0.78449700  1
  Si  Si5  1  0.48856300  0.75524000  0.89546800  1
  Si  Si6  1  0.75524000  0.48856300  0.39546800  1
  Si  Si7  1  0.47088100  0.90722500  0.28449700  1
  Mo  Mo0  1  0.79905700  0.20094300  0.75000000  1
  Mo  Mo1  1  0.20094300  0.79905700  0.25000000  1
  Mo  Mo2  1  0.00000000  0.00000000  0.00000000  1
  Mo  Mo3  1  0.00000000  0.00000000  0.50000000  1
  O  O0  1  0.84161100  0.30716400  0.32936700  1
  O  O1  1  0.92443700  0.91203600  0.41150100  1
  O  O2  1  0.48007200  0.62175600  0.08213900  1
  O  O3  1  0.91203600  0.92443700  0.91150100  1
  O  O4  1  0.26187000  0.95517600  0.30295100  1
  O  O5  1  0.06783400  0.50589300  0.61790700  1
  O  O6  1  0.62175600  0.48007200  0.58213900  1
  O  O7  1  0.04482400  0.73813000  0.19704900  1
  O  O8  1  0.93216600  0.49410700  0.38209300  1
  O  O9  1  0.64073500  0.68457900  0.25737200  1
  O  O10  1  0.07556300  0.08796400  0.58849900  1
  O  O11  1  0.73813000  0.04482400  0.69704900  1
  O  O12  1  0.49410700  0.93216600  0.88209300  1
  O  O13  1  0.30716400  0.84161100  0.82936700  1
  O  O14  1  0.68457900  0.64073500  0.75737200  1
  O  O15  1  0.95517600  0.26187000  0.80295100  1
  O  O16  1  0.91423700  0.49613600  0.93010900  1
  O  O17  1  0.35926500  0.31542100  0.74262800  1
  O  O18  1  0.50386400  0.08576300  0.56989100  1
  O  O19  1  0.31542100  0.35926500  0.24262800  1
  O  O20  1  0.50589300  0.06783400  0.11790700  1
  O  O21  1  0.08796400  0.07556300  0.08849900  1
  O  O22  1  0.49613600  0.91423700  0.43010900  1
  O  O23  1  0.51992800  0.37824400  0.91786100  1
  O  O24  1  0.08576300  0.50386400  0.06989100  1
  O  O25  1  0.37824400  0.51992800  0.41786100  1
  O  O26  1  0.69283600  0.15838900  0.17063300  1
  O  O27  1  0.15838900  0.69283600  0.67063300  1
loop_
_geom_bond_atom_site_label_1
_geom_bond_atom_site_label_2
_geom_bond_distance
_geom_bond_site_symmetry_2
Mg0 O21 1.920669 1_555
Mg0 O16 2.047908 1_454
Mg0 O24 2.050606 1_555
Mg0 O0 2.224607 1_455
Mg0 O4 2.624427 1_545
Mg1 O1 1.920669 1_555
Mg1 O18 2.047908 1_565
Mg1 O22 2.050606 1_555
Mg1 O26 2.224607 1_565
Mg1 O7 2.624427 1_655
Mg2 O10 1.920669 1_555
Mg2 O22 2.047908 1_545
Mg2 O18 2.050606 1_555
Mg2 O13 2.224607 1_545
Mg2 O15 2.624427 1_455
Mg3 O23 2.042807 1_555
Mg3 O6 2.042807 1_555
Mg3 O13 2.164402 1_555
Mg3 O27 2.164402 1_555
Mg4 O3 1.920669 1_555
Mg4 O24 2.047908 1_656
Mg4 O16 2.050606 1_555
Mg4 O27 2.224607 1_655
Mg4 O11 2.624427 1_565
Mg5 O25 2.042807 1_555
Mg5 O2 2.042807 1_555
Mg5 O0 2.164402 1_555
Mg5 O26 2.164402 1_555
Mo0 O10 2.077475 1_655
Mo0 O3 2.077475 1_545
Mo0 O23 2.245983 1_555
Mo0 O6 2.245983 1_555
Mo0 O15 2.252041 1_555
Mo0 O11 2.252041 1_555
Mo1 O21 2.077475 1_565
Mo1 O1 2.077475 1_455
Mo1 O25 2.245983 1_555
Mo1 O2 2.245983 1_555
Mo1 O4 2.252041 1_555
Mo1 O7 2.252041 1_555
Mo2 O21 2.049041 1_555
Mo2 O3 2.049041 1_444
Mo2 O15 2.161079 1_454
Mo2 O7 2.161079 1_545
Mo2 O26 2.311539 1_455
Mo2 O13 2.311539 1_544
Mo3 O10 2.049041 1_555
Mo3 O1 2.049041 1_445
Mo3 O11 2.161079 1_455
Mo3 O4 2.161079 1_545
Mo3 O27 2.311539 1_545
Mo3 O0 2.311539 1_455
O0 Si6 1.671980 1_555
O2 Si5 1.629089 1_554
O4 Si7 1.637596 1_555
O5 Si4 1.648914 1_455
O5 Si3 1.649992 1_555
O6 Si6 1.629089 1_555
O7 Si1 1.637596 1_555
O8 Si1 1.648914 1_655
O8 Si6 1.649992 1_555
O9 Si7 1.650188 1_555
O9 Si6 1.658458 1_555
O11 Si0 1.637596 1_555
O12 Si0 1.648914 1_565
O12 Si5 1.649992 1_555
O13 Si5 1.671980 1_555
O14 Si4 1.650188 1_555
O14 Si5 1.658458 1_555
O15 Si4 1.637596 1_555
O16 Si4 1.629496 1_555
O17 Si0 1.650188 1_555
O17 Si3 1.658458 1_555
O18 Si0 1.629496 1_555
O19 Si1 1.650188 1_555
O19 Si2 1.658458 1_555
O20 Si7 1.648914 1_545
O20 Si2 1.649992 1_555
O22 Si7 1.629496 1_555
O23 Si2 1.629089 1_556
O24 Si1 1.629496 1_555
O25 Si3 1.629089 1_555
O26 Si2 1.671980 1_555
O27 Si3 1.671980 1_555
