# generated using pymatgen
data_PbCBr3N
_symmetry_space_group_name_H-M   'P 1'
_cell_length_a   7.55936800
_cell_length_b   8.65279000
_cell_length_c   14.44454500
_cell_angle_alpha   90.00000000
_cell_angle_beta   90.00000000
_cell_angle_gamma   90.00000000
_symmetry_Int_Tables_number   1
_chemical_formula_structural   PbCBr3N
_chemical_formula_sum   'Pb4 C4 Br12 N4'
_cell_volume   944.81225494
_cell_formula_units_Z   4
loop_
 _symmetry_equiv_pos_site_id
 _symmetry_equiv_pos_as_xyz
  1  'x, y, z'
loop_
 _atom_site_type_symbol
 _atom_site_label
 _atom_site_symmetry_multiplicity
 _atom_site_fract_x
 _atom_site_fract_y
 _atom_site_fract_z
 _atom_site_occupancy
  Pb  Pb0  1  0.00000000  0.50000000  0.00000000  1
  Pb  Pb1  1  0.50000000  0.00000000  0.50000000  1
  Pb  Pb2  1  0.00000000  0.50000000  0.50000000  1
  Pb  Pb3  1  0.50000000  0.00000000  0.00000000  1
  C  C0  1  0.87535800  0.99353700  0.25000000  1
  C  C1  1  0.62464200  0.49353700  0.25000000  1
  C  C2  1  0.12464200  0.00646300  0.75000000  1
  C  C3  1  0.37535800  0.50646300  0.75000000  1
  Br  Br0  1  0.63786100  0.97992700  0.25000000  1
  Br  Br1  1  0.86213900  0.47992700  0.25000000  1
  Br  Br2  1  0.36213900  0.02007300  0.75000000  1
  Br  Br3  1  0.13786100  0.52007300  0.75000000  1
  Br  Br4  1  0.30871400  0.29507800  0.01536500  1
  Br  Br5  1  0.19128600  0.79507800  0.48463500  1
  Br  Br6  1  0.69128600  0.70492200  0.51536500  1
  Br  Br7  1  0.80871400  0.20492200  0.98463500  1
  Br  Br8  1  0.69128600  0.70492200  0.98463500  1
  Br  Br9  1  0.80871400  0.20492200  0.51536500  1
  Br  Br10  1  0.30871400  0.29507800  0.48463500  1
  Br  Br11  1  0.19128600  0.79507800  0.01536500  1
  N  N0  1  0.02982800  0.00139200  0.25000000  1
  N  N1  1  0.47017200  0.50139200  0.25000000  1
  N  N2  1  0.97017200  0.99860800  0.75000000  1
  N  N3  1  0.52982800  0.49860800  0.75000000  1
loop_
_geom_bond_atom_site_label_1
_geom_bond_atom_site_label_2
_geom_bond_distance
_geom_bond_site_symmetry_2
C0 N0 1.169672 1_665
C1 N1 1.169672 1_555
C2 N2 1.169672 1_445
C3 N3 1.169672 1_555
Br0 C0 1.799185 1_555
Br1 C1 1.799185 1_555
Br2 C2 1.799185 1_555
Br3 C3 1.799185 1_555
Br4 Pb0 2.939283 1_555
Br4 Pb3 2.942661 1_555
Br5 Pb1 2.939283 1_565
Br5 Pb2 2.942661 1_555
Br6 Pb2 2.939283 1_655
Br6 Pb1 2.942661 1_565
Br7 Pb3 2.939283 1_556
Br7 Pb0 2.942661 1_656
Br8 Pb0 2.939283 1_656
Br8 Pb3 2.942661 1_566
Br9 Pb1 2.939283 1_555
Br9 Pb2 2.942661 1_655
Br10 Pb2 2.939283 1_555
Br10 Pb1 2.942661 1_555
Br11 Pb3 2.939283 1_565
Br11 Pb0 2.942661 1_555
