# generated using pymatgen
data_Li4MnCo2O7
_symmetry_space_group_name_H-M   'P 1'
_cell_length_a   5.93342495
_cell_length_b   6.56909295
_cell_length_c   7.78150162
_cell_angle_alpha   115.56903644
_cell_angle_beta   111.91147099
_cell_angle_gamma   76.09760630
_symmetry_Int_Tables_number   1
_chemical_formula_structural   Li4MnCo2O7
_chemical_formula_sum   'Li8 Mn2 Co4 O14'
_cell_volume   252.69408019
_cell_formula_units_Z   2
loop_
 _symmetry_equiv_pos_site_id
 _symmetry_equiv_pos_as_xyz
  1  'x, y, z'
loop_
 _atom_site_type_symbol
 _atom_site_label
 _atom_site_symmetry_multiplicity
 _atom_site_fract_x
 _atom_site_fract_y
 _atom_site_fract_z
 _atom_site_occupancy
  Li  Li0  1  0.21006600  0.43049300  0.13885300  1
  Li  Li1  1  0.92857100  0.85714300  0.28571400  1
  Li  Li2  1  0.64707700  0.28379200  0.43257500  1
  Li  Li3  1  0.35471400  0.71561400  0.56103500  1
  Li  Li4  1  0.06883900  0.14705400  0.71175900  1
  Li  Li5  1  0.78830400  0.56723200  0.85967000  1
  Li  Li6  1  0.50242900  0.99867200  0.01039400  1
  Li  Li7  1  0.42857100  0.85714300  0.28571400  1
  Mn  Mn0  1  0.00098000  0.00067700  0.00017300  1
  Mn  Mn1  1  0.85616300  0.71360900  0.57125600  1
  Co  Co0  1  0.70661800  0.44305100  0.14408600  1
  Co  Co1  1  0.15052500  0.27123400  0.42734200  1
  Co  Co2  1  0.56747100  0.14270600  0.70849700  1
  Co  Co3  1  0.28967200  0.57158000  0.86293200  1
  O  O0  1  0.88873500  0.26643000  0.93218900  1
  O  O1  1  0.60985400  0.69467200  0.07071300  1
  O  O2  1  0.28656700  0.13645800  0.19616900  1
  O  O3  1  0.02686400  0.57182800  0.37314300  1
  O  O4  1  0.74782600  0.99345300  0.51847900  1
  O  O5  1  0.45155800  0.42900300  0.64831300  1
  O  O6  1  0.15247600  0.85452600  0.78575400  1
  O  O7  1  0.57057600  0.57782700  0.37525900  1
  O  O8  1  0.24728800  0.01961400  0.50071500  1
  O  O9  1  0.96840800  0.44785500  0.63923900  1
  O  O10  1  0.70466700  0.85976000  0.78567500  1
  O  O11  1  0.40558500  0.28528300  0.92311600  1
  O  O12  1  0.10931700  0.72083300  0.05295000  1
  O  O13  1  0.83027900  0.14245800  0.19828600  1
loop_
_geom_bond_atom_site_label_1
_geom_bond_atom_site_label_2
_geom_bond_distance
_geom_bond_site_symmetry_2
Li0 O2 2.075339 1_555
Li0 O0 2.141440 1_454
Li0 O11 2.147892 1_554
Li0 O12 2.167084 1_555
Li0 O3 2.213687 1_555
Li0 O7 2.327554 1_555
Li1 O1 2.140458 1_555
Li1 O8 2.140458 1_665
Li1 O13 2.143616 1_565
Li1 O3 2.143620 1_655
Li1 O12 2.195652 1_655
Li1 O4 2.195654 1_555
Li2 O7 2.075339 1_555
Li2 O9 2.141440 1_555
Li2 O5 2.147898 1_555
Li2 O4 2.167083 1_545
Li2 O13 2.213681 1_555
Li2 O2 2.327554 1_555
Li3 O7 2.060307 1_555
Li3 O3 2.093341 1_555
Li3 O8 2.142143 1_565
Li3 O5 2.151486 1_555
Li3 O6 2.234478 1_555
Li3 O10 2.251852 1_555
Li4 O8 2.050355 1_555
Li4 O4 2.093701 1_445
Li4 O0 2.122116 1_455
Li4 O6 2.134035 1_545
Li4 O11 2.156811 1_555
Li4 O9 2.173433 1_455
Li5 O1 2.050353 1_556
Li5 O12 2.093701 1_656
Li5 O9 2.122122 1_555
Li5 O10 2.134035 1_555
Li5 O5 2.156811 1_555
Li5 O0 2.173435 1_555
Li6 O2 2.060301 1_565
Li6 O13 2.093341 1_565
Li6 O1 2.142139 1_555
Li6 O11 2.151486 1_564
Li6 O10 2.234478 1_554
Li6 O6 2.251852 1_554
Li7 O1 2.084519 1_555
Li7 O8 2.084519 1_565
Li7 O2 2.117695 1_565
Li7 O7 2.117701 1_555
Li7 O12 2.127224 1_555
Li7 O4 2.127230 1_555
Mn0 O2 1.901634 1_555
Mn0 O13 1.934565 1_455
Mn0 O0 1.935616 1_454
Mn0 O6 1.958461 1_544
Mn0 O12 1.961658 1_545
Mn0 O10 1.998029 1_444
Mn1 O7 1.901639 1_555
Mn1 O3 1.934565 1_655
Mn1 O9 1.935618 1_555
Mn1 O10 1.958461 1_555
Mn1 O4 1.961658 1_555
Mn1 O6 1.998029 1_655
Co0 O1 1.871287 1_555
Co0 O7 2.009206 1_555
Co0 O11 2.068849 1_554
Co0 O0 2.075706 1_554
Co0 O13 2.099303 1_555
Co0 O3 2.108628 1_655
Co1 O8 1.871281 1_555
Co1 O2 2.009206 1_555
Co1 O5 2.068853 1_555
Co1 O9 2.075706 1_455
Co1 O3 2.099306 1_555
Co1 O13 2.108624 1_455
Co2 O4 1.928253 1_545
Co2 O11 2.000925 1_555
Co2 O5 2.031685 1_555
Co2 O8 2.048010 1_555
Co2 O10 2.085592 1_545
Co2 O0 2.090678 1_555
Co3 O12 1.928253 1_556
Co3 O5 2.000925 1_555
Co3 O11 2.031685 1_555
Co3 O1 2.048004 1_556
Co3 O6 2.085592 1_555
Co3 O9 2.090682 1_455
