# generated using pymatgen
data_Ca4ReN4
_symmetry_space_group_name_H-M   'P 1'
_cell_length_a   6.09507489
_cell_length_b   6.03998802
_cell_length_c   8.95382858
_cell_angle_alpha   65.78163583
_cell_angle_beta   77.15044155
_cell_angle_gamma   69.40070623
_symmetry_Int_Tables_number   1
_chemical_formula_structural   Ca4ReN4
_chemical_formula_sum   'Ca8 Re2 N8'
_cell_volume   280.21754454
_cell_formula_units_Z   2
loop_
 _symmetry_equiv_pos_site_id
 _symmetry_equiv_pos_as_xyz
  1  'x, y, z'
loop_
 _atom_site_type_symbol
 _atom_site_label
 _atom_site_symmetry_multiplicity
 _atom_site_fract_x
 _atom_site_fract_y
 _atom_site_fract_z
 _atom_site_occupancy
  Ca  Ca0  1  0.75760200  0.62737200  0.15611500  1
  Ca  Ca1  1  0.24239800  0.37262800  0.84388500  1
  Ca  Ca2  1  0.73131000  0.24308800  0.98905500  1
  Ca  Ca3  1  0.26869000  0.75691200  0.01094500  1
  Ca  Ca4  1  0.73565500  0.45966900  0.58048300  1
  Ca  Ca5  1  0.26434500  0.54033100  0.41951700  1
  Ca  Ca6  1  0.21918700  0.95300500  0.61956800  1
  Ca  Ca7  1  0.78081300  0.04699500  0.38043200  1
  Re  Re0  1  0.71769900  0.84459700  0.75587600  1
  Re  Re1  1  0.28230100  0.15540300  0.24412400  1
  N  N0  1  0.96946400  0.67119900  0.63124300  1
  N  N1  1  0.03053600  0.32880100  0.36875700  1
  N  N2  1  0.90506500  0.91218900  0.86909700  1
  N  N3  1  0.09493500  0.08781100  0.13090300  1
  N  N4  1  0.50688800  0.61891800  0.78623700  1
  N  N5  1  0.49311200  0.38108200  0.21376300  1
  N  N6  1  0.51415700  0.84370500  0.34186800  1
  N  N7  1  0.48584300  0.15629500  0.65813200  1
loop_
_geom_bond_atom_site_label_1
_geom_bond_atom_site_label_2
_geom_bond_distance
_geom_bond_site_symmetry_2
Ca0 N5 2.401158 1_555
Ca0 N6 2.448735 1_555
Ca0 N1 2.474960 1_655
Ca0 N2 2.608674 1_554
Ca1 N4 2.401158 1_555
Ca1 N7 2.448735 1_555
Ca1 N0 2.474960 1_455
Ca1 N3 2.608674 1_556
Ca2 N4 2.420684 1_555
Ca2 N2 2.456749 1_545
Ca2 N5 2.464902 1_556
Ca2 N3 2.493371 1_656
Ca3 N5 2.420684 1_555
Ca3 N3 2.456749 1_565
Ca3 N4 2.464902 1_554
Ca3 N2 2.493371 1_454
Ca4 N4 2.372962 1_555
Ca4 N0 2.432173 1_555
Ca4 N1 2.482597 1_655
Ca4 N7 2.570316 1_555
Ca4 N6 2.604084 1_555
Ca5 N5 2.372962 1_555
Ca5 N1 2.432173 1_555
Ca5 N0 2.482597 1_455
Ca5 N6 2.570316 1_555
Ca5 N7 2.604084 1_555
Ca6 N4 2.361635 1_555
Ca6 N7 2.504030 1_565
Ca6 N1 2.578259 1_565
Ca6 N2 2.587640 1_455
Ca6 N0 2.613631 1_455
Ca6 N6 2.893776 1_555
Ca7 N5 2.361635 1_555
Ca7 N6 2.504030 1_545
Ca7 N0 2.578259 1_545
Ca7 N3 2.587640 1_655
Ca7 N1 2.613631 1_655
Ca7 N7 2.893776 1_555
N0 Re0 1.939926 1_555
N1 Re1 1.939926 1_555
N2 Re0 1.918627 1_555
N3 Re1 1.918627 1_555
N4 Re0 2.087099 1_555
N5 Re1 2.087099 1_555
N6 Re1 1.906202 1_565
N7 Re0 1.906202 1_545
