# generated using pymatgen
data_SrSbSe3
_symmetry_space_group_name_H-M   'P 1'
_cell_length_a   4.21029400
_cell_length_b   15.85201100
_cell_length_c   33.67001800
_cell_angle_alpha   90.00000000
_cell_angle_beta   90.00000000
_cell_angle_gamma   90.00000000
_symmetry_Int_Tables_number   1
_chemical_formula_structural   SrSbSe3
_chemical_formula_sum   'Sr16 Sb16 Se48'
_cell_volume   2247.19177575
_cell_formula_units_Z   16
loop_
 _symmetry_equiv_pos_site_id
 _symmetry_equiv_pos_as_xyz
  1  'x, y, z'
loop_
 _atom_site_type_symbol
 _atom_site_label
 _atom_site_symmetry_multiplicity
 _atom_site_fract_x
 _atom_site_fract_y
 _atom_site_fract_z
 _atom_site_occupancy
  Sr  Sr0  1  0.75007500  0.81355400  0.17490500  1
  Sr  Sr1  1  0.25007500  0.68644600  0.82509500  1
  Sr  Sr2  1  0.74992500  0.18644600  0.67490500  1
  Sr  Sr3  1  0.24992500  0.31355400  0.32509500  1
  Sr  Sr4  1  0.25357600  0.38424400  0.45235300  1
  Sr  Sr5  1  0.75357600  0.11575600  0.54764700  1
  Sr  Sr6  1  0.24642400  0.61575600  0.95235300  1
  Sr  Sr7  1  0.74642400  0.88424400  0.04764700  1
  Sr  Sr8  1  0.77019400  0.03119800  0.42403200  1
  Sr  Sr9  1  0.27019400  0.46880200  0.57596800  1
  Sr  Sr10  1  0.72980600  0.96880200  0.92403200  1
  Sr  Sr11  1  0.22980600  0.53119800  0.07596800  1
  Sr  Sr12  1  0.24643100  0.45650100  0.20517800  1
  Sr  Sr13  1  0.74643100  0.04349900  0.79482200  1
  Sr  Sr14  1  0.25356900  0.54349900  0.70517800  1
  Sr  Sr15  1  0.75356900  0.95650100  0.29482200  1
  Sb  Sb0  1  0.27180300  0.19985900  0.89130700  1
  Sb  Sb1  1  0.77180300  0.30014100  0.10869300  1
  Sb  Sb2  1  0.22819700  0.80014100  0.39130700  1
  Sb  Sb3  1  0.72819700  0.69985900  0.60869300  1
  Sb  Sb4  1  0.27041200  0.12882300  0.01468800  1
  Sb  Sb5  1  0.77041200  0.37117700  0.98531200  1
  Sb  Sb6  1  0.22958800  0.87117700  0.51468800  1
  Sb  Sb7  1  0.72958800  0.62882300  0.48531200  1
  Sb  Sb8  1  0.76125000  0.20371600  0.22483100  1
  Sb  Sb9  1  0.26125000  0.29628400  0.77516900  1
  Sb  Sb10  1  0.73875000  0.79628400  0.72483100  1
  Sb  Sb11  1  0.23875000  0.70371600  0.27516900  1
  Sb  Sb12  1  0.25634500  0.05343000  0.13623900  1
  Sb  Sb13  1  0.75634500  0.44657000  0.86376100  1
  Sb  Sb14  1  0.24365500  0.94657000  0.63623900  1
  Sb  Sb15  1  0.74365500  0.55343000  0.36376100  1
  Se  Se0  1  0.22455500  0.25578300  0.16487400  1
  Se  Se1  1  0.72455500  0.24421700  0.83512600  1
  Se  Se2  1  0.27544500  0.74421700  0.66487400  1
  Se  Se3  1  0.77544500  0.75578300  0.33512600  1
  Se  Se4  1  0.74233300  0.10339600  0.06937000  1
  Se  Se5  1  0.24233300  0.39660400  0.93063000  1
  Se  Se6  1  0.75766700  0.89660400  0.56937000  1
  Se  Se7  1  0.25766700  0.60339600  0.43063000  1
  Se  Se8  1  0.72574500  0.16842000  0.95035200  1
  Se  Se9  1  0.22574500  0.33158000  0.04964800  1
  Se  Se10  1  0.77425500  0.83158000  0.45035200  1
  Se  Se11  1  0.27425500  0.66842000  0.54964800  1
  Se  Se12  1  0.73740200  0.22775400  0.46384400  1
  Se  Se13  1  0.23740200  0.27224600  0.53615600  1
  Se  Se14  1  0.76259800  0.77224600  0.96384400  1
  Se  Se15  1  0.26259800  0.72775400  0.03615600  1
  Se  Se16  1  0.24470300  0.89465800  0.11604800  1
  Se  Se17  1  0.74470300  0.60534200  0.88395200  1
  Se  Se18  1  0.25529700  0.10534200  0.61604800  1
  Se  Se19  1  0.75529700  0.39465800  0.38395200  1
  Se  Se20  1  0.25828200  0.02892900  0.49241900  1
  Se  Se21  1  0.75828200  0.47107100  0.50758100  1
  Se  Se22  1  0.24171800  0.97107100  0.99241900  1
  Se  Se23  1  0.74171800  0.52892900  0.00758100  1
  Se  Se24  1  0.25466100  0.52667300  0.31263700  1
  Se  Se25  1  0.75466100  0.97332700  0.68736300  1
  Se  Se26  1  0.24533900  0.47332700  0.81263700  1
  Se  Se27  1  0.74533900  0.02667300  0.18736300  1
  Se  Se28  1  0.25587400  0.95723500  0.36435300  1
  Se  Se29  1  0.75587400  0.54276500  0.63564700  1
  Se  Se30  1  0.24412600  0.04276500  0.86435300  1
  Se  Se31  1  0.74412600  0.45723500  0.13564700  1
  Se  Se32  1  0.74628500  0.16547600  0.35212900  1
  Se  Se33  1  0.24628500  0.33452400  0.64787100  1
  Se  Se34  1  0.75371500  0.83452400  0.85212900  1
  Se  Se35  1  0.25371500  0.66547600  0.14787100  1
  Se  Se36  1  0.24952400  0.85965700  0.24179300  1
  Se  Se37  1  0.74952400  0.64034300  0.75820700  1
  Se  Se38  1  0.25047600  0.14034300  0.74179300  1
  Se  Se39  1  0.75047600  0.35965700  0.25820700  1
  Se  Se40  1  0.20728600  0.14008800  0.27331200  1
  Se  Se41  1  0.70728600  0.35991200  0.72668800  1
  Se  Se42  1  0.29271400  0.85991200  0.77331200  1
  Se  Se43  1  0.79271400  0.64008800  0.22668800  1
  Se  Se44  1  0.36963600  0.19399900  0.40776700  1
  Se  Se45  1  0.86963600  0.30600100  0.59223300  1
  Se  Se46  1  0.13036400  0.80600100  0.90776700  1
  Se  Se47  1  0.63036400  0.69399900  0.09223300  1
loop_
_geom_bond_atom_site_label_1
_geom_bond_atom_site_label_2
_geom_bond_distance
_geom_bond_site_symmetry_2
Sb0 Se30 2.653033 1_555
Sb0 Se1 2.776026 1_555
Sb0 Se8 2.802410 1_555
Sb0 Se1 3.062909 1_455
Sb0 Se8 3.080000 1_455
Sb1 Se31 2.653033 1_555
Sb1 Se0 2.776026 1_655
Sb1 Se9 2.802410 1_655
Sb1 Se0 3.062909 1_555
Sb1 Se9 3.080000 1_555
Sb2 Se28 2.653033 1_555
Sb2 Se3 2.776026 1_455
Sb2 Se10 2.802410 1_455
Sb2 Se3 3.062909 1_555
Sb2 Se10 3.080000 1_555
Sb3 Se29 2.653033 1_555
Sb3 Se2 2.776026 1_555
Sb3 Se11 2.802410 1_555
Sb3 Se2 3.062909 1_655
Sb3 Se11 3.080000 1_655
Sb4 Se22 2.613470 1_544
Sb4 Se4 2.738640 1_555
Sb4 Se4 2.914728 1_455
Sb4 Se8 2.960002 1_554
Sb4 Se8 3.216395 1_454
Sb5 Se23 2.613470 1_556
Sb5 Se5 2.738640 1_655
Sb5 Se5 2.914728 1_555
Sb5 Se9 2.960002 1_656
Sb5 Se9 3.216395 1_556
Sb6 Se20 2.613470 1_565
Sb6 Se6 2.738640 1_455
Sb6 Se6 2.914728 1_555
Sb6 Se10 2.960002 1_455
Sb6 Se10 3.216395 1_555
Sb7 Se21 2.613470 1_555
Sb7 Se7 2.738640 1_555
Sb7 Se7 2.914728 1_655
Sb7 Se11 2.960002 1_555
Sb7 Se11 3.216395 1_655
Sb8 Se40 2.684882 1_655
Sb8 Se39 2.715805 1_555
Sb8 Se0 2.926027 1_655
Sb8 Se40 3.020230 1_555
Sb8 Se27 3.077721 1_555
Sb8 Se0 3.140475 1_555
Sb9 Se41 2.684882 1_555
Sb9 Se38 2.715805 1_555
Sb9 Se1 2.926027 1_555
Sb9 Se41 3.020230 1_455
Sb9 Se26 3.077721 1_555
Sb9 Se1 3.140475 1_455
Sb10 Se42 2.684882 1_555
Sb10 Se37 2.715805 1_555
Sb10 Se2 2.926027 1_555
Sb10 Se42 3.020230 1_655
Sb10 Se25 3.077721 1_555
Sb10 Se2 3.140475 1_655
Sb11 Se43 2.684882 1_455
Sb11 Se36 2.715805 1_555
Sb11 Se3 2.926027 1_455
Sb11 Se43 3.020230 1_555
Sb11 Se24 3.077721 1_555
Sb11 Se3 3.140475 1_555
Sb12 Se16 2.607515 1_545
Sb12 Se27 2.716915 1_555
Sb12 Se27 2.787800 1_455
Sb12 Se4 3.143766 1_555
Sb12 Se4 3.221806 1_455
Sb12 Se0 3.352139 1_555
Sb13 Se17 2.607515 1_555
Sb13 Se26 2.716915 1_655
Sb13 Se26 2.787800 1_555
Sb13 Se5 3.143766 1_655
Sb13 Se5 3.221806 1_555
Sb13 Se1 3.352139 1_555
Sb14 Se18 2.607515 1_565
Sb14 Se25 2.716915 1_455
Sb14 Se25 2.787800 1_555
Sb14 Se6 3.143766 1_455
Sb14 Se6 3.221806 1_555
Sb14 Se2 3.352139 1_555
Sb15 Se19 2.607515 1_555
Sb15 Se24 2.716915 1_555
Sb15 Se24 2.787800 1_655
Sb15 Se7 3.143766 1_555
Sb15 Se7 3.221806 1_655
Sb15 Se3 3.352139 1_555
Se0 Sr12 3.460315 1_555
Se1 Sr13 3.460315 1_555
Se2 Sr14 3.460315 1_555
Se3 Sr15 3.460315 1_555
Se4 Sr7 3.550203 1_545
Se5 Sr6 3.550203 1_555
Se6 Sr5 3.550203 1_565
Se7 Sr4 3.550203 1_555
Se8 Sr10 3.286141 1_545
Se9 Sr11 3.286141 1_555
Se10 Sr8 3.286141 1_565
Se11 Sr9 3.286141 1_555
Se12 Se44 2.499768 1_555
Se12 Sr4 3.233117 1_555
Se12 Sr4 3.320612 1_655
Se12 Sr5 3.334420 1_555
Se12 Sr8 3.394729 1_555
Se13 Se45 2.499768 1_455
Se13 Sr5 3.233117 1_455
Se13 Sr5 3.320612 1_555
Se13 Sr4 3.334420 1_555
Se13 Sr9 3.394729 1_555
Se14 Se46 2.499768 1_655
Se14 Sr6 3.233117 1_655
Se14 Sr6 3.320612 1_555
Se14 Sr7 3.334420 1_556
Se14 Sr10 3.394729 1_555
Se15 Se47 2.499768 1_555
Se15 Sr7 3.233117 1_555
Se15 Sr7 3.320612 1_455
Se15 Sr6 3.334420 1_554
Se15 Sr11 3.394729 1_555
Se16 Sr7 3.119702 1_455
Se16 Sr7 3.129466 1_555
Se16 Sr0 3.149135 1_455
Se16 Sr0 3.179231 1_555
Se17 Sr6 3.119702 1_555
Se17 Sr6 3.129466 1_655
Se17 Sr1 3.149135 1_555
Se17 Sr1 3.179231 1_655
Se18 Sr5 3.119702 1_555
Se18 Sr5 3.129466 1_455
Se18 Sr2 3.149135 1_555
Se18 Sr2 3.179231 1_455
Se19 Sr4 3.119702 1_655
Se19 Sr4 3.129466 1_555
Se19 Sr3 3.149135 1_655
Se19 Sr3 3.179231 1_555
Se20 Sr8 3.086458 1_455
Se20 Sr5 3.114625 1_555
Se20 Sr5 3.141294 1_455
Se20 Sr8 3.154131 1_555
Se21 Sr9 3.086458 1_555
Se21 Sr4 3.114625 1_655
Se21 Sr4 3.141294 1_555
Se21 Sr9 3.154131 1_655
Se22 Sr10 3.086458 1_555
Se22 Sr7 3.114625 1_456
Se22 Sr7 3.141294 1_556
Se22 Sr10 3.154131 1_455
Se23 Sr11 3.086458 1_655
Se23 Sr6 3.114625 1_554
Se23 Sr6 3.141294 1_654
Se23 Sr11 3.154131 1_555
Se24 Sr3 3.404364 1_555
Se24 Sr12 3.785439 1_555
Se25 Sr2 3.404364 1_565
Se25 Sr13 3.785439 1_565
Se26 Sr1 3.404364 1_555
Se26 Sr14 3.785439 1_555
Se27 Sr0 3.404364 1_545
Se27 Sr15 3.785439 1_545
Se28 Sr8 3.097380 1_465
Se28 Sr15 3.141944 1_555
Se28 Sr15 3.154921 1_455
Se28 Sr8 3.178278 1_565
Se29 Sr9 3.097380 1_555
Se29 Sr14 3.141944 1_655
Se29 Sr14 3.154921 1_555
Se29 Sr9 3.178278 1_655
Se30 Sr10 3.097380 1_545
Se30 Sr13 3.141944 1_455
Se30 Sr13 3.154921 1_555
Se30 Sr10 3.178278 1_445
Se31 Sr11 3.097380 1_655
Se31 Sr12 3.141944 1_555
Se31 Sr12 3.154921 1_655
Se31 Sr11 3.178278 1_555
Se32 Se44 2.495713 1_555
Se32 Sr8 3.225227 1_555
Se32 Sr3 3.271981 1_555
Se32 Sr3 3.291642 1_655
Se32 Sr15 3.833774 1_545
Se33 Se45 2.495713 1_455
Se33 Sr9 3.225227 1_555
Se33 Sr2 3.271981 1_455
Se33 Sr2 3.291642 1_555
Se33 Sr14 3.833774 1_555
Se34 Se46 2.495713 1_655
Se34 Sr10 3.225227 1_555
Se34 Sr1 3.271981 1_655
Se34 Sr1 3.291642 1_555
Se34 Sr13 3.833774 1_565
Se35 Se47 2.495713 1_555
Se35 Sr11 3.225227 1_555
Se35 Sr0 3.271981 1_555
Se35 Sr0 3.291642 1_455
Se35 Sr12 3.833774 1_555
Se36 Sr15 3.147213 1_455
Se36 Sr0 3.166707 1_455
Se36 Sr0 3.169790 1_555
Se36 Sr15 3.169914 1_555
Se37 Sr14 3.147213 1_555
Se37 Sr1 3.166707 1_555
Se37 Sr1 3.169790 1_655
Se37 Sr14 3.169914 1_655
Se38 Sr13 3.147213 1_555
Se38 Sr2 3.166707 1_555
Se38 Sr2 3.169790 1_455
Se38 Sr13 3.169914 1_455
Se39 Sr12 3.147213 1_655
Se39 Sr3 3.166707 1_655
Se39 Sr3 3.169790 1_555
Se39 Sr12 3.169914 1_555
Se40 Sr3 3.260898 1_555
Se40 Sr15 3.555714 1_445
Se40 Sr15 3.779415 1_545
Se41 Sr2 3.260898 1_555
Se41 Sr14 3.555714 1_555
Se41 Sr14 3.779415 1_655
Se42 Sr1 3.260898 1_555
Se42 Sr13 3.555714 1_565
Se42 Sr13 3.779415 1_465
Se43 Sr0 3.260898 1_555
Se43 Sr12 3.555714 1_655
Se43 Sr12 3.779415 1_555
Se44 Sr8 3.131168 1_555
Se44 Sr4 3.404006 1_555
Se44 Sr3 3.404999 1_555
Se44 Sr8 3.650993 1_455
Se45 Sr9 3.131168 1_655
Se45 Sr5 3.404006 1_555
Se45 Sr2 3.404999 1_555
Se45 Sr9 3.650993 1_555
Se46 Sr10 3.131168 1_455
Se46 Sr6 3.404006 1_555
Se46 Sr1 3.404999 1_555
Se46 Sr10 3.650993 1_555
Se47 Sr11 3.131168 1_555
Se47 Sr7 3.404006 1_555
Se47 Sr0 3.404999 1_555
Se47 Sr11 3.650993 1_655
