# generated using pymatgen
data_YFe11MoN
_symmetry_space_group_name_H-M   'P 1'
_cell_length_a   4.78380200
_cell_length_b   6.51599255
_cell_length_c   6.51599255
_cell_angle_alpha   97.53944085
_cell_angle_beta   111.53574448
_cell_angle_gamma   68.46425552
_symmetry_Int_Tables_number   1
_chemical_formula_structural   YFe11MoN
_chemical_formula_sum   'Y1 Fe11 Mo1 N1'
_cell_volume   175.74091222
_cell_formula_units_Z   1
loop_
 _symmetry_equiv_pos_site_id
 _symmetry_equiv_pos_as_xyz
  1  'x, y, z'
loop_
 _atom_site_type_symbol
 _atom_site_label
 _atom_site_symmetry_multiplicity
 _atom_site_fract_x
 _atom_site_fract_y
 _atom_site_fract_z
 _atom_site_occupancy
  Y  Y0  1  0.00527800  0.99472200  0.00527800  1
  Fe  Fe0  1  0.72525100  0.77474900  0.22525100  1
  Fe  Fe1  1  0.27716400  0.22283600  0.77716400  1
  Fe  Fe2  1  0.49625100  0.78098700  0.77349000  1
  Fe  Fe3  1  0.49625100  0.22651000  0.21901300  1
  Fe  Fe4  1  0.50006800  0.99708800  0.49837900  1
  Fe  Fe5  1  0.00122300  0.99708800  0.49837900  1
  Fe  Fe6  1  0.50006800  0.50162100  0.00291200  1
  Fe  Fe7  1  0.00122300  0.50162100  0.00291200  1
  Fe  Fe8  1  0.35976500  0.64023500  0.35976500  1
  Fe  Fe9  1  0.99947400  0.36061400  0.35956200  1
  Fe  Fe10  1  0.99947400  0.64043800  0.63938600  1
  Mo  Mo0  1  0.63765000  0.36235000  0.63765000  1
  N  N0  1  0.50085900  0.99914100  0.00085900  1
loop_
_geom_bond_atom_site_label_1
_geom_bond_atom_site_label_2
_geom_bond_distance
_geom_bond_site_symmetry_2
Fe0 N0 1.919481 1_555
Fe0 Fe6 2.451894 1_555
Fe0 Fe7 2.451894 1_655
Fe0 Fe4 2.451894 1_555
Fe0 Fe5 2.451894 1_655
Fe0 Fe9 2.635654 1_555
Fe0 Fe10 2.635654 1_555
Fe1 N0 1.913518 1_546
Fe1 Fe7 2.483958 1_556
Fe1 Fe5 2.483958 1_545
Fe1 Fe6 2.483958 1_556
Fe1 Fe4 2.483958 1_545
Fe1 Fe9 2.662083 1_455
Fe1 Fe10 2.662083 1_455
Fe1 Mo0 2.673097 1_455
Fe1 Mo0 2.673097 1_555
Fe2 N0 1.913752 1_556
Fe2 Fe5 2.429382 1_555
Fe2 Fe4 2.429385 1_555
Fe2 Fe6 2.493676 1_556
Fe2 Fe7 2.493678 1_656
Fe2 Mo0 2.670841 1_555
Fe3 N0 1.913752 1_545
Fe3 Fe7 2.429382 1_555
Fe3 Fe6 2.429385 1_555
Fe3 Fe4 2.493676 1_545
Fe3 Fe5 2.493678 1_645
Fe3 Fe9 2.667062 1_455
Fe3 Fe9 2.667067 1_555
Fe3 Mo0 2.670841 1_555
Fe4 Fe5 2.386376 1_555
Fe4 Fe5 2.397426 1_655
Fe4 Fe8 2.612022 1_555
Fe4 Fe9 2.640319 1_465
Fe4 Mo0 2.658210 1_565
Fe4 Y0 3.218198 1_555
Fe4 Y0 3.297908 1_656
Fe5 Fe8 2.612022 1_555
Fe5 Fe9 2.640319 1_465
Fe5 Mo0 2.658210 1_465
Fe5 Y0 3.218198 1_555
Fe5 Y0 3.297908 1_556
Fe6 Fe7 2.386376 1_555
Fe6 Fe7 2.397426 1_655
Fe6 Fe8 2.612022 1_555
Fe6 Fe9 2.612499 1_555
Fe6 Mo0 2.658210 1_554
Fe6 Y0 3.218198 1_555
Fe6 Y0 3.297908 1_645
Fe7 Fe8 2.612022 1_555
Fe7 Fe9 2.612499 1_455
Fe7 Mo0 2.658210 1_454
Fe7 Y0 3.218198 1_555
Fe7 Y0 3.297908 1_545
Fe8 Mo0 2.377067 1_555
Fe8 Fe9 2.931484 1_555
Fe8 Fe9 2.931484 1_455
Fe9 Mo0 2.926162 1_555
Fe9 Mo0 2.926162 1_655
Fe9 Y0 3.093271 1_645
Fe10 Fe9 2.403468 1_555
Fe10 Fe4 2.612499 1_555
Fe10 Fe5 2.612499 1_655
Fe10 Fe7 2.640319 1_656
Fe10 Fe6 2.640319 1_656
Fe10 Fe2 2.667062 1_655
Fe10 Fe2 2.667067 1_555
Fe10 Mo0 2.926162 1_555
Fe10 Mo0 2.926162 1_655
Fe10 Fe8 2.931484 1_555
Fe10 Fe8 2.931484 1_655
Fe10 Y0 3.093271 1_656
Mo0 Y0 3.144741 1_646
N0 Y0 2.392200 1_555
N0 Y0 2.392200 1_655
