# generated using pymatgen
data_Sm3Pt4
_symmetry_space_group_name_H-M   'P 1'
_cell_length_a   5.75928277
_cell_length_b   8.01896470
_cell_length_c   8.01896648
_cell_angle_alpha   114.45822934
_cell_angle_beta   103.85127773
_cell_angle_gamma   103.85128094
_symmetry_Int_Tables_number   1
_chemical_formula_structural   Sm3Pt4
_chemical_formula_sum   'Sm6 Pt8'
_cell_volume   302.34511988
_cell_formula_units_Z   2
loop_
 _symmetry_equiv_pos_site_id
 _symmetry_equiv_pos_as_xyz
  1  'x, y, z'
loop_
 _atom_site_type_symbol
 _atom_site_label
 _atom_site_symmetry_multiplicity
 _atom_site_fract_x
 _atom_site_fract_y
 _atom_site_fract_z
 _atom_site_occupancy
  Sm  Sm0  1  0.40490540  0.12266244  0.37517640  1
  Sm  Sm1  1  0.02972700  0.62482360  0.74748604  1
  Sm  Sm2  1  0.28224196  0.25251396  0.87733756  1
  Sm  Sm3  1  0.59509460  0.87733756  0.62482360  1
  Sm  Sm4  1  0.97027300  0.37517640  0.25251396  1
  Sm  Sm5  1  0.71775804  0.74748604  0.12266244  1
  Pt  Pt0  1  -0.00000000  -0.00000000  -0.00000000  1
  Pt  Pt1  1  0.50000000  -0.00000000  -0.00000000  1
  Pt  Pt2  1  0.22328241  0.66713141  0.16437812  1
  Pt  Pt3  1  0.05890529  0.83562188  0.50275329  1
  Pt  Pt4  1  0.55615200  0.49724671  0.33286859  1
  Pt  Pt5  1  0.77671759  0.33286859  0.83562188  1
  Pt  Pt6  1  0.94109471  0.16437812  0.49724671  1
  Pt  Pt7  1  0.44384800  0.50275329  0.66713141  1
loop_
_geom_bond_atom_site_label_1
_geom_bond_atom_site_label_2
_geom_bond_distance
_geom_bond_site_symmetry_2
Sm0 Sm3 3.510053 1_545
Sm1 Sm4 3.510060 1_455
Sm2 Sm5 3.510056 1_556
Pt0 Pt1 2.879641 1_555
Pt0 Pt1 2.879641 1_455
Pt0 Sm4 2.923844 1_455
Pt0 Sm1 2.923844 1_544
Pt0 Sm2 2.923848 1_554
Pt0 Sm5 2.923848 1_445
Pt0 Sm0 2.923851 1_555
Pt0 Sm3 2.923851 1_444
Pt1 Sm0 2.985820 1_555
Pt1 Sm3 2.985820 1_544
Pt1 Sm2 2.985823 1_554
Pt1 Sm5 2.985823 1_545
Pt1 Sm4 2.985825 1_555
Pt1 Sm1 2.985825 1_544
Pt2 Sm4 2.886821 1_455
Pt2 Pt5 2.889773 1_454
Pt2 Sm5 2.897103 1_555
Pt2 Pt3 2.981776 1_555
Pt2 Pt4 2.981783 1_555
Pt2 Sm0 3.083169 1_565
Pt2 Sm5 3.100662 1_455
Pt2 Sm1 3.103081 1_554
Pt2 Sm3 3.223689 1_555
Pt2 Sm2 3.323473 1_554
Pt3 Sm5 2.886826 1_455
Pt3 Pt6 2.889778 1_465
Pt3 Sm3 2.897092 1_555
Pt3 Pt4 2.981779 1_455
Pt3 Sm1 3.083171 1_555
Pt3 Sm3 3.100673 1_455
Pt3 Sm2 3.103081 1_565
Pt3 Sm4 3.223690 1_455
Pt3 Sm0 3.323474 1_565
Pt4 Sm3 2.886827 1_555
Pt4 Pt7 2.889779 1_555
Pt4 Sm4 2.897103 1_555
Pt4 Sm2 3.083171 1_554
Pt4 Sm4 3.100662 1_455
Pt4 Sm0 3.103080 1_555
Pt4 Sm5 3.223689 1_555
Pt4 Sm1 3.323468 1_655
Pt5 Sm1 2.886821 1_655
Pt5 Sm2 2.897103 1_555
Pt5 Pt6 2.981776 1_555
Pt5 Pt7 2.981783 1_555
Pt5 Sm3 3.083169 1_545
Pt5 Sm2 3.100662 1_655
Pt5 Sm4 3.103081 1_556
Pt5 Sm0 3.223689 1_555
Pt5 Sm5 3.323473 1_556
Pt6 Sm2 2.886826 1_655
Pt6 Sm0 2.897092 1_555
Pt6 Pt7 2.981779 1_655
Pt6 Sm4 3.083171 1_555
Pt6 Sm0 3.100673 1_655
Pt6 Sm5 3.103081 1_545
Pt6 Sm1 3.223690 1_655
Pt6 Sm3 3.323474 1_545
Pt7 Sm0 2.886827 1_555
Pt7 Sm1 2.897103 1_555
Pt7 Sm5 3.083171 1_556
Pt7 Sm1 3.100662 1_655
Pt7 Sm3 3.103080 1_555
Pt7 Sm2 3.223689 1_555
Pt7 Sm4 3.323468 1_455
