# generated using pymatgen
data_V4ZnO8
_symmetry_space_group_name_H-M   'P 1'
_cell_length_a   7.33214445
_cell_length_b   7.33214445
_cell_length_c   9.97350846
_cell_angle_alpha   48.53681561
_cell_angle_beta   48.53681561
_cell_angle_gamma   22.59930778
_symmetry_Int_Tables_number   1
_chemical_formula_structural   V4ZnO8
_chemical_formula_sum   'V4 Zn1 O8'
_cell_volume   151.98091782
_cell_formula_units_Z   1
loop_
 _symmetry_equiv_pos_site_id
 _symmetry_equiv_pos_as_xyz
  1  'x, y, z'
loop_
 _atom_site_type_symbol
 _atom_site_label
 _atom_site_symmetry_multiplicity
 _atom_site_fract_x
 _atom_site_fract_y
 _atom_site_fract_z
 _atom_site_occupancy
  V  V0  1  0.36984900  0.36984900  0.43869200  1
  V  V1  1  0.85066400  0.85066400  0.78517000  1
  V  V2  1  0.17688100  0.17688100  0.15322200  1
  V  V3  1  0.65632100  0.65632100  0.49889100  1
  Zn  Zn0  1  0.55246500  0.55246500  0.93204800  1
  O  O0  1  0.16082000  0.16082000  0.36043300  1
  O  O1  1  0.55228900  0.55228900  0.24750700  1
  O  O2  1  0.47447900  0.47447900  0.69118300  1
  O  O3  1  0.86568900  0.86568900  0.57659900  1
  O  O4  1  0.84891600  0.84891600  0.33002900  1
  O  O5  1  0.22069000  0.22069000  0.90889000  1
  O  O6  1  0.17633800  0.17633800  0.61507600  1
  O  O7  1  0.79949800  0.79949800  0.03161400  1
loop_
_geom_bond_atom_site_label_1
_geom_bond_atom_site_label_2
_geom_bond_distance
_geom_bond_site_symmetry_2
O0 V2 1.918251 1_555
O0 V3 1.963276 1_545
O0 V3 1.963276 1_455
O1 V0 1.939840 1_555
O1 V2 1.970538 1_655
O1 V2 1.970538 1_565
O2 V3 1.934765 1_555
O2 V1 1.964398 1_545
O2 V1 1.964398 1_455
O3 V1 1.940849 1_555
O3 V0 1.961691 1_565
O3 V0 1.961691 1_655
O4 V0 1.941567 1_565
O4 V0 1.941567 1_655
O4 V3 2.051269 1_555
O5 V1 1.991323 1_455
O5 V1 1.991323 1_545
O5 V2 2.064446 1_556
O6 V3 1.984955 1_545
O6 V3 1.984955 1_455
O6 V0 2.056035 1_555
O7 V2 1.938041 1_655
O7 V2 1.938041 1_565
O7 V1 2.034809 1_554
