# generated using pymatgen
data_BiPd6Pb
_symmetry_space_group_name_H-M   'P 1'
_cell_length_a   4.09336069
_cell_length_b   4.09336069
_cell_length_c   8.17641129
_cell_angle_alpha   90.00000000
_cell_angle_beta   90.00000000
_cell_angle_gamma   90.00000000
_symmetry_Int_Tables_number   1
_chemical_formula_structural   BiPd6Pb
_chemical_formula_sum   'Bi1 Pd6 Pb1'
_cell_volume   137.00069122
_cell_formula_units_Z   1
loop_
 _symmetry_equiv_pos_site_id
 _symmetry_equiv_pos_as_xyz
  1  'x, y, z'
loop_
 _atom_site_type_symbol
 _atom_site_label
 _atom_site_symmetry_multiplicity
 _atom_site_fract_x
 _atom_site_fract_y
 _atom_site_fract_z
 _atom_site_occupancy
  Bi  Bi0  1  -0.00000000  0.00000000  -0.00000000  1
  Pd  Pd0  1  0.50000000  0.50000000  -0.00000000  1
  Pd  Pd1  1  0.50000000  0.50000000  0.50000000  1
  Pd  Pd2  1  0.50000000  0.00000000  0.25062736  1
  Pd  Pd3  1  0.50000000  -0.00000000  0.74937264  1
  Pd  Pd4  1  0.00000000  0.50000000  0.25062736  1
  Pd  Pd5  1  -0.00000000  0.50000000  0.74937264  1
  Pb  Pb0  1  -0.00000000  0.00000000  0.50000000  1
loop_
_geom_bond_atom_site_label_1
_geom_bond_atom_site_label_2
_geom_bond_distance
_geom_bond_site_symmetry_2
Bi0 Pd0 2.894443 1_555
Bi0 Pd0 2.894443 1_455
Bi0 Pd0 2.894443 1_445
Bi0 Pd0 2.894443 1_545
Bi0 Pd5 2.896248 1_544
Bi0 Pd3 2.896248 1_554
Bi0 Pd5 2.896248 1_554
Bi0 Pd2 2.896248 1_455
Bi0 Pd2 2.896248 1_555
Bi0 Pd3 2.896248 1_454
Bi0 Pd4 2.896248 1_555
Bi0 Pd4 2.896248 1_545
Pd0 Pd3 2.896248 1_554
Pd0 Pd5 2.896248 1_554
Pd0 Pd5 2.896248 1_654
Pd0 Pd3 2.896248 1_564
Pd0 Pd4 2.896248 1_655
Pd0 Pd2 2.896248 1_555
Pd0 Pd4 2.896248 1_555
Pd0 Pd2 2.896248 1_565
Pd1 Pd4 2.888999 1_655
Pd1 Pd4 2.888999 1_555
Pd1 Pd2 2.888999 1_565
Pd1 Pd2 2.888999 1_555
Pd1 Pd5 2.888999 1_655
Pd1 Pd3 2.888999 1_565
Pd1 Pd3 2.888999 1_555
Pd1 Pd5 2.888999 1_555
Pd2 Pd4 2.894443 1_645
Pd2 Pd4 2.894443 1_555
Pd2 Pd4 2.894443 1_545
Pd2 Pd4 2.894443 1_655
Pd3 Pd5 2.894443 1_655
Pd3 Pd5 2.894443 1_545
Pd3 Pd5 2.894443 1_555
Pd3 Pd5 2.894443 1_645
Pb0 Pd4 2.888999 1_555
Pb0 Pd2 2.888999 1_455
Pb0 Pd2 2.888999 1_555
Pb0 Pd4 2.888999 1_545
Pb0 Pd3 2.888999 1_455
Pb0 Pd5 2.888999 1_545
Pb0 Pd3 2.888999 1_555
Pb0 Pd5 2.888999 1_555
Pb0 Pd1 2.894443 1_555
Pb0 Pd1 2.894443 1_445
Pb0 Pd1 2.894443 1_545
Pb0 Pd1 2.894443 1_455
