# generated using pymatgen
data_Er3Ga5
_symmetry_space_group_name_H-M   'P 1'
_cell_length_a   6.03808248
_cell_length_b   9.52351222
_cell_length_c   11.29062984
_cell_angle_alpha   90.00096013
_cell_angle_beta   90.00144621
_cell_angle_gamma   89.99960538
_symmetry_Int_Tables_number   1
_chemical_formula_structural   Er3Ga5
_chemical_formula_sum   'Er12 Ga20'
_cell_volume   649.25358129
_cell_formula_units_Z   4
loop_
 _symmetry_equiv_pos_site_id
 _symmetry_equiv_pos_as_xyz
  1  'x, y, z'
loop_
 _atom_site_type_symbol
 _atom_site_label
 _atom_site_symmetry_multiplicity
 _atom_site_fract_x
 _atom_site_fract_y
 _atom_site_fract_z
 _atom_site_occupancy
  Er  Er0  1  0.65096231  0.75000134  0.42331801  1
  Er  Er1  1  0.84897982  0.75000940  0.92330979  1
  Er  Er2  1  0.34903114  0.24999324  0.57667413  1
  Er  Er3  1  0.15101853  0.24999576  0.07670362  1
  Er  Er4  1  0.61064931  0.98932534  0.14841800  1
  Er  Er5  1  0.88932458  0.51067471  0.64837581  1
  Er  Er6  1  0.38934102  0.48929245  0.85158556  1
  Er  Er7  1  0.11066747  0.01065333  0.35161940  1
  Er  Er8  1  0.38935082  0.01070891  0.85158403  1
  Er  Er9  1  0.11066388  0.48934135  0.35162018  1
  Er  Er10  1  0.61065163  0.51067334  0.14841753  1
  Er  Er11  1  0.88932711  0.98932638  0.64838014  1
  Ga  Ga0  1  0.62711003  0.44659151  0.41003521  1
  Ga  Ga1  1  0.87291366  0.05341447  0.90998704  1
  Ga  Ga2  1  0.37289207  0.94660827  0.58996637  1
  Ga  Ga3  1  0.12710631  0.55341158  0.09001032  1
  Ga  Ga4  1  0.37289800  0.55338722  0.58997130  1
  Ga  Ga5  1  0.12710689  0.94658647  0.09001535  1
  Ga  Ga6  1  0.62711276  0.05340520  0.41003356  1
  Ga  Ga7  1  0.87290630  0.44659764  0.90998569  1
  Ga  Ga8  1  0.32265513  0.75000369  0.24767308  1
  Ga  Ga9  1  0.17727942  0.75000414  0.74764069  1
  Ga  Ga10  1  0.67733720  0.24999226  0.75230753  1
  Ga  Ga11  1  0.82272120  0.24999582  0.25238024  1
  Ga  Ga12  1  0.12686192  0.75000562  0.49466894  1
  Ga  Ga13  1  0.37311145  0.75000192  0.99456560  1
  Ga  Ga14  1  0.87315658  0.24999430  0.50537897  1
  Ga  Ga15  1  0.62688795  0.24999359  0.00537147  1
  Ga  Ga16  1  0.90088130  0.75000406  0.19853409  1
  Ga  Ga17  1  0.59914299  0.75000559  0.69847927  1
  Ga  Ga18  1  0.09910297  0.25000078  0.80146684  1
  Ga  Ga19  1  0.40084626  0.24999432  0.30152124  1
loop_
_geom_bond_atom_site_label_1
_geom_bond_atom_site_label_2
_geom_bond_distance
_geom_bond_site_symmetry_2
Er0 Ga8 2.803988 1_555
Er0 Ga6 2.896943 1_565
Er0 Ga0 2.896997 1_555
Er0 Ga16 2.952722 1_555
Er0 Ga12 2.984291 1_655
Er0 Ga17 3.122468 1_555
Er0 Ga2 3.140892 1_555
Er0 Ga4 3.140998 1_555
Er0 Ga12 3.265511 1_555
Er1 Ga9 2.804219 1_655
Er1 Ga1 2.897005 1_565
Er1 Ga7 2.897060 1_555
Er1 Ga17 2.952856 1_555
Er1 Ga13 2.983859 1_555
Er1 Ga16 3.123210 1_556
Er1 Ga5 3.141256 1_656
Er1 Ga3 3.141361 1_656
Er1 Ga13 3.265390 1_655
Er2 Ga10 2.803891 1_555
Er2 Ga2 2.896772 1_545
Er2 Ga4 2.896859 1_555
Er2 Ga18 2.952836 1_555
Er2 Ga14 2.983976 1_455
Er2 Ga19 3.122371 1_555
Er2 Ga6 3.140769 1_555
Er2 Ga0 3.140858 1_555
Er2 Ga14 3.265503 1_555
Er3 Ga11 2.804270 1_455
Er3 Ga5 2.897032 1_545
Er3 Ga3 2.897084 1_555
Er3 Ga19 2.952702 1_555
Er3 Ga15 2.984097 1_555
Er3 Ga18 3.123359 1_554
Er3 Ga1 3.141283 1_454
Er3 Ga7 3.141456 1_454
Er3 Ga15 3.265596 1_455
Er4 Ga16 2.930160 1_555
Er4 Ga15 2.963267 1_565
Er4 Ga6 3.017812 1_565
Er4 Ga5 3.020738 1_555
Er4 Ga11 3.029880 1_565
Er4 Ga8 3.078094 1_555
Er4 Ga1 3.182385 1_564
Er4 Ga13 3.204553 1_554
Er4 Ga5 3.213263 1_655
Er4 Ga19 3.279577 1_565
Er5 Ga17 2.930024 1_555
Er5 Ga14 2.962997 1_555
Er5 Ga7 3.017760 1_555
Er5 Ga4 3.020925 1_655
Er5 Ga10 3.029682 1_555
Er5 Ga9 3.077995 1_655
Er5 Ga0 3.181277 1_555
Er5 Ga12 3.203793 1_655
Er5 Ga4 3.213025 1_555
Er5 Ga18 3.279492 1_655
Er6 Ga18 2.929972 1_555
Er6 Ga13 2.963139 1_555
Er6 Ga4 3.017842 1_555
Er6 Ga7 3.020806 1_555
Er6 Ga9 3.030117 1_555
Er6 Ga10 3.077998 1_555
Er6 Ga3 3.182271 1_556
Er6 Ga15 3.204032 1_556
Er6 Ga7 3.213079 1_455
Er6 Ga17 3.279968 1_555
Er7 Ga19 2.930110 1_555
Er7 Ga12 2.963109 1_545
Er7 Ga5 3.017660 1_545
Er7 Ga6 3.020882 1_455
Er7 Ga8 3.029443 1_545
Er7 Ga11 3.077962 1_455
Er7 Ga2 3.181312 1_545
Er7 Ga14 3.204056 1_455
Er7 Ga6 3.213207 1_555
Er7 Ga16 3.279268 1_445
Er8 Ga18 2.930001 1_555
Er8 Ga13 2.963177 1_545
Er8 Ga2 3.017875 1_545
Er8 Ga1 3.020815 1_555
Er8 Ga9 3.030064 1_545
Er8 Ga10 3.077885 1_555
Er8 Ga5 3.182388 1_546
Er8 Ga15 3.203891 1_556
Er8 Ga1 3.213104 1_455
Er8 Ga17 3.279808 1_545
Er9 Ga19 2.930136 1_555
Er9 Ga12 2.963193 1_555
Er9 Ga3 3.017752 1_555
Er9 Ga0 3.020884 1_455
Er9 Ga8 3.029602 1_555
Er9 Ga11 3.077964 1_455
Er9 Ga4 3.181368 1_555
Er9 Ga14 3.204138 1_455
Er9 Ga0 3.213209 1_555
Er9 Ga16 3.279392 1_455
Er10 Ga16 2.930226 1_555
Er10 Ga15 2.963309 1_555
Er10 Ga0 3.017858 1_555
Er10 Ga3 3.020763 1_555
Er10 Ga11 3.029949 1_555
Er10 Ga8 3.078119 1_555
Er10 Ga7 3.182319 1_554
Er10 Ga13 3.204619 1_554
Er10 Ga3 3.213264 1_655
Er10 Ga19 3.279714 1_555
Er11 Ga17 2.929982 1_555
Er11 Ga14 2.962968 1_565
Er11 Ga1 3.017727 1_565
Er11 Ga2 3.020897 1_655
Er11 Ga10 3.029493 1_565
Er11 Ga9 3.077928 1_655
Er11 Ga6 3.181339 1_565
Er11 Ga12 3.203688 1_655
Er11 Ga2 3.213105 1_555
Er11 Ga18 3.279433 1_665
Ga0 Ga14 2.621341 1_555
Ga0 Ga19 2.621633 1_555
Ga0 Ga4 2.741887 1_555
Ga0 Ga11 2.840585 1_555
Ga1 Ga15 2.621340 1_556
Ga1 Ga18 2.621419 1_655
Ga1 Ga5 2.742677 1_646
Ga1 Ga10 2.840561 1_555
Ga2 Ga6 2.741926 1_565
Ga2 Ga9 2.840829 1_555
Ga3 Ga7 2.742602 1_454
Ga3 Ga8 2.840434 1_555
Ga4 Ga9 2.840839 1_555
Ga5 Ga8 2.840367 1_555
Ga10 Ga18 2.606426 1_655
Ga10 Ga7 2.840678 1_555
Ga10 Ga15 2.873451 1_556
Ga10 Ga14 3.028366 1_555
Ga11 Ga19 2.607054 1_555
Ga11 Ga6 2.840585 1_555
Ga11 Ga14 2.872695 1_555
Ga11 Ga15 3.029177 1_555
Ga12 Ga2 2.621096 1_555
Ga12 Ga4 2.621257 1_555
Ga12 Ga9 2.872380 1_555
Ga12 Ga8 3.029004 1_555
Ga13 Ga5 2.621608 1_556
Ga13 Ga3 2.621666 1_556
Ga13 Ga8 2.873944 1_556
Ga13 Ga9 3.028303 1_555
Ga14 Ga6 2.621273 1_555
Ga15 Ga7 2.621531 1_554
Ga16 Ga8 2.606425 1_655
Ga16 Ga5 2.621499 1_655
Ga16 Ga3 2.621549 1_655
Ga17 Ga9 2.607036 1_555
Ga17 Ga2 2.621640 1_555
Ga17 Ga4 2.621686 1_555
Ga18 Ga7 2.621464 1_455
Ga19 Ga6 2.621594 1_555
