# generated using pymatgen
data_Li7Mn5O12
_symmetry_space_group_name_H-M   'P 1'
_cell_length_a   5.27123392
_cell_length_b   6.03437454
_cell_length_c   15.11355825
_cell_angle_alpha   97.48876758
_cell_angle_beta   94.46372762
_cell_angle_gamma   110.57979034
_symmetry_Int_Tables_number   1
_chemical_formula_structural   Li7Mn5O12
_chemical_formula_sum   'Li14 Mn10 O24'
_cell_volume   442.24657167
_cell_formula_units_Z   2
loop_
 _symmetry_equiv_pos_site_id
 _symmetry_equiv_pos_as_xyz
  1  'x, y, z'
loop_
 _atom_site_type_symbol
 _atom_site_label
 _atom_site_symmetry_multiplicity
 _atom_site_fract_x
 _atom_site_fract_y
 _atom_site_fract_z
 _atom_site_occupancy
  Li  Li0  1  0.33335400  0.16667100  0.33332600  1
  Li  Li1  1  0.83335400  0.66663700  0.83333400  1
  Li  Li2  1  0.57393400  0.16778000  0.08221600  1
  Li  Li3  1  0.10368300  0.66399800  0.58930600  1
  Li  Li4  1  0.56301500  0.66938900  0.07735200  1
  Li  Li5  1  0.09276100  0.16555600  0.58447500  1
  Li  Li6  1  0.74860600  0.01111300  0.25165500  1
  Li  Li7  1  0.23395400  0.51965800  0.75142500  1
  Li  Li8  1  0.91821800  0.32222700  0.41502900  1
  Li  Li9  1  0.43261400  0.81363800  0.91524700  1
  Li  Li10  1  0.91959400  0.83992000  0.41256900  1
  Li  Li11  1  0.42110700  0.34249000  0.90877200  1
  Li  Li12  1  0.74710100  0.49346200  0.25409400  1
  Li  Li13  1  0.24554200  0.99084800  0.75786100  1
  Mn  Mn0  1  0.83315800  0.16661200  0.83337600  1
  Mn  Mn1  1  0.33345000  0.66667600  0.33335100  1
  Mn  Mn2  1  0.49816400  0.50222500  0.49806800  1
  Mn  Mn3  1  0.99217200  0.99850100  0.99837300  1
  Mn  Mn4  1  0.16844500  0.83112500  0.16859100  1
  Mn  Mn5  1  0.67437300  0.33477000  0.66825400  1
  Mn  Mn6  1  0.49552200  0.00767400  0.49785500  1
  Mn  Mn7  1  0.99241100  0.50356800  0.99638000  1
  Mn  Mn8  1  0.17110800  0.32568800  0.16880400  1
  Mn  Mn9  1  0.67449100  0.82973700  0.67031200  1
  O  O0  1  0.27796500  0.31747200  0.05065800  1
  O  O1  1  0.74364100  0.84287000  0.54022900  1
  O  O2  1  0.92304500  0.49048400  0.12643100  1
  O  O3  1  0.38863100  0.01587900  0.61599700  1
  O  O4  1  0.41540100  0.16545600  0.20341600  1
  O  O5  1  0.94579700  0.64799200  0.70279700  1
  O  O6  1  0.25123300  0.16792200  0.46324000  1
  O  O7  1  0.72086900  0.68529400  0.96385400  1
  O  O8  1  0.61110400  0.98457300  0.37759800  1
  O  O9  1  0.11121900  0.48391200  0.87730200  1
  O  O10  1  0.05559100  0.34882000  0.28907400  1
  O  O11  1  0.55536600  0.84934800  0.78937800  1
  O  O12  1  0.27499400  0.81607000  0.04597900  1
  O  O13  1  0.77936100  0.31495300  0.54088300  1
  O  O14  1  0.88728500  0.01839900  0.12576600  1
  O  O15  1  0.39173200  0.51731500  0.62069400  1
  O  O16  1  0.45254000  0.64471500  0.21525200  1
  O  O17  1  0.95239700  0.14634500  0.71502400  1
  O  O18  1  0.21419100  0.68865300  0.45141500  1
  O  O19  1  0.71423600  0.18697300  0.95166100  1
  O  O20  1  0.58636500  0.52039800  0.37725800  1
  O  O21  1  0.08664400  0.02205900  0.87762000  1
  O  O22  1  0.08031200  0.81293600  0.28940800  1
  O  O23  1  0.57995100  0.31120200  0.78903900  1
loop_
_geom_bond_atom_site_label_1
_geom_bond_atom_site_label_2
_geom_bond_distance
_geom_bond_site_symmetry_2
Li0 O4 2.042719 1_555
Li0 O6 2.042880 1_555
Li0 O20 2.065703 1_555
Li0 O22 2.065754 1_545
Li0 O8 2.229105 1_545
Li0 O10 2.229301 1_555
Li1 O21 2.074639 1_665
Li1 O23 2.074870 1_555
Li1 O7 2.103945 1_555
Li1 O5 2.104105 1_555
Li1 O9 2.231048 1_655
Li1 O11 2.231451 1_555
Li2 O4 2.071380 1_555
Li2 O0 2.112966 1_555
Li2 O12 2.121067 1_545
Li2 O2 2.138966 1_555
Li2 O19 2.163374 1_554
Li2 O14 2.237459 1_555
Li3 O5 1.962891 1_455
Li3 O15 2.063044 1_555
Li3 O3 2.089921 1_565
Li3 O13 2.183255 1_455
Li3 O18 2.216634 1_555
Li3 O1 2.597469 1_455
Li4 O7 1.962900 1_554
Li4 O12 2.062855 1_555
Li4 O0 2.090268 1_555
Li4 O14 2.182983 1_565
Li4 O16 2.216723 1_555
Li4 O2 2.597565 1_555
Li5 O6 2.071709 1_555
Li5 O3 2.112325 1_555
Li5 O15 2.121317 1_555
Li5 O1 2.138988 1_445
Li5 O17 2.163423 1_455
Li5 O13 2.237931 1_455
Li6 O10 2.080874 1_655
Li6 O14 2.090936 1_555
Li6 O8 2.094446 1_545
Li6 O16 2.179491 1_545
Li6 O4 2.368888 1_555
Li6 O22 2.511078 1_645
Li7 O5 2.061213 1_455
Li7 O9 2.069988 1_555
Li7 O11 2.083050 1_555
Li7 O17 2.186201 1_455
Li7 O15 2.202838 1_555
Li8 O8 2.080956 1_545
Li8 O13 2.090826 1_555
Li8 O10 2.094376 1_655
Li8 O18 2.179432 1_655
Li8 O6 2.367744 1_655
Li8 O20 2.511770 1_555
Li9 O7 2.061579 1_555
Li9 O11 2.069878 1_555
Li9 O9 2.083136 1_555
Li9 O19 2.186416 1_565
Li9 O12 2.202489 1_556
Li10 O20 2.071884 1_555
Li10 O22 2.114824 1_655
Li10 O6 2.126984 1_665
Li10 O18 2.140949 1_655
Li10 O8 2.161002 1_555
Li10 O1 2.205522 1_555
Li11 O23 2.066222 1_555
Li11 O21 2.075007 1_555
Li11 O7 2.125410 1_555
Li11 O9 2.141888 1_555
Li11 O19 2.170351 1_555
Li11 O0 2.333824 1_556
Li12 O22 2.071667 1_655
Li12 O20 2.114882 1_555
Li12 O4 2.127167 1_555
Li12 O16 2.140710 1_555
Li12 O10 2.160988 1_655
Li12 O2 2.205547 1_555
Li13 O21 2.066662 1_565
Li13 O23 2.074598 1_565
Li13 O5 2.125528 1_455
Li13 O11 2.142069 1_555
Li13 O17 2.170100 1_465
Li13 O3 2.333409 1_565
Mn0 O19 1.943009 1_555
Mn0 O17 1.944621 1_555
Mn0 O11 1.948687 1_545
Mn0 O9 1.949204 1_655
Mn0 O23 1.955414 1_555
Mn0 O21 1.955959 1_655
Mn1 O18 1.941205 1_555
Mn1 O16 1.941320 1_555
Mn1 O8 1.951573 1_555
Mn1 O10 1.951885 1_555
Mn1 O20 1.959374 1_555
Mn1 O22 1.960436 1_555
Mn2 O20 1.926257 1_555
Mn2 O6 1.952287 1_555
Mn2 O15 1.977774 1_555
Mn2 O1 1.991503 1_555
Mn2 O13 2.260923 1_555
Mn2 O18 2.286863 1_555
Mn3 O7 1.901615 1_555
Mn3 O21 1.938600 1_665
Mn3 O0 1.994604 1_666
Mn3 O14 2.044314 1_566
Mn3 O12 2.268346 1_656
Mn3 O19 2.271124 1_565
Mn4 O22 1.926264 1_555
Mn4 O4 1.952449 1_565
Mn4 O12 1.977798 1_555
Mn4 O2 1.991376 1_455
Mn4 O14 2.260820 1_465
Mn4 O16 2.287336 1_555
Mn5 O5 1.901952 1_555
Mn5 O23 1.938996 1_555
Mn5 O3 1.994098 1_555
Mn5 O13 2.044176 1_555
Mn5 O15 2.267872 1_555
Mn5 O17 2.271562 1_555
Mn6 O3 1.913444 1_555
Mn6 O13 1.919247 1_555
Mn6 O6 1.941487 1_555
Mn6 O8 1.964690 1_545
Mn6 O18 1.968895 1_545
Mn6 O1 2.014890 1_545
Mn7 O19 1.948459 1_555
Mn7 O9 1.953762 1_655
Mn7 O12 1.954419 1_656
Mn7 O2 2.033537 1_556
Mn7 O7 2.151155 1_555
Mn7 O0 2.331517 1_656
Mn8 O0 1.913434 1_555
Mn8 O14 1.919274 1_455
Mn8 O4 1.941417 1_555
Mn8 O10 1.964746 1_555
Mn8 O16 1.969143 1_555
Mn8 O2 2.014613 1_455
Mn9 O17 1.947955 1_565
Mn9 O11 1.954269 1_555
Mn9 O15 1.954529 1_555
Mn9 O1 2.033770 1_555
Mn9 O5 2.150065 1_555
Mn9 O3 2.333200 1_565
