# generated using pymatgen
data_Ca2AlSbO5
_symmetry_space_group_name_H-M   'P 1'
_cell_length_a   8.50374627
_cell_length_b   8.50374627
_cell_length_c   5.53496325
_cell_angle_alpha   75.02671619
_cell_angle_beta   75.02671619
_cell_angle_gamma   41.49986895
_symmetry_Int_Tables_number   1
_chemical_formula_structural   Ca2AlSbO5
_chemical_formula_sum   'Ca4 Al2 Sb2 O10'
_cell_volume   254.89173155
_cell_formula_units_Z   2
loop_
 _symmetry_equiv_pos_site_id
 _symmetry_equiv_pos_as_xyz
  1  'x, y, z'
loop_
 _atom_site_type_symbol
 _atom_site_label
 _atom_site_symmetry_multiplicity
 _atom_site_fract_x
 _atom_site_fract_y
 _atom_site_fract_z
 _atom_site_occupancy
  Ca  Ca0  1  0.64496500  0.09575600  0.86242400  1
  Ca  Ca1  1  0.90065000  0.33077300  0.60566300  1
  Ca  Ca2  1  0.33077300  0.90065000  0.10566300  1
  Ca  Ca3  1  0.09575600  0.64496500  0.36242400  1
  Al  Al0  1  0.30981800  0.67000100  0.73261500  1
  Al  Al1  1  0.67000100  0.30981800  0.23261500  1
  Sb  Sb0  1  0.49141000  0.01884100  0.47171700  1
  Sb  Sb1  1  0.01884100  0.49141000  0.97171700  1
  O  O0  1  0.43022300  0.57624700  0.41116900  1
  O  O1  1  0.57624700  0.43022300  0.91116900  1
  O  O2  1  0.72336300  0.05136600  0.32445500  1
  O  O3  1  0.19446400  0.93870000  0.77691400  1
  O  O4  1  0.05136600  0.72336300  0.82445500  1
  O  O5  1  0.93870000  0.19446400  0.27691400  1
  O  O6  1  0.63805800  0.83757600  0.81674100  1
  O  O7  1  0.31527900  0.31060800  0.63627800  1
  O  O8  1  0.31060800  0.31527900  0.13627800  1
  O  O9  1  0.83757600  0.63805800  0.31674100  1
loop_
_geom_bond_atom_site_label_1
_geom_bond_atom_site_label_2
_geom_bond_distance
_geom_bond_site_symmetry_2
Ca0 O8 2.269634 1_556
Ca0 O6 2.318467 1_545
Ca0 O4 2.364578 1_645
Ca0 O7 2.392444 1_555
Ca0 O1 2.515815 1_555
Ca0 O2 2.670591 1_556
Ca0 O2 2.937915 1_555
Ca1 O5 2.232294 1_555
Ca1 O3 2.317302 1_645
Ca1 O9 2.420265 1_555
Ca1 O1 2.453277 1_555
Ca2 O3 2.232294 1_554
Ca2 O5 2.317302 1_465
Ca2 O6 2.420265 1_554
Ca2 O0 2.453277 1_555
Ca3 O7 2.269634 1_555
Ca3 O9 2.318467 1_455
Ca3 O2 2.364578 1_465
Ca3 O8 2.392444 1_555
Ca3 O0 2.515815 1_555
Ca3 O4 2.670591 1_555
Ca3 O4 2.937915 1_554
Al0 O3 1.746753 1_555
Al0 O4 1.828299 1_555
Al0 O0 1.848887 1_555
Al0 O1 1.860992 1_555
Al1 O5 1.746753 1_555
Al1 O2 1.828299 1_555
Al1 O1 1.848887 1_554
Al1 O0 1.860992 1_555
O2 Sb0 2.121657 1_555
O4 Sb1 2.121657 1_555
O6 Sb0 2.099580 1_565
O6 Sb1 2.395579 1_655
O7 Sb0 2.031066 1_555
O7 Sb1 2.327366 1_555
O8 Sb1 2.031066 1_554
O8 Sb0 2.327366 1_555
O9 Sb1 2.099580 1_654
O9 Sb0 2.395579 1_565
