# generated using pymatgen
data_K4MgV6O16
_symmetry_space_group_name_H-M   'P 1'
_cell_length_a   5.39585890
_cell_length_b   9.11668908
_cell_length_c   9.15079512
_cell_angle_alpha   86.47665426
_cell_angle_beta   90.79860087
_cell_angle_gamma   88.75219702
_symmetry_Int_Tables_number   1
_chemical_formula_structural   K4MgV6O16
_chemical_formula_sum   'K4 Mg1 V6 O16'
_cell_volume   449.13924272
_cell_formula_units_Z   1
loop_
 _symmetry_equiv_pos_site_id
 _symmetry_equiv_pos_as_xyz
  1  'x, y, z'
loop_
 _atom_site_type_symbol
 _atom_site_label
 _atom_site_symmetry_multiplicity
 _atom_site_fract_x
 _atom_site_fract_y
 _atom_site_fract_z
 _atom_site_occupancy
  K  K0  1  0.15998500  0.69810300  0.14738700  1
  K  K1  1  0.15094600  0.75193600  0.58708800  1
  K  K2  1  0.18441000  0.15444700  0.29340300  1
  K  K3  1  0.20190900  0.35844900  0.81820500  1
  Mg  Mg0  1  0.14821200  0.96071500  0.84498200  1
  V  V0  1  0.62741800  0.86971000  0.36642200  1
  V  V1  1  0.68191100  0.38917900  0.13956900  1
  V  V2  1  0.63134300  0.10997300  0.64843900  1
  V  V3  1  0.61918500  0.65693500  0.85576900  1
  V  V4  1  0.62700000  0.02724500  0.01537700  1
  V  V5  1  0.66205000  0.48980400  0.51095000  1
  O  O0  1  0.96769600  0.49208500  0.53156800  1
  O  O1  1  0.95762800  0.99681200  0.01433700  1
  O  O2  1  0.54492600  0.52988500  0.00907100  1
  O  O3  1  0.50539700  0.98705700  0.50163900  1
  O  O4  1  0.92133800  0.70217600  0.85405100  1
  O  O5  1  0.93537000  0.04413100  0.68078100  1
  O  O6  1  0.93541600  0.88293300  0.35672500  1
  O  O7  1  0.99054100  0.39430100  0.12430400  1
  O  O8  1  0.53476800  0.57154300  0.69660600  1
  O  O9  1  0.58899600  0.42013600  0.31626000  1
  O  O10  1  0.56968100  0.22027300  0.09509600  1
  O  O11  1  0.49524400  0.92139700  0.19280100  1
  O  O12  1  0.45325600  0.09147200  0.82508600  1
  O  O13  1  0.43138500  0.80904800  0.88073600  1
  O  O14  1  0.56300800  0.29721500  0.58982400  1
  O  O15  1  0.54962800  0.68732300  0.41781000  1
loop_
_geom_bond_atom_site_label_1
_geom_bond_atom_site_label_2
_geom_bond_distance
_geom_bond_site_symmetry_2
K0 O11 2.798699 1_555
K0 O6 2.889593 1_455
K0 O2 2.905395 1_555
K0 O7 2.954392 1_455
K0 O4 2.958736 1_454
K0 O13 2.997051 1_554
K0 O1 3.084883 1_455
K0 O15 3.220193 1_555
K1 O6 2.604646 1_455
K1 O0 2.661549 1_455
K1 O15 2.743014 1_555
K1 O8 2.754903 1_555
K1 O4 2.771509 1_455
K1 O3 2.979640 1_555
K1 O5 3.059054 1_465
K1 O13 3.142357 1_555
K2 O7 2.776622 1_455
K2 O10 2.828514 1_555
K2 O6 2.873718 1_445
K2 O11 2.881474 1_545
K2 O3 2.897435 1_545
K2 O1 3.244148 1_445
K2 O9 3.310067 1_555
K3 O12 2.757252 1_555
K3 O8 2.860088 1_555
K3 O14 2.947056 1_555
K3 O2 3.048014 1_556
K3 O0 3.067427 1_455
K3 O7 3.072266 1_456
Mg0 O1 1.913079 1_456
Mg0 O5 1.982026 1_465
Mg0 O13 2.047442 1_555
Mg0 O12 2.056829 1_565
O0 V5 1.658091 1_555
O1 V4 1.799734 1_565
O2 V3 1.818315 1_554
O2 V1 1.834037 1_555
O3 V0 1.806587 1_555
O3 V2 1.927394 1_565
O4 V3 1.690470 1_555
O5 V2 1.749527 1_555
O6 V0 1.672090 1_555
O7 V1 1.674535 1_555
O8 V3 1.752468 1_555
O8 V5 2.019677 1_555
O9 V1 1.737175 1_555
O9 V5 1.965498 1_555
O10 V1 1.736171 1_555
O10 V4 1.965960 1_555
O11 V0 1.765400 1_555
O11 V4 1.985471 1_565
O12 V2 1.892520 1_555
O12 V4 2.014745 1_556
O13 V3 1.728113 1_555
O14 V2 1.786654 1_555
O14 V5 1.945544 1_555
O15 V0 1.761220 1_555
O15 V5 2.021477 1_555
