# generated using pymatgen
data_YWF5
_symmetry_space_group_name_H-M   'P 1'
_cell_length_a   5.96745672
_cell_length_b   5.96745672
_cell_length_c   5.96745672
_cell_angle_alpha   137.52526531
_cell_angle_beta   108.42442252
_cell_angle_gamma   86.92583020
_symmetry_Int_Tables_number   1
_chemical_formula_structural   YWF5
_chemical_formula_sum   'Y1 W1 F5'
_cell_volume   130.68933552
_cell_formula_units_Z   1
loop_
 _symmetry_equiv_pos_site_id
 _symmetry_equiv_pos_as_xyz
  1  'x, y, z'
loop_
 _atom_site_type_symbol
 _atom_site_label
 _atom_site_symmetry_multiplicity
 _atom_site_fract_x
 _atom_site_fract_y
 _atom_site_fract_z
 _atom_site_occupancy
  Y  Y0  1  0.50000000  0.50000000  0.00000000  1
  W  W0  1  0.00000000  0.00000000  0.00000000  1
  F  F0  1  0.81756800  0.50000000  0.31756800  1
  F  F1  1  0.18243200  0.50000000  0.68243200  1
  F  F2  1  0.24723500  0.24723500  0.00000000  1
  F  F3  1  0.75276500  0.75276500  0.00000000  1
  F  F4  1  0.50000000  0.00000000  0.50000000  1
loop_
_geom_bond_atom_site_label_1
_geom_bond_atom_site_label_2
_geom_bond_distance
_geom_bond_site_symmetry_2
F0 Y0 2.216420 1_555
F0 W0 2.508731 1_655
F0 W0 2.508731 1_666
F1 Y0 2.216420 1_556
F1 W0 2.508731 1_555
F1 W0 2.508731 1_566
F2 W0 2.141697 1_555
F2 Y0 2.189601 1_555
F3 W0 2.141697 1_665
F3 Y0 2.189601 1_555
F4 Y0 2.161607 1_556
F4 Y0 2.161607 1_545
