# generated using pymatgen
data_MgSi2
_symmetry_space_group_name_H-M   'P 1'
_cell_length_a   3.69740100
_cell_length_b   5.33180014
_cell_length_c   11.94478382
_cell_angle_alpha   87.39094110
_cell_angle_beta   88.61535925
_cell_angle_gamma   70.62393210
_symmetry_Int_Tables_number   1
_chemical_formula_structural   MgSi2
_chemical_formula_sum   'Mg4 Si8'
_cell_volume   221.89946990
_cell_formula_units_Z   4
loop_
 _symmetry_equiv_pos_site_id
 _symmetry_equiv_pos_as_xyz
  1  'x, y, z'
loop_
 _atom_site_type_symbol
 _atom_site_label
 _atom_site_symmetry_multiplicity
 _atom_site_fract_x
 _atom_site_fract_y
 _atom_site_fract_z
 _atom_site_occupancy
  Mg  Mg0  1  0.40892100  0.06982600  0.86441900  1
  Mg  Mg1  1  0.05661100  0.70690000  0.07255600  1
  Mg  Mg2  1  0.46320000  0.78652700  0.30705700  1
  Mg  Mg3  1  0.73064900  0.44776600  0.68194200  1
  Si  Si0  1  0.73888100  0.30380500  0.19380900  1
  Si  Si1  1  0.10734300  0.66718700  0.82607200  1
  Si  Si2  1  0.06869600  0.82983600  0.53203900  1
  Si  Si3  1  0.75953500  0.18461800  0.38927700  1
  Si  Si4  1  0.70009200  0.46031800  0.92809500  1
  Si  Si5  1  0.32811000  0.13157100  0.09665500  1
  Si  Si6  1  0.16828900  0.38101300  0.48013700  1
  Si  Si7  1  0.47000900  0.03040500  0.62817300  1
loop_
_geom_bond_atom_site_label_1
_geom_bond_atom_site_label_2
_geom_bond_distance
_geom_bond_site_symmetry_2
Mg0 Si4 2.782693 1_555
Mg0 Si1 2.786473 1_545
Mg0 Si1 2.800164 1_645
Mg0 Si5 2.805459 1_556
Mg0 Si7 2.837261 1_555
Mg0 Si4 2.865177 1_455
Mg0 Si1 3.022050 1_555
Mg0 Si4 3.129159 1_545
Mg1 Si5 2.792656 1_565
Mg1 Si4 2.812489 1_454
Mg1 Si4 2.880844 1_554
Mg1 Si5 2.896669 1_555
Mg1 Si5 2.905173 1_465
Mg1 Si1 2.958384 1_554
Mg1 Si0 3.062057 1_555
Mg1 Si0 3.067025 1_455
Mg2 Si0 2.828913 1_555
Mg2 Si3 2.907765 1_565
Mg2 Si3 2.939521 1_465
Mg2 Si5 2.996700 1_565
Mg2 Si2 3.007727 1_555
Mg2 Si3 3.145828 1_555
Mg3 Si1 2.766387 1_655
Mg3 Si1 2.801151 1_555
Mg3 Si7 2.806432 1_555
Mg3 Si6 2.839556 1_655
Mg3 Si4 2.942639 1_555
Mg3 Si7 2.974283 1_655
Mg3 Si7 2.975477 1_565
Mg3 Si2 3.149233 1_555
Mg3 Si2 3.188643 1_655
Si0 Si5 2.362991 1_655
Si0 Si5 2.367359 1_555
Si0 Si3 2.387970 1_555
Si1 Si4 2.420739 1_455
Si1 Si4 2.430561 1_555
Si2 Si7 2.404246 1_465
Si2 Si6 2.405387 1_555
Si2 Si7 2.431241 1_565
Si2 Si3 2.481652 1_465
Si3 Si6 2.350147 1_555
Si3 Si6 2.406516 1_655
Si6 Si7 2.505283 1_555
