# generated using pymatgen
data_CuClO
_symmetry_space_group_name_H-M   'P 1'
_cell_length_a   6.68572700
_cell_length_b   10.97341800
_cell_length_c   12.83170900
_cell_angle_alpha   90.00000000
_cell_angle_beta   90.00000000
_cell_angle_gamma   90.00000000
_symmetry_Int_Tables_number   1
_chemical_formula_structural   CuClO
_chemical_formula_sum   'Cu16 Cl16 O16'
_cell_volume   941.40188523
_cell_formula_units_Z   16
loop_
 _symmetry_equiv_pos_site_id
 _symmetry_equiv_pos_as_xyz
  1  'x, y, z'
loop_
 _atom_site_type_symbol
 _atom_site_label
 _atom_site_symmetry_multiplicity
 _atom_site_fract_x
 _atom_site_fract_y
 _atom_site_fract_z
 _atom_site_occupancy
  Cu  Cu0  1  0.52605700  0.53956000  0.01030500  1
  Cu  Cu1  1  0.47394300  0.46044000  0.51030500  1
  Cu  Cu2  1  0.02605700  0.96044000  0.51030500  1
  Cu  Cu3  1  0.97394300  0.03956000  0.01030500  1
  Cu  Cu4  1  0.02820400  0.55935100  0.98738100  1
  Cu  Cu5  1  0.97179600  0.44064900  0.48738100  1
  Cu  Cu6  1  0.52820400  0.94064900  0.48738100  1
  Cu  Cu7  1  0.47179600  0.05935100  0.98738100  1
  Cu  Cu8  1  0.30166300  0.82502700  0.96400100  1
  Cu  Cu9  1  0.69833800  0.17497300  0.46400100  1
  Cu  Cu10  1  0.80166200  0.67497300  0.46400100  1
  Cu  Cu11  1  0.19833700  0.32502700  0.96400100  1
  Cu  Cu12  1  0.69583900  0.77595200  0.03753800  1
  Cu  Cu13  1  0.30416100  0.22404800  0.53753800  1
  Cu  Cu14  1  0.19583900  0.72404800  0.53753800  1
  Cu  Cu15  1  0.80416100  0.27595200  0.03753800  1
  Cl  Cl0  1  0.76316500  0.47255700  0.80810900  1
  Cl  Cl1  1  0.23683500  0.52744300  0.30810800  1
  Cl  Cl2  1  0.26316500  0.02744300  0.30810800  1
  Cl  Cl3  1  0.73683500  0.97255700  0.80810900  1
  Cl  Cl4  1  0.24494600  0.65654600  0.19580000  1
  Cl  Cl5  1  0.75505400  0.34345400  0.69580000  1
  Cl  Cl6  1  0.74494600  0.84345400  0.69580000  1
  Cl  Cl7  1  0.25505400  0.15654600  0.19580000  1
  Cl  Cl8  1  0.57037700  0.38008600  0.11695900  1
  Cl  Cl9  1  0.42962300  0.61991400  0.61695900  1
  Cl  Cl10  1  0.07037700  0.11991400  0.61695900  1
  Cl  Cl11  1  0.92962300  0.88008600  0.11695900  1
  Cl  Cl12  1  0.07324600  0.71972600  0.88074100  1
  Cl  Cl13  1  0.92675400  0.28027400  0.38074100  1
  Cl  Cl14  1  0.57324600  0.78027400  0.38074100  1
  Cl  Cl15  1  0.42675400  0.21972600  0.88074100  1
  O  O0  1  0.28221700  0.48708000  0.95507200  1
  O  O1  1  0.71778300  0.51292000  0.45507200  1
  O  O2  1  0.78221700  0.01292000  0.45507200  1
  O  O3  1  0.21778300  0.98708000  0.95507200  1
  O  O4  1  0.78260200  0.61249000  0.03940300  1
  O  O5  1  0.21739800  0.38751000  0.53940300  1
  O  O6  1  0.28260200  0.88751000  0.53940300  1
  O  O7  1  0.71739800  0.11249000  0.03940300  1
  O  O8  1  0.48716200  0.70030200  0.96537700  1
  O  O9  1  0.51283800  0.29969800  0.46537700  1
  O  O10  1  0.98716200  0.79969800  0.46537700  1
  O  O11  1  0.01283800  0.20030200  0.96537700  1
  O  O12  1  0.99395100  0.40080600  0.03931400  1
  O  O13  1  0.00604900  0.59919400  0.53931400  1
  O  O14  1  0.49395100  0.09919400  0.53931400  1
  O  O15  1  0.50604900  0.90080600  0.03931400  1
loop_
_geom_bond_atom_site_label_1
_geom_bond_atom_site_label_2
_geom_bond_distance
_geom_bond_site_symmetry_2
Cu0 O0 1.868597 1_554
Cu0 O8 1.873842 1_554
Cu0 O4 1.929185 1_555
Cu1 O1 1.868597 1_555
Cu1 O9 1.873842 1_555
Cu1 O5 1.929185 1_555
Cu2 O2 1.868597 1_465
Cu2 O10 1.873842 1_455
Cu2 O6 1.929185 1_555
Cu3 O3 1.868597 1_644
Cu3 O11 1.873842 1_654
Cu3 O7 1.929185 1_555
Cu4 O4 1.865979 1_456
Cu4 O12 1.877060 1_456
Cu4 O0 1.919613 1_555
Cu5 O5 1.865979 1_655
Cu5 O13 1.877060 1_655
Cu5 O1 1.919613 1_555
Cu6 O6 1.865979 1_555
Cu6 O14 1.877060 1_565
Cu6 O2 1.919613 1_565
Cu7 O7 1.865979 1_556
Cu7 O15 1.877060 1_546
Cu7 O3 1.919613 1_545
Cu8 O8 1.847059 1_555
Cu8 O3 1.868124 1_555
Cu8 O15 1.868860 1_556
Cu9 O9 1.847063 1_555
Cu9 O2 1.868122 1_555
Cu9 O14 1.868865 1_555
Cu10 O10 1.847063 1_555
Cu10 O1 1.868122 1_555
Cu10 O13 1.868865 1_655
Cu11 O11 1.847059 1_555
Cu11 O0 1.868124 1_555
Cu11 O12 1.868860 1_456
Cu12 O15 1.867536 1_555
Cu12 O8 1.868951 1_554
Cu12 O4 1.885351 1_555
Cu13 O14 1.867536 1_555
Cu13 O9 1.868951 1_555
Cu13 O5 1.885351 1_555
Cu14 O13 1.867536 1_555
Cu14 O10 1.868951 1_455
Cu14 O6 1.885351 1_555
Cu15 O12 1.867536 1_555
Cu15 O11 1.868951 1_654
Cu15 O7 1.885351 1_555
Cl0 Cl5 2.021583 1_555
Cl0 Cu4 3.055930 1_655
Cl0 Cu0 3.128117 1_556
Cl1 Cl4 2.021574 1_555
Cl1 Cu5 3.055940 1_455
Cl1 Cu1 3.128127 1_555
Cl2 Cl7 2.021574 1_555
Cl2 Cu6 3.055940 1_545
Cl2 Cu2 3.128127 1_545
Cl3 Cl6 2.021583 1_555
Cl3 Cu7 3.055930 1_565
Cl3 Cu3 3.128117 1_566
Cl8 Cu15 2.188007 1_555
Cl8 Cu0 2.241239 1_555
Cl9 Cu14 2.188007 1_555
Cl9 Cu1 2.241239 1_555
Cl10 Cu13 2.188007 1_555
Cl10 Cu2 2.241239 1_545
Cl11 Cu12 2.188007 1_555
Cl11 Cu3 2.241239 1_565
Cl12 Cu8 2.192887 1_555
Cl12 Cu4 2.249499 1_555
Cl13 Cu9 2.192883 1_555
Cl13 Cu5 2.249499 1_555
Cl14 Cu10 2.192883 1_555
Cl14 Cu6 2.249499 1_555
Cl15 Cu11 2.192887 1_555
Cl15 Cu7 2.249499 1_555
