# generated using pymatgen
data_K3PO3F2
_symmetry_space_group_name_H-M   'P 1'
_cell_length_a   7.69987229
_cell_length_b   7.61790654
_cell_length_c   7.41571550
_cell_angle_alpha   61.60048371
_cell_angle_beta   60.49219593
_cell_angle_gamma   57.90732036
_symmetry_Int_Tables_number   1
_chemical_formula_structural   K3PO3F2
_chemical_formula_sum   'K6 P2 O6 F4'
_cell_volume   306.91523327
_cell_formula_units_Z   2
loop_
 _symmetry_equiv_pos_site_id
 _symmetry_equiv_pos_as_xyz
  1  'x, y, z'
loop_
 _atom_site_type_symbol
 _atom_site_label
 _atom_site_symmetry_multiplicity
 _atom_site_fract_x
 _atom_site_fract_y
 _atom_site_fract_z
 _atom_site_occupancy
  K  K0  1  0.80604600  0.19395400  0.19395400  1
  K  K1  1  0.18727600  0.81272400  0.81272400  1
  K  K2  1  0.70328600  0.29671400  0.69482000  1
  K  K3  1  0.30518000  0.69482000  0.29671400  1
  K  K4  1  0.24765800  0.25234200  0.25234200  1
  K  K5  1  0.74765800  0.75234200  0.75234200  1
  P  P0  1  0.76848800  0.74628100  0.23151200  1
  P  P1  1  0.25371900  0.23151200  0.74628100  1
  O  O0  1  0.45359600  0.21741900  0.54640400  1
  O  O1  1  0.94673300  0.71396900  0.29369000  1
  O  O2  1  0.70631000  0.95439100  0.05326700  1
  O  O3  1  0.78258100  0.54640400  0.21741900  1
  O  O4  1  0.04560900  0.29369000  0.71396900  1
  O  O5  1  0.28603100  0.05326700  0.95439100  1
  F  F0  1  0.49475700  0.50524300  0.99168700  1
  F  F1  1  0.00831300  0.99168700  0.50524300  1
  F  F2  1  0.20941900  0.45266100  0.79058100  1
  F  F3  1  0.54733900  0.79058100  0.45266100  1
loop_
_geom_bond_atom_site_label_1
_geom_bond_atom_site_label_2
_geom_bond_distance
_geom_bond_site_symmetry_2
K0 O0 2.677641 1_555
K0 O3 2.677641 1_555
K0 O1 3.016334 1_545
K0 O5 3.016335 1_654
K0 O4 3.016335 1_654
K0 O2 3.016340 1_545
K1 O5 3.022983 1_565
K1 O1 3.022989 1_456
K1 O2 3.022989 1_456
K1 O4 3.022990 1_565
K2 O2 2.696188 1_546
K2 O4 2.696192 1_655
K2 O3 3.037014 1_555
K2 O0 3.037014 1_555
K3 O1 2.696184 1_455
K3 O5 2.696188 1_564
K3 O3 3.037014 1_555
K3 O0 3.037014 1_555
K4 O2 3.055701 1_545
K4 O5 3.055705 1_554
K4 O1 3.081746 1_455
K4 O4 3.081747 1_555
K4 O0 3.121983 1_555
K4 O3 3.121983 1_455
K5 O1 3.055698 1_555
K5 O4 3.055699 1_655
K5 O2 3.081740 1_556
K5 O5 3.081744 1_565
K5 O0 3.121983 1_565
K5 O3 3.121983 1_556
O0 P1 1.518477 1_555
O1 P0 1.520958 1_555
O2 P0 1.520955 1_555
O3 P0 1.518477 1_555
O4 P1 1.520951 1_555
O5 P1 1.520953 1_555
F0 K3 2.635872 1_556
F0 K2 2.661278 1_555
F0 K1 2.664348 1_555
F0 K0 2.781514 1_556
F0 K5 2.792444 1_555
F0 K4 2.792444 1_556
F1 K2 2.635872 1_465
F1 K3 2.661278 1_555
F1 K1 2.664348 1_555
F1 K0 2.781514 1_465
F1 K4 2.792444 1_565
F1 K5 2.792444 1_455
F2 P1 1.693493 1_555
F2 K1 2.735618 1_555
F2 K4 3.112273 1_556
F2 K5 3.112273 1_455
F2 K2 3.117414 1_555
F2 K3 3.117414 1_555
F3 P0 1.693493 1_555
F3 K1 2.735618 1_555
F3 K5 3.112273 1_555
F3 K4 3.112273 1_565
F3 K3 3.117414 1_555
F3 K2 3.117414 1_555
