# generated using pymatgen
data_TlSbPbS3
_symmetry_space_group_name_H-M   'P 1'
_cell_length_a   4.17568242
_cell_length_b   4.09691223
_cell_length_c   12.13595649
_cell_angle_alpha   88.59289850
_cell_angle_beta   106.98457905
_cell_angle_gamma   89.80744945
_symmetry_Int_Tables_number   1
_chemical_formula_structural   TlSbPbS3
_chemical_formula_sum   'Tl1 Sb1 Pb1 S3'
_cell_volume   198.48734660
_cell_formula_units_Z   1
loop_
 _symmetry_equiv_pos_site_id
 _symmetry_equiv_pos_as_xyz
  1  'x, y, z'
loop_
 _atom_site_type_symbol
 _atom_site_label
 _atom_site_symmetry_multiplicity
 _atom_site_fract_x
 _atom_site_fract_y
 _atom_site_fract_z
 _atom_site_occupancy
  Tl  Tl0  1  0.43460200  0.74009700  0.67670800  1
  Sb  Sb0  1  0.68254500  0.25563500  0.38509400  1
  Pb  Pb0  1  0.94009000  0.77845700  0.11766000  1
  S  S0  1  0.86480300  0.24349400  0.59648500  1
  S  S1  1  0.08725100  0.75089600  0.36724300  1
  S  S2  1  0.41000900  0.27242100  0.12690900  1
loop_
_geom_bond_atom_site_label_1
_geom_bond_atom_site_label_2
_geom_bond_distance
_geom_bond_site_symmetry_2
Pb0 S2 2.804924 1_665
Pb0 S2 2.827296 1_655
Pb0 S1 2.908624 1_655
Pb0 S2 3.022190 1_565
Pb0 S2 3.061800 1_555
S0 Sb0 2.452739 1_555
S0 Tl0 3.062075 1_545
S0 Tl0 3.062252 1_645
S0 Tl0 3.067359 1_555
S0 Tl0 3.086221 1_655
S1 Sb0 2.689819 1_455
S1 Sb0 2.718689 1_465
S1 Sb0 3.157979 1_555
S1 Sb0 3.200618 1_565
S2 Sb0 3.003862 1_555
