# generated using pymatgen
data_U
_symmetry_space_group_name_H-M   'P 1'
_cell_length_a   5.06115600
_cell_length_b   5.86895500
_cell_length_c   22.76192400
_cell_angle_alpha   90.00000000
_cell_angle_beta   90.00000000
_cell_angle_gamma   90.00000000
_symmetry_Int_Tables_number   1
_chemical_formula_structural   U
_chemical_formula_sum   U32
_cell_volume   676.11328935
_cell_formula_units_Z   32
loop_
 _symmetry_equiv_pos_site_id
 _symmetry_equiv_pos_as_xyz
  1  'x, y, z'
loop_
 _atom_site_type_symbol
 _atom_site_label
 _atom_site_symmetry_multiplicity
 _atom_site_fract_x
 _atom_site_fract_y
 _atom_site_fract_z
 _atom_site_occupancy
  U  U0  1  0.00000000  0.21570400  0.50000000  1
  U  U1  1  0.00000000  0.21570400  0.00000000  1
  U  U2  1  0.00000000  0.78429600  0.50000000  1
  U  U3  1  0.00000000  0.78429600  0.00000000  1
  U  U4  1  0.98919800  0.28192000  0.75000000  1
  U  U5  1  0.01080200  0.28192000  0.25000000  1
  U  U6  1  0.01080200  0.71808000  0.25000000  1
  U  U7  1  0.98919800  0.71808000  0.75000000  1
  U  U8  1  0.49609400  0.28308900  0.56130200  1
  U  U9  1  0.50390600  0.28308900  0.43869800  1
  U  U10  1  0.49609400  0.28308900  0.93869800  1
  U  U11  1  0.50390600  0.28308900  0.06130200  1
  U  U12  1  0.50390600  0.71691100  0.43869800  1
  U  U13  1  0.49609400  0.71691100  0.56130200  1
  U  U14  1  0.50390600  0.71691100  0.06130200  1
  U  U15  1  0.49609400  0.71691100  0.93869800  1
  U  U16  1  0.99234000  0.22275300  0.62431300  1
  U  U17  1  0.00766000  0.22275300  0.37568700  1
  U  U18  1  0.99234000  0.22275300  0.87568700  1
  U  U19  1  0.00766000  0.22275300  0.12431300  1
  U  U20  1  0.00766000  0.77724700  0.37568700  1
  U  U21  1  0.99234000  0.77724700  0.62431300  1
  U  U22  1  0.00766000  0.77724700  0.12431300  1
  U  U23  1  0.99234000  0.77724700  0.87568700  1
  U  U24  1  0.48946900  0.22307200  0.68805400  1
  U  U25  1  0.51053100  0.22307200  0.31194600  1
  U  U26  1  0.48946900  0.22307200  0.81194600  1
  U  U27  1  0.51053100  0.22307200  0.18805400  1
  U  U28  1  0.51053100  0.77692800  0.31194600  1
  U  U29  1  0.48946900  0.77692800  0.68805400  1
  U  U30  1  0.51053100  0.77692800  0.18805400  1
  U  U31  1  0.48946900  0.77692800  0.81194600  1
loop_
_geom_bond_atom_site_label_1
_geom_bond_atom_site_label_2
_geom_bond_distance
_geom_bond_site_symmetry_2
U0 U2 2.531914 1_545
U0 U16 2.830171 1_455
U0 U17 2.830171 1_555
U0 U8 2.899581 1_555
U0 U9 2.899581 1_455
U0 U8 2.933885 1_455
U0 U9 2.933885 1_555
U0 U2 3.337041 1_555
U1 U3 2.531914 1_545
U1 U19 2.830171 1_555
U1 U18 2.830171 1_454
U1 U11 2.899581 1_455
U1 U10 2.899581 1_554
U1 U11 2.933885 1_555
U1 U10 2.933885 1_454
U1 U3 3.337041 1_555
U2 U21 2.830171 1_455
U2 U20 2.830171 1_555
U4 U7 2.559803 1_555
U4 U7 3.309152 1_545
U5 U6 2.559803 1_555
U5 U6 3.309152 1_545
U8 U9 2.790983 1_555
U10 U15 2.546082 1_555
U10 U11 2.790983 1_556
U10 U26 2.906735 1_555
U10 U18 2.913846 1_555
U10 U18 2.946662 1_455
U10 U15 3.322873 1_545
U11 U14 2.546082 1_555
U11 U27 2.906735 1_555
U11 U19 2.913846 1_555
U11 U19 2.946662 1_655
U11 U14 3.322873 1_545
U12 U9 2.546082 1_555
U12 U13 2.790983 1_555
U12 U2 2.899581 1_655
U12 U28 2.906735 1_555
U12 U20 2.913846 1_555
U12 U2 2.933885 1_555
U12 U20 2.946662 1_655
U12 U9 3.322873 1_565
U13 U8 2.546082 1_555
U13 U2 2.899581 1_555
U13 U29 2.906735 1_555
U13 U21 2.913846 1_555
U13 U2 2.933885 1_655
U13 U21 2.946662 1_455
U13 U8 3.322873 1_565
U14 U15 2.790983 1_554
U14 U3 2.899581 1_655
U14 U30 2.906735 1_555
U14 U22 2.913846 1_555
U14 U3 2.933885 1_555
U14 U22 2.946662 1_655
U15 U3 2.899581 1_556
U15 U31 2.906735 1_555
U15 U23 2.913846 1_555
U15 U3 2.933885 1_656
U15 U23 2.946662 1_455
U16 U21 2.614655 1_545
U16 U4 2.881919 1_555
U16 U24 2.904396 1_655
U16 U8 2.913846 1_555
U16 U24 2.929607 1_555
U16 U8 2.946662 1_655
U16 U21 3.254300 1_555
U17 U20 2.614655 1_545
U17 U5 2.881919 1_555
U17 U25 2.904396 1_455
U17 U9 2.913846 1_555
U17 U25 2.929607 1_555
U17 U9 2.946662 1_455
U17 U20 3.254300 1_555
U18 U23 2.614655 1_545
U18 U4 2.881919 1_555
U18 U26 2.904396 1_655
U18 U26 2.929607 1_555
U18 U23 3.254300 1_555
U19 U22 2.614655 1_545
U19 U5 2.881919 1_555
U19 U27 2.904396 1_455
U19 U27 2.929607 1_555
U19 U22 3.254300 1_555
U20 U6 2.881919 1_555
U20 U28 2.904396 1_455
U20 U28 2.929607 1_555
U21 U7 2.881919 1_555
U21 U29 2.904396 1_655
U21 U29 2.929607 1_555
U22 U3 2.830171 1_555
U22 U6 2.881919 1_555
U22 U30 2.904396 1_455
U22 U30 2.929607 1_555
U23 U3 2.830171 1_656
U23 U7 2.881919 1_555
U23 U31 2.904396 1_655
U23 U31 2.929607 1_555
U24 U29 2.618399 1_545
U24 U26 2.820020 1_555
U24 U8 2.906735 1_555
U24 U4 2.916213 1_555
U24 U4 2.918592 1_455
U24 U29 3.250556 1_555
U25 U28 2.618399 1_545
U25 U27 2.820020 1_555
U25 U9 2.906735 1_555
U25 U5 2.916213 1_555
U25 U5 2.918592 1_655
U25 U28 3.250556 1_555
U26 U31 2.618399 1_545
U26 U4 2.916213 1_555
U26 U4 2.918592 1_455
U26 U31 3.250556 1_555
U27 U30 2.618399 1_545
U27 U5 2.916213 1_555
U27 U5 2.918592 1_655
U27 U30 3.250556 1_555
U28 U30 2.820020 1_555
U28 U6 2.916213 1_555
U28 U6 2.918592 1_655
U29 U31 2.820020 1_555
U29 U7 2.916213 1_555
U29 U7 2.918592 1_455
U30 U6 2.916213 1_555
U30 U6 2.918592 1_655
U31 U7 2.916213 1_555
U31 U7 2.918592 1_455
