# generated using pymatgen
data_Th2Si3Au
_symmetry_space_group_name_H-M   'P 1'
_cell_length_a   4.25255925
_cell_length_b   4.25398331
_cell_length_c   7.68974192
_cell_angle_alpha   73.94472798
_cell_angle_beta   73.91732373
_cell_angle_gamma   90.00220258
_symmetry_Int_Tables_number   1
_chemical_formula_structural   Th2Si3Au
_chemical_formula_sum   'Th2 Si3 Au1'
_cell_volume   128.00857369
_cell_formula_units_Z   1
loop_
 _symmetry_equiv_pos_site_id
 _symmetry_equiv_pos_as_xyz
  1  'x, y, z'
loop_
 _atom_site_type_symbol
 _atom_site_label
 _atom_site_symmetry_multiplicity
 _atom_site_fract_x
 _atom_site_fract_y
 _atom_site_fract_z
 _atom_site_occupancy
  Th  Th0  1  0.74163244  0.24186328  0.51630594  1
  Th  Th1  1  0.00668255  0.00640698  0.98718067  1
  Si  Si0  1  0.41844878  0.41862797  0.16265228  1
  Si  Si1  1  0.16341153  0.66321372  0.67348053  1
  Si  Si2  1  0.58482021  0.58492309  0.83030429  1
  Au  Au0  1  0.33500549  0.83496496  0.33007730  1
loop_
_geom_bond_atom_site_label_1
_geom_bond_atom_site_label_2
_geom_bond_distance
_geom_bond_site_symmetry_2
Si0 Si2 2.351722 1_554
Si0 Th1 3.252629 1_554
Si0 Th1 3.253022 1_564
Si0 Th1 3.254576 1_654
Si0 Th1 3.254755 1_664
Si0 Th0 3.282866 1_455
Si0 Th0 3.284777 1_555
Si1 Si2 2.398322 1_555
Si1 Si2 2.398550 1_455
Si1 Th1 3.074240 1_555
Si1 Th1 3.074408 1_565
Si1 Th0 3.204975 1_555
Si1 Th0 3.205260 1_565
Si1 Th0 3.207777 1_455
Si1 Th0 3.208278 1_465
Si2 Th0 3.075718 1_565
Si2 Th0 3.075978 1_555
Si2 Th1 3.204386 1_565
Si2 Th1 3.204759 1_555
Si2 Th1 3.206815 1_665
Si2 Th1 3.207405 1_655
Au0 Si1 2.429950 1_555
Au0 Si0 2.434520 1_565
Au0 Si0 2.434830 1_555
Au0 Th1 3.225918 1_664
Au0 Th1 3.226465 1_564
Au0 Th0 3.283279 1_565
Au0 Th0 3.283364 1_555
Au0 Th0 3.283707 1_455
Au0 Th0 3.283834 1_465
