# generated using pymatgen
data_CaMg30BiO32
_symmetry_space_group_name_H-M   'P 1'
_cell_length_a   8.66424300
_cell_length_b   8.66424300
_cell_length_c   8.71195700
_cell_angle_alpha   90.00000000
_cell_angle_beta   90.00000000
_cell_angle_gamma   90.00000000
_symmetry_Int_Tables_number   1
_chemical_formula_structural   CaMg30BiO32
_chemical_formula_sum   'Ca1 Mg30 Bi1 O32'
_cell_volume   653.99883015
_cell_formula_units_Z   1
loop_
 _symmetry_equiv_pos_site_id
 _symmetry_equiv_pos_as_xyz
  1  'x, y, z'
loop_
 _atom_site_type_symbol
 _atom_site_label
 _atom_site_symmetry_multiplicity
 _atom_site_fract_x
 _atom_site_fract_y
 _atom_site_fract_z
 _atom_site_occupancy
  Ca  Ca0  1  0.00000000  0.00000000  0.00000000  1
  Mg  Mg0  1  0.00000000  0.50000000  0.00000000  1
  Mg  Mg1  1  0.00000000  0.50000000  0.50000000  1
  Mg  Mg2  1  0.50000000  0.00000000  0.00000000  1
  Mg  Mg3  1  0.50000000  0.00000000  0.50000000  1
  Mg  Mg4  1  0.50000000  0.50000000  0.00000000  1
  Mg  Mg5  1  0.50000000  0.50000000  0.50000000  1
  Mg  Mg6  1  0.00000000  0.25982500  0.24596000  1
  Mg  Mg7  1  0.00000000  0.25982500  0.75404000  1
  Mg  Mg8  1  0.00000000  0.74017500  0.24596000  1
  Mg  Mg9  1  0.00000000  0.74017500  0.75404000  1
  Mg  Mg10  1  0.50000000  0.25116700  0.24950200  1
  Mg  Mg11  1  0.50000000  0.25116700  0.75049800  1
  Mg  Mg12  1  0.50000000  0.74883300  0.24950200  1
  Mg  Mg13  1  0.50000000  0.74883300  0.75049800  1
  Mg  Mg14  1  0.25982500  0.00000000  0.24596000  1
  Mg  Mg15  1  0.25982500  0.00000000  0.75404000  1
  Mg  Mg16  1  0.25116700  0.50000000  0.24950200  1
  Mg  Mg17  1  0.25116700  0.50000000  0.75049800  1
  Mg  Mg18  1  0.74017500  0.00000000  0.24596000  1
  Mg  Mg19  1  0.74017500  0.00000000  0.75404000  1
  Mg  Mg20  1  0.74883300  0.50000000  0.24950200  1
  Mg  Mg21  1  0.74883300  0.50000000  0.75049800  1
  Mg  Mg22  1  0.25378900  0.25378900  0.00000000  1
  Mg  Mg23  1  0.25674300  0.25674300  0.50000000  1
  Mg  Mg24  1  0.25378900  0.74621100  0.00000000  1
  Mg  Mg25  1  0.25674300  0.74325700  0.50000000  1
  Mg  Mg26  1  0.74621100  0.25378900  0.00000000  1
  Mg  Mg27  1  0.74325700  0.25674300  0.50000000  1
  Mg  Mg28  1  0.74621100  0.74621100  0.00000000  1
  Mg  Mg29  1  0.74325700  0.74325700  0.50000000  1
  Bi  Bi0  1  0.00000000  0.00000000  0.50000000  1
  O  O0  1  0.26370700  0.00000000  0.00000000  1
  O  O1  1  0.27050400  0.00000000  0.50000000  1
  O  O2  1  0.25202000  0.50000000  0.00000000  1
  O  O3  1  0.25309800  0.50000000  0.50000000  1
  O  O4  1  0.73629300  0.00000000  0.00000000  1
  O  O5  1  0.72949600  0.00000000  0.50000000  1
  O  O6  1  0.74798000  0.50000000  0.00000000  1
  O  O7  1  0.74690200  0.50000000  0.50000000  1
  O  O8  1  0.24872000  0.24872000  0.25058400  1
  O  O9  1  0.24872000  0.24872000  0.74941600  1
  O  O10  1  0.24872000  0.75128000  0.25058400  1
  O  O11  1  0.24872000  0.75128000  0.74941600  1
  O  O12  1  0.75128000  0.24872000  0.25058400  1
  O  O13  1  0.75128000  0.24872000  0.74941600  1
  O  O14  1  0.75128000  0.75128000  0.25058400  1
  O  O15  1  0.75128000  0.75128000  0.74941600  1
  O  O16  1  0.00000000  0.00000000  0.24311700  1
  O  O17  1  0.00000000  0.00000000  0.75688300  1
  O  O18  1  0.00000000  0.50000000  0.24898200  1
  O  O19  1  0.00000000  0.50000000  0.75101800  1
  O  O20  1  0.50000000  0.00000000  0.24898200  1
  O  O21  1  0.50000000  0.00000000  0.75101800  1
  O  O22  1  0.50000000  0.50000000  0.25014000  1
  O  O23  1  0.50000000  0.50000000  0.74986000  1
  O  O24  1  0.00000000  0.26370700  0.00000000  1
  O  O25  1  0.00000000  0.27050400  0.50000000  1
  O  O26  1  0.00000000  0.73629300  0.00000000  1
  O  O27  1  0.00000000  0.72949600  0.50000000  1
  O  O28  1  0.50000000  0.25202000  0.00000000  1
  O  O29  1  0.50000000  0.25309800  0.50000000  1
  O  O30  1  0.50000000  0.74798000  0.00000000  1
  O  O31  1  0.50000000  0.74690200  0.50000000  1
loop_
_geom_bond_atom_site_label_1
_geom_bond_atom_site_label_2
_geom_bond_distance
_geom_bond_site_symmetry_2
Ca0 O16 2.118025 1_555
Ca0 O17 2.118025 1_554
Ca0 O0 2.284822 1_555
Ca0 O24 2.284822 1_555
Ca0 O4 2.284822 1_455
Ca0 O26 2.284822 1_545
Mg0 O26 2.047300 1_555
Mg0 O24 2.047300 1_555
Mg0 O18 2.169120 1_555
Mg0 O19 2.169120 1_554
Mg0 O6 2.183563 1_455
Mg0 O2 2.183563 1_555
Mg1 O27 1.988409 1_555
Mg1 O25 1.988409 1_555
Mg1 O19 2.186858 1_555
Mg1 O18 2.186858 1_555
Mg1 O3 2.192903 1_555
Mg1 O7 2.192903 1_455
Mg2 O4 2.047300 1_555
Mg2 O0 2.047300 1_555
Mg2 O20 2.169120 1_555
Mg2 O21 2.169120 1_554
Mg2 O30 2.183563 1_545
Mg2 O28 2.183563 1_555
Mg3 O5 1.988409 1_555
Mg3 O1 1.988409 1_555
Mg3 O21 2.186858 1_555
Mg3 O20 2.186858 1_555
Mg3 O29 2.192903 1_555
Mg3 O31 2.192903 1_545
Mg4 O2 2.148559 1_555
Mg4 O28 2.148559 1_555
Mg4 O30 2.148559 1_555
Mg4 O6 2.148559 1_555
Mg4 O23 2.179209 1_554
Mg4 O22 2.179209 1_555
Mg5 O7 2.139219 1_555
Mg5 O31 2.139219 1_555
Mg5 O3 2.139219 1_555
Mg5 O29 2.139219 1_555
Mg5 O22 2.176770 1_555
Mg5 O23 2.176770 1_555
Mg6 O18 2.081101 1_555
Mg6 O24 2.143057 1_555
Mg6 O12 2.157494 1_455
Mg6 O8 2.157494 1_555
Mg6 O25 2.215119 1_555
Mg6 O16 2.251323 1_555
Mg7 O19 2.081101 1_555
Mg7 O24 2.143057 1_556
Mg7 O13 2.157494 1_455
Mg7 O9 2.157494 1_555
Mg7 O25 2.215119 1_555
Mg7 O17 2.251323 1_555
Mg8 O18 2.081101 1_555
Mg8 O26 2.143057 1_555
Mg8 O14 2.157494 1_455
Mg8 O10 2.157494 1_555
Mg8 O27 2.215119 1_555
Mg8 O16 2.251323 1_565
Mg9 O19 2.081101 1_555
Mg9 O26 2.143057 1_556
Mg9 O15 2.157494 1_455
Mg9 O11 2.157494 1_555
Mg9 O27 2.215119 1_555
Mg9 O17 2.251323 1_565
Mg10 O22 2.155957 1_555
Mg10 O28 2.173663 1_555
Mg10 O20 2.176177 1_555
Mg10 O8 2.177275 1_555
Mg10 O12 2.177275 1_555
Mg10 O29 2.182392 1_555
Mg11 O23 2.155957 1_555
Mg11 O28 2.173663 1_556
Mg11 O21 2.176177 1_555
Mg11 O9 2.177275 1_555
Mg11 O13 2.177275 1_555
Mg11 O29 2.182392 1_555
Mg12 O22 2.155957 1_555
Mg12 O30 2.173663 1_555
Mg12 O20 2.176177 1_565
Mg12 O10 2.177275 1_555
Mg12 O14 2.177275 1_555
Mg12 O31 2.182392 1_555
Mg13 O23 2.155957 1_555
Mg13 O30 2.173663 1_556
Mg13 O21 2.176177 1_565
Mg13 O11 2.177275 1_555
Mg13 O15 2.177275 1_555
Mg13 O31 2.182392 1_555
Mg14 O20 2.081101 1_555
Mg14 O0 2.143057 1_555
Mg14 O10 2.157494 1_545
Mg14 O8 2.157494 1_555
Mg14 O1 2.215119 1_555
Mg14 O16 2.251323 1_555
Mg15 O21 2.081101 1_555
Mg15 O0 2.143057 1_556
Mg15 O11 2.157494 1_545
Mg15 O9 2.157494 1_555
Mg15 O1 2.215119 1_555
Mg15 O17 2.251323 1_555
Mg16 O22 2.155957 1_555
Mg16 O2 2.173663 1_555
Mg16 O18 2.176177 1_555
Mg16 O8 2.177275 1_555
Mg16 O10 2.177275 1_555
Mg16 O3 2.182392 1_555
Mg17 O23 2.155957 1_555
Mg17 O2 2.173663 1_556
Mg17 O19 2.176177 1_555
Mg17 O9 2.177275 1_555
Mg17 O11 2.177275 1_555
Mg17 O3 2.182392 1_555
Mg18 O20 2.081101 1_555
Mg18 O4 2.143057 1_555
Mg18 O14 2.157494 1_545
Mg18 O12 2.157494 1_555
Mg18 O5 2.215119 1_555
Mg18 O16 2.251323 1_655
Mg19 O21 2.081101 1_555
Mg19 O4 2.143057 1_556
Mg19 O15 2.157494 1_545
Mg19 O13 2.157494 1_555
Mg19 O5 2.215119 1_555
Mg19 O17 2.251323 1_655
Mg20 O22 2.155957 1_555
Mg20 O6 2.173663 1_555
Mg20 O18 2.176177 1_655
Mg20 O12 2.177275 1_555
Mg20 O14 2.177275 1_555
Mg20 O7 2.182392 1_555
Mg21 O23 2.155957 1_555
Mg21 O6 2.173663 1_556
Mg21 O19 2.176177 1_655
Mg21 O13 2.177275 1_555
Mg21 O15 2.177275 1_555
Mg21 O7 2.182392 1_555
Mg22 O2 2.133287 1_555
Mg22 O28 2.133287 1_555
Mg22 O8 2.183960 1_555
Mg22 O9 2.183960 1_554
Mg22 O0 2.200568 1_555
Mg22 O24 2.200568 1_555
Mg23 O3 2.107874 1_555
Mg23 O29 2.107874 1_555
Mg23 O9 2.175124 1_555
Mg23 O8 2.175124 1_555
Mg23 O1 2.227677 1_555
Mg23 O25 2.227677 1_555
Mg24 O2 2.133287 1_555
Mg24 O30 2.133287 1_555
Mg24 O10 2.183960 1_555
Mg24 O11 2.183960 1_554
Mg24 O26 2.200568 1_555
Mg24 O0 2.200568 1_565
Mg25 O3 2.107874 1_555
Mg25 O31 2.107874 1_555
Mg25 O11 2.175124 1_555
Mg25 O10 2.175124 1_555
Mg25 O1 2.227677 1_565
Mg25 O27 2.227677 1_555
Mg26 O28 2.133287 1_555
Mg26 O6 2.133287 1_555
Mg26 O12 2.183960 1_555
Mg26 O13 2.183960 1_554
Mg26 O4 2.200568 1_555
Mg26 O24 2.200568 1_655
Mg27 O29 2.107874 1_555
Mg27 O7 2.107874 1_555
Mg27 O13 2.175124 1_555
Mg27 O12 2.175124 1_555
Mg27 O25 2.227677 1_655
Mg27 O5 2.227677 1_555
Mg28 O30 2.133287 1_555
Mg28 O6 2.133287 1_555
Mg28 O14 2.183960 1_555
Mg28 O15 2.183960 1_554
Mg28 O26 2.200568 1_655
Mg28 O4 2.200568 1_565
Mg29 O31 2.107874 1_555
Mg29 O7 2.107874 1_555
Mg29 O15 2.175124 1_555
Mg29 O14 2.175124 1_555
Mg29 O27 2.227677 1_655
Mg29 O5 2.227677 1_565
Bi0 O17 2.237954 1_555
Bi0 O16 2.237954 1_555
Bi0 O1 2.343712 1_555
Bi0 O25 2.343712 1_555
Bi0 O27 2.343712 1_545
Bi0 O5 2.343712 1_455
