# generated using pymatgen
data_RbMg14V
_symmetry_space_group_name_H-M   'P 1'
_cell_length_a   6.54321961
_cell_length_b   6.54321905
_cell_length_c   10.51907129
_cell_angle_alpha   90.00000000
_cell_angle_beta   90.00000000
_cell_angle_gamma   120.00000279
_symmetry_Int_Tables_number   1
_chemical_formula_structural   RbMg14V
_chemical_formula_sum   'Rb1 Mg14 V1'
_cell_volume   390.02367868
_cell_formula_units_Z   1
loop_
 _symmetry_equiv_pos_site_id
 _symmetry_equiv_pos_as_xyz
  1  'x, y, z'
loop_
 _atom_site_type_symbol
 _atom_site_label
 _atom_site_symmetry_multiplicity
 _atom_site_fract_x
 _atom_site_fract_y
 _atom_site_fract_z
 _atom_site_occupancy
  Rb  Rb0  1  0.16666700  0.33333300  0.62500000  1
  Mg  Mg0  1  0.16012659  0.83006279  0.12500000  1
  Mg  Mg1  1  0.17699035  0.83849468  0.62500000  1
  Mg  Mg2  1  0.66993721  0.33987341  0.12500000  1
  Mg  Mg3  1  0.66150532  0.32300965  0.62500000  1
  Mg  Mg4  1  0.66993721  0.83006279  0.12500000  1
  Mg  Mg5  1  0.66150532  0.83849468  0.62500000  1
  Mg  Mg6  1  0.33485887  0.16514113  0.35387045  1
  Mg  Mg7  1  0.33485887  0.16514113  0.89612955  1
  Mg  Mg8  1  0.33485887  0.66971874  0.35387045  1
  Mg  Mg9  1  0.33485887  0.66971874  0.89612955  1
  Mg  Mg10  1  0.83028126  0.16514113  0.35387045  1
  Mg  Mg11  1  0.83028126  0.16514113  0.89612955  1
  Mg  Mg12  1  0.83333300  0.66666700  0.38190553  1
  Mg  Mg13  1  0.83333300  0.66666700  0.86809447  1
  V  V0  1  0.16666700  0.33333300  0.12500000  1
loop_
_geom_bond_atom_site_label_1
_geom_bond_atom_site_label_2
_geom_bond_distance
_geom_bond_site_symmetry_2
Mg0 Mg9 3.066515 1_554
Mg0 Mg8 3.066515 1_555
Mg0 Mg7 3.066522 1_564
Mg0 Mg6 3.066522 1_565
Mg0 Mg2 3.207416 1_455
Mg0 Mg4 3.207417 1_455
Mg0 V0 3.271819 1_555
Mg0 V0 3.271819 1_565
Mg0 Mg12 3.276003 1_455
Mg0 Mg13 3.276003 1_454
Mg0 Mg2 3.335803 1_565
Mg0 Mg4 3.335803 1_555
Mg1 Mg3 3.170288 1_565
Mg1 Mg5 3.170288 1_555
Mg1 Mg13 3.214209 1_455
Mg1 Mg12 3.214209 1_455
Mg1 Rb0 3.272132 1_565
Mg1 Rb0 3.272133 1_555
Mg1 Mg3 3.372931 1_455
Mg1 Mg5 3.372932 1_455
Mg1 Mg8 3.400208 1_555
Mg1 Mg9 3.400208 1_555
Mg1 Mg6 3.400214 1_565
Mg1 Mg7 3.400214 1_565
Mg2 Mg7 3.066522 1_554
Mg2 Mg6 3.066522 1_555
Mg2 Mg4 3.207416 1_555
Mg2 V0 3.271820 1_655
Mg2 V0 3.271820 1_555
Mg2 Mg4 3.335803 1_545
Mg3 Mg5 3.170288 1_545
Mg3 Rb0 3.272133 1_555
Mg3 Rb0 3.272133 1_655
Mg3 Mg5 3.372931 1_555
Mg3 Mg7 3.400214 1_555
Mg3 Mg6 3.400214 1_555
Mg4 Mg9 3.066522 1_554
Mg4 Mg8 3.066522 1_555
Mg4 V0 3.271819 1_665
Mg4 V0 3.271819 1_555
Mg5 Rb0 3.272132 1_555
Mg5 Rb0 3.272132 1_665
Mg5 Mg8 3.400214 1_555
Mg5 Mg9 3.400214 1_555
Mg6 V0 3.070747 1_555
Mg6 Mg8 3.241657 1_545
Mg6 Mg8 3.301562 1_555
Mg6 Rb0 3.430377 1_555
Mg7 V0 3.070747 1_556
Mg7 Mg9 3.241657 1_545
Mg7 Mg9 3.301562 1_555
Mg7 Rb0 3.430377 1_555
Mg8 V0 3.070754 1_555
Mg8 Rb0 3.430384 1_555
Mg9 V0 3.070754 1_556
Mg9 Rb0 3.430384 1_555
Mg10 Mg2 3.066515 1_555
Mg10 Mg4 3.066522 1_545
Mg10 V0 3.070754 1_655
Mg10 Mg8 3.241657 1_545
Mg10 Mg6 3.241657 1_555
Mg10 Mg12 3.284919 1_555
Mg10 Mg12 3.284919 1_545
Mg10 Mg8 3.301562 1_655
Mg10 Mg6 3.301562 1_655
Mg10 Mg3 3.400208 1_555
Mg10 Mg5 3.400214 1_545
Mg10 Rb0 3.430384 1_655
Mg11 Mg2 3.066515 1_556
Mg11 Mg4 3.066522 1_546
Mg11 V0 3.070754 1_656
Mg11 Mg9 3.241657 1_545
Mg11 Mg7 3.241657 1_555
Mg11 Mg13 3.284919 1_555
Mg11 Mg13 3.284919 1_545
Mg11 Mg9 3.301562 1_655
Mg11 Mg7 3.301562 1_655
Mg11 Mg3 3.400208 1_555
Mg11 Mg5 3.400214 1_545
Mg11 Rb0 3.430384 1_655
Mg12 Mg5 3.214202 1_555
Mg12 Mg3 3.214209 1_555
Mg12 Mg4 3.275996 1_555
Mg12 Mg2 3.276003 1_555
Mg12 Mg6 3.284919 1_555
Mg12 Mg6 3.284919 1_665
Mg12 Mg8 3.284920 1_555
Mg12 Mg8 3.284920 1_655
Mg13 Mg5 3.214202 1_555
Mg13 Mg3 3.214209 1_555
Mg13 Mg4 3.275996 1_556
Mg13 Mg2 3.276003 1_556
Mg13 Mg7 3.284919 1_555
Mg13 Mg7 3.284919 1_665
Mg13 Mg9 3.284920 1_555
Mg13 Mg9 3.284920 1_655
