# generated using pymatgen
data_NiP6H4(N2O9)2
_symmetry_space_group_name_H-M   'P 1'
_cell_length_a   13.02234600
_cell_length_b   8.59877400
_cell_length_c   8.93594145
_cell_angle_alpha   80.38867017
_cell_angle_beta   90.00000000
_cell_angle_gamma   90.00000000
_symmetry_Int_Tables_number   1
_chemical_formula_structural   NiP6H4(N2O9)2
_chemical_formula_sum   'Ni2 P12 H8 N8 O36'
_cell_volume   986.56729581
_cell_formula_units_Z   2
loop_
 _symmetry_equiv_pos_site_id
 _symmetry_equiv_pos_as_xyz
  1  'x, y, z'
loop_
 _atom_site_type_symbol
 _atom_site_label
 _atom_site_symmetry_multiplicity
 _atom_site_fract_x
 _atom_site_fract_y
 _atom_site_fract_z
 _atom_site_occupancy
  Ni  Ni0  1  0.50000000  0.50000000  0.50000000  1
  Ni  Ni1  1  0.00000000  0.50000000  0.00000000  1
  P  P0  1  0.34418800  0.97509300  0.73558100  1
  P  P1  1  0.65581200  0.02490700  0.26441900  1
  P  P2  1  0.84418800  0.02490700  0.76441900  1
  P  P3  1  0.15581200  0.97509300  0.23558100  1
  P  P4  1  0.45536000  0.73890100  0.95906700  1
  P  P5  1  0.54464000  0.26109900  0.04093300  1
  P  P6  1  0.95536000  0.26109900  0.54093300  1
  P  P7  1  0.04464000  0.73890100  0.45906700  1
  P  P8  1  0.33859700  0.63400600  0.70657300  1
  P  P9  1  0.66140300  0.36599400  0.29342700  1
  P  P10  1  0.83859700  0.36599400  0.79342700  1
  P  P11  1  0.16140300  0.63400600  0.20657300  1
  H  H0  1  0.46376000  0.35839100  0.62252900  1
  H  H1  1  0.53624000  0.64160900  0.37747100  1
  H  H2  1  0.96376000  0.64160900  0.87747100  1
  H  H3  1  0.03624000  0.35839100  0.12252900  1
  H  H4  1  0.09233100  0.48081700  0.89337500  1
  H  H5  1  0.90766900  0.51918300  0.10662500  1
  H  H6  1  0.59233100  0.51918300  0.60662500  1
  H  H7  1  0.40766900  0.48081700  0.39337500  1
  N  N0  1  0.84677600  0.74322200  0.46655800  1
  N  N1  1  0.15322400  0.25677800  0.53344200  1
  N  N2  1  0.34677600  0.25677800  0.03344200  1
  N  N3  1  0.65322400  0.74322200  0.96655800  1
  N  N4  1  0.15716500  0.95068800  0.84285900  1
  N  N5  1  0.84283500  0.04931200  0.15714100  1
  N  N6  1  0.65716500  0.04931200  0.65714100  1
  N  N7  1  0.34283500  0.95068800  0.34285900  1
  O  O0  1  0.06956900  0.25912800  0.62089800  1
  O  O1  1  0.93043100  0.74087200  0.37910200  1
  O  O2  1  0.56956900  0.74087200  0.87910200  1
  O  O3  1  0.43043100  0.25912800  0.12089800  1
  O  O4  1  0.30341300  0.82017000  0.67953600  1
  O  O5  1  0.69658700  0.17983000  0.32046400  1
  O  O6  1  0.80341300  0.17983000  0.82046400  1
  O  O7  1  0.19658700  0.82017000  0.17953600  1
  O  O8  1  0.89694500  0.90378000  0.87068400  1
  O  O9  1  0.10305500  0.09622000  0.12931600  1
  O  O10  1  0.39694500  0.09622000  0.62931600  1
  O  O11  1  0.60305500  0.90378000  0.37068400  1
  O  O12  1  0.42475200  0.63682000  0.58941800  1
  O  O13  1  0.57524800  0.36318000  0.41058200  1
  O  O14  1  0.92475200  0.36318000  0.91058200  1
  O  O15  1  0.07524800  0.63682000  0.08941800  1
  O  O16  1  0.40902900  0.90885700  0.88751700  1
  O  O17  1  0.59097100  0.09114300  0.11248300  1
  O  O18  1  0.90902900  0.09114300  0.61248300  1
  O  O19  1  0.09097100  0.90885700  0.38751700  1
  O  O20  1  0.39493900  0.62009900  0.87361300  1
  O  O21  1  0.60506100  0.37990100  0.12638700  1
  O  O22  1  0.89493900  0.37990100  0.62638700  1
  O  O23  1  0.10506100  0.62009900  0.37361300  1
  O  O24  1  0.25051000  0.52753200  0.71559100  1
  O  O25  1  0.74949000  0.47246800  0.28440900  1
  O  O26  1  0.75051000  0.47246800  0.78440900  1
  O  O27  1  0.24949000  0.52753200  0.21559100  1
  O  O28  1  0.73931700  0.95728800  0.69636300  1
  O  O29  1  0.26068300  0.04271200  0.30363700  1
  O  O30  1  0.23931700  0.04271200  0.80363700  1
  O  O31  1  0.76068300  0.95728800  0.19636300  1
  O  O32  1  0.04361300  0.70635600  0.62464500  1
  O  O33  1  0.95638700  0.29364400  0.37535500  1
  O  O34  1  0.54361300  0.29364400  0.87535500  1
  O  O35  1  0.45638700  0.70635600  0.12464500  1
loop_
_geom_bond_atom_site_label_1
_geom_bond_atom_site_label_2
_geom_bond_distance
_geom_bond_site_symmetry_2
Ni0 O13 1.815680 1_555
Ni0 O12 1.815680 1_555
Ni1 O15 1.815680 1_555
Ni1 O14 1.815680 1_454
H0 Ni0 1.568136 1_555
H1 Ni0 1.568136 1_555
H2 Ni1 1.568136 1_656
H3 Ni1 1.568136 1_555
H4 Ni1 1.559869 1_556
H5 Ni1 1.559869 1_655
H6 Ni0 1.559869 1_555
H7 Ni0 1.559869 1_555
N0 O1 1.342827 1_555
N1 O0 1.342827 1_555
N2 O3 1.342827 1_555
N3 O2 1.342827 1_555
N4 O30 1.341966 1_565
N5 O31 1.341966 1_545
N6 O28 1.341966 1_545
N7 O29 1.341966 1_565
O0 P6 1.648882 1_455
O1 P7 1.648882 1_655
O2 P4 1.648882 1_555
O3 P5 1.648882 1_555
O4 P0 1.590648 1_555
O4 P8 1.643671 1_555
O5 P1 1.590648 1_555
O5 P9 1.643671 1_555
O6 P2 1.590648 1_555
O6 P10 1.643671 1_555
O7 P3 1.590648 1_555
O7 P11 1.643671 1_555
O8 P2 1.458850 1_565
O9 P3 1.458850 1_545
O10 P0 1.458850 1_545
O11 P1 1.458850 1_565
O12 P8 1.531945 1_555
O13 P9 1.531945 1_555
O14 P10 1.531945 1_555
O15 P11 1.531945 1_555
O16 P4 1.611372 1_555
O16 P0 1.619406 1_555
O17 P5 1.611372 1_555
O17 P1 1.619406 1_555
O18 P6 1.611372 1_555
O18 P2 1.619406 1_555
O19 P7 1.611372 1_555
O19 P3 1.619406 1_555
O20 P4 1.583113 1_555
O20 P8 1.649561 1_555
O21 P5 1.583113 1_555
O21 P9 1.649561 1_555
O22 P6 1.583113 1_555
O22 P10 1.649561 1_555
O23 P7 1.583113 1_555
O23 P11 1.649561 1_555
O24 P8 1.461478 1_555
O25 P9 1.461478 1_555
O26 P10 1.461478 1_555
O27 P11 1.461478 1_555
O28 P2 1.640437 1_565
O29 P3 1.640437 1_545
O30 P0 1.640437 1_545
O31 P1 1.640437 1_565
O32 P7 1.459256 1_555
O33 P6 1.459256 1_555
O34 P5 1.459256 1_556
O35 P4 1.459256 1_554
