# generated using pymatgen
data_Cd3Fe
_symmetry_space_group_name_H-M   'P 1'
_cell_length_a   4.76025416
_cell_length_b   4.76025416
_cell_length_c   4.76025416
_cell_angle_alpha   60.00000000
_cell_angle_beta   60.00000000
_cell_angle_gamma   60.00000000
_symmetry_Int_Tables_number   1
_chemical_formula_structural   Cd3Fe
_chemical_formula_sum   'Cd3 Fe1'
_cell_volume   76.27380763
_cell_formula_units_Z   1
loop_
 _symmetry_equiv_pos_site_id
 _symmetry_equiv_pos_as_xyz
  1  'x, y, z'
loop_
 _atom_site_type_symbol
 _atom_site_label
 _atom_site_symmetry_multiplicity
 _atom_site_fract_x
 _atom_site_fract_y
 _atom_site_fract_z
 _atom_site_occupancy
  Cd  Cd0  1  0.25000000  0.25000000  0.25000000  1
  Cd  Cd1  1  0.75000000  0.75000000  0.75000000  1
  Cd  Cd2  1  0.50000000  0.50000000  0.50000000  1
  Fe  Fe0  1  0.00000000  0.00000000  0.00000000  1
loop_
_geom_bond_atom_site_label_1
_geom_bond_atom_site_label_2
_geom_bond_distance
_geom_bond_site_symmetry_2
Cd0 Fe0 2.915048 1_655
Cd0 Cd2 2.915048 1_455
Cd0 Fe0 2.915048 1_556
Cd0 Cd2 2.915048 1_545
Cd0 Fe0 2.915048 1_555
Cd0 Fe0 2.915048 1_565
Cd0 Cd2 2.915048 1_555
Cd0 Cd2 2.915048 1_554
Cd1 Cd2 2.915048 1_655
Cd1 Fe0 2.915048 1_566
Cd1 Cd2 2.915048 1_565
Cd1 Fe0 2.915048 1_666
Cd1 Fe0 2.915048 1_665
Cd1 Fe0 2.915048 1_656
Cd1 Cd2 2.915048 1_555
Cd1 Cd2 2.915048 1_556
Cd2 Fe0 3.366008 1_556
Cd2 Fe0 3.366008 1_566
Cd2 Fe0 3.366008 1_655
Cd2 Fe0 3.366008 1_665
Cd2 Fe0 3.366008 1_656
Cd2 Fe0 3.366008 1_565
