# generated using pymatgen
data_LiMn6O5F7
_symmetry_space_group_name_H-M   'P 1'
_cell_length_a   7.19950291
_cell_length_b   5.89798795
_cell_length_c   5.89792909
_cell_angle_alpha   78.86317351
_cell_angle_beta   75.32065605
_cell_angle_gamma   75.32011864
_symmetry_Int_Tables_number   1
_chemical_formula_structural   LiMn6O5F7
_chemical_formula_sum   'Li1 Mn6 O5 F7'
_cell_volume   232.12313933
_cell_formula_units_Z   1
loop_
 _symmetry_equiv_pos_site_id
 _symmetry_equiv_pos_as_xyz
  1  'x, y, z'
loop_
 _atom_site_type_symbol
 _atom_site_label
 _atom_site_symmetry_multiplicity
 _atom_site_fract_x
 _atom_site_fract_y
 _atom_site_fract_z
 _atom_site_occupancy
  Li  Li0  1  0.83334200  0.94128900  0.39205300  1
  Mn  Mn0  1  0.83333500  0.62073400  0.71259200  1
  Mn  Mn1  1  0.67459600  0.36634700  0.32246400  1
  Mn  Mn2  1  0.33333000  0.70007300  0.63325600  1
  Mn  Mn3  1  0.16716900  0.30920000  0.31435800  1
  Mn  Mn4  1  0.49949400  0.01898400  0.02412900  1
  Mn  Mn5  1  0.99206400  0.01087800  0.96698700  1
  O  O0  1  0.63722600  0.57145300  0.56609900  1
  O  O1  1  0.96245500  0.20835100  0.23445600  1
  O  O2  1  0.70421300  0.09887300  0.12498600  1
  O  O3  1  0.02943800  0.76723400  0.76187500  1
  O  O4  1  0.33333300  0.99484100  0.33849000  1
  F  F0  1  0.66463100  0.00519800  0.68052000  1
  F  F1  1  0.33333300  0.37654900  0.95678800  1
  F  F2  1  0.29621100  0.92227600  0.89997100  1
  F  F3  1  0.37046000  0.43336000  0.41106000  1
  F  F4  1  0.65690000  0.64208600  0.03636700  1
  F  F5  1  0.00977100  0.29696500  0.69124600  1
  F  F6  1  0.00203100  0.65281000  0.32813300  1
loop_
_geom_bond_atom_site_label_1
_geom_bond_atom_site_label_2
_geom_bond_distance
_geom_bond_site_symmetry_2
Li0 O1 1.986874 1_565
Li0 O2 1.986924 1_565
Mn0 O0 1.935892 1_555
Mn0 O3 1.935894 1_655
Mn1 O0 1.977677 1_555
Mn1 O1 2.023769 1_555
Mn1 O2 2.074644 1_555
Mn2 O3 2.086818 1_555
Mn2 O0 2.086843 1_555
Mn2 O4 2.208469 1_555
Mn3 O1 1.911202 1_455
Mn3 O4 1.936282 1_545
Mn4 O2 1.911221 1_555
Mn4 O4 1.936283 1_545
Mn5 O3 1.977742 1_645
Mn5 O2 2.023721 1_556
Mn5 O1 2.074608 1_556
F0 Li0 1.865575 1_545
F0 Mn4 2.078621 1_556
F0 Mn0 2.282035 1_545
F0 Mn1 2.695348 1_555
F1 Mn4 2.162153 1_556
F1 Mn3 2.162187 1_556
F1 Mn2 2.423953 1_555
F2 Mn4 2.032514 1_566
F2 Mn5 2.070098 1_465
F2 Mn2 2.160863 1_555
F3 Mn3 2.032555 1_555
F3 Mn1 2.070024 1_555
F3 Mn2 2.160810 1_555
F4 Mn0 2.014550 1_554
F4 Mn1 2.110022 1_555
F4 Mn4 2.221171 1_565
F5 Mn0 2.014527 1_455
F5 Mn5 2.109999 1_455
F5 Mn3 2.221096 1_555
F6 Li0 1.865591 1_455
F6 Mn3 2.078629 1_555
F6 Mn0 2.281986 1_455
F6 Mn5 2.695380 1_464
