# generated using pymatgen
data_V5Bi17Pb5O43
_symmetry_space_group_name_H-M   'P 1'
_cell_length_a   11.91490765
_cell_length_b   11.91490765
_cell_length_c   11.98186667
_cell_angle_alpha   61.91165688
_cell_angle_beta   61.91165688
_cell_angle_gamma   92.95414550
_symmetry_Int_Tables_number   1
_chemical_formula_structural   V5Bi17Pb5O43
_chemical_formula_sum   'V5 Bi17 Pb5 O43'
_cell_volume   1239.66816784
_cell_formula_units_Z   1
loop_
 _symmetry_equiv_pos_site_id
 _symmetry_equiv_pos_as_xyz
  1  'x, y, z'
loop_
 _atom_site_type_symbol
 _atom_site_label
 _atom_site_symmetry_multiplicity
 _atom_site_fract_x
 _atom_site_fract_y
 _atom_site_fract_z
 _atom_site_occupancy
  V  V0  1  0.65857100  0.96880400  0.70243800  1
  V  V1  1  0.96880400  0.65857100  0.70243800  1
  V  V2  1  0.98115600  0.98115600  0.02910100  1
  V  V3  1  0.64843100  0.34348900  0.34546200  1
  V  V4  1  0.34348900  0.64843100  0.34546200  1
  Bi  Bi0  1  0.99770300  0.99770300  0.34980300  1
  Bi  Bi1  1  0.35551200  0.01639600  0.29871100  1
  Bi  Bi2  1  0.01639600  0.35551200  0.29871100  1
  Bi  Bi3  1  0.36193200  0.63998700  0.00526300  1
  Bi  Bi4  1  0.63998700  0.36193200  0.00526300  1
  Bi  Bi5  1  0.63376400  0.63376400  0.40530200  1
  Bi  Bi6  1  0.67157300  0.03117800  0.01493400  1
  Bi  Bi7  1  0.03117800  0.67157300  0.01493400  1
  Bi  Bi8  1  0.65817200  0.65817200  0.00769200  1
  Bi  Bi9  1  0.32303100  0.00840500  0.02029700  1
  Bi  Bi10  1  0.00840500  0.32303100  0.02029700  1
  Bi  Bi11  1  0.65466700  0.99863800  0.35683100  1
  Bi  Bi12  1  0.99863800  0.65466700  0.35683100  1
  Bi  Bi13  1  0.35824500  0.00808100  0.65122200  1
  Bi  Bi14  1  0.00808100  0.35824500  0.65122200  1
  Bi  Bi15  1  0.03440500  0.03440500  0.64618600  1
  Bi  Bi16  1  0.33180700  0.33180700  0.69667400  1
  Pb  Pb0  1  0.33280300  0.33280300  0.32742300  1
  Pb  Pb1  1  0.33784200  0.33784200  0.99658000  1
  Pb  Pb2  1  0.66763700  0.33741700  0.67847400  1
  Pb  Pb3  1  0.33741700  0.66763700  0.67847400  1
  Pb  Pb4  1  0.65845100  0.65845100  0.68379400  1
  O  O0  1  0.45264400  0.65019200  0.17985700  1
  O  O1  1  0.65019200  0.45264400  0.17985700  1
  O  O2  1  0.06425100  0.06425100  0.06915200  1
  O  O3  1  0.48758900  0.48758900  0.64288000  1
  O  O4  1  0.38966400  0.21362500  0.85537600  1
  O  O5  1  0.21362500  0.38966400  0.85537600  1
  O  O6  1  0.58894800  0.07009400  0.19393400  1
  O  O7  1  0.07009400  0.58894800  0.19393400  1
  O  O8  1  0.21450400  0.02870000  0.20862500  1
  O  O9  1  0.02870000  0.21450400  0.20862500  1
  O  O10  1  0.59626600  0.77200800  0.47362800  1
  O  O11  1  0.77200800  0.59626600  0.47362800  1
  O  O12  1  0.74125500  0.98823500  0.52496400  1
  O  O13  1  0.98823500  0.74125500  0.52496400  1
  O  O14  1  0.81155800  0.97890600  0.11150200  1
  O  O15  1  0.97890600  0.81155800  0.11150200  1
  O  O16  1  0.06497500  0.06497500  0.83364000  1
  O  O17  1  0.24321600  0.78391900  0.85019000  1
  O  O18  1  0.78391900  0.24321600  0.85019000  1
  O  O19  1  0.51828000  0.51828000  0.03040200  1
  O  O20  1  0.47664300  0.06628800  0.04830800  1
  O  O21  1  0.06628800  0.47664300  0.04830800  1
  O  O22  1  0.42102100  0.23838800  0.18127200  1
  O  O23  1  0.23838800  0.42102100  0.18127200  1
  O  O24  1  0.50978700  0.00626000  0.75091800  1
  O  O25  1  0.00626000  0.50978700  0.75091800  1
  O  O26  1  0.60373900  0.78816200  0.83935100  1
  O  O27  1  0.78816200  0.60373900  0.83935100  1
  O  O28  1  0.58842900  0.17570800  0.40141000  1
  O  O29  1  0.17570800  0.58842900  0.40141000  1
  O  O30  1  0.44027200  0.91754500  0.52964900  1
  O  O31  1  0.91754500  0.44027200  0.52964900  1
  O  O32  1  0.38932100  0.80599600  0.30850300  1
  O  O33  1  0.80599600  0.38932100  0.30850300  1
  O  O34  1  0.25116700  0.07393700  0.53378400  1
  O  O35  1  0.07393700  0.25116700  0.53378400  1
  O  O36  1  0.41853200  0.60327000  0.83161400  1
  O  O37  1  0.60327000  0.41853200  0.83161400  1
  O  O38  1  0.76185200  0.04802700  0.72572900  1
  O  O39  1  0.04802700  0.76185200  0.72572900  1
  O  O40  1  0.07326000  0.07326000  0.43623300  1
  O  O41  1  0.53806200  0.35940800  0.49182000  1
  O  O42  1  0.35940800  0.53806200  0.49182000  1
loop_
_geom_bond_atom_site_label_1
_geom_bond_atom_site_label_2
_geom_bond_distance
_geom_bond_site_symmetry_2
Bi0 O40 2.089415 1_665
Bi0 O9 2.206630 1_665
Bi0 O8 2.206630 1_665
Bi0 O12 2.730690 1_555
Bi0 O13 2.730690 1_555
Bi0 O2 2.734760 1_665
Bi1 O22 2.198532 1_555
Bi1 O6 2.343833 1_555
Bi1 O20 2.364870 1_555
Bi1 O8 2.365037 1_555
Bi1 O32 2.516386 1_545
Bi2 O23 2.198532 1_555
Bi2 O7 2.343833 1_555
Bi2 O21 2.364870 1_555
Bi2 O9 2.365037 1_555
Bi2 O33 2.516386 1_455
Bi3 O36 2.131078 1_554
Bi3 O23 2.218289 1_555
Bi3 O19 2.461586 1_555
Bi3 O26 2.479325 1_554
Bi4 O37 2.131078 1_554
Bi4 O22 2.218289 1_555
Bi4 O19 2.461586 1_555
Bi4 O27 2.479325 1_554
Bi5 O3 2.126055 1_555
Bi5 O10 2.141084 1_555
Bi5 O11 2.141084 1_555
Bi6 O18 2.130310 1_554
Bi6 O6 2.186183 1_555
Bi6 O20 2.261050 1_555
Bi6 O14 2.398831 1_545
Bi7 O17 2.130310 1_554
Bi7 O7 2.186183 1_555
Bi7 O21 2.261050 1_555
Bi7 O15 2.398831 1_455
Bi8 O19 2.118949 1_555
Bi8 O26 2.298160 1_554
Bi8 O27 2.298160 1_554
Bi8 O0 2.301226 1_555
Bi8 O1 2.301226 1_555
Bi9 O4 2.070423 1_554
Bi9 O20 2.145809 1_555
Bi9 O8 2.149611 1_555
Bi10 O5 2.070423 1_554
Bi10 O21 2.145809 1_555
Bi10 O9 2.149611 1_555
Bi11 O30 2.151127 1_555
Bi11 O10 2.250562 1_555
Bi11 O6 2.256248 1_565
Bi11 O28 2.489006 1_565
Bi11 O12 2.621703 1_555
Bi11 O14 2.777060 1_555
Bi12 O31 2.151127 1_555
Bi12 O11 2.250562 1_555
Bi12 O7 2.256248 1_655
Bi12 O29 2.489006 1_655
Bi12 O13 2.621703 1_555
Bi12 O15 2.777060 1_555
Bi13 O30 2.118604 1_545
Bi13 O34 2.231015 1_555
Bi13 O17 2.290286 1_545
Bi13 O28 2.558494 1_555
Bi13 O24 2.588111 1_555
Bi14 O31 2.118604 1_455
Bi14 O35 2.231015 1_555
Bi14 O18 2.290286 1_455
Bi14 O29 2.558494 1_555
Bi14 O25 2.588111 1_555
Bi15 O40 2.131100 1_555
Bi15 O34 2.169758 1_555
Bi15 O35 2.169758 1_555
Bi15 O16 2.614794 1_555
Bi16 O3 2.167394 1_555
Bi16 O4 2.210642 1_555
Bi16 O5 2.210642 1_555
Bi16 O41 2.376691 1_555
Bi16 O42 2.376691 1_555
O0 V4 1.776812 1_555
O1 V3 1.776812 1_555
O2 V2 1.727581 1_445
O4 Pb1 2.627296 1_555
O4 Pb2 2.753106 1_555
O5 Pb1 2.627296 1_555
O5 Pb3 2.753106 1_555
O10 Pb3 2.585528 1_555
O10 Pb4 2.715283 1_555
O11 Pb2 2.585528 1_555
O11 Pb4 2.715283 1_555
O12 V0 1.756759 1_555
O13 V1 1.756759 1_555
O14 V2 1.774735 1_555
O15 V2 1.774735 1_555
O16 V2 1.723922 1_446
O19 Pb0 2.667891 1_555
O22 Pb0 2.383388 1_555
O22 Pb1 2.645853 1_554
O23 Pb0 2.383388 1_555
O23 Pb1 2.645853 1_554
O24 V0 1.742184 1_545
O25 V1 1.742184 1_455
O26 V0 1.808722 1_555
O26 Pb4 2.821302 1_555
O27 V1 1.808722 1_555
O27 Pb4 2.821302 1_555
O28 V3 1.759638 1_555
O29 V4 1.759638 1_555
O30 Pb3 2.472654 1_555
O31 Pb2 2.472654 1_555
O32 V4 1.703695 1_555
O33 V3 1.703695 1_555
O34 Pb0 2.611064 1_555
O35 Pb0 2.611064 1_555
O36 Pb3 2.304414 1_555
O36 Pb4 2.383895 1_555
O36 Pb1 2.616043 1_555
O37 Pb2 2.304414 1_555
O37 Pb4 2.383895 1_555
O37 Pb1 2.616043 1_555
O38 V0 1.713167 1_545
O39 V1 1.713167 1_455
O41 V3 1.734332 1_555
O42 V4 1.734332 1_555
