# generated using pymatgen
data_Ho3SbO7
_symmetry_space_group_name_H-M   'P 1'
_cell_length_a   6.46548693
_cell_length_b   6.46548693
_cell_length_c   7.50447300
_cell_angle_alpha   90.00000000
_cell_angle_beta   90.00000000
_cell_angle_gamma   109.27545016
_symmetry_Int_Tables_number   1
_chemical_formula_structural   Ho3SbO7
_chemical_formula_sum   'Ho6 Sb2 O14'
_cell_volume   296.12031885
_cell_formula_units_Z   2
loop_
 _symmetry_equiv_pos_site_id
 _symmetry_equiv_pos_as_xyz
  1  'x, y, z'
loop_
 _atom_site_type_symbol
 _atom_site_label
 _atom_site_symmetry_multiplicity
 _atom_site_fract_x
 _atom_site_fract_y
 _atom_site_fract_z
 _atom_site_occupancy
  Ho  Ho0  1  0.99960100  0.46814900  0.74693700  1
  Ho  Ho1  1  0.00039900  0.53185100  0.24693700  1
  Ho  Ho2  1  0.53185100  0.00039900  0.75306300  1
  Ho  Ho3  1  0.46814900  0.99960100  0.25306300  1
  Ho  Ho4  1  0.51365000  0.51365000  0.50000000  1
  Ho  Ho5  1  0.48635000  0.48635000  0.00000000  1
  Sb  Sb0  1  0.99989500  0.99989500  0.50000000  1
  Sb  Sb1  1  0.00010500  0.00010500  0.00000000  1
  O  O0  1  0.63773600  0.36226400  0.75000000  1
  O  O1  1  0.36226400  0.63773600  0.25000000  1
  O  O2  1  0.92874800  0.07125200  0.75000000  1
  O  O3  1  0.07125200  0.92874800  0.25000000  1
  O  O4  1  0.92248500  0.67477000  0.52776000  1
  O  O5  1  0.07751500  0.32523000  0.02776000  1
  O  O6  1  0.32523000  0.07751500  0.97224000  1
  O  O7  1  0.67477000  0.92248500  0.47224000  1
  O  O8  1  0.37022400  0.62977600  0.75000000  1
  O  O9  1  0.62977600  0.37022400  0.25000000  1
  O  O10  1  0.93423400  0.68029300  0.96684600  1
  O  O11  1  0.06576600  0.31970700  0.46684600  1
  O  O12  1  0.31970700  0.06576600  0.53315400  1
  O  O13  1  0.68029300  0.93423400  0.03315400  1
loop_
_geom_bond_atom_site_label_1
_geom_bond_atom_site_label_2
_geom_bond_distance
_geom_bond_site_symmetry_2
Ho0 O0 2.210341 1_555
Ho0 O10 2.272918 1_555
Ho0 O4 2.275606 1_555
Ho0 O8 2.276259 1_655
Ho0 O11 2.406932 1_655
Ho0 O5 2.419958 1_656
Ho0 O2 2.453426 1_555
Ho1 O1 2.210341 1_555
Ho1 O11 2.272918 1_555
Ho1 O5 2.275606 1_555
Ho1 O9 2.276259 1_455
Ho1 O10 2.406932 1_454
Ho1 O4 2.419958 1_455
Ho1 O3 2.453426 1_555
Ho2 O0 2.210341 1_555
Ho2 O12 2.272918 1_555
Ho2 O6 2.275606 1_555
Ho2 O8 2.276259 1_545
Ho2 O13 2.406932 1_546
Ho2 O7 2.419958 1_545
Ho2 O2 2.453426 1_555
Ho3 O1 2.210341 1_555
Ho3 O13 2.272918 1_555
Ho3 O7 2.275606 1_555
Ho3 O9 2.276259 1_565
Ho3 O12 2.406932 1_565
Ho3 O6 2.419958 1_564
Ho3 O3 2.453426 1_555
Ho4 O9 2.324463 1_555
Ho4 O8 2.324463 1_555
Ho4 O0 2.374853 1_555
Ho4 O1 2.374853 1_555
Ho4 O7 2.509527 1_555
Ho4 O4 2.509527 1_555
Ho4 O11 2.760888 1_555
Ho4 O12 2.760888 1_555
Ho5 O9 2.324463 1_555
Ho5 O8 2.324463 1_554
Ho5 O1 2.374853 1_555
Ho5 O0 2.374853 1_554
Ho5 O5 2.509527 1_555
Ho5 O6 2.509527 1_554
Ho5 O13 2.760888 1_555
Ho5 O10 2.760888 1_554
O2 Sb0 2.020986 1_545
O2 Sb1 2.020986 1_656
O3 Sb0 2.020986 1_455
O3 Sb1 2.020986 1_565
O4 Sb0 2.004514 1_555
O5 Sb1 2.004514 1_555
O6 Sb1 2.004514 1_556
O7 Sb0 2.004514 1_555
O10 Sb1 1.984295 1_666
O11 Sb0 1.984295 1_445
O12 Sb0 1.984295 1_445
O13 Sb1 1.984295 1_665
