# generated using pymatgen
data_K(WO3)3
_symmetry_space_group_name_H-M   'P 1'
_cell_length_a   3.88086700
_cell_length_b   7.52316900
_cell_length_c   32.75875764
_cell_angle_alpha   83.43506688
_cell_angle_beta   90.00000000
_cell_angle_gamma   90.00000000
_symmetry_Int_Tables_number   1
_chemical_formula_structural   K(WO3)3
_chemical_formula_sum   'K5 W15 O45'
_cell_volume   950.16695276
_cell_formula_units_Z   5
loop_
 _symmetry_equiv_pos_site_id
 _symmetry_equiv_pos_as_xyz
  1  'x, y, z'
loop_
 _atom_site_type_symbol
 _atom_site_label
 _atom_site_symmetry_multiplicity
 _atom_site_fract_x
 _atom_site_fract_y
 _atom_site_fract_z
 _atom_site_occupancy
  K  K0  1  0.11049100  0.40454300  0.69997500  1
  K  K1  1  0.09252400  0.79693100  0.89860400  1
  K  K2  1  0.09252400  0.20306900  0.10139600  1
  K  K3  1  0.11049100  0.59545700  0.30002500  1
  K  K4  1  0.90958600  0.00000000  0.50000000  1
  W  W0  1  0.50810000  0.90380200  0.69935100  1
  W  W1  1  0.50171600  0.60184400  0.79953500  1
  W  W2  1  0.50084300  0.30193200  0.89946600  1
  W  W3  1  0.50093300  0.10140600  0.79954500  1
  W  W4  1  0.49707500  0.50000000  0.00000000  1
  W  W5  1  0.49980400  0.00000000  0.00000000  1
  W  W6  1  0.50084300  0.69806800  0.10053400  1
  W  W7  1  0.50171600  0.39815600  0.20046500  1
  W  W8  1  0.50093300  0.89859400  0.20045500  1
  W  W9  1  0.50810000  0.09619800  0.30064900  1
  W  W10  1  0.50238200  0.30033100  0.39994900  1
  W  W11  1  0.49672900  0.80062900  0.39944200  1
  W  W12  1  0.49499600  0.50000000  0.50000000  1
  W  W13  1  0.50238200  0.69966900  0.60005100  1
  W  W14  1  0.49672900  0.19937100  0.60055800  1
  O  O0  1  0.50075900  0.44261400  0.61600300  1
  O  O1  1  0.50166500  0.73878200  0.65751800  1
  O  O2  1  0.50359600  0.10754800  0.65792400  1
  O  O3  1  0.00476700  0.90093500  0.69937200  1
  O  O4  1  0.50222900  0.69670800  0.74132700  1
  O  O5  1  0.49882700  0.35785100  0.78335800  1
  O  O6  1  0.00125700  0.60365400  0.79865600  1
  O  O7  1  0.50255100  0.06582100  0.74107000  1
  O  O8  1  0.50089300  0.84577200  0.81604900  1
  O  O9  1  0.50080800  0.50962100  0.85688000  1
  O  O10  1  0.00008500  0.30463500  0.90005400  1
  O  O11  1  0.00062400  0.10058800  0.79942200  1
  O  O12  1  0.49901500  0.13955400  0.85798800  1
  O  O13  1  0.49895900  0.46897300  0.94124900  1
  O  O14  1  0.49678200  0.24567100  0.01529300  1
  O  O15  1  0.99687400  0.50000000  0.00000000  1
  O  O16  1  0.49813400  0.09578400  0.94201000  1
  O  O17  1  0.49678200  0.75432900  0.98470700  1
  O  O18  1  0.99823300  0.00000000  0.00000000  1
  O  O19  1  0.49895900  0.53102700  0.05875100  1
  O  O20  1  0.49813400  0.90421600  0.05799000  1
  O  O21  1  0.00008500  0.69536500  0.09994600  1
  O  O22  1  0.50080800  0.49037900  0.14312000  1
  O  O23  1  0.00125700  0.39634600  0.20134400  1
  O  O24  1  0.49901500  0.86044600  0.14201200  1
  O  O25  1  0.50222900  0.30329200  0.25867300  1
  O  O26  1  0.49882700  0.64214900  0.21664200  1
  O  O27  1  0.00062400  0.89941200  0.20057800  1
  O  O28  1  0.50089300  0.15422800  0.18395100  1
  O  O29  1  0.50166500  0.26121800  0.34248200  1
  O  O30  1  0.50255100  0.93417900  0.25893000  1
  O  O31  1  0.00077300  0.30003700  0.39956300  1
  O  O32  1  0.00476700  0.09906500  0.30062800  1
  O  O33  1  0.50075900  0.55738600  0.38399700  1
  O  O34  1  0.50359600  0.89245200  0.34207600  1
  O  O35  1  0.99721400  0.80090400  0.39944800  1
  O  O36  1  0.50057000  0.33557400  0.45733000  1
  O  O37  1  0.49655700  0.70628400  0.45786000  1
  O  O38  1  0.50208200  0.04153000  0.41553100  1
  O  O39  1  0.99671600  0.50000000  0.50000000  1
  O  O40  1  0.49655700  0.29371600  0.54214000  1
  O  O41  1  0.50057000  0.66442600  0.54267000  1
  O  O42  1  0.00077300  0.69996300  0.60043700  1
  O  O43  1  0.50208200  0.95847000  0.58446900  1
  O  O44  1  0.99721400  0.19909600  0.60055200  1
loop_
_geom_bond_atom_site_label_1
_geom_bond_atom_site_label_2
_geom_bond_distance
_geom_bond_site_symmetry_2
K0 O5 3.104272 1_555
K0 O4 3.107793 1_555
K0 O1 3.124459 1_555
K0 O0 3.124552 1_555
K0 O7 3.136335 1_555
K0 O2 3.149779 1_555
K1 O9 3.118715 1_555
K1 O8 3.119814 1_555
K1 O13 3.120720 1_555
K1 O12 3.181007 1_565
K1 O16 3.207130 1_565
K1 O17 3.211434 1_555
K2 O22 3.118715 1_555
K2 O28 3.119814 1_555
K2 O19 3.120720 1_555
K2 O24 3.181007 1_545
K2 O20 3.207130 1_545
K2 O14 3.211434 1_555
K3 O26 3.104272 1_555
K3 O25 3.107793 1_555
K3 O29 3.124459 1_555
K3 O33 3.124552 1_555
K3 O30 3.136335 1_555
K3 O34 3.149779 1_555
K4 O36 3.168615 1_555
K4 O41 3.168615 1_545
K4 O37 3.170982 1_545
K4 O40 3.170982 1_555
K4 O43 3.171406 1_545
K4 O38 3.171406 1_555
O0 W13 1.944707 1_555
O0 W14 1.953637 1_555
O1 W13 1.938361 1_555
O1 W0 1.951637 1_555
O2 W14 1.926815 1_555
O2 W0 1.927665 1_545
O3 W0 1.927618 1_455
O3 W0 1.953487 1_555
O4 W0 1.956750 1_555
O4 W1 1.958096 1_555
O5 W3 1.941505 1_555
O5 W1 1.967948 1_555
O6 W1 1.938891 1_455
O6 W1 1.942453 1_555
O7 W0 1.932574 1_545
O7 W3 1.964274 1_555
O8 W3 1.937309 1_565
O8 W1 1.971625 1_555
O9 W1 1.926737 1_555
O9 W2 1.972087 1_555
O10 W2 1.937717 1_455
O10 W2 1.943600 1_555
O11 W3 1.939250 1_455
O11 W3 1.941648 1_555
O12 W2 1.928248 1_555
O12 W3 1.968107 1_555
O13 W2 1.961149 1_555
O13 W4 1.965041 1_556
O14 W4 1.921652 1_555
O14 W5 1.969460 1_555
O15 W4 1.939653 1_555
O15 W4 1.941214 1_655
O16 W5 1.953223 1_556
O16 W2 1.963031 1_555
O17 W4 1.921652 1_556
O17 W5 1.969460 1_566
O18 W5 1.934337 1_555
O18 W5 1.946530 1_655
O19 W6 1.961149 1_555
O19 W4 1.965041 1_555
O20 W5 1.953223 1_565
O20 W6 1.963031 1_555
O21 W6 1.937717 1_455
O21 W6 1.943600 1_555
O22 W7 1.926737 1_555
O22 W6 1.972087 1_555
O23 W7 1.938891 1_455
O23 W7 1.942453 1_555
O24 W6 1.928248 1_555
O24 W8 1.968107 1_555
O25 W9 1.956750 1_555
O25 W7 1.958096 1_555
O26 W8 1.941505 1_555
O26 W7 1.967948 1_555
O27 W8 1.939250 1_455
O27 W8 1.941648 1_555
O28 W8 1.937309 1_545
O28 W7 1.971625 1_555
O29 W10 1.938361 1_555
O29 W9 1.951637 1_555
O30 W9 1.932574 1_565
O30 W8 1.964274 1_555
O31 W10 1.934233 1_455
O31 W10 1.946722 1_555
O32 W9 1.927618 1_455
O32 W9 1.953487 1_555
O33 W10 1.944707 1_555
O33 W11 1.953637 1_555
O34 W11 1.926815 1_555
O34 W9 1.927665 1_565
O35 W11 1.938552 1_655
O35 W11 1.942317 1_555
O36 W10 1.928133 1_555
O36 W12 1.969749 1_555
O37 W12 1.955569 1_555
O37 W11 1.963529 1_555
O38 W11 1.944533 1_545
O38 W10 1.955538 1_555
O39 W12 1.933758 1_655
O39 W12 1.947109 1_555
O40 W12 1.955569 1_555
O40 W14 1.963529 1_555
O41 W13 1.928133 1_555
O41 W12 1.969749 1_555
O42 W13 1.934233 1_455
O42 W13 1.946722 1_555
O43 W14 1.944533 1_565
O43 W13 1.955538 1_555
O44 W14 1.938552 1_655
O44 W14 1.942317 1_555
