# generated using pymatgen
data_FeH4C3O8
_symmetry_space_group_name_H-M   'P 1'
_cell_length_a   5.66020661
_cell_length_b   13.81128724
_cell_length_c   9.08416736
_cell_angle_alpha   91.90541878
_cell_angle_beta   98.11534109
_cell_angle_gamma   95.68963940
_symmetry_Int_Tables_number   1
_chemical_formula_structural   FeH4C3O8
_chemical_formula_sum   'Fe4 H16 C12 O32'
_cell_volume   698.77235087
_cell_formula_units_Z   4
loop_
 _symmetry_equiv_pos_site_id
 _symmetry_equiv_pos_as_xyz
  1  'x, y, z'
loop_
 _atom_site_type_symbol
 _atom_site_label
 _atom_site_symmetry_multiplicity
 _atom_site_fract_x
 _atom_site_fract_y
 _atom_site_fract_z
 _atom_site_occupancy
  Fe  Fe0  1  0.51754000  0.85671400  0.76000800  1
  Fe  Fe1  1  0.48241800  0.14331100  0.23995200  1
  Fe  Fe2  1  0.51760000  0.35691100  0.75971100  1
  Fe  Fe3  1  0.48232000  0.64309200  0.24025800  1
  H  H0  1  0.22292700  0.44337600  0.56455100  1
  H  H1  1  0.22292700  0.94331600  0.56467100  1
  H  H2  1  0.77706400  0.05668200  0.43533300  1
  H  H3  1  0.77705000  0.55662300  0.43545000  1
  H  H4  1  0.23314900  0.99714700  0.73511500  1
  H  H5  1  0.23317200  0.49720200  0.73504700  1
  H  H6  1  0.76681500  0.50279400  0.26495800  1
  H  H7  1  0.76683800  0.00284700  0.26488900  1
  H  H8  1  0.83214700  0.06221700  0.69386200  1
  H  H9  1  0.83217800  0.56221400  0.69397000  1
  H  H10  1  0.16782600  0.43778600  0.30604400  1
  H  H11  1  0.16786100  0.93778200  0.30614700  1
  H  H12  1  0.99647000  0.14551800  0.63315600  1
  H  H13  1  0.99635900  0.64554200  0.63317900  1
  H  H14  1  0.00364400  0.35445600  0.36682900  1
  H  H15  1  0.00354200  0.85447600  0.36684500  1
  C  C0  1  0.87682000  0.46814600  0.99048400  1
  C  C1  1  0.87687600  0.96812700  0.99054900  1
  C  C2  1  0.12312800  0.03187200  0.00947100  1
  C  C3  1  0.12317200  0.53184700  0.00952400  1
  C  C4  1  0.61616400  0.28016800  0.48639500  1
  C  C5  1  0.61584600  0.78004500  0.48656800  1
  C  C6  1  0.38416700  0.21995300  0.51342800  1
  C  C7  1  0.38385300  0.71983300  0.51360900  1
  C  C8  1  0.60996100  0.22530100  0.98300700  1
  C  C9  1  0.60984900  0.72516700  0.98314000  1
  C  C10  1  0.39016300  0.27483300  0.01684700  1
  C  C11  1  0.39005600  0.77470600  0.01698200  1
  O  O0  1  0.79843800  0.43305400  0.10042400  1
  O  O1  1  0.79863000  0.93304400  0.10054400  1
  O  O2  1  0.20137700  0.06695000  0.89947000  1
  O  O3  1  0.20156400  0.56693700  0.89958400  1
  O  O4  1  0.77255100  0.45753000  0.85348000  1
  O  O5  1  0.77250800  0.95748500  0.85357000  1
  O  O6  1  0.22749700  0.04252000  0.14644600  1
  O  O7  1  0.22743200  0.54246500  0.14652700  1
  O  O8  1  0.70434700  0.34690500  0.58312100  1
  O  O9  1  0.70408300  0.84676300  0.58327800  1
  O  O10  1  0.29594100  0.15324200  0.41671000  1
  O  O11  1  0.29566900  0.65309600  0.41689000  1
  O  O12  1  0.70165400  0.25825300  0.36951200  1
  O  O13  1  0.70133800  0.75813600  0.36966500  1
  O  O14  1  0.29867700  0.24186000  0.63033700  1
  O  O15  1  0.29836600  0.74175200  0.63049400  1
  O  O16  1  0.69639200  0.24950100  0.86721000  1
  O  O17  1  0.69632100  0.74939300  0.86735800  1
  O  O18  1  0.30369800  0.25060900  0.13263400  1
  O  O19  1  0.30361800  0.75050200  0.13278000  1
  O  O20  1  0.31287000  0.33592600  0.92528600  1
  O  O21  1  0.31285800  0.83584000  0.92544900  1
  O  O22  1  0.68716500  0.16416600  0.07454100  1
  O  O23  1  0.68712400  0.66406800  0.07470300  1
  O  O24  1  0.31418400  0.45713400  0.66863100  1
  O  O25  1  0.31419900  0.95704200  0.66875400  1
  O  O26  1  0.68579100  0.04296400  0.33124200  1
  O  O27  1  0.68579300  0.54286600  0.33136700  1
  O  O28  1  0.85111300  0.10006400  0.60607100  1
  O  O29  1  0.85103800  0.60004900  0.60614600  1
  O  O30  1  0.14896600  0.39994900  0.39386500  1
  O  O31  1  0.14889700  0.89993000  0.39393300  1
loop_
_geom_bond_atom_site_label_1
_geom_bond_atom_site_label_2
_geom_bond_distance
_geom_bond_site_symmetry_2
Fe0 O5 1.979632 1_555
Fe0 O25 2.013743 1_555
Fe0 O21 2.034257 1_555
Fe0 O9 2.050342 1_555
Fe0 O17 2.070497 1_555
Fe0 O15 2.125414 1_555
Fe1 O6 1.979489 1_555
Fe1 O26 2.014163 1_555
Fe1 O22 2.034246 1_555
Fe1 O10 2.050298 1_555
Fe1 O18 2.069955 1_555
Fe1 O12 2.125567 1_555
Fe2 O4 1.978852 1_555
Fe2 O24 2.012331 1_555
Fe2 O20 2.035608 1_555
Fe2 O8 2.050057 1_555
Fe2 O16 2.072063 1_555
Fe2 O14 2.125059 1_555
Fe3 O7 1.978601 1_555
Fe3 O27 2.012644 1_555
Fe3 O23 2.035720 1_555
Fe3 O11 2.050036 1_555
Fe3 O19 2.071731 1_555
Fe3 O13 2.125360 1_555
H0 O24 1.013683 1_555
H0 O30 1.626123 1_555
H1 O25 1.013690 1_555
H1 O31 1.626407 1_555
H2 O26 1.013743 1_555
H2 O28 1.626400 1_555
H3 O27 1.013705 1_555
H3 O29 1.626214 1_555
H4 O25 0.993447 1_555
H5 O24 0.993346 1_555
H6 O27 0.993371 1_555
H7 O26 0.993486 1_555
H8 O28 0.980583 1_555
H9 O29 0.980643 1_555
H10 O30 0.980635 1_555
H11 O31 0.980580 1_555
H12 O28 0.980676 1_555
H13 O29 0.980768 1_555
H14 O30 0.980775 1_555
H15 O31 0.980670 1_555
C0 O0 1.242503 1_556
C0 O4 1.296954 1_555
C1 O1 1.242556 1_556
C1 O5 1.296938 1_555
C2 O2 1.242585 1_554
C2 O6 1.296910 1_555
C3 O3 1.242517 1_554
C3 O7 1.296931 1_555
C4 O8 1.265653 1_555
C4 O12 1.267232 1_555
C5 O9 1.265457 1_555
C5 O13 1.267378 1_555
C6 O10 1.265423 1_555
C6 O14 1.267413 1_555
C7 O11 1.265615 1_555
C7 O15 1.267253 1_555
C8 O16 1.262471 1_555
C8 O22 1.269867 1_556
C9 O17 1.262551 1_555
C9 O23 1.269802 1_556
C10 O18 1.262566 1_555
C10 O20 1.269763 1_554
C11 O19 1.262512 1_555
C11 O21 1.269840 1_554
