# generated using pymatgen
data_YZr6(PO4)9
_symmetry_space_group_name_H-M   'P 1'
_cell_length_a   8.94978374
_cell_length_b   8.94978374
_cell_length_c   22.96513200
_cell_angle_alpha   90.00000000
_cell_angle_beta   90.00000000
_cell_angle_gamma   119.99999806
_symmetry_Int_Tables_number   1
_chemical_formula_structural   YZr6(PO4)9
_chemical_formula_sum   'Y2 Zr12 P18 O72'
_cell_volume   1593.03261912
_cell_formula_units_Z   2
loop_
 _symmetry_equiv_pos_site_id
 _symmetry_equiv_pos_as_xyz
  1  'x, y, z'
loop_
 _atom_site_type_symbol
 _atom_site_label
 _atom_site_symmetry_multiplicity
 _atom_site_fract_x
 _atom_site_fract_y
 _atom_site_fract_z
 _atom_site_occupancy
  Y  Y0  1  0.00000000  0.00000000  0.50000000  1
  Y  Y1  1  0.00000000  0.00000000  0.00000000  1
  Zr  Zr0  1  0.33333300  0.66666700  0.52832300  1
  Zr  Zr1  1  0.66666700  0.33333300  0.47167700  1
  Zr  Zr2  1  0.66666700  0.33333300  0.97167700  1
  Zr  Zr3  1  0.33333300  0.66666700  0.02832300  1
  Zr  Zr4  1  0.00000000  0.00000000  0.64946200  1
  Zr  Zr5  1  0.00000000  0.00000000  0.35053800  1
  Zr  Zr6  1  0.00000000  0.00000000  0.85053800  1
  Zr  Zr7  1  0.00000000  0.00000000  0.14946200  1
  Zr  Zr8  1  0.33333300  0.66666700  0.81307200  1
  Zr  Zr9  1  0.66666700  0.33333300  0.18692800  1
  Zr  Zr10  1  0.66666700  0.33333300  0.68692800  1
  Zr  Zr11  1  0.33333300  0.66666700  0.31307200  1
  P  P0  1  0.37318900  0.31872000  0.57889900  1
  P  P1  1  0.62681100  0.68128000  0.42110100  1
  P  P2  1  0.68128000  0.05446900  0.57889900  1
  P  P3  1  0.31872000  0.37318900  0.92110100  1
  P  P4  1  0.31872000  0.94553100  0.42110100  1
  P  P5  1  0.68128000  0.62681100  0.07889900  1
  P  P6  1  0.94553100  0.62681100  0.57889900  1
  P  P7  1  0.05446900  0.68128000  0.92110100  1
  P  P8  1  0.05446900  0.37318900  0.42110100  1
  P  P9  1  0.94553100  0.31872000  0.07889900  1
  P  P10  1  0.62681100  0.94553100  0.92110100  1
  P  P11  1  0.37318900  0.05446900  0.07889900  1
  P  P12  1  0.29168800  0.00000000  0.75000000  1
  P  P13  1  0.70831200  0.00000000  0.25000000  1
  P  P14  1  0.00000000  0.29168800  0.75000000  1
  P  P15  1  0.00000000  0.70831200  0.25000000  1
  P  P16  1  0.70831200  0.70831200  0.75000000  1
  P  P17  1  0.29168800  0.29168800  0.25000000  1
  O  O0  1  0.45540800  0.28276400  0.52616700  1
  O  O1  1  0.54459200  0.71723600  0.47383300  1
  O  O2  1  0.71723600  0.17264500  0.52616700  1
  O  O3  1  0.28276400  0.45540800  0.97383300  1
  O  O4  1  0.28276400  0.82735500  0.47383300  1
  O  O5  1  0.71723600  0.54459200  0.02616700  1
  O  O6  1  0.82735500  0.54459200  0.52616700  1
  O  O7  1  0.17264500  0.71723600  0.97383300  1
  O  O8  1  0.17264500  0.45540800  0.47383300  1
  O  O9  1  0.82735500  0.28276400  0.02616700  1
  O  O10  1  0.54459200  0.82735500  0.97383300  1
  O  O11  1  0.45540800  0.17264500  0.02616700  1
  O  O12  1  0.37544200  0.49141000  0.57424200  1
  O  O13  1  0.62455800  0.50859000  0.42575800  1
  O  O14  1  0.50859000  0.88403200  0.57424200  1
  O  O15  1  0.49141000  0.37544200  0.92575800  1
  O  O16  1  0.49141000  0.11596800  0.42575800  1
  O  O17  1  0.50859000  0.62455800  0.07424200  1
  O  O18  1  0.11596800  0.62455800  0.57424200  1
  O  O19  1  0.88403200  0.50859000  0.92575800  1
  O  O20  1  0.88403200  0.37544200  0.42575800  1
  O  O21  1  0.11596800  0.49141000  0.07424200  1
  O  O22  1  0.62455800  0.11596800  0.92575800  1
  O  O23  1  0.37544200  0.88403200  0.07424200  1
  O  O24  1  0.17691100  0.16797100  0.57864700  1
  O  O25  1  0.82308900  0.83202900  0.42135300  1
  O  O26  1  0.83202900  0.00894000  0.57864700  1
  O  O27  1  0.16797100  0.17691100  0.92135300  1
  O  O28  1  0.16797100  0.99106000  0.42135300  1
  O  O29  1  0.83202900  0.82308900  0.07864700  1
  O  O30  1  0.99106000  0.82308900  0.57864700  1
  O  O31  1  0.00894000  0.83202900  0.92135300  1
  O  O32  1  0.00894000  0.17691100  0.42135300  1
  O  O33  1  0.99106000  0.16797100  0.07864700  1
  O  O34  1  0.82308900  0.99106000  0.92135300  1
  O  O35  1  0.17691100  0.00894000  0.07864700  1
  O  O36  1  0.03083700  0.20483600  0.69590900  1
  O  O37  1  0.96916300  0.79516400  0.30409100  1
  O  O38  1  0.79516400  0.82600100  0.69590900  1
  O  O39  1  0.20483600  0.03083700  0.80409100  1
  O  O40  1  0.20483600  0.17399900  0.30409100  1
  O  O41  1  0.79516400  0.96916300  0.19590900  1
  O  O42  1  0.17399900  0.96916300  0.69590900  1
  O  O43  1  0.82600100  0.79516400  0.80409100  1
  O  O44  1  0.82600100  0.03083700  0.30409100  1
  O  O45  1  0.17399900  0.20483600  0.19590900  1
  O  O46  1  0.96916300  0.17399900  0.80409100  1
  O  O47  1  0.03083700  0.82600100  0.19590900  1
  O  O48  1  0.46040200  0.31401400  0.63572800  1
  O  O49  1  0.53959800  0.68598600  0.36427200  1
  O  O50  1  0.68598600  0.14638800  0.63572800  1
  O  O51  1  0.31401400  0.46040200  0.86427200  1
  O  O52  1  0.31401400  0.85361200  0.36427200  1
  O  O53  1  0.68598600  0.53959800  0.13572800  1
  O  O54  1  0.85361200  0.53959800  0.63572800  1
  O  O55  1  0.14638800  0.68598600  0.86427200  1
  O  O56  1  0.14638800  0.46040200  0.36427200  1
  O  O57  1  0.85361200  0.31401400  0.13572800  1
  O  O58  1  0.53959800  0.85361200  0.86427200  1
  O  O59  1  0.46040200  0.14638800  0.13572800  1
  O  O60  1  0.46810800  0.15897700  0.73989600  1
  O  O61  1  0.53189200  0.84102300  0.26010400  1
  O  O62  1  0.84102300  0.30913100  0.73989600  1
  O  O63  1  0.15897700  0.46810800  0.76010400  1
  O  O64  1  0.15897700  0.69086900  0.26010400  1
  O  O65  1  0.84102300  0.53189200  0.23989600  1
  O  O66  1  0.69086900  0.53189200  0.73989600  1
  O  O67  1  0.30913100  0.84102300  0.76010400  1
  O  O68  1  0.30913100  0.46810800  0.26010400  1
  O  O69  1  0.69086900  0.15897700  0.23989600  1
  O  O70  1  0.53189200  0.69086900  0.76010400  1
  O  O71  1  0.46810800  0.30913100  0.23989600  1
loop_
_geom_bond_atom_site_label_1
_geom_bond_atom_site_label_2
_geom_bond_distance
_geom_bond_site_symmetry_2
O0 P0 1.532425 1_555
O0 Zr1 2.118934 1_555
O1 P1 1.532425 1_555
O1 Zr0 2.118934 1_555
O2 P2 1.532430 1_555
O2 Zr1 2.118920 1_555
O3 P3 1.532425 1_555
O3 Zr3 2.118934 1_556
O4 P4 1.532430 1_555
O4 Zr0 2.118920 1_555
O5 P5 1.532425 1_555
O5 Zr2 2.118934 1_554
O6 P6 1.532429 1_555
O6 Zr1 2.118930 1_555
O7 P7 1.532430 1_555
O7 Zr3 2.118920 1_556
O8 P8 1.532429 1_555
O8 Zr0 2.118930 1_555
O9 P9 1.532430 1_555
O9 Zr2 2.118920 1_554
O10 P10 1.532429 1_555
O10 Zr3 2.118930 1_556
O11 P11 1.532429 1_555
O11 Zr2 2.118930 1_554
O12 P0 1.539275 1_555
O12 Zr0 2.074952 1_555
O13 P1 1.539275 1_555
O13 Zr1 2.074952 1_555
O14 P2 1.539275 1_565
O14 Zr0 2.074947 1_555
O15 P3 1.539275 1_555
O15 Zr2 2.074952 1_555
O16 P4 1.539275 1_545
O16 Zr1 2.074947 1_555
O17 P5 1.539275 1_555
O17 Zr3 2.074952 1_555
O18 P6 1.539275 1_455
O18 Zr0 2.074944 1_555
O19 P7 1.539275 1_655
O19 Zr2 2.074947 1_555
O20 P8 1.539275 1_655
O20 Zr1 2.074944 1_555
O21 P9 1.539275 1_455
O21 Zr3 2.074947 1_555
O22 P10 1.539275 1_545
O22 Zr2 2.074944 1_555
O23 P11 1.539275 1_565
O23 Zr3 2.074944 1_555
O24 P0 1.592509 1_555
O24 Zr4 2.243074 1_555
O24 Y0 2.376709 1_555
O25 P1 1.592509 1_555
O25 Zr5 2.243074 1_665
O25 Y0 2.376709 1_665
O26 P2 1.592509 1_555
O26 Zr4 2.243074 1_655
O26 Y0 2.376708 1_655
O27 P3 1.592509 1_555
O27 Zr6 2.243074 1_555
O27 Y1 2.376709 1_556
O28 P4 1.592509 1_555
O28 Zr5 2.243074 1_565
O28 Y0 2.376708 1_565
O29 P5 1.592509 1_555
O29 Zr7 2.243074 1_665
O29 Y1 2.376709 1_665
O30 P6 1.592509 1_555
O30 Zr4 2.243074 1_665
O30 Y0 2.376708 1_665
O31 P7 1.592509 1_555
O31 Zr6 2.243074 1_565
O31 Y1 2.376708 1_566
O32 P8 1.592509 1_555
O32 Zr5 2.243074 1_555
O32 Y0 2.376708 1_555
O33 P9 1.592509 1_555
O33 Zr7 2.243074 1_655
O33 Y1 2.376708 1_655
O34 P10 1.592509 1_555
O34 Zr6 2.243074 1_665
O34 Y1 2.376708 1_666
O35 P11 1.592509 1_555
O35 Zr7 2.243074 1_555
O35 Y1 2.376708 1_555
O36 P14 1.561402 1_555
O36 Zr4 2.017114 1_555
O37 P15 1.561402 1_655
O37 Zr5 2.017114 1_665
O38 P16 1.561402 1_555
O38 Zr4 2.017114 1_665
O39 P12 1.561402 1_555
O39 Zr6 2.017114 1_555
O40 P17 1.561402 1_555
O40 Zr5 2.017114 1_555
O41 P13 1.561402 1_565
O41 Zr7 2.017114 1_665
O42 P12 1.561402 1_565
O42 Zr4 2.017114 1_565
O43 P16 1.561402 1_555
O43 Zr6 2.017114 1_665
O44 P13 1.561402 1_555
O44 Zr5 2.017114 1_655
O45 P17 1.561402 1_555
O45 Zr7 2.017114 1_555
O46 P14 1.561402 1_655
O46 Zr6 2.017114 1_655
O47 P15 1.561402 1_555
O47 Zr7 2.017114 1_565
O48 P0 1.532036 1_555
O48 Zr10 2.121573 1_555
O49 P1 1.532036 1_555
O49 Zr11 2.121573 1_555
O50 P2 1.532036 1_555
O50 Zr10 2.121565 1_555
O51 P3 1.532036 1_555
O51 Zr8 2.121573 1_555
O52 P4 1.532036 1_555
O52 Zr11 2.121565 1_555
O53 P5 1.532036 1_555
O53 Zr9 2.121573 1_555
O54 P6 1.532036 1_555
O54 Zr10 2.121570 1_555
O55 P7 1.532036 1_555
O55 Zr8 2.121565 1_555
O56 P8 1.532036 1_555
O56 Zr11 2.121570 1_555
O57 P9 1.532036 1_555
O57 Zr9 2.121565 1_555
O58 P10 1.532036 1_555
O58 Zr8 2.121570 1_555
O59 P11 1.532036 1_555
O59 Zr9 2.121570 1_555
O60 P12 1.524702 1_555
O60 Zr10 2.073548 1_555
O61 P13 1.524702 1_565
O61 Zr11 2.073548 1_555
O62 P14 1.524702 1_655
O62 Zr10 2.073544 1_555
O63 P14 1.524702 1_555
O63 Zr8 2.073548 1_555
O64 P15 1.524702 1_555
O64 Zr11 2.073544 1_555
O65 P15 1.524702 1_655
O65 Zr9 2.073548 1_555
O66 P16 1.524702 1_555
O66 Zr10 2.073551 1_555
O67 P12 1.524702 1_565
O67 Zr8 2.073544 1_555
O68 P17 1.524702 1_555
O68 Zr11 2.073551 1_555
O69 P13 1.524702 1_555
O69 Zr9 2.073544 1_555
O70 P16 1.524702 1_555
O70 Zr8 2.073551 1_555
O71 P17 1.524702 1_555
O71 Zr9 2.073551 1_555
