# generated using pymatgen
data_Er4CuGe8
_symmetry_space_group_name_H-M   'P 1'
_cell_length_a   3.94716700
_cell_length_b   4.04441500
_cell_length_c   16.35646700
_cell_angle_alpha   90.00000000
_cell_angle_beta   90.00000000
_cell_angle_gamma   90.00000000
_symmetry_Int_Tables_number   1
_chemical_formula_structural   Er4CuGe8
_chemical_formula_sum   'Er4 Cu1 Ge8'
_cell_volume   261.11433532
_cell_formula_units_Z   1
loop_
 _symmetry_equiv_pos_site_id
 _symmetry_equiv_pos_as_xyz
  1  'x, y, z'
loop_
 _atom_site_type_symbol
 _atom_site_label
 _atom_site_symmetry_multiplicity
 _atom_site_fract_x
 _atom_site_fract_y
 _atom_site_fract_z
 _atom_site_occupancy
  Er  Er0  1  0.25000000  0.00000000  0.09957200  1
  Er  Er1  1  0.25000000  0.50000000  0.60866900  1
  Er  Er2  1  0.75000000  0.50000000  0.39900200  1
  Er  Er3  1  0.75000000  0.00000000  0.89328400  1
  Cu  Cu0  1  0.25000000  0.00000000  0.32370100  1
  Ge  Ge0  1  0.25000000  0.50000000  0.23793400  1
  Ge  Ge1  1  0.25000000  0.00000000  0.74921000  1
  Ge  Ge2  1  0.75000000  0.00000000  0.23704900  1
  Ge  Ge3  1  0.75000000  0.50000000  0.75248500  1
  Ge  Ge4  1  0.25000000  0.00000000  0.46574300  1
  Ge  Ge5  1  0.25000000  0.50000000  0.94587300  1
  Ge  Ge6  1  0.75000000  0.50000000  0.04707600  1
  Ge  Ge7  1  0.75000000  0.00000000  0.56240200  1
loop_
_geom_bond_atom_site_label_1
_geom_bond_atom_site_label_2
_geom_bond_distance
_geom_bond_site_symmetry_2
Er0 Ge6 2.953241 1_445
Er0 Ge6 2.953241 1_455
Er0 Ge6 2.953241 1_545
Er0 Ge6 2.953241 1_555
Er0 Ge2 2.991890 1_455
Er0 Ge2 2.991890 1_555
Er0 Ge0 3.034964 1_555
Er0 Ge0 3.034964 1_545
Er0 Ge5 3.226357 1_544
Er0 Ge5 3.226357 1_554
Er1 Ge7 2.925243 1_455
Er1 Ge7 2.925243 1_555
Er1 Ge7 2.925243 1_565
Er1 Ge7 2.925243 1_465
Er1 Ge1 3.061633 1_555
Er1 Ge1 3.061633 1_565
Er1 Ge3 3.070578 1_555
Er1 Ge3 3.070578 1_455
Er1 Ge4 3.091030 1_565
Er1 Ge4 3.091030 1_555
Er2 Ge4 3.029199 1_565
Er2 Ge4 3.029199 1_655
Er2 Ge4 3.029199 1_665
Er2 Ge4 3.029199 1_555
Er2 Ge0 3.291753 1_555
Er2 Ge0 3.291753 1_655
Er2 Ge2 3.332628 1_555
Er2 Ge2 3.332628 1_565
Er2 Ge7 3.351472 1_555
Er2 Ge7 3.351472 1_565
Er3 Ge5 2.953684 1_555
Er3 Ge5 2.953684 1_655
Er3 Ge5 2.953684 1_645
Er3 Ge5 2.953684 1_545
Er3 Ge3 3.064802 1_545
Er3 Ge3 3.064802 1_555
Er3 Ge1 3.073812 1_555
Er3 Ge1 3.073812 1_655
Er3 Ge6 3.227543 1_556
Er3 Ge6 3.227543 1_546
Cu0 Ge4 2.323305 1_555
Cu0 Ge2 2.429780 1_455
Cu0 Ge2 2.429780 1_555
Cu0 Ge0 2.461158 1_555
Cu0 Ge0 2.461158 1_545
Cu0 Er2 3.082424 1_455
Cu0 Er2 3.082424 1_445
Cu0 Er2 3.082424 1_545
Cu0 Er2 3.082424 1_555
Ge0 Ge2 2.825697 1_565
Ge0 Ge2 2.825697 1_465
Ge0 Ge2 2.825697 1_455
Ge0 Ge2 2.825697 1_555
Ge1 Ge3 2.826168 1_555
Ge1 Ge3 2.826168 1_545
Ge1 Ge3 2.826168 1_455
Ge1 Ge3 2.826168 1_445
Ge4 Ge7 2.528753 1_455
Ge4 Ge7 2.528753 1_555
Ge5 Ge6 2.575874 1_456
Ge5 Ge6 2.575874 1_556
