# generated using pymatgen
data_DyTe2
_symmetry_space_group_name_H-M   'P 1'
_cell_length_a   4.43656398
_cell_length_b   4.43656398
_cell_length_c   8.88363533
_cell_angle_alpha   90.00000000
_cell_angle_beta   90.00000000
_cell_angle_gamma   90.00000000
_symmetry_Int_Tables_number   1
_chemical_formula_structural   DyTe2
_chemical_formula_sum   'Dy2 Te4'
_cell_volume   174.85748211
_cell_formula_units_Z   2
loop_
 _symmetry_equiv_pos_site_id
 _symmetry_equiv_pos_as_xyz
  1  'x, y, z'
loop_
 _atom_site_type_symbol
 _atom_site_label
 _atom_site_symmetry_multiplicity
 _atom_site_fract_x
 _atom_site_fract_y
 _atom_site_fract_z
 _atom_site_occupancy
  Dy  Dy0  1  0.75000000  0.75000000  0.72887464  1
  Dy  Dy1  1  0.25000000  0.25000000  0.27112536  1
  Te  Te0  1  0.75000000  0.75000000  0.37199001  1
  Te  Te1  1  0.25000000  0.25000000  0.62800999  1
  Te  Te2  1  0.75000000  0.25000000  0.00000000  1
  Te  Te3  1  0.25000000  0.75000000  0.00000000  1
loop_
_geom_bond_atom_site_label_1
_geom_bond_atom_site_label_2
_geom_bond_distance
_geom_bond_site_symmetry_2
Dy0 Te0 3.170433 1_555
Dy0 Te1 3.262583 1_555
Dy0 Te1 3.262583 1_665
Dy0 Te1 3.262583 1_655
Dy0 Te1 3.262583 1_565
Dy0 Te2 3.274451 1_556
Dy0 Te3 3.274451 1_556
Dy0 Te2 3.274451 1_566
Dy0 Te3 3.274451 1_656
Dy1 Te1 3.170433 1_555
Dy1 Te0 3.262583 1_445
Dy1 Te0 3.262583 1_455
Dy1 Te0 3.262583 1_555
Dy1 Te0 3.262583 1_545
Dy1 Te2 3.274451 1_555
Dy1 Te3 3.274451 1_545
Dy1 Te3 3.274451 1_555
Dy1 Te2 3.274451 1_455
Te2 Te3 3.137124 1_545
Te2 Te3 3.137124 1_555
Te2 Te3 3.137124 1_655
Te2 Te3 3.137124 1_645
