# generated using pymatgen
data_Cs3Fe2F9
_symmetry_space_group_name_H-M   'P 1'
_cell_length_a   6.43751986
_cell_length_b   6.43755468
_cell_length_c   15.43840400
_cell_angle_alpha   89.99897271
_cell_angle_beta   90.00011690
_cell_angle_gamma   120.00135939
_symmetry_Int_Tables_number   1
_chemical_formula_structural   Cs3Fe2F9
_chemical_formula_sum   'Cs6 Fe4 F18'
_cell_volume   554.07250221
_cell_formula_units_Z   2
loop_
 _symmetry_equiv_pos_site_id
 _symmetry_equiv_pos_as_xyz
  1  'x, y, z'
loop_
 _atom_site_type_symbol
 _atom_site_label
 _atom_site_symmetry_multiplicity
 _atom_site_fract_x
 _atom_site_fract_y
 _atom_site_fract_z
 _atom_site_occupancy
  Cs  Cs0  1  0.33331000  0.66667000  0.25000000  1
  Cs  Cs1  1  0.66664200  0.33333700  0.75000300  1
  Cs  Cs2  1  0.33330600  0.66667500  0.56481500  1
  Cs  Cs3  1  0.33330500  0.66667500  0.93518400  1
  Cs  Cs4  1  0.66663600  0.33333200  0.06481600  1
  Cs  Cs5  1  0.66663600  0.33332800  0.43518500  1
  Fe  Fe0  1  0.99999000  0.00000100  0.15536000  1
  Fe  Fe1  1  0.99999700  0.00000100  0.34464300  1
  Fe  Fe2  1  0.99999400  0.99999100  0.65535600  1
  Fe  Fe3  1  0.00000400  0.00000100  0.84463600  1
  F  F0  1  0.26464500  0.13564700  0.25000000  1
  F  F1  1  0.87098800  0.73535400  0.25000100  1
  F  F2  1  0.86435600  0.12900400  0.25000200  1
  F  F3  1  0.12899200  0.86436100  0.75000000  1
  F  F4  1  0.13564500  0.26464100  0.74999900  1
  F  F5  1  0.73535000  0.87099400  0.74999900  1
  F  F6  1  0.29950900  0.13843300  0.59752800  1
  F  F7  1  0.83890900  0.70048700  0.59752600  1
  F  F8  1  0.86157300  0.16110000  0.59752500  1
  F  F9  1  0.29951000  0.13842400  0.90247100  1
  F  F10  1  0.83889900  0.70048700  0.90247200  1
  F  F11  1  0.86157000  0.16109300  0.90247300  1
  F  F12  1  0.16107700  0.86156400  0.09752400  1
  F  F13  1  0.13842300  0.29951600  0.09752700  1
  F  F14  1  0.70045900  0.83889400  0.09752900  1
  F  F15  1  0.16108600  0.86156900  0.40247300  1
  F  F16  1  0.13842700  0.29952300  0.40247600  1
  F  F17  1  0.70046200  0.83889700  0.40247600  1
loop_
_geom_bond_atom_site_label_1
_geom_bond_atom_site_label_2
_geom_bond_distance
_geom_bond_site_symmetry_2
Cs0 F15 3.120203 1_555
Cs0 F12 3.120214 1_555
Cs0 F14 3.120216 1_555
Cs0 F16 3.120247 1_555
Cs0 F13 3.120298 1_555
Cs0 F17 3.120308 1_555
Cs0 F1 3.220142 1_455
Cs0 F2 3.220259 1_565
Cs0 F0 3.220298 1_555
Cs0 F2 3.262580 1_455
Cs0 F0 3.262626 1_565
Cs0 F1 3.262772 1_555
Cs1 F9 3.120115 1_555
Cs1 F6 3.120225 1_555
Cs1 F10 3.120241 1_555
Cs1 F7 3.120272 1_555
Cs1 F11 3.120312 1_555
Cs1 F8 3.120425 1_555
Cs1 F4 3.220034 1_555
Cs1 F3 3.220219 1_655
Cs1 F5 3.220384 1_545
Cs1 F3 3.262570 1_545
Cs1 F5 3.262596 1_555
Cs1 F4 3.262896 1_655
Cs2 F8 3.191515 1_455
Cs2 F6 3.191615 1_565
Cs2 F7 3.191837 1_555
Cs2 F15 3.236624 1_555
Cs2 F17 3.236717 1_555
Cs2 F16 3.236742 1_555
Cs2 F7 3.335376 1_455
Cs2 F8 3.335598 1_565
Cs2 F6 3.335631 1_555
Cs2 F3 3.632796 1_555
Cs2 F4 3.632824 1_555
Cs2 F5 3.632897 1_555
Cs3 F9 3.191533 1_565
Cs3 F11 3.191564 1_455
Cs3 F10 3.191783 1_555
Cs3 F12 3.236648 1_556
Cs3 F13 3.236753 1_556
Cs3 F14 3.236805 1_556
Cs3 F10 3.335432 1_455
Cs3 F11 3.335558 1_565
Cs3 F9 3.335712 1_555
Cs3 F3 3.632740 1_555
Cs3 F5 3.632883 1_555
Cs3 F4 3.632905 1_555
Cs4 F12 3.191552 1_545
Cs4 F14 3.191578 1_555
Cs4 F13 3.191835 1_655
Cs4 F9 3.236705 1_554
Cs4 F10 3.236755 1_554
Cs4 F11 3.236881 1_554
Cs4 F13 3.335379 1_555
Cs4 F12 3.335520 1_655
Cs4 F14 3.335686 1_545
Cs4 F0 3.632687 1_555
Cs4 F1 3.632862 1_555
Cs4 F2 3.632932 1_555
Cs5 F15 3.191520 1_545
Cs5 F17 3.191586 1_555
Cs5 F16 3.191820 1_655
Cs5 F6 3.236655 1_555
Cs5 F8 3.236783 1_555
Cs5 F7 3.236794 1_555
Cs5 F16 3.335379 1_555
Cs5 F15 3.335570 1_655
Cs5 F17 3.335660 1_545
Cs5 F0 3.632727 1_555
Cs5 F1 3.632795 1_555
Cs5 F2 3.632923 1_555
F0 Fe1 2.076576 1_455
F0 Fe0 2.076588 1_455
F1 Fe0 2.076545 1_565
F1 Fe1 2.076596 1_565
F2 Fe1 2.076560 1_555
F2 Fe0 2.076566 1_555
F3 Fe3 2.076466 1_565
F3 Fe2 2.076528 1_455
F4 Fe3 2.076473 1_555
F4 Fe2 2.076619 1_445
F5 Fe3 2.076552 1_665
F5 Fe2 2.076561 1_555
F6 Fe2 1.894869 1_445
F7 Fe2 1.894860 1_555
F8 Fe2 1.895001 1_545
F9 Fe3 1.894891 1_555
F10 Fe3 1.894926 1_665
F11 Fe3 1.895041 1_655
F12 Fe0 1.895021 1_465
F13 Fe0 1.894907 1_455
F14 Fe0 1.894986 1_565
F15 Fe1 1.894946 1_465
F16 Fe1 1.894973 1_455
F17 Fe1 1.895005 1_565
