# generated using pymatgen
data_MnAlRh2
_symmetry_space_group_name_H-M   'P 1'
_cell_length_a   4.25235006
_cell_length_b   4.25234978
_cell_length_c   4.25235044
_cell_angle_alpha   59.99999488
_cell_angle_beta   59.99999706
_cell_angle_gamma   59.99999586
_symmetry_Int_Tables_number   1
_chemical_formula_structural   MnAlRh2
_chemical_formula_sum   'Mn1 Al1 Rh2'
_cell_volume   54.37158582
_cell_formula_units_Z   1
loop_
 _symmetry_equiv_pos_site_id
 _symmetry_equiv_pos_as_xyz
  1  'x, y, z'
loop_
 _atom_site_type_symbol
 _atom_site_label
 _atom_site_symmetry_multiplicity
 _atom_site_fract_x
 _atom_site_fract_y
 _atom_site_fract_z
 _atom_site_occupancy
  Mn  Mn0  1  0.50000000  0.50000000  0.50000000  1
  Al  Al0  1  0.00000000  -0.00000000  -0.00000000  1
  Rh  Rh0  1  0.25000000  0.25000000  0.25000000  1
  Rh  Rh1  1  0.75000000  0.75000000  0.75000000  1
loop_
_geom_bond_atom_site_label_1
_geom_bond_atom_site_label_2
_geom_bond_distance
_geom_bond_site_symmetry_2
Mn0 Rh1 2.604022 1_545
Mn0 Rh0 2.604022 1_565
Mn0 Rh1 2.604022 1_455
Mn0 Rh0 2.604022 1_655
Mn0 Rh0 2.604022 1_555
Mn0 Rh0 2.604022 1_556
Mn0 Rh1 2.604022 1_554
Mn0 Rh1 2.604022 1_555
Al0 Rh1 2.604022 1_454
Al0 Rh0 2.604022 1_545
Al0 Rh1 2.604022 1_544
Al0 Rh0 2.604022 1_455
Al0 Rh1 2.604022 1_445
Al0 Rh1 2.604022 1_444
Al0 Rh0 2.604022 1_555
Al0 Rh0 2.604022 1_554
