# generated using pymatgen
data_Cr4Se3N2
_symmetry_space_group_name_H-M   'P 1'
_cell_length_a   6.07712700
_cell_length_b   10.39880600
_cell_length_c   9.20964300
_cell_angle_alpha   90.00000000
_cell_angle_beta   90.00000000
_cell_angle_gamma   90.00000000
_symmetry_Int_Tables_number   1
_chemical_formula_structural   Cr4Se3N2
_chemical_formula_sum   'Cr16 Se12 N8'
_cell_volume   582.00214342
_cell_formula_units_Z   4
loop_
 _symmetry_equiv_pos_site_id
 _symmetry_equiv_pos_as_xyz
  1  'x, y, z'
loop_
 _atom_site_type_symbol
 _atom_site_label
 _atom_site_symmetry_multiplicity
 _atom_site_fract_x
 _atom_site_fract_y
 _atom_site_fract_z
 _atom_site_occupancy
  Cr  Cr0  1  0.57935800  0.25000000  0.86692700  1
  Cr  Cr1  1  0.07935800  0.25000000  0.63307300  1
  Cr  Cr2  1  0.42064200  0.75000000  0.13307300  1
  Cr  Cr3  1  0.92064200  0.75000000  0.36692700  1
  Cr  Cr4  1  0.79521600  0.25000000  0.40049200  1
  Cr  Cr5  1  0.29521600  0.25000000  0.09950800  1
  Cr  Cr6  1  0.20478400  0.75000000  0.59950800  1
  Cr  Cr7  1  0.70478400  0.75000000  0.90049200  1
  Cr  Cr8  1  0.70891700  0.47332400  0.07263100  1
  Cr  Cr9  1  0.20891700  0.02667600  0.42736900  1
  Cr  Cr10  1  0.29108300  0.97332400  0.92736900  1
  Cr  Cr11  1  0.79108300  0.52667600  0.57263100  1
  Cr  Cr12  1  0.29108300  0.52667600  0.92736900  1
  Cr  Cr13  1  0.79108300  0.97332400  0.57263100  1
  Cr  Cr14  1  0.70891700  0.02667600  0.07263100  1
  Cr  Cr15  1  0.20891700  0.47332400  0.42736900  1
  Se  Se0  1  0.88920600  0.25000000  0.14439400  1
  Se  Se1  1  0.38920600  0.25000000  0.35560600  1
  Se  Se2  1  0.11079400  0.75000000  0.85560600  1
  Se  Se3  1  0.61079400  0.75000000  0.64439400  1
  Se  Se4  1  0.58546600  0.57034000  0.32440700  1
  Se  Se5  1  0.08546600  0.92966000  0.17559300  1
  Se  Se6  1  0.41453400  0.07034000  0.67559300  1
  Se  Se7  1  0.91453400  0.42966000  0.82440700  1
  Se  Se8  1  0.41453400  0.42966000  0.67559300  1
  Se  Se9  1  0.91453400  0.07034000  0.82440700  1
  Se  Se10  1  0.58546600  0.92966000  0.32440700  1
  Se  Se11  1  0.08546600  0.57034000  0.17559300  1
  N  N0  1  0.55361700  0.62259000  0.99515600  1
  N  N1  1  0.05361700  0.87741000  0.50484400  1
  N  N2  1  0.44638300  0.12259000  0.00484400  1
  N  N3  1  0.94638300  0.37741000  0.49515600  1
  N  N4  1  0.44638300  0.37741000  0.00484400  1
  N  N5  1  0.94638300  0.12259000  0.49515600  1
  N  N6  1  0.55361700  0.87741000  0.99515600  1
  N  N7  1  0.05361700  0.62259000  0.50484400  1
loop_
_geom_bond_atom_site_label_1
_geom_bond_atom_site_label_2
_geom_bond_distance
_geom_bond_site_symmetry_2
Cr0 N2 2.005430 1_556
Cr0 N4 2.005430 1_556
Cr0 Se6 2.756580 1_555
Cr0 Se8 2.756580 1_555
Cr0 Se9 2.791539 1_555
Cr0 Se7 2.791539 1_555
Cr1 N5 2.005430 1_455
Cr1 N3 2.005430 1_455
Cr1 Se9 2.756580 1_455
Cr1 Se7 2.756580 1_455
Cr1 Se6 2.791539 1_555
Cr1 Se8 2.791539 1_555
Cr2 N0 2.005430 1_554
Cr2 N6 2.005430 1_554
Cr2 Se4 2.756580 1_555
Cr2 Se10 2.756580 1_555
Cr2 Se11 2.791539 1_555
Cr2 Se5 2.791539 1_555
Cr3 N7 2.005430 1_655
Cr3 N1 2.005430 1_655
Cr3 Se11 2.756580 1_655
Cr3 Se5 2.756580 1_655
Cr3 Se4 2.791539 1_555
Cr3 Se10 2.791539 1_555
Cr4 N5 1.832867 1_555
Cr4 N3 1.832867 1_555
Cr4 Se0 2.426750 1_555
Cr4 Se1 2.501764 1_555
Cr5 N2 1.832867 1_555
Cr5 N4 1.832867 1_555
Cr5 Se1 2.426750 1_555
Cr5 Se0 2.501764 1_455
Cr6 N7 1.832867 1_555
Cr6 N1 1.832867 1_555
Cr6 Se2 2.426750 1_555
Cr6 Se3 2.501764 1_555
Cr7 N0 1.832867 1_555
Cr7 N6 1.832867 1_555
Cr7 Se3 2.426750 1_555
Cr7 Se2 2.501764 1_655
Cr8 N0 1.951694 1_554
Cr8 N4 1.982423 1_555
Cr8 Se4 2.637670 1_555
Cr8 Se7 2.644544 1_554
Cr8 Se0 2.651475 1_555
Cr8 Se11 2.674589 1_655
Cr9 N1 1.951694 1_545
Cr9 N5 1.982423 1_455
Cr9 Se5 2.637670 1_545
Cr9 Se6 2.644544 1_555
Cr9 Se1 2.651475 1_555
Cr9 Se10 2.674589 1_545
Cr10 N2 1.951694 1_566
Cr10 N6 1.982423 1_555
Cr10 Se6 2.637670 1_565
Cr10 Se5 2.644544 1_556
Cr10 Se2 2.651475 1_555
Cr10 Se9 2.674589 1_465
Cr11 N3 1.951694 1_555
Cr11 N7 1.982423 1_655
Cr11 Se7 2.637670 1_555
Cr11 Se4 2.644544 1_555
Cr11 Se3 2.651475 1_555
Cr11 Se8 2.674589 1_555
Cr12 N4 1.951694 1_556
Cr12 N0 1.982423 1_555
Cr12 Se8 2.637670 1_555
Cr12 Se11 2.644544 1_556
Cr12 Se2 2.651475 1_555
Cr12 Se7 2.674589 1_455
Cr13 N5 1.951694 1_565
Cr13 N1 1.982423 1_655
Cr13 Se9 2.637670 1_565
Cr13 Se10 2.644544 1_555
Cr13 Se3 2.651475 1_555
Cr13 Se6 2.674589 1_565
Cr14 N6 1.951694 1_544
Cr14 N2 1.982423 1_555
Cr14 Se10 2.637670 1_545
Cr14 Se9 2.644544 1_554
Cr14 Se0 2.651475 1_555
Cr14 Se5 2.674589 1_645
Cr15 N7 1.951694 1_555
Cr15 N3 1.982423 1_455
Cr15 Se11 2.637670 1_555
Cr15 Se8 2.644544 1_555
Cr15 Se1 2.651475 1_555
Cr15 Se4 2.674589 1_555
