# generated using pymatgen
data_Ca3NiN3
_symmetry_space_group_name_H-M   'P 1'
_cell_length_a   7.14004300
_cell_length_b   7.14006010
_cell_length_c   5.00902300
_cell_angle_alpha   90.00000000
_cell_angle_beta   90.00000000
_cell_angle_gamma   120.00016746
_symmetry_Int_Tables_number   1
_chemical_formula_structural   Ca3NiN3
_chemical_formula_sum   'Ca6 Ni2 N6'
_cell_volume   221.14932572
_cell_formula_units_Z   2
loop_
 _symmetry_equiv_pos_site_id
 _symmetry_equiv_pos_as_xyz
  1  'x, y, z'
loop_
 _atom_site_type_symbol
 _atom_site_label
 _atom_site_symmetry_multiplicity
 _atom_site_fract_x
 _atom_site_fract_y
 _atom_site_fract_z
 _atom_site_occupancy
  Ca  Ca0  1  0.91803300  0.63861600  0.25000000  1
  Ca  Ca1  1  0.72058300  0.08196600  0.25000000  1
  Ca  Ca2  1  0.36138200  0.27941800  0.25000000  1
  Ca  Ca3  1  0.08196700  0.36138400  0.75000000  1
  Ca  Ca4  1  0.27941700  0.91803400  0.75000000  1
  Ca  Ca5  1  0.63861800  0.72058200  0.75000000  1
  Ni  Ni0  1  0.66666600  0.33333300  0.75000000  1
  Ni  Ni1  1  0.33333400  0.66666700  0.25000000  1
  N  N0  1  0.90169100  0.60015400  0.75000000  1
  N  N1  1  0.69846300  0.09830900  0.75000000  1
  N  N2  1  0.39984900  0.30153800  0.75000000  1
  N  N3  1  0.09830900  0.39984600  0.25000000  1
  N  N4  1  0.30153700  0.90169100  0.25000000  1
  N  N5  1  0.60015100  0.69846200  0.25000000  1
loop_
_geom_bond_atom_site_label_1
_geom_bond_atom_site_label_2
_geom_bond_distance
_geom_bond_site_symmetry_2
Ca0 N4 2.425441 1_655
Ca0 N5 2.510765 1_555
Ca0 N0 2.515863 1_555
Ca0 N0 2.515863 1_554
Ca0 N3 2.599561 1_655
Ca1 N5 2.425444 1_545
Ca1 N3 2.510745 1_655
Ca1 N1 2.515863 1_554
Ca1 N1 2.515863 1_555
Ca1 N4 2.599551 1_545
Ca2 N3 2.425429 1_555
Ca2 N4 2.510764 1_545
Ca2 N2 2.515866 1_555
Ca2 N2 2.515866 1_554
Ca2 N5 2.599543 1_555
Ca3 N1 2.425441 1_455
Ca3 N2 2.510765 1_555
Ca3 N3 2.515863 1_556
Ca3 N3 2.515863 1_555
Ca3 N0 2.599561 1_455
Ca4 N2 2.425444 1_565
Ca4 N0 2.510745 1_455
Ca4 N4 2.515863 1_555
Ca4 N4 2.515863 1_556
Ca4 N1 2.599551 1_565
Ca5 N0 2.425429 1_555
Ca5 N1 2.510764 1_565
Ca5 N5 2.515866 1_556
Ca5 N5 2.515866 1_555
Ca5 N2 2.599543 1_555
N0 Ni0 1.802355 1_555
N1 Ni0 1.802358 1_555
N2 Ni0 1.802330 1_555
N3 Ni1 1.802355 1_555
N4 Ni1 1.802358 1_555
N5 Ni1 1.802330 1_555
