# generated using pymatgen
data_SrCaMg6
_symmetry_space_group_name_H-M   'P 1'
_cell_length_a   5.42409700
_cell_length_b   7.13525900
_cell_length_c   11.87954000
_cell_angle_alpha   90.00000000
_cell_angle_beta   90.00000000
_cell_angle_gamma   90.00000000
_symmetry_Int_Tables_number   1
_chemical_formula_structural   SrCaMg6
_chemical_formula_sum   'Sr2 Ca2 Mg12'
_cell_volume   459.76595973
_cell_formula_units_Z   2
loop_
 _symmetry_equiv_pos_site_id
 _symmetry_equiv_pos_as_xyz
  1  'x, y, z'
loop_
 _atom_site_type_symbol
 _atom_site_label
 _atom_site_symmetry_multiplicity
 _atom_site_fract_x
 _atom_site_fract_y
 _atom_site_fract_z
 _atom_site_occupancy
  Sr  Sr0  1  0.50000000  0.50000000  0.83525300  1
  Sr  Sr1  1  0.50000000  0.00000000  0.33525300  1
  Ca  Ca0  1  0.50000000  0.50000000  0.33589000  1
  Ca  Ca1  1  0.50000000  0.00000000  0.83589000  1
  Mg  Mg0  1  0.50000000  0.24816600  0.08096300  1
  Mg  Mg1  1  0.50000000  0.75183400  0.08096300  1
  Mg  Mg2  1  0.00000000  0.24350200  0.92600000  1
  Mg  Mg3  1  0.00000000  0.75649800  0.92600000  1
  Mg  Mg4  1  0.00000000  0.50000000  0.15953000  1
  Mg  Mg5  1  0.00000000  0.50000000  0.65540300  1
  Mg  Mg6  1  0.50000000  0.74816600  0.58096300  1
  Mg  Mg7  1  0.50000000  0.25183400  0.58096300  1
  Mg  Mg8  1  0.00000000  0.74350200  0.42600000  1
  Mg  Mg9  1  0.00000000  0.25649800  0.42600000  1
  Mg  Mg10  1  0.00000000  0.00000000  0.65953000  1
  Mg  Mg11  1  0.00000000  0.00000000  0.15540300  1
loop_
_geom_bond_atom_site_label_1
_geom_bond_atom_site_label_2
_geom_bond_distance
_geom_bond_site_symmetry_2
Ca0 Mg9 3.394088 1_655
Ca0 Mg8 3.394088 1_555
Ca0 Mg8 3.394088 1_655
Ca0 Mg9 3.394088 1_555
Ca0 Mg7 3.407560 1_555
Ca0 Mg6 3.407560 1_555
Ca0 Mg4 3.427032 1_555
Ca0 Mg4 3.427032 1_655
Ca0 Mg0 3.521385 1_555
Ca0 Mg1 3.521385 1_555
Ca0 Sr1 3.567638 1_555
Ca0 Sr1 3.567638 1_565
Ca1 Mg2 3.394088 1_655
Ca1 Mg3 3.394088 1_545
Ca1 Mg2 3.394088 1_555
Ca1 Mg3 3.394088 1_645
Ca1 Mg0 3.407560 1_556
Ca1 Mg1 3.407560 1_546
Ca1 Mg10 3.427032 1_655
Ca1 Mg10 3.427032 1_555
Ca1 Mg6 3.521385 1_545
Ca1 Mg7 3.521385 1_555
Ca1 Sr0 3.567638 1_545
Ca1 Sr0 3.567638 1_555
Mg0 Mg2 3.277985 1_554
Mg0 Mg2 3.277985 1_654
Mg0 Mg11 3.357484 1_655
Mg0 Mg11 3.357484 1_555
Mg0 Mg4 3.384551 1_655
Mg0 Mg4 3.384551 1_555
Mg0 Sr0 3.427675 1_554
Mg0 Sr1 3.501572 1_555
Mg1 Mg3 3.277985 1_654
Mg1 Mg3 3.277985 1_554
Mg1 Mg11 3.357484 1_565
Mg1 Mg11 3.357484 1_665
Mg1 Mg4 3.384551 1_655
Mg1 Mg4 3.384551 1_555
Mg1 Sr0 3.427675 1_554
Mg1 Sr1 3.501572 1_565
Mg2 Mg4 3.323538 1_556
Mg2 Sr0 3.444839 1_455
Mg2 Sr0 3.444839 1_555
Mg3 Mg4 3.323538 1_556
Mg3 Sr0 3.444839 1_455
Mg3 Sr0 3.444839 1_555
Mg5 Mg8 3.231943 1_555
Mg5 Mg9 3.231943 1_555
Mg5 Mg6 3.357484 1_555
Mg5 Mg7 3.357484 1_455
Mg5 Mg7 3.357484 1_555
Mg5 Mg6 3.357484 1_455
Mg5 Sr0 3.452534 1_455
Mg5 Sr0 3.452534 1_555
Mg6 Mg8 3.277985 1_555
Mg6 Mg8 3.277985 1_655
Mg6 Sr1 3.427675 1_565
Mg6 Sr0 3.501572 1_555
Mg7 Mg9 3.277985 1_655
Mg7 Mg9 3.277985 1_555
Mg7 Sr1 3.427675 1_555
Mg7 Sr0 3.501572 1_555
Mg8 Sr1 3.444839 1_565
Mg8 Sr1 3.444839 1_465
Mg9 Sr1 3.444839 1_455
Mg9 Sr1 3.444839 1_555
Mg10 Mg9 3.323538 1_555
Mg10 Mg8 3.323538 1_545
Mg10 Mg6 3.384551 1_445
Mg10 Mg6 3.384551 1_545
Mg10 Mg7 3.384551 1_455
Mg10 Mg7 3.384551 1_555
Mg11 Mg3 3.231943 1_544
Mg11 Mg2 3.231943 1_554
Mg11 Sr1 3.452534 1_455
Mg11 Sr1 3.452534 1_555
