# generated using pymatgen
data_MnFe4(BiO3)5
_symmetry_space_group_name_H-M   'P 1'
_cell_length_a   5.64701207
_cell_length_b   5.71056916
_cell_length_c   23.25119757
_cell_angle_alpha   96.28590824
_cell_angle_beta   89.73919354
_cell_angle_gamma   119.62501620
_symmetry_Int_Tables_number   1
_chemical_formula_structural   MnFe4(BiO3)5
_chemical_formula_sum   'Mn2 Fe8 Bi10 O30'
_cell_volume   646.79689638
_cell_formula_units_Z   2
loop_
 _symmetry_equiv_pos_site_id
 _symmetry_equiv_pos_as_xyz
  1  'x, y, z'
loop_
 _atom_site_type_symbol
 _atom_site_label
 _atom_site_symmetry_multiplicity
 _atom_site_fract_x
 _atom_site_fract_y
 _atom_site_fract_z
 _atom_site_occupancy
  Mn  Mn0  1  0.00848000  0.01729500  0.14338900  1
  Mn  Mn1  1  0.40595700  0.80823100  0.34452700  1
  Fe  Fe0  1  0.81303600  0.62707700  0.54496100  1
  Fe  Fe1  1  0.21136900  0.42403000  0.74496100  1
  Fe  Fe2  1  0.61106300  0.22532600  0.94464700  1
  Fe  Fe3  1  0.11397900  0.22549800  0.44438200  1
  Fe  Fe4  1  0.51365300  0.02558500  0.64499700  1
  Fe  Fe5  1  0.91304800  0.82449300  0.84444900  1
  Fe  Fe6  1  0.30844500  0.62183700  0.04392400  1
  Fe  Fe7  1  0.71822500  0.43167400  0.24617400  1
  Bi  Bi0  1  0.10396800  0.19677800  0.29877100  1
  Bi  Bi1  1  0.50391000  0.00601800  0.50064700  1
  Bi  Bi2  1  0.90257200  0.80392600  0.70075400  1
  Bi  Bi3  1  0.30172200  0.60320000  0.90013800  1
  Bi  Bi4  1  0.70171400  0.40628200  0.10161000  1
  Bi  Bi5  1  0.99658400  0.00091600  0.00009800  1
  Bi  Bi6  1  0.40946000  0.81668400  0.20092200  1
  Bi  Bi7  1  0.80290200  0.60149100  0.40031500  1
  Bi  Bi8  1  0.20297000  0.40627900  0.60106600  1
  Bi  Bi9  1  0.60115100  0.20356400  0.80039300  1
  O  O0  1  0.60996400  0.07067200  0.29261600  1
  O  O1  1  0.01264000  0.87985300  0.48660900  1
  O  O2  1  0.41554000  0.67876500  0.68705100  1
  O  O3  1  0.81572000  0.47952400  0.88673100  1
  O  O4  1  0.21049000  0.27684600  0.08784900  1
  O  O5  1  0.32001300  0.16980800  0.21205000  1
  O  O6  1  0.70335000  0.96160200  0.40676900  1
  O  O7  1  0.10614200  0.75773400  0.60781600  1
  O  O8  1  0.50653100  0.55768600  0.80730400  1
  O  O9  1  0.90228800  0.35661800  0.00803900  1
  O  O10  1  0.20055700  0.98985100  0.37708200  1
  O  O11  1  0.59545100  0.79314400  0.57785400  1
  O  O12  1  0.99524000  0.59202100  0.77722900  1
  O  O13  1  0.38880500  0.38668100  0.97625500  1
  O  O14  1  0.80097800  0.19337900  0.17803600  1
  O  O15  1  0.10735600  0.59885100  0.28200300  1
  O  O16  1  0.49544800  0.39009900  0.47758300  1
  O  O17  1  0.89646800  0.19192800  0.67768900  1
  O  O18  1  0.29620400  0.99020000  0.87641200  1
  O  O19  1  0.68415600  0.77774500  0.07332500  1
  O  O20  1  0.54764000  0.57079500  0.31205300  1
  O  O21  1  0.95173800  0.35625300  0.50747500  1
  O  O22  1  0.35031500  0.15582200  0.70767700  1
  O  O23  1  0.75291800  0.95767900  0.90743700  1
  O  O24  1  0.15738000  0.76323900  0.10773100  1
  O  O25  1  0.17095000  0.49007900  0.38979900  1
  O  O26  1  0.56260800  0.27953300  0.58746800  1
  O  O27  1  0.96293400  0.07937600  0.78705900  1
  O  O28  1  0.35939000  0.87626800  0.98615900  1
  O  O29  1  0.77577900  0.70016400  0.18531500  1
loop_
_geom_bond_atom_site_label_1
_geom_bond_atom_site_label_2
_geom_bond_distance
_geom_bond_site_symmetry_2
Mn0 O4 1.974829 1_555
Mn0 O29 1.994733 1_445
Mn0 O14 2.003001 1_455
Mn0 O24 2.106070 1_545
Mn0 O5 2.146718 1_555
Mn0 O19 2.222993 1_445
Mn1 O0 1.925253 1_565
Mn1 O20 1.972695 1_555
Mn1 O6 1.993041 1_555
Mn1 O10 2.000858 1_555
Mn1 O15 2.008672 1_555
Mn1 O25 2.047539 1_555
Fe0 O11 1.994642 1_555
Fe0 O7 1.998612 1_655
Fe0 O1 2.000331 1_655
Fe0 O26 2.134863 1_555
Fe0 O21 2.158981 1_555
Fe0 O16 2.159610 1_555
Fe1 O12 1.991075 1_455
Fe1 O8 1.995973 1_555
Fe1 O2 2.003759 1_555
Fe1 O27 2.116487 1_455
Fe1 O22 2.145735 1_555
Fe1 O17 2.146318 1_455
Fe2 O13 1.987728 1_555
Fe2 O9 2.000062 1_556
Fe2 O3 2.002876 1_555
Fe2 O28 2.129047 1_545
Fe2 O23 2.154263 1_545
Fe2 O18 2.163394 1_545
Fe3 O25 1.983086 1_555
Fe3 O21 1.993288 1_455
Fe3 O16 1.993557 1_555
Fe3 O1 2.118965 1_545
Fe3 O10 2.163530 1_545
Fe3 O6 2.165159 1_445
Fe4 O22 1.989091 1_555
Fe4 O17 1.994999 1_555
Fe4 O26 1.998437 1_555
Fe4 O2 2.126006 1_545
Fe4 O11 2.135020 1_545
Fe4 O7 2.152026 1_545
Fe5 O23 1.991231 1_555
Fe5 O18 1.991416 1_655
Fe5 O27 1.998754 1_565
Fe5 O3 2.120874 1_555
Fe5 O12 2.137478 1_555
Fe5 O8 2.146889 1_555
Fe6 O19 1.942627 1_555
Fe6 O24 1.996986 1_555
Fe6 O28 2.002077 1_554
Fe6 O9 2.134697 1_455
Fe6 O4 2.142054 1_555
Fe6 O13 2.148971 1_554
Fe7 O15 2.050024 1_655
Fe7 O5 2.086704 1_555
Fe7 O20 2.093348 1_555
Fe7 O29 2.106427 1_555
Fe7 O14 2.174851 1_555
Fe7 O0 2.241682 1_555
Bi0 O20 2.346601 1_555
Bi0 O15 2.361528 1_555
Bi0 O5 2.381857 1_555
Bi0 O25 2.456156 1_555
Bi0 O10 2.475210 1_545
Bi0 O0 2.513197 1_455
Bi1 O21 2.313944 1_555
Bi1 O26 2.329891 1_555
Bi1 O16 2.337079 1_555
Bi1 O11 2.464780 1_545
Bi1 O6 2.497211 1_545
Bi1 O1 2.510488 1_545
Bi2 O22 2.316600 1_665
Bi2 O27 2.324264 1_565
Bi2 O17 2.352457 1_565
Bi2 O12 2.450642 1_555
Bi2 O2 2.488189 1_555
Bi2 O7 2.492590 1_655
Bi3 O28 2.314945 1_555
Bi3 O23 2.334085 1_555
Bi3 O18 2.350439 1_555
Bi3 O13 2.447672 1_555
Bi3 O3 2.484215 1_455
Bi3 O8 2.493175 1_555
Bi4 O29 2.318939 1_555
Bi4 O19 2.335837 1_555
Bi4 O24 2.356002 1_655
Bi4 O14 2.471037 1_555
Bi4 O9 2.501349 1_555
Bi4 O4 2.504539 1_555
Bi5 O9 2.330231 1_555
Bi5 O13 2.344863 1_654
Bi5 O4 2.354051 1_655
Bi5 O19 2.420881 1_545
Bi5 O23 2.484089 1_544
Bi5 O28 2.488852 1_644
Bi6 O5 2.297840 1_565
Bi6 O14 2.310124 1_565
Bi6 O0 2.377466 1_565
Bi6 O29 2.480861 1_555
Bi6 O24 2.503653 1_555
Bi6 O15 2.529444 1_555
Bi7 O1 2.327510 1_655
Bi7 O10 2.362320 1_655
Bi7 O6 2.375309 1_555
Bi7 O20 2.453246 1_555
Bi7 O25 2.460244 1_655
Bi7 O16 2.464498 1_555
Bi8 O2 2.313699 1_555
Bi8 O7 2.316653 1_555
Bi8 O11 2.343831 1_555
Bi8 O17 2.454177 1_455
Bi8 O26 2.479031 1_555
Bi8 O21 2.514171 1_455
Bi9 O8 2.323161 1_555
Bi9 O3 2.328755 1_555
Bi9 O12 2.352360 1_555
Bi9 O18 2.437970 1_545
Bi9 O27 2.480196 1_555
Bi9 O22 2.499065 1_555
