# generated using pymatgen
data_Nd3Sn13Ir4
_symmetry_space_group_name_H-M   'P 1'
_cell_length_a   9.76986132
_cell_length_b   9.76986765
_cell_length_c   9.76985425
_cell_angle_alpha   90.00035803
_cell_angle_beta   90.00038741
_cell_angle_gamma   90.00018473
_symmetry_Int_Tables_number   1
_chemical_formula_structural   Nd3Sn13Ir4
_chemical_formula_sum   'Nd6 Sn26 Ir8'
_cell_volume   932.53505068
_cell_formula_units_Z   2
loop_
 _symmetry_equiv_pos_site_id
 _symmetry_equiv_pos_as_xyz
  1  'x, y, z'
loop_
 _atom_site_type_symbol
 _atom_site_label
 _atom_site_symmetry_multiplicity
 _atom_site_fract_x
 _atom_site_fract_y
 _atom_site_fract_z
 _atom_site_occupancy
  Nd  Nd0  1  0.49999431  0.00001153  0.75000045  1
  Nd  Nd1  1  0.00000559  0.25000006  0.49999167  1
  Nd  Nd2  1  0.74999934  0.49999061  0.00000516  1
  Nd  Nd3  1  0.49999302  0.00000705  0.24999972  1
  Nd  Nd4  1  0.00000754  0.74999977  0.49999132  1
  Nd  Nd5  1  0.25000156  0.49999469  0.00000885  1
  Sn  Sn0  1  0.49998501  0.49997948  0.49998170  1
  Sn  Sn1  1  0.00001563  0.00002027  0.00001869  1
  Sn  Sn2  1  0.65236716  0.19350135  0.50001031  1
  Sn  Sn3  1  0.80650624  0.50000747  0.65237376  1
  Sn  Sn4  1  0.50000833  0.34761206  0.80652223  1
  Sn  Sn5  1  0.34761561  0.80652244  0.50001064  1
  Sn  Sn6  1  0.19350026  0.50000777  0.34762443  1
  Sn  Sn7  1  0.50000815  0.65236673  0.19350146  1
  Sn  Sn8  1  0.65237715  0.80651615  0.50000861  1
  Sn  Sn9  1  0.80651243  0.50000913  0.34761726  1
  Sn  Sn10  1  0.34762390  0.19349627  0.50000958  1
  Sn  Sn11  1  0.19350757  0.50000909  0.65236667  1
  Sn  Sn12  1  0.50000627  0.65237610  0.80651472  1
  Sn  Sn13  1  0.50000703  0.34762058  0.19349506  1
  Sn  Sn14  1  0.15238370  -0.00000945  0.69348154  1
  Sn  Sn15  1  0.30650703  0.15237940  -0.00000945  1
  Sn  Sn16  1  -0.00000801  0.30649818  0.84763368  1
  Sn  Sn17  1  0.84763272  -0.00000895  0.30649596  1
  Sn  Sn18  1  0.69348526  0.84762539  -0.00000870  1
  Sn  Sn19  1  -0.00000812  0.69347666  0.15238438  1
  Sn  Sn20  1  0.15237520  -0.00000853  0.30650422  1
  Sn  Sn21  1  0.30650088  0.84763368  -0.00001035  1
  Sn  Sn22  1  0.84762430  -0.00000765  0.69348753  1
  Sn  Sn23  1  0.69347775  0.15238616  -0.00001044  1
  Sn  Sn24  1  -0.00000712  0.30650497  0.15237577  1
  Sn  Sn25  1  -0.00000659  0.69348396  0.84762384  1
  Ir  Ir0  1  0.74998480  0.24999816  0.75001359  1
  Ir  Ir1  1  0.24998782  0.74999995  0.25001215  1
  Ir  Ir2  1  0.75001238  0.74998895  0.25000044  1
  Ir  Ir3  1  0.25001516  0.24998746  0.75000210  1
  Ir  Ir4  1  0.25000065  0.75001258  0.74998743  1
  Ir  Ir5  1  0.74999804  0.25001140  0.24998769  1
  Ir  Ir6  1  0.25000205  0.25000004  0.24999819  1
  Ir  Ir7  1  0.74999902  0.75000103  0.74999916  1
loop_
_geom_bond_atom_site_label_1
_geom_bond_atom_site_label_2
_geom_bond_distance
_geom_bond_site_symmetry_2
Nd0 Sn23 3.428470 1_556
Nd0 Sn15 3.428493 1_556
Nd0 Sn10 3.428494 1_555
Nd0 Sn5 3.428523 1_545
Nd0 Sn2 3.428536 1_555
Nd0 Sn21 3.428570 1_546
Nd0 Sn18 3.428590 1_546
Nd0 Sn8 3.428609 1_545
Nd0 Sn4 3.440611 1_555
Nd0 Sn14 3.440701 1_555
Nd0 Sn22 3.440886 1_555
Nd0 Sn12 3.440943 1_545
Nd1 Sn20 3.428626 1_555
Nd1 Sn6 3.428657 1_555
Nd1 Sn17 3.428670 1_455
Nd1 Sn9 3.428686 1_455
Nd1 Sn14 3.428688 1_555
Nd1 Sn11 3.428714 1_555
Nd1 Sn22 3.428725 1_455
Nd1 Sn3 3.428738 1_455
Nd1 Sn24 3.440735 1_555
Nd1 Sn10 3.440757 1_555
Nd1 Sn2 3.440940 1_455
Nd1 Sn16 3.440969 1_555
Nd2 Sn4 3.428499 1_554
Nd2 Sn24 3.428518 1_655
Nd2 Sn19 3.428531 1_655
Nd2 Sn13 3.428538 1_555
Nd2 Sn16 3.428556 1_654
Nd2 Sn7 3.428587 1_555
Nd2 Sn12 3.428600 1_554
Nd2 Sn25 3.428614 1_654
Nd2 Sn23 3.440650 1_555
Nd2 Sn9 3.440704 1_555
Nd2 Sn3 3.440888 1_554
Nd2 Sn18 3.440934 1_555
Nd3 Sn15 3.428633 1_555
Nd3 Sn10 3.428643 1_555
Nd3 Sn21 3.428658 1_545
Nd3 Sn5 3.428672 1_545
Nd3 Sn23 3.428674 1_555
Nd3 Sn2 3.428677 1_555
Nd3 Sn18 3.428705 1_545
Nd3 Sn8 3.428711 1_545
Nd3 Sn13 3.440716 1_555
Nd3 Sn20 3.440756 1_555
Nd3 Sn17 3.440946 1_555
Nd3 Sn7 3.440958 1_545
Nd4 Sn20 3.428509 1_565
Nd4 Sn14 3.428527 1_565
Nd4 Sn6 3.428531 1_555
Nd4 Sn9 3.428545 1_455
Nd4 Sn17 3.428576 1_465
Nd4 Sn11 3.428599 1_555
Nd4 Sn22 3.428620 1_465
Nd4 Sn3 3.428650 1_455
Nd4 Sn19 3.440670 1_555
Nd4 Sn5 3.440685 1_555
Nd4 Sn8 3.440894 1_455
Nd4 Sn25 3.440912 1_555
Nd5 Sn13 3.428615 1_555
Nd5 Sn7 3.428632 1_555
Nd5 Sn24 3.428635 1_555
Nd5 Sn19 3.428635 1_555
Nd5 Sn4 3.428671 1_554
Nd5 Sn16 3.428688 1_554
Nd5 Sn12 3.428695 1_554
Nd5 Sn25 3.428700 1_554
Nd5 Sn6 3.440727 1_555
Nd5 Sn15 3.440733 1_555
Nd5 Sn21 3.440948 1_555
Nd5 Sn11 3.440964 1_554
Sn0 Sn6 3.343877 1_555
Sn0 Sn10 3.343887 1_555
Sn0 Sn13 3.343900 1_555
Sn0 Sn2 3.343942 1_555
Sn0 Sn11 3.343951 1_555
Sn0 Sn7 3.343984 1_555
Sn0 Sn9 3.344299 1_555
Sn0 Sn3 3.344347 1_555
Sn0 Sn4 3.344425 1_555
Sn0 Sn5 3.344454 1_555
Sn0 Sn12 3.344470 1_555
Sn0 Sn8 3.344489 1_555
Sn1 Sn24 3.343878 1_555
Sn1 Sn20 3.343892 1_555
Sn1 Sn17 3.343939 1_455
Sn1 Sn15 3.343948 1_555
Sn1 Sn16 3.343956 1_554
Sn1 Sn21 3.344023 1_545
Sn1 Sn23 3.344393 1_455
Sn1 Sn14 3.344398 1_554
Sn1 Sn22 3.344429 1_454
Sn1 Sn18 3.344445 1_445
Sn1 Sn19 3.344447 1_545
Sn1 Sn25 3.344493 1_544
Sn2 Sn22 3.284254 1_555
Sn3 Sn9 2.977427 1_555
Sn5 Sn8 2.977478 1_555
Sn10 Sn2 2.977299 1_555
Sn10 Sn14 3.284117 1_555
Sn10 Sn20 3.284320 1_555
Sn11 Sn6 2.977287 1_555
Sn11 Sn25 3.284271 1_555
Sn11 Sn16 3.284544 1_555
Sn12 Sn4 2.977504 1_555
Sn12 Sn18 3.284016 1_556
Sn12 Sn21 3.284224 1_556
Sn13 Sn7 2.977330 1_555
Sn13 Sn23 3.284070 1_555
Sn13 Sn15 3.284245 1_555
Sn14 Sn22 2.977457 1_455
Sn14 Sn5 3.283846 1_545
Sn15 Sn21 2.977325 1_545
Sn15 Sn4 3.284029 1_554
Sn16 Sn24 2.977286 1_556
Sn16 Sn3 3.284319 1_455
Sn17 Sn20 2.977292 1_655
Sn17 Sn8 3.284260 1_545
Sn17 Sn2 3.284519 1_555
Sn18 Sn23 2.977472 1_565
Sn18 Sn7 3.284276 1_555
Sn19 Sn25 2.977466 1_554
Sn19 Sn9 3.283903 1_455
Sn19 Sn6 3.284106 1_555
Sn20 Sn5 3.284098 1_545
Sn21 Sn7 3.284494 1_555
Sn22 Sn8 3.284001 1_545
Sn23 Sn4 3.283798 1_554
Sn24 Sn9 3.284157 1_455
Sn24 Sn6 3.284319 1_555
Sn25 Sn3 3.284066 1_455
Ir0 Sn23 2.679321 1_556
Ir0 Sn4 2.679334 1_555
Ir0 Sn2 2.679546 1_555
Ir0 Sn16 2.679598 1_655
Ir0 Sn22 2.679716 1_555
Ir0 Sn3 2.679743 1_555
Ir0 Nd0 3.454005 1_555
Ir0 Nd2 3.454046 1_556
Ir0 Nd1 3.454473 1_655
Ir1 Sn6 2.679427 1_555
Ir1 Sn20 2.679427 1_565
Ir1 Sn19 2.679571 1_555
Ir1 Sn5 2.679590 1_555
Ir1 Sn7 2.679796 1_555
Ir1 Sn21 2.679823 1_555
Ir1 Nd4 3.453898 1_555
Ir1 Nd5 3.454216 1_555
Ir1 Nd3 3.454248 1_565
Ir2 Sn9 2.679358 1_555
Ir2 Sn19 2.679377 1_655
Ir2 Sn17 2.679547 1_565
Ir2 Sn7 2.679578 1_555
Ir2 Sn8 2.679724 1_555
Ir2 Sn18 2.679737 1_555
Ir2 Nd4 3.454058 1_655
Ir2 Nd2 3.454113 1_555
Ir2 Nd3 3.454433 1_565
Ir3 Sn15 2.679383 1_556
Ir3 Sn10 2.679420 1_555
Ir3 Sn4 2.679531 1_555
Ir3 Sn14 2.679590 1_555
Ir3 Sn11 2.679811 1_555
Ir3 Sn16 2.679816 1_555
Ir3 Nd0 3.453864 1_555
Ir3 Nd5 3.454253 1_556
Ir3 Nd1 3.454293 1_555
Ir4 Sn5 2.679345 1_555
Ir4 Sn14 2.679353 1_565
Ir4 Sn11 2.679555 1_555
Ir4 Sn21 2.679555 1_556
Ir4 Sn12 2.679705 1_555
Ir4 Sn25 2.679727 1_555
Ir4 Nd4 3.454080 1_555
Ir4 Nd0 3.454112 1_565
Ir4 Nd5 3.454450 1_556
Ir5 Sn13 2.679410 1_555
Ir5 Sn24 2.679460 1_655
Ir5 Sn23 2.679574 1_555
Ir5 Sn9 2.679577 1_555
Ir5 Sn17 2.679797 1_555
Ir5 Sn2 2.679808 1_555
Ir5 Nd2 3.453914 1_555
Ir5 Nd3 3.454228 1_555
Ir5 Nd1 3.454234 1_655
Ir6 Sn13 2.679597 1_555
Ir6 Sn15 2.679620 1_555
Ir6 Sn6 2.679635 1_555
Ir6 Sn24 2.679639 1_555
Ir6 Sn10 2.679654 1_555
Ir6 Sn20 2.679657 1_555
Ir6 Nd3 3.454063 1_555
Ir6 Nd5 3.454068 1_555
Ir6 Nd1 3.454109 1_555
Ir7 Sn8 2.679491 1_555
Ir7 Sn22 2.679510 1_565
Ir7 Sn18 2.679512 1_556
Ir7 Sn3 2.679517 1_555
Ir7 Sn12 2.679528 1_555
Ir7 Sn25 2.679540 1_655
Ir7 Nd0 3.454279 1_565
Ir7 Nd4 3.454291 1_655
Ir7 Nd2 3.454292 1_556
