# generated using pymatgen
data_K3Si5H2O11
_symmetry_space_group_name_H-M   'P 1'
_cell_length_a   7.61042305
_cell_length_b   7.61042305
_cell_length_c   14.05719713
_cell_angle_alpha   74.81907815
_cell_angle_beta   74.81907815
_cell_angle_gamma   63.40763544
_symmetry_Int_Tables_number   1
_chemical_formula_structural   K3Si5H2O11
_chemical_formula_sum   'K6 Si10 H4 O22'
_cell_volume   692.69873559
_cell_formula_units_Z   2
loop_
 _symmetry_equiv_pos_site_id
 _symmetry_equiv_pos_as_xyz
  1  'x, y, z'
loop_
 _atom_site_type_symbol
 _atom_site_label
 _atom_site_symmetry_multiplicity
 _atom_site_fract_x
 _atom_site_fract_y
 _atom_site_fract_z
 _atom_site_occupancy
  K  K0  1  0.52173500  0.58793100  0.03302600  1
  K  K1  1  0.58793100  0.52173500  0.53302600  1
  K  K2  1  0.26774100  0.45779300  0.35453400  1
  K  K3  1  0.45779300  0.26774100  0.85453400  1
  K  K4  1  0.18160900  0.12248700  0.22662500  1
  K  K5  1  0.12248700  0.18160900  0.72662500  1
  Si  Si0  1  0.81276800  0.88758900  0.36663700  1
  Si  Si1  1  0.88758900  0.81276800  0.86663700  1
  Si  Si2  1  0.66942000  0.76299200  0.73541900  1
  Si  Si3  1  0.76299200  0.66942000  0.23541900  1
  Si  Si4  1  0.64593900  0.11726700  0.17941300  1
  Si  Si5  1  0.11726700  0.64593900  0.67941300  1
  Si  Si6  1  0.53547800  0.07800100  0.54032700  1
  Si  Si7  1  0.07800100  0.53547800  0.04032700  1
  Si  Si8  1  0.97909500  0.99688400  0.99682600  1
  Si  Si9  1  0.99688400  0.97909500  0.49682600  1
  H  H0  1  0.18078100  0.14476400  0.49015800  1
  H  H1  1  0.14476400  0.18078100  0.99015800  1
  H  H2  1  0.42430800  0.65894800  0.78329300  1
  H  H3  1  0.65894800  0.42430800  0.28329300  1
  O  O0  1  0.63631000  0.89573000  0.46260800  1
  O  O1  1  0.89573000  0.63631000  0.96260800  1
  O  O2  1  0.01040900  0.87154800  0.40300800  1
  O  O3  1  0.87154800  0.01040900  0.90300900  1
  O  O4  1  0.60525500  0.56255200  0.29455500  1
  O  O5  1  0.56255200  0.60525500  0.79455500  1
  O  O6  1  0.62918300  0.90003100  0.18766100  1
  O  O7  1  0.90003100  0.62918300  0.68766100  1
  O  O8  1  0.87169800  0.68501000  0.32010300  1
  O  O9  1  0.68501000  0.87169800  0.82010300  1
  O  O10  1  0.75933800  0.08105800  0.27551900  1
  O  O11  1  0.08105800  0.75933800  0.77551900  1
  O  O12  1  0.43890700  0.30396900  0.18593700  1
  O  O13  1  0.30396900  0.43890700  0.68593700  1
  O  O14  1  0.10361700  0.13801000  0.44395400  1
  O  O15  1  0.13801000  0.10361700  0.94395400  1
  O  O16  1  0.76154600  0.09301100  0.54305100  1
  O  O17  1  0.09301100  0.76154600  0.04305100  1
  O  O18  1  0.52604800  0.92518300  0.65710500  1
  O  O19  1  0.92518300  0.52604800  0.15710500  1
  O  O20  1  0.80396800  0.13968800  0.07474300  1
  O  O21  1  0.13968800  0.80396800  0.57474300  1
loop_
_geom_bond_atom_site_label_1
_geom_bond_atom_site_label_2
_geom_bond_distance
_geom_bond_site_symmetry_2
K0 O12 2.786577 1_555
K0 O17 2.899731 1_555
K0 O1 2.913476 1_554
K0 O20 3.105894 1_555
K0 O5 3.257478 1_554
K1 O13 2.786577 1_555
K1 O16 2.899731 1_555
K1 O0 2.913476 1_555
K1 O21 3.105894 1_555
K1 O4 3.257478 1_555
K2 O12 2.674913 1_555
K2 O8 2.822855 1_455
K2 O4 2.879485 1_555
K2 O2 3.019740 1_555
K2 O14 3.059410 1_555
K2 Si6 3.589991 1_555
K3 O13 2.674913 1_555
K3 O9 2.822855 1_545
K3 O5 2.879485 1_555
K3 O3 3.019744 1_555
K3 O15 3.059410 1_555
K3 Si7 3.589991 1_556
K4 O12 2.736795 1_555
K4 O19 2.873506 1_455
K4 O14 2.979270 1_555
K4 O6 3.018993 1_545
K4 O2 3.090010 1_545
K4 O10 3.245958 1_455
K5 O13 2.736795 1_555
K5 O18 2.873506 1_545
K5 O15 2.979270 1_555
K5 O7 3.018993 1_455
K5 O3 3.090018 1_455
K5 O11 3.245958 1_545
H0 O14 1.006790 1_555
H0 K2 2.849554 1_555
H1 O15 1.006790 1_555
H1 K3 2.849554 1_555
H2 O5 0.983566 1_555
H2 K3 2.797269 1_555
H3 O4 0.983566 1_555
H3 K2 2.797269 1_555
O0 Si0 1.627184 1_555
O0 Si6 1.763034 1_565
O1 Si1 1.627184 1_555
O1 Si7 1.763034 1_656
O2 Si0 1.656623 1_455
O2 Si9 1.684813 1_455
O3 Si1 1.656630 1_545
O3 Si8 1.684801 1_545
O4 Si3 1.670609 1_555
O5 Si2 1.670609 1_555
O6 Si3 1.645845 1_555
O6 Si4 1.686291 1_565
O7 Si2 1.645845 1_555
O7 Si5 1.686291 1_655
O8 Si0 1.661752 1_555
O8 Si3 1.671299 1_555
O9 Si1 1.661752 1_555
O9 Si2 1.671299 1_555
O10 Si0 1.650123 1_545
O10 Si4 1.687786 1_555
O11 Si1 1.650123 1_455
O11 Si5 1.687786 1_555
O12 Si4 1.580538 1_555
O13 Si5 1.580538 1_555
O14 Si9 1.663557 1_445
O15 Si8 1.663557 1_445
O16 Si9 1.636150 1_545
O16 Si6 1.785298 1_555
O17 Si8 1.636150 1_454
O17 Si7 1.785298 1_555
O18 Si2 1.624105 1_555
O18 Si6 1.750893 1_565
O19 Si3 1.624105 1_555
O19 Si7 1.750893 1_655
O20 Si8 1.649009 1_544
O20 Si4 1.663098 1_555
O21 Si9 1.649009 1_455
O21 Si5 1.663098 1_555
