# generated using pymatgen
data_Mg3Al
_symmetry_space_group_name_H-M   'P 1'
_cell_length_a   6.18552687
_cell_length_b   6.18552687
_cell_length_c   4.95010738
_cell_angle_alpha   90.00000000
_cell_angle_beta   90.00000000
_cell_angle_gamma   119.99999174
_symmetry_Int_Tables_number   1
_chemical_formula_structural   Mg3Al
_chemical_formula_sum   'Mg6 Al2'
_cell_volume   164.02070833
_cell_formula_units_Z   2
loop_
 _symmetry_equiv_pos_site_id
 _symmetry_equiv_pos_as_xyz
  1  'x, y, z'
loop_
 _atom_site_type_symbol
 _atom_site_label
 _atom_site_symmetry_multiplicity
 _atom_site_fract_x
 _atom_site_fract_y
 _atom_site_fract_z
 _atom_site_occupancy
  Mg  Mg0  1  0.66265450  0.83132725  0.75000000  1
  Mg  Mg1  1  0.16867275  0.33734550  0.75000000  1
  Mg  Mg2  1  0.16867275  0.83132725  0.75000000  1
  Mg  Mg3  1  0.83132725  0.66265450  0.25000000  1
  Mg  Mg4  1  0.83132725  0.16867275  0.25000000  1
  Mg  Mg5  1  0.33734550  0.16867275  0.25000000  1
  Al  Al0  1  0.66666700  0.33333300  0.75000000  1
  Al  Al1  1  0.33333300  0.66666700  0.25000000  1
loop_
_geom_bond_atom_site_label_1
_geom_bond_atom_site_label_2
_geom_bond_distance
_geom_bond_site_symmetry_2
Mg0 Mg2 3.055537 1_555
Mg0 Mg1 3.055538 1_555
Mg0 Mg3 3.064556 1_556
Mg0 Mg3 3.064556 1_555
Mg0 Mg4 3.064556 1_566
Mg0 Mg4 3.064556 1_565
Mg0 Mg2 3.129989 1_655
Mg0 Mg1 3.129990 1_665
Mg1 Mg2 3.055537 1_555
Mg1 Mg5 3.064556 1_555
Mg1 Mg5 3.064556 1_556
Mg1 Mg4 3.064556 1_455
Mg1 Mg4 3.064556 1_456
Mg1 Mg2 3.129989 1_545
Mg2 Mg5 3.064556 1_566
Mg2 Mg5 3.064556 1_565
Mg2 Mg3 3.064556 1_456
Mg2 Mg3 3.064556 1_455
Mg3 Mg4 3.055537 1_555
Mg3 Mg5 3.055538 1_555
Mg3 Mg4 3.129989 1_565
Mg3 Mg5 3.129990 1_665
Mg4 Mg5 3.055537 1_555
Mg4 Mg5 3.129989 1_655
Al0 Mg4 3.039405 1_555
Al0 Mg4 3.039405 1_556
Al0 Mg3 3.039408 1_556
Al0 Mg3 3.039408 1_555
Al0 Mg5 3.039408 1_556
Al0 Mg5 3.039408 1_555
Al0 Mg0 3.092835 1_545
Al0 Mg1 3.092835 1_655
Al0 Mg2 3.092838 1_545
Al0 Mg2 3.092838 1_655
Al0 Mg1 3.092841 1_555
Al0 Mg0 3.092841 1_555
Al1 Mg2 3.039405 1_554
Al1 Mg2 3.039405 1_555
Al1 Mg0 3.039408 1_554
Al1 Mg0 3.039408 1_555
Al1 Mg1 3.039408 1_555
Al1 Mg1 3.039408 1_554
Al1 Mg3 3.092835 1_455
Al1 Mg5 3.092835 1_565
Al1 Mg4 3.092838 1_565
Al1 Mg4 3.092838 1_455
Al1 Mg5 3.092841 1_555
Al1 Mg3 3.092841 1_555
