# generated using pymatgen
data_CeMg14B
_symmetry_space_group_name_H-M   'P 1'
_cell_length_a   6.70372803
_cell_length_b   5.95347823
_cell_length_c   10.27702055
_cell_angle_alpha   90.00000000
_cell_angle_beta   90.00000000
_cell_angle_gamma   116.36208921
_symmetry_Int_Tables_number   1
_chemical_formula_structural   CeMg14B
_chemical_formula_sum   'Ce1 Mg14 B1'
_cell_volume   367.50663606
_cell_formula_units_Z   1
loop_
 _symmetry_equiv_pos_site_id
 _symmetry_equiv_pos_as_xyz
  1  'x, y, z'
loop_
 _atom_site_type_symbol
 _atom_site_label
 _atom_site_symmetry_multiplicity
 _atom_site_fract_x
 _atom_site_fract_y
 _atom_site_fract_z
 _atom_site_occupancy
  Ce  Ce0  1  0.11183359  0.30591629  0.12500000  1
  Mg  Mg0  1  0.15500060  0.32749980  0.62500000  1
  Mg  Mg1  1  0.13486169  0.81743035  0.62500000  1
  Mg  Mg2  1  0.58867660  0.28090626  0.12500000  1
  Mg  Mg3  1  0.64890819  0.32701045  0.62500000  1
  Mg  Mg4  1  0.58867660  0.80776933  0.12500000  1
  Mg  Mg5  1  0.64890819  0.82189674  0.62500000  1
  Mg  Mg6  1  0.34575125  0.17356105  0.37711999  1
  Mg  Mg7  1  0.34575125  0.17356105  0.87288001  1
  Mg  Mg8  1  0.34575125  0.67219120  0.37711999  1
  Mg  Mg9  1  0.34575125  0.67219120  0.87288001  1
  Mg  Mg10  1  0.82757825  0.16378963  0.38474492  1
  Mg  Mg11  1  0.82757825  0.16378963  0.86525508  1
  Mg  Mg12  1  0.92068014  0.71034057  0.29059684  1
  Mg  Mg13  1  0.92068014  0.71034057  0.95940316  1
  B  B0  1  0.24361276  0.87180588  0.12500000  1
loop_
_geom_bond_atom_site_label_1
_geom_bond_atom_site_label_2
_geom_bond_distance
_geom_bond_site_symmetry_2
Ce0 Mg11 3.168744 1_454
Ce0 Mg10 3.168744 1_455
Ce0 Mg4 3.265469 1_555
Ce0 Mg2 3.265469 1_555
Ce0 Mg7 3.300115 1_554
Ce0 Mg6 3.300115 1_555
Ce0 Mg9 3.300120 1_554
Ce0 Mg8 3.300120 1_555
Ce0 Mg4 3.443571 1_445
Ce0 Mg2 3.443571 1_455
Ce0 Mg13 3.616009 1_444
Ce0 Mg12 3.616009 1_445
Ce0 Mg12 3.616019 1_455
Ce0 Mg13 3.616019 1_454
Mg0 Mg1 2.979196 1_545
Mg0 Mg1 2.979196 1_555
Mg0 Mg10 3.156636 1_455
Mg0 Mg11 3.156636 1_455
Mg0 Mg6 3.163141 1_555
Mg0 Mg7 3.163141 1_555
Mg0 Mg8 3.163147 1_555
Mg0 Mg9 3.163147 1_555
Mg0 Mg5 3.312317 1_555
Mg0 Mg3 3.312317 1_555
Mg0 Mg5 3.391413 1_445
Mg0 Mg3 3.391413 1_455
Mg1 Mg8 3.212719 1_555
Mg1 Mg9 3.212719 1_555
Mg1 Mg6 3.212725 1_565
Mg1 Mg7 3.212725 1_565
Mg1 Mg3 3.269594 1_455
Mg1 Mg5 3.269594 1_455
Mg1 Mg3 3.434303 1_565
Mg1 Mg5 3.434303 1_555
Mg2 Mg7 2.974842 1_554
Mg2 Mg6 2.974842 1_555
Mg3 Mg5 2.946295 1_555
Mg3 Mg5 3.007183 1_545
Mg3 Mg6 3.131378 1_555
Mg3 Mg7 3.131378 1_555
Mg4 Mg9 2.974841 1_554
Mg4 Mg8 2.974841 1_555
Mg5 Mg8 3.131378 1_555
Mg5 Mg9 3.131378 1_555
Mg6 Mg8 2.968584 1_555
Mg6 Mg8 2.984894 1_545
Mg7 Mg9 2.968584 1_555
Mg7 Mg9 2.984894 1_545
Mg10 Mg3 3.083668 1_555
Mg10 Mg5 3.083673 1_545
Mg10 Mg12 3.179604 1_555
Mg10 Mg12 3.179604 1_545
Mg10 Mg8 3.257229 1_545
Mg10 Mg6 3.257229 1_555
Mg10 Mg2 3.341927 1_555
Mg10 Mg4 3.341932 1_545
Mg10 Mg8 3.449143 1_655
Mg10 Mg6 3.449143 1_655
Mg11 Mg3 3.083668 1_555
Mg11 Mg5 3.083673 1_545
Mg11 Mg13 3.179604 1_555
Mg11 Mg13 3.179604 1_545
Mg11 Mg9 3.257229 1_545
Mg11 Mg7 3.257229 1_555
Mg11 Mg2 3.341927 1_556
Mg11 Mg4 3.341932 1_546
Mg11 Mg9 3.449143 1_655
Mg11 Mg7 3.449143 1_655
Mg12 Mg6 3.088207 1_665
Mg12 Mg8 3.088207 1_655
Mg13 Mg7 3.088207 1_665
Mg13 Mg9 3.088207 1_655
B0 Mg2 2.505892 1_565
B0 Mg4 2.505892 1_555
B0 Mg13 2.580461 1_454
B0 Mg12 2.580461 1_455
B0 Mg9 3.052420 1_554
B0 Mg8 3.052420 1_555
B0 Mg7 3.052426 1_564
B0 Mg6 3.052426 1_565
B0 Ce0 3.080181 1_555
B0 Ce0 3.080181 1_565
