# generated using pymatgen
data_TiAl
_symmetry_space_group_name_H-M   'P 1'
_cell_length_a   5.73452447
_cell_length_b   5.73452447
_cell_length_c   9.35616600
_cell_angle_alpha   90.00000000
_cell_angle_beta   90.00000000
_cell_angle_gamma   120.00000537
_symmetry_Int_Tables_number   1
_chemical_formula_structural   TiAl
_chemical_formula_sum   'Ti8 Al8'
_cell_volume   266.45467636
_cell_formula_units_Z   8
loop_
 _symmetry_equiv_pos_site_id
 _symmetry_equiv_pos_as_xyz
  1  'x, y, z'
loop_
 _atom_site_type_symbol
 _atom_site_label
 _atom_site_symmetry_multiplicity
 _atom_site_fract_x
 _atom_site_fract_y
 _atom_site_fract_z
 _atom_site_occupancy
  Ti  Ti0_0  1  0.00000000  0.00000000  0.00000000  1
  Ti  Ti0_1  1  0.00000000  0.00000000  0.50000000  1
  Ti  Ti0_2  1  0.00000000  0.50000000  0.00000000  1
  Ti  Ti0_3  1  0.00000000  0.50000000  0.50000000  1
  Ti  Ti0_4  1  0.50000000  0.00000000  0.00000000  1
  Ti  Ti0_5  1  0.50000000  0.00000000  0.50000000  1
  Ti  Ti0_6  1  0.50000000  0.50000000  0.00000000  1
  Ti  Ti0_7  1  0.50000000  0.50000000  0.50000000  1
  Al  Al0_0  1  0.16666650  0.33333350  0.25000000  1
  Al  Al0_1  1  0.16666650  0.33333350  0.75000000  1
  Al  Al0_2  1  0.16666650  0.83333350  0.25000000  1
  Al  Al0_3  1  0.16666650  0.83333350  0.75000000  1
  Al  Al0_4  1  0.66666650  0.33333350  0.25000000  1
  Al  Al0_5  1  0.66666650  0.33333350  0.75000000  1
  Al  Al0_6  1  0.66666650  0.83333350  0.25000000  1
  Al  Al0_7  1  0.66666650  0.83333350  0.75000000  1
loop_
_geom_bond_atom_site_label_1
_geom_bond_atom_site_label_2
_geom_bond_distance
_geom_bond_site_symmetry_2
Ti0_0 Ti0_6 2.867262 1_445
Ti0_0 Ti0_6 2.867262 1_555
Ti0_0 Ti0_4 2.867262 1_455
Ti0_0 Ti0_4 2.867262 1_555
Ti0_0 Ti0_2 2.867262 1_555
Ti0_0 Ti0_2 2.867262 1_545
Ti0_1 Ti0_7 2.867262 1_445
Ti0_1 Ti0_7 2.867262 1_555
Ti0_1 Ti0_3 2.867262 1_555
Ti0_1 Ti0_3 2.867262 1_545
Ti0_1 Ti0_5 2.867262 1_455
Ti0_1 Ti0_5 2.867262 1_555
Ti0_2 Ti0_4 2.867262 1_455
Ti0_2 Ti0_4 2.867262 1_565
Ti0_2 Ti0_6 2.867262 1_555
Ti0_2 Ti0_6 2.867262 1_455
Ti0_3 Ti0_5 2.867262 1_565
Ti0_3 Ti0_5 2.867262 1_455
Ti0_3 Ti0_7 2.867262 1_455
Ti0_3 Ti0_7 2.867262 1_555
Ti0_4 Ti0_6 2.867262 1_545
Ti0_4 Ti0_6 2.867262 1_555
Ti0_5 Ti0_7 2.867262 1_555
Ti0_5 Ti0_7 2.867262 1_545
Al0_0 Ti0_3 2.865573 1_555
Al0_0 Ti0_2 2.865573 1_555
Al0_0 Ti0_0 2.865574 1_555
Al0_0 Ti0_6 2.865574 1_555
Al0_0 Ti0_7 2.865574 1_555
Al0_0 Ti0_1 2.865574 1_555
Al0_0 Al0_6 2.867262 1_445
Al0_0 Al0_6 2.867262 1_555
Al0_0 Al0_2 2.867262 1_555
Al0_0 Al0_2 2.867262 1_545
Al0_0 Al0_4 2.867262 1_555
Al0_0 Al0_4 2.867262 1_455
Al0_1 Ti0_3 2.865573 1_555
Al0_1 Ti0_2 2.865573 1_556
Al0_1 Ti0_7 2.865574 1_555
Al0_1 Ti0_1 2.865574 1_555
Al0_1 Ti0_0 2.865574 1_556
Al0_1 Ti0_6 2.865574 1_556
Al0_1 Al0_7 2.867262 1_445
Al0_1 Al0_7 2.867262 1_555
Al0_1 Al0_5 2.867262 1_455
Al0_1 Al0_3 2.867262 1_555
Al0_1 Al0_3 2.867262 1_545
Al0_1 Al0_5 2.867262 1_555
Al0_2 Ti0_1 2.865573 1_565
Al0_2 Ti0_0 2.865573 1_565
Al0_2 Ti0_3 2.865574 1_555
Al0_2 Ti0_2 2.865574 1_555
Al0_2 Ti0_4 2.865574 1_565
Al0_2 Ti0_5 2.865574 1_565
Al0_2 Al0_4 2.867262 1_565
Al0_2 Al0_4 2.867262 1_455
Al0_2 Al0_6 2.867262 1_555
Al0_2 Al0_6 2.867262 1_455
Al0_3 Ti0_1 2.865573 1_565
Al0_3 Ti0_0 2.865573 1_566
Al0_3 Ti0_3 2.865574 1_555
Al0_3 Ti0_2 2.865574 1_556
Al0_3 Ti0_4 2.865574 1_566
Al0_3 Ti0_5 2.865574 1_565
Al0_3 Al0_5 2.867262 1_565
Al0_3 Al0_5 2.867262 1_455
Al0_3 Al0_7 2.867262 1_555
Al0_3 Al0_7 2.867262 1_455
Al0_4 Ti0_6 2.865573 1_555
Al0_4 Ti0_7 2.865573 1_555
Al0_4 Ti0_2 2.865574 1_655
Al0_4 Ti0_4 2.865574 1_555
Al0_4 Ti0_3 2.865574 1_655
Al0_4 Ti0_5 2.865574 1_555
Al0_4 Al0_6 2.867262 1_555
Al0_4 Al0_6 2.867262 1_545
Al0_5 Ti0_7 2.865573 1_555
Al0_5 Ti0_6 2.865573 1_556
Al0_5 Ti0_4 2.865574 1_556
Al0_5 Ti0_3 2.865574 1_655
Al0_5 Ti0_2 2.865574 1_656
Al0_5 Ti0_5 2.865574 1_555
Al0_5 Al0_7 2.867262 1_555
Al0_5 Al0_7 2.867262 1_545
Al0_6 Ti0_4 2.865573 1_565
Al0_6 Ti0_5 2.865573 1_565
Al0_6 Ti0_6 2.865574 1_555
Al0_6 Ti0_7 2.865574 1_555
Al0_6 Ti0_0 2.865574 1_665
Al0_6 Ti0_1 2.865574 1_665
Al0_7 Ti0_4 2.865573 1_566
Al0_7 Ti0_5 2.865573 1_565
Al0_7 Ti0_7 2.865574 1_555
Al0_7 Ti0_1 2.865574 1_665
Al0_7 Ti0_0 2.865574 1_666
Al0_7 Ti0_6 2.865574 1_556
