# generated using pymatgen
data_CaP2H5NO7
_symmetry_space_group_name_H-M   'P 1'
_cell_length_a   17.80994800
_cell_length_b   7.35315300
_cell_length_c   12.87698875
_cell_angle_alpha   55.89300374
_cell_angle_beta   90.00000000
_cell_angle_gamma   90.00000000
_symmetry_Int_Tables_number   1
_chemical_formula_structural   CaP2H5NO7
_chemical_formula_sum   'Ca8 P16 H40 N8 O56'
_cell_volume   1396.29326439
_cell_formula_units_Z   8
loop_
 _symmetry_equiv_pos_site_id
 _symmetry_equiv_pos_as_xyz
  1  'x, y, z'
loop_
 _atom_site_type_symbol
 _atom_site_label
 _atom_site_symmetry_multiplicity
 _atom_site_fract_x
 _atom_site_fract_y
 _atom_site_fract_z
 _atom_site_occupancy
  Ca  Ca0  1  0.22083300  0.86336500  0.65564400  1
  Ca  Ca1  1  0.77916700  0.13663500  0.34435600  1
  Ca  Ca2  1  0.72083300  0.13663500  0.84435600  1
  Ca  Ca3  1  0.27916700  0.86336500  0.15564400  1
  Ca  Ca4  1  0.25338700  0.28298100  0.73508800  1
  Ca  Ca5  1  0.74661300  0.71701900  0.26491200  1
  Ca  Ca6  1  0.75338700  0.71701900  0.76491200  1
  Ca  Ca7  1  0.24661300  0.28298100  0.23508800  1
  P  P0  1  0.39334800  0.70390100  0.58392500  1
  P  P1  1  0.60665200  0.29609900  0.41607500  1
  P  P2  1  0.89334800  0.29609900  0.91607500  1
  P  P3  1  0.10665200  0.70390100  0.08392500  1
  P  P4  1  0.08139600  0.98503800  0.80125700  1
  P  P5  1  0.91860400  0.01496200  0.19874300  1
  P  P6  1  0.58139600  0.01496200  0.69874300  1
  P  P7  1  0.41860400  0.98503800  0.30125700  1
  P  P8  1  0.78852600  0.64412300  0.55990600  1
  P  P9  1  0.21147400  0.35587700  0.44009400  1
  P  P10  1  0.28852600  0.35587700  0.94009400  1
  P  P11  1  0.71147400  0.64412300  0.05990600  1
  P  P12  1  0.33750200  0.73892900  0.93362600  1
  P  P13  1  0.66249800  0.26107100  0.06637400  1
  P  P14  1  0.83750200  0.26107100  0.56637400  1
  P  P15  1  0.16249800  0.73892900  0.43362600  1
  H  H0  1  0.39943500  0.35016400  0.54885300  1
  H  H1  1  0.60056500  0.64983600  0.45114700  1
  H  H2  1  0.89943500  0.64983600  0.95114700  1
  H  H3  1  0.10056500  0.35016400  0.04885300  1
  H  H4  1  0.93349400  0.78182300  0.60789000  1
  H  H5  1  0.06650600  0.21817700  0.39211000  1
  H  H6  1  0.43349400  0.21817700  0.89211000  1
  H  H7  1  0.56650600  0.78182300  0.10789000  1
  H  H8  1  0.44789500  0.87196800  0.83669100  1
  H  H9  1  0.55210500  0.12803200  0.16330900  1
  H  H10  1  0.94789500  0.12803200  0.66330900  1
  H  H11  1  0.05210500  0.87196800  0.33669100  1
  H  H12  1  0.48374600  0.44116700  0.78611200  1
  H  H13  1  0.51625400  0.55883300  0.21388800  1
  H  H14  1  0.98374600  0.55883300  0.71388800  1
  H  H15  1  0.01625400  0.44116700  0.28611200  1
  H  H16  1  0.48309500  0.84022800  0.67921800  1
  H  H17  1  0.51690500  0.15977200  0.32078200  1
  H  H18  1  0.98309500  0.15977200  0.82078200  1
  H  H19  1  0.01690500  0.84022800  0.17921800  1
  H  H20  1  0.01884500  0.80868200  0.66366800  1
  H  H21  1  0.98115500  0.19131800  0.33633200  1
  H  H22  1  0.51884500  0.19131800  0.83633200  1
  H  H23  1  0.48115500  0.80868200  0.16366800  1
  H  H24  1  0.87911100  0.85226400  0.97354900  1
  H  H25  1  0.12088900  0.14773600  0.02645100  1
  H  H26  1  0.37911100  0.14773600  0.52645100  1
  H  H27  1  0.62088900  0.85226400  0.47354900  1
  H  H28  1  0.95360100  0.68800500  0.04993400  1
  H  H29  1  0.04639900  0.31199500  0.95006600  1
  H  H30  1  0.45360100  0.31199500  0.45006600  1
  H  H31  1  0.54639900  0.68800500  0.54993400  1
  H  H32  1  0.01685300  0.73039400  0.56367900  1
  H  H33  1  0.98314700  0.26960600  0.43632100  1
  H  H34  1  0.51685300  0.26960600  0.93632100  1
  H  H35  1  0.48314700  0.73039400  0.06367900  1
  H  H36  1  0.13535800  0.41041600  0.91226400  1
  H  H37  1  0.86464200  0.58958400  0.08773600  1
  H  H38  1  0.63535800  0.58958400  0.58773600  1
  H  H39  1  0.36464200  0.41041600  0.41226400  1
  N  N0  1  0.98796700  0.72166800  0.63608900  1
  N  N1  1  0.01203300  0.27833200  0.36391100  1
  N  N2  1  0.48796700  0.27833200  0.86391100  1
  N  N3  1  0.51203300  0.72166800  0.13608900  1
  N  N4  1  0.90044700  0.69396400  0.01468700  1
  N  N5  1  0.09955300  0.30603600  0.98531300  1
  N  N6  1  0.40044700  0.30603600  0.48531300  1
  N  N7  1  0.59955300  0.69396400  0.51468700  1
  O  O0  1  0.49535500  0.94256600  0.71471300  1
  O  O1  1  0.50464500  0.05743400  0.28528700  1
  O  O2  1  0.99535500  0.05743400  0.78528700  1
  O  O3  1  0.00464500  0.94256600  0.21471300  1
  O  O4  1  0.63151100  0.83845700  0.71280800  1
  O  O5  1  0.36848900  0.16154300  0.28719200  1
  O  O6  1  0.13151100  0.16154300  0.78719200  1
  O  O7  1  0.86848900  0.83845700  0.21280800  1
  O  O8  1  0.42167200  0.82534100  0.91835200  1
  O  O9  1  0.57832800  0.17465900  0.08164800  1
  O  O10  1  0.92167200  0.17465900  0.58164800  1
  O  O11  1  0.07832800  0.82534100  0.41835200  1
  O  O12  1  0.82849500  0.81774100  0.57003000  1
  O  O13  1  0.17150500  0.18225900  0.42997000  1
  O  O14  1  0.32849500  0.18225900  0.92997000  1
  O  O15  1  0.67150500  0.81774100  0.07003000  1
  O  O16  1  0.09591000  0.90089400  0.71873600  1
  O  O17  1  0.90409000  0.09910600  0.28126400  1
  O  O18  1  0.59591000  0.09910600  0.78126400  1
  O  O19  1  0.40409000  0.90089400  0.21873600  1
  O  O20  1  0.34027300  0.87221900  0.57639900  1
  O  O21  1  0.65972700  0.12778100  0.42360100  1
  O  O22  1  0.84027300  0.12778100  0.92360100  1
  O  O23  1  0.15972700  0.87221900  0.07639900  1
  O  O24  1  0.08520200  0.76872400  0.94326400  1
  O  O25  1  0.91479800  0.23127600  0.05673600  1
  O  O26  1  0.58520200  0.23127600  0.55673600  1
  O  O27  1  0.41479800  0.76872400  0.44326400  1
  O  O28  1  0.24800600  0.24685900  0.56890800  1
  O  O29  1  0.75199400  0.75314100  0.43109200  1
  O  O30  1  0.74800600  0.75314100  0.93109200  1
  O  O31  1  0.25199400  0.24685900  0.06890800  1
  O  O32  1  0.18843600  0.66290700  0.56380300  1
  O  O33  1  0.81156400  0.33709300  0.43619700  1
  O  O34  1  0.68843600  0.33709300  0.93619700  1
  O  O35  1  0.31156400  0.66290700  0.06380300  1
  O  O36  1  0.47082800  0.70454500  0.64040500  1
  O  O37  1  0.52917200  0.29545500  0.35959500  1
  O  O38  1  0.97082800  0.29545500  0.85959500  1
  O  O39  1  0.02917200  0.70454500  0.14040500  1
  O  O40  1  0.35237300  0.52530600  0.92804200  1
  O  O41  1  0.64762700  0.47469400  0.07195800  1
  O  O42  1  0.85237300  0.47469400  0.57195800  1
  O  O43  1  0.14762700  0.52530600  0.42804200  1
  O  O44  1  0.28879400  0.89886900  0.82238900  1
  O  O45  1  0.71120600  0.10113100  0.17761100  1
  O  O46  1  0.78879400  0.10113100  0.67761100  1
  O  O47  1  0.21120600  0.89886900  0.32238900  1
  O  O48  1  0.36479600  0.47005000  0.64708100  1
  O  O49  1  0.63520400  0.52995000  0.35291900  1
  O  O50  1  0.86479600  0.52995000  0.85291900  1
  O  O51  1  0.13520400  0.47005000  0.14708100  1
  O  O52  1  0.23330300  0.49032400  0.83013900  1
  O  O53  1  0.76669700  0.50967600  0.16986100  1
  O  O54  1  0.73330300  0.50967600  0.66986100  1
  O  O55  1  0.26669700  0.49032400  0.33013900  1
loop_
_geom_bond_atom_site_label_1
_geom_bond_atom_site_label_2
_geom_bond_distance
_geom_bond_site_symmetry_2
Ca0 O20 2.344374 1_555
Ca0 O52 2.389593 1_555
Ca0 O32 2.420575 1_555
Ca0 O28 2.429262 1_565
Ca0 O16 2.436738 1_555
Ca0 O44 2.602342 1_555
Ca0 O13 2.659529 1_565
Ca1 O21 2.344374 1_555
Ca1 O53 2.389593 1_555
Ca1 O33 2.420575 1_555
Ca1 O29 2.429262 1_545
Ca1 O17 2.436738 1_555
Ca1 O45 2.602342 1_555
Ca1 O12 2.659529 1_545
Ca2 O22 2.344374 1_555
Ca2 O54 2.389593 1_555
Ca2 O34 2.420575 1_555
Ca2 O30 2.429262 1_545
Ca2 O18 2.436738 1_555
Ca2 O46 2.602342 1_555
Ca2 O15 2.659529 1_546
Ca3 O23 2.344374 1_555
Ca3 O55 2.389593 1_555
Ca3 O35 2.420575 1_555
Ca3 O31 2.429262 1_565
Ca3 O19 2.436738 1_555
Ca3 O47 2.602342 1_555
Ca3 O14 2.659529 1_564
Ca4 O6 2.299381 1_555
Ca4 O28 2.301374 1_555
Ca4 O48 2.316289 1_555
Ca4 O52 2.458317 1_555
Ca4 O44 2.465355 1_545
Ca4 O14 2.559505 1_555
Ca4 O32 2.664046 1_555
Ca5 O7 2.299381 1_555
Ca5 O29 2.301374 1_555
Ca5 O49 2.316289 1_555
Ca5 O53 2.458317 1_555
Ca5 O45 2.465355 1_565
Ca5 O15 2.559505 1_555
Ca5 O33 2.664046 1_555
Ca6 O4 2.299381 1_555
Ca6 O30 2.301374 1_555
Ca6 O50 2.316289 1_555
Ca6 O54 2.458317 1_555
Ca6 O46 2.465355 1_565
Ca6 O12 2.559505 1_555
Ca6 O34 2.664046 1_555
Ca7 O5 2.299381 1_555
Ca7 O31 2.301374 1_555
Ca7 O51 2.316289 1_555
Ca7 O55 2.458317 1_555
Ca7 O47 2.465355 1_545
Ca7 O13 2.559505 1_555
Ca7 O35 2.664046 1_555
H0 N6 1.035767 1_555
H1 N7 1.035767 1_555
H2 N4 1.035767 1_556
H3 N5 1.035767 1_554
H4 N0 1.043357 1_555
H5 N1 1.043357 1_555
H6 N2 1.043357 1_555
H7 N3 1.043357 1_555
H8 O8 1.018378 1_555
H8 O0 1.592683 1_555
H9 O9 1.018378 1_555
H9 O1 1.592683 1_555
H10 O10 1.018378 1_555
H10 O2 1.592683 1_555
H11 O11 1.018378 1_555
H11 O3 1.592683 1_555
H12 N2 1.047708 1_555
H13 N3 1.047708 1_555
H14 N0 1.047708 1_555
H15 N1 1.047708 1_555
H16 O0 1.099357 1_555
H16 O36 1.360936 1_555
H17 O1 1.099357 1_555
H17 O37 1.360936 1_555
H18 O2 1.099357 1_555
H18 O38 1.360936 1_555
H19 O3 1.099357 1_555
H19 O39 1.360936 1_555
H20 N0 1.045350 1_455
H21 N1 1.045350 1_655
H22 N2 1.045350 1_555
H23 N3 1.045350 1_555
H24 N4 1.043264 1_556
H25 N5 1.043264 1_554
H26 N6 1.043264 1_555
H27 N7 1.043264 1_555
H28 N4 1.040098 1_555
H29 N5 1.040098 1_555
H30 N6 1.040098 1_555
H31 N7 1.040098 1_555
H32 N0 1.034940 1_455
H33 N1 1.034940 1_655
H34 N2 1.034940 1_555
H35 N3 1.034940 1_555
H36 N5 1.034834 1_555
H37 N4 1.034834 1_555
H38 N7 1.034834 1_555
H39 N6 1.034834 1_555
O0 P6 1.597219 1_565
O1 P7 1.597219 1_545
O2 P4 1.597219 1_645
O3 P5 1.597219 1_465
O4 P6 1.500094 1_565
O5 P7 1.500094 1_545
O6 P4 1.500094 1_545
O7 P5 1.500094 1_565
O8 P12 1.596701 1_555
O9 P13 1.596701 1_555
O10 P14 1.596701 1_555
O11 P15 1.596701 1_555
O12 P8 1.529764 1_555
O13 P9 1.529764 1_555
O14 P10 1.529764 1_555
O15 P11 1.529764 1_555
O16 P4 1.521888 1_555
O17 P5 1.521888 1_555
O18 P6 1.521888 1_555
O19 P7 1.521888 1_555
O20 P0 1.516648 1_555
O21 P1 1.516648 1_555
O22 P2 1.516648 1_555
O23 P3 1.516648 1_555
O24 P4 1.617562 1_555
O24 P3 1.638803 1_556
O25 P5 1.617562 1_555
O25 P2 1.638803 1_554
O26 P6 1.617562 1_555
O26 P1 1.638803 1_555
O27 P7 1.617562 1_555
O27 P0 1.638803 1_555
O28 P9 1.525161 1_555
O29 P8 1.525161 1_555
O30 P11 1.525161 1_556
O31 P10 1.525161 1_554
O32 P15 1.511604 1_555
O33 P14 1.511604 1_555
O34 P13 1.511604 1_556
O35 P12 1.511604 1_554
O36 P0 1.561091 1_555
O37 P1 1.561091 1_555
O38 P2 1.561091 1_555
O39 P3 1.561091 1_555
O40 P10 1.628615 1_555
O40 P12 1.633832 1_555
O41 P11 1.628615 1_555
O41 P13 1.633832 1_555
O42 P8 1.628615 1_555
O42 P14 1.633832 1_555
O43 P9 1.628615 1_555
O43 P15 1.633832 1_555
O44 P12 1.515977 1_555
O45 P13 1.515977 1_555
O46 P14 1.515977 1_555
O47 P15 1.515977 1_555
O48 P0 1.519369 1_555
O49 P1 1.519369 1_555
O50 P2 1.519369 1_555
O51 P3 1.519369 1_555
O52 P10 1.542594 1_555
O53 P11 1.542594 1_555
O54 P8 1.542594 1_555
O55 P9 1.542594 1_555
