# generated using pymatgen
data_Li7Mn4CoO12
_symmetry_space_group_name_H-M   'P 1'
_cell_length_a   2.96057700
_cell_length_b   5.99255144
_cell_length_c   12.60017412
_cell_angle_alpha   76.59401068
_cell_angle_beta   88.28377668
_cell_angle_gamma   86.52071456
_symmetry_Int_Tables_number   1
_chemical_formula_structural   Li7Mn4CoO12
_chemical_formula_sum   'Li7 Mn4 Co1 O12'
_cell_volume   217.02378934
_cell_formula_units_Z   1
loop_
 _symmetry_equiv_pos_site_id
 _symmetry_equiv_pos_as_xyz
  1  'x, y, z'
loop_
 _atom_site_type_symbol
 _atom_site_label
 _atom_site_symmetry_multiplicity
 _atom_site_fract_x
 _atom_site_fract_y
 _atom_site_fract_z
 _atom_site_occupancy
  Li  Li0  1  0.00223100  0.48841700  0.01106400  1
  Li  Li1  1  0.49923900  0.32987900  0.83451400  1
  Li  Li2  1  0.49932200  0.66652200  0.16637600  1
  Li  Li3  1  0.99717500  0.84226300  0.32463800  1
  Li  Li4  1  0.50176800  0.00322600  0.49963500  1
  Li  Li5  1  0.99995100  0.16904600  0.66455500  1
  Li  Li6  1  0.50009600  0.16732300  0.16772900  1
  Mn  Mn0  1  0.00398900  0.00415600  0.00856800  1
  Mn  Mn1  1  0.99662600  0.33061100  0.32715800  1
  Mn  Mn2  1  0.50487400  0.83711200  0.83325400  1
  Mn  Mn3  1  0.99978200  0.66396400  0.66427700  1
  Co  Co0  1  0.49063300  0.49533600  0.49875600  1
  O  O0  1  0.48236800  0.21967700  0.00074900  1
  O  O1  1  0.03645600  0.07144300  0.84169600  1
  O  O2  1  0.00375400  0.41476100  0.17931000  1
  O  O3  1  0.47810600  0.55147300  0.34036500  1
  O  O4  1  0.03085200  0.73325200  0.50232200  1
  O  O5  1  0.53545500  0.90655900  0.67103600  1
  O  O6  1  0.52125200  0.78102200  0.99574400  1
  O  O7  1  0.96711400  0.59436400  0.82836300  1
  O  O8  1  0.99580300  0.91999300  0.15569900  1
  O  O9  1  0.51855900  0.11482100  0.33457000  1
  O  O10  1  0.96625900  0.26895700  0.49191000  1
  O  O11  1  0.46833400  0.42582100  0.65771400  1
loop_
_geom_bond_atom_site_label_1
_geom_bond_atom_site_label_2
_geom_bond_distance
_geom_bond_site_symmetry_2
Li0 O2 2.062858 1_555
Li0 O0 2.106930 1_555
Li0 O6 2.167028 1_454
Li0 O7 2.245439 1_454
Li0 O0 2.321443 1_455
Li0 O6 2.371773 1_554
Li1 O0 2.045054 1_556
Li1 O1 2.113989 1_555
Li1 O1 2.140305 1_655
Li1 O7 2.154030 1_555
Li1 O7 2.155738 1_455
Li1 O11 2.171069 1_555
Li2 O2 2.039627 1_655
Li2 O8 2.046926 1_455
Li2 O6 2.100113 1_554
Li2 O3 2.140459 1_555
Li2 O2 2.143739 1_555
Li2 O8 2.156427 1_555
Li3 O8 2.070918 1_555
Li3 O9 2.120017 1_565
Li3 O3 2.158417 1_655
Li3 O4 2.185501 1_655
Li3 O9 2.340607 1_665
Li3 O3 2.363066 1_555
Li4 O9 2.031833 1_555
Li4 O5 2.106066 1_545
Li4 O10 2.149931 1_555
Li4 O10 2.165576 1_455
Li4 O4 2.177685 1_645
Li4 O4 2.192674 1_545
Li5 O11 2.118574 1_655
Li5 O10 2.121888 1_555
Li5 O11 2.122489 1_555
Li5 O5 2.137349 1_545
Li5 O5 2.154042 1_645
Li5 O1 2.176479 1_655
Li6 O8 2.049472 1_545
Li6 O2 2.049946 1_555
Li6 O9 2.054125 1_555
Li6 O0 2.055830 1_555
Li6 O2 2.196612 1_655
Li6 O8 2.198879 1_445
Mn0 O8 1.804729 1_445
Mn0 O0 1.941809 1_455
Mn0 O0 1.959140 1_555
Mn0 O6 1.999015 1_544
Mn0 O1 2.047508 1_554
Mn0 O6 2.050021 1_444
Mn1 O2 1.813423 1_655
Mn1 O9 1.943899 1_655
Mn1 O9 1.960196 1_555
Mn1 O3 1.994047 1_555
Mn1 O10 2.022664 1_555
Mn1 O3 2.038793 1_655
Mn2 O1 1.931437 1_565
Mn2 O7 1.946168 1_555
Mn2 O5 1.989542 1_555
Mn2 O6 1.998011 1_555
Mn2 O1 2.192612 1_665
Mn2 O7 2.232299 1_455
Mn3 O11 1.943003 1_655
Mn3 O5 1.954034 1_555
Mn3 O4 1.986368 1_655
Mn3 O7 2.012704 1_555
Mn3 O11 2.203184 1_555
Mn3 O5 2.231837 1_655
Co0 O10 1.909378 1_555
Co0 O4 1.917839 1_555
Co0 O3 1.946581 1_555
Co0 O11 1.948852 1_555
Co0 O10 2.139106 1_455
Co0 O4 2.214370 1_655
