# generated using pymatgen
data_CsBaMg14
_symmetry_space_group_name_H-M   'P 1'
_cell_length_a   7.05779033
_cell_length_b   7.05778965
_cell_length_c   10.53247329
_cell_angle_alpha   90.00000000
_cell_angle_beta   90.00000000
_cell_angle_gamma   120.00000324
_symmetry_Int_Tables_number   1
_chemical_formula_structural   CsBaMg14
_chemical_formula_sum   'Cs1 Ba1 Mg14'
_cell_volume   454.35827989
_cell_formula_units_Z   1
loop_
 _symmetry_equiv_pos_site_id
 _symmetry_equiv_pos_as_xyz
  1  'x, y, z'
loop_
 _atom_site_type_symbol
 _atom_site_label
 _atom_site_symmetry_multiplicity
 _atom_site_fract_x
 _atom_site_fract_y
 _atom_site_fract_z
 _atom_site_occupancy
  Cs  Cs0  1  0.16666700  0.33333300  0.12500000  1
  Ba  Ba0  1  0.16666700  0.33333300  0.62500000  1
  Mg  Mg0  1  0.17323639  0.83661770  0.12500000  1
  Mg  Mg1  1  0.17797377  0.83898638  0.62500000  1
  Mg  Mg2  1  0.66338230  0.32676361  0.12500000  1
  Mg  Mg3  1  0.66101362  0.32202623  0.62500000  1
  Mg  Mg4  1  0.66338230  0.83661770  0.12500000  1
  Mg  Mg5  1  0.66101362  0.83898638  0.62500000  1
  Mg  Mg6  1  0.35284650  0.14715350  0.37853096  1
  Mg  Mg7  1  0.35284650  0.14715350  0.87146904  1
  Mg  Mg8  1  0.35284650  0.70569399  0.37853096  1
  Mg  Mg9  1  0.35284650  0.70569399  0.87146904  1
  Mg  Mg10  1  0.79430601  0.14715350  0.37853096  1
  Mg  Mg11  1  0.79430601  0.14715350  0.87146904  1
  Mg  Mg12  1  0.83333300  0.66666700  0.37564847  1
  Mg  Mg13  1  0.83333300  0.66666700  0.87435153  1
loop_
_geom_bond_atom_site_label_1
_geom_bond_atom_site_label_2
_geom_bond_distance
_geom_bond_site_symmetry_2
Cs0 Mg7 3.508626 1_554
Cs0 Mg6 3.508626 1_555
Cs0 Mg8 3.508634 1_555
Cs0 Mg9 3.508634 1_554
Cs0 Mg11 3.508634 1_454
Cs0 Mg10 3.508634 1_455
Cs0 Mg0 3.529123 1_545
Cs0 Mg4 3.529123 1_555
Cs0 Mg4 3.529123 1_445
Cs0 Mg0 3.529123 1_555
Cs0 Mg2 3.529124 1_555
Cs0 Mg2 3.529124 1_455
Ba0 Mg6 3.452355 1_555
Ba0 Mg7 3.452355 1_555
Ba0 Mg8 3.452363 1_555
Ba0 Mg9 3.452363 1_555
Ba0 Mg10 3.452363 1_455
Ba0 Mg11 3.452363 1_455
Ba0 Mg1 3.529571 1_555
Ba0 Mg5 3.529571 1_555
Ba0 Mg5 3.529571 1_445
Ba0 Mg1 3.529572 1_545
Ba0 Mg3 3.529572 1_455
Ba0 Mg3 3.529572 1_555
Mg0 Mg9 3.280651 1_554
Mg0 Mg8 3.280651 1_555
Mg0 Mg7 3.280657 1_564
Mg0 Mg6 3.280657 1_565
Mg0 Mg13 3.359406 1_454
Mg0 Mg12 3.359406 1_455
Mg0 Mg2 3.459347 1_565
Mg0 Mg4 3.459347 1_555
Mg1 Mg8 3.210643 1_555
Mg1 Mg9 3.210643 1_555
Mg1 Mg7 3.210650 1_565
Mg1 Mg6 3.210650 1_565
Mg1 Mg12 3.366723 1_455
Mg1 Mg13 3.366723 1_455
Mg1 Mg3 3.409194 1_565
Mg1 Mg5 3.409194 1_555
Mg2 Mg7 3.280657 1_554
Mg2 Mg6 3.280657 1_555
Mg2 Mg4 3.459347 1_545
Mg3 Mg6 3.210650 1_555
Mg3 Mg7 3.210650 1_555
Mg3 Mg5 3.409194 1_545
Mg4 Mg9 3.280658 1_554
Mg4 Mg8 3.280658 1_555
Mg5 Mg8 3.210651 1_555
Mg5 Mg9 3.210651 1_555
Mg6 Mg8 3.115728 1_545
Mg7 Mg9 3.115728 1_545
Mg10 Mg8 3.115728 1_545
Mg10 Mg6 3.115729 1_555
Mg10 Mg3 3.210643 1_555
Mg10 Mg5 3.210651 1_545
Mg10 Mg2 3.280650 1_555
Mg10 Mg4 3.280658 1_545
Mg10 Mg12 3.537078 1_545
Mg10 Mg12 3.537078 1_555
Mg11 Mg9 3.115728 1_545
Mg11 Mg7 3.115729 1_555
Mg11 Mg3 3.210643 1_555
Mg11 Mg5 3.210651 1_545
Mg11 Mg2 3.280650 1_556
Mg11 Mg4 3.280658 1_546
Mg11 Mg13 3.537078 1_545
Mg11 Mg13 3.537078 1_555
Mg12 Mg4 3.359398 1_555
Mg12 Mg2 3.359406 1_555
Mg12 Mg5 3.366716 1_555
Mg12 Mg3 3.366723 1_555
Mg12 Mg6 3.537078 1_555
Mg12 Mg6 3.537078 1_665
Mg12 Mg8 3.537079 1_555
Mg12 Mg8 3.537079 1_655
Mg13 Mg4 3.359398 1_556
Mg13 Mg2 3.359406 1_556
Mg13 Mg5 3.366716 1_555
Mg13 Mg3 3.366723 1_555
Mg13 Mg7 3.537078 1_555
Mg13 Mg7 3.537078 1_665
Mg13 Mg9 3.537079 1_555
Mg13 Mg9 3.537079 1_655
