# generated using pymatgen
data_Rb2Be3Ni2F12
_symmetry_space_group_name_H-M   'P 1'
_cell_length_a   10.11336100
_cell_length_b   10.11336100
_cell_length_c   10.11336100
_cell_angle_alpha   90.00000000
_cell_angle_beta   90.00000000
_cell_angle_gamma   90.00000000
_symmetry_Int_Tables_number   1
_chemical_formula_structural   Rb2Be3Ni2F12
_chemical_formula_sum   'Rb8 Be12 Ni8 F48'
_cell_volume   1034.39527826
_cell_formula_units_Z   4
loop_
 _symmetry_equiv_pos_site_id
 _symmetry_equiv_pos_as_xyz
  1  'x, y, z'
loop_
 _atom_site_type_symbol
 _atom_site_label
 _atom_site_symmetry_multiplicity
 _atom_site_fract_x
 _atom_site_fract_y
 _atom_site_fract_z
 _atom_site_occupancy
  Rb  Rb0  1  0.04833100  0.04833100  0.04833100  1
  Rb  Rb1  1  0.45166900  0.95166900  0.54833100  1
  Rb  Rb2  1  0.95166900  0.54833100  0.45166900  1
  Rb  Rb3  1  0.54833100  0.45166900  0.95166900  1
  Rb  Rb4  1  0.81561300  0.81561300  0.81561300  1
  Rb  Rb5  1  0.68438700  0.18438700  0.31561300  1
  Rb  Rb6  1  0.18438700  0.31561300  0.68438700  1
  Rb  Rb7  1  0.31561300  0.68438700  0.18438700  1
  Be  Be0  1  0.02040800  0.21397700  0.37565400  1
  Be  Be1  1  0.47959200  0.78602300  0.87565400  1
  Be  Be2  1  0.97959200  0.71397700  0.12434600  1
  Be  Be3  1  0.37565400  0.02040800  0.21397700  1
  Be  Be4  1  0.52040800  0.28602300  0.62434600  1
  Be  Be5  1  0.87565400  0.47959200  0.78602300  1
  Be  Be6  1  0.12434600  0.97959200  0.71397700  1
  Be  Be7  1  0.62434600  0.52040800  0.28602300  1
  Be  Be8  1  0.21397700  0.37565400  0.02040800  1
  Be  Be9  1  0.71397700  0.12434600  0.97959200  1
  Be  Be10  1  0.28602300  0.62434600  0.52040800  1
  Be  Be11  1  0.78602300  0.87565400  0.47959200  1
  Ni  Ni0  1  0.33553200  0.33553200  0.33553200  1
  Ni  Ni1  1  0.16446800  0.66446800  0.83553200  1
  Ni  Ni2  1  0.66446800  0.83553200  0.16446800  1
  Ni  Ni3  1  0.83553200  0.16446800  0.66446800  1
  Ni  Ni4  1  0.59937300  0.59937300  0.59937300  1
  Ni  Ni5  1  0.90062700  0.40062700  0.09937300  1
  Ni  Ni6  1  0.40062700  0.09937300  0.90062700  1
  Ni  Ni7  1  0.09937300  0.90062700  0.40062700  1
  F  F0  1  0.01240300  0.06669900  0.33027800  1
  F  F1  1  0.48759700  0.93330100  0.83027800  1
  F  F2  1  0.98759700  0.56669900  0.16972200  1
  F  F3  1  0.33027800  0.01240300  0.06669900  1
  F  F4  1  0.51240300  0.43330100  0.66972200  1
  F  F5  1  0.83027800  0.48759700  0.93330100  1
  F  F6  1  0.16972200  0.98759700  0.56669900  1
  F  F7  1  0.66972200  0.51240300  0.43330100  1
  F  F8  1  0.06669900  0.33027800  0.01240300  1
  F  F9  1  0.56669900  0.16972200  0.98759700  1
  F  F10  1  0.43330100  0.66972200  0.51240300  1
  F  F11  1  0.93330100  0.83027800  0.48759700  1
  F  F12  1  0.26616900  0.49551600  0.43643700  1
  F  F13  1  0.23383100  0.50448400  0.93643700  1
  F  F14  1  0.73383100  0.99551600  0.06356300  1
  F  F15  1  0.43643700  0.26616900  0.49551600  1
  F  F16  1  0.76616900  0.00448400  0.56356300  1
  F  F17  1  0.93643700  0.23383100  0.50448400  1
  F  F18  1  0.06356300  0.73383100  0.99551600  1
  F  F19  1  0.56356300  0.76616900  0.00448400  1
  F  F20  1  0.49551600  0.43643700  0.26616900  1
  F  F21  1  0.99551600  0.06356300  0.73383100  1
  F  F22  1  0.00448400  0.56356300  0.76616900  1
  F  F23  1  0.50448400  0.93643700  0.23383100  1
  F  F24  1  0.04596400  0.80595700  0.23081500  1
  F  F25  1  0.45403600  0.19404300  0.73081500  1
  F  F26  1  0.95403600  0.30595700  0.26918500  1
  F  F27  1  0.23081500  0.04596400  0.80595700  1
  F  F28  1  0.54596400  0.69404300  0.76918500  1
  F  F29  1  0.73081500  0.45403600  0.19404300  1
  F  F30  1  0.26918500  0.95403600  0.30595700  1
  F  F31  1  0.76918500  0.54596400  0.69404300  1
  F  F32  1  0.80595700  0.23081500  0.04596400  1
  F  F33  1  0.30595700  0.26918500  0.95403600  1
  F  F34  1  0.69404300  0.76918500  0.54596400  1
  F  F35  1  0.19404300  0.73081500  0.45403600  1
  F  F36  1  0.16519400  0.25596300  0.40197200  1
  F  F37  1  0.33480600  0.74403700  0.90197200  1
  F  F38  1  0.83480600  0.75596300  0.09802800  1
  F  F39  1  0.40197200  0.16519400  0.25596300  1
  F  F40  1  0.66519400  0.24403700  0.59802800  1
  F  F41  1  0.90197200  0.33480600  0.74403700  1
  F  F42  1  0.09802800  0.83480600  0.75596300  1
  F  F43  1  0.59802800  0.66519400  0.24403700  1
  F  F44  1  0.25596300  0.40197200  0.16519400  1
  F  F45  1  0.75596300  0.09802800  0.83480600  1
  F  F46  1  0.24403700  0.59802800  0.66519400  1
  F  F47  1  0.74403700  0.90197200  0.33480600  1
loop_
_geom_bond_atom_site_label_1
_geom_bond_atom_site_label_2
_geom_bond_distance
_geom_bond_site_symmetry_2
Be0 F36 1.547656 1_555
Be0 F0 1.560668 1_555
Be0 F17 1.568141 1_455
Be0 F26 1.573309 1_455
Be1 F37 1.547656 1_555
Be1 F1 1.560668 1_555
Be1 F19 1.568141 1_556
Be1 F28 1.573309 1_555
Be2 F38 1.547656 1_555
Be2 F2 1.560668 1_555
Be2 F18 1.568141 1_654
Be2 F24 1.573309 1_655
Be3 F39 1.547656 1_555
Be3 F3 1.560668 1_555
Be3 F23 1.568141 1_545
Be3 F30 1.573309 1_545
Be4 F40 1.547656 1_555
Be4 F4 1.560668 1_555
Be4 F15 1.568141 1_555
Be4 F25 1.573309 1_555
Be5 F41 1.547656 1_555
Be5 F5 1.560668 1_555
Be5 F22 1.568141 1_655
Be5 F31 1.573309 1_555
Be6 F42 1.547656 1_555
Be6 F6 1.560668 1_555
Be6 F21 1.568141 1_465
Be6 F27 1.573309 1_565
Be7 F43 1.547656 1_555
Be7 F7 1.560668 1_555
Be7 F20 1.568141 1_555
Be7 F29 1.573309 1_555
Be8 F44 1.547656 1_555
Be8 F8 1.560668 1_555
Be8 F13 1.568141 1_554
Be8 F33 1.573309 1_554
Be9 F45 1.547656 1_555
Be9 F9 1.560668 1_555
Be9 F14 1.568141 1_546
Be9 F32 1.573309 1_556
Be10 F46 1.547656 1_555
Be10 F10 1.560668 1_555
Be10 F12 1.568141 1_555
Be10 F35 1.573309 1_555
Be11 F47 1.547656 1_555
Be11 F11 1.560668 1_555
Be11 F16 1.568141 1_565
Be11 F34 1.573309 1_555
F0 Ni7 2.025014 1_545
F0 Rb0 2.880485 1_555
F1 Ni6 2.025014 1_565
F1 Rb1 2.880485 1_555
F2 Ni5 2.025014 1_555
F2 Rb2 2.880485 1_555
F3 Ni6 2.025014 1_554
F3 Rb0 2.880485 1_555
F4 Ni4 2.025014 1_555
F4 Rb3 2.880485 1_555
F5 Ni5 2.025014 1_556
F5 Rb3 2.880485 1_555
F6 Ni7 2.025014 1_555
F6 Rb1 2.880485 1_555
F7 Ni4 2.025014 1_555
F7 Rb2 2.880485 1_555
F8 Ni5 2.025014 1_455
F8 Rb0 2.880485 1_555
F9 Ni6 2.025014 1_555
F9 Rb3 2.880485 1_555
F10 Ni4 2.025014 1_555
F10 Rb1 2.880485 1_555
F11 Ni7 2.025014 1_655
F11 Rb2 2.880485 1_555
F12 Ni0 2.037483 1_555
F12 Rb6 3.206631 1_555
F12 Rb7 3.224341 1_555
F12 Rb2 3.228867 1_455
F13 Ni1 2.037483 1_555
F13 Rb7 3.206631 1_556
F13 Rb6 3.224341 1_555
F13 Rb3 3.228867 1_555
F14 Ni2 2.037483 1_555
F14 Rb4 3.206631 1_554
F14 Rb5 3.224341 1_565
F14 Rb0 3.228867 1_665
F15 Ni0 2.037483 1_555
F15 Rb5 3.206631 1_555
F15 Rb6 3.224341 1_555
F15 Rb1 3.228867 1_545
F16 Ni3 2.037483 1_555
F16 Rb5 3.206631 1_555
F16 Rb4 3.224341 1_545
F16 Rb1 3.228867 1_545
F17 Ni3 2.037483 1_555
F17 Rb6 3.206631 1_655
F17 Rb5 3.224341 1_555
F17 Rb2 3.228867 1_555
F18 Ni1 2.037483 1_555
F18 Rb4 3.206631 1_455
F18 Rb7 3.224341 1_556
F18 Rb0 3.228867 1_566
F19 Ni2 2.037483 1_555
F19 Rb7 3.206631 1_555
F19 Rb4 3.224341 1_554
F19 Rb3 3.228867 1_554
F20 Ni0 2.037483 1_555
F20 Rb7 3.206631 1_555
F20 Rb5 3.224341 1_555
F20 Rb3 3.228867 1_554
F21 Ni3 2.037483 1_555
F21 Rb4 3.206631 1_545
F21 Rb6 3.224341 1_655
F21 Rb0 3.228867 1_656
F22 Ni1 2.037483 1_555
F22 Rb6 3.206631 1_555
F22 Rb4 3.224341 1_455
F22 Rb2 3.228867 1_455
F23 Ni2 2.037483 1_555
F23 Rb5 3.206631 1_565
F23 Rb7 3.224341 1_555
F23 Rb1 3.228867 1_555
F24 Ni7 2.039066 1_555
F24 Rb7 3.028026 1_555
F24 Rb0 3.068387 1_565
F25 Ni6 2.039066 1_555
F25 Rb6 3.028026 1_555
F25 Rb1 3.068387 1_545
F26 Ni5 2.039066 1_555
F26 Rb5 3.028026 1_555
F26 Rb2 3.068387 1_555
F27 Ni6 2.039066 1_555
F27 Rb6 3.028026 1_555
F27 Rb0 3.068387 1_556
F28 Ni4 2.039066 1_555
F28 Rb4 3.028026 1_555
F28 Rb3 3.068387 1_555
F29 Ni5 2.039066 1_555
F29 Rb5 3.028026 1_555
F29 Rb3 3.068387 1_554
F30 Ni7 2.039066 1_555
F30 Rb7 3.028026 1_555
F30 Rb1 3.068387 1_555
F31 Ni4 2.039066 1_555
F31 Rb4 3.028026 1_555
F31 Rb2 3.068387 1_555
F32 Ni5 2.039066 1_555
F32 Rb5 3.028026 1_555
F32 Rb0 3.068387 1_655
F33 Ni6 2.039066 1_555
F33 Rb6 3.028026 1_555
F33 Rb3 3.068387 1_555
F34 Ni4 2.039066 1_555
F34 Rb4 3.028026 1_555
F34 Rb1 3.068387 1_555
F35 Ni7 2.039066 1_555
F35 Rb7 3.028026 1_555
F35 Rb2 3.068387 1_455
F36 Ni0 2.016609 1_555
F36 Rb6 2.925625 1_555
F37 Ni1 2.016609 1_555
F37 Rb7 2.925625 1_556
F38 Ni2 2.016609 1_555
F38 Rb4 2.925625 1_554
F39 Ni0 2.016609 1_555
F39 Rb5 2.925625 1_555
F40 Ni3 2.016609 1_555
F40 Rb5 2.925625 1_555
F41 Ni3 2.016609 1_555
F41 Rb6 2.925625 1_655
F42 Ni1 2.016609 1_555
F42 Rb4 2.925625 1_455
F43 Ni2 2.016609 1_555
F43 Rb7 2.925625 1_555
F44 Ni0 2.016609 1_555
F44 Rb7 2.925625 1_555
F45 Ni3 2.016609 1_555
F45 Rb4 2.925625 1_545
F46 Ni1 2.016609 1_555
F46 Rb6 2.925625 1_555
F47 Ni2 2.016609 1_555
F47 Rb5 2.925625 1_565
