# generated using pymatgen
data_Li4SiO4
_symmetry_space_group_name_H-M   'P 1'
_cell_length_a   6.03674041
_cell_length_b   11.48887603
_cell_length_c   16.58985591
_cell_angle_alpha   80.91153487
_cell_angle_beta   90.00000000
_cell_angle_gamma   90.00000000
_symmetry_Int_Tables_number   1
_chemical_formula_structural   Li4SiO4
_chemical_formula_sum   'Li56 Si14 O56'
_cell_volume   1136.15046092
_cell_formula_units_Z   14
loop_
 _symmetry_equiv_pos_site_id
 _symmetry_equiv_pos_as_xyz
  1  'x, y, z'
loop_
 _atom_site_type_symbol
 _atom_site_label
 _atom_site_symmetry_multiplicity
 _atom_site_fract_x
 _atom_site_fract_y
 _atom_site_fract_z
 _atom_site_occupancy
  Li  Li0  1  0.52497991  0.81215578  0.00900744  1
  Li  Li1  1  0.02497991  0.18784422  0.99099256  1
  Li  Li2  1  0.46548495  0.19432083  0.98301224  1
  Li  Li3  1  0.96548495  0.80567917  0.01698776  1
  Li  Li4  1  0.75982671  0.27238733  0.14008058  1
  Li  Li5  1  0.25982671  0.72761267  0.85991942  1
  Li  Li6  1  0.00304510  0.61740196  0.40827170  1
  Li  Li7  1  0.50304510  0.38259804  0.59172830  1
  Li  Li8  1  0.99515007  0.38193855  0.59201235  1
  Li  Li9  1  0.49515007  0.61806145  0.40798765  1
  Li  Li10  1  0.25944501  0.86432192  0.14323198  1
  Li  Li11  1  0.75944501  0.13567808  0.85676802  1
  Li  Li12  1  0.50214714  0.81217339  0.45407089  1
  Li  Li13  1  0.00214714  0.18782661  0.54592911  1
  Li  Li14  1  0.49655776  0.18877109  0.54492093  1
  Li  Li15  1  0.99655776  0.81122891  0.45507907  1
  Li  Li16  1  0.25358756  0.99760958  0.01305707  1
  Li  Li17  1  0.75358756  0.00239042  0.98694293  1
  Li  Li18  1  0.49252898  0.47697837  0.11667872  1
  Li  Li19  1  0.99252898  0.52302163  0.88332128  1
  Li  Li20  1  0.50539981  0.52267288  0.88295851  1
  Li  Li21  1  0.00539981  0.47732712  0.11704149  1
  Li  Li22  1  0.04156827  0.76210479  0.59766661  1
  Li  Li23  1  0.54156827  0.23789521  0.40233339  1
  Li  Li24  1  0.95967365  0.23726493  0.40257221  1
  Li  Li25  1  0.45967365  0.76273507  0.59742779  1
  Li  Li26  1  0.74830148  0.58918159  0.01758316  1
  Li  Li27  1  0.24830148  0.41081841  0.98241684  1
  Li  Li28  1  0.50831991  0.66135340  0.17216684  1
  Li  Li29  1  0.00831991  0.33864660  0.82783316  1
  Li  Li30  1  0.49040148  0.33800340  0.82671052  1
  Li  Li31  1  0.99040148  0.66199660  0.17328948  1
  Li  Li32  1  0.25007693  0.54797528  0.27584763  1
  Li  Li33  1  0.75007693  0.45202472  0.72415237  1
  Li  Li34  1  0.74962842  0.97470834  0.57075636  1
  Li  Li35  1  0.24962842  0.02529166  0.42924364  1
  Li  Li36  1  0.74865545  0.72900571  0.30447683  1
  Li  Li37  1  0.24865545  0.27099429  0.69552317  1
  Li  Li38  1  0.24999333  0.58214378  0.55005934  1
  Li  Li39  1  0.74999333  0.41785622  0.44994066  1
  Li  Li40  1  0.52199383  0.95399687  0.28991996  1
  Li  Li41  1  0.02199383  0.04600313  0.71008004  1
  Li  Li42  1  0.46550097  0.05355452  0.70298688  1
  Li  Li43  1  0.96550097  0.94644548  0.29701312  1
  Li  Li44  1  0.03366582  0.33492516  0.26668847  1
  Li  Li45  1  0.53366582  0.66507484  0.73331153  1
  Li  Li46  1  0.96734224  0.66513329  0.73363939  1
  Li  Li47  1  0.46734224  0.33486671  0.26636061  1
  Li  Li48  1  0.74999658  0.13986250  0.26567007  1
  Li  Li49  1  0.24999658  0.86013750  0.73432993  1
  Li  Li50  1  0.24958425  0.13988295  0.29514890  1
  Li  Li51  1  0.74958425  0.86011705  0.70485110  1
  Li  Li52  1  0.04507508  0.91104053  0.87575026  1
  Li  Li53  1  0.54507508  0.08895947  0.12424974  1
  Li  Li54  1  0.54647948  0.94921717  0.84388482  1
  Li  Li55  1  0.04647948  0.05078283  0.15611518  1
  Si  Si0  1  0.24713391  0.79855453  0.29089958  1
  Si  Si1  1  0.74713391  0.20144547  0.70910042  1
  Si  Si2  1  0.75317522  0.89463980  0.14394720  1
  Si  Si3  1  0.25317522  0.10536020  0.85605280  1
  Si  Si4  1  0.74971320  0.47803404  0.28654254  1
  Si  Si5  1  0.24971320  0.52196596  0.71345746  1
  Si  Si6  1  0.24855132  0.96025668  0.57815544  1
  Si  Si7  1  0.74855132  0.03974332  0.42184456  1
  Si  Si8  1  0.25486912  0.24611099  0.13835537  1
  Si  Si9  1  0.75486912  0.75388901  0.86164463  1
  Si  Si10  1  0.24680009  0.65839773  0.00614987  1
  Si  Si11  1  0.74680009  0.34160227  0.99385013  1
  Si  Si12  1  0.24986070  0.38425741  0.42819811  1
  Si  Si13  1  0.74986070  0.61574259  0.57180189  1
  O  O0  1  0.02921695  0.93023581  0.63785463  1
  O  O1  1  0.52921695  0.06976419  0.36214537  1
  O  O2  1  0.96913350  0.06941030  0.36286879  1
  O  O3  1  0.46913350  0.93058970  0.63713121  1
  O  O4  1  0.24910127  0.09232150  0.52848558  1
  O  O5  1  0.74910127  0.90767850  0.47151442  1
  O  O6  1  0.03843088  0.21236367  0.19888238  1
  O  O7  1  0.53843088  0.78763633  0.80111762  1
  O  O8  1  0.97802410  0.78385961  0.80394823  1
  O  O9  1  0.47802410  0.21614039  0.19605177  1
  O  O10  1  0.02308331  0.64046696  0.06147389  1
  O  O11  1  0.52308331  0.35953304  0.93852611  1
  O  O12  1  0.97356558  0.35610935  0.94009323  1
  O  O13  1  0.47356558  0.64389065  0.05990677  1
  O  O14  1  0.53778620  0.92774079  0.08240622  1
  O  O15  1  0.03778620  0.07225921  0.91759378  1
  O  O16  1  0.47659695  0.07584891  0.91402236  1
  O  O17  1  0.97659695  0.92415109  0.08597764  1
  O  O18  1  0.24871080  0.38235174  0.09800064  1
  O  O19  1  0.74871080  0.61764826  0.90199936  1
  O  O20  1  0.74898233  0.55708875  0.35963215  1
  O  O21  1  0.24898233  0.44291125  0.64036785  1
  O  O22  1  0.24914688  0.57858580  0.93326902  1
  O  O23  1  0.74914688  0.42141420  0.06673098  1
  O  O24  1  0.74828708  0.76040782  0.18835844  1
  O  O25  1  0.24828708  0.23959218  0.81164156  1
  O  O26  1  0.52730105  0.49817060  0.22980107  1
  O  O27  1  0.02730105  0.50182940  0.77019893  1
  O  O28  1  0.47261430  0.50193567  0.76989225  1
  O  O29  1  0.97261430  0.49806433  0.23010775  1
  O  O30  1  0.25546307  0.15254074  0.07219085  1
  O  O31  1  0.75546307  0.84745926  0.92780915  1
  O  O32  1  0.02360964  0.78243705  0.34649922  1
  O  O33  1  0.52360964  0.21756295  0.65350078  1
  O  O34  1  0.97354750  0.21368215  0.65514538  1
  O  O35  1  0.47354750  0.78631785  0.34485462  1
  O  O36  1  0.24938012  0.52398543  0.39355625  1
  O  O37  1  0.74938012  0.47601457  0.60644375  1
  O  O38  1  0.25023670  0.30243253  0.35236818  1
  O  O39  1  0.75023670  0.69756747  0.64763182  1
  O  O40  1  0.24996050  0.71576239  0.22017261  1
  O  O41  1  0.74996050  0.28423761  0.77982739  1
  O  O42  1  0.02717601  0.34482097  0.48159469  1
  O  O43  1  0.52717601  0.65517903  0.51840531  1
  O  O44  1  0.97302943  0.65462123  0.51870525  1
  O  O45  1  0.47302943  0.34537877  0.48129475  1
  O  O46  1  0.75027346  0.33419356  0.32550825  1
  O  O47  1  0.25027346  0.66580644  0.67449175  1
  O  O48  1  0.23971284  0.93765693  0.24182360  1
  O  O49  1  0.73971284  0.06234307  0.75817640  1
  O  O50  1  0.24855697  0.86729715  0.51318199  1
  O  O51  1  0.74855697  0.13270285  0.48681801  1
  O  O52  1  0.24054982  0.79908169  0.96024439  1
  O  O53  1  0.74054982  0.20091831  0.03975561  1
  O  O54  1  0.75360304  0.99067102  0.20846802  1
  O  O55  1  0.25360304  0.00932898  0.79153198  1
loop_
_geom_bond_atom_site_label_1
_geom_bond_atom_site_label_2
_geom_bond_distance
_geom_bond_site_symmetry_2
Li0 O52 1.914048 1_554
Li0 O31 1.934527 1_554
Li0 O14 1.939840 1_555
Li0 O13 2.007694 1_555
Li1 O53 1.914048 1_456
Li1 O30 1.934527 1_556
Li1 O15 1.939840 1_555
Li1 O12 2.007694 1_455
Li2 O16 1.912909 1_555
Li2 O53 1.916168 1_556
Li2 O30 1.949948 1_556
Li2 O11 1.955969 1_555
Li3 O17 1.912909 1_555
Li3 O52 1.916168 1_654
Li3 O31 1.949948 1_554
Li3 O10 1.955969 1_655
Li4 O23 1.938599 1_555
Li4 O53 1.972216 1_555
Li4 O9 1.996050 1_555
Li4 O6 2.010799 1_655
Li5 O22 1.938599 1_555
Li5 O52 1.972216 1_555
Li5 O8 1.996050 1_455
Li5 O7 2.010799 1_555
Li6 O36 1.872322 1_555
Li6 O20 1.913163 1_455
Li6 O44 1.954400 1_455
Li6 O32 2.011675 1_555
Li7 O37 1.872322 1_555
Li7 O21 1.913163 1_555
Li7 O45 1.954400 1_555
Li7 O33 2.011675 1_555
Li8 O37 1.873092 1_555
Li8 O21 1.913057 1_655
Li8 O42 1.954878 1_655
Li8 O34 2.052109 1_555
Li9 O36 1.873092 1_555
Li9 O20 1.913057 1_555
Li9 O43 1.954878 1_555
Li9 O35 2.052109 1_555
Li10 O48 1.958232 1_555
Li10 O40 1.964029 1_555
Li10 O17 2.020867 1_455
Li10 O14 2.034744 1_555
Li11 O49 1.958232 1_555
Li11 O41 1.964029 1_555
Li11 O16 2.020867 1_555
Li11 O15 2.034744 1_655
Li12 O35 1.889708 1_555
Li12 O5 1.900128 1_555
Li12 O43 1.951174 1_555
Li12 O50 1.975468 1_555
Li13 O34 1.889708 1_455
Li13 O4 1.900128 1_555
Li13 O42 1.951174 1_555
Li13 O51 1.975468 1_455
Li14 O33 1.889206 1_555
Li14 O4 1.905047 1_555
Li14 O45 1.942075 1_555
Li14 O51 1.963277 1_555
Li15 O32 1.889206 1_655
Li15 O5 1.905047 1_555
Li15 O44 1.942075 1_555
Li15 O50 1.963277 1_655
Li16 O15 2.124087 1_564
Li16 O14 2.149331 1_555
Li16 O17 2.156196 1_455
Li16 O30 2.163916 1_565
Li16 O16 2.202992 1_564
Li17 O14 2.124087 1_546
Li17 O15 2.149331 1_655
Li17 O16 2.156196 1_555
Li17 O31 2.163916 1_545
Li17 O17 2.202992 1_546
Li18 O18 1.884340 1_555
Li18 O23 1.913392 1_555
Li18 O26 1.941555 1_555
Li18 O13 2.001726 1_555
Li19 O19 1.884340 1_555
Li19 O22 1.913392 1_655
Li19 O27 1.941555 1_655
Li19 O12 2.001726 1_555
Li20 O19 1.885920 1_555
Li20 O22 1.916158 1_555
Li20 O28 1.937928 1_555
Li20 O11 1.956614 1_555
Li21 O18 1.885920 1_555
Li21 O23 1.916158 1_455
Li21 O29 1.937928 1_455
Li21 O10 1.956614 1_555
Li22 O44 1.980684 1_455
Li22 O47 1.997575 1_555
Li22 O39 2.033642 1_455
Li22 O50 2.109796 1_555
Li22 O0 2.141995 1_555
Li23 O45 1.980684 1_555
Li23 O46 1.997575 1_555
Li23 O38 2.033642 1_555
Li23 O51 2.109796 1_555
Li23 O1 2.141995 1_555
Li24 O42 1.980764 1_655
Li24 O46 2.005686 1_555
Li24 O38 2.033211 1_655
Li24 O51 2.119034 1_555
Li24 O2 2.134798 1_555
Li25 O43 1.980764 1_555
Li25 O47 2.005686 1_555
Li25 O39 2.033211 1_555
Li25 O50 2.119034 1_555
Li25 O3 2.134798 1_555
Li26 O19 1.893601 1_554
Li26 O10 1.940224 1_655
Li26 O13 1.943747 1_555
Li26 O23 1.970645 1_555
Li27 O18 1.893601 1_556
Li27 O11 1.940224 1_555
Li27 O12 1.943747 1_455
Li27 O22 1.970645 1_555
Li28 O24 1.887412 1_555
Li28 O40 1.901261 1_555
Li28 O13 1.915924 1_555
Li28 O26 1.968721 1_555
Li29 O25 1.887412 1_555
Li29 O41 1.901261 1_455
Li29 O12 1.915924 1_455
Li29 O27 1.968721 1_555
Li30 O25 1.888477 1_555
Li30 O41 1.895637 1_555
Li30 O11 1.919923 1_555
Li30 O28 1.971388 1_555
Li31 O24 1.888477 1_555
Li31 O40 1.895637 1_655
Li31 O10 1.919923 1_655
Li31 O29 1.971388 1_555
Li32 O36 1.928537 1_555
Li32 O29 1.961531 1_455
Li32 O26 1.962080 1_555
Li32 O40 2.001648 1_555
Li33 O37 1.928537 1_555
Li33 O28 1.961531 1_555
Li33 O27 1.962080 1_655
Li33 O41 2.001648 1_555
Li34 O5 1.924650 1_555
Li34 O3 2.039682 1_555
Li34 O0 2.041853 1_655
Li34 O51 2.106063 1_565
Li35 O4 1.924650 1_555
Li35 O2 2.039682 1_455
Li35 O1 2.041853 1_555
Li35 O50 2.106063 1_545
Li36 O24 1.903043 1_555
Li36 O32 1.937284 1_655
Li36 O35 1.944151 1_555
Li36 O20 2.041435 1_555
Li37 O25 1.903043 1_555
Li37 O33 1.937284 1_555
Li37 O34 1.944151 1_455
Li37 O21 2.041435 1_555
Li38 O44 1.903298 1_455
Li38 O43 1.908011 1_555
Li38 O21 2.011551 1_555
Li38 O47 2.410837 1_555
Li39 O45 1.903298 1_555
Li39 O42 1.908011 1_655
Li39 O20 2.011551 1_555
Li39 O46 2.410837 1_555
Li40 O48 1.903428 1_555
Li40 O1 1.926154 1_565
Li40 O54 1.943830 1_555
Li40 O35 2.018078 1_555
Li41 O49 1.903428 1_455
Li41 O0 1.926154 1_545
Li41 O55 1.943830 1_555
Li41 O34 2.018078 1_455
Li42 O49 1.902070 1_555
Li42 O3 1.917686 1_545
Li42 O55 1.953579 1_555
Li42 O33 1.964388 1_555
Li43 O48 1.902070 1_655
Li43 O2 1.917686 1_565
Li43 O54 1.953579 1_555
Li43 O32 1.964388 1_655
Li44 O29 1.912519 1_455
Li44 O38 1.923900 1_555
Li44 O6 1.936322 1_555
Li44 O46 1.968860 1_455
Li45 O28 1.912519 1_555
Li45 O39 1.923900 1_555
Li45 O7 1.936322 1_555
Li45 O47 1.968860 1_555
Li46 O27 1.912962 1_655
Li46 O39 1.929894 1_555
Li46 O8 1.930776 1_555
Li46 O47 1.969193 1_655
Li47 O26 1.912962 1_555
Li47 O38 1.929894 1_555
Li47 O9 1.930776 1_555
Li47 O46 1.969193 1_555
Li48 O54 2.086345 1_545
Li48 O9 2.116070 1_555
Li48 O1 2.139940 1_555
Li48 O2 2.143131 1_555
Li48 O6 2.159097 1_655
Li49 O55 2.086345 1_565
Li49 O8 2.116070 1_455
Li49 O0 2.139940 1_555
Li49 O3 2.143131 1_555
Li49 O7 2.159097 1_555
Li50 O6 2.109183 1_555
Li50 O1 2.109746 1_555
Li50 O2 2.120523 1_455
Li50 O9 2.217438 1_555
Li50 O38 2.224580 1_555
Li51 O7 2.109183 1_555
Li51 O0 2.109746 1_655
Li51 O3 2.120523 1_555
Li51 O8 2.217438 1_555
Li51 O39 2.224580 1_555
Li52 O31 2.033907 1_455
Li52 O8 2.065824 1_455
Li52 O55 2.076884 1_565
Li52 O15 2.078640 1_565
Li52 O52 2.107669 1_555
Li53 O30 2.033907 1_555
Li53 O9 2.065824 1_555
Li53 O54 2.076884 1_545
Li53 O14 2.078640 1_545
Li53 O53 2.107669 1_555
Li54 O55 2.041491 1_565
Li54 O16 2.045305 1_565
Li54 O7 2.089978 1_555
Li54 O31 2.093465 1_555
Li54 O49 2.118458 1_565
Li55 O54 2.041491 1_445
Li55 O17 2.045305 1_445
Li55 O6 2.089978 1_555
Li55 O30 2.093465 1_555
Li55 O48 2.118458 1_545
O0 Si6 1.656830 1_555
O1 Si7 1.656830 1_555
O2 Si7 1.655668 1_555
O3 Si6 1.655668 1_555
O4 Si6 1.608154 1_545
O5 Si7 1.608154 1_565
O6 Si8 1.656132 1_555
O7 Si9 1.656132 1_555
O8 Si9 1.656919 1_555
O9 Si8 1.656919 1_555
O10 Si10 1.627575 1_555
O11 Si11 1.627575 1_555
O12 Si11 1.627918 1_555
O13 Si10 1.627918 1_555
O14 Si2 1.659807 1_555
O15 Si3 1.659807 1_555
O16 Si3 1.660097 1_555
O17 Si2 1.660097 1_555
O18 Si8 1.602669 1_555
O19 Si9 1.602669 1_555
O20 Si4 1.625769 1_555
O21 Si5 1.625769 1_555
O22 Si10 1.628842 1_556
O23 Si11 1.628842 1_554
O24 Si2 1.600954 1_555
O25 Si3 1.600954 1_555
O26 Si4 1.635091 1_555
O27 Si5 1.635091 1_555
O28 Si5 1.634648 1_555
O29 Si4 1.634648 1_555
O30 Si8 1.653274 1_555
O31 Si9 1.653274 1_555
O32 Si0 1.628465 1_555
O33 Si1 1.628465 1_555
O34 Si1 1.627688 1_555
O35 Si0 1.627688 1_555
O36 Si12 1.617367 1_555
O37 Si13 1.617367 1_555
O38 Si12 1.685213 1_555
O39 Si13 1.685213 1_555
O40 Si0 1.623081 1_555
O41 Si1 1.623081 1_555
O42 Si12 1.634110 1_555
O43 Si13 1.634110 1_555
O44 Si13 1.632825 1_555
O45 Si12 1.632825 1_555
O46 Si4 1.676715 1_555
O47 Si5 1.676715 1_555
O48 Si0 1.675660 1_555
O49 Si1 1.675660 1_555
O50 Si6 1.632844 1_555
O51 Si7 1.632844 1_555
O52 Si10 1.674802 1_556
O53 Si11 1.674802 1_554
O54 Si2 1.654110 1_555
O55 Si3 1.654110 1_555
