# generated using pymatgen
data_LuFe4B
_symmetry_space_group_name_H-M   'P 1'
_cell_length_a   5.00117500
_cell_length_b   5.00117560
_cell_length_c   7.00789100
_cell_angle_alpha   90.00000000
_cell_angle_beta   90.00000000
_cell_angle_gamma   120.00000266
_symmetry_Int_Tables_number   1
_chemical_formula_structural   LuFe4B
_chemical_formula_sum   'Lu2 Fe8 B2'
_cell_volume   151.79662415
_cell_formula_units_Z   2
loop_
 _symmetry_equiv_pos_site_id
 _symmetry_equiv_pos_as_xyz
  1  'x, y, z'
loop_
 _atom_site_type_symbol
 _atom_site_label
 _atom_site_symmetry_multiplicity
 _atom_site_fract_x
 _atom_site_fract_y
 _atom_site_fract_z
 _atom_site_occupancy
  Lu  Lu0  1  0.00000000  0.00000000  0.00000000  1
  Lu  Lu1  1  0.00000000  0.00000000  0.50000000  1
  Fe  Fe0  1  0.66666700  0.33333300  0.00000000  1
  Fe  Fe1  1  0.33333300  0.66666700  0.00000000  1
  Fe  Fe2  1  0.50000000  0.50000000  0.71423200  1
  Fe  Fe3  1  0.50000000  0.00000000  0.71423200  1
  Fe  Fe4  1  0.00000000  0.50000000  0.71423200  1
  Fe  Fe5  1  0.50000000  0.50000000  0.28576800  1
  Fe  Fe6  1  0.50000000  0.00000000  0.28576800  1
  Fe  Fe7  1  0.00000000  0.50000000  0.28576800  1
  B  B0  1  0.66666700  0.33333300  0.50000000  1
  B  B1  1  0.33333300  0.66666700  0.50000000  1
loop_
_geom_bond_atom_site_label_1
_geom_bond_atom_site_label_2
_geom_bond_distance
_geom_bond_site_symmetry_2
Fe0 Fe7 2.468773 1_655
Fe0 Fe4 2.468773 1_654
Fe0 Fe6 2.468773 1_555
Fe0 Fe3 2.468773 1_554
Fe0 Fe5 2.468775 1_555
Fe0 Fe2 2.468775 1_554
Fe0 Lu0 2.887427 1_655
Fe0 Lu0 2.887431 1_555
Fe0 Lu0 2.887431 1_665
Fe1 Fe7 2.468773 1_555
Fe1 Fe4 2.468773 1_554
Fe1 Fe6 2.468773 1_565
Fe1 Fe3 2.468773 1_564
Fe1 Fe5 2.468775 1_555
Fe1 Fe2 2.468775 1_554
Fe1 Lu0 2.887427 1_565
Fe1 Lu0 2.887431 1_665
Fe1 Lu0 2.887431 1_555
Fe2 Lu1 2.916656 1_555
Fe2 Lu1 2.916656 1_665
Fe3 Lu1 2.916656 1_555
Fe3 Lu1 2.916656 1_655
Fe4 Lu1 2.916656 1_555
Fe4 Lu1 2.916656 1_565
Fe5 Lu1 2.916656 1_665
Fe5 Lu1 2.916656 1_555
Fe6 Lu1 2.916656 1_655
Fe6 Lu1 2.916656 1_555
Fe7 Lu1 2.916656 1_555
Fe7 Lu1 2.916656 1_565
B0 Fe4 2.082847 1_655
B0 Fe7 2.082847 1_655
B0 Fe3 2.082848 1_555
B0 Fe6 2.082848 1_555
B0 Fe2 2.082851 1_555
B0 Fe5 2.082851 1_555
B0 Lu1 2.887427 1_655
B0 Lu1 2.887431 1_555
B0 Lu1 2.887431 1_665
B1 Fe4 2.082847 1_555
B1 Fe7 2.082847 1_555
B1 Fe3 2.082848 1_565
B1 Fe6 2.082848 1_565
B1 Fe2 2.082851 1_555
B1 Fe5 2.082851 1_555
B1 Lu1 2.887427 1_565
B1 Lu1 2.887431 1_665
B1 Lu1 2.887431 1_555
