# generated using pymatgen
data_KBa2SmBi2O9
_symmetry_space_group_name_H-M   'P 1'
_cell_length_a   6.47973138
_cell_length_b   6.47973138
_cell_length_c   8.59632924
_cell_angle_alpha   90.00000000
_cell_angle_beta   90.00000000
_cell_angle_gamma   120.00000000
_symmetry_Int_Tables_number   1
_chemical_formula_structural   KBa2SmBi2O9
_chemical_formula_sum   'K1 Ba2 Sm1 Bi2 O9'
_cell_volume   312.57747399
_cell_formula_units_Z   1
loop_
 _symmetry_equiv_pos_site_id
 _symmetry_equiv_pos_as_xyz
  1  'x, y, z'
loop_
 _atom_site_type_symbol
 _atom_site_label
 _atom_site_symmetry_multiplicity
 _atom_site_fract_x
 _atom_site_fract_y
 _atom_site_fract_z
 _atom_site_occupancy
  K  K0  1  0.00000000  0.00000000  0.00000000  1
  Ba  Ba0  1  0.66666700  0.33333300  0.22399900  1
  Ba  Ba1  1  0.33333300  0.66666700  0.77600100  1
  Sm  Sm0  1  0.00000000  0.00000000  0.50000000  1
  Bi  Bi0  1  0.66666700  0.33333300  0.63361300  1
  Bi  Bi1  1  0.33333300  0.66666700  0.36638700  1
  O  O0  1  0.75383100  0.87691500  0.73177700  1
  O  O1  1  0.24616900  0.12308500  0.26822300  1
  O  O2  1  0.00000000  0.50000000  0.50000000  1
  O  O3  1  0.50000000  0.00000000  0.50000000  1
  O  O4  1  0.12308500  0.24616900  0.73177700  1
  O  O5  1  0.87691500  0.75383100  0.26822300  1
  O  O6  1  0.50000000  0.50000000  0.50000000  1
  O  O7  1  0.12308500  0.87691500  0.73177700  1
  O  O8  1  0.87691500  0.12308500  0.26822300  1
loop_
_geom_bond_atom_site_label_1
_geom_bond_atom_site_label_2
_geom_bond_distance
_geom_bond_site_symmetry_2
K0 O0 2.687877 1_444
K0 O5 2.687877 1_445
K0 O4 2.687877 1_554
K0 O1 2.687877 1_555
K0 O8 2.687880 1_455
K0 O7 2.687880 1_544
Ba0 O8 2.390088 1_555
Ba0 O5 2.390099 1_555
Ba0 O1 2.390099 1_555
Ba1 O7 2.390088 1_555
Ba1 O0 2.390099 1_555
Ba1 O4 2.390099 1_555
Bi0 O3 2.195027 1_555
Bi0 O2 2.195027 1_655
Bi0 O6 2.195031 1_555
Bi1 O3 2.195027 1_565
Bi1 O2 2.195027 1_555
Bi1 O6 2.195031 1_555
O0 Sm0 2.424472 1_665
O1 Sm0 2.424472 1_555
O4 Sm0 2.424472 1_555
O5 Sm0 2.424472 1_665
O7 Sm0 2.424475 1_565
O8 Sm0 2.424475 1_655
