# generated using pymatgen
data_CeP5N2O15
_symmetry_space_group_name_H-M   'P 1'
_cell_length_a   7.22362635
_cell_length_b   7.22362635
_cell_length_c   13.16131577
_cell_angle_alpha   91.82851128
_cell_angle_beta   91.82851128
_cell_angle_gamma   107.84201294
_symmetry_Int_Tables_number   1
_chemical_formula_structural   CeP5N2O15
_chemical_formula_sum   'Ce2 P10 N4 O30'
_cell_volume   652.77727614
_cell_formula_units_Z   2
loop_
 _symmetry_equiv_pos_site_id
 _symmetry_equiv_pos_as_xyz
  1  'x, y, z'
loop_
 _atom_site_type_symbol
 _atom_site_label
 _atom_site_symmetry_multiplicity
 _atom_site_fract_x
 _atom_site_fract_y
 _atom_site_fract_z
 _atom_site_occupancy
  Ce  Ce0  1  0.08417103  0.89176131  0.25131432  1
  Ce  Ce1  1  0.89176131  0.08417103  0.75131432  1
  P  P0  1  -0.00016786  0.60269433  0.01196478  1
  P  P1  1  0.60269433  -0.00016786  0.51196478  1
  P  P2  1  0.20279165  0.44799903  0.33646720  1
  P  P3  1  0.44799903  0.20279165  0.83646720  1
  P  P4  1  0.97922898  0.18710100  0.03209312  1
  P  P5  1  0.18710100  0.97922898  0.53209312  1
  P  P6  1  0.37981807  0.20185529  0.06034638  1
  P  P7  1  0.20185529  0.37981807  0.56034638  1
  P  P8  1  0.55712240  0.77466788  0.32518199  1
  P  P9  1  0.77466788  0.55712240  0.82518199  1
  N  N0  1  0.62982763  0.33249649  0.20827760  1
  N  N1  1  0.33249649  0.62982763  0.70827760  1
  N  N2  1  0.52644141  0.74576066  0.05642911  1
  N  N3  1  0.74576066  0.52644141  0.55642911  1
  O  O0  1  0.21807206  0.29345868  0.02895207  1
  O  O1  1  0.29345868  0.21807206  0.52895207  1
  O  O2  1  0.08779220  0.90811220  0.42938336  1
  O  O3  1  0.90811220  0.08779220  0.92938336  1
  O  O4  1  0.43318822  0.54437324  0.32429301  1
  O  O5  1  0.54437324  0.43318822  0.82429301  1
  O  O6  1  0.42074839  0.88382536  0.29169015  1
  O  O7  1  0.88382536  0.42074839  0.79169015  1
  O  O8  1  0.74322809  0.79196715  0.27266905  1
  O  O9  1  0.79196715  0.74322809  0.77266905  1
  O  O10  1  0.54042524  0.37825655  0.12632946  1
  O  O11  1  0.37825655  0.54042524  0.62632946  1
  O  O12  1  0.91520616  0.37613370  0.04342666  1
  O  O13  1  0.37613370  0.91520616  0.54342666  1
  O  O14  1  0.18165660  0.48428648  0.46052269  1
  O  O15  1  0.48428648  0.18165660  0.96052269  1
  O  O16  1  0.93745024  0.07238780  0.12497617  1
  O  O17  1  0.07238780  0.93745024  0.62497617  1
  O  O18  1  0.31704520  0.02768016  0.12145512  1
  O  O19  1  0.02768016  0.31704520  0.62145512  1
  O  O20  1  0.65202258  0.17942180  0.45548175  1
  O  O21  1  0.17942180  0.65202258  0.95548175  1
  O  O22  1  0.61559428  0.81384729  0.44482144  1
  O  O23  1  0.81384729  0.61559428  0.94482144  1
  O  O24  1  0.08788600  0.56489469  0.28846459  1
  O  O25  1  0.56489469  0.08788600  0.78846459  1
  O  O26  1  0.15896987  0.23592673  0.31021623  1
  O  O27  1  0.23592673  0.15896987  0.81021623  1
  O  O28  1  0.98982359  0.70955015  0.11184375  1
  O  O29  1  0.70955015  0.98982359  0.61184375  1
loop_
_geom_bond_atom_site_label_1
_geom_bond_atom_site_label_2
_geom_bond_distance
_geom_bond_site_symmetry_2
Ce0 O28 2.186938 1_455
Ce0 O2 2.341737 1_555
Ce0 O8 2.373482 1_455
Ce0 O24 2.434449 1_555
Ce0 O18 2.448126 1_565
Ce0 O26 2.469989 1_565
Ce0 O6 2.490349 1_555
Ce0 O16 2.542433 1_465
Ce1 O29 2.186938 1_545
Ce1 O3 2.341737 1_555
Ce1 O9 2.373482 1_545
Ce1 O25 2.434449 1_555
Ce1 O19 2.448126 1_655
Ce1 O27 2.469989 1_655
Ce1 O7 2.490349 1_555
Ce1 O17 2.542433 1_645
N0 O10 1.341160 1_555
N1 O11 1.341160 1_555
O0 P6 1.560171 1_555
O0 P4 1.662224 1_455
O1 P7 1.560171 1_555
O1 P5 1.662224 1_545
O2 P5 1.507929 1_555
O3 P4 1.507929 1_556
O4 P2 1.610701 1_555
O4 P8 1.629269 1_555
O5 P3 1.610701 1_555
O5 P9 1.629269 1_555
O6 P8 1.502323 1_555
O7 P9 1.502323 1_555
O8 P8 1.504144 1_555
O9 P9 1.504144 1_555
O10 P6 1.638001 1_555
O11 P7 1.638001 1_555
O12 P4 1.574521 1_555
O12 P0 1.633988 1_655
O13 P5 1.574521 1_555
O13 P1 1.633988 1_565
O14 P7 1.560571 1_555
O14 P2 1.664619 1_555
O15 P6 1.560571 1_556
O15 P3 1.664619 1_555
O16 P4 1.485628 1_555
O17 P5 1.485628 1_555
O18 P6 1.474354 1_555
O19 P7 1.474354 1_555
O20 P1 1.468924 1_555
O21 P0 1.468924 1_556
O22 P8 1.610519 1_555
O22 P1 1.612687 1_565
O23 P9 1.610519 1_555
O23 P0 1.612687 1_656
O24 P2 1.493723 1_555
O25 P3 1.493723 1_555
O26 P2 1.492805 1_555
O27 P3 1.492805 1_555
O28 P0 1.518077 1_655
O29 P1 1.518077 1_565
