# generated using pymatgen
data_Sr2MnRuO6
_symmetry_space_group_name_H-M   'P 1'
_cell_length_a   5.71561590
_cell_length_b   5.71561590
_cell_length_c   5.71561590
_cell_angle_alpha   122.62057156
_cell_angle_beta   122.62057156
_cell_angle_gamma   85.51796838
_symmetry_Int_Tables_number   1
_chemical_formula_structural   Sr2MnRuO6
_chemical_formula_sum   'Sr2 Mn1 Ru1 O6'
_cell_volume   126.37900178
_cell_formula_units_Z   1
loop_
 _symmetry_equiv_pos_site_id
 _symmetry_equiv_pos_as_xyz
  1  'x, y, z'
loop_
 _atom_site_type_symbol
 _atom_site_label
 _atom_site_symmetry_multiplicity
 _atom_site_fract_x
 _atom_site_fract_y
 _atom_site_fract_z
 _atom_site_occupancy
  Sr  Sr0  1  0.75000000  0.25000000  0.50000000  1
  Sr  Sr1  1  0.25000000  0.75000000  0.50000000  1
  Mn  Mn0  1  0.00000000  0.00000000  0.00000000  1
  Ru  Ru0  1  0.50000000  0.50000000  0.00000000  1
  O  O0  1  0.79881300  0.70570300  0.50451700  1
  O  O1  1  0.20118700  0.29429700  0.49548300  1
  O  O2  1  0.29429700  0.79881300  0.09311000  1
  O  O3  1  0.70570300  0.20118700  0.90689000  1
  O  O4  1  0.73403700  0.73403700  0.00000000  1
  O  O5  1  0.26596300  0.26596300  0.00000000  1
loop_
_geom_bond_atom_site_label_1
_geom_bond_atom_site_label_2
_geom_bond_distance
_geom_bond_site_symmetry_2
Mn0 O1 1.956337 1_555
Mn0 O0 1.956337 1_444
Mn0 O2 1.956341 1_545
Mn0 O3 1.956341 1_454
Mn0 O4 2.232226 1_445
Mn0 O5 2.232226 1_555
O0 Ru0 1.990800 1_555
O0 Sr0 2.626000 1_555
O0 Sr1 2.626007 1_655
O1 Ru0 1.990800 1_556
O1 Sr1 2.626000 1_555
O1 Sr0 2.626007 1_455
O2 Ru0 1.990796 1_555
O2 Sr1 2.626004 1_555
O2 Sr0 2.626004 1_565
O3 Ru0 1.990796 1_556
O3 Sr1 2.626004 1_545
O3 Sr0 2.626004 1_555
O4 Ru0 1.964271 1_555
O4 Sr0 2.747142 1_554
O4 Sr1 2.747142 1_554
O4 Sr0 2.747142 1_565
O4 Sr1 2.747142 1_655
O5 Ru0 1.964271 1_555
O5 Sr0 2.747142 1_555
O5 Sr0 2.747142 1_454
O5 Sr1 2.747142 1_555
O5 Sr1 2.747142 1_544
