# generated using pymatgen
data_ZrCrGe2
_symmetry_space_group_name_H-M   'P 1'
_cell_length_a   8.20717000
_cell_length_b   9.36530700
_cell_length_c   10.11577700
_cell_angle_alpha   90.00000000
_cell_angle_beta   90.00000000
_cell_angle_gamma   90.00000000
_symmetry_Int_Tables_number   1
_chemical_formula_structural   ZrCrGe2
_chemical_formula_sum   'Zr12 Cr12 Ge24'
_cell_volume   777.52559547
_cell_formula_units_Z   12
loop_
 _symmetry_equiv_pos_site_id
 _symmetry_equiv_pos_as_xyz
  1  'x, y, z'
loop_
 _atom_site_type_symbol
 _atom_site_label
 _atom_site_symmetry_multiplicity
 _atom_site_fract_x
 _atom_site_fract_y
 _atom_site_fract_z
 _atom_site_occupancy
  Zr  Zr0  1  0.74518300  0.82875900  0.04711800  1
  Zr  Zr1  1  0.74518300  0.17124100  0.95288200  1
  Zr  Zr2  1  0.25481700  0.67124100  0.54711800  1
  Zr  Zr3  1  0.25481700  0.32875900  0.45288200  1
  Zr  Zr4  1  0.25481700  0.17124100  0.95288200  1
  Zr  Zr5  1  0.25481700  0.82875900  0.04711800  1
  Zr  Zr6  1  0.74518300  0.32875900  0.45288200  1
  Zr  Zr7  1  0.74518300  0.67124100  0.54711800  1
  Zr  Zr8  1  0.50000000  0.83380300  0.32055300  1
  Zr  Zr9  1  0.50000000  0.16619700  0.67944700  1
  Zr  Zr10  1  0.50000000  0.66619700  0.82055300  1
  Zr  Zr11  1  0.50000000  0.33380300  0.17944700  1
  Cr  Cr0  1  0.74961400  0.58269200  0.24486800  1
  Cr  Cr1  1  0.74961400  0.41730800  0.75513200  1
  Cr  Cr2  1  0.25038600  0.91730800  0.74486800  1
  Cr  Cr3  1  0.25038600  0.08269200  0.25513200  1
  Cr  Cr4  1  0.25038600  0.41730800  0.75513200  1
  Cr  Cr5  1  0.25038600  0.58269200  0.24486800  1
  Cr  Cr6  1  0.74961400  0.08269200  0.25513200  1
  Cr  Cr7  1  0.74961400  0.91730800  0.74486800  1
  Cr  Cr8  1  0.74543900  0.00000000  0.50000000  1
  Cr  Cr9  1  0.25456100  0.50000000  0.00000000  1
  Cr  Cr10  1  0.25456100  0.00000000  0.50000000  1
  Cr  Cr11  1  0.74543900  0.50000000  0.00000000  1
  Ge  Ge0  1  0.84280700  0.83196600  0.31774900  1
  Ge  Ge1  1  0.84280700  0.16803400  0.68225100  1
  Ge  Ge2  1  0.15719300  0.66803400  0.81774900  1
  Ge  Ge3  1  0.15719300  0.33196600  0.18225100  1
  Ge  Ge4  1  0.15719300  0.16803400  0.68225100  1
  Ge  Ge5  1  0.15719300  0.83196600  0.31774900  1
  Ge  Ge6  1  0.84280700  0.33196600  0.18225100  1
  Ge  Ge7  1  0.84280700  0.66803400  0.81774900  1
  Ge  Ge8  1  0.50000000  0.54134900  0.37794800  1
  Ge  Ge9  1  0.50000000  0.45865100  0.62205200  1
  Ge  Ge10  1  0.50000000  0.95865100  0.87794800  1
  Ge  Ge11  1  0.50000000  0.04134900  0.12205200  1
  Ge  Ge12  1  0.00000000  0.54479500  0.37622600  1
  Ge  Ge13  1  0.00000000  0.45520500  0.62377400  1
  Ge  Ge14  1  0.00000000  0.95520500  0.87622600  1
  Ge  Ge15  1  0.00000000  0.04479500  0.12377400  1
  Ge  Ge16  1  0.50000000  0.63163700  0.10166600  1
  Ge  Ge17  1  0.50000000  0.36836300  0.89833400  1
  Ge  Ge18  1  0.50000000  0.86836300  0.60166600  1
  Ge  Ge19  1  0.50000000  0.13163700  0.39833400  1
  Ge  Ge20  1  0.00000000  0.62501300  0.09556100  1
  Ge  Ge21  1  0.00000000  0.37498700  0.90443900  1
  Ge  Ge22  1  0.00000000  0.87498700  0.59556100  1
  Ge  Ge23  1  0.00000000  0.12501300  0.40443900  1
loop_
_geom_bond_atom_site_label_1
_geom_bond_atom_site_label_2
_geom_bond_distance
_geom_bond_site_symmetry_2
Cr0 Ge12 2.472753 1_655
Cr0 Ge8 2.481744 1_555
Cr0 Ge6 2.549493 1_555
Cr0 Ge16 2.550572 1_555
Cr0 Ge0 2.564868 1_555
Cr0 Ge20 2.580917 1_655
Cr1 Ge13 2.472753 1_655
Cr1 Ge9 2.481744 1_555
Cr1 Ge7 2.549493 1_555
Cr1 Ge17 2.550572 1_555
Cr1 Ge1 2.564868 1_555
Cr1 Ge21 2.580917 1_655
Cr2 Ge14 2.472753 1_555
Cr2 Ge10 2.481744 1_555
Cr2 Ge4 2.549493 1_565
Cr2 Ge18 2.550572 1_555
Cr2 Ge2 2.564868 1_555
Cr2 Ge22 2.580917 1_555
Cr3 Ge15 2.472753 1_555
Cr3 Ge11 2.481744 1_555
Cr3 Ge5 2.549493 1_545
Cr3 Ge19 2.550572 1_555
Cr3 Ge3 2.564868 1_555
Cr3 Ge23 2.580917 1_555
Cr4 Ge13 2.472753 1_555
Cr4 Ge9 2.481744 1_555
Cr4 Ge2 2.549493 1_555
Cr4 Ge17 2.550572 1_555
Cr4 Ge4 2.564868 1_555
Cr4 Ge21 2.580917 1_555
Cr5 Ge12 2.472753 1_555
Cr5 Ge8 2.481744 1_555
Cr5 Ge3 2.549493 1_555
Cr5 Ge16 2.550572 1_555
Cr5 Ge5 2.564868 1_555
Cr5 Ge20 2.580917 1_555
Cr6 Ge15 2.472753 1_655
Cr6 Ge11 2.481744 1_555
Cr6 Ge0 2.549493 1_545
Cr6 Ge19 2.550572 1_555
Cr6 Ge6 2.564868 1_555
Cr6 Ge23 2.580917 1_655
Cr7 Ge14 2.472753 1_655
Cr7 Ge10 2.481744 1_555
Cr7 Ge1 2.549493 1_565
Cr7 Ge18 2.550572 1_555
Cr7 Ge7 2.564868 1_555
Cr7 Ge22 2.580917 1_655
Cr8 Ge1 2.552251 1_555
Cr8 Ge0 2.552251 1_545
Cr8 Ge18 2.575881 1_545
Cr8 Ge19 2.575881 1_555
Cr8 Ge23 2.582646 1_655
Cr8 Ge22 2.582646 1_645
Cr9 Ge3 2.552251 1_555
Cr9 Ge2 2.552251 1_554
Cr9 Ge16 2.575881 1_555
Cr9 Ge17 2.575881 1_554
Cr9 Ge20 2.582646 1_555
Cr9 Ge21 2.582646 1_554
Cr10 Ge4 2.552251 1_555
Cr10 Ge5 2.552251 1_545
Cr10 Ge18 2.575881 1_545
Cr10 Ge19 2.575881 1_555
Cr10 Ge23 2.582646 1_555
Cr10 Ge22 2.582646 1_545
Cr11 Ge6 2.552251 1_555
Cr11 Ge7 2.552251 1_554
Cr11 Ge16 2.575881 1_555
Cr11 Ge17 2.575881 1_554
Cr11 Ge20 2.582646 1_655
Cr11 Ge21 2.582646 1_654
Ge0 Ge5 2.580219 1_655
Ge0 Zr8 2.813671 1_555
Ge0 Zr0 2.852637 1_555
Ge0 Zr7 2.879450 1_555
Ge1 Ge4 2.580219 1_655
Ge1 Zr9 2.813671 1_555
Ge1 Zr1 2.852637 1_555
Ge1 Zr6 2.879450 1_555
Ge2 Ge7 2.580219 1_455
Ge2 Zr10 2.813671 1_555
Ge2 Zr2 2.852637 1_555
Ge2 Zr5 2.879450 1_556
Ge3 Ge6 2.580219 1_455
Ge3 Zr11 2.813671 1_555
Ge3 Zr3 2.852637 1_555
Ge3 Zr4 2.879450 1_554
Ge4 Zr9 2.813671 1_555
Ge4 Zr4 2.852637 1_555
Ge4 Zr3 2.879450 1_555
Ge5 Zr8 2.813671 1_555
Ge5 Zr5 2.852637 1_555
Ge5 Zr2 2.879450 1_555
Ge6 Zr11 2.813671 1_555
Ge6 Zr6 2.852637 1_555
Ge6 Zr1 2.879450 1_554
Ge7 Zr10 2.813671 1_555
Ge7 Zr7 2.852637 1_555
Ge7 Zr0 2.879450 1_556
Ge8 Ge9 2.587912 1_555
Ge8 Zr11 2.794660 1_555
Ge8 Zr8 2.799782 1_555
Ge8 Zr7 2.908179 1_555
Ge8 Zr2 2.908179 1_555
Ge8 Zr6 2.930484 1_555
Ge8 Zr3 2.930484 1_555
Ge9 Zr10 2.794660 1_555
Ge9 Zr9 2.799782 1_555
Ge9 Zr6 2.908179 1_555
Ge9 Zr3 2.908179 1_555
Ge9 Zr7 2.930484 1_555
Ge9 Zr2 2.930484 1_555
Ge10 Ge11 2.587912 1_566
Ge10 Zr9 2.794660 1_565
Ge10 Zr10 2.799782 1_555
Ge10 Zr0 2.908179 1_556
Ge10 Zr5 2.908179 1_556
Ge10 Zr1 2.930484 1_565
Ge10 Zr4 2.930484 1_565
Ge11 Zr8 2.794660 1_545
Ge11 Zr11 2.799782 1_555
Ge11 Zr1 2.908179 1_554
Ge11 Zr4 2.908179 1_554
Ge11 Zr0 2.930484 1_545
Ge11 Zr5 2.930484 1_545
Ge12 Ge13 2.640966 1_555
Ge12 Zr2 2.960475 1_555
Ge12 Zr7 2.960475 1_455
Ge12 Zr3 3.011388 1_555
Ge12 Zr6 3.011388 1_455
Ge13 Zr3 2.960475 1_555
Ge13 Zr6 2.960475 1_455
Ge13 Zr2 3.011388 1_555
Ge13 Zr7 3.011388 1_455
Ge14 Ge15 2.640966 1_566
Ge14 Zr5 2.960475 1_556
Ge14 Zr0 2.960475 1_456
Ge14 Zr4 3.011388 1_565
Ge14 Zr1 3.011388 1_465
Ge15 Zr4 2.960475 1_554
Ge15 Zr1 2.960475 1_454
Ge15 Zr5 3.011388 1_545
Ge15 Zr0 3.011388 1_445
Ge16 Zr0 2.785997 1_555
Ge16 Zr5 2.785997 1_555
Ge16 Zr10 2.862037 1_554
Ge16 Zr11 2.898156 1_555
Ge16 Zr8 2.913331 1_555
Ge17 Zr1 2.785997 1_555
Ge17 Zr4 2.785997 1_555
Ge17 Zr11 2.862037 1_556
Ge17 Zr10 2.898156 1_555
Ge17 Zr9 2.913331 1_555
Ge18 Zr7 2.785997 1_555
Ge18 Zr2 2.785997 1_555
Ge18 Zr8 2.862037 1_555
Ge18 Zr9 2.898156 1_565
Ge18 Zr10 2.913331 1_555
Ge19 Zr6 2.785997 1_555
Ge19 Zr3 2.785997 1_555
Ge19 Zr9 2.862037 1_555
Ge19 Zr8 2.898156 1_545
Ge19 Zr11 2.913331 1_555
Ge20 Zr5 2.873116 1_555
Ge20 Zr0 2.873116 1_455
Ge21 Zr4 2.873116 1_555
Ge21 Zr1 2.873116 1_455
Ge22 Zr2 2.873116 1_555
Ge22 Zr7 2.873116 1_455
Ge23 Zr3 2.873116 1_555
Ge23 Zr6 2.873116 1_455
