# generated using pymatgen
data_LaTa3
_symmetry_space_group_name_H-M   'P 1'
_cell_length_a   6.51317251
_cell_length_b   6.51317251
_cell_length_c   5.08637600
_cell_angle_alpha   90.00000000
_cell_angle_beta   90.00000000
_cell_angle_gamma   120.00000518
_symmetry_Int_Tables_number   1
_chemical_formula_structural   LaTa3
_chemical_formula_sum   'La2 Ta6'
_cell_volume   186.86339404
_cell_formula_units_Z   2
loop_
 _symmetry_equiv_pos_site_id
 _symmetry_equiv_pos_as_xyz
  1  'x, y, z'
loop_
 _atom_site_type_symbol
 _atom_site_label
 _atom_site_symmetry_multiplicity
 _atom_site_fract_x
 _atom_site_fract_y
 _atom_site_fract_z
 _atom_site_occupancy
  La  La0  1  0.66666700  0.33333300  0.25000000  1
  La  La1  1  0.33333300  0.66666700  0.75000000  1
  Ta  Ta0  1  0.85963900  0.14036100  0.75000000  1
  Ta  Ta1  1  0.28072100  0.14036100  0.75000000  1
  Ta  Ta2  1  0.85963900  0.71927900  0.75000000  1
  Ta  Ta3  1  0.14036100  0.85963900  0.25000000  1
  Ta  Ta4  1  0.71927900  0.85963900  0.25000000  1
  Ta  Ta5  1  0.14036100  0.28072100  0.25000000  1
loop_
_geom_bond_atom_site_label_1
_geom_bond_atom_site_label_2
_geom_bond_distance
_geom_bond_site_symmetry_2
La0 Ta3 3.270080 1_545
La0 Ta3 3.270080 1_655
La0 Ta5 3.270080 1_555
La0 Ta4 3.270080 1_555
La0 Ta4 3.270080 1_545
La0 Ta5 3.270080 1_655
La0 Ta0 3.347670 1_554
La0 Ta0 3.347670 1_555
La0 Ta2 3.347677 1_554
La0 Ta2 3.347677 1_555
La0 Ta1 3.347677 1_554
La0 Ta1 3.347677 1_555
La1 Ta0 3.270080 1_455
La1 Ta0 3.270080 1_565
La1 Ta1 3.270080 1_555
La1 Ta2 3.270080 1_555
La1 Ta2 3.270080 1_455
La1 Ta1 3.270080 1_565
La1 Ta3 3.347670 1_555
La1 Ta3 3.347670 1_556
La1 Ta5 3.347677 1_555
La1 Ta5 3.347677 1_556
La1 Ta4 3.347677 1_555
La1 Ta4 3.347677 1_556
Ta0 Ta1 2.742580 1_655
Ta0 Ta2 2.742580 1_545
Ta0 Ta5 2.995841 1_656
Ta0 Ta5 2.995841 1_655
Ta0 Ta4 2.995841 1_545
Ta0 Ta4 2.995841 1_546
Ta1 Ta2 2.742579 1_445
Ta1 Ta5 2.995835 1_555
Ta1 Ta5 2.995835 1_556
Ta1 Ta3 2.995841 1_545
Ta1 Ta3 2.995841 1_546
Ta2 Ta4 2.995835 1_556
Ta2 Ta4 2.995835 1_555
Ta2 Ta3 2.995841 1_655
Ta2 Ta3 2.995841 1_656
Ta3 Ta5 2.742580 1_565
Ta3 Ta4 2.742580 1_455
Ta4 Ta5 2.742579 1_665
