# generated using pymatgen
data_NaYMg14
_symmetry_space_group_name_H-M   'P 1'
_cell_length_a   6.56793377
_cell_length_b   6.56793320
_cell_length_c   10.36415751
_cell_angle_alpha   90.00000000
_cell_angle_beta   90.00000000
_cell_angle_gamma   120.00000282
_symmetry_Int_Tables_number   1
_chemical_formula_structural   NaYMg14
_chemical_formula_sum   'Na1 Y1 Mg14'
_cell_volume   387.18820231
_cell_formula_units_Z   1
loop_
 _symmetry_equiv_pos_site_id
 _symmetry_equiv_pos_as_xyz
  1  'x, y, z'
loop_
 _atom_site_type_symbol
 _atom_site_label
 _atom_site_symmetry_multiplicity
 _atom_site_fract_x
 _atom_site_fract_y
 _atom_site_fract_z
 _atom_site_occupancy
  Na  Na0  1  0.16666700  0.33333300  0.62500000  1
  Y  Y0  1  0.16666700  0.33333300  0.12500000  1
  Mg  Mg0  1  0.17445888  0.83722894  0.12500000  1
  Mg  Mg1  1  0.16923031  0.83461465  0.62500000  1
  Mg  Mg2  1  0.66277106  0.32554112  0.12500000  1
  Mg  Mg3  1  0.66538535  0.33076969  0.62500000  1
  Mg  Mg4  1  0.66277106  0.83722894  0.12500000  1
  Mg  Mg5  1  0.66538535  0.83461465  0.62500000  1
  Mg  Mg6  1  0.33501189  0.16498811  0.37570320  1
  Mg  Mg7  1  0.33501189  0.16498811  0.87429680  1
  Mg  Mg8  1  0.33501189  0.67002478  0.37570320  1
  Mg  Mg9  1  0.33501189  0.67002478  0.87429680  1
  Mg  Mg10  1  0.82997522  0.16498811  0.37570320  1
  Mg  Mg11  1  0.82997522  0.16498811  0.87429680  1
  Mg  Mg12  1  0.83333300  0.66666700  0.37360088  1
  Mg  Mg13  1  0.83333300  0.66666700  0.87639912  1
loop_
_geom_bond_atom_site_label_1
_geom_bond_atom_site_label_2
_geom_bond_distance
_geom_bond_site_symmetry_2
Mg0 Mg9 3.198020 1_554
Mg0 Mg8 3.198020 1_555
Mg0 Mg7 3.198026 1_564
Mg0 Mg6 3.198026 1_565
Mg0 Mg2 3.207202 1_565
Mg0 Mg4 3.207202 1_555
Mg0 Mg13 3.225431 1_454
Mg0 Mg12 3.225431 1_455
Mg0 Y0 3.284266 1_555
Mg0 Y0 3.284266 1_565
Mg0 Mg2 3.360731 1_455
Mg0 Mg4 3.360732 1_455
Mg1 Mg8 3.194839 1_555
Mg1 Mg9 3.194839 1_555
Mg1 Mg7 3.194846 1_565
Mg1 Mg6 3.194846 1_565
Mg1 Mg12 3.230970 1_455
Mg1 Mg13 3.230970 1_455
Mg1 Mg3 3.258713 1_565
Mg1 Mg5 3.258713 1_555
Mg1 Na0 3.283999 1_555
Mg1 Na0 3.283999 1_565
Mg1 Mg3 3.309220 1_455
Mg1 Mg5 3.309220 1_455
Mg2 Mg6 3.198026 1_555
Mg2 Mg7 3.198026 1_554
Mg2 Mg4 3.207202 1_545
Mg2 Y0 3.284266 1_555
Mg2 Y0 3.284266 1_655
Mg2 Mg4 3.360731 1_555
Mg3 Mg7 3.194846 1_555
Mg3 Mg6 3.194846 1_555
Mg3 Mg5 3.258713 1_545
Mg3 Na0 3.283999 1_655
Mg3 Na0 3.283999 1_555
Mg3 Mg5 3.309220 1_555
Mg4 Mg8 3.198026 1_555
Mg4 Mg9 3.198026 1_554
Mg4 Y0 3.284266 1_555
Mg4 Y0 3.284266 1_665
Mg5 Mg9 3.194846 1_555
Mg5 Mg8 3.194846 1_555
Mg5 Na0 3.283999 1_555
Mg5 Na0 3.283999 1_665
Mg6 Na0 3.216107 1_555
Mg6 Y0 3.227829 1_555
Mg6 Mg8 3.250886 1_545
Mg6 Mg8 3.317047 1_555
Mg7 Na0 3.216107 1_555
Mg7 Y0 3.227829 1_556
Mg7 Mg9 3.250886 1_545
Mg7 Mg9 3.317047 1_555
Mg8 Na0 3.216113 1_555
Mg8 Y0 3.227835 1_555
Mg9 Na0 3.216113 1_555
Mg9 Y0 3.227835 1_556
Mg10 Mg3 3.194839 1_555
Mg10 Mg5 3.194846 1_545
Mg10 Mg2 3.198020 1_555
Mg10 Mg4 3.198026 1_545
Mg10 Na0 3.216114 1_655
Mg10 Y0 3.227835 1_655
Mg10 Mg8 3.250886 1_545
Mg10 Mg6 3.250886 1_555
Mg10 Mg12 3.284094 1_555
Mg10 Mg12 3.284094 1_545
Mg10 Mg8 3.317047 1_655
Mg10 Mg6 3.317047 1_655
Mg11 Mg3 3.194839 1_555
Mg11 Mg5 3.194846 1_545
Mg11 Mg2 3.198020 1_556
Mg11 Mg4 3.198026 1_546
Mg11 Na0 3.216114 1_655
Mg11 Y0 3.227835 1_656
Mg11 Mg9 3.250886 1_545
Mg11 Mg7 3.250886 1_555
Mg11 Mg13 3.284094 1_555
Mg11 Mg13 3.284094 1_545
Mg11 Mg9 3.317047 1_655
Mg11 Mg7 3.317047 1_655
Mg12 Mg4 3.225424 1_555
Mg12 Mg2 3.225431 1_555
Mg12 Mg5 3.230963 1_555
Mg12 Mg3 3.230970 1_555
Mg12 Mg6 3.284094 1_555
Mg12 Mg6 3.284094 1_665
Mg12 Mg8 3.284095 1_555
Mg12 Mg8 3.284095 1_655
Mg13 Mg4 3.225424 1_556
Mg13 Mg2 3.225431 1_556
Mg13 Mg5 3.230963 1_555
Mg13 Mg3 3.230970 1_555
Mg13 Mg7 3.284094 1_555
Mg13 Mg7 3.284094 1_665
Mg13 Mg9 3.284095 1_555
Mg13 Mg9 3.284095 1_655
