# generated using pymatgen
data_Zn(GaTe2)2
_symmetry_space_group_name_H-M   'P 1'
_cell_length_a   6.98199253
_cell_length_b   6.98199253
_cell_length_c   6.98199253
_cell_angle_alpha   130.75137332
_cell_angle_beta   130.75137332
_cell_angle_gamma   72.20839348
_symmetry_Int_Tables_number   1
_chemical_formula_structural   Zn(GaTe2)2
_chemical_formula_sum   'Zn1 Ga2 Te4'
_cell_volume   190.96694782
_cell_formula_units_Z   1
loop_
 _symmetry_equiv_pos_site_id
 _symmetry_equiv_pos_as_xyz
  1  'x, y, z'
loop_
 _atom_site_type_symbol
 _atom_site_label
 _atom_site_symmetry_multiplicity
 _atom_site_fract_x
 _atom_site_fract_y
 _atom_site_fract_z
 _atom_site_occupancy
  Zn  Zn0  1  0.00000000  0.00000000  0.00000000  1
  Ga  Ga0  1  0.50000000  0.50000000  0.00000000  1
  Ga  Ga1  1  0.25000000  0.75000000  0.50000000  1
  Te  Te0  1  0.00269900  0.50269900  0.50000000  1
  Te  Te1  1  0.75152200  0.75152200  0.00000000  1
  Te  Te2  1  0.49730100  0.99730100  0.50000000  1
  Te  Te3  1  0.24847800  0.24847800  0.00000000  1
loop_
_geom_bond_atom_site_label_1
_geom_bond_atom_site_label_2
_geom_bond_distance
_geom_bond_site_symmetry_2
Ga0 Te1 2.837710 1_555
Ga0 Te3 2.837710 1_555
Ga0 Te0 2.909322 1_554
Ga0 Te2 2.909322 1_544
Ga0 Te2 2.909322 1_555
Ga0 Te0 2.909322 1_655
Ga1 Te0 2.790088 1_555
Ga1 Te2 2.790088 1_555
Ga1 Te1 2.909214 1_556
Ga1 Te3 2.909214 1_555
Ga1 Te3 2.909214 1_566
Ga1 Te1 2.909214 1_455
Te0 Zn0 2.909322 1_566
Te0 Zn0 2.909322 1_555
Te1 Zn0 2.803368 1_665
Te2 Zn0 2.909322 1_565
Te2 Zn0 2.909322 1_666
Te3 Zn0 2.803368 1_555
