# generated using pymatgen
data_Na3U6CrF30
_symmetry_space_group_name_H-M   'P 1'
_cell_length_a   9.90395507
_cell_length_b   9.90395507
_cell_length_c   13.07371200
_cell_angle_alpha   90.00000000
_cell_angle_beta   90.00000000
_cell_angle_gamma   120.00000716
_symmetry_Int_Tables_number   1
_chemical_formula_structural   Na3U6CrF30
_chemical_formula_sum   'Na6 U12 Cr2 F60'
_cell_volume   1110.57230031
_cell_formula_units_Z   2
loop_
 _symmetry_equiv_pos_site_id
 _symmetry_equiv_pos_as_xyz
  1  'x, y, z'
loop_
 _atom_site_type_symbol
 _atom_site_label
 _atom_site_symmetry_multiplicity
 _atom_site_fract_x
 _atom_site_fract_y
 _atom_site_fract_z
 _atom_site_occupancy
  Na  Na0  1  0.66666700  0.33333300  0.66264100  1
  Na  Na1  1  0.66666700  0.33333300  0.16264100  1
  Na  Na2  1  0.33333300  0.66666700  0.33735900  1
  Na  Na3  1  0.33333300  0.66666700  0.83735900  1
  Na  Na4  1  0.00000000  0.00000000  0.50000000  1
  Na  Na5  1  0.00000000  0.00000000  0.00000000  1
  U  U0  1  0.07535300  0.67525100  0.60173800  1
  U  U1  1  0.59989800  0.92464700  0.60173800  1
  U  U2  1  0.32474900  0.40010200  0.60173800  1
  U  U3  1  0.07535300  0.40010200  0.10173800  1
  U  U4  1  0.32474900  0.92464700  0.10173800  1
  U  U5  1  0.59989800  0.67525100  0.10173800  1
  U  U6  1  0.92464700  0.32474900  0.39826200  1
  U  U7  1  0.40010200  0.07535300  0.39826200  1
  U  U8  1  0.67525100  0.59989800  0.39826200  1
  U  U9  1  0.92464700  0.59989800  0.89826200  1
  U  U10  1  0.67525100  0.07535300  0.89826200  1
  U  U11  1  0.40010200  0.32474900  0.89826200  1
  Cr  Cr0  1  0.00000000  0.00000000  0.75000000  1
  Cr  Cr1  1  0.00000000  0.00000000  0.25000000  1
  F  F0  1  0.86884700  0.56663400  0.71577400  1
  F  F1  1  0.69778700  0.13115300  0.71577400  1
  F  F2  1  0.43336600  0.30221300  0.71577400  1
  F  F3  1  0.86884700  0.30221300  0.21577400  1
  F  F4  1  0.43336600  0.13115300  0.21577400  1
  F  F5  1  0.69778700  0.56663400  0.21577400  1
  F  F6  1  0.13115300  0.43336600  0.28422600  1
  F  F7  1  0.30221300  0.86884700  0.28422600  1
  F  F8  1  0.56663400  0.69778700  0.28422600  1
  F  F9  1  0.13115300  0.69778700  0.78422600  1
  F  F10  1  0.56663400  0.86884700  0.78422600  1
  F  F11  1  0.30221300  0.43336600  0.78422600  1
  F  F12  1  0.88464300  0.69321800  0.51934000  1
  F  F13  1  0.80857600  0.11535700  0.51934000  1
  F  F14  1  0.30678200  0.19142400  0.51934000  1
  F  F15  1  0.88464300  0.19142400  0.01934000  1
  F  F16  1  0.30678200  0.11535700  0.01934000  1
  F  F17  1  0.80857600  0.69321800  0.01934000  1
  F  F18  1  0.11535700  0.30678200  0.48066000  1
  F  F19  1  0.19142400  0.88464300  0.48066000  1
  F  F20  1  0.69321800  0.80857600  0.48066000  1
  F  F21  1  0.11535700  0.80857600  0.98066000  1
  F  F22  1  0.69321800  0.88464300  0.98066000  1
  F  F23  1  0.19142400  0.30678200  0.98066000  1
  F  F24  1  0.12037900  0.58753700  0.44913600  1
  F  F25  1  0.46715800  0.87962100  0.44913600  1
  F  F26  1  0.41246300  0.53284200  0.44913600  1
  F  F27  1  0.12037900  0.53284200  0.94913600  1
  F  F28  1  0.41246300  0.87962100  0.94913600  1
  F  F29  1  0.46715800  0.58753700  0.94913600  1
  F  F30  1  0.87962100  0.41246300  0.55086400  1
  F  F31  1  0.53284200  0.12037900  0.55086400  1
  F  F32  1  0.58753700  0.46715800  0.55086400  1
  F  F33  1  0.87962100  0.46715800  0.05086400  1
  F  F34  1  0.58753700  0.12037900  0.05086400  1
  F  F35  1  0.53284200  0.41246300  0.05086400  1
  F  F36  1  0.08571000  0.90291400  0.66123100  1
  F  F37  1  0.81720400  0.91429000  0.66123100  1
  F  F38  1  0.09708600  0.18279600  0.66123100  1
  F  F39  1  0.08571000  0.18279600  0.16123100  1
  F  F40  1  0.09708600  0.91429000  0.16123100  1
  F  F41  1  0.81720400  0.90291400  0.16123100  1
  F  F42  1  0.91429000  0.09708600  0.33876900  1
  F  F43  1  0.18279600  0.08571000  0.33876900  1
  F  F44  1  0.90291400  0.81720400  0.33876900  1
  F  F45  1  0.91429000  0.81720400  0.83876900  1
  F  F46  1  0.90291400  0.08571000  0.83876900  1
  F  F47  1  0.18279600  0.09708600  0.83876900  1
  F  F48  1  0.34066000  0.82918400  0.63743200  1
  F  F49  1  0.48852400  0.65934000  0.63743200  1
  F  F50  1  0.17081600  0.51147600  0.63743200  1
  F  F51  1  0.34066000  0.51147600  0.13743200  1
  F  F52  1  0.17081600  0.65934000  0.13743200  1
  F  F53  1  0.48852400  0.82918400  0.13743200  1
  F  F54  1  0.65934000  0.17081600  0.36256800  1
  F  F55  1  0.51147600  0.34066000  0.36256800  1
  F  F56  1  0.82918400  0.48852400  0.36256800  1
  F  F57  1  0.65934000  0.48852400  0.86256800  1
  F  F58  1  0.82918400  0.34066000  0.86256800  1
  F  F59  1  0.51147600  0.17081600  0.86256800  1
loop_
_geom_bond_atom_site_label_1
_geom_bond_atom_site_label_2
_geom_bond_distance
_geom_bond_site_symmetry_2
Cr0 F47 1.951460 1_555
Cr0 F38 1.951460 1_555
Cr0 F45 1.951460 1_445
Cr0 F37 1.951460 1_445
Cr0 F36 1.951460 1_545
Cr0 F46 1.951460 1_455
Cr1 F44 1.951460 1_445
Cr1 F41 1.951460 1_445
Cr1 F39 1.951460 1_555
Cr1 F43 1.951460 1_555
Cr1 F42 1.951460 1_455
Cr1 F40 1.951460 1_545
F0 Na0 2.281280 1_555
F0 U0 2.315759 1_655
F0 U9 2.433907 1_555
F1 Na0 2.281275 1_555
F1 U1 2.315759 1_545
F1 U10 2.433907 1_555
F2 Na0 2.281284 1_555
F2 U2 2.315759 1_555
F2 U11 2.433907 1_555
F3 Na1 2.281275 1_555
F3 U3 2.315759 1_655
F3 U6 2.433907 1_555
F4 Na1 2.281280 1_555
F4 U4 2.315759 1_545
F4 U7 2.433907 1_555
F5 Na1 2.281284 1_555
F5 U5 2.315759 1_555
F5 U8 2.433907 1_555
F6 Na2 2.281280 1_555
F6 U6 2.315759 1_455
F6 U3 2.433907 1_555
F7 Na2 2.281275 1_555
F7 U7 2.315759 1_565
F7 U4 2.433907 1_555
F8 Na2 2.281284 1_555
F8 U8 2.315759 1_555
F8 U5 2.433907 1_555
F9 Na3 2.281275 1_555
F9 U9 2.315759 1_455
F9 U0 2.433907 1_555
F10 Na3 2.281280 1_555
F10 U10 2.315759 1_565
F10 U1 2.433907 1_555
F11 Na3 2.281284 1_555
F11 U11 2.315759 1_555
F11 U2 2.433907 1_555
F12 U0 2.257372 1_655
F12 U8 2.396644 1_555
F12 Na4 2.670117 1_665
F13 U1 2.257377 1_545
F13 U6 2.396643 1_555
F13 Na4 2.670108 1_655
F14 U2 2.257380 1_555
F14 U7 2.396637 1_555
F14 Na4 2.670116 1_555
F15 U3 2.257377 1_655
F15 U10 2.396643 1_554
F15 Na5 2.670108 1_655
F16 U4 2.257372 1_545
F16 U11 2.396644 1_554
F16 Na5 2.670117 1_555
F17 U5 2.257380 1_555
F17 U9 2.396637 1_554
F17 Na5 2.670116 1_665
F18 U6 2.257372 1_455
F18 U2 2.396644 1_555
F18 Na4 2.670117 1_555
F19 U7 2.257377 1_565
F19 U0 2.396643 1_555
F19 Na4 2.670108 1_565
F20 U8 2.257380 1_555
F20 U1 2.396637 1_555
F20 Na4 2.670116 1_665
F21 U9 2.257377 1_455
F21 U4 2.396643 1_556
F21 Na5 2.670108 1_566
F22 U10 2.257372 1_565
F22 U5 2.396644 1_556
F22 Na5 2.670117 1_666
F23 U11 2.257380 1_555
F23 U3 2.396637 1_556
F23 Na5 2.670116 1_556
F24 U0 2.306781 1_555
F24 Na2 2.354794 1_555
F24 U6 2.434892 1_455
F25 U1 2.306781 1_555
F25 Na2 2.354796 1_555
F25 U7 2.434893 1_565
F26 U2 2.306781 1_555
F26 Na2 2.354802 1_555
F26 U8 2.434893 1_555
F27 U3 2.306781 1_556
F27 Na3 2.354796 1_555
F27 U9 2.434893 1_455
F28 U4 2.306781 1_556
F28 Na3 2.354794 1_555
F28 U10 2.434892 1_565
F29 U5 2.306781 1_556
F29 Na3 2.354802 1_555
F29 U11 2.434893 1_555
F30 U6 2.306781 1_555
F30 Na0 2.354794 1_555
F30 U0 2.434892 1_655
F31 U7 2.306781 1_555
F31 Na0 2.354796 1_555
F31 U1 2.434893 1_545
F32 U8 2.306781 1_555
F32 Na0 2.354802 1_555
F32 U2 2.434893 1_555
F33 U9 2.306781 1_554
F33 Na1 2.354796 1_555
F33 U3 2.434893 1_655
F34 U10 2.306781 1_554
F34 Na1 2.354794 1_555
F34 U4 2.434892 1_545
F35 U11 2.306781 1_554
F35 Na1 2.354802 1_555
F35 U5 2.434893 1_555
F36 U0 2.338411 1_555
F36 Na4 2.627648 1_565
F37 U1 2.338411 1_555
F37 Na4 2.627648 1_665
F38 U2 2.338410 1_555
F38 Na4 2.627648 1_555
F39 U3 2.338411 1_555
F39 Na5 2.627648 1_555
F40 U4 2.338411 1_555
F40 Na5 2.627648 1_565
F41 U5 2.338410 1_555
F41 Na5 2.627648 1_665
F42 U6 2.338411 1_555
F42 Na4 2.627648 1_655
F43 U7 2.338411 1_555
F43 Na4 2.627648 1_555
F44 U8 2.338410 1_555
F44 Na4 2.627648 1_665
F45 U9 2.338411 1_555
F45 Na5 2.627648 1_666
F46 U10 2.338411 1_555
F46 Na5 2.627648 1_656
F47 U11 2.338410 1_555
F47 Na5 2.627648 1_556
F48 U1 2.296991 1_555
F48 U0 2.332455 1_555
F49 U2 2.296991 1_555
F49 U1 2.332455 1_555
F50 U0 2.296991 1_555
F50 U2 2.332455 1_555
F51 U5 2.296991 1_555
F51 U3 2.332455 1_555
F52 U3 2.296991 1_555
F52 U4 2.332455 1_555
F53 U4 2.296991 1_555
F53 U5 2.332455 1_555
F54 U7 2.296991 1_555
F54 U6 2.332455 1_555
F55 U8 2.296991 1_555
F55 U7 2.332455 1_555
F56 U6 2.296991 1_555
F56 U8 2.332455 1_555
F57 U11 2.296991 1_555
F57 U9 2.332455 1_555
F58 U9 2.296991 1_555
F58 U10 2.332455 1_555
F59 U10 2.296991 1_555
F59 U11 2.332455 1_555
