# generated using pymatgen
data_Rb2Ba8Ca(Sb3O)2
_symmetry_space_group_name_H-M   'P 1'
_cell_length_a   9.65064703
_cell_length_b   9.64877523
_cell_length_c   11.85680980
_cell_angle_alpha   122.94438720
_cell_angle_beta   123.01131046
_cell_angle_gamma   80.48081443
_symmetry_Int_Tables_number   1
_chemical_formula_structural   Rb2Ba8Ca(Sb3O)2
_chemical_formula_sum   'Rb2 Ba8 Ca1 Sb6 O2'
_cell_volume   763.39730035
_cell_formula_units_Z   1
loop_
 _symmetry_equiv_pos_site_id
 _symmetry_equiv_pos_as_xyz
  1  'x, y, z'
loop_
 _atom_site_type_symbol
 _atom_site_label
 _atom_site_symmetry_multiplicity
 _atom_site_fract_x
 _atom_site_fract_y
 _atom_site_fract_z
 _atom_site_occupancy
  Rb  Rb0  1  0.01865100  0.99200900  0.00942700  1
  Rb  Rb1  1  0.49218500  0.51845900  0.00998500  1
  Ba  Ba0  1  0.48868400  0.67790200  0.72156200  1
  Ba  Ba1  1  0.17770700  0.98825200  0.72168000  1
  Ba  Ba2  1  0.84110100  0.01714000  0.25658600  1
  Ba  Ba3  1  0.98115600  0.48173500  0.70209100  1
  Ba  Ba4  1  0.51640300  0.33935400  0.25672300  1
  Ba  Ba5  1  0.69077600  0.19094500  0.76101700  1
  Ba  Ba6  1  0.99224000  0.49206400  0.30704200  1
  Ba  Ba7  1  0.29032600  0.79026900  0.35800200  1
  Ca  Ca0  1  0.55101800  0.04846000  0.36415600  1
  Sb  Sb0  1  0.88042700  0.61164600  0.99769700  1
  Sb  Sb1  1  0.64432300  0.14475300  0.99394700  1
  Sb  Sb2  1  0.11187200  0.38060300  0.99762700  1
  Sb  Sb3  1  0.36580100  0.86502500  0.99489600  1
  Sb  Sb4  1  0.27649900  0.23363400  0.48694500  1
  Sb  Sb5  1  0.73392200  0.77490500  0.48870200  1
  O  O0  1  0.73776400  0.23613200  0.44007500  1
  O  O1  1  0.23771500  0.73814200  0.51933800  1
loop_
_geom_bond_atom_site_label_1
_geom_bond_atom_site_label_2
_geom_bond_distance
_geom_bond_site_symmetry_2
Rb0 Sb3 3.434607 1_554
Rb0 Sb1 3.614794 1_464
Rb0 Sb4 3.986786 1_565
Rb0 Sb0 4.016203 1_454
Rb0 Sb2 4.087880 1_564
Rb1 Sb3 3.430085 1_554
Rb1 Sb1 3.605698 1_554
Rb1 Sb5 3.998485 1_555
Rb1 Sb2 4.009785 1_554
Rb1 Sb0 4.088968 1_554
Ba0 O1 2.583712 1_555
Ba0 Sb3 3.504955 1_555
Ba0 Sb0 3.662117 1_555
Ba0 Sb4 3.746148 1_555
Ba0 Sb1 3.755867 1_565
Ba1 O1 2.582528 1_555
Ba1 Sb3 3.503003 1_555
Ba1 Sb2 3.665765 1_565
Ba1 Sb5 3.748477 1_455
Ba1 Sb1 3.753299 1_565
Ba2 O0 2.619097 1_555
Ba2 Sb1 3.431216 1_554
Ba2 Sb0 3.548239 1_544
Ba2 Sb4 3.697550 1_655
Ba2 Sb3 3.819361 1_544
Ba3 O0 2.582070 1_555
Ba3 Sb2 3.649343 1_655
Ba3 Sb0 3.651275 1_555
Ba3 Sb3 4.005426 1_655
Ba4 O0 2.621574 1_555
Ba4 Sb1 3.437801 1_554
Ba4 Sb2 3.547533 1_554
Ba4 Sb5 3.699675 1_555
Ba4 Sb3 3.811359 1_544
Ba5 Sb1 3.283469 1_555
Ba5 Sb0 3.489067 1_555
Ba5 Sb2 3.491064 1_655
Ba5 Sb4 3.669992 1_555
Ba5 Sb5 3.677990 1_545
Ba6 O1 2.539341 1_655
Ba6 Sb1 3.590855 1_554
Ba6 Sb4 3.929364 1_655
Ba6 Sb5 3.938139 1_555
Ba6 Sb0 3.978369 1_554
Ba6 Sb2 3.982691 1_654
Ba7 O1 2.521760 1_555
Ba7 Sb0 3.564030 1_454
Ba7 Sb2 3.565289 1_554
Ba7 Sb5 3.682615 1_555
Ba7 Sb4 3.684532 1_565
Ca0 O0 2.208206 1_555
Ca0 Sb3 3.096367 1_544
Ca0 Sb5 3.481583 1_545
Ca0 Sb4 3.484028 1_555
Sb0 Sb2 2.883004 1_655
