# generated using pymatgen
data_CeH3
_symmetry_space_group_name_H-M   'P 1'
_cell_length_a   3.96670925
_cell_length_b   3.96670925
_cell_length_c   3.96670925
_cell_angle_alpha   125.54567283
_cell_angle_beta   125.54567283
_cell_angle_gamma   80.63614959
_symmetry_Int_Tables_number   1
_chemical_formula_structural   CeH3
_chemical_formula_sum   'Ce1 H3'
_cell_volume   39.84647268
_cell_formula_units_Z   1
loop_
 _symmetry_equiv_pos_site_id
 _symmetry_equiv_pos_as_xyz
  1  'x, y, z'
loop_
 _atom_site_type_symbol
 _atom_site_label
 _atom_site_symmetry_multiplicity
 _atom_site_fract_x
 _atom_site_fract_y
 _atom_site_fract_z
 _atom_site_occupancy
  Ce  Ce0  1  0.00000000  0.00000000  0.00000000  1
  H  H0  1  0.75000000  0.25000000  0.50000000  1
  H  H1  1  0.25000000  0.75000000  0.50000000  1
  H  H2  1  0.50000000  0.50000000  0.00000000  1
loop_
_geom_bond_atom_site_label_1
_geom_bond_atom_site_label_2
_geom_bond_distance
_geom_bond_site_symmetry_2
Ce0 H1 2.362315 1_444
Ce0 H0 2.362315 1_455
Ce0 H0 2.362315 1_555
Ce0 H0 2.362315 1_444
Ce0 H1 2.362315 1_545
Ce0 H1 2.362315 1_555
Ce0 H1 2.362315 1_544
Ce0 H0 2.362315 1_454
Ce0 H2 2.566581 1_545
Ce0 H2 2.566581 1_444
Ce0 H2 2.566581 1_556
Ce0 H2 2.566581 1_455
