# generated using pymatgen
data_Ba2Mg3Tl2(CuO3)4
_symmetry_space_group_name_H-M   'P 1'
_cell_length_a   3.79791709
_cell_length_b   3.79791705
_cell_length_c   21.00229190
_cell_angle_alpha   95.18757494
_cell_angle_beta   95.18757331
_cell_angle_gamma   90.00000179
_symmetry_Int_Tables_number   1
_chemical_formula_structural   Ba2Mg3Tl2(CuO3)4
_chemical_formula_sum   'Ba2 Mg3 Tl2 Cu4 O12'
_cell_volume   300.45391886
_cell_formula_units_Z   1
loop_
 _symmetry_equiv_pos_site_id
 _symmetry_equiv_pos_as_xyz
  1  'x, y, z'
loop_
 _atom_site_type_symbol
 _atom_site_label
 _atom_site_symmetry_multiplicity
 _atom_site_fract_x
 _atom_site_fract_y
 _atom_site_fract_z
 _atom_site_occupancy
  Ba  Ba0  1  0.15325500  0.15325500  0.30650900  1
  Ba  Ba1  1  0.84674500  0.84674500  0.69349100  1
  Mg  Mg0  1  0.07256900  0.07256900  0.14513700  1
  Mg  Mg1  1  0.92743100  0.92743100  0.85486300  1
  Mg  Mg2  1  0.00000000  0.00000000  0.00000000  1
  Tl  Tl0  1  0.72181600  0.72181600  0.44363100  1
  Tl  Tl1  1  0.27818400  0.27818400  0.55636900  1
  Cu  Cu0  1  0.53584300  0.53584300  0.07168600  1
  Cu  Cu1  1  0.39673200  0.39673200  0.79346400  1
  Cu  Cu2  1  0.60326800  0.60326800  0.20653600  1
  Cu  Cu3  1  0.46415700  0.46415700  0.92831400  1
  O  O0  1  0.39760200  0.89760200  0.79520400  1
  O  O1  1  0.53391000  0.03391000  0.06782100  1
  O  O2  1  0.22702500  0.22702500  0.45404900  1
  O  O3  1  0.96609000  0.46609000  0.93217900  1
  O  O4  1  0.77297500  0.77297500  0.54595100  1
  O  O5  1  0.10239800  0.60239800  0.20479600  1
  O  O6  1  0.60239800  0.10239800  0.20479600  1
  O  O7  1  0.32787000  0.32787000  0.65574000  1
  O  O8  1  0.89760200  0.39760200  0.79520400  1
  O  O9  1  0.03391000  0.53391000  0.06782100  1
  O  O10  1  0.46609000  0.96609000  0.93217900  1
  O  O11  1  0.67213000  0.67213000  0.34426000  1
loop_
_geom_bond_atom_site_label_1
_geom_bond_atom_site_label_2
_geom_bond_distance
_geom_bond_site_symmetry_2
Ba0 O11 2.798288 1_555
Ba0 O11 2.798291 1_455
Ba0 O11 2.798291 1_545
Ba0 O11 2.798293 1_445
Ba0 O6 2.845136 1_555
Ba0 O5 2.845136 1_555
Ba0 O5 2.845139 1_545
Ba0 O6 2.845139 1_455
Ba0 O2 3.073242 1_555
Ba1 O7 2.798288 1_555
Ba1 O7 2.798291 1_655
Ba1 O7 2.798291 1_565
Ba1 O7 2.798293 1_665
Ba1 O0 2.845136 1_555
Ba1 O8 2.845136 1_555
Ba1 O8 2.845139 1_565
Ba1 O0 2.845139 1_655
Ba1 O4 3.073242 1_555
Mg0 O5 2.269431 1_555
Mg0 O6 2.269431 1_555
Mg0 O6 2.269434 1_455
Mg0 O5 2.269434 1_545
Mg0 O1 2.489917 1_555
Mg0 O9 2.489917 1_555
Mg0 O9 2.489923 1_545
Mg0 O1 2.489923 1_455
Mg1 O8 2.269431 1_555
Mg1 O0 2.269431 1_555
Mg1 O0 2.269434 1_655
Mg1 O8 2.269434 1_565
Mg1 O10 2.489917 1_555
Mg1 O3 2.489917 1_555
Mg1 O3 2.489923 1_565
Mg1 O10 2.489923 1_655
Mg2 O9 2.366806 1_555
Mg2 O3 2.366806 1_444
Mg2 O1 2.366806 1_555
Mg2 O10 2.366806 1_444
Mg2 O10 2.366808 1_544
Mg2 O1 2.366808 1_455
Mg2 O3 2.366808 1_454
Mg2 O9 2.366808 1_545
Cu0 O1 1.900662 1_565
Cu0 O9 1.900662 1_655
Cu0 O1 1.900666 1_555
Cu0 O9 1.900666 1_555
Cu1 O0 1.899304 1_545
Cu1 O0 1.899304 1_555
Cu1 O8 1.899304 1_455
Cu1 O8 1.899304 1_555
Cu2 O6 1.899304 1_565
Cu2 O6 1.899304 1_555
Cu2 O5 1.899304 1_655
Cu2 O5 1.899304 1_555
Cu3 O10 1.900662 1_545
Cu3 O3 1.900662 1_455
Cu3 O10 1.900666 1_555
Cu3 O3 1.900666 1_555
O2 Tl1 2.131314 1_555
O2 Tl0 2.694286 1_555
O2 Tl0 2.694286 1_445
O2 Tl0 2.694286 1_545
O2 Tl0 2.694286 1_455
O4 Tl0 2.131314 1_555
O4 Tl1 2.694286 1_555
O4 Tl1 2.694286 1_665
O4 Tl1 2.694286 1_565
O4 Tl1 2.694286 1_655
O7 Tl1 2.069887 1_555
O11 Tl0 2.069887 1_555
