# generated using pymatgen
data_Cs3Cu20Te13
_symmetry_space_group_name_H-M   'P 1'
_cell_length_a   10.54692332
_cell_length_b   10.54692332
_cell_length_c   10.54692332
_cell_angle_alpha   60.00000000
_cell_angle_beta   60.00000000
_cell_angle_gamma   60.00000000
_symmetry_Int_Tables_number   1
_chemical_formula_structural   Cs3Cu20Te13
_chemical_formula_sum   'Cs3 Cu20 Te13'
_cell_volume   829.58782121
_cell_formula_units_Z   1
loop_
 _symmetry_equiv_pos_site_id
 _symmetry_equiv_pos_as_xyz
  1  'x, y, z'
loop_
 _atom_site_type_symbol
 _atom_site_label
 _atom_site_symmetry_multiplicity
 _atom_site_fract_x
 _atom_site_fract_y
 _atom_site_fract_z
 _atom_site_occupancy
  Cs  Cs0  1  0.25000000  0.25000000  0.25000000  1
  Cs  Cs1  1  0.75000000  0.75000000  0.75000000  1
  Cs  Cs2  1  0.50000000  0.50000000  0.50000000  1
  Cu  Cu0  1  0.89633800  0.89633800  0.31098700  1
  Cu  Cu1  1  0.10366200  0.10366200  0.68901300  1
  Cu  Cu2  1  0.89633800  0.31098700  0.89633800  1
  Cu  Cu3  1  0.10366200  0.68901300  0.10366200  1
  Cu  Cu4  1  0.31098700  0.89633800  0.89633800  1
  Cu  Cu5  1  0.68901300  0.10366200  0.10366200  1
  Cu  Cu6  1  0.89633800  0.89633800  0.89633800  1
  Cu  Cu7  1  0.10366200  0.10366200  0.10366200  1
  Cu  Cu8  1  0.63024000  0.88208600  0.36976000  1
  Cu  Cu9  1  0.88208600  0.11791400  0.36976000  1
  Cu  Cu10  1  0.11791400  0.63024000  0.36976000  1
  Cu  Cu11  1  0.36976000  0.11791400  0.63024000  1
  Cu  Cu12  1  0.11791400  0.88208600  0.63024000  1
  Cu  Cu13  1  0.88208600  0.36976000  0.63024000  1
  Cu  Cu14  1  0.11791400  0.36976000  0.88208600  1
  Cu  Cu15  1  0.63024000  0.36976000  0.11791400  1
  Cu  Cu16  1  0.88208600  0.63024000  0.11791400  1
  Cu  Cu17  1  0.36976000  0.63024000  0.88208600  1
  Cu  Cu18  1  0.36976000  0.88208600  0.11791400  1
  Cu  Cu19  1  0.63024000  0.11791400  0.88208600  1
  Te  Te0  1  0.86837100  0.62026300  0.37973700  1
  Te  Te1  1  0.62026300  0.13162900  0.37973700  1
  Te  Te2  1  0.13162900  0.86837100  0.37973700  1
  Te  Te3  1  0.13162900  0.37973700  0.62026300  1
  Te  Te4  1  0.37973700  0.86837100  0.62026300  1
  Te  Te5  1  0.86837100  0.13162900  0.62026300  1
  Te  Te6  1  0.86837100  0.37973700  0.13162900  1
  Te  Te7  1  0.62026300  0.37973700  0.86837100  1
  Te  Te8  1  0.13162900  0.62026300  0.86837100  1
  Te  Te9  1  0.37973700  0.62026300  0.13162900  1
  Te  Te10  1  0.37973700  0.13162900  0.86837100  1
  Te  Te11  1  0.62026300  0.86837100  0.13162900  1
  Te  Te12  1  0.00000000  0.00000000  0.00000000  1
loop_
_geom_bond_atom_site_label_1
_geom_bond_atom_site_label_2
_geom_bond_distance
_geom_bond_site_symmetry_2
Cs0 Cu1 3.780572 1_555
Cs0 Cu3 3.780572 1_555
Cs0 Cu5 3.780572 1_555
Cs0 Cu7 3.780581 1_555
Cs0 Cu11 4.163914 1_555
Cs0 Cu15 4.163914 1_555
Cs0 Cu10 4.163914 1_555
Cs0 Cu13 4.163914 1_455
Cs0 Cu17 4.163914 1_554
Cs0 Cu8 4.163914 1_545
Cs0 Cu19 4.163914 1_554
Cs0 Cu12 4.163914 1_545
Cs0 Cu16 4.163914 1_455
Cs0 Cu18 4.163914 1_545
Cs0 Cu9 4.163914 1_455
Cs0 Cu14 4.163914 1_554
Cs0 Te4 4.176227 1_545
Cs0 Te5 4.176227 1_455
Cs0 Te3 4.176227 1_555
Cs0 Te7 4.176227 1_554
Cs0 Te6 4.176227 1_455
Cs0 Te1 4.176227 1_555
Cs0 Te2 4.176227 1_545
Cs0 Te10 4.176227 1_554
Cs0 Te11 4.176227 1_545
Cs0 Te0 4.176227 1_455
Cs0 Te9 4.176227 1_555
Cs0 Te8 4.176227 1_554
Cs1 Cu0 3.780572 1_555
Cs1 Cu4 3.780572 1_555
Cs1 Cu2 3.780572 1_555
Cs1 Cu6 3.780581 1_555
Cs1 Cu19 4.163914 1_565
Cs1 Cu16 4.163914 1_556
Cs1 Cu12 4.163914 1_655
Cs1 Cu14 4.163914 1_655
Cs1 Cu9 4.163914 1_565
Cs1 Cu18 4.163914 1_556
Cs1 Cu15 4.163914 1_556
Cs1 Cu10 4.163914 1_655
Cs1 Cu11 4.163914 1_565
Cs1 Cu8 4.163914 1_555
Cs1 Cu17 4.163914 1_555
Cs1 Cu13 4.163914 1_555
Cs1 Te10 4.176227 1_565
Cs1 Te11 4.176227 1_556
Cs1 Te8 4.176227 1_655
Cs1 Te7 4.176227 1_555
Cs1 Te4 4.176227 1_555
Cs1 Te0 4.176227 1_555
Cs1 Te6 4.176227 1_556
Cs1 Te5 4.176227 1_565
Cs1 Te3 4.176227 1_655
Cs1 Te2 4.176227 1_655
Cs1 Te9 4.176227 1_556
Cs1 Te1 4.176227 1_565
Cs2 Te2 4.086989 1_555
Cs2 Te3 4.086989 1_555
Cs2 Te10 4.086989 1_555
Cs2 Te0 4.086989 1_555
Cs2 Te1 4.086989 1_555
Cs2 Te8 4.086989 1_555
Cs2 Te9 4.086989 1_555
Cs2 Te11 4.086989 1_555
Cs2 Te6 4.086989 1_555
Cs2 Te5 4.086989 1_555
Cs2 Te7 4.086989 1_555
Cs2 Te4 4.086989 1_555
Cs2 Cu13 4.257512 1_555
Cs2 Cu8 4.257512 1_555
Cs2 Cu17 4.257512 1_555
Cs2 Cu16 4.257512 1_555
Cs2 Cu19 4.257512 1_555
Cs2 Cu12 4.257512 1_555
Cs2 Cu18 4.257512 1_555
Cs2 Cu14 4.257512 1_555
Cs2 Cu9 4.257512 1_555
Cs2 Cu15 4.257512 1_555
Cs2 Cu11 4.257512 1_555
Cs2 Cu10 4.257512 1_555
Cu0 Cu9 2.621509 1_565
Cu0 Cu10 2.621514 1_655
Cu0 Cu8 2.621519 1_555
Cu0 Te12 2.678073 1_665
Cu0 Te2 2.761275 1_655
Cu0 Te1 2.761280 1_565
Cu0 Te0 2.761285 1_555
Cu1 Cu12 2.621509 1_545
Cu1 Cu13 2.621514 1_455
Cu1 Cu11 2.621519 1_555
Cu1 Te12 2.678073 1_556
Cu1 Te5 2.761275 1_455
Cu1 Te4 2.761280 1_545
Cu1 Te3 2.761285 1_555
Cu2 Te12 2.678073 1_656
Cu2 Te6 2.761275 1_556
Cu2 Te3 2.761280 1_655
Cu2 Te7 2.761285 1_555
Cu3 Te12 2.678073 1_565
Cu3 Te8 2.761275 1_554
Cu3 Te0 2.761280 1_455
Cu3 Te9 2.761285 1_555
Cu4 Te12 2.678073 1_566
Cu4 Te10 2.761275 1_565
Cu4 Te9 2.761280 1_556
Cu4 Te4 2.761285 1_555
Cu5 Cu8 2.621514 1_545
Cu5 Te12 2.678073 1_655
Cu5 Te11 2.761275 1_545
Cu5 Te7 2.761280 1_554
Cu5 Te1 2.761285 1_555
Cu6 Te12 2.678064 1_666
Cu6 Te8 2.761282 1_655
Cu6 Te11 2.761282 1_556
Cu6 Te5 2.761282 1_565
Cu7 Cu9 2.621516 1_455
Cu7 Te12 2.678064 1_555
Cu7 Te2 2.761282 1_545
Cu7 Te10 2.761282 1_554
Cu7 Te6 2.761282 1_455
Cu8 Te1 2.634014 1_565
Cu8 Te0 2.642476 1_555
Cu8 Te11 2.642476 1_555
Cu8 Te4 2.645993 1_555
Cu9 Te2 2.634014 1_645
Cu9 Te1 2.642476 1_555
Cu9 Te6 2.642476 1_555
Cu9 Te5 2.645993 1_555
Cu10 Cu3 2.621519 1_555
Cu10 Te0 2.634014 1_455
Cu10 Te2 2.642476 1_555
Cu10 Te9 2.642476 1_555
Cu10 Te3 2.645993 1_555
Cu11 Cu4 2.621514 1_545
Cu11 Te4 2.634014 1_545
Cu11 Te10 2.642476 1_555
Cu11 Te3 2.642476 1_555
Cu11 Te1 2.645993 1_555
Cu12 Cu6 2.621516 1_455
Cu12 Te5 2.634014 1_465
Cu12 Te8 2.642476 1_555
Cu12 Te4 2.642476 1_555
Cu12 Te2 2.645993 1_555
Cu13 Cu2 2.621519 1_555
Cu13 Te3 2.634014 1_655
Cu13 Te7 2.642476 1_555
Cu13 Te5 2.642476 1_555
Cu13 Te0 2.645993 1_555
Cu14 Cu2 2.621509 1_455
Cu14 Cu7 2.621516 1_556
Cu14 Te6 2.634014 1_456
Cu14 Te3 2.642476 1_555
Cu14 Te10 2.642476 1_555
Cu14 Te8 2.645993 1_555
Cu15 Cu2 2.621514 1_554
Cu15 Cu5 2.621519 1_555
Cu15 Te7 2.634014 1_554
Cu15 Te1 2.642476 1_555
Cu15 Te6 2.642476 1_555
Cu15 Te9 2.645993 1_555
Cu16 Cu3 2.621509 1_655
Cu16 Cu6 2.621516 1_554
Cu16 Te8 2.634014 1_654
Cu16 Te11 2.642476 1_555
Cu16 Te0 2.642476 1_555
Cu16 Te6 2.645993 1_555
Cu17 Cu3 2.621514 1_556
Cu17 Cu4 2.621519 1_555
Cu17 Te9 2.634014 1_556
Cu17 Te4 2.642476 1_555
Cu17 Te8 2.642476 1_555
Cu17 Te7 2.645993 1_555
Cu18 Cu4 2.621509 1_554
Cu18 Cu7 2.621516 1_565
Cu18 Te10 2.634014 1_564
Cu18 Te9 2.642476 1_555
Cu18 Te2 2.642476 1_555
Cu18 Te11 2.645993 1_555
Cu19 Cu5 2.621509 1_556
Cu19 Cu6 2.621516 1_545
Cu19 Te11 2.634014 1_546
Cu19 Te5 2.642476 1_555
Cu19 Te7 2.642476 1_555
Cu19 Te10 2.645993 1_555
