# generated using pymatgen
data_TcPt
_symmetry_space_group_name_H-M   'P 1'
_cell_length_a   5.56541185
_cell_length_b   5.56541185
_cell_length_c   8.97173000
_cell_angle_alpha   90.00000000
_cell_angle_beta   90.00000000
_cell_angle_gamma   119.99999820
_symmetry_Int_Tables_number   1
_chemical_formula_structural   TcPt
_chemical_formula_sum   'Tc8 Pt8'
_cell_volume   240.65863628
_cell_formula_units_Z   8
loop_
 _symmetry_equiv_pos_site_id
 _symmetry_equiv_pos_as_xyz
  1  'x, y, z'
loop_
 _atom_site_type_symbol
 _atom_site_label
 _atom_site_symmetry_multiplicity
 _atom_site_fract_x
 _atom_site_fract_y
 _atom_site_fract_z
 _atom_site_occupancy
  Tc  Tc0_0  1  0.33333350  0.16666650  0.00000000  1
  Tc  Tc0_1  1  0.33333350  0.16666650  0.50000000  1
  Tc  Tc0_2  1  0.33333350  0.66666650  0.00000000  1
  Tc  Tc0_3  1  0.33333350  0.66666650  0.50000000  1
  Tc  Tc0_4  1  0.83333350  0.16666650  0.00000000  1
  Tc  Tc0_5  1  0.83333350  0.16666650  0.50000000  1
  Tc  Tc0_6  1  0.83333350  0.66666650  0.00000000  1
  Tc  Tc0_7  1  0.83333350  0.66666650  0.50000000  1
  Pt  Pt0_0  1  0.00000000  0.00000000  0.25000000  1
  Pt  Pt0_1  1  0.00000000  0.00000000  0.75000000  1
  Pt  Pt0_2  1  0.00000000  0.50000000  0.25000000  1
  Pt  Pt0_3  1  0.00000000  0.50000000  0.75000000  1
  Pt  Pt0_4  1  0.50000000  0.00000000  0.25000000  1
  Pt  Pt0_5  1  0.50000000  0.00000000  0.75000000  1
  Pt  Pt0_6  1  0.50000000  0.50000000  0.25000000  1
  Pt  Pt0_7  1  0.50000000  0.50000000  0.75000000  1
loop_
_geom_bond_atom_site_label_1
_geom_bond_atom_site_label_2
_geom_bond_distance
_geom_bond_site_symmetry_2
Tc0_0 Tc0_4 2.782706 1_555
Tc0_0 Tc0_2 2.782706 1_555
Tc0_0 Tc0_2 2.782706 1_545
Tc0_0 Tc0_4 2.782706 1_455
Tc0_0 Tc0_6 2.782706 1_555
Tc0_0 Tc0_6 2.782706 1_445
Tc0_1 Tc0_5 2.782706 1_555
Tc0_1 Tc0_3 2.782706 1_555
Tc0_1 Tc0_3 2.782706 1_545
Tc0_1 Tc0_5 2.782706 1_455
Tc0_1 Tc0_7 2.782706 1_555
Tc0_1 Tc0_7 2.782706 1_445
Tc0_2 Tc0_6 2.782706 1_555
Tc0_2 Tc0_6 2.782706 1_455
Tc0_2 Tc0_4 2.782706 1_565
Tc0_2 Tc0_4 2.782706 1_455
Tc0_3 Tc0_7 2.782706 1_555
Tc0_3 Tc0_7 2.782706 1_455
Tc0_3 Tc0_5 2.782706 1_565
Tc0_3 Tc0_5 2.782706 1_455
Tc0_4 Tc0_6 2.782706 1_555
Tc0_4 Tc0_6 2.782706 1_545
Tc0_5 Tc0_7 2.782706 1_555
Tc0_5 Tc0_7 2.782706 1_545
Pt0_0 Tc0_5 2.758966 1_455
Pt0_0 Tc0_4 2.758966 1_455
Pt0_0 Tc0_0 2.758967 1_555
Pt0_0 Tc0_1 2.758967 1_555
Pt0_0 Tc0_6 2.758967 1_445
Pt0_0 Tc0_7 2.758967 1_445
Pt0_0 Pt0_2 2.782706 1_555
Pt0_0 Pt0_4 2.782706 1_555
Pt0_0 Pt0_4 2.782706 1_455
Pt0_0 Pt0_2 2.782706 1_545
Pt0_0 Pt0_6 2.782706 1_555
Pt0_0 Pt0_6 2.782706 1_445
Pt0_1 Tc0_5 2.758966 1_455
Pt0_1 Tc0_4 2.758966 1_456
Pt0_1 Tc0_0 2.758967 1_556
Pt0_1 Tc0_1 2.758967 1_555
Pt0_1 Tc0_6 2.758967 1_446
Pt0_1 Tc0_7 2.758967 1_445
Pt0_1 Pt0_3 2.782706 1_555
Pt0_1 Pt0_5 2.782706 1_555
Pt0_1 Pt0_5 2.782706 1_455
Pt0_1 Pt0_3 2.782706 1_545
Pt0_1 Pt0_7 2.782706 1_555
Pt0_1 Pt0_7 2.782706 1_445
Pt0_2 Tc0_7 2.758966 1_455
Pt0_2 Tc0_6 2.758966 1_455
Pt0_2 Tc0_4 2.758967 1_455
Pt0_2 Tc0_5 2.758967 1_455
Pt0_2 Tc0_3 2.758967 1_555
Pt0_2 Tc0_2 2.758967 1_555
Pt0_2 Pt0_6 2.782706 1_555
Pt0_2 Pt0_6 2.782706 1_455
Pt0_2 Pt0_4 2.782706 1_565
Pt0_2 Pt0_4 2.782706 1_455
Pt0_3 Tc0_7 2.758966 1_455
Pt0_3 Tc0_6 2.758966 1_456
Pt0_3 Tc0_5 2.758967 1_455
Pt0_3 Tc0_2 2.758967 1_556
Pt0_3 Tc0_4 2.758967 1_456
Pt0_3 Tc0_3 2.758967 1_555
Pt0_3 Pt0_7 2.782706 1_555
Pt0_3 Pt0_7 2.782706 1_455
Pt0_3 Pt0_5 2.782706 1_565
Pt0_3 Pt0_5 2.782706 1_455
Pt0_4 Tc0_1 2.758966 1_555
Pt0_4 Tc0_0 2.758966 1_555
Pt0_4 Tc0_3 2.758967 1_545
Pt0_4 Tc0_5 2.758967 1_555
Pt0_4 Tc0_4 2.758967 1_555
Pt0_4 Tc0_2 2.758967 1_545
Pt0_4 Pt0_6 2.782706 1_555
Pt0_4 Pt0_6 2.782706 1_545
Pt0_5 Tc0_1 2.758966 1_555
Pt0_5 Tc0_0 2.758966 1_556
Pt0_5 Tc0_3 2.758967 1_545
Pt0_5 Tc0_5 2.758967 1_555
Pt0_5 Tc0_4 2.758967 1_556
Pt0_5 Tc0_2 2.758967 1_546
Pt0_5 Pt0_7 2.782706 1_555
Pt0_5 Pt0_7 2.782706 1_545
Pt0_6 Tc0_2 2.758966 1_555
Pt0_6 Tc0_3 2.758966 1_555
Pt0_6 Tc0_0 2.758967 1_555
Pt0_6 Tc0_7 2.758967 1_555
Pt0_6 Tc0_6 2.758967 1_555
Pt0_6 Tc0_1 2.758967 1_555
Pt0_7 Tc0_3 2.758966 1_555
Pt0_7 Tc0_2 2.758966 1_556
Pt0_7 Tc0_7 2.758967 1_555
Pt0_7 Tc0_0 2.758967 1_556
Pt0_7 Tc0_1 2.758967 1_555
Pt0_7 Tc0_6 2.758967 1_556
