# generated using pymatgen
data_La3Nd(GaO3)4
_symmetry_space_group_name_H-M   'P 1'
_cell_length_a   5.50980589
_cell_length_b   5.50980589
_cell_length_c   9.67043480
_cell_angle_alpha   72.98564244
_cell_angle_beta   72.98564244
_cell_angle_gamma   60.89187239
_symmetry_Int_Tables_number   1
_chemical_formula_structural   La3Nd(GaO3)4
_chemical_formula_sum   'La3 Nd1 Ga4 O12'
_cell_volume   241.27073851
_cell_formula_units_Z   1
loop_
 _symmetry_equiv_pos_site_id
 _symmetry_equiv_pos_as_xyz
  1  'x, y, z'
loop_
 _atom_site_type_symbol
 _atom_site_label
 _atom_site_symmetry_multiplicity
 _atom_site_fract_x
 _atom_site_fract_y
 _atom_site_fract_z
 _atom_site_occupancy
  La  La0  1  0.87591900  0.12408100  0.00000000  1
  La  La1  1  0.12457600  0.37451200  0.25101500  1
  La  La2  1  0.62548800  0.87542400  0.74898500  1
  Nd  Nd0  1  0.37396600  0.62603400  0.50000000  1
  Ga  Ga0  1  0.74987500  0.00015100  0.37553600  1
  Ga  Ga1  1  0.25032300  0.49998100  0.87439700  1
  Ga  Ga2  1  0.99984900  0.25012500  0.62446400  1
  Ga  Ga3  1  0.50001900  0.74967700  0.12560300  1
  O  O0  1  0.94959900  0.05040100  0.50000000  1
  O  O1  1  0.44302800  0.55697200  0.00000000  1
  O  O2  1  0.08976400  0.90986100  0.21571400  1
  O  O3  1  0.58885800  0.41147600  0.71286200  1
  O  O4  1  0.58852400  0.41114200  0.28713800  1
  O  O5  1  0.09013900  0.91023600  0.78428600  1
  O  O6  1  0.40933900  0.09155600  0.53373900  1
  O  O7  1  0.90836300  0.59070900  0.03398000  1
  O  O8  1  0.90844400  0.59066100  0.46626100  1
  O  O9  1  0.40929100  0.09163700  0.96602000  1
  O  O10  1  0.55544700  0.94080900  0.25234000  1
  O  O11  1  0.05919100  0.44455300  0.74766000  1
loop_
_geom_bond_atom_site_label_1
_geom_bond_atom_site_label_2
_geom_bond_distance
_geom_bond_site_symmetry_2
La0 O2 2.403630 1_645
La0 O5 2.403630 1_644
La0 O1 2.417226 1_555
La0 O7 2.779582 1_555
La0 O9 2.779582 1_554
La0 O9 2.781091 1_654
La0 O7 2.781091 1_545
La0 O11 2.804163 1_654
La0 O10 2.804163 1_545
La1 O8 2.406134 1_455
La1 O10 2.413901 1_545
La1 O7 2.421294 1_455
La1 O0 2.777800 1_455
La1 O2 2.781217 1_545
La1 O4 2.782747 1_455
La1 O2 2.784324 1_555
La1 O4 2.786222 1_555
La1 O1 2.788758 1_555
La2 O6 2.406134 1_565
La2 O11 2.413901 1_655
La2 O9 2.421294 1_565
La2 O0 2.777800 1_565
La2 O5 2.781217 1_655
La2 O3 2.782747 1_565
La2 O5 2.784324 1_555
La2 O3 2.786222 1_555
La2 O1 2.788758 1_556
Nd0 O0 2.369629 1_465
Nd0 O4 2.382672 1_555
Nd0 O3 2.382672 1_555
Nd0 O11 2.756565 1_555
Nd0 O10 2.756565 1_555
Nd0 O6 2.780865 1_555
Nd0 O8 2.780865 1_555
Nd0 O8 2.781486 1_455
Nd0 O6 2.781486 1_565
Ga0 O6 1.991563 1_555
Ga0 O10 1.997366 1_545
Ga0 O2 1.998247 1_645
Ga0 O8 1.998967 1_545
Ga0 O4 2.000558 1_555
Ga0 O0 2.000728 1_555
Ga1 O9 1.996126 1_555
Ga1 O11 1.997918 1_555
Ga1 O1 2.000903 1_556
Ga1 O5 2.001048 1_555
Ga1 O3 2.003210 1_555
Ga1 O7 2.003725 1_456
Ga2 O8 1.991563 1_555
Ga2 O11 1.997366 1_655
Ga2 O5 1.998247 1_645
Ga2 O6 1.998967 1_655
Ga2 O3 2.000558 1_555
Ga2 O0 2.000728 1_555
Ga3 O7 1.996126 1_555
Ga3 O10 1.997918 1_555
Ga3 O1 2.000903 1_555
Ga3 O2 2.001048 1_555
Ga3 O4 2.003210 1_555
Ga3 O9 2.003725 1_564
