# generated using pymatgen
data_Pr16(Mo3O8)7
_symmetry_space_group_name_H-M   'P 1'
_cell_length_a   13.75363917
_cell_length_b   13.78143900
_cell_length_c   13.80232911
_cell_angle_alpha   90.00000000
_cell_angle_beta   101.10478977
_cell_angle_gamma   90.00000000
_symmetry_Int_Tables_number   1
_chemical_formula_structural   Pr16(Mo3O8)7
_chemical_formula_sum   'Pr32 Mo42 O112'
_cell_volume   2567.17810353
_cell_formula_units_Z   2
loop_
 _symmetry_equiv_pos_site_id
 _symmetry_equiv_pos_as_xyz
  1  'x, y, z'
loop_
 _atom_site_type_symbol
 _atom_site_label
 _atom_site_symmetry_multiplicity
 _atom_site_fract_x
 _atom_site_fract_y
 _atom_site_fract_z
 _atom_site_occupancy
  Pr  Pr0  1  0.22917600  0.62001200  0.63059000  1
  Pr  Pr1  1  0.27082400  0.12001200  0.36941000  1
  Pr  Pr2  1  0.77082400  0.37998800  0.36941000  1
  Pr  Pr3  1  0.72917600  0.87998800  0.63059000  1
  Pr  Pr4  1  0.22784300  0.80227800  0.86736000  1
  Pr  Pr5  1  0.27215700  0.30227800  0.13264000  1
  Pr  Pr6  1  0.77215700  0.19772200  0.13264000  1
  Pr  Pr7  1  0.72784300  0.69772200  0.86736000  1
  Pr  Pr8  1  0.43090100  0.81211300  0.68392500  1
  Pr  Pr9  1  0.06909900  0.31211300  0.31607500  1
  Pr  Pr10  1  0.56909900  0.18788700  0.31607500  1
  Pr  Pr11  1  0.93090100  0.68788700  0.68392500  1
  Pr  Pr12  1  0.45343600  0.61248900  0.89377100  1
  Pr  Pr13  1  0.04656400  0.11248900  0.10622900  1
  Pr  Pr14  1  0.54656400  0.38751100  0.10622900  1
  Pr  Pr15  1  0.95343600  0.88751100  0.89377100  1
  Pr  Pr16  1  0.85497400  0.66498500  0.35084500  1
  Pr  Pr17  1  0.64502600  0.16498500  0.64915500  1
  Pr  Pr18  1  0.14502600  0.33501500  0.64915500  1
  Pr  Pr19  1  0.35497400  0.83501500  0.35084500  1
  Pr  Pr20  1  0.37242200  0.58658900  0.14885900  1
  Pr  Pr21  1  0.12757800  0.08658900  0.85114100  1
  Pr  Pr22  1  0.62757800  0.41341100  0.85114100  1
  Pr  Pr23  1  0.87242200  0.91341100  0.14885900  1
  Pr  Pr24  1  0.36335700  0.33067800  0.87302700  1
  Pr  Pr25  1  0.13664300  0.83067800  0.12697300  1
  Pr  Pr26  1  0.63664300  0.66932200  0.12697300  1
  Pr  Pr27  1  0.86335700  0.16932200  0.87302700  1
  Pr  Pr28  1  0.14031800  0.62769500  0.30902900  1
  Pr  Pr29  1  0.35968200  0.12769500  0.69097100  1
  Pr  Pr30  1  0.85968200  0.37230500  0.69097100  1
  Pr  Pr31  1  0.64031800  0.87230500  0.30902900  1
  Mo  Mo0  1  0.27067100  0.41966200  0.47320600  1
  Mo  Mo1  1  0.22932900  0.91966200  0.52679400  1
  Mo  Mo2  1  0.72932900  0.58033800  0.52679400  1
  Mo  Mo3  1  0.77067100  0.08033800  0.47320600  1
  Mo  Mo4  1  0.42649400  0.27637400  0.51962400  1
  Mo  Mo5  1  0.07350600  0.77637400  0.48037600  1
  Mo  Mo6  1  0.57350600  0.72362600  0.48037600  1
  Mo  Mo7  1  0.92649400  0.22362600  0.51962400  1
  Mo  Mo8  1  0.43073000  0.43934300  0.65252000  1
  Mo  Mo9  1  0.06927000  0.93934300  0.34748000  1
  Mo  Mo10  1  0.56927000  0.56065700  0.34748000  1
  Mo  Mo11  1  0.93073000  0.06065700  0.65252000  1
  Mo  Mo12  1  0.41564500  0.40239700  0.34803700  1
  Mo  Mo13  1  0.08435500  0.90239700  0.65196300  1
  Mo  Mo14  1  0.58435500  0.59760300  0.65196300  1
  Mo  Mo15  1  0.91564500  0.09760300  0.34803700  1
  Mo  Mo16  1  0.41615100  0.57308900  0.47883700  1
  Mo  Mo17  1  0.08384900  0.07308900  0.52116300  1
  Mo  Mo18  1  0.58384900  0.42691100  0.52116300  1
  Mo  Mo19  1  0.91615100  0.92691100  0.47883700  1
  Mo  Mo20  1  0.22765800  0.49680800  0.95479000  1
  Mo  Mo21  1  0.27234200  0.99680800  0.04521000  1
  Mo  Mo22  1  0.77234200  0.50319200  0.04521000  1
  Mo  Mo23  1  0.72765800  0.00319200  0.95479000  1
  Mo  Mo24  1  0.07847100  0.50948900  0.79131600  1
  Mo  Mo25  1  0.42152900  0.00948900  0.20868400  1
  Mo  Mo26  1  0.92152900  0.49051100  0.20868400  1
  Mo  Mo27  1  0.57847100  0.99051100  0.79131600  1
  Mo  Mo28  1  0.06541200  0.34600300  0.92561900  1
  Mo  Mo29  1  0.43458800  0.84600300  0.07438100  1
  Mo  Mo30  1  0.93458800  0.65399700  0.07438100  1
  Mo  Mo31  1  0.56541200  0.15399700  0.92561900  1
  Mo  Mo32  1  0.08187000  0.64482000  0.95207800  1
  Mo  Mo33  1  0.41813000  0.14482000  0.04792200  1
  Mo  Mo34  1  0.91813000  0.35518000  0.04792200  1
  Mo  Mo35  1  0.58187000  0.85518000  0.95207800  1
  Mo  Mo36  1  0.92058400  0.51061900  0.90905200  1
  Mo  Mo37  1  0.57941600  0.01061900  0.09094800  1
  Mo  Mo38  1  0.07941600  0.48938100  0.09094800  1
  Mo  Mo39  1  0.42058400  0.98938100  0.90905200  1
  Mo  Mo40  1  0.00000000  0.50000000  0.50000000  1
  Mo  Mo41  1  0.50000000  0.00000000  0.50000000  1
  O  O0  1  0.26829800  0.39783600  0.32922000  1
  O  O1  1  0.23170200  0.89783600  0.67078000  1
  O  O2  1  0.73170200  0.60216400  0.67078000  1
  O  O3  1  0.76829800  0.10216400  0.32922000  1
  O  O4  1  0.27689000  0.44026800  0.62053400  1
  O  O5  1  0.22311000  0.94026800  0.37946600  1
  O  O6  1  0.72311000  0.55973200  0.37946600  1
  O  O7  1  0.77689000  0.05973200  0.62053400  1
  O  O8  1  0.26080100  0.56842100  0.45931100  1
  O  O9  1  0.23919900  0.06842100  0.54068900  1
  O  O10  1  0.73919900  0.43157900  0.54068900  1
  O  O11  1  0.76080100  0.93157900  0.45931100  1
  O  O12  1  0.27449100  0.26845200  0.48496900  1
  O  O13  1  0.22550900  0.76845200  0.51503100  1
  O  O14  1  0.72550900  0.73154800  0.51503100  1
  O  O15  1  0.77449100  0.23154800  0.48496900  1
  O  O16  1  0.11240300  0.41409800  0.46222000  1
  O  O17  1  0.38759700  0.91409800  0.53778000  1
  O  O18  1  0.88759700  0.58590200  0.53778000  1
  O  O19  1  0.61240300  0.08590200  0.46222000  1
  O  O20  1  0.41754800  0.25341000  0.36913000  1
  O  O21  1  0.08245200  0.75341000  0.63087000  1
  O  O22  1  0.58245200  0.74659000  0.63087000  1
  O  O23  1  0.91754800  0.24659000  0.36913000  1
  O  O24  1  0.42912700  0.28633300  0.66508300  1
  O  O25  1  0.07087300  0.78633300  0.33491700  1
  O  O26  1  0.57087300  0.71366700  0.33491700  1
  O  O27  1  0.92912700  0.21366700  0.66508300  1
  O  O28  1  0.57362000  0.27837200  0.52998200  1
  O  O29  1  0.92638000  0.77837200  0.47001800  1
  O  O30  1  0.42638000  0.72162800  0.47001800  1
  O  O31  1  0.07362000  0.22162800  0.52998200  1
  O  O32  1  0.44117400  0.12426600  0.54771600  1
  O  O33  1  0.05882600  0.62426600  0.45228400  1
  O  O34  1  0.55882600  0.87573400  0.45228400  1
  O  O35  1  0.94117400  0.37573400  0.54771600  1
  O  O36  1  0.42610000  0.59743100  0.63407000  1
  O  O37  1  0.07390000  0.09743100  0.36593000  1
  O  O38  1  0.57390000  0.40256900  0.36593000  1
  O  O39  1  0.92610000  0.90256900  0.63407000  1
  O  O40  1  0.59131600  0.44663300  0.67515900  1
  O  O41  1  0.90868400  0.94663300  0.32484100  1
  O  O42  1  0.40868400  0.55336700  0.32484100  1
  O  O43  1  0.09131600  0.05336700  0.67515900  1
  O  O44  1  0.45432800  0.45293100  0.80464700  1
  O  O45  1  0.04567200  0.95293100  0.19535300  1
  O  O46  1  0.54567200  0.54706900  0.19535300  1
  O  O47  1  0.95432800  0.04706900  0.80464700  1
  O  O48  1  0.41536100  0.39348600  0.20339800  1
  O  O49  1  0.08463900  0.89348600  0.79660200  1
  O  O50  1  0.58463900  0.60651400  0.79660200  1
  O  O51  1  0.91536100  0.10651400  0.20339800  1
  O  O52  1  0.23702700  0.64149900  0.97185100  1
  O  O53  1  0.26297300  0.14149900  0.02814900  1
  O  O54  1  0.76297300  0.35850100  0.02814900  1
  O  O55  1  0.73702700  0.85850100  0.97185100  1
  O  O56  1  0.21821100  0.34520400  0.95534500  1
  O  O57  1  0.28178900  0.84520400  0.04465500  1
  O  O58  1  0.78178900  0.65479600  0.04465500  1
  O  O59  1  0.71821100  0.15479600  0.95534500  1
  O  O60  1  0.23231400  0.47857300  0.10571300  1
  O  O61  1  0.26768600  0.97857300  0.89428700  1
  O  O62  1  0.76768600  0.52142700  0.89428700  1
  O  O63  1  0.73231400  0.02142700  0.10571300  1
  O  O64  1  0.23624500  0.48565300  0.81389400  1
  O  O65  1  0.26375500  0.98565300  0.18610600  1
  O  O66  1  0.76375500  0.51434700  0.18610600  1
  O  O67  1  0.73624500  0.01434700  0.81389400  1
  O  O68  1  0.38663400  0.49526800  0.99270300  1
  O  O69  1  0.11336600  0.99526800  0.00729700  1
  O  O70  1  0.61336600  0.50473200  0.00729700  1
  O  O71  1  0.88663400  0.00473200  0.99270300  1
  O  O72  1  0.08355000  0.66196700  0.80555500  1
  O  O73  1  0.41645000  0.16196700  0.19444500  1
  O  O74  1  0.91645000  0.33803300  0.19444500  1
  O  O75  1  0.58355000  0.83803300  0.80555500  1
  O  O76  1  0.05257200  0.35908000  0.77470600  1
  O  O77  1  0.44742800  0.85908000  0.22529400  1
  O  O78  1  0.94742800  0.64092000  0.22529400  1
  O  O79  1  0.55257200  0.14092000  0.77470600  1
  O  O80  1  0.92122500  0.52706100  0.75631300  1
  O  O81  1  0.57877500  0.02706100  0.24368700  1
  O  O82  1  0.07877500  0.47293900  0.24368700  1
  O  O83  1  0.42122500  0.97293900  0.75631300  1
  O  O84  1  0.08969500  0.51772500  0.64110100  1
  O  O85  1  0.41030500  0.01772500  0.35889900  1
  O  O86  1  0.91030500  0.48227500  0.35889900  1
  O  O87  1  0.58969500  0.98227500  0.64110100  1
  O  O88  1  0.07649500  0.33438800  0.08208200  1
  O  O89  1  0.42350500  0.83438800  0.91791800  1
  O  O90  1  0.92350500  0.66561200  0.91791800  1
  O  O91  1  0.57649500  0.16561200  0.08208200  1
  O  O92  1  0.90611900  0.35269300  0.88951200  1
  O  O93  1  0.59388100  0.85269300  0.11048800  1
  O  O94  1  0.09388100  0.64730700  0.11048800  1
  O  O95  1  0.40611900  0.14730700  0.88951200  1
  O  O96  1  0.04667300  0.19699500  0.93091300  1
  O  O97  1  0.45332700  0.69699500  0.06908700  1
  O  O98  1  0.95332700  0.80300500  0.06908700  1
  O  O99  1  0.54667300  0.30300500  0.93091300  1
  O  O100  1  0.09565300  0.79104900  0.95940300  1
  O  O101  1  0.40434700  0.29104900  0.04059700  1
  O  O102  1  0.90434700  0.20895100  0.04059700  1
  O  O103  1  0.59565300  0.70895100  0.95940300  1
  O  O104  1  0.74783800  0.26976900  0.75055000  1
  O  O105  1  0.75216200  0.76976900  0.24945000  1
  O  O106  1  0.25216200  0.73023100  0.24945000  1
  O  O107  1  0.24783800  0.23023100  0.75055000  1
  O  O108  1  0.82680500  0.79217400  0.76128600  1
  O  O109  1  0.67319500  0.29217400  0.23871400  1
  O  O110  1  0.17319500  0.20782600  0.23871400  1
  O  O111  1  0.32680500  0.70782600  0.76128600  1
loop_
_geom_bond_atom_site_label_1
_geom_bond_atom_site_label_2
_geom_bond_distance
_geom_bond_site_symmetry_2
Mo0 O0 2.004017 1_555
Mo0 O4 2.038617 1_555
Mo0 O8 2.061103 1_555
Mo0 O12 2.090081 1_555
Mo0 O16 2.154070 1_555
Mo1 O1 2.004017 1_555
Mo1 O5 2.038617 1_555
Mo1 O9 2.061103 1_565
Mo1 O13 2.090081 1_555
Mo1 O17 2.154070 1_555
Mo2 O2 2.004017 1_555
Mo2 O6 2.038617 1_555
Mo2 O10 2.061103 1_555
Mo2 O14 2.090081 1_555
Mo2 O18 2.154070 1_555
Mo3 O3 2.004017 1_555
Mo3 O7 2.038617 1_555
Mo3 O11 2.061103 1_545
Mo3 O15 2.090081 1_555
Mo3 O19 2.154070 1_555
Mo4 O28 2.001096 1_555
Mo4 O24 2.005715 1_555
Mo4 O12 2.055747 1_555
Mo4 O20 2.081219 1_555
Mo4 O32 2.134311 1_555
Mo5 O29 2.001096 1_455
Mo5 O25 2.005715 1_555
Mo5 O13 2.055747 1_555
Mo5 O21 2.081219 1_555
Mo5 O33 2.134311 1_555
Mo6 O30 2.001096 1_555
Mo6 O26 2.005715 1_555
Mo6 O14 2.055747 1_555
Mo6 O22 2.081219 1_555
Mo6 O34 2.134311 1_555
Mo7 O31 2.001096 1_655
Mo7 O27 2.005715 1_555
Mo7 O15 2.055747 1_555
Mo7 O23 2.081219 1_555
Mo7 O35 2.134311 1_555
Mo8 O44 2.070426 1_555
Mo8 O4 2.076561 1_555
Mo8 O24 2.116278 1_555
Mo8 O40 2.172553 1_555
Mo8 O36 2.193012 1_555
Mo9 O45 2.070426 1_555
Mo9 O5 2.076561 1_555
Mo9 O25 2.116278 1_555
Mo9 O41 2.172553 1_455
Mo9 O37 2.193012 1_565
Mo10 O46 2.070426 1_555
Mo10 O6 2.076561 1_555
Mo10 O26 2.116278 1_555
Mo10 O42 2.172553 1_555
Mo10 O38 2.193012 1_555
Mo11 O47 2.070426 1_555
Mo11 O7 2.076561 1_555
Mo11 O27 2.116278 1_555
Mo11 O43 2.172553 1_655
Mo11 O39 2.193012 1_545
Mo12 O0 1.993889 1_555
Mo12 O48 1.999382 1_555
Mo12 O20 2.073250 1_555
Mo12 O42 2.104445 1_555
Mo12 O38 2.142765 1_555
Mo13 O1 1.993889 1_555
Mo13 O49 1.999382 1_555
Mo13 O21 2.073250 1_555
Mo13 O43 2.104445 1_565
Mo13 O39 2.142765 1_455
Mo14 O2 1.993889 1_555
Mo14 O50 1.999382 1_555
Mo14 O22 2.073250 1_555
Mo14 O40 2.104445 1_555
Mo14 O36 2.142765 1_555
Mo15 O3 1.993889 1_555
Mo15 O51 1.999382 1_555
Mo15 O23 2.073250 1_555
Mo15 O41 2.104445 1_545
Mo15 O37 2.142765 1_655
Mo16 O30 2.057121 1_555
Mo16 O8 2.102412 1_555
Mo16 O42 2.125582 1_555
Mo16 O36 2.146850 1_555
Mo17 O31 2.057121 1_555
Mo17 O9 2.102412 1_555
Mo17 O43 2.125582 1_555
Mo17 O37 2.146850 1_555
Mo18 O28 2.057121 1_555
Mo18 O10 2.102412 1_555
Mo18 O40 2.125582 1_555
Mo18 O38 2.146850 1_555
Mo19 O29 2.057121 1_555
Mo19 O11 2.102412 1_555
Mo19 O41 2.125582 1_555
Mo19 O39 2.146850 1_555
Mo20 O64 1.976837 1_555
Mo20 O52 2.009130 1_555
Mo20 O60 2.086895 1_556
Mo20 O56 2.093463 1_555
Mo20 O68 2.148095 1_555
Mo21 O65 1.976837 1_555
Mo21 O53 2.009130 1_565
Mo21 O61 2.086895 1_554
Mo21 O57 2.093463 1_555
Mo21 O69 2.148095 1_555
Mo22 O66 1.976837 1_555
Mo22 O54 2.009130 1_555
Mo22 O62 2.086895 1_554
Mo22 O58 2.093463 1_555
Mo22 O70 2.148095 1_555
Mo23 O67 1.976837 1_555
Mo23 O55 2.009130 1_545
Mo23 O63 2.086895 1_556
Mo23 O59 2.093463 1_555
Mo23 O71 2.148095 1_555
Mo24 O76 2.108246 1_555
Mo24 O72 2.110440 1_555
Mo24 O84 2.111551 1_555
Mo24 O80 2.137021 1_455
Mo24 O64 2.157148 1_555
Mo25 O77 2.108246 1_545
Mo25 O73 2.110440 1_555
Mo25 O85 2.111551 1_555
Mo25 O81 2.137021 1_555
Mo25 O65 2.157148 1_545
Mo26 O78 2.108246 1_555
Mo26 O74 2.110440 1_555
Mo26 O86 2.111551 1_555
Mo26 O82 2.137021 1_655
Mo26 O66 2.157148 1_555
Mo27 O79 2.108246 1_565
Mo27 O75 2.110440 1_555
Mo27 O87 2.111551 1_555
Mo27 O83 2.137021 1_555
Mo27 O67 2.157148 1_565
Mo28 O56 2.062231 1_555
Mo28 O76 2.064135 1_555
Mo28 O96 2.072695 1_555
Mo28 O88 2.141431 1_556
Mo28 O92 2.153170 1_455
Mo29 O57 2.062231 1_555
Mo29 O77 2.064135 1_555
Mo29 O97 2.072695 1_555
Mo29 O89 2.141431 1_554
Mo29 O93 2.153170 1_555
Mo30 O58 2.062231 1_555
Mo30 O78 2.064135 1_555
Mo30 O98 2.072695 1_555
Mo30 O90 2.141431 1_554
Mo30 O94 2.153170 1_655
Mo31 O59 2.062231 1_555
Mo31 O79 2.064135 1_555
Mo31 O99 2.072695 1_555
Mo31 O91 2.141431 1_556
Mo31 O95 2.153170 1_555
Mo32 O100 2.024843 1_555
Mo32 O72 2.040664 1_555
Mo32 O52 2.099066 1_555
Mo32 O90 2.157062 1_455
Mo32 O94 2.160971 1_556
Mo33 O101 2.024843 1_555
Mo33 O73 2.040664 1_555
Mo33 O53 2.099066 1_555
Mo33 O91 2.157062 1_555
Mo33 O95 2.160971 1_554
Mo34 O102 2.024843 1_555
Mo34 O74 2.040664 1_555
Mo34 O54 2.099066 1_555
Mo34 O88 2.157062 1_655
Mo34 O92 2.160971 1_554
Mo35 O103 2.024843 1_555
Mo35 O75 2.040664 1_555
Mo35 O55 2.099066 1_555
Mo35 O89 2.157062 1_555
Mo35 O93 2.160971 1_556
Mo36 O62 2.078663 1_555
Mo36 O80 2.122003 1_555
Mo36 O90 2.139464 1_555
Mo36 O92 2.197401 1_555
Mo37 O63 2.078663 1_555
Mo37 O81 2.122003 1_555
Mo37 O91 2.139464 1_555
Mo37 O93 2.197401 1_545
Mo38 O60 2.078663 1_555
Mo38 O82 2.122003 1_555
Mo38 O88 2.139464 1_555
Mo38 O94 2.197401 1_555
Mo39 O61 2.078663 1_555
Mo39 O83 2.122003 1_555
Mo39 O89 2.139464 1_555
Mo39 O95 2.197401 1_565
Mo40 O33 2.055839 1_555
Mo40 O35 2.055839 1_455
Mo40 O16 2.091390 1_555
Mo40 O18 2.091390 1_455
Mo40 O86 2.109239 1_455
Mo40 O84 2.109239 1_555
Mo41 O32 2.055839 1_555
Mo41 O34 2.055839 1_545
Mo41 O19 2.091390 1_555
Mo41 O17 2.091390 1_545
Mo41 O85 2.109239 1_555
Mo41 O87 2.109239 1_545
O0 Pr5 3.025620 1_555
O1 Pr4 3.025620 1_555
O2 Pr7 3.025620 1_555
O3 Pr6 3.025620 1_555
O4 Pr18 2.413560 1_555
O4 Pr0 2.573166 1_555
O5 Pr19 2.413560 1_555
O5 Pr1 2.573166 1_565
O6 Pr16 2.413560 1_555
O6 Pr2 2.573166 1_555
O7 Pr17 2.413560 1_555
O7 Pr3 2.573166 1_545
O8 Pr28 2.528172 1_555
O8 Pr0 2.584479 1_555
O9 Pr29 2.528172 1_555
O9 Pr1 2.584479 1_555
O10 Pr30 2.528172 1_555
O10 Pr2 2.584479 1_555
O11 Pr31 2.528172 1_555
O11 Pr3 2.584479 1_555
O12 Pr1 2.588530 1_555
O13 Pr0 2.588530 1_555
O14 Pr3 2.588530 1_555
O15 Pr2 2.588530 1_555
O16 Pr9 2.436438 1_555
O16 Pr18 2.756868 1_555
O17 Pr8 2.436438 1_555
O17 Pr19 2.756868 1_555
O18 Pr11 2.436438 1_555
O18 Pr16 2.756868 1_555
O19 Pr10 2.436438 1_555
O19 Pr17 2.756868 1_555
O20 Pr10 2.506839 1_555
O20 Pr1 2.730398 1_555
O21 Pr11 2.506839 1_455
O21 Pr0 2.730398 1_555
O22 Pr8 2.506839 1_555
O22 Pr3 2.730398 1_555
O23 Pr9 2.506839 1_655
O23 Pr2 2.730398 1_555
O24 Pr29 2.439493 1_555
O24 Pr24 3.229455 1_555
O25 Pr28 2.439493 1_555
O25 Pr25 3.229455 1_555
O26 Pr31 2.439493 1_555
O26 Pr26 3.229455 1_555
O27 Pr30 2.439493 1_555
O27 Pr27 3.229455 1_555
O28 Pr17 2.343000 1_555
O29 Pr16 2.343000 1_555
O30 Pr19 2.343000 1_555
O31 Pr18 2.343000 1_555
O32 Pr29 2.453905 1_555
O33 Pr28 2.453905 1_555
O34 Pr31 2.453905 1_555
O35 Pr30 2.453905 1_555
O36 Pr0 2.717460 1_555
O36 Pr8 3.035430 1_555
O37 Pr1 2.717460 1_555
O37 Pr9 3.035430 1_555
O38 Pr2 2.717460 1_555
O38 Pr10 3.035430 1_555
O39 Pr3 2.717460 1_555
O39 Pr11 3.035430 1_555
O40 Pr22 2.427256 1_555
O41 Pr23 2.427256 1_555
O42 Pr20 2.427256 1_555
O43 Pr21 2.427256 1_555
O44 Pr24 2.397859 1_555
O44 Pr22 2.407746 1_555
O44 Pr12 2.520811 1_555
O45 Pr25 2.397859 1_555
O45 Pr23 2.407746 1_455
O45 Pr13 2.520811 1_565
O46 Pr26 2.397859 1_555
O46 Pr20 2.407746 1_555
O46 Pr14 2.520811 1_555
O47 Pr27 2.397859 1_555
O47 Pr21 2.407746 1_655
O47 Pr15 2.520811 1_545
O48 Pr5 2.381608 1_555
O48 Pr14 2.448272 1_555
O48 Pr20 2.797563 1_555
O49 Pr4 2.381608 1_555
O49 Pr15 2.448272 1_455
O49 Pr21 2.797563 1_565
O50 Pr7 2.381608 1_555
O50 Pr12 2.448272 1_555
O50 Pr22 2.797563 1_555
O51 Pr6 2.381608 1_555
O51 Pr13 2.448272 1_655
O51 Pr23 2.797563 1_545
O52 Pr4 2.633514 1_555
O52 Pr20 2.873444 1_556
O53 Pr5 2.633514 1_555
O53 Pr21 2.873444 1_554
O54 Pr6 2.633514 1_555
O54 Pr22 2.873444 1_554
O55 Pr7 2.633514 1_555
O55 Pr23 2.873444 1_556
O56 Pr5 2.487829 1_556
O56 Pr24 2.487940 1_555
O57 Pr4 2.487829 1_554
O57 Pr25 2.487940 1_555
O58 Pr7 2.487829 1_554
O58 Pr26 2.487940 1_555
O59 Pr6 2.487829 1_556
O59 Pr27 2.487940 1_555
O60 Pr20 2.416998 1_555
O60 Pr5 2.502582 1_555
O61 Pr21 2.416998 1_565
O61 Pr4 2.502582 1_555
O62 Pr22 2.416998 1_555
O62 Pr7 2.502582 1_555
O63 Pr23 2.416998 1_545
O63 Pr6 2.502582 1_555
O64 Pr24 2.781085 1_555
O65 Pr25 2.781085 1_555
O66 Pr26 2.781085 1_555
O67 Pr27 2.781085 1_555
O68 Pr12 2.408679 1_555
O68 Pr20 2.535703 1_556
O68 Pr24 2.787899 1_555
O68 Pr14 2.858543 1_556
O69 Pr13 2.408679 1_565
O69 Pr21 2.535703 1_564
O69 Pr25 2.787899 1_555
O69 Pr15 2.858543 1_454
O70 Pr14 2.408679 1_555
O70 Pr22 2.535703 1_554
O70 Pr26 2.787899 1_555
O70 Pr12 2.858543 1_554
O71 Pr15 2.408679 1_545
O71 Pr23 2.535703 1_546
O71 Pr27 2.787899 1_555
O71 Pr13 2.858543 1_656
O72 Pr11 2.448677 1_455
O72 Pr4 2.784452 1_555
O73 Pr10 2.448677 1_555
O73 Pr5 2.784452 1_555
O74 Pr9 2.448677 1_655
O74 Pr6 2.784452 1_555
O75 Pr8 2.448677 1_555
O75 Pr7 2.784452 1_555
O76 Pr18 2.361916 1_555
O76 Pr30 2.688113 1_455
O77 Pr19 2.361916 1_555
O77 Pr31 2.688113 1_555
O78 Pr16 2.361916 1_555
O78 Pr28 2.688113 1_655
O79 Pr17 2.361916 1_555
O79 Pr29 2.688113 1_555
O80 Pr30 2.405086 1_555
O80 Pr11 2.445335 1_555
O81 Pr31 2.405086 1_545
O81 Pr10 2.445335 1_555
O82 Pr28 2.405086 1_555
O82 Pr9 2.445335 1_555
O83 Pr29 2.405086 1_565
O83 Pr8 2.445335 1_555
O84 Pr0 2.407395 1_555
O84 Pr18 2.626643 1_555
O85 Pr1 2.407395 1_555
O85 Pr19 2.626643 1_545
O86 Pr2 2.407395 1_555
O86 Pr16 2.626643 1_555
O87 Pr3 2.407395 1_555
O87 Pr17 2.626643 1_565
O88 Pr5 2.683511 1_555
O89 Pr4 2.683511 1_555
O90 Pr7 2.683511 1_555
O91 Pr6 2.683511 1_555
O92 Pr27 2.594695 1_555
O92 Pr30 2.704843 1_555
O93 Pr26 2.594695 1_555
O93 Pr31 2.704843 1_555
O94 Pr25 2.594695 1_555
O94 Pr28 2.704843 1_555
O95 Pr24 2.594695 1_555
O95 Pr29 2.704843 1_555
O96 Pr21 2.288568 1_555
O96 Pr27 2.522814 1_455
O96 Pr13 2.685705 1_556
O97 Pr20 2.288568 1_555
O97 Pr26 2.522814 1_555
O97 Pr12 2.685705 1_554
O98 Pr23 2.288568 1_555
O98 Pr25 2.522814 1_655
O98 Pr15 2.685705 1_554
O99 Pr22 2.288568 1_555
O99 Pr24 2.522814 1_555
O99 Pr14 2.685705 1_556
O100 Pr25 2.337335 1_556
O100 Pr15 2.394007 1_455
O100 Pr4 2.415175 1_555
O101 Pr24 2.337335 1_554
O101 Pr14 2.394007 1_555
O101 Pr5 2.415175 1_555
O102 Pr27 2.337335 1_554
O102 Pr13 2.394007 1_655
O102 Pr6 2.415175 1_555
O103 Pr26 2.337335 1_556
O103 Pr12 2.394007 1_555
O103 Pr7 2.415175 1_555
O104 Pr17 2.298069 1_555
O104 Pr30 2.350868 1_555
O104 Pr27 2.502735 1_555
O104 Pr22 3.076812 1_555
O105 Pr16 2.298069 1_555
O105 Pr31 2.350868 1_555
O105 Pr26 2.502735 1_555
O105 Pr23 3.076812 1_555
O106 Pr19 2.298069 1_555
O106 Pr28 2.350868 1_555
O106 Pr25 2.502735 1_555
O106 Pr20 3.076812 1_555
O107 Pr18 2.298069 1_555
O107 Pr29 2.350868 1_555
O107 Pr24 2.502735 1_555
O107 Pr21 3.076812 1_555
O108 Pr3 2.364025 1_555
O108 Pr11 2.417512 1_555
O108 Pr7 2.541270 1_555
O108 Pr15 2.622322 1_555
O109 Pr2 2.364025 1_555
O109 Pr10 2.417512 1_555
O109 Pr6 2.541270 1_555
O109 Pr14 2.622322 1_555
O110 Pr1 2.364025 1_555
O110 Pr9 2.417512 1_555
O110 Pr5 2.541270 1_555
O110 Pr13 2.622322 1_555
O111 Pr0 2.364025 1_555
O111 Pr8 2.417512 1_555
O111 Pr4 2.541270 1_555
O111 Pr12 2.622322 1_555
