# generated using pymatgen
data_Mg2Sb3O8
_symmetry_space_group_name_H-M   'P 1'
_cell_length_a   6.41886310
_cell_length_b   6.41886310
_cell_length_c   5.51624144
_cell_angle_alpha   69.68181398
_cell_angle_beta   69.68181398
_cell_angle_gamma   59.86319949
_symmetry_Int_Tables_number   1
_chemical_formula_structural   Mg2Sb3O8
_chemical_formula_sum   'Mg2 Sb3 O8'
_cell_volume   180.09006883
_cell_formula_units_Z   1
loop_
 _symmetry_equiv_pos_site_id
 _symmetry_equiv_pos_as_xyz
  1  'x, y, z'
loop_
 _atom_site_type_symbol
 _atom_site_label
 _atom_site_symmetry_multiplicity
 _atom_site_fract_x
 _atom_site_fract_y
 _atom_site_fract_z
 _atom_site_occupancy
  Mg  Mg0  1  0.71450200  0.71450200  0.35978600  1
  Mg  Mg1  1  0.28549800  0.28549800  0.64021400  1
  Sb  Sb0  1  0.00000000  0.00000000  0.50000000  1
  Sb  Sb1  1  0.73499800  0.26500200  0.00000000  1
  Sb  Sb2  1  0.26500200  0.73499800  0.00000000  1
  O  O0  1  0.39588100  0.39588100  0.91306900  1
  O  O1  1  0.60411900  0.60411900  0.08693100  1
  O  O2  1  0.88668300  0.88668300  0.96720600  1
  O  O3  1  0.11331700  0.11331700  0.03279400  1
  O  O4  1  0.36550800  0.87871700  0.60618800  1
  O  O5  1  0.87871700  0.36550800  0.60618800  1
  O  O6  1  0.12128300  0.63449200  0.39381200  1
  O  O7  1  0.63449200  0.12128300  0.39381200  1
loop_
_geom_bond_atom_site_label_1
_geom_bond_atom_site_label_2
_geom_bond_distance
_geom_bond_site_symmetry_2
Mg0 O4 2.118060 1_555
Mg0 O5 2.118060 1_555
Mg0 O2 2.243858 1_554
Mg0 O1 2.292329 1_555
Mg0 O6 2.458367 1_655
Mg0 O7 2.458367 1_565
Mg1 O7 2.118060 1_555
Mg1 O6 2.118060 1_555
Mg1 O3 2.243858 1_556
Mg1 O0 2.292329 1_555
Mg1 O5 2.458367 1_455
Mg1 O4 2.458367 1_545
O0 Sb1 2.069501 1_556
O0 Sb2 2.069501 1_556
O1 Sb1 2.069501 1_555
O1 Sb2 2.069501 1_555
O2 Sb1 2.164795 1_566
O2 Sb2 2.164795 1_656
O2 Sb0 2.372292 1_665
O3 Sb2 2.164795 1_545
O3 Sb1 2.164795 1_455
O3 Sb0 2.372292 1_555
O4 Sb2 2.054017 1_556
O4 Sb0 2.292871 1_565
O5 Sb1 2.054017 1_556
O5 Sb0 2.292871 1_655
O6 Sb2 2.054017 1_555
O6 Sb0 2.292871 1_565
O7 Sb1 2.054017 1_555
O7 Sb0 2.292871 1_655
