# generated using pymatgen
data_Cr2AgS4
_symmetry_space_group_name_H-M   'P 1'
_cell_length_a   3.48562200
_cell_length_b   11.07296300
_cell_length_c   12.58316800
_cell_angle_alpha   90.00000000
_cell_angle_beta   90.00000000
_cell_angle_gamma   90.00000000
_symmetry_Int_Tables_number   1
_chemical_formula_structural   Cr2AgS4
_chemical_formula_sum   'Cr8 Ag4 S16'
_cell_volume   485.66200870
_cell_formula_units_Z   4
loop_
 _symmetry_equiv_pos_site_id
 _symmetry_equiv_pos_as_xyz
  1  'x, y, z'
loop_
 _atom_site_type_symbol
 _atom_site_label
 _atom_site_symmetry_multiplicity
 _atom_site_fract_x
 _atom_site_fract_y
 _atom_site_fract_z
 _atom_site_occupancy
  Cr  Cr0  1  0.25000000  0.05789700  0.11735200  1
  Cr  Cr1  1  0.75000000  0.94210300  0.88264800  1
  Cr  Cr2  1  0.75000000  0.44210300  0.61735200  1
  Cr  Cr3  1  0.25000000  0.55789700  0.38264800  1
  Cr  Cr4  1  0.25000000  0.08723400  0.59687100  1
  Cr  Cr5  1  0.75000000  0.91276600  0.40312900  1
  Cr  Cr6  1  0.75000000  0.41276600  0.09687100  1
  Cr  Cr7  1  0.25000000  0.58723400  0.90312900  1
  Ag  Ag0  1  0.25000000  0.24624900  0.32961600  1
  Ag  Ag1  1  0.75000000  0.75375100  0.67038400  1
  Ag  Ag2  1  0.75000000  0.25375100  0.82961600  1
  Ag  Ag3  1  0.25000000  0.74624900  0.17038400  1
  S  S0  1  0.75000000  0.03572200  0.71338500  1
  S  S1  1  0.25000000  0.96427800  0.28661500  1
  S  S2  1  0.25000000  0.46427800  0.21338500  1
  S  S3  1  0.75000000  0.53572200  0.78661500  1
  S  S4  1  0.25000000  0.08217900  0.93064100  1
  S  S5  1  0.75000000  0.91782100  0.06935900  1
  S  S6  1  0.75000000  0.41782100  0.43064100  1
  S  S7  1  0.25000000  0.58217900  0.56935900  1
  S  S8  1  0.75000000  0.11528700  0.46902000  1
  S  S9  1  0.25000000  0.88471300  0.53098000  1
  S  S10  1  0.25000000  0.38471300  0.96902000  1
  S  S11  1  0.75000000  0.61528700  0.03098000  1
  S  S12  1  0.75000000  0.20000400  0.15251600  1
  S  S13  1  0.25000000  0.79999600  0.84748400  1
  S  S14  1  0.25000000  0.29999600  0.65251600  1
  S  S15  1  0.75000000  0.70000400  0.34748400  1
loop_
_geom_bond_atom_site_label_1
_geom_bond_atom_site_label_2
_geom_bond_distance
_geom_bond_site_symmetry_2
Cr0 S4 2.364751 1_554
Cr0 S1 2.368744 1_545
Cr0 S12 2.389397 1_455
Cr0 S12 2.389397 1_555
Cr0 S5 2.409951 1_545
Cr0 S5 2.409951 1_445
Cr1 S5 2.364751 1_556
Cr1 S0 2.368744 1_565
Cr1 S13 2.389397 1_555
Cr1 S13 2.389397 1_655
Cr1 S4 2.409951 1_565
Cr1 S4 2.409951 1_665
Cr2 S6 2.364751 1_555
Cr2 S3 2.368744 1_555
Cr2 S14 2.389397 1_555
Cr2 S14 2.389397 1_655
Cr2 S7 2.409951 1_555
Cr2 S7 2.409951 1_655
Cr3 S7 2.364751 1_555
Cr3 S2 2.368744 1_555
Cr3 S15 2.389397 1_455
Cr3 S15 2.389397 1_555
Cr3 S6 2.409951 1_455
Cr3 S6 2.409951 1_555
Cr4 S0 2.347814 1_455
Cr4 S0 2.347814 1_555
Cr4 S9 2.390873 1_545
Cr4 S8 2.392075 1_555
Cr4 S8 2.392075 1_455
Cr4 S14 2.457755 1_555
Cr5 S1 2.347814 1_555
Cr5 S1 2.347814 1_655
Cr5 S8 2.390873 1_565
Cr5 S9 2.392075 1_655
Cr5 S9 2.392075 1_555
Cr5 S15 2.457755 1_555
Cr6 S2 2.347814 1_555
Cr6 S2 2.347814 1_655
Cr6 S11 2.390873 1_555
Cr6 S10 2.392075 1_554
Cr6 S10 2.392075 1_654
Cr6 S12 2.457755 1_555
Cr7 S3 2.347814 1_455
Cr7 S3 2.347814 1_555
Cr7 S10 2.390873 1_555
Cr7 S11 2.392075 1_556
Cr7 S11 2.392075 1_456
Cr7 S13 2.457755 1_555
Ag0 S2 2.822686 1_555
Ag0 S8 2.866585 1_555
Ag0 S8 2.866585 1_455
Ag0 S6 2.874484 1_455
Ag0 S6 2.874484 1_555
Ag0 S12 2.875017 1_455
Ag0 S12 2.875017 1_555
Ag1 S3 2.822686 1_555
Ag1 S9 2.866585 1_555
Ag1 S9 2.866585 1_655
Ag1 S7 2.874484 1_655
Ag1 S7 2.874484 1_555
Ag1 S13 2.875017 1_555
Ag1 S13 2.875017 1_655
Ag2 S0 2.822686 1_555
Ag2 S10 2.866585 1_555
Ag2 S10 2.866585 1_655
Ag2 S4 2.874484 1_555
Ag2 S4 2.874484 1_655
Ag2 S14 2.875017 1_555
Ag2 S14 2.875017 1_655
Ag3 S1 2.822686 1_555
Ag3 S11 2.866585 1_555
Ag3 S11 2.866585 1_455
Ag3 S5 2.874484 1_455
Ag3 S5 2.874484 1_555
Ag3 S15 2.875017 1_455
Ag3 S15 2.875017 1_555
