# generated using pymatgen
data_Tb2CuTe2(SO7)2
_symmetry_space_group_name_H-M   'P 1'
_cell_length_a   5.22151071
_cell_length_b   7.99775090
_cell_length_c   8.25684714
_cell_angle_alpha   62.23020150
_cell_angle_beta   74.21607918
_cell_angle_gamma   85.39034116
_symmetry_Int_Tables_number   1
_chemical_formula_structural   Tb2CuTe2(SO7)2
_chemical_formula_sum   'Tb2 Cu1 Te2 S2 O14'
_cell_volume   293.15650137
_cell_formula_units_Z   1
loop_
 _symmetry_equiv_pos_site_id
 _symmetry_equiv_pos_as_xyz
  1  'x, y, z'
loop_
 _atom_site_type_symbol
 _atom_site_label
 _atom_site_symmetry_multiplicity
 _atom_site_fract_x
 _atom_site_fract_y
 _atom_site_fract_z
 _atom_site_occupancy
  Tb  Tb0  1  0.92608700  0.74878100  0.98221200  1
  Tb  Tb1  1  0.07391300  0.25121900  0.01778800  1
  Cu  Cu0  1  0.00000000  0.00000000  0.50000000  1
  Te  Te0  1  0.48838500  0.72920200  0.65426400  1
  Te  Te1  1  0.51161500  0.27079800  0.34573600  1
  S  S0  1  0.25079400  0.74787400  0.25102500  1
  S  S1  1  0.74920600  0.25212600  0.74897500  1
  O  O0  1  0.13734300  0.58757800  0.24193100  1
  O  O1  1  0.86265700  0.41242200  0.75806900  1
  O  O2  1  0.13913600  0.74801300  0.43421100  1
  O  O3  1  0.86086400  0.25198700  0.56578900  1
  O  O4  1  0.54538900  0.73733500  0.21479100  1
  O  O5  1  0.45461100  0.26266500  0.78520900  1
  O  O6  1  0.17515500  0.92137400  0.09317400  1
  O  O7  1  0.82484500  0.07862600  0.90682600  1
  O  O8  1  0.25124100  0.56179000  0.88983900  1
  O  O9  1  0.74875900  0.43821000  0.11016100  1
  O  O10  1  0.72938200  0.81252400  0.74341900  1
  O  O11  1  0.27061800  0.18747600  0.25658100  1
  O  O12  1  0.24925800  0.92735200  0.65748000  1
  O  O13  1  0.75074200  0.07264800  0.34252000  1
loop_
_geom_bond_atom_site_label_1
_geom_bond_atom_site_label_2
_geom_bond_distance
_geom_bond_site_symmetry_2
Cu0 O12 1.953807 1_545
Cu0 O13 1.953807 1_455
Cu0 O11 2.066824 1_555
Cu0 O10 2.066824 1_445
Cu0 O2 2.335494 1_545
Cu0 O3 2.335494 1_455
O0 S0 1.495350 1_555
O0 Tb0 2.441239 1_454
O1 S1 1.495350 1_555
O1 Tb1 2.441239 1_656
O2 S0 1.466087 1_555
O3 S1 1.466087 1_555
O4 S0 1.488309 1_555
O4 Tb0 2.331597 1_554
O5 S1 1.488309 1_555
O5 Tb1 2.331597 1_556
O6 S0 1.512233 1_555
O6 Tb1 2.459834 1_565
O6 Tb0 2.559563 1_454
O7 S1 1.512233 1_555
O7 Tb0 2.459834 1_545
O7 Tb1 2.559563 1_656
O8 Te0 1.907557 1_555
O8 Tb1 2.352722 1_556
O8 Tb0 2.377202 1_455
O9 Te1 1.907557 1_555
O9 Tb0 2.352722 1_554
O9 Tb1 2.377202 1_655
O10 Te0 1.914501 1_555
O10 Tb0 2.298526 1_555
O11 Te1 1.914501 1_555
O11 Tb1 2.298526 1_555
O12 Te0 1.942753 1_555
O12 Tb0 2.536524 1_455
O13 Te1 1.942753 1_555
O13 Tb1 2.536524 1_655
