# generated using pymatgen
data_CaMg6Sb
_symmetry_space_group_name_H-M   'P 1'
_cell_length_a   5.20480700
_cell_length_b   6.73985600
_cell_length_c   11.32301400
_cell_angle_alpha   90.00000000
_cell_angle_beta   90.00000000
_cell_angle_gamma   90.00000000
_symmetry_Int_Tables_number   1
_chemical_formula_structural   CaMg6Sb
_chemical_formula_sum   'Ca2 Mg12 Sb2'
_cell_volume   397.20736453
_cell_formula_units_Z   2
loop_
 _symmetry_equiv_pos_site_id
 _symmetry_equiv_pos_as_xyz
  1  'x, y, z'
loop_
 _atom_site_type_symbol
 _atom_site_label
 _atom_site_symmetry_multiplicity
 _atom_site_fract_x
 _atom_site_fract_y
 _atom_site_fract_z
 _atom_site_occupancy
  Ca  Ca0  1  0.00000000  0.50000000  0.67091700  1
  Ca  Ca1  1  0.00000000  0.00000000  0.17091700  1
  Mg  Mg0  1  0.00000000  0.24550600  0.91983900  1
  Mg  Mg1  1  0.00000000  0.75449400  0.91983900  1
  Mg  Mg2  1  0.00000000  0.50000000  0.16357100  1
  Mg  Mg3  1  0.50000000  0.26231300  0.07927600  1
  Mg  Mg4  1  0.50000000  0.73768700  0.07927600  1
  Mg  Mg5  1  0.50000000  0.50000000  0.33238300  1
  Mg  Mg6  1  0.00000000  0.74550600  0.41983900  1
  Mg  Mg7  1  0.00000000  0.25449400  0.41983900  1
  Mg  Mg8  1  0.00000000  0.00000000  0.66357100  1
  Mg  Mg9  1  0.50000000  0.76231300  0.57927600  1
  Mg  Mg10  1  0.50000000  0.23768700  0.57927600  1
  Mg  Mg11  1  0.50000000  0.00000000  0.83238300  1
  Sb  Sb0  1  0.50000000  0.50000000  0.83489800  1
  Sb  Sb1  1  0.50000000  0.00000000  0.33489800  1
loop_
_geom_bond_atom_site_label_1
_geom_bond_atom_site_label_2
_geom_bond_distance
_geom_bond_site_symmetry_2
Ca0 Sb0 3.196883 1_455
Ca0 Sb0 3.196883 1_555
Ca0 Mg7 3.289433 1_555
Ca0 Mg6 3.289433 1_555
Ca0 Mg1 3.299440 1_555
Ca0 Mg0 3.299440 1_555
Ca0 Mg9 3.312836 1_555
Ca0 Mg9 3.312836 1_455
Ca0 Mg10 3.312836 1_555
Ca0 Mg10 3.312836 1_455
Ca0 Mg8 3.370954 1_555
Ca0 Mg8 3.370954 1_565
Ca1 Sb1 3.196883 1_555
Ca1 Sb1 3.196883 1_455
Ca1 Mg0 3.289433 1_554
Ca1 Mg1 3.289433 1_544
Ca1 Mg7 3.299440 1_555
Ca1 Mg6 3.299440 1_545
Ca1 Mg3 3.312836 1_555
Ca1 Mg3 3.312836 1_455
Ca1 Mg4 3.312836 1_445
Ca1 Mg4 3.312836 1_545
Ca1 Mg2 3.370954 1_545
Ca1 Mg2 3.370954 1_555
Mg0 Mg3 3.169301 1_456
Mg0 Mg3 3.169301 1_556
Mg0 Mg11 3.238994 1_555
Mg0 Mg11 3.238994 1_455
Mg0 Mg2 3.249382 1_556
Mg0 Sb0 3.261845 1_555
Mg0 Sb0 3.261845 1_455
Mg0 Mg1 3.309350 1_545
Mg0 Mg8 3.340354 1_555
Mg0 Mg1 3.430506 1_555
Mg1 Mg4 3.169301 1_556
Mg1 Mg4 3.169301 1_456
Mg1 Mg11 3.238994 1_465
Mg1 Mg11 3.238994 1_565
Mg1 Mg2 3.249382 1_556
Mg1 Sb0 3.261845 1_555
Mg1 Sb0 3.261845 1_455
Mg1 Mg8 3.340354 1_565
Mg2 Mg4 3.201539 1_455
Mg2 Mg4 3.201539 1_555
Mg2 Mg3 3.201539 1_455
Mg2 Mg3 3.201539 1_555
Mg2 Mg5 3.228960 1_455
Mg2 Mg5 3.228960 1_555
Mg2 Mg6 3.340354 1_555
Mg2 Mg7 3.340354 1_555
Mg3 Sb0 3.197365 1_554
Mg3 Mg5 3.283277 1_555
Mg3 Sb1 3.391647 1_555
Mg4 Sb0 3.197365 1_554
Mg4 Mg5 3.283277 1_555
Mg4 Sb1 3.391647 1_565
Mg5 Mg6 3.238994 1_555
Mg5 Mg7 3.238994 1_555
Mg5 Mg6 3.238994 1_655
Mg5 Mg7 3.238994 1_655
Mg5 Mg9 3.307700 1_555
Mg5 Sb1 3.370048 1_555
Mg5 Sb1 3.370048 1_565
Mg6 Mg9 3.169301 1_455
Mg6 Mg9 3.169301 1_555
Mg6 Mg8 3.249382 1_565
Mg6 Sb1 3.261845 1_465
Mg6 Sb1 3.261845 1_565
Mg6 Mg7 3.309350 1_555
Mg6 Mg7 3.430506 1_565
Mg7 Mg8 3.249382 1_555
Mg7 Sb1 3.261845 1_455
Mg7 Sb1 3.261845 1_555
Mg8 Mg9 3.201539 1_445
Mg8 Mg9 3.201539 1_545
Mg9 Sb1 3.197365 1_565
Mg9 Sb0 3.391647 1_555
Mg10 Mg7 3.169301 1_555
Mg10 Mg7 3.169301 1_655
Mg10 Sb1 3.197365 1_555
Mg10 Mg8 3.201539 1_555
Mg10 Mg8 3.201539 1_655
Mg10 Mg11 3.283277 1_555
Mg10 Mg5 3.307700 1_555
Mg10 Sb0 3.391647 1_555
Mg11 Mg8 3.228960 1_655
Mg11 Mg8 3.228960 1_555
Mg11 Mg9 3.283277 1_545
Mg11 Mg3 3.307700 1_556
Mg11 Mg4 3.307700 1_546
Mg11 Sb0 3.370048 1_545
Mg11 Sb0 3.370048 1_555
