# generated using pymatgen
data_CaAlF5
_symmetry_space_group_name_H-M   'P 1'
_cell_length_a   9.84197828
_cell_length_b   5.33476316
_cell_length_c   7.29141816
_cell_angle_alpha   70.24502992
_cell_angle_beta   90.00000000
_cell_angle_gamma   90.00000000
_symmetry_Int_Tables_number   1
_chemical_formula_structural   CaAlF5
_chemical_formula_sum   'Ca4 Al4 F20'
_cell_volume   360.30216737
_cell_formula_units_Z   4
loop_
 _symmetry_equiv_pos_site_id
 _symmetry_equiv_pos_as_xyz
  1  'x, y, z'
loop_
 _atom_site_type_symbol
 _atom_site_label
 _atom_site_symmetry_multiplicity
 _atom_site_fract_x
 _atom_site_fract_y
 _atom_site_fract_z
 _atom_site_occupancy
  Ca  Ca0  1  0.97979983  0.47023508  0.25525480  1
  Ca  Ca1  1  0.47979983  0.52976492  0.24474520  1
  Ca  Ca2  1  0.02020017  0.52976492  0.74474520  1
  Ca  Ca3  1  0.52020017  0.47023508  0.75525480  1
  Al  Al0  1  0.75273692  0.10553941  0.59923724  1
  Al  Al1  1  0.25273692  0.89446059  0.90076276  1
  Al  Al2  1  0.24726308  0.89446059  0.40076276  1
  Al  Al3  1  0.74726308  0.10553941  0.09923724  1
  F  F0  1  0.61930734  0.35027402  0.50773545  1
  F  F1  1  0.11930734  0.64972598  0.99226455  1
  F  F2  1  0.38069266  0.64972598  0.49226455  1
  F  F3  1  0.88069266  0.35027402  0.00773545  1
  F  F4  1  0.78844022  0.13723661  0.34062488  1
  F  F5  1  0.28844022  0.86276339  0.15937512  1
  F  F6  1  0.21155978  0.86276339  0.65937512  1
  F  F7  1  0.71155978  0.13723661  0.84062488  1
  F  F8  1  0.38967040  0.11296916  0.81588710  1
  F  F9  1  0.88967040  0.88703084  0.68411290  1
  F  F10  1  0.61032960  0.88703084  0.18411290  1
  F  F11  1  0.11032960  0.11296916  0.31588710  1
  F  F12  1  0.63708920  0.84446650  0.63689003  1
  F  F13  1  0.13708920  0.15553350  0.86310997  1
  F  F14  1  0.36291080  0.15553350  0.36310997  1
  F  F15  1  0.86291080  0.84446650  0.13689003  1
  F  F16  1  0.37349659  0.61889686  0.94305244  1
  F  F17  1  0.87349659  0.38110314  0.55694756  1
  F  F18  1  0.62650341  0.38110314  0.05694756  1
  F  F19  1  0.12650341  0.61889686  0.44305244  1
loop_
_geom_bond_atom_site_label_1
_geom_bond_atom_site_label_2
_geom_bond_distance
_geom_bond_site_symmetry_2
Ca0 F15 2.211180 1_555
Ca0 F11 2.215581 1_655
Ca0 F1 2.288656 1_654
Ca0 F19 2.307120 1_655
Ca0 F3 2.323560 1_555
Ca0 F17 2.335081 1_555
Ca0 F4 2.518497 1_555
Ca1 F14 2.211180 1_555
Ca1 F10 2.215581 1_555
Ca1 F0 2.288656 1_555
Ca1 F18 2.307120 1_555
Ca1 F2 2.323560 1_555
Ca1 F16 2.335081 1_554
Ca1 F5 2.518497 1_555
Ca2 F13 2.211180 1_555
Ca2 F9 2.215581 1_455
Ca2 F3 2.288656 1_456
Ca2 F17 2.307120 1_455
Ca2 F1 2.323560 1_555
Ca2 F19 2.335081 1_555
Ca2 F6 2.518497 1_555
Ca3 F12 2.211180 1_555
Ca3 F8 2.215581 1_555
Ca3 F2 2.288656 1_555
Ca3 F16 2.307120 1_555
Ca3 F0 2.323560 1_555
Ca3 F18 2.335081 1_556
Ca3 F7 2.518497 1_555
Al0 F12 1.747050 1_545
Al0 F9 1.752269 1_545
Al0 F0 1.812569 1_555
Al0 F17 1.833662 1_555
Al0 F7 1.868644 1_555
Al0 F4 1.868743 1_555
Al1 F13 1.747050 1_565
Al1 F8 1.752269 1_565
Al1 F1 1.812569 1_555
Al1 F16 1.833662 1_555
Al1 F6 1.868644 1_555
Al1 F5 1.868743 1_556
Al2 F14 1.747050 1_565
Al2 F11 1.752269 1_565
Al2 F2 1.812569 1_555
Al2 F19 1.833662 1_555
Al2 F5 1.868644 1_555
Al2 F6 1.868743 1_555
Al3 F15 1.747050 1_545
Al3 F10 1.752269 1_545
Al3 F3 1.812569 1_555
Al3 F18 1.833662 1_555
Al3 F4 1.868644 1_555
Al3 F7 1.868743 1_554
