# generated using pymatgen
data_Yb3Co4Ge13
_symmetry_space_group_name_H-M   'P 1'
_cell_length_a   8.81574000
_cell_length_b   8.81574000
_cell_length_c   8.81574000
_cell_angle_alpha   90.00000000
_cell_angle_beta   90.00000000
_cell_angle_gamma   90.00000000
_symmetry_Int_Tables_number   1
_chemical_formula_structural   Yb3Co4Ge13
_chemical_formula_sum   'Yb6 Co8 Ge26'
_cell_volume   685.13526124
_cell_formula_units_Z   2
loop_
 _symmetry_equiv_pos_site_id
 _symmetry_equiv_pos_as_xyz
  1  'x, y, z'
loop_
 _atom_site_type_symbol
 _atom_site_label
 _atom_site_symmetry_multiplicity
 _atom_site_fract_x
 _atom_site_fract_y
 _atom_site_fract_z
 _atom_site_occupancy
  Yb  Yb0  1  0.00000000  0.50000000  0.75000000  1
  Yb  Yb1  1  0.50000000  0.25000000  0.00000000  1
  Yb  Yb2  1  0.75000000  0.00000000  0.50000000  1
  Yb  Yb3  1  0.00000000  0.50000000  0.25000000  1
  Yb  Yb4  1  0.50000000  0.75000000  0.00000000  1
  Yb  Yb5  1  0.25000000  0.00000000  0.50000000  1
  Co  Co0  1  0.75000000  0.25000000  0.75000000  1
  Co  Co1  1  0.25000000  0.75000000  0.25000000  1
  Co  Co2  1  0.75000000  0.75000000  0.25000000  1
  Co  Co3  1  0.25000000  0.25000000  0.75000000  1
  Co  Co4  1  0.25000000  0.75000000  0.75000000  1
  Co  Co5  1  0.75000000  0.25000000  0.25000000  1
  Co  Co6  1  0.25000000  0.25000000  0.25000000  1
  Co  Co7  1  0.75000000  0.75000000  0.75000000  1
  Ge  Ge0  1  0.50000000  0.50000000  0.50000000  1
  Ge  Ge1  1  0.00000000  0.00000000  0.00000000  1
  Ge  Ge2  1  0.80163500  0.34738700  0.50000000  1
  Ge  Ge3  1  0.65261300  0.50000000  0.80163500  1
  Ge  Ge4  1  0.50000000  0.19836500  0.65261300  1
  Ge  Ge5  1  0.19836500  0.65261300  0.50000000  1
  Ge  Ge6  1  0.34738700  0.50000000  0.19836500  1
  Ge  Ge7  1  0.50000000  0.80163500  0.34738700  1
  Ge  Ge8  1  0.80163500  0.65261300  0.50000000  1
  Ge  Ge9  1  0.65261300  0.50000000  0.19836500  1
  Ge  Ge10  1  0.19836500  0.34738700  0.50000000  1
  Ge  Ge11  1  0.34738700  0.50000000  0.80163500  1
  Ge  Ge12  1  0.50000000  0.80163500  0.65261300  1
  Ge  Ge13  1  0.50000000  0.19836500  0.34738700  1
  Ge  Ge14  1  0.30163500  0.00000000  0.84738700  1
  Ge  Ge15  1  0.15261300  0.30163500  0.00000000  1
  Ge  Ge16  1  0.00000000  0.15261300  0.69836500  1
  Ge  Ge17  1  0.69836500  0.00000000  0.15261300  1
  Ge  Ge18  1  0.84738700  0.69836500  0.00000000  1
  Ge  Ge19  1  0.00000000  0.84738700  0.30163500  1
  Ge  Ge20  1  0.30163500  0.00000000  0.15261300  1
  Ge  Ge21  1  0.15261300  0.69836500  0.00000000  1
  Ge  Ge22  1  0.69836500  0.00000000  0.84738700  1
  Ge  Ge23  1  0.84738700  0.30163500  0.00000000  1
  Ge  Ge24  1  0.00000000  0.15261300  0.30163500  1
  Ge  Ge25  1  0.00000000  0.84738700  0.69836500  1
loop_
_geom_bond_atom_site_label_1
_geom_bond_atom_site_label_2
_geom_bond_distance
_geom_bond_site_symmetry_2
Co0 Ge23 2.408656 1_556
Co0 Ge4 2.408656 1_555
Co0 Ge16 2.408656 1_655
Co0 Ge2 2.408656 1_555
Co0 Ge3 2.408656 1_555
Co0 Ge22 2.408656 1_555
Co0 Yb1 3.116835 1_556
Co0 Yb0 3.116835 1_655
Co0 Yb2 3.116835 1_555
Co1 Ge19 2.408656 1_555
Co1 Ge20 2.408656 1_565
Co1 Ge6 2.408656 1_555
Co1 Ge21 2.408656 1_555
Co1 Ge5 2.408656 1_555
Co1 Ge7 2.408656 1_555
Co1 Yb3 3.116835 1_555
Co1 Yb5 3.116835 1_565
Co1 Yb4 3.116835 1_555
Co2 Ge9 2.408656 1_555
Co2 Ge19 2.408656 1_655
Co2 Ge8 2.408656 1_555
Co2 Ge18 2.408656 1_555
Co2 Ge17 2.408656 1_565
Co2 Ge7 2.408656 1_555
Co2 Yb3 3.116835 1_655
Co2 Yb2 3.116835 1_565
Co2 Yb4 3.116835 1_555
Co3 Ge11 2.408656 1_555
Co3 Ge14 2.408656 1_555
Co3 Ge4 2.408656 1_555
Co3 Ge15 2.408656 1_556
Co3 Ge16 2.408656 1_555
Co3 Ge10 2.408656 1_555
Co3 Yb0 3.116835 1_555
Co3 Yb5 3.116835 1_555
Co3 Yb1 3.116835 1_556
Co4 Ge11 2.408656 1_555
Co4 Ge12 2.408656 1_555
Co4 Ge5 2.408656 1_555
Co4 Ge21 2.408656 1_556
Co4 Ge14 2.408656 1_565
Co4 Ge25 2.408656 1_555
Co4 Yb5 3.116835 1_565
Co4 Yb0 3.116835 1_555
Co4 Yb4 3.116835 1_556
Co5 Ge9 2.408656 1_555
Co5 Ge13 2.408656 1_555
Co5 Ge17 2.408656 1_555
Co5 Ge23 2.408656 1_555
Co5 Ge24 2.408656 1_655
Co5 Ge2 2.408656 1_555
Co5 Yb3 3.116835 1_655
Co5 Yb1 3.116835 1_555
Co5 Yb2 3.116835 1_555
Co6 Ge13 2.408656 1_555
Co6 Ge6 2.408656 1_555
Co6 Ge15 2.408656 1_555
Co6 Ge24 2.408656 1_555
Co6 Ge20 2.408656 1_555
Co6 Ge10 2.408656 1_555
Co6 Yb3 3.116835 1_555
Co6 Yb5 3.116835 1_555
Co6 Yb1 3.116835 1_555
Co7 Ge22 2.408656 1_565
Co7 Ge25 2.408656 1_655
Co7 Ge8 2.408656 1_555
Co7 Ge12 2.408656 1_555
Co7 Ge18 2.408656 1_556
Co7 Ge3 2.408656 1_555
Co7 Yb2 3.116835 1_565
Co7 Yb4 3.116835 1_556
Co7 Yb0 3.116835 1_655
Ge0 Ge3 2.980117 1_555
Ge0 Ge8 2.980117 1_555
Ge0 Ge5 2.980117 1_555
Ge0 Ge9 2.980117 1_555
Ge0 Ge10 2.980117 1_555
Ge0 Ge7 2.980117 1_555
Ge0 Ge11 2.980117 1_555
Ge0 Ge4 2.980117 1_555
Ge0 Ge13 2.980117 1_555
Ge0 Ge6 2.980117 1_555
Ge0 Ge2 2.980117 1_555
Ge0 Ge12 2.980117 1_555
Ge1 Ge15 2.980117 1_555
Ge1 Ge20 2.980117 1_555
Ge1 Ge18 2.980117 1_445
Ge1 Ge21 2.980117 1_545
Ge1 Ge16 2.980117 1_554
Ge1 Ge23 2.980117 1_455
Ge1 Ge17 2.980117 1_455
Ge1 Ge14 2.980117 1_554
Ge1 Ge25 2.980117 1_544
Ge1 Ge19 2.980117 1_545
Ge1 Ge24 2.980117 1_555
Ge1 Ge22 2.980117 1_454
Ge2 Yb2 3.096119 1_555
Ge2 Yb0 3.118572 1_655
Ge2 Yb3 3.118572 1_655
Ge3 Yb0 3.096119 1_655
Ge3 Yb4 3.118572 1_556
Ge3 Yb1 3.118572 1_556
Ge4 Yb1 3.096119 1_556
Ge4 Yb5 3.118572 1_555
Ge4 Yb2 3.118572 1_555
Ge5 Yb5 3.096119 1_565
Ge5 Yb3 3.118572 1_555
Ge5 Yb0 3.118572 1_555
Ge6 Yb3 3.096119 1_555
Ge6 Yb4 3.118572 1_555
Ge6 Yb1 3.118572 1_555
Ge7 Yb4 3.096119 1_555
Ge7 Yb5 3.118572 1_565
Ge7 Yb2 3.118572 1_565
Ge8 Yb2 3.096119 1_565
Ge8 Yb0 3.118572 1_655
Ge8 Yb3 3.118572 1_655
Ge9 Yb3 3.096119 1_655
Ge9 Yb4 3.118572 1_555
Ge9 Yb1 3.118572 1_555
Ge10 Yb5 3.096119 1_555
Ge10 Yb3 3.118572 1_555
Ge10 Yb0 3.118572 1_555
Ge11 Yb0 3.096119 1_555
Ge11 Yb4 3.118572 1_556
Ge11 Yb1 3.118572 1_556
Ge12 Yb4 3.096119 1_556
Ge12 Yb5 3.118572 1_565
Ge12 Yb2 3.118572 1_565
Ge13 Yb1 3.096119 1_555
Ge13 Yb5 3.118572 1_555
Ge13 Yb2 3.118572 1_555
Ge14 Yb5 3.096119 1_555
Ge14 Yb1 3.118572 1_556
Ge14 Yb4 3.118572 1_546
Ge15 Yb1 3.096119 1_555
Ge15 Yb3 3.118572 1_555
Ge15 Yb0 3.118572 1_554
Ge16 Yb0 3.096119 1_555
Ge16 Yb2 3.118572 1_455
Ge16 Yb5 3.118572 1_555
Ge17 Yb2 3.096119 1_555
Ge17 Yb4 3.118572 1_545
Ge17 Yb1 3.118572 1_555
Ge18 Yb4 3.096119 1_555
Ge18 Yb0 3.118572 1_654
Ge18 Yb3 3.118572 1_655
Ge19 Yb3 3.096119 1_555
Ge19 Yb2 3.118572 1_465
Ge19 Yb5 3.118572 1_565
Ge20 Yb5 3.096119 1_555
Ge20 Yb4 3.118572 1_545
Ge20 Yb1 3.118572 1_555
Ge21 Yb4 3.096119 1_555
Ge21 Yb3 3.118572 1_555
Ge21 Yb0 3.118572 1_554
Ge22 Yb2 3.096119 1_555
Ge22 Yb1 3.118572 1_556
Ge22 Yb4 3.118572 1_546
Ge23 Yb1 3.096119 1_555
Ge23 Yb0 3.118572 1_654
Ge23 Yb3 3.118572 1_655
Ge24 Yb3 3.096119 1_555
Ge24 Yb2 3.118572 1_455
Ge24 Yb5 3.118572 1_555
Ge25 Yb0 3.096119 1_555
Ge25 Yb2 3.118572 1_465
Ge25 Yb5 3.118572 1_565
