# generated using pymatgen
data_Tb5CoBi2
_symmetry_space_group_name_H-M   'P 1'
_cell_length_a   8.05761161
_cell_length_b   8.88950157
_cell_length_c   12.38582769
_cell_angle_alpha   90.00000000
_cell_angle_beta   90.00000000
_cell_angle_gamma   90.00000000
_symmetry_Int_Tables_number   1
_chemical_formula_structural   Tb5CoBi2
_chemical_formula_sum   'Tb20 Co4 Bi8'
_cell_volume   887.17393675
_cell_formula_units_Z   4
loop_
 _symmetry_equiv_pos_site_id
 _symmetry_equiv_pos_as_xyz
  1  'x, y, z'
loop_
 _atom_site_type_symbol
 _atom_site_label
 _atom_site_symmetry_multiplicity
 _atom_site_fract_x
 _atom_site_fract_y
 _atom_site_fract_z
 _atom_site_occupancy
  Tb  Tb0  1  0.84741022  0.75000000  0.79984958  1
  Tb  Tb1  1  0.15258978  0.25000000  0.20015042  1
  Tb  Tb2  1  0.34741022  0.25000000  0.70015042  1
  Tb  Tb3  1  0.65258978  0.75000000  0.29984958  1
  Tb  Tb4  1  0.38435219  0.75000000  0.68854130  1
  Tb  Tb5  1  0.61564781  0.25000000  0.31145870  1
  Tb  Tb6  1  0.88435219  0.25000000  0.81145870  1
  Tb  Tb7  1  0.11564781  0.75000000  0.18854130  1
  Tb  Tb8  1  0.94706735  0.75000000  0.50241713  1
  Tb  Tb9  1  0.05293265  0.25000000  0.49758287  1
  Tb  Tb10  1  0.44706735  0.25000000  0.99758287  1
  Tb  Tb11  1  0.55293265  0.75000000  0.00241713  1
  Tb  Tb12  1  0.67605785  0.03812304  0.56360102  1
  Tb  Tb13  1  0.32394215  0.96187696  0.43639898  1
  Tb  Tb14  1  0.17605785  0.96187696  0.93639898  1
  Tb  Tb15  1  0.32394215  0.53812304  0.43639898  1
  Tb  Tb16  1  0.82394215  0.03812304  0.06360102  1
  Tb  Tb17  1  0.67605785  0.46187696  0.56360102  1
  Tb  Tb18  1  0.82394215  0.46187696  0.06360102  1
  Tb  Tb19  1  0.17605785  0.53812304  0.93639898  1
  Co  Co0  1  0.56528003  0.75000000  0.50787044  1
  Co  Co1  1  0.43471997  0.25000000  0.49212956  1
  Co  Co2  1  0.06528003  0.25000000  0.99212956  1
  Co  Co3  1  0.93471997  0.75000000  0.00787044  1
  Bi  Bi0  1  0.57193914  0.49112596  0.82681461  1
  Bi  Bi1  1  0.42806086  0.50887404  0.17318539  1
  Bi  Bi2  1  0.07193914  0.50887404  0.67318539  1
  Bi  Bi3  1  0.42806086  0.99112596  0.17318539  1
  Bi  Bi4  1  0.92806086  0.49112596  0.32681461  1
  Bi  Bi5  1  0.57193914  0.00887404  0.82681461  1
  Bi  Bi6  1  0.92806086  0.00887404  0.32681461  1
  Bi  Bi7  1  0.07193914  0.99112596  0.67318539  1
loop_
_geom_bond_atom_site_label_1
_geom_bond_atom_site_label_2
_geom_bond_distance
_geom_bond_site_symmetry_2
Co0 Tb4 2.670745 1_555
Co0 Tb3 2.670829 1_555
Co0 Tb12 2.798807 1_565
Co0 Tb17 2.798807 1_555
Co0 Tb15 2.848268 1_555
Co0 Tb13 2.848268 1_555
Co0 Tb8 3.077035 1_555
Co1 Tb5 2.670745 1_555
Co1 Tb2 2.670829 1_555
Co1 Tb13 2.798807 1_545
Co1 Tb15 2.798807 1_555
Co1 Tb12 2.848268 1_555
Co1 Tb17 2.848268 1_555
Co1 Tb9 3.077035 1_555
Co2 Tb6 2.670745 1_455
Co2 Tb1 2.670829 1_556
Co2 Tb14 2.798807 1_545
Co2 Tb19 2.798807 1_555
Co2 Tb18 2.848268 1_456
Co2 Tb16 2.848268 1_456
Co2 Tb10 3.077035 1_555
Co3 Tb7 2.670745 1_655
Co3 Tb0 2.670829 1_554
Co3 Tb16 2.798807 1_565
Co3 Tb18 2.798807 1_555
Co3 Tb14 2.848268 1_654
Co3 Tb19 2.848268 1_654
Co3 Tb11 3.077035 1_555
Bi0 Tb11 3.170143 1_556
Bi0 Tb10 3.174996 1_555
Bi0 Tb2 3.213860 1_555
Bi0 Tb0 3.214677 1_555
Bi0 Tb4 3.242459 1_555
Bi0 Tb6 3.311727 1_555
Bi0 Tb17 3.376360 1_555
Bi0 Tb19 3.491701 1_555
Bi0 Tb18 3.576590 1_556
Bi1 Tb10 3.170143 1_554
Bi1 Tb11 3.174996 1_555
Bi1 Tb3 3.213860 1_555
Bi1 Tb1 3.214677 1_555
Bi1 Tb5 3.242459 1_555
Bi1 Tb7 3.311727 1_555
Bi1 Tb15 3.376360 1_555
Bi1 Tb18 3.491701 1_555
Bi1 Tb19 3.576590 1_554
Bi2 Tb9 3.170143 1_555
Bi2 Tb8 3.174996 1_455
Bi2 Tb0 3.213860 1_455
Bi2 Tb2 3.214677 1_555
Bi2 Tb6 3.242459 1_455
Bi2 Tb4 3.311727 1_555
Bi2 Tb19 3.376360 1_555
Bi2 Tb17 3.491701 1_455
Bi2 Tb15 3.576590 1_555
Bi3 Tb10 3.170143 1_564
Bi3 Tb11 3.174996 1_555
Bi3 Tb3 3.213860 1_555
Bi3 Tb1 3.214677 1_565
Bi3 Tb5 3.242459 1_565
Bi3 Tb7 3.311727 1_555
Bi3 Tb13 3.376360 1_555
Bi3 Tb16 3.491701 1_565
Bi3 Tb14 3.576590 1_554
Bi4 Tb8 3.170143 1_555
Bi4 Tb9 3.174996 1_655
Bi4 Tb1 3.213860 1_655
Bi4 Tb3 3.214677 1_555
Bi4 Tb7 3.242459 1_655
Bi4 Tb5 3.311727 1_555
Bi4 Tb18 3.376360 1_555
Bi4 Tb15 3.491701 1_655
Bi4 Tb17 3.576590 1_555
Bi5 Tb11 3.170143 1_546
Bi5 Tb10 3.174996 1_555
Bi5 Tb2 3.213860 1_555
Bi5 Tb0 3.214677 1_545
Bi5 Tb4 3.242459 1_545
Bi5 Tb6 3.311727 1_555
Bi5 Tb12 3.376360 1_555
Bi5 Tb14 3.491701 1_545
Bi5 Tb16 3.576590 1_556
Bi6 Tb8 3.170143 1_545
Bi6 Tb9 3.174996 1_655
Bi6 Tb1 3.213860 1_655
Bi6 Tb3 3.214677 1_545
Bi6 Tb7 3.242459 1_645
Bi6 Tb5 3.311727 1_555
Bi6 Tb16 3.376360 1_555
Bi6 Tb13 3.491701 1_645
Bi6 Tb12 3.576590 1_555
Bi7 Tb9 3.170143 1_565
Bi7 Tb8 3.174996 1_455
Bi7 Tb0 3.213860 1_455
Bi7 Tb2 3.214677 1_565
Bi7 Tb6 3.242459 1_465
Bi7 Tb4 3.311727 1_555
Bi7 Tb14 3.376360 1_555
Bi7 Tb12 3.491701 1_465
Bi7 Tb13 3.576590 1_555
