# generated using pymatgen
data_Te2Mo3WS6
_symmetry_space_group_name_H-M   'P 1'
_cell_length_a   3.27367550
_cell_length_b   3.27367550
_cell_length_c   38.68924600
_cell_angle_alpha   90.00000000
_cell_angle_beta   90.00000000
_cell_angle_gamma   119.99998985
_symmetry_Int_Tables_number   1
_chemical_formula_structural   Te2Mo3WS6
_chemical_formula_sum   'Te2 Mo3 W1 S6'
_cell_volume   359.08081143
_cell_formula_units_Z   1
loop_
 _symmetry_equiv_pos_site_id
 _symmetry_equiv_pos_as_xyz
  1  'x, y, z'
loop_
 _atom_site_type_symbol
 _atom_site_label
 _atom_site_symmetry_multiplicity
 _atom_site_fract_x
 _atom_site_fract_y
 _atom_site_fract_z
 _atom_site_occupancy
  Te  Te0  1  0.00000000  0.00000000  0.70919500  1
  Te  Te1  1  0.00000000  0.00000000  0.60974200  1
  Mo  Mo0  1  0.00000000  0.00000000  0.09346100  1
  Mo  Mo1  1  0.33333300  0.66666700  0.28208800  1
  Mo  Mo2  1  0.33333300  0.66666700  0.65947300  1
  W  W0  1  0.00000000  0.00000000  0.46792600  1
  S  S0  1  0.00000000  0.00000000  0.32184400  1
  S  S1  1  0.33333300  0.66666700  0.05370800  1
  S  S2  1  0.33333300  0.66666700  0.42797900  1
  S  S3  1  0.33333300  0.66666700  0.13320200  1
  S  S4  1  0.33333300  0.66666700  0.50787100  1
  S  S5  1  0.00000000  0.00000000  0.24226100  1
loop_
_geom_bond_atom_site_label_1
_geom_bond_atom_site_label_2
_geom_bond_distance
_geom_bond_site_symmetry_2
Mo0 S3 2.436466 1_545
Mo0 S3 2.436469 1_555
Mo0 S3 2.436469 1_445
Mo0 S1 2.436759 1_545
Mo0 S1 2.436762 1_555
Mo0 S1 2.436762 1_445
Mo1 S0 2.436832 1_565
Mo1 S0 2.436835 1_665
Mo1 S0 2.436835 1_555
Mo1 S5 2.438567 1_565
Mo1 S5 2.438570 1_555
Mo1 S5 2.438570 1_665
Mo2 Te0 2.696842 1_565
Mo2 Te0 2.696844 1_555
Mo2 Te0 2.696844 1_665
Mo2 Te1 2.697090 1_565
Mo2 Te1 2.697093 1_555
Mo2 Te1 2.697093 1_665
S2 W0 2.441504 1_565
S2 W0 2.441506 1_665
S2 W0 2.441506 1_555
S4 W0 2.441455 1_565
S4 W0 2.441457 1_555
S4 W0 2.441457 1_665
