# generated using pymatgen
data_LiH3CN2O
_symmetry_space_group_name_H-M   'P 1'
_cell_length_a   7.76635000
_cell_length_b   9.47157600
_cell_length_c   14.57146648
_cell_angle_alpha   90.00000000
_cell_angle_beta   113.75573556
_cell_angle_gamma   90.00000000
_symmetry_Int_Tables_number   1
_chemical_formula_structural   LiH3CN2O
_chemical_formula_sum   'Li12 H36 C12 N24 O12'
_cell_volume   981.05249315
_cell_formula_units_Z   12
loop_
 _symmetry_equiv_pos_site_id
 _symmetry_equiv_pos_as_xyz
  1  'x, y, z'
loop_
 _atom_site_type_symbol
 _atom_site_label
 _atom_site_symmetry_multiplicity
 _atom_site_fract_x
 _atom_site_fract_y
 _atom_site_fract_z
 _atom_site_occupancy
  Li  Li0  1  0.10999200  0.56742500  0.13544600  1
  Li  Li1  1  0.10999200  0.93257500  0.63544600  1
  Li  Li2  1  0.89000800  0.43257500  0.86455400  1
  Li  Li3  1  0.89000800  0.06742500  0.36455400  1
  Li  Li4  1  0.11131100  0.65007000  0.94816100  1
  Li  Li5  1  0.11131100  0.84993000  0.44816100  1
  Li  Li6  1  0.88868900  0.34993000  0.05183900  1
  Li  Li7  1  0.88868900  0.15007000  0.55183900  1
  Li  Li8  1  0.80146100  0.68921800  0.77467900  1
  Li  Li9  1  0.80146100  0.81078200  0.27467900  1
  Li  Li10  1  0.19853900  0.31078200  0.22532100  1
  Li  Li11  1  0.19853900  0.18921800  0.72532100  1
  H  H0  1  0.54808800  0.74926800  0.86457100  1
  H  H1  1  0.54808800  0.75073200  0.36457100  1
  H  H2  1  0.45191200  0.25073200  0.13542900  1
  H  H3  1  0.45191200  0.24926800  0.63542900  1
  H  H4  1  0.52876000  0.73352900  0.98027500  1
  H  H5  1  0.52876000  0.76647100  0.48027500  1
  H  H6  1  0.47124000  0.26647100  0.01972500  1
  H  H7  1  0.47124000  0.23352900  0.51972500  1
  H  H8  1  0.73962300  0.58874400  0.09628100  1
  H  H9  1  0.73962300  0.91125600  0.59628100  1
  H  H10  1  0.26037700  0.41125600  0.90371900  1
  H  H11  1  0.26037700  0.08874400  0.40371900  1
  H  H12  1  0.99061500  0.90121000  0.12422100  1
  H  H13  1  0.99061500  0.59879000  0.62422100  1
  H  H14  1  0.00938500  0.09879000  0.87577900  1
  H  H15  1  0.00938500  0.40121000  0.37577900  1
  H  H16  1  0.04968000  0.05573300  0.08614900  1
  H  H17  1  0.04968000  0.44426700  0.58614900  1
  H  H18  1  0.95032000  0.94426700  0.91385100  1
  H  H19  1  0.95032000  0.55573300  0.41385100  1
  H  H20  1  0.85648500  0.26094000  0.21875200  1
  H  H21  1  0.85648500  0.23906000  0.71875200  1
  H  H22  1  0.14351500  0.73906000  0.78124800  1
  H  H23  1  0.14351500  0.76094000  0.28124800  1
  H  H24  1  0.69424000  0.05265800  0.95918400  1
  H  H25  1  0.69424000  0.44734200  0.45918400  1
  H  H26  1  0.30576000  0.94734200  0.04081600  1
  H  H27  1  0.30576000  0.55265800  0.54081600  1
  H  H28  1  0.45657000  0.05047900  0.87612500  1
  H  H29  1  0.45657000  0.44952100  0.37612500  1
  H  H30  1  0.54343000  0.94952100  0.12387500  1
  H  H31  1  0.54343000  0.55047900  0.62387500  1
  H  H32  1  0.48837100  0.38611200  0.78263700  1
  H  H33  1  0.48837100  0.11388800  0.28263700  1
  H  H34  1  0.51162900  0.61388800  0.21736300  1
  H  H35  1  0.51162900  0.88611200  0.71736300  1
  C  C0  1  0.75570700  0.63055400  0.96925900  1
  C  C1  1  0.75570700  0.86944600  0.46925900  1
  C  C2  1  0.24429300  0.36944600  0.03074100  1
  C  C3  1  0.24429300  0.13055400  0.53074100  1
  C  C4  1  0.89959100  0.07891500  0.17346600  1
  C  C5  1  0.89959100  0.42108500  0.67346600  1
  C  C6  1  0.10040900  0.92108500  0.82653400  1
  C  C7  1  0.10040900  0.57891500  0.32653400  1
  C  C8  1  0.60389300  0.23138000  0.87127000  1
  C  C9  1  0.60389300  0.26862000  0.37127000  1
  C  C10  1  0.39610700  0.76862000  0.12873000  1
  C  C11  1  0.39610700  0.73138000  0.62873000  1
  N  N0  1  0.60156700  0.71654100  0.93710800  1
  N  N1  1  0.60156700  0.78345900  0.43710800  1
  N  N2  1  0.39843300  0.28345900  0.06289200  1
  N  N3  1  0.39843300  0.21654100  0.56289200  1
  N  N4  1  0.82134700  0.56591800  0.05791500  1
  N  N5  1  0.82134700  0.93408200  0.55791500  1
  N  N6  1  0.17865300  0.43408200  0.94208500  1
  N  N7  1  0.17865300  0.06591800  0.44208500  1
  N  N8  1  0.95788200  0.00496000  0.10842300  1
  N  N9  1  0.95788200  0.49504000  0.60842300  1
  N  N10  1  0.04211800  0.99504000  0.89157700  1
  N  N11  1  0.04211800  0.50496000  0.39157700  1
  N  N12  1  0.91857800  0.21920700  0.17477500  1
  N  N13  1  0.91857800  0.28079300  0.67477500  1
  N  N14  1  0.08142200  0.78079300  0.82522500  1
  N  N15  1  0.08142200  0.71920700  0.32522500  1
  N  N16  1  0.57936900  0.10441200  0.91046400  1
  N  N17  1  0.57936900  0.39558800  0.41046400  1
  N  N18  1  0.42063100  0.89558800  0.08953600  1
  N  N19  1  0.42063100  0.60441200  0.58953600  1
  N  N20  1  0.45419400  0.28723100  0.79823600  1
  N  N21  1  0.45419400  0.21276900  0.29823600  1
  N  N22  1  0.54580600  0.71276900  0.20176400  1
  N  N23  1  0.54580600  0.78723100  0.70176400  1
  O  O0  1  0.83854200  0.61694300  0.90801100  1
  O  O1  1  0.83854200  0.88305700  0.40801100  1
  O  O2  1  0.16145800  0.38305700  0.09198900  1
  O  O3  1  0.16145800  0.11694300  0.59198900  1
  O  O4  1  0.82598800  0.00665700  0.22370000  1
  O  O5  1  0.82598800  0.49334300  0.72370000  1
  O  O6  1  0.17401200  0.99334300  0.77630000  1
  O  O7  1  0.17401200  0.50665700  0.27630000  1
  O  O8  1  0.77234000  0.28598200  0.91213700  1
  O  O9  1  0.77234000  0.21401800  0.41213700  1
  O  O10  1  0.22766000  0.71401800  0.08786300  1
  O  O11  1  0.22766000  0.78598200  0.58786300  1
loop_
_geom_bond_atom_site_label_1
_geom_bond_atom_site_label_2
_geom_bond_distance
_geom_bond_site_symmetry_2
Li0 O10 1.937575 1_555
Li0 O2 1.952966 1_555
Li0 O7 1.992200 1_555
Li0 N4 2.064314 1_455
Li1 O11 1.937575 1_555
Li1 O3 1.952966 1_565
Li1 O6 1.992200 1_555
Li1 N5 2.064314 1_455
Li2 O8 1.937575 1_555
Li2 O0 1.952966 1_555
Li2 O5 1.992200 1_555
Li2 N6 2.064314 1_655
Li3 O9 1.937575 1_555
Li3 O1 1.952966 1_545
Li3 O4 1.992200 1_555
Li3 N7 2.064314 1_655
Li4 O10 1.960942 1_556
Li4 O0 1.982396 1_455
Li4 N14 2.112072 1_555
Li4 N6 2.122205 1_555
Li5 O11 1.960942 1_555
Li5 O1 1.982396 1_455
Li5 N15 2.112072 1_555
Li5 N7 2.122205 1_565
Li6 O8 1.960942 1_554
Li6 O2 1.982396 1_655
Li6 N12 2.112072 1_555
Li6 N4 2.122205 1_555
Li7 O9 1.960942 1_555
Li7 O3 1.982396 1_655
Li7 N13 2.112072 1_555
Li7 N5 2.122205 1_545
Li8 O0 1.968606 1_555
Li8 O5 2.035689 1_555
Li8 N23 2.057495 1_555
Li8 N14 2.175324 1_655
Li9 O1 1.968606 1_555
Li9 O4 2.035689 1_565
Li9 N22 2.057495 1_555
Li9 N15 2.175324 1_655
Li10 O2 1.968606 1_555
Li10 O7 2.035689 1_555
Li10 N21 2.057495 1_555
Li10 N12 2.175324 1_455
Li11 O3 1.968606 1_555
Li11 O6 2.035689 1_545
Li11 N20 2.057495 1_555
Li11 N13 2.175324 1_455
H0 N0 1.015916 1_555
H1 N1 1.015916 1_555
H2 N2 1.015916 1_555
H3 N3 1.015916 1_555
H4 N0 1.013815 1_555
H5 N1 1.013815 1_555
H6 N2 1.013815 1_555
H7 N3 1.013815 1_555
H8 N4 1.023716 1_555
H9 N5 1.023716 1_555
H10 N6 1.023716 1_555
H11 N7 1.023716 1_555
H12 N8 1.017900 1_565
H13 N9 1.017900 1_555
H14 N10 1.017900 1_545
H15 N11 1.017900 1_555
H16 N8 1.015536 1_455
H17 N9 1.015536 1_455
H18 N10 1.015536 1_655
H19 N11 1.015536 1_655
H20 N12 1.023916 1_555
H21 N13 1.023916 1_555
H22 N14 1.023916 1_555
H23 N15 1.023916 1_555
H24 N16 1.014841 1_555
H25 N17 1.014841 1_555
H26 N18 1.014841 1_555
H27 N19 1.014841 1_555
H28 N16 1.018033 1_555
H29 N17 1.018033 1_555
H30 N18 1.018033 1_555
H31 N19 1.018033 1_555
H32 N20 1.023655 1_555
H33 N21 1.023655 1_555
H34 N22 1.023655 1_555
H35 N23 1.023655 1_555
C0 O0 1.299837 1_555
C0 N4 1.331524 1_556
C0 N0 1.365282 1_555
C1 O1 1.299837 1_555
C1 N5 1.331524 1_555
C1 N1 1.365282 1_555
C2 O2 1.299837 1_555
C2 N6 1.331524 1_554
C2 N2 1.365282 1_555
C3 O3 1.299837 1_555
C3 N7 1.331524 1_555
C3 N3 1.365282 1_555
C4 O4 1.291537 1_555
C4 N12 1.336232 1_555
C4 N8 1.392682 1_555
C5 O5 1.291537 1_555
C5 N13 1.336232 1_555
C5 N9 1.392682 1_555
C6 O6 1.291537 1_555
C6 N14 1.336232 1_555
C6 N10 1.392682 1_555
C7 O7 1.291537 1_555
C7 N15 1.336232 1_555
C7 N11 1.392682 1_555
C8 O8 1.306085 1_555
C8 N20 1.329368 1_555
C8 N16 1.377062 1_555
C9 O9 1.306085 1_555
C9 N21 1.329368 1_555
C9 N17 1.377062 1_555
C10 O10 1.306085 1_555
C10 N22 1.329368 1_555
C10 N18 1.377062 1_555
C11 O11 1.306085 1_555
C11 N23 1.329368 1_555
C11 N19 1.377062 1_555
