# generated using pymatgen
data_LiFe2O2F3
_symmetry_space_group_name_H-M   'P 1'
_cell_length_a   5.97950427
_cell_length_b   5.97950427
_cell_length_c   7.10037124
_cell_angle_alpha   70.55523212
_cell_angle_beta   70.55523212
_cell_angle_gamma   50.36335980
_symmetry_Int_Tables_number   1
_chemical_formula_structural   LiFe2O2F3
_chemical_formula_sum   'Li2 Fe4 O4 F6'
_cell_volume   181.79813828
_cell_formula_units_Z   2
loop_
 _symmetry_equiv_pos_site_id
 _symmetry_equiv_pos_as_xyz
  1  'x, y, z'
loop_
 _atom_site_type_symbol
 _atom_site_label
 _atom_site_symmetry_multiplicity
 _atom_site_fract_x
 _atom_site_fract_y
 _atom_site_fract_z
 _atom_site_occupancy
  Li  Li0  1  0.50000000  0.50000000  0.00000000  1
  Li  Li1  1  0.50000000  0.50000000  0.50000000  1
  Fe  Fe0  1  0.78715300  0.83017700  0.86968800  1
  Fe  Fe1  1  0.83017700  0.78715300  0.36968800  1
  Fe  Fe2  1  0.16982300  0.21284700  0.63031200  1
  Fe  Fe3  1  0.21284700  0.16982300  0.13031200  1
  O  O0  1  0.97563700  0.62689100  0.63454100  1
  O  O1  1  0.62689100  0.97563700  0.13454100  1
  O  O2  1  0.37310900  0.02436300  0.86545900  1
  O  O3  1  0.02436300  0.37310900  0.36545900  1
  F  F0  1  0.17029000  0.82971000  0.25000000  1
  F  F1  1  0.55310700  0.19012000  0.45344900  1
  F  F2  1  0.19012000  0.55310700  0.95344900  1
  F  F3  1  0.80988000  0.44689300  0.04655100  1
  F  F4  1  0.44689300  0.80988000  0.54655100  1
  F  F5  1  0.82971000  0.17029000  0.75000000  1
loop_
_geom_bond_atom_site_label_1
_geom_bond_atom_site_label_2
_geom_bond_distance
_geom_bond_site_symmetry_2
Fe0 O2 1.958888 1_565
Fe0 O0 1.971289 1_555
Fe0 O1 2.009252 1_556
Fe1 O3 1.958888 1_655
Fe1 O1 1.971289 1_555
Fe1 O0 2.009252 1_555
Fe2 O0 1.958888 1_455
Fe2 O2 1.971289 1_555
Fe2 O3 2.009252 1_555
Fe3 O1 1.958888 1_545
Fe3 O3 1.971289 1_555
Fe3 O2 2.009252 1_554
F0 Fe1 2.070873 1_455
F0 Fe3 2.070873 1_565
F0 Li0 2.442470 1_555
F0 Li1 2.442470 1_555
F1 Li1 1.797390 1_555
F1 Fe1 2.027159 1_545
F1 Fe2 2.155944 1_555
F2 Li0 1.797390 1_556
F2 Fe0 2.027159 1_455
F2 Fe3 2.155944 1_556
F3 Li0 1.797390 1_555
F3 Fe3 2.027159 1_655
F3 Fe0 2.155944 1_554
F4 Li1 1.797390 1_555
F4 Fe2 2.027159 1_565
F4 Fe1 2.155944 1_555
F5 Fe0 2.070873 1_545
F5 Fe2 2.070873 1_655
F5 Li1 2.442470 1_555
F5 Li0 2.442470 1_556
