# generated using pymatgen
data_Li2Ni3BiO8
_symmetry_space_group_name_H-M   'P 1'
_cell_length_a   5.91875042
_cell_length_b   5.91686318
_cell_length_c   10.79274968
_cell_angle_alpha   74.05703320
_cell_angle_beta   90.05188330
_cell_angle_gamma   119.97303503
_symmetry_Int_Tables_number   1
_chemical_formula_structural   Li2Ni3BiO8
_chemical_formula_sum   'Li4 Ni6 Bi2 O16'
_cell_volume   310.57876865
_cell_formula_units_Z   2
loop_
 _symmetry_equiv_pos_site_id
 _symmetry_equiv_pos_as_xyz
  1  'x, y, z'
loop_
 _atom_site_type_symbol
 _atom_site_label
 _atom_site_symmetry_multiplicity
 _atom_site_fract_x
 _atom_site_fract_y
 _atom_site_fract_z
 _atom_site_occupancy
  Li  Li0  1  0.56245100  0.12491400  0.31325200  1
  Li  Li1  1  0.06235900  0.12468100  0.81333700  1
  Li  Li2  1  0.93768000  0.87541900  0.18670100  1
  Li  Li3  1  0.43750800  0.87507800  0.68680600  1
  Ni  Ni0  1  0.99969100  0.49982100  0.50004800  1
  Ni  Ni1  1  0.00004100  0.99988700  0.50002000  1
  Ni  Ni2  1  0.50001800  0.49997300  0.49995600  1
  Ni  Ni3  1  0.50018500  0.50008200  0.99997700  1
  Ni  Ni4  1  0.50030100  0.00009400  0.99997100  1
  Ni  Ni5  1  0.00001900  0.50008500  0.99997800  1
  Bi  Bi0  1  0.25005700  0.50029500  0.24999800  1
  Bi  Bi1  1  0.74984600  0.49988500  0.74997900  1
  O  O0  1  0.86379400  0.72785100  0.40896400  1
  O  O1  1  0.36389200  0.72790500  0.90904400  1
  O  O2  1  0.63608200  0.27199900  0.09096600  1
  O  O3  1  0.13614800  0.27200900  0.59097700  1
  O  O4  1  0.38923200  0.72539900  0.38569500  1
  O  O5  1  0.88912800  0.72527500  0.88567000  1
  O  O6  1  0.33609600  0.22551900  0.38582500  1
  O  O7  1  0.83614400  0.22549800  0.88581700  1
  O  O8  1  0.88985500  0.27993100  0.38537200  1
  O  O9  1  0.38983900  0.27987600  0.88538500  1
  O  O10  1  0.61018100  0.72003200  0.11464100  1
  O  O11  1  0.11007500  0.71997900  0.61464300  1
  O  O12  1  0.16393500  0.77468600  0.11412800  1
  O  O13  1  0.66390000  0.77449900  0.61419100  1
  O  O14  1  0.11085600  0.27477300  0.11433700  1
  O  O15  1  0.61068800  0.27455600  0.61432200  1
loop_
_geom_bond_atom_site_label_1
_geom_bond_atom_site_label_2
_geom_bond_distance
_geom_bond_site_symmetry_2
Li0 O4 1.953171 1_545
Li0 O8 1.953415 1_555
Li0 O6 1.953876 1_555
Li0 O2 2.275702 1_555
Li1 O5 1.952544 1_445
Li1 O9 1.953434 1_555
Li1 O7 1.953645 1_455
Li1 O3 2.276458 1_555
Li2 O14 1.952335 1_665
Li2 O10 1.953683 1_555
Li2 O12 1.953954 1_655
Li2 O0 2.275462 1_555
Li3 O15 1.953036 1_565
Li3 O11 1.953830 1_555
Li3 O13 1.954163 1_555
Li3 O1 2.275209 1_555
Ni0 O8 1.919700 1_555
Ni0 O11 1.920062 1_655
Ni0 O0 1.946283 1_555
Ni0 O3 1.947294 1_655
Ni0 O15 2.152789 1_555
Ni0 O4 2.155421 1_655
Ni1 O6 1.924788 1_565
Ni1 O13 1.925020 1_455
Ni1 O3 1.943186 1_565
Ni1 O0 1.943583 1_455
Ni1 O11 2.155966 1_555
Ni1 O8 2.157293 1_465
Ni2 O4 1.923172 1_555
Ni2 O15 1.923175 1_555
Ni2 O0 1.947804 1_555
Ni2 O3 1.948327 1_555
Ni2 O6 2.148991 1_555
Ni2 O13 2.150142 1_555
Ni3 O10 1.919836 1_556
Ni3 O9 1.920229 1_555
Ni3 O2 1.946200 1_556
Ni3 O1 1.946620 1_555
Ni3 O5 2.152694 1_555
Ni3 O14 2.154613 1_556
Ni4 O7 1.923725 1_555
Ni4 O12 1.925869 1_546
Ni4 O2 1.942511 1_556
Ni4 O1 1.943252 1_545
Ni4 O10 2.156219 1_546
Ni4 O9 2.156990 1_555
Ni5 O5 1.922868 1_455
Ni5 O14 1.923393 1_556
Ni5 O1 1.948043 1_555
Ni5 O2 1.948517 1_456
Ni5 O12 2.149746 1_556
Ni5 O7 2.149764 1_455
Bi0 O10 2.135646 1_555
Bi0 O8 2.135776 1_455
Bi0 O12 2.136281 1_555
Bi0 O6 2.137330 1_555
Bi0 O4 2.137893 1_555
Bi0 O14 2.139103 1_555
Bi1 O9 2.135315 1_555
Bi1 O11 2.135797 1_655
Bi1 O13 2.136127 1_555
Bi1 O7 2.136743 1_555
Bi1 O15 2.138340 1_555
Bi1 O5 2.138931 1_555
