# generated using pymatgen
data_Tb4YNi10(B2C)5
_symmetry_space_group_name_H-M   'P 1'
_cell_length_a   3.55372100
_cell_length_b   3.55372100
_cell_length_c   26.31558760
_cell_angle_alpha   93.87162753
_cell_angle_beta   93.87162753
_cell_angle_gamma   90.00000000
_symmetry_Int_Tables_number   1
_chemical_formula_structural   Tb4YNi10(B2C)5
_chemical_formula_sum   'Tb4 Y1 Ni10 B10 C5'
_cell_volume   330.81915447
_cell_formula_units_Z   1
loop_
 _symmetry_equiv_pos_site_id
 _symmetry_equiv_pos_as_xyz
  1  'x, y, z'
loop_
 _atom_site_type_symbol
 _atom_site_label
 _atom_site_symmetry_multiplicity
 _atom_site_fract_x
 _atom_site_fract_y
 _atom_site_fract_z
 _atom_site_occupancy
  Tb  Tb0  1  0.10000100  0.10000100  0.20000100  1
  Tb  Tb1  1  0.69997400  0.69997400  0.39994700  1
  Tb  Tb2  1  0.30002600  0.30002600  0.60005300  1
  Tb  Tb3  1  0.89999900  0.89999900  0.79999900  1
  Y  Y0  1  0.50000000  0.50000000  0.00000000  1
  Ni  Ni0  1  0.05000200  0.55000200  0.10000400  1
  Ni  Ni1  1  0.65001000  0.15001000  0.30002000  1
  Ni  Ni2  1  0.25000000  0.75000000  0.50000000  1
  Ni  Ni3  1  0.84999000  0.34999000  0.69998000  1
  Ni  Ni4  1  0.44999800  0.94999800  0.89999600  1
  Ni  Ni5  1  0.55000200  0.05000200  0.10000400  1
  Ni  Ni6  1  0.15001000  0.65001000  0.30002000  1
  Ni  Ni7  1  0.75000000  0.25000000  0.50000000  1
  Ni  Ni8  1  0.34999000  0.84999000  0.69998000  1
  Ni  Ni9  1  0.94999800  0.44999800  0.89999600  1
  B  B0  1  0.57152800  0.57152800  0.14305500  1
  B  B1  1  0.17148600  0.17148600  0.34297300  1
  B  B2  1  0.77146200  0.77146200  0.54292400  1
  B  B3  1  0.37148500  0.37148500  0.74297000  1
  B  B4  1  0.97149000  0.97149000  0.94297900  1
  B  B5  1  0.02851000  0.02851000  0.05702100  1
  B  B6  1  0.62851500  0.62851500  0.25703000  1
  B  B7  1  0.22853800  0.22853800  0.45707600  1
  B  B8  1  0.82851400  0.82851400  0.65702700  1
  B  B9  1  0.42847200  0.42847200  0.85694500  1
  C  C0  1  0.00000000  0.00000000  0.00000000  1
  C  C1  1  0.60003300  0.60003300  0.20006700  1
  C  C2  1  0.19999000  0.19999000  0.39998000  1
  C  C3  1  0.80001000  0.80001000  0.60002000  1
  C  C4  1  0.39996700  0.39996700  0.79993300  1
loop_
_geom_bond_atom_site_label_1
_geom_bond_atom_site_label_2
_geom_bond_distance
_geom_bond_site_symmetry_2
B0 C1 1.493449 1_555
B0 Ni0 2.104522 1_655
B0 Ni5 2.104522 1_565
B0 Ni0 2.104525 1_555
B0 Ni5 2.104525 1_555
B1 C2 1.493318 1_555
B1 Ni6 2.103148 1_545
B1 Ni1 2.103148 1_455
B1 Ni6 2.103151 1_555
B1 Ni1 2.103151 1_555
B2 C3 1.495649 1_555
B2 Ni7 2.102743 1_555
B2 Ni2 2.102743 1_555
B2 Ni2 2.102743 1_655
B2 Ni7 2.102743 1_565
B3 C4 1.492165 1_555
B3 Ni8 2.103668 1_545
B3 Ni3 2.103668 1_455
B3 Ni8 2.103668 1_555
B3 Ni3 2.103668 1_555
B4 C0 1.493684 1_666
B4 Ni4 2.103568 1_655
B4 Ni9 2.103568 1_565
B4 Ni4 2.103571 1_555
B4 Ni9 2.103571 1_555
B5 C0 1.493684 1_555
B5 Ni5 2.103568 1_455
B5 Ni0 2.103568 1_545
B5 Ni5 2.103571 1_555
B5 Ni0 2.103571 1_555
B6 C1 1.492165 1_555
B6 Ni6 2.103668 1_655
B6 Ni1 2.103668 1_565
B6 Ni1 2.103668 1_555
B6 Ni6 2.103668 1_555
B7 C2 1.495649 1_555
B7 Ni7 2.102743 1_555
B7 Ni2 2.102743 1_555
B7 Ni2 2.102743 1_545
B7 Ni7 2.102743 1_455
B8 C3 1.493318 1_555
B8 Ni8 2.103148 1_655
B8 Ni3 2.103148 1_565
B8 Ni3 2.103151 1_555
B8 Ni8 2.103151 1_555
B9 C4 1.493449 1_555
B9 Ni4 2.104522 1_545
B9 Ni9 2.104522 1_455
B9 Ni9 2.104525 1_555
B9 Ni4 2.104525 1_555
C0 Y0 2.512860 1_445
C0 Y0 2.512860 1_545
C0 Y0 2.512860 1_455
C0 Y0 2.512860 1_555
C1 Tb0 2.512856 1_555
C1 Tb0 2.512861 1_565
C1 Tb0 2.512861 1_655
C1 Tb0 2.512866 1_665
C2 Tb1 2.512858 1_445
C2 Tb1 2.512860 1_545
C2 Tb1 2.512860 1_455
C2 Tb1 2.512863 1_555
C3 Tb2 2.512858 1_665
C3 Tb2 2.512860 1_655
C3 Tb2 2.512860 1_565
C3 Tb2 2.512863 1_555
C4 Tb3 2.512856 1_555
C4 Tb3 2.512861 1_545
C4 Tb3 2.512861 1_455
C4 Tb3 2.512866 1_445
