# generated using pymatgen
data_Tb2MgSe4
_symmetry_space_group_name_H-M   'P 1'
_cell_length_a   7.55384653
_cell_length_b   7.55384653
_cell_length_c   7.55384653
_cell_angle_alpha   110.58179003
_cell_angle_beta   110.58179003
_cell_angle_gamma   107.27220932
_symmetry_Int_Tables_number   1
_chemical_formula_structural   Tb2MgSe4
_chemical_formula_sum   'Tb4 Mg2 Se8'
_cell_volume   331.43992280
_cell_formula_units_Z   2
loop_
 _symmetry_equiv_pos_site_id
 _symmetry_equiv_pos_as_xyz
  1  'x, y, z'
loop_
 _atom_site_type_symbol
 _atom_site_label
 _atom_site_symmetry_multiplicity
 _atom_site_fract_x
 _atom_site_fract_y
 _atom_site_fract_z
 _atom_site_occupancy
  Tb  Tb0  1  0.87500000  0.75678300  0.38178300  1
  Tb  Tb1  1  0.50678300  0.12500000  0.88178300  1
  Tb  Tb2  1  0.37500000  0.49321700  0.61821700  1
  Tb  Tb3  1  0.24321700  0.62500000  0.11821700  1
  Mg  Mg0  1  0.00000000  0.00000000  0.00000000  1
  Mg  Mg1  1  0.75000000  0.25000000  0.50000000  1
  Se  Se0  1  0.50673800  0.37806300  0.26288200  1
  Se  Se1  1  0.75614400  0.49326200  0.87132500  1
  Se  Se2  1  0.11518100  0.24385600  0.73711800  1
  Se  Se3  1  0.62193700  0.88481900  0.12867500  1
  Se  Se4  1  0.24326200  0.00614400  0.37132500  1
  Se  Se5  1  0.99385600  0.36518100  0.23711800  1
  Se  Se6  1  0.63481900  0.87193700  0.62867500  1
  Se  Se7  1  0.12806300  0.75673800  0.76288200  1
loop_
_geom_bond_atom_site_label_1
_geom_bond_atom_site_label_2
_geom_bond_distance
_geom_bond_site_symmetry_2
Mg0 Se4 2.735029 1_555
Mg0 Se6 2.735029 1_444
Mg0 Se7 2.735029 1_544
Mg0 Se5 2.735029 1_455
Mg0 Se2 3.305797 1_554
Mg0 Se0 3.305797 1_555
Mg0 Se1 3.305797 1_444
Mg0 Se3 3.305797 1_445
Mg1 Se0 2.735029 1_555
Mg1 Se1 2.735029 1_555
Mg1 Se2 2.735029 1_655
Mg1 Se3 2.735029 1_545
Mg1 Se6 3.305797 1_545
Mg1 Se5 3.305797 1_555
Mg1 Se7 3.305797 1_655
Mg1 Se4 3.305797 1_555
Se0 Tb1 2.841380 1_554
Se0 Tb0 2.905213 1_555
Se0 Tb2 3.114805 1_555
Se0 Tb3 3.277919 1_555
Se1 Tb2 2.841380 1_555
Se1 Tb1 2.905213 1_555
Se1 Tb3 3.114805 1_656
Se1 Tb0 3.277919 1_556
Se2 Tb3 2.841380 1_556
Se2 Tb2 2.905213 1_555
Se2 Tb0 3.114805 1_445
Se2 Tb1 3.277919 1_555
Se3 Tb0 2.841380 1_555
Se3 Tb3 2.905213 1_555
Se3 Tb1 3.114805 1_564
Se3 Tb2 3.277919 1_554
Se4 Tb3 2.841380 1_545
Se4 Tb0 2.905213 1_445
Se4 Tb2 3.114805 1_555
Se4 Tb1 3.277919 1_555
Se5 Tb2 2.841380 1_655
Se5 Tb3 2.905213 1_655
Se5 Tb1 3.114805 1_554
Se5 Tb0 3.277919 1_555
Se6 Tb1 2.841380 1_565
Se6 Tb2 2.905213 1_555
Se6 Tb0 3.114805 1_555
Se6 Tb3 3.277919 1_555
Se7 Tb0 2.841380 1_455
Se7 Tb1 2.905213 1_565
Se7 Tb3 3.114805 1_556
Se7 Tb2 3.277919 1_555
