# generated using pymatgen
data_Ba2Li(NiO3)2
_symmetry_space_group_name_H-M   'P 1'
_cell_length_a   5.75169400
_cell_length_b   6.03547349
_cell_length_c   5.07276730
_cell_angle_alpha   102.81877700
_cell_angle_beta   90.00000000
_cell_angle_gamma   118.45644314
_symmetry_Int_Tables_number   1
_chemical_formula_structural   Ba2Li(NiO3)2
_chemical_formula_sum   'Ba2 Li1 Ni2 O6'
_cell_volume   149.80998042
_cell_formula_units_Z   1
loop_
 _symmetry_equiv_pos_site_id
 _symmetry_equiv_pos_as_xyz
  1  'x, y, z'
loop_
 _atom_site_type_symbol
 _atom_site_label
 _atom_site_symmetry_multiplicity
 _atom_site_fract_x
 _atom_site_fract_y
 _atom_site_fract_z
 _atom_site_occupancy
  Ba  Ba0  1  0.62894400  0.25788800  0.86355400  1
  Ba  Ba1  1  0.33537100  0.67074100  0.24967700  1
  Li  Li0  1  0.79465200  0.58930300  0.49584800  1
  Ni  Ni0  1  0.01517900  0.03035900  0.48487300  1
  Ni  Ni1  1  0.00482000  0.00963900  0.98367500  1
  O  O0  1  0.85710600  0.16065100  0.27318300  1
  O  O1  1  0.72245700  0.86625400  0.68603100  1
  O  O2  1  0.15880300  0.31760400  0.78708500  1
  O  O3  1  0.85824400  0.71648800  0.19130700  1
  O  O4  1  0.14379700  0.86625400  0.68603100  1
  O  O5  1  0.30354400  0.16065100  0.27318300  1
loop_
_geom_bond_atom_site_label_1
_geom_bond_atom_site_label_2
_geom_bond_distance
_geom_bond_site_symmetry_2
Ba0 O3 2.577587 1_556
Ba0 O1 2.637108 1_545
Ba0 O4 2.637109 1_545
Ba0 O0 2.767592 1_556
Ba0 O5 2.767595 1_556
Ba0 O2 2.929741 1_555
Ba0 O2 2.929752 1_655
Ba1 O2 2.607407 1_554
Ba1 O1 2.754321 1_555
Ba1 O4 2.754324 1_555
Ba1 O3 2.907466 1_555
Ba1 O3 2.907471 1_455
Ba1 O0 3.024891 1_565
Ba1 O5 3.024897 1_565
Ba1 O5 3.025151 1_555
Ba1 O0 3.025157 1_455
Li0 O3 1.835288 1_555
Li0 O4 1.960372 1_655
Li0 O1 1.960376 1_555
Ni0 O2 1.869243 1_555
Ni0 O0 1.911603 1_455
Ni0 O5 1.911603 1_555
Ni0 O1 1.927757 1_445
Ni0 O4 1.927761 1_545
Ni0 O3 1.933835 1_445
Ni1 O4 1.935726 1_545
Ni1 O1 1.935730 1_445
Ni1 O5 1.962983 1_556
Ni1 O0 1.962990 1_456
Ni1 O3 2.087102 1_446
Ni1 O2 2.118363 1_555
