# generated using pymatgen
data_Ho3GaC
_symmetry_space_group_name_H-M   'P 1'
_cell_length_a   5.27444600
_cell_length_b   5.27444600
_cell_length_c   5.27444600
_cell_angle_alpha   90.00000000
_cell_angle_beta   90.00000000
_cell_angle_gamma   90.00000000
_symmetry_Int_Tables_number   1
_chemical_formula_structural   Ho3GaC
_chemical_formula_sum   'Ho3 Ga1 C1'
_cell_volume   146.73393054
_cell_formula_units_Z   1
loop_
 _symmetry_equiv_pos_site_id
 _symmetry_equiv_pos_as_xyz
  1  'x, y, z'
loop_
 _atom_site_type_symbol
 _atom_site_label
 _atom_site_symmetry_multiplicity
 _atom_site_fract_x
 _atom_site_fract_y
 _atom_site_fract_z
 _atom_site_occupancy
  Ho  Ho0  1  0.00000000  0.50000000  0.50000000  1
  Ho  Ho1  1  0.50000000  0.00000000  0.50000000  1
  Ho  Ho2  1  0.50000000  0.50000000  0.00000000  1
  Ga  Ga0  1  0.50000000  0.50000000  0.50000000  1
  C  C0  1  0.00000000  0.00000000  0.00000000  1
loop_
_geom_bond_atom_site_label_1
_geom_bond_atom_site_label_2
_geom_bond_distance
_geom_bond_site_symmetry_2
Ga0 Ho1 2.637223 1_555
Ga0 Ho2 2.637223 1_556
Ga0 Ho0 2.637223 1_655
Ga0 Ho0 2.637223 1_555
Ga0 Ho1 2.637223 1_565
Ga0 Ho2 2.637223 1_555
