# generated using pymatgen
data_Na3CaAl3Si3SO16
_symmetry_space_group_name_H-M   'P 1'
_cell_length_a   7.81100635
_cell_length_b   7.82432805
_cell_length_c   7.83860531
_cell_angle_alpha   69.16506976
_cell_angle_beta   71.67001815
_cell_angle_gamma   109.12096895
_symmetry_Int_Tables_number   1
_chemical_formula_structural   Na3CaAl3Si3SO16
_chemical_formula_sum   'Na3 Ca1 Al3 Si3 S1 O16'
_cell_volume   369.22453096
_cell_formula_units_Z   1
loop_
 _symmetry_equiv_pos_site_id
 _symmetry_equiv_pos_as_xyz
  1  'x, y, z'
loop_
 _atom_site_type_symbol
 _atom_site_label
 _atom_site_symmetry_multiplicity
 _atom_site_fract_x
 _atom_site_fract_y
 _atom_site_fract_z
 _atom_site_occupancy
  Na  Na0  1  0.62846800  0.63590800  0.36201400  1
  Na  Na1  1  0.37476600  0.00347700  0.99777700  1
  Na  Na2  1  0.99536700  0.37386600  0.99951500  1
  Ca  Ca0  1  0.00207700  0.96921000  0.65158500  1
  Al  Al0  1  0.25311700  0.75094700  0.49724900  1
  Al  Al1  1  0.74833600  0.49315800  0.75791200  1
  Al  Al2  1  0.24726700  0.50273100  0.24588000  1
  Si  Si0  1  0.50133900  0.25357100  0.25508200  1
  Si  Si1  1  0.74819500  0.24357200  0.50498100  1
  Si  Si2  1  0.49674800  0.74583600  0.74787300  1
  S  S0  1  0.00081000  0.00543200  0.99314300  1
  O  O0  1  0.19820200  0.18297600  0.79835800  1
  O  O1  1  0.82249800  0.02029800  0.96825000  1
  O  O2  1  0.98447200  0.80341100  0.00576600  1
  O  O3  1  0.99676900  0.00950100  0.18155600  1
  O  O4  1  0.70826900  0.39168800  0.59650200  1
  O  O5  1  0.41657400  0.40925700  0.28867000  1
  O  O6  1  0.42863900  0.71444900  0.58200300  1
  O  O7  1  0.28741500  0.70816200  0.29135000  1
  O  O8  1  0.58666500  0.28965400  0.02073400  1
  O  O9  1  0.58768500  0.99460900  0.69537500  1
  O  O10  1  0.00232000  0.61799400  0.70696200  1
  O  O11  1  0.30111100  0.59301400  0.98384400  1
  O  O12  1  0.69633300  0.28761200  0.30924800  1
  O  O13  1  0.98576600  0.28070600  0.41959300  1
  O  O14  1  0.69375900  0.70416700  0.71918900  1
  O  O15  1  0.30703200  0.01479500  0.41958800  1
loop_
_geom_bond_atom_site_label_1
_geom_bond_atom_site_label_2
_geom_bond_distance
_geom_bond_site_symmetry_2
Na0 O6 2.340259 1_555
Na0 O5 2.369743 1_555
Na0 O4 2.533939 1_555
Na0 O2 2.715339 1_555
Na0 O3 2.794909 1_565
Na0 O1 2.887444 1_564
Na1 O7 2.301581 1_546
Na1 O8 2.414879 1_556
Na1 O9 2.470345 1_545
Na2 O11 2.375188 1_655
Na2 O10 2.376574 1_655
Na2 O12 2.457768 1_556
Na2 O3 2.701929 1_556
Na2 O1 2.789209 1_555
Ca0 O15 2.316388 1_565
Ca0 O14 2.350506 1_455
Ca0 O13 2.541589 1_465
Ca0 O2 2.547660 1_456
Ca0 O10 2.625925 1_555
Ca0 O1 2.678037 1_465
Ca0 O0 2.695694 1_565
Al0 O7 1.720420 1_555
Al0 O10 1.744998 1_555
Al0 O6 1.759829 1_555
Al0 O15 1.784663 1_565
Al1 O10 1.733199 1_655
Al1 O8 1.757035 1_556
Al1 O4 1.769158 1_555
Al1 O14 1.784846 1_555
Al2 O7 1.719475 1_555
Al2 O11 1.767673 1_554
Al2 O5 1.770435 1_555
Al2 O13 1.813125 1_455
O0 S0 1.498523 1_555
O1 S0 1.500804 1_655
O2 S0 1.507736 1_664
O3 S0 1.479194 1_654
O4 Si1 1.625564 1_555
O5 Si0 1.624326 1_555
O6 Si2 1.615685 1_555
O8 Si0 1.623601 1_555
O9 Si1 1.657969 1_565
O9 Si2 1.674290 1_555
O11 Si2 1.624205 1_555
O12 Si1 1.656239 1_555
O12 Si0 1.671070 1_555
O13 Si1 1.644124 1_555
O14 Si2 1.639552 1_555
O15 Si0 1.629225 1_555
