# generated using pymatgen
data_Ca(CO)4
_symmetry_space_group_name_H-M   'P 1'
_cell_length_a   6.98225800
_cell_length_b   7.13561753
_cell_length_c   6.98225800
_cell_angle_alpha   119.29155709
_cell_angle_beta   90.00000000
_cell_angle_gamma   119.29155709
_symmetry_Int_Tables_number   1
_chemical_formula_structural   Ca(CO)4
_chemical_formula_sum   'Ca2 C8 O8'
_cell_volume   251.16032263
_cell_formula_units_Z   2
loop_
 _symmetry_equiv_pos_site_id
 _symmetry_equiv_pos_as_xyz
  1  'x, y, z'
loop_
 _atom_site_type_symbol
 _atom_site_label
 _atom_site_symmetry_multiplicity
 _atom_site_fract_x
 _atom_site_fract_y
 _atom_site_fract_z
 _atom_site_occupancy
  Ca  Ca0  1  0.50000000  0.00000000  0.50000000  1
  Ca  Ca1  1  0.75000000  0.50000000  0.25000000  1
  C  C0  1  0.05914700  0.11829400  0.05914700  1
  C  C1  1  0.30914700  0.61829400  0.80914700  1
  C  C2  1  0.19085300  0.38170600  0.69085300  1
  C  C3  1  0.94085300  0.88170600  0.94085300  1
  C  C4  1  0.19895800  0.39791500  0.19895800  1
  C  C5  1  0.44895800  0.89791500  0.94895800  1
  C  C6  1  0.05104200  0.10208500  0.55104200  1
  C  C7  1  0.80104200  0.60208500  0.80104200  1
  O  O0  1  0.41773500  0.51601100  0.25800600  1
  O  O1  1  0.50800600  0.01601100  0.84827700  1
  O  O2  1  0.50800600  0.01601100  0.16773500  1
  O  O3  1  0.09827700  0.51601100  0.25800600  1
  O  O4  1  0.83226500  0.98398900  0.49199400  1
  O  O5  1  0.74199400  0.48398900  0.90172300  1
  O  O6  1  0.74199400  0.48398900  0.58226500  1
  O  O7  1  0.15172300  0.98398900  0.49199400  1
loop_
_geom_bond_atom_site_label_1
_geom_bond_atom_site_label_2
_geom_bond_distance
_geom_bond_site_symmetry_2
Ca0 O2 2.377288 1_555
Ca0 O4 2.377288 1_545
Ca0 O1 2.377295 1_555
Ca0 O7 2.377295 1_545
Ca0 O3 2.731472 1_545
Ca0 O5 2.731472 1_555
Ca0 O0 2.731475 1_545
Ca0 O6 2.731475 1_555
Ca1 O0 2.377288 1_555
Ca1 O6 2.377288 1_555
Ca1 O5 2.377295 1_554
Ca1 O3 2.377295 1_655
Ca1 O1 2.731472 1_554
Ca1 O7 2.731472 1_655
Ca1 O4 2.731475 1_555
Ca1 O2 2.731475 1_555
C0 C3 1.218855 1_444
C0 C4 1.440552 1_555
C1 C2 1.218855 1_555
C1 C5 1.440552 1_555
C2 C6 1.440552 1_555
C3 C7 1.440552 1_555
C4 O3 1.270427 1_555
C4 O0 1.270427 1_555
C5 O2 1.270427 1_566
C5 O1 1.270427 1_565
C6 O4 1.270427 1_445
C6 O7 1.270427 1_545
C7 O5 1.270427 1_555
C7 O6 1.270427 1_555
