# generated using pymatgen
data_Cu4BrCl3
_symmetry_space_group_name_H-M   'P 1'
_cell_length_a   3.67845200
_cell_length_b   3.67845200
_cell_length_c   10.32728300
_cell_angle_alpha   90.00000000
_cell_angle_beta   90.00000000
_cell_angle_gamma   90.00000000
_symmetry_Int_Tables_number   1
_chemical_formula_structural   Cu4BrCl3
_chemical_formula_sum   'Cu4 Br1 Cl3'
_cell_volume   139.73856042
_cell_formula_units_Z   1
loop_
 _symmetry_equiv_pos_site_id
 _symmetry_equiv_pos_as_xyz
  1  'x, y, z'
loop_
 _atom_site_type_symbol
 _atom_site_label
 _atom_site_symmetry_multiplicity
 _atom_site_fract_x
 _atom_site_fract_y
 _atom_site_fract_z
 _atom_site_occupancy
  Cu  Cu0  1  0.00000000  0.00000000  0.74732200  1
  Cu  Cu1  1  0.50000000  0.50000000  0.50000000  1
  Cu  Cu2  1  0.00000000  0.00000000  0.25267800  1
  Cu  Cu3  1  0.50000000  0.50000000  0.00000000  1
  Br  Br0  1  0.00000000  0.00000000  0.00000000  1
  Cl  Cl0  1  0.50000000  0.50000000  0.74642700  1
  Cl  Cl1  1  0.00000000  0.00000000  0.50000000  1
  Cl  Cl2  1  0.50000000  0.50000000  0.25357300  1
loop_
_geom_bond_atom_site_label_1
_geom_bond_atom_site_label_2
_geom_bond_distance
_geom_bond_site_symmetry_2
Br0 Cu3 2.601058 1_455
Br0 Cu3 2.601058 1_445
Br0 Cu3 2.601058 1_555
Br0 Cu3 2.601058 1_545
Br0 Cu2 2.609477 1_555
Br0 Cu0 2.609477 1_554
Cl0 Cu1 2.544921 1_555
Cl0 Cu0 2.601075 1_565
Cl0 Cu0 2.601075 1_655
Cl0 Cu0 2.601075 1_555
Cl0 Cu0 2.601075 1_665
Cl0 Cu3 2.618720 1_556
Cl1 Cu0 2.554164 1_555
Cl1 Cu2 2.554164 1_555
Cl1 Cu1 2.601058 1_455
Cl1 Cu1 2.601058 1_555
Cl1 Cu1 2.601058 1_545
Cl1 Cu1 2.601058 1_445
Cl2 Cu1 2.544921 1_555
Cl2 Cu2 2.601075 1_665
Cl2 Cu2 2.601075 1_655
Cl2 Cu2 2.601075 1_555
Cl2 Cu2 2.601075 1_565
Cl2 Cu3 2.618720 1_555
