# generated using pymatgen
data_La(Cu2P)2
_symmetry_space_group_name_H-M   'P 1'
_cell_length_a   3.91096164
_cell_length_b   11.05175873
_cell_length_c   14.68456851
_cell_angle_alpha   90.00000000
_cell_angle_beta   90.00000000
_cell_angle_gamma   90.00000000
_symmetry_Int_Tables_number   1
_chemical_formula_structural   La(Cu2P)2
_chemical_formula_sum   'La6 Cu24 P12'
_cell_volume   634.71117002
_cell_formula_units_Z   6
loop_
 _symmetry_equiv_pos_site_id
 _symmetry_equiv_pos_as_xyz
  1  'x, y, z'
loop_
 _atom_site_type_symbol
 _atom_site_label
 _atom_site_symmetry_multiplicity
 _atom_site_fract_x
 _atom_site_fract_y
 _atom_site_fract_z
 _atom_site_occupancy
  La  La0  1  -0.00000000  -0.00000000  -0.00000000  1
  La  La1  1  0.50000000  0.50000000  0.50000000  1
  La  La2  1  0.00000000  0.12264365  0.72734883  1
  La  La3  1  0.00000000  0.87735635  0.27265117  1
  La  La4  1  0.50000000  0.37735635  0.22734883  1
  La  La5  1  0.50000000  0.62264365  0.77265117  1
  Cu  Cu0  1  -0.00000000  0.40103196  0.05303313  1
  Cu  Cu1  1  0.00000000  0.59896804  0.94696687  1
  Cu  Cu2  1  0.50000000  0.09896804  0.55303313  1
  Cu  Cu3  1  0.50000000  0.90103196  0.44696687  1
  Cu  Cu4  1  0.00000000  0.26262212  0.53756851  1
  Cu  Cu5  1  -0.00000000  0.73737788  0.46243149  1
  Cu  Cu6  1  0.50000000  0.23737788  0.03756851  1
  Cu  Cu7  1  0.50000000  0.76262212  0.96243149  1
  Cu  Cu8  1  0.00000000  0.07049292  0.43863523  1
  Cu  Cu9  1  0.00000000  0.92950708  0.56136477  1
  Cu  Cu10  1  0.50000000  0.42950708  0.93863523  1
  Cu  Cu11  1  0.50000000  0.57049292  0.06136477  1
  Cu  Cu12  1  0.00000000  0.57595258  0.33106498  1
  Cu  Cu13  1  0.00000000  0.42404742  0.66893502  1
  Cu  Cu14  1  0.50000000  0.92404742  0.83106498  1
  Cu  Cu15  1  0.50000000  0.07595258  0.16893502  1
  Cu  Cu16  1  -0.00000000  0.16955376  0.28741209  1
  Cu  Cu17  1  -0.00000000  0.83044624  0.71258791  1
  Cu  Cu18  1  0.50000000  0.33044624  0.78741209  1
  Cu  Cu19  1  0.50000000  0.66955376  0.21258791  1
  Cu  Cu20  1  0.00000000  0.74098019  0.08570175  1
  Cu  Cu21  1  0.00000000  0.25901981  0.91429825  1
  Cu  Cu22  1  0.50000000  0.75901981  0.58570175  1
  Cu  Cu23  1  0.50000000  0.24098019  0.41429825  1
  P  P0  1  0.00000000  0.36237849  0.38701832  1
  P  P1  1  0.00000000  0.63762151  0.61298168  1
  P  P2  1  0.50000000  0.13762151  0.88701832  1
  P  P3  1  0.50000000  0.86237849  0.11298168  1
  P  P4  1  0.00000000  0.20591899  0.13078625  1
  P  P5  1  0.00000000  0.79408101  0.86921375  1
  P  P6  1  0.50000000  0.29408101  0.63078625  1
  P  P7  1  0.50000000  0.70591899  0.36921375  1
  P  P8  1  0.00000000  0.56100701  0.16342523  1
  P  P9  1  0.00000000  0.43899299  0.83657477  1
  P  P10  1  0.50000000  0.93899299  0.66342523  1
  P  P11  1  0.50000000  0.06100701  0.33657477  1
loop_
_geom_bond_atom_site_label_1
_geom_bond_atom_site_label_2
_geom_bond_distance
_geom_bond_site_symmetry_2
La0 P4 2.977850 1_555
La0 P5 2.977850 1_544
La0 P2 2.981576 1_454
La0 P2 2.981576 1_554
La0 P3 2.981576 1_445
La0 P3 2.981576 1_545
La1 P7 2.977850 1_555
La1 P6 2.977850 1_555
La1 P1 2.981576 1_655
La1 P1 2.981576 1_555
La1 P0 2.981576 1_655
La1 P0 2.981576 1_555
La2 P10 2.970619 1_545
La2 P10 2.970619 1_445
La2 P2 3.057584 1_455
La2 P2 3.057584 1_555
La2 P6 3.069919 1_455
La2 P6 3.069919 1_555
La3 P11 2.970619 1_565
La3 P11 2.970619 1_465
La3 P3 3.057584 1_555
La3 P3 3.057584 1_455
La3 P7 3.069919 1_555
La3 P7 3.069919 1_455
La4 P8 2.970619 1_555
La4 P8 2.970619 1_655
La4 P0 3.057584 1_655
La4 P0 3.057584 1_555
La4 P4 3.069919 1_655
La4 P4 3.069919 1_555
La5 P9 2.970619 1_655
La5 P9 2.970619 1_555
La5 P1 3.057584 1_555
La5 P1 3.057584 1_655
La5 P5 3.069919 1_655
La5 P5 3.069919 1_555
Cu0 P8 2.398683 1_555
Cu0 P4 2.439969 1_555
Cu0 Cu10 2.597104 1_554
Cu0 Cu10 2.597104 1_454
Cu0 Cu11 2.710426 1_555
Cu0 Cu11 2.710426 1_455
Cu0 La4 3.231825 1_455
Cu0 La4 3.231825 1_555
Cu1 P9 2.398683 1_555
Cu1 P5 2.439969 1_555
Cu1 Cu11 2.597104 1_556
Cu1 Cu11 2.597104 1_456
Cu1 Cu10 2.710426 1_555
Cu1 Cu10 2.710426 1_455
Cu1 La5 3.231825 1_455
Cu1 La5 3.231825 1_555
Cu2 P10 2.398683 1_545
Cu2 P6 2.439969 1_555
Cu2 Cu8 2.597104 1_655
Cu2 Cu8 2.597104 1_555
Cu2 Cu9 2.710426 1_645
Cu2 Cu9 2.710426 1_545
Cu2 La2 3.231825 1_655
Cu2 La2 3.231825 1_555
Cu3 P11 2.398683 1_565
Cu3 P7 2.439969 1_555
Cu3 Cu9 2.597104 1_655
Cu3 Cu9 2.597104 1_555
Cu3 Cu8 2.710426 1_565
Cu3 Cu8 2.710426 1_665
Cu3 La3 3.231825 1_555
Cu3 La3 3.231825 1_655
Cu4 P6 2.412171 1_455
Cu4 P6 2.412171 1_555
Cu4 P0 2.470415 1_555
Cu4 Cu8 2.572798 1_555
Cu4 La2 3.187432 1_555
Cu4 La1 3.318238 1_455
Cu4 La1 3.318238 1_555
Cu5 P7 2.412171 1_455
Cu5 P7 2.412171 1_555
Cu5 P1 2.470415 1_555
Cu5 Cu9 2.572798 1_555
Cu5 La3 3.187432 1_555
Cu5 La1 3.318238 1_455
Cu5 La1 3.318238 1_555
Cu6 P4 2.412171 1_655
Cu6 P4 2.412171 1_555
Cu6 P2 2.470415 1_554
Cu6 La4 3.187432 1_555
Cu6 La0 3.318238 1_555
Cu6 La0 3.318238 1_655
Cu7 P5 2.412171 1_555
Cu7 P5 2.412171 1_655
Cu7 P3 2.470415 1_556
Cu7 La5 3.187432 1_555
Cu7 La0 3.318238 1_566
Cu7 La0 3.318238 1_666
Cu8 Cu9 2.382402 1_545
Cu8 P11 2.465976 1_455
Cu8 P11 2.465976 1_555
Cu8 La3 3.239911 1_545
Cu9 P10 2.465976 1_455
Cu9 P10 2.465976 1_555
Cu9 La2 3.239911 1_565
Cu10 Cu11 2.382402 1_556
Cu10 P9 2.465976 1_655
Cu10 P9 2.465976 1_555
Cu10 Cu18 2.475853 1_555
Cu10 Cu6 2.572798 1_556
Cu10 Cu21 2.738937 1_555
Cu10 Cu21 2.738937 1_655
Cu10 La5 3.239911 1_555
Cu11 P8 2.465976 1_555
Cu11 P8 2.465976 1_655
Cu11 Cu19 2.475853 1_555
Cu11 Cu7 2.572798 1_554
Cu11 Cu20 2.738937 1_555
Cu11 Cu20 2.738937 1_655
Cu11 La4 3.239911 1_555
Cu12 P8 2.467253 1_555
Cu12 P7 2.490151 1_555
Cu12 P7 2.490151 1_455
Cu12 P0 2.499291 1_555
Cu12 La1 3.268421 1_455
Cu12 La1 3.268421 1_555
Cu12 La4 3.310714 1_455
Cu12 La4 3.310714 1_555
Cu12 La3 3.439713 1_555
Cu13 P9 2.467253 1_555
Cu13 P6 2.490151 1_455
Cu13 P6 2.490151 1_555
Cu13 P1 2.499291 1_555
Cu13 La1 3.268421 1_455
Cu13 La1 3.268421 1_555
Cu13 La5 3.310714 1_455
Cu13 La5 3.310714 1_555
Cu13 La2 3.439713 1_555
Cu14 P10 2.467253 1_555
Cu14 P5 2.490151 1_655
Cu14 P5 2.490151 1_555
Cu14 P2 2.499291 1_565
Cu14 La0 3.268421 1_566
Cu14 La0 3.268421 1_666
Cu14 La2 3.310714 1_565
Cu14 La2 3.310714 1_665
Cu14 La5 3.439713 1_555
Cu15 P11 2.467253 1_555
Cu15 P4 2.490151 1_655
Cu15 P4 2.490151 1_555
Cu15 P3 2.499291 1_545
Cu15 La0 3.268421 1_655
Cu15 La0 3.268421 1_555
Cu15 La3 3.310714 1_645
Cu15 La3 3.310714 1_545
Cu15 La4 3.439713 1_555
Cu16 P4 2.334833 1_555
Cu16 P11 2.405039 1_455
Cu16 P11 2.405039 1_555
Cu16 Cu8 2.475853 1_555
Cu16 P0 2.584725 1_555
Cu16 La4 3.142632 1_555
Cu16 La4 3.142632 1_455
Cu16 La3 3.236562 1_545
Cu17 P5 2.334833 1_555
Cu17 P10 2.405039 1_555
Cu17 P10 2.405039 1_455
Cu17 Cu9 2.475853 1_555
Cu17 P1 2.584725 1_555
Cu17 La5 3.142632 1_455
Cu17 La5 3.142632 1_555
Cu17 La2 3.236562 1_565
Cu18 P6 2.334833 1_555
Cu18 P9 2.405039 1_655
Cu18 P9 2.405039 1_555
Cu18 P2 2.584725 1_555
Cu18 La2 3.142632 1_555
Cu18 La2 3.142632 1_655
Cu18 La5 3.236562 1_555
Cu19 P7 2.334833 1_555
Cu19 P8 2.405039 1_555
Cu19 P8 2.405039 1_655
Cu19 P3 2.584725 1_555
Cu19 La3 3.142632 1_555
Cu19 La3 3.142632 1_655
Cu19 La4 3.236562 1_555
Cu20 P8 2.293218 1_555
Cu20 P3 2.405087 1_455
Cu20 P3 2.405087 1_555
Cu20 La0 3.127047 1_565
Cu20 La3 3.131798 1_555
Cu21 P9 2.293218 1_555
Cu21 P2 2.405087 1_555
Cu21 P2 2.405087 1_455
Cu21 La0 3.127047 1_556
Cu21 La2 3.131798 1_555
Cu22 P10 2.293218 1_555
Cu22 P1 2.405087 1_655
Cu22 P1 2.405087 1_555
Cu22 Cu9 2.738937 1_655
Cu22 Cu9 2.738937 1_555
Cu22 La1 3.127047 1_555
Cu22 La5 3.131798 1_555
Cu23 P11 2.293218 1_555
Cu23 P0 2.405087 1_655
Cu23 P0 2.405087 1_555
Cu23 Cu8 2.738937 1_655
Cu23 Cu8 2.738937 1_555
Cu23 La1 3.127047 1_555
Cu23 La4 3.131798 1_555
