# generated using pymatgen
data_Ho5BiPt2
_symmetry_space_group_name_H-M   'P 1'
_cell_length_a   8.76417071
_cell_length_b   8.76417071
_cell_length_c   8.76417071
_cell_angle_alpha   127.57336775
_cell_angle_beta   127.57336775
_cell_angle_gamma   77.31718186
_symmetry_Int_Tables_number   1
_chemical_formula_structural   Ho5BiPt2
_chemical_formula_sum   'Ho10 Bi2 Pt4'
_cell_volume   410.26171933
_cell_formula_units_Z   2
loop_
 _symmetry_equiv_pos_site_id
 _symmetry_equiv_pos_as_xyz
  1  'x, y, z'
loop_
 _atom_site_type_symbol
 _atom_site_label
 _atom_site_symmetry_multiplicity
 _atom_site_fract_x
 _atom_site_fract_y
 _atom_site_fract_z
 _atom_site_occupancy
  Ho  Ho0  1  -0.00000000  -0.00000000  -0.00000000  1
  Ho  Ho1  1  0.50000000  0.50000000  -0.00000000  1
  Ho  Ho2  1  0.79086965  0.29086965  0.81085531  1
  Ho  Ho3  1  0.20913035  0.70913035  0.18914469  1
  Ho  Ho4  1  0.48001534  0.98001534  0.18914469  1
  Ho  Ho5  1  0.29086965  0.48001534  0.50000000  1
  Ho  Ho6  1  0.01998466  0.20913035  0.50000000  1
  Ho  Ho7  1  0.51998466  0.01998466  0.81085531  1
  Ho  Ho8  1  0.70913035  0.51998466  0.50000000  1
  Ho  Ho9  1  0.98001534  0.79086965  0.50000000  1
  Bi  Bi0  1  0.25000000  0.25000000  -0.00000000  1
  Bi  Bi1  1  0.75000000  0.75000000  -0.00000000  1
  Pt  Pt0  1  0.13973868  0.63973868  0.77947836  1
  Pt  Pt1  1  0.86026132  0.36026132  0.22052164  1
  Pt  Pt2  1  0.63973868  0.86026132  0.50000000  1
  Pt  Pt3  1  0.36026132  0.13973868  0.50000000  1
loop_
_geom_bond_atom_site_label_1
_geom_bond_atom_site_label_2
_geom_bond_distance
_geom_bond_site_symmetry_2
Ho0 Pt0 2.991809 1_544
Ho0 Pt1 2.991809 1_455
Ho0 Pt2 2.991812 1_444
Ho0 Pt3 2.991812 1_555
Ho1 Pt0 2.991809 1_554
Ho1 Pt1 2.991809 1_555
Ho1 Pt2 2.991812 1_555
Ho1 Pt3 2.991812 1_554
Ho2 Pt1 2.909833 1_556
Ho2 Pt2 2.945222 1_545
Ho2 Pt3 2.945222 1_555
Ho3 Pt0 2.909833 1_554
Ho3 Pt2 2.945222 1_555
Ho3 Pt3 2.945222 1_565
Ho4 Pt0 2.909851 1_554
Ho4 Pt3 2.945231 1_565
Ho4 Pt2 2.945231 1_555
Ho5 Pt3 2.909850 1_555
Ho5 Pt1 2.945222 1_455
Ho5 Pt0 2.945231 1_555
Ho6 Pt3 2.909850 1_555
Ho6 Pt0 2.945222 1_555
Ho6 Pt1 2.945231 1_455
Ho7 Pt1 2.909851 1_556
Ho7 Pt3 2.945231 1_555
Ho7 Pt2 2.945231 1_545
Ho8 Pt2 2.909850 1_555
Ho8 Pt0 2.945222 1_655
Ho8 Pt1 2.945231 1_555
Ho9 Pt2 2.909850 1_555
Ho9 Pt1 2.945222 1_555
Ho9 Pt0 2.945231 1_655
Bi0 Ho7 3.320285 1_554
Bi0 Ho4 3.320285 1_545
Bi0 Ho8 3.320289 1_555
Bi0 Ho6 3.320289 1_554
Bi0 Ho5 3.320289 1_555
Bi0 Ho9 3.320289 1_444
Bi0 Ho2 3.320291 1_454
Bi0 Ho3 3.320291 1_555
Bi0 Ho0 3.421892 1_555
Bi0 Ho1 3.421892 1_555
Bi1 Ho7 3.320285 1_564
Bi1 Ho4 3.320285 1_555
Bi1 Ho6 3.320289 1_665
Bi1 Ho9 3.320289 1_555
Bi1 Ho8 3.320289 1_554
Bi1 Ho5 3.320289 1_554
Bi1 Ho3 3.320291 1_655
Bi1 Ho2 3.320291 1_554
Bi1 Ho1 3.421892 1_555
Bi1 Ho0 3.421892 1_665
