# generated using pymatgen
data_NpGa5Co
_symmetry_space_group_name_H-M   'P 1'
_cell_length_a   4.19087318
_cell_length_b   4.21076978
_cell_length_c   6.82286586
_cell_angle_alpha   90.00000000
_cell_angle_beta   90.00000000
_cell_angle_gamma   90.00000000
_symmetry_Int_Tables_number   1
_chemical_formula_structural   NpGa5Co
_chemical_formula_sum   'Np1 Ga5 Co1'
_cell_volume   120.40176385
_cell_formula_units_Z   1
loop_
 _symmetry_equiv_pos_site_id
 _symmetry_equiv_pos_as_xyz
  1  'x, y, z'
loop_
 _atom_site_type_symbol
 _atom_site_label
 _atom_site_symmetry_multiplicity
 _atom_site_fract_x
 _atom_site_fract_y
 _atom_site_fract_z
 _atom_site_occupancy
  Np  Np0  1  0.00000000  -0.00000000  -0.00000000  1
  Ga  Ga0  1  0.00000000  0.50000000  0.31207913  1
  Ga  Ga1  1  0.00000000  0.50000000  0.68792087  1
  Ga  Ga2  1  0.50000000  -0.00000000  0.31262382  1
  Ga  Ga3  1  0.50000000  -0.00000000  0.68737618  1
  Ga  Ga4  1  0.50000000  0.50000000  -0.00000000  1
  Co  Co0  1  0.00000000  -0.00000000  0.50000000  1
loop_
_geom_bond_atom_site_label_1
_geom_bond_atom_site_label_2
_geom_bond_distance
_geom_bond_site_symmetry_2
Ga0 Ga1 2.564318 1_555
Ga0 Ga2 2.970440 1_555
Ga0 Ga2 2.970440 1_465
Ga0 Ga2 2.970440 1_455
Ga0 Ga2 2.970440 1_565
Ga0 Ga4 2.987417 1_555
Ga0 Ga4 2.987417 1_455
Ga0 Np0 2.994404 1_565
Ga0 Np0 2.994404 1_555
Ga1 Ga3 2.970440 1_555
Ga1 Ga3 2.970440 1_565
Ga1 Ga3 2.970440 1_465
Ga1 Ga3 2.970440 1_455
Ga1 Ga4 2.987417 1_456
Ga1 Ga4 2.987417 1_556
Ga1 Np0 2.994404 1_566
Ga1 Np0 2.994404 1_556
Ga2 Ga3 2.556885 1_555
Ga2 Np0 2.990067 1_655
Ga2 Np0 2.990067 1_555
Ga2 Ga4 2.997047 1_555
Ga2 Ga4 2.997047 1_545
Ga3 Np0 2.990067 1_656
Ga3 Np0 2.990067 1_556
Ga3 Ga4 2.997047 1_546
Ga3 Ga4 2.997047 1_556
Ga4 Np0 2.970438 1_565
Ga4 Np0 2.970438 1_655
Ga4 Np0 2.970438 1_665
Ga4 Np0 2.970438 1_555
Co0 Ga3 2.454643 1_555
Co0 Ga2 2.454643 1_455
Co0 Ga3 2.454643 1_455
Co0 Ga2 2.454643 1_555
Co0 Ga0 2.465071 1_545
Co0 Ga1 2.465071 1_555
Co0 Ga0 2.465071 1_555
Co0 Ga1 2.465071 1_545
