# generated using pymatgen
data_LaMg6Zr
_symmetry_space_group_name_H-M   'P 1'
_cell_length_a   5.26469400
_cell_length_b   6.50367400
_cell_length_c   11.70744200
_cell_angle_alpha   90.00000000
_cell_angle_beta   90.00000000
_cell_angle_gamma   90.00000000
_symmetry_Int_Tables_number   1
_chemical_formula_structural   LaMg6Zr
_chemical_formula_sum   'La2 Mg12 Zr2'
_cell_volume   400.86109877
_cell_formula_units_Z   2
loop_
 _symmetry_equiv_pos_site_id
 _symmetry_equiv_pos_as_xyz
  1  'x, y, z'
loop_
 _atom_site_type_symbol
 _atom_site_label
 _atom_site_symmetry_multiplicity
 _atom_site_fract_x
 _atom_site_fract_y
 _atom_site_fract_z
 _atom_site_occupancy
  La  La0  1  0.50000000  0.50000000  0.16691000  1
  La  La1  1  0.50000000  0.00000000  0.66691000  1
  Mg  Mg0  1  0.50000000  0.25035000  0.41764900  1
  Mg  Mg1  1  0.50000000  0.74965000  0.41764900  1
  Mg  Mg2  1  0.00000000  0.76159100  0.08259300  1
  Mg  Mg3  1  0.00000000  0.23840900  0.08259300  1
  Mg  Mg4  1  0.00000000  0.00000000  0.33015400  1
  Mg  Mg5  1  0.00000000  0.50000000  0.34008600  1
  Mg  Mg6  1  0.50000000  0.75035000  0.91764900  1
  Mg  Mg7  1  0.50000000  0.24965000  0.91764900  1
  Mg  Mg8  1  0.00000000  0.26159100  0.58259300  1
  Mg  Mg9  1  0.00000000  0.73840900  0.58259300  1
  Mg  Mg10  1  0.00000000  0.50000000  0.83015400  1
  Mg  Mg11  1  0.00000000  0.00000000  0.84008600  1
  Zr  Zr0  1  0.50000000  0.00000000  0.16236000  1
  Zr  Zr1  1  0.50000000  0.50000000  0.66236000  1
loop_
_geom_bond_atom_site_label_1
_geom_bond_atom_site_label_2
_geom_bond_distance
_geom_bond_site_symmetry_2
La0 Zr0 3.252273 1_555
La0 Zr0 3.252273 1_565
La0 Mg2 3.286049 1_655
La0 Mg2 3.286049 1_555
La0 Mg3 3.286049 1_655
La0 Mg3 3.286049 1_555
La0 Mg5 3.322619 1_555
La0 Mg5 3.322619 1_655
La0 Mg7 3.341700 1_554
La0 Mg6 3.341700 1_554
La0 Mg1 3.354616 1_555
La0 Mg0 3.354616 1_555
La1 Zr1 3.252273 1_555
La1 Zr1 3.252273 1_545
La1 Mg8 3.286049 1_555
La1 Mg8 3.286049 1_655
La1 Mg9 3.286049 1_645
La1 Mg9 3.286049 1_545
La1 Mg11 3.322619 1_555
La1 Mg11 3.322619 1_655
La1 Mg1 3.341700 1_545
La1 Mg0 3.341700 1_555
La1 Mg6 3.354616 1_545
La1 Mg7 3.354616 1_555
Mg0 Mg5 3.223359 1_555
Mg0 Mg5 3.223359 1_655
Mg0 Mg1 3.247284 1_555
Mg0 Mg1 3.256390 1_545
Mg0 Mg4 3.260299 1_655
Mg0 Mg4 3.260299 1_555
Mg0 Mg8 3.265522 1_555
Mg0 Mg8 3.265522 1_655
Mg0 Zr1 3.293037 1_555
Mg0 Zr0 3.403503 1_555
Mg1 Mg5 3.223359 1_555
Mg1 Mg5 3.223359 1_655
Mg1 Mg4 3.260299 1_665
Mg1 Mg4 3.260299 1_565
Mg1 Mg9 3.265522 1_655
Mg1 Mg9 3.265522 1_555
Mg1 Zr1 3.293037 1_555
Mg1 Zr0 3.403503 1_565
Mg2 Mg3 3.101069 1_565
Mg2 Zr0 3.194607 1_465
Mg2 Zr0 3.194607 1_565
Mg2 Mg6 3.265522 1_554
Mg2 Mg6 3.265522 1_454
Mg2 Mg4 3.286995 1_565
Mg2 Mg3 3.402605 1_555
Mg2 Mg5 3.461524 1_555
Mg3 Zr0 3.194607 1_455
Mg3 Zr0 3.194607 1_555
Mg3 Mg7 3.265522 1_454
Mg3 Mg7 3.265522 1_554
Mg3 Mg4 3.286995 1_555
Mg3 Mg5 3.461524 1_555
Mg4 Mg5 3.253915 1_545
Mg4 Mg5 3.253915 1_555
Mg4 Zr0 3.284550 1_455
Mg4 Zr0 3.284550 1_555
Mg4 Mg8 3.410118 1_555
Mg4 Mg9 3.410118 1_545
Mg5 Mg9 3.234943 1_555
Mg5 Mg8 3.234943 1_555
Mg6 Mg7 3.247284 1_565
Mg6 Mg7 3.256390 1_555
Mg6 Zr0 3.293037 1_566
Mg6 Zr1 3.403503 1_555
Mg7 Zr0 3.293037 1_556
Mg7 Zr1 3.403503 1_555
Mg8 Mg9 3.101069 1_555
Mg8 Zr1 3.194607 1_455
Mg8 Zr1 3.194607 1_555
Mg8 Mg9 3.402605 1_545
Mg9 Zr1 3.194607 1_555
Mg9 Zr1 3.194607 1_455
Mg10 Mg11 3.253915 1_565
Mg10 Mg11 3.253915 1_555
Mg10 Mg7 3.260299 1_455
Mg10 Mg7 3.260299 1_555
Mg10 Mg6 3.260299 1_455
Mg10 Mg6 3.260299 1_555
Mg10 Zr1 3.284550 1_455
Mg10 Zr1 3.284550 1_555
Mg10 Mg9 3.286995 1_555
Mg10 Mg8 3.286995 1_555
Mg10 Mg2 3.410118 1_556
Mg10 Mg3 3.410118 1_556
Mg11 Mg6 3.223359 1_445
Mg11 Mg6 3.223359 1_545
Mg11 Mg7 3.223359 1_455
Mg11 Mg7 3.223359 1_555
Mg11 Mg3 3.234943 1_556
Mg11 Mg2 3.234943 1_546
Mg11 Mg8 3.461524 1_555
Mg11 Mg9 3.461524 1_545
