# generated using pymatgen
data_Ho2ZnCuSi2
_symmetry_space_group_name_H-M   'P 1'
_cell_length_a   3.98707700
_cell_length_b   4.06116895
_cell_length_c   7.03454867
_cell_angle_alpha   90.03562587
_cell_angle_beta   90.00000000
_cell_angle_gamma   90.00000000
_symmetry_Int_Tables_number   1
_chemical_formula_structural   Ho2ZnCuSi2
_chemical_formula_sum   'Ho2 Zn1 Cu1 Si2'
_cell_volume   113.90475011
_cell_formula_units_Z   1
loop_
 _symmetry_equiv_pos_site_id
 _symmetry_equiv_pos_as_xyz
  1  'x, y, z'
loop_
 _atom_site_type_symbol
 _atom_site_label
 _atom_site_symmetry_multiplicity
 _atom_site_fract_x
 _atom_site_fract_y
 _atom_site_fract_z
 _atom_site_occupancy
  Ho  Ho0  1  0.00000000  0.99994400  0.00335700  1
  Ho  Ho1  1  0.00000000  0.49985200  0.49650400  1
  Zn  Zn0  1  0.50000000  0.50010600  0.83538500  1
  Cu  Cu0  1  0.50000000  0.00011200  0.33224300  1
  Si  Si0  1  0.50000000  0.49990400  0.17282800  1
  Si  Si1  1  0.50000000  0.99988200  0.65968400  1
loop_
_geom_bond_atom_site_label_1
_geom_bond_atom_site_label_2
_geom_bond_distance
_geom_bond_site_symmetry_2
Ho0 Zn0 3.080261 1_554
Ho0 Zn0 3.080261 1_454
Ho0 Zn0 3.082097 1_464
Ho0 Zn0 3.082097 1_564
Ho0 Si0 3.084644 1_465
Ho0 Si0 3.084644 1_565
Ho0 Si0 3.085833 1_455
Ho0 Si0 3.085833 1_555
Ho0 Si1 3.133514 1_554
Ho0 Si1 3.133514 1_454
Ho1 Si0 3.026307 1_555
Ho1 Si0 3.026307 1_455
Ho1 Si1 3.068018 1_555
Ho1 Si1 3.068018 1_455
Ho1 Si1 3.068801 1_445
Ho1 Si1 3.068801 1_545
Ho1 Zn0 3.107580 1_555
Ho1 Zn0 3.107580 1_455
Cu0 Si1 2.303400 1_545
Cu0 Si0 2.319534 1_555
Cu0 Si0 2.319793 1_545
Cu0 Ho0 3.053977 1_645
Cu0 Ho0 3.053977 1_545
Cu0 Ho1 3.070090 1_655
Cu0 Ho1 3.070090 1_555
Cu0 Ho1 3.072436 1_645
Cu0 Ho1 3.072436 1_545
Si0 Zn0 2.373760 1_554
Si1 Zn0 2.377044 1_555
Si1 Zn0 2.377285 1_565
