# generated using pymatgen
data_U3(C3O8)2
_symmetry_space_group_name_H-M   'P 1'
_cell_length_a   14.99930365
_cell_length_b   14.99930365
_cell_length_c   14.99930365
_cell_angle_alpha   109.47122063
_cell_angle_beta   109.47122063
_cell_angle_gamma   109.47122063
_symmetry_Int_Tables_number   1
_chemical_formula_structural   U3(C3O8)2
_chemical_formula_sum   'U12 C24 O64'
_cell_volume   2597.71439409
_cell_formula_units_Z   4
loop_
 _symmetry_equiv_pos_site_id
 _symmetry_equiv_pos_as_xyz
  1  'x, y, z'
loop_
 _atom_site_type_symbol
 _atom_site_label
 _atom_site_symmetry_multiplicity
 _atom_site_fract_x
 _atom_site_fract_y
 _atom_site_fract_z
 _atom_site_occupancy
  U  U0  1  0.53153600  0.15050900  0.14560500  1
  U  U1  1  0.38593200  0.85439500  0.00490400  1
  U  U2  1  0.38102800  0.99509600  0.84949100  1
  U  U3  1  0.00490400  0.38593200  0.85439500  1
  U  U4  1  0.84949100  0.38102800  0.99509600  1
  U  U5  1  0.14560500  0.53153600  0.15050900  1
  U  U6  1  0.99509600  0.84949100  0.38102800  1
  U  U7  1  0.15050900  0.14560500  0.53153600  1
  U  U8  1  0.85439500  0.00490400  0.38593200  1
  U  U9  1  0.46846400  0.61406800  0.61897200  1
  U  U10  1  0.61406800  0.61897200  0.46846400  1
  U  U11  1  0.61897200  0.46846400  0.61406800  1
  C  C0  1  0.73366100  0.44138100  0.16883900  1
  C  C1  1  0.56482200  0.83116100  0.27254200  1
  C  C2  1  0.29228000  0.72745800  0.55861900  1
  C  C3  1  0.27254200  0.56482200  0.83116100  1
  C  C4  1  0.55861900  0.29228000  0.72745800  1
  C  C5  1  0.16883900  0.73366100  0.44138100  1
  C  C6  1  0.72745800  0.55861900  0.29228000  1
  C  C7  1  0.44138100  0.16883900  0.73366100  1
  C  C8  1  0.83116100  0.27254200  0.56482200  1
  C  C9  1  0.26633900  0.43517800  0.70772000  1
  C  C10  1  0.43517800  0.70772000  0.26633900  1
  C  C11  1  0.70772000  0.26633900  0.43517800  1
  C  C12  1  0.66837900  0.43523300  0.22694300  1
  C  C13  1  0.44143600  0.77305700  0.20829000  1
  C  C14  1  0.23314600  0.79171000  0.56476700  1
  C  C15  1  0.20829000  0.44143600  0.77305700  1
  C  C16  1  0.56476700  0.23314600  0.79171000  1
  C  C17  1  0.22694300  0.66837900  0.43523300  1
  C  C18  1  0.79171000  0.56476700  0.23314600  1
  C  C19  1  0.43523300  0.22694300  0.66837900  1
  C  C20  1  0.77305700  0.20829000  0.44143600  1
  C  C21  1  0.33162100  0.55856400  0.76685400  1
  C  C22  1  0.55856400  0.76685400  0.33162100  1
  C  C23  1  0.76685400  0.33162100  0.55856400  1
  O  O0  1  0.48135500  0.15774900  0.98699500  1
  O  O1  1  0.49436100  0.01300500  0.17075400  1
  O  O2  1  0.32360700  0.82924600  0.84225100  1
  O  O3  1  0.17075400  0.49436000  0.01300500  1
  O  O4  1  0.84225100  0.32360700  0.82924600  1
  O  O5  1  0.98699500  0.48135500  0.15774900  1
  O  O6  1  0.82924600  0.84225100  0.32360700  1
  O  O7  1  0.15774900  0.98699500  0.48135500  1
  O  O8  1  0.01300500  0.17075400  0.49436100  1
  O  O9  1  0.51864500  0.50564000  0.67639300  1
  O  O10  1  0.50564000  0.67639300  0.51864500  1
  O  O11  1  0.67639300  0.51864500  0.50564000  1
  O  O12  1  0.40743500  0.14404000  0.14099500  1
  O  O13  1  0.26644000  0.85900500  0.00304600  1
  O  O14  1  0.26339400  0.99695400  0.85596000  1
  O  O15  1  0.00304600  0.26644000  0.85900500  1
  O  O16  1  0.85596000  0.26339400  0.99695400  1
  O  O17  1  0.14099500  0.40743500  0.14404000  1
  O  O18  1  0.99695400  0.85596000  0.26339400  1
  O  O19  1  0.14404000  0.14099500  0.40743500  1
  O  O20  1  0.85900500  0.00304600  0.26644000  1
  O  O21  1  0.59256500  0.73356000  0.73660600  1
  O  O22  1  0.73356000  0.73660600  0.59256500  1
  O  O23  1  0.73660600  0.59256500  0.73356000  1
  O  O24  1  0.67235800  0.19417000  0.17693400  1
  O  O25  1  0.49542500  0.82306600  0.01723700  1
  O  O26  1  0.47818800  0.98276300  0.80583000  1
  O  O27  1  0.01723700  0.49542500  0.82306600  1
  O  O28  1  0.80583000  0.47818800  0.98276300  1
  O  O29  1  0.17693400  0.67235800  0.19417000  1
  O  O30  1  0.98276300  0.80583000  0.47818800  1
  O  O31  1  0.19417000  0.17693400  0.67235800  1
  O  O32  1  0.82306600  0.01723700  0.49542500  1
  O  O33  1  0.32764200  0.50457500  0.52181200  1
  O  O34  1  0.50457500  0.52181200  0.32764200  1
  O  O35  1  0.52181200  0.32764200  0.50457500  1
  O  O36  1  0.59806100  0.36191400  0.22398900  1
  O  O37  1  0.37407200  0.77601100  0.13792500  1
  O  O38  1  0.23614700  0.86207500  0.63808600  1
  O  O39  1  0.13792500  0.37407200  0.77601100  1
  O  O40  1  0.63808600  0.23614700  0.86207500  1
  O  O41  1  0.22398900  0.59806100  0.36191400  1
  O  O42  1  0.86207500  0.63808600  0.23614700  1
  O  O43  1  0.36191400  0.22398900  0.59806100  1
  O  O44  1  0.77601100  0.13792500  0.37407200  1
  O  O45  1  0.40193900  0.62592800  0.76385300  1
  O  O46  1  0.62592800  0.76385300  0.40193900  1
  O  O47  1  0.76385300  0.40193900  0.62592800  1
  O  O48  1  0.73801300  0.37383300  0.10005700  1
  O  O49  1  0.63795600  0.89994300  0.27377600  1
  O  O50  1  0.36418000  0.72622400  0.62616700  1
  O  O51  1  0.27377600  0.63795600  0.89994300  1
  O  O52  1  0.62616700  0.36418000  0.72622400  1
  O  O53  1  0.10005700  0.73801300  0.37383300  1
  O  O54  1  0.72622400  0.62616700  0.36418000  1
  O  O55  1  0.37383300  0.10005700  0.73801300  1
  O  O56  1  0.89994300  0.27377600  0.63795600  1
  O  O57  1  0.26198700  0.36204400  0.63582000  1
  O  O58  1  0.36204400  0.63582000  0.26198700  1
  O  O59  1  0.63582000  0.26198700  0.36204400  1
  O  O60  1  0.46644100  0.00000000  0.00000000  1
  O  O61  1  0.00000000  0.46644100  0.00000000  1
  O  O62  1  0.00000000  0.00000000  0.46644100  1
  O  O63  1  0.53355900  0.53355900  0.53355900  1
loop_
_geom_bond_atom_site_label_1
_geom_bond_atom_site_label_2
_geom_bond_distance
_geom_bond_site_symmetry_2
C0 O48 1.219544 1_555
C1 O49 1.219544 1_555
C2 O50 1.219544 1_555
C3 O51 1.219544 1_555
C4 O52 1.219544 1_555
C5 O53 1.219544 1_555
C6 O54 1.219544 1_555
C7 O55 1.219544 1_555
C8 O56 1.219544 1_555
C9 O57 1.219544 1_555
C10 O58 1.219544 1_555
C11 O59 1.219544 1_555
C12 O36 1.219385 1_555
C13 O37 1.219385 1_555
C14 O38 1.219385 1_555
C15 O39 1.219385 1_555
C16 O40 1.219385 1_555
C17 O41 1.219385 1_555
C18 O42 1.219385 1_555
C19 O43 1.219385 1_555
C20 O44 1.219385 1_555
C21 O45 1.219385 1_555
C22 O46 1.219385 1_555
C23 O47 1.219385 1_555
O0 U2 2.144568 1_545
O0 U0 2.295889 1_556
O1 U0 2.144568 1_555
O1 U1 2.295889 1_545
O2 U1 2.144568 1_556
O2 U2 2.295889 1_555
O3 U5 2.144568 1_555
O3 U3 2.295889 1_554
O4 U3 2.144568 1_655
O4 U4 2.295889 1_555
O5 U4 2.144568 1_554
O5 U5 2.295889 1_655
O6 U8 2.144568 1_565
O6 U6 2.295889 1_555
O7 U6 2.144568 1_455
O7 U7 2.295889 1_565
O8 U7 2.144568 1_555
O8 U8 2.295889 1_455
O9 U11 2.144554 1_555
O9 U9 2.295875 1_555
O10 U9 2.144554 1_555
O10 U10 2.295875 1_555
O11 U10 2.144554 1_555
O11 U11 2.295875 1_555
O12 U0 1.807878 1_555
O13 U1 1.807897 1_555
O14 U2 1.807903 1_555
O15 U3 1.807897 1_555
O16 U4 1.807903 1_555
O17 U5 1.807878 1_555
O18 U6 1.807903 1_555
O19 U7 1.807878 1_555
O20 U8 1.807897 1_555
O21 U9 1.807892 1_555
O22 U10 1.807892 1_555
O23 U11 1.807892 1_555
O24 U0 1.822681 1_555
O25 U1 1.822680 1_555
O26 U2 1.822671 1_555
O27 U3 1.822680 1_555
O28 U4 1.822671 1_555
O29 U5 1.822681 1_555
O30 U6 1.822671 1_555
O31 U7 1.822681 1_555
O32 U8 1.822680 1_555
O33 U9 1.822680 1_555
O34 U10 1.822680 1_555
O35 U11 1.822680 1_555
O36 U0 2.656291 1_555
O37 U1 2.656293 1_555
O38 U2 2.656293 1_555
O39 U3 2.656293 1_555
O40 U4 2.656293 1_555
O41 U5 2.656291 1_555
O42 U6 2.656293 1_555
O43 U7 2.656291 1_555
O44 U8 2.656293 1_555
O45 U9 2.656303 1_555
O46 U10 2.656303 1_555
O47 U11 2.656303 1_555
O48 U4 2.652173 1_554
O49 U8 2.652173 1_565
O50 U9 2.652185 1_555
O51 U1 2.652173 1_556
O52 U11 2.652185 1_555
O53 U6 2.652173 1_455
O54 U10 2.652185 1_555
O55 U2 2.652173 1_545
O56 U3 2.652173 1_655
O57 U7 2.652173 1_555
O58 U5 2.652173 1_555
O59 U0 2.652173 1_555
O60 U1 2.154414 1_545
O60 U2 2.154414 1_544
O60 U0 2.154417 1_555
O61 U3 2.154414 1_554
O61 U4 2.154414 1_454
O61 U5 2.154417 1_555
O62 U8 2.154414 1_455
O62 U6 2.154414 1_445
O62 U7 2.154417 1_555
O63 U11 2.154401 1_555
O63 U10 2.154401 1_555
O63 U9 2.154401 1_555
