# generated using pymatgen
data_Li9Mn2Co5O16
_symmetry_space_group_name_H-M   'P 1'
_cell_length_a   2.95644300
_cell_length_b   5.10110557
_cell_length_c   19.25047147
_cell_angle_alpha   93.63905403
_cell_angle_beta   93.31070683
_cell_angle_gamma   91.36877572
_symmetry_Int_Tables_number   1
_chemical_formula_structural   Li9Mn2Co5O16
_chemical_formula_sum   'Li9 Mn2 Co5 O16'
_cell_volume   289.13927038
_cell_formula_units_Z   1
loop_
 _symmetry_equiv_pos_site_id
 _symmetry_equiv_pos_as_xyz
  1  'x, y, z'
loop_
 _atom_site_type_symbol
 _atom_site_label
 _atom_site_symmetry_multiplicity
 _atom_site_fract_x
 _atom_site_fract_y
 _atom_site_fract_z
 _atom_site_occupancy
  Li  Li0  1  0.00729900  0.61844900  0.87095600  1
  Li  Li1  1  0.50876500  0.73008800  0.74885200  1
  Li  Li2  1  0.99048400  0.87635100  0.62459100  1
  Li  Li3  1  0.49503100  0.00273000  0.50080800  1
  Li  Li4  1  0.00037000  0.12690800  0.37658700  1
  Li  Li5  1  0.50284800  0.24891700  0.25007000  1
  Li  Li6  1  0.99881100  0.37415200  0.12541500  1
  Li  Li7  1  0.49705300  0.50863100  0.00170300  1
  Li  Li8  1  0.98641100  0.26621400  0.75082100  1
  Mn  Mn0  1  0.00694600  0.99698100  0.00037500  1
  Mn  Mn1  1  0.50712700  0.13101700  0.87023400  1
  Co  Co0  1  0.49062000  0.37262600  0.62895100  1
  Co  Co1  1  0.00210600  0.49122700  0.50083400  1
  Co  Co2  1  0.51463400  0.61594700  0.37629100  1
  Co  Co3  1  0.00257600  0.75690100  0.25075400  1
  Co  Co4  1  0.48679000  0.87850500  0.12622700  1
  O  O0  1  0.53992000  0.83505800  0.93749300  1
  O  O1  1  0.98314900  0.96203700  0.81892300  1
  O  O2  1  0.49871800  0.09753900  0.67729100  1
  O  O3  1  0.01960800  0.21327800  0.56255800  1
  O  O4  1  0.53486000  0.32017800  0.44060700  1
  O  O5  1  0.01656300  0.45374800  0.31568600  1
  O  O6  1  0.49702600  0.59463100  0.18897700  1
  O  O7  1  0.02607000  0.70207100  0.06401700  1
  O  O8  1  0.49433500  0.41747000  0.81758600  1
  O  O9  1  0.96366400  0.55794000  0.68159400  1
  O  O10  1  0.46658600  0.65011000  0.56289700  1
  O  O11  1  0.99975000  0.78044800  0.43799300  1
  O  O12  1  0.50225100  0.91952600  0.30960200  1
  O  O13  1  0.95550400  0.05167600  0.18491300  1
  O  O14  1  0.47325800  0.16681200  0.06395400  1
  O  O15  1  0.03087300  0.28184000  0.93243600  1
loop_
_geom_bond_atom_site_label_1
_geom_bond_atom_site_label_2
_geom_bond_distance
_geom_bond_site_symmetry_2
Li0 O8 2.004640 1_455
Li0 O8 2.070650 1_555
Li0 O1 2.073856 1_455
Li0 O15 2.146647 1_555
Li0 O0 2.201216 1_555
Li0 O0 2.206479 1_455
Li1 O9 2.090319 1_555
Li1 O8 2.136998 1_555
Li1 O9 2.142825 1_455
Li1 O1 2.164734 1_555
Li1 O2 2.395356 1_565
Li1 O1 2.400334 1_455
Li2 O9 2.019595 1_555
Li2 O2 2.039023 1_665
Li2 O2 2.125903 1_565
Li2 O3 2.157015 1_665
Li2 O10 2.160913 1_555
Li2 O10 2.195525 1_655
Li3 O4 2.055245 1_555
Li3 O11 2.105732 1_445
Li3 O3 2.125380 1_655
Li3 O3 2.155277 1_555
Li3 O10 2.224519 1_545
Li3 O11 2.256030 1_545
Li4 O5 2.099345 1_555
Li4 O12 2.117474 1_445
Li4 O4 2.119290 1_455
Li4 O4 2.129373 1_555
Li4 O11 2.187715 1_445
Li4 O12 2.259718 1_545
Li5 O12 2.093123 1_545
Li5 O13 2.115308 1_555
Li5 O5 2.128142 1_655
Li5 O13 2.175255 1_455
Li5 O6 2.180789 1_555
Li5 O5 2.206387 1_555
Li6 O13 2.068882 1_555
Li6 O7 2.111186 1_655
Li6 O6 2.114161 1_655
Li6 O14 2.117310 1_555
Li6 O14 2.142361 1_655
Li6 O6 2.253344 1_555
Li7 O7 2.101929 1_655
Li7 O7 2.111836 1_555
Li7 O15 2.128771 1_554
Li7 O0 2.141474 1_554
Li7 O14 2.179558 1_555
Li7 O15 2.396165 1_654
Li8 O8 2.024353 1_655
Li8 O9 2.059412 1_555
Li8 O2 2.091228 1_555
Li8 O1 2.094124 1_545
Li8 O8 2.123051 1_555
Li8 O2 2.278871 1_655
Mn0 O0 1.918217 1_454
Mn0 O14 1.939736 1_565
Mn0 O7 1.999326 1_555
Mn0 O15 2.018416 1_564
Mn0 O0 2.187693 1_554
Mn0 O14 2.211736 1_465
Mn1 O8 1.830301 1_555
Mn1 O1 1.941603 1_445
Mn1 O1 1.951846 1_545
Mn1 O15 2.008816 1_655
Mn1 O15 2.034155 1_555
Mn1 O0 2.050781 1_545
Co0 O2 1.732174 1_555
Co0 O9 1.878298 1_555
Co0 O3 1.960063 1_555
Co0 O10 1.961724 1_555
Co0 O9 2.116316 1_455
Co0 O3 2.213557 1_655
Co1 O10 1.898526 1_555
Co1 O3 1.906591 1_555
Co1 O4 1.908605 1_455
Co1 O11 1.966264 1_455
Co1 O4 2.175889 1_555
Co1 O10 2.178939 1_455
Co2 O11 1.947100 1_555
Co2 O5 1.958278 1_555
Co2 O4 2.011395 1_555
Co2 O12 2.072980 1_555
Co2 O5 2.093759 1_655
Co2 O11 2.139044 1_455
Co3 O12 1.944916 1_555
Co3 O6 1.985954 1_455
Co3 O13 2.029398 1_465
Co3 O5 2.048902 1_555
Co3 O12 2.071808 1_455
Co3 O6 2.090455 1_555
Co4 O13 1.900233 1_565
Co4 O7 1.927614 1_555
Co4 O6 1.943433 1_555
Co4 O14 1.955165 1_565
Co4 O13 2.160634 1_465
Co4 O7 2.222254 1_655
