# generated using pymatgen
data_Li4MnCo2O7
_symmetry_space_group_name_H-M   'P 1'
_cell_length_a   5.00251300
_cell_length_b   5.17381128
_cell_length_c   10.21084576
_cell_angle_alpha   98.87348279
_cell_angle_beta   99.25079283
_cell_angle_gamma   100.72056839
_symmetry_Int_Tables_number   1
_chemical_formula_structural   Li4MnCo2O7
_chemical_formula_sum   'Li8 Mn2 Co4 O14'
_cell_volume   251.62439548
_cell_formula_units_Z   2
loop_
 _symmetry_equiv_pos_site_id
 _symmetry_equiv_pos_as_xyz
  1  'x, y, z'
loop_
 _atom_site_type_symbol
 _atom_site_label
 _atom_site_symmetry_multiplicity
 _atom_site_fract_x
 _atom_site_fract_y
 _atom_site_fract_z
 _atom_site_occupancy
  Li  Li0  1  0.71557000  0.43040900  0.92010900  1
  Li  Li1  1  0.29022200  0.57482800  0.07499700  1
  Li  Li2  1  0.85358400  0.71661600  0.22230000  1
  Li  Li3  1  0.57786900  0.13476800  0.63559100  1
  Li  Li4  1  0.13157900  0.27801800  0.77275200  1
  Li  Li5  1  0.42851500  0.85855200  0.36179700  1
  Li  Li6  1  0.99946400  0.99936400  0.50716100  1
  Li  Li7  1  0.85415900  0.71340600  0.71168900  1
  Mn  Mn0  1  0.00039200  0.99294400  0.99828100  1
  Mn  Mn1  1  0.42833100  0.85332000  0.85415000  1
  Co  Co0  1  0.56986000  0.14085400  0.14212000  1
  Co  Co1  1  0.14818500  0.29154400  0.28909800  1
  Co  Co2  1  0.71768400  0.43558700  0.43545700  1
  Co  Co3  1  0.29146300  0.58167000  0.57709000  1
  O  O0  1  0.78531900  0.06191100  0.83726600  1
  O  O1  1  0.35608200  0.18190500  0.97097700  1
  O  O2  1  0.91906600  0.31416500  0.10311800  1
  O  O3  1  0.62504300  0.76642200  0.53341200  1
  O  O4  1  0.24066700  0.92628900  0.69290300  1
  O  O5  1  0.48718300  0.48491700  0.25121200  1
  O  O6  1  0.06148700  0.62643000  0.39150700  1
  O  O7  1  0.65441700  0.79207200  0.02306700  1
  O  O8  1  0.21626900  0.94515900  0.16846500  1
  O  O9  1  0.77973700  0.08756100  0.30534800  1
  O  O10  1  0.48256200  0.53168300  0.75977500  1
  O  O11  1  0.09013400  0.68066700  0.90139500  1
  O  O12  1  0.35804600  0.23156700  0.46121800  1
  O  O13  1  0.93711000  0.36737000  0.59774600  1
loop_
_geom_bond_atom_site_label_1
_geom_bond_atom_site_label_2
_geom_bond_distance
_geom_bond_site_symmetry_2
Li0 O10 2.047389 1_555
Li0 O0 2.077745 1_555
Li0 O7 2.099901 1_556
Li0 O11 2.124336 1_655
Li0 O1 2.191576 1_555
Li0 O2 2.202920 1_556
Li1 O5 2.069651 1_555
Li1 O11 2.092093 1_554
Li1 O8 2.128838 1_555
Li1 O7 2.143920 1_555
Li1 O2 2.169770 1_455
Li1 O1 2.250545 1_554
Li2 O6 2.033723 1_655
Li2 O5 2.085546 1_555
Li2 O9 2.097926 1_565
Li2 O8 2.171447 1_655
Li2 O7 2.240910 1_555
Li2 O2 2.350328 1_555
Li3 O4 2.046116 1_545
Li3 O13 2.095071 1_555
Li3 O3 2.099809 1_545
Li3 O12 2.116776 1_555
Li3 O0 2.271031 1_555
Li3 O10 2.409899 1_555
Li4 O10 2.023355 1_555
Li4 O13 2.053434 1_455
Li4 O4 2.080610 1_545
Li4 O0 2.134958 1_455
Li4 O1 2.322235 1_555
Li4 O11 2.347828 1_555
Li5 O3 2.035331 1_555
Li5 O6 2.092026 1_555
Li5 O9 2.141240 1_565
Li5 O12 2.154796 1_565
Li5 O5 2.177683 1_555
Li5 O8 2.236321 1_555
Li6 O13 2.085289 1_565
Li6 O3 2.110425 1_555
Li6 O12 2.126922 1_665
Li6 O4 2.202515 1_655
Li6 O6 2.202580 1_655
Li6 O9 2.326219 1_565
Li7 O3 2.074323 1_555
Li7 O10 2.089563 1_555
Li7 O4 2.092967 1_655
Li7 O13 2.126052 1_555
Li7 O11 2.148214 1_655
Li7 O0 2.161858 1_565
Mn0 O7 1.921563 1_456
Mn0 O11 1.926172 1_555
Mn0 O0 1.934696 1_465
Mn0 O1 1.948328 1_565
Mn0 O8 1.968645 1_556
Mn0 O2 1.978934 1_466
Mn1 O10 1.878484 1_555
Mn1 O4 1.887161 1_555
Mn1 O11 1.930301 1_555
Mn1 O0 1.955247 1_565
Mn1 O7 2.007294 1_556
Mn1 O1 2.045810 1_565
Co0 O9 1.908687 1_555
Co0 O2 1.940461 1_555
Co0 O8 1.948594 1_545
Co0 O1 1.959782 1_554
Co0 O5 2.095469 1_555
Co0 O7 2.164619 1_545
Co1 O5 1.930178 1_555
Co1 O9 1.991796 1_455
Co1 O12 1.995858 1_555
Co1 O6 2.037160 1_555
Co1 O2 2.086223 1_455
Co1 O8 2.127423 1_545
Co2 O13 1.953260 1_555
Co2 O6 1.971641 1_655
Co2 O12 1.987820 1_555
Co2 O3 2.015194 1_555
Co2 O5 2.119950 1_555
Co2 O9 2.169358 1_555
Co3 O3 1.916937 1_555
Co3 O13 1.969074 1_455
Co3 O10 2.031712 1_555
Co3 O4 2.063190 1_555
Co3 O12 2.117036 1_555
Co3 O6 2.121706 1_555
