# generated using pymatgen
data_Fe3Ni
_symmetry_space_group_name_H-M   'P 1'
_cell_length_a   4.03433976
_cell_length_b   4.03433976
_cell_length_c   4.03433976
_cell_angle_alpha   60.00000000
_cell_angle_beta   60.00000000
_cell_angle_gamma   60.00000000
_symmetry_Int_Tables_number   1
_chemical_formula_structural   Fe3Ni
_chemical_formula_sum   'Fe3 Ni1'
_cell_volume   46.43039865
_cell_formula_units_Z   1
loop_
 _symmetry_equiv_pos_site_id
 _symmetry_equiv_pos_as_xyz
  1  'x, y, z'
loop_
 _atom_site_type_symbol
 _atom_site_label
 _atom_site_symmetry_multiplicity
 _atom_site_fract_x
 _atom_site_fract_y
 _atom_site_fract_z
 _atom_site_occupancy
  Fe  Fe0  1  0.75000000  0.75000000  0.75000000  1
  Fe  Fe1  1  0.25000000  0.25000000  0.25000000  1
  Fe  Fe2  1  0.50000000  0.50000000  0.50000000  1
  Ni  Ni0  1  0.00000000  0.00000000  0.00000000  1
loop_
_geom_bond_atom_site_label_1
_geom_bond_atom_site_label_2
_geom_bond_distance
_geom_bond_site_symmetry_2
Fe0 Fe2 2.470518 1_655
Fe0 Ni0 2.470518 1_566
Fe0 Ni0 2.470518 1_665
Fe0 Fe2 2.470518 1_555
Fe0 Fe2 2.470518 1_556
Fe0 Ni0 2.470518 1_666
Fe0 Fe2 2.470518 1_565
Fe0 Ni0 2.470518 1_656
Fe1 Fe2 2.470518 1_455
Fe1 Ni0 2.470518 1_655
Fe1 Fe2 2.470518 1_555
Fe1 Ni0 2.470518 1_556
Fe1 Fe2 2.470518 1_554
Fe1 Ni0 2.470518 1_555
Fe1 Ni0 2.470518 1_565
Fe1 Fe2 2.470518 1_545
Fe2 Ni0 2.852709 1_655
Fe2 Ni0 2.852709 1_566
Fe2 Ni0 2.852709 1_665
Fe2 Ni0 2.852709 1_556
Fe2 Ni0 2.852709 1_656
Fe2 Ni0 2.852709 1_565
