# generated using pymatgen
data_In3Cu3SiSe8
_symmetry_space_group_name_H-M   'P 1'
_cell_length_a   5.88229000
_cell_length_b   5.88229000
_cell_length_c   11.08495200
_cell_angle_alpha   90.00000000
_cell_angle_beta   90.00000000
_cell_angle_gamma   90.00000000
_symmetry_Int_Tables_number   1
_chemical_formula_structural   In3Cu3SiSe8
_chemical_formula_sum   'In3 Cu3 Si1 Se8'
_cell_volume   383.55414475
_cell_formula_units_Z   1
loop_
 _symmetry_equiv_pos_site_id
 _symmetry_equiv_pos_as_xyz
  1  'x, y, z'
loop_
 _atom_site_type_symbol
 _atom_site_label
 _atom_site_symmetry_multiplicity
 _atom_site_fract_x
 _atom_site_fract_y
 _atom_site_fract_z
 _atom_site_occupancy
  In  In0  1  0.50000000  0.00000000  0.26613500  1
  In  In1  1  0.00000000  0.50000000  0.73386500  1
  In  In2  1  0.50000000  0.50000000  0.00000000  1
  Cu  Cu0  1  0.00000000  0.50000000  0.26407700  1
  Cu  Cu1  1  0.50000000  0.00000000  0.73592300  1
  Cu  Cu2  1  0.00000000  0.00000000  0.00000000  1
  Si  Si0  1  0.00000000  0.00000000  0.50000000  1
  Se  Se0  1  0.77328500  0.26011600  0.39824900  1
  Se  Se1  1  0.25065300  0.77809900  0.86744000  1
  Se  Se2  1  0.22671500  0.73988400  0.39824900  1
  Se  Se3  1  0.74934700  0.22190100  0.86744000  1
  Se  Se4  1  0.22190100  0.25065300  0.13256000  1
  Se  Se5  1  0.73988400  0.77328500  0.60175100  1
  Se  Se6  1  0.77809900  0.74934700  0.13256000  1
  Se  Se7  1  0.26011600  0.22671500  0.60175100  1
loop_
_geom_bond_atom_site_label_1
_geom_bond_atom_site_label_2
_geom_bond_distance
_geom_bond_site_symmetry_2
In0 Se6 2.653737 1_545
In0 Se4 2.653737 1_555
In0 Se2 2.658951 1_545
In0 Se0 2.658951 1_555
In1 Se1 2.653737 1_555
In1 Se3 2.653737 1_455
In1 Se5 2.658951 1_455
In1 Se7 2.658951 1_555
In2 Se1 2.643205 1_554
In2 Se3 2.643205 1_554
In2 Se4 2.643205 1_555
In2 Se6 2.643205 1_555
Cu0 Se6 2.445491 1_455
Cu0 Se4 2.445491 1_555
Cu0 Se2 2.445739 1_555
Cu0 Se0 2.445739 1_455
Cu1 Se3 2.445491 1_555
Cu1 Se1 2.445491 1_545
Cu1 Se7 2.445739 1_555
Cu1 Se5 2.445739 1_545
Cu2 Se1 2.457003 1_544
Cu2 Se3 2.457003 1_454
Cu2 Se4 2.457003 1_555
Cu2 Se6 2.457003 1_445
Se0 Si0 2.322026 1_655
Se2 Si0 2.322026 1_565
Se5 Si0 2.322026 1_665
Se7 Si0 2.322026 1_555
