# generated using pymatgen
data_Mg14AlBi
_symmetry_space_group_name_H-M   'P 1'
_cell_length_a   6.42644579
_cell_length_b   6.42644526
_cell_length_c   10.37674626
_cell_angle_alpha   90.00000000
_cell_angle_beta   90.00000000
_cell_angle_gamma   120.00000276
_symmetry_Int_Tables_number   1
_chemical_formula_structural   Mg14AlBi
_chemical_formula_sum   'Mg14 Al1 Bi1'
_cell_volume   371.13633786
_cell_formula_units_Z   1
loop_
 _symmetry_equiv_pos_site_id
 _symmetry_equiv_pos_as_xyz
  1  'x, y, z'
loop_
 _atom_site_type_symbol
 _atom_site_label
 _atom_site_symmetry_multiplicity
 _atom_site_fract_x
 _atom_site_fract_y
 _atom_site_fract_z
 _atom_site_occupancy
  Mg  Mg0  1  0.16616169  0.83308034  0.12500000  1
  Mg  Mg1  1  0.16604590  0.83302245  0.62500000  1
  Mg  Mg2  1  0.66691966  0.33383831  0.12500000  1
  Mg  Mg3  1  0.66697755  0.33395410  0.62500000  1
  Mg  Mg4  1  0.66691966  0.83308034  0.12500000  1
  Mg  Mg5  1  0.66697755  0.83302245  0.62500000  1
  Mg  Mg6  1  0.33512608  0.16487392  0.36937030  1
  Mg  Mg7  1  0.33512608  0.16487392  0.88062970  1
  Mg  Mg8  1  0.33512608  0.67025316  0.36937030  1
  Mg  Mg9  1  0.33512608  0.67025316  0.88062970  1
  Mg  Mg10  1  0.82974684  0.16487392  0.36937030  1
  Mg  Mg11  1  0.82974684  0.16487392  0.88062970  1
  Mg  Mg12  1  0.83333300  0.66666700  0.37568160  1
  Mg  Mg13  1  0.83333300  0.66666700  0.87431840  1
  Al  Al0  1  0.16666700  0.33333300  0.12500000  1
  Bi  Bi0  1  0.16666700  0.33333300  0.62500000  1
loop_
_geom_bond_atom_site_label_1
_geom_bond_atom_site_label_2
_geom_bond_distance
_geom_bond_site_symmetry_2
Mg0 Mg8 3.136933 1_555
Mg0 Mg9 3.136933 1_554
Mg0 Mg6 3.136939 1_565
Mg0 Mg7 3.136939 1_564
Mg0 Mg13 3.193390 1_454
Mg0 Mg12 3.193390 1_455
Mg0 Mg2 3.208352 1_455
Mg0 Mg4 3.208352 1_455
Mg0 Mg2 3.218094 1_565
Mg0 Mg4 3.218094 1_555
Mg1 Mg12 3.181503 1_455
Mg1 Mg13 3.181503 1_455
Mg1 Mg3 3.207235 1_455
Mg1 Mg5 3.207236 1_455
Mg1 Mg3 3.219210 1_565
Mg1 Mg5 3.219210 1_555
Mg1 Mg8 3.232298 1_555
Mg1 Mg9 3.232298 1_555
Mg1 Mg7 3.232304 1_565
Mg1 Mg6 3.232304 1_565
Mg2 Mg7 3.136939 1_554
Mg2 Mg6 3.136939 1_555
Mg2 Mg4 3.208352 1_555
Mg2 Mg4 3.218094 1_545
Mg3 Mg5 3.207235 1_555
Mg3 Mg5 3.219210 1_545
Mg3 Mg7 3.232304 1_555
Mg3 Mg6 3.232304 1_555
Mg4 Mg8 3.136940 1_555
Mg4 Mg9 3.136940 1_554
Mg5 Mg9 3.232304 1_555
Mg5 Mg8 3.232304 1_555
Mg6 Mg8 3.178653 1_545
Mg6 Mg8 3.247792 1_555
Mg7 Mg9 3.178653 1_545
Mg7 Mg9 3.247792 1_555
Mg10 Mg2 3.136933 1_555
Mg10 Mg4 3.136939 1_545
Mg10 Mg8 3.178653 1_545
Mg10 Mg6 3.178654 1_555
Mg10 Mg12 3.213952 1_555
Mg10 Mg12 3.213952 1_545
Mg10 Mg3 3.232298 1_555
Mg10 Mg5 3.232304 1_545
Mg10 Mg8 3.247792 1_655
Mg10 Mg6 3.247792 1_655
Mg11 Mg2 3.136933 1_556
Mg11 Mg4 3.136939 1_546
Mg11 Mg9 3.178653 1_545
Mg11 Mg7 3.178654 1_555
Mg11 Mg13 3.213952 1_555
Mg11 Mg13 3.213952 1_545
Mg11 Mg3 3.232298 1_555
Mg11 Mg5 3.232304 1_545
Mg11 Mg9 3.247792 1_655
Mg11 Mg7 3.247792 1_655
Mg12 Mg5 3.181496 1_555
Mg12 Mg3 3.181502 1_555
Mg12 Mg4 3.193383 1_555
Mg12 Mg2 3.193390 1_555
Mg12 Mg6 3.213952 1_555
Mg12 Mg6 3.213952 1_665
Mg12 Mg8 3.213952 1_655
Mg12 Mg8 3.213952 1_555
Mg13 Mg5 3.181496 1_555
Mg13 Mg3 3.181502 1_555
Mg13 Mg4 3.193383 1_556
Mg13 Mg2 3.193390 1_556
Mg13 Mg7 3.213952 1_555
Mg13 Mg7 3.213952 1_665
Mg13 Mg9 3.213952 1_655
Mg13 Mg9 3.213952 1_555
Al0 Mg6 3.153751 1_555
Al0 Mg7 3.153751 1_554
Al0 Mg8 3.153758 1_555
Al0 Mg9 3.153758 1_554
Al0 Mg11 3.153758 1_454
Al0 Mg10 3.153758 1_455
Al0 Mg0 3.213224 1_555
Al0 Mg4 3.213224 1_445
Al0 Mg4 3.213224 1_555
Al0 Mg0 3.213224 1_545
Al0 Mg2 3.213224 1_455
Al0 Mg2 3.213224 1_555
Bi0 Mg5 3.213224 1_445
Bi0 Mg5 3.213224 1_555
Bi0 Mg1 3.213224 1_545
Bi0 Mg1 3.213224 1_555
Bi0 Mg3 3.213225 1_555
Bi0 Mg3 3.213225 1_455
Bi0 Mg6 3.248436 1_555
Bi0 Mg7 3.248436 1_555
Bi0 Mg9 3.248442 1_555
Bi0 Mg8 3.248442 1_555
Bi0 Mg11 3.248442 1_455
Bi0 Mg10 3.248442 1_455
