# generated using pymatgen
data_K4Re6TeC6S7N6
_symmetry_space_group_name_H-M   'P 1'
_cell_length_a   15.21500851
_cell_length_b   15.21500851
_cell_length_c   15.21500851
_cell_angle_alpha   70.52877937
_cell_angle_beta   70.52877937
_cell_angle_gamma   109.47122063
_symmetry_Int_Tables_number   1
_chemical_formula_structural   K4Re6TeC6S7N6
_chemical_formula_sum   'K16 Re24 Te4 C24 S28 N24'
_cell_volume   2711.40697053
_cell_formula_units_Z   4
loop_
 _symmetry_equiv_pos_site_id
 _symmetry_equiv_pos_as_xyz
  1  'x, y, z'
loop_
 _atom_site_type_symbol
 _atom_site_label
 _atom_site_symmetry_multiplicity
 _atom_site_fract_x
 _atom_site_fract_y
 _atom_site_fract_z
 _atom_site_occupancy
  K  K0  1  -0.00000000  -0.00000000  0.50060098  1
  K  K1  1  0.49939902  0.50000000  0.50000000  1
  K  K2  1  0.00060098  0.50060098  0.99939902  1
  K  K3  1  0.50000000  0.99939902  0.00000000  1
  K  K4  1  0.25000000  0.94268732  0.30731268  1
  K  K5  1  0.75000000  0.55731268  0.19268732  1
  K  K6  1  0.69268732  0.75000000  0.55731268  1
  K  K7  1  0.80731268  0.25000000  0.94268732  1
  K  K8  1  0.05731268  0.30731268  0.25000000  1
  K  K9  1  0.44268732  0.19268732  0.75000000  1
  K  K10  1  0.75000000  0.05686882  0.69313118  1
  K  K11  1  0.25000000  0.44313118  0.80686882  1
  K  K12  1  0.30686882  0.25000000  0.44313118  1
  K  K13  1  0.19313118  0.75000000  0.05686882  1
  K  K14  1  0.94313118  0.69313118  0.75000000  1
  K  K15  1  0.55686882  0.80686882  0.25000000  1
  Re  Re0  1  0.10207719  0.99034774  0.03894835  1
  Re  Re1  1  0.97070390  0.50965226  0.38827055  1
  Re  Re2  1  0.52929610  0.14102555  0.46105165  1
  Re  Re3  1  0.39792281  0.35897445  0.11172945  1
  Re  Re4  1  0.88827055  0.89792281  0.14102555  1
  Re  Re5  1  0.53894835  0.02929610  0.35897445  1
  Re  Re6  1  0.61172945  0.47070390  0.99034774  1
  Re  Re7  1  0.96105165  0.60207719  0.50965226  1
  Re  Re8  1  0.00965226  0.11172945  0.02929610  1
  Re  Re9  1  0.49034774  0.46105165  0.89792281  1
  Re  Re10  1  0.85897445  0.38827055  0.60207719  1
  Re  Re11  1  0.64102555  0.03894835  0.47070390  1
  Re  Re12  1  0.89917525  0.00952208  0.95816667  1
  Re  Re13  1  0.03231125  0.49047792  0.61034683  1
  Re  Re14  1  0.46768875  0.85734192  0.54183333  1
  Re  Re15  1  0.60082475  0.64265808  0.88965317  1
  Re  Re16  1  0.11034683  0.10082475  0.85734192  1
  Re  Re17  1  0.45816667  0.96768875  0.64265808  1
  Re  Re18  1  0.38965317  0.53231125  0.00952208  1
  Re  Re19  1  0.04183333  0.39917525  0.49047792  1
  Re  Re20  1  0.99047792  0.88965317  0.96768875  1
  Re  Re21  1  0.50952208  0.54183333  0.10082475  1
  Re  Re22  1  0.14265808  0.61034683  0.39917525  1
  Re  Re23  1  0.35734192  0.95816667  0.53231125  1
  Te  Te0  1  -0.00000000  0.00000000  0.21826711  1
  Te  Te1  1  0.78173289  0.50000000  0.50000000  1
  Te  Te2  1  0.71826711  0.21826711  0.28173289  1
  Te  Te3  1  0.50000000  0.28173289  0.00000000  1
  C  C0  1  0.22126183  0.98442987  0.07745861  1
  C  C1  1  0.93811152  0.51557013  0.26316804  1
  C  C2  1  0.56188848  0.29872044  0.42254139  1
  C  C3  1  0.27873817  0.20127956  0.23683196  1
  C  C4  1  0.76316804  0.77873817  0.29872044  1
  C  C5  1  0.57745861  0.06188848  0.20127956  1
  C  C6  1  0.73683196  0.43811152  0.98442987  1
  C  C7  1  0.92254139  0.72126183  0.51557013  1
  C  C8  1  0.01557013  0.23683196  0.06188848  1
  C  C9  1  0.48442987  0.42254139  0.77873817  1
  C  C10  1  0.70127956  0.26316804  0.72126183  1
  C  C11  1  0.79872044  0.07745861  0.43811152  1
  C  C12  1  0.77934741  0.01554631  0.92082778  1
  C  C13  1  0.06362592  0.48445369  0.73619889  1
  C  C14  1  0.43637408  0.70017519  0.57917222  1
  C  C15  1  0.72065259  0.79982481  0.76380111  1
  C  C16  1  0.23619889  0.22065259  0.70017519  1
  C  C17  1  0.42082778  0.93637408  0.79982481  1
  C  C18  1  0.26380111  0.56362592  0.01554631  1
  C  C19  1  0.07917222  0.27934741  0.48445369  1
  C  C20  1  0.98445369  0.76380111  0.93637408  1
  C  C21  1  0.51554631  0.57917222  0.22065259  1
  C  C22  1  0.29982481  0.73619889  0.27934741  1
  C  C23  1  0.20017519  0.92082778  0.56362592  1
  S  S0  1  0.98183748  0.79711333  0.13658516  1
  S  S1  1  0.06630151  0.70288667  0.31527585  1
  S  S2  1  0.43369849  0.11842264  0.36341484  1
  S  S3  1  0.51816252  0.38157736  0.18472415  1
  S  S4  1  0.81527585  0.01816252  0.11842264  1
  S  S5  1  0.63658516  0.93369849  0.38157736  1
  S  S6  1  0.68472415  0.56630151  0.79711333  1
  S  S7  1  0.86341484  0.48183748  0.70288667  1
  S  S8  1  0.20288667  0.18472415  0.93369849  1
  S  S9  1  0.29711333  0.36341484  0.01816252  1
  S  S10  1  0.88157736  0.31527585  0.48183748  1
  S  S11  1  0.61842264  0.13658516  0.56630151  1
  S  S12  1  0.01818919  0.20303452  0.86035387  1
  S  S13  1  0.93661161  0.29696548  0.68484533  1
  S  S14  1  0.56338839  0.87854306  0.63964613  1
  S  S15  1  0.48181081  0.62145694  0.81515467  1
  S  S16  1  0.18484533  0.98181081  0.87854306  1
  S  S17  1  0.36035387  0.06338839  0.62145694  1
  S  S18  1  0.31515467  0.43661161  0.20303452  1
  S  S19  1  0.13964613  0.51818919  0.29696548  1
  S  S20  1  0.79696548  0.81515467  0.06338839  1
  S  S21  1  0.70303452  0.63964613  0.98181081  1
  S  S22  1  0.12145694  0.68484533  0.51818919  1
  S  S23  1  0.37854306  0.86035387  0.43661161  1
  S  S24  1  -0.00000000  0.00000000  0.80301049  1
  S  S25  1  0.19698951  0.50000000  0.50000000  1
  S  S26  1  0.30301049  0.80301049  0.69698951  1
  S  S27  1  0.50000000  0.69698951  -0.00000000  1
  N  N0  1  0.29001696  0.98336379  0.09673873  1
  N  N1  1  0.91989748  0.51663621  0.19334683  1
  N  N2  1  0.58010252  0.38675570  0.40326127  1
  N  N3  1  0.20998304  0.11324430  0.30665317  1
  N  N4  1  0.69334683  0.70998304  0.38675570  1
  N  N5  1  0.59673873  0.08010252  0.11324430  1
  N  N6  1  0.80665317  0.41989748  0.98336379  1
  N  N7  1  0.90326127  0.79001696  0.51663621  1
  N  N8  1  0.01663621  0.30665317  0.08010252  1
  N  N9  1  0.48336379  0.40326127  0.70998304  1
  N  N10  1  0.61324430  0.19334683  0.79001696  1
  N  N11  1  0.88675570  0.09673873  0.41989748  1
  N  N12  1  0.70977090  0.01701123  0.90333197  1
  N  N13  1  0.07965680  0.48298877  0.80724033  1
  N  N14  1  0.42034320  0.61310287  0.59666803  1
  N  N15  1  0.79022910  0.88689713  0.69275967  1
  N  N16  1  0.30724033  0.29022910  0.61310287  1
  N  N17  1  0.40333197  0.92034320  0.88689713  1
  N  N18  1  0.19275967  0.57965680  0.01701123  1
  N  N19  1  0.09666803  0.20977090  0.48298877  1
  N  N20  1  0.98298877  0.69275967  0.92034320  1
  N  N21  1  0.51701123  0.59666803  0.29022910  1
  N  N22  1  0.38689713  0.80724033  0.20977090  1
  N  N23  1  0.11310287  0.90333197  0.57965680  1
loop_
_geom_bond_atom_site_label_1
_geom_bond_atom_site_label_2
_geom_bond_distance
_geom_bond_site_symmetry_2
K0 N23 2.908492 1_545
K0 N15 2.908492 1_445
K0 N19 2.908492 1_555
K0 N11 2.922199 1_455
K0 N7 2.922199 1_445
K0 N3 2.922199 1_555
K1 N21 2.908492 1_555
K1 N16 2.908492 1_555
K1 N14 2.908492 1_555
K1 N2 2.922199 1_555
K1 N9 2.922199 1_555
K1 N4 2.922199 1_555
K2 N18 2.908492 1_556
K2 N13 2.908492 1_555
K2 N20 2.908492 1_455
K2 N8 2.922199 1_556
K2 N6 2.922199 1_455
K2 N1 2.922199 1_456
K3 N12 2.908492 1_564
K3 N17 2.908492 1_554
K3 N22 2.908492 1_555
K3 N5 2.922199 1_565
K3 N0 2.922199 1_555
K3 N10 2.922199 1_564
K4 N3 2.853948 1_565
K4 N0 2.853948 1_555
K4 S22 3.438025 1_555
K4 S23 3.438025 1_555
K4 S1 3.717487 1_555
K4 S2 3.717487 1_565
K5 N2 2.853948 1_555
K5 N1 2.853948 1_555
K5 S20 3.438025 1_555
K5 S21 3.438025 1_554
K5 S3 3.717487 1_555
K5 S0 3.717487 1_555
K6 N4 2.853948 1_555
K6 N7 2.853948 1_555
K6 S15 3.438025 1_555
K6 S14 3.438025 1_555
K6 S6 3.717487 1_555
K6 S5 3.717487 1_555
K7 N5 2.853948 1_556
K7 N6 2.853948 1_555
K7 S12 3.438025 1_655
K7 S13 3.438025 1_555
K7 S7 3.717487 1_555
K7 S4 3.717487 1_556
K8 N11 2.853948 1_455
K8 N8 2.853948 1_555
K8 S19 3.438025 1_555
K8 S18 3.438025 1_555
K8 S9 3.717487 1_555
K8 S10 3.717487 1_455
K9 N10 2.853948 1_555
K9 N9 2.853948 1_555
K9 S16 3.438025 1_545
K9 S17 3.438025 1_555
K9 S8 3.717487 1_555
K9 S11 3.717487 1_555
K10 N15 2.850513 1_545
K10 N12 2.850513 1_555
K10 S11 3.440431 1_555
K10 S10 3.440431 1_555
K10 S14 3.736577 1_545
K10 S13 3.736577 1_555
K11 N13 2.850513 1_555
K11 N14 2.850513 1_555
K11 S9 3.440431 1_556
K11 S8 3.440431 1_555
K11 S15 3.736577 1_555
K11 S12 3.736577 1_555
K12 N16 2.850513 1_555
K12 N19 2.850513 1_555
K12 S3 3.440431 1_555
K12 S2 3.440431 1_555
K12 S17 3.736577 1_555
K12 S18 3.736577 1_555
K13 N17 2.850513 1_554
K13 N18 2.850513 1_555
K13 S0 3.440431 1_455
K13 S1 3.440431 1_555
K13 S19 3.736577 1_555
K13 S16 3.736577 1_554
K14 N23 2.850513 1_655
K14 N20 2.850513 1_555
K14 S7 3.440431 1_555
K14 S6 3.440431 1_555
K14 S21 3.736577 1_555
K14 S22 3.736577 1_655
K15 N22 2.850513 1_555
K15 N21 2.850513 1_555
K15 S4 3.440431 1_565
K15 S5 3.440431 1_555
K15 S23 3.736577 1_555
K15 S20 3.736577 1_555
Re0 S16 2.414651 1_554
Re0 S8 2.417548 1_564
Re0 S0 2.426593 1_455
Re0 Te0 2.733455 1_565
Re1 S19 2.414652 1_655
Re1 S10 2.417548 1_555
Re1 S1 2.426593 1_655
Re1 Te1 2.733454 1_555
Re2 S17 2.414651 1_555
Re2 S11 2.417548 1_555
Re2 S2 2.426593 1_555
Re2 Te2 2.733455 1_555
Re3 S18 2.414652 1_555
Re3 S9 2.417548 1_555
Re3 S3 2.426593 1_555
Re3 Te3 2.733454 1_555
Re4 S20 2.414652 1_555
Re4 S0 2.417548 1_555
Re4 S4 2.426593 1_565
Re4 Te0 2.733454 1_665
Re5 S23 2.414651 1_545
Re5 S2 2.417548 1_555
Re5 S5 2.426593 1_545
Re5 Te2 2.733455 1_555
Re6 S21 2.414652 1_555
Re6 S3 2.417548 1_556
Re6 S6 2.426593 1_555
Re6 Te3 2.733454 1_556
Re7 S22 2.414651 1_655
Re7 S1 2.417548 1_655
Re7 S7 2.426593 1_555
Re7 Te1 2.733455 1_555
Re8 S12 2.414652 1_554
Re8 S4 2.417548 1_455
Re8 S8 2.426593 1_554
Re8 Te0 2.733454 1_555
Re9 S15 2.414651 1_555
Re9 S6 2.417548 1_555
Re9 S9 2.426593 1_556
Re9 Te3 2.733455 1_556
Re10 S13 2.414652 1_555
Re10 S7 2.417548 1_555
Re10 S10 2.426593 1_555
Re10 Te1 2.733454 1_555
Re11 S14 2.414651 1_545
Re11 S5 2.417548 1_545
Re11 S11 2.426593 1_555
Re11 Te2 2.733455 1_555
Re12 S4 2.417155 1_556
Re12 S20 2.417642 1_546
Re12 S12 2.427047 1_655
Re12 S24 2.430864 1_655
Re13 S7 2.417155 1_455
Re13 S22 2.417642 1_555
Re13 S13 2.427047 1_455
Re13 S25 2.430864 1_555
Re14 S5 2.417155 1_555
Re14 S23 2.417642 1_555
Re14 S14 2.427047 1_555
Re14 S26 2.430864 1_555
Re15 S6 2.417155 1_555
Re15 S21 2.417642 1_555
Re15 S15 2.427047 1_555
Re15 S27 2.430864 1_556
Re16 S8 2.417155 1_555
Re16 S12 2.417642 1_555
Re16 S16 2.427047 1_545
Re16 S24 2.430864 1_555
Re17 S11 2.417155 1_565
Re17 S14 2.417642 1_555
Re17 S17 2.427047 1_565
Re17 S26 2.430864 1_555
Re18 S9 2.417155 1_555
Re18 S15 2.417642 1_554
Re18 S18 2.427047 1_555
Re18 S27 2.430864 1_555
Re19 S10 2.417155 1_455
Re19 S13 2.417642 1_455
Re19 S19 2.427047 1_555
Re19 S25 2.430864 1_555
Re20 S0 2.417155 1_556
Re20 S16 2.417642 1_655
Re20 S20 2.427047 1_556
Re20 S24 2.430864 1_665
Re21 S3 2.417155 1_555
Re21 S18 2.417642 1_555
Re21 S21 2.427047 1_554
Re21 S27 2.430864 1_555
Re22 S1 2.417155 1_555
Re22 S19 2.417642 1_555
Re22 S22 2.427047 1_555
Re22 S25 2.430864 1_555
Re23 S2 2.417155 1_565
Re23 S17 2.417642 1_565
Re23 S23 2.427047 1_555
Re23 S26 2.430864 1_555
C0 N0 1.180417 1_555
C0 Re0 2.102822 1_555
C1 N1 1.180417 1_555
C1 Re1 2.102822 1_555
C2 N2 1.180417 1_555
C2 Re2 2.102822 1_555
C3 N3 1.180417 1_555
C3 Re3 2.102822 1_555
C4 N4 1.180417 1_555
C4 Re4 2.102822 1_555
C5 N5 1.180417 1_555
C5 Re5 2.102822 1_555
C6 N6 1.180417 1_555
C6 Re6 2.102822 1_555
C7 N7 1.180417 1_555
C7 Re7 2.102822 1_555
C8 N8 1.180417 1_555
C8 Re8 2.102822 1_555
C9 N9 1.180417 1_555
C9 Re9 2.102822 1_555
C10 N10 1.180417 1_555
C10 Re10 2.102822 1_555
C11 N11 1.180417 1_555
C11 Re11 2.102822 1_555
C12 N12 1.179682 1_555
C12 Re12 2.102938 1_555
C13 N13 1.179682 1_555
C13 Re13 2.102938 1_555
C14 N14 1.179682 1_555
C14 Re14 2.102938 1_555
C15 N15 1.179682 1_555
C15 Re15 2.102938 1_555
C16 N16 1.179682 1_555
C16 Re16 2.102938 1_555
C17 N17 1.179682 1_555
C17 Re17 2.102938 1_555
C18 N18 1.179682 1_555
C18 Re18 2.102938 1_555
C19 N19 1.179682 1_555
C19 Re19 2.102938 1_555
C20 N20 1.179682 1_555
C20 Re20 2.102938 1_555
C21 N21 1.179682 1_555
C21 Re21 2.102938 1_555
C22 N22 1.179682 1_555
C22 Re22 2.102938 1_555
C23 N23 1.179682 1_555
C23 Re23 2.102938 1_555
