# generated using pymatgen
data_CsTlF4
_symmetry_space_group_name_H-M   'P 1'
_cell_length_a   6.56440757
_cell_length_b   8.45823582
_cell_length_c   8.54158606
_cell_angle_alpha   90.00000000
_cell_angle_beta   90.00000000
_cell_angle_gamma   90.00000000
_symmetry_Int_Tables_number   1
_chemical_formula_structural   CsTlF4
_chemical_formula_sum   'Cs4 Tl4 F16'
_cell_volume   474.25710717
_cell_formula_units_Z   4
loop_
 _symmetry_equiv_pos_site_id
 _symmetry_equiv_pos_as_xyz
  1  'x, y, z'
loop_
 _atom_site_type_symbol
 _atom_site_label
 _atom_site_symmetry_multiplicity
 _atom_site_fract_x
 _atom_site_fract_y
 _atom_site_fract_z
 _atom_site_occupancy
  Cs  Cs0  1  0.48341922  0.80223253  0.69676598  1
  Cs  Cs1  1  0.51658078  0.19776747  0.19676598  1
  Cs  Cs2  1  0.51658078  0.30223253  0.69676598  1
  Cs  Cs3  1  0.48341922  0.69776747  0.19676598  1
  Tl  Tl0  1  -0.00008049  0.00002710  0.94649947  1
  Tl  Tl1  1  0.00008049  -0.00002710  0.44649947  1
  Tl  Tl2  1  0.00008049  0.50002710  0.94649947  1
  Tl  Tl3  1  -0.00008049  0.49997290  0.44649947  1
  F  F0  1  0.70552339  0.93242342  0.00309969  1
  F  F1  1  0.29447661  0.06757658  0.50309969  1
  F  F2  1  0.29447661  0.43242342  0.00309969  1
  F  F3  1  0.70552339  0.56757658  0.50309969  1
  F  F4  1  0.90248452  0.97981759  0.69647814  1
  F  F5  1  0.09751548  0.02018241  0.19647814  1
  F  F6  1  0.09751548  0.47981759  0.69647814  1
  F  F7  1  0.90248452  0.52018241  0.19647814  1
  F  F8  1  0.88206383  0.25005019  0.94667267  1
  F  F9  1  0.11793617  0.74994981  0.44667267  1
  F  F10  1  0.11793617  0.75005019  0.94667267  1
  F  F11  1  0.88206383  0.24994981  0.44667267  1
  F  F12  1  0.70556899  0.56777321  0.89048305  1
  F  F13  1  0.29443101  0.43222679  0.39048305  1
  F  F14  1  0.29443101  0.06777321  0.89048305  1
  F  F15  1  0.70556899  0.93222679  0.39048305  1
loop_
_geom_bond_atom_site_label_1
_geom_bond_atom_site_label_2
_geom_bond_distance
_geom_bond_site_symmetry_2
Cs0 F12 2.966006 1_555
Cs0 F3 2.966729 1_555
Cs0 F1 3.051531 1_565
Cs0 F14 3.053111 1_565
Cs0 F4 3.134281 1_555
Cs0 F15 3.190569 1_555
Cs0 F0 3.191362 1_556
Cs0 F10 3.241510 1_555
Cs0 F9 3.242675 1_555
Cs1 F13 2.966006 1_555
Cs1 F2 2.966729 1_555
Cs1 F0 3.051531 1_545
Cs1 F15 3.053111 1_545
Cs1 F5 3.134281 1_555
Cs1 F14 3.190569 1_554
Cs1 F1 3.191362 1_555
Cs1 F11 3.241510 1_555
Cs1 F8 3.242675 1_554
Cs2 F14 2.966006 1_555
Cs2 F1 2.966729 1_555
Cs2 F3 3.051531 1_555
Cs2 F12 3.053111 1_555
Cs2 F6 3.134281 1_555
Cs2 F13 3.190569 1_555
Cs2 F2 3.191362 1_556
Cs2 F8 3.241510 1_555
Cs2 F11 3.242675 1_555
Cs3 F15 2.966006 1_555
Cs3 F0 2.966729 1_555
Cs3 F2 3.051531 1_555
Cs3 F13 3.053111 1_555
Cs3 F7 3.134281 1_555
Cs3 F12 3.190569 1_554
Cs3 F3 3.191362 1_555
Cs3 F9 3.241510 1_555
Cs3 F10 3.242675 1_554
F0 Tl0 2.072532 1_664
F1 Tl1 2.072532 1_555
F2 Tl2 2.072532 1_554
F3 Tl3 2.072532 1_655
F4 Tl1 2.235766 1_665
F4 Tl0 2.235846 1_665
F5 Tl0 2.235766 1_554
F5 Tl1 2.235846 1_555
F6 Tl3 2.235766 1_555
F6 Tl2 2.235846 1_555
F7 Tl2 2.235766 1_654
F7 Tl3 2.235846 1_655
F8 Tl2 2.251824 1_655
F8 Tl0 2.251827 1_655
F9 Tl3 2.251824 1_555
F9 Tl1 2.251827 1_565
F10 Tl0 2.251824 1_565
F10 Tl2 2.251827 1_555
F11 Tl1 2.251824 1_655
F11 Tl3 2.251827 1_655
F12 Tl2 2.072414 1_655
F13 Tl3 2.072414 1_555
F14 Tl0 2.072414 1_555
F15 Tl1 2.072414 1_665
