# generated using pymatgen
data_Ca8Fe5(WO8)3
_symmetry_space_group_name_H-M   'P 1'
_cell_length_a   7.85529100
_cell_length_b   7.86489955
_cell_length_c   9.50875315
_cell_angle_alpha   113.57062949
_cell_angle_beta   113.68113364
_cell_angle_gamma   91.55048057
_symmetry_Int_Tables_number   1
_chemical_formula_structural   Ca8Fe5(WO8)3
_chemical_formula_sum   'Ca8 Fe5 W3 O24'
_cell_volume   480.62541780
_cell_formula_units_Z   1
loop_
 _symmetry_equiv_pos_site_id
 _symmetry_equiv_pos_as_xyz
  1  'x, y, z'
loop_
 _atom_site_type_symbol
 _atom_site_label
 _atom_site_symmetry_multiplicity
 _atom_site_fract_x
 _atom_site_fract_y
 _atom_site_fract_z
 _atom_site_occupancy
  Ca  Ca0  1  0.83006200  0.37702300  0.73852900  1
  Ca  Ca1  1  0.35245900  0.89774600  0.73814500  1
  Ca  Ca2  1  0.63751100  0.60486200  0.25319200  1
  Ca  Ca3  1  0.15997200  0.08840900  0.26076900  1
  Ca  Ca4  1  0.64754100  0.10225400  0.26185500  1
  Ca  Ca5  1  0.16993800  0.62297700  0.26147100  1
  Ca  Ca6  1  0.84002800  0.91159100  0.73923100  1
  Ca  Ca7  1  0.36248900  0.39513800  0.74680800  1
  Fe  Fe0  1  0.25140000  0.75027000  0.99945700  1
  Fe  Fe1  1  0.74860000  0.24973000  0.00054300  1
  Fe  Fe2  1  0.00000000  0.00000000  0.50000000  1
  Fe  Fe3  1  0.50000000  0.50000000  0.50000000  1
  Fe  Fe4  1  0.50000000  0.00000000  0.50000000  1
  W  W0  1  0.00000000  0.50000000  0.50000000  1
  W  W1  1  0.75191900  0.75255800  0.99984900  1
  W  W2  1  0.24808100  0.24744200  0.00015100  1
  O  O0  1  0.73595900  0.43155200  0.45612200  1
  O  O1  1  0.22166500  0.93567200  0.45857200  1
  O  O2  1  0.68228000  0.48987300  0.95927100  1
  O  O3  1  0.17644400  0.98415400  0.95027900  1
  O  O4  1  0.77833500  0.06432800  0.54142800  1
  O  O5  1  0.26404100  0.56844800  0.54387800  1
  O  O6  1  0.82355600  0.01584600  0.04972100  1
  O  O7  1  0.31772000  0.51012700  0.04072900  1
  O  O8  1  0.68945300  0.66050100  0.75697600  1
  O  O9  1  0.18709100  0.15822500  0.75675600  1
  O  O10  1  0.40197100  0.92610600  0.24717100  1
  O  O11  1  0.90943400  0.44162600  0.25885900  1
  O  O12  1  0.81290900  0.84177500  0.24324400  1
  O  O13  1  0.31054700  0.33949900  0.24302400  1
  O  O14  1  0.09056600  0.55837400  0.74114100  1
  O  O15  1  0.59802900  0.07389400  0.75282900  1
  O  O16  1  0.97706700  0.76270300  0.54864700  1
  O  O17  1  0.48023500  0.27908200  0.54582800  1
  O  O18  1  0.01208100  0.72513000  0.04697300  1
  O  O19  1  0.51329500  0.22883800  0.05421000  1
  O  O20  1  0.51976500  0.72091800  0.45417200  1
  O  O21  1  0.02293300  0.23729700  0.45135300  1
  O  O22  1  0.48670500  0.77116200  0.94579000  1
  O  O23  1  0.98791900  0.27487000  0.95302700  1
loop_
_geom_bond_atom_site_label_1
_geom_bond_atom_site_label_2
_geom_bond_distance
_geom_bond_site_symmetry_2
Ca0 O4 2.318153 1_555
Ca0 O23 2.382422 1_555
Ca0 O14 2.448540 1_655
Ca0 O8 2.489509 1_555
Ca0 O17 2.492819 1_555
Ca0 O2 2.657870 1_555
Ca0 O0 2.699081 1_555
Ca0 O18 2.853013 1_656
Ca1 O15 2.268092 1_565
Ca1 O5 2.376576 1_555
Ca1 O9 2.440167 1_565
Ca1 O22 2.440899 1_555
Ca1 O1 2.582314 1_555
Ca1 O16 2.664970 1_455
Ca1 O3 2.763560 1_555
Ca1 O19 2.814654 1_566
Ca2 O20 2.326230 1_555
Ca2 O12 2.342198 1_555
Ca2 O7 2.359059 1_555
Ca2 O11 2.514964 1_555
Ca2 O0 2.672312 1_555
Ca2 O19 2.676541 1_555
Ca2 O2 2.745523 1_554
Ca2 O16 2.749627 1_555
Ca3 O10 2.335941 1_545
Ca3 O13 2.372287 1_555
Ca3 O21 2.398393 1_555
Ca3 O6 2.465541 1_455
Ca3 O1 2.514319 1_545
Ca3 O18 2.631286 1_545
Ca3 O17 2.644288 1_555
Ca3 O3 2.789645 1_544
Ca4 O10 2.268092 1_545
Ca4 O0 2.376576 1_555
Ca4 O12 2.440167 1_545
Ca4 O19 2.440899 1_555
Ca4 O4 2.582314 1_555
Ca4 O21 2.664970 1_655
Ca4 O6 2.763560 1_555
Ca4 O22 2.814654 1_544
Ca5 O1 2.318153 1_555
Ca5 O18 2.382422 1_555
Ca5 O11 2.448540 1_455
Ca5 O13 2.489509 1_555
Ca5 O20 2.492819 1_555
Ca5 O7 2.657870 1_555
Ca5 O5 2.699081 1_555
Ca5 O23 2.853013 1_454
Ca6 O15 2.335941 1_565
Ca6 O8 2.372287 1_555
Ca6 O16 2.398393 1_555
Ca6 O3 2.465541 1_655
Ca6 O4 2.514319 1_565
Ca6 O23 2.631286 1_565
Ca6 O20 2.644288 1_555
Ca6 O6 2.789645 1_566
Ca7 O17 2.326230 1_555
Ca7 O9 2.342198 1_555
Ca7 O2 2.359059 1_555
Ca7 O14 2.514964 1_555
Ca7 O5 2.672312 1_555
Ca7 O22 2.676541 1_555
Ca7 O7 2.745523 1_556
Ca7 O21 2.749627 1_555
Fe0 O10 1.981916 1_556
Fe0 O14 2.084812 1_555
Fe0 O3 2.115276 1_555
Fe0 O7 2.115280 1_556
Fe0 O18 2.123904 1_556
Fe0 O22 2.124213 1_555
Fe1 O15 1.981916 1_554
Fe1 O11 2.084812 1_555
Fe1 O6 2.115276 1_555
Fe1 O2 2.115280 1_554
Fe1 O23 2.123904 1_554
Fe1 O19 2.124213 1_555
Fe2 O1 1.970369 1_545
Fe2 O4 1.970369 1_455
Fe2 O9 2.063496 1_555
Fe2 O12 2.063496 1_445
Fe2 O21 2.113941 1_555
Fe2 O16 2.113941 1_445
Fe3 O17 1.969310 1_555
Fe3 O20 1.969310 1_555
Fe3 O8 2.071074 1_555
Fe3 O13 2.071074 1_555
Fe3 O0 2.096432 1_555
Fe3 O5 2.096432 1_555
Fe4 O10 2.020307 1_545
Fe4 O15 2.020307 1_555
Fe4 O4 2.068909 1_555
Fe4 O1 2.068909 1_545
Fe4 O20 2.083181 1_545
Fe4 O17 2.083181 1_555
O0 W0 1.957204 1_655
O2 W1 1.961683 1_555
O3 W2 1.940802 1_566
O5 W0 1.957204 1_555
O6 W1 1.940802 1_544
O7 W2 1.961683 1_555
O8 W1 1.957455 1_555
O9 W2 1.967382 1_556
O11 W0 1.950528 1_655
O12 W1 1.967382 1_554
O13 W2 1.957455 1_555
O14 W0 1.950528 1_555
O16 W0 1.959095 1_655
O18 W1 1.946631 1_454
O19 W2 1.960183 1_555
O21 W0 1.959095 1_555
O22 W1 1.960183 1_555
O23 W2 1.946631 1_656
