# generated using pymatgen
data_MnAg2SnSe4
_symmetry_space_group_name_H-M   'P 1'
_cell_length_a   7.06468000
_cell_length_b   7.48678300
_cell_length_c   8.39297000
_cell_angle_alpha   90.00000000
_cell_angle_beta   90.00000000
_cell_angle_gamma   90.00000000
_symmetry_Int_Tables_number   1
_chemical_formula_structural   MnAg2SnSe4
_chemical_formula_sum   'Mn2 Ag4 Sn2 Se8'
_cell_volume   443.91867061
_cell_formula_units_Z   2
loop_
 _symmetry_equiv_pos_site_id
 _symmetry_equiv_pos_as_xyz
  1  'x, y, z'
loop_
 _atom_site_type_symbol
 _atom_site_label
 _atom_site_symmetry_multiplicity
 _atom_site_fract_x
 _atom_site_fract_y
 _atom_site_fract_z
 _atom_site_occupancy
  Mn  Mn0  1  0.50401900  0.34388200  0.00000000  1
  Mn  Mn1  1  0.00401900  0.65611800  0.50000000  1
  Ag  Ag0  1  0.51611100  0.82630100  0.24904900  1
  Ag  Ag1  1  0.01611100  0.17369900  0.25095100  1
  Ag  Ag2  1  0.01611100  0.17369900  0.74904900  1
  Ag  Ag3  1  0.51611100  0.82630100  0.75095100  1
  Sn  Sn0  1  0.00123700  0.66162900  0.00000000  1
  Sn  Sn1  1  0.50123700  0.33837100  0.50000000  1
  Se  Se0  1  0.86209500  0.34203400  0.00000000  1
  Se  Se1  1  0.36209500  0.65796600  0.50000000  1
  Se  Se2  1  0.89181400  0.83256100  0.25506100  1
  Se  Se3  1  0.39181400  0.16743900  0.24493900  1
  Se  Se4  1  0.39181400  0.16743900  0.75506100  1
  Se  Se5  1  0.89181400  0.83256100  0.74493900  1
  Se  Se6  1  0.36929800  0.65456700  0.00000000  1
  Se  Se7  1  0.86929800  0.34543300  0.50000000  1
loop_
_geom_bond_atom_site_label_1
_geom_bond_atom_site_label_2
_geom_bond_distance
_geom_bond_site_symmetry_2
Mn0 Se6 2.513219 1_555
Mn0 Se0 2.529730 1_555
Mn0 Se3 2.568959 1_555
Mn0 Se4 2.568959 1_554
Mn1 Se7 2.513219 1_455
Mn1 Se1 2.529730 1_555
Mn1 Se2 2.568959 1_455
Mn1 Se5 2.568959 1_455
Ag0 Se2 2.655115 1_555
Ag0 Se6 2.664219 1_555
Ag0 Se1 2.684848 1_555
Ag0 Se3 2.700987 1_565
Ag1 Se3 2.655115 1_555
Ag1 Se7 2.664219 1_455
Ag1 Se0 2.684848 1_455
Ag1 Se2 2.700987 1_445
Ag2 Se4 2.655115 1_555
Ag2 Se7 2.664219 1_455
Ag2 Se0 2.684848 1_456
Ag2 Se5 2.700987 1_445
Ag3 Se5 2.655115 1_555
Ag3 Se6 2.664219 1_556
Ag3 Se1 2.684848 1_555
Ag3 Se4 2.700987 1_565
Se0 Sn0 2.586788 1_655
Se1 Sn1 2.586788 1_555
Se2 Sn0 2.611126 1_655
Se3 Sn1 2.611126 1_555
Se4 Sn1 2.611126 1_555
Se5 Sn0 2.611126 1_656
Se6 Sn0 2.600771 1_555
Se7 Sn1 2.600771 1_555
