# generated using pymatgen
data_Yb(AlC)3
_symmetry_space_group_name_H-M   'P 1'
_cell_length_a   3.42732653
_cell_length_b   3.42732653
_cell_length_c   17.48351100
_cell_angle_alpha   90.00000000
_cell_angle_beta   90.00000000
_cell_angle_gamma   120.00001031
_symmetry_Int_Tables_number   1
_chemical_formula_structural   Yb(AlC)3
_chemical_formula_sum   'Yb2 Al6 C6'
_cell_volume   177.85668942
_cell_formula_units_Z   2
loop_
 _symmetry_equiv_pos_site_id
 _symmetry_equiv_pos_as_xyz
  1  'x, y, z'
loop_
 _atom_site_type_symbol
 _atom_site_label
 _atom_site_symmetry_multiplicity
 _atom_site_fract_x
 _atom_site_fract_y
 _atom_site_fract_z
 _atom_site_occupancy
  Yb  Yb0  1  0.00000000  0.00000000  0.49904100  1
  Yb  Yb1  1  0.00000000  0.00000000  0.99904100  1
  Al  Al0  1  0.66666700  0.33333300  0.63198600  1
  Al  Al1  1  0.33333300  0.66666700  0.36497700  1
  Al  Al2  1  0.33333300  0.66666700  0.13198600  1
  Al  Al3  1  0.66666700  0.33333300  0.86497700  1
  Al  Al4  1  0.66666700  0.33333300  0.24493600  1
  Al  Al5  1  0.33333300  0.66666700  0.74493600  1
  C  C0  1  0.66666700  0.33333300  0.74898400  1
  C  C1  1  0.33333300  0.66666700  0.24898400  1
  C  C2  1  0.66666700  0.33333300  0.09959500  1
  C  C3  1  0.33333300  0.66666700  0.90148100  1
  C  C4  1  0.33333300  0.66666700  0.59959500  1
  C  C5  1  0.66666700  0.33333300  0.40148100  1
loop_
_geom_bond_atom_site_label_1
_geom_bond_atom_site_label_2
_geom_bond_distance
_geom_bond_site_symmetry_2
Al0 C0 2.045536 1_555
Al0 C4 2.058208 1_545
Al0 C4 2.058208 1_655
Al0 C4 2.058214 1_555
Al1 C1 2.027965 1_555
Al1 C5 2.079143 1_455
Al1 C5 2.079143 1_565
Al1 C5 2.079149 1_555
Al2 C1 2.045536 1_555
Al2 C2 2.058208 1_455
Al2 C2 2.058208 1_565
Al2 C2 2.058214 1_555
Al3 C0 2.027965 1_555
Al3 C3 2.079143 1_545
Al3 C3 2.079143 1_655
Al3 C3 2.079149 1_555
Al4 C1 1.980031 1_545
Al4 C1 1.980031 1_655
Al4 C1 1.980037 1_555
Al4 C2 2.541071 1_555
Al5 C0 1.980031 1_455
Al5 C0 1.980031 1_565
Al5 C0 1.980037 1_555
Al5 C4 2.541071 1_555
C2 Yb1 2.646924 1_654
C2 Yb1 2.646926 1_554
C2 Yb1 2.646926 1_664
C3 Yb1 2.612451 1_565
C3 Yb1 2.612453 1_555
C3 Yb1 2.612453 1_665
C4 Yb0 2.646924 1_565
C4 Yb0 2.646926 1_555
C4 Yb0 2.646926 1_665
C5 Yb0 2.612451 1_655
C5 Yb0 2.612453 1_555
C5 Yb0 2.612453 1_665
