# generated using pymatgen
data_CsBaVS4
_symmetry_space_group_name_H-M   'P 1'
_cell_length_a   6.95890300
_cell_length_b   10.15613000
_cell_length_c   12.15479600
_cell_angle_alpha   90.00000000
_cell_angle_beta   90.00000000
_cell_angle_gamma   90.00000000
_symmetry_Int_Tables_number   1
_chemical_formula_structural   CsBaVS4
_chemical_formula_sum   'Cs4 Ba4 V4 S16'
_cell_volume   859.04657064
_cell_formula_units_Z   4
loop_
 _symmetry_equiv_pos_site_id
 _symmetry_equiv_pos_as_xyz
  1  'x, y, z'
loop_
 _atom_site_type_symbol
 _atom_site_label
 _atom_site_symmetry_multiplicity
 _atom_site_fract_x
 _atom_site_fract_y
 _atom_site_fract_z
 _atom_site_occupancy
  Cs  Cs0  1  0.25000000  0.86687300  0.93354900  1
  Cs  Cs1  1  0.25000000  0.63312700  0.43354900  1
  Cs  Cs2  1  0.75000000  0.13312700  0.06645100  1
  Cs  Cs3  1  0.75000000  0.36687300  0.56645100  1
  Ba  Ba0  1  0.25000000  0.40520400  0.85049500  1
  Ba  Ba1  1  0.25000000  0.09479600  0.35049500  1
  Ba  Ba2  1  0.75000000  0.59479600  0.14950500  1
  Ba  Ba3  1  0.75000000  0.90520400  0.64950500  1
  V  V0  1  0.25000000  0.11908600  0.66942000  1
  V  V1  1  0.25000000  0.38091400  0.16942000  1
  V  V2  1  0.75000000  0.88091400  0.33058000  1
  V  V3  1  0.75000000  0.61908600  0.83058000  1
  S  S0  1  0.49878900  0.13195500  0.77429200  1
  S  S1  1  0.00121100  0.36804500  0.27429200  1
  S  S2  1  0.99878900  0.86804500  0.22570800  1
  S  S3  1  0.50121100  0.63195500  0.72570800  1
  S  S4  1  0.50121100  0.86804500  0.22570800  1
  S  S5  1  0.99878900  0.63195500  0.72570800  1
  S  S6  1  0.00121100  0.13195500  0.77429200  1
  S  S7  1  0.49878900  0.36804500  0.27429200  1
  S  S8  1  0.25000000  0.28761700  0.56075500  1
  S  S9  1  0.25000000  0.21238300  0.06075500  1
  S  S10  1  0.75000000  0.71238300  0.43924500  1
  S  S11  1  0.75000000  0.78761700  0.93924500  1
  S  S12  1  0.25000000  0.93725800  0.57757200  1
  S  S13  1  0.25000000  0.56274200  0.07757200  1
  S  S14  1  0.75000000  0.06274200  0.42242800  1
  S  S15  1  0.75000000  0.43725800  0.92242800  1
loop_
_geom_bond_atom_site_label_1
_geom_bond_atom_site_label_2
_geom_bond_distance
_geom_bond_site_symmetry_2
Cs0 S13 3.550372 1_556
Cs0 S11 3.572016 1_555
Cs0 S11 3.572016 1_455
Cs0 S6 3.740648 1_565
Cs0 S0 3.740648 1_565
Cs0 S9 3.834581 1_566
Cs0 S5 3.889778 1_455
Cs0 S3 3.889778 1_555
Cs0 S4 3.958122 1_556
Cs0 S2 3.958122 1_456
Cs1 S12 3.550372 1_555
Cs1 S10 3.572016 1_455
Cs1 S10 3.572016 1_555
Cs1 S7 3.740648 1_555
Cs1 S1 3.740648 1_555
Cs1 S8 3.834581 1_555
Cs1 S4 3.889778 1_555
Cs1 S2 3.889778 1_455
Cs1 S5 3.958122 1_455
Cs1 S3 3.958122 1_555
Cs2 S15 3.550372 1_554
Cs2 S9 3.572016 1_555
Cs2 S9 3.572016 1_655
Cs2 S2 3.740648 1_545
Cs2 S4 3.740648 1_545
Cs2 S11 3.834581 1_544
Cs2 S7 3.889778 1_555
Cs2 S1 3.889778 1_655
Cs2 S6 3.958122 1_654
Cs2 S0 3.958122 1_554
Cs3 S14 3.550372 1_555
Cs3 S8 3.572016 1_655
Cs3 S8 3.572016 1_555
Cs3 S3 3.740648 1_555
Cs3 S5 3.740648 1_555
Cs3 S10 3.834581 1_555
Cs3 S0 3.889778 1_555
Cs3 S6 3.889778 1_655
Cs3 S7 3.958122 1_555
Cs3 S1 3.958122 1_655
Ba0 S13 3.190288 1_556
Ba0 S9 3.219695 1_556
Ba0 S5 3.264967 1_455
Ba0 S3 3.264967 1_555
Ba0 S6 3.399525 1_555
Ba0 S0 3.399525 1_555
Ba0 S15 3.602363 1_455
Ba0 S15 3.602363 1_555
Ba0 S8 3.718705 1_555
Ba1 S12 3.190288 1_545
Ba1 S8 3.219695 1_555
Ba1 S2 3.264967 1_445
Ba1 S4 3.264967 1_545
Ba1 S7 3.399525 1_555
Ba1 S1 3.399525 1_555
Ba1 S14 3.602363 1_455
Ba1 S14 3.602363 1_555
Ba1 S9 3.718705 1_555
Ba2 S15 3.190288 1_554
Ba2 S11 3.219695 1_554
Ba2 S7 3.264967 1_555
Ba2 S1 3.264967 1_655
Ba2 S2 3.399525 1_555
Ba2 S4 3.399525 1_555
Ba2 S13 3.602363 1_555
Ba2 S13 3.602363 1_655
Ba2 S10 3.718705 1_555
Ba3 S14 3.190288 1_565
Ba3 S10 3.219695 1_555
Ba3 S0 3.264967 1_565
Ba3 S6 3.264967 1_665
Ba3 S5 3.399525 1_555
Ba3 S3 3.399525 1_555
Ba3 S12 3.602363 1_655
Ba3 S12 3.602363 1_555
Ba3 S11 3.718705 1_555
S0 V0 2.153911 1_555
S1 V1 2.153911 1_555
S2 V2 2.153911 1_555
S3 V3 2.153911 1_555
S4 V2 2.153911 1_555
S5 V3 2.153911 1_555
S6 V0 2.153911 1_555
S7 V1 2.153911 1_555
S8 V0 2.161982 1_555
S9 V1 2.161982 1_555
S10 V2 2.161982 1_555
S11 V3 2.161982 1_555
S12 V0 2.157897 1_565
S13 V1 2.157897 1_555
S14 V2 2.157897 1_545
S15 V3 2.157897 1_555
