# generated using pymatgen
data_NaLi2AsF6
_symmetry_space_group_name_H-M   'P 1'
_cell_length_a   5.97513574
_cell_length_b   5.97513574
_cell_length_c   5.97513574
_cell_angle_alpha   60.00000000
_cell_angle_beta   60.00000000
_cell_angle_gamma   60.00000000
_symmetry_Int_Tables_number   1
_chemical_formula_structural   NaLi2AsF6
_chemical_formula_sum   'Na1 Li2 As1 F6'
_cell_volume   150.84410046
_cell_formula_units_Z   1
loop_
 _symmetry_equiv_pos_site_id
 _symmetry_equiv_pos_as_xyz
  1  'x, y, z'
loop_
 _atom_site_type_symbol
 _atom_site_label
 _atom_site_symmetry_multiplicity
 _atom_site_fract_x
 _atom_site_fract_y
 _atom_site_fract_z
 _atom_site_occupancy
  Na  Na0  1  0.50000000  0.50000000  0.50000000  1
  Li  Li0  1  0.25000000  0.25000000  0.25000000  1
  Li  Li1  1  0.75000000  0.75000000  0.75000000  1
  As  As0  1  0.00000000  0.00000000  0.00000000  1
  F  F0  1  0.24171600  0.24171600  0.75828400  1
  F  F1  1  0.24171600  0.75828400  0.75828400  1
  F  F2  1  0.75828400  0.75828400  0.24171600  1
  F  F3  1  0.24171600  0.75828400  0.24171600  1
  F  F4  1  0.75828400  0.24171600  0.75828400  1
  F  F5  1  0.75828400  0.24171600  0.24171600  1
loop_
_geom_bond_atom_site_label_1
_geom_bond_atom_site_label_2
_geom_bond_distance
_geom_bond_site_symmetry_2
As0 F5 2.042529 1_455
As0 F0 2.042529 1_554
As0 F3 2.042529 1_545
As0 F4 2.042529 1_454
As0 F1 2.042529 1_544
As0 F2 2.042529 1_445
F0 Na0 2.182530 1_555
F1 Na0 2.182530 1_555
F2 Na0 2.182530 1_555
F3 Na0 2.182530 1_555
F4 Na0 2.182530 1_555
F5 Na0 2.182530 1_555
