# generated using pymatgen
data_Li3PF6
_symmetry_space_group_name_H-M   'P 1'
_cell_length_a   5.36549011
_cell_length_b   6.96096435
_cell_length_c   6.11873414
_cell_angle_alpha   81.35345607
_cell_angle_beta   102.59675154
_cell_angle_gamma   132.25600244
_symmetry_Int_Tables_number   1
_chemical_formula_structural   Li3PF6
_chemical_formula_sum   'Li3 P1 F6'
_cell_volume   165.07123509
_cell_formula_units_Z   1
loop_
 _symmetry_equiv_pos_site_id
 _symmetry_equiv_pos_as_xyz
  1  'x, y, z'
loop_
 _atom_site_type_symbol
 _atom_site_label
 _atom_site_symmetry_multiplicity
 _atom_site_fract_x
 _atom_site_fract_y
 _atom_site_fract_z
 _atom_site_occupancy
  Li  Li0  1  0.00000000  0.00000000  0.50000000  1
  Li  Li1  1  0.50000000  0.50000000  0.00000000  1
  Li  Li2  1  0.00000000  0.50000000  0.00000000  1
  P  P0  1  0.00000000  0.00000000  0.00000000  1
  F  F0  1  0.03269900  0.28812900  0.84209700  1
  F  F1  1  0.96730100  0.71187100  0.15790300  1
  F  F2  1  0.81273700  0.78364100  0.73332900  1
  F  F3  1  0.18726300  0.21635900  0.26667100  1
  F  F4  1  0.52508000  0.77614100  0.05670800  1
  F  F5  1  0.47492000  0.22385900  0.94329200  1
loop_
_geom_bond_atom_site_label_1
_geom_bond_atom_site_label_2
_geom_bond_distance
_geom_bond_site_symmetry_2
F0 Li1 1.947765 1_556
F0 Li2 1.997435 1_556
F0 P0 2.001238 1_556
F1 Li1 1.947765 1_555
F1 Li2 1.997435 1_655
F1 P0 2.001238 1_665
F2 Li0 1.805570 1_665
F2 P0 1.982135 1_666
F2 Li1 2.268534 1_556
F3 Li0 1.805570 1_555
F3 P0 1.982135 1_555
F3 Li1 2.268534 1_555
F4 Li1 1.914599 1_555
F4 P0 1.981080 1_665
F4 Li2 2.059974 1_555
F5 Li1 1.914599 1_556
F5 P0 1.981080 1_556
F5 Li2 2.059974 1_656
