# generated using pymatgen
data_IrPd3
_symmetry_space_group_name_H-M   'P 1'
_cell_length_a   4.78663244
_cell_length_b   4.78663244
_cell_length_c   4.78663244
_cell_angle_alpha   131.40801080
_cell_angle_beta   131.40801080
_cell_angle_gamma   71.16563197
_symmetry_Int_Tables_number   1
_chemical_formula_structural   IrPd3
_chemical_formula_sum   'Ir1 Pd3'
_cell_volume   60.39810509
_cell_formula_units_Z   1
loop_
 _symmetry_equiv_pos_site_id
 _symmetry_equiv_pos_as_xyz
  1  'x, y, z'
loop_
 _atom_site_type_symbol
 _atom_site_label
 _atom_site_symmetry_multiplicity
 _atom_site_fract_x
 _atom_site_fract_y
 _atom_site_fract_z
 _atom_site_occupancy
  Ir  Ir0  1  0.00000000  0.00000000  0.00000000  1
  Pd  Pd0  1  0.75000000  0.25000000  0.50000000  1
  Pd  Pd1  1  0.25000000  0.75000000  0.50000000  1
  Pd  Pd2  1  0.50000000  0.50000000  0.00000000  1
loop_
_geom_bond_atom_site_label_1
_geom_bond_atom_site_label_2
_geom_bond_distance
_geom_bond_site_symmetry_2
Ir0 Pd1 2.768999 1_444
Ir0 Pd0 2.768999 1_555
Ir0 Pd0 2.768999 1_444
Ir0 Pd1 2.768999 1_555
Ir0 Pd1 2.768999 1_544
Ir0 Pd1 2.768999 1_545
Ir0 Pd0 2.768999 1_455
Ir0 Pd0 2.768999 1_454
Ir0 Pd2 2.785241 1_545
Ir0 Pd2 2.785241 1_455
Ir0 Pd2 2.785241 1_444
Ir0 Pd2 2.785241 1_556
Pd0 Pd2 2.768999 1_656
Pd0 Pd2 2.768999 1_555
Pd0 Pd2 2.768999 1_545
Pd0 Pd2 2.768999 1_556
Pd0 Pd1 2.785241 1_555
Pd0 Pd1 2.785241 1_656
Pd0 Pd1 2.785241 1_544
Pd0 Pd1 2.785241 1_645
Pd1 Pd2 2.768999 1_455
Pd1 Pd2 2.768999 1_555
Pd1 Pd2 2.768999 1_556
Pd1 Pd2 2.768999 1_566
