# generated using pymatgen
data_U7(Se6O)2
_symmetry_space_group_name_H-M   'P 1'
_cell_length_a   11.35572223
_cell_length_b   11.35572223
_cell_length_c   4.11768600
_cell_angle_alpha   90.00000000
_cell_angle_beta   90.00000000
_cell_angle_gamma   120.00000136
_symmetry_Int_Tables_number   1
_chemical_formula_structural   U7(Se6O)2
_chemical_formula_sum   'U7 Se12 O2'
_cell_volume   459.84701681
_cell_formula_units_Z   1
loop_
 _symmetry_equiv_pos_site_id
 _symmetry_equiv_pos_as_xyz
  1  'x, y, z'
loop_
 _atom_site_type_symbol
 _atom_site_label
 _atom_site_symmetry_multiplicity
 _atom_site_fract_x
 _atom_site_fract_y
 _atom_site_fract_z
 _atom_site_occupancy
  U  U0  1  0.83765500  0.05052500  0.50000000  1
  U  U1  1  0.21287000  0.16234500  0.50000000  1
  U  U2  1  0.94947500  0.78713000  0.50000000  1
  U  U3  1  0.11543000  0.50789000  0.00000000  1
  U  U4  1  0.39246000  0.88457000  0.00000000  1
  U  U5  1  0.49211000  0.60754000  0.00000000  1
  U  U6  1  0.66666700  0.33333300  0.00000000  1
  Se  Se0  1  0.68282200  0.08829700  0.00000000  1
  Se  Se1  1  0.40547500  0.31717800  0.00000000  1
  Se  Se2  1  0.91170300  0.59452500  0.00000000  1
  Se  Se3  1  0.88428400  0.34632600  0.50000000  1
  Se  Se4  1  0.46204100  0.11571600  0.50000000  1
  Se  Se5  1  0.65367400  0.53795900  0.50000000  1
  Se  Se6  1  0.17895400  0.72765600  0.50000000  1
  Se  Se7  1  0.54870200  0.82104600  0.50000000  1
  Se  Se8  1  0.27234400  0.45129800  0.50000000  1
  Se  Se9  1  0.04485000  0.21523400  0.00000000  1
  Se  Se10  1  0.17038400  0.95515000  0.00000000  1
  Se  Se11  1  0.78476600  0.82961600  0.00000000  1
  O  O0  1  0.00000000  0.00000000  0.50000000  1
  O  O1  1  0.33333300  0.66666700  0.00000000  1
loop_
_geom_bond_atom_site_label_1
_geom_bond_atom_site_label_2
_geom_bond_distance
_geom_bond_site_symmetry_2
Se0 U0 2.875480 1_554
Se0 U0 2.875480 1_555
Se0 U6 2.878674 1_555
Se0 U4 2.931893 1_545
Se1 U1 2.875480 1_555
Se1 U1 2.875480 1_554
Se1 U6 2.878685 1_555
Se1 U5 2.931893 1_555
Se2 U2 2.875480 1_554
Se2 U2 2.875480 1_555
Se2 U6 2.878680 1_555
Se2 U3 2.931893 1_655
Se3 U3 3.111091 1_655
Se3 U3 3.111091 1_656
Se3 U0 3.128076 1_555
Se3 U6 3.162722 1_556
Se3 U6 3.162722 1_555
Se4 U4 3.111093 1_546
Se4 U4 3.111093 1_545
Se4 U1 3.128064 1_555
Se4 U6 3.162730 1_556
Se4 U6 3.162730 1_555
Se5 U5 3.111085 1_556
Se5 U5 3.111085 1_555
Se5 U2 3.128071 1_555
Se5 U6 3.162739 1_556
Se5 U6 3.162739 1_555
Se6 U4 2.995330 1_555
Se6 U4 2.995330 1_556
Se6 U2 3.001131 1_455
Se6 U3 3.031005 1_555
Se6 U3 3.031005 1_556
Se7 U5 2.995330 1_556
Se7 U5 2.995330 1_555
Se7 U0 3.001131 1_565
Se7 U4 3.031005 1_556
Se7 U4 3.031005 1_555
Se8 U3 2.995330 1_556
Se8 U3 2.995330 1_555
Se8 U1 3.001131 1_555
Se8 U5 3.031005 1_556
Se8 U5 3.031005 1_555
Se9 U0 2.978648 1_455
Se9 U0 2.978648 1_454
Se9 U3 3.003871 1_555
Se9 U1 3.063640 1_554
Se9 U1 3.063640 1_555
Se10 U1 2.978648 1_565
Se10 U1 2.978648 1_564
Se10 U4 3.003871 1_555
Se10 U2 3.063640 1_455
Se10 U2 3.063640 1_454
Se11 U2 2.978648 1_554
Se11 U2 2.978648 1_555
Se11 U5 3.003871 1_555
Se11 U0 3.063640 1_565
Se11 U0 3.063640 1_564
O0 U1 2.187595 1_555
O0 U2 2.187595 1_445
O0 U0 2.187595 1_455
O1 U4 2.216367 1_555
O1 U3 2.216370 1_555
O1 U5 2.216378 1_555
