# generated using pymatgen
data_Ho2CoGe4
_symmetry_space_group_name_H-M   'P 1'
_cell_length_a   4.03589376
_cell_length_b   4.09811415
_cell_length_c   8.21779929
_cell_angle_alpha   75.50691467
_cell_angle_beta   90.00000000
_cell_angle_gamma   90.00000000
_symmetry_Int_Tables_number   1
_chemical_formula_structural   Ho2CoGe4
_chemical_formula_sum   'Ho2 Co1 Ge4'
_cell_volume   131.59350356
_cell_formula_units_Z   1
loop_
 _symmetry_equiv_pos_site_id
 _symmetry_equiv_pos_as_xyz
  1  'x, y, z'
loop_
 _atom_site_type_symbol
 _atom_site_label
 _atom_site_symmetry_multiplicity
 _atom_site_fract_x
 _atom_site_fract_y
 _atom_site_fract_z
 _atom_site_occupancy
  Ho  Ho0  1  0.25000000  0.89405423  0.21215381  1
  Ho  Ho1  1  0.75000000  0.10564472  0.78811813  1
  Co  Co0  1  0.25000000  0.69017179  0.62021298  1
  Ge  Ge0  1  0.25000000  0.25872598  0.48318158  1
  Ge  Ge1  1  0.75000000  0.75672744  0.48534767  1
  Ge  Ge2  1  0.25000000  0.54686705  0.90547827  1
  Ge  Ge3  1  0.75000000  0.44680880  0.10750857  1
loop_
_geom_bond_atom_site_label_1
_geom_bond_atom_site_label_2
_geom_bond_distance
_geom_bond_site_symmetry_2
Co0 Ge2 2.269654 1_555
Co0 Ge1 2.285502 1_555
Co0 Ge1 2.285502 1_455
Co0 Ge0 2.320282 1_565
Co0 Ge0 2.321832 1_555
Co0 Ho1 3.170320 1_465
Co0 Ho1 3.170320 1_565
Co0 Ho1 3.171724 1_555
Co0 Ho1 3.171724 1_455
Ge0 Ge1 2.873282 1_455
Ge0 Ge1 2.873282 1_555
Ge0 Ge1 2.878604 1_445
Ge0 Ge1 2.878604 1_545
Ge0 Ho0 2.972724 1_555
Ge0 Ho0 2.976594 1_545
Ge0 Ho1 3.155690 1_555
Ge0 Ho1 3.155690 1_455
Ge1 Ho0 2.965922 1_655
Ge1 Ho0 2.965922 1_555
Ge1 Ho1 3.160243 1_555
Ge1 Ho1 3.164814 1_565
Ge2 Ge3 2.579905 1_556
Ge2 Ge3 2.579905 1_456
Ge2 Ho1 3.023349 1_565
Ge2 Ho1 3.023349 1_465
Ge2 Ho1 3.024009 1_555
Ge2 Ho1 3.024009 1_455
Ge2 Ho0 3.183385 1_546
Ge2 Ho0 3.189133 1_556
Ge3 Ho0 2.993315 1_655
Ge3 Ho0 2.993315 1_555
Ge3 Ho0 2.994656 1_545
Ge3 Ho0 2.994656 1_645
Ge3 Ho1 3.260653 1_564
Ge3 Ho1 3.268104 1_554
