# generated using pymatgen
data_Li
_symmetry_space_group_name_H-M   'P 1'
_cell_length_a   6.15734857
_cell_length_b   6.15734488
_cell_length_c   15.33081559
_cell_angle_alpha   78.41531399
_cell_angle_beta   78.41531202
_cell_angle_gamma   59.99999673
_symmetry_Int_Tables_number   1
_chemical_formula_structural   Li
_chemical_formula_sum   Li24
_cell_volume   489.64528078
_cell_formula_units_Z   24
loop_
 _symmetry_equiv_pos_site_id
 _symmetry_equiv_pos_as_xyz
  1  'x, y, z'
loop_
 _atom_site_type_symbol
 _atom_site_label
 _atom_site_symmetry_multiplicity
 _atom_site_fract_x
 _atom_site_fract_y
 _atom_site_fract_z
 _atom_site_occupancy
  Li  Li0_0  1  0.38851396  0.38851396  0.33445762  1
  Li  Li0_1  1  0.38851396  0.38851396  0.83445762  1
  Li  Li0_2  1  0.38851396  0.88851396  0.33445762  1
  Li  Li0_3  1  0.38851396  0.88851396  0.83445762  1
  Li  Li0_4  1  0.88851396  0.38851396  0.33445762  1
  Li  Li0_5  1  0.88851396  0.38851396  0.83445762  1
  Li  Li0_6  1  0.88851396  0.88851396  0.33445762  1
  Li  Li0_7  1  0.88851396  0.88851396  0.83445762  1
  Li  Li1_0  1  0.11148604  0.11148604  0.16554237  1
  Li  Li1_1  1  0.11148604  0.11148604  0.66554237  1
  Li  Li1_2  1  0.11148604  0.61148604  0.16554237  1
  Li  Li1_3  1  0.11148604  0.61148604  0.66554237  1
  Li  Li1_4  1  0.61148604  0.11148604  0.16554237  1
  Li  Li1_5  1  0.61148604  0.11148604  0.66554237  1
  Li  Li1_6  1  0.61148604  0.61148604  0.16554237  1
  Li  Li1_7  1  0.61148604  0.61148604  0.66554237  1
  Li  Li2_0  1  0.00000000  0.00000000  0.00000000  1
  Li  Li2_1  1  0.00000000  0.00000000  0.50000000  1
  Li  Li2_2  1  0.00000000  0.50000000  0.00000000  1
  Li  Li2_3  1  0.00000000  0.50000000  0.50000000  1
  Li  Li2_4  1  0.50000000  0.00000000  0.00000000  1
  Li  Li2_5  1  0.50000000  0.00000000  0.50000000  1
  Li  Li2_6  1  0.50000000  0.50000000  0.00000000  1
  Li  Li2_7  1  0.50000000  0.50000000  0.50000000  1
loop_
_geom_bond_atom_site_label_1
_geom_bond_atom_site_label_2
_geom_bond_distance
_geom_bond_site_symmetry_2
Li0_0 Li2_5 3.042041 1_555
Li0_0 Li2_3 3.042042 1_555
Li0_0 Li2_7 3.042043 1_555
Li0_0 Li0_2 3.078672 1_555
Li0_0 Li0_2 3.078672 1_545
Li0_0 Li0_6 3.078673 1_545
Li0_0 Li0_6 3.078673 1_455
Li0_0 Li0_4 3.078674 1_455
Li0_0 Li0_4 3.078674 1_555
Li0_0 Li1_4 3.083001 1_555
Li0_0 Li1_2 3.083001 1_555
Li0_0 Li1_6 3.083004 1_555
Li0_1 Li2_4 3.042041 1_556
Li0_1 Li2_2 3.042042 1_556
Li0_1 Li2_6 3.042043 1_556
Li0_1 Li0_3 3.078672 1_555
Li0_1 Li0_3 3.078672 1_545
Li0_1 Li0_7 3.078673 1_455
Li0_1 Li0_7 3.078673 1_545
Li0_1 Li0_5 3.078674 1_455
Li0_1 Li0_5 3.078674 1_555
Li0_1 Li1_5 3.083001 1_555
Li0_1 Li1_3 3.083001 1_555
Li0_1 Li1_7 3.083004 1_555
Li0_2 Li2_7 3.042041 1_555
Li0_2 Li2_1 3.042042 1_565
Li0_2 Li2_5 3.042043 1_565
Li0_2 Li0_4 3.078673 1_555
Li0_2 Li0_4 3.078673 1_465
Li0_2 Li0_6 3.078674 1_455
Li0_2 Li0_6 3.078674 1_555
Li0_2 Li1_6 3.083001 1_555
Li0_2 Li1_0 3.083001 1_565
Li0_2 Li1_4 3.083004 1_565
Li0_3 Li2_6 3.042041 1_556
Li0_3 Li2_0 3.042042 1_566
Li0_3 Li2_4 3.042043 1_566
Li0_3 Li0_5 3.078673 1_465
Li0_3 Li0_5 3.078673 1_555
Li0_3 Li0_7 3.078674 1_455
Li0_3 Li0_7 3.078674 1_555
Li0_3 Li1_7 3.083001 1_555
Li0_3 Li1_1 3.083001 1_565
Li0_3 Li1_5 3.083004 1_565
Li0_4 Li2_1 3.042041 1_655
Li0_4 Li2_7 3.042042 1_555
Li0_4 Li2_3 3.042043 1_655
Li0_4 Li0_6 3.078672 1_545
Li0_4 Li0_6 3.078672 1_555
Li0_4 Li1_0 3.083001 1_655
Li0_4 Li1_6 3.083001 1_555
Li0_4 Li1_2 3.083004 1_655
Li0_5 Li2_0 3.042041 1_656
Li0_5 Li2_6 3.042042 1_556
Li0_5 Li2_2 3.042043 1_656
Li0_5 Li0_7 3.078672 1_555
Li0_5 Li0_7 3.078672 1_545
Li0_5 Li1_1 3.083001 1_655
Li0_5 Li1_7 3.083001 1_555
Li0_5 Li1_3 3.083004 1_655
Li0_6 Li2_3 3.042041 1_655
Li0_6 Li2_5 3.042042 1_565
Li0_6 Li2_1 3.042043 1_665
Li0_6 Li1_2 3.083001 1_655
Li0_6 Li1_4 3.083001 1_565
Li0_6 Li1_0 3.083004 1_665
Li0_7 Li2_2 3.042041 1_656
Li0_7 Li2_4 3.042042 1_566
Li0_7 Li2_0 3.042043 1_666
Li0_7 Li1_3 3.083001 1_655
Li0_7 Li1_5 3.083001 1_565
Li0_7 Li1_1 3.083004 1_665
Li1_0 Li2_2 3.042041 1_555
Li1_0 Li2_4 3.042042 1_555
Li1_0 Li2_0 3.042043 1_555
Li1_0 Li1_2 3.078672 1_545
Li1_0 Li1_2 3.078672 1_555
Li1_0 Li1_6 3.078673 1_545
Li1_0 Li1_6 3.078673 1_455
Li1_0 Li1_4 3.078674 1_455
Li1_0 Li1_4 3.078674 1_555
Li1_1 Li2_3 3.042041 1_555
Li1_1 Li2_5 3.042042 1_555
Li1_1 Li2_1 3.042043 1_555
Li1_1 Li1_3 3.078672 1_545
Li1_1 Li1_3 3.078672 1_555
Li1_1 Li1_7 3.078673 1_545
Li1_1 Li1_7 3.078673 1_455
Li1_1 Li1_5 3.078674 1_555
Li1_1 Li1_5 3.078674 1_455
Li1_2 Li2_0 3.042041 1_565
Li1_2 Li2_6 3.042042 1_555
Li1_2 Li2_2 3.042043 1_555
Li1_2 Li1_4 3.078673 1_465
Li1_2 Li1_4 3.078673 1_555
Li1_2 Li1_6 3.078674 1_555
Li1_2 Li1_6 3.078674 1_455
Li1_3 Li2_1 3.042041 1_565
Li1_3 Li2_7 3.042042 1_555
Li1_3 Li2_3 3.042043 1_555
Li1_3 Li1_5 3.078673 1_465
Li1_3 Li1_5 3.078673 1_555
Li1_3 Li1_7 3.078674 1_455
Li1_3 Li1_7 3.078674 1_555
Li1_4 Li2_6 3.042041 1_555
Li1_4 Li2_0 3.042042 1_655
Li1_4 Li2_4 3.042043 1_555
Li1_4 Li1_6 3.078672 1_545
Li1_4 Li1_6 3.078672 1_555
Li1_5 Li2_7 3.042041 1_555
Li1_5 Li2_1 3.042042 1_655
Li1_5 Li2_5 3.042043 1_555
Li1_5 Li1_7 3.078672 1_545
Li1_5 Li1_7 3.078672 1_555
Li1_6 Li2_4 3.042041 1_565
Li1_6 Li2_2 3.042042 1_655
Li1_6 Li2_6 3.042043 1_555
Li1_7 Li2_5 3.042041 1_565
Li1_7 Li2_3 3.042042 1_655
Li1_7 Li2_7 3.042043 1_555
Li2_0 Li2_2 3.078672 1_555
Li2_0 Li2_2 3.078672 1_545
Li2_0 Li2_6 3.078673 1_545
Li2_0 Li2_6 3.078673 1_455
Li2_0 Li2_4 3.078674 1_455
Li2_0 Li2_4 3.078674 1_555
Li2_1 Li2_3 3.078672 1_545
Li2_1 Li2_3 3.078672 1_555
Li2_1 Li2_7 3.078673 1_545
Li2_1 Li2_7 3.078673 1_455
Li2_1 Li2_5 3.078674 1_455
Li2_1 Li2_5 3.078674 1_555
Li2_2 Li2_4 3.078673 1_555
Li2_2 Li2_4 3.078673 1_465
Li2_2 Li2_6 3.078674 1_455
Li2_2 Li2_6 3.078674 1_555
Li2_3 Li2_5 3.078673 1_465
Li2_3 Li2_5 3.078673 1_555
Li2_3 Li2_7 3.078674 1_455
Li2_3 Li2_7 3.078674 1_555
Li2_4 Li2_6 3.078672 1_545
Li2_4 Li2_6 3.078672 1_555
Li2_5 Li2_7 3.078672 1_545
Li2_5 Li2_7 3.078672 1_555
