# generated using pymatgen
data_YCd2
_symmetry_space_group_name_H-M   'P 1'
_cell_length_a   4.90301252
_cell_length_b   4.90301217
_cell_length_c   3.51977149
_cell_angle_alpha   90.00000000
_cell_angle_beta   90.00000000
_cell_angle_gamma   119.99999535
_symmetry_Int_Tables_number   1
_chemical_formula_structural   YCd2
_chemical_formula_sum   'Y1 Cd2'
_cell_volume   73.27757605
_cell_formula_units_Z   1
loop_
 _symmetry_equiv_pos_site_id
 _symmetry_equiv_pos_as_xyz
  1  'x, y, z'
loop_
 _atom_site_type_symbol
 _atom_site_label
 _atom_site_symmetry_multiplicity
 _atom_site_fract_x
 _atom_site_fract_y
 _atom_site_fract_z
 _atom_site_occupancy
  Y  Y0  1  0.00000000  -0.00000000  0.00000000  1
  Cd  Cd0  1  0.66666700  0.33333300  0.49999415  1
  Cd  Cd1  1  0.33333300  0.66666700  0.50000585  1
loop_
_geom_bond_atom_site_label_1
_geom_bond_atom_site_label_2
_geom_bond_distance
_geom_bond_site_symmetry_2
Cd0 Cd1 2.830753 1_545
Cd0 Cd1 2.830753 1_655
Cd0 Cd1 2.830761 1_555
Cd0 Y0 3.333210 1_655
Cd0 Y0 3.333213 1_665
Cd0 Y0 3.333213 1_555
Cd0 Y0 3.333231 1_656
Cd0 Y0 3.333235 1_666
Cd0 Y0 3.333235 1_556
Cd1 Y0 3.333210 1_566
Cd1 Y0 3.333213 1_556
Cd1 Y0 3.333213 1_666
Cd1 Y0 3.333231 1_565
Cd1 Y0 3.333235 1_555
Cd1 Y0 3.333235 1_665
