# generated using pymatgen
data_GaCuPd2
_symmetry_space_group_name_H-M   'P 1'
_cell_length_a   10.09050187
_cell_length_b   10.09050187
_cell_length_c   10.09050187
_cell_angle_alpha   123.71486461
_cell_angle_beta   118.76887828
_cell_angle_gamma   87.91753541
_symmetry_Int_Tables_number   1
_chemical_formula_structural   GaCuPd2
_chemical_formula_sum   'Ga1 Cu1 Pd2'
_cell_volume   710.59489339
_cell_formula_units_Z   1
loop_
 _symmetry_equiv_pos_site_id
 _symmetry_equiv_pos_as_xyz
  1  'x, y, z'
loop_
 _atom_site_type_symbol
 _atom_site_label
 _atom_site_symmetry_multiplicity
 _atom_site_fract_x
 _atom_site_fract_y
 _atom_site_fract_z
 _atom_site_occupancy
  Ga  Ga0  1  0.00000000  0.50000000  0.50000000  1
  Cu  Cu0  1  0.00000000  0.00000000  0.00000000  1
  Pd  Pd0  1  0.00000000  0.25855500  0.25855500  1
  Pd  Pd1  1  0.00000000  0.74144500  0.74144500  1
loop_
_geom_bond_atom_site_label_1
_geom_bond_atom_site_label_2
_geom_bond_distance
_geom_bond_site_symmetry_2
Ga0 Pd1 2.298246 1_555
Ga0 Pd0 2.298246 1_555
Cu0 Pd0 2.461112 1_555
Cu0 Pd1 2.461112 1_544
