# generated using pymatgen
data_Cs2CeCuI6
_symmetry_space_group_name_H-M   'P 1'
_cell_length_a   8.53510412
_cell_length_b   8.53510412
_cell_length_c   8.53510412
_cell_angle_alpha   60.00000000
_cell_angle_beta   60.00000000
_cell_angle_gamma   60.00000000
_symmetry_Int_Tables_number   1
_chemical_formula_structural   Cs2CeCuI6
_chemical_formula_sum   'Cs2 Ce1 Cu1 I6'
_cell_volume   439.65444896
_cell_formula_units_Z   1
loop_
 _symmetry_equiv_pos_site_id
 _symmetry_equiv_pos_as_xyz
  1  'x, y, z'
loop_
 _atom_site_type_symbol
 _atom_site_label
 _atom_site_symmetry_multiplicity
 _atom_site_fract_x
 _atom_site_fract_y
 _atom_site_fract_z
 _atom_site_occupancy
  Cs  Cs0  1  0.25000000  0.25000000  0.25000000  1
  Cs  Cs1  1  0.75000000  0.75000000  0.75000000  1
  Ce  Ce0  1  0.50000000  0.50000000  0.50000000  1
  Cu  Cu0  1  0.00000000  0.00000000  0.00000000  1
  I  I0  1  0.24015500  0.24015500  0.75984500  1
  I  I1  1  0.24015500  0.75984500  0.75984500  1
  I  I2  1  0.75984500  0.75984500  0.24015500  1
  I  I3  1  0.24015500  0.75984500  0.24015500  1
  I  I4  1  0.75984500  0.24015500  0.75984500  1
  I  I5  1  0.75984500  0.24015500  0.24015500  1
loop_
_geom_bond_atom_site_label_1
_geom_bond_atom_site_label_2
_geom_bond_distance
_geom_bond_site_symmetry_2
Cs0 I3 4.269206 1_555
Cs0 I0 4.269206 1_555
Cs0 I5 4.269206 1_555
Cs0 I4 4.269206 1_554
Cs0 I4 4.269206 1_455
Cs0 I1 4.269206 1_545
Cs0 I2 4.269206 1_545
Cs0 I1 4.269206 1_554
Cs0 I2 4.269206 1_455
Cs0 I0 4.269206 1_554
Cs0 I3 4.269206 1_545
Cs0 I5 4.269206 1_455
Cs1 I4 4.269206 1_565
Cs1 I1 4.269206 1_655
Cs1 I2 4.269206 1_556
Cs1 I5 4.269206 1_556
Cs1 I3 4.269206 1_556
Cs1 I5 4.269206 1_565
Cs1 I0 4.269206 1_565
Cs1 I3 4.269206 1_655
Cs1 I0 4.269206 1_655
Cs1 I1 4.269206 1_555
Cs1 I4 4.269206 1_555
Cs1 I2 4.269206 1_555
Ce0 I4 3.136449 1_555
Ce0 I2 3.136449 1_555
Ce0 I1 3.136449 1_555
Ce0 I3 3.136449 1_555
Ce0 I0 3.136449 1_555
Ce0 I5 3.136449 1_555
Cu0 I0 2.898781 1_554
Cu0 I5 2.898781 1_455
Cu0 I3 2.898781 1_545
Cu0 I4 2.898781 1_454
Cu0 I1 2.898781 1_544
Cu0 I2 2.898781 1_445
