# generated using pymatgen
data_Nd6Mn(SiS7)2
_symmetry_space_group_name_H-M   'P 1'
_cell_length_a   10.23182219
_cell_length_b   10.23182219
_cell_length_c   5.70660300
_cell_angle_alpha   90.00000000
_cell_angle_beta   90.00000000
_cell_angle_gamma   120.00000124
_symmetry_Int_Tables_number   1
_chemical_formula_structural   Nd6Mn(SiS7)2
_chemical_formula_sum   'Nd6 Mn1 Si2 S14'
_cell_volume   517.38550258
_cell_formula_units_Z   1
loop_
 _symmetry_equiv_pos_site_id
 _symmetry_equiv_pos_as_xyz
  1  'x, y, z'
loop_
 _atom_site_type_symbol
 _atom_site_label
 _atom_site_symmetry_multiplicity
 _atom_site_fract_x
 _atom_site_fract_y
 _atom_site_fract_z
 _atom_site_occupancy
  Nd  Nd0  1  0.64323700  0.76597600  0.74989600  1
  Nd  Nd1  1  0.12273900  0.35676300  0.74989600  1
  Nd  Nd2  1  0.23402400  0.87726100  0.74989600  1
  Nd  Nd3  1  0.35605700  0.23379700  0.24839400  1
  Nd  Nd4  1  0.87774000  0.64394300  0.24839400  1
  Nd  Nd5  1  0.76620300  0.12226000  0.24839400  1
  Mn  Mn0  1  0.00000000  0.00000000  0.51138500  1
  Si  Si0  1  0.33333300  0.66666700  0.16489900  1
  Si  Si1  1  0.66666700  0.33333300  0.66325700  1
  S  S0  1  0.33333300  0.66666700  0.53352500  1
  S  S1  1  0.66666700  0.33333300  0.03221900  1
  S  S2  1  0.75520300  0.83938200  0.27172200  1
  S  S3  1  0.08418000  0.24479700  0.27172200  1
  S  S4  1  0.16061800  0.91582000  0.27172200  1
  S  S5  1  0.24438400  0.16239600  0.75025800  1
  S  S6  1  0.91801300  0.75561600  0.75025800  1
  S  S7  1  0.83760400  0.08198700  0.75025800  1
  S  S8  1  0.47777900  0.88677400  0.02042500  1
  S  S9  1  0.40899600  0.52222100  0.02042500  1
  S  S10  1  0.11322600  0.59100400  0.02042500  1
  S  S11  1  0.52271700  0.11322100  0.51891700  1
  S  S12  1  0.59050400  0.47728300  0.51891700  1
  S  S13  1  0.88677900  0.40949600  0.51891700  1
loop_
_geom_bond_atom_site_label_1
_geom_bond_atom_site_label_2
_geom_bond_distance
_geom_bond_site_symmetry_2
Nd0 S7 2.824787 1_565
Nd0 S6 2.865931 1_555
Nd0 S9 2.893154 1_556
Nd0 S2 2.908983 1_555
Nd0 S8 2.978163 1_556
Nd0 S12 3.026552 1_555
Nd0 S0 3.064245 1_555
Nd0 S2 3.143839 1_556
Nd1 S5 2.824796 1_555
Nd1 S7 2.865926 1_455
Nd1 S10 2.893149 1_556
Nd1 S3 2.908983 1_555
Nd1 S9 2.978170 1_556
Nd1 S13 3.026552 1_455
Nd1 S0 3.064243 1_555
Nd1 S3 3.143839 1_556
Nd2 S6 2.824786 1_455
Nd2 S5 2.865921 1_565
Nd2 S8 2.893158 1_556
Nd2 S4 2.908980 1_555
Nd2 S10 2.978171 1_556
Nd2 S11 3.026552 1_565
Nd2 S0 3.064236 1_555
Nd2 S4 3.143836 1_556
Nd3 S3 2.842864 1_555
Nd3 S4 2.845292 1_545
Nd3 S12 2.892743 1_555
Nd3 S11 2.986111 1_555
Nd3 S5 3.014181 1_554
Nd3 S9 3.016011 1_555
Nd3 S5 3.034253 1_555
Nd3 S1 3.069643 1_555
Nd4 S4 2.842869 1_655
Nd4 S2 2.845284 1_555
Nd4 S13 2.892743 1_555
Nd4 S12 2.986111 1_555
Nd4 S6 3.014180 1_554
Nd4 S10 3.016020 1_655
Nd4 S6 3.034252 1_555
Nd4 S1 3.069641 1_555
Nd5 S2 2.842874 1_545
Nd5 S3 2.845293 1_655
Nd5 S11 2.892743 1_555
Nd5 S13 2.986111 1_555
Nd5 S7 3.014183 1_554
Nd5 S8 3.016014 1_545
Nd5 S7 3.034255 1_555
Nd5 S1 3.069634 1_555
Mn0 S7 2.591664 1_455
Mn0 S5 2.591670 1_555
Mn0 S6 2.591672 1_445
Mn0 S3 2.593960 1_555
Mn0 S2 2.593962 1_445
Mn0 S4 2.593968 1_545
S0 Si0 2.103602 1_555
S1 Si1 2.105520 1_554
S8 Si0 2.146511 1_555
S9 Si0 2.146526 1_555
S10 Si0 2.146508 1_555
S11 Si1 2.145428 1_555
S12 Si1 2.145435 1_555
S13 Si1 2.145426 1_555
