# generated using pymatgen
data_CeGeBi2
_symmetry_space_group_name_H-M   'P 1'
_cell_length_a   10.55803500
_cell_length_b   10.55803500
_cell_length_c   10.55803500
_cell_angle_alpha   154.65159743
_cell_angle_beta   154.65159743
_cell_angle_gamma   36.15320526
_symmetry_Int_Tables_number   1
_chemical_formula_structural   CeGeBi2
_chemical_formula_sum   'Ce2 Ge2 Bi4'
_cell_volume   215.44041795
_cell_formula_units_Z   2
loop_
 _symmetry_equiv_pos_site_id
 _symmetry_equiv_pos_as_xyz
  1  'x, y, z'
loop_
 _atom_site_type_symbol
 _atom_site_label
 _atom_site_symmetry_multiplicity
 _atom_site_fract_x
 _atom_site_fract_y
 _atom_site_fract_z
 _atom_site_occupancy
  Ce  Ce0  1  0.11887100  0.11887100  0.00000000  1
  Ce  Ce1  1  0.88112900  0.88112900  0.00000000  1
  Ge  Ge0  1  0.38053300  0.38053300  0.00000000  1
  Ge  Ge1  1  0.61946700  0.61946700  0.00000000  1
  Bi  Bi0  1  0.75000000  0.25000000  0.50000000  1
  Bi  Bi1  1  0.25000000  0.75000000  0.50000000  1
  Bi  Bi2  1  0.50000000  0.00000000  0.50000000  1
  Bi  Bi3  1  0.00000000  0.50000000  0.50000000  1
loop_
_geom_bond_atom_site_label_1
_geom_bond_atom_site_label_2
_geom_bond_distance
_geom_bond_site_symmetry_2
Ce0 Ge1 3.276056 1_444
Ce0 Ge1 3.276056 1_455
Ce0 Ge1 3.276056 1_556
Ce0 Ge1 3.276056 1_545
Ce1 Ge0 3.276056 1_565
Ce1 Ge0 3.276056 1_655
Ce1 Ge0 3.276056 1_666
Ce1 Ge0 3.276056 1_554
Bi0 Bi1 3.276034 1_555
Bi0 Bi1 3.276034 1_645
Bi0 Bi1 3.276034 1_544
Bi0 Bi1 3.276034 1_656
Bi0 Ce0 3.506423 1_656
Bi0 Ce0 3.506423 1_555
Bi0 Ce1 3.506423 1_545
Bi0 Ce1 3.506423 1_556
Bi1 Ce0 3.506423 1_566
Bi1 Ce1 3.506423 1_556
Bi1 Ce0 3.506423 1_555
Bi1 Ce1 3.506423 1_455
Bi2 Ce1 3.325678 1_445
Bi2 Ce1 3.325678 1_546
Bi2 Ce0 3.325678 1_656
Bi2 Ce0 3.325678 1_555
Bi3 Ce1 3.325678 1_445
Bi3 Ce0 3.325678 1_566
Bi3 Ce1 3.325678 1_456
Bi3 Ce0 3.325678 1_555
