# generated using pymatgen
data_Sr2Cu(SCl)2
_symmetry_space_group_name_H-M   'P 1'
_cell_length_a   8.18647975
_cell_length_b   8.18647975
_cell_length_c   8.18647975
_cell_angle_alpha   146.47223836
_cell_angle_beta   146.47223836
_cell_angle_gamma   48.14586021
_symmetry_Int_Tables_number   1
_chemical_formula_structural   Sr2Cu(SCl)2
_chemical_formula_sum   'Sr2 Cu1 S2 Cl2'
_cell_volume   166.69046748
_cell_formula_units_Z   1
loop_
 _symmetry_equiv_pos_site_id
 _symmetry_equiv_pos_as_xyz
  1  'x, y, z'
loop_
 _atom_site_type_symbol
 _atom_site_label
 _atom_site_symmetry_multiplicity
 _atom_site_fract_x
 _atom_site_fract_y
 _atom_site_fract_z
 _atom_site_occupancy
  Sr  Sr0  1  0.64744300  0.64744300  0.00000000  1
  Sr  Sr1  1  0.35255700  0.35255700  0.00000000  1
  Cu  Cu0  1  0.00000000  0.00000000  0.00000000  1
  S  S0  1  0.83936800  0.83936800  0.00000000  1
  S  S1  1  0.16063200  0.16063200  0.00000000  1
  Cl  Cl0  1  0.50000000  0.00000000  0.50000000  1
  Cl  Cl1  1  0.00000000  0.50000000  0.50000000  1
loop_
_geom_bond_atom_site_label_1
_geom_bond_atom_site_label_2
_geom_bond_distance
_geom_bond_site_symmetry_2
Cu0 S0 2.401280 1_445
Cu0 S1 2.401280 1_555
S0 Sr0 2.869078 1_555
S0 Sr1 3.345074 1_554
S0 Sr1 3.345074 1_655
S0 Sr1 3.345074 1_565
S0 Sr1 3.345074 1_666
S1 Sr1 2.869078 1_555
S1 Sr0 3.345074 1_545
S1 Sr0 3.345074 1_455
S1 Sr0 3.345074 1_556
S1 Sr0 3.345074 1_444
Cl0 Cu0 2.361212 1_555
Cl0 Cu0 2.361212 1_656
Cl0 Sr1 3.230087 1_545
Cl0 Sr0 3.230087 1_556
Cl0 Sr1 3.230087 1_556
Cl0 Sr0 3.230087 1_545
Cl1 Cu0 2.361212 1_555
Cl1 Cu0 2.361212 1_566
Cl1 Sr1 3.230087 1_556
Cl1 Sr0 3.230087 1_455
Cl1 Sr0 3.230087 1_556
Cl1 Sr1 3.230087 1_455
