# generated using pymatgen
data_Yb3Pb
_symmetry_space_group_name_H-M   'P 1'
_cell_length_a   6.73440834
_cell_length_b   6.73440834
_cell_length_c   5.53805355
_cell_angle_alpha   90.00000000
_cell_angle_beta   90.00000000
_cell_angle_gamma   119.99999574
_symmetry_Int_Tables_number   1
_chemical_formula_structural   Yb3Pb
_chemical_formula_sum   'Yb6 Pb2'
_cell_volume   217.51373898
_cell_formula_units_Z   2
loop_
 _symmetry_equiv_pos_site_id
 _symmetry_equiv_pos_as_xyz
  1  'x, y, z'
loop_
 _atom_site_type_symbol
 _atom_site_label
 _atom_site_symmetry_multiplicity
 _atom_site_fract_x
 _atom_site_fract_y
 _atom_site_fract_z
 _atom_site_occupancy
  Yb  Yb0  1  0.16807219  0.33614339  0.25000000  1
  Yb  Yb1  1  0.66385661  0.83192781  0.25000000  1
  Yb  Yb2  1  0.16807219  0.83192781  0.25000000  1
  Yb  Yb3  1  0.83192781  0.66385661  0.75000000  1
  Yb  Yb4  1  0.33614339  0.16807219  0.75000000  1
  Yb  Yb5  1  0.83192781  0.16807219  0.75000000  1
  Pb  Pb0  1  0.33333300  0.66666700  0.75000000  1
  Pb  Pb1  1  0.66666700  0.33333300  0.25000000  1
loop_
_geom_bond_atom_site_label_1
_geom_bond_atom_site_label_2
_geom_bond_distance
_geom_bond_site_symmetry_2
Yb0 Yb2 3.338815 1_555
Yb0 Yb1 3.338815 1_555
Yb0 Yb4 3.392761 1_555
Yb0 Yb4 3.392761 1_554
Yb0 Yb5 3.392768 1_455
Yb0 Yb5 3.392768 1_454
Yb0 Yb2 3.395594 1_545
Yb0 Yb1 3.395594 1_445
Yb1 Yb2 3.338815 1_555
Yb1 Yb3 3.392761 1_555
Yb1 Yb3 3.392761 1_554
Yb1 Yb5 3.392768 1_564
Yb1 Yb5 3.392768 1_565
Yb1 Yb2 3.395594 1_655
Yb2 Yb3 3.392768 1_455
Yb2 Yb3 3.392768 1_454
Yb2 Yb4 3.392768 1_564
Yb2 Yb4 3.392768 1_565
Yb3 Yb5 3.338815 1_555
Yb3 Yb4 3.338815 1_555
Yb3 Yb5 3.395594 1_565
Yb3 Yb4 3.395594 1_665
Yb4 Yb5 3.338815 1_555
Yb4 Yb5 3.395594 1_455
Pb0 Yb4 3.367244 1_555
Pb0 Yb3 3.367244 1_555
Pb0 Yb3 3.367244 1_455
Pb0 Yb4 3.367244 1_565
Pb0 Yb5 3.367244 1_455
Pb0 Yb5 3.367244 1_565
Pb0 Yb2 3.373926 1_556
Pb0 Yb2 3.373926 1_555
Pb0 Yb0 3.373932 1_555
Pb0 Yb0 3.373932 1_556
Pb0 Yb1 3.373932 1_555
Pb0 Yb1 3.373932 1_556
Pb1 Yb0 3.367244 1_555
Pb1 Yb1 3.367244 1_555
Pb1 Yb1 3.367244 1_545
Pb1 Yb0 3.367244 1_655
Pb1 Yb2 3.367244 1_545
Pb1 Yb2 3.367244 1_655
Pb1 Yb5 3.373926 1_555
Pb1 Yb5 3.373926 1_554
Pb1 Yb3 3.373932 1_555
Pb1 Yb4 3.373932 1_555
Pb1 Yb4 3.373932 1_554
Pb1 Yb3 3.373932 1_554
