# generated using pymatgen
data_Si3N4
_symmetry_space_group_name_H-M   'P 1'
_cell_length_a   10.70520786
_cell_length_b   10.98399501
_cell_length_c   10.42801463
_cell_angle_alpha   87.22928824
_cell_angle_beta   90.10721833
_cell_angle_gamma   91.19420939
_symmetry_Int_Tables_number   1
_chemical_formula_structural   Si3N4
_chemical_formula_sum   'Si45 N60'
_cell_volume   1224.48808240
_cell_formula_units_Z   15
loop_
 _symmetry_equiv_pos_site_id
 _symmetry_equiv_pos_as_xyz
  1  'x, y, z'
loop_
 _atom_site_type_symbol
 _atom_site_label
 _atom_site_symmetry_multiplicity
 _atom_site_fract_x
 _atom_site_fract_y
 _atom_site_fract_z
 _atom_site_occupancy
  Si  Si0  1  0.26211000  0.98616800  0.91299400  1
  Si  Si1  1  0.51796400  0.58424600  0.18828700  1
  Si  Si2  1  0.87536300  0.84249700  0.74301600  1
  Si  Si3  1  0.01690900  0.42138200  0.41290700  1
  Si  Si4  1  0.37734100  0.36334600  0.64065000  1
  Si  Si5  1  0.47318100  0.61890300  0.64159900  1
  Si  Si6  1  0.14506400  0.61671300  0.09660000  1
  Si  Si7  1  0.02091100  0.05140200  0.62462100  1
  Si  Si8  1  0.30885300  0.58480100  0.90998700  1
  Si  Si9  1  0.06164700  0.15184100  0.36060700  1
  Si  Si10  1  0.32729100  0.71372300  0.15419300  1
  Si  Si11  1  0.53182100  0.60632100  0.91149100  1
  Si  Si12  1  0.73715300  0.32492700  0.96339000  1
  Si  Si13  1  0.57062000  0.34895000  0.19242800  1
  Si  Si14  1  0.66075100  0.44475400  0.57840200  1
  Si  Si15  1  0.34822600  0.27442600  0.34791700  1
  Si  Si16  1  0.17820300  0.40569900  0.15337100  1
  Si  Si17  1  0.51046500  0.95480300  0.55807500  1
  Si  Si18  1  0.08240000  0.73508700  0.33458200  1
  Si  Si19  1  0.89628800  0.91255900  0.97154900  1
  Si  Si20  1  0.94863400  0.89430700  0.44833800  1
  Si  Si21  1  0.17801400  0.33171000  0.89646900  1
  Si  Si22  1  0.72462400  0.80225600  0.24446700  1
  Si  Si23  1  0.23972600  0.15920500  0.78232700  1
  Si  Si24  1  0.62742200  0.87461500  0.84538800  1
  Si  Si25  1  0.18498700  0.52199400  0.63854800  1
  Si  Si26  1  0.82939200  0.59902600  0.39799300  1
  Si  Si27  1  0.83420200  0.19090600  0.20534600  1
  Si  Si28  1  0.63042500  0.21851800  0.44376800  1
  Si  Si29  1  0.86739800  0.20661400  0.51976400  1
  Si  Si30  1  0.70653200  0.02614500  0.36237700  1
  Si  Si31  1  0.11594800  0.75619100  0.82710500  1
  Si  Si32  1  0.07636200  0.12319300  0.07182000  1
  Si  Si33  1  0.28130200  0.12034600  0.52384600  1
  Si  Si34  1  0.81283200  0.47727800  0.17250200  1
  Si  Si35  1  0.78902200  0.58711300  0.87836400  1
  Si  Si36  1  0.35602200  0.97572200  0.14220300  1
  Si  Si37  1  0.62874300  0.75244700  0.60157800  1
  Si  Si38  1  0.84388900  0.10392700  0.83376200  1
  Si  Si39  1  0.97994500  0.62278300  0.61291200  1
  Si  Si40  1  0.23299600  0.57342900  0.35542800  1
  Si  Si41  1  0.46177300  0.38472900  0.96731000  1
  Si  Si42  1  0.57119800  0.14467500  0.95234600  1
  Si  Si43  1  0.45354700  0.75155100  0.36436600  1
  Si  Si44  1  0.89120700  0.70326600  0.12178400  1
  N  N0  1  0.78563400  0.94594900  0.84099700  1
  N  N1  1  0.58451100  0.88083400  0.69010200  1
  N  N2  1  0.28512500  0.57172100  0.51122500  1
  N  N3  1  0.34796100  0.84318000  0.24053300  1
  N  N4  1  0.96224200  0.06344400  0.95659500  1
  N  N5  1  0.69906700  0.07827100  0.18961000  1
  N  N6  1  0.41163900  0.96506900  0.98109200  1
  N  N7  1  0.38138200  0.61351600  0.28407300  1
  N  N8  1  0.96237100  0.79868400  0.88014200  1
  N  N9  1  0.64979700  0.48592100  0.19407000  1
  N  N10  1  0.12208000  0.28439800  0.04822600  1
  N  N11  1  0.59042900  0.29350300  0.04004400  1
  N  N12  1  0.04101500  0.70353100  0.17240400  1
  N  N13  1  0.53604800  0.98294700  0.92773200  1
  N  N14  1  0.52224000  0.27088200  0.33115100  1
  N  N15  1  0.84827500  0.63476600  0.71614900  1
  N  N16  1  0.74302900  0.44197400  0.85497200  1
  N  N17  1  0.16632700  0.64165100  0.93483100  1
  N  N18  1  0.66001300  0.70324300  0.89337200  1
  N  N19  1  0.43540500  0.41965800  0.14492300  1
  N  N20  1  0.41180800  0.63293900  0.79339900  1
  N  N21  1  0.79138200  0.89788700  0.36423300  1
  N  N22  1  0.37929200  0.66974900  0.51607900  1
  N  N23  1  0.57419700  0.73183900  0.24314700  1
  N  N24  1  0.72642300  0.18074600  0.89926400  1
  N  N25  1  0.71690000  0.30369500  0.55053700  1
  N  N26  1  0.97107900  0.05959900  0.46548700  1
  N  N27  1  0.94858600  0.69440400  0.46133000  1
  N  N28  1  0.20972100  0.02779200  0.07333400  1
  N  N29  1  0.30153500  0.42884400  0.93353600  1
  N  N30  1  0.38348000  0.24253800  0.76089000  1
  N  N31  1  0.58461300  0.08017300  0.13478800  1
  N  N32  1  0.99882800  0.27238700  0.44509500  1
  N  N33  1  0.89994800  0.14475400  0.68228600  1
  N  N34  1  0.49689800  0.03868700  0.20879500  1
  N  N35  1  0.81837500  0.84327200  0.09746400  1
  N  N36  1  0.16265400  0.12569600  0.64175000  1
  N  N37  1  0.77919100  0.17891000  0.36815200  1
  N  N38  1  0.45554200  0.24742400  0.87651100  1
  N  N39  1  0.20180400  0.88168000  0.82571400  1
  N  N40  1  0.55107200  0.83080900  0.46663500  1
  N  N41  1  0.42649900  0.64735400  0.03663600  1
  N  N42  1  0.80326700  0.67166300  0.25613800  1
  N  N43  1  0.97189100  0.89879600  0.62716900  1
  N  N44  1  0.88870400  0.47217500  0.32472400  1
  N  N45  1  0.07811000  0.88236100  0.35942000  1
  N  N46  1  0.35070600  0.27395100  0.51401500  1
  N  N47  1  0.50911000  0.45924200  0.63067900  1
  N  N48  1  0.32879600  0.36603300  0.20696900  1
  N  N49  1  0.04060800  0.48582600  0.56142500  1
  N  N50  1  0.22614200  0.15542300  0.36107700  1
  N  N51  1  0.77932400  0.74321300  0.66900100  1
  N  N52  1  0.98658600  0.13628600  0.21111500  1
  N  N53  1  0.36868000  0.00494400  0.56039400  1
  N  N54  1  0.14863500  0.43950400  0.31986500  1
  N  N55  1  0.11337700  0.65774500  0.69653000  1
  N  N56  1  0.70761100  0.57144200  0.49891200  1
  N  N57  1  0.82280300  0.32601300  0.11298900  1
  N  N58  1  0.86137300  0.57652300  0.03489800  1
  N  N59  1  0.61473800  0.06625800  0.48823700  1
loop_
_geom_bond_atom_site_label_1
_geom_bond_atom_site_label_2
_geom_bond_distance
_geom_bond_site_symmetry_2
N0 Si38 1.829766 1_565
N0 Si19 1.831647 1_555
N0 Si2 1.849132 1_555
N0 Si24 1.850978 1_555
N1 Si24 1.680991 1_555
N1 Si17 1.760282 1_555
N1 Si37 1.794541 1_555
N2 N22 1.462184 1_555
N2 Si40 1.716208 1_555
N2 Si25 1.766686 1_555
N3 Si10 1.729587 1_555
N3 Si36 1.740434 1_555
N3 Si43 1.968354 1_555
N4 Si19 1.787788 1_545
N4 Si32 1.845073 1_656
N4 Si38 1.845551 1_555
N5 Si30 1.865923 1_555
N5 Si27 1.895910 1_555
N6 Si0 1.765121 1_555
N6 Si36 1.793450 1_556
N7 Si40 1.792898 1_555
N7 Si10 1.805732 1_555
N7 Si1 1.815224 1_555
N7 Si43 1.915245 1_555
N8 Si2 1.758154 1_555
N8 Si19 1.768677 1_555
N8 Si31 1.813025 1_655
N9 Si13 1.712162 1_555
N9 Si34 1.765274 1_555
N9 Si1 1.794080 1_555
N10 Si21 1.744722 1_554
N10 Si32 1.832367 1_555
N10 Si16 1.855746 1_555
N11 Si13 1.743908 1_555
N11 Si12 1.783439 1_554
N11 Si41 1.859139 1_554
N11 Si42 1.918555 1_554
N12 Si44 1.687416 1_455
N12 Si6 1.701582 1_555
N12 Si18 1.795557 1_555
N13 N6 1.450259 1_555
N13 Si24 1.805691 1_555
N13 Si42 1.838205 1_565
N14 Si13 1.720633 1_555
N14 Si28 1.734541 1_555
N14 Si15 1.872756 1_555
N15 N51 1.477889 1_555
N15 Si39 1.786129 1_555
N15 Si35 1.855356 1_555
N16 Si12 1.670757 1_555
N16 Si35 1.687557 1_555
N17 Si8 1.685780 1_555
N17 Si6 1.710772 1_556
N17 Si31 1.739261 1_555
N18 Si11 1.724224 1_555
N18 Si35 1.911142 1_555
N18 Si24 1.962398 1_555
N19 N48 1.416323 1_555
N19 Si13 1.717804 1_555
N19 Si41 1.931970 1_554
N19 Si1 2.065142 1_555
N20 Si8 1.700299 1_555
N20 Si5 1.730012 1_555
N20 Si11 1.796534 1_555
N21 Si30 1.691379 1_565
N21 Si22 1.807236 1_555
N21 Si20 1.896983 1_555
N22 Si5 1.727202 1_555
N22 Si43 1.944133 1_555
N23 Si22 1.772200 1_555
N23 Si43 1.832260 1_555
N23 Si1 1.834536 1_555
N24 Si38 1.692038 1_555
N24 Si12 1.750123 1_555
N24 Si42 1.783110 1_555
N25 Si14 1.711535 1_555
N25 Si28 1.741459 1_555
N25 Si29 1.985539 1_555
N26 Si9 1.737418 1_655
N26 Si7 1.740894 1_655
N26 Si20 1.843649 1_545
N26 Si29 2.079744 1_555
N27 Si39 1.766064 1_555
N27 Si26 1.780436 1_555
N27 Si18 1.980412 1_655
N27 Si20 2.193352 1_555
N28 Si32 1.788051 1_555
N28 Si36 1.813621 1_545
N28 Si0 1.845900 1_544
N29 Si8 1.718931 1_555
N29 Si21 1.736491 1_555
N29 Si41 1.821334 1_555
N30 N38 1.432743 1_555
N30 Si23 1.782934 1_555
N30 Si4 1.783192 1_555
N31 N34 1.279004 1_555
N31 N5 1.351221 1_555
N31 Si42 2.003752 1_554
N32 Si3 1.662045 1_655
N32 Si29 1.736428 1_555
N32 Si9 1.770246 1_655
N33 Si38 1.726330 1_555
N33 Si7 1.791012 1_655
N33 Si29 1.830769 1_555
N34 Si36 1.798323 1_545
N35 Si19 1.697053 1_554
N35 Si44 1.746041 1_555
N35 Si22 1.865558 1_555
N36 Si7 1.720978 1_555
N36 Si23 1.732100 1_555
N36 Si33 1.773235 1_555
N37 Si27 1.795935 1_555
N37 Si30 1.838320 1_555
N37 Si28 1.847721 1_555
N37 Si29 1.874246 1_555
N38 Si41 1.819106 1_555
N38 Si42 1.844002 1_555
N39 Si0 1.621814 1_555
N39 Si31 1.640178 1_555
N40 Si43 1.741531 1_555
N40 Si17 1.762071 1_555
N40 Si37 1.822293 1_555
N41 Si11 1.805822 1_554
N41 Si10 1.812653 1_555
N41 Si8 1.961609 1_554
N41 Si1 1.963832 1_555
N42 Si26 1.672319 1_555
N42 Si22 1.677577 1_555
N42 Si44 1.707040 1_555
N43 Si2 1.677924 1_555
N43 Si7 1.744963 1_665
N43 Si20 1.883808 1_555
N44 Si3 1.737274 1_655
N44 Si26 1.752117 1_555
N44 Si34 1.780752 1_555
N45 Si18 1.652168 1_555
N45 Si20 1.679978 1_455
N46 Si4 1.703406 1_555
N46 Si15 1.731983 1_555
N46 Si33 1.827698 1_555
N47 Si14 1.726336 1_555
N47 Si4 1.743031 1_555
N47 Si5 1.812184 1_555
N48 Si15 1.755181 1_555
N48 Si16 1.761687 1_555
N49 Si3 1.749592 1_555
N49 Si39 1.758732 1_455
N49 Si25 1.787224 1_555
N50 Si9 1.760576 1_555
N50 Si33 1.822269 1_555
N50 Si15 1.829649 1_555
N51 Si2 1.695194 1_555
N51 Si37 1.760354 1_555
N52 Si27 1.749754 1_555
N52 Si32 1.756554 1_655
N52 Si9 1.766465 1_655
N53 Si33 1.621221 1_555
N53 Si17 1.626041 1_545
N54 Si3 1.715890 1_555
N54 Si40 1.764418 1_555
N54 Si16 1.822566 1_555
N55 Si39 1.718437 1_455
N55 Si31 1.779061 1_555
N55 Si25 1.820206 1_555
N56 Si14 1.654113 1_555
N56 Si26 1.690197 1_555
N57 Si27 1.735996 1_555
N57 Si34 1.806774 1_555
N57 Si12 1.808453 1_554
N58 Si44 1.721430 1_555
N58 Si35 1.805167 1_554
N58 Si34 1.829031 1_555
N59 Si28 1.718676 1_555
N59 Si30 1.720795 1_555
N59 Si17 1.770601 1_545
