# generated using pymatgen
data_Mn8Si6ClO24
_symmetry_space_group_name_H-M   'P 1'
_cell_length_a   7.67788000
_cell_length_b   12.91518585
_cell_length_c   12.91518585
_cell_angle_alpha   119.99999924
_cell_angle_beta   90.00000000
_cell_angle_gamma   90.00000000
_symmetry_Int_Tables_number   1
_chemical_formula_structural   Mn8Si6ClO24
_chemical_formula_sum   'Mn16 Si12 Cl2 O48'
_cell_volume   1109.10656356
_cell_formula_units_Z   2
loop_
 _symmetry_equiv_pos_site_id
 _symmetry_equiv_pos_as_xyz
  1  'x, y, z'
loop_
 _atom_site_type_symbol
 _atom_site_label
 _atom_site_symmetry_multiplicity
 _atom_site_fract_x
 _atom_site_fract_y
 _atom_site_fract_z
 _atom_site_occupancy
  Mn  Mn0  1  0.05597900  0.75220900  0.50441700  1
  Mn  Mn1  1  0.94402100  0.24779100  0.49558300  1
  Mn  Mn2  1  0.05597900  0.75220900  0.24779100  1
  Mn  Mn3  1  0.94402100  0.24779100  0.75220900  1
  Mn  Mn4  1  0.05597900  0.49558300  0.24779100  1
  Mn  Mn5  1  0.94402100  0.50441700  0.75220900  1
  Mn  Mn6  1  0.00000000  0.50000000  0.50000000  1
  Mn  Mn7  1  0.00000000  0.00000000  0.50000000  1
  Mn  Mn8  1  0.00000000  0.50000000  0.00000000  1
  Mn  Mn9  1  0.00000000  0.76103600  0.76103600  1
  Mn  Mn10  1  0.00000000  0.23896400  0.23896400  1
  Mn  Mn11  1  0.00000000  0.00000000  0.23896400  1
  Mn  Mn12  1  0.00000000  0.00000000  0.76103600  1
  Mn  Mn13  1  0.00000000  0.23896400  0.00000000  1
  Mn  Mn14  1  0.00000000  0.76103600  0.00000000  1
  Mn  Mn15  1  0.00000000  0.00000000  0.00000000  1
  Si  Si0  1  0.64213000  0.90937600  0.33231400  1
  Si  Si1  1  0.35787000  0.09062400  0.66768600  1
  Si  Si2  1  0.64213000  0.42293800  0.09062400  1
  Si  Si3  1  0.35787000  0.57706200  0.66768600  1
  Si  Si4  1  0.35787000  0.57706200  0.90937600  1
  Si  Si5  1  0.64213000  0.42293800  0.33231400  1
  Si  Si6  1  0.64213000  0.66768600  0.57706200  1
  Si  Si7  1  0.35787000  0.33231400  0.90937600  1
  Si  Si8  1  0.35787000  0.33231400  0.42293800  1
  Si  Si9  1  0.64213000  0.66768600  0.09062400  1
  Si  Si10  1  0.35787000  0.09062400  0.42293800  1
  Si  Si11  1  0.64213000  0.90937600  0.57706200  1
  Cl  Cl0  1  0.83372200  0.66666700  0.33333300  1
  Cl  Cl1  1  0.16627800  0.33333300  0.66666700  1
  O  O0  1  0.60510400  0.55189000  0.10377900  1
  O  O1  1  0.39489600  0.44811000  0.89622100  1
  O  O2  1  0.60510400  0.55189000  0.44811000  1
  O  O3  1  0.39489600  0.44811000  0.55189000  1
  O  O4  1  0.60510400  0.89622100  0.44811000  1
  O  O5  1  0.39489600  0.10377900  0.55189000  1
  O  O6  1  0.88129600  0.92120800  0.84241700  1
  O  O7  1  0.11870400  0.07879200  0.15758300  1
  O  O8  1  0.88129600  0.92120800  0.07879200  1
  O  O9  1  0.11870400  0.07879200  0.92120800  1
  O  O10  1  0.88129600  0.15758300  0.07879200  1
  O  O11  1  0.11870400  0.84241700  0.92120800  1
  O  O12  1  0.50000000  0.67200700  0.67200700  1
  O  O13  1  0.50000000  0.32799300  0.32799300  1
  O  O14  1  0.50000000  0.00000000  0.32799300  1
  O  O15  1  0.50000000  0.00000000  0.67200700  1
  O  O16  1  0.50000000  0.32799300  0.00000000  1
  O  O17  1  0.50000000  0.67200700  0.00000000  1
  O  O18  1  0.89261800  0.15957300  0.31914700  1
  O  O19  1  0.10738200  0.84042700  0.68085300  1
  O  O20  1  0.89261800  0.15957300  0.84042700  1
  O  O21  1  0.10738200  0.84042700  0.15957300  1
  O  O22  1  0.89261800  0.68085300  0.84042700  1
  O  O23  1  0.10738200  0.31914700  0.15957300  1
  O  O24  1  0.59966700  0.78405900  0.56811700  1
  O  O25  1  0.40033300  0.21594100  0.43188300  1
  O  O26  1  0.59966700  0.78405900  0.21594100  1
  O  O27  1  0.40033300  0.21594100  0.78405900  1
  O  O28  1  0.59966700  0.43188300  0.21594100  1
  O  O29  1  0.40033300  0.56811700  0.78405900  1
  O  O30  1  0.88556900  0.42391200  0.84782400  1
  O  O31  1  0.11443100  0.57608800  0.15217600  1
  O  O32  1  0.88556900  0.42391200  0.57608800  1
  O  O33  1  0.11443100  0.57608800  0.42391200  1
  O  O34  1  0.88556900  0.15217600  0.57608800  1
  O  O35  1  0.11443100  0.84782400  0.42391200  1
  O  O36  1  0.85000100  0.94405400  0.33490300  1
  O  O37  1  0.15000000  0.05594600  0.66509700  1
  O  O38  1  0.85000100  0.39085000  0.05594600  1
  O  O39  1  0.15000000  0.60915000  0.66509700  1
  O  O40  1  0.15000000  0.60915000  0.94405400  1
  O  O41  1  0.85000100  0.39085000  0.33490300  1
  O  O42  1  0.85000100  0.66509700  0.60915000  1
  O  O43  1  0.15000000  0.33490300  0.94405400  1
  O  O44  1  0.15000000  0.33490300  0.39085000  1
  O  O45  1  0.85000100  0.66509700  0.05594600  1
  O  O46  1  0.15000000  0.05594600  0.39085000  1
  O  O47  1  0.85000100  0.94405400  0.60915000  1
loop_
_geom_bond_atom_site_label_1
_geom_bond_atom_site_label_2
_geom_bond_distance
_geom_bond_site_symmetry_2
Mn0 O19 2.012493 1_555
Mn0 O35 2.022711 1_555
Mn0 O33 2.022723 1_555
Mn0 O42 2.668016 1_455
Mn0 O47 2.668016 1_455
Mn1 O18 2.012493 1_555
Mn1 O34 2.022711 1_555
Mn1 O32 2.022723 1_555
Mn1 O44 2.668020 1_655
Mn1 O46 2.668020 1_655
Mn2 O21 2.012493 1_555
Mn2 O35 2.022722 1_555
Mn2 O31 2.022722 1_555
Mn2 O36 2.668016 1_455
Mn2 O45 2.668016 1_455
Mn3 O20 2.012493 1_555
Mn3 O30 2.022722 1_555
Mn3 O34 2.022722 1_555
Mn3 O43 2.668020 1_655
Mn3 O37 2.668020 1_655
Mn4 O23 2.012493 1_555
Mn4 O31 2.022711 1_555
Mn4 O33 2.022723 1_555
Mn4 O41 2.668016 1_455
Mn4 O38 2.668016 1_455
Mn5 O22 2.012493 1_555
Mn5 O30 2.022711 1_555
Mn5 O32 2.022723 1_555
Mn5 O39 2.668020 1_655
Mn5 O40 2.668020 1_655
Mn6 O33 1.915453 1_555
Mn6 O32 1.915453 1_455
Mn6 O42 2.203244 1_455
Mn6 O41 2.203244 1_455
Mn6 O39 2.203248 1_555
Mn6 O44 2.203248 1_555
Mn7 O34 1.915453 1_455
Mn7 O35 1.915453 1_545
Mn7 O47 2.203236 1_445
Mn7 O46 2.203240 1_555
Mn7 O36 2.203246 1_445
Mn7 O37 2.203250 1_555
Mn8 O31 1.915453 1_555
Mn8 O30 1.915453 1_454
Mn8 O38 2.203236 1_455
Mn8 O40 2.203240 1_554
Mn8 O45 2.203246 1_455
Mn8 O43 2.203250 1_554
Mn9 O19 1.966046 1_555
Mn9 O22 1.966046 1_455
Mn9 O11 2.010077 1_555
Mn9 O6 2.010077 1_455
Mn9 O42 2.068589 1_455
Mn9 O39 2.068593 1_555
Mn10 O23 1.966046 1_555
Mn10 O18 1.966046 1_455
Mn10 O7 2.010077 1_555
Mn10 O10 2.010077 1_455
Mn10 O41 2.068589 1_455
Mn10 O44 2.068593 1_555
Mn11 O21 1.966036 1_545
Mn11 O18 1.966036 1_455
Mn11 O8 2.010077 1_445
Mn11 O7 2.010087 1_555
Mn11 O36 2.068580 1_445
Mn11 O46 2.068595 1_555
Mn12 O20 1.966036 1_455
Mn12 O19 1.966036 1_545
Mn12 O9 2.010077 1_555
Mn12 O6 2.010087 1_445
Mn12 O37 2.068585 1_555
Mn12 O47 2.068590 1_445
Mn13 O20 1.966036 1_454
Mn13 O23 1.966036 1_555
Mn13 O9 2.010077 1_554
Mn13 O10 2.010087 1_455
Mn13 O43 2.068585 1_554
Mn13 O38 2.068590 1_455
Mn14 O21 1.966036 1_555
Mn14 O22 1.966036 1_454
Mn14 O8 2.010077 1_455
Mn14 O11 2.010087 1_554
Mn14 O45 2.068580 1_455
Mn14 O40 2.068595 1_554
Mn15 O7 1.984241 1_555
Mn15 O11 1.984241 1_544
Mn15 O10 1.984241 1_455
Mn15 O6 1.984241 1_444
Mn15 O9 1.984251 1_554
Mn15 O8 1.984251 1_445
Cl0 Mn2 2.563923 1_655
Cl0 Mn0 2.563923 1_655
Cl0 Mn4 2.563923 1_655
Cl1 Mn3 2.563923 1_455
Cl1 Mn5 2.563923 1_455
Cl1 Mn1 2.563923 1_455
O0 Si9 1.612567 1_555
O0 Si2 1.612579 1_555
O1 Si7 1.612567 1_555
O1 Si4 1.612579 1_555
O2 Si6 1.612574 1_555
O2 Si5 1.612574 1_555
O3 Si3 1.612574 1_555
O3 Si8 1.612574 1_555
O4 Si0 1.612567 1_555
O4 Si11 1.612579 1_555
O5 Si1 1.612567 1_555
O5 Si10 1.612579 1_555
O12 Si3 1.621472 1_555
O12 Si6 1.621472 1_555
O13 Si8 1.621472 1_555
O13 Si5 1.621472 1_555
O14 Si0 1.621472 1_545
O14 Si10 1.621472 1_555
O15 Si1 1.621472 1_555
O15 Si11 1.621472 1_545
O16 Si7 1.621472 1_554
O16 Si2 1.621472 1_555
O17 Si9 1.621472 1_555
O17 Si4 1.621472 1_554
O24 Si11 1.597554 1_555
O24 Si6 1.597566 1_555
O25 Si10 1.597554 1_555
O25 Si8 1.597566 1_555
O26 Si9 1.597559 1_555
O26 Si0 1.597559 1_555
O27 Si1 1.597559 1_555
O27 Si7 1.597559 1_555
O28 Si2 1.597554 1_555
O28 Si5 1.597566 1_555
O29 Si4 1.597554 1_555
O29 Si3 1.597566 1_555
O36 Si0 1.653474 1_555
O37 Si1 1.653466 1_555
O38 Si2 1.653472 1_555
O39 Si3 1.653463 1_555
O40 Si4 1.653465 1_555
O41 Si5 1.653471 1_555
O42 Si6 1.653471 1_555
O43 Si7 1.653466 1_555
O44 Si8 1.653463 1_555
O45 Si9 1.653474 1_555
O46 Si10 1.653465 1_555
O47 Si11 1.653472 1_555
