# generated using pymatgen
data_Na2CoSiCO7
_symmetry_space_group_name_H-M   'P 1'
_cell_length_a   6.30792500
_cell_length_b   10.29710301
_cell_length_c   9.58817564
_cell_angle_alpha   90.76909973
_cell_angle_beta   90.00001560
_cell_angle_gamma   89.99995055
_symmetry_Int_Tables_number   1
_chemical_formula_structural   Na2CoSiCO7
_chemical_formula_sum   'Na8 Co4 Si4 C4 O28'
_cell_volume   622.72805413
_cell_formula_units_Z   4
loop_
 _symmetry_equiv_pos_site_id
 _symmetry_equiv_pos_as_xyz
  1  'x, y, z'
loop_
 _atom_site_type_symbol
 _atom_site_label
 _atom_site_symmetry_multiplicity
 _atom_site_fract_x
 _atom_site_fract_y
 _atom_site_fract_z
 _atom_site_occupancy
  Na  Na0  1  0.00591100  0.12752700  0.23850600  1
  Na  Na1  1  0.99820000  0.61486700  0.24149500  1
  Na  Na2  1  0.49409100  0.12752700  0.23850700  1
  Na  Na3  1  0.50180200  0.61486400  0.24149100  1
  Na  Na4  1  0.49820400  0.38514500  0.75851800  1
  Na  Na5  1  0.50591700  0.87247300  0.76146600  1
  Na  Na6  1  0.00179600  0.38514900  0.75851900  1
  Na  Na7  1  0.99408400  0.87247300  0.76146700  1
  Co  Co0  1  0.74999900  0.90857600  0.36555300  1
  Co  Co1  1  0.25000000  0.09142000  0.63440700  1
  Co  Co2  1  0.75000000  0.39465400  0.39884000  1
  Co  Co3  1  0.25000000  0.60536700  0.60116000  1
  Si  Si0  1  0.25000000  0.33663900  0.43458800  1
  Si  Si1  1  0.25000000  0.84784000  0.42450200  1
  Si  Si2  1  0.75000000  0.15215900  0.57550000  1
  Si  Si3  1  0.74999900  0.66337600  0.56541000  1
  C  C0  1  0.75000100  0.36460800  0.05826500  1
  C  C1  1  0.75000100  0.86489100  0.07719300  1
  C  C2  1  0.24999900  0.13506100  0.92283900  1
  C  C3  1  0.25000000  0.63539300  0.94174900  1
  O  O0  1  0.24999900  0.11984200  0.05433400  1
  O  O1  1  0.25000000  0.63231200  0.07473600  1
  O  O2  1  0.75000000  0.36766500  0.92527400  1
  O  O3  1  0.75000000  0.88008700  0.94567800  1
  O  O4  1  0.75000200  0.47000600  0.13031800  1
  O  O5  1  0.75000000  0.96914800  0.15763200  1
  O  O6  1  0.25000100  0.03082400  0.84235300  1
  O  O7  1  0.25000000  0.53000000  0.86968600  1
  O  O8  1  0.74999900  0.25550100  0.12036000  1
  O  O9  1  0.75000100  0.75455100  0.13569700  1
  O  O10  1  0.24999900  0.24540300  0.86438500  1
  O  O11  1  0.25000000  0.74450000  0.87966200  1
  O  O12  1  0.75000000  0.09508200  0.41564400  1
  O  O13  1  0.74999800  0.58022300  0.41834700  1
  O  O14  1  0.25000000  0.41979800  0.58165100  1
  O  O15  1  0.25000000  0.90493200  0.58433100  1
  O  O16  1  0.25000000  0.17731700  0.45904600  1
  O  O17  1  0.25000100  0.68650000  0.42365700  1
  O  O18  1  0.75000000  0.31350400  0.57632600  1
  O  O19  1  0.74999900  0.82271800  0.54097400  1
  O  O20  1  0.03368700  0.36726700  0.34262500  1
  O  O21  1  0.03955100  0.89344600  0.33508400  1
  O  O22  1  0.46631200  0.36726800  0.34262400  1
  O  O23  1  0.46044800  0.89344700  0.33508300  1
  O  O24  1  0.53952200  0.10655400  0.66488400  1
  O  O25  1  0.53368000  0.63277300  0.65737600  1
  O  O26  1  0.96047800  0.10655400  0.66488400  1
  O  O27  1  0.96631900  0.63277200  0.65737500  1
loop_
_geom_bond_atom_site_label_1
_geom_bond_atom_site_label_2
_geom_bond_distance
_geom_bond_site_symmetry_2
Na0 O0 2.343387 1_555
Na0 O12 2.370100 1_455
Na0 O8 2.380271 1_455
Na0 O5 2.415133 1_445
Na0 O21 2.602355 1_545
Na0 O20 2.656179 1_555
Na0 O16 2.660046 1_555
Na1 O1 2.262591 1_655
Na1 O13 2.338821 1_555
Na1 O9 2.363934 1_555
Na1 O4 2.402042 1_555
Na1 O17 2.466360 1_655
Na1 O20 2.748995 1_655
Na2 O0 2.343410 1_555
Na2 O12 2.370084 1_555
Na2 O8 2.380261 1_555
Na2 O5 2.415126 1_545
Na2 O23 2.602341 1_545
Na2 O22 2.656182 1_555
Na2 O16 2.660046 1_555
Na3 O1 2.262575 1_555
Na3 O13 2.338818 1_555
Na3 O9 2.363938 1_555
Na3 O4 2.402013 1_555
Na3 O17 2.466396 1_555
Na3 O22 2.748969 1_555
Na4 O2 2.262584 1_555
Na4 O14 2.338948 1_555
Na4 O10 2.364617 1_555
Na4 O7 2.401989 1_555
Na4 O18 2.466566 1_555
Na4 O25 2.749300 1_555
Na5 O3 2.343637 1_555
Na5 O15 2.370126 1_555
Na5 O11 2.380521 1_555
Na5 O6 2.414998 1_565
Na5 O24 2.602352 1_565
Na5 O25 2.655691 1_555
Na5 O19 2.659590 1_555
Na6 O2 2.262582 1_455
Na6 O14 2.338950 1_555
Na6 O10 2.364628 1_555
Na6 O7 2.401961 1_555
Na6 O18 2.466585 1_455
Na6 O27 2.749259 1_455
Na7 O3 2.343635 1_555
Na7 O15 2.370130 1_655
Na7 O11 2.380510 1_655
Na7 O6 2.415001 1_665
Na7 O26 2.602355 1_565
Na7 O27 2.655709 1_555
Na7 O19 2.659608 1_555
Co0 O23 1.855904 1_555
Co0 O21 1.855909 1_655
Co0 O19 1.910640 1_555
Co0 O12 1.973352 1_565
Co0 O5 2.096849 1_555
Co1 O26 1.855738 1_455
Co1 O24 1.855738 1_555
Co1 O16 1.910321 1_555
Co1 O15 1.973139 1_545
Co1 O6 2.097155 1_555
Co2 O20 1.888966 1_655
Co2 O22 1.888973 1_555
Co2 O18 1.905893 1_555
Co2 O13 1.917455 1_555
Co3 O25 1.888956 1_555
Co3 O27 1.888957 1_455
Co3 O17 1.905961 1_555
Co3 O14 1.917456 1_555
C0 O2 1.275952 1_554
C0 O8 1.278535 1_555
C0 O4 1.278678 1_555
C1 O3 1.272743 1_554
C1 O9 1.273845 1_555
C1 O5 1.313437 1_555
C2 O0 1.272585 1_556
C2 O10 1.273647 1_555
C2 O6 1.313531 1_555
C3 O1 1.275923 1_556
C3 O11 1.278499 1_555
C3 O7 1.278686 1_555
O12 Si2 1.634165 1_555
O13 Si3 1.639821 1_555
O14 Si0 1.639852 1_555
O15 Si1 1.633977 1_555
O16 Si0 1.660344 1_555
O17 Si1 1.661246 1_555
O18 Si2 1.661299 1_555
O19 Si3 1.660516 1_555
O20 Si0 1.657180 1_555
O21 Si1 1.651861 1_555
O22 Si0 1.657183 1_555
O23 Si1 1.651865 1_555
O24 Si2 1.651836 1_555
O25 Si3 1.657177 1_555
O26 Si2 1.651835 1_555
O27 Si3 1.657178 1_555
