# generated using pymatgen
data_ZnIn2SnAs4
_symmetry_space_group_name_H-M   'P 1'
_cell_length_a   7.42200790
_cell_length_b   7.42200790
_cell_length_c   7.42200790
_cell_angle_alpha   131.61481060
_cell_angle_beta   131.61481060
_cell_angle_gamma   70.83807626
_symmetry_Int_Tables_number   1
_chemical_formula_structural   ZnIn2SnAs4
_chemical_formula_sum   'Zn1 In2 Sn1 As4'
_cell_volume   223.82167830
_cell_formula_units_Z   1
loop_
 _symmetry_equiv_pos_site_id
 _symmetry_equiv_pos_as_xyz
  1  'x, y, z'
loop_
 _atom_site_type_symbol
 _atom_site_label
 _atom_site_symmetry_multiplicity
 _atom_site_fract_x
 _atom_site_fract_y
 _atom_site_fract_z
 _atom_site_occupancy
  Zn  Zn0  1  0.00000000  0.00000000  0.00000000  1
  In  In0  1  0.75000000  0.25000000  0.50000000  1
  In  In1  1  0.25000000  0.75000000  0.50000000  1
  Sn  Sn0  1  0.50000000  0.50000000  0.00000000  1
  As  As0  1  0.12010300  0.12010300  0.47828400  1
  As  As1  1  0.87989700  0.35818100  0.00000000  1
  As  As2  1  0.64181900  0.64181900  0.52171600  1
  As  As3  1  0.35818100  0.87989700  0.00000000  1
loop_
_geom_bond_atom_site_label_1
_geom_bond_atom_site_label_2
_geom_bond_distance
_geom_bond_site_symmetry_2
As0 Zn0 2.511202 1_555
As0 Sn0 2.666408 1_556
As0 In1 2.672842 1_545
As0 In0 2.672842 1_455
As1 Zn0 2.511202 1_655
As1 Sn0 2.666408 1_555
As1 In1 2.672842 1_655
As1 In0 2.672842 1_554
As2 Zn0 2.511202 1_666
As2 Sn0 2.666408 1_555
As2 In0 2.672842 1_555
As2 In1 2.672842 1_555
As3 Zn0 2.511202 1_565
As3 Sn0 2.666408 1_555
As3 In1 2.672842 1_554
As3 In0 2.672842 1_565
