# generated using pymatgen
data_Fe4AgXeF5
_symmetry_space_group_name_H-M   'P 1'
_cell_length_a   9.88223803
_cell_length_b   9.88223803
_cell_length_c   9.88223803
_cell_angle_alpha   139.86180560
_cell_angle_beta   139.86180560
_cell_angle_gamma   58.06318724
_symmetry_Int_Tables_number   1
_chemical_formula_structural   Fe4AgXeF5
_chemical_formula_sum   'Fe8 Ag2 Xe2 F10'
_cell_volume   397.45530990
_cell_formula_units_Z   2
loop_
 _symmetry_equiv_pos_site_id
 _symmetry_equiv_pos_as_xyz
  1  'x, y, z'
loop_
 _atom_site_type_symbol
 _atom_site_label
 _atom_site_symmetry_multiplicity
 _atom_site_fract_x
 _atom_site_fract_y
 _atom_site_fract_z
 _atom_site_occupancy
  Fe  Fe0  1  0.60530000  0.38349000  0.60990100  1
  Fe  Fe1  1  0.39470000  0.61651000  0.39009900  1
  Fe  Fe2  1  0.77358900  0.99539900  0.39009900  1
  Fe  Fe3  1  0.38349000  0.77358900  0.77819000  1
  Fe  Fe4  1  0.22641100  0.00460100  0.60990100  1
  Fe  Fe5  1  0.61651000  0.22641100  0.22181000  1
  Fe  Fe6  1  0.99539900  0.60530000  0.22181000  1
  Fe  Fe7  1  0.00460100  0.39470000  0.77819000  1
  Ag  Ag0  1  0.50000000  0.00000000  0.50000000  1
  Ag  Ag1  1  0.00000000  0.50000000  0.50000000  1
  Xe  Xe0  1  0.10503400  0.10503400  0.00000000  1
  Xe  Xe1  1  0.89496600  0.89496600  0.00000000  1
  F  F0  1  0.32583400  0.48790300  0.60334500  1
  F  F1  1  0.67416600  0.51209700  0.39665500  1
  F  F2  1  0.88455900  0.72249000  0.39665500  1
  F  F3  1  0.48790300  0.88455900  0.16206900  1
  F  F4  1  0.11544100  0.27751000  0.60334500  1
  F  F5  1  0.51209700  0.11544100  0.83793100  1
  F  F6  1  0.72249000  0.32583400  0.83793100  1
  F  F7  1  0.27751000  0.67416600  0.16206900  1
  F  F8  1  0.29004800  0.29004800  0.00000000  1
  F  F9  1  0.70995200  0.70995200  0.00000000  1
loop_
_geom_bond_atom_site_label_1
_geom_bond_atom_site_label_2
_geom_bond_distance
_geom_bond_site_symmetry_2
Ag0 F5 2.485339 1_555
Ag0 F7 2.485339 1_545
Ag0 F3 2.485339 1_545
Ag0 F6 2.485339 1_555
Ag1 F1 2.485334 1_455
Ag1 F0 2.485334 1_555
Ag1 F2 2.485346 1_455
Ag1 F4 2.485346 1_555
F0 Fe3 2.004668 1_555
F0 Fe0 2.347322 1_555
F1 Fe5 2.004668 1_555
F1 Fe1 2.347322 1_555
F2 Fe6 2.004655 1_555
F2 Fe2 2.347311 1_555
F3 Fe2 2.004664 1_555
F3 Fe3 2.347316 1_554
F4 Fe7 2.004655 1_555
F4 Fe4 2.347311 1_555
F5 Fe4 2.004664 1_555
F5 Fe5 2.347316 1_556
F6 Fe0 2.004664 1_555
F6 Fe6 2.347316 1_556
F7 Fe1 2.004664 1_555
F7 Fe7 2.347316 1_554
F8 Fe7 2.181087 1_554
F8 Fe4 2.181087 1_554
F8 Fe5 2.181087 1_555
F8 Fe1 2.181087 1_555
F9 Fe2 2.181087 1_555
F9 Fe3 2.181087 1_554
F9 Fe0 2.181087 1_554
F9 Fe6 2.181087 1_555
