# generated using pymatgen
data_Li9Mn2Co5O16
_symmetry_space_group_name_H-M   'P 1'
_cell_length_a   2.96340700
_cell_length_b   10.14748965
_cell_length_c   10.70841678
_cell_angle_alpha   114.31954882
_cell_angle_beta   96.03396318
_cell_angle_gamma   91.30986392
_symmetry_Int_Tables_number   1
_chemical_formula_structural   Li9Mn2Co5O16
_chemical_formula_sum   'Li9 Mn2 Co5 O16'
_cell_volume   291.03546673
_cell_formula_units_Z   1
loop_
 _symmetry_equiv_pos_site_id
 _symmetry_equiv_pos_as_xyz
  1  'x, y, z'
loop_
 _atom_site_type_symbol
 _atom_site_label
 _atom_site_symmetry_multiplicity
 _atom_site_fract_x
 _atom_site_fract_y
 _atom_site_fract_z
 _atom_site_occupancy
  Li  Li0  1  0.12673100  0.93499800  0.24929200  1
  Li  Li1  1  0.87658100  0.06101900  0.74930100  1
  Li  Li2  1  0.63355800  0.19015200  0.25750900  1
  Li  Li3  1  0.61892000  0.67916600  0.24179600  1
  Li  Li4  1  0.37579400  0.81016700  0.74736000  1
  Li  Li5  1  0.11523900  0.44198600  0.24516800  1
  Li  Li6  1  0.88032500  0.56581500  0.75229200  1
  Li  Li7  1  0.36846800  0.31707200  0.75122400  1
  Li  Li8  1  0.01313500  0.50295400  0.00858100  1
  Mn  Mn0  1  0.99321900  0.99616100  0.99758100  1
  Mn  Mn1  1  0.49749500  0.25862100  0.00093300  1
  Co  Co0  1  0.75218900  0.12472100  0.50030100  1
  Co  Co1  1  0.24828200  0.37525000  0.50008400  1
  Co  Co2  1  0.74886000  0.62434900  0.49855900  1
  Co  Co3  1  0.50683100  0.73753200  0.99895600  1
  Co  Co4  1  0.25030800  0.87582700  0.50101500  1
  O  O0  1  0.58205200  0.95533400  0.11033000  1
  O  O1  1  0.31078900  0.09012100  0.61616500  1
  O  O2  1  0.03179900  0.21358500  0.10560800  1
  O  O3  1  0.09068700  0.72285000  0.11491000  1
  O  O4  1  0.81166100  0.83975200  0.61559700  1
  O  O5  1  0.56399000  0.45161200  0.11804000  1
  O  O6  1  0.31360900  0.58934200  0.61378200  1
  O  O7  1  0.81664300  0.33831300  0.61752800  1
  O  O8  1  0.68970200  0.91300800  0.38638500  1
  O  O9  1  0.40633200  0.03978500  0.88616600  1
  O  O10  1  0.18950700  0.16117100  0.38296600  1
  O  O11  1  0.18342000  0.66125600  0.38486300  1
  O  O12  1  0.91721100  0.78681000  0.88614700  1
  O  O13  1  0.68839300  0.40873000  0.38585000  1
  O  O14  1  0.43874100  0.55376100  0.88452100  1
  O  O15  1  0.95952900  0.27878000  0.89118900  1
loop_
_geom_bond_atom_site_label_1
_geom_bond_atom_site_label_2
_geom_bond_distance
_geom_bond_site_symmetry_2
Li0 O3 2.030322 1_555
Li0 O8 2.130387 1_455
Li0 O10 2.137669 1_565
Li0 O0 2.150684 1_455
Li0 O0 2.177118 1_555
Li0 O8 2.181779 1_555
Li1 O15 2.093600 1_555
Li1 O4 2.098300 1_545
Li1 O9 2.109686 1_655
Li1 O1 2.119084 1_655
Li1 O1 2.190400 1_555
Li1 O9 2.193660 1_555
Li2 O13 2.064131 1_555
Li2 O10 2.074204 1_555
Li2 O10 2.118453 1_655
Li2 O2 2.191920 1_655
Li2 O0 2.241577 1_545
Li2 O2 2.368665 1_555
Li3 O5 2.128779 1_555
Li3 O3 2.138629 1_555
Li3 O11 2.163320 1_555
Li3 O3 2.205522 1_655
Li3 O11 2.209741 1_655
Li3 O8 2.225948 1_555
Li4 O6 2.094509 1_555
Li4 O4 2.112736 1_555
Li4 O12 2.155311 1_555
Li4 O4 2.179833 1_455
Li4 O9 2.180859 1_565
Li4 O12 2.193568 1_455
Li5 O5 2.028652 1_555
Li5 O5 2.044662 1_455
Li5 O11 2.098521 1_555
Li5 O2 2.170139 1_555
Li5 O13 2.187058 1_455
Li5 O13 2.274913 1_555
Li6 O14 2.063302 1_555
Li6 O12 2.098529 1_555
Li6 O14 2.101812 1_655
Li6 O6 2.140940 1_655
Li6 O7 2.150932 1_555
Li6 O6 2.205373 1_555
Li7 O7 2.121530 1_555
Li7 O7 2.132691 1_455
Li7 O1 2.147396 1_555
Li7 O15 2.169331 1_455
Li7 O14 2.222695 1_555
Li7 O15 2.328995 1_555
Li8 O3 2.038938 1_555
Li8 O5 2.053328 1_455
Li8 O15 2.089592 1_454
Li8 O5 2.109427 1_555
Li8 O14 2.123224 1_554
Li8 O14 2.248753 1_454
Mn0 O0 1.952483 1_556
Mn0 O12 1.954826 1_555
Mn0 O9 1.958422 1_665
Mn0 O2 2.019293 1_666
Mn0 O0 2.162484 1_656
Mn0 O9 2.162899 1_565
Mn1 O5 1.831471 1_555
Mn1 O15 1.945111 1_454
Mn1 O15 1.954758 1_554
Mn1 O2 2.013500 1_655
Mn1 O2 2.021906 1_555
Mn1 O9 2.041942 1_554
Co0 O8 1.978274 1_545
Co0 O7 1.999924 1_555
Co0 O1 2.013119 1_555
Co0 O10 2.024406 1_655
Co0 O1 2.087212 1_655
Co0 O10 2.113398 1_555
Co1 O13 1.992553 1_555
Co1 O6 1.998047 1_555
Co1 O10 2.003786 1_555
Co1 O7 2.015648 1_455
Co1 O13 2.075102 1_455
Co1 O7 2.128557 1_555
Co2 O11 1.991001 1_655
Co2 O6 1.996719 1_555
Co2 O13 2.009390 1_555
Co2 O4 2.014725 1_555
Co2 O6 2.098459 1_655
Co2 O11 2.098967 1_555
Co3 O14 1.751720 1_555
Co3 O3 1.884320 1_556
Co3 O12 1.991700 1_555
Co3 O0 2.026655 1_556
Co3 O3 2.066414 1_656
Co3 O12 2.203646 1_455
Co4 O1 2.002111 1_565
Co4 O4 2.003184 1_455
Co4 O11 2.006251 1_555
Co4 O8 2.009880 1_555
Co4 O4 2.091766 1_555
Co4 O8 2.095338 1_455
