# generated using pymatgen
data_RbDy2Ag3Te5
_symmetry_space_group_name_H-M   'P 1'
_cell_length_a   4.57828400
_cell_length_b   8.47498744
_cell_length_c   18.50149200
_cell_angle_alpha   90.00000000
_cell_angle_beta   90.00000000
_cell_angle_gamma   105.67055380
_symmetry_Int_Tables_number   1
_chemical_formula_structural   RbDy2Ag3Te5
_chemical_formula_sum   'Rb2 Dy4 Ag6 Te10'
_cell_volume   691.19162845
_cell_formula_units_Z   2
loop_
 _symmetry_equiv_pos_site_id
 _symmetry_equiv_pos_as_xyz
  1  'x, y, z'
loop_
 _atom_site_type_symbol
 _atom_site_label
 _atom_site_symmetry_multiplicity
 _atom_site_fract_x
 _atom_site_fract_y
 _atom_site_fract_z
 _atom_site_occupancy
  Rb  Rb0  1  0.44252000  0.88504000  0.25000000  1
  Rb  Rb1  1  0.55748000  0.11496000  0.75000000  1
  Dy  Dy0  1  0.30891500  0.61783000  0.90542700  1
  Dy  Dy1  1  0.69108500  0.38217000  0.09457300  1
  Dy  Dy2  1  0.30891500  0.61783000  0.59457300  1
  Dy  Dy3  1  0.69108500  0.38217000  0.40542700  1
  Ag  Ag0  1  0.16376400  0.32752800  0.25000000  1
  Ag  Ag1  1  0.83623600  0.67247200  0.75000000  1
  Ag  Ag2  1  0.91577000  0.83154000  0.46808100  1
  Ag  Ag3  1  0.08423000  0.16846000  0.53191900  1
  Ag  Ag4  1  0.91577000  0.83154000  0.03191900  1
  Ag  Ag5  1  0.08423000  0.16846000  0.96808100  1
  Te  Te0  1  0.93695800  0.87391600  0.87867600  1
  Te  Te1  1  0.06304200  0.12608400  0.12132400  1
  Te  Te2  1  0.93695800  0.87391600  0.62132400  1
  Te  Te3  1  0.06304200  0.12608400  0.37867600  1
  Te  Te4  1  0.67679500  0.35359000  0.92796500  1
  Te  Te5  1  0.32320500  0.64641000  0.07203500  1
  Te  Te6  1  0.67679500  0.35359000  0.57203500  1
  Te  Te7  1  0.32320500  0.64641000  0.42796500  1
  Te  Te8  1  0.76070300  0.52140500  0.25000000  1
  Te  Te9  1  0.23929700  0.47859500  0.75000000  1
loop_
_geom_bond_atom_site_label_1
_geom_bond_atom_site_label_2
_geom_bond_distance
_geom_bond_site_symmetry_2
Rb0 Te8 3.747633 1_455
Rb0 Te8 3.747636 1_555
Rb0 Te7 3.825308 1_555
Rb0 Te5 3.825308 1_555
Rb0 Te1 3.844040 1_565
Rb0 Te1 3.844040 1_665
Rb0 Te3 3.844040 1_665
Rb0 Te3 3.844040 1_565
Rb1 Te9 3.747633 1_655
Rb1 Te9 3.747636 1_555
Rb1 Te6 3.825308 1_555
Rb1 Te4 3.825308 1_555
Rb1 Te2 3.844040 1_545
Rb1 Te0 3.844040 1_545
Rb1 Te2 3.844040 1_445
Rb1 Te0 3.844040 1_445
Dy0 Te5 3.091306 1_556
Dy0 Te9 3.091942 1_555
Dy0 Te0 3.138757 1_555
Dy0 Te0 3.138757 1_455
Dy0 Te4 3.172257 1_555
Dy0 Te4 3.172257 1_455
Dy1 Te4 3.091306 1_554
Dy1 Te8 3.091942 1_555
Dy1 Te1 3.138757 1_555
Dy1 Te1 3.138757 1_655
Dy1 Te5 3.172257 1_555
Dy1 Te5 3.172257 1_655
Dy2 Te7 3.091306 1_555
Dy2 Te9 3.091942 1_555
Dy2 Te2 3.138757 1_555
Dy2 Te2 3.138757 1_455
Dy2 Te6 3.172257 1_555
Dy2 Te6 3.172257 1_455
Dy3 Te6 3.091306 1_555
Dy3 Te8 3.091942 1_555
Dy3 Te3 3.138757 1_555
Dy3 Te3 3.138757 1_655
Dy3 Te7 3.172257 1_555
Dy3 Te7 3.172257 1_655
Ag0 Te8 2.782622 1_455
Ag0 Te8 2.782626 1_555
Ag0 Te1 2.893049 1_555
Ag0 Te3 2.893049 1_555
Ag1 Te9 2.782622 1_655
Ag1 Te9 2.782626 1_555
Ag1 Te0 2.893049 1_555
Ag1 Te2 2.893049 1_555
Ag2 Te7 2.841324 1_655
Ag2 Te7 2.841324 1_555
Ag2 Te2 2.856233 1_555
Ag2 Te3 2.917672 1_665
Ag3 Te6 2.841324 1_555
Ag3 Te6 2.841324 1_455
Ag3 Te3 2.856233 1_555
Ag3 Te2 2.917672 1_445
Ag4 Te5 2.841324 1_655
Ag4 Te5 2.841324 1_555
Ag4 Te0 2.856233 1_554
Ag4 Te1 2.917672 1_665
Ag5 Te4 2.841324 1_555
Ag5 Te4 2.841324 1_455
Ag5 Te1 2.856233 1_556
Ag5 Te0 2.917672 1_445
