# generated using pymatgen
data_Ho11Cd45
_symmetry_space_group_name_H-M   'P 1'
_cell_length_a   15.34883314
_cell_length_b   15.34883314
_cell_length_c   15.34883314
_cell_angle_alpha   60.00000000
_cell_angle_beta   60.00000000
_cell_angle_gamma   60.00000000
_symmetry_Int_Tables_number   1
_chemical_formula_structural   Ho11Cd45
_chemical_formula_sum   'Ho22 Cd90'
_cell_volume   2556.88442107
_cell_formula_units_Z   2
loop_
 _symmetry_equiv_pos_site_id
 _symmetry_equiv_pos_as_xyz
  1  'x, y, z'
loop_
 _atom_site_type_symbol
 _atom_site_label
 _atom_site_symmetry_multiplicity
 _atom_site_fract_x
 _atom_site_fract_y
 _atom_site_fract_z
 _atom_site_occupancy
  Ho  Ho0  1  0.00000000  0.00000000  0.00000000  1
  Ho  Ho1  1  0.01378700  0.33389600  0.63853000  1
  Ho  Ho2  1  0.01378700  0.01378700  0.63853000  1
  Ho  Ho3  1  0.33389600  0.01378700  0.63853000  1
  Ho  Ho4  1  0.01378700  0.63853000  0.33389600  1
  Ho  Ho5  1  0.33389600  0.63853000  0.01378700  1
  Ho  Ho6  1  0.01378700  0.63853000  0.01378700  1
  Ho  Ho7  1  0.63853000  0.01378700  0.01378700  1
  Ho  Ho8  1  0.63853000  0.33389600  0.01378700  1
  Ho  Ho9  1  0.63853000  0.01378700  0.33389600  1
  Ho  Ho10  1  0.33389600  0.01378700  0.01378700  1
  Ho  Ho11  1  0.01378700  0.01378700  0.33389600  1
  Ho  Ho12  1  0.01378700  0.33389600  0.01378700  1
  Ho  Ho13  1  0.25000000  0.25000000  0.25000000  1
  Ho  Ho14  1  0.40625700  0.40625700  0.78123000  1
  Ho  Ho15  1  0.40625700  0.78123000  0.40625700  1
  Ho  Ho16  1  0.78123000  0.40625700  0.40625700  1
  Ho  Ho17  1  0.40625700  0.40625700  0.40625700  1
  Ho  Ho18  1  0.66195500  0.66195500  0.01413400  1
  Ho  Ho19  1  0.66195500  0.01413400  0.66195500  1
  Ho  Ho20  1  0.01413400  0.66195500  0.66195500  1
  Ho  Ho21  1  0.66195500  0.66195500  0.66195500  1
  Cd  Cd0  1  0.08324200  0.08324200  0.75027500  1
  Cd  Cd1  1  0.08324200  0.75027500  0.08324200  1
  Cd  Cd2  1  0.75027500  0.08324200  0.08324200  1
  Cd  Cd3  1  0.08324200  0.08324200  0.08324200  1
  Cd  Cd4  1  0.91325600  0.91325600  0.26023300  1
  Cd  Cd5  1  0.91325600  0.26023300  0.91325600  1
  Cd  Cd6  1  0.26023300  0.91325600  0.91325600  1
  Cd  Cd7  1  0.91325600  0.91325600  0.91325600  1
  Cd  Cd8  1  0.15633600  0.15633600  0.84366400  1
  Cd  Cd9  1  0.84366400  0.15633600  0.84366400  1
  Cd  Cd10  1  0.15633600  0.84366400  0.84366400  1
  Cd  Cd11  1  0.84366400  0.84366400  0.15633600  1
  Cd  Cd12  1  0.15633600  0.84366400  0.15633600  1
  Cd  Cd13  1  0.84366400  0.15633600  0.15633600  1
  Cd  Cd14  1  0.39057600  0.20112800  0.01771900  1
  Cd  Cd15  1  0.39057600  0.39057600  0.01771900  1
  Cd  Cd16  1  0.20112800  0.39057600  0.01771900  1
  Cd  Cd17  1  0.39057600  0.01771900  0.20112800  1
  Cd  Cd18  1  0.20112800  0.01771900  0.39057600  1
  Cd  Cd19  1  0.39057600  0.01771900  0.39057600  1
  Cd  Cd20  1  0.01771900  0.39057600  0.39057600  1
  Cd  Cd21  1  0.01771900  0.20112800  0.39057600  1
  Cd  Cd22  1  0.01771900  0.39057600  0.20112800  1
  Cd  Cd23  1  0.20112800  0.39057600  0.39057600  1
  Cd  Cd24  1  0.39057600  0.39057600  0.20112800  1
  Cd  Cd25  1  0.39057600  0.20112800  0.39057600  1
  Cd  Cd26  1  0.16351600  0.16351600  0.50945300  1
  Cd  Cd27  1  0.16351600  0.50945300  0.16351600  1
  Cd  Cd28  1  0.50945300  0.16351600  0.16351600  1
  Cd  Cd29  1  0.16351600  0.16351600  0.16351600  1
  Cd  Cd30  1  0.26319600  0.61189900  0.86170900  1
  Cd  Cd31  1  0.26319600  0.26319600  0.86170900  1
  Cd  Cd32  1  0.61189900  0.26319600  0.86170900  1
  Cd  Cd33  1  0.26319600  0.86170900  0.61189900  1
  Cd  Cd34  1  0.61189900  0.86170900  0.26319600  1
  Cd  Cd35  1  0.26319600  0.86170900  0.26319600  1
  Cd  Cd36  1  0.86170900  0.26319600  0.26319600  1
  Cd  Cd37  1  0.86170900  0.61189900  0.26319600  1
  Cd  Cd38  1  0.86170900  0.26319600  0.61189900  1
  Cd  Cd39  1  0.61189900  0.26319600  0.26319600  1
  Cd  Cd40  1  0.26319600  0.26319600  0.61189900  1
  Cd  Cd41  1  0.26319600  0.61189900  0.26319600  1
  Cd  Cd42  1  0.50000000  0.50000000  0.50000000  1
  Cd  Cd43  1  0.64042300  0.45041400  0.26874000  1
  Cd  Cd44  1  0.64042300  0.64042300  0.26874000  1
  Cd  Cd45  1  0.45041400  0.64042300  0.26874000  1
  Cd  Cd46  1  0.64042300  0.26874000  0.45041400  1
  Cd  Cd47  1  0.45041400  0.26874000  0.64042300  1
  Cd  Cd48  1  0.64042300  0.26874000  0.64042300  1
  Cd  Cd49  1  0.26874000  0.64042300  0.64042300  1
  Cd  Cd50  1  0.26874000  0.45041400  0.64042300  1
  Cd  Cd51  1  0.26874000  0.64042300  0.45041400  1
  Cd  Cd52  1  0.45041400  0.64042300  0.64042300  1
  Cd  Cd53  1  0.64042300  0.64042300  0.45041400  1
  Cd  Cd54  1  0.64042300  0.45041400  0.64042300  1
  Cd  Cd55  1  0.51235900  0.83380300  0.14147900  1
  Cd  Cd56  1  0.51235900  0.51235900  0.14147900  1
  Cd  Cd57  1  0.83380300  0.51235900  0.14147900  1
  Cd  Cd58  1  0.51235900  0.14147900  0.83380300  1
  Cd  Cd59  1  0.83380300  0.14147900  0.51235900  1
  Cd  Cd60  1  0.51235900  0.14147900  0.51235900  1
  Cd  Cd61  1  0.14147900  0.51235900  0.51235900  1
  Cd  Cd62  1  0.14147900  0.83380300  0.51235900  1
  Cd  Cd63  1  0.14147900  0.51235900  0.83380300  1
  Cd  Cd64  1  0.83380300  0.51235900  0.51235900  1
  Cd  Cd65  1  0.51235900  0.51235900  0.83380300  1
  Cd  Cd66  1  0.51235900  0.83380300  0.51235900  1
  Cd  Cd67  1  0.75000000  0.75000000  0.75000000  1
  Cd  Cd68  1  0.83002000  0.83002000  0.50993900  1
  Cd  Cd69  1  0.83002000  0.50993900  0.83002000  1
  Cd  Cd70  1  0.50993900  0.83002000  0.83002000  1
  Cd  Cd71  1  0.83002000  0.83002000  0.83002000  1
  Cd  Cd72  1  0.91099600  0.91099600  0.58900400  1
  Cd  Cd73  1  0.58900400  0.91099600  0.58900400  1
  Cd  Cd74  1  0.91099600  0.58900400  0.58900400  1
  Cd  Cd75  1  0.58900400  0.58900400  0.91099600  1
  Cd  Cd76  1  0.91099600  0.58900400  0.91099600  1
  Cd  Cd77  1  0.58900400  0.91099600  0.91099600  1
  Cd  Cd78  1  0.76393100  0.06750600  0.40463100  1
  Cd  Cd79  1  0.76393100  0.76393100  0.40463100  1
  Cd  Cd80  1  0.06750600  0.76393100  0.40463100  1
  Cd  Cd81  1  0.76393100  0.40463100  0.06750600  1
  Cd  Cd82  1  0.06750600  0.40463100  0.76393100  1
  Cd  Cd83  1  0.76393100  0.40463100  0.76393100  1
  Cd  Cd84  1  0.40463100  0.76393100  0.76393100  1
  Cd  Cd85  1  0.40463100  0.06750600  0.76393100  1
  Cd  Cd86  1  0.40463100  0.76393100  0.06750600  1
  Cd  Cd87  1  0.06750600  0.76393100  0.76393100  1
  Cd  Cd88  1  0.76393100  0.76393100  0.06750600  1
  Cd  Cd89  1  0.76393100  0.06750600  0.76393100  1
loop_
_geom_bond_atom_site_label_1
_geom_bond_atom_site_label_2
_geom_bond_distance
_geom_bond_site_symmetry_2
Cd0 Cd8 3.007825 1_555
Cd0 Cd9 3.007837 1_455
Cd0 Cd10 3.007837 1_545
Cd0 Cd26 3.018046 1_555
Cd0 Ho0 3.129621 1_556
Cd0 Ho3 3.163540 1_555
Cd0 Ho1 3.163540 1_555
Cd0 Ho2 3.163552 1_555
Cd1 Cd12 3.007825 1_555
Cd1 Cd10 3.007837 1_554
Cd1 Cd11 3.007837 1_455
Cd1 Cd27 3.018046 1_555
Cd1 Ho0 3.129621 1_565
Cd1 Ho5 3.163540 1_555
Cd1 Ho4 3.163540 1_555
Cd1 Ho6 3.163552 1_555
Cd2 Cd9 3.007837 1_554
Cd2 Cd28 3.018046 1_555
Cd2 Ho0 3.129621 1_655
Cd2 Ho8 3.163540 1_555
Cd2 Ho9 3.163540 1_555
Cd2 Ho7 3.163552 1_555
Cd3 Cd8 3.007838 1_554
Cd3 Ho0 3.129634 1_555
Cd3 Ho10 3.163538 1_555
Cd3 Ho12 3.163538 1_555
Cd3 Ho11 3.163538 1_555
Cd4 Cd68 3.129383 1_555
Cd4 Cd78 3.242187 1_565
Cd4 Cd80 3.242187 1_655
Cd4 Cd79 3.242209 1_555
Cd4 Ho0 3.261310 1_665
Cd4 Ho11 3.451151 1_665
Cd4 Ho9 3.451164 1_565
Cd4 Ho4 3.451164 1_655
Cd5 Cd8 3.061475 1_655
Cd5 Cd9 3.061487 1_555
Cd5 Cd69 3.129383 1_555
Cd5 Cd81 3.242187 1_556
Cd5 Cd82 3.242187 1_655
Cd5 Cd83 3.242209 1_555
Cd5 Ho0 3.261310 1_656
Cd5 Ho12 3.451151 1_656
Cd5 Ho8 3.451164 1_556
Cd5 Ho1 3.451164 1_655
Cd6 Cd8 3.061475 1_565
Cd6 Cd70 3.129383 1_555
Cd6 Cd86 3.242187 1_556
Cd6 Cd85 3.242187 1_565
Cd6 Cd84 3.242209 1_555
Cd6 Ho0 3.261310 1_566
Cd6 Ho10 3.451151 1_566
Cd6 Ho3 3.451164 1_565
Cd6 Ho5 3.451164 1_556
Cd7 Cd9 3.061474 1_565
Cd7 Cd71 3.129408 1_555
Cd7 Cd89 3.242209 1_565
Cd7 Cd88 3.242209 1_556
Cd7 Cd87 3.242209 1_655
Cd7 Ho0 3.261298 1_666
Cd7 Ho2 3.451163 1_665
Cd7 Ho6 3.451163 1_656
Cd7 Ho7 3.451163 1_566
Cd8 Cd85 3.112744 1_555
Cd8 Cd82 3.112744 1_555
Cd8 Ho0 3.393512 1_556
Cd8 Ho3 3.804368 1_555
Cd8 Ho1 3.804368 1_555
Cd8 Ho12 3.804368 1_556
Cd8 Ho10 3.804368 1_556
Cd9 Ho0 3.393512 1_656
Cd9 Ho2 3.804368 1_655
Cd9 Ho7 3.804368 1_556
Cd9 Ho8 3.804368 1_556
Cd9 Ho1 3.804368 1_655
Cd10 Cd33 3.009287 1_555
Cd10 Cd30 3.009287 1_555
Cd10 Cd7 3.061474 1_455
Cd10 Cd6 3.061487 1_555
Cd10 Cd84 3.112744 1_555
Cd10 Cd87 3.112757 1_555
Cd10 Ho0 3.393512 1_566
Cd10 Ho2 3.804368 1_565
Cd10 Ho6 3.804368 1_556
Cd10 Ho3 3.804368 1_565
Cd10 Ho5 3.804368 1_556
Cd11 Cd2 3.007837 1_565
Cd11 Cd34 3.009287 1_555
Cd11 Cd37 3.009287 1_555
Cd11 Cd7 3.061474 1_554
Cd11 Cd4 3.061487 1_555
Cd11 Cd79 3.112744 1_555
Cd11 Cd88 3.112757 1_555
Cd11 Ho0 3.393512 1_665
Cd11 Ho6 3.804368 1_655
Cd11 Ho7 3.804368 1_565
Cd11 Ho9 3.804368 1_565
Cd11 Ho4 3.804368 1_655
Cd12 Cd3 3.007838 1_565
Cd12 Cd35 3.009287 1_555
Cd12 Cd41 3.009287 1_555
Cd12 Cd4 3.061475 1_455
Cd12 Cd6 3.061475 1_554
Cd12 Cd80 3.112744 1_555
Cd12 Cd86 3.112744 1_555
Cd12 Ho0 3.393512 1_565
Cd12 Ho4 3.804368 1_555
Cd12 Ho5 3.804368 1_555
Cd12 Ho10 3.804368 1_565
Cd12 Ho11 3.804368 1_565
Cd13 Cd2 3.007825 1_555
Cd13 Cd3 3.007838 1_655
Cd13 Cd36 3.009287 1_555
Cd13 Cd39 3.009287 1_555
Cd13 Cd4 3.061475 1_545
Cd13 Cd5 3.061475 1_554
Cd13 Cd81 3.112744 1_555
Cd13 Cd78 3.112744 1_555
Cd13 Ho0 3.393512 1_655
Cd13 Ho8 3.804368 1_555
Cd13 Ho9 3.804368 1_555
Cd13 Ho12 3.804368 1_655
Cd13 Ho11 3.804368 1_655
Cd14 Cd58 2.810242 1_554
Cd14 Cd17 2.815114 1_555
Cd14 Cd16 2.907806 1_555
Cd14 Cd15 2.907806 1_555
Cd14 Cd29 3.226158 1_555
Cd14 Cd28 3.226183 1_555
Cd14 Cd31 3.316922 1_554
Cd14 Cd32 3.316935 1_554
Cd14 Ho13 3.360421 1_555
Cd14 Ho14 3.406208 1_554
Cd14 Ho10 3.428763 1_555
Cd14 Ho7 3.428773 1_555
Cd15 Cd65 2.810250 1_554
Cd15 Cd24 2.815114 1_555
Cd15 Cd16 2.907806 1_555
Cd15 Cd27 3.226169 1_555
Cd15 Cd28 3.226169 1_555
Cd15 Cd32 3.316928 1_554
Cd15 Cd30 3.316928 1_554
Cd15 Ho13 3.360414 1_555
Cd15 Ho14 3.406195 1_554
Cd15 Ho8 3.428778 1_555
Cd15 Ho5 3.428778 1_555
Cd16 Cd63 2.810242 1_554
Cd16 Cd22 2.815114 1_555
Cd16 Cd29 3.226158 1_555
Cd16 Cd27 3.226183 1_555
Cd16 Cd31 3.316922 1_554
Cd16 Cd30 3.316935 1_554
Cd16 Ho13 3.360421 1_555
Cd16 Ho14 3.406208 1_554
Cd16 Ho12 3.428763 1_555
Cd16 Ho6 3.428773 1_555
Cd17 Cd55 2.810242 1_545
Cd17 Cd19 2.907806 1_555
Cd17 Cd18 2.907806 1_555
Cd17 Cd29 3.226158 1_555
Cd17 Cd28 3.226183 1_555
Cd17 Cd35 3.316922 1_545
Cd17 Cd34 3.316935 1_545
Cd17 Ho13 3.360421 1_555
Cd17 Ho15 3.406208 1_545
Cd17 Ho10 3.428763 1_555
Cd17 Ho7 3.428773 1_555
Cd18 Cd62 2.810242 1_545
Cd18 Cd21 2.815114 1_555
Cd18 Cd19 2.907806 1_555
Cd18 Cd29 3.226158 1_555
Cd18 Cd26 3.226183 1_555
Cd18 Cd35 3.316922 1_545
Cd18 Cd33 3.316935 1_545
Cd18 Ho13 3.360421 1_555
Cd18 Ho15 3.406208 1_545
Cd18 Ho11 3.428763 1_555
Cd18 Ho2 3.428773 1_555
Cd19 Cd66 2.810250 1_545
Cd19 Cd25 2.815114 1_555
Cd19 Cd26 3.226169 1_555
Cd19 Cd28 3.226169 1_555
Cd19 Cd33 3.316928 1_545
Cd19 Cd34 3.316928 1_545
Cd19 Ho13 3.360414 1_555
Cd19 Ho15 3.406195 1_545
Cd19 Ho9 3.428778 1_555
Cd19 Ho3 3.428778 1_555
Cd20 Cd64 2.810250 1_455
Cd20 Cd23 2.815114 1_555
Cd20 Cd22 2.907806 1_555
Cd20 Cd21 2.907806 1_555
Cd20 Cd26 3.226169 1_555
Cd20 Cd27 3.226169 1_555
Cd20 Cd38 3.316928 1_455
Cd20 Cd37 3.316928 1_455
Cd20 Ho13 3.360414 1_555
Cd20 Ho16 3.406195 1_455
Cd20 Ho4 3.428778 1_555
Cd20 Ho1 3.428778 1_555
Cd21 Cd59 2.810242 1_455
Cd21 Cd22 2.907806 1_555
Cd21 Cd29 3.226158 1_555
Cd21 Cd26 3.226183 1_555
Cd21 Cd36 3.316922 1_455
Cd21 Cd38 3.316935 1_455
Cd21 Ho13 3.360421 1_555
Cd21 Ho16 3.406208 1_455
Cd21 Ho11 3.428763 1_555
Cd21 Ho2 3.428773 1_555
Cd22 Cd57 2.810242 1_455
Cd22 Cd29 3.226158 1_555
Cd22 Cd27 3.226183 1_555
Cd22 Cd36 3.316922 1_455
Cd22 Cd37 3.316935 1_455
Cd22 Ho13 3.360421 1_555
Cd22 Ho16 3.406208 1_455
Cd22 Ho12 3.428763 1_555
Cd22 Ho6 3.428773 1_555
Cd23 Cd61 2.810255 1_555
Cd23 Cd25 2.907806 1_555
Cd23 Cd24 2.907806 1_555
Cd23 Cd27 3.226156 1_555
Cd23 Cd26 3.226156 1_555
Cd23 Cd41 3.316936 1_555
Cd23 Cd40 3.316936 1_555
Cd23 Ho13 3.360408 1_555
Cd23 Ho17 3.406225 1_555
Cd23 Ho1 3.428771 1_555
Cd23 Ho4 3.428771 1_555
Cd24 Cd56 2.810255 1_555
Cd24 Cd25 2.907806 1_555
Cd24 Cd27 3.226156 1_555
Cd24 Cd28 3.226156 1_555
Cd24 Cd39 3.316936 1_555
Cd24 Cd41 3.316936 1_555
Cd24 Ho13 3.360408 1_555
Cd24 Ho17 3.406225 1_555
Cd24 Ho8 3.428771 1_555
Cd24 Ho5 3.428771 1_555
Cd25 Cd60 2.810255 1_555
Cd25 Cd28 3.226156 1_555
Cd25 Cd26 3.226156 1_555
Cd25 Cd39 3.316936 1_555
Cd25 Cd40 3.316936 1_555
Cd25 Ho13 3.360408 1_555
Cd25 Ho17 3.406225 1_555
Cd25 Ho9 3.428771 1_555
Cd25 Ho3 3.428771 1_555
Cd26 Ho13 3.251535 1_555
Cd26 Ho3 3.265506 1_555
Cd26 Ho1 3.265506 1_555
Cd26 Ho2 3.265518 1_555
Cd27 Ho13 3.251535 1_555
Cd27 Ho4 3.265506 1_555
Cd27 Ho5 3.265506 1_555
Cd27 Ho6 3.265518 1_555
Cd28 Ho13 3.251535 1_555
Cd28 Ho8 3.265506 1_555
Cd28 Ho9 3.265506 1_555
Cd28 Ho7 3.265518 1_555
Cd29 Cd3 3.018046 1_555
Cd29 Ho13 3.251522 1_555
Cd29 Ho10 3.265516 1_555
Cd29 Ho12 3.265516 1_555
Cd29 Ho11 3.265516 1_555
Cd30 Cd49 3.161681 1_555
Cd30 Cd52 3.161681 1_555
Cd30 Cd63 3.211983 1_555
Cd30 Cd65 3.211983 1_555
Cd30 Ho14 3.250514 1_555
Cd30 Cd84 3.273520 1_555
Cd30 Cd87 3.273532 1_555
Cd30 Ho6 3.274742 1_556
Cd30 Ho5 3.274742 1_556
Cd31 Cd8 3.009287 1_555
Cd31 Cd50 3.161681 1_555
Cd31 Cd47 3.161681 1_555
Cd31 Cd58 3.211983 1_555
Cd31 Cd63 3.211983 1_555
Cd31 Ho14 3.250527 1_555
Cd31 Cd85 3.273532 1_555
Cd31 Cd82 3.273532 1_555
Cd31 Ho10 3.274742 1_556
Cd31 Ho12 3.274742 1_556
Cd32 Cd9 3.009287 1_555
Cd32 Cd48 3.161681 1_555
Cd32 Cd54 3.161681 1_555
Cd32 Cd58 3.211983 1_555
Cd32 Cd65 3.211983 1_555
Cd32 Ho14 3.250514 1_555
Cd32 Cd83 3.273520 1_555
Cd32 Cd89 3.273532 1_555
Cd32 Ho7 3.274742 1_556
Cd32 Ho8 3.274742 1_556
Cd33 Cd49 3.161681 1_555
Cd33 Cd52 3.161681 1_555
Cd33 Cd62 3.211983 1_555
Cd33 Cd66 3.211983 1_555
Cd33 Ho15 3.250514 1_555
Cd33 Cd84 3.273520 1_555
Cd33 Cd87 3.273532 1_555
Cd33 Ho2 3.274742 1_565
Cd33 Ho3 3.274742 1_565
Cd34 Cd53 3.161681 1_555
Cd34 Cd44 3.161681 1_555
Cd34 Cd55 3.211983 1_555
Cd34 Cd66 3.211983 1_555
Cd34 Ho15 3.250514 1_555
Cd34 Cd79 3.273520 1_555
Cd34 Cd88 3.273532 1_555
Cd34 Ho7 3.274742 1_565
Cd34 Ho9 3.274742 1_565
Cd35 Cd51 3.161681 1_555
Cd35 Cd45 3.161681 1_555
Cd35 Cd55 3.211983 1_555
Cd35 Cd62 3.211983 1_555
Cd35 Ho15 3.250527 1_555
Cd35 Cd80 3.273532 1_555
Cd35 Cd86 3.273532 1_555
Cd35 Ho11 3.274742 1_565
Cd35 Ho10 3.274742 1_565
Cd36 Cd46 3.161681 1_555
Cd36 Cd43 3.161681 1_555
Cd36 Cd57 3.211983 1_555
Cd36 Cd59 3.211983 1_555
Cd36 Ho16 3.250527 1_555
Cd36 Cd78 3.273532 1_555
Cd36 Cd81 3.273532 1_555
Cd36 Ho12 3.274742 1_655
Cd36 Ho11 3.274742 1_655
Cd37 Cd53 3.161681 1_555
Cd37 Cd44 3.161681 1_555
Cd37 Cd57 3.211983 1_555
Cd37 Cd64 3.211983 1_555
Cd37 Ho16 3.250514 1_555
Cd37 Cd79 3.273520 1_555
Cd37 Cd88 3.273532 1_555
Cd37 Ho6 3.274742 1_655
Cd37 Ho4 3.274742 1_655
Cd38 Cd9 3.009287 1_555
Cd38 Cd48 3.161681 1_555
Cd38 Cd54 3.161681 1_555
Cd38 Cd59 3.211983 1_555
Cd38 Cd64 3.211983 1_555
Cd38 Ho16 3.250514 1_555
Cd38 Cd83 3.273520 1_555
Cd38 Cd89 3.273532 1_555
Cd38 Ho2 3.274742 1_655
Cd38 Ho1 3.274742 1_655
Cd39 Cd46 3.161681 1_555
Cd39 Cd43 3.161681 1_555
Cd39 Cd56 3.211983 1_555
Cd39 Cd60 3.211983 1_555
Cd39 Ho17 3.250522 1_555
Cd39 Cd78 3.273523 1_555
Cd39 Cd81 3.273523 1_555
Cd39 Ho8 3.274742 1_555
Cd39 Ho9 3.274742 1_555
Cd40 Cd8 3.009287 1_555
Cd40 Cd50 3.161681 1_555
Cd40 Cd47 3.161681 1_555
Cd40 Cd61 3.211983 1_555
Cd40 Cd60 3.211983 1_555
Cd40 Ho17 3.250522 1_555
Cd40 Cd82 3.273523 1_555
Cd40 Cd85 3.273523 1_555
Cd40 Ho1 3.274742 1_555
Cd40 Ho3 3.274742 1_555
Cd41 Cd51 3.161681 1_555
Cd41 Cd45 3.161681 1_555
Cd41 Cd56 3.211983 1_555
Cd41 Cd61 3.211983 1_555
Cd41 Ho17 3.250522 1_555
Cd41 Cd86 3.273523 1_555
Cd41 Cd80 3.273523 1_555
Cd41 Ho4 3.274742 1_555
Cd41 Ho5 3.274742 1_555
Cd42 Cd54 3.351835 1_555
Cd42 Cd52 3.351835 1_555
Cd42 Cd53 3.351835 1_555
Cd42 Cd49 3.351835 1_555
Cd42 Cd48 3.351835 1_555
Cd42 Cd44 3.351835 1_555
Cd42 Cd47 3.351835 1_555
Cd42 Cd43 3.351835 1_555
Cd42 Cd45 3.351835 1_555
Cd42 Cd51 3.351835 1_555
Cd42 Cd46 3.351835 1_555
Cd42 Cd50 3.351835 1_555
Cd42 Ho17 3.524438 1_555
Cd42 Ho16 3.524450 1_555
Cd42 Ho14 3.524450 1_555
Cd42 Ho15 3.524450 1_555
Cd43 Cd46 2.788484 1_555
Cd43 Cd44 2.916416 1_555
Cd43 Cd45 2.916416 1_555
Cd43 Cd81 2.934396 1_555
Cd43 Cd56 2.948989 1_555
Cd43 Cd57 2.948989 1_555
Cd43 Ho17 3.354358 1_555
Cd43 Ho16 3.354371 1_555
Cd43 Ho18 3.607810 1_555
Cd44 Cd53 2.788484 1_555
Cd44 Cd45 2.916416 1_555
Cd44 Cd88 2.934390 1_555
Cd44 Cd55 2.948989 1_555
Cd44 Cd57 2.948989 1_555
Cd44 Ho16 3.354364 1_555
Cd44 Ho15 3.354364 1_555
Cd44 Ho18 3.607816 1_555
Cd45 Cd51 2.788484 1_555
Cd45 Cd86 2.934396 1_555
Cd45 Cd56 2.948989 1_555
Cd45 Cd55 2.948989 1_555
Cd45 Ho17 3.354358 1_555
Cd45 Ho15 3.354371 1_555
Cd45 Ho18 3.607810 1_555
Cd46 Cd47 2.916416 1_555
Cd46 Cd48 2.916416 1_555
Cd46 Cd78 2.934396 1_555
Cd46 Cd60 2.948989 1_555
Cd46 Cd59 2.948989 1_555
Cd46 Ho17 3.354358 1_555
Cd46 Ho16 3.354371 1_555
Cd46 Ho19 3.607810 1_555
Cd47 Cd50 2.788484 1_555
Cd47 Cd48 2.916416 1_555
Cd47 Cd85 2.934396 1_555
Cd47 Cd60 2.948989 1_555
Cd47 Cd58 2.948989 1_555
Cd47 Ho17 3.354358 1_555
Cd47 Ho14 3.354371 1_555
Cd47 Ho19 3.607810 1_555
Cd48 Cd54 2.788484 1_555
Cd48 Cd89 2.934390 1_555
Cd48 Cd59 2.948989 1_555
Cd48 Cd58 2.948989 1_555
Cd48 Ho14 3.354364 1_555
Cd48 Ho16 3.354364 1_555
Cd48 Ho19 3.607816 1_555
Cd49 Cd52 2.788484 1_555
Cd49 Cd50 2.916416 1_555
Cd49 Cd51 2.916416 1_555
Cd49 Cd87 2.934390 1_555
Cd49 Cd63 2.948989 1_555
Cd49 Cd62 2.948989 1_555
Cd49 Ho14 3.354364 1_555
Cd49 Ho15 3.354364 1_555
Cd49 Ho20 3.607816 1_555
Cd50 Cd51 2.916416 1_555
Cd50 Cd82 2.934396 1_555
Cd50 Cd61 2.948989 1_555
Cd50 Cd63 2.948989 1_555
Cd50 Ho17 3.354358 1_555
Cd50 Ho14 3.354371 1_555
Cd50 Ho20 3.607810 1_555
Cd51 Cd80 2.934396 1_555
Cd51 Cd61 2.948989 1_555
Cd51 Cd62 2.948989 1_555
Cd51 Ho17 3.354358 1_555
Cd51 Ho15 3.354371 1_555
Cd51 Ho20 3.607810 1_555
Cd52 Cd53 2.916416 1_555
Cd52 Cd54 2.916416 1_555
Cd52 Cd84 2.934383 1_555
Cd52 Cd65 2.948989 1_555
Cd52 Cd66 2.948989 1_555
Cd52 Ho15 3.354358 1_555
Cd52 Ho14 3.354358 1_555
Cd52 Ho21 3.607801 1_555
Cd53 Cd54 2.916416 1_555
Cd53 Cd79 2.934383 1_555
Cd53 Cd64 2.948989 1_555
Cd53 Cd66 2.948989 1_555
Cd53 Ho15 3.354358 1_555
Cd53 Ho16 3.354358 1_555
Cd53 Ho21 3.607801 1_555
Cd54 Cd83 2.934383 1_555
Cd54 Cd64 2.948989 1_555
Cd54 Cd65 2.948989 1_555
Cd54 Ho14 3.354358 1_555
Cd54 Ho16 3.354358 1_555
Cd54 Ho21 3.607801 1_555
Cd55 Cd77 2.888479 1_554
Cd55 Cd88 3.168850 1_555
Cd55 Cd86 3.168863 1_555
Cd55 Ho18 3.265132 1_555
Cd55 Ho15 3.352004 1_555
Cd55 Ho10 3.370942 1_565
Cd55 Ho7 3.370942 1_565
Cd56 Cd75 2.888479 1_554
Cd56 Cd81 3.168851 1_555
Cd56 Cd86 3.168851 1_555
Cd56 Ho18 3.265120 1_555
Cd56 Ho17 3.352002 1_555
Cd56 Ho5 3.370942 1_555
Cd56 Ho8 3.370942 1_555
Cd57 Cd76 2.888479 1_554
Cd57 Cd88 3.168850 1_555
Cd57 Cd81 3.168863 1_555
Cd57 Ho18 3.265132 1_555
Cd57 Ho16 3.352004 1_555
Cd57 Ho12 3.370942 1_655
Cd57 Ho6 3.370942 1_655
Cd58 Cd77 2.888479 1_545
Cd58 Cd89 3.168850 1_555
Cd58 Cd85 3.168863 1_555
Cd58 Ho19 3.265132 1_555
Cd58 Ho14 3.352004 1_555
Cd58 Ho10 3.370942 1_556
Cd58 Ho7 3.370942 1_556
Cd59 Cd72 2.888479 1_545
Cd59 Cd89 3.168850 1_555
Cd59 Cd78 3.168863 1_555
Cd59 Ho19 3.265132 1_555
Cd59 Ho16 3.352004 1_555
Cd59 Ho11 3.370942 1_655
Cd59 Ho2 3.370942 1_655
Cd60 Cd73 2.888479 1_545
Cd60 Cd78 3.168851 1_555
Cd60 Cd85 3.168851 1_555
Cd60 Ho19 3.265120 1_555
Cd60 Ho17 3.352002 1_555
Cd60 Ho3 3.370942 1_555
Cd60 Ho9 3.370942 1_555
Cd61 Cd74 2.888479 1_455
Cd61 Cd82 3.168851 1_555
Cd61 Cd80 3.168851 1_555
Cd61 Ho20 3.265120 1_555
Cd61 Ho17 3.352002 1_555
Cd61 Ho4 3.370942 1_555
Cd61 Ho1 3.370942 1_555
Cd62 Cd72 2.888479 1_455
Cd62 Cd87 3.168850 1_555
Cd62 Cd80 3.168863 1_555
Cd62 Ho20 3.265132 1_555
Cd62 Ho15 3.352004 1_555
Cd62 Ho11 3.370942 1_565
Cd62 Ho2 3.370942 1_565
Cd63 Cd76 2.888479 1_455
Cd63 Cd87 3.168850 1_555
Cd63 Cd82 3.168863 1_555
Cd63 Ho20 3.265132 1_555
Cd63 Ho14 3.352004 1_555
Cd63 Ho12 3.370942 1_556
Cd63 Ho6 3.370942 1_556
Cd64 Cd74 2.888479 1_555
Cd64 Cd79 3.168851 1_555
Cd64 Cd83 3.168851 1_555
Cd64 Ho21 3.265122 1_555
Cd64 Ho16 3.351991 1_555
Cd64 Ho4 3.370942 1_655
Cd64 Ho1 3.370942 1_655
Cd65 Cd75 2.888479 1_555
Cd65 Cd83 3.168851 1_555
Cd65 Cd84 3.168851 1_555
Cd65 Ho21 3.265122 1_555
Cd65 Ho14 3.351991 1_555
Cd65 Ho8 3.370942 1_556
Cd65 Ho5 3.370942 1_556
Cd66 Cd73 2.888479 1_555
Cd66 Cd79 3.168851 1_555
Cd66 Cd84 3.168851 1_555
Cd66 Ho21 3.265122 1_555
Cd66 Ho15 3.351991 1_555
Cd66 Ho9 3.370942 1_565
Cd66 Ho3 3.370942 1_565
Cd67 Cd71 3.008497 1_555
Cd67 Cd68 3.008509 1_555
Cd67 Cd69 3.008509 1_555
Cd67 Cd70 3.008509 1_555
Cd67 Ho19 3.310199 1_565
Cd67 Ho18 3.310199 1_556
Cd67 Ho20 3.310199 1_655
Cd67 Ho21 3.310211 1_555
Cd68 Cd79 2.996462 1_555
Cd68 Cd80 2.996462 1_655
Cd68 Cd78 2.996462 1_565
Cd68 Cd73 3.020525 1_555
Cd68 Cd74 3.020525 1_555
Cd68 Cd72 3.020538 1_555
Cd68 Ho21 3.656415 1_555
Cd68 Ho20 3.656415 1_655
Cd68 Ho19 3.656415 1_565
Cd69 Cd83 2.996462 1_555
Cd69 Cd82 2.996462 1_655
Cd69 Cd81 2.996462 1_556
Cd69 Cd74 3.020525 1_555
Cd69 Cd75 3.020525 1_555
Cd69 Cd76 3.020538 1_555
Cd69 Ho21 3.656415 1_555
Cd69 Ho20 3.656415 1_655
Cd69 Ho18 3.656415 1_556
Cd70 Cd84 2.996462 1_555
Cd70 Cd86 2.996462 1_556
Cd70 Cd85 2.996462 1_565
Cd70 Cd73 3.020525 1_555
Cd70 Cd75 3.020525 1_555
Cd70 Cd77 3.020538 1_555
Cd70 Ho21 3.656415 1_555
Cd70 Ho18 3.656415 1_556
Cd70 Ho19 3.656415 1_565
Cd71 Cd89 2.996462 1_565
Cd71 Cd88 2.996462 1_556
Cd71 Cd87 2.996462 1_655
Cd71 Cd77 3.020525 1_555
Cd71 Cd76 3.020525 1_555
Cd71 Cd72 3.020525 1_555
Cd71 Ho20 3.656415 1_655
Cd71 Ho19 3.656415 1_565
Cd71 Ho18 3.656415 1_556
Cd72 Ho20 3.132492 1_655
Cd72 Ho19 3.132492 1_565
Cd72 Ho11 3.231739 1_665
Cd72 Ho2 3.231739 1_665
Cd73 Ho19 3.132480 1_565
Cd73 Ho21 3.132493 1_555
Cd73 Ho9 3.231739 1_565
Cd73 Ho3 3.231739 1_565
Cd74 Ho20 3.132480 1_655
Cd74 Ho21 3.132493 1_555
Cd74 Ho4 3.231739 1_655
Cd74 Ho1 3.231739 1_655
Cd75 Ho18 3.132480 1_556
Cd75 Ho21 3.132493 1_555
Cd75 Ho8 3.231739 1_556
Cd75 Ho5 3.231739 1_556
Cd76 Ho20 3.132492 1_655
Cd76 Ho18 3.132492 1_556
Cd76 Ho12 3.231739 1_656
Cd76 Ho6 3.231739 1_656
Cd77 Ho19 3.132492 1_565
Cd77 Ho18 3.132492 1_556
Cd77 Ho10 3.231739 1_566
Cd77 Ho7 3.231739 1_566
Cd78 Ho9 3.183581 1_555
Cd78 Ho11 3.183595 1_655
Cd78 Ho19 3.253490 1_555
Cd79 Ho4 3.183592 1_655
Cd79 Ho9 3.183592 1_565
Cd79 Ho21 3.253490 1_555
Cd80 Ho4 3.183581 1_555
Cd80 Ho11 3.183595 1_565
Cd80 Ho20 3.253490 1_555
Cd81 Ho8 3.183581 1_555
Cd81 Ho12 3.183595 1_655
Cd81 Ho18 3.253490 1_555
Cd82 Ho1 3.183581 1_555
Cd82 Ho12 3.183595 1_556
Cd82 Ho20 3.253490 1_555
Cd83 Cd9 3.112744 1_555
Cd83 Ho8 3.183592 1_556
Cd83 Ho1 3.183592 1_655
Cd83 Ho21 3.253490 1_555
Cd84 Ho3 3.183592 1_565
Cd84 Ho5 3.183592 1_556
Cd84 Ho21 3.253490 1_555
Cd85 Ho3 3.183581 1_555
Cd85 Ho10 3.183595 1_556
Cd85 Ho19 3.253490 1_555
Cd86 Ho5 3.183581 1_555
Cd86 Ho10 3.183595 1_565
Cd86 Ho18 3.253490 1_555
Cd87 Ho2 3.183593 1_565
Cd87 Ho6 3.183593 1_556
Cd87 Ho20 3.253490 1_555
Cd88 Ho6 3.183593 1_655
Cd88 Ho7 3.183593 1_565
Cd88 Ho18 3.253490 1_555
Cd89 Cd9 3.112757 1_555
Cd89 Ho7 3.183593 1_556
Cd89 Ho2 3.183593 1_655
Cd89 Ho19 3.253490 1_555
