# generated using pymatgen
data_EuHo2O4
_symmetry_space_group_name_H-M   'P 1'
_cell_length_a   3.40132400
_cell_length_b   10.01944900
_cell_length_c   11.91330400
_cell_angle_alpha   90.00000000
_cell_angle_beta   90.00000000
_cell_angle_gamma   90.00000000
_symmetry_Int_Tables_number   1
_chemical_formula_structural   EuHo2O4
_chemical_formula_sum   'Eu4 Ho8 O16'
_cell_volume   405.99816121
_cell_formula_units_Z   4
loop_
 _symmetry_equiv_pos_site_id
 _symmetry_equiv_pos_as_xyz
  1  'x, y, z'
loop_
 _atom_site_type_symbol
 _atom_site_label
 _atom_site_symmetry_multiplicity
 _atom_site_fract_x
 _atom_site_fract_y
 _atom_site_fract_z
 _atom_site_occupancy
  Eu  Eu0  1  0.25000000  0.74899000  0.14892600  1
  Eu  Eu1  1  0.75000000  0.25101000  0.85107400  1
  Eu  Eu2  1  0.75000000  0.75101000  0.64892600  1
  Eu  Eu3  1  0.25000000  0.24899000  0.35107400  1
  Ho  Ho0  1  0.25000000  0.57591300  0.88893500  1
  Ho  Ho1  1  0.75000000  0.42408700  0.11106500  1
  Ho  Ho2  1  0.75000000  0.92408700  0.38893500  1
  Ho  Ho3  1  0.25000000  0.07591300  0.61106500  1
  Ho  Ho4  1  0.25000000  0.07867800  0.11193400  1
  Ho  Ho5  1  0.75000000  0.92132200  0.88806600  1
  Ho  Ho6  1  0.75000000  0.42132200  0.61193400  1
  Ho  Ho7  1  0.25000000  0.57867800  0.38806600  1
  O  O0  1  0.25000000  0.78770500  0.82405700  1
  O  O1  1  0.75000000  0.21229500  0.17594300  1
  O  O2  1  0.75000000  0.71229500  0.32405700  1
  O  O3  1  0.25000000  0.28770500  0.67594300  1
  O  O4  1  0.25000000  0.98586300  0.28332300  1
  O  O5  1  0.75000000  0.01413700  0.71667700  1
  O  O6  1  0.75000000  0.51413700  0.78332300  1
  O  O7  1  0.25000000  0.48586300  0.21667700  1
  O  O8  1  0.25000000  0.57588100  0.57805800  1
  O  O9  1  0.75000000  0.42411900  0.42194200  1
  O  O10  1  0.75000000  0.92411900  0.07805800  1
  O  O11  1  0.25000000  0.07588100  0.92194200  1
  O  O12  1  0.25000000  0.87278900  0.51990500  1
  O  O13  1  0.75000000  0.12721100  0.48009500  1
  O  O14  1  0.75000000  0.62721100  0.01990500  1
  O  O15  1  0.25000000  0.37278900  0.98009500  1
loop_
_geom_bond_atom_site_label_1
_geom_bond_atom_site_label_2
_geom_bond_distance
_geom_bond_site_symmetry_2
Eu0 O10 2.585344 1_555
Eu0 O10 2.585344 1_455
Eu0 O14 2.596846 1_555
Eu0 O14 2.596846 1_455
Eu0 O2 2.716698 1_555
Eu0 O2 2.716698 1_455
Eu0 O7 2.757175 1_555
Eu0 O4 2.862916 1_555
Eu1 O11 2.585344 1_655
Eu1 O11 2.585344 1_555
Eu1 O15 2.596846 1_555
Eu1 O15 2.596846 1_655
Eu1 O3 2.716698 1_655
Eu1 O3 2.716698 1_555
Eu1 O6 2.757175 1_555
Eu1 O5 2.862916 1_555
Eu2 O8 2.585344 1_655
Eu2 O8 2.585344 1_555
Eu2 O12 2.596846 1_555
Eu2 O12 2.596846 1_655
Eu2 O0 2.716698 1_555
Eu2 O0 2.716698 1_655
Eu2 O5 2.757175 1_565
Eu2 O6 2.862916 1_555
Eu3 O9 2.585344 1_555
Eu3 O9 2.585344 1_455
Eu3 O13 2.596846 1_555
Eu3 O13 2.596846 1_455
Eu3 O1 2.716698 1_455
Eu3 O1 2.716698 1_555
Eu3 O4 2.757175 1_545
Eu3 O7 2.862916 1_555
Ho0 O6 2.204178 1_555
Ho0 O6 2.204178 1_455
Ho0 O0 2.258416 1_555
Ho0 O15 2.306823 1_555
Ho0 O14 2.364512 1_456
Ho0 O14 2.364512 1_556
Ho1 O7 2.204178 1_655
Ho1 O7 2.204178 1_555
Ho1 O1 2.258416 1_555
Ho1 O14 2.306823 1_555
Ho1 O15 2.364512 1_554
Ho1 O15 2.364512 1_654
Ho2 O4 2.204178 1_655
Ho2 O4 2.204178 1_555
Ho2 O2 2.258416 1_555
Ho2 O13 2.306823 1_565
Ho2 O12 2.364512 1_555
Ho2 O12 2.364512 1_655
Ho3 O5 2.204178 1_555
Ho3 O5 2.204178 1_455
Ho3 O3 2.258416 1_555
Ho3 O12 2.306823 1_545
Ho3 O13 2.364512 1_555
Ho3 O13 2.364512 1_455
Ho4 O4 2.243614 1_545
Ho4 O11 2.263606 1_554
Ho4 O1 2.294787 1_455
Ho4 O1 2.294787 1_555
Ho4 O10 2.335225 1_445
Ho4 O10 2.335225 1_545
Ho5 O5 2.243614 1_565
Ho5 O10 2.263606 1_556
Ho5 O0 2.294787 1_555
Ho5 O0 2.294787 1_655
Ho5 O11 2.335225 1_565
Ho5 O11 2.335225 1_665
Ho6 O6 2.243614 1_555
Ho6 O9 2.263606 1_555
Ho6 O3 2.294787 1_555
Ho6 O3 2.294787 1_655
Ho6 O8 2.335225 1_555
Ho6 O8 2.335225 1_655
Ho7 O7 2.243614 1_555
Ho7 O8 2.263606 1_555
Ho7 O2 2.294787 1_555
Ho7 O2 2.294787 1_455
Ho7 O9 2.335225 1_455
Ho7 O9 2.335225 1_555
