# generated using pymatgen
data_Mg14VCrO16
_symmetry_space_group_name_H-M   'P 1'
_cell_length_a   8.48762465
_cell_length_b   8.67858692
_cell_length_c   4.27479059
_cell_angle_alpha   90.00000000
_cell_angle_beta   90.00000000
_cell_angle_gamma   90.00000000
_symmetry_Int_Tables_number   1
_chemical_formula_structural   Mg14VCrO16
_chemical_formula_sum   'Mg14 V1 Cr1 O16'
_cell_volume   314.88358959
_cell_formula_units_Z   1
loop_
 _symmetry_equiv_pos_site_id
 _symmetry_equiv_pos_as_xyz
  1  'x, y, z'
loop_
 _atom_site_type_symbol
 _atom_site_label
 _atom_site_symmetry_multiplicity
 _atom_site_fract_x
 _atom_site_fract_y
 _atom_site_fract_z
 _atom_site_occupancy
  Mg  Mg0  1  0.50000000  0.00000000  -0.00000000  1
  Mg  Mg1  1  0.50000000  0.50000000  -0.00000000  1
  Mg  Mg2  1  -0.00000000  0.24798059  0.50000000  1
  Mg  Mg3  1  -0.00000000  0.75201941  0.50000000  1
  Mg  Mg4  1  0.50000000  0.24950729  0.50000000  1
  Mg  Mg5  1  0.50000000  0.75049271  0.50000000  1
  Mg  Mg6  1  0.25079855  0.00000000  0.50000000  1
  Mg  Mg7  1  0.25099296  0.50000000  0.50000000  1
  Mg  Mg8  1  0.74920145  0.00000000  0.50000000  1
  Mg  Mg9  1  0.74900704  0.50000000  0.50000000  1
  Mg  Mg10  1  0.24977973  0.24854467  -0.00000000  1
  Mg  Mg11  1  0.24977973  0.75145533  -0.00000000  1
  Mg  Mg12  1  0.75022027  0.24854467  -0.00000000  1
  Mg  Mg13  1  0.75022027  0.75145533  -0.00000000  1
  V  V0  1  -0.00000000  0.00000000  -0.00000000  1
  Cr  Cr0  1  -0.00000000  0.50000000  -0.00000000  1
  O  O0  1  0.25721719  0.00000000  -0.00000000  1
  O  O1  1  0.25091149  0.50000000  0.00000000  1
  O  O2  1  0.74278281  0.00000000  -0.00000000  1
  O  O3  1  0.74908851  0.50000000  0.00000000  1
  O  O4  1  0.24980747  0.25048224  0.50000000  1
  O  O5  1  0.24980747  0.74951776  0.50000000  1
  O  O6  1  0.75019253  0.25048224  0.50000000  1
  O  O7  1  0.75019253  0.74951776  0.50000000  1
  O  O8  1  -0.00000000  0.00000000  0.50000000  1
  O  O9  1  -0.00000000  0.50000000  0.50000000  1
  O  O10  1  0.50000000  0.00000000  0.50000000  1
  O  O11  1  0.50000000  0.50000000  0.50000000  1
  O  O12  1  -0.00000000  0.24372289  -0.00000000  1
  O  O13  1  -0.00000000  0.75627711  -0.00000000  1
  O  O14  1  0.50000000  0.25151228  -0.00000000  1
  O  O15  1  0.50000000  0.74848772  0.00000000  1
loop_
_geom_bond_atom_site_label_1
_geom_bond_atom_site_label_2
_geom_bond_distance
_geom_bond_site_symmetry_2
Mg0 O2 2.060649 1_555
Mg0 O0 2.060649 1_555
Mg0 O10 2.137395 1_555
Mg0 O10 2.137395 1_554
Mg0 O14 2.182771 1_555
Mg0 O15 2.182771 1_545
Mg1 O1 2.114170 1_555
Mg1 O3 2.114170 1_555
Mg1 O11 2.137395 1_554
Mg1 O11 2.137395 1_555
Mg1 O14 2.156522 1_555
Mg1 O15 2.156522 1_555
Mg2 O4 2.120383 1_555
Mg2 O6 2.120383 1_455
Mg2 O12 2.137715 1_555
Mg2 O12 2.137715 1_556
Mg2 O8 2.152121 1_555
Mg2 O9 2.187172 1_555
Mg3 O5 2.120383 1_555
Mg3 O7 2.120383 1_455
Mg3 O13 2.137715 1_555
Mg3 O13 2.137715 1_556
Mg3 O8 2.152121 1_565
Mg3 O9 2.187172 1_555
Mg4 O4 2.123557 1_555
Mg4 O6 2.123557 1_555
Mg4 O14 2.137466 1_556
Mg4 O14 2.137466 1_555
Mg4 O10 2.165371 1_555
Mg4 O11 2.173923 1_555
Mg5 O5 2.123557 1_555
Mg5 O7 2.123557 1_555
Mg5 O15 2.137466 1_556
Mg5 O15 2.137466 1_555
Mg5 O10 2.165371 1_565
Mg5 O11 2.173923 1_555
Mg6 O10 2.115128 1_555
Mg6 O8 2.128684 1_555
Mg6 O0 2.138089 1_555
Mg6 O0 2.138089 1_556
Mg6 O5 2.173848 1_545
Mg6 O4 2.173848 1_555
Mg7 O11 2.113478 1_555
Mg7 O9 2.130334 1_555
Mg7 O1 2.137395 1_556
Mg7 O1 2.137395 1_555
Mg7 O4 2.165485 1_555
Mg7 O5 2.165485 1_555
Mg8 O10 2.115128 1_555
Mg8 O8 2.128684 1_655
Mg8 O2 2.138089 1_556
Mg8 O2 2.138089 1_555
Mg8 O7 2.173848 1_545
Mg8 O6 2.173848 1_555
Mg9 O11 2.113478 1_555
Mg9 O9 2.130334 1_655
Mg9 O3 2.137395 1_556
Mg9 O3 2.137395 1_555
Mg9 O6 2.165485 1_555
Mg9 O7 2.165485 1_555
Mg10 O12 2.120450 1_555
Mg10 O14 2.123932 1_555
Mg10 O4 2.137461 1_554
Mg10 O4 2.137461 1_555
Mg10 O0 2.157940 1_555
Mg10 O1 2.182298 1_555
Mg11 O13 2.120450 1_555
Mg11 O15 2.123932 1_555
Mg11 O5 2.137461 1_555
Mg11 O5 2.137461 1_554
Mg11 O0 2.157940 1_565
Mg11 O1 2.182298 1_555
Mg12 O12 2.120450 1_655
Mg12 O14 2.123932 1_555
Mg12 O6 2.137461 1_555
Mg12 O6 2.137461 1_554
Mg12 O2 2.157940 1_555
Mg12 O3 2.182298 1_555
Mg13 O13 2.120450 1_655
Mg13 O15 2.123932 1_555
Mg13 O7 2.137461 1_555
Mg13 O7 2.137461 1_554
Mg13 O2 2.157940 1_565
Mg13 O3 2.182298 1_555
Cr0 O1 2.129643 1_555
Cr0 O3 2.129643 1_455
Cr0 O9 2.137395 1_554
Cr0 O9 2.137395 1_555
Cr0 O12 2.224123 1_555
Cr0 O13 2.224123 1_555
O0 V0 2.183163 1_555
O2 V0 2.183163 1_655
O8 V0 2.137395 1_556
O8 V0 2.137395 1_555
O12 V0 2.115170 1_555
O13 V0 2.115170 1_565
