# generated using pymatgen
data_Y2Si5Ni3
_symmetry_space_group_name_H-M   'P 1'
_cell_length_a   7.87461889
_cell_length_b   7.87461889
_cell_length_c   7.87461889
_cell_angle_alpha   137.88327531
_cell_angle_beta   104.99453842
_cell_angle_gamma   89.97094642
_symmetry_Int_Tables_number   1
_chemical_formula_structural   Y2Si5Ni3
_chemical_formula_sum   'Y4 Si10 Ni6'
_cell_volume   302.20222579
_cell_formula_units_Z   2
loop_
 _symmetry_equiv_pos_site_id
 _symmetry_equiv_pos_as_xyz
  1  'x, y, z'
loop_
 _atom_site_type_symbol
 _atom_site_label
 _atom_site_symmetry_multiplicity
 _atom_site_fract_x
 _atom_site_fract_y
 _atom_site_fract_z
 _atom_site_occupancy
  Y  Y0  1  0.36792500  0.63108300  0.73684200  1
  Y  Y1  1  0.63207500  0.36891700  0.26315800  1
  Y  Y2  1  0.10575900  0.86891700  0.23684200  1
  Y  Y3  1  0.89424100  0.13108300  0.76315800  1
  Si  Si0  1  0.00000000  0.75000000  0.75000000  1
  Si  Si1  1  0.00000000  0.25000000  0.25000000  1
  Si  Si2  1  0.73351500  0.48351500  0.75000000  1
  Si  Si3  1  0.26648500  0.01648500  0.75000000  1
  Si  Si4  1  0.26648500  0.51648500  0.25000000  1
  Si  Si5  1  0.73351500  0.98351500  0.25000000  1
  Si  Si6  1  0.24006800  0.39248900  0.84758000  1
  Si  Si7  1  0.75993200  0.60751100  0.15242000  1
  Si  Si8  1  0.54490900  0.89248900  0.65242000  1
  Si  Si9  1  0.45509100  0.10751100  0.34758000  1
  Ni  Ni0  1  0.02215200  0.63416000  0.38799200  1
  Ni  Ni1  1  0.24616800  0.13416000  0.11200800  1
  Ni  Ni2  1  0.50000000  0.75000000  0.25000000  1
  Ni  Ni3  1  0.50000000  0.25000000  0.75000000  1
  Ni  Ni4  1  0.97784800  0.36584000  0.61200800  1
  Ni  Ni5  1  0.75383200  0.86584000  0.88799200  1
loop_
_geom_bond_atom_site_label_1
_geom_bond_atom_site_label_2
_geom_bond_distance
_geom_bond_site_symmetry_2
Si0 Y0 3.048022 1_555
Si0 Y3 3.048022 1_465
Si0 Y2 3.048022 1_556
Si0 Y1 3.048022 1_455
Si1 Y3 3.048022 1_454
Si1 Y0 3.048022 1_555
Si1 Y2 3.048022 1_545
Si1 Y1 3.048022 1_455
Si2 Si7 2.471298 1_556
Si2 Si9 2.471300 1_555
Si2 Y2 3.071360 1_656
Si2 Y1 3.071360 1_555
Si2 Y0 3.109649 1_555
Si2 Y3 3.109649 1_555
Si3 Si8 2.471300 1_545
Si3 Si6 2.471301 1_555
Si3 Y3 3.071360 1_455
Si3 Y0 3.071360 1_545
Si3 Y2 3.109649 1_545
Si3 Y1 3.109649 1_556
Si4 Si6 2.471298 1_554
Si4 Si8 2.471300 1_555
Si4 Y3 3.071360 1_454
Si4 Y0 3.071360 1_555
Si4 Y2 3.109649 1_555
Si4 Y1 3.109649 1_555
Si5 Si9 2.471300 1_565
Si5 Si7 2.471301 1_555
Si5 Y2 3.071360 1_655
Si5 Y1 3.071360 1_565
Si5 Y3 3.109649 1_565
Si5 Y0 3.109649 1_554
Si6 Y0 2.861994 1_555
Si6 Y3 3.022265 1_455
Si6 Y2 3.033534 1_556
Si6 Y2 3.033539 1_545
Si7 Y1 2.861994 1_555
Si7 Y2 3.022265 1_655
Si7 Y3 3.033534 1_554
Si7 Y3 3.033539 1_565
Si8 Y3 2.861991 1_565
Si8 Y0 3.022271 1_555
Si8 Y1 3.033539 1_555
Si8 Y1 3.033539 1_566
Si9 Y2 2.861991 1_545
Si9 Y1 3.022271 1_555
Si9 Y0 3.033539 1_555
Si9 Y0 3.033539 1_544
Ni0 Si7 2.278111 1_455
Ni0 Si4 2.308147 1_555
Ni0 Si3 2.308147 1_565
Ni0 Si0 2.321254 1_555
Ni0 Si1 2.321254 1_555
Ni0 Y2 2.989746 1_555
Ni0 Y3 3.072436 1_465
Ni0 Y3 3.072436 1_454
Ni0 Y1 3.187833 1_455
Ni0 Y0 3.344993 1_555
Ni1 Si9 2.278117 1_555
Ni1 Si3 2.308147 1_554
Ni1 Si4 2.308147 1_555
Ni1 Si1 2.321254 1_555
Ni1 Si0 2.321254 1_544
Ni1 Y1 2.989746 1_555
Ni1 Y0 3.072436 1_544
Ni1 Y0 3.072436 1_555
Ni1 Y2 3.187833 1_545
Ni1 Y3 3.344993 1_454
Ni2 Si8 2.360400 1_555
Ni2 Si9 2.360400 1_565
Ni2 Si6 2.360404 1_554
Ni2 Si7 2.360407 1_555
Ni2 Si5 2.601174 1_555
Ni2 Si4 2.601174 1_555
Ni2 Ni3 2.829498 1_554
Ni2 Ni3 2.829498 1_565
Ni2 Y1 3.240383 1_555
Ni2 Y0 3.240383 1_554
Ni2 Y3 3.240383 1_565
Ni2 Y2 3.240383 1_555
Ni3 Si9 2.360400 1_555
Ni3 Si8 2.360400 1_545
Ni3 Si7 2.360404 1_556
Ni3 Si6 2.360407 1_555
Ni3 Si2 2.601174 1_555
Ni3 Si3 2.601174 1_555
Ni3 Y3 3.240383 1_555
Ni3 Y0 3.240383 1_555
Ni3 Y1 3.240383 1_556
Ni3 Y2 3.240383 1_545
Ni4 Si6 2.278111 1_655
Ni4 Si2 2.308147 1_555
Ni4 Si5 2.308147 1_545
Ni4 Si0 2.321254 1_655
Ni4 Si1 2.321254 1_655
Ni4 Y3 2.989746 1_555
Ni4 Y2 3.072436 1_656
Ni4 Y2 3.072436 1_645
Ni4 Y0 3.187833 1_655
Ni4 Y1 3.344993 1_555
Ni5 Si8 2.278117 1_555
Ni5 Si2 2.308147 1_555
Ni5 Si5 2.308147 1_556
Ni5 Si1 2.321254 1_666
Ni5 Si0 2.321254 1_655
Ni5 Y0 2.989746 1_555
Ni5 Y1 3.072436 1_555
Ni5 Y1 3.072436 1_566
Ni5 Y3 3.187833 1_565
Ni5 Y2 3.344993 1_656
