# generated using pymatgen
data_KLiNi2H3(SeO5)2
_symmetry_space_group_name_H-M   'P 1'
_cell_length_a   5.62951572
_cell_length_b   5.82643948
_cell_length_c   8.09278374
_cell_angle_alpha   67.61000767
_cell_angle_beta   70.82030981
_cell_angle_gamma   68.92769361
_symmetry_Int_Tables_number   1
_chemical_formula_structural   KLiNi2H3(SeO5)2
_chemical_formula_sum   'K1 Li1 Ni2 H3 Se2 O10'
_cell_volume   223.30252764
_cell_formula_units_Z   1
loop_
 _symmetry_equiv_pos_site_id
 _symmetry_equiv_pos_as_xyz
  1  'x, y, z'
loop_
 _atom_site_type_symbol
 _atom_site_label
 _atom_site_symmetry_multiplicity
 _atom_site_fract_x
 _atom_site_fract_y
 _atom_site_fract_z
 _atom_site_occupancy
  K  K0  1  0.58163500  0.44587200  0.48509000  1
  Li  Li0  1  0.03121500  0.54562700  0.63038500  1
  Ni  Ni0  1  0.00195700  0.49310500  0.98866100  1
  Ni  Ni1  1  0.50204200  0.00880200  0.99763800  1
  H  H0  1  0.62644800  0.71721500  0.80574000  1
  H  H1  1  0.31109000  0.30656700  0.22408700  1
  H  H2  1  0.46741500  0.47832800  0.03021900  1
  Se  Se0  1  0.93171800  0.92050900  0.26417800  1
  Se  Se1  1  0.10006700  0.04321500  0.73802000  1
  O  O0  1  0.79498300  0.80134700  0.48345400  1
  O  O1  1  0.17524500  0.24037900  0.51997300  1
  O  O2  1  0.25736500  0.82107400  0.23554800  1
  O  O3  1  0.82526200  0.24171400  0.21402300  1
  O  O4  1  0.76568300  0.16970100  0.78406400  1
  O  O5  1  0.15368300  0.71953900  0.73532300  1
  O  O6  1  0.63007000  0.66327500  0.93494000  1
  O  O7  1  0.34695600  0.34888000  0.08983500  1
  O  O8  1  0.83019200  0.80874300  0.13968400  1
  O  O9  1  0.19330800  0.21672800  0.86347100  1
loop_
_geom_bond_atom_site_label_1
_geom_bond_atom_site_label_2
_geom_bond_distance
_geom_bond_site_symmetry_2
K0 O3 2.635548 1_555
K0 O4 2.645599 1_555
K0 O0 2.736750 1_555
K0 O1 2.834604 1_555
K0 Li0 2.855403 1_555
K0 O2 2.894666 1_555
K0 O5 2.989881 1_555
K0 O8 3.049045 1_555
K0 O1 3.188363 1_655
K0 O9 3.244078 1_555
Li0 O0 1.914918 1_455
Li0 O5 1.940595 1_555
Li0 O1 2.077640 1_555
Li0 O9 2.276588 1_555
Ni0 O9 2.014520 1_555
Ni0 O5 2.067021 1_555
Ni0 O3 2.069224 1_456
Ni0 O6 2.081347 1_455
Ni0 O7 2.120309 1_556
Ni0 O8 2.338356 1_456
Ni1 O4 2.037055 1_555
Ni1 O6 2.079513 1_545
Ni1 O9 2.095491 1_555
Ni1 O2 2.130055 1_546
Ni1 O7 2.167800 1_556
Ni1 O8 2.217856 1_546
H0 O6 0.975450 1_555
H1 O7 0.984667 1_555
H2 O7 1.066337 1_555
H2 O6 1.485534 1_554
O0 Se0 1.664864 1_555
O1 Se1 1.710911 1_555
O2 Se0 1.676161 1_455
O3 Se0 1.673611 1_545
O4 Se1 1.725169 1_655
O5 Se1 1.807160 1_565
O8 Se0 1.706339 1_555
O9 Se1 1.960090 1_555
