# generated using pymatgen
data_PrAl22O34
_symmetry_space_group_name_H-M   'P 1'
_cell_length_a   11.81030812
_cell_length_b   5.65079947
_cell_length_c   9.78404863
_cell_angle_alpha   89.95616482
_cell_angle_beta   74.21902627
_cell_angle_gamma   90.06551921
_symmetry_Int_Tables_number   1
_chemical_formula_structural   PrAl22O34
_chemical_formula_sum   'Pr1 Al22 O34'
_cell_volume   628.35261768
_cell_formula_units_Z   1
loop_
 _symmetry_equiv_pos_site_id
 _symmetry_equiv_pos_as_xyz
  1  'x, y, z'
loop_
 _atom_site_type_symbol
 _atom_site_label
 _atom_site_symmetry_multiplicity
 _atom_site_fract_x
 _atom_site_fract_y
 _atom_site_fract_z
 _atom_site_occupancy
  Pr  Pr0  1  0.51976900  0.43802700  0.30672200  1
  Al  Al0  1  0.78189600  0.99832000  0.90344200  1
  Al  Al1  1  0.95268200  0.50065400  0.84842400  1
  Al  Al2  1  0.64571200  0.49782200  0.95267800  1
  Al  Al3  1  0.78140500  0.24631200  0.65605500  1
  Al  Al4  1  0.21871300  0.25282700  0.84391300  1
  Al  Al5  1  0.22005200  0.74890800  0.84328100  1
  Al  Al6  1  0.04984300  0.99955600  0.65009000  1
  Al  Al7  1  0.94976900  0.00009000  0.35114800  1
  Al  Al8  1  0.35400500  0.00207300  0.54651000  1
  Al  Al9  1  0.64436300  0.99981000  0.44858400  1
  Al  Al10  1  0.78129700  0.74967100  0.65699500  1
  Al  Al11  1  0.21617900  0.50115600  0.59796300  1
  Al  Al12  1  0.78999500  0.50061200  0.40313700  1
  Al  Al13  1  0.20848400  0.24524000  0.34690200  1
  Al  Al14  1  0.99856100  0.50006000  0.50235000  1
  Al  Al15  1  0.79560400  0.24840300  0.14949700  1
  Al  Al16  1  0.79101300  0.75007100  0.15234900  1
  Al  Al17  1  0.21572800  0.99994900  0.09611200  1
  Al  Al18  1  0.21261900  0.75223300  0.34556700  1
  Al  Al19  1  0.35157100  0.49982300  0.05379400  1
  Al  Al20  1  0.05408900  0.50043400  0.14908400  1
  Al  Al21  1  0.00319400  0.99829800  0.99674600  1
  O  O0  1  0.90165300  0.23736600  0.95506200  1
  O  O1  1  0.90041400  0.76226200  0.95526500  1
  O  O2  1  0.88655300  0.99905400  0.70376400  1
  O  O3  1  0.28496000  0.00112200  0.90639300  1
  O  O4  1  0.70702200  0.24895100  0.84691600  1
  O  O5  1  0.09952400  0.99886000  0.80901800  1
  O  O6  1  0.70693600  0.99709500  0.59464000  1
  O  O7  1  0.70603900  0.74831500  0.84761300  1
  O  O8  1  0.29527900  0.50043400  0.90247700  1
  O  O9  1  0.89987600  0.50075100  0.69064200  1
  O  O10  1  0.49986500  0.09465400  0.46926300  1
  O  O11  1  0.89908000  0.26473800  0.45385400  1
  O  O12  1  0.28909300  0.25011000  0.65372800  1
  O  O13  1  0.71568600  0.49819500  0.59210700  1
  O  O14  1  0.11377800  0.50210200  0.79603300  1
  O  O15  1  0.89886500  0.73468800  0.45334300  1
  O  O16  1  0.29479800  0.74968200  0.65218900  1
  O  O17  1  0.70985800  0.25621300  0.34053000  1
  O  O18  1  0.28729500  0.00056500  0.40279200  1
  O  O19  1  0.09859900  0.26527300  0.54501700  1
  O  O20  1  0.90048900  0.99888400  0.19062300  1
  O  O21  1  0.89145700  0.50174500  0.20346500  1
  O  O22  1  0.28856100  0.49612900  0.40348000  1
  O  O23  1  0.10859600  0.99907600  0.29791100  1
  O  O24  1  0.71882900  0.00005800  0.09426600  1
  O  O25  1  0.70166000  0.73831000  0.34391900  1
  O  O26  1  0.10053000  0.73333100  0.54511100  1
  O  O27  1  0.09912100  0.49968200  0.31291200  1
  O  O28  1  0.70881200  0.49724200  0.10371000  1
  O  O29  1  0.28715400  0.24914100  0.15788100  1
  O  O30  1  0.49944800  0.49501600  0.05334100  1
  O  O31  1  0.28727500  0.75049600  0.15656700  1
  O  O32  1  0.10004900  0.23533500  0.04519000  1
  O  O33  1  0.10042000  0.76477500  0.04499300  1
loop_
_geom_bond_atom_site_label_1
_geom_bond_atom_site_label_2
_geom_bond_distance
_geom_bond_site_symmetry_2
Al0 O24 1.812274 1_566
Al0 O7 1.833375 1_555
Al0 O4 1.833388 1_565
Al0 O2 2.007760 1_555
Al0 O1 2.094026 1_555
Al0 O0 2.113147 1_565
Al1 O9 1.815425 1_555
Al1 O1 1.820058 1_555
Al1 O0 1.821775 1_555
Al1 O14 1.830895 1_655
Al2 O30 1.740339 1_556
Al2 O7 1.779053 1_555
Al2 O4 1.780400 1_555
Al2 O28 1.827011 1_556
Al3 O13 1.812482 1_555
Al3 O4 1.834911 1_555
Al3 O6 1.844924 1_545
Al3 O2 2.007606 1_545
Al3 O11 2.088070 1_555
Al3 O9 2.095977 1_555
Al4 O3 1.808381 1_555
Al4 O12 1.820010 1_555
Al4 O8 1.839532 1_555
Al4 O14 2.014519 1_555
Al4 O32 2.085721 1_556
Al4 O5 2.101229 1_545
Al5 O3 1.804574 1_565
Al5 O16 1.837705 1_555
Al5 O8 1.837858 1_555
Al5 O14 2.011635 1_555
Al5 O33 2.093589 1_556
Al5 O5 2.096912 1_555
Al6 O5 1.805115 1_555
Al6 O19 1.821169 1_565
Al6 O26 1.829341 1_555
Al6 O2 1.855815 1_455
Al7 O23 1.805143 1_645
Al7 O15 1.810822 1_545
Al7 O11 1.811559 1_555
Al7 O20 1.817340 1_545
Al8 O10 1.761138 1_555
Al8 O16 1.787268 1_545
Al8 O18 1.789031 1_555
Al8 O12 1.794424 1_555
Al9 O10 1.747853 1_565
Al9 O6 1.778444 1_555
Al9 O25 1.821489 1_555
Al9 O17 1.834547 1_565
Al10 O13 1.813644 1_555
Al10 O7 1.834848 1_555
Al10 O6 1.841527 1_555
Al10 O2 2.011707 1_555
Al10 O9 2.074302 1_555
Al10 O15 2.097864 1_555
Al11 O12 1.819029 1_555
Al11 O16 1.839018 1_555
Al11 O22 1.862182 1_555
Al11 O14 1.985811 1_555
Al11 O26 2.059478 1_555
Al11 O19 2.088423 1_555
Al12 O13 1.818283 1_555
Al12 O17 1.868665 1_555
Al12 O25 1.886539 1_555
Al12 O21 1.994783 1_555
Al12 O15 1.996189 1_555
Al12 O11 2.008288 1_555
Al13 O29 1.830099 1_555
Al13 O18 1.831835 1_555
Al13 O22 1.869137 1_555
Al13 O23 1.965007 1_545
Al13 O27 2.020712 1_555
Al13 O19 2.021560 1_555
Al14 O9 1.893267 1_555
Al14 O19 1.897734 1_655
Al14 O26 1.906350 1_655
Al14 O27 1.910119 1_655
Al14 O11 1.916873 1_555
Al14 O15 1.919321 1_555
Al15 O24 1.829845 1_555
Al15 O28 1.865670 1_555
Al15 O17 1.868590 1_555
Al15 O0 1.973813 1_554
Al15 O21 1.983021 1_555
Al15 O20 1.989631 1_545
Al16 O24 1.819419 1_565
Al16 O28 1.859909 1_555
Al16 O25 1.885459 1_555
Al16 O21 1.987935 1_555
Al16 O1 2.009195 1_554
Al16 O20 2.012152 1_555
Al17 O3 1.813446 1_564
Al17 O31 1.823233 1_555
Al17 O29 1.826352 1_565
Al17 O23 2.034794 1_555
Al17 O33 2.058664 1_555
Al17 O32 2.063331 1_565
Al18 O31 1.819398 1_555
Al18 O18 1.824129 1_565
Al18 O22 1.870292 1_555
Al18 O23 1.996712 1_555
Al18 O27 2.040784 1_555
Al18 O26 2.041840 1_555
Al19 O30 1.745515 1_555
Al19 O8 1.780232 1_554
Al19 O31 1.784244 1_555
Al19 O29 1.787862 1_555
Al20 O33 1.805701 1_555
Al20 O32 1.809988 1_555
Al20 O27 1.820947 1_555
Al20 O21 1.848389 1_455
Al21 O5 1.879186 1_555
Al21 O33 1.892093 1_556
Al21 O32 1.902531 1_566
Al21 O1 1.918924 1_455
Al21 O0 1.923116 1_465
Al21 O20 1.953989 1_456
O10 Pr0 2.477928 1_555
O17 Pr0 2.571711 1_555
O22 Pr0 2.656473 1_555
O25 Pr0 2.836244 1_555
O28 Pr0 2.574331 1_555
O30 Pr0 2.574835 1_555
