# generated using pymatgen
data_Li9Mn2Co5O16
_symmetry_space_group_name_H-M   'P 1'
_cell_length_a   2.97172000
_cell_length_b   5.95608604
_cell_length_c   16.17611409
_cell_angle_alpha   90.65082589
_cell_angle_beta   90.97996659
_cell_angle_gamma   94.02149921
_symmetry_Int_Tables_number   1
_chemical_formula_structural   Li9Mn2Co5O16
_chemical_formula_sum   'Li9 Mn2 Co5 O16'
_cell_volume   285.54493485
_cell_formula_units_Z   1
loop_
 _symmetry_equiv_pos_site_id
 _symmetry_equiv_pos_as_xyz
  1  'x, y, z'
loop_
 _atom_site_type_symbol
 _atom_site_label
 _atom_site_symmetry_multiplicity
 _atom_site_fract_x
 _atom_site_fract_y
 _atom_site_fract_z
 _atom_site_occupancy
  Li  Li0  1  0.00263400  0.49782500  0.99856600  1
  Li  Li1  1  0.49871700  0.74241500  0.13266300  1
  Li  Li2  1  0.99452900  0.01151700  0.25493700  1
  Li  Li3  1  0.49797500  0.25247100  0.87240100  1
  Li  Li4  1  0.99981300  0.00027800  0.74886100  1
  Li  Li5  1  0.50044100  0.75031700  0.62394000  1
  Li  Li6  1  0.00204000  0.49946200  0.49895400  1
  Li  Li7  1  0.50153200  0.25711000  0.37043600  1
  Li  Li8  1  0.01168300  0.49007100  0.25452400  1
  Mn  Mn0  1  0.99190200  0.99997000  0.99811900  1
  Mn  Mn1  1  0.49470900  0.25797300  0.13033500  1
  Co  Co0  1  0.50638400  0.74221600  0.37071800  1
  Co  Co1  1  0.99948700  0.00151300  0.49914100  1
  Co  Co2  1  0.50030300  0.24883200  0.62428800  1
  Co  Co3  1  0.99921400  0.49907500  0.74856800  1
  Co  Co4  1  0.50078800  0.74651500  0.87332000  1
  O  O0  1  0.52545300  0.75555500  0.99456500  1
  O  O1  1  0.96983800  0.02797600  0.12171800  1
  O  O2  1  0.50519600  0.24802100  0.24227100  1
  O  O3  1  0.02684400  0.51102900  0.86783400  1
  O  O4  1  0.52654800  0.26178600  0.74321700  1
  O  O5  1  0.02886400  0.00948900  0.61852100  1
  O  O6  1  0.52827300  0.76471100  0.49073500  1
  O  O7  1  0.03168400  0.52090700  0.37679300  1
  O  O8  1  0.46351300  0.24129500  0.00495600  1
  O  O9  1  0.02096400  0.47148800  0.12593500  1
  O  O10  1  0.49962200  0.75501500  0.26303000  1
  O  O11  1  0.97208700  0.98594400  0.87692500  1
  O  O12  1  0.47315900  0.73596300  0.75508100  1
  O  O13  1  0.97332300  0.48807700  0.63017800  1
  O  O14  1  0.47601500  0.23711800  0.50651900  1
  O  O15  1  0.97646700  0.98806600  0.38195000  1
loop_
_geom_bond_atom_site_label_1
_geom_bond_atom_site_label_2
_geom_bond_distance
_geom_bond_site_symmetry_2
Li0 O9 2.068153 1_556
Li0 O0 2.108477 1_555
Li0 O3 2.119353 1_555
Li0 O8 2.124449 1_556
Li0 O8 2.139601 1_456
Li0 O0 2.162384 1_455
Li1 O9 2.073844 1_555
Li1 O10 2.109263 1_555
Li1 O1 2.136724 1_565
Li1 O0 2.238720 1_554
Li1 O9 2.318928 1_655
Li1 O1 2.401374 1_465
Li2 O2 2.011612 1_655
Li2 O10 2.051868 1_545
Li2 O15 2.062260 1_545
Li2 O2 2.103449 1_555
Li2 O1 2.158534 1_555
Li2 O10 2.218919 1_645
Li3 O4 2.094076 1_555
Li3 O3 2.124665 1_655
Li3 O8 2.149981 1_556
Li3 O11 2.150878 1_445
Li3 O3 2.153763 1_555
Li3 O11 2.196197 1_545
Li4 O11 2.077109 1_545
Li4 O5 2.112813 1_655
Li4 O4 2.133233 1_655
Li4 O12 2.145071 1_545
Li4 O4 2.172194 1_555
Li4 O12 2.185525 1_645
Li5 O12 2.126746 1_555
Li5 O5 2.127028 1_665
Li5 O13 2.137606 1_455
Li5 O5 2.157949 1_565
Li5 O6 2.160183 1_555
Li5 O13 2.175126 1_555
Li6 O7 1.984721 1_555
Li6 O13 2.127526 1_455
Li6 O14 2.137381 1_455
Li6 O6 2.150458 1_555
Li6 O14 2.178898 1_555
Li6 O6 2.192288 1_455
Li7 O2 2.073538 1_555
Li7 O7 2.145906 1_655
Li7 O15 2.168693 1_445
Li7 O7 2.176629 1_555
Li7 O14 2.208172 1_555
Li7 O15 2.215744 1_545
Li8 O7 1.983759 1_555
Li8 O2 2.015462 1_455
Li8 O10 2.068565 1_555
Li8 O9 2.082514 1_555
Li8 O2 2.137422 1_555
Li8 O10 2.272383 1_455
Mn0 O8 1.936735 1_666
Mn0 O0 1.938117 1_555
Mn0 O11 1.960980 1_555
Mn0 O1 2.006981 1_566
Mn0 O8 2.205156 1_566
Mn0 O0 2.227446 1_655
Mn1 O2 1.812139 1_555
Mn1 O9 1.948066 1_655
Mn1 O9 1.963180 1_555
Mn1 O1 2.004349 1_455
Mn1 O8 2.029664 1_555
Mn1 O1 2.040416 1_555
Co0 O10 1.744340 1_555
Co0 O7 1.866552 1_555
Co0 O6 1.944170 1_555
Co0 O15 1.956282 1_555
Co0 O7 2.114310 1_655
Co0 O15 2.232545 1_455
Co1 O15 1.896339 1_545
Co1 O6 1.918528 1_545
Co1 O14 1.923667 1_655
Co1 O5 1.931479 1_655
Co1 O14 2.170740 1_555
Co1 O6 2.188809 1_645
Co2 O14 1.905477 1_555
Co2 O4 1.924507 1_555
Co2 O5 1.927700 1_555
Co2 O13 1.930525 1_555
Co2 O13 2.192508 1_455
Co2 O5 2.196396 1_655
Co3 O13 1.915511 1_555
Co3 O4 1.921602 1_555
Co3 O12 1.923099 1_655
Co3 O3 1.929896 1_655
Co3 O12 2.181126 1_555
Co3 O4 2.184771 1_655
Co4 O12 1.913135 1_555
Co4 O3 1.916920 1_555
Co4 O11 1.927126 1_555
Co4 O0 1.961375 1_555
Co4 O3 2.174495 1_655
Co4 O11 2.195694 1_455
