# generated using pymatgen
data_OsPt3
_symmetry_space_group_name_H-M   'P 1'
_cell_length_a   18.43647470
_cell_length_b   18.43647470
_cell_length_c   18.43647408
_cell_angle_alpha   17.43327177
_cell_angle_beta   17.43327177
_cell_angle_gamma   17.43327414
_symmetry_Int_Tables_number   1
_chemical_formula_structural   OsPt3
_chemical_formula_sum   'Os8 Pt24'
_cell_volume   490.87420307
_cell_formula_units_Z   8
loop_
 _symmetry_equiv_pos_site_id
 _symmetry_equiv_pos_as_xyz
  1  'x, y, z'
loop_
 _atom_site_type_symbol
 _atom_site_label
 _atom_site_symmetry_multiplicity
 _atom_site_fract_x
 _atom_site_fract_y
 _atom_site_fract_z
 _atom_site_occupancy
  Os  Os0_0  1  0.00000000  0.00000000  0.00000000  1
  Os  Os0_1  1  0.00000000  0.00000000  0.50000000  1
  Os  Os0_2  1  0.00000000  0.50000000  0.00000000  1
  Os  Os0_3  1  0.00000000  0.50000000  0.50000000  1
  Os  Os0_4  1  0.50000000  0.00000000  0.00000000  1
  Os  Os0_5  1  0.50000000  0.00000000  0.50000000  1
  Os  Os0_6  1  0.50000000  0.50000000  0.00000000  1
  Os  Os0_7  1  0.50000000  0.50000000  0.50000000  1
  Pt  Pt0_0  1  0.12655050  0.12655050  0.12655050  1
  Pt  Pt0_1  1  0.12655050  0.12655050  0.62655050  1
  Pt  Pt0_2  1  0.12655050  0.62655050  0.12655050  1
  Pt  Pt0_3  1  0.12655050  0.62655050  0.62655050  1
  Pt  Pt0_4  1  0.62655050  0.12655050  0.12655050  1
  Pt  Pt0_5  1  0.62655050  0.12655050  0.62655050  1
  Pt  Pt0_6  1  0.62655050  0.62655050  0.12655050  1
  Pt  Pt0_7  1  0.62655050  0.62655050  0.62655050  1
  Pt  Pt1_0  1  0.25000000  0.25000000  0.25000000  1
  Pt  Pt1_1  1  0.25000000  0.25000000  0.75000000  1
  Pt  Pt1_2  1  0.25000000  0.75000000  0.25000000  1
  Pt  Pt1_3  1  0.25000000  0.75000000  0.75000000  1
  Pt  Pt1_4  1  0.75000000  0.25000000  0.25000000  1
  Pt  Pt1_5  1  0.75000000  0.25000000  0.75000000  1
  Pt  Pt1_6  1  0.75000000  0.75000000  0.25000000  1
  Pt  Pt1_7  1  0.75000000  0.75000000  0.75000000  1
  Pt  Pt2_0  1  0.37344950  0.37344950  0.37344950  1
  Pt  Pt2_1  1  0.37344950  0.37344950  0.87344950  1
  Pt  Pt2_2  1  0.37344950  0.87344950  0.37344950  1
  Pt  Pt2_3  1  0.37344950  0.87344950  0.87344950  1
  Pt  Pt2_4  1  0.87344950  0.37344950  0.37344950  1
  Pt  Pt2_5  1  0.87344950  0.37344950  0.87344950  1
  Pt  Pt2_6  1  0.87344950  0.87344950  0.37344950  1
  Pt  Pt2_7  1  0.87344950  0.87344950  0.87344950  1
loop_
_geom_bond_atom_site_label_1
_geom_bond_atom_site_label_2
_geom_bond_distance
_geom_bond_site_symmetry_2
Os0_0 Pt2_6 2.715600 1_445
Os0_0 Pt0_1 2.715600 1_554
Os0_0 Pt0_4 2.715601 1_455
Os0_0 Pt0_2 2.715601 1_545
Os0_0 Pt2_5 2.715601 1_454
Os0_0 Pt2_3 2.715601 1_544
Os0_0 Os0_3 2.794008 1_554
Os0_0 Os0_5 2.794008 1_554
Os0_0 Os0_3 2.794008 1_545
Os0_0 Os0_5 2.794008 1_455
Os0_0 Os0_6 2.794008 1_545
Os0_0 Os0_6 2.794008 1_455
Os0_1 Pt2_7 2.715600 1_445
Os0_1 Pt0_0 2.715600 1_555
Os0_1 Pt2_2 2.715601 1_545
Os0_1 Pt2_4 2.715601 1_455
Os0_1 Pt0_3 2.715601 1_545
Os0_1 Pt0_5 2.715601 1_455
Os0_1 Os0_2 2.794008 1_546
Os0_1 Os0_4 2.794008 1_555
Os0_1 Os0_2 2.794008 1_555
Os0_1 Os0_4 2.794008 1_456
Os0_1 Os0_7 2.794008 1_455
Os0_1 Os0_7 2.794008 1_545
Os0_2 Pt2_4 2.715600 1_455
Os0_2 Pt0_3 2.715600 1_554
Os0_2 Pt2_7 2.715601 1_454
Os0_2 Pt2_1 2.715601 1_554
Os0_2 Pt0_0 2.715601 1_555
Os0_2 Pt0_6 2.715601 1_455
Os0_2 Os0_7 2.794008 1_554
Os0_2 Os0_7 2.794008 1_455
Os0_2 Os0_4 2.794008 1_555
Os0_2 Os0_4 2.794008 1_465
Os0_3 Pt0_2 2.715600 1_555
Os0_3 Pt2_5 2.715600 1_455
Os0_3 Pt0_7 2.715601 1_455
Os0_3 Pt0_1 2.715601 1_555
Os0_3 Pt2_0 2.715601 1_555
Os0_3 Pt2_6 2.715601 1_455
Os0_3 Os0_6 2.794008 1_555
Os0_3 Os0_6 2.794008 1_456
Os0_3 Os0_5 2.794008 1_555
Os0_3 Os0_5 2.794008 1_465
Os0_4 Pt2_2 2.715600 1_545
Os0_4 Pt0_5 2.715600 1_554
Os0_4 Pt2_7 2.715601 1_544
Os0_4 Pt2_1 2.715601 1_554
Os0_4 Pt0_6 2.715601 1_545
Os0_4 Pt0_0 2.715601 1_555
Os0_4 Os0_7 2.794008 1_545
Os0_4 Os0_7 2.794008 1_554
Os0_5 Pt0_4 2.715600 1_555
Os0_5 Pt2_3 2.715600 1_545
Os0_5 Pt0_1 2.715601 1_555
Os0_5 Pt0_7 2.715601 1_545
Os0_5 Pt2_0 2.715601 1_555
Os0_5 Pt2_6 2.715601 1_545
Os0_5 Os0_6 2.794008 1_555
Os0_5 Os0_6 2.794008 1_546
Os0_6 Pt2_0 2.715600 1_555
Os0_6 Pt0_7 2.715600 1_554
Os0_6 Pt0_4 2.715601 1_555
Os0_6 Pt0_2 2.715601 1_555
Os0_6 Pt2_3 2.715601 1_554
Os0_6 Pt2_5 2.715601 1_554
Os0_7 Pt2_1 2.715600 1_555
Os0_7 Pt0_6 2.715600 1_555
Os0_7 Pt2_4 2.715601 1_555
Os0_7 Pt2_2 2.715601 1_555
Os0_7 Pt0_5 2.715601 1_555
Os0_7 Pt0_3 2.715601 1_555
Pt0_0 Pt0_3 2.794008 1_545
Pt0_0 Pt0_3 2.794008 1_554
Pt0_0 Pt0_5 2.794008 1_455
Pt0_0 Pt0_5 2.794008 1_554
Pt0_0 Pt0_6 2.794008 1_455
Pt0_0 Pt0_6 2.794008 1_545
Pt0_0 Pt1_1 2.853210 1_554
Pt0_0 Pt1_4 2.853210 1_455
Pt0_0 Pt1_2 2.853210 1_545
Pt0_1 Pt0_2 2.794008 1_555
Pt0_1 Pt0_2 2.794008 1_546
Pt0_1 Pt0_4 2.794008 1_555
Pt0_1 Pt0_4 2.794008 1_456
Pt0_1 Pt0_7 2.794008 1_455
Pt0_1 Pt0_7 2.794008 1_545
Pt0_1 Pt1_0 2.853210 1_555
Pt0_1 Pt1_5 2.853210 1_455
Pt0_1 Pt1_3 2.853210 1_545
Pt0_2 Pt0_7 2.794008 1_455
Pt0_2 Pt0_7 2.794008 1_554
Pt0_2 Pt0_4 2.794008 1_465
Pt0_2 Pt0_4 2.794008 1_555
Pt0_2 Pt1_3 2.853210 1_554
Pt0_2 Pt1_6 2.853210 1_455
Pt0_2 Pt1_0 2.853210 1_555
Pt0_3 Pt0_6 2.794008 1_555
Pt0_3 Pt0_6 2.794008 1_456
Pt0_3 Pt0_5 2.794008 1_465
Pt0_3 Pt0_5 2.794008 1_555
Pt0_3 Pt1_2 2.853210 1_555
Pt0_3 Pt1_1 2.853210 1_555
Pt0_3 Pt1_7 2.853210 1_455
Pt0_4 Pt0_7 2.794008 1_545
Pt0_4 Pt0_7 2.794008 1_554
Pt0_4 Pt1_5 2.853210 1_554
Pt0_4 Pt1_0 2.853210 1_555
Pt0_4 Pt1_6 2.853210 1_545
Pt0_5 Pt0_6 2.794008 1_555
Pt0_5 Pt0_6 2.794008 1_546
Pt0_5 Pt1_4 2.853210 1_555
Pt0_5 Pt1_1 2.853210 1_555
Pt0_5 Pt1_7 2.853210 1_545
Pt0_6 Pt1_7 2.853210 1_554
Pt0_6 Pt1_2 2.853210 1_555
Pt0_6 Pt1_4 2.853210 1_555
Pt0_7 Pt1_6 2.853210 1_555
Pt0_7 Pt1_3 2.853210 1_555
Pt0_7 Pt1_5 2.853210 1_555
Pt1_0 Pt1_3 2.794008 1_554
Pt1_0 Pt1_5 2.794008 1_554
Pt1_0 Pt1_5 2.794008 1_455
Pt1_0 Pt1_3 2.794008 1_545
Pt1_0 Pt1_6 2.794008 1_545
Pt1_0 Pt1_6 2.794008 1_455
Pt1_0 Pt2_1 2.853210 1_554
Pt1_0 Pt2_2 2.853210 1_545
Pt1_0 Pt2_4 2.853210 1_455
Pt1_1 Pt1_4 2.794008 1_456
Pt1_1 Pt1_2 2.794008 1_546
Pt1_1 Pt1_4 2.794008 1_555
Pt1_1 Pt1_2 2.794008 1_555
Pt1_1 Pt1_7 2.794008 1_455
Pt1_1 Pt1_7 2.794008 1_545
Pt1_1 Pt2_0 2.853210 1_555
Pt1_1 Pt2_5 2.853210 1_455
Pt1_1 Pt2_3 2.853210 1_545
Pt1_2 Pt1_7 2.794008 1_554
Pt1_2 Pt1_7 2.794008 1_455
Pt1_2 Pt1_4 2.794008 1_465
Pt1_2 Pt1_4 2.794008 1_555
Pt1_2 Pt2_3 2.853210 1_554
Pt1_2 Pt2_0 2.853210 1_555
Pt1_2 Pt2_6 2.853210 1_455
Pt1_3 Pt1_6 2.794008 1_456
Pt1_3 Pt1_6 2.794008 1_555
Pt1_3 Pt1_5 2.794008 1_555
Pt1_3 Pt1_5 2.794008 1_465
Pt1_3 Pt2_2 2.853210 1_555
Pt1_3 Pt2_1 2.853210 1_555
Pt1_3 Pt2_7 2.853210 1_455
Pt1_4 Pt1_7 2.794008 1_554
Pt1_4 Pt1_7 2.794008 1_545
Pt1_4 Pt2_5 2.853210 1_554
Pt1_4 Pt2_0 2.853210 1_555
Pt1_4 Pt2_6 2.853210 1_545
Pt1_5 Pt1_6 2.794008 1_546
Pt1_5 Pt1_6 2.794008 1_555
Pt1_5 Pt2_4 2.853210 1_555
Pt1_5 Pt2_1 2.853210 1_555
Pt1_5 Pt2_7 2.853210 1_545
Pt1_6 Pt2_7 2.853210 1_554
Pt1_6 Pt2_4 2.853210 1_555
Pt1_6 Pt2_2 2.853210 1_555
Pt1_7 Pt2_6 2.853210 1_555
Pt1_7 Pt2_5 2.853210 1_555
Pt1_7 Pt2_3 2.853210 1_555
Pt2_0 Pt2_5 2.794008 1_554
Pt2_0 Pt2_3 2.794008 1_554
Pt2_0 Pt2_5 2.794008 1_455
Pt2_0 Pt2_3 2.794008 1_545
Pt2_0 Pt2_6 2.794008 1_455
Pt2_0 Pt2_6 2.794008 1_545
Pt2_1 Pt2_4 2.794008 1_456
Pt2_1 Pt2_2 2.794008 1_546
Pt2_1 Pt2_4 2.794008 1_555
Pt2_1 Pt2_2 2.794008 1_555
Pt2_1 Pt2_7 2.794008 1_455
Pt2_1 Pt2_7 2.794008 1_545
Pt2_2 Pt2_7 2.794008 1_554
Pt2_2 Pt2_7 2.794008 1_455
Pt2_2 Pt2_4 2.794008 1_555
Pt2_2 Pt2_4 2.794008 1_465
Pt2_3 Pt2_6 2.794008 1_456
Pt2_3 Pt2_6 2.794008 1_555
Pt2_3 Pt2_5 2.794008 1_555
Pt2_3 Pt2_5 2.794008 1_465
Pt2_4 Pt2_7 2.794008 1_554
Pt2_4 Pt2_7 2.794008 1_545
Pt2_5 Pt2_6 2.794008 1_546
Pt2_5 Pt2_6 2.794008 1_555
