# generated using pymatgen
data_Mg30MnCO32
_symmetry_space_group_name_H-M   'P 1'
_cell_length_a   8.52420300
_cell_length_b   8.52420300
_cell_length_c   8.51914900
_cell_angle_alpha   90.00000000
_cell_angle_beta   90.00000000
_cell_angle_gamma   90.00000000
_symmetry_Int_Tables_number   1
_chemical_formula_structural   Mg30MnCO32
_chemical_formula_sum   'Mg30 Mn1 C1 O32'
_cell_volume   619.01871802
_cell_formula_units_Z   1
loop_
 _symmetry_equiv_pos_site_id
 _symmetry_equiv_pos_as_xyz
  1  'x, y, z'
loop_
 _atom_site_type_symbol
 _atom_site_label
 _atom_site_symmetry_multiplicity
 _atom_site_fract_x
 _atom_site_fract_y
 _atom_site_fract_z
 _atom_site_occupancy
  Mg  Mg0  1  0.50000000  0.00000000  0.00000000  1
  Mg  Mg1  1  0.50000000  0.00000000  0.50000000  1
  Mg  Mg2  1  0.00000000  0.50000000  0.00000000  1
  Mg  Mg3  1  0.00000000  0.50000000  0.50000000  1
  Mg  Mg4  1  0.50000000  0.50000000  0.00000000  1
  Mg  Mg5  1  0.50000000  0.50000000  0.50000000  1
  Mg  Mg6  1  0.24926500  0.00000000  0.25272100  1
  Mg  Mg7  1  0.24926500  0.00000000  0.74727900  1
  Mg  Mg8  1  0.75073500  0.00000000  0.25272100  1
  Mg  Mg9  1  0.75073500  0.00000000  0.74727900  1
  Mg  Mg10  1  0.24977000  0.50000000  0.25036200  1
  Mg  Mg11  1  0.24977000  0.50000000  0.74963800  1
  Mg  Mg12  1  0.75023000  0.50000000  0.25036200  1
  Mg  Mg13  1  0.75023000  0.50000000  0.74963800  1
  Mg  Mg14  1  0.00000000  0.24926500  0.25272100  1
  Mg  Mg15  1  0.00000000  0.24926500  0.74727900  1
  Mg  Mg16  1  0.50000000  0.24977000  0.25036200  1
  Mg  Mg17  1  0.50000000  0.24977000  0.74963800  1
  Mg  Mg18  1  0.00000000  0.75073500  0.25272100  1
  Mg  Mg19  1  0.00000000  0.75073500  0.74727900  1
  Mg  Mg20  1  0.50000000  0.75023000  0.25036200  1
  Mg  Mg21  1  0.50000000  0.75023000  0.74963800  1
  Mg  Mg22  1  0.25097000  0.25097000  0.00000000  1
  Mg  Mg23  1  0.24798000  0.24798000  0.50000000  1
  Mg  Mg24  1  0.74903000  0.25097000  0.00000000  1
  Mg  Mg25  1  0.75202000  0.24798000  0.50000000  1
  Mg  Mg26  1  0.25097000  0.74903000  0.00000000  1
  Mg  Mg27  1  0.24798000  0.75202000  0.50000000  1
  Mg  Mg28  1  0.74903000  0.74903000  0.00000000  1
  Mg  Mg29  1  0.75202000  0.75202000  0.50000000  1
  Mn  Mn0  1  0.00000000  0.00000000  0.00000000  1
  C  C0  1  0.00000000  0.00000000  0.50000000  1
  O  O0  1  0.00000000  0.25591100  0.00000000  1
  O  O1  1  0.00000000  0.25223000  0.50000000  1
  O  O2  1  0.50000000  0.25076900  0.00000000  1
  O  O3  1  0.50000000  0.24955300  0.50000000  1
  O  O4  1  0.00000000  0.74408900  0.00000000  1
  O  O5  1  0.00000000  0.74777000  0.50000000  1
  O  O6  1  0.50000000  0.74923100  0.00000000  1
  O  O7  1  0.50000000  0.75044700  0.50000000  1
  O  O8  1  0.24939000  0.24939000  0.25004900  1
  O  O9  1  0.24939000  0.24939000  0.74995100  1
  O  O10  1  0.75061000  0.24939000  0.25004900  1
  O  O11  1  0.75061000  0.24939000  0.74995100  1
  O  O12  1  0.24939000  0.75061000  0.25004900  1
  O  O13  1  0.24939000  0.75061000  0.74995100  1
  O  O14  1  0.75061000  0.75061000  0.25004900  1
  O  O15  1  0.75061000  0.75061000  0.74995100  1
  O  O16  1  0.00000000  0.00000000  0.25266500  1
  O  O17  1  0.00000000  0.00000000  0.74733500  1
  O  O18  1  0.50000000  0.00000000  0.25140600  1
  O  O19  1  0.50000000  0.00000000  0.74859400  1
  O  O20  1  0.00000000  0.50000000  0.25140600  1
  O  O21  1  0.00000000  0.50000000  0.74859400  1
  O  O22  1  0.50000000  0.50000000  0.25031500  1
  O  O23  1  0.50000000  0.50000000  0.74968500  1
  O  O24  1  0.25591100  0.00000000  0.00000000  1
  O  O25  1  0.25223000  0.00000000  0.50000000  1
  O  O26  1  0.74408900  0.00000000  0.00000000  1
  O  O27  1  0.74777000  0.00000000  0.50000000  1
  O  O28  1  0.25076900  0.50000000  0.00000000  1
  O  O29  1  0.24955300  0.50000000  0.50000000  1
  O  O30  1  0.74923100  0.50000000  0.00000000  1
  O  O31  1  0.75044700  0.50000000  0.50000000  1
loop_
_geom_bond_atom_site_label_1
_geom_bond_atom_site_label_2
_geom_bond_distance
_geom_bond_site_symmetry_2
Mg0 O26 2.080664 1_555
Mg0 O24 2.080664 1_555
Mg0 O6 2.137606 1_545
Mg0 O2 2.137606 1_555
Mg0 O18 2.141765 1_555
Mg0 O19 2.141765 1_554
Mg1 O25 2.112042 1_555
Mg1 O27 2.112042 1_555
Mg1 O18 2.117809 1_555
Mg1 O19 2.117809 1_555
Mg1 O7 2.127240 1_545
Mg1 O3 2.127240 1_555
Mg2 O0 2.080664 1_555
Mg2 O4 2.080664 1_555
Mg2 O30 2.137606 1_455
Mg2 O28 2.137606 1_555
Mg2 O20 2.141765 1_555
Mg2 O21 2.141765 1_554
Mg3 O1 2.112042 1_555
Mg3 O5 2.112042 1_555
Mg3 O21 2.117809 1_555
Mg3 O20 2.117809 1_555
Mg3 O29 2.127240 1_555
Mg3 O31 2.127240 1_455
Mg4 O2 2.124496 1_555
Mg4 O28 2.124496 1_555
Mg4 O6 2.124496 1_555
Mg4 O30 2.124496 1_555
Mg4 O23 2.132471 1_554
Mg4 O22 2.132471 1_555
Mg5 O22 2.127104 1_555
Mg5 O23 2.127104 1_555
Mg5 O3 2.134861 1_555
Mg5 O7 2.134861 1_555
Mg5 O29 2.134861 1_555
Mg5 O31 2.134861 1_555
Mg6 O25 2.106758 1_555
Mg6 O16 2.124786 1_555
Mg6 O8 2.125973 1_555
Mg6 O12 2.125973 1_545
Mg6 O18 2.137345 1_555
Mg6 O24 2.153713 1_555
Mg7 O25 2.106758 1_555
Mg7 O17 2.124786 1_555
Mg7 O13 2.125973 1_545
Mg7 O9 2.125973 1_555
Mg7 O19 2.137345 1_555
Mg7 O24 2.153713 1_556
Mg8 O27 2.106758 1_555
Mg8 O16 2.124786 1_655
Mg8 O14 2.125973 1_545
Mg8 O10 2.125973 1_555
Mg8 O18 2.137345 1_555
Mg8 O26 2.153713 1_555
Mg9 O27 2.106758 1_555
Mg9 O17 2.124786 1_655
Mg9 O11 2.125973 1_555
Mg9 O15 2.125973 1_545
Mg9 O19 2.137345 1_555
Mg9 O26 2.153713 1_556
Mg10 O29 2.126704 1_555
Mg10 O20 2.129109 1_555
Mg10 O28 2.132888 1_555
Mg10 O22 2.133011 1_555
Mg10 O12 2.136255 1_555
Mg10 O8 2.136255 1_555
Mg11 O29 2.126704 1_555
Mg11 O21 2.129109 1_555
Mg11 O28 2.132888 1_556
Mg11 O23 2.133011 1_555
Mg11 O9 2.136255 1_555
Mg11 O13 2.136255 1_555
Mg12 O31 2.126704 1_555
Mg12 O20 2.129109 1_655
Mg12 O30 2.132888 1_555
Mg12 O22 2.133011 1_555
Mg12 O10 2.136255 1_555
Mg12 O14 2.136255 1_555
Mg13 O31 2.126704 1_555
Mg13 O21 2.129109 1_655
Mg13 O30 2.132888 1_556
Mg13 O23 2.133011 1_555
Mg13 O15 2.136255 1_555
Mg13 O11 2.136255 1_555
Mg14 O1 2.106758 1_555
Mg14 O16 2.124786 1_555
Mg14 O8 2.125973 1_555
Mg14 O10 2.125973 1_455
Mg14 O20 2.137345 1_555
Mg14 O0 2.153713 1_555
Mg15 O1 2.106758 1_555
Mg15 O17 2.124786 1_555
Mg15 O9 2.125973 1_555
Mg15 O11 2.125973 1_455
Mg15 O21 2.137345 1_555
Mg15 O0 2.153713 1_556
Mg16 O3 2.126704 1_555
Mg16 O18 2.129109 1_555
Mg16 O2 2.132888 1_555
Mg16 O22 2.133011 1_555
Mg16 O10 2.136255 1_555
Mg16 O8 2.136255 1_555
Mg17 O3 2.126704 1_555
Mg17 O19 2.129109 1_555
Mg17 O2 2.132888 1_556
Mg17 O23 2.133011 1_555
Mg17 O9 2.136255 1_555
Mg17 O11 2.136255 1_555
Mg18 O5 2.106758 1_555
Mg18 O16 2.124786 1_565
Mg18 O14 2.125973 1_455
Mg18 O12 2.125973 1_555
Mg18 O20 2.137345 1_555
Mg18 O4 2.153713 1_555
Mg19 O5 2.106758 1_555
Mg19 O17 2.124786 1_565
Mg19 O15 2.125973 1_455
Mg19 O13 2.125973 1_555
Mg19 O21 2.137345 1_555
Mg19 O4 2.153713 1_556
Mg20 O7 2.126704 1_555
Mg20 O18 2.129109 1_565
Mg20 O6 2.132888 1_555
Mg20 O22 2.133011 1_555
Mg20 O12 2.136255 1_555
Mg20 O14 2.136255 1_555
Mg21 O7 2.126704 1_555
Mg21 O19 2.129109 1_565
Mg21 O6 2.132888 1_556
Mg21 O23 2.133011 1_555
Mg21 O15 2.136255 1_555
Mg21 O13 2.136255 1_555
Mg22 O2 2.122783 1_555
Mg22 O28 2.122783 1_555
Mg22 O9 2.130290 1_554
Mg22 O8 2.130290 1_555
Mg22 O0 2.139734 1_555
Mg22 O24 2.139734 1_555
Mg23 O1 2.114142 1_555
Mg23 O25 2.114142 1_555
Mg23 O8 2.129438 1_555
Mg23 O9 2.129438 1_555
Mg23 O3 2.148311 1_555
Mg23 O29 2.148311 1_555
Mg24 O2 2.122783 1_555
Mg24 O30 2.122783 1_555
Mg24 O11 2.130290 1_554
Mg24 O10 2.130290 1_555
Mg24 O0 2.139734 1_655
Mg24 O26 2.139734 1_555
Mg25 O1 2.114142 1_655
Mg25 O27 2.114142 1_555
Mg25 O10 2.129438 1_555
Mg25 O11 2.129438 1_555
Mg25 O31 2.148311 1_555
Mg25 O3 2.148311 1_555
Mg26 O28 2.122783 1_555
Mg26 O6 2.122783 1_555
Mg26 O13 2.130290 1_554
Mg26 O12 2.130290 1_555
Mg26 O24 2.139734 1_565
Mg26 O4 2.139734 1_555
Mg27 O25 2.114142 1_565
Mg27 O5 2.114142 1_555
Mg27 O12 2.129438 1_555
Mg27 O13 2.129438 1_555
Mg27 O29 2.148311 1_555
Mg27 O7 2.148311 1_555
Mg28 O6 2.122783 1_555
Mg28 O30 2.122783 1_555
Mg28 O15 2.130290 1_554
Mg28 O14 2.130290 1_555
Mg28 O26 2.139734 1_565
Mg28 O4 2.139734 1_655
Mg29 O27 2.114142 1_565
Mg29 O5 2.114142 1_655
Mg29 O14 2.129438 1_555
Mg29 O15 2.129438 1_555
Mg29 O31 2.148311 1_555
Mg29 O7 2.148311 1_555
Mn0 O16 2.152491 1_555
Mn0 O17 2.152491 1_554
Mn0 O0 2.181437 1_555
Mn0 O26 2.181437 1_455
Mn0 O4 2.181437 1_545
Mn0 O24 2.181437 1_555
C0 O17 2.107084 1_555
C0 O16 2.107084 1_555
C0 O27 2.150060 1_455
C0 O5 2.150060 1_545
C0 O25 2.150060 1_555
C0 O1 2.150060 1_555
