# generated using pymatgen
data_TaTi
_symmetry_space_group_name_H-M   'P 1'
_cell_length_a   5.63728793
_cell_length_b   5.63728910
_cell_length_c   9.36825738
_cell_angle_alpha   90.00000000
_cell_angle_beta   90.00000000
_cell_angle_gamma   109.19560464
_symmetry_Int_Tables_number   1
_chemical_formula_structural   TaTi
_chemical_formula_sum   'Ta8 Ti8'
_cell_volume   281.16162904
_cell_formula_units_Z   8
loop_
 _symmetry_equiv_pos_site_id
 _symmetry_equiv_pos_as_xyz
  1  'x, y, z'
loop_
 _atom_site_type_symbol
 _atom_site_label
 _atom_site_symmetry_multiplicity
 _atom_site_fract_x
 _atom_site_fract_y
 _atom_site_fract_z
 _atom_site_occupancy
  Ta  Ta0_0  1  0.00000000  0.00000000  0.00000000  1
  Ta  Ta0_1  1  0.00000000  0.00000000  0.50000000  1
  Ta  Ta0_2  1  0.00000000  0.50000000  0.00000000  1
  Ta  Ta0_3  1  0.00000000  0.50000000  0.50000000  1
  Ta  Ta0_4  1  0.50000000  0.00000000  0.00000000  1
  Ta  Ta0_5  1  0.50000000  0.00000000  0.50000000  1
  Ta  Ta0_6  1  0.50000000  0.50000000  0.00000000  1
  Ta  Ta0_7  1  0.50000000  0.50000000  0.50000000  1
  Ti  Ti0_0  1  0.25000000  0.25000000  0.25000000  1
  Ti  Ti0_1  1  0.25000000  0.25000000  0.75000000  1
  Ti  Ti0_2  1  0.25000000  0.75000000  0.25000000  1
  Ti  Ti0_3  1  0.25000000  0.75000000  0.75000000  1
  Ti  Ti0_4  1  0.75000000  0.25000000  0.25000000  1
  Ti  Ti0_5  1  0.75000000  0.25000000  0.75000000  1
  Ti  Ti0_6  1  0.75000000  0.75000000  0.25000000  1
  Ti  Ti0_7  1  0.75000000  0.75000000  0.75000000  1
loop_
_geom_bond_atom_site_label_1
_geom_bond_atom_site_label_2
_geom_bond_distance
_geom_bond_site_symmetry_2
Ta0_0 Ta0_4 2.818644 1_455
Ta0_0 Ta0_4 2.818644 1_555
Ta0_0 Ta0_2 2.818645 1_555
Ta0_0 Ta0_2 2.818645 1_545
Ta0_0 Ti0_6 2.855092 1_445
Ta0_0 Ti0_0 2.855092 1_555
Ta0_0 Ti0_1 2.855092 1_554
Ta0_0 Ti0_7 2.855092 1_444
Ta0_1 Ta0_5 2.818644 1_455
Ta0_1 Ta0_5 2.818644 1_555
Ta0_1 Ta0_3 2.818645 1_555
Ta0_1 Ta0_3 2.818645 1_545
Ta0_1 Ti0_6 2.855092 1_445
Ta0_1 Ti0_0 2.855092 1_555
Ta0_1 Ti0_7 2.855092 1_445
Ta0_1 Ti0_1 2.855092 1_555
Ta0_2 Ta0_6 2.818644 1_455
Ta0_2 Ta0_6 2.818644 1_555
Ta0_2 Ti0_5 2.855092 1_454
Ta0_2 Ti0_3 2.855092 1_554
Ta0_2 Ti0_2 2.855092 1_555
Ta0_2 Ti0_4 2.855092 1_455
Ta0_3 Ta0_7 2.818644 1_455
Ta0_3 Ta0_7 2.818644 1_555
Ta0_3 Ti0_5 2.855092 1_455
Ta0_3 Ti0_3 2.855092 1_555
Ta0_3 Ti0_2 2.855092 1_555
Ta0_3 Ti0_4 2.855092 1_455
Ta0_4 Ta0_6 2.818645 1_545
Ta0_4 Ta0_6 2.818645 1_555
Ta0_4 Ti0_5 2.855092 1_554
Ta0_4 Ti0_4 2.855092 1_555
Ta0_4 Ti0_2 2.855092 1_545
Ta0_4 Ti0_3 2.855092 1_544
Ta0_5 Ta0_7 2.818645 1_545
Ta0_5 Ta0_7 2.818645 1_555
Ta0_5 Ti0_5 2.855092 1_555
Ta0_5 Ti0_4 2.855092 1_555
Ta0_5 Ti0_3 2.855092 1_545
Ta0_5 Ti0_2 2.855092 1_545
Ta0_6 Ti0_7 2.855092 1_554
Ta0_6 Ti0_0 2.855092 1_555
Ta0_6 Ti0_1 2.855092 1_554
Ta0_6 Ti0_6 2.855092 1_555
Ta0_7 Ti0_0 2.855092 1_555
Ta0_7 Ti0_6 2.855092 1_555
Ta0_7 Ti0_7 2.855092 1_555
Ta0_7 Ti0_1 2.855092 1_555
Ti0_0 Ti0_4 2.818644 1_455
Ti0_0 Ti0_4 2.818644 1_555
Ti0_0 Ti0_2 2.818645 1_545
Ti0_0 Ti0_2 2.818645 1_555
Ti0_1 Ti0_5 2.818644 1_455
Ti0_1 Ti0_5 2.818644 1_555
Ti0_1 Ti0_3 2.818645 1_545
Ti0_1 Ti0_3 2.818645 1_555
Ti0_2 Ti0_6 2.818644 1_555
Ti0_2 Ti0_6 2.818644 1_455
Ti0_3 Ti0_7 2.818644 1_455
Ti0_3 Ti0_7 2.818644 1_555
Ti0_4 Ti0_6 2.818645 1_545
Ti0_4 Ti0_6 2.818645 1_555
Ti0_5 Ti0_7 2.818645 1_555
Ti0_5 Ti0_7 2.818645 1_545
