# generated using pymatgen
data_Er2(Al3Pd)3
_symmetry_space_group_name_H-M   'P 1'
_cell_length_a   7.64753147
_cell_length_b   7.64753147
_cell_length_c   9.44723100
_cell_angle_alpha   90.00000000
_cell_angle_beta   90.00000000
_cell_angle_gamma   119.71362780
_symmetry_Int_Tables_number   1
_chemical_formula_structural   Er2(Al3Pd)3
_chemical_formula_sum   'Er4 Al18 Pd6'
_cell_volume   479.87013893
_cell_formula_units_Z   2
loop_
 _symmetry_equiv_pos_site_id
 _symmetry_equiv_pos_as_xyz
  1  'x, y, z'
loop_
 _atom_site_type_symbol
 _atom_site_label
 _atom_site_symmetry_multiplicity
 _atom_site_fract_x
 _atom_site_fract_y
 _atom_site_fract_z
 _atom_site_occupancy
  Er  Er0  1  0.99464400  0.66952000  0.25000000  1
  Er  Er1  1  0.00535600  0.33048000  0.75000000  1
  Er  Er2  1  0.66952000  0.99464400  0.25000000  1
  Er  Er3  1  0.33048000  0.00535600  0.75000000  1
  Al  Al0  1  0.12677000  0.12677000  0.25000000  1
  Al  Al1  1  0.87323000  0.87323000  0.75000000  1
  Al  Al2  1  0.99965000  0.33423800  0.07696400  1
  Al  Al3  1  0.00035000  0.66576200  0.92303600  1
  Al  Al4  1  0.00035000  0.66576200  0.57696400  1
  Al  Al5  1  0.33423800  0.99965000  0.42303600  1
  Al  Al6  1  0.99965000  0.33423800  0.42303600  1
  Al  Al7  1  0.66576200  0.00035000  0.57696400  1
  Al  Al8  1  0.66576200  0.00035000  0.92303600  1
  Al  Al9  1  0.33423800  0.99965000  0.07696400  1
  Al  Al10  1  0.33336000  0.33336000  0.56067300  1
  Al  Al11  1  0.66664000  0.66664000  0.43932700  1
  Al  Al12  1  0.66664000  0.66664000  0.06067300  1
  Al  Al13  1  0.33336000  0.33336000  0.93932700  1
  Al  Al14  1  0.33693000  0.54647700  0.25000000  1
  Al  Al15  1  0.66307000  0.45352300  0.75000000  1
  Al  Al16  1  0.54647700  0.33693000  0.25000000  1
  Al  Al17  1  0.45352300  0.66307000  0.75000000  1
  Pd  Pd0  1  0.67161900  0.32838100  0.00000000  1
  Pd  Pd1  1  0.32838100  0.67161900  0.00000000  1
  Pd  Pd2  1  0.32838100  0.67161900  0.50000000  1
  Pd  Pd3  1  0.67161900  0.32838100  0.50000000  1
  Pd  Pd4  1  0.00000000  0.00000000  0.00000000  1
  Pd  Pd5  1  0.00000000  0.00000000  0.50000000  1
loop_
_geom_bond_atom_site_label_1
_geom_bond_atom_site_label_2
_geom_bond_distance
_geom_bond_site_symmetry_2
Al0 Pd5 2.554637 1_555
Al0 Pd4 2.554637 1_555
Al0 Al5 2.768354 1_545
Al0 Al6 2.768354 1_455
Al0 Al2 2.768354 1_455
Al0 Al9 2.768354 1_545
Al0 Al16 2.787735 1_555
Al0 Al14 2.787735 1_555
Al0 Er2 3.121879 1_445
Al0 Er0 3.121879 1_445
Al1 Pd4 2.554637 1_666
Al1 Pd5 2.554637 1_665
Al1 Al3 2.768354 1_655
Al1 Al8 2.768354 1_565
Al1 Al7 2.768354 1_565
Al1 Al4 2.768354 1_655
Al1 Al15 2.787735 1_555
Al1 Al17 2.787735 1_555
Al1 Er1 3.121879 1_665
Al1 Er3 3.121879 1_665
Al2 Pd0 2.590849 1_555
Al2 Pd4 2.658775 1_655
Al2 Pd1 2.660015 1_655
Al2 Al3 2.920480 1_654
Al2 Al8 2.948076 1_554
Al2 Er2 3.048130 1_545
Al2 Er0 3.057051 1_555
Al2 Er1 3.089548 1_654
Al3 Pd1 2.590849 1_556
Al3 Pd4 2.658775 1_566
Al3 Pd0 2.660015 1_456
Al3 Al9 2.948076 1_556
Al3 Er3 3.048130 1_565
Al3 Er1 3.057051 1_555
Al3 Er0 3.089548 1_456
Al4 Pd2 2.590849 1_555
Al4 Pd5 2.658775 1_565
Al4 Pd3 2.660015 1_455
Al4 Al6 2.920480 1_455
Al4 Al5 2.948076 1_555
Al4 Er3 3.048130 1_565
Al4 Er1 3.057051 1_555
Al4 Er0 3.089548 1_455
Al5 Pd2 2.590849 1_555
Al5 Pd5 2.658775 1_565
Al5 Pd3 2.660015 1_565
Al5 Al7 2.920480 1_565
Al5 Er0 3.048130 1_455
Al5 Er2 3.057051 1_555
Al5 Er3 3.089548 1_565
Al6 Pd3 2.590849 1_555
Al6 Pd5 2.658775 1_655
Al6 Pd2 2.660015 1_655
Al6 Al7 2.948076 1_555
Al6 Er2 3.048130 1_545
Al6 Er0 3.057051 1_555
Al6 Er1 3.089548 1_655
Al7 Pd3 2.590849 1_555
Al7 Pd5 2.658775 1_655
Al7 Pd2 2.660015 1_545
Al7 Er1 3.048130 1_655
Al7 Er3 3.057051 1_555
Al7 Er2 3.089548 1_545
Al8 Pd0 2.590849 1_556
Al8 Pd4 2.658775 1_656
Al8 Pd1 2.660015 1_546
Al8 Al9 2.920480 1_546
Al8 Er1 3.048130 1_655
Al8 Er3 3.057051 1_555
Al8 Er2 3.089548 1_546
Al9 Pd1 2.590849 1_555
Al9 Pd4 2.658775 1_565
Al9 Pd0 2.660015 1_565
Al9 Er0 3.048130 1_455
Al9 Er2 3.057051 1_555
Al9 Er3 3.089548 1_564
Al10 Pd5 2.623783 1_555
Al10 Pd3 2.668224 1_555
Al10 Pd2 2.668224 1_555
Al10 Al11 2.804771 1_555
Al10 Al17 2.846823 1_555
Al10 Al15 2.846823 1_555
Al10 Al5 2.867190 1_545
Al10 Al6 2.867190 1_455
Al10 Er1 3.071976 1_555
Al10 Er3 3.071976 1_555
Al11 Pd5 2.623783 1_665
Al11 Pd3 2.668224 1_555
Al11 Pd2 2.668224 1_555
Al11 Al16 2.846823 1_555
Al11 Al14 2.846823 1_555
Al11 Al4 2.867190 1_655
Al11 Al7 2.867190 1_565
Al11 Er0 3.071976 1_555
Al11 Er2 3.071976 1_555
Al12 Pd4 2.623783 1_665
Al12 Pd1 2.668224 1_555
Al12 Pd0 2.668224 1_555
Al12 Al13 2.804771 1_554
Al12 Al14 2.846823 1_555
Al12 Al16 2.846823 1_555
Al12 Al3 2.867190 1_654
Al12 Al8 2.867190 1_564
Al12 Er0 3.071976 1_555
Al12 Er2 3.071976 1_555
Al13 Pd4 2.623783 1_556
Al13 Pd0 2.668224 1_556
Al13 Pd1 2.668224 1_556
Al13 Al15 2.846823 1_555
Al13 Al17 2.846823 1_555
Al13 Al9 2.867190 1_546
Al13 Al2 2.867190 1_456
Al13 Er1 3.071976 1_555
Al13 Er3 3.071976 1_555
Al14 Pd1 2.561316 1_555
Al14 Pd2 2.561316 1_555
Al14 Al16 2.771628 1_555
Al14 Al6 2.794561 1_455
Al14 Al2 2.794561 1_455
Al14 Er2 3.094238 1_555
Al14 Er0 3.190497 1_455
Al15 Pd0 2.561316 1_556
Al15 Pd3 2.561316 1_555
Al15 Al17 2.771628 1_555
Al15 Al3 2.794561 1_655
Al15 Al4 2.794561 1_655
Al15 Er3 3.094238 1_555
Al15 Er1 3.190497 1_655
Al16 Pd3 2.561316 1_555
Al16 Pd0 2.561316 1_555
Al16 Al5 2.794561 1_545
Al16 Al9 2.794561 1_545
Al16 Er0 3.094238 1_555
Al16 Er2 3.190497 1_545
Al17 Pd1 2.561316 1_556
Al17 Pd2 2.561316 1_555
Al17 Al8 2.794561 1_565
Al17 Al7 2.794561 1_565
Al17 Er1 3.094238 1_555
Al17 Er3 3.190497 1_565
