# generated using pymatgen
data_Fe5HO8
_symmetry_space_group_name_H-M   'P 1'
_cell_length_a   5.96345365
_cell_length_b   5.96345365
_cell_length_c   9.26779700
_cell_angle_alpha   90.00000000
_cell_angle_beta   90.00000000
_cell_angle_gamma   120.00494408
_symmetry_Int_Tables_number   1
_chemical_formula_structural   Fe5HO8
_chemical_formula_sum   'Fe10 H2 O16'
_cell_volume   285.41789723
_cell_formula_units_Z   2
loop_
 _symmetry_equiv_pos_site_id
 _symmetry_equiv_pos_as_xyz
  1  'x, y, z'
loop_
 _atom_site_type_symbol
 _atom_site_label
 _atom_site_symmetry_multiplicity
 _atom_site_fract_x
 _atom_site_fract_y
 _atom_site_fract_z
 _atom_site_occupancy
  Fe  Fe0  1  0.16669000  0.83331000  0.12896000  1
  Fe  Fe1  1  0.16698500  0.33337100  0.13457400  1
  Fe  Fe2  1  0.66662900  0.83301500  0.13457400  1
  Fe  Fe3  1  0.83331000  0.16669000  0.62896000  1
  Fe  Fe4  1  0.83301500  0.66662900  0.63457400  1
  Fe  Fe5  1  0.33337100  0.16698500  0.63457400  1
  Fe  Fe6  1  0.33269000  0.66731000  0.84117300  1
  Fe  Fe7  1  0.66731000  0.33269000  0.34117300  1
  Fe  Fe8  1  0.33322100  0.66677900  0.45604500  1
  Fe  Fe9  1  0.66677900  0.33322100  0.95604500  1
  H  H0  1  0.00255200  0.99744800  0.90663200  1
  H  H1  1  0.99744800  0.00255200  0.40663200  1
  O  O0  1  0.99785900  0.00214100  0.51299600  1
  O  O1  1  0.00214100  0.99785900  0.01299600  1
  O  O2  1  0.33094600  0.66905400  0.24729700  1
  O  O3  1  0.66905400  0.33094600  0.74729700  1
  O  O4  1  0.16568800  0.83431200  0.73769400  1
  O  O5  1  0.15580900  0.32774300  0.73521100  1
  O  O6  1  0.67225700  0.84419100  0.73521100  1
  O  O7  1  0.83431200  0.16568800  0.23769400  1
  O  O8  1  0.84419100  0.67225700  0.23521100  1
  O  O9  1  0.32774300  0.15580900  0.23521100  1
  O  O10  1  0.51468600  0.48531400  0.49637800  1
  O  O11  1  0.52155700  0.03152300  0.50147700  1
  O  O12  1  0.96847700  0.47844300  0.50147700  1
  O  O13  1  0.48531400  0.51468600  0.99637800  1
  O  O14  1  0.47844300  0.96847700  0.00147700  1
  O  O15  1  0.03152300  0.52155700  0.00147700  1
loop_
_geom_bond_atom_site_label_1
_geom_bond_atom_site_label_2
_geom_bond_distance
_geom_bond_site_symmetry_2
Fe0 O8 1.934795 1_455
Fe0 O9 1.934795 1_565
Fe0 O15 2.000799 1_555
Fe0 O14 2.000799 1_555
Fe0 O1 2.010951 1_555
Fe0 O2 2.020248 1_555
Fe1 O7 1.965949 1_455
Fe1 O9 1.981277 1_555
Fe1 O2 2.024135 1_555
Fe1 O1 2.066888 1_545
Fe1 O15 2.083329 1_555
Fe1 O13 2.088131 1_554
Fe2 O7 1.965949 1_565
Fe2 O8 1.981277 1_555
Fe2 O2 2.024135 1_555
Fe2 O1 2.066888 1_655
Fe2 O14 2.083329 1_555
Fe2 O13 2.088131 1_554
Fe3 O6 1.934795 1_545
Fe3 O5 1.934795 1_655
Fe3 O11 2.000799 1_555
Fe3 O12 2.000799 1_555
Fe3 O0 2.010951 1_555
Fe3 O3 2.020248 1_555
Fe4 O4 1.965949 1_655
Fe4 O6 1.981277 1_555
Fe4 O3 2.024135 1_555
Fe4 O0 2.066888 1_565
Fe4 O12 2.083329 1_555
Fe4 O10 2.088131 1_555
Fe5 O4 1.965949 1_545
Fe5 O5 1.981277 1_555
Fe5 O3 2.024135 1_555
Fe5 O0 2.066888 1_455
Fe5 O11 2.083329 1_555
Fe5 O10 2.088131 1_555
Fe6 O4 1.973670 1_555
Fe6 O5 2.010301 1_555
Fe6 O6 2.010301 1_555
Fe6 O13 2.134092 1_555
Fe6 O15 2.151045 1_556
Fe6 O14 2.151045 1_556
Fe7 O7 1.973670 1_555
Fe7 O9 2.010301 1_555
Fe7 O8 2.010301 1_555
Fe7 O10 2.134092 1_555
Fe7 O11 2.151045 1_555
Fe7 O12 2.151045 1_555
Fe8 O10 1.911308 1_555
Fe8 O12 1.930438 1_455
Fe8 O11 1.930438 1_565
Fe8 O2 1.934777 1_555
Fe9 O13 1.911308 1_555
Fe9 O15 1.930438 1_656
Fe9 O14 1.930438 1_546
Fe9 O3 1.934777 1_555
H0 O1 0.985769 1_556
H1 O0 0.985769 1_555
