# generated using pymatgen
data_Ba2AlBi3O8
_symmetry_space_group_name_H-M   'P 1'
_cell_length_a   4.31198500
_cell_length_b   4.31198500
_cell_length_c   13.63273000
_cell_angle_alpha   90.00000000
_cell_angle_beta   90.00000000
_cell_angle_gamma   90.00000000
_symmetry_Int_Tables_number   1
_chemical_formula_structural   Ba2AlBi3O8
_chemical_formula_sum   'Ba2 Al1 Bi3 O8'
_cell_volume   253.47627502
_cell_formula_units_Z   1
loop_
 _symmetry_equiv_pos_site_id
 _symmetry_equiv_pos_as_xyz
  1  'x, y, z'
loop_
 _atom_site_type_symbol
 _atom_site_label
 _atom_site_symmetry_multiplicity
 _atom_site_fract_x
 _atom_site_fract_y
 _atom_site_fract_z
 _atom_site_occupancy
  Ba  Ba0  1  0.50000000  0.50000000  0.14689300  1
  Ba  Ba1  1  0.50000000  0.50000000  0.85310700  1
  Al  Al0  1  0.50000000  0.50000000  0.50000000  1
  Bi  Bi0  1  0.00000000  0.00000000  0.34981900  1
  Bi  Bi1  1  0.00000000  0.00000000  0.00000000  1
  Bi  Bi2  1  0.00000000  0.00000000  0.65018100  1
  O  O0  1  0.00000000  0.50000000  0.40645300  1
  O  O1  1  0.50000000  0.00000000  0.40645300  1
  O  O2  1  0.50000000  0.00000000  0.00000000  1
  O  O3  1  0.00000000  0.00000000  0.17643100  1
  O  O4  1  0.00000000  0.50000000  0.59354700  1
  O  O5  1  0.50000000  0.00000000  0.59354700  1
  O  O6  1  0.00000000  0.00000000  0.82356900  1
  O  O7  1  0.00000000  0.50000000  0.00000000  1
loop_
_geom_bond_atom_site_label_1
_geom_bond_atom_site_label_2
_geom_bond_distance
_geom_bond_site_symmetry_2
Ba0 O2 2.942536 1_565
Ba0 O7 2.942536 1_555
Ba0 O7 2.942536 1_655
Ba0 O2 2.942536 1_555
Ba0 O3 3.075510 1_555
Ba0 O3 3.075510 1_655
Ba0 O3 3.075510 1_565
Ba0 O3 3.075510 1_665
Ba1 O2 2.942536 1_556
Ba1 O7 2.942536 1_556
Ba1 O2 2.942536 1_566
Ba1 O7 2.942536 1_656
Ba1 O6 3.075510 1_655
Ba1 O6 3.075510 1_565
Ba1 O6 3.075510 1_665
Ba1 O6 3.075510 1_555
Al0 O5 2.504934 1_565
Al0 O4 2.504934 1_655
Al0 O4 2.504934 1_555
Al0 O5 2.504934 1_555
Al0 O0 2.504934 1_655
Al0 O0 2.504934 1_555
Al0 O1 2.504934 1_565
Al0 O1 2.504934 1_555
Bi0 O1 2.290067 1_455
Bi0 O1 2.290067 1_555
Bi0 O0 2.290067 1_545
Bi0 O0 2.290067 1_555
Bi0 O3 2.363752 1_555
Bi1 O2 2.155992 1_555
Bi1 O2 2.155992 1_455
Bi1 O7 2.155992 1_545
Bi1 O7 2.155992 1_555
Bi1 O6 2.405236 1_554
Bi1 O3 2.405236 1_555
Bi2 O4 2.290067 1_545
Bi2 O4 2.290067 1_555
Bi2 O5 2.290067 1_455
Bi2 O5 2.290067 1_555
Bi2 O6 2.363752 1_555
