# generated using pymatgen
data_Pr5Ge4
_symmetry_space_group_name_H-M   'P 1'
_cell_length_a   8.01725100
_cell_length_b   8.11065600
_cell_length_c   15.35813500
_cell_angle_alpha   90.00000000
_cell_angle_beta   90.00000000
_cell_angle_gamma   90.00000000
_symmetry_Int_Tables_number   1
_chemical_formula_structural   Pr5Ge4
_chemical_formula_sum   'Pr20 Ge16'
_cell_volume   998.66526134
_cell_formula_units_Z   4
loop_
 _symmetry_equiv_pos_site_id
 _symmetry_equiv_pos_as_xyz
  1  'x, y, z'
loop_
 _atom_site_type_symbol
 _atom_site_label
 _atom_site_symmetry_multiplicity
 _atom_site_fract_x
 _atom_site_fract_y
 _atom_site_fract_z
 _atom_site_occupancy
  Pr  Pr0  1  0.38029800  0.16005800  0.11433100  1
  Pr  Pr1  1  0.88029800  0.33994200  0.38566900  1
  Pr  Pr2  1  0.11970200  0.66005800  0.88566900  1
  Pr  Pr3  1  0.61970200  0.83994200  0.61433100  1
  Pr  Pr4  1  0.38029800  0.16005800  0.38566900  1
  Pr  Pr5  1  0.88029800  0.33994200  0.11433100  1
  Pr  Pr6  1  0.11970200  0.66005800  0.61433100  1
  Pr  Pr7  1  0.61970200  0.83994200  0.88566900  1
  Pr  Pr8  1  0.02464700  0.82099800  0.39723300  1
  Pr  Pr9  1  0.52464700  0.67900200  0.10276700  1
  Pr  Pr10  1  0.47535300  0.32099800  0.60276700  1
  Pr  Pr11  1  0.97535300  0.17900200  0.89723300  1
  Pr  Pr12  1  0.97535300  0.17900200  0.60276700  1
  Pr  Pr13  1  0.47535300  0.32099800  0.89723300  1
  Pr  Pr14  1  0.52464700  0.67900200  0.39723300  1
  Pr  Pr15  1  0.02464700  0.82099800  0.10276700  1
  Pr  Pr16  1  0.28505800  0.99725200  0.75000000  1
  Pr  Pr17  1  0.78505800  0.50274800  0.75000000  1
  Pr  Pr18  1  0.21494200  0.49725200  0.25000000  1
  Pr  Pr19  1  0.71494200  0.00274800  0.25000000  1
  Ge  Ge0  1  0.77757400  0.53193500  0.54504200  1
  Ge  Ge1  1  0.27757400  0.96806500  0.95495800  1
  Ge  Ge2  1  0.72242600  0.03193500  0.45495800  1
  Ge  Ge3  1  0.22242600  0.46806500  0.04504200  1
  Ge  Ge4  1  0.22242600  0.46806500  0.45495800  1
  Ge  Ge5  1  0.72242600  0.03193500  0.04504200  1
  Ge  Ge6  1  0.27757400  0.96806500  0.54504200  1
  Ge  Ge7  1  0.77757400  0.53193500  0.95495800  1
  Ge  Ge8  1  0.91044700  0.89139200  0.75000000  1
  Ge  Ge9  1  0.41044700  0.60860800  0.75000000  1
  Ge  Ge10  1  0.58955300  0.39139200  0.25000000  1
  Ge  Ge11  1  0.08955300  0.10860800  0.25000000  1
  Ge  Ge12  1  0.17532400  0.36767600  0.75000000  1
  Ge  Ge13  1  0.67532400  0.13232400  0.75000000  1
  Ge  Ge14  1  0.32467600  0.86767600  0.25000000  1
  Ge  Ge15  1  0.82467600  0.63232400  0.25000000  1
loop_
_geom_bond_atom_site_label_1
_geom_bond_atom_site_label_2
_geom_bond_distance
_geom_bond_site_symmetry_2
Ge0 Pr3 2.995848 1_555
Ge0 Pr1 3.015658 1_555
Ge0 Pr10 3.095767 1_555
Ge0 Pr6 3.120243 1_655
Ge0 Pr17 3.157232 1_555
Ge0 Pr14 3.269236 1_555
Ge0 Pr12 3.390316 1_555
Ge0 Pr8 3.817540 1_655
Ge1 Pr2 2.995848 1_555
Ge1 Pr0 3.015658 1_566
Ge1 Pr11 3.095767 1_465
Ge1 Pr7 3.120243 1_555
Ge1 Pr16 3.157232 1_555
Ge1 Pr15 3.269236 1_556
Ge1 Pr13 3.390316 1_565
Ge1 Pr9 3.817540 1_556
Ge2 Pr1 2.995848 1_555
Ge2 Pr3 3.015658 1_545
Ge2 Pr8 3.095767 1_645
Ge2 Pr4 3.120243 1_555
Ge2 Pr19 3.157232 1_555
Ge2 Pr12 3.269236 1_555
Ge2 Pr14 3.390316 1_545
Ge2 Pr10 3.817540 1_555
Ge3 Pr0 2.995848 1_555
Ge3 Pr2 3.015658 1_554
Ge3 Pr9 3.095767 1_555
Ge3 Pr5 3.120243 1_455
Ge3 Pr18 3.157232 1_555
Ge3 Pr13 3.269236 1_554
Ge3 Pr15 3.390316 1_555
Ge3 Pr11 3.817540 1_454
Ge4 Pr4 2.995848 1_555
Ge4 Pr6 3.015658 1_555
Ge4 Pr14 3.095767 1_555
Ge4 Pr1 3.120243 1_455
Ge4 Pr18 3.157232 1_555
Ge4 Pr10 3.269236 1_555
Ge4 Pr8 3.390316 1_555
Ge4 Pr12 3.817540 1_455
Ge5 Pr5 2.995848 1_555
Ge5 Pr7 3.015658 1_544
Ge5 Pr15 3.095767 1_645
Ge5 Pr0 3.120243 1_555
Ge5 Pr19 3.157232 1_555
Ge5 Pr11 3.269236 1_554
Ge5 Pr9 3.390316 1_545
Ge5 Pr13 3.817540 1_554
Ge6 Pr6 2.995848 1_555
Ge6 Pr4 3.015658 1_565
Ge6 Pr12 3.095767 1_465
Ge6 Pr3 3.120243 1_555
Ge6 Pr16 3.157232 1_555
Ge6 Pr8 3.269236 1_555
Ge6 Pr10 3.390316 1_565
Ge6 Pr14 3.817540 1_555
Ge7 Pr7 2.995848 1_555
Ge7 Pr5 3.015658 1_556
Ge7 Pr13 3.095767 1_555
Ge7 Pr2 3.120243 1_655
Ge7 Pr17 3.157232 1_555
Ge7 Pr9 3.269236 1_556
Ge7 Pr11 3.390316 1_555
Ge7 Pr15 3.817540 1_656
Ge8 Pr16 3.123667 1_655
Ge8 Pr7 3.154214 1_555
Ge8 Pr3 3.154214 1_555
Ge8 Pr2 3.267474 1_655
Ge8 Pr6 3.267474 1_655
Ge8 Pr11 3.290203 1_565
Ge8 Pr12 3.290203 1_565
Ge8 Pr17 3.308576 1_555
Ge9 Pr17 3.123667 1_555
Ge9 Pr2 3.154214 1_555
Ge9 Pr6 3.154214 1_555
Ge9 Pr7 3.267474 1_555
Ge9 Pr3 3.267474 1_555
Ge9 Pr13 3.290203 1_555
Ge9 Pr10 3.290203 1_555
Ge9 Pr16 3.308576 1_555
Ge10 Ge15 2.715133 1_555
Ge10 Pr18 3.123667 1_555
Ge10 Pr1 3.154214 1_555
Ge10 Pr5 3.154214 1_555
Ge10 Pr4 3.267474 1_555
Ge10 Pr0 3.267474 1_555
Ge10 Pr9 3.290203 1_555
Ge10 Pr14 3.290203 1_555
Ge10 Pr19 3.308576 1_555
Ge11 Ge14 2.715133 1_545
Ge11 Pr19 3.123667 1_455
Ge11 Pr4 3.154214 1_555
Ge11 Pr0 3.154214 1_555
Ge11 Pr1 3.267474 1_455
Ge11 Pr5 3.267474 1_455
Ge11 Pr15 3.290203 1_545
Ge11 Pr8 3.290203 1_545
Ge11 Pr18 3.308576 1_555
Ge12 Ge9 2.715133 1_555
Ge12 Pr16 3.130542 1_545
Ge12 Pr11 3.166255 1_455
Ge12 Pr12 3.166255 1_455
Ge12 Pr2 3.188091 1_555
Ge12 Pr6 3.188091 1_555
Ge12 Pr17 3.315107 1_455
Ge12 Pr13 3.323018 1_555
Ge12 Pr10 3.323018 1_555
Ge13 Ge8 2.715133 1_545
Ge13 Pr17 3.130542 1_555
Ge13 Pr13 3.166255 1_555
Ge13 Pr10 3.166255 1_555
Ge13 Pr7 3.188091 1_545
Ge13 Pr3 3.188091 1_545
Ge13 Pr16 3.315107 1_545
Ge13 Pr11 3.323018 1_555
Ge13 Pr12 3.323018 1_555
Ge14 Pr18 3.130542 1_555
Ge14 Pr14 3.166255 1_555
Ge14 Pr9 3.166255 1_555
Ge14 Pr4 3.188091 1_565
Ge14 Pr0 3.188091 1_565
Ge14 Pr19 3.315107 1_565
Ge14 Pr8 3.323018 1_555
Ge14 Pr15 3.323018 1_555
Ge15 Pr19 3.130542 1_565
Ge15 Pr8 3.166255 1_655
Ge15 Pr15 3.166255 1_655
Ge15 Pr1 3.188091 1_555
Ge15 Pr5 3.188091 1_555
Ge15 Pr18 3.315107 1_655
Ge15 Pr9 3.323018 1_555
Ge15 Pr14 3.323018 1_555
