# generated using pymatgen
data_AgPt
_symmetry_space_group_name_H-M   'P 1'
_cell_length_a   5.56609361
_cell_length_b   5.56609361
_cell_length_c   9.59021336
_cell_angle_alpha   90.00000000
_cell_angle_beta   90.00000000
_cell_angle_gamma   120.00000963
_symmetry_Int_Tables_number   1
_chemical_formula_structural   AgPt
_chemical_formula_sum   'Ag8 Pt8'
_cell_volume   257.31189952
_cell_formula_units_Z   8
loop_
 _symmetry_equiv_pos_site_id
 _symmetry_equiv_pos_as_xyz
  1  'x, y, z'
loop_
 _atom_site_type_symbol
 _atom_site_label
 _atom_site_symmetry_multiplicity
 _atom_site_fract_x
 _atom_site_fract_y
 _atom_site_fract_z
 _atom_site_occupancy
  Ag  Ag0_0  1  0.16666651  0.33333349  0.25000000  1
  Ag  Ag0_1  1  0.16666651  0.33333349  0.75000000  1
  Ag  Ag0_2  1  0.16666650  0.83333349  0.25000000  1
  Ag  Ag0_3  1  0.16666650  0.83333349  0.75000000  1
  Ag  Ag0_4  1  0.66666651  0.33333349  0.25000000  1
  Ag  Ag0_5  1  0.66666651  0.33333349  0.75000000  1
  Ag  Ag0_6  1  0.66666651  0.83333349  0.25000000  1
  Ag  Ag0_7  1  0.66666651  0.83333349  0.75000000  1
  Pt  Pt0_0  1  1.00000000  0.00000001  0.00000000  1
  Pt  Pt0_1  1  1.00000000  0.00000001  0.50000000  1
  Pt  Pt0_2  1  1.00000000  0.50000000  0.00000000  1
  Pt  Pt0_3  1  1.00000000  0.50000000  0.50000000  1
  Pt  Pt0_4  1  0.49999999  0.00000001  0.00000000  1
  Pt  Pt0_5  1  0.49999999  0.00000001  0.50000000  1
  Pt  Pt0_6  1  0.49999999  0.50000000  0.00000000  1
  Pt  Pt0_7  1  0.49999999  0.50000000  0.50000000  1
loop_
_geom_bond_atom_site_label_1
_geom_bond_atom_site_label_2
_geom_bond_distance
_geom_bond_site_symmetry_2
Ag0_0 Ag0_6 2.783046 1_445
Ag0_0 Ag0_6 2.783046 1_555
Ag0_0 Ag0_4 2.783047 1_555
Ag0_0 Ag0_4 2.783047 1_455
Ag0_0 Ag0_2 2.783047 1_555
Ag0_0 Ag0_2 2.783047 1_545
Ag0_0 Pt0_3 2.886181 1_455
Ag0_0 Pt0_2 2.886181 1_455
Ag0_0 Pt0_0 2.886182 1_455
Ag0_0 Pt0_1 2.886182 1_455
Ag0_0 Pt0_7 2.886182 1_555
Ag0_0 Pt0_6 2.886182 1_555
Ag0_1 Ag0_7 2.783046 1_445
Ag0_1 Ag0_7 2.783046 1_555
Ag0_1 Ag0_3 2.783047 1_555
Ag0_1 Ag0_5 2.783047 1_555
Ag0_1 Ag0_5 2.783047 1_455
Ag0_1 Ag0_3 2.783047 1_545
Ag0_1 Pt0_3 2.886181 1_455
Ag0_1 Pt0_2 2.886181 1_456
Ag0_1 Pt0_0 2.886182 1_456
Ag0_1 Pt0_6 2.886182 1_556
Ag0_1 Pt0_1 2.886182 1_455
Ag0_1 Pt0_7 2.886182 1_555
Ag0_2 Ag0_4 2.783046 1_455
Ag0_2 Ag0_4 2.783046 1_565
Ag0_2 Ag0_6 2.783047 1_555
Ag0_2 Ag0_6 2.783047 1_455
Ag0_2 Pt0_1 2.886181 1_465
Ag0_2 Pt0_0 2.886181 1_465
Ag0_2 Pt0_2 2.886182 1_455
Ag0_2 Pt0_3 2.886182 1_455
Ag0_2 Pt0_4 2.886182 1_565
Ag0_2 Pt0_5 2.886182 1_565
Ag0_3 Ag0_5 2.783046 1_565
Ag0_3 Ag0_5 2.783046 1_455
Ag0_3 Ag0_7 2.783047 1_555
Ag0_3 Ag0_7 2.783047 1_455
Ag0_3 Pt0_0 2.886181 1_466
Ag0_3 Pt0_1 2.886181 1_465
Ag0_3 Pt0_2 2.886182 1_456
Ag0_3 Pt0_4 2.886182 1_566
Ag0_3 Pt0_3 2.886182 1_455
Ag0_3 Pt0_5 2.886182 1_565
Ag0_4 Ag0_6 2.783047 1_555
Ag0_4 Ag0_6 2.783047 1_545
Ag0_4 Pt0_6 2.886181 1_555
Ag0_4 Pt0_7 2.886181 1_555
Ag0_4 Pt0_5 2.886182 1_555
Ag0_4 Pt0_4 2.886182 1_555
Ag0_4 Pt0_2 2.886182 1_555
Ag0_4 Pt0_3 2.886182 1_555
Ag0_5 Ag0_7 2.783047 1_555
Ag0_5 Ag0_7 2.783047 1_545
Ag0_5 Pt0_6 2.886181 1_556
Ag0_5 Pt0_7 2.886181 1_555
Ag0_5 Pt0_2 2.886182 1_556
Ag0_5 Pt0_5 2.886182 1_555
Ag0_5 Pt0_4 2.886182 1_556
Ag0_5 Pt0_3 2.886182 1_555
Ag0_6 Pt0_4 2.886181 1_565
Ag0_6 Pt0_5 2.886181 1_565
Ag0_6 Pt0_0 2.886182 1_565
Ag0_6 Pt0_1 2.886182 1_565
Ag0_6 Pt0_7 2.886182 1_555
Ag0_6 Pt0_6 2.886182 1_555
Ag0_7 Pt0_4 2.886181 1_566
Ag0_7 Pt0_5 2.886181 1_565
Ag0_7 Pt0_1 2.886182 1_565
Ag0_7 Pt0_6 2.886182 1_556
Ag0_7 Pt0_7 2.886182 1_555
Ag0_7 Pt0_0 2.886182 1_566
Pt0_0 Pt0_6 2.783046 1_655
Pt0_0 Pt0_6 2.783046 1_545
Pt0_0 Pt0_2 2.783047 1_555
Pt0_0 Pt0_2 2.783047 1_545
Pt0_0 Pt0_4 2.783047 1_655
Pt0_0 Pt0_4 2.783047 1_555
Pt0_1 Pt0_7 2.783046 1_655
Pt0_1 Pt0_7 2.783046 1_545
Pt0_1 Pt0_3 2.783047 1_555
Pt0_1 Pt0_5 2.783047 1_655
Pt0_1 Pt0_5 2.783047 1_555
Pt0_1 Pt0_3 2.783047 1_545
Pt0_2 Pt0_4 2.783046 1_555
Pt0_2 Pt0_4 2.783046 1_665
Pt0_2 Pt0_6 2.783047 1_555
Pt0_2 Pt0_6 2.783047 1_655
Pt0_3 Pt0_5 2.783046 1_555
Pt0_3 Pt0_5 2.783046 1_665
Pt0_3 Pt0_7 2.783047 1_555
Pt0_3 Pt0_7 2.783047 1_655
Pt0_4 Pt0_6 2.783047 1_555
Pt0_4 Pt0_6 2.783047 1_545
Pt0_5 Pt0_7 2.783047 1_555
Pt0_5 Pt0_7 2.783047 1_545
