# generated using pymatgen
data_Sm4(CoB2)3
_symmetry_space_group_name_H-M   'P 1'
_cell_length_a   5.31573701
_cell_length_b   5.31573700
_cell_length_c   8.08961292
_cell_angle_alpha   70.81900995
_cell_angle_beta   70.81901120
_cell_angle_gamma   59.99999381
_symmetry_Int_Tables_number   1
_chemical_formula_structural   Sm4(CoB2)3
_chemical_formula_sum   'Sm4 Co3 B6'
_cell_volume   183.16396645
_cell_formula_units_Z   1
loop_
 _symmetry_equiv_pos_site_id
 _symmetry_equiv_pos_as_xyz
  1  'x, y, z'
loop_
 _atom_site_type_symbol
 _atom_site_label
 _atom_site_symmetry_multiplicity
 _atom_site_fract_x
 _atom_site_fract_y
 _atom_site_fract_z
 _atom_site_occupancy
  Sm  Sm0  1  0.74402300  0.74402300  0.76793000  1
  Sm  Sm1  1  0.25597700  0.25597700  0.23207000  1
  Sm  Sm2  1  0.58951500  0.58951500  0.23145600  1
  Sm  Sm3  1  0.41048500  0.41048500  0.76854400  1
  Co  Co0  1  0.00000000  0.00000000  0.00000000  1
  Co  Co1  1  0.88631700  0.88631700  0.34104900  1
  Co  Co2  1  0.11368300  0.11368300  0.65895100  1
  B  B0  1  0.50000000  0.16752500  0.50000000  1
  B  B1  1  0.83247500  0.50000000  0.50000000  1
  B  B2  1  0.16752500  0.83247500  0.50000000  1
  B  B3  1  0.16752500  0.50000000  0.50000000  1
  B  B4  1  0.83247500  0.16752500  0.50000000  1
  B  B5  1  0.50000000  0.83247500  0.50000000  1
loop_
_geom_bond_atom_site_label_1
_geom_bond_atom_site_label_2
_geom_bond_distance
_geom_bond_site_symmetry_2
Sm0 Sm3 3.069045 1_565
Sm0 Sm3 3.069045 1_655
Sm0 Sm3 3.069046 1_555
Sm0 Sm2 3.469417 1_556
Sm1 Sm2 3.069045 1_545
Sm1 Sm2 3.069045 1_455
Sm1 Sm2 3.069046 1_555
Sm1 Sm3 3.469417 1_554
Co0 Co1 2.552697 1_445
Co0 Co2 2.552697 1_554
Co0 Sm3 3.524237 1_554
Co0 Sm2 3.524237 1_445
Co0 Sm3 3.524241 1_454
Co0 Sm2 3.524241 1_545
Co0 Sm2 3.524241 1_455
Co0 Sm3 3.524241 1_544
Co0 Sm0 3.526500 1_454
Co0 Sm1 3.526500 1_545
Co0 Sm1 3.526500 1_455
Co0 Sm0 3.526500 1_544
Co0 Sm0 3.526504 1_444
Co0 Sm1 3.526504 1_555
Co1 Sm1 3.175588 1_565
Co1 Sm1 3.175588 1_655
Co1 Sm1 3.175593 1_665
Co1 Sm2 3.176771 1_555
Co1 Sm2 3.176775 1_565
Co1 Sm2 3.176775 1_655
Co2 Sm0 3.175588 1_545
Co2 Sm0 3.175588 1_455
Co2 Sm0 3.175593 1_445
Co2 Sm3 3.176771 1_555
Co2 Sm3 3.176775 1_545
Co2 Sm3 3.176775 1_455
B0 B3 1.767349 1_555
B0 B4 1.767350 1_555
B0 B5 1.781038 1_545
B0 Co1 2.136169 1_545
B0 Co2 2.136169 1_555
B0 Sm3 2.676500 1_555
B0 Sm2 2.676503 1_555
B0 Sm1 2.677583 1_555
B0 Sm0 2.677585 1_545
B1 B5 1.767349 1_555
B1 B4 1.767350 1_555
B1 B3 1.781038 1_655
B1 Co2 2.136169 1_655
B1 Co1 2.136169 1_555
B1 Sm2 2.676500 1_555
B1 Sm3 2.676503 1_555
B1 Sm0 2.677583 1_555
B1 Sm1 2.677585 1_655
B2 B3 1.767350 1_555
B2 B5 1.767350 1_555
B2 B4 1.781038 1_465
B2 Co1 2.136169 1_455
B2 Co2 2.136169 1_565
B2 Sm3 2.676501 1_555
B2 Sm2 2.676501 1_555
B2 Sm1 2.677586 1_565
B2 Sm0 2.677586 1_455
B3 Co1 2.136169 1_455
B3 Co2 2.136169 1_555
B3 Sm3 2.676500 1_555
B3 Sm2 2.676503 1_555
B3 Sm1 2.677583 1_555
B3 Sm0 2.677585 1_455
B4 Co2 2.136169 1_655
B4 Co1 2.136169 1_545
B4 Sm2 2.676501 1_555
B4 Sm3 2.676501 1_555
B4 Sm0 2.677586 1_545
B4 Sm1 2.677586 1_655
B5 Co2 2.136169 1_565
B5 Co1 2.136169 1_555
B5 Sm2 2.676500 1_555
B5 Sm3 2.676503 1_555
B5 Sm0 2.677583 1_555
B5 Sm1 2.677585 1_565
