# generated using pymatgen
data_Li2MnV3O8
_symmetry_space_group_name_H-M   'P 1'
_cell_length_a   8.20664900
_cell_length_b   8.53248112
_cell_length_c   8.66907492
_cell_angle_alpha   89.99576294
_cell_angle_beta   89.86545609
_cell_angle_gamma   89.92095748
_symmetry_Int_Tables_number   1
_chemical_formula_structural   Li2MnV3O8
_chemical_formula_sum   'Li8 Mn4 V12 O32'
_cell_volume   607.03305365
_cell_formula_units_Z   4
loop_
 _symmetry_equiv_pos_site_id
 _symmetry_equiv_pos_as_xyz
  1  'x, y, z'
loop_
 _atom_site_type_symbol
 _atom_site_label
 _atom_site_symmetry_multiplicity
 _atom_site_fract_x
 _atom_site_fract_y
 _atom_site_fract_z
 _atom_site_occupancy
  Li  Li0  1  0.00416700  0.00209700  0.99838300  1
  Li  Li1  1  0.24613800  0.24858100  0.74944200  1
  Li  Li2  1  0.25369400  0.74935200  0.25140600  1
  Li  Li3  1  0.49685100  0.50017300  0.99960900  1
  Li  Li4  1  0.50342800  0.99889400  0.50082600  1
  Li  Li5  1  0.74759700  0.75160600  0.75072800  1
  Li  Li6  1  0.75355400  0.25068400  0.25002900  1
  Li  Li7  1  0.99643600  0.50006200  0.50065800  1
  Mn  Mn0  1  0.12354800  0.37536600  0.12432000  1
  Mn  Mn1  1  0.37647700  0.87525300  0.87276400  1
  Mn  Mn2  1  0.62463900  0.62434000  0.37345700  1
  Mn  Mn3  1  0.87725100  0.12129500  0.62861100  1
  V  V0  1  0.12547200  0.62530700  0.87136800  1
  V  V1  1  0.12749700  0.87406800  0.61992800  1
  V  V2  1  0.12629700  0.12329600  0.37506800  1
  V  V3  1  0.37433900  0.62197000  0.62848100  1
  V  V4  1  0.37020400  0.37607200  0.38169900  1
  V  V5  1  0.37669300  0.12781600  0.12983600  1
  V  V6  1  0.61824400  0.37275100  0.63172100  1
  V  V7  1  0.62516300  0.12679900  0.87948600  1
  V  V8  1  0.62587500  0.87636300  0.12561800  1
  V  V9  1  0.87725800  0.37761300  0.86709500  1
  V  V10  1  0.87304600  0.62440700  0.11623300  1
  V  V11  1  0.87624900  0.87270900  0.37094900  1
  O  O0  1  0.11337400  0.39070200  0.88122700  1
  O  O1  1  0.10329200  0.61838300  0.11406400  1
  O  O2  1  0.12056600  0.89032800  0.38882700  1
  O  O3  1  0.13988900  0.86294700  0.85518100  1
  O  O4  1  0.11448300  0.10803900  0.60953700  1
  O  O5  1  0.14055800  0.63870100  0.62868400  1
  O  O6  1  0.14058800  0.35982300  0.37393200  1
  O  O7  1  0.13389800  0.13525900  0.14678600  1
  O  O8  1  0.36686500  0.63467500  0.85522900  1
  O  O9  1  0.35807600  0.85916800  0.62665900  1
  O  O10  1  0.35834000  0.13869700  0.37162800  1
  O  O11  1  0.38680100  0.60804300  0.39094000  1
  O  O12  1  0.36166600  0.36370000  0.14707700  1
  O  O13  1  0.37081600  0.39031400  0.61105800  1
  O  O14  1  0.39503100  0.11746900  0.88654200  1
  O  O15  1  0.39750100  0.88920900  0.12093600  1
  O  O16  1  0.60266700  0.61230200  0.62161800  1
  O  O17  1  0.60434100  0.38072100  0.39250400  1
  O  O18  1  0.62165800  0.11142000  0.10981900  1
  O  O19  1  0.64134900  0.13849200  0.64144200  1
  O  O20  1  0.61400500  0.89178900  0.89060200  1
  O  O21  1  0.63245800  0.36153600  0.86411300  1
  O  O22  1  0.64230900  0.64065800  0.12594700  1
  O  O23  1  0.63403400  0.86378500  0.35458300  1
  O  O24  1  0.87079400  0.37093200  0.65265100  1
  O  O25  1  0.85727100  0.13898600  0.87156600  1
  O  O26  1  0.85892700  0.86152200  0.12881400  1
  O  O27  1  0.88544700  0.38877000  0.10138200  1
  O  O28  1  0.86047400  0.63647000  0.35343800  1
  O  O29  1  0.88035200  0.61002100  0.88654000  1
  O  O30  1  0.89702200  0.87793600  0.61326400  1
  O  O31  1  0.89503300  0.11247000  0.38555000  1
loop_
_geom_bond_atom_site_label_1
_geom_bond_atom_site_label_2
_geom_bond_distance
_geom_bond_site_symmetry_2
Li0 O25 2.007067 1_455
Li0 O7 2.022266 1_556
Li0 O26 2.033551 1_446
Li0 O3 2.044869 1_545
Li1 O13 1.986461 1_555
Li1 O0 1.988350 1_555
Li1 O4 2.021465 1_555
Li1 O14 2.039618 1_555
Li2 O2 2.012521 1_555
Li2 O15 2.023250 1_555
Li2 O11 2.027947 1_555
Li2 O1 2.049579 1_555
Li3 O21 2.001992 1_555
Li3 O8 2.006068 1_555
Li3 O22 2.017831 1_556
Li3 O12 2.053722 1_556
Li4 O9 2.007946 1_555
Li4 O23 2.018796 1_555
Li4 O10 2.024172 1_565
Li4 O19 2.048485 1_565
Li5 O29 2.008671 1_555
Li5 O30 2.020484 1_555
Li5 O16 2.022508 1_555
Li5 O20 2.023201 1_555
Li6 O18 2.017667 1_555
Li6 O31 2.030154 1_555
Li6 O27 2.053557 1_555
Li6 O17 2.060451 1_555
Li7 O24 2.002458 1_555
Li7 O6 2.007093 1_655
Li7 O5 2.010044 1_655
Li7 O28 2.057032 1_555
Mn0 O12 1.966928 1_555
Mn0 O27 1.967737 1_455
Mn0 O7 2.059585 1_555
Mn0 O1 2.081872 1_555
Mn0 O0 2.113279 1_554
Mn0 O6 2.172776 1_555
Mn1 O3 1.950898 1_555
Mn1 O20 1.961072 1_555
Mn1 O8 2.059992 1_555
Mn1 O14 2.075983 1_565
Mn1 O9 2.143616 1_555
Mn1 O15 2.162036 1_556
Mn2 O28 1.945671 1_555
Mn2 O11 1.962497 1_555
Mn2 O23 2.051130 1_555
Mn2 O17 2.092051 1_555
Mn2 O22 2.154743 1_555
Mn2 O16 2.160895 1_555
Mn3 O19 1.944240 1_555
Mn3 O4 1.956619 1_655
Mn3 O30 2.086793 1_545
Mn3 O31 2.113160 1_555
Mn3 O25 2.117566 1_555
Mn3 O24 2.140780 1_555
O0 V9 1.945240 1_455
O0 V0 2.006165 1_555
O1 V10 1.890226 1_455
O1 V0 2.112212 1_554
O2 V2 1.991975 1_565
O2 V1 2.009153 1_555
O2 V11 2.017185 1_455
O3 V0 2.036083 1_555
O3 V1 2.044388 1_555
O4 V1 2.001094 1_545
O4 V2 2.038872 1_555
O5 V3 1.923663 1_555
O5 V1 2.012411 1_555
O5 V0 2.110293 1_555
O6 V4 1.891019 1_555
O6 V2 2.021750 1_555
O7 V2 1.982457 1_555
O7 V5 1.998522 1_555
O8 V3 1.969497 1_555
O8 V0 1.987352 1_555
O9 V1 1.897406 1_555
O9 V3 2.028162 1_555
O10 V2 1.909168 1_555
O10 V4 2.029766 1_555
O10 V5 2.103212 1_555
O11 V4 1.985792 1_555
O11 V3 2.064982 1_555
O12 V5 2.021802 1_555
O12 V4 2.038075 1_555
O13 V3 1.982630 1_555
O13 V4 1.992068 1_555
O13 V6 2.044153 1_555
O14 V7 1.891245 1_555
O14 V5 2.115984 1_556
O15 V8 1.877770 1_555
O15 V5 2.044271 1_565
O16 V3 1.876313 1_555
O16 V6 2.049661 1_555
O17 V4 1.924445 1_555
O17 V6 2.078297 1_555
O18 V7 2.001213 1_554
O18 V8 2.010536 1_545
O18 V5 2.022065 1_555
O19 V6 2.009304 1_555
O19 V7 2.069988 1_555
O20 V7 2.009729 1_565
O20 V8 2.044151 1_556
O21 V7 2.008274 1_555
O21 V9 2.014081 1_555
O21 V6 2.020524 1_555
O22 V10 1.900127 1_555
O22 V8 2.015482 1_555
O23 V8 1.989085 1_555
O23 V11 1.994722 1_555
O24 V9 1.860792 1_555
O24 V6 2.080977 1_555
O25 V7 1.908882 1_555
O25 V9 2.043260 1_555
O26 V8 1.916854 1_555
O26 V10 2.029261 1_555
O26 V11 2.106407 1_555
O27 V10 2.017109 1_555
O27 V9 2.034561 1_554
O28 V11 2.025766 1_555
O28 V10 2.061264 1_555
O29 V9 1.990383 1_555
O29 V10 1.995770 1_556
O29 V0 2.019995 1_655
O30 V1 1.892687 1_655
O30 V11 2.108432 1_555
O31 V2 1.902235 1_655
O31 V11 2.055700 1_545
