# generated using pymatgen
data_Ba2Mn3(AsO)2
_symmetry_space_group_name_H-M   'P 1'
_cell_length_a   4.35867581
_cell_length_b   4.35867572
_cell_length_c   10.59935601
_cell_angle_alpha   101.86523436
_cell_angle_beta   101.86523224
_cell_angle_gamma   90.00000057
_symmetry_Int_Tables_number   1
_chemical_formula_structural   Ba2Mn3(AsO)2
_chemical_formula_sum   'Ba2 Mn3 As2 O2'
_cell_volume   192.66623903
_cell_formula_units_Z   1
loop_
 _symmetry_equiv_pos_site_id
 _symmetry_equiv_pos_as_xyz
  1  'x, y, z'
loop_
 _atom_site_type_symbol
 _atom_site_label
 _atom_site_symmetry_multiplicity
 _atom_site_fract_x
 _atom_site_fract_y
 _atom_site_fract_z
 _atom_site_occupancy
  Ba  Ba0  1  0.58728900  0.58728800  0.17457700  1
  Ba  Ba1  1  0.41271200  0.41271200  0.82542300  1
  Mn  Mn0  1  0.00000000  0.00000000  0.00000000  1
  Mn  Mn1  1  0.75000000  0.24999900  0.50000000  1
  Mn  Mn2  1  0.25000000  0.75000100  0.50000000  1
  As  As0  1  0.17156000  0.17156000  0.34312100  1
  As  As1  1  0.82844100  0.82844000  0.65688000  1
  O  O0  1  0.99999900  0.50000000  0.00000000  1
  O  O1  1  0.49999900  0.00000000  0.00000000  1
loop_
_geom_bond_atom_site_label_1
_geom_bond_atom_site_label_2
_geom_bond_distance
_geom_bond_site_symmetry_2
Ba0 O0 2.807842 1_555
Ba0 O1 2.807845 1_555
Ba0 O1 2.807849 1_565
Ba0 O0 2.807852 1_455
Ba1 O0 2.807842 1_556
Ba1 O1 2.807845 1_566
Ba1 O1 2.807849 1_556
Ba1 O0 2.807852 1_456
Mn0 O1 2.179334 1_555
Mn0 O0 2.179338 1_445
Mn0 O0 2.179338 1_455
Mn0 O1 2.179342 1_455
As0 Mn2 2.698270 1_545
As0 Mn1 2.698274 1_455
As0 Mn1 2.698277 1_555
As0 Mn2 2.698281 1_555
As0 Ba0 3.524287 1_445
As0 Ba0 3.524287 1_455
As0 Ba0 3.524293 1_555
As0 Ba0 3.524293 1_545
As1 Mn2 2.698278 1_655
As1 Mn1 2.698278 1_565
As1 Mn1 2.698285 1_555
As1 Mn2 2.698285 1_555
As1 Ba1 3.524282 1_655
As1 Ba1 3.524285 1_555
As1 Ba1 3.524285 1_665
As1 Ba1 3.524288 1_565
