# generated using pymatgen
data_RbNbV2O8
_symmetry_space_group_name_H-M   'P 1'
_cell_length_a   5.69328900
_cell_length_b   9.21428100
_cell_length_c   15.23257500
_cell_angle_alpha   90.00000000
_cell_angle_beta   90.00000000
_cell_angle_gamma   90.00000000
_symmetry_Int_Tables_number   1
_chemical_formula_structural   RbNbV2O8
_chemical_formula_sum   'Rb4 Nb4 V8 O32'
_cell_volume   799.09425315
_cell_formula_units_Z   4
loop_
 _symmetry_equiv_pos_site_id
 _symmetry_equiv_pos_as_xyz
  1  'x, y, z'
loop_
 _atom_site_type_symbol
 _atom_site_label
 _atom_site_symmetry_multiplicity
 _atom_site_fract_x
 _atom_site_fract_y
 _atom_site_fract_z
 _atom_site_occupancy
  Rb  Rb0  1  0.25000000  0.44812100  0.61580700  1
  Rb  Rb1  1  0.25000000  0.05187900  0.11580700  1
  Rb  Rb2  1  0.75000000  0.55187900  0.38419300  1
  Rb  Rb3  1  0.75000000  0.94812100  0.88419300  1
  Nb  Nb0  1  0.25000000  0.99553300  0.65985400  1
  Nb  Nb1  1  0.25000000  0.50446700  0.15985400  1
  Nb  Nb2  1  0.75000000  0.00446700  0.34014600  1
  Nb  Nb3  1  0.75000000  0.49553300  0.84014600  1
  V  V0  1  0.25000000  0.24566600  0.83953400  1
  V  V1  1  0.25000000  0.25433400  0.33953400  1
  V  V2  1  0.75000000  0.75433400  0.16046600  1
  V  V3  1  0.75000000  0.74566600  0.66046600  1
  V  V4  1  0.25000000  0.81927000  0.43840600  1
  V  V5  1  0.25000000  0.68073000  0.93840600  1
  V  V6  1  0.75000000  0.18073000  0.56159400  1
  V  V7  1  0.75000000  0.31927000  0.06159400  1
  O  O0  1  0.99784100  0.34708600  0.80943300  1
  O  O1  1  0.50215900  0.15291400  0.30943300  1
  O  O2  1  0.49784100  0.65291400  0.19056700  1
  O  O3  1  0.00215900  0.84708600  0.69056700  1
  O  O4  1  0.00215900  0.65291400  0.19056700  1
  O  O5  1  0.49784100  0.84708600  0.69056700  1
  O  O6  1  0.50215900  0.34708600  0.80943300  1
  O  O7  1  0.99784100  0.15291400  0.30943300  1
  O  O8  1  0.99692700  0.86261600  0.37443800  1
  O  O9  1  0.50307300  0.63738400  0.87443800  1
  O  O10  1  0.49692700  0.13738400  0.62556200  1
  O  O11  1  0.00307300  0.36261600  0.12556200  1
  O  O12  1  0.00307300  0.13738400  0.62556200  1
  O  O13  1  0.49692700  0.36261600  0.12556200  1
  O  O14  1  0.50307300  0.86261600  0.37443800  1
  O  O15  1  0.99692700  0.63738400  0.87443800  1
  O  O16  1  0.25000000  0.07511700  0.78194700  1
  O  O17  1  0.25000000  0.42488300  0.28194700  1
  O  O18  1  0.75000000  0.92488300  0.21805300  1
  O  O19  1  0.75000000  0.57511700  0.71805300  1
  O  O20  1  0.25000000  0.91927200  0.53650400  1
  O  O21  1  0.25000000  0.58072800  0.03650400  1
  O  O22  1  0.75000000  0.08072800  0.46349600  1
  O  O23  1  0.75000000  0.41927200  0.96349600  1
  O  O24  1  0.25000000  0.21505600  0.94582500  1
  O  O25  1  0.25000000  0.28494400  0.44582500  1
  O  O26  1  0.75000000  0.78494400  0.05417500  1
  O  O27  1  0.75000000  0.71505600  0.55417500  1
  O  O28  1  0.25000000  0.64286700  0.45838000  1
  O  O29  1  0.25000000  0.85713300  0.95838000  1
  O  O30  1  0.75000000  0.35713300  0.54162000  1
  O  O31  1  0.75000000  0.14286700  0.04162000  1
loop_
_geom_bond_atom_site_label_1
_geom_bond_atom_site_label_2
_geom_bond_distance
_geom_bond_site_symmetry_2
Nb0 O10 1.989371 1_565
Nb0 O12 1.989371 1_565
Nb0 O16 1.999141 1_565
Nb0 O20 2.006036 1_555
Nb0 O5 2.020110 1_555
Nb0 O3 2.020110 1_555
Nb1 O13 1.989371 1_555
Nb1 O11 1.989371 1_555
Nb1 O17 1.999141 1_555
Nb1 O21 2.006036 1_555
Nb1 O2 2.020110 1_555
Nb1 O4 2.020110 1_555
Nb2 O14 1.989371 1_545
Nb2 O8 1.989371 1_545
Nb2 O18 1.999141 1_545
Nb2 O22 2.006036 1_555
Nb2 O1 2.020110 1_555
Nb2 O7 2.020110 1_555
Nb3 O15 1.989371 1_555
Nb3 O9 1.989371 1_555
Nb3 O19 1.999141 1_555
Nb3 O23 2.006036 1_555
Nb3 O0 2.020110 1_555
Nb3 O6 2.020110 1_555
O0 V0 1.773284 1_655
O0 Rb0 3.409806 1_655
O1 V1 1.773284 1_555
O1 Rb1 3.409806 1_555
O2 V2 1.773284 1_555
O2 Rb2 3.409806 1_555
O3 V3 1.773284 1_455
O3 Rb3 3.409806 1_455
O4 V2 1.773284 1_455
O4 Rb2 3.409806 1_455
O5 V3 1.773284 1_555
O5 Rb3 3.409806 1_555
O6 V0 1.773284 1_555
O6 Rb0 3.409806 1_555
O7 V1 1.773284 1_655
O7 Rb1 3.409806 1_655
O8 V4 1.784637 1_655
O8 Rb2 3.193188 1_555
O9 V5 1.784637 1_555
O9 Rb3 3.193188 1_555
O10 V6 1.784637 1_555
O10 Rb0 3.193188 1_555
O11 V7 1.784637 1_455
O11 Rb1 3.193188 1_555
O12 V6 1.784637 1_455
O12 Rb0 3.193188 1_555
O13 V7 1.784637 1_555
O13 Rb1 3.193188 1_555
O14 V4 1.784637 1_555
O14 Rb2 3.193188 1_555
O15 V5 1.784637 1_655
O15 Rb3 3.193188 1_555
O16 V0 1.799735 1_555
O16 Rb3 3.449407 1_545
O16 Rb3 3.449407 1_445
O17 V1 1.799735 1_555
O17 Rb2 3.449407 1_455
O17 Rb2 3.449407 1_555
O18 V2 1.799735 1_555
O18 Rb1 3.449407 1_665
O18 Rb1 3.449407 1_565
O19 V3 1.799735 1_555
O19 Rb0 3.449407 1_655
O19 Rb0 3.449407 1_555
O20 V4 1.755549 1_555
O21 V5 1.755549 1_554
O22 V6 1.755549 1_555
O23 V7 1.755549 1_556
O24 V0 1.643469 1_555
O24 Rb1 2.994157 1_556
O25 V1 1.643469 1_555
O25 Rb0 2.994157 1_555
O26 V2 1.643469 1_555
O26 Rb3 2.994157 1_554
O27 V3 1.643469 1_555
O27 Rb2 2.994157 1_555
O28 V4 1.653658 1_555
O28 Rb0 2.995083 1_555
O28 Rb2 3.175424 1_555
O28 Rb2 3.175424 1_455
O29 V5 1.653658 1_555
O29 Rb1 2.995083 1_566
O29 Rb3 3.175424 1_555
O29 Rb3 3.175424 1_455
O30 V6 1.653658 1_555
O30 Rb2 2.995083 1_555
O30 Rb0 3.175424 1_655
O30 Rb0 3.175424 1_555
O31 V7 1.653658 1_555
O31 Rb3 2.995083 1_544
O31 Rb1 3.175424 1_655
O31 Rb1 3.175424 1_555
