# generated using pymatgen
data_La4In21Pd10
_symmetry_space_group_name_H-M   'P 1'
_cell_length_a   12.28251501
_cell_length_b   12.28251501
_cell_length_c   17.96443573
_cell_angle_alpha   55.91011450
_cell_angle_beta   55.91011450
_cell_angle_gamma   21.57035015
_symmetry_Int_Tables_number   1
_chemical_formula_structural   La4In21Pd10
_chemical_formula_sum   'La4 In21 Pd10'
_cell_volume   818.25596070
_cell_formula_units_Z   1
loop_
 _symmetry_equiv_pos_site_id
 _symmetry_equiv_pos_as_xyz
  1  'x, y, z'
loop_
 _atom_site_type_symbol
 _atom_site_label
 _atom_site_symmetry_multiplicity
 _atom_site_fract_x
 _atom_site_fract_y
 _atom_site_fract_z
 _atom_site_occupancy
  La  La0  1  0.22886300  0.22886300  0.67500200  1
  La  La1  1  0.77113700  0.77113700  0.32499800  1
  La  La2  1  0.87814800  0.87814800  0.83359000  1
  La  La3  1  0.12185200  0.12185200  0.16641000  1
  In  In0  1  0.50000000  0.50000000  0.00000000  1
  In  In1  1  0.11463400  0.11463400  0.94885800  1
  In  In2  1  0.88536600  0.88536600  0.05114200  1
  In  In3  1  0.45882100  0.45882100  0.86752600  1
  In  In4  1  0.54117900  0.54117900  0.13247400  1
  In  In5  1  0.06472600  0.06472600  0.70279400  1
  In  In6  1  0.93527400  0.93527400  0.29720500  1
  In  In7  1  0.36947100  0.36947100  0.69907600  1
  In  In8  1  0.63052900  0.63052900  0.30092400  1
  In  In9  1  0.98969100  0.98969100  0.59298400  1
  In  In10  1  0.01030900  0.01030900  0.40701600  1
  In  In11  1  0.74939000  0.74939000  0.79505200  1
  In  In12  1  0.25061000  0.25061000  0.20494800  1
  In  In13  1  0.61475700  0.61475700  0.79644900  1
  In  In14  1  0.38524300  0.38524300  0.20355100  1
  In  In15  1  0.60161000  0.60161000  0.50299200  1
  In  In16  1  0.39839000  0.39839000  0.49700800  1
  In  In17  1  0.20055700  0.20055700  0.49645500  1
  In  In18  1  0.79944300  0.79944300  0.50354500  1
  In  In19  1  0.70205500  0.70205500  0.99881700  1
  In  In20  1  0.29794500  0.29794500  0.00118300  1
  Pd  Pd0  1  0.24897800  0.24897800  0.88615100  1
  Pd  Pd1  1  0.75102200  0.75102200  0.11384900  1
  Pd  Pd2  1  0.02473000  0.02473000  0.88843900  1
  Pd  Pd3  1  0.97527000  0.97527000  0.11156100  1
  Pd  Pd4  1  0.65305900  0.65305900  0.61259200  1
  Pd  Pd5  1  0.34694100  0.34694100  0.38740800  1
  Pd  Pd6  1  0.86418900  0.86418900  0.60624500  1
  Pd  Pd7  1  0.13581100  0.13581100  0.39375500  1
  Pd  Pd8  1  0.49574500  0.49574500  0.68578600  1
  Pd  Pd9  1  0.50425500  0.50425500  0.31421400  1
loop_
_geom_bond_atom_site_label_1
_geom_bond_atom_site_label_2
_geom_bond_distance
_geom_bond_site_symmetry_2
La0 Pd4 3.496575 1_455
La0 Pd4 3.496575 1_545
La0 Pd6 3.587384 1_455
La0 Pd6 3.587384 1_545
La1 Pd5 3.496575 1_655
La1 Pd5 3.496575 1_565
La1 Pd7 3.587384 1_655
La1 Pd7 3.587384 1_565
La2 Pd8 3.433258 1_565
La2 Pd8 3.433258 1_655
La2 Pd0 3.539968 1_655
La2 Pd0 3.539968 1_565
La3 Pd9 3.433258 1_455
La3 Pd9 3.433258 1_545
La3 Pd1 3.539968 1_455
La3 Pd1 3.539968 1_545
In0 Pd3 2.879318 1_545
In0 Pd3 2.879318 1_455
In0 Pd2 2.879318 1_564
In0 Pd2 2.879318 1_654
In1 Pd0 2.758860 1_555
In1 Pd2 2.927769 1_555
In1 Pd3 2.938701 1_446
In1 La3 4.010132 1_556
In2 Pd1 2.758860 1_555
In2 Pd3 2.927769 1_555
In2 Pd2 2.938701 1_664
In2 La2 4.010132 1_554
In3 Pd8 2.851941 1_555
In3 Pd2 2.938564 1_565
In3 Pd2 2.938564 1_655
In3 La2 3.286082 1_455
In3 La2 3.286082 1_545
In4 Pd9 2.851941 1_555
In4 Pd3 2.938564 1_455
In4 Pd3 2.938564 1_545
In4 La3 3.286082 1_655
In4 La3 3.286082 1_565
In5 Pd2 2.894944 1_555
In5 Pd4 2.917262 1_455
In5 Pd4 2.917262 1_545
In5 Pd8 2.954182 1_545
In5 Pd8 2.954182 1_455
In5 La0 3.698736 1_555
In5 La2 3.704025 1_445
In6 Pd3 2.894927 1_555
In6 Pd5 2.917265 1_565
In6 Pd5 2.917265 1_655
In6 Pd9 2.954190 1_655
In6 Pd9 2.954190 1_565
In6 La1 3.698728 1_555
In6 La3 3.704026 1_665
In7 Pd6 2.884873 1_545
In7 Pd6 2.884873 1_455
In7 Pd8 2.917505 1_555
In7 Pd0 2.932188 1_555
In7 In9 3.319880 1_545
In7 In9 3.319880 1_455
In7 La2 3.426829 1_545
In7 La2 3.426829 1_455
In7 La0 3.657073 1_555
In8 Pd7 2.884873 1_565
In8 Pd7 2.884873 1_655
In8 Pd9 2.917505 1_555
In8 Pd1 2.932188 1_555
In8 La3 3.426829 1_655
In8 La3 3.426829 1_565
In8 La1 3.657073 1_555
In9 Pd8 2.891577 1_655
In9 Pd8 2.891577 1_565
In9 Pd6 2.899186 1_555
In9 Pd7 3.292632 1_665
In9 La2 3.556874 1_555
In10 Pd9 2.891577 1_455
In10 Pd9 2.891577 1_545
In10 Pd7 2.899186 1_555
In10 Pd6 3.292632 1_445
In10 In8 3.319880 1_455
In10 In8 3.319880 1_545
In10 La3 3.556874 1_555
In11 Pd0 2.818228 1_565
In11 Pd0 2.818228 1_655
In11 Pd6 2.907965 1_555
In11 In7 3.309182 1_565
In11 In7 3.309182 1_655
In11 La0 3.376102 1_565
In11 La0 3.376102 1_655
In11 La2 3.547940 1_555
In12 Pd1 2.818228 1_455
In12 Pd1 2.818228 1_545
In12 Pd7 2.907965 1_555
In12 In8 3.309182 1_545
In12 In8 3.309182 1_455
In12 La1 3.376102 1_545
In12 La1 3.376102 1_455
In12 La3 3.547940 1_555
In13 Pd4 2.877448 1_555
In13 Pd2 2.938753 1_655
In13 Pd2 2.938753 1_565
In13 La0 3.281619 1_565
In13 La0 3.281619 1_655
In14 Pd5 2.877448 1_555
In14 Pd3 2.938753 1_545
In14 Pd3 2.938753 1_455
In14 La1 3.281619 1_455
In14 La1 3.281619 1_545
In15 Pd8 2.781462 1_555
In15 Pd7 2.822502 1_565
In15 Pd7 2.822502 1_655
In15 Pd4 2.864856 1_555
In15 In17 3.267650 1_565
In15 In17 3.267650 1_655
In15 In8 3.282287 1_555
In15 La1 3.468798 1_555
In16 Pd9 2.781462 1_555
In16 Pd6 2.822502 1_455
In16 Pd6 2.822502 1_545
In16 Pd5 2.864856 1_555
In16 In18 3.267650 1_545
In16 In18 3.267650 1_455
In16 In7 3.282287 1_555
In16 La0 3.468798 1_555
In17 Pd4 2.867106 1_455
In17 Pd4 2.867106 1_545
In17 Pd5 2.901533 1_555
In17 Pd7 3.022298 1_555
In17 In5 3.258686 1_555
In17 In18 3.367453 1_545
In17 In18 3.367453 1_455
In17 La1 3.418211 1_455
In17 La1 3.418211 1_545
In17 La0 3.640704 1_555
In18 Pd5 2.867106 1_565
In18 Pd5 2.867106 1_655
In18 Pd4 2.901533 1_555
In18 Pd6 3.022298 1_555
In18 In6 3.258696 1_555
In18 La0 3.418211 1_565
In18 La0 3.418211 1_655
In18 La1 3.640704 1_555
In19 Pd0 2.836545 1_655
In19 Pd0 2.836545 1_565
In19 Pd1 2.907416 1_556
In19 La3 3.382810 1_656
In19 La3 3.382810 1_566
In19 La2 3.531840 1_555
In20 Pd1 2.836545 1_455
In20 Pd1 2.836545 1_545
In20 Pd0 2.907416 1_554
In20 La2 3.382810 1_544
In20 La2 3.382810 1_454
In20 La3 3.531840 1_555
