# generated using pymatgen
data_Li4MnCo2O7
_symmetry_space_group_name_H-M   'P 1'
_cell_length_a   2.95586500
_cell_length_b   9.72754135
_cell_length_c   9.75385781
_cell_angle_alpha   115.78020234
_cell_angle_beta   92.87749482
_cell_angle_gamma   96.83834757
_symmetry_Int_Tables_number   1
_chemical_formula_structural   Li4MnCo2O7
_chemical_formula_sum   'Li8 Mn2 Co4 O14'
_cell_volume   249.10833446
_cell_formula_units_Z   2
loop_
 _symmetry_equiv_pos_site_id
 _symmetry_equiv_pos_as_xyz
  1  'x, y, z'
loop_
 _atom_site_type_symbol
 _atom_site_label
 _atom_site_symmetry_multiplicity
 _atom_site_fract_x
 _atom_site_fract_y
 _atom_site_fract_z
 _atom_site_occupancy
  Li  Li0  1  0.92709900  0.84924200  0.20866000  1
  Li  Li1  1  0.21905100  0.42924300  0.34884200  1
  Li  Li2  1  0.50473100  0.00345600  0.50307100  1
  Li  Li3  1  0.77555700  0.56798900  0.64554400  1
  Li  Li4  1  0.07277300  0.14430400  0.78822900  1
  Li  Li5  1  0.33517000  0.70727600  0.92662900  1
  Li  Li6  1  0.65446100  0.30080100  0.07789100  1
  Li  Li7  1  0.26510700  0.56415200  0.14580800  1
  Mn  Mn0  1  0.00336600  0.99814400  0.99569700  1
  Mn  Mn1  1  0.85035300  0.70932100  0.42197000  1
  Co  Co0  1  0.56942200  0.14587800  0.29031000  1
  Co  Co1  1  0.15394100  0.28811600  0.57507100  1
  Co  Co2  1  0.44443900  0.85809100  0.71069500  1
  Co  Co3  1  0.70503000  0.43316200  0.86751300  1
  O  O0  1  0.42954400  0.93439500  0.11067000  1
  O  O1  1  0.74948100  0.51441300  0.26471300  1
  O  O2  1  0.05401000  0.08751600  0.40292300  1
  O  O3  1  0.34517200  0.66010200  0.53142900  1
  O  O4  1  0.57976800  0.23437900  0.68783600  1
  O  O5  1  0.93376100  0.79800800  0.80794500  1
  O  O6  1  0.13993400  0.36205900  0.95474400  1
  O  O7  1  0.36938000  0.77955200  0.33679700  1
  O  O8  1  0.73282800  0.34719700  0.46523600  1
  O  O9  1  0.95439700  0.91386900  0.61158400  1
  O  O10  1  0.26149500  0.48653100  0.74511100  1
  O  O11  1  0.56952600  0.05806000  0.88564400  1
  O  O12  1  0.80619700  0.62327200  0.01220500  1
  O  O13  1  0.09400700  0.20147200  0.17723100  1
loop_
_geom_bond_atom_site_label_1
_geom_bond_atom_site_label_2
_geom_bond_distance
_geom_bond_site_symmetry_2
Li0 O0 2.084121 1_655
Li0 O7 2.124789 1_655
Li0 O0 2.144819 1_555
Li0 O12 2.170638 1_555
Li0 O2 2.237122 1_665
Li0 O7 2.327457 1_555
Li1 O1 2.009257 1_455
Li1 O1 2.056502 1_555
Li1 O13 2.089125 1_555
Li1 O3 2.146843 1_555
Li1 O8 2.161074 1_455
Li1 O8 2.266241 1_555
Li2 O7 2.046688 1_545
Li2 O2 2.054584 1_555
Li2 O9 2.140853 1_545
Li2 O4 2.159360 1_555
Li2 O2 2.190148 1_655
Li2 O9 2.272331 1_445
Li3 O5 2.080340 1_555
Li3 O8 2.085507 1_555
Li3 O10 2.100170 1_555
Li3 O10 2.105834 1_655
Li3 O3 2.158004 1_555
Li3 O3 2.360733 1_655
Li4 O6 2.009757 1_555
Li4 O11 2.087464 1_455
Li4 O9 2.123421 1_445
Li4 O4 2.133870 1_555
Li4 O11 2.146931 1_555
Li4 O4 2.181130 1_455
Li5 O12 2.012580 1_556
Li5 O12 2.056522 1_456
Li5 O10 2.082303 1_555
Li5 O5 2.127698 1_455
Li5 O0 2.129436 1_556
Li5 O5 2.443807 1_555
Li6 O1 2.057474 1_555
Li6 O6 2.109287 1_654
Li6 O13 2.132462 1_655
Li6 O6 2.183098 1_554
Li6 O11 2.261629 1_554
Li6 O13 2.282808 1_555
Li7 O6 2.011313 1_554
Li7 O1 2.028655 1_555
Li7 O7 2.085415 1_555
Li7 O1 2.095737 1_455
Li7 O12 2.128173 1_455
Li7 O12 2.286715 1_555
Mn0 O11 1.928844 1_465
Mn0 O0 1.969305 1_556
Mn0 O13 1.974561 1_566
Mn0 O5 1.987903 1_455
Mn0 O11 2.187429 1_565
Mn0 O0 2.250434 1_456
Mn1 O1 1.823782 1_555
Mn1 O7 1.945379 1_555
Mn1 O7 1.970443 1_655
Mn1 O3 1.990720 1_655
Mn1 O3 2.008316 1_555
Mn1 O9 2.017522 1_555
Co0 O8 1.940388 1_555
Co0 O13 2.006969 1_555
Co0 O0 2.015561 1_545
Co0 O2 2.039270 1_655
Co0 O2 2.086695 1_555
Co0 O13 2.098617 1_655
Co1 O4 1.893436 1_555
Co1 O10 1.895666 1_555
Co1 O8 1.897222 1_455
Co1 O2 1.917627 1_555
Co1 O4 2.199930 1_455
Co1 O8 2.211637 1_555
Co2 O11 1.926267 1_565
Co2 O3 1.933234 1_555
Co2 O9 1.957013 1_455
Co2 O5 1.969555 1_555
Co2 O9 1.977088 1_555
Co2 O5 1.983896 1_455
Co3 O12 1.748382 1_556
Co3 O6 1.862440 1_655
Co3 O4 1.940151 1_555
Co3 O10 1.989411 1_555
Co3 O6 2.090894 1_555
Co3 O10 2.221109 1_655
