# generated using pymatgen
data_Nb12ZnSe16
_symmetry_space_group_name_H-M   'P 1'
_cell_length_a   6.97195900
_cell_length_b   10.13184498
_cell_length_c   10.74629293
_cell_angle_alpha   118.04091392
_cell_angle_beta   108.90647273
_cell_angle_gamma   90.04393950
_symmetry_Int_Tables_number   1
_chemical_formula_structural   Nb12ZnSe16
_chemical_formula_sum   'Nb12 Zn1 Se16'
_cell_volume   623.10396326
_cell_formula_units_Z   1
loop_
 _symmetry_equiv_pos_site_id
 _symmetry_equiv_pos_as_xyz
  1  'x, y, z'
loop_
 _atom_site_type_symbol
 _atom_site_label
 _atom_site_symmetry_multiplicity
 _atom_site_fract_x
 _atom_site_fract_y
 _atom_site_fract_z
 _atom_site_occupancy
  Nb  Nb0  1  0.67949800  0.61940000  0.10800300  1
  Nb  Nb1  1  0.17963400  0.61994600  0.10885500  1
  Nb  Nb2  1  0.87956300  0.89105700  0.51084800  1
  Nb  Nb3  1  0.38218400  0.89171800  0.51204400  1
  Nb  Nb4  1  0.81614300  0.48801800  0.38006200  1
  Nb  Nb5  1  0.31452400  0.48921400  0.38057400  1
  Nb  Nb6  1  0.82036600  0.38005400  0.89114500  1
  Nb  Nb7  1  0.32050200  0.38060000  0.89199700  1
  Nb  Nb8  1  0.61781600  0.10828200  0.48795600  1
  Nb  Nb9  1  0.12043700  0.10894300  0.48915200  1
  Nb  Nb10  1  0.68547600  0.51078600  0.61942600  1
  Nb  Nb11  1  0.18385700  0.51198200  0.61993800  1
  Zn  Zn0  1  0.00000000  0.00000000  0.00000000  1
  Se  Se0  1  0.26454500  0.93954200  0.27987600  1
  Se  Se1  1  0.76592000  0.93968100  0.28075600  1
  Se  Se2  1  0.45478000  0.71892700  0.65899300  1
  Se  Se3  1  0.95440100  0.72010200  0.65982100  1
  Se  Se4  1  0.15517200  0.34015300  0.06001700  1
  Se  Se5  1  0.65562600  0.34106200  0.06023700  1
  Se  Se6  1  0.23408000  0.06031900  0.71924400  1
  Se  Se7  1  0.73545500  0.06045800  0.72012400  1
  Se  Se8  1  0.04559900  0.27989800  0.34017900  1
  Se  Se9  1  0.54522000  0.28107300  0.34100700  1
  Se  Se10  1  0.34437400  0.65893800  0.93976300  1
  Se  Se11  1  0.84482800  0.65984700  0.93998300  1
  Se  Se12  1  0.45838400  0.33334600  0.66628900  1
  Se  Se13  1  0.95865900  0.33313900  0.66654300  1
  Se  Se14  1  0.04134100  0.66686100  0.33345700  1
  Se  Se15  1  0.54161600  0.66665400  0.33371100  1
loop_
_geom_bond_atom_site_label_1
_geom_bond_atom_site_label_2
_geom_bond_distance
_geom_bond_site_symmetry_2
Nb0 Se11 2.607773 1_554
Nb0 Se5 2.612839 1_555
Nb0 Se10 2.614029 1_554
Nb0 Se14 2.721630 1_655
Nb0 Se15 2.730644 1_555
Nb0 Se1 2.819186 1_555
Nb1 Se10 2.608434 1_554
Nb1 Se11 2.617542 1_454
Nb1 Se4 2.623577 1_555
Nb1 Se15 2.720853 1_555
Nb1 Se14 2.722381 1_555
Nb1 Se0 2.812494 1_555
Nb2 Se7 2.617407 1_565
Nb2 Se1 2.619295 1_555
Nb2 Se6 2.619338 1_665
Nb2 Se15 2.713005 1_555
Nb2 Se14 2.718824 1_655
Nb2 Se3 2.811131 1_555
Nb3 Se7 2.611402 1_565
Nb3 Se6 2.618908 1_565
Nb3 Se0 2.635026 1_555
Nb3 Se15 2.717293 1_555
Nb3 Se14 2.728709 1_555
Nb3 Se2 2.810254 1_555
Nb4 Se8 2.605585 1_655
Nb4 Se9 2.606350 1_555
Nb4 Se3 2.639818 1_555
Nb4 Se14 2.712527 1_655
Nb4 Se15 2.724399 1_555
Nb4 Se5 2.824062 1_555
Nb5 Se8 2.608125 1_555
Nb5 Se9 2.611579 1_555
Nb5 Se2 2.622651 1_555
Nb5 Se15 2.712201 1_555
Nb5 Se14 2.713063 1_555
Nb5 Se4 2.829776 1_555
Nb6 Se5 2.608434 1_556
Nb6 Se4 2.617542 1_656
Nb6 Se11 2.623577 1_555
Nb6 Se12 2.720853 1_555
Nb6 Se13 2.722381 1_555
Nb6 Se7 2.812494 1_555
Nb7 Se4 2.607773 1_556
Nb7 Se10 2.612839 1_555
Nb7 Se5 2.614029 1_556
Nb7 Se13 2.721630 1_455
Nb7 Se12 2.730644 1_555
Nb7 Se6 2.819186 1_555
Nb8 Se0 2.611402 1_545
Nb8 Se1 2.618908 1_545
Nb8 Se7 2.635026 1_555
Nb8 Se12 2.717293 1_555
Nb8 Se13 2.728709 1_555
Nb8 Se9 2.810254 1_555
Nb9 Se0 2.617407 1_545
Nb9 Se6 2.619295 1_555
Nb9 Se1 2.619338 1_445
Nb9 Se12 2.713005 1_555
Nb9 Se13 2.718824 1_455
Nb9 Se8 2.811131 1_555
Nb10 Se3 2.608125 1_555
Nb10 Se2 2.611579 1_555
Nb10 Se9 2.622651 1_555
Nb10 Se12 2.712201 1_555
Nb10 Se13 2.713063 1_555
Nb10 Se11 2.829776 1_555
Nb11 Se3 2.605585 1_455
Nb11 Se2 2.606350 1_555
Nb11 Se8 2.639818 1_555
Nb11 Se13 2.712527 1_455
Nb11 Se12 2.724399 1_555
Nb11 Se10 2.824062 1_555
