# generated using pymatgen
data_Cu3PO7
_symmetry_space_group_name_H-M   'P 1'
_cell_length_a   6.74329200
_cell_length_b   10.96203200
_cell_length_c   14.18477100
_cell_angle_alpha   90.00000000
_cell_angle_beta   90.00000000
_cell_angle_gamma   90.00000000
_symmetry_Int_Tables_number   1
_chemical_formula_structural   Cu3PO7
_chemical_formula_sum   'Cu24 P8 O56'
_cell_volume   1048.54086373
_cell_formula_units_Z   8
loop_
 _symmetry_equiv_pos_site_id
 _symmetry_equiv_pos_as_xyz
  1  'x, y, z'
loop_
 _atom_site_type_symbol
 _atom_site_label
 _atom_site_symmetry_multiplicity
 _atom_site_fract_x
 _atom_site_fract_y
 _atom_site_fract_z
 _atom_site_occupancy
  Cu  Cu0  1  0.30348800  0.51369000  0.13292400  1
  Cu  Cu1  1  0.69651200  0.01369000  0.36707600  1
  Cu  Cu2  1  0.19651200  0.48631000  0.63292400  1
  Cu  Cu3  1  0.80348800  0.98631000  0.86707600  1
  Cu  Cu4  1  0.69651200  0.48631000  0.86707600  1
  Cu  Cu5  1  0.30348800  0.98631000  0.63292400  1
  Cu  Cu6  1  0.80348800  0.51369000  0.36707600  1
  Cu  Cu7  1  0.19651200  0.01369000  0.13292400  1
  Cu  Cu8  1  0.09143800  0.68335000  0.24323600  1
  Cu  Cu9  1  0.90856200  0.18335000  0.25676400  1
  Cu  Cu10  1  0.40856200  0.31665000  0.74323600  1
  Cu  Cu11  1  0.59143800  0.81665000  0.75676400  1
  Cu  Cu12  1  0.90856200  0.31665000  0.75676400  1
  Cu  Cu13  1  0.09143800  0.81665000  0.74323600  1
  Cu  Cu14  1  0.59143800  0.68335000  0.25676400  1
  Cu  Cu15  1  0.40856200  0.18335000  0.24323600  1
  Cu  Cu16  1  0.38526100  0.59851700  0.45207700  1
  Cu  Cu17  1  0.61473900  0.09851700  0.04792300  1
  Cu  Cu18  1  0.11473900  0.40148300  0.95207700  1
  Cu  Cu19  1  0.88526100  0.90148300  0.54792300  1
  Cu  Cu20  1  0.61473900  0.40148300  0.54792300  1
  Cu  Cu21  1  0.38526100  0.90148300  0.95207700  1
  Cu  Cu22  1  0.88526100  0.59851700  0.04792300  1
  Cu  Cu23  1  0.11473900  0.09851700  0.45207700  1
  P  P0  1  0.29114600  0.87035900  0.38527700  1
  P  P1  1  0.70885400  0.37035900  0.11472300  1
  P  P2  1  0.20885400  0.12964100  0.88527700  1
  P  P3  1  0.79114600  0.62964100  0.61472300  1
  P  P4  1  0.70885400  0.12964100  0.61472300  1
  P  P5  1  0.29114600  0.62964100  0.88527700  1
  P  P6  1  0.79114600  0.87035900  0.11472300  1
  P  P7  1  0.20885400  0.37035900  0.38527700  1
  O  O0  1  0.41521500  0.76558400  0.42645900  1
  O  O1  1  0.58478500  0.26558400  0.07354100  1
  O  O2  1  0.08478500  0.23441600  0.92645900  1
  O  O3  1  0.91521500  0.73441600  0.57354100  1
  O  O4  1  0.58478500  0.23441600  0.57354100  1
  O  O5  1  0.41521500  0.73441600  0.92645900  1
  O  O6  1  0.91521500  0.76558400  0.07354100  1
  O  O7  1  0.08478500  0.26558400  0.42645900  1
  O  O8  1  0.16559800  0.92868100  0.46743200  1
  O  O9  1  0.83440200  0.42868100  0.03256800  1
  O  O10  1  0.33440200  0.07131900  0.96743200  1
  O  O11  1  0.66559800  0.57131900  0.53256800  1
  O  O12  1  0.83440200  0.07131900  0.53256800  1
  O  O13  1  0.16559800  0.57131900  0.96743200  1
  O  O14  1  0.66559800  0.92868100  0.03256800  1
  O  O15  1  0.33440200  0.42868100  0.46743200  1
  O  O16  1  0.42691300  0.97634300  0.35148700  1
  O  O17  1  0.57308700  0.47634300  0.14851300  1
  O  O18  1  0.07308700  0.02365700  0.85148700  1
  O  O19  1  0.92691300  0.52365700  0.64851300  1
  O  O20  1  0.57308700  0.02365700  0.64851300  1
  O  O21  1  0.42691300  0.52365700  0.85148700  1
  O  O22  1  0.92691300  0.97634300  0.14851300  1
  O  O23  1  0.07308700  0.47634300  0.35148700  1
  O  O24  1  0.15562700  0.83071000  0.30359600  1
  O  O25  1  0.84437300  0.33071000  0.19640400  1
  O  O26  1  0.34437300  0.16929000  0.80359600  1
  O  O27  1  0.65562700  0.66929000  0.69640400  1
  O  O28  1  0.84437300  0.16929000  0.69640400  1
  O  O29  1  0.15562700  0.66929000  0.80359600  1
  O  O30  1  0.65562700  0.83071000  0.19640400  1
  O  O31  1  0.34437300  0.33071000  0.30359600  1
  O  O32  1  0.03882600  0.56049700  0.15665600  1
  O  O33  1  0.96117400  0.06049700  0.34334400  1
  O  O34  1  0.46117400  0.43950300  0.65665600  1
  O  O35  1  0.53882600  0.93950300  0.84334400  1
  O  O36  1  0.96117400  0.43950300  0.84334400  1
  O  O37  1  0.03882600  0.93950300  0.65665600  1
  O  O38  1  0.53882600  0.56049700  0.34334400  1
  O  O39  1  0.46117400  0.06049700  0.15665600  1
  O  O40  1  0.34680800  0.66421200  0.19401800  1
  O  O41  1  0.65319200  0.16421200  0.30598200  1
  O  O42  1  0.15319200  0.33578800  0.69401800  1
  O  O43  1  0.84680800  0.83578800  0.80598200  1
  O  O44  1  0.65319200  0.33578800  0.80598200  1
  O  O45  1  0.34680800  0.83578800  0.69401800  1
  O  O46  1  0.84680800  0.66421200  0.30598200  1
  O  O47  1  0.15319200  0.16421200  0.19401800  1
  O  O48  1  0.24672300  0.88052400  0.06092900  1
  O  O49  1  0.75327700  0.38052400  0.43907100  1
  O  O50  1  0.25327700  0.11947600  0.56092900  1
  O  O51  1  0.74672300  0.61947600  0.93907100  1
  O  O52  1  0.75327700  0.11947600  0.93907100  1
  O  O53  1  0.24672300  0.61947600  0.56092900  1
  O  O54  1  0.74672300  0.88052400  0.43907100  1
  O  O55  1  0.25327700  0.38052400  0.06092900  1
loop_
_geom_bond_atom_site_label_1
_geom_bond_atom_site_label_2
_geom_bond_distance
_geom_bond_site_symmetry_2
Cu0 O55 1.813418 1_555
Cu0 O17 1.876585 1_555
Cu0 O40 1.886512 1_555
Cu0 O32 1.887253 1_555
Cu1 O54 1.813418 1_545
Cu1 O16 1.876585 1_545
Cu1 O41 1.886512 1_555
Cu1 O33 1.887253 1_555
Cu2 O53 1.813418 1_555
Cu2 O19 1.876585 1_455
Cu2 O42 1.886512 1_555
Cu2 O34 1.887253 1_555
Cu3 O52 1.813418 1_565
Cu3 O18 1.876585 1_665
Cu3 O43 1.886512 1_555
Cu3 O35 1.887253 1_555
Cu4 O51 1.813418 1_555
Cu4 O21 1.876585 1_555
Cu4 O44 1.886512 1_555
Cu4 O36 1.887253 1_555
Cu5 O50 1.813418 1_565
Cu5 O20 1.876585 1_565
Cu5 O45 1.886512 1_555
Cu5 O37 1.887253 1_555
Cu6 O49 1.813418 1_555
Cu6 O23 1.876585 1_655
Cu6 O46 1.886512 1_555
Cu6 O38 1.887253 1_555
Cu7 O48 1.813418 1_545
Cu7 O22 1.876585 1_445
Cu7 O47 1.886512 1_555
Cu7 O39 1.887253 1_555
Cu8 O32 1.856823 1_555
Cu8 O40 1.869979 1_555
Cu8 O24 1.878783 1_555
Cu8 O46 1.886106 1_455
Cu9 O33 1.856823 1_555
Cu9 O41 1.869979 1_555
Cu9 O25 1.878783 1_555
Cu9 O47 1.886106 1_655
Cu10 O34 1.856823 1_555
Cu10 O42 1.869979 1_555
Cu10 O26 1.878783 1_555
Cu10 O44 1.886106 1_555
Cu11 O35 1.856823 1_555
Cu11 O43 1.869979 1_555
Cu11 O27 1.878783 1_555
Cu11 O45 1.886106 1_555
Cu12 O36 1.856823 1_555
Cu12 O44 1.869979 1_555
Cu12 O28 1.878783 1_555
Cu12 O42 1.886106 1_655
Cu13 O37 1.856823 1_555
Cu13 O45 1.869979 1_555
Cu13 O29 1.878783 1_555
Cu13 O43 1.886106 1_455
Cu14 O38 1.856823 1_555
Cu14 O46 1.869979 1_555
Cu14 O30 1.878783 1_555
Cu14 O40 1.886106 1_555
Cu15 O39 1.856823 1_555
Cu15 O47 1.869979 1_555
Cu15 O31 1.878783 1_555
Cu15 O41 1.886106 1_555
Cu16 O53 1.819226 1_555
Cu16 O0 1.877991 1_555
Cu16 O38 1.903913 1_555
Cu16 O15 1.905561 1_555
Cu16 O11 2.228467 1_555
Cu17 O52 1.819226 1_554
Cu17 O1 1.877991 1_555
Cu17 O39 1.903913 1_555
Cu17 O14 1.905561 1_545
Cu17 O10 2.228467 1_554
Cu18 O55 1.819226 1_556
Cu18 O2 1.877991 1_555
Cu18 O36 1.903913 1_455
Cu18 O13 1.905561 1_555
Cu18 O9 2.228467 1_456
Cu19 O54 1.819226 1_555
Cu19 O3 1.877991 1_555
Cu19 O37 1.903913 1_655
Cu19 O12 1.905561 1_565
Cu19 O8 2.228467 1_655
Cu20 O49 1.819226 1_555
Cu20 O4 1.877991 1_555
Cu20 O34 1.903913 1_555
Cu20 O11 1.905561 1_555
Cu20 O15 2.228467 1_555
Cu21 O48 1.819226 1_556
Cu21 O5 1.877991 1_555
Cu21 O35 1.903913 1_555
Cu21 O10 1.905561 1_565
Cu21 O14 2.228467 1_556
Cu22 O51 1.819226 1_554
Cu22 O6 1.877991 1_555
Cu22 O32 1.903913 1_655
Cu22 O9 1.905561 1_555
Cu22 O13 2.228467 1_654
Cu23 O50 1.819226 1_555
Cu23 O7 1.877991 1_555
Cu23 O33 1.903913 1_455
Cu23 O8 1.905561 1_545
Cu23 O12 2.228467 1_455
O0 P0 1.536345 1_555
O1 P1 1.536345 1_555
O2 P2 1.536345 1_555
O3 P3 1.536345 1_555
O4 P4 1.536345 1_555
O5 P5 1.536345 1_555
O6 P6 1.536345 1_555
O7 P7 1.536345 1_555
O8 P0 1.575920 1_555
O9 P1 1.575920 1_555
O10 P2 1.575920 1_555
O11 P3 1.575920 1_555
O12 P4 1.575920 1_555
O13 P5 1.575920 1_555
O14 P6 1.575920 1_555
O15 P7 1.575920 1_555
O16 P0 1.554890 1_555
O17 P1 1.554890 1_555
O18 P2 1.554890 1_555
O19 P3 1.554890 1_555
O20 P4 1.554890 1_555
O21 P5 1.554890 1_555
O22 P6 1.554890 1_555
O23 P7 1.554890 1_555
O24 P0 1.538321 1_555
O25 P1 1.538321 1_555
O26 P2 1.538321 1_555
O27 P3 1.538321 1_555
O28 P4 1.538321 1_555
O29 P5 1.538321 1_555
O30 P6 1.538321 1_555
O31 P7 1.538321 1_555
