# generated using pymatgen
data_Cs2PbN2(ClO3)2
_symmetry_space_group_name_H-M   'P 1'
_cell_length_a   17.07827659
_cell_length_b   17.07827659
_cell_length_c   17.07827659
_cell_angle_alpha   160.55513443
_cell_angle_beta   160.55513443
_cell_angle_gamma   27.63448906
_symmetry_Int_Tables_number   1
_chemical_formula_structural   Cs2PbN2(ClO3)2
_chemical_formula_sum   'Cs4 Pb2 N4 Cl4 O12'
_cell_volume   551.78707071
_cell_formula_units_Z   2
loop_
 _symmetry_equiv_pos_site_id
 _symmetry_equiv_pos_as_xyz
  1  'x, y, z'
loop_
 _atom_site_type_symbol
 _atom_site_label
 _atom_site_symmetry_multiplicity
 _atom_site_fract_x
 _atom_site_fract_y
 _atom_site_fract_z
 _atom_site_occupancy
  Cs  Cs0  1  0.82280900  0.32280900  0.50000000  1
  Cs  Cs1  1  0.07280900  0.07280900  0.00000000  1
  Cs  Cs2  1  0.92719100  0.92719100  0.00000000  1
  Cs  Cs3  1  0.67719100  0.17719100  0.50000000  1
  Pb  Pb0  1  0.25000000  0.75000000  0.50000000  1
  Pb  Pb1  1  0.50000000  0.50000000  0.00000000  1
  N  N0  1  0.40214600  0.40214600  0.00000000  1
  N  N1  1  0.15214600  0.65214600  0.50000000  1
  N  N2  1  0.34785400  0.84785400  0.50000000  1
  N  N3  1  0.59785400  0.59785400  0.00000000  1
  Cl  Cl0  1  0.25947900  0.25947900  0.00000000  1
  Cl  Cl1  1  0.00947900  0.50947900  0.50000000  1
  Cl  Cl2  1  0.49052100  0.99052100  0.50000000  1
  Cl  Cl3  1  0.74052100  0.74052100  0.00000000  1
  O  O0  1  0.61279200  0.42185100  0.19094100  1
  O  O1  1  0.23091000  0.42185100  0.80905900  1
  O  O2  1  0.17185100  0.86279200  0.69094100  1
  O  O3  1  0.17185100  0.48091000  0.30905900  1
  O  O4  1  0.13720800  0.82814900  0.30905900  1
  O  O5  1  0.51909000  0.82814900  0.69094100  1
  O  O6  1  0.57814900  0.38720800  0.80905900  1
  O  O7  1  0.57814900  0.76909000  0.19094100  1
  O  O8  1  0.36443200  0.36443200  0.00000000  1
  O  O9  1  0.11443200  0.61443200  0.50000000  1
  O  O10  1  0.38556800  0.88556800  0.50000000  1
  O  O11  1  0.63556800  0.63556800  0.00000000  1
loop_
_geom_bond_atom_site_label_1
_geom_bond_atom_site_label_2
_geom_bond_distance
_geom_bond_site_symmetry_2
Cs0 O8 3.197494 1_656
Cs0 O8 3.197494 1_555
Cs0 O4 3.395212 1_656
Cs0 O5 3.395212 1_555
Cs0 O5 3.395212 1_544
Cs0 O4 3.395212 1_645
Cs0 O1 3.737586 1_655
Cs0 O0 3.737586 1_555
Cs1 O9 3.197494 1_544
Cs1 O9 3.197494 1_555
Cs1 O6 3.395212 1_555
Cs1 O7 3.395212 1_545
Cs1 O6 3.395212 1_454
Cs1 O7 3.395212 1_444
Cs1 O2 3.737586 1_544
Cs1 O3 3.737586 1_555
Cs2 O10 3.197494 1_655
Cs2 O10 3.197494 1_554
Cs2 O1 3.395212 1_665
Cs2 O1 3.395212 1_654
Cs2 O0 3.395212 1_554
Cs2 O0 3.395212 1_565
Cs2 O5 3.737586 1_554
Cs2 O4 3.737586 1_655
Cs3 O11 3.197494 1_556
Cs3 O11 3.197494 1_545
Cs3 O2 3.395212 1_544
Cs3 O3 3.395212 1_656
Cs3 O2 3.395212 1_645
Cs3 O3 3.395212 1_555
Cs3 O7 3.737586 1_545
Cs3 O6 3.737586 1_555
N0 O8 1.250903 1_555
N0 O0 1.280709 1_555
N0 O1 1.280709 1_554
N1 O9 1.250903 1_555
N1 O2 1.280709 1_555
N1 O3 1.280709 1_555
N2 O10 1.250903 1_555
N2 O4 1.280709 1_555
N2 O5 1.280709 1_555
N3 O11 1.250903 1_555
N3 O6 1.280709 1_554
N3 O7 1.280709 1_555
Cl0 Pb0 2.901185 1_544
Cl0 Pb0 2.901185 1_555
Cl0 Cs0 3.567953 1_555
Cl0 Cs0 3.567953 1_454
Cl0 Cs3 3.970809 1_555
Cl0 Cs3 3.970809 1_454
Cl1 Pb1 2.901185 1_455
Cl1 Pb1 2.901185 1_556
Cl1 Cs1 3.567953 1_566
Cl1 Cs1 3.567953 1_555
Cl1 Cs2 3.970809 1_445
Cl1 Cs2 3.970809 1_456
Cl2 Pb1 2.901185 1_566
Cl2 Pb1 2.901185 1_555
Cl2 Cs2 3.567953 1_455
Cl2 Cs2 3.567953 1_556
Cl2 Cs1 3.970809 1_565
Cl2 Cs1 3.970809 1_666
Cl3 Pb0 2.901185 1_655
Cl3 Pb0 2.901185 1_554
Cl3 Cs3 3.567953 1_565
Cl3 Cs3 3.567953 1_554
Cl3 Cs0 3.970809 1_565
Cl3 Cs0 3.970809 1_554
O0 Pb1 2.816347 1_555
O1 Pb1 2.816347 1_556
O2 Pb0 2.816347 1_555
O3 Pb0 2.816347 1_555
O4 Pb0 2.816347 1_555
O5 Pb0 2.816347 1_555
O6 Pb1 2.816347 1_556
O7 Pb1 2.816347 1_555
