# generated using pymatgen
data_KVO3
_symmetry_space_group_name_H-M   'P 1'
_cell_length_a   5.19746080
_cell_length_b   5.65515664
_cell_length_c   10.65824401
_cell_angle_alpha   90.00000000
_cell_angle_beta   90.00000000
_cell_angle_gamma   90.00000000
_symmetry_Int_Tables_number   1
_chemical_formula_structural   KVO3
_chemical_formula_sum   'K4 V4 O12'
_cell_volume   313.27195696
_cell_formula_units_Z   4
loop_
 _symmetry_equiv_pos_site_id
 _symmetry_equiv_pos_as_xyz
  1  'x, y, z'
loop_
 _atom_site_type_symbol
 _atom_site_label
 _atom_site_symmetry_multiplicity
 _atom_site_fract_x
 _atom_site_fract_y
 _atom_site_fract_z
 _atom_site_occupancy
  K  K0  1  0.05901980  0.75000000  0.10491876  1
  K  K1  1  0.05901980  0.25000000  0.39508124  1
  K  K2  1  0.94098020  0.25000000  0.89508124  1
  K  K3  1  0.94098020  0.75000000  0.60491876  1
  V  V0  1  0.47609114  0.75000000  0.84011610  1
  V  V1  1  0.47609114  0.25000000  0.65988390  1
  V  V2  1  0.52390886  0.25000000  0.15988390  1
  V  V3  1  0.52390886  0.75000000  0.34011610  1
  O  O0  1  0.39327901  0.75000000  0.48098259  1
  O  O1  1  0.39327901  0.25000000  0.01901741  1
  O  O2  1  0.60672099  0.25000000  0.51901741  1
  O  O3  1  0.60672099  0.75000000  0.98098259  1
  O  O4  1  0.84283482  0.75000000  0.35111847  1
  O  O5  1  0.84283482  0.25000000  0.14888153  1
  O  O6  1  0.15716518  0.25000000  0.64888153  1
  O  O7  1  0.15716518  0.75000000  0.85111847  1
  O  O8  1  0.58806114  -0.00000000  0.75000000  1
  O  O9  1  0.41193886  0.50000000  0.25000000  1
  O  O10  1  0.41193886  0.00000000  0.25000000  1
  O  O11  1  0.58806114  0.50000000  0.75000000  1
loop_
_geom_bond_atom_site_label_1
_geom_bond_atom_site_label_2
_geom_bond_distance
_geom_bond_site_symmetry_2
K0 O3 2.696511 1_454
K0 O7 2.752742 1_554
K0 O10 2.784685 1_565
K0 O9 2.784685 1_555
K0 O4 2.854502 1_455
K0 O5 3.078516 1_455
K0 O5 3.078516 1_465
K0 O3 3.138206 1_554
K1 O2 2.696511 1_455
K1 O6 2.752742 1_555
K1 O10 2.784685 1_555
K1 O9 2.784685 1_555
K1 O5 2.854502 1_455
K1 O4 3.078516 1_445
K1 O4 3.078516 1_455
K1 O2 3.138206 1_555
K2 O1 2.696511 1_656
K2 O5 2.752742 1_556
K2 O8 2.784685 1_555
K2 O11 2.784685 1_555
K2 O6 2.854502 1_655
K2 O7 3.078516 1_655
K2 O7 3.078516 1_645
K2 O1 3.138206 1_556
K3 O0 2.696511 1_655
K3 O4 2.752742 1_555
K3 O8 2.784685 1_565
K3 O11 2.784685 1_555
K3 O7 2.854502 1_655
K3 O6 3.078516 1_665
K3 O6 3.078516 1_655
K3 O0 3.138206 1_555
O0 V3 1.647767 1_555
O1 V2 1.647767 1_555
O2 V1 1.647767 1_555
O3 V0 1.647767 1_555
O4 V3 1.661748 1_555
O5 V2 1.661748 1_555
O6 V1 1.661748 1_555
O7 V0 1.661748 1_555
O8 V0 1.805546 1_545
O8 V1 1.805546 1_555
O9 V3 1.805546 1_555
O9 V2 1.805546 1_555
O10 V3 1.805546 1_545
O10 V2 1.805546 1_555
O11 V1 1.805546 1_555
O11 V0 1.805546 1_555
