# generated using pymatgen
data_Tm3Ga5O12
_symmetry_space_group_name_H-M   'P 1'
_cell_length_a   10.66303478
_cell_length_b   10.66303478
_cell_length_c   10.66303478
_cell_angle_alpha   109.47122063
_cell_angle_beta   109.47122063
_cell_angle_gamma   109.47122063
_symmetry_Int_Tables_number   1
_chemical_formula_structural   Tm3Ga5O12
_chemical_formula_sum   'Tm12 Ga20 O48'
_cell_volume   933.29853993
_cell_formula_units_Z   4
loop_
 _symmetry_equiv_pos_site_id
 _symmetry_equiv_pos_as_xyz
  1  'x, y, z'
loop_
 _atom_site_type_symbol
 _atom_site_label
 _atom_site_symmetry_multiplicity
 _atom_site_fract_x
 _atom_site_fract_y
 _atom_site_fract_z
 _atom_site_occupancy
  Tm  Tm0  1  0.25000000  0.37500000  0.12500000  1
  Tm  Tm1  1  0.75000000  0.62500000  0.87500000  1
  Tm  Tm2  1  0.75000000  0.12500000  0.37500000  1
  Tm  Tm3  1  0.12500000  0.25000000  0.37500000  1
  Tm  Tm4  1  0.37500000  0.75000000  0.12500000  1
  Tm  Tm5  1  0.25000000  0.87500000  0.62500000  1
  Tm  Tm6  1  0.87500000  0.75000000  0.62500000  1
  Tm  Tm7  1  0.62500000  0.25000000  0.87500000  1
  Tm  Tm8  1  0.37500000  0.12500000  0.25000000  1
  Tm  Tm9  1  0.62500000  0.87500000  0.75000000  1
  Tm  Tm10  1  0.12500000  0.37500000  0.75000000  1
  Tm  Tm11  1  0.87500000  0.62500000  0.25000000  1
  Ga  Ga0  1  0.25000000  0.62500000  0.37500000  1
  Ga  Ga1  1  0.75000000  0.37500000  0.62500000  1
  Ga  Ga2  1  0.75000000  0.87500000  0.12500000  1
  Ga  Ga3  1  0.37500000  0.25000000  0.62500000  1
  Ga  Ga4  1  0.62500000  0.75000000  0.37500000  1
  Ga  Ga5  1  0.25000000  0.12500000  0.87500000  1
  Ga  Ga6  1  0.12500000  0.75000000  0.87500000  1
  Ga  Ga7  1  0.87500000  0.25000000  0.12500000  1
  Ga  Ga8  1  0.62500000  0.37500000  0.25000000  1
  Ga  Ga9  1  0.37500000  0.62500000  0.75000000  1
  Ga  Ga10  1  0.87500000  0.12500000  0.75000000  1
  Ga  Ga11  1  0.12500000  0.87500000  0.25000000  1
  Ga  Ga12  1  0.00000000  0.00000000  0.00000000  1
  Ga  Ga13  1  0.50000000  0.00000000  0.50000000  1
  Ga  Ga14  1  0.00000000  0.50000000  0.50000000  1
  Ga  Ga15  1  0.50000000  0.00000000  0.00000000  1
  Ga  Ga16  1  0.50000000  0.50000000  0.00000000  1
  Ga  Ga17  1  0.50000000  0.50000000  0.50000000  1
  Ga  Ga18  1  0.00000000  0.00000000  0.50000000  1
  Ga  Ga19  1  0.00000000  0.50000000  0.00000000  1
  O  O0  1  0.46937400  0.37455900  0.29261300  1
  O  O1  1  0.53062600  0.62544100  0.70738700  1
  O  O2  1  0.58194600  0.17676000  0.20738700  1
  O  O3  1  0.91805400  0.12544100  0.59481500  1
  O  O4  1  0.29261300  0.46937400  0.37455900  1
  O  O5  1  0.32324000  0.91805400  0.29261300  1
  O  O6  1  0.41805400  0.82324000  0.79261300  1
  O  O7  1  0.08194600  0.87455900  0.40518500  1
  O  O8  1  0.70738700  0.53062600  0.62544100  1
  O  O9  1  0.67676000  0.08194600  0.70738700  1
  O  O10  1  0.03062600  0.32324000  0.90518500  1
  O  O11  1  0.20738700  0.58194600  0.17676000  1
  O  O12  1  0.12544100  0.03062600  0.20738700  1
  O  O13  1  0.96937400  0.67676000  0.09481500  1
  O  O14  1  0.79261300  0.41805400  0.82324000  1
  O  O15  1  0.87455900  0.96937400  0.79261300  1
  O  O16  1  0.59481500  0.91805400  0.12544100  1
  O  O17  1  0.17676000  0.46937400  0.59481500  1
  O  O18  1  0.40518500  0.08194600  0.87455900  1
  O  O19  1  0.82324000  0.53062600  0.40518500  1
  O  O20  1  0.90518500  0.03062600  0.32324000  1
  O  O21  1  0.37455900  0.58194600  0.90518500  1
  O  O22  1  0.09481500  0.96937400  0.67676000  1
  O  O23  1  0.62544100  0.41805400  0.09481500  1
  O  O24  1  0.37455900  0.29261300  0.46937400  1
  O  O25  1  0.58194600  0.90518500  0.37455900  1
  O  O26  1  0.62544100  0.70738700  0.53062600  1
  O  O27  1  0.41805400  0.09481500  0.62544100  1
  O  O28  1  0.12544100  0.59481500  0.91805400  1
  O  O29  1  0.03062600  0.20738700  0.12544100  1
  O  O30  1  0.87455900  0.40518500  0.08194600  1
  O  O31  1  0.96937400  0.79261300  0.87455900  1
  O  O32  1  0.32324000  0.90518500  0.03062600  1
  O  O33  1  0.91805400  0.29261300  0.32324000  1
  O  O34  1  0.67676000  0.09481500  0.96937400  1
  O  O35  1  0.08194600  0.70738700  0.67676000  1
  O  O36  1  0.17676000  0.20738700  0.58194600  1
  O  O37  1  0.46937400  0.59481500  0.17676000  1
  O  O38  1  0.82324000  0.79261300  0.41805400  1
  O  O39  1  0.53062600  0.40518500  0.82324000  1
  O  O40  1  0.29261300  0.32324000  0.91805400  1
  O  O41  1  0.70738700  0.67676000  0.08194600  1
  O  O42  1  0.20738700  0.12544100  0.03062600  1
  O  O43  1  0.79261300  0.87455900  0.96937400  1
  O  O44  1  0.90518500  0.37455900  0.58194600  1
  O  O45  1  0.09481500  0.62544100  0.41805400  1
  O  O46  1  0.59481500  0.17676000  0.46937400  1
  O  O47  1  0.40518500  0.82324000  0.53062600  1
loop_
_geom_bond_atom_site_label_1
_geom_bond_atom_site_label_2
_geom_bond_distance
_geom_bond_site_symmetry_2
Ga0 O45 1.859880 1_555
Ga0 O4 1.859880 1_555
Ga0 O47 1.859885 1_555
Ga0 O11 1.859890 1_555
Ga1 O8 1.859880 1_555
Ga1 O44 1.859880 1_555
Ga1 O46 1.859885 1_555
Ga1 O14 1.859890 1_555
Ga2 O16 1.859880 1_555
Ga2 O43 1.859880 1_554
Ga2 O20 1.859885 1_565
Ga2 O41 1.859890 1_555
Ga3 O27 1.859880 1_555
Ga3 O24 1.859880 1_555
Ga3 O39 1.859885 1_555
Ga3 O36 1.859890 1_555
Ga4 O26 1.859880 1_555
Ga4 O25 1.859880 1_555
Ga4 O37 1.859885 1_555
Ga4 O38 1.859890 1_555
Ga5 O42 1.859880 1_556
Ga5 O18 1.859880 1_555
Ga5 O22 1.859885 1_545
Ga5 O40 1.859890 1_555
Ga6 O28 1.859880 1_555
Ga6 O31 1.859880 1_455
Ga6 O32 1.859885 1_556
Ga6 O35 1.859890 1_555
Ga7 O29 1.859880 1_655
Ga7 O30 1.859880 1_555
Ga7 O34 1.859885 1_554
Ga7 O33 1.859890 1_555
Ga8 O23 1.859880 1_555
Ga8 O0 1.859880 1_555
Ga8 O19 1.859885 1_555
Ga8 O2 1.859890 1_555
Ga9 O1 1.859880 1_555
Ga9 O21 1.859880 1_555
Ga9 O17 1.859885 1_555
Ga9 O6 1.859890 1_555
Ga10 O3 1.859880 1_555
Ga10 O15 1.859880 1_545
Ga10 O10 1.859885 1_655
Ga10 O9 1.859890 1_555
Ga11 O12 1.859880 1_565
Ga11 O7 1.859880 1_555
Ga11 O13 1.859885 1_455
Ga11 O5 1.859890 1_555
Ga12 O43 2.010317 1_444
Ga12 O15 2.010317 1_444
Ga12 O31 2.010317 1_444
Ga12 O12 2.010317 1_555
Ga12 O29 2.010317 1_555
Ga12 O42 2.010317 1_555
Ga13 O47 2.010308 1_545
Ga13 O46 2.010308 1_555
Ga13 O5 2.010312 1_545
Ga13 O9 2.010312 1_555
Ga13 O27 2.010317 1_555
Ga13 O25 2.010317 1_545
Ga14 O19 2.010308 1_455
Ga14 O17 2.010308 1_555
Ga14 O33 2.010312 1_455
Ga14 O35 2.010312 1_555
Ga14 O45 2.010317 1_555
Ga14 O44 2.010317 1_455
Ga15 O32 2.010308 1_545
Ga15 O34 2.010308 1_554
Ga15 O6 2.010312 1_544
Ga15 O2 2.010312 1_555
Ga15 O18 2.010317 1_554
Ga15 O16 2.010317 1_545
Ga16 O39 2.010308 1_554
Ga16 O37 2.010308 1_555
Ga16 O40 2.010312 1_554
Ga16 O41 2.010312 1_555
Ga16 O23 2.010317 1_555
Ga16 O21 2.010317 1_554
Ga17 O0 2.010317 1_555
Ga17 O4 2.010317 1_555
Ga17 O24 2.010317 1_555
Ga17 O8 2.010317 1_555
Ga17 O1 2.010317 1_555
Ga17 O26 2.010317 1_555
Ga18 O20 2.010308 1_455
Ga18 O22 2.010308 1_545
Ga18 O38 2.010312 1_445
Ga18 O36 2.010312 1_555
Ga18 O7 2.010317 1_545
Ga18 O3 2.010317 1_455
Ga19 O10 2.010308 1_554
Ga19 O13 2.010308 1_455
Ga19 O14 2.010312 1_454
Ga19 O11 2.010312 1_555
Ga19 O30 2.010317 1_455
Ga19 O28 2.010317 1_554
O0 Tm8 2.324690 1_555
O0 Tm0 2.427328 1_555
O1 Tm9 2.324690 1_555
O1 Tm1 2.427328 1_555
O2 Tm8 2.324690 1_555
O2 Tm2 2.427320 1_555
O3 Tm10 2.324690 1_655
O3 Tm2 2.427328 1_555
O4 Tm0 2.324690 1_555
O4 Tm3 2.427328 1_555
O5 Tm8 2.324690 1_565
O5 Tm4 2.427320 1_555
O6 Tm9 2.324690 1_555
O6 Tm5 2.427320 1_555
O7 Tm11 2.324690 1_455
O7 Tm5 2.427328 1_555
O8 Tm1 2.324690 1_555
O8 Tm6 2.427328 1_555
O9 Tm9 2.324690 1_545
O9 Tm7 2.427320 1_555
O10 Tm10 2.324687 1_555
O10 Tm0 2.427332 1_556
O11 Tm0 2.324690 1_555
O11 Tm4 2.427320 1_555
O12 Tm8 2.324690 1_555
O12 Tm3 2.427328 1_555
O13 Tm11 2.324687 1_555
O13 Tm1 2.427332 1_554
O14 Tm1 2.324690 1_555
O14 Tm7 2.427320 1_555
O15 Tm9 2.324690 1_555
O15 Tm6 2.427328 1_555
O16 Tm2 2.324690 1_565
O16 Tm4 2.427328 1_555
O17 Tm10 2.324687 1_555
O17 Tm3 2.427332 1_555
O18 Tm5 2.324690 1_545
O18 Tm7 2.427328 1_555
O19 Tm11 2.324687 1_555
O19 Tm6 2.427332 1_555
O20 Tm2 2.324687 1_555
O20 Tm3 2.427332 1_655
O21 Tm10 2.324690 1_555
O21 Tm4 2.427328 1_556
O22 Tm5 2.324687 1_555
O22 Tm6 2.427332 1_455
O23 Tm11 2.324690 1_555
O23 Tm7 2.427328 1_554
O24 Tm3 2.324690 1_555
O24 Tm8 2.427328 1_555
O25 Tm4 2.324690 1_555
O25 Tm2 2.427328 1_565
O26 Tm6 2.324690 1_555
O26 Tm9 2.427328 1_555
O27 Tm7 2.324690 1_555
O27 Tm5 2.427328 1_545
O28 Tm4 2.324690 1_556
O28 Tm10 2.427328 1_555
O29 Tm3 2.324690 1_555
O29 Tm0 2.427328 1_555
O30 Tm7 2.324690 1_554
O30 Tm11 2.427328 1_555
O31 Tm6 2.324690 1_555
O31 Tm1 2.427328 1_555
O32 Tm4 2.324687 1_555
O32 Tm8 2.427332 1_565
O33 Tm3 2.324690 1_655
O33 Tm2 2.427320 1_555
O34 Tm7 2.324687 1_555
O34 Tm9 2.427332 1_545
O35 Tm6 2.324690 1_455
O35 Tm5 2.427320 1_555
O36 Tm3 2.324690 1_555
O36 Tm10 2.427320 1_555
O37 Tm4 2.324687 1_555
O37 Tm0 2.427332 1_555
O38 Tm6 2.324690 1_555
O38 Tm11 2.427320 1_555
O39 Tm7 2.324687 1_555
O39 Tm1 2.427332 1_555
O40 Tm0 2.324690 1_556
O40 Tm10 2.427320 1_555
O41 Tm1 2.324690 1_554
O41 Tm11 2.427320 1_555
O42 Tm0 2.324690 1_555
O42 Tm8 2.427328 1_555
O43 Tm1 2.324690 1_555
O43 Tm9 2.427328 1_555
O44 Tm2 2.324690 1_555
O44 Tm10 2.427328 1_655
O45 Tm5 2.324690 1_555
O45 Tm11 2.427328 1_455
O46 Tm2 2.324687 1_555
O46 Tm8 2.427332 1_555
O47 Tm5 2.324687 1_555
O47 Tm9 2.427332 1_555
