# generated using pymatgen
data_Li(CrS2)2
_symmetry_space_group_name_H-M   'P 1'
_cell_length_a   6.30944680
_cell_length_b   7.45619330
_cell_length_c   12.12486658
_cell_angle_alpha   81.62373243
_cell_angle_beta   85.86065198
_cell_angle_gamma   90.12213915
_symmetry_Int_Tables_number   1
_chemical_formula_structural   Li(CrS2)2
_chemical_formula_sum   'Li4 Cr8 S16'
_cell_volume   562.80476463
_cell_formula_units_Z   4
loop_
 _symmetry_equiv_pos_site_id
 _symmetry_equiv_pos_as_xyz
  1  'x, y, z'
loop_
 _atom_site_type_symbol
 _atom_site_label
 _atom_site_symmetry_multiplicity
 _atom_site_fract_x
 _atom_site_fract_y
 _atom_site_fract_z
 _atom_site_occupancy
  Li  Li0  1  0.12736700  0.19976400  0.70489800  1
  Li  Li1  1  0.87263300  0.80023600  0.29510200  1
  Li  Li2  1  0.24890700  0.37156400  0.99970700  1
  Li  Li3  1  0.75109300  0.62843600  0.00029300  1
  Cr  Cr0  1  0.15207500  0.70184400  0.70564900  1
  Cr  Cr1  1  0.84792500  0.29815600  0.29435100  1
  Cr  Cr2  1  0.23723200  0.88453600  0.99898600  1
  Cr  Cr3  1  0.76276800  0.11546400  0.00101400  1
  Cr  Cr4  1  0.36354800  0.54823300  0.29314400  1
  Cr  Cr5  1  0.63645200  0.45176700  0.70685600  1
  Cr  Cr6  1  0.36951300  0.05349600  0.29414800  1
  Cr  Cr7  1  0.63048700  0.94650400  0.70585200  1
  S  S0  1  0.11848600  0.67139300  0.88547600  1
  S  S1  1  0.88151400  0.32860700  0.11452400  1
  S  S2  1  0.09071100  0.13695700  0.90027000  1
  S  S3  1  0.90928900  0.86304300  0.09973000  1
  S  S4  1  0.22580300  0.78439000  0.36413500  1
  S  S5  1  0.77419700  0.21561000  0.63586500  1
  S  S6  1  0.17949100  0.28362900  0.36193000  1
  S  S7  1  0.82050900  0.71637100  0.63807000  1
  S  S8  1  0.31844900  0.95273800  0.63201100  1
  S  S9  1  0.68155100  0.04726200  0.36798900  1
  S  S10  1  0.31938300  0.47988700  0.63608100  1
  S  S11  1  0.68061700  0.52011300  0.36391900  1
  S  S12  1  0.41449400  0.07968100  0.10871500  1
  S  S13  1  0.58550600  0.92031900  0.89128500  1
  S  S14  1  0.37846000  0.61844000  0.11404200  1
  S  S15  1  0.62154000  0.38156000  0.88595800  1
loop_
_geom_bond_atom_site_label_1
_geom_bond_atom_site_label_2
_geom_bond_distance
_geom_bond_site_symmetry_2
Li0 S2 2.341268 1_555
Li0 S10 2.421152 1_555
Li0 S5 2.433409 1_455
Li0 S8 2.440680 1_545
Li1 S3 2.341268 1_555
Li1 S11 2.421152 1_555
Li1 S4 2.433409 1_655
Li1 S9 2.440680 1_565
Li2 S2 2.508104 1_555
Li2 S1 2.610563 1_456
Li2 S0 2.619839 1_555
Li2 S14 2.622784 1_556
Li2 S15 2.633746 1_555
Li2 S12 2.635502 1_556
Li3 S3 2.508104 1_555
Li3 S0 2.610563 1_654
Li3 S1 2.619839 1_555
Li3 S15 2.622784 1_554
Li3 S14 2.633746 1_555
Li3 S13 2.635502 1_554
Cr0 S0 2.153919 1_555
Cr0 S8 2.183662 1_555
Cr0 S10 2.202343 1_555
Cr0 S7 2.298294 1_455
Cr1 S1 2.153919 1_555
Cr1 S9 2.183662 1_555
Cr1 S11 2.202343 1_555
Cr1 S6 2.298294 1_655
Cr2 S2 2.310928 1_565
Cr2 S3 2.318572 1_456
Cr2 S0 2.400463 1_555
Cr2 S12 2.431047 1_566
Cr2 S14 2.461146 1_556
Cr2 S13 2.467150 1_555
Cr3 S3 2.310928 1_545
Cr3 S2 2.318572 1_654
Cr3 S1 2.400463 1_555
Cr3 S13 2.431047 1_544
Cr3 S15 2.461146 1_554
Cr3 S12 2.467150 1_555
Cr4 S14 2.153549 1_555
Cr4 S4 2.221906 1_555
Cr4 S11 2.231521 1_555
Cr4 S6 2.303844 1_555
Cr5 S15 2.153549 1_555
Cr5 S5 2.221906 1_555
Cr5 S10 2.231521 1_555
Cr5 S7 2.303844 1_555
Cr6 S9 2.218694 1_555
Cr6 S4 2.225626 1_545
Cr6 S12 2.225645 1_555
Cr6 S6 2.309682 1_555
Cr7 S8 2.218694 1_555
Cr7 S5 2.225626 1_565
Cr7 S13 2.225645 1_555
Cr7 S7 2.309682 1_555
