# generated using pymatgen
data_Ga21Rh4
_symmetry_space_group_name_H-M   'P 1'
_cell_length_a   20.54906591
_cell_length_b   20.54906591
_cell_length_c   6.57121600
_cell_angle_alpha   90.00000000
_cell_angle_beta   90.00000000
_cell_angle_gamma   161.61307803
_symmetry_Int_Tables_number   1
_chemical_formula_structural   Ga21Rh4
_chemical_formula_sum   'Ga42 Rh8'
_cell_volume   875.25837142
_cell_formula_units_Z   2
loop_
 _symmetry_equiv_pos_site_id
 _symmetry_equiv_pos_as_xyz
  1  'x, y, z'
loop_
 _atom_site_type_symbol
 _atom_site_label
 _atom_site_symmetry_multiplicity
 _atom_site_fract_x
 _atom_site_fract_y
 _atom_site_fract_z
 _atom_site_occupancy
  Ga  Ga0  1  0.00000000  0.00000000  0.00000000  1
  Ga  Ga1  1  0.50000000  0.50000000  0.50000000  1
  Ga  Ga2  1  0.87926700  0.12073300  0.00000000  1
  Ga  Ga3  1  0.37926700  0.62073300  0.50000000  1
  Ga  Ga4  1  0.12073300  0.87926700  0.00000000  1
  Ga  Ga5  1  0.62073300  0.37926700  0.50000000  1
  Ga  Ga6  1  0.75674100  0.24325900  0.00000000  1
  Ga  Ga7  1  0.25674100  0.74325900  0.50000000  1
  Ga  Ga8  1  0.24325900  0.75674100  0.00000000  1
  Ga  Ga9  1  0.74325900  0.25674100  0.50000000  1
  Ga  Ga10  1  0.61420900  0.68243300  0.85195700  1
  Ga  Ga11  1  0.31756700  0.38579100  0.14804300  1
  Ga  Ga12  1  0.81756700  0.88579100  0.35195700  1
  Ga  Ga13  1  0.11420900  0.18243300  0.64804300  1
  Ga  Ga14  1  0.38579100  0.31756700  0.14804300  1
  Ga  Ga15  1  0.68243300  0.61420900  0.85195700  1
  Ga  Ga16  1  0.18243300  0.11420900  0.64804300  1
  Ga  Ga17  1  0.88579100  0.81756700  0.35195700  1
  Ga  Ga18  1  0.56279100  0.73450100  0.14843300  1
  Ga  Ga19  1  0.26549900  0.43720900  0.85156700  1
  Ga  Ga20  1  0.76549900  0.93720900  0.64843300  1
  Ga  Ga21  1  0.06279100  0.23450100  0.35156700  1
  Ga  Ga22  1  0.43720900  0.26549900  0.85156700  1
  Ga  Ga23  1  0.73450100  0.56279100  0.14843300  1
  Ga  Ga24  1  0.23450100  0.06279100  0.35156700  1
  Ga  Ga25  1  0.93720900  0.76549900  0.64843300  1
  Ga  Ga26  1  0.49281200  0.79842900  0.14472800  1
  Ga  Ga27  1  0.20157100  0.50718800  0.85527200  1
  Ga  Ga28  1  0.70157100  0.00718800  0.64472800  1
  Ga  Ga29  1  0.99281200  0.29842900  0.35527200  1
  Ga  Ga30  1  0.50718800  0.20157100  0.85527200  1
  Ga  Ga31  1  0.79843000  0.49281200  0.14472800  1
  Ga  Ga32  1  0.29843000  0.99281200  0.35527200  1
  Ga  Ga33  1  0.00718800  0.70157100  0.64472800  1
  Ga  Ga34  1  0.45713600  0.86506700  0.83930600  1
  Ga  Ga35  1  0.13493300  0.54286400  0.16069400  1
  Ga  Ga36  1  0.63493300  0.04286400  0.33930600  1
  Ga  Ga37  1  0.95713600  0.36506700  0.66069400  1
  Ga  Ga38  1  0.54286400  0.13493300  0.16069400  1
  Ga  Ga39  1  0.86506700  0.45713600  0.83930600  1
  Ga  Ga40  1  0.36506700  0.95713600  0.66069400  1
  Ga  Ga41  1  0.04286400  0.63493300  0.33930600  1
  Rh  Rh0  1  0.93959600  0.06040400  0.00000000  1
  Rh  Rh1  1  0.43959600  0.56040400  0.50000000  1
  Rh  Rh2  1  0.06040400  0.93959600  0.00000000  1
  Rh  Rh3  1  0.56040400  0.43959600  0.50000000  1
  Rh  Rh4  1  0.81814900  0.18185100  0.00000000  1
  Rh  Rh5  1  0.31814900  0.68185100  0.50000000  1
  Rh  Rh6  1  0.18185100  0.81814900  0.00000000  1
  Rh  Rh7  1  0.68185100  0.31814900  0.50000000  1
loop_
_geom_bond_atom_site_label_1
_geom_bond_atom_site_label_2
_geom_bond_distance
_geom_bond_site_symmetry_2
Ga0 Rh0 2.450603 1_455
Ga0 Rh2 2.450603 1_545
Ga0 Ga11 2.862518 1_555
Ga0 Ga14 2.862518 1_555
Ga0 Ga15 2.862518 1_444
Ga0 Ga10 2.862518 1_444
Ga0 Ga16 2.865786 1_554
Ga0 Ga13 2.865786 1_554
Ga0 Ga12 2.865786 1_445
Ga0 Ga17 2.865786 1_445
Ga1 Rh1 2.450603 1_555
Ga1 Rh3 2.450603 1_555
Ga1 Ga16 2.862518 1_555
Ga1 Ga13 2.862518 1_555
Ga1 Ga12 2.862518 1_555
Ga1 Ga17 2.862518 1_555
Ga1 Ga15 2.865786 1_555
Ga1 Ga10 2.865786 1_555
Ga1 Ga11 2.865786 1_555
Ga1 Ga14 2.865786 1_555
Ga2 Rh0 2.447560 1_555
Ga2 Rh4 2.479570 1_555
Ga2 Ga26 2.830627 1_545
Ga2 Ga27 2.830627 1_654
Ga2 Ga28 2.838641 1_554
Ga2 Ga29 2.838641 1_555
Ga2 Ga20 2.879588 1_544
Ga2 Ga21 2.879588 1_655
Ga3 Rh1 2.447560 1_555
Ga3 Rh5 2.479570 1_555
Ga4 Rh2 2.447560 1_555
Ga4 Rh6 2.479570 1_555
Ga5 Rh3 2.447560 1_555
Ga5 Rh7 2.479570 1_555
Ga6 Rh4 2.491335 1_555
Ga7 Rh5 2.491335 1_555
Ga8 Rh6 2.491335 1_555
Ga9 Rh7 2.491335 1_555
Ga10 Rh0 2.723331 1_566
Ga10 Rh1 2.726766 1_555
Ga10 Ga11 2.753087 1_556
Ga10 Ga15 2.767862 1_555
Ga10 Ga20 2.823593 1_555
Ga10 Ga18 2.863959 1_556
Ga10 Ga19 2.865139 1_555
Ga11 Rh0 2.723331 1_455
Ga11 Rh1 2.726766 1_555
Ga11 Ga14 2.767862 1_555
Ga11 Ga21 2.823593 1_555
Ga11 Ga19 2.863959 1_554
Ga11 Ga18 2.865139 1_555
Ga12 Rh1 2.723331 1_555
Ga12 Rh0 2.726766 1_565
Ga12 Ga13 2.753087 1_665
Ga12 Ga17 2.767862 1_555
Ga12 Ga18 2.823593 1_555
Ga12 Ga20 2.863959 1_555
Ga12 Ga21 2.865139 1_665
Ga13 Rh1 2.723331 1_555
Ga13 Rh0 2.726766 1_456
Ga13 Ga16 2.767862 1_555
Ga13 Ga19 2.823593 1_555
Ga13 Ga21 2.863959 1_555
Ga13 Ga20 2.865139 1_445
Ga14 Rh2 2.723331 1_545
Ga14 Rh3 2.726766 1_555
Ga14 Ga15 2.753087 1_554
Ga14 Ga24 2.823593 1_555
Ga14 Ga22 2.863959 1_554
Ga14 Ga23 2.865139 1_555
Ga15 Rh2 2.723331 1_656
Ga15 Rh3 2.726766 1_555
Ga15 Ga25 2.823593 1_555
Ga15 Ga23 2.863959 1_556
Ga15 Ga22 2.865139 1_555
Ga16 Rh3 2.723331 1_555
Ga16 Rh2 2.726766 1_546
Ga16 Ga17 2.753087 1_445
Ga16 Ga22 2.823593 1_555
Ga16 Ga24 2.863959 1_555
Ga16 Ga25 2.865139 1_445
Ga17 Rh3 2.723331 1_555
Ga17 Rh2 2.726766 1_655
Ga17 Ga23 2.823593 1_555
Ga17 Ga25 2.863959 1_555
Ga17 Ga24 2.865139 1_665
Ga18 Rh0 2.709253 1_565
Ga18 Rh1 2.712184 1_555
Ga18 Ga26 2.716499 1_555
Ga18 Ga19 2.759729 1_554
Ga18 Ga2 2.876827 1_565
Ga18 Ga3 2.879588 1_555
Ga19 Rh0 2.709253 1_456
Ga19 Rh1 2.712184 1_555
Ga19 Ga27 2.716499 1_555
Ga19 Ga2 2.876827 1_456
Ga19 Ga3 2.879588 1_555
Ga20 Rh1 2.709253 1_555
Ga20 Rh0 2.712184 1_566
Ga20 Ga28 2.716499 1_565
Ga20 Ga21 2.759729 1_665
Ga20 Ga3 2.876827 1_555
Ga21 Rh1 2.709253 1_555
Ga21 Rh0 2.712184 1_455
Ga21 Ga29 2.716499 1_455
Ga21 Ga3 2.876827 1_555
Ga22 Rh2 2.709253 1_546
Ga22 Rh3 2.712184 1_555
Ga22 Ga30 2.716499 1_555
Ga22 Ga23 2.759729 1_556
Ga22 Ga4 2.876827 1_546
Ga22 Ga5 2.879588 1_555
Ga23 Rh2 2.709253 1_655
Ga23 Rh3 2.712184 1_555
Ga23 Ga31 2.716519 1_555
Ga23 Ga4 2.876827 1_655
Ga23 Ga5 2.879588 1_555
Ga24 Rh3 2.709253 1_555
Ga24 Rh2 2.712184 1_545
Ga24 Ga32 2.716519 1_545
Ga24 Ga25 2.759729 1_445
Ga24 Ga5 2.876827 1_555
Ga24 Ga4 2.879588 1_545
Ga25 Rh3 2.709253 1_555
Ga25 Rh2 2.712184 1_656
Ga25 Ga33 2.716499 1_655
Ga25 Ga5 2.876827 1_555
Ga25 Ga4 2.879588 1_656
Ga26 Ga27 2.697213 1_554
Ga26 Ga36 2.748265 1_565
Ga26 Rh4 2.776210 1_565
Ga26 Rh5 2.784380 1_555
Ga26 Ga3 2.838641 1_555
Ga26 Ga34 2.888919 1_554
Ga26 Ga35 2.893903 1_555
Ga27 Ga37 2.748265 1_455
Ga27 Rh4 2.776210 1_456
Ga27 Rh5 2.784380 1_555
Ga27 Ga3 2.838641 1_555
Ga27 Ga35 2.888919 1_556
Ga27 Ga34 2.893903 1_555
Ga28 Ga29 2.697213 1_555
Ga28 Ga34 2.748265 1_545
Ga28 Rh5 2.776210 1_545
Ga28 Rh4 2.784380 1_556
Ga28 Ga3 2.830627 1_545
Ga28 Ga36 2.888919 1_555
Ga28 Ga37 2.893903 1_555
Ga29 Ga35 2.748265 1_655
Ga29 Rh5 2.776210 1_655
Ga29 Rh4 2.784380 1_555
Ga29 Ga3 2.830627 1_655
Ga29 Ga37 2.888919 1_555
Ga29 Ga36 2.893903 1_555
Ga30 Ga31 2.697215 1_556
Ga30 Ga40 2.748265 1_545
Ga30 Rh6 2.776210 1_546
Ga30 Rh7 2.784380 1_555
Ga30 Ga4 2.830627 1_546
Ga30 Ga5 2.838641 1_555
Ga30 Ga38 2.888919 1_556
Ga30 Ga39 2.893903 1_555
Ga31 Ga41 2.748248 1_655
Ga31 Rh6 2.776198 1_655
Ga31 Rh7 2.784373 1_555
Ga31 Ga4 2.830634 1_655
Ga31 Ga5 2.838652 1_555
Ga31 Ga39 2.888904 1_554
Ga31 Ga38 2.893891 1_555
Ga32 Ga33 2.697215 1_555
Ga32 Ga38 2.748248 1_565
Ga32 Rh7 2.776198 1_565
Ga32 Rh6 2.784373 1_555
Ga32 Ga5 2.830634 1_565
Ga32 Ga4 2.838652 1_555
Ga32 Ga40 2.888904 1_555
Ga32 Ga41 2.893891 1_555
Ga33 Ga39 2.748265 1_455
Ga33 Rh7 2.776210 1_455
Ga33 Rh6 2.784380 1_556
Ga33 Ga5 2.830627 1_455
Ga33 Ga4 2.838641 1_556
Ga33 Ga41 2.888919 1_555
Ga33 Ga40 2.893903 1_555
Ga34 Ga8 2.611206 1_556
Ga34 Rh4 2.621416 1_566
Ga34 Rh5 2.625889 1_555
Ga34 Ga6 2.933969 1_566
Ga34 Ga7 2.937965 1_555
Ga34 Ga35 2.989334 1_556
Ga35 Ga8 2.611206 1_555
Ga35 Rh4 2.621416 1_455
Ga35 Rh5 2.625889 1_555
Ga35 Ga6 2.933969 1_455
Ga35 Ga7 2.937965 1_555
Ga36 Ga9 2.611206 1_555
Ga36 Rh5 2.621416 1_545
Ga36 Rh4 2.625889 1_555
Ga36 Ga7 2.933969 1_545
Ga36 Ga6 2.937965 1_555
Ga36 Ga37 2.989334 1_555
Ga37 Ga9 2.611206 1_555
Ga37 Rh5 2.621416 1_655
Ga37 Rh4 2.625889 1_556
Ga37 Ga7 2.933969 1_655
Ga37 Ga6 2.937965 1_556
Ga38 Ga6 2.611206 1_555
Ga38 Rh6 2.621416 1_545
Ga38 Rh7 2.625889 1_555
Ga38 Ga8 2.933969 1_545
Ga38 Ga9 2.937965 1_555
Ga38 Ga39 2.989334 1_554
Ga39 Ga6 2.611206 1_556
Ga39 Rh6 2.621416 1_656
Ga39 Rh7 2.625889 1_555
Ga39 Ga8 2.933969 1_656
Ga39 Ga9 2.937965 1_555
Ga40 Ga7 2.611206 1_555
Ga40 Rh7 2.621416 1_565
Ga40 Rh6 2.625889 1_556
Ga40 Ga9 2.933969 1_565
Ga40 Ga8 2.937965 1_556
Ga40 Ga41 2.989334 1_555
Ga41 Ga7 2.611206 1_555
Ga41 Rh7 2.621416 1_455
Ga41 Rh6 2.625889 1_555
Ga41 Ga9 2.933969 1_455
Ga41 Ga8 2.937965 1_555
