# generated using pymatgen
data_RbHgSbTe3
_symmetry_space_group_name_H-M   'P 1'
_cell_length_a   8.38917545
_cell_length_b   8.38917545
_cell_length_c   12.02788000
_cell_angle_alpha   90.00000000
_cell_angle_beta   90.00000000
_cell_angle_gamma   148.24702216
_symmetry_Int_Tables_number   1
_chemical_formula_structural   RbHgSbTe3
_chemical_formula_sum   'Rb2 Hg2 Sb2 Te6'
_cell_volume   445.47819346
_cell_formula_units_Z   2
loop_
 _symmetry_equiv_pos_site_id
 _symmetry_equiv_pos_as_xyz
  1  'x, y, z'
loop_
 _atom_site_type_symbol
 _atom_site_label
 _atom_site_symmetry_multiplicity
 _atom_site_fract_x
 _atom_site_fract_y
 _atom_site_fract_z
 _atom_site_occupancy
  Rb  Rb0  1  0.24965700  0.75034300  0.24650100  1
  Rb  Rb1  1  0.75034300  0.24965700  0.74650100  1
  Hg  Hg0  1  0.55003100  0.44996900  0.25512800  1
  Hg  Hg1  1  0.44996900  0.55003100  0.75512800  1
  Sb  Sb0  1  0.98941000  0.01059000  0.01153700  1
  Sb  Sb1  1  0.01059000  0.98941000  0.51153700  1
  Te  Te0  1  0.63612900  0.36387100  0.45946900  1
  Te  Te1  1  0.37690500  0.62309500  0.54045500  1
  Te  Te2  1  0.62309500  0.37690500  0.04045500  1
  Te  Te3  1  0.36387100  0.63612900  0.95946900  1
  Te  Te4  1  0.93441000  0.06559000  0.24211100  1
  Te  Te5  1  0.06559000  0.93441000  0.74211100  1
loop_
_geom_bond_atom_site_label_1
_geom_bond_atom_site_label_2
_geom_bond_distance
_geom_bond_site_symmetry_2
Rb0 Te4 3.762935 1_455
Rb0 Te4 3.762935 1_565
Rb0 Te0 3.896828 1_455
Rb0 Te0 3.896828 1_565
Rb0 Te3 3.913622 1_554
Rb0 Te2 3.947238 1_565
Rb0 Te2 3.947238 1_455
Rb0 Te1 4.088755 1_555
Rb1 Te5 3.762935 1_655
Rb1 Te5 3.762935 1_545
Rb1 Te3 3.896828 1_655
Rb1 Te3 3.896828 1_545
Rb1 Te0 3.913622 1_555
Rb1 Te1 3.947238 1_545
Rb1 Te1 3.947238 1_655
Rb1 Te2 4.088755 1_556
Hg0 Te0 2.823362 1_555
Hg0 Te2 2.838554 1_555
Hg0 Te4 2.961949 1_455
Hg0 Te4 2.961949 1_565
Hg0 Rb0 3.956841 1_655
Hg0 Rb0 3.956841 1_545
Hg1 Te3 2.823362 1_555
Hg1 Te1 2.838554 1_555
Hg1 Te5 2.961949 1_655
Hg1 Te5 2.961949 1_545
Hg1 Rb1 3.956841 1_565
Hg1 Rb1 3.956841 1_455
Sb0 Te4 2.911895 1_555
Sb0 Te3 3.124704 1_654
Sb0 Te3 3.124704 1_544
Sb0 Te2 3.168992 1_655
Sb0 Te2 3.168992 1_545
Sb0 Te5 3.465993 1_644
Sb1 Te5 2.911895 1_555
Sb1 Te0 3.124704 1_565
Sb1 Te0 3.124704 1_455
Sb1 Te1 3.168992 1_455
Sb1 Te1 3.168992 1_565
Sb1 Te4 3.465993 1_465
