# generated using pymatgen
data_YCr2O4
_symmetry_space_group_name_H-M   'P 1'
_cell_length_a   6.33969080
_cell_length_b   6.33969080
_cell_length_c   6.33969131
_cell_angle_alpha   60.41311082
_cell_angle_beta   60.41311082
_cell_angle_gamma   60.41311487
_symmetry_Int_Tables_number   1
_chemical_formula_structural   YCr2O4
_chemical_formula_sum   'Y2 Cr4 O8'
_cell_volume   181.85591450
_cell_formula_units_Z   2
loop_
 _symmetry_equiv_pos_site_id
 _symmetry_equiv_pos_as_xyz
  1  'x, y, z'
loop_
 _atom_site_type_symbol
 _atom_site_label
 _atom_site_symmetry_multiplicity
 _atom_site_fract_x
 _atom_site_fract_y
 _atom_site_fract_z
 _atom_site_occupancy
  Y  Y0  1  0.62184300  0.62184300  0.62184300  1
  Y  Y1  1  0.37815700  0.37815700  0.37815700  1
  Cr  Cr0  1  0.50000000  0.00000000  0.00000000  1
  Cr  Cr1  1  0.00000000  0.00000000  0.00000000  1
  Cr  Cr2  1  0.00000000  0.50000000  0.00000000  1
  Cr  Cr3  1  0.00000000  0.00000000  0.50000000  1
  O  O0  1  0.76340500  0.20302300  0.76340500  1
  O  O1  1  0.23659500  0.23659500  0.79697700  1
  O  O2  1  0.79697700  0.23659500  0.23659500  1
  O  O3  1  0.24028700  0.24028700  0.24028700  1
  O  O4  1  0.76340500  0.76340500  0.20302300  1
  O  O5  1  0.23659500  0.79697700  0.23659500  1
  O  O6  1  0.20302300  0.76340500  0.76340500  1
  O  O7  1  0.75971300  0.75971300  0.75971300  1
loop_
_geom_bond_atom_site_label_1
_geom_bond_atom_site_label_2
_geom_bond_distance
_geom_bond_site_symmetry_2
Cr0 O0 2.106574 1_554
Cr0 O5 2.106574 1_545
Cr0 O4 2.106574 1_545
Cr0 O1 2.106574 1_554
Cr0 O7 2.165656 1_544
Cr0 O3 2.165656 1_555
Cr1 O1 2.136609 1_554
Cr1 O4 2.136609 1_445
Cr1 O5 2.136609 1_545
Cr1 O2 2.136609 1_455
Cr1 O6 2.136609 1_544
Cr1 O0 2.136609 1_454
Cr2 O6 2.106574 1_554
Cr2 O2 2.106574 1_455
Cr2 O4 2.106574 1_455
Cr2 O1 2.106574 1_554
Cr2 O3 2.165656 1_555
Cr2 O7 2.165656 1_454
Cr3 O6 2.106574 1_545
Cr3 O0 2.106574 1_455
Cr3 O2 2.106574 1_455
Cr3 O5 2.106574 1_545
Cr3 O7 2.165656 1_445
Cr3 O3 2.165656 1_555
O0 Y0 2.179459 1_555
O1 Y1 2.179459 1_555
O2 Y1 2.179459 1_555
O3 Y1 2.134276 1_555
O4 Y0 2.179459 1_555
O5 Y1 2.179459 1_555
O6 Y0 2.179459 1_555
O7 Y0 2.134276 1_555
