# generated using pymatgen
data_MoW3(SeS3)2
_symmetry_space_group_name_H-M   'P 1'
_cell_length_a   3.21961938
_cell_length_b   3.21961938
_cell_length_c   36.38964600
_cell_angle_alpha   90.00000000
_cell_angle_beta   90.00000000
_cell_angle_gamma   119.99998736
_symmetry_Int_Tables_number   1
_chemical_formula_structural   MoW3(SeS3)2
_chemical_formula_sum   'Mo1 W3 Se2 S6'
_cell_volume   326.67626751
_cell_formula_units_Z   1
loop_
 _symmetry_equiv_pos_site_id
 _symmetry_equiv_pos_as_xyz
  1  'x, y, z'
loop_
 _atom_site_type_symbol
 _atom_site_label
 _atom_site_symmetry_multiplicity
 _atom_site_fract_x
 _atom_site_fract_y
 _atom_site_fract_z
 _atom_site_occupancy
  Mo  Mo0  1  0.00000000  0.00000000  0.09391100  1
  W  W0  1  0.00000000  0.00000000  0.46965100  1
  W  W1  1  0.33333300  0.66666700  0.28180900  1
  W  W2  1  0.33333300  0.66666700  0.65754000  1
  Se  Se0  1  0.33333300  0.66666700  0.04689000  1
  Se  Se1  1  0.33333300  0.66666700  0.14093000  1
  S  S0  1  0.00000000  0.00000000  0.32474300  1
  S  S1  1  0.00000000  0.00000000  0.70050100  1
  S  S2  1  0.33333300  0.66666700  0.42671600  1
  S  S3  1  0.33333300  0.66666700  0.51260800  1
  S  S4  1  0.00000000  0.00000000  0.23886700  1
  S  S5  1  0.00000000  0.00000000  0.61458100  1
loop_
_geom_bond_atom_site_label_1
_geom_bond_atom_site_label_2
_geom_bond_distance
_geom_bond_site_symmetry_2
Mo0 Se1 2.526430 1_545
Mo0 Se1 2.526432 1_445
Mo0 Se1 2.526432 1_555
Mo0 Se0 2.526479 1_545
Mo0 Se0 2.526481 1_445
Mo0 Se0 2.526481 1_555
S0 W1 2.428221 1_545
S0 W1 2.428223 1_445
S0 W1 2.428223 1_555
S1 W2 2.428853 1_545
S1 W2 2.428855 1_555
S1 W2 2.428855 1_445
S2 W0 2.428244 1_565
S2 W0 2.428247 1_555
S2 W0 2.428247 1_665
S3 W0 2.428759 1_565
S3 W0 2.428762 1_665
S3 W0 2.428762 1_555
S4 W1 2.428408 1_545
S4 W1 2.428410 1_445
S4 W1 2.428410 1_555
S5 W2 2.428806 1_545
S5 W2 2.428809 1_445
S5 W2 2.428809 1_555
