# generated using pymatgen
data_BaMg14Zn
_symmetry_space_group_name_H-M   'P 1'
_cell_length_a   6.66932904
_cell_length_b   6.47359073
_cell_length_c   10.52970421
_cell_angle_alpha   90.00000000
_cell_angle_beta   90.00000000
_cell_angle_gamma   119.03380541
_symmetry_Int_Tables_number   1
_chemical_formula_structural   BaMg14Zn
_chemical_formula_sum   'Ba1 Mg14 Zn1'
_cell_volume   397.48494036
_cell_formula_units_Z   1
loop_
 _symmetry_equiv_pos_site_id
 _symmetry_equiv_pos_as_xyz
  1  'x, y, z'
loop_
 _atom_site_type_symbol
 _atom_site_label
 _atom_site_symmetry_multiplicity
 _atom_site_fract_x
 _atom_site_fract_y
 _atom_site_fract_z
 _atom_site_occupancy
  Ba  Ba0  1  0.13807530  0.81903715  0.12500000  1
  Mg  Mg0  1  0.16063510  0.33031705  0.62500000  1
  Mg  Mg1  1  0.16706798  0.83353349  0.62500000  1
  Mg  Mg2  1  0.63751899  0.32770714  0.12500000  1
  Mg  Mg3  1  0.66592945  0.32738291  0.62500000  1
  Mg  Mg4  1  0.63751899  0.80981086  0.12500000  1
  Mg  Mg5  1  0.66592945  0.83854554  0.62500000  1
  Mg  Mg6  1  0.34205988  0.17889450  0.38803619  1
  Mg  Mg7  1  0.34205988  0.17889450  0.86196381  1
  Mg  Mg8  1  0.34205988  0.66316639  0.38803619  1
  Mg  Mg9  1  0.34205988  0.66316639  0.86196381  1
  Mg  Mg10  1  0.84716271  0.17358186  0.35988436  1
  Mg  Mg11  1  0.84716271  0.17358186  0.89011564  1
  Mg  Mg12  1  0.81916670  0.65958385  0.39322145  1
  Mg  Mg13  1  0.81916670  0.65958385  0.85677855  1
  Zn  Zn0  1  0.22642636  0.36321268  0.12500000  1
loop_
_geom_bond_atom_site_label_1
_geom_bond_atom_site_label_2
_geom_bond_distance
_geom_bond_site_symmetry_2
Ba0 Zn0 3.277540 1_565
Ba0 Zn0 3.277540 1_555
Ba0 Mg2 3.309799 1_455
Ba0 Mg4 3.309800 1_455
Ba0 Mg2 3.360347 1_565
Ba0 Mg4 3.360347 1_555
Ba0 Mg13 3.381543 1_454
Ba0 Mg12 3.381543 1_455
Ba0 Mg9 3.445667 1_554
Ba0 Mg8 3.445667 1_555
Ba0 Mg7 3.445673 1_564
Ba0 Mg6 3.445673 1_565
Mg0 Mg6 3.130819 1_555
Mg0 Mg7 3.130819 1_555
Mg0 Mg8 3.130826 1_555
Mg0 Mg9 3.130826 1_555
Mg0 Mg1 3.237013 1_555
Mg0 Mg1 3.237013 1_545
Mg0 Mg5 3.290178 1_445
Mg0 Mg3 3.290178 1_455
Mg0 Mg11 3.336807 1_455
Mg0 Mg10 3.336807 1_455
Mg0 Mg5 3.379233 1_555
Mg0 Mg3 3.379234 1_555
Mg1 Mg8 3.170746 1_555
Mg1 Mg9 3.170746 1_555
Mg1 Mg7 3.170752 1_565
Mg1 Mg6 3.170752 1_565
Mg1 Mg12 3.173627 1_455
Mg1 Mg13 3.173627 1_455
Mg1 Mg3 3.311446 1_565
Mg1 Mg5 3.311446 1_555
Mg1 Mg3 3.358124 1_455
Mg1 Mg5 3.358124 1_455
Mg2 Zn0 2.860332 1_555
Mg2 Mg4 3.120942 1_555
Mg2 Mg6 3.261838 1_555
Mg2 Mg7 3.261838 1_554
Mg2 Mg4 3.352649 1_545
Mg3 Mg7 3.130500 1_555
Mg3 Mg6 3.130500 1_555
Mg3 Mg5 3.164533 1_545
Mg3 Mg5 3.309058 1_555
Mg4 Zn0 2.860332 1_555
Mg4 Mg9 3.261838 1_554
Mg4 Mg8 3.261838 1_555
Mg5 Mg8 3.130500 1_555
Mg5 Mg9 3.130500 1_555
Mg6 Mg8 3.134978 1_555
Mg6 Zn0 3.253131 1_555
Mg6 Mg8 3.338613 1_545
Mg7 Mg9 3.134978 1_555
Mg7 Zn0 3.253131 1_556
Mg7 Mg9 3.338613 1_545
Mg8 Zn0 3.253137 1_555
Mg9 Zn0 3.253137 1_556
Mg10 Mg2 3.228238 1_555
Mg10 Mg4 3.228245 1_545
Mg10 Mg12 3.259865 1_555
Mg10 Mg12 3.259865 1_545
Mg10 Mg8 3.297429 1_655
Mg10 Mg6 3.297430 1_655
Mg10 Zn0 3.317841 1_655
Mg10 Mg3 3.378367 1_555
Mg10 Mg5 3.378373 1_545
Mg10 Mg8 3.398474 1_545
Mg10 Mg6 3.398474 1_555
Mg11 Mg2 3.228238 1_556
Mg11 Mg4 3.228245 1_546
Mg11 Mg13 3.259865 1_555
Mg11 Mg13 3.259865 1_545
Mg11 Mg9 3.297429 1_655
Mg11 Mg7 3.297430 1_655
Mg11 Zn0 3.317841 1_656
Mg11 Mg3 3.378367 1_555
Mg11 Mg5 3.378373 1_545
Mg11 Mg9 3.398474 1_545
Mg11 Mg7 3.398474 1_555
Mg12 Mg5 3.080945 1_555
Mg12 Mg3 3.080952 1_555
Mg12 Mg6 3.193769 1_555
Mg12 Mg8 3.193769 1_555
Mg12 Mg4 3.396121 1_555
Mg12 Mg2 3.396127 1_555
Mg12 Mg6 3.476579 1_665
Mg12 Mg8 3.476579 1_655
Mg13 Mg5 3.080945 1_555
Mg13 Mg3 3.080952 1_555
Mg13 Mg7 3.193769 1_555
Mg13 Mg9 3.193769 1_555
Mg13 Mg4 3.396121 1_556
Mg13 Mg2 3.396127 1_556
Mg13 Mg7 3.476579 1_665
Mg13 Mg9 3.476579 1_655
