# generated using pymatgen
data_NaAlSiO4
_symmetry_space_group_name_H-M   'P 1'
_cell_length_a   8.45517465
_cell_length_b   10.06538869
_cell_length_c   10.03117965
_cell_angle_alpha   119.93793984
_cell_angle_beta   90.17036924
_cell_angle_gamma   89.76689811
_symmetry_Int_Tables_number   1
_chemical_formula_structural   NaAlSiO4
_chemical_formula_sum   'Na8 Al8 Si8 O32'
_cell_volume   739.78099903
_cell_formula_units_Z   8
loop_
 _symmetry_equiv_pos_site_id
 _symmetry_equiv_pos_as_xyz
  1  'x, y, z'
loop_
 _atom_site_type_symbol
 _atom_site_label
 _atom_site_symmetry_multiplicity
 _atom_site_fract_x
 _atom_site_fract_y
 _atom_site_fract_z
 _atom_site_occupancy
  Na  Na0  1  0.24790800  0.00880500  0.56468100  1
  Na  Na1  1  0.24588800  0.44551300  0.44961200  1
  Na  Na2  1  0.24957500  0.55249100  0.00256500  1
  Na  Na3  1  0.74716300  0.00175600  0.45035300  1
  Na  Na4  1  0.75056800  0.55800800  0.55649400  1
  Na  Na5  1  0.74523300  0.44732600  0.01023800  1
  Na  Na6  1  0.23566000  0.97875600  0.01028000  1
  Na  Na7  1  0.73499000  0.01829800  0.02789900  1
  Al  Al0  1  0.45234500  0.33516400  0.66458700  1
  Al  Al1  1  0.95257800  0.66125600  0.32941600  1
  Al  Al2  1  0.43991900  0.90801500  0.23951400  1
  Al  Al3  1  0.44003600  0.76221000  0.66969500  1
  Al  Al4  1  0.43510100  0.32430600  0.08952600  1
  Al  Al5  1  0.93894800  0.09210100  0.76271500  1
  Al  Al6  1  0.93705800  0.23764800  0.32673000  1
  Al  Al7  1  0.93883400  0.66949300  0.90691800  1
  Si  Si0  1  0.06591100  0.90822800  0.24051400  1
  Si  Si1  1  0.06860100  0.76030600  0.66860900  1
  Si  Si2  1  0.07152600  0.32500300  0.08771700  1
  Si  Si3  1  0.56920800  0.09082400  0.76062000  1
  Si  Si4  1  0.56937700  0.23956000  0.32840400  1
  Si  Si5  1  0.56735900  0.66932100  0.90817400  1
  Si  Si6  1  0.05454800  0.33445100  0.66426100  1
  Si  Si7  1  0.55422400  0.66122100  0.32958900  1
  O  O0  1  0.24501700  0.97827800  0.29095700  1
  O  O1  1  0.24690500  0.71020100  0.69210300  1
  O  O2  1  0.24573100  0.29255800  0.00629300  1
  O  O3  1  0.74700400  0.01877300  0.70518900  1
  O  O4  1  0.74482700  0.27817400  0.28673300  1
  O  O5  1  0.74547100  0.68526200  0.97949500  1
  O  O6  1  0.01154700  0.83671700  0.34763300  1
  O  O7  1  0.01837900  0.64882700  0.48885100  1
  O  O8  1  0.03270600  0.50801800  0.16165100  1
  O  O9  1  0.51587000  0.16476600  0.65488600  1
  O  O10  1  0.53615100  0.35035100  0.51234000  1
  O  O11  1  0.50957400  0.49237500  0.84135200  1
  O  O12  1  0.49974100  0.82673700  0.35002500  1
  O  O13  1  0.49382100  0.64744000  0.47627200  1
  O  O14  1  0.48084100  0.52017000  0.17005400  1
  O  O15  1  0.99571500  0.17371900  0.65134600  1
  O  O16  1  0.97791500  0.35222900  0.52344200  1
  O  O17  1  0.00131800  0.47874100  0.83005500  1
  O  O18  1  0.57122100  0.05757100  0.27730200  1
  O  O19  1  0.57513900  0.72043300  0.77723500  1
  O  O20  1  0.57486600  0.21638000  0.94530000  1
  O  O21  1  0.07294200  0.94243600  0.72027700  1
  O  O22  1  0.07598600  0.27457000  0.21960000  1
  O  O23  1  0.07178500  0.78285300  0.05642400  1
  O  O24  1  0.93853600  0.04103700  0.26381900  1
  O  O25  1  0.93940700  0.73576200  0.77528300  1
  O  O26  1  0.93530400  0.22592700  0.96015600  1
  O  O27  1  0.44128200  0.95789900  0.73065100  1
  O  O28  1  0.43317800  0.26699400  0.22868700  1
  O  O29  1  0.43975900  0.78252100  0.03999300  1
  O  O30  1  0.74694300  0.64868900  0.31974500  1
  O  O31  1  0.24676000  0.33253200  0.64873600  1
loop_
_geom_bond_atom_site_label_1
_geom_bond_atom_site_label_2
_geom_bond_distance
_geom_bond_site_symmetry_2
Na0 O21 2.476572 1_545
Na0 O27 2.556574 1_545
Na0 O15 2.569017 1_455
Na0 O0 2.606118 1_545
Na0 O9 2.648635 1_555
Na0 O6 2.823592 1_545
Na0 O12 2.930128 1_545
Na0 O31 2.930184 1_555
Na1 O22 2.526989 1_555
Na1 O1 2.558622 1_555
Na1 O28 2.582784 1_555
Na1 O7 2.685452 1_555
Na1 O16 2.699097 1_455
Na1 O31 2.747753 1_555
Na1 O10 2.812452 1_555
Na1 O13 2.843558 1_555
Na2 O23 2.579542 1_555
Na2 O17 2.580804 1_554
Na2 O8 2.616570 1_555
Na2 O11 2.616800 1_554
Na2 O2 2.635522 1_555
Na2 O29 2.691951 1_555
Na2 O14 2.696854 1_555
Na3 O3 2.475283 1_555
Na3 O18 2.548185 1_555
Na3 O12 2.596253 1_545
Na3 O24 2.652812 1_555
Na3 O6 2.663331 1_645
Na3 O9 2.713626 1_555
Na3 O15 2.828190 1_555
Na4 O19 2.482445 1_555
Na4 O25 2.578815 1_555
Na4 O13 2.620527 1_555
Na4 O10 2.636978 1_555
Na4 O7 2.658682 1_655
Na4 O16 2.716804 1_555
Na4 O4 2.766064 1_555
Na4 O30 2.938870 1_555
Na5 O20 2.532426 1_554
Na5 O5 2.562804 1_554
Na5 O26 2.580580 1_554
Na5 O14 2.634346 1_555
Na5 O30 2.732498 1_555
Na5 O8 2.766242 1_655
Na5 O11 2.790194 1_554
Na5 O17 2.941841 1_654
Na6 O23 2.638054 1_555
Na6 O29 2.743176 1_555
Na6 O0 2.818800 1_555
Na6 O22 2.973370 1_565
Na6 O1 2.981803 1_554
Na7 O4 2.609998 1_555
Na7 O18 2.713249 1_555
Na7 O24 2.837820 1_555
Na7 O20 2.848660 1_554
Al0 O31 1.744147 1_555
Al0 O9 1.750952 1_555
Al0 O11 1.755779 1_555
Al0 O10 1.760170 1_555
Al1 O30 1.742687 1_555
Al1 O7 1.754098 1_655
Al1 O8 1.754298 1_655
Al1 O6 1.756569 1_655
Al2 O12 1.747144 1_555
Al2 O29 1.754397 1_555
Al2 O18 1.756072 1_565
Al2 O0 1.764494 1_555
Al3 O27 1.746901 1_555
Al3 O13 1.752056 1_555
Al3 O19 1.756973 1_555
Al3 O1 1.765701 1_555
Al4 O28 1.756614 1_555
Al4 O2 1.758643 1_555
Al4 O20 1.760889 1_554
Al4 O14 1.761680 1_555
Al5 O26 1.753630 1_555
Al5 O15 1.753785 1_555
Al5 O21 1.755854 1_645
Al5 O3 1.758034 1_555
Al6 O24 1.751581 1_555
Al6 O16 1.752391 1_555
Al6 O22 1.755698 1_655
Al6 O4 1.767257 1_555
Al7 O25 1.751493 1_555
Al7 O17 1.754010 1_655
Al7 O23 1.762711 1_656
Al7 O5 1.765732 1_555
O0 Si0 1.641502 1_555
O1 Si1 1.641052 1_555
O2 Si2 1.637167 1_555
O3 Si3 1.639704 1_555
O4 Si4 1.642251 1_555
O5 Si5 1.639058 1_555
O6 Si0 1.631441 1_555
O7 Si1 1.634215 1_555
O8 Si2 1.638311 1_555
O9 Si3 1.632353 1_555
O10 Si4 1.635144 1_555
O11 Si5 1.635124 1_555
O12 Si7 1.638038 1_555
O13 Si7 1.629069 1_555
O14 Si7 1.641692 1_555
O15 Si6 1.636634 1_655
O16 Si6 1.641081 1_655
O17 Si6 1.632803 1_555
O18 Si4 1.637390 1_555
O19 Si5 1.633849 1_555
O20 Si3 1.641501 1_555
O21 Si1 1.637898 1_555
O22 Si2 1.636806 1_555
O23 Si0 1.636797 1_555
O24 Si0 1.636875 1_645
O25 Si1 1.634724 1_655
O26 Si2 1.638704 1_656
O27 Si3 1.630576 1_565
O28 Si4 1.633773 1_555
O29 Si5 1.644802 1_554
O30 Si7 1.633308 1_555
O31 Si6 1.632208 1_555
