# generated using pymatgen
data_SmGaCo
_symmetry_space_group_name_H-M   'P 1'
_cell_length_a   5.44891571
_cell_length_b   5.44891571
_cell_length_c   7.03086300
_cell_angle_alpha   54.16072494
_cell_angle_beta   54.16072494
_cell_angle_gamma   44.84972001
_symmetry_Int_Tables_number   1
_chemical_formula_structural   SmGaCo
_chemical_formula_sum   'Sm2 Ga2 Co2'
_cell_volume   113.92232668
_cell_formula_units_Z   2
loop_
 _symmetry_equiv_pos_site_id
 _symmetry_equiv_pos_as_xyz
  1  'x, y, z'
loop_
 _atom_site_type_symbol
 _atom_site_label
 _atom_site_symmetry_multiplicity
 _atom_site_fract_x
 _atom_site_fract_y
 _atom_site_fract_z
 _atom_site_occupancy
  Sm  Sm0  1  0.43791500  0.43791500  0.81047800  1
  Sm  Sm1  1  0.56208500  0.56208500  0.18952200  1
  Ga  Ga0  1  0.81416700  0.81416700  0.59767700  1
  Ga  Ga1  1  0.18583300  0.18583300  0.40232300  1
  Co  Co0  1  0.13876600  0.13876600  0.81117000  1
  Co  Co1  1  0.86123400  0.86123400  0.18883000  1
loop_
_geom_bond_atom_site_label_1
_geom_bond_atom_site_label_2
_geom_bond_distance
_geom_bond_site_symmetry_2
Ga0 Ga1 3.064298 1_665
Ga0 Sm0 3.069304 1_555
Ga0 Sm1 3.116692 1_655
Ga0 Sm1 3.116692 1_565
Ga0 Sm1 3.221425 1_556
Ga0 Sm0 3.236660 1_565
Ga0 Sm0 3.236660 1_655
Ga1 Sm1 3.069304 1_555
Ga1 Sm0 3.116692 1_455
Ga1 Sm0 3.116692 1_545
Ga1 Sm0 3.221425 1_554
Ga1 Sm1 3.236660 1_455
Ga1 Sm1 3.236660 1_545
Co0 Co1 2.337208 1_446
Co0 Ga0 2.517117 1_545
Co0 Ga0 2.517117 1_455
Co0 Ga1 2.600236 1_555
Co0 Sm0 2.902917 1_455
Co0 Sm0 2.902917 1_545
Co0 Sm0 3.010471 1_555
Co0 Sm1 3.064393 1_546
Co0 Sm1 3.064393 1_456
Co1 Ga1 2.517117 1_565
Co1 Ga1 2.517117 1_655
Co1 Ga0 2.600236 1_555
Co1 Sm1 2.902917 1_655
Co1 Sm1 2.902917 1_565
Co1 Sm1 3.010471 1_555
Co1 Sm0 3.064393 1_564
Co1 Sm0 3.064393 1_654
