# generated using pymatgen
data_MoW3(SeS)4
_symmetry_space_group_name_H-M   'P 1'
_cell_length_a   3.25559254
_cell_length_b   3.25559254
_cell_length_c   36.94458500
_cell_angle_alpha   90.00000000
_cell_angle_beta   90.00000000
_cell_angle_gamma   120.00001098
_symmetry_Int_Tables_number   1
_chemical_formula_structural   MoW3(SeS)4
_chemical_formula_sum   'Mo1 W3 Se4 S4'
_cell_volume   339.11067823
_cell_formula_units_Z   1
loop_
 _symmetry_equiv_pos_site_id
 _symmetry_equiv_pos_as_xyz
  1  'x, y, z'
loop_
 _atom_site_type_symbol
 _atom_site_label
 _atom_site_symmetry_multiplicity
 _atom_site_fract_x
 _atom_site_fract_y
 _atom_site_fract_z
 _atom_site_occupancy
  Mo  Mo0  1  0.66666700  0.33333300  0.28177600  1
  W  W0  1  0.33333300  0.66666700  0.09391100  1
  W  W1  1  0.33333300  0.66666700  0.46969100  1
  W  W2  1  0.66666700  0.33333300  0.65755700  1
  Se  Se0  1  0.33333300  0.66666700  0.32773200  1
  Se  Se1  1  0.66666700  0.33333300  0.42343300  1
  Se  Se2  1  0.66666700  0.33333300  0.51592000  1
  Se  Se3  1  0.33333300  0.66666700  0.23579600  1
  S  S0  1  0.33333300  0.66666700  0.69953000  1
  S  S1  1  0.66666700  0.33333300  0.05193400  1
  S  S2  1  0.66666700  0.33333300  0.13589500  1
  S  S3  1  0.33333300  0.66666700  0.61557200  1
loop_
_geom_bond_atom_site_label_1
_geom_bond_atom_site_label_2
_geom_bond_distance
_geom_bond_site_symmetry_2
Mo0 Se0 2.532896 1_545
Mo0 Se0 2.532896 1_655
Mo0 Se0 2.532901 1_555
Mo0 Se3 2.533491 1_545
Mo0 Se3 2.533491 1_655
Mo0 Se3 2.533495 1_555
Se1 W1 2.540389 1_545
Se1 W1 2.540389 1_655
Se1 W1 2.540393 1_555
Se2 W1 2.539668 1_545
Se2 W1 2.539668 1_655
Se2 W1 2.539672 1_555
S0 W2 2.436708 1_455
S0 W2 2.436708 1_565
S0 W2 2.436713 1_555
S1 W0 2.436802 1_545
S1 W0 2.436802 1_655
S1 W0 2.436807 1_555
S2 W0 2.436967 1_545
S2 W0 2.436967 1_655
S2 W0 2.436971 1_555
S3 W2 2.436990 1_455
S3 W2 2.436990 1_565
S3 W2 2.436995 1_555
