# generated using pymatgen
data_RbSb2P(SO6)2
_symmetry_space_group_name_H-M   'P 1'
_cell_length_a   5.24570800
_cell_length_b   8.20302115
_cell_length_c   13.11503022
_cell_angle_alpha   82.02016399
_cell_angle_beta   87.76969028
_cell_angle_gamma   86.77709597
_symmetry_Int_Tables_number   1
_chemical_formula_structural   RbSb2P(SO6)2
_chemical_formula_sum   'Rb2 Sb4 P2 S4 O24'
_cell_volume   557.72348191
_cell_formula_units_Z   2
loop_
 _symmetry_equiv_pos_site_id
 _symmetry_equiv_pos_as_xyz
  1  'x, y, z'
loop_
 _atom_site_type_symbol
 _atom_site_label
 _atom_site_symmetry_multiplicity
 _atom_site_fract_x
 _atom_site_fract_y
 _atom_site_fract_z
 _atom_site_occupancy
  Rb  Rb0  1  0.72437200  0.33502900  0.64716000  1
  Rb  Rb1  1  0.27562800  0.66497100  0.35284000  1
  Sb  Sb0  1  0.78034400  0.23909600  0.96338100  1
  Sb  Sb1  1  0.21965600  0.76090400  0.03661900  1
  Sb  Sb2  1  0.18756000  0.80374800  0.67598300  1
  Sb  Sb3  1  0.81244000  0.19625200  0.32401700  1
  P  P0  1  0.26587700  0.46887900  0.86037400  1
  P  P1  1  0.73412300  0.53112100  0.13962600  1
  S  S0  1  0.74100000  0.79037700  0.52806300  1
  S  S1  1  0.25900000  0.20962300  0.47193700  1
  S  S2  1  0.70889700  0.89137000  0.84315400  1
  S  S3  1  0.29110300  0.10863000  0.15684600  1
  O  O0  1  0.76836400  0.78882900  0.41676800  1
  O  O1  1  0.23163600  0.21117100  0.58323200  1
  O  O2  1  0.74636100  0.95256000  0.56224900  1
  O  O3  1  0.25363900  0.04744000  0.43775100  1
  O  O4  1  0.50495000  0.70152600  0.56853300  1
  O  O5  1  0.49505000  0.29847400  0.43146700  1
  O  O6  1  0.96842300  0.68012100  0.57869800  1
  O  O7  1  0.03157700  0.31987900  0.42130200  1
  O  O8  1  0.43561500  0.89529000  0.81725100  1
  O  O9  1  0.56438500  0.10471000  0.18274900  1
  O  O10  1  0.81865500  0.05561300  0.81612500  1
  O  O11  1  0.18134500  0.94438700  0.18387500  1
  O  O12  1  0.73457300  0.83182400  0.95514200  1
  O  O13  1  0.26542700  0.16817600  0.04485800  1
  O  O14  1  0.85525900  0.76840800  0.78315100  1
  O  O15  1  0.14474100  0.23159200  0.21684900  1
  O  O16  1  0.24928300  0.56720800  0.95163600  1
  O  O17  1  0.75071700  0.43279200  0.04836400  1
  O  O18  1  0.51230400  0.35463300  0.86405600  1
  O  O19  1  0.48769600  0.64536700  0.13594400  1
  O  O20  1  0.97287100  0.63465700  0.14001200  1
  O  O21  1  0.02712900  0.36534300  0.85998800  1
  O  O22  1  0.28578500  0.57448900  0.75271000  1
  O  O23  1  0.71421500  0.42551100  0.24729000  1
loop_
_geom_bond_atom_site_label_1
_geom_bond_atom_site_label_2
_geom_bond_distance
_geom_bond_site_symmetry_2
O0 S0 1.462854 1_555
O0 Rb1 2.928276 1_655
O0 Rb1 3.019374 1_555
O1 S1 1.462854 1_555
O1 Rb0 2.928276 1_455
O1 Rb0 3.019374 1_555
O2 S0 1.463745 1_555
O2 Rb0 3.466424 1_565
O3 S1 1.463745 1_555
O3 Rb1 3.466424 1_545
O4 S0 1.512980 1_555
O4 Sb2 2.334418 1_555
O4 Rb1 3.174930 1_555
O4 Rb0 3.204541 1_555
O5 S1 1.512980 1_555
O5 Sb3 2.334418 1_555
O5 Rb0 3.174930 1_555
O5 Rb1 3.204541 1_555
O6 S0 1.567104 1_555
O6 Sb2 2.140617 1_655
O6 Rb0 3.173466 1_555
O6 Rb1 3.330885 1_655
O7 S1 1.567104 1_555
O7 Sb3 2.140617 1_455
O7 Rb1 3.173466 1_555
O7 Rb0 3.330885 1_455
O8 S2 1.483651 1_555
O8 Sb2 2.524575 1_555
O9 S3 1.483651 1_555
O9 Sb3 2.524575 1_555
O10 S2 1.486969 1_545
O10 Rb0 2.992711 1_555
O11 S3 1.486969 1_565
O11 Rb1 2.992711 1_555
O12 S2 1.490872 1_555
O13 S3 1.490872 1_555
O14 S2 1.520667 1_555
O14 Sb2 2.202518 1_655
O15 S3 1.520667 1_555
O15 Sb3 2.202518 1_455
O16 P0 1.530619 1_555
O16 Sb1 2.059468 1_556
O17 P1 1.530619 1_555
O17 Sb0 2.059468 1_554
O18 P0 1.551681 1_555
O18 Sb0 2.054768 1_555
O18 Rb0 3.035742 1_555
O19 P1 1.551681 1_555
O19 Sb1 2.054768 1_555
O19 Rb1 3.035742 1_555
O20 P1 1.552788 1_555
O20 Sb1 2.052153 1_655
O20 Rb1 3.310187 1_655
O21 P0 1.552788 1_555
O21 Sb0 2.052153 1_455
O21 Rb0 3.310187 1_455
O22 P0 1.553791 1_555
O22 Sb2 2.054452 1_555
O22 Rb0 3.326691 1_555
O23 P1 1.553791 1_555
O23 Sb3 2.054452 1_555
O23 Rb1 3.326691 1_555
