# generated using pymatgen
data_Sr4Co(IrO4)3
_symmetry_space_group_name_H-M   'P 1'
_cell_length_a   5.60178800
_cell_length_b   5.66269516
_cell_length_c   7.95260959
_cell_angle_alpha   90.31303636
_cell_angle_beta   90.03886910
_cell_angle_gamma   90.13688806
_symmetry_Int_Tables_number   1
_chemical_formula_structural   Sr4Co(IrO4)3
_chemical_formula_sum   'Sr4 Co1 Ir3 O12'
_cell_volume   252.26191568
_cell_formula_units_Z   1
loop_
 _symmetry_equiv_pos_site_id
 _symmetry_equiv_pos_as_xyz
  1  'x, y, z'
loop_
 _atom_site_type_symbol
 _atom_site_label
 _atom_site_symmetry_multiplicity
 _atom_site_fract_x
 _atom_site_fract_y
 _atom_site_fract_z
 _atom_site_occupancy
  Sr  Sr0  1  0.50407500  0.46375200  0.75880500  1
  Sr  Sr1  1  0.98752600  0.95829100  0.75994200  1
  Sr  Sr2  1  0.49592500  0.53624800  0.24119500  1
  Sr  Sr3  1  0.01247400  0.04170900  0.24005800  1
  Co  Co0  1  0.00000000  0.50000000  0.00000000  1
  Ir  Ir0  1  0.50000000  0.00000000  0.50000000  1
  Ir  Ir1  1  0.00000000  0.50000000  0.50000000  1
  Ir  Ir2  1  0.50000000  0.00000000  0.00000000  1
  O  O0  1  0.77700700  0.21202800  0.97223100  1
  O  O1  1  0.70061600  0.70171300  0.53642400  1
  O  O2  1  0.20285300  0.79554300  0.46102700  1
  O  O3  1  0.29130400  0.27861200  0.03351700  1
  O  O4  1  0.22299300  0.78797200  0.02776900  1
  O  O5  1  0.29938400  0.29828700  0.46357600  1
  O  O6  1  0.79714700  0.20445700  0.53897300  1
  O  O7  1  0.70869600  0.72138800  0.96648300  1
  O  O8  1  0.42325900  0.01569400  0.75046200  1
  O  O9  1  0.05684300  0.50835200  0.74181000  1
  O  O10  1  0.57674100  0.98430600  0.24953800  1
  O  O11  1  0.94315700  0.49164800  0.25819000  1
loop_
_geom_bond_atom_site_label_1
_geom_bond_atom_site_label_2
_geom_bond_distance
_geom_bond_site_symmetry_2
Co0 O0 2.062596 1_454
Co0 O4 2.062596 1_555
Co0 O3 2.078070 1_555
Co0 O7 2.078070 1_454
Co0 O11 2.078817 1_455
Co0 O9 2.078817 1_554
Ir0 O8 2.039481 1_555
Ir0 O10 2.039481 1_545
Ir0 O2 2.047785 1_545
Ir0 O6 2.047785 1_555
Ir0 O5 2.052782 1_555
Ir0 O1 2.052782 1_545
Ir1 O9 1.949292 1_555
Ir1 O11 1.949292 1_455
Ir1 O2 2.045782 1_555
Ir1 O6 2.045782 1_455
Ir1 O1 2.051202 1_455
Ir1 O5 2.051202 1_555
Ir2 O4 1.972985 1_545
Ir2 O0 1.972985 1_554
Ir2 O7 1.982810 1_544
Ir2 O3 1.982810 1_555
Ir2 O10 2.032685 1_545
Ir2 O8 2.032685 1_554
O0 Sr1 2.507925 1_545
O0 Sr3 2.689114 1_656
O0 Sr0 2.698807 1_555
O1 Sr0 2.485384 1_555
O1 Sr2 2.769880 1_555
O1 Sr1 2.794734 1_555
O2 Sr3 2.489947 1_565
O2 Sr2 2.809786 1_555
O2 Sr1 2.817874 1_455
O3 Sr2 2.476518 1_555
O3 Sr3 2.637197 1_555
O3 Sr0 2.704653 1_554
O4 Sr3 2.507925 1_565
O4 Sr1 2.689114 1_454
O4 Sr2 2.698807 1_555
O5 Sr2 2.485384 1_555
O5 Sr0 2.769880 1_555
O5 Sr3 2.794734 1_555
O6 Sr1 2.489947 1_545
O6 Sr0 2.809786 1_555
O6 Sr3 2.817874 1_655
O7 Sr0 2.476518 1_555
O7 Sr1 2.637197 1_555
O7 Sr2 2.704653 1_556
O8 Sr1 2.462922 1_445
O8 Sr0 2.576713 1_555
O9 Sr0 2.522204 1_555
O9 Sr1 2.581470 1_455
O10 Sr3 2.462922 1_665
O10 Sr2 2.576713 1_555
O11 Sr2 2.522204 1_555
O11 Sr3 2.581470 1_655
