# generated using pymatgen
data_Na4Zn3S5
_symmetry_space_group_name_H-M   'P 1'
_cell_length_a   3.93137100
_cell_length_b   13.18878400
_cell_length_c   18.87495200
_cell_angle_alpha   90.00000000
_cell_angle_beta   90.00000000
_cell_angle_gamma   90.00000000
_symmetry_Int_Tables_number   1
_chemical_formula_structural   Na4Zn3S5
_chemical_formula_sum   'Na16 Zn12 S20'
_cell_volume   978.66631675
_cell_formula_units_Z   4
loop_
 _symmetry_equiv_pos_site_id
 _symmetry_equiv_pos_as_xyz
  1  'x, y, z'
loop_
 _atom_site_type_symbol
 _atom_site_label
 _atom_site_symmetry_multiplicity
 _atom_site_fract_x
 _atom_site_fract_y
 _atom_site_fract_z
 _atom_site_occupancy
  Na  Na0  1  0.25000000  0.99767800  0.76480500  1
  Na  Na1  1  0.25000000  0.49767800  0.73519500  1
  Na  Na2  1  0.75000000  0.00232200  0.23519500  1
  Na  Na3  1  0.75000000  0.50232200  0.26480500  1
  Na  Na4  1  0.25000000  0.00746200  0.41719200  1
  Na  Na5  1  0.25000000  0.50746200  0.08280800  1
  Na  Na6  1  0.75000000  0.99253800  0.58280800  1
  Na  Na7  1  0.75000000  0.49253800  0.91719200  1
  Na  Na8  1  0.25000000  0.10942400  0.95058500  1
  Na  Na9  1  0.25000000  0.60942400  0.54941500  1
  Na  Na10  1  0.75000000  0.89057600  0.04941500  1
  Na  Na11  1  0.75000000  0.39057600  0.45058500  1
  Na  Na12  1  0.25000000  0.27322400  0.83375200  1
  Na  Na13  1  0.25000000  0.77322400  0.66624800  1
  Na  Na14  1  0.75000000  0.72677600  0.16624800  1
  Na  Na15  1  0.75000000  0.22677600  0.33375200  1
  Zn  Zn0  1  0.25000000  0.20932400  0.54100800  1
  Zn  Zn1  1  0.25000000  0.70932400  0.95899200  1
  Zn  Zn2  1  0.75000000  0.79067600  0.45899200  1
  Zn  Zn3  1  0.75000000  0.29067600  0.04100800  1
  Zn  Zn4  1  0.25000000  0.31927600  0.21698100  1
  Zn  Zn5  1  0.25000000  0.81927600  0.28301900  1
  Zn  Zn6  1  0.75000000  0.68072400  0.78301900  1
  Zn  Zn7  1  0.75000000  0.18072400  0.71698100  1
  Zn  Zn8  1  0.25000000  0.57589600  0.36879600  1
  Zn  Zn9  1  0.25000000  0.07589600  0.13120400  1
  Zn  Zn10  1  0.75000000  0.42410400  0.63120400  1
  Zn  Zn11  1  0.75000000  0.92410400  0.86879600  1
  S  S0  1  0.25000000  0.12506900  0.65325700  1
  S  S1  1  0.25000000  0.62506900  0.84674300  1
  S  S2  1  0.75000000  0.87493100  0.34674300  1
  S  S3  1  0.75000000  0.37493100  0.15325700  1
  S  S4  1  0.25000000  0.14826500  0.24522100  1
  S  S5  1  0.25000000  0.64826500  0.25477900  1
  S  S6  1  0.75000000  0.85173500  0.75477900  1
  S  S7  1  0.75000000  0.35173500  0.74522100  1
  S  S8  1  0.25000000  0.34265800  0.97741000  1
  S  S9  1  0.25000000  0.84265800  0.52259000  1
  S  S10  1  0.75000000  0.65734200  0.02259000  1
  S  S11  1  0.75000000  0.15734200  0.47741000  1
  S  S12  1  0.25000000  0.39307700  0.33848100  1
  S  S13  1  0.25000000  0.89307700  0.16151900  1
  S  S14  1  0.75000000  0.60692300  0.66151900  1
  S  S15  1  0.75000000  0.10692300  0.83848100  1
  S  S16  1  0.25000000  0.38831000  0.56332500  1
  S  S17  1  0.25000000  0.88831000  0.93667500  1
  S  S18  1  0.75000000  0.61169000  0.43667500  1
  S  S19  1  0.75000000  0.11169000  0.06332500  1
loop_
_geom_bond_atom_site_label_1
_geom_bond_atom_site_label_2
_geom_bond_distance
_geom_bond_site_symmetry_2
Na0 S0 2.693663 1_565
Na0 S6 2.757649 1_455
Na0 S6 2.757649 1_555
Na0 S15 2.806012 1_565
Na0 S15 2.806012 1_465
Na1 S1 2.693663 1_555
Na1 S7 2.757649 1_455
Na1 S7 2.757649 1_555
Na1 S14 2.806012 1_455
Na1 S14 2.806012 1_555
Na2 S2 2.693663 1_545
Na2 S4 2.757649 1_655
Na2 S4 2.757649 1_555
Na2 S13 2.806012 1_545
Na2 S13 2.806012 1_645
Na3 S3 2.693663 1_555
Na3 S5 2.757649 1_555
Na3 S5 2.757649 1_655
Na3 S12 2.806012 1_555
Na3 S12 2.806012 1_655
Na4 S9 2.946527 1_545
Na4 S2 2.947425 1_545
Na4 S2 2.947425 1_445
Na4 S11 3.010529 1_555
Na4 S11 3.010529 1_455
Na5 S8 2.946527 1_554
Na5 S3 2.947425 1_555
Na5 S3 2.947425 1_455
Na5 S10 3.010529 1_455
Na5 S10 3.010529 1_555
Na6 S11 2.946527 1_565
Na6 S0 2.947425 1_565
Na6 S0 2.947425 1_665
Na6 S9 3.010529 1_555
Na6 S9 3.010529 1_655
Na7 S10 2.946527 1_556
Na7 S1 2.947425 1_555
Na7 S1 2.947425 1_655
Na7 S8 3.010529 1_655
Na7 S8 3.010529 1_555
Na8 S15 2.888301 1_455
Na8 S15 2.888301 1_555
Na8 S19 2.897074 1_456
Na8 S19 2.897074 1_556
Na8 S17 2.928020 1_545
Na8 S8 3.117464 1_555
Na9 S14 2.888301 1_555
Na9 S14 2.888301 1_455
Na9 S18 2.897074 1_455
Na9 S18 2.897074 1_555
Na9 S16 2.928020 1_555
Na9 S9 3.117464 1_555
Na10 S13 2.888301 1_655
Na10 S13 2.888301 1_555
Na10 S17 2.897074 1_554
Na10 S17 2.897074 1_654
Na10 S19 2.928020 1_565
Na10 S10 3.117464 1_555
Na11 S12 2.888301 1_655
Na11 S12 2.888301 1_555
Na11 S16 2.897074 1_655
Na11 S16 2.897074 1_555
Na11 S18 2.928020 1_555
Na11 S11 3.117464 1_555
Na12 S7 2.780002 1_555
Na12 S7 2.780002 1_455
Na12 S8 2.861999 1_555
Na12 S15 2.946606 1_455
Na12 S15 2.946606 1_555
Na13 S6 2.780002 1_455
Na13 S6 2.780002 1_555
Na13 S9 2.861999 1_555
Na13 S14 2.946606 1_555
Na13 S14 2.946606 1_455
Na14 S5 2.780002 1_555
Na14 S5 2.780002 1_655
Na14 S10 2.861999 1_555
Na14 S13 2.946606 1_655
Na14 S13 2.946606 1_555
Na15 S4 2.780002 1_655
Na15 S4 2.780002 1_555
Na15 S11 2.861999 1_555
Na15 S12 2.946606 1_555
Na15 S12 2.946606 1_655
S0 Zn0 2.392421 1_555
S0 Zn7 2.418554 1_455
S0 Zn7 2.418554 1_555
S1 Zn1 2.392421 1_555
S1 Zn6 2.418554 1_555
S1 Zn6 2.418554 1_455
S2 Zn2 2.392421 1_555
S2 Zn5 2.418554 1_655
S2 Zn5 2.418554 1_555
S3 Zn3 2.392421 1_555
S3 Zn4 2.418554 1_555
S3 Zn4 2.418554 1_655
S4 Zn4 2.317557 1_555
S4 Zn9 2.354225 1_555
S5 Zn5 2.317557 1_555
S5 Zn8 2.354225 1_555
S6 Zn6 2.317557 1_555
S6 Zn11 2.354225 1_555
S7 Zn7 2.317557 1_555
S7 Zn10 2.354225 1_555
S8 Zn3 2.403106 1_456
S8 Zn3 2.403106 1_556
S9 Zn2 2.403106 1_455
S9 Zn2 2.403106 1_555
S10 Zn1 2.403106 1_654
S10 Zn1 2.403106 1_554
S11 Zn0 2.403106 1_655
S11 Zn0 2.403106 1_555
S12 Zn8 2.478124 1_555
S12 Zn4 2.491316 1_555
S13 Zn9 2.478124 1_565
S13 Zn5 2.491316 1_555
S14 Zn10 2.478124 1_555
S14 Zn6 2.491316 1_555
S15 Zn11 2.478124 1_545
S15 Zn7 2.491316 1_555
S16 Zn10 2.393384 1_555
S16 Zn10 2.393384 1_455
S16 Zn0 2.397896 1_555
S17 Zn11 2.393384 1_455
S17 Zn11 2.393384 1_555
S17 Zn1 2.397896 1_555
S18 Zn8 2.393384 1_655
S18 Zn8 2.393384 1_555
S18 Zn2 2.397896 1_555
S19 Zn9 2.393384 1_655
S19 Zn9 2.393384 1_555
S19 Zn3 2.397896 1_555
