# generated using pymatgen
data_Cs6Ho21Te34Cl
_symmetry_space_group_name_H-M   'P 1'
_cell_length_a   14.37974846
_cell_length_b   14.37974846
_cell_length_c   14.39221876
_cell_angle_alpha   65.71776136
_cell_angle_beta   65.71776136
_cell_angle_gamma   97.64974517
_symmetry_Int_Tables_number   1
_chemical_formula_structural   Cs6Ho21Te34Cl
_chemical_formula_sum   'Cs6 Ho21 Te34 Cl1'
_cell_volume   2303.32841692
_cell_formula_units_Z   1
loop_
 _symmetry_equiv_pos_site_id
 _symmetry_equiv_pos_as_xyz
  1  'x, y, z'
loop_
 _atom_site_type_symbol
 _atom_site_label
 _atom_site_symmetry_multiplicity
 _atom_site_fract_x
 _atom_site_fract_y
 _atom_site_fract_z
 _atom_site_occupancy
  Cs  Cs0  1  0.04208890  0.80624410  0.72203414  1
  Cs  Cs1  1  0.80624410  0.04208890  0.72203414  1
  Cs  Cs2  1  0.95791110  0.19375590  0.27796586  1
  Cs  Cs3  1  0.19375590  0.95791110  0.27796586  1
  Cs  Cs4  1  0.78129088  0.78129088  0.57417802  1
  Cs  Cs5  1  0.21870912  0.21870912  0.42582198  1
  Ho  Ho0  1  0.69950333  0.30049667  0.00000000  1
  Ho  Ho1  1  0.30049667  0.69950333  0.00000000  1
  Ho  Ho2  1  0.04574417  0.45757981  0.75041821  1
  Ho  Ho3  1  0.45757981  0.04574417  0.75041821  1
  Ho  Ho4  1  0.95425583  0.54242019  0.24958179  1
  Ho  Ho5  1  0.54242019  0.95425583  0.24958179  1
  Ho  Ho6  1  0.83070057  0.42719157  0.62203010  1
  Ho  Ho7  1  0.42719157  0.83070057  0.62203010  1
  Ho  Ho8  1  0.16929943  0.57280843  0.37796990  1
  Ho  Ho9  1  0.57280843  0.16929943  0.37796990  1
  Ho  Ho10  1  0.90226487  0.09773513  0.00000000  1
  Ho  Ho11  1  0.09773513  0.90226487  0.00000000  1
  Ho  Ho12  1  0.26637954  0.47042982  0.88968557  1
  Ho  Ho13  1  0.47042982  0.26637954  0.88968557  1
  Ho  Ho14  1  0.73362046  0.52957018  0.11031443  1
  Ho  Ho15  1  0.52957018  0.73362046  0.11031443  1
  Ho  Ho16  1  0.39822866  0.60177134  0.50000000  1
  Ho  Ho17  1  0.60177134  0.39822866  0.50000000  1
  Ho  Ho18  1  0.50000000  0.50000000  0.00000000  1
  Ho  Ho19  1  0.24450315  0.24450315  0.74899602  1
  Ho  Ho20  1  0.75549685  0.75549685  0.25100398  1
  Te  Te0  1  0.68946048  0.68946048  0.93168801  1
  Te  Te1  1  0.31053952  0.31053952  0.06831199  1
  Te  Te2  1  0.05937357  0.05937357  0.81160504  1
  Te  Te3  1  0.94062643  0.94062643  0.18839496  1
  Te  Te4  1  0.08731111  0.28832406  0.93283190  1
  Te  Te5  1  0.28832406  0.08731111  0.93283190  1
  Te  Te6  1  0.91268889  0.71167594  0.06716810  1
  Te  Te7  1  0.71167594  0.91268889  0.06716810  1
  Te  Te8  1  0.88682043  0.48568818  0.93777653  1
  Te  Te9  1  0.48568818  0.88682043  0.93777653  1
  Te  Te10  1  0.11317957  0.51431182  0.06222347  1
  Te  Te11  1  0.51431182  0.11317957  0.06222347  1
  Te  Te12  1  0.86517538  0.26512368  0.81229441  1
  Te  Te13  1  0.26512368  0.86517538  0.81229441  1
  Te  Te14  1  0.13482462  0.73487632  0.18770559  1
  Te  Te15  1  0.73487632  0.13482462  0.18770559  1
  Te  Te16  1  0.24067225  0.63671250  0.68935118  1
  Te  Te17  1  0.63671250  0.24067225  0.68935118  1
  Te  Te18  1  0.75932775  0.36328750  0.31064882  1
  Te  Te19  1  0.36328750  0.75932775  0.31064882  1
  Te  Te20  1  0.01256587  0.61745547  0.55828707  1
  Te  Te21  1  0.61745547  0.01256587  0.55828707  1
  Te  Te22  1  0.98743413  0.38254453  0.44171293  1
  Te  Te23  1  0.38254453  0.98743413  0.44171293  1
  Te  Te24  1  0.21199757  0.41546672  0.56267860  1
  Te  Te25  1  0.41546672  0.21199757  0.56267860  1
  Te  Te26  1  0.78800243  0.58453328  0.43732140  1
  Te  Te27  1  0.58453328  0.78800243  0.43732140  1
  Te  Te28  1  0.65855299  0.45975846  0.81226977  1
  Te  Te29  1  0.45975846  0.65855299  0.81226977  1
  Te  Te30  1  0.34144701  0.54024154  0.18773023  1
  Te  Te31  1  0.54024154  0.34144701  0.18773023  1
  Te  Te32  1  0.43266126  0.43266126  0.69091263  1
  Te  Te33  1  0.56733874  0.56733874  0.30908737  1
  Cl  Cl0  1  0.00000000  0.00000000  0.50000000  1
loop_
_geom_bond_atom_site_label_1
_geom_bond_atom_site_label_2
_geom_bond_distance
_geom_bond_site_symmetry_2
Cs0 Te8 3.957313 1_455
Cs0 Te16 4.001288 1_555
Cs0 Te6 4.019209 1_456
Cs0 Te13 4.037338 1_555
Cs0 Te0 4.314888 1_455
Cs0 Te23 4.329742 1_555
Cs0 Te2 4.342200 1_565
Cs0 Te20 4.345334 1_555
Cs1 Te9 3.957313 1_545
Cs1 Te17 4.001288 1_555
Cs1 Te7 4.019209 1_546
Cs1 Te12 4.037338 1_555
Cs1 Te0 4.314888 1_545
Cs1 Te22 4.329742 1_555
Cs1 Te2 4.342200 1_655
Cs1 Te21 4.345334 1_555
Cs2 Te10 3.957313 1_655
Cs2 Te18 4.001288 1_555
Cs2 Te4 4.019209 1_654
Cs2 Te15 4.037338 1_555
Cs2 Te1 4.314888 1_655
Cs2 Te21 4.329742 1_555
Cs2 Te3 4.342200 1_545
Cs2 Te22 4.345334 1_555
Cs3 Te11 3.957313 1_565
Cs3 Te19 4.001288 1_555
Cs3 Te5 4.019209 1_564
Cs3 Te14 4.037338 1_555
Cs3 Te1 4.314888 1_565
Cs3 Te20 4.329742 1_555
Cs3 Te3 4.342200 1_455
Cs3 Te23 4.345334 1_555
Cs4 Te29 4.007122 1_555
Cs4 Te28 4.007122 1_555
Cs4 Te26 4.048926 1_555
Cs4 Te27 4.048926 1_555
Cs4 Te0 4.280372 1_555
Cs4 Te21 4.308860 1_565
Cs4 Te20 4.308860 1_655
Cs4 Te3 4.359310 1_555
Cs5 Te30 4.007122 1_555
Cs5 Te31 4.007122 1_555
Cs5 Te25 4.048926 1_555
Cs5 Te24 4.048926 1_555
Cs5 Te1 4.280372 1_555
Cs5 Te23 4.308860 1_545
Cs5 Te22 4.308860 1_455
Cs5 Te2 4.359310 1_555
Ho0 Te11 3.048585 1_555
Ho0 Te8 3.048585 1_554
Ho0 Te12 3.064610 1_554
Ho0 Te15 3.064610 1_555
Ho0 Te31 3.077336 1_555
Ho0 Te28 3.077336 1_554
Ho1 Te10 3.048585 1_555
Ho1 Te9 3.048585 1_554
Ho1 Te13 3.064610 1_554
Ho1 Te14 3.064610 1_555
Ho1 Te29 3.077336 1_554
Ho1 Te30 3.077336 1_555
Ho2 Te8 2.954842 1_455
Ho2 Te20 3.050862 1_555
Ho2 Te12 3.058112 1_455
Ho2 Te16 3.074750 1_555
Ho2 Te4 3.097736 1_555
Ho2 Te24 3.130694 1_555
Ho3 Te9 2.954842 1_545
Ho3 Te21 3.050862 1_555
Ho3 Te13 3.058112 1_545
Ho3 Te17 3.074750 1_555
Ho3 Te5 3.097736 1_555
Ho3 Te25 3.130694 1_555
Ho4 Te10 2.954842 1_655
Ho4 Te22 3.050862 1_555
Ho4 Te14 3.058112 1_655
Ho4 Te18 3.074750 1_555
Ho4 Te6 3.097736 1_555
Ho4 Te26 3.130694 1_555
Ho5 Te11 2.954842 1_565
Ho5 Te23 3.050862 1_555
Ho5 Te15 3.058112 1_565
Ho5 Te19 3.074750 1_555
Ho5 Te7 3.097736 1_555
Ho5 Te27 3.130694 1_555
Ho6 Te22 3.028471 1_555
Ho6 Te20 3.037054 1_655
Ho6 Te26 3.054244 1_555
Ho6 Te12 3.057906 1_555
Ho6 Te17 3.092187 1_555
Ho6 Te28 3.103610 1_555
Ho7 Te23 3.028471 1_555
Ho7 Te21 3.037054 1_565
Ho7 Te27 3.054244 1_555
Ho7 Te13 3.057906 1_555
Ho7 Te16 3.092187 1_555
Ho7 Te29 3.103610 1_555
Ho8 Te20 3.028471 1_555
Ho8 Te22 3.037054 1_455
Ho8 Te24 3.054244 1_555
Ho8 Te14 3.057906 1_555
Ho8 Te19 3.092187 1_555
Ho8 Te30 3.103610 1_555
Ho9 Te21 3.028471 1_555
Ho9 Te23 3.037054 1_545
Ho9 Te25 3.054244 1_555
Ho9 Te15 3.057906 1_555
Ho9 Te18 3.092187 1_555
Ho9 Te31 3.103610 1_555
Ho10 Te2 3.046946 1_654
Ho10 Te3 3.046946 1_545
Ho10 Te4 3.047924 1_654
Ho10 Te7 3.047924 1_545
Ho10 Te12 3.091104 1_554
Ho10 Te15 3.091104 1_555
Ho11 Te2 3.046946 1_564
Ho11 Te3 3.046946 1_455
Ho11 Te5 3.047924 1_564
Ho11 Te6 3.047924 1_455
Ho11 Te13 3.091104 1_554
Ho11 Te14 3.091104 1_555
Ho12 Te10 2.928683 1_556
Ho12 Te1 3.027969 1_556
Ho12 Te29 3.043349 1_555
Ho12 Te4 3.070111 1_555
Ho12 Te16 3.099828 1_555
Ho12 Te32 3.192800 1_555
Ho13 Te11 2.928683 1_556
Ho13 Te1 3.027969 1_556
Ho13 Te28 3.043349 1_555
Ho13 Te5 3.070111 1_555
Ho13 Te17 3.099828 1_555
Ho13 Te32 3.192800 1_555
Ho14 Te8 2.928683 1_554
Ho14 Te0 3.027969 1_554
Ho14 Te31 3.043349 1_555
Ho14 Te6 3.070111 1_555
Ho14 Te18 3.099828 1_555
Ho14 Te33 3.192800 1_555
Ho15 Te9 2.928683 1_554
Ho15 Te0 3.027969 1_554
Ho15 Te30 3.043349 1_555
Ho15 Te7 3.070111 1_555
Ho15 Te19 3.099828 1_555
Ho15 Te33 3.192800 1_555
Ho16 Te19 3.027088 1_555
Ho16 Te16 3.027088 1_555
Ho16 Te27 3.045945 1_555
Ho16 Te24 3.045945 1_555
Ho16 Te33 3.106815 1_555
Ho16 Te32 3.106815 1_555
Ho17 Te18 3.027088 1_555
Ho17 Te17 3.027088 1_555
Ho17 Te26 3.045945 1_555
Ho17 Te25 3.045945 1_555
Ho17 Te33 3.106815 1_555
Ho17 Te32 3.106815 1_555
Ho18 Te29 3.066551 1_554
Ho18 Te28 3.066551 1_554
Ho18 Te30 3.066551 1_555
Ho18 Te31 3.066551 1_555
Ho18 Te1 3.070702 1_555
Ho18 Te0 3.070702 1_554
Ho19 Te2 3.025407 1_555
Ho19 Te4 3.055870 1_555
Ho19 Te5 3.055870 1_555
Ho19 Te25 3.060675 1_555
Ho19 Te24 3.060675 1_555
Ho19 Te32 3.109755 1_555
Ho20 Te3 3.025407 1_555
Ho20 Te7 3.055870 1_555
Ho20 Te6 3.055870 1_555
Ho20 Te26 3.060675 1_555
Ho20 Te27 3.060675 1_555
Ho20 Te33 3.109755 1_555
Cl0 Cs4 3.572865 1_445
Cl0 Cs5 3.572865 1_555
Cl0 Cs3 3.613524 1_545
Cl0 Cs2 3.613524 1_455
Cl0 Cs0 3.613524 1_545
Cl0 Cs1 3.613524 1_455
