# generated using pymatgen
data_CsYMg30O32
_symmetry_space_group_name_H-M   'P 1'
_cell_length_a   8.72205700
_cell_length_b   8.72205700
_cell_length_c   8.70480100
_cell_angle_alpha   90.00000000
_cell_angle_beta   90.00000000
_cell_angle_gamma   90.00000000
_symmetry_Int_Tables_number   1
_chemical_formula_structural   CsYMg30O32
_chemical_formula_sum   'Cs1 Y1 Mg30 O32'
_cell_volume   662.21145392
_cell_formula_units_Z   1
loop_
 _symmetry_equiv_pos_site_id
 _symmetry_equiv_pos_as_xyz
  1  'x, y, z'
loop_
 _atom_site_type_symbol
 _atom_site_label
 _atom_site_symmetry_multiplicity
 _atom_site_fract_x
 _atom_site_fract_y
 _atom_site_fract_z
 _atom_site_occupancy
  Cs  Cs0  1  0.50000000  0.50000000  0.00000000  1
  Y  Y0  1  0.00000000  0.00000000  0.00000000  1
  Mg  Mg0  1  0.50000000  0.00000000  0.00000000  1
  Mg  Mg1  1  0.00000000  0.50000000  0.00000000  1
  Mg  Mg2  1  0.00000000  0.00000000  0.50000000  1
  Mg  Mg3  1  0.50000000  0.00000000  0.50000000  1
  Mg  Mg4  1  0.00000000  0.50000000  0.50000000  1
  Mg  Mg5  1  0.50000000  0.50000000  0.50000000  1
  Mg  Mg6  1  0.25275000  0.25275000  0.00000000  1
  Mg  Mg7  1  0.74725000  0.25275000  0.00000000  1
  Mg  Mg8  1  0.25275000  0.74725000  0.00000000  1
  Mg  Mg9  1  0.74725000  0.74725000  0.00000000  1
  Mg  Mg10  1  0.25120700  0.25120700  0.50000000  1
  Mg  Mg11  1  0.74879300  0.25120700  0.50000000  1
  Mg  Mg12  1  0.25120700  0.74879300  0.50000000  1
  Mg  Mg13  1  0.74879300  0.74879300  0.50000000  1
  Mg  Mg14  1  0.25710900  0.00000000  0.25609900  1
  Mg  Mg15  1  0.74289100  0.00000000  0.25609900  1
  Mg  Mg16  1  0.24668700  0.50000000  0.25502400  1
  Mg  Mg17  1  0.75331300  0.50000000  0.25502400  1
  Mg  Mg18  1  0.25710900  0.00000000  0.74390100  1
  Mg  Mg19  1  0.74289100  0.00000000  0.74390100  1
  Mg  Mg20  1  0.24668700  0.50000000  0.74497600  1
  Mg  Mg21  1  0.75331300  0.50000000  0.74497600  1
  Mg  Mg22  1  0.00000000  0.25710900  0.25609900  1
  Mg  Mg23  1  0.50000000  0.24668700  0.25502400  1
  Mg  Mg24  1  0.00000000  0.74289100  0.25609900  1
  Mg  Mg25  1  0.50000000  0.75331300  0.25502400  1
  Mg  Mg26  1  0.00000000  0.25710900  0.74390100  1
  Mg  Mg27  1  0.50000000  0.24668700  0.74497600  1
  Mg  Mg28  1  0.00000000  0.74289100  0.74390100  1
  Mg  Mg29  1  0.50000000  0.75331300  0.74497600  1
  O  O0  1  0.00000000  0.00000000  0.25901100  1
  O  O1  1  0.50000000  0.00000000  0.25829400  1
  O  O2  1  0.00000000  0.50000000  0.25829400  1
  O  O3  1  0.50000000  0.50000000  0.28502500  1
  O  O4  1  0.00000000  0.00000000  0.74098900  1
  O  O5  1  0.50000000  0.00000000  0.74170600  1
  O  O6  1  0.00000000  0.50000000  0.74170600  1
  O  O7  1  0.50000000  0.50000000  0.71497500  1
  O  O8  1  0.24966500  0.24966500  0.24897700  1
  O  O9  1  0.75033500  0.24966500  0.24897700  1
  O  O10  1  0.24966500  0.75033500  0.24897700  1
  O  O11  1  0.75033500  0.75033500  0.24897700  1
  O  O12  1  0.24966500  0.24966500  0.75102300  1
  O  O13  1  0.75033500  0.24966500  0.75102300  1
  O  O14  1  0.24966500  0.75033500  0.75102300  1
  O  O15  1  0.75033500  0.75033500  0.75102300  1
  O  O16  1  0.25376800  0.00000000  0.00000000  1
  O  O17  1  0.74623200  0.00000000  0.00000000  1
  O  O18  1  0.21559100  0.50000000  0.00000000  1
  O  O19  1  0.78440900  0.50000000  0.00000000  1
  O  O20  1  0.24900000  0.00000000  0.50000000  1
  O  O21  1  0.75100000  0.00000000  0.50000000  1
  O  O22  1  0.24267500  0.50000000  0.50000000  1
  O  O23  1  0.75732500  0.50000000  0.50000000  1
  O  O24  1  0.00000000  0.25376800  0.00000000  1
  O  O25  1  0.50000000  0.21559100  0.00000000  1
  O  O26  1  0.00000000  0.74623200  0.00000000  1
  O  O27  1  0.50000000  0.78440900  0.00000000  1
  O  O28  1  0.00000000  0.24900000  0.50000000  1
  O  O29  1  0.50000000  0.24267500  0.50000000  1
  O  O30  1  0.00000000  0.75100000  0.50000000  1
  O  O31  1  0.50000000  0.75732500  0.50000000  1
loop_
_geom_bond_atom_site_label_1
_geom_bond_atom_site_label_2
_geom_bond_distance
_geom_bond_site_symmetry_2
Cs0 O25 2.480632 1_555
Cs0 O18 2.480632 1_555
Cs0 O27 2.480632 1_555
Cs0 O19 2.480632 1_555
Cs0 O7 2.481086 1_554
Cs0 O3 2.481086 1_555
Mg0 O27 1.880397 1_545
Mg0 O25 1.880397 1_555
Mg0 O16 2.147650 1_555
Mg0 O17 2.147650 1_555
Mg0 O1 2.248398 1_555
Mg0 O5 2.248398 1_554
Mg1 O19 1.880397 1_455
Mg1 O18 1.880397 1_555
Mg1 O24 2.147650 1_555
Mg1 O26 2.147650 1_555
Mg1 O2 2.248398 1_555
Mg1 O6 2.248398 1_554
Mg2 O0 2.097761 1_555
Mg2 O4 2.097761 1_555
Mg2 O21 2.171792 1_455
Mg2 O20 2.171792 1_555
Mg2 O30 2.171792 1_545
Mg2 O28 2.171792 1_555
Mg3 O5 2.104003 1_555
Mg3 O1 2.104003 1_555
Mg3 O31 2.116625 1_545
Mg3 O29 2.116625 1_555
Mg3 O20 2.189236 1_555
Mg3 O21 2.189236 1_555
Mg4 O2 2.104003 1_555
Mg4 O6 2.104003 1_555
Mg4 O23 2.116625 1_455
Mg4 O22 2.116625 1_555
Mg4 O28 2.189236 1_555
Mg4 O30 2.189236 1_555
Mg5 O3 1.871315 1_555
Mg5 O7 1.871315 1_555
Mg5 O31 2.244403 1_555
Mg5 O23 2.244403 1_555
Mg5 O22 2.244403 1_555
Mg5 O29 2.244403 1_555
Mg6 O8 2.167629 1_555
Mg6 O12 2.167629 1_554
Mg6 O25 2.180747 1_555
Mg6 O18 2.180747 1_555
Mg6 O24 2.204518 1_555
Mg6 O16 2.204518 1_555
Mg7 O9 2.167629 1_555
Mg7 O13 2.167629 1_554
Mg7 O25 2.180747 1_555
Mg7 O19 2.180747 1_555
Mg7 O24 2.204518 1_655
Mg7 O17 2.204518 1_555
Mg8 O14 2.167629 1_554
Mg8 O10 2.167629 1_555
Mg8 O18 2.180747 1_555
Mg8 O27 2.180747 1_555
Mg8 O26 2.204518 1_555
Mg8 O16 2.204518 1_565
Mg9 O15 2.167629 1_554
Mg9 O11 2.167629 1_555
Mg9 O19 2.180747 1_555
Mg9 O27 2.180747 1_555
Mg9 O26 2.204518 1_655
Mg9 O17 2.204518 1_565
Mg10 O22 2.171262 1_555
Mg10 O29 2.171262 1_555
Mg10 O12 2.185188 1_555
Mg10 O8 2.185188 1_555
Mg10 O20 2.191126 1_555
Mg10 O28 2.191126 1_555
Mg11 O23 2.171262 1_555
Mg11 O29 2.171262 1_555
Mg11 O13 2.185188 1_555
Mg11 O9 2.185188 1_555
Mg11 O28 2.191126 1_655
Mg11 O21 2.191126 1_555
Mg12 O31 2.171262 1_555
Mg12 O22 2.171262 1_555
Mg12 O10 2.185188 1_555
Mg12 O14 2.185188 1_555
Mg12 O20 2.191126 1_565
Mg12 O30 2.191126 1_555
Mg13 O23 2.171262 1_555
Mg13 O31 2.171262 1_555
Mg13 O11 2.185188 1_555
Mg13 O15 2.185188 1_555
Mg13 O30 2.191126 1_655
Mg13 O21 2.191126 1_565
Mg14 O1 2.118595 1_555
Mg14 O20 2.124287 1_555
Mg14 O8 2.179442 1_555
Mg14 O10 2.179442 1_545
Mg14 O16 2.229481 1_555
Mg14 O0 2.242663 1_555
Mg15 O1 2.118595 1_555
Mg15 O21 2.124287 1_555
Mg15 O9 2.179442 1_555
Mg15 O11 2.179442 1_545
Mg15 O17 2.229481 1_555
Mg15 O0 2.242663 1_655
Mg16 O22 2.132754 1_555
Mg16 O2 2.151806 1_555
Mg16 O8 2.184225 1_555
Mg16 O10 2.184225 1_555
Mg16 O3 2.224791 1_555
Mg16 O18 2.236440 1_555
Mg17 O23 2.132754 1_555
Mg17 O2 2.151806 1_655
Mg17 O11 2.184225 1_555
Mg17 O9 2.184225 1_555
Mg17 O3 2.224791 1_555
Mg17 O19 2.236440 1_555
Mg18 O5 2.118595 1_555
Mg18 O20 2.124287 1_555
Mg18 O12 2.179442 1_555
Mg18 O14 2.179442 1_545
Mg18 O16 2.229481 1_556
Mg18 O4 2.242663 1_555
Mg19 O5 2.118595 1_555
Mg19 O21 2.124287 1_555
Mg19 O13 2.179442 1_555
Mg19 O15 2.179442 1_545
Mg19 O17 2.229481 1_556
Mg19 O4 2.242663 1_655
Mg20 O22 2.132754 1_555
Mg20 O6 2.151806 1_555
Mg20 O14 2.184225 1_555
Mg20 O12 2.184225 1_555
Mg20 O7 2.224791 1_555
Mg20 O18 2.236440 1_556
Mg21 O23 2.132754 1_555
Mg21 O6 2.151806 1_655
Mg21 O15 2.184225 1_555
Mg21 O13 2.184225 1_555
Mg21 O7 2.224791 1_555
Mg21 O19 2.236440 1_556
Mg22 O2 2.118595 1_555
Mg22 O28 2.124287 1_555
Mg22 O8 2.179442 1_555
Mg22 O9 2.179442 1_455
Mg22 O24 2.229481 1_555
Mg22 O0 2.242663 1_555
Mg23 O29 2.132754 1_555
Mg23 O1 2.151806 1_555
Mg23 O8 2.184225 1_555
Mg23 O9 2.184225 1_555
Mg23 O3 2.224791 1_555
Mg23 O25 2.236440 1_555
Mg24 O2 2.118595 1_555
Mg24 O30 2.124287 1_555
Mg24 O10 2.179442 1_555
Mg24 O11 2.179442 1_455
Mg24 O26 2.229481 1_555
Mg24 O0 2.242663 1_565
Mg25 O31 2.132754 1_555
Mg25 O1 2.151806 1_565
Mg25 O11 2.184225 1_555
Mg25 O10 2.184225 1_555
Mg25 O3 2.224791 1_555
Mg25 O27 2.236440 1_555
Mg26 O6 2.118595 1_555
Mg26 O28 2.124287 1_555
Mg26 O12 2.179442 1_555
Mg26 O13 2.179442 1_455
Mg26 O24 2.229481 1_556
Mg26 O4 2.242663 1_555
Mg27 O29 2.132754 1_555
Mg27 O5 2.151806 1_555
Mg27 O13 2.184225 1_555
Mg27 O12 2.184225 1_555
Mg27 O7 2.224791 1_555
Mg27 O25 2.236440 1_556
Mg28 O6 2.118595 1_555
Mg28 O30 2.124287 1_555
Mg28 O14 2.179442 1_555
Mg28 O15 2.179442 1_455
Mg28 O26 2.229481 1_556
Mg28 O4 2.242663 1_565
Mg29 O31 2.132754 1_555
Mg29 O5 2.151806 1_565
Mg29 O14 2.184225 1_555
Mg29 O15 2.184225 1_555
Mg29 O7 2.224791 1_555
Mg29 O27 2.236440 1_556
O0 Y0 2.254639 1_555
O4 Y0 2.254639 1_556
O16 Y0 2.213379 1_555
O17 Y0 2.213379 1_655
O24 Y0 2.213379 1_555
O26 Y0 2.213379 1_565
