# generated using pymatgen
data_CsCrNiF6
_symmetry_space_group_name_H-M   'P 1'
_cell_length_a   7.40673614
_cell_length_b   7.40673614
_cell_length_c   7.40673614
_cell_angle_alpha   120.24063567
_cell_angle_beta   120.19243568
_cell_angle_gamma   89.62536170
_symmetry_Int_Tables_number   1
_chemical_formula_structural   CsCrNiF6
_chemical_formula_sum   'Cs2 Cr2 Ni2 F12'
_cell_volume   286.37276723
_cell_formula_units_Z   2
loop_
 _symmetry_equiv_pos_site_id
 _symmetry_equiv_pos_as_xyz
  1  'x, y, z'
loop_
 _atom_site_type_symbol
 _atom_site_label
 _atom_site_symmetry_multiplicity
 _atom_site_fract_x
 _atom_site_fract_y
 _atom_site_fract_z
 _atom_site_occupancy
  Cs  Cs0  1  0.87130500  0.12130500  0.75000000  1
  Cs  Cs1  1  0.12869500  0.87869500  0.25000000  1
  Cr  Cr0  1  0.50000000  0.50000000  0.00000000  1
  Cr  Cr1  1  0.00000000  0.50000000  0.50000000  1
  Ni  Ni0  1  0.50000000  0.50000000  0.50000000  1
  Ni  Ni1  1  0.50000000  0.00000000  0.00000000  1
  F  F0  1  0.81518200  0.56518200  0.25000000  1
  F  F1  1  0.42728400  0.17728400  0.25000000  1
  F  F2  1  0.82702100  0.18791200  0.25923900  1
  F  F3  1  0.42867300  0.56778300  0.24076100  1
  F  F4  1  0.82702100  0.56778300  0.63910900  1
  F  F5  1  0.42867300  0.18791200  0.86089100  1
  F  F6  1  0.18481800  0.43481800  0.75000000  1
  F  F7  1  0.57271600  0.82271600  0.75000000  1
  F  F8  1  0.17297900  0.81208800  0.74076100  1
  F  F9  1  0.57132700  0.43221700  0.75923900  1
  F  F10  1  0.17297900  0.43221700  0.36089100  1
  F  F11  1  0.57132700  0.81208800  0.13910900  1
loop_
_geom_bond_atom_site_label_1
_geom_bond_atom_site_label_2
_geom_bond_distance
_geom_bond_site_symmetry_2
Cs0 F7 3.137841 1_545
Cs0 F9 3.189311 1_555
Cs0 F10 3.189317 1_656
Cs0 F11 3.189317 1_545
Cs0 F8 3.189317 1_645
Cs0 F6 3.294676 1_655
Cs1 F1 3.137841 1_565
Cs1 F3 3.189311 1_555
Cs1 F4 3.189317 1_454
Cs1 F5 3.189317 1_565
Cs1 F2 3.189317 1_465
Cs1 F0 3.294676 1_455
Cr0 F9 1.937385 1_554
Cr0 F3 1.937385 1_555
Cr0 F11 1.937386 1_555
Cr0 F5 1.937386 1_554
Cr0 F0 1.969269 1_555
Cr0 F6 1.969269 1_554
Cr1 F4 1.937386 1_455
Cr1 F10 1.937386 1_555
Cr1 F8 1.937386 1_555
Cr1 F2 1.937386 1_455
Cr1 F6 1.969269 1_555
Cr1 F0 1.969269 1_455
F1 Ni0 1.996940 1_555
F1 Ni1 1.996940 1_555
F2 Ni1 2.040886 1_555
F3 Ni0 2.040891 1_555
F4 Ni0 2.040886 1_555
F5 Ni1 2.040886 1_556
F7 Ni0 1.996940 1_555
F7 Ni1 1.996940 1_566
F8 Ni1 2.040886 1_566
F9 Ni0 2.040891 1_555
F10 Ni0 2.040886 1_555
F11 Ni1 2.040886 1_565
