# generated using pymatgen
data_Ca3Ac
_symmetry_space_group_name_H-M   'P 1'
_cell_length_a   6.27603428
_cell_length_b   6.27603428
_cell_length_c   6.27603428
_cell_angle_alpha   60.00000000
_cell_angle_beta   60.00000000
_cell_angle_gamma   60.00000000
_symmetry_Int_Tables_number   1
_chemical_formula_structural   Ca3Ac
_chemical_formula_sum   'Ca3 Ac1'
_cell_volume   174.79979696
_cell_formula_units_Z   1
loop_
 _symmetry_equiv_pos_site_id
 _symmetry_equiv_pos_as_xyz
  1  'x, y, z'
loop_
 _atom_site_type_symbol
 _atom_site_label
 _atom_site_symmetry_multiplicity
 _atom_site_fract_x
 _atom_site_fract_y
 _atom_site_fract_z
 _atom_site_occupancy
  Ca  Ca0  1  0.25000000  0.25000000  0.25000000  1
  Ca  Ca1  1  0.75000000  0.75000000  0.75000000  1
  Ca  Ca2  1  0.50000000  0.50000000  0.50000000  1
  Ac  Ac0  1  -0.00000000  0.00000000  0.00000000  1
loop_
_geom_bond_atom_site_label_1
_geom_bond_atom_site_label_2
_geom_bond_distance
_geom_bond_site_symmetry_2
Ca0 Ca2 3.843270 1_554
Ca0 Ca2 3.843270 1_555
Ca0 Ca2 3.843270 1_545
Ca0 Ca2 3.843270 1_455
Ca1 Ca2 3.843270 1_555
Ca1 Ca2 3.843270 1_556
Ca1 Ca2 3.843270 1_565
Ca1 Ca2 3.843270 1_655
Ac0 Ca0 3.843270 1_555
Ac0 Ca1 3.843270 1_444
Ac0 Ca1 3.843270 1_445
Ac0 Ca0 3.843270 1_554
Ac0 Ca1 3.843270 1_454
Ac0 Ca0 3.843270 1_545
Ac0 Ca1 3.843270 1_544
Ac0 Ca0 3.843270 1_455
Ac0 Ca2 4.437826 1_545
Ac0 Ca2 4.437826 1_554
Ac0 Ca2 4.437826 1_455
Ac0 Ca2 4.437826 1_445
Ac0 Ca2 4.437826 1_454
Ac0 Ca2 4.437826 1_544
