# generated using pymatgen
data_Er3OF10
_symmetry_space_group_name_H-M   'P 1'
_cell_length_a   8.13271510
_cell_length_b   8.13271510
_cell_length_c   8.13271510
_cell_angle_alpha   60.00000000
_cell_angle_beta   60.00000000
_cell_angle_gamma   60.00000000
_symmetry_Int_Tables_number   1
_chemical_formula_structural   Er3OF10
_chemical_formula_sum   'Er6 O2 F20'
_cell_volume   380.35723256
_cell_formula_units_Z   2
loop_
 _symmetry_equiv_pos_site_id
 _symmetry_equiv_pos_as_xyz
  1  'x, y, z'
loop_
 _atom_site_type_symbol
 _atom_site_label
 _atom_site_symmetry_multiplicity
 _atom_site_fract_x
 _atom_site_fract_y
 _atom_site_fract_z
 _atom_site_occupancy
  Er  Er0  1  0.75948300  0.24051700  0.24051700  1
  Er  Er1  1  0.24051700  0.75948300  0.75948300  1
  Er  Er2  1  0.24051700  0.75948300  0.24051700  1
  Er  Er3  1  0.75948300  0.24051700  0.75948300  1
  Er  Er4  1  0.24051700  0.24051700  0.75948300  1
  Er  Er5  1  0.75948300  0.75948300  0.24051700  1
  O  O0  1  0.25000000  0.25000000  0.25000000  1
  O  O1  1  0.75000000  0.75000000  0.75000000  1
  F  F0  1  0.82836100  0.50000000  0.50000000  1
  F  F1  1  0.17163900  0.50000000  0.50000000  1
  F  F2  1  0.50000000  0.82836100  0.17163900  1
  F  F3  1  0.50000000  0.17163900  0.82836100  1
  F  F4  1  0.50000000  0.82836100  0.50000000  1
  F  F5  1  0.17163900  0.50000000  0.82836100  1
  F  F6  1  0.50000000  0.17163900  0.50000000  1
  F  F7  1  0.82836100  0.50000000  0.17163900  1
  F  F8  1  0.50000000  0.50000000  0.82836100  1
  F  F9  1  0.50000000  0.50000000  0.17163900  1
  F  F10  1  0.17163900  0.82836100  0.50000000  1
  F  F11  1  0.82836100  0.17163900  0.50000000  1
  F  F12  1  0.11289000  0.11289000  0.11289000  1
  F  F13  1  0.88711000  0.88711000  0.88711000  1
  F  F14  1  0.11289000  0.11289000  0.66132900  1
  F  F15  1  0.11289000  0.66132900  0.11289000  1
  F  F16  1  0.88711000  0.88711000  0.33867100  1
  F  F17  1  0.88711000  0.33867100  0.88711000  1
  F  F18  1  0.66132900  0.11289000  0.11289000  1
  F  F19  1  0.33867100  0.88711000  0.88711000  1
loop_
_geom_bond_atom_site_label_1
_geom_bond_atom_site_label_2
_geom_bond_distance
_geom_bond_site_symmetry_2
Er0 F11 2.183382 1_555
Er0 F6 2.183382 1_555
Er0 F9 2.183382 1_555
Er0 F7 2.183382 1_555
Er0 F16 2.350817 1_545
Er0 F17 2.350817 1_554
Er0 F12 2.350818 1_655
Er0 F18 2.350824 1_555
Er1 F4 2.183382 1_555
Er1 F8 2.183382 1_555
Er1 F5 2.183382 1_555
Er1 F10 2.183382 1_555
Er1 F14 2.350817 1_565
Er1 F15 2.350817 1_556
Er1 F13 2.350818 1_455
Er1 F19 2.350824 1_555
Er2 F2 2.183382 1_555
Er2 F9 2.183382 1_555
Er2 F1 2.183382 1_555
Er2 F10 2.183382 1_555
Er2 F16 2.350817 1_455
Er2 F19 2.350817 1_554
Er2 F12 2.350818 1_565
Er2 F15 2.350824 1_555
Er3 F11 2.183382 1_555
Er3 F8 2.183382 1_555
Er3 F3 2.183382 1_555
Er3 F0 2.183382 1_555
Er3 F14 2.350817 1_655
Er3 F18 2.350817 1_556
Er3 F13 2.350818 1_545
Er3 F17 2.350824 1_555
Er4 F5 2.183382 1_555
Er4 F6 2.183382 1_555
Er4 F3 2.183382 1_555
Er4 F1 2.183382 1_555
Er4 F17 2.350817 1_455
Er4 F19 2.350817 1_545
Er4 F12 2.350818 1_556
Er4 F14 2.350824 1_555
Er5 F4 2.183382 1_555
Er5 F2 2.183382 1_555
Er5 F0 2.183382 1_555
Er5 F7 2.183382 1_555
Er5 F18 2.350817 1_565
Er5 F15 2.350817 1_655
Er5 F13 2.350818 1_554
Er5 F16 2.350824 1_555
