# generated using pymatgen
data_Li2MgZrO4
_symmetry_space_group_name_H-M   'P 1'
_cell_length_a   5.43389882
_cell_length_b   5.43389882
_cell_length_c   5.43389882
_cell_angle_alpha   133.81690079
_cell_angle_beta   133.81690079
_cell_angle_gamma   67.37413244
_symmetry_Int_Tables_number   1
_chemical_formula_structural   Li2MgZrO4
_chemical_formula_sum   'Li2 Mg1 Zr1 O4'
_cell_volume   82.14436365
_cell_formula_units_Z   1
loop_
 _symmetry_equiv_pos_site_id
 _symmetry_equiv_pos_as_xyz
  1  'x, y, z'
loop_
 _atom_site_type_symbol
 _atom_site_label
 _atom_site_symmetry_multiplicity
 _atom_site_fract_x
 _atom_site_fract_y
 _atom_site_fract_z
 _atom_site_occupancy
  Li  Li0  1  0.50000000  0.50000000  0.00000000  1
  Li  Li1  1  0.75000000  0.25000000  0.50000000  1
  Mg  Mg0  1  0.25000000  0.75000000  0.50000000  1
  Zr  Zr0  1  0.00000000  0.00000000  0.00000000  1
  O  O0  1  0.76765900  0.76765900  0.00000000  1
  O  O1  1  0.01311200  0.51311200  0.50000000  1
  O  O2  1  0.48688800  0.98688800  0.50000000  1
  O  O3  1  0.23234100  0.23234100  0.00000000  1
loop_
_geom_bond_atom_site_label_1
_geom_bond_atom_site_label_2
_geom_bond_distance
_geom_bond_site_symmetry_2
Li0 O1 2.134479 1_655
Li0 O2 2.134479 1_555
Li0 O2 2.134479 1_544
Li0 O1 2.134479 1_554
Li0 O3 2.420406 1_555
Li0 O0 2.420406 1_555
Li1 O3 2.137157 1_656
Li1 O0 2.137157 1_545
Li1 O3 2.137157 1_555
Li1 O0 2.137157 1_556
Li1 O1 2.379288 1_655
Li1 O2 2.379288 1_545
Mg0 O3 2.137157 1_555
Mg0 O3 2.137157 1_566
Mg0 O0 2.137157 1_455
Mg0 O0 2.137157 1_556
Mg0 O2 2.142147 1_555
Mg0 O1 2.142147 1_555
O0 Zr0 2.101029 1_665
O1 Zr0 2.134479 1_566
O1 Zr0 2.134479 1_555
O2 Zr0 2.134479 1_565
O2 Zr0 2.134479 1_666
O3 Zr0 2.101029 1_555
