# generated using pymatgen
data_Li6Mn3CoO10
_symmetry_space_group_name_H-M   'P 1'
_cell_length_a   12.18838487
_cell_length_b   12.18838487
_cell_length_c   5.16084920
_cell_angle_alpha   87.76391943
_cell_angle_beta   87.76391943
_cell_angle_gamma   13.54452550
_symmetry_Int_Tables_number   1
_chemical_formula_structural   Li6Mn3CoO10
_chemical_formula_sum   'Li6 Mn3 Co1 O10'
_cell_volume   179.41825456
_cell_formula_units_Z   1
loop_
 _symmetry_equiv_pos_site_id
 _symmetry_equiv_pos_as_xyz
  1  'x, y, z'
loop_
 _atom_site_type_symbol
 _atom_site_label
 _atom_site_symmetry_multiplicity
 _atom_site_fract_x
 _atom_site_fract_y
 _atom_site_fract_z
 _atom_site_occupancy
  Li  Li0  1  0.50415000  0.50415000  0.50260200  1
  Li  Li1  1  0.10000600  0.10000600  0.30062100  1
  Li  Li2  1  0.69672000  0.69672000  0.09350400  1
  Li  Li3  1  0.29874100  0.29874100  0.90662500  1
  Li  Li4  1  0.89976300  0.89976300  0.69849500  1
  Li  Li5  1  0.60107900  0.60107900  0.79881500  1
  Mn  Mn0  1  0.00407300  0.00407300  0.97744400  1
  Mn  Mn1  1  0.19692200  0.19692200  0.61561600  1
  Mn  Mn2  1  0.39950400  0.39950400  0.19597500  1
  Co  Co0  1  0.79891400  0.79891400  0.41419000  1
  O  O0  1  0.45598400  0.45598400  0.85186100  1
  O  O1  1  0.04602700  0.04602700  0.67830900  1
  O  O2  1  0.65588800  0.65588800  0.45725800  1
  O  O3  1  0.25352200  0.25352200  0.29096800  1
  O  O4  1  0.85271700  0.85271700  0.06268200  1
  O  O5  1  0.54472100  0.54472100  0.13567000  1
  O  O6  1  0.15532500  0.15532500  0.91706000  1
  O  O7  1  0.74472500  0.74472500  0.74053000  1
  O  O8  1  0.34337000  0.34337000  0.54689700  1
  O  O9  1  0.94784900  0.94784900  0.31487800  1
loop_
_geom_bond_atom_site_label_1
_geom_bond_atom_site_label_2
_geom_bond_distance
_geom_bond_site_symmetry_2
Li0 O1 1.996979 1_565
Li0 O1 1.996979 1_655
Li0 O5 2.098662 1_555
Li0 O0 2.107884 1_555
Li0 O9 2.228354 1_545
Li0 O9 2.228354 1_455
Li1 O2 2.152921 1_455
Li1 O2 2.152921 1_545
Li1 O5 2.161247 1_545
Li1 O5 2.161247 1_455
Li1 O1 2.303594 1_555
Li1 O6 2.345908 1_554
Li2 O6 1.992683 1_564
Li2 O6 1.992683 1_654
Li2 O2 2.086940 1_555
Li2 O7 2.121883 1_554
Li2 O3 2.259435 1_655
Li2 O3 2.259435 1_565
Li3 O8 2.110944 1_555
Li3 O4 2.122335 1_456
Li3 O4 2.122335 1_546
Li3 O7 2.144376 1_455
Li3 O7 2.144376 1_545
Li3 O3 2.227544 1_556
Li4 O8 2.150655 1_655
Li4 O8 2.150655 1_565
Li4 O0 2.151522 1_565
Li4 O0 2.151522 1_655
Li4 O4 2.159005 1_556
Li4 O9 2.256851 1_555
Li5 O6 2.055591 1_655
Li5 O6 2.055591 1_565
Li5 O1 2.072103 1_655
Li5 O1 2.072103 1_565
Li5 O2 2.164178 1_555
Li5 O5 2.167260 1_556
Mn0 O1 1.814239 1_555
Mn0 O5 1.940083 1_456
Mn0 O5 1.940083 1_546
Mn0 O0 1.974899 1_545
Mn0 O0 1.974899 1_455
Mn0 O9 2.167648 1_446
Mn1 O6 1.819622 1_555
Mn1 O2 1.945292 1_545
Mn1 O2 1.945292 1_455
Mn1 O7 1.969524 1_545
Mn1 O7 1.969524 1_455
Mn1 O3 2.122250 1_555
Mn2 O9 1.966809 1_545
Mn2 O9 1.966809 1_455
Mn2 O4 1.970517 1_455
Mn2 O4 1.970517 1_545
Mn2 O0 2.198252 1_554
Mn2 O8 2.221019 1_555
Co0 O3 1.931960 1_565
Co0 O3 1.931960 1_655
Co0 O8 1.936712 1_565
Co0 O8 1.936712 1_655
Co0 O7 2.093692 1_555
Co0 O4 2.191221 1_555
