# generated using pymatgen
data_YFe11Mo
_symmetry_space_group_name_H-M   'P 1'
_cell_length_a   4.69396100
_cell_length_b   6.45070390
_cell_length_c   6.45070390
_cell_angle_alpha   97.89741854
_cell_angle_beta   111.33579117
_cell_angle_gamma   68.66420883
_symmetry_Int_Tables_number   1
_chemical_formula_structural   YFe11Mo
_chemical_formula_sum   'Y1 Fe11 Mo1'
_cell_volume   169.46447832
_cell_formula_units_Z   1
loop_
 _symmetry_equiv_pos_site_id
 _symmetry_equiv_pos_as_xyz
  1  'x, y, z'
loop_
 _atom_site_type_symbol
 _atom_site_label
 _atom_site_symmetry_multiplicity
 _atom_site_fract_x
 _atom_site_fract_y
 _atom_site_fract_z
 _atom_site_occupancy
  Y  Y0  1  0.00633200  0.99366800  0.00633200  1
  Fe  Fe0  1  0.50062800  0.99782200  0.49991300  1
  Fe  Fe1  1  0.00146300  0.99782200  0.49991300  1
  Fe  Fe2  1  0.50062800  0.50008700  0.00217800  1
  Fe  Fe3  1  0.00146300  0.50008700  0.00217800  1
  Fe  Fe4  1  0.72901700  0.77098300  0.22901700  1
  Fe  Fe5  1  0.27302200  0.22697800  0.77302200  1
  Fe  Fe6  1  0.49837600  0.77891600  0.77566900  1
  Fe  Fe7  1  0.49837600  0.22433100  0.22108400  1
  Fe  Fe8  1  0.35872300  0.64127700  0.35872300  1
  Fe  Fe9  1  0.99925300  0.35943700  0.35794300  1
  Fe  Fe10  1  0.99925300  0.64205700  0.64056300  1
  Mo  Mo0  1  0.63346500  0.36653500  0.63346500  1
loop_
_geom_bond_atom_site_label_1
_geom_bond_atom_site_label_2
_geom_bond_distance
_geom_bond_site_symmetry_2
Fe0 Fe1 2.343061 1_555
Fe0 Fe1 2.350900 1_655
Fe0 Fe4 2.421391 1_555
Fe0 Fe6 2.423456 1_555
Fe0 Fe5 2.436200 1_565
Fe0 Fe7 2.463186 1_565
Fe0 Fe8 2.580841 1_555
Fe0 Fe10 2.585801 1_555
Fe0 Fe9 2.615854 1_465
Fe0 Mo0 2.629305 1_565
Fe0 Y0 3.188700 1_555
Fe0 Y0 3.262244 1_656
Fe1 Fe4 2.421391 1_455
Fe1 Fe6 2.423454 1_555
Fe1 Fe5 2.436200 1_565
Fe1 Fe7 2.463189 1_465
Fe1 Fe8 2.580841 1_555
Fe1 Fe10 2.585800 1_455
Fe1 Fe9 2.615854 1_465
Fe1 Mo0 2.629305 1_465
Fe1 Y0 3.188700 1_555
Fe1 Y0 3.262244 1_556
Fe2 Fe3 2.343061 1_555
Fe2 Fe3 2.350900 1_655
Fe2 Fe4 2.421391 1_555
Fe2 Fe7 2.423456 1_555
Fe2 Fe5 2.436200 1_554
Fe2 Fe6 2.463186 1_554
Fe2 Fe8 2.580841 1_555
Fe2 Fe9 2.585801 1_555
Fe2 Mo0 2.629305 1_554
Fe2 Y0 3.188700 1_555
Fe2 Y0 3.262244 1_645
Fe3 Fe4 2.421391 1_455
Fe3 Fe7 2.423454 1_555
Fe3 Fe5 2.436200 1_554
Fe3 Fe6 2.463189 1_454
Fe3 Fe8 2.580841 1_555
Fe3 Fe9 2.585800 1_455
Fe3 Mo0 2.629305 1_454
Fe3 Y0 3.188700 1_555
Fe3 Y0 3.262244 1_545
Fe4 Fe8 2.594249 1_555
Fe4 Fe8 2.594250 1_655
Fe4 Fe9 2.595594 1_555
Fe4 Fe7 2.724680 1_565
Fe4 Fe6 2.724680 1_554
Fe4 Y0 3.018224 1_655
Fe4 Y0 3.018225 1_555
Fe5 Fe9 2.622345 1_455
Fe5 Mo0 2.631115 1_555
Fe5 Mo0 2.631116 1_455
Fe5 Fe6 2.692364 1_545
Fe5 Fe7 2.692364 1_556
Fe5 Y0 3.075962 1_546
Fe5 Y0 3.075962 1_646
Fe6 Mo0 2.616334 1_555
Fe6 Fe8 2.633684 1_555
Fe6 Y0 3.012226 1_556
Fe6 Y0 3.012230 1_656
Fe7 Fe9 2.614540 1_455
Fe7 Fe9 2.614544 1_555
Fe7 Mo0 2.616334 1_555
Fe7 Fe8 2.633684 1_555
Fe7 Y0 3.012226 1_545
Fe7 Y0 3.012230 1_645
Fe8 Mo0 2.341356 1_555
Fe8 Fe9 2.894143 1_455
Fe8 Fe9 2.894144 1_555
Fe8 Y0 3.003082 1_555
Fe9 Mo0 2.872282 1_555
Fe9 Mo0 2.872282 1_655
Fe9 Y0 3.039707 1_645
Fe10 Fe9 2.394582 1_555
Fe10 Fe4 2.595594 1_555
Fe10 Fe6 2.614540 1_655
Fe10 Fe6 2.614544 1_555
Fe10 Fe3 2.615854 1_656
Fe10 Fe2 2.615854 1_656
Fe10 Fe5 2.622345 1_655
Fe10 Mo0 2.872282 1_555
Fe10 Mo0 2.872282 1_655
Fe10 Fe8 2.894143 1_655
Fe10 Fe8 2.894144 1_555
Fe10 Y0 3.039707 1_656
Mo0 Y0 3.177579 1_646
