# generated using pymatgen
data_CaB6(HO4)3
_symmetry_space_group_name_H-M   'P 1'
_cell_length_a   16.52823400
_cell_length_b   6.58623800
_cell_length_c   12.79098667
_cell_angle_alpha   59.85176508
_cell_angle_beta   90.00000000
_cell_angle_gamma   90.00000000
_symmetry_Int_Tables_number   1
_chemical_formula_structural   CaB6(HO4)3
_chemical_formula_sum   'Ca4 B24 H12 O48'
_cell_volume   1204.05936439
_cell_formula_units_Z   4
loop_
 _symmetry_equiv_pos_site_id
 _symmetry_equiv_pos_as_xyz
  1  'x, y, z'
loop_
 _atom_site_type_symbol
 _atom_site_label
 _atom_site_symmetry_multiplicity
 _atom_site_fract_x
 _atom_site_fract_y
 _atom_site_fract_z
 _atom_site_occupancy
  Ca  Ca0  1  0.74435300  0.30421400  0.30538800  1
  Ca  Ca1  1  0.25564700  0.69578600  0.69461200  1
  Ca  Ca2  1  0.24435300  0.69578600  0.19461200  1
  Ca  Ca3  1  0.75564700  0.30421400  0.80538800  1
  B  B0  1  0.56389000  0.40485300  0.26603900  1
  B  B1  1  0.43611000  0.59514700  0.73396100  1
  B  B2  1  0.06389000  0.59514700  0.23396100  1
  B  B3  1  0.93611000  0.40485300  0.76603900  1
  B  B4  1  0.43959800  0.81300800  0.41738400  1
  B  B5  1  0.56040200  0.18699200  0.58261600  1
  B  B6  1  0.93959800  0.18699200  0.08261600  1
  B  B7  1  0.06040200  0.81300800  0.91738400  1
  B  B8  1  0.76131200  0.68723000  0.37044300  1
  B  B9  1  0.23868800  0.31277000  0.62955700  1
  B  B10  1  0.26131200  0.31277000  0.12955700  1
  B  B11  1  0.73868800  0.68723000  0.87044300  1
  B  B12  1  0.77597600  0.78648300  0.02245700  1
  B  B13  1  0.22402400  0.21351700  0.97754300  1
  B  B14  1  0.27597600  0.21351700  0.47754300  1
  B  B15  1  0.72402400  0.78648300  0.52245700  1
  B  B16  1  0.81033100  0.39079200  0.05710500  1
  B  B17  1  0.18966900  0.60920800  0.94289500  1
  B  B18  1  0.31033100  0.60920800  0.44289500  1
  B  B19  1  0.68966900  0.39079200  0.55710500  1
  B  B20  1  0.81394000  0.95323600  0.15598500  1
  B  B21  1  0.18606000  0.04676400  0.84401500  1
  B  B22  1  0.31394000  0.04676400  0.34401500  1
  B  B23  1  0.68606000  0.95323600  0.65598500  1
  H  H0  1  0.95210200  0.74925300  0.41283100  1
  H  H1  1  0.04789800  0.25074700  0.58716900  1
  H  H2  1  0.45210200  0.25074700  0.08716900  1
  H  H3  1  0.54789800  0.74925300  0.91283100  1
  H  H4  1  0.39767700  0.79632800  0.13170300  1
  H  H5  1  0.60232300  0.20367200  0.86829700  1
  H  H6  1  0.89767700  0.20367200  0.36829700  1
  H  H7  1  0.10232300  0.79632800  0.63170300  1
  H  H8  1  0.11051400  0.94287000  0.37811200  1
  H  H9  1  0.88948600  0.05713000  0.62188800  1
  H  H10  1  0.61051400  0.05713000  0.12188800  1
  H  H11  1  0.38948600  0.94287000  0.87811200  1
  O  O0  1  0.79520300  0.55735800  0.10063700  1
  O  O1  1  0.20479700  0.44264200  0.89936300  1
  O  O2  1  0.29520300  0.44264200  0.39936300  1
  O  O3  1  0.70479700  0.55735800  0.60063700  1
  O  O4  1  0.79049100  0.73331400  0.26199400  1
  O  O5  1  0.20950900  0.26668600  0.73800600  1
  O  O6  1  0.29049100  0.26668600  0.23800600  1
  O  O7  1  0.70950900  0.73331400  0.76199400  1
  O  O8  1  0.28708500  0.83812800  0.34067400  1
  O  O9  1  0.71291500  0.16187200  0.65932600  1
  O  O10  1  0.78708500  0.16187200  0.15932600  1
  O  O11  1  0.21291500  0.83812800  0.84067400  1
  O  O12  1  0.75395700  0.85497200  0.40616300  1
  O  O13  1  0.24604300  0.14502800  0.59383700  1
  O  O14  1  0.25395700  0.14502800  0.09383700  1
  O  O15  1  0.74604300  0.85497200  0.90616300  1
  O  O16  1  0.52311900  0.81586900  0.42670300  1
  O  O17  1  0.47688100  0.18413100  0.57329700  1
  O  O18  1  0.02311900  0.18413100  0.07329700  1
  O  O19  1  0.97688100  0.81586900  0.92670300  1
  O  O20  1  0.10561100  0.80326100  0.18857700  1
  O  O21  1  0.89438900  0.19673900  0.81142300  1
  O  O22  1  0.60561100  0.19673900  0.31142300  1
  O  O23  1  0.39438900  0.80326100  0.68857700  1
  O  O24  1  0.98509400  0.54121300  0.23641400  1
  O  O25  1  0.01490600  0.45878700  0.76358600  1
  O  O26  1  0.48509400  0.45878700  0.26358600  1
  O  O27  1  0.51490600  0.54121300  0.73641400  1
  O  O28  1  0.89673100  0.39076400  0.02706000  1
  O  O29  1  0.10326900  0.60923600  0.97294000  1
  O  O30  1  0.39673100  0.60923600  0.47294000  1
  O  O31  1  0.60326900  0.39076400  0.52706000  1
  O  O32  1  0.73802200  0.45813000  0.44637900  1
  O  O33  1  0.26197800  0.54187000  0.55362100  1
  O  O34  1  0.23802200  0.54187000  0.05362100  1
  O  O35  1  0.76197800  0.45813000  0.94637900  1
  O  O36  1  0.78198400  0.96559700  0.04512000  1
  O  O37  1  0.21801600  0.03440300  0.95488000  1
  O  O38  1  0.28198400  0.03440300  0.45488000  1
  O  O39  1  0.71801600  0.96559700  0.54512000  1
  O  O40  1  0.62494600  0.56903000  0.21068200  1
  O  O41  1  0.37505400  0.43097000  0.78931800  1
  O  O42  1  0.12494600  0.43097000  0.28931800  1
  O  O43  1  0.87505400  0.56903000  0.71068200  1
  O  O44  1  0.90488700  0.96800700  0.15063100  1
  O  O45  1  0.09511300  0.03199300  0.84936900  1
  O  O46  1  0.40488700  0.03199300  0.34936900  1
  O  O47  1  0.59511300  0.96800700  0.65063100  1
loop_
_geom_bond_atom_site_label_1
_geom_bond_atom_site_label_2
_geom_bond_distance
_geom_bond_site_symmetry_2
Ca0 O22 2.389710 1_555
Ca0 O0 2.441121 1_555
Ca0 O32 2.475329 1_555
Ca0 O40 2.506439 1_555
Ca0 O12 2.571052 1_545
Ca0 O10 2.574403 1_555
Ca0 H6 2.640606 1_555
Ca0 O4 2.702050 1_555
Ca0 O39 2.774317 1_545
Ca1 O23 2.389710 1_555
Ca1 O1 2.441121 1_555
Ca1 O33 2.475329 1_555
Ca1 O41 2.506439 1_555
Ca1 O13 2.571052 1_565
Ca1 O11 2.574403 1_555
Ca1 H7 2.640606 1_555
Ca1 O5 2.702050 1_555
Ca1 O38 2.774317 1_565
Ca2 O20 2.389710 1_555
Ca2 O2 2.441121 1_555
Ca2 O34 2.475329 1_555
Ca2 O42 2.506439 1_555
Ca2 O14 2.571052 1_565
Ca2 O8 2.574403 1_555
Ca2 H4 2.640606 1_555
Ca2 O6 2.702050 1_555
Ca2 O37 2.774317 1_564
Ca3 O21 2.389710 1_555
Ca3 O3 2.441121 1_555
Ca3 O35 2.475329 1_555
Ca3 O43 2.506439 1_555
Ca3 O15 2.571052 1_545
Ca3 O9 2.574403 1_555
Ca3 H5 2.640606 1_555
Ca3 O7 2.702050 1_555
Ca3 O36 2.774317 1_546
B0 O26 1.346146 1_555
B0 O22 1.375511 1_555
B0 O40 1.385605 1_555
B1 O27 1.346146 1_555
B1 O23 1.375511 1_555
B1 O41 1.385605 1_555
B2 O24 1.346146 1_455
B2 O20 1.375511 1_555
B2 O42 1.385605 1_555
B3 O25 1.346146 1_655
B3 O21 1.375511 1_555
B3 O43 1.385605 1_555
B4 O30 1.360219 1_555
B4 O46 1.380515 1_565
B4 O16 1.386533 1_555
B5 O31 1.360219 1_555
B5 O47 1.380515 1_545
B5 O17 1.386533 1_555
B6 O28 1.360219 1_555
B6 O44 1.380515 1_545
B6 O18 1.386533 1_655
B7 O29 1.360219 1_555
B7 O45 1.380515 1_565
B7 O19 1.386533 1_455
B8 O4 1.351309 1_555
B8 O32 1.377040 1_555
B8 O12 1.396825 1_555
B9 O5 1.351309 1_555
B9 O33 1.377040 1_555
B9 O13 1.396825 1_555
B10 O6 1.351309 1_555
B10 O34 1.377040 1_555
B10 O14 1.396825 1_555
B11 O7 1.351309 1_555
B11 O35 1.377040 1_555
B11 O15 1.396825 1_555
B12 O36 1.352426 1_555
B12 O0 1.364719 1_555
B12 O15 1.409591 1_554
B13 O37 1.352426 1_555
B13 O1 1.364719 1_555
B13 O14 1.409591 1_556
B14 O38 1.352426 1_555
B14 O2 1.364719 1_555
B14 O13 1.409591 1_555
B15 O39 1.352426 1_555
B15 O3 1.364719 1_555
B15 O12 1.409591 1_555
B16 O10 1.466369 1_555
B16 O28 1.478871 1_555
B16 O0 1.479749 1_555
B16 O35 1.486723 1_554
B17 O11 1.466369 1_555
B17 O29 1.478871 1_555
B17 O1 1.479749 1_555
B17 O34 1.486723 1_556
B18 O8 1.466369 1_555
B18 O30 1.478871 1_555
B18 O2 1.479749 1_555
B18 O33 1.486723 1_555
B19 O9 1.466369 1_555
B19 O31 1.478871 1_555
B19 O3 1.479749 1_555
B19 O32 1.486723 1_555
B20 O4 1.453968 1_555
B20 O10 1.464941 1_565
B20 O36 1.476673 1_555
B20 O44 1.505673 1_555
B21 O5 1.453968 1_555
B21 O11 1.464941 1_545
B21 O37 1.476673 1_555
B21 O45 1.505673 1_555
B22 O6 1.453968 1_555
B22 O8 1.464941 1_545
B22 O38 1.476673 1_555
B22 O46 1.505673 1_555
B23 O7 1.453968 1_555
B23 O9 1.464941 1_565
B23 O39 1.476673 1_555
B23 O47 1.505673 1_555
