# generated using pymatgen
data_TiAlVC
_symmetry_space_group_name_H-M   'P 1'
_cell_length_a   5.99061185
_cell_length_b   5.99061185
_cell_length_c   26.82741000
_cell_angle_alpha   90.00000000
_cell_angle_beta   90.00000000
_cell_angle_gamma   119.99999831
_symmetry_Int_Tables_number   1
_chemical_formula_structural   TiAlVC
_chemical_formula_sum   'Ti16 Al16 V16 C16'
_cell_volume   833.78052666
_cell_formula_units_Z   16
loop_
 _symmetry_equiv_pos_site_id
 _symmetry_equiv_pos_as_xyz
  1  'x, y, z'
loop_
 _atom_site_type_symbol
 _atom_site_label
 _atom_site_symmetry_multiplicity
 _atom_site_fract_x
 _atom_site_fract_y
 _atom_site_fract_z
 _atom_site_occupancy
  Ti  Ti0_0  1  0.33333350  0.16666650  0.20615400  1
  Ti  Ti0_1  1  0.33333350  0.16666650  0.70615400  1
  Ti  Ti0_2  1  0.33333350  0.66666650  0.20615400  1
  Ti  Ti0_3  1  0.33333350  0.66666650  0.70615400  1
  Ti  Ti0_4  1  0.83333350  0.16666650  0.20615400  1
  Ti  Ti0_5  1  0.83333350  0.16666650  0.70615400  1
  Ti  Ti0_6  1  0.83333350  0.66666650  0.20615400  1
  Ti  Ti0_7  1  0.83333350  0.66666650  0.70615400  1
  Ti  Ti1_0  1  0.16666650  0.33333350  0.29384600  1
  Ti  Ti1_1  1  0.16666650  0.33333350  0.79384600  1
  Ti  Ti1_2  1  0.16666650  0.83333350  0.29384600  1
  Ti  Ti1_3  1  0.16666650  0.83333350  0.79384600  1
  Ti  Ti1_4  1  0.66666650  0.33333350  0.29384600  1
  Ti  Ti1_5  1  0.66666650  0.33333350  0.79384600  1
  Ti  Ti1_6  1  0.66666650  0.83333350  0.29384600  1
  Ti  Ti1_7  1  0.66666650  0.83333350  0.79384600  1
  Al  Al0_0  1  0.33333350  0.16666650  0.37932350  1
  Al  Al0_1  1  0.33333350  0.16666650  0.87932350  1
  Al  Al0_2  1  0.33333350  0.66666650  0.37932350  1
  Al  Al0_3  1  0.33333350  0.66666650  0.87932350  1
  Al  Al0_4  1  0.83333350  0.16666650  0.37932350  1
  Al  Al0_5  1  0.83333350  0.16666650  0.87932350  1
  Al  Al0_6  1  0.83333350  0.66666650  0.37932350  1
  Al  Al0_7  1  0.83333350  0.66666650  0.87932350  1
  Al  Al1_0  1  0.16666650  0.33333350  0.12067650  1
  Al  Al1_1  1  0.16666650  0.33333350  0.62067650  1
  Al  Al1_2  1  0.16666650  0.83333350  0.12067650  1
  Al  Al1_3  1  0.16666650  0.83333350  0.62067650  1
  Al  Al1_4  1  0.66666650  0.33333350  0.12067650  1
  Al  Al1_5  1  0.66666650  0.33333350  0.62067650  1
  Al  Al1_6  1  0.66666650  0.83333350  0.12067650  1
  Al  Al1_7  1  0.66666650  0.83333350  0.62067650  1
  V  V0_0  1  0.16666650  0.33333350  0.45956350  1
  V  V0_1  1  0.16666650  0.33333350  0.95956350  1
  V  V0_2  1  0.16666650  0.83333350  0.45956350  1
  V  V0_3  1  0.16666650  0.83333350  0.95956350  1
  V  V0_4  1  0.66666650  0.33333350  0.45956350  1
  V  V0_5  1  0.66666650  0.33333350  0.95956350  1
  V  V0_6  1  0.66666650  0.83333350  0.45956350  1
  V  V0_7  1  0.66666650  0.83333350  0.95956350  1
  V  V1_0  1  0.33333350  0.16666650  0.04043650  1
  V  V1_1  1  0.33333350  0.16666650  0.54043650  1
  V  V1_2  1  0.33333350  0.66666650  0.04043650  1
  V  V1_3  1  0.33333350  0.66666650  0.54043650  1
  V  V1_4  1  0.83333350  0.16666650  0.04043650  1
  V  V1_5  1  0.83333350  0.16666650  0.54043650  1
  V  V1_6  1  0.83333350  0.66666650  0.04043650  1
  V  V1_7  1  0.83333350  0.66666650  0.54043650  1
  C  C0_0  1  0.00000000  0.00000000  0.25000000  1
  C  C0_1  1  0.00000000  0.00000000  0.75000000  1
  C  C0_2  1  0.00000000  0.50000000  0.25000000  1
  C  C0_3  1  0.00000000  0.50000000  0.75000000  1
  C  C0_4  1  0.50000000  0.00000000  0.25000000  1
  C  C0_5  1  0.50000000  0.00000000  0.75000000  1
  C  C0_6  1  0.50000000  0.50000000  0.25000000  1
  C  C0_7  1  0.50000000  0.50000000  0.75000000  1
  C  C1_0  1  0.00000000  0.00000000  0.00000000  1
  C  C1_1  1  0.00000000  0.00000000  0.50000000  1
  C  C1_2  1  0.00000000  0.50000000  0.00000000  1
  C  C1_3  1  0.00000000  0.50000000  0.50000000  1
  C  C1_4  1  0.50000000  0.00000000  0.00000000  1
  C  C1_5  1  0.50000000  0.00000000  0.50000000  1
  C  C1_6  1  0.50000000  0.50000000  0.00000000  1
  C  C1_7  1  0.50000000  0.50000000  0.50000000  1
loop_
_geom_bond_atom_site_label_1
_geom_bond_atom_site_label_2
_geom_bond_distance
_geom_bond_site_symmetry_2
Al0_0 V0_4 2.761238 1_555
Al0_0 V0_2 2.761238 1_545
Al0_0 V0_0 2.761241 1_555
Al0_0 Ti1_4 2.872125 1_555
Al0_0 Ti1_2 2.872125 1_545
Al0_0 Ti1_0 2.872128 1_555
Al0_0 Al0_4 2.995306 1_555
Al0_0 Al0_2 2.995306 1_545
Al0_0 Al0_2 2.995306 1_555
Al0_0 Al0_4 2.995306 1_455
Al0_0 Al0_6 2.995306 1_445
Al0_0 Al0_6 2.995306 1_555
Al0_1 V0_5 2.761238 1_555
Al0_1 V0_3 2.761238 1_545
Al0_1 V0_1 2.761241 1_555
Al0_1 Ti1_3 2.872125 1_545
Al0_1 Ti1_5 2.872125 1_555
Al0_1 Ti1_1 2.872128 1_555
Al0_1 Al0_3 2.995306 1_545
Al0_1 Al0_5 2.995306 1_555
Al0_1 Al0_3 2.995306 1_555
Al0_1 Al0_5 2.995306 1_455
Al0_1 Al0_7 2.995306 1_445
Al0_1 Al0_7 2.995306 1_555
Al0_2 V0_6 2.761238 1_555
Al0_2 V0_0 2.761238 1_555
Al0_2 V0_2 2.761241 1_555
Al0_2 Ti1_6 2.872125 1_555
Al0_2 Ti1_0 2.872125 1_555
Al0_2 Ti1_2 2.872128 1_555
Al0_2 Al0_6 2.995306 1_455
Al0_2 Al0_6 2.995306 1_555
Al0_2 Al0_4 2.995306 1_565
Al0_2 Al0_4 2.995306 1_455
Al0_3 V0_1 2.761238 1_555
Al0_3 V0_7 2.761238 1_555
Al0_3 V0_3 2.761241 1_555
Al0_3 Ti1_7 2.872125 1_555
Al0_3 Ti1_1 2.872125 1_555
Al0_3 Ti1_3 2.872128 1_555
Al0_3 Al0_7 2.995306 1_455
Al0_3 Al0_7 2.995306 1_555
Al0_3 Al0_5 2.995306 1_565
Al0_3 Al0_5 2.995306 1_455
Al0_4 V0_6 2.761238 1_545
Al0_4 V0_0 2.761238 1_655
Al0_4 V0_4 2.761241 1_555
Al0_4 Ti1_6 2.872125 1_545
Al0_4 Ti1_0 2.872125 1_655
Al0_4 Ti1_4 2.872128 1_555
Al0_4 Al0_6 2.995306 1_545
Al0_4 Al0_6 2.995306 1_555
Al0_5 V0_7 2.761238 1_545
Al0_5 V0_1 2.761238 1_655
Al0_5 V0_5 2.761241 1_555
Al0_5 Ti1_7 2.872125 1_545
Al0_5 Ti1_1 2.872125 1_655
Al0_5 Ti1_5 2.872128 1_555
Al0_5 Al0_7 2.995306 1_545
Al0_5 Al0_7 2.995306 1_555
Al0_6 V0_2 2.761238 1_655
Al0_6 V0_4 2.761238 1_555
Al0_6 V0_6 2.761241 1_555
Al0_6 Ti1_2 2.872125 1_655
Al0_6 Ti1_4 2.872125 1_555
Al0_6 Ti1_6 2.872128 1_555
Al0_7 V0_3 2.761238 1_655
Al0_7 V0_5 2.761238 1_555
Al0_7 V0_7 2.761241 1_555
Al0_7 Ti1_5 2.872125 1_555
Al0_7 Ti1_3 2.872125 1_655
Al0_7 Ti1_7 2.872128 1_555
Al1_0 V1_2 2.761238 1_555
Al1_0 V1_4 2.761238 1_455
Al1_0 V1_0 2.761241 1_555
Al1_0 Ti0_2 2.872125 1_555
Al1_0 Ti0_4 2.872125 1_455
Al1_0 Ti0_0 2.872128 1_555
Al1_0 Al1_4 2.995306 1_455
Al1_0 Al1_2 2.995306 1_555
Al1_0 Al1_4 2.995306 1_555
Al1_0 Al1_2 2.995306 1_545
Al1_0 Al1_6 2.995306 1_445
Al1_0 Al1_6 2.995306 1_555
Al1_1 V1_3 2.761238 1_555
Al1_1 V1_5 2.761238 1_455
Al1_1 V1_1 2.761241 1_555
Al1_1 Ti0_3 2.872125 1_555
Al1_1 Ti0_5 2.872125 1_455
Al1_1 Ti0_1 2.872128 1_555
Al1_1 Al1_5 2.995306 1_455
Al1_1 Al1_3 2.995306 1_555
Al1_1 Al1_5 2.995306 1_555
Al1_1 Al1_3 2.995306 1_545
Al1_1 Al1_7 2.995306 1_445
Al1_1 Al1_7 2.995306 1_555
Al1_2 V1_6 2.761238 1_455
Al1_2 V1_0 2.761238 1_565
Al1_2 V1_2 2.761241 1_555
Al1_2 Ti0_6 2.872125 1_455
Al1_2 Ti0_0 2.872125 1_565
Al1_2 Ti0_2 2.872128 1_555
Al1_2 Al1_6 2.995306 1_555
Al1_2 Al1_6 2.995306 1_455
Al1_2 Al1_4 2.995306 1_455
Al1_2 Al1_4 2.995306 1_565
Al1_3 V1_7 2.761238 1_455
Al1_3 V1_1 2.761238 1_565
Al1_3 V1_3 2.761241 1_555
Al1_3 Ti0_1 2.872125 1_565
Al1_3 Ti0_7 2.872125 1_455
Al1_3 Ti0_3 2.872128 1_555
Al1_3 Al1_7 2.995306 1_555
Al1_3 Al1_7 2.995306 1_455
Al1_3 Al1_5 2.995306 1_455
Al1_3 Al1_5 2.995306 1_565
Al1_4 V1_0 2.761238 1_555
Al1_4 V1_6 2.761238 1_555
Al1_4 V1_4 2.761241 1_555
Al1_4 Ti0_0 2.872125 1_555
Al1_4 Ti0_6 2.872125 1_555
Al1_4 Ti0_4 2.872128 1_555
Al1_4 Al1_6 2.995306 1_545
Al1_4 Al1_6 2.995306 1_555
Al1_5 V1_1 2.761238 1_555
Al1_5 V1_7 2.761238 1_555
Al1_5 V1_5 2.761241 1_555
Al1_5 Ti0_1 2.872125 1_555
Al1_5 Ti0_7 2.872125 1_555
Al1_5 Ti0_5 2.872128 1_555
Al1_5 Al1_7 2.995306 1_545
Al1_5 Al1_7 2.995306 1_555
Al1_6 V1_4 2.761238 1_565
Al1_6 V1_2 2.761238 1_555
Al1_6 V1_6 2.761241 1_555
Al1_6 Ti0_4 2.872125 1_565
Al1_6 Ti0_2 2.872125 1_555
Al1_6 Ti0_6 2.872128 1_555
Al1_7 V1_5 2.761238 1_565
Al1_7 V1_3 2.761238 1_555
Al1_7 V1_7 2.761241 1_555
Al1_7 Ti0_5 2.872125 1_565
Al1_7 Ti0_3 2.872125 1_555
Al1_7 Ti0_7 2.872128 1_555
C0_0 Ti1_2 2.091467 1_545
C0_0 Ti0_4 2.091467 1_455
C0_0 Ti0_6 2.091469 1_445
C0_0 Ti1_6 2.091469 1_445
C0_0 Ti0_0 2.091469 1_555
C0_0 Ti1_0 2.091469 1_555
C0_1 Ti0_5 2.091467 1_455
C0_1 Ti1_3 2.091467 1_545
C0_1 Ti0_7 2.091469 1_445
C0_1 Ti1_7 2.091469 1_445
C0_1 Ti0_1 2.091469 1_555
C0_1 Ti1_1 2.091469 1_555
C0_2 Ti1_0 2.091467 1_555
C0_2 Ti0_6 2.091467 1_455
C0_2 Ti1_2 2.091469 1_555
C0_2 Ti1_4 2.091469 1_455
C0_2 Ti0_4 2.091469 1_455
C0_2 Ti0_2 2.091469 1_555
C0_3 Ti1_1 2.091467 1_555
C0_3 Ti0_7 2.091467 1_455
C0_3 Ti1_5 2.091469 1_455
C0_3 Ti1_3 2.091469 1_555
C0_3 Ti0_5 2.091469 1_455
C0_3 Ti0_3 2.091469 1_555
C0_4 Ti1_6 2.091467 1_545
C0_4 Ti0_0 2.091467 1_555
C0_4 Ti0_2 2.091469 1_545
C0_4 Ti0_4 2.091469 1_555
C0_4 Ti1_4 2.091469 1_555
C0_4 Ti1_2 2.091469 1_545
C0_5 Ti1_7 2.091467 1_545
C0_5 Ti0_1 2.091467 1_555
C0_5 Ti0_3 2.091469 1_545
C0_5 Ti0_5 2.091469 1_555
C0_5 Ti1_5 2.091469 1_555
C0_5 Ti1_3 2.091469 1_545
C0_6 Ti0_2 2.091467 1_555
C0_6 Ti1_4 2.091467 1_555
C0_6 Ti0_0 2.091469 1_555
C0_6 Ti1_0 2.091469 1_555
C0_6 Ti0_6 2.091469 1_555
C0_6 Ti1_6 2.091469 1_555
C0_7 Ti0_3 2.091467 1_555
C0_7 Ti1_5 2.091467 1_555
C0_7 Ti1_1 2.091469 1_555
C0_7 Ti0_1 2.091469 1_555
C0_7 Ti0_7 2.091469 1_555
C0_7 Ti1_7 2.091469 1_555
C1_0 V1_4 2.041426 1_455
C1_0 V0_3 2.041426 1_544
C1_0 V1_6 2.041428 1_445
C1_0 V1_0 2.041428 1_555
C1_0 V0_7 2.041428 1_444
C1_0 V0_1 2.041428 1_554
C1_1 V1_5 2.041426 1_455
C1_1 V0_2 2.041426 1_545
C1_1 V1_7 2.041428 1_445
C1_1 V1_1 2.041428 1_555
C1_1 V0_6 2.041428 1_445
C1_1 V0_0 2.041428 1_555
C1_2 V1_6 2.041426 1_455
C1_2 V0_1 2.041426 1_554
C1_2 V1_2 2.041428 1_555
C1_2 V1_4 2.041428 1_455
C1_2 V0_5 2.041428 1_454
C1_2 V0_3 2.041428 1_554
C1_3 V1_7 2.041426 1_455
C1_3 V0_0 2.041426 1_555
C1_3 V1_3 2.041428 1_555
C1_3 V1_5 2.041428 1_455
C1_3 V0_4 2.041428 1_455
C1_3 V0_2 2.041428 1_555
C1_4 V1_0 2.041426 1_555
C1_4 V0_7 2.041426 1_544
C1_4 V1_4 2.041428 1_555
C1_4 V1_2 2.041428 1_545
C1_4 V0_5 2.041428 1_554
C1_4 V0_3 2.041428 1_544
C1_5 V1_1 2.041426 1_555
C1_5 V0_6 2.041426 1_545
C1_5 V1_5 2.041428 1_555
C1_5 V1_3 2.041428 1_545
C1_5 V0_2 2.041428 1_545
C1_5 V0_4 2.041428 1_555
C1_6 V1_2 2.041426 1_555
C1_6 V0_5 2.041426 1_554
C1_6 V1_6 2.041428 1_555
C1_6 V1_0 2.041428 1_555
C1_6 V0_1 2.041428 1_554
C1_6 V0_7 2.041428 1_554
C1_7 V1_3 2.041426 1_555
C1_7 V0_4 2.041426 1_555
C1_7 V1_1 2.041428 1_555
C1_7 V1_7 2.041428 1_555
C1_7 V0_0 2.041428 1_555
C1_7 V0_6 2.041428 1_555
