# generated using pymatgen
data_Ta2NiOs
_symmetry_space_group_name_H-M   'P 1'
_cell_length_a   10.49792881
_cell_length_b   10.49792881
_cell_length_c   10.49792881
_cell_angle_alpha   127.80500889
_cell_angle_beta   118.36112928
_cell_angle_gamma   84.95124234
_symmetry_Int_Tables_number   1
_chemical_formula_structural   Ta2NiOs
_chemical_formula_sum   'Ta2 Ni1 Os1'
_cell_volume   769.26899759
_cell_formula_units_Z   1
loop_
 _symmetry_equiv_pos_site_id
 _symmetry_equiv_pos_as_xyz
  1  'x, y, z'
loop_
 _atom_site_type_symbol
 _atom_site_label
 _atom_site_symmetry_multiplicity
 _atom_site_fract_x
 _atom_site_fract_y
 _atom_site_fract_z
 _atom_site_occupancy
  Ta  Ta0  1  0.00000000  0.25152100  0.25152100  1
  Ta  Ta1  1  0.00000000  0.74847900  0.74847900  1
  Ni  Ni0  1  0.00000000  0.00000000  0.00000000  1
  Os  Os0  1  0.00000000  0.50000000  0.50000000  1
loop_
_geom_bond_atom_site_label_1
_geom_bond_atom_site_label_2
_geom_bond_distance
_geom_bond_site_symmetry_2
Ni0 Ta0 2.323067 1_555
Ni0 Ta1 2.323067 1_544
Os0 Ta1 2.294971 1_555
Os0 Ta0 2.294971 1_555
