# generated using pymatgen
data_Ba2US6
_symmetry_space_group_name_H-M   'P 1'
_cell_length_a   5.47102618
_cell_length_b   5.47102618
_cell_length_c   15.95309087
_cell_angle_alpha   90.00000000
_cell_angle_beta   90.00000000
_cell_angle_gamma   90.00000000
_symmetry_Int_Tables_number   1
_chemical_formula_structural   Ba2US6
_chemical_formula_sum   'Ba4 U2 S12'
_cell_volume   477.50994934
_cell_formula_units_Z   2
loop_
 _symmetry_equiv_pos_site_id
 _symmetry_equiv_pos_as_xyz
  1  'x, y, z'
loop_
 _atom_site_type_symbol
 _atom_site_label
 _atom_site_symmetry_multiplicity
 _atom_site_fract_x
 _atom_site_fract_y
 _atom_site_fract_z
 _atom_site_occupancy
  Ba  Ba0  1  -0.00000000  -0.00000000  0.13433516  1
  Ba  Ba1  1  0.50000000  0.50000000  0.63433516  1
  Ba  Ba2  1  0.50000000  0.50000000  0.36566484  1
  Ba  Ba3  1  -0.00000000  -0.00000000  0.86566484  1
  U  U0  1  -0.00000000  -0.00000000  0.50000000  1
  U  U1  1  0.50000000  0.50000000  -0.00000000  1
  S  S0  1  0.31100124  0.50000000  0.16532412  1
  S  S1  1  0.68899876  0.50000000  0.16532412  1
  S  S2  1  -0.00000000  0.81100124  0.66532412  1
  S  S3  1  -0.00000000  0.18899876  0.66532412  1
  S  S4  1  0.18899876  -0.00000000  0.33467588  1
  S  S5  1  0.81100124  -0.00000000  0.33467588  1
  S  S6  1  0.50000000  0.68899876  0.83467588  1
  S  S7  1  0.50000000  0.31100124  0.83467588  1
  S  S8  1  -0.00000000  0.50000000  0.97815745  1
  S  S9  1  -0.00000000  0.50000000  0.47815745  1
  S  S10  1  0.50000000  -0.00000000  0.52184255  1
  S  S11  1  0.50000000  -0.00000000  0.02184255  1
loop_
_geom_bond_atom_site_label_1
_geom_bond_atom_site_label_2
_geom_bond_distance
_geom_bond_site_symmetry_2
Ba0 S1 3.259221 1_455
Ba0 S0 3.259221 1_545
Ba0 S1 3.259221 1_445
Ba0 S0 3.259221 1_555
Ba0 S11 3.271642 1_555
Ba0 S11 3.271642 1_455
Ba0 S4 3.359159 1_555
Ba0 S5 3.359159 1_455
Ba0 S8 3.700093 1_554
Ba0 S8 3.700093 1_544
Ba1 S2 3.259221 1_555
Ba1 S2 3.259221 1_655
Ba1 S3 3.259221 1_655
Ba1 S3 3.259221 1_555
Ba1 S10 3.271642 1_555
Ba1 S10 3.271642 1_565
Ba1 S7 3.359159 1_555
Ba1 S6 3.359159 1_555
Ba1 S9 3.700093 1_555
Ba1 S9 3.700093 1_655
Ba2 S4 3.259221 1_555
Ba2 S5 3.259221 1_555
Ba2 S5 3.259221 1_565
Ba2 S4 3.259221 1_565
Ba2 S9 3.271642 1_555
Ba2 S9 3.271642 1_655
Ba2 S1 3.359159 1_555
Ba2 S0 3.359159 1_555
Ba2 S10 3.700093 1_555
Ba2 S10 3.700093 1_565
Ba3 S6 3.259221 1_445
Ba3 S6 3.259221 1_545
Ba3 S7 3.259221 1_455
Ba3 S7 3.259221 1_555
Ba3 S8 3.271642 1_555
Ba3 S8 3.271642 1_545
Ba3 S3 3.359159 1_555
Ba3 S2 3.359159 1_545
Ba3 S11 3.700093 1_456
Ba3 S11 3.700093 1_556
S0 S1 2.068034 1_555
S0 U1 2.832884 1_555
S1 U1 2.832884 1_555
S2 S3 2.068034 1_565
S2 U0 2.832884 1_565
S3 U0 2.832884 1_555
S4 S5 2.068034 1_455
S4 U0 2.832884 1_555
S5 U0 2.832884 1_655
S6 S7 2.068034 1_555
S6 U1 2.832884 1_556
S7 U1 2.832884 1_556
S8 U1 2.757617 1_456
S8 U1 2.757617 1_556
S9 U0 2.757617 1_565
S9 U0 2.757617 1_555
S10 U0 2.757617 1_555
S10 U0 2.757617 1_655
S11 U1 2.757617 1_545
S11 U1 2.757617 1_555
