# generated using pymatgen
data_K5Na3(MoO4)4
_symmetry_space_group_name_H-M   'P 1'
_cell_length_a   6.12070500
_cell_length_b   6.12048121
_cell_length_c   15.35068402
_cell_angle_alpha   90.06022847
_cell_angle_beta   90.29572021
_cell_angle_gamma   119.94995798
_symmetry_Int_Tables_number   1
_chemical_formula_structural   K5Na3(MoO4)4
_chemical_formula_sum   'K5 Na3 Mo4 O16'
_cell_volume   498.25832644
_cell_formula_units_Z   1
loop_
 _symmetry_equiv_pos_site_id
 _symmetry_equiv_pos_as_xyz
  1  'x, y, z'
loop_
 _atom_site_type_symbol
 _atom_site_label
 _atom_site_symmetry_multiplicity
 _atom_site_fract_x
 _atom_site_fract_y
 _atom_site_fract_z
 _atom_site_occupancy
  K  K0  1  0.05486500  0.05490000  0.75090900  1
  K  K1  1  0.94521300  0.94523800  0.24990500  1
  K  K2  1  0.35546900  0.69240200  0.58426400  1
  K  K3  1  0.30680700  0.64397100  0.08370400  1
  K  K4  1  0.64455900  0.30755100  0.41583400  1
  Na  Na0  1  0.99999600  0.00006200  0.49999100  1
  Na  Na1  1  0.99993300  0.99981000  0.99940700  1
  Na  Na2  1  0.68413800  0.34958300  0.90887300  1
  Mo  Mo0  1  0.69165700  0.35920000  0.64214000  1
  Mo  Mo1  1  0.35993400  0.69196400  0.86150900  1
  Mo  Mo2  1  0.30847600  0.64065900  0.36096400  1
  Mo  Mo3  1  0.64074600  0.30851000  0.13752800  1
  O  O0  1  0.39487800  0.21492000  0.58400400  1
  O  O1  1  0.21329400  0.39370300  0.91783800  1
  O  O2  1  0.60698500  0.78549200  0.41803200  1
  O  O3  1  0.78390500  0.60363000  0.07928100  1
  O  O4  1  0.84681100  0.69136500  0.61975600  1
  O  O5  1  0.69453800  0.84593200  0.88097600  1
  O  O6  1  0.15220300  0.30638700  0.38071200  1
  O  O7  1  0.30562500  0.15132300  0.11931700  1
  O  O8  1  0.87175700  0.23190400  0.59295800  1
  O  O9  1  0.23725900  0.87918700  0.90869700  1
  O  O10  1  0.12657300  0.76854200  0.40851000  1
  O  O11  1  0.76769500  0.12484600  0.09098500  1
  O  O12  1  0.63795100  0.28769300  0.75648400  1
  O  O13  1  0.28080500  0.63275400  0.74834700  1
  O  O14  1  0.36758400  0.71937000  0.24828400  1
  O  O15  1  0.72034400  0.36910700  0.25078900  1
loop_
_geom_bond_atom_site_label_1
_geom_bond_atom_site_label_2
_geom_bond_distance
_geom_bond_site_symmetry_2
K0 O5 2.778608 1_445
K0 O4 2.785791 1_445
K0 O9 3.073447 1_545
K0 O8 3.081961 1_455
K0 O13 3.088657 1_555
K0 O12 3.113475 1_555
K0 O1 3.124417 1_555
K0 O0 3.143218 1_555
K1 O6 2.773300 1_665
K1 O7 2.783609 1_665
K1 O15 3.079440 1_555
K1 O10 3.083151 1_655
K1 O11 3.084021 1_565
K1 O14 3.087121 1_555
K1 O2 3.153086 1_555
K1 O3 3.179162 1_555
K2 O13 2.556098 1_555
K2 O2 2.893773 1_555
K2 O8 2.898284 1_455
K2 O0 3.050012 1_555
K2 O4 3.056671 1_555
K2 O0 3.084736 1_565
K2 O4 3.160314 1_455
K2 O10 3.174021 1_555
K2 O8 3.237744 1_565
K3 O14 2.559406 1_555
K3 O1 2.873702 1_554
K3 O11 2.887673 1_565
K3 O3 3.052037 1_555
K3 O7 3.061426 1_555
K3 O3 3.085068 1_455
K3 O7 3.155998 1_565
K3 O9 3.174766 1_554
K3 O11 3.245330 1_455
K4 O15 2.572089 1_555
K4 O10 2.893103 1_655
K4 O0 2.915451 1_555
K4 O2 3.046734 1_555
K4 O6 3.055175 1_555
K4 O2 3.087109 1_545
K4 O6 3.159815 1_655
K4 O8 3.185511 1_555
K4 O10 3.240339 1_545
Na0 O10 2.383989 1_645
Na0 O8 2.405336 1_555
Na0 O2 2.430021 1_545
Na0 O6 2.452841 1_655
Na0 O0 2.454566 1_655
Na0 O4 2.466803 1_545
Na1 O9 2.384020 1_655
Na1 O11 2.384737 1_566
Na1 O5 2.426865 1_555
Na1 O3 2.439889 1_556
Na1 O1 2.442328 1_665
Na1 O7 2.444863 1_666
Na2 O12 2.362203 1_555
Na2 O9 2.811999 1_545
Na2 O3 2.942840 1_556
Mo0 O4 1.797259 1_555
Mo0 O12 1.801237 1_555
Mo0 O0 1.804395 1_555
Mo0 O8 1.804733 1_555
Mo1 O13 1.788353 1_555
Mo1 O5 1.799373 1_555
Mo1 O1 1.805842 1_555
Mo1 O9 1.806804 1_555
Mo2 O14 1.785797 1_555
Mo2 O6 1.800796 1_555
Mo2 O2 1.804479 1_555
Mo2 O10 1.806169 1_555
Mo3 O15 1.790878 1_555
Mo3 O7 1.798383 1_555
Mo3 O11 1.803891 1_555
Mo3 O3 1.805837 1_555
