# generated using pymatgen
data_K6MnTe4
_symmetry_space_group_name_H-M   'P 1'
_cell_length_a   10.95917052
_cell_length_b   10.95917747
_cell_length_c   8.44833417
_cell_angle_alpha   90.00004280
_cell_angle_beta   89.99993813
_cell_angle_gamma   119.99964245
_symmetry_Int_Tables_number   1
_chemical_formula_structural   K6MnTe4
_chemical_formula_sum   'K12 Mn2 Te8'
_cell_volume   878.73702268
_cell_formula_units_Z   2
loop_
 _symmetry_equiv_pos_site_id
 _symmetry_equiv_pos_as_xyz
  1  'x, y, z'
loop_
 _atom_site_type_symbol
 _atom_site_label
 _atom_site_symmetry_multiplicity
 _atom_site_fract_x
 _atom_site_fract_y
 _atom_site_fract_z
 _atom_site_occupancy
  K  K0  1  0.14769436  0.85230599  0.54536201  1
  K  K1  1  0.29539223  0.14769589  0.04536158  1
  K  K2  1  0.85230453  0.70460801  0.04536105  1
  K  K3  1  0.14769498  0.29539336  0.54536243  1
  K  K4  1  0.70460720  0.85230507  0.54536280  1
  K  K5  1  0.85230456  0.14769563  0.04536074  1
  K  K6  1  0.52570994  0.47429051  0.36479656  1
  K  K7  1  0.05142309  0.52571299  0.86479547  1
  K  K8  1  0.47428745  0.94857728  0.86479493  1
  K  K9  1  0.52570964  0.05141917  0.36479680  1
  K  K10  1  0.94858123  0.47429071  0.36479601  1
  K  K11  1  0.47429158  0.52570916  0.86479492  1
  Mn  Mn0  1  0.33333486  0.66666351  0.24981247  1
  Mn  Mn1  1  0.66666626  0.33333075  0.74981246  1
  Te  Te0  1  0.33333124  0.66667005  0.57971847  1
  Te  Te1  1  0.66666833  0.33333281  0.07970952  1
  Te  Te2  1  0.19396448  0.80603526  0.14716468  1
  Te  Te3  1  0.38792639  0.19396813  0.64717050  1
  Te  Te4  1  0.80603290  0.61207054  0.64716518  1
  Te  Te5  1  0.19396477  0.38792126  0.14716502  1
  Te  Te6  1  0.61207845  0.80603469  0.14716535  1
  Te  Te7  1  0.80603253  0.19396719  0.64716604  1
loop_
_geom_bond_atom_site_label_1
_geom_bond_atom_site_label_2
_geom_bond_distance
_geom_bond_site_symmetry_2
K0 Te4 3.439963 1_455
K0 Te3 3.439973 1_565
K0 Te2 3.476866 1_555
K0 Te0 3.535650 1_555
K1 Te5 3.439853 1_555
K1 Te2 3.439944 1_545
K1 Te3 3.476800 1_554
K1 Te1 3.535693 1_555
K2 Te6 3.439855 1_555
K2 Te2 3.439937 1_655
K2 Te4 3.476848 1_554
K2 Te1 3.535687 1_555
K3 Te3 3.439908 1_555
K3 Te7 3.439964 1_455
K3 Te5 3.476838 1_555
K3 Te0 3.535706 1_555
K4 Te4 3.439932 1_555
K4 Te7 3.439964 1_565
K4 Te6 3.476840 1_555
K4 Te0 3.535696 1_555
K5 Te5 3.439933 1_655
K5 Te6 3.439941 1_545
K5 Te7 3.476853 1_554
K5 Te1 3.535650 1_555
K6 Te4 3.573506 1_555
K6 Te3 3.573532 1_555
K6 Te1 3.599994 1_555
K6 Te6 3.748753 1_555
K6 Te5 3.748761 1_555
K7 Te2 3.573504 1_556
K7 Te5 3.573575 1_556
K7 Te0 3.599891 1_555
K7 Te4 3.748801 1_455
K7 Te7 3.748803 1_455
K8 Te2 3.573510 1_556
K8 Te6 3.573581 1_556
K8 Te0 3.599884 1_555
K8 Te7 3.748792 1_565
K8 Te3 3.748807 1_565
K9 Te7 3.573510 1_555
K9 Te3 3.573587 1_555
K9 Te1 3.599991 1_555
K9 Te2 3.748792 1_545
K9 Te6 3.748826 1_545
K10 Te7 3.573519 1_555
K10 Te4 3.573533 1_555
K10 Te1 3.599981 1_555
K10 Te2 3.748783 1_655
K10 Te5 3.748819 1_655
K11 Te6 3.573533 1_556
K11 Te5 3.573538 1_556
K11 Te0 3.599974 1_555
K11 Te3 3.748703 1_555
K11 Te4 3.748735 1_555
Mn0 Te2 2.784025 1_555
Mn0 Te5 2.784039 1_555
Mn0 Te6 2.784048 1_555
Mn0 Te0 2.787156 1_555
Mn1 Te7 2.783909 1_555
Mn1 Te3 2.784002 1_555
Mn1 Te4 2.784017 1_555
Mn1 Te1 2.787081 1_556
