# generated using pymatgen
data_CdIn4TeAs4
_symmetry_space_group_name_H-M   'P 1'
_cell_length_a   14.75217217
_cell_length_b   14.75217217
_cell_length_c   14.75217217
_cell_angle_alpha   163.84501336
_cell_angle_beta   163.84501336
_cell_angle_gamma   22.92358548
_symmetry_Int_Tables_number   1
_chemical_formula_structural   CdIn4TeAs4
_chemical_formula_sum   'Cd1 In4 Te1 As4'
_cell_volume   248.48963088
_cell_formula_units_Z   1
loop_
 _symmetry_equiv_pos_site_id
 _symmetry_equiv_pos_as_xyz
  1  'x, y, z'
loop_
 _atom_site_type_symbol
 _atom_site_label
 _atom_site_symmetry_multiplicity
 _atom_site_fract_x
 _atom_site_fract_y
 _atom_site_fract_z
 _atom_site_occupancy
  Cd  Cd0  1  0.00000000  0.00000000  0.00000000  1
  In  In0  1  0.39365900  0.39365900  0.00000000  1
  In  In1  1  0.80103000  0.80103000  0.00000000  1
  In  In2  1  0.19897000  0.19897000  0.00000000  1
  In  In3  1  0.60634100  0.60634100  0.00000000  1
  Te  Te0  1  0.50000000  0.50000000  0.00000000  1
  As  As0  1  0.89808300  0.89808300  0.00000000  1
  As  As1  1  0.29670300  0.29670300  0.00000000  1
  As  As2  1  0.70329700  0.70329700  0.00000000  1
  As  As3  1  0.10191700  0.10191700  0.00000000  1
loop_
_geom_bond_atom_site_label_1
_geom_bond_atom_site_label_2
_geom_bond_distance
_geom_bond_site_symmetry_2
Cd0 Te0 2.931470 1_545
Cd0 Te0 2.931470 1_455
Cd0 Te0 2.931470 1_556
Cd0 Te0 2.931470 1_444
In0 Te0 3.074951 1_555
In3 Te0 3.074951 1_555
As0 In1 2.806380 1_555
As0 In0 2.934259 1_565
As0 In0 2.934259 1_655
As0 In0 2.934259 1_666
As0 In0 2.934259 1_554
As0 Cd0 2.947027 1_665
As1 In0 2.803575 1_555
As1 In2 2.826043 1_555
As1 In1 2.934138 1_455
As1 In1 2.934138 1_556
As1 In1 2.934138 1_444
As1 In1 2.934138 1_545
As2 In3 2.803575 1_555
As2 In1 2.826043 1_555
As2 In2 2.934138 1_565
As2 In2 2.934138 1_554
As2 In2 2.934138 1_666
As2 In2 2.934138 1_655
As3 In2 2.806380 1_555
As3 In3 2.934259 1_455
As3 In3 2.934259 1_545
As3 In3 2.934259 1_556
As3 In3 2.934259 1_444
As3 Cd0 2.947027 1_555
