# generated using pymatgen
data_CaV2O4
_symmetry_space_group_name_H-M   'P 1'
_cell_length_a   11.18374100
_cell_length_b   5.24470500
_cell_length_c   6.04632749
_cell_angle_alpha   89.24101568
_cell_angle_beta   90.00000000
_cell_angle_gamma   90.00000000
_symmetry_Int_Tables_number   1
_chemical_formula_structural   CaV2O4
_chemical_formula_sum   'Ca4 V8 O16'
_cell_volume   354.61877643
_cell_formula_units_Z   4
loop_
 _symmetry_equiv_pos_site_id
 _symmetry_equiv_pos_as_xyz
  1  'x, y, z'
loop_
 _atom_site_type_symbol
 _atom_site_label
 _atom_site_symmetry_multiplicity
 _atom_site_fract_x
 _atom_site_fract_y
 _atom_site_fract_z
 _atom_site_occupancy
  Ca  Ca0  1  0.74968000  0.65289500  0.25111100  1
  Ca  Ca1  1  0.24968000  0.34710500  0.74888900  1
  Ca  Ca2  1  0.25061400  0.96781700  0.25051400  1
  Ca  Ca3  1  0.75061400  0.03218300  0.74948600  1
  V  V0  1  0.48921300  0.99527200  0.74765400  1
  V  V1  1  0.01081200  0.98797500  0.74576800  1
  V  V2  1  0.51081200  0.01202500  0.25423200  1
  V  V3  1  0.98921300  0.00472800  0.25234600  1
  V  V4  1  0.49937400  0.50354700  0.49733800  1
  V  V5  1  0.00031800  0.49225100  0.00117300  1
  V  V6  1  0.50031800  0.50774900  0.99882700  1
  V  V7  1  0.99937400  0.49645300  0.50266200  1
  O  O0  1  0.40099900  0.65996200  0.74235200  1
  O  O1  1  0.09733200  0.64949100  0.74800200  1
  O  O2  1  0.59733200  0.35050900  0.25199800  1
  O  O3  1  0.90099900  0.34003800  0.25764800  1
  O  O4  1  0.58860500  0.32229500  0.74944300  1
  O  O5  1  0.91051200  0.30864100  0.74528000  1
  O  O6  1  0.41051200  0.69135900  0.25472000  1
  O  O7  1  0.08860500  0.67770500  0.25055700  1
  O  O8  1  0.60436100  0.84250000  0.49581700  1
  O  O9  1  0.90062500  0.82936900  0.99559500  1
  O  O10  1  0.40062500  0.17063100  0.00440500  1
  O  O11  1  0.10436100  0.15750000  0.50418300  1
  O  O12  1  0.39517100  0.16319000  0.49889600  1
  O  O13  1  0.10413100  0.16952700  0.00251800  1
  O  O14  1  0.60413100  0.83047300  0.99748200  1
  O  O15  1  0.89517100  0.83681000  0.50110400  1
loop_
_geom_bond_atom_site_label_1
_geom_bond_atom_site_label_2
_geom_bond_distance
_geom_bond_site_symmetry_2
Ca0 O2 2.327653 1_555
Ca0 O3 2.357145 1_555
Ca0 O14 2.414733 1_554
Ca0 O8 2.420392 1_555
Ca0 O15 2.429271 1_555
Ca0 O9 2.460766 1_554
Ca1 O1 2.327653 1_555
Ca1 O0 2.357145 1_555
Ca1 O13 2.414733 1_556
Ca1 O11 2.420392 1_555
Ca1 O12 2.429271 1_555
Ca1 O10 2.460766 1_556
Ca2 O6 2.302143 1_555
Ca2 O7 2.366003 1_555
Ca2 O12 2.441271 1_565
Ca2 O13 2.451394 1_565
Ca2 O11 2.461284 1_565
Ca2 O10 2.473551 1_565
Ca3 O5 2.302143 1_555
Ca3 O4 2.366003 1_555
Ca3 O15 2.441271 1_545
Ca3 O14 2.451394 1_545
Ca3 O8 2.461284 1_545
Ca3 O9 2.473551 1_545
O0 V0 2.017054 1_555
O0 V4 2.027378 1_555
O0 V6 2.059868 1_555
O1 V7 2.019026 1_455
O1 V1 2.021717 1_555
O1 V5 2.041333 1_556
O2 V4 2.019026 1_555
O2 V2 2.021717 1_555
O2 V6 2.041333 1_554
O3 V3 2.017054 1_555
O3 V7 2.027378 1_555
O3 V5 2.059868 1_655
O4 V0 2.043993 1_545
O4 V4 2.045647 1_555
O4 V6 2.057537 1_555
O5 V7 2.017814 1_555
O5 V1 2.021534 1_645
O5 V5 2.090317 1_656
O6 V4 2.017814 1_555
O6 V2 2.021534 1_565
O6 V6 2.090317 1_554
O7 V3 2.043993 1_465
O7 V7 2.045647 1_455
O7 V5 2.057537 1_555
O8 V2 1.996084 1_565
O8 V4 2.130381 1_555
O8 V0 2.156684 1_555
O9 V3 2.067658 1_566
O9 V5 2.090161 1_656
O9 V1 2.111625 1_655
O10 V0 2.067658 1_544
O10 V6 2.090161 1_554
O10 V2 2.111625 1_555
O11 V1 1.996084 1_545
O11 V7 2.130381 1_455
O11 V3 2.156684 1_455
O12 V0 2.027042 1_545
O12 V2 2.126178 1_555
O12 V4 2.131721 1_555
O13 V5 2.052445 1_555
O13 V1 2.108309 1_544
O13 V3 2.155452 1_455
O14 V6 2.052445 1_555
O14 V2 2.108309 1_566
O14 V0 2.155452 1_555
O15 V3 2.027042 1_565
O15 V1 2.126178 1_655
O15 V7 2.131721 1_555
