# generated using pymatgen
data_Er4(Al8Pd3)3
_symmetry_space_group_name_H-M   'P 1'
_cell_length_a   7.48775404
_cell_length_b   7.50316459
_cell_length_c   13.06125570
_cell_angle_alpha   84.57139310
_cell_angle_beta   79.04121673
_cell_angle_gamma   59.92169278
_symmetry_Int_Tables_number   1
_chemical_formula_structural   Er4(Al8Pd3)3
_chemical_formula_sum   'Er4 Al24 Pd9'
_cell_volume   623.41238578
_cell_formula_units_Z   1
loop_
 _symmetry_equiv_pos_site_id
 _symmetry_equiv_pos_as_xyz
  1  'x, y, z'
loop_
 _atom_site_type_symbol
 _atom_site_label
 _atom_site_symmetry_multiplicity
 _atom_site_fract_x
 _atom_site_fract_y
 _atom_site_fract_z
 _atom_site_occupancy
  Er  Er0  1  0.39380670  0.16820251  0.80846427  1
  Er  Er1  1  0.60619330  0.83179749  0.19153573  1
  Er  Er2  1  0.73369038  0.49835693  0.80845089  1
  Er  Er3  1  0.26630962  0.50164307  0.19154911  1
  Al  Al0  1  0.68431513  0.83363378  0.94473423  1
  Al  Al1  1  0.31568487  0.16636622  0.05526577  1
  Al  Al2  1  0.14614630  0.83300954  0.56175874  1
  Al  Al3  1  0.85385370  0.16699046  0.43824126  1
  Al  Al4  1  0.47968177  0.16668074  0.55984715  1
  Al  Al5  1  0.52031823  0.83331926  0.44015285  1
  Al  Al6  1  0.21741470  0.16541038  0.32870354  1
  Al  Al7  1  0.78258530  0.83458962  0.67129646  1
  Al  Al8  1  0.43663982  0.50677740  0.67153806  1
  Al  Al9  1  0.56336018  0.49322260  0.32846194  1
  Al  Al10  1  0.10934175  0.15959800  0.67014897  1
  Al  Al11  1  0.89065825  0.84040200  0.32985103  1
  Al  Al12  1  0.35249894  0.49960751  0.94470167  1
  Al  Al13  1  0.64750106  0.50039249  0.05529833  1
  Al  Al14  1  0.01491494  0.16740266  0.95481394  1
  Al  Al15  1  0.98508506  0.83259734  0.04518606  1
  Al  Al16  1  0.18681288  0.49982221  0.44023527  1
  Al  Al17  1  0.81318712  0.50017779  0.55976473  1
  Al  Al18  1  0.73345200  0.16387758  0.18360853  1
  Al  Al19  1  0.26654800  0.83612242  0.81639147  1
  Al  Al20  1  0.06156267  0.63044965  0.81498199  1
  Al  Al21  1  0.93843733  0.36955035  0.18501801  1
  Al  Al22  1  0.85500003  0.04198686  0.81630762  1
  Al  Al23  1  0.14499997  0.95801314  0.18369238  1
  Pd  Pd0  1  0.12012911  0.49198166  0.63861791  1
  Pd  Pd1  1  0.87987089  0.50801834  0.36138209  1
  Pd  Pd2  1  0.65652685  0.17168546  0.99998926  1
  Pd  Pd3  1  0.34347315  0.82831454  0.00001074  1
  Pd  Pd4  1  0.53786629  0.16684207  0.36143778  1
  Pd  Pd5  1  0.46213371  0.83315793  0.63856222  1
  Pd  Pd6  1  0.77859300  0.17488661  0.63802691  1
  Pd  Pd7  1  0.22140700  0.82511339  0.36197309  1
  Pd  Pd8  1  0.00000000  0.50000000  0.00000000  1
loop_
_geom_bond_atom_site_label_1
_geom_bond_atom_site_label_2
_geom_bond_distance
_geom_bond_site_symmetry_2
Er0 Pd0 3.277361 1_555
Er0 Pd5 3.292516 1_545
Er0 Pd6 3.308247 1_555
Er0 Pd2 3.473209 1_555
Er0 Pd8 3.488070 1_556
Er0 Pd3 3.507512 1_546
Er1 Pd1 3.277361 1_555
Er1 Pd4 3.292516 1_565
Er1 Pd7 3.308247 1_555
Er1 Pd3 3.473209 1_555
Er1 Pd8 3.488070 1_655
Er1 Pd2 3.507512 1_564
Er2 Pd0 3.276656 1_655
Er2 Pd6 3.298210 1_555
Er2 Pd5 3.302959 1_555
Er2 Pd3 3.473933 1_556
Er2 Pd8 3.487560 1_656
Er2 Pd2 3.508557 1_555
Er3 Pd1 3.276656 1_455
Er3 Pd7 3.298210 1_555
Er3 Pd4 3.302959 1_555
Er3 Pd2 3.473933 1_554
Er3 Pd8 3.487560 1_555
Er3 Pd3 3.508557 1_555
Al0 Pd3 2.536209 1_556
Al0 Pd8 2.598192 1_656
Al0 Pd2 2.599618 1_565
Al0 Er2 3.049333 1_555
Al0 Er0 3.058506 1_565
Al0 Er1 3.164855 1_556
Al1 Pd2 2.536209 1_554
Al1 Pd8 2.598192 1_555
Al1 Pd3 2.599618 1_545
Al1 Er3 3.049333 1_555
Al1 Er1 3.058506 1_545
Al1 Er0 3.164855 1_554
Al2 Pd7 2.562617 1_555
Al2 Pd5 2.740384 1_555
Al2 Pd6 2.740697 1_465
Al2 Pd0 2.744521 1_555
Al3 Pd6 2.562617 1_555
Al3 Pd4 2.740384 1_555
Al3 Pd7 2.740697 1_645
Al3 Pd1 2.744521 1_555
Al4 Pd4 2.544843 1_555
Al4 Pd6 2.659865 1_555
Al4 Pd0 2.664470 1_555
Al4 Pd5 2.669850 1_545
Al4 Er0 3.188106 1_555
Al5 Pd5 2.544843 1_555
Al5 Pd7 2.659865 1_555
Al5 Pd1 2.664470 1_555
Al5 Pd4 2.669850 1_565
Al5 Er1 3.188106 1_555
Al6 Pd4 2.521327 1_555
Al6 Pd7 2.535268 1_545
Al6 Pd1 2.542298 1_455
Al6 Er1 3.084056 1_545
Al6 Er3 3.086923 1_555
Al7 Pd5 2.521327 1_555
Al7 Pd6 2.535268 1_565
Al7 Pd0 2.542298 1_655
Al7 Er0 3.084056 1_565
Al7 Er2 3.086923 1_555
Al8 Pd6 2.517479 1_555
Al8 Pd5 2.541012 1_555
Al8 Pd0 2.544422 1_555
Al8 Er0 3.081210 1_555
Al8 Er2 3.082065 1_555
Al9 Pd7 2.517479 1_555
Al9 Pd4 2.541012 1_555
Al9 Pd1 2.544422 1_555
Al9 Er1 3.081210 1_555
Al9 Er3 3.082065 1_555
Al10 Pd0 2.527994 1_555
Al10 Pd6 2.534510 1_455
Al10 Pd5 2.537502 1_545
Al10 Er2 3.066914 1_455
Al10 Er0 3.070460 1_555
Al11 Pd1 2.527994 1_555
Al11 Pd7 2.534510 1_655
Al11 Pd4 2.537502 1_565
Al11 Er3 3.066914 1_655
Al11 Er1 3.070460 1_555
Al12 Pd2 2.536155 1_555
Al12 Pd8 2.599239 1_556
Al12 Pd3 2.600147 1_556
Al12 Er0 3.049946 1_555
Al12 Er2 3.059248 1_555
Al12 Er3 3.165457 1_556
Al13 Pd3 2.536155 1_555
Al13 Pd8 2.599239 1_655
Al13 Pd2 2.600147 1_554
Al13 Er1 3.049946 1_555
Al13 Er3 3.059248 1_555
Al13 Er2 3.165457 1_554
Al14 Pd8 2.561783 1_556
Al14 Pd2 2.620231 1_455
Al14 Pd3 2.620680 1_546
Al14 Er2 3.105793 1_455
Al14 Er0 3.107374 1_555
Al15 Pd8 2.561783 1_655
Al15 Pd3 2.620231 1_655
Al15 Pd2 2.620680 1_564
Al15 Er3 3.105793 1_655
Al15 Er1 3.107374 1_555
Al16 Pd0 2.544682 1_555
Al16 Pd4 2.661936 1_555
Al16 Pd1 2.663278 1_455
Al16 Pd7 2.670218 1_555
Al16 Er3 3.188989 1_555
Al17 Pd1 2.544682 1_555
Al17 Pd5 2.661936 1_555
Al17 Pd0 2.663278 1_655
Al17 Pd6 2.670218 1_555
Al17 Er2 3.188989 1_555
Al18 Pd4 2.494773 1_555
Al18 Pd2 2.559658 1_554
Al18 Er1 3.069295 1_545
Al18 Er3 3.113618 1_555
Al19 Pd5 2.494773 1_555
Al19 Pd3 2.559658 1_556
Al19 Er0 3.069295 1_565
Al19 Er2 3.113618 1_555
Al20 Pd0 2.487985 1_555
Al20 Pd8 2.567390 1_556
Al20 Er2 3.090523 1_455
Al20 Er0 3.090632 1_555
Al21 Pd1 2.487985 1_555
Al21 Pd8 2.567390 1_655
Al21 Er3 3.090523 1_655
Al21 Er1 3.090632 1_555
Al22 Pd6 2.497844 1_555
Al22 Pd2 2.558877 1_555
Al22 Er2 3.067920 1_555
Al22 Er0 3.109776 1_555
Al23 Pd7 2.497844 1_555
Al23 Pd3 2.558877 1_555
Al23 Er3 3.067920 1_555
Al23 Er1 3.109776 1_555
