# generated using pymatgen
data_Mg2Mn3GaS8
_symmetry_space_group_name_H-M   'P 1'
_cell_length_a   7.29395049
_cell_length_b   7.29589541
_cell_length_c   7.29628104
_cell_angle_alpha   60.00094841
_cell_angle_beta   59.99815211
_cell_angle_gamma   60.00653337
_symmetry_Int_Tables_number   1
_chemical_formula_structural   Mg2Mn3GaS8
_chemical_formula_sum   'Mg2 Mn3 Ga1 S8'
_cell_volume   274.56580787
_cell_formula_units_Z   1
loop_
 _symmetry_equiv_pos_site_id
 _symmetry_equiv_pos_as_xyz
  1  'x, y, z'
loop_
 _atom_site_type_symbol
 _atom_site_label
 _atom_site_symmetry_multiplicity
 _atom_site_fract_x
 _atom_site_fract_y
 _atom_site_fract_z
 _atom_site_occupancy
  Mg  Mg0  1  0.87458480  0.87478595  0.87478099  1
  Mg  Mg1  1  0.12543786  0.12522626  0.12520771  1
  Mn  Mn0  1  0.50001507  0.49994804  0.00002525  1
  Mn  Mn1  1  0.99997357  0.50000061  0.50002607  1
  Mn  Mn2  1  0.50004711  0.99999251  0.49997245  1
  Ga  Ga0  1  0.49998300  0.50002951  0.49997752  1
  S  S0  1  0.73855058  0.73860277  0.73864079  1
  S  S1  1  0.26065081  0.26077703  0.71423255  1
  S  S2  1  0.26071176  0.71428120  0.26071258  1
  S  S3  1  0.71429660  0.26071671  0.26073259  1
  S  S4  1  0.73927242  0.28572062  0.73927618  1
  S  S5  1  0.28573056  0.73928474  0.73926843  1
  S  S6  1  0.26141824  0.26138007  0.26141202  1
  S  S7  1  0.73933164  0.73924897  0.28573588  1
loop_
_geom_bond_atom_site_label_1
_geom_bond_atom_site_label_2
_geom_bond_distance
_geom_bond_site_symmetry_2
Mg0 S0 2.432409 1_555
Mg0 S4 2.448198 1_565
Mg0 S7 2.448248 1_556
Mg0 S5 2.448726 1_655
Mg1 S6 2.432295 1_555
Mg1 S2 2.448262 1_545
Mg1 S1 2.448371 1_554
Mg1 S3 2.448699 1_455
Mn0 S3 2.456293 1_555
Mn0 S4 2.456423 1_554
Mn0 S5 2.456578 1_554
Mn0 S2 2.456608 1_555
Mn0 S6 2.466854 1_555
Mn0 S0 2.466978 1_554
Mn1 S1 2.455671 1_655
Mn1 S4 2.455780 1_555
Mn1 S7 2.455891 1_555
Mn1 S2 2.455985 1_655
Mn1 S0 2.467677 1_555
Mn1 S6 2.467774 1_655
Mn2 S3 2.455861 1_565
Mn2 S5 2.456101 1_555
Mn2 S7 2.456450 1_555
Mn2 S1 2.456790 1_565
Mn2 S0 2.467271 1_555
Mn2 S6 2.467355 1_565
Ga0 S7 2.475185 1_555
Ga0 S1 2.475267 1_555
Ga0 S2 2.475377 1_555
Ga0 S4 2.475627 1_555
Ga0 S5 2.475708 1_555
Ga0 S3 2.475738 1_555
