# generated using pymatgen
data_Mg4Si7
_symmetry_space_group_name_H-M   'P 1'
_cell_length_a   3.91522200
_cell_length_b   7.16829325
_cell_length_c   14.17138577
_cell_angle_alpha   80.84907220
_cell_angle_beta   89.37420659
_cell_angle_gamma   87.12344136
_symmetry_Int_Tables_number   1
_chemical_formula_structural   Mg4Si7
_chemical_formula_sum   'Mg8 Si14'
_cell_volume   392.16801038
_cell_formula_units_Z   2
loop_
 _symmetry_equiv_pos_site_id
 _symmetry_equiv_pos_as_xyz
  1  'x, y, z'
loop_
 _atom_site_type_symbol
 _atom_site_label
 _atom_site_symmetry_multiplicity
 _atom_site_fract_x
 _atom_site_fract_y
 _atom_site_fract_z
 _atom_site_occupancy
  Mg  Mg0  1  0.00000000  0.00000000  0.00000000  1
  Mg  Mg1  1  0.50000000  0.50000000  0.50000000  1
  Mg  Mg2  1  0.99618700  0.26256700  0.65995400  1
  Mg  Mg3  1  0.00381300  0.73743300  0.34004600  1
  Mg  Mg4  1  0.53083200  0.79915500  0.15435700  1
  Mg  Mg5  1  0.46916800  0.20084500  0.84564300  1
  Mg  Mg6  1  0.00619000  0.78737400  0.57880000  1
  Mg  Mg7  1  0.99381000  0.21262600  0.42120000  1
  Si  Si0  1  0.44318200  0.25305400  0.04981800  1
  Si  Si1  1  0.55681800  0.74694600  0.95018200  1
  Si  Si2  1  0.91644600  0.38645900  0.95308400  1
  Si  Si3  1  0.08355400  0.61354100  0.04691600  1
  Si  Si4  1  0.49939800  0.89125500  0.44313200  1
  Si  Si5  1  0.50060200  0.10874500  0.55686800  1
  Si  Si6  1  0.01274500  0.90300000  0.81516400  1
  Si  Si7  1  0.98725500  0.09700000  0.18483600  1
  Si  Si8  1  0.49371300  0.45057200  0.30518900  1
  Si  Si9  1  0.50628700  0.54942800  0.69481100  1
  Si  Si10  1  0.99446300  0.56305500  0.79747000  1
  Si  Si11  1  0.00553700  0.43694500  0.20253000  1
  Si  Si12  1  0.48455300  0.08770200  0.29056800  1
  Si  Si13  1  0.51544700  0.91229800  0.70943200  1
loop_
_geom_bond_atom_site_label_1
_geom_bond_atom_site_label_2
_geom_bond_distance
_geom_bond_site_symmetry_2
Mg0 Si0 2.747665 1_555
Mg0 Si1 2.747665 1_444
Mg0 Si3 2.747965 1_545
Mg0 Si2 2.747965 1_454
Mg0 Si6 2.814268 1_544
Mg0 Si7 2.814268 1_455
Mg0 Si1 2.918627 1_544
Mg0 Si0 2.918627 1_455
Mg1 Si4 2.792112 1_555
Mg1 Si5 2.792112 1_555
Mg1 Si9 2.839248 1_555
Mg1 Si8 2.839248 1_555
Mg2 Si5 2.735133 1_655
Mg2 Si5 2.811376 1_555
Mg2 Si9 2.838643 1_555
Mg2 Si9 3.036090 1_655
Mg2 Si6 3.109454 1_645
Mg2 Si10 3.125845 1_555
Mg2 Si13 3.144504 1_645
Mg2 Si13 3.197520 1_545
Mg3 Si4 2.735133 1_455
Mg3 Si4 2.811376 1_555
Mg3 Si8 2.838643 1_555
Mg3 Si8 3.036090 1_455
Mg3 Si7 3.109454 1_465
Mg3 Si11 3.125845 1_555
Mg3 Si12 3.144504 1_465
Mg3 Si12 3.197520 1_565
Mg4 Si3 2.844600 1_555
Mg4 Si7 2.937931 1_565
Mg4 Si1 2.976004 1_554
Mg4 Si3 3.009156 1_655
Mg4 Si7 3.015208 1_465
Mg4 Si8 3.027304 1_555
Mg4 Si12 3.043320 1_565
Mg4 Si11 3.105056 1_655
Mg5 Si2 2.844600 1_555
Mg5 Si6 2.937931 1_545
Mg5 Si0 2.976004 1_556
Mg5 Si2 3.009156 1_455
Mg5 Si6 3.015208 1_645
Mg5 Si9 3.027304 1_555
Mg5 Si13 3.043320 1_545
Mg5 Si10 3.105056 1_455
Mg6 Si4 2.754559 1_555
Mg6 Si4 2.769049 1_455
Mg6 Si13 2.863134 1_455
Mg6 Si9 2.879075 1_555
Mg6 Si5 2.941077 1_465
Mg6 Si9 2.969135 1_455
Mg6 Si13 2.998593 1_555
Mg6 Si5 3.058971 1_565
Mg7 Si5 2.754559 1_555
Mg7 Si5 2.769049 1_655
Mg7 Si12 2.863134 1_655
Mg7 Si8 2.879075 1_555
Mg7 Si4 2.941077 1_645
Mg7 Si8 2.969135 1_655
Mg7 Si12 2.998593 1_555
Mg7 Si4 3.058971 1_545
Si0 Si2 2.435669 1_554
Si0 Si2 2.548255 1_454
Si0 Si7 2.746609 1_455
Si0 Si7 2.935831 1_555
Si1 Si3 2.435669 1_556
Si1 Si3 2.548255 1_656
Si1 Si6 2.746609 1_655
Si1 Si6 2.935831 1_555
Si2 Si3 2.379141 1_656
Si4 Si5 2.414262 1_565
Si10 Si2 2.386449 1_555
Si10 Si9 2.429786 1_555
Si10 Si9 2.470536 1_655
Si10 Si6 2.493665 1_655
Si11 Si3 2.386449 1_555
Si11 Si8 2.429786 1_555
Si11 Si8 2.470536 1_455
Si11 Si7 2.493665 1_455
Si12 Si4 2.384732 1_545
Si12 Si7 2.457703 1_555
Si12 Si7 2.461589 1_455
Si12 Si8 2.644087 1_555
Si13 Si5 2.384732 1_565
Si13 Si6 2.457703 1_555
Si13 Si6 2.461589 1_655
Si13 Si9 2.644087 1_555
