# generated using pymatgen
data_Ag2WO4
_symmetry_space_group_name_H-M   'P 1'
_cell_length_a   6.08334100
_cell_length_b   11.39251000
_cell_length_c   11.84215100
_cell_angle_alpha   90.00000000
_cell_angle_beta   90.00000000
_cell_angle_gamma   90.00000000
_symmetry_Int_Tables_number   1
_chemical_formula_structural   Ag2WO4
_chemical_formula_sum   'Ag16 W8 O32'
_cell_volume   820.71462843
_cell_formula_units_Z   8
loop_
 _symmetry_equiv_pos_site_id
 _symmetry_equiv_pos_as_xyz
  1  'x, y, z'
loop_
 _atom_site_type_symbol
 _atom_site_label
 _atom_site_symmetry_multiplicity
 _atom_site_fract_x
 _atom_site_fract_y
 _atom_site_fract_z
 _atom_site_occupancy
  Ag  Ag0  1  0.51214400  0.26772900  0.66492500  1
  Ag  Ag1  1  0.48785600  0.73227100  0.66492500  1
  Ag  Ag2  1  0.01214400  0.23227100  0.16492500  1
  Ag  Ag3  1  0.98785600  0.76772900  0.16492500  1
  Ag  Ag4  1  0.49600100  0.74021200  0.31014500  1
  Ag  Ag5  1  0.50399900  0.25978800  0.31014500  1
  Ag  Ag6  1  0.99600100  0.75978800  0.81014500  1
  Ag  Ag7  1  0.00399900  0.24021200  0.81014500  1
  Ag  Ag8  1  0.50000000  0.50000000  0.48652300  1
  Ag  Ag9  1  0.00000000  0.00000000  0.98652300  1
  Ag  Ag10  1  0.50000000  0.50000000  0.14427700  1
  Ag  Ag11  1  0.00000000  0.00000000  0.64427700  1
  Ag  Ag12  1  0.50000000  0.50000000  0.84149700  1
  Ag  Ag13  1  0.00000000  0.00000000  0.34149700  1
  Ag  Ag14  1  0.00000000  0.50000000  0.99455600  1
  Ag  Ag15  1  0.50000000  0.00000000  0.49455600  1
  W  W0  1  0.96093400  0.74088500  0.48609700  1
  W  W1  1  0.03906600  0.25911500  0.48609700  1
  W  W2  1  0.46093400  0.75911500  0.98609700  1
  W  W3  1  0.53906600  0.24088500  0.98609700  1
  W  W4  1  0.00000000  0.50000000  0.33621800  1
  W  W5  1  0.50000000  0.00000000  0.83621800  1
  W  W6  1  0.00000000  0.50000000  0.63405000  1
  W  W7  1  0.50000000  0.00000000  0.13405000  1
  O  O0  1  0.30197600  0.86647500  0.10765800  1
  O  O1  1  0.69802400  0.13352500  0.10765800  1
  O  O2  1  0.80197600  0.63352500  0.60765800  1
  O  O3  1  0.19802400  0.36647500  0.60765800  1
  O  O4  1  0.31079800  0.86218100  0.86191400  1
  O  O5  1  0.68920200  0.13781900  0.86191400  1
  O  O6  1  0.81079800  0.63781900  0.36191400  1
  O  O7  1  0.18920200  0.36218100  0.36191400  1
  O  O8  1  0.69549700  0.91928200  0.22365200  1
  O  O9  1  0.30450300  0.08071800  0.22365200  1
  O  O10  1  0.19549700  0.58071800  0.72365200  1
  O  O11  1  0.80450300  0.41928200  0.72365200  1
  O  O12  1  0.69746800  0.92347900  0.74584300  1
  O  O13  1  0.30253200  0.07652100  0.74584300  1
  O  O14  1  0.19746800  0.57652100  0.24584300  1
  O  O15  1  0.80253200  0.42347900  0.24584300  1
  O  O16  1  0.26203900  0.62822100  0.99234900  1
  O  O17  1  0.73796100  0.37177900  0.99234900  1
  O  O18  1  0.76203900  0.87177900  0.49234900  1
  O  O19  1  0.23796000  0.12822100  0.49234900  1
  O  O20  1  0.65145000  0.92407500  0.98425800  1
  O  O21  1  0.34855000  0.07592500  0.98425800  1
  O  O22  1  0.15145000  0.57592500  0.48425800  1
  O  O23  1  0.84855000  0.42407500  0.48425800  1
  O  O24  1  0.73774700  0.68073500  0.04000900  1
  O  O25  1  0.26225300  0.31926500  0.04000900  1
  O  O26  1  0.23774700  0.81926500  0.54000900  1
  O  O27  1  0.76225300  0.18073500  0.54000900  1
  O  O28  1  0.72090500  0.66312800  0.90653900  1
  O  O29  1  0.27909500  0.33687200  0.90653900  1
  O  O30  1  0.22090500  0.83687200  0.40653900  1
  O  O31  1  0.77909500  0.16312800  0.40653900  1
loop_
_geom_bond_atom_site_label_1
_geom_bond_atom_site_label_2
_geom_bond_distance
_geom_bond_site_symmetry_2
Ag0 O3 2.318833 1_555
Ag0 O27 2.342103 1_555
Ag0 O11 2.574457 1_555
Ag0 O13 2.699884 1_555
Ag1 O2 2.318833 1_555
Ag1 O26 2.342103 1_555
Ag1 O10 2.574457 1_555
Ag1 O12 2.699884 1_555
Ag2 O1 2.318833 1_455
Ag2 O25 2.342103 1_555
Ag2 O9 2.574457 1_555
Ag2 O15 2.699884 1_455
Ag3 O0 2.318833 1_655
Ag3 O24 2.342103 1_555
Ag3 O8 2.574457 1_555
Ag3 O14 2.699884 1_655
Ag4 O30 2.305711 1_555
Ag4 O6 2.324625 1_555
Ag4 O8 2.585300 1_555
Ag4 O14 2.712131 1_555
Ag5 O31 2.305711 1_555
Ag5 O7 2.324625 1_555
Ag5 O9 2.585300 1_555
Ag5 O15 2.712131 1_555
Ag6 O28 2.305711 1_555
Ag6 O4 2.324625 1_655
Ag6 O10 2.585300 1_655
Ag6 O12 2.712131 1_555
Ag7 O29 2.305711 1_555
Ag7 O5 2.324625 1_455
Ag7 O11 2.585300 1_455
Ag7 O13 2.712131 1_555
Ag8 O23 2.290149 1_555
Ag8 O22 2.290149 1_555
Ag9 O21 2.290149 1_555
Ag9 O20 2.290149 1_445
Ag10 O15 2.365100 1_555
Ag10 O14 2.365100 1_555
Ag10 O16 2.732455 1_554
Ag10 O17 2.732455 1_554
Ag10 O24 2.802853 1_555
Ag10 O25 2.802853 1_555
Ag11 O13 2.365100 1_555
Ag11 O12 2.365100 1_445
Ag11 O19 2.732452 1_555
Ag11 O18 2.732455 1_445
Ag11 O27 2.802853 1_455
Ag11 O26 2.802853 1_545
Ag12 O28 2.419290 1_555
Ag12 O29 2.419290 1_555
Ag12 O10 2.494900 1_555
Ag12 O11 2.494900 1_555
Ag12 O16 2.724082 1_555
Ag12 O17 2.724082 1_555
Ag13 O31 2.419290 1_455
Ag13 O30 2.419290 1_545
Ag13 O9 2.494900 1_555
Ag13 O8 2.494900 1_445
Ag13 O19 2.724079 1_555
Ag13 O18 2.724082 1_445
Ag14 O16 2.162306 1_555
Ag14 O17 2.162306 1_455
Ag14 O24 2.659799 1_456
Ag14 O25 2.659799 1_556
Ag14 O28 2.724487 1_455
Ag14 O29 2.724487 1_555
Ag15 O18 2.162306 1_545
Ag15 O19 2.162311 1_555
Ag15 O27 2.659799 1_555
Ag15 O26 2.659799 1_545
Ag15 O31 2.724487 1_555
Ag15 O30 2.724487 1_545
O0 W7 1.965416 1_565
O0 W2 2.122107 1_554
O1 W7 1.965416 1_555
O1 W3 2.122107 1_554
O2 W6 1.965416 1_655
O2 W0 2.122107 1_555
O3 W6 1.965416 1_555
O3 W1 2.122107 1_555
O4 W5 1.970426 1_565
O4 W2 2.091773 1_555
O5 W5 1.970426 1_555
O5 W3 2.091773 1_555
O6 W4 1.970426 1_655
O6 W0 2.091773 1_555
O7 W4 1.970426 1_555
O7 W1 2.091773 1_555
O8 W7 1.840080 1_565
O9 W7 1.840080 1_555
O10 W6 1.840080 1_555
O11 W6 1.840080 1_655
O12 W5 1.829868 1_565
O13 W5 1.829868 1_555
O14 W4 1.829868 1_555
O15 W4 1.829868 1_655
O16 W2 1.921760 1_555
O17 W3 1.921760 1_555
O18 W0 1.921760 1_555
O19 W1 1.921756 1_555
O20 W5 2.161115 1_565
O20 W7 2.177980 1_566
O20 W2 2.208052 1_555
O21 W5 2.161115 1_555
O21 W7 2.177980 1_556
O21 W3 2.208052 1_555
O22 W4 2.161115 1_555
O22 W6 2.177980 1_555
O22 W0 2.208052 1_455
O23 W4 2.161115 1_655
O23 W6 2.177980 1_655
O23 W1 2.208052 1_655
O24 O28 1.596540 1_554
O24 W2 2.010132 1_554
O25 O29 1.596540 1_554
O25 W3 2.010132 1_554
O26 O30 1.596540 1_555
O26 W0 2.010132 1_455
O27 O31 1.596540 1_555
O27 W1 2.010132 1_655
O28 W2 2.141158 1_555
O29 W3 2.141158 1_555
O30 W0 2.141158 1_455
O31 W1 2.141158 1_655
