# generated using pymatgen
data_Hf2PbC
_symmetry_space_group_name_H-M   'P 1'
_cell_length_a   3.36597649
_cell_length_b   3.36597649
_cell_length_c   14.56993942
_cell_angle_alpha   90.00000000
_cell_angle_beta   90.00000000
_cell_angle_gamma   119.99999865
_symmetry_Int_Tables_number   1
_chemical_formula_structural   Hf2PbC
_chemical_formula_sum   'Hf4 Pb2 C2'
_cell_volume   142.95868363
_cell_formula_units_Z   2
loop_
 _symmetry_equiv_pos_site_id
 _symmetry_equiv_pos_as_xyz
  1  'x, y, z'
loop_
 _atom_site_type_symbol
 _atom_site_label
 _atom_site_symmetry_multiplicity
 _atom_site_fract_x
 _atom_site_fract_y
 _atom_site_fract_z
 _atom_site_occupancy
  Hf  Hf0  1  0.33333300  0.66666700  0.41837065  1
  Hf  Hf1  1  0.66666700  0.33333300  0.58162935  1
  Hf  Hf2  1  0.66666700  0.33333300  0.91837065  1
  Hf  Hf3  1  0.33333300  0.66666700  0.08162935  1
  Pb  Pb0  1  0.33333300  0.66666700  0.75000000  1
  Pb  Pb1  1  0.66666700  0.33333300  0.25000000  1
  C  C0  1  0.00000000  -0.00000000  0.50000000  1
  C  C1  1  0.00000000  -0.00000000  -0.00000000  1
loop_
_geom_bond_atom_site_label_1
_geom_bond_atom_site_label_2
_geom_bond_distance
_geom_bond_site_symmetry_2
Hf0 Pb1 3.129623 1_455
Hf0 Pb1 3.129623 1_565
Hf0 Pb1 3.129626 1_555
Hf1 Pb0 3.129623 1_545
Hf1 Pb0 3.129623 1_655
Hf1 Pb0 3.129626 1_555
Hf2 Pb0 3.129623 1_545
Hf2 Pb0 3.129623 1_655
Hf2 Pb0 3.129626 1_555
Hf3 Pb1 3.129623 1_455
Hf3 Pb1 3.129623 1_565
Hf3 Pb1 3.129626 1_555
C0 Hf0 2.278400 1_545
C0 Hf1 2.278400 1_455
C0 Hf0 2.278403 1_445
C0 Hf0 2.278403 1_555
C0 Hf1 2.278403 1_445
C0 Hf1 2.278403 1_555
C1 Hf3 2.278400 1_545
C1 Hf2 2.278400 1_454
C1 Hf3 2.278403 1_555
C1 Hf3 2.278403 1_445
C1 Hf2 2.278403 1_444
C1 Hf2 2.278403 1_554
