# generated using pymatgen
data_MgAg20(BiO4)4
_symmetry_space_group_name_H-M   'P 1'
_cell_length_a   6.06503322
_cell_length_b   9.33685226
_cell_length_c   12.96634888
_cell_angle_alpha   95.84467493
_cell_angle_beta   91.87379208
_cell_angle_gamma   86.97279578
_symmetry_Int_Tables_number   1
_chemical_formula_structural   MgAg20(BiO4)4
_chemical_formula_sum   'Mg1 Ag20 Bi4 O16'
_cell_volume   729.15038156
_cell_formula_units_Z   1
loop_
 _symmetry_equiv_pos_site_id
 _symmetry_equiv_pos_as_xyz
  1  'x, y, z'
loop_
 _atom_site_type_symbol
 _atom_site_label
 _atom_site_symmetry_multiplicity
 _atom_site_fract_x
 _atom_site_fract_y
 _atom_site_fract_z
 _atom_site_occupancy
  Mg  Mg0  1  0.14400848  0.00156593  0.83025788  1
  Ag  Ag0  1  0.21532291  0.69557206  0.14635314  1
  Ag  Ag1  1  0.79447850  0.81249463  0.62751822  1
  Ag  Ag2  1  0.02104918  0.44392928  0.03173264  1
  Ag  Ag3  1  0.51834332  0.02409498  0.48085463  1
  Ag  Ag4  1  0.05898478  0.17383821  0.63055294  1
  Ag  Ag5  1  0.36432540  0.63195259  0.84183602  1
  Ag  Ag6  1  0.97417682  0.87247079  0.34544159  1
  Ag  Ag7  1  0.53737842  0.33950064  0.16384612  1
  Ag  Ag8  1  0.53346984  0.99097446  0.23923874  1
  Ag  Ag9  1  0.96883819  0.47753590  0.26819831  1
  Ag  Ag10  1  0.53990979  0.06485350  0.73527914  1
  Ag  Ag11  1  0.00550688  0.47905220  0.73951447  1
  Ag  Ag12  1  0.55197260  0.06705145  0.94753232  1
  Ag  Ag13  1  0.00937370  0.53610468  0.49791738  1
  Ag  Ag14  1  0.27734974  0.28401166  0.86281919  1
  Ag  Ag15  1  0.29240745  0.81505985  0.62996084  1
  Ag  Ag16  1  0.71108982  0.69552164  0.15472710  1
  Ag  Ag17  1  0.75827970  0.24044779  0.36360699  1
  Ag  Ag18  1  0.76523495  0.29044704  0.86157273  1
  Ag  Ag19  1  0.25572682  0.24240344  0.36294526  1
  Bi  Bi0  1  0.53709921  0.40355298  0.60839789  1
  Bi  Bi1  1  0.84053704  0.77440119  0.92390690  1
  Bi  Bi2  1  0.48015880  0.64318469  0.39076330  1
  Bi  Bi3  1  0.02230530  0.09470918  0.11753489  1
  O  O0  1  0.11166846  0.31798598  0.15423087  1
  O  O1  1  0.40526804  0.87319247  0.35967883  1
  O  O2  1  0.91943153  0.55101356  0.90069854  1
  O  O3  1  0.64200409  0.17493718  0.59744745  1
  O  O4  1  0.02963518  0.95993959  0.68669849  1
  O  O5  1  0.50345834  0.42747731  0.78777242  1
  O  O6  1  0.00480610  0.14407565  0.93679035  1
  O  O7  1  0.54863614  0.67066222  0.57087353  1
  O  O8  1  0.94036011  0.81736773  0.08548183  1
  O  O9  1  0.50515524  0.38786988  0.42689990  1
  O  O10  1  0.66252525  0.11619175  0.11738763  1
  O  O11  1  0.84001417  0.65768055  0.37949735  1
  O  O12  1  0.16562517  0.81789871  0.88807956  1
  O  O13  1  0.17390891  0.38938433  0.59867884  1
  O  O14  1  0.00982272  0.09419037  0.29506054  1
  O  O15  1  0.47493590  0.56968796  0.21449826  1
loop_
_geom_bond_atom_site_label_1
_geom_bond_atom_site_label_2
_geom_bond_distance
_geom_bond_site_symmetry_2
Mg0 O12 1.936946 1_545
Mg0 O4 1.973296 1_545
Mg0 O6 1.993649 1_555
Ag0 O15 2.136941 1_555
Ag0 O8 2.143283 1_455
Ag1 O4 2.106859 1_655
Ag1 O7 2.110732 1_555
Ag2 O0 2.112525 1_555
Ag2 O2 2.116277 1_454
Ag3 O3 2.106026 1_555
Ag3 O1 2.122476 1_545
Ag4 O4 2.211872 1_545
Ag4 O13 2.245727 1_555
Ag4 O3 2.550957 1_455
Ag5 O12 2.107209 1_555
Ag5 O5 2.108155 1_555
Ag6 O14 2.256323 1_665
Ag6 O11 2.292423 1_555
Ag6 O1 2.615379 1_655
Ag7 O15 2.199263 1_555
Ag7 O10 2.212052 1_555
Ag7 O0 2.598262 1_555
Ag8 O1 2.184548 1_555
Ag8 O10 2.242667 1_565
Ag9 O0 2.156943 1_655
Ag9 O11 2.227727 1_555
Ag10 O3 2.268822 1_555
Ag11 O13 2.190691 1_555
Ag11 O2 2.200059 1_455
Ag12 O10 2.289277 1_556
Ag13 O13 2.171244 1_555
Ag13 O11 2.197723 1_455
Ag14 O5 2.273449 1_555
Ag14 O6 2.438530 1_555
Ag15 O7 2.113267 1_555
Ag15 O4 2.134789 1_555
Ag16 O15 2.113816 1_555
Ag16 O8 2.119142 1_555
Ag17 O9 2.134046 1_555
Ag17 O14 2.145629 1_655
Ag18 O6 2.213417 1_655
Ag18 O5 2.238040 1_555
Ag18 O2 2.647406 1_555
Ag19 O9 2.174052 1_555
Ag19 O14 2.190476 1_555
Bi0 O3 2.186784 1_555
Bi0 O13 2.212412 1_555
Bi0 O5 2.328397 1_555
Bi0 O9 2.345273 1_555
Bi0 O7 2.594081 1_555
Bi1 O2 2.108552 1_555
Bi1 O12 2.109770 1_655
Bi1 O8 2.165224 1_556
Bi2 O11 2.204357 1_555
Bi2 O1 2.245443 1_555
Bi2 O15 2.318108 1_555
Bi2 O7 2.349057 1_555
Bi2 O9 2.471817 1_555
Bi3 O10 2.180660 1_455
Bi3 O0 2.183252 1_555
Bi3 O14 2.306083 1_555
Bi3 O6 2.432023 1_554
Bi3 O8 2.651126 1_445
