# generated using pymatgen
data_MnP3NO9
_symmetry_space_group_name_H-M   'P 1'
_cell_length_a   6.65854155
_cell_length_b   6.65854155
_cell_length_c   9.87653100
_cell_angle_alpha   90.00000000
_cell_angle_beta   90.00000000
_cell_angle_gamma   119.99999549
_symmetry_Int_Tables_number   1
_chemical_formula_structural   MnP3NO9
_chemical_formula_sum   'Mn2 P6 N2 O18'
_cell_volume   379.22181319
_cell_formula_units_Z   2
loop_
 _symmetry_equiv_pos_site_id
 _symmetry_equiv_pos_as_xyz
  1  'x, y, z'
loop_
 _atom_site_type_symbol
 _atom_site_label
 _atom_site_symmetry_multiplicity
 _atom_site_fract_x
 _atom_site_fract_y
 _atom_site_fract_z
 _atom_site_occupancy
  Mn  Mn0  1  0.00000000  0.00000000  0.00000000  1
  Mn  Mn1  1  0.00000000  0.00000000  0.50000000  1
  P  P0  1  0.72496200  0.10823600  0.25000000  1
  P  P1  1  0.89176400  0.61672500  0.25000000  1
  P  P2  1  0.72496200  0.61672500  0.75000000  1
  P  P3  1  0.38327500  0.27503800  0.25000000  1
  P  P4  1  0.89176400  0.27503800  0.75000000  1
  P  P5  1  0.38327500  0.10823600  0.75000000  1
  N  N0  1  0.33333300  0.66666700  0.00000000  1
  N  N1  1  0.33333300  0.66666700  0.50000000  1
  O  O0  1  0.25676100  0.25343200  0.11997800  1
  O  O1  1  0.74656800  0.00332900  0.11997800  1
  O  O2  1  0.25676100  0.25343200  0.38002200  1
  O  O3  1  0.25676100  0.00332900  0.61997800  1
  O  O4  1  0.99667100  0.74323900  0.11997800  1
  O  O5  1  0.74656800  0.00332900  0.38002200  1
  O  O6  1  0.74656800  0.74323900  0.61997800  1
  O  O7  1  0.25676100  0.00332900  0.88002200  1
  O  O8  1  0.99667100  0.74323900  0.38002200  1
  O  O9  1  0.74656800  0.74323900  0.88002200  1
  O  O10  1  0.99667100  0.25343200  0.61997800  1
  O  O11  1  0.99667100  0.25343200  0.88002200  1
  O  O12  1  0.47733100  0.09368800  0.25000000  1
  O  O13  1  0.90631200  0.38364300  0.25000000  1
  O  O14  1  0.47733100  0.38364300  0.75000000  1
  O  O15  1  0.61635700  0.52266900  0.25000000  1
  O  O16  1  0.90631200  0.52266900  0.75000000  1
  O  O17  1  0.61635700  0.09368800  0.75000000  1
loop_
_geom_bond_atom_site_label_1
_geom_bond_atom_site_label_2
_geom_bond_distance
_geom_bond_site_symmetry_2
Mn0 O1 2.071149 1_455
Mn0 O11 2.071149 1_454
Mn0 O4 2.071149 1_445
Mn0 O7 2.071149 1_554
Mn0 O9 2.071149 1_444
Mn0 O0 2.071149 1_555
Mn1 O5 2.071149 1_455
Mn1 O10 2.071149 1_455
Mn1 O3 2.071149 1_555
Mn1 O8 2.071149 1_445
Mn1 O2 2.071149 1_555
Mn1 O6 2.071149 1_445
O0 P3 1.502739 1_555
O1 P0 1.502736 1_555
O2 P3 1.502739 1_555
O3 P5 1.502738 1_555
O4 P1 1.502738 1_555
O5 P0 1.502736 1_555
O6 P2 1.502739 1_555
O7 P5 1.502738 1_555
O8 P1 1.502738 1_555
O9 P2 1.502739 1_555
O10 P4 1.502736 1_555
O11 P4 1.502736 1_555
O12 P0 1.602624 1_555
O12 P3 1.614493 1_555
O13 P1 1.602618 1_555
O13 P0 1.614498 1_555
O14 P2 1.602621 1_555
O14 P5 1.614499 1_555
O15 P3 1.602621 1_555
O15 P1 1.614499 1_555
O16 P4 1.602624 1_555
O16 P2 1.614493 1_555
O17 P5 1.602618 1_555
O17 P4 1.614498 1_555
