# generated using pymatgen
data_Gd(Zn10Co)2
_symmetry_space_group_name_H-M   'P 1'
_cell_length_a   9.93305281
_cell_length_b   9.93305281
_cell_length_c   9.93305281
_cell_angle_alpha   60.00000000
_cell_angle_beta   60.00000000
_cell_angle_gamma   60.00000000
_symmetry_Int_Tables_number   1
_chemical_formula_structural   Gd(Zn10Co)2
_chemical_formula_sum   'Gd2 Zn40 Co4'
_cell_volume   693.00000147
_cell_formula_units_Z   2
loop_
 _symmetry_equiv_pos_site_id
 _symmetry_equiv_pos_as_xyz
  1  'x, y, z'
loop_
 _atom_site_type_symbol
 _atom_site_label
 _atom_site_symmetry_multiplicity
 _atom_site_fract_x
 _atom_site_fract_y
 _atom_site_fract_z
 _atom_site_occupancy
  Gd  Gd0  1  0.50000000  0.50000000  0.50000000  1
  Gd  Gd1  1  0.75000000  0.75000000  0.75000000  1
  Zn  Zn0  1  0.56891900  0.29894200  0.29894200  1
  Zn  Zn1  1  0.29894200  0.56891900  0.83319700  1
  Zn  Zn2  1  0.29894200  0.83319700  0.56891900  1
  Zn  Zn3  1  0.83319700  0.29894200  0.29894200  1
  Zn  Zn4  1  0.29894200  0.29894200  0.56891900  1
  Zn  Zn5  1  0.56891900  0.83319700  0.29894200  1
  Zn  Zn6  1  0.83319700  0.56891900  0.29894200  1
  Zn  Zn7  1  0.29894200  0.29894200  0.83319700  1
  Zn  Zn8  1  0.29894200  0.56891900  0.29894200  1
  Zn  Zn9  1  0.83319700  0.29894200  0.56891900  1
  Zn  Zn10  1  0.56891900  0.29894200  0.83319700  1
  Zn  Zn11  1  0.29894200  0.83319700  0.29894200  1
  Zn  Zn12  1  0.68108100  0.95105800  0.95105800  1
  Zn  Zn13  1  0.95105800  0.68108100  0.41680300  1
  Zn  Zn14  1  0.95105800  0.41680300  0.68108100  1
  Zn  Zn15  1  0.41680300  0.95105800  0.95105800  1
  Zn  Zn16  1  0.95105800  0.95105800  0.68108100  1
  Zn  Zn17  1  0.68108100  0.41680300  0.95105800  1
  Zn  Zn18  1  0.41680300  0.68108100  0.95105800  1
  Zn  Zn19  1  0.95105800  0.95105800  0.41680300  1
  Zn  Zn20  1  0.95105800  0.68108100  0.95105800  1
  Zn  Zn21  1  0.41680300  0.95105800  0.68108100  1
  Zn  Zn22  1  0.68108100  0.95105800  0.41680300  1
  Zn  Zn23  1  0.95105800  0.41680300  0.95105800  1
  Zn  Zn24  1  0.86402600  0.86402600  0.13597400  1
  Zn  Zn25  1  0.13597400  0.13597400  0.86402600  1
  Zn  Zn26  1  0.86402600  0.13597400  0.86402600  1
  Zn  Zn27  1  0.13597400  0.86402600  0.13597400  1
  Zn  Zn28  1  0.13597400  0.86402600  0.86402600  1
  Zn  Zn29  1  0.86402600  0.13597400  0.13597400  1
  Zn  Zn30  1  0.38597400  0.38597400  0.11402600  1
  Zn  Zn31  1  0.11402600  0.11402600  0.38597400  1
  Zn  Zn32  1  0.38597400  0.11402600  0.38597400  1
  Zn  Zn33  1  0.11402600  0.38597400  0.11402600  1
  Zn  Zn34  1  0.11402600  0.38597400  0.38597400  1
  Zn  Zn35  1  0.38597400  0.11402600  0.11402600  1
  Zn  Zn36  1  0.12500000  0.62500000  0.62500000  1
  Zn  Zn37  1  0.62500000  0.12500000  0.62500000  1
  Zn  Zn38  1  0.62500000  0.62500000  0.12500000  1
  Zn  Zn39  1  0.62500000  0.62500000  0.62500000  1
  Co  Co0  1  0.62500000  0.12500000  0.12500000  1
  Co  Co1  1  0.12500000  0.62500000  0.12500000  1
  Co  Co2  1  0.12500000  0.12500000  0.62500000  1
  Co  Co3  1  0.12500000  0.12500000  0.12500000  1
loop_
_geom_bond_atom_site_label_1
_geom_bond_atom_site_label_2
_geom_bond_distance
_geom_bond_site_symmetry_2
Gd0 Zn39 3.041364 1_555
Gd0 Zn37 3.041364 1_555
Gd0 Zn38 3.041364 1_555
Gd0 Zn36 3.041364 1_555
Gd0 Zn9 3.114441 1_555
Gd0 Zn6 3.114441 1_555
Gd0 Zn10 3.114441 1_555
Gd0 Zn1 3.114441 1_555
Gd0 Zn5 3.114441 1_555
Gd0 Zn2 3.114441 1_555
Gd0 Zn11 3.114441 1_555
Gd0 Zn3 3.114441 1_555
Gd0 Zn7 3.114441 1_555
Gd0 Zn0 3.114441 1_555
Gd0 Zn4 3.114441 1_555
Gd0 Zn8 3.114441 1_555
Gd1 Zn38 3.041364 1_556
Gd1 Zn39 3.041364 1_555
Gd1 Zn37 3.041364 1_565
Gd1 Zn36 3.041364 1_655
Gd1 Zn23 3.114441 1_555
Gd1 Zn20 3.114441 1_555
Gd1 Zn12 3.114441 1_555
Gd1 Zn16 3.114441 1_555
Gd1 Zn15 3.114441 1_555
Gd1 Zn14 3.114441 1_555
Gd1 Zn21 3.114441 1_555
Gd1 Zn22 3.114441 1_555
Gd1 Zn18 3.114441 1_555
Gd1 Zn19 3.114441 1_555
Gd1 Zn13 3.114441 1_555
Gd1 Zn17 3.114441 1_555
Zn0 Zn3 2.625087 1_555
Zn0 Zn29 2.638864 1_555
Zn0 Zn4 2.681696 1_555
Zn0 Zn8 2.681696 1_555
Zn0 Zn30 2.757226 1_555
Zn0 Zn32 2.757226 1_555
Zn0 Zn22 2.821634 1_545
Zn0 Zn17 2.821634 1_554
Zn0 Zn37 3.005144 1_555
Zn0 Zn38 3.005144 1_555
Zn1 Zn2 2.625087 1_555
Zn1 Zn28 2.638864 1_555
Zn1 Zn7 2.681696 1_555
Zn1 Zn10 2.681696 1_555
Zn1 Zn33 2.757226 1_556
Zn1 Zn30 2.757226 1_556
Zn1 Zn20 2.821634 1_455
Zn1 Zn18 2.821634 1_555
Zn1 Zn36 3.005144 1_555
Zn1 Zn39 3.005144 1_555
Zn2 Zn28 2.638864 1_555
Zn2 Zn5 2.681696 1_555
Zn2 Zn31 2.757226 1_565
Zn2 Zn32 2.757226 1_565
Zn2 Zn21 2.821634 1_555
Zn2 Zn36 3.005144 1_555
Zn2 Zn39 3.005144 1_555
Zn3 Zn9 2.681696 1_555
Zn3 Zn6 2.681696 1_555
Zn3 Zn31 2.757226 1_655
Zn3 Zn33 2.757226 1_655
Zn3 Zn37 3.005144 1_555
Zn3 Zn38 3.005144 1_555
Zn4 Zn7 2.625087 1_555
Zn4 Zn8 2.681696 1_555
Zn5 Zn6 2.625087 1_555
Zn6 Zn9 2.681696 1_555
Zn10 Zn9 2.625087 1_555
Zn10 Zn26 2.638864 1_555
Zn10 Zn7 2.681696 1_555
Zn10 Zn35 2.757226 1_556
Zn10 Zn30 2.757226 1_556
Zn10 Zn12 2.821634 1_545
Zn10 Zn17 2.821634 1_555
Zn10 Zn37 3.005144 1_555
Zn10 Zn39 3.005144 1_555
Zn11 Zn8 2.625087 1_555
Zn11 Zn27 2.638864 1_555
Zn11 Zn5 2.681696 1_555
Zn11 Zn2 2.681696 1_555
Zn11 Zn35 2.757226 1_565
Zn11 Zn31 2.757226 1_565
Zn11 Zn15 2.821634 1_554
Zn11 Zn19 2.821634 1_455
Zn11 Zn38 3.005144 1_555
Zn11 Zn36 3.005144 1_555
Zn12 Zn15 2.625087 1_555
Zn12 Zn35 2.638864 1_566
Zn12 Zn20 2.681696 1_555
Zn12 Zn16 2.681696 1_555
Zn12 Zn24 2.757226 1_556
Zn12 Zn26 2.757226 1_565
Zn12 Zn5 2.821634 1_556
Zn12 Zn37 3.005144 1_565
Zn12 Zn38 3.005144 1_556
Zn13 Zn14 2.625087 1_555
Zn13 Zn34 2.638864 1_655
Zn13 Zn22 2.681696 1_555
Zn13 Zn19 2.681696 1_555
Zn13 Zn24 2.757226 1_555
Zn13 Zn27 2.757226 1_655
Zn13 Zn8 2.821634 1_655
Zn13 Zn6 2.821634 1_555
Zn13 Zn39 3.005144 1_555
Zn13 Zn36 3.005144 1_655
Zn14 Zn34 2.638864 1_655
Zn14 Zn23 2.681696 1_555
Zn14 Zn17 2.681696 1_555
Zn14 Zn25 2.757226 1_655
Zn14 Zn26 2.757226 1_555
Zn14 Zn9 2.821634 1_555
Zn14 Zn4 2.821634 1_655
Zn14 Zn39 3.005144 1_555
Zn14 Zn36 3.005144 1_655
Zn15 Zn35 2.638864 1_566
Zn15 Zn21 2.681696 1_555
Zn15 Zn18 2.681696 1_555
Zn15 Zn27 2.757226 1_556
Zn15 Zn25 2.757226 1_565
Zn15 Zn7 2.821634 1_565
Zn15 Zn37 3.005144 1_565
Zn15 Zn38 3.005144 1_556
Zn16 Zn19 2.625087 1_555
Zn16 Zn31 2.638864 1_665
Zn16 Zn20 2.681696 1_555
Zn16 Zn28 2.757226 1_655
Zn16 Zn26 2.757226 1_565
Zn16 Zn9 2.821634 1_565
Zn16 Zn2 2.821634 1_655
Zn16 Zn37 3.005144 1_565
Zn16 Zn36 3.005144 1_655
Zn17 Zn18 2.625087 1_555
Zn17 Zn30 2.638864 1_556
Zn17 Zn23 2.681696 1_555
Zn17 Zn26 2.757226 1_555
Zn17 Zn29 2.757226 1_556
Zn17 Zn39 3.005144 1_555
Zn17 Zn38 3.005144 1_556
Zn18 Zn30 2.638864 1_556
Zn18 Zn21 2.681696 1_555
Zn18 Zn27 2.757226 1_556
Zn18 Zn28 2.757226 1_555
Zn18 Zn8 2.821634 1_556
Zn18 Zn39 3.005144 1_555
Zn18 Zn38 3.005144 1_556
Zn19 Zn31 2.638864 1_665
Zn19 Zn22 2.681696 1_555
Zn19 Zn29 2.757226 1_565
Zn19 Zn27 2.757226 1_655
Zn19 Zn3 2.821634 1_565
Zn19 Zn37 3.005144 1_565
Zn19 Zn36 3.005144 1_655
Zn20 Zn23 2.625087 1_555
Zn20 Zn33 2.638864 1_656
Zn20 Zn24 2.757226 1_556
Zn20 Zn28 2.757226 1_655
Zn20 Zn6 2.821634 1_556
Zn20 Zn38 3.005144 1_556
Zn20 Zn36 3.005144 1_655
Zn21 Zn22 2.625087 1_555
Zn21 Zn32 2.638864 1_565
Zn21 Zn25 2.757226 1_565
Zn21 Zn28 2.757226 1_555
Zn21 Zn4 2.821634 1_565
Zn21 Zn39 3.005144 1_555
Zn21 Zn37 3.005144 1_565
Zn22 Zn32 2.638864 1_565
Zn22 Zn29 2.757226 1_565
Zn22 Zn24 2.757226 1_555
Zn22 Zn5 2.821634 1_555
Zn22 Zn37 3.005144 1_565
Zn22 Zn39 3.005144 1_555
Zn23 Zn33 2.638864 1_656
Zn23 Zn25 2.757226 1_655
Zn23 Zn29 2.757226 1_556
Zn23 Zn3 2.821634 1_556
Zn23 Zn7 2.821634 1_655
Zn23 Zn36 3.005144 1_655
Zn23 Zn38 3.005144 1_556
Zn24 Zn5 2.638864 1_555
Zn24 Zn6 2.638864 1_555
Zn24 Zn27 2.701274 1_655
Zn24 Zn29 2.701274 1_565
Zn24 Zn28 2.701274 1_654
Zn24 Zn26 2.701274 1_564
Zn25 Zn7 2.638864 1_555
Zn25 Zn4 2.638864 1_555
Zn25 Zn27 2.701274 1_546
Zn25 Zn28 2.701274 1_545
Zn25 Zn26 2.701274 1_455
Zn25 Zn29 2.701274 1_456
Zn26 Zn9 2.638864 1_555
Zn26 Zn28 2.701274 1_645
Zn26 Zn29 2.701274 1_556
Zn27 Zn8 2.638864 1_555
Zn27 Zn28 2.701274 1_554
Zn27 Zn29 2.701274 1_465
Zn29 Zn3 2.638864 1_555
Zn30 Zn34 2.701274 1_555
Zn30 Zn35 2.701274 1_555
Zn30 Zn32 2.701274 1_555
Zn30 Zn33 2.701274 1_555
Zn30 Zn8 2.757226 1_555
Zn31 Zn34 2.701274 1_555
Zn31 Zn35 2.701274 1_555
Zn31 Zn32 2.701274 1_555
Zn31 Zn33 2.701274 1_555
Zn31 Zn9 2.757226 1_455
Zn32 Zn34 2.701274 1_555
Zn32 Zn35 2.701274 1_555
Zn32 Zn4 2.757226 1_555
Zn32 Zn5 2.757226 1_545
Zn33 Zn34 2.701274 1_555
Zn33 Zn35 2.701274 1_555
Zn33 Zn6 2.757226 1_455
Zn33 Zn7 2.757226 1_554
Zn34 Zn4 2.757226 1_555
Zn34 Zn8 2.757226 1_555
Zn34 Zn9 2.757226 1_455
Zn34 Zn6 2.757226 1_455
Zn35 Zn5 2.757226 1_545
Zn35 Zn7 2.757226 1_554
Zn36 Zn7 3.005144 1_555
Zn36 Zn4 3.005144 1_555
Zn36 Zn8 3.005144 1_555
Zn37 Zn9 3.005144 1_555
Zn37 Zn7 3.005144 1_555
Zn37 Zn4 3.005144 1_555
Zn38 Zn5 3.005144 1_555
Zn38 Zn6 3.005144 1_555
Zn38 Zn8 3.005144 1_555
Zn39 Zn5 3.005144 1_555
Zn39 Zn9 3.005144 1_555
Zn39 Zn6 3.005144 1_555
Co0 Zn26 2.488043 1_554
Co0 Zn29 2.488043 1_555
Co0 Zn30 2.488043 1_555
Co0 Zn24 2.488043 1_545
Co0 Zn32 2.488043 1_555
Co0 Zn35 2.488043 1_555
Co0 Zn0 2.709428 1_555
Co0 Zn17 2.709428 1_554
Co0 Zn22 2.709428 1_545
Co0 Zn5 2.709428 1_545
Co0 Zn10 2.709428 1_554
Co0 Zn12 2.709428 1_544
Co1 Zn24 2.488043 1_455
Co1 Zn28 2.488043 1_554
Co1 Zn27 2.488043 1_555
Co1 Zn30 2.488043 1_555
Co1 Zn34 2.488043 1_555
Co1 Zn33 2.488043 1_555
Co1 Zn8 2.709428 1_555
Co1 Zn18 2.709428 1_554
Co1 Zn13 2.709428 1_455
Co1 Zn1 2.709428 1_554
Co1 Zn20 2.709428 1_454
Co1 Zn6 2.709428 1_455
Co2 Zn28 2.488043 1_545
Co2 Zn25 2.488043 1_555
Co2 Zn31 2.488043 1_555
Co2 Zn26 2.488043 1_455
Co2 Zn32 2.488043 1_555
Co2 Zn34 2.488043 1_555
Co2 Zn4 2.709428 1_555
Co2 Zn21 2.709428 1_545
Co2 Zn14 2.709428 1_455
Co2 Zn16 2.709428 1_445
Co2 Zn9 2.709428 1_455
Co2 Zn2 2.709428 1_545
Co3 Zn31 2.488043 1_555
Co3 Zn35 2.488043 1_555
Co3 Zn33 2.488043 1_555
Co3 Zn25 2.488043 1_554
Co3 Zn27 2.488043 1_545
Co3 Zn29 2.488043 1_455
Co3 Zn11 2.709428 1_545
Co3 Zn7 2.709428 1_554
Co3 Zn15 2.709428 1_544
Co3 Zn19 2.709428 1_445
Co3 Zn3 2.709428 1_455
Co3 Zn23 2.709428 1_454
