# generated using pymatgen
data_BaBr2O11
_symmetry_space_group_name_H-M   'P 1'
_cell_length_a   7.07106532
_cell_length_b   7.07106532
_cell_length_c   11.98610800
_cell_angle_alpha   90.00000000
_cell_angle_beta   90.00000000
_cell_angle_gamma   119.99999362
_symmetry_Int_Tables_number   1
_chemical_formula_structural   BaBr2O11
_chemical_formula_sum   'Ba2 Br4 O22'
_cell_volume   519.01336827
_cell_formula_units_Z   2
loop_
 _symmetry_equiv_pos_site_id
 _symmetry_equiv_pos_as_xyz
  1  'x, y, z'
loop_
 _atom_site_type_symbol
 _atom_site_label
 _atom_site_symmetry_multiplicity
 _atom_site_fract_x
 _atom_site_fract_y
 _atom_site_fract_z
 _atom_site_occupancy
  Ba  Ba0  1  0.00000000  0.00000000  0.50000000  1
  Ba  Ba1  1  0.00000000  0.00000000  0.00000000  1
  Br  Br0  1  0.66666700  0.33333300  0.53186200  1
  Br  Br1  1  0.33333300  0.66666700  0.03186200  1
  Br  Br2  1  0.33333300  0.66666700  0.46813800  1
  Br  Br3  1  0.66666700  0.33333300  0.96813800  1
  O  O0  1  0.66666700  0.33333300  0.39571900  1
  O  O1  1  0.33333300  0.66666700  0.89571900  1
  O  O2  1  0.33333300  0.66666700  0.60428100  1
  O  O3  1  0.66666700  0.33333300  0.10428100  1
  O  O4  1  0.73678700  0.57783800  0.58236000  1
  O  O5  1  0.42216200  0.15894800  0.58236000  1
  O  O6  1  0.84105200  0.26321300  0.58236000  1
  O  O7  1  0.26321300  0.42216200  0.08236000  1
  O  O8  1  0.57783800  0.84105200  0.08236000  1
  O  O9  1  0.15894800  0.73678700  0.08236000  1
  O  O10  1  0.26321300  0.42216200  0.41764000  1
  O  O11  1  0.57783800  0.84105200  0.41764000  1
  O  O12  1  0.15894800  0.73678700  0.41764000  1
  O  O13  1  0.73678700  0.57783800  0.91764000  1
  O  O14  1  0.42216200  0.15894800  0.91764000  1
  O  O15  1  0.84105200  0.26321300  0.91764000  1
  O  O16  1  0.04981600  0.91401900  0.75000000  1
  O  O17  1  0.08598100  0.13579700  0.75000000  1
  O  O18  1  0.86420300  0.95018400  0.75000000  1
  O  O19  1  0.95018400  0.08598100  0.25000000  1
  O  O20  1  0.91401900  0.86420300  0.25000000  1
  O  O21  1  0.13579700  0.04981600  0.25000000  1
loop_
_geom_bond_atom_site_label_1
_geom_bond_atom_site_label_2
_geom_bond_distance
_geom_bond_site_symmetry_2
Ba0 O6 2.791710 1_455
Ba0 O12 2.791710 1_545
Ba0 O10 2.791716 1_555
Ba0 O4 2.791716 1_445
Ba0 O5 2.791717 1_555
Ba0 O11 2.791717 1_445
Ba0 O16 3.112403 1_545
Ba0 O19 3.112403 1_455
Ba0 O21 3.112403 1_555
Ba0 O18 3.112403 1_445
Ba0 O20 3.112403 1_445
Ba0 O17 3.112403 1_555
Ba1 O15 2.791710 1_454
Ba1 O9 2.791710 1_545
Ba1 O7 2.791716 1_555
Ba1 O13 2.791716 1_444
Ba1 O14 2.791717 1_554
Ba1 O8 2.791717 1_445
Ba1 O16 3.112403 1_544
Ba1 O19 3.112403 1_455
Ba1 O21 3.112403 1_555
Ba1 O18 3.112403 1_444
Ba1 O20 3.112403 1_445
Ba1 O17 3.112403 1_554
Br0 O0 1.631825 1_555
Br0 O6 1.656531 1_555
Br0 O4 1.656532 1_555
Br0 O5 1.656532 1_555
Br1 O1 1.631825 1_554
Br1 O9 1.656531 1_555
Br1 O7 1.656532 1_555
Br1 O8 1.656532 1_555
Br2 O2 1.631825 1_555
Br2 O12 1.656531 1_555
Br2 O10 1.656532 1_555
Br2 O11 1.656532 1_555
Br3 O3 1.631825 1_556
Br3 O15 1.656531 1_555
Br3 O13 1.656532 1_555
Br3 O14 1.656532 1_555
O16 O18 1.457271 1_455
O16 O17 1.457271 1_565
O17 O18 1.457271 1_445
O19 O21 1.457271 1_655
O19 O20 1.457271 1_545
O20 O21 1.457271 1_665
