# generated using pymatgen
data_V3Si3O10
_symmetry_space_group_name_H-M   'P 1'
_cell_length_a   4.82249600
_cell_length_b   7.98302558
_cell_length_c   10.65072629
_cell_angle_alpha   90.84172485
_cell_angle_beta   90.42657286
_cell_angle_gamma   107.47630306
_symmetry_Int_Tables_number   1
_chemical_formula_structural   V3Si3O10
_chemical_formula_sum   'V6 Si6 O20'
_cell_volume   391.03378874
_cell_formula_units_Z   2
loop_
 _symmetry_equiv_pos_site_id
 _symmetry_equiv_pos_as_xyz
  1  'x, y, z'
loop_
 _atom_site_type_symbol
 _atom_site_label
 _atom_site_symmetry_multiplicity
 _atom_site_fract_x
 _atom_site_fract_y
 _atom_site_fract_z
 _atom_site_occupancy
  V  V0  1  0.60017800  0.69483600  0.72515200  1
  V  V1  1  0.91740800  0.30739500  0.77618800  1
  V  V2  1  0.00000000  0.50000000  0.50000000  1
  V  V3  1  0.08259200  0.69260500  0.22381200  1
  V  V4  1  0.50000000  0.50000000  0.00000000  1
  V  V5  1  0.39982200  0.30516400  0.27484800  1
  Si  Si0  1  0.53509300  0.69579600  0.40859800  1
  Si  Si1  1  0.15275000  0.69795300  0.91174600  1
  Si  Si2  1  0.80854200  0.00005900  0.25202200  1
  Si  Si3  1  0.84725000  0.30204700  0.08825400  1
  Si  Si4  1  0.46490700  0.30420400  0.59140200  1
  Si  Si5  1  0.19145800  0.99994100  0.74797800  1
  O  O0  1  0.50859200  0.86404400  0.32236000  1
  O  O1  1  0.38947500  0.67883400  0.54714500  1
  O  O2  1  0.27498600  0.53444000  0.33392300  1
  O  O3  1  0.06596200  0.13000500  0.83658500  1
  O  O4  1  0.19276200  0.32498500  0.09592000  1
  O  O5  1  0.14119900  0.32526700  0.60287900  1
  O  O6  1  0.04485600  0.12133500  0.34428200  1
  O  O7  1  0.23438100  0.52850100  0.83780300  1
  O  O8  1  0.29044300  0.68177800  0.05067700  1
  O  O9  1  0.34296000  0.87211300  0.83366300  1
  O  O10  1  0.65704000  0.12788700  0.16633700  1
  O  O11  1  0.70955700  0.31822200  0.94932300  1
  O  O12  1  0.76561900  0.47149900  0.16219700  1
  O  O13  1  0.95514400  0.87866500  0.65571800  1
  O  O14  1  0.85880100  0.67473300  0.39712100  1
  O  O15  1  0.80723800  0.67501500  0.90408000  1
  O  O16  1  0.93403800  0.86999500  0.16341500  1
  O  O17  1  0.72501400  0.46556000  0.66607700  1
  O  O18  1  0.61052500  0.32116600  0.45285500  1
  O  O19  1  0.49140800  0.13595600  0.67764000  1
loop_
_geom_bond_atom_site_label_1
_geom_bond_atom_site_label_2
_geom_bond_distance
_geom_bond_site_symmetry_2
O0 Si0 1.673786 1_555
O0 Si2 1.711512 1_565
O0 V3 2.330707 1_555
O1 Si0 1.628846 1_555
O1 V2 2.042652 1_555
O1 V0 2.128261 1_555
O2 Si0 1.688138 1_555
O2 V3 2.135743 1_555
O2 V5 2.177612 1_555
O2 V2 2.189340 1_555
O3 Si5 1.640765 1_545
O3 V1 1.887228 1_455
O4 Si3 1.621974 1_455
O4 V4 2.003037 1_555
O4 V5 2.174695 1_555
O5 Si4 1.624833 1_555
O5 V2 2.052884 1_555
O5 V1 2.130079 1_455
O6 Si2 1.579342 1_455
O6 V5 2.042723 1_555
O7 Si1 1.702431 1_555
O7 V1 2.052636 1_455
O7 V4 2.197851 1_556
O7 V0 2.232950 1_555
O8 Si1 1.640013 1_554
O8 V4 2.069865 1_555
O8 V3 2.118362 1_555
O9 Si1 1.656920 1_555
O9 Si5 1.695056 1_555
O9 V0 2.429988 1_555
O10 Si3 1.656920 1_555
O10 Si2 1.695056 1_555
O10 V5 2.429988 1_555
O11 Si3 1.640013 1_556
O11 V4 2.069865 1_556
O11 V1 2.118362 1_555
O12 Si3 1.702431 1_555
O12 V3 2.052636 1_655
O12 V4 2.197851 1_555
O12 V5 2.232950 1_555
O13 Si5 1.579342 1_655
O13 V0 2.042723 1_555
O14 Si0 1.624833 1_555
O14 V2 2.052884 1_655
O14 V3 2.130079 1_655
O15 Si1 1.621974 1_655
O15 V4 2.003037 1_556
O15 V0 2.174695 1_555
O16 Si2 1.640765 1_565
O16 V3 1.887228 1_655
O17 Si4 1.688138 1_555
O17 V1 2.135743 1_555
O17 V0 2.177612 1_555
O17 V2 2.189340 1_655
O18 Si4 1.628846 1_555
O18 V2 2.042652 1_655
O18 V5 2.128261 1_555
O19 Si4 1.673786 1_555
O19 Si5 1.711512 1_545
O19 V1 2.330707 1_555
