# generated using pymatgen
data_Li9Mn2Co5O16
_symmetry_space_group_name_H-M   'P 1'
_cell_length_a   2.92211600
_cell_length_b   9.84664200
_cell_length_c   10.24195246
_cell_angle_alpha   80.45906679
_cell_angle_beta   90.00000000
_cell_angle_gamma   90.00000000
_symmetry_Int_Tables_number   1
_chemical_formula_structural   Li9Mn2Co5O16
_chemical_formula_sum   'Li9 Mn2 Co5 O16'
_cell_volume   290.61566081
_cell_formula_units_Z   1
loop_
 _symmetry_equiv_pos_site_id
 _symmetry_equiv_pos_as_xyz
  1  'x, y, z'
loop_
 _atom_site_type_symbol
 _atom_site_label
 _atom_site_symmetry_multiplicity
 _atom_site_fract_x
 _atom_site_fract_y
 _atom_site_fract_z
 _atom_site_occupancy
  Li  Li0  1  0.50000000  0.25002900  0.86951200  1
  Li  Li1  1  0.50000000  0.76173000  0.62438400  1
  Li  Li2  1  0.50000000  0.24420500  0.38891200  1
  Li  Li3  1  0.00000000  0.25243800  0.61848800  1
  Li  Li4  1  0.00000000  0.75355600  0.38053800  1
  Li  Li5  1  0.00000000  0.25569500  0.12884300  1
  Li  Li6  1  0.50000000  0.73928400  0.12635600  1
  Li  Li7  1  0.00000000  0.75277000  0.86471400  1
  Li  Li8  1  0.00000000  0.99503400  0.49962800  1
  Mn  Mn0  1  0.00000000  0.99772400  0.99987600  1
  Mn  Mn1  1  0.50000000  0.99737000  0.25819300  1
  Co  Co0  1  0.00000000  0.50198800  0.74965100  1
  Co  Co1  1  0.00000000  0.49737700  0.25075700  1
  Co  Co2  1  0.50000000  0.50213100  0.49969300  1
  Co  Co3  1  0.50000000  0.49902300  0.99961600  1
  Co  Co4  1  0.50000000  0.00883200  0.72394300  1
  O  O0  1  0.50000000  0.10529800  0.06398200  1
  O  O1  1  0.50000000  0.61455500  0.81308700  1
  O  O2  1  0.50000000  0.12739700  0.57181800  1
  O  O3  1  0.00000000  0.10567900  0.83048000  1
  O  O4  1  0.00000000  0.61545600  0.56044900  1
  O  O5  1  0.00000000  0.11092500  0.30114300  1
  O  O6  1  0.50000000  0.61279700  0.30912300  1
  O  O7  1  0.00000000  0.61342200  0.06190700  1
  O  O8  1  0.50000000  0.38793900  0.68927500  1
  O  O9  1  0.50000000  0.88465900  0.41624500  1
  O  O10  1  0.50000000  0.38207900  0.18889000  1
  O  O11  1  0.00000000  0.38629100  0.43808000  1
  O  O12  1  0.00000000  0.89283400  0.18570600  1
  O  O13  1  0.00000000  0.38406200  0.93961400  1
  O  O14  1  0.50000000  0.88571000  0.95426000  1
  O  O15  1  0.00000000  0.88171300  0.69283700  1
loop_
_geom_bond_atom_site_label_1
_geom_bond_atom_site_label_2
_geom_bond_distance
_geom_bond_site_symmetry_2
Li0 O8 2.102539 1_555
Li0 O3 2.122060 1_655
Li0 O3 2.122060 1_555
Li0 O13 2.169359 1_655
Li0 O13 2.169359 1_555
Li0 O0 2.248791 1_556
Li1 O15 2.072819 1_655
Li1 O15 2.072819 1_555
Li1 O1 2.215157 1_555
Li1 O4 2.224999 1_555
Li1 O4 2.224999 1_655
Li1 O9 2.270269 1_555
Li2 O2 2.029267 1_555
Li2 O11 2.139914 1_555
Li2 O11 2.139914 1_655
Li2 O5 2.248584 1_655
Li2 O5 2.248584 1_555
Li2 O10 2.262281 1_555
Li3 O2 2.018465 1_555
Li3 O2 2.018465 1_455
Li3 O11 2.084207 1_555
Li3 O8 2.182006 1_455
Li3 O8 2.182006 1_555
Li3 O3 2.400480 1_555
Li4 O9 2.022727 1_455
Li4 O9 2.022727 1_555
Li4 O4 2.100904 1_555
Li4 O6 2.219629 1_455
Li4 O6 2.219629 1_555
Li4 O12 2.226085 1_555
Li5 O5 2.076596 1_555
Li5 O10 2.077331 1_455
Li5 O10 2.077331 1_555
Li5 O13 2.131127 1_554
Li5 O0 2.257254 1_455
Li5 O0 2.257254 1_555
Li6 O6 2.069375 1_555
Li6 O14 2.084010 1_554
Li6 O7 2.092247 1_655
Li6 O7 2.092247 1_555
Li6 O12 2.257178 1_655
Li6 O12 2.257178 1_555
Li7 O15 1.992474 1_555
Li7 O1 2.122506 1_455
Li7 O1 2.122506 1_555
Li7 O7 2.245658 1_556
Li7 O14 2.255505 1_455
Li7 O14 2.255505 1_555
Li8 O9 2.086357 1_555
Li8 O9 2.086357 1_455
Li8 O15 2.104495 1_555
Li8 O5 2.160035 1_565
Li8 O2 2.167827 1_565
Li8 O2 2.167827 1_465
Mn0 O3 1.878462 1_565
Mn0 O14 1.933989 1_455
Mn0 O14 1.933989 1_555
Mn0 O0 1.979475 1_566
Mn0 O0 1.979475 1_466
Mn0 O12 2.009345 1_556
Mn1 O9 1.804588 1_555
Mn1 O5 1.934289 1_565
Mn1 O5 1.934289 1_665
Mn1 O12 1.999677 1_655
Mn1 O12 1.999677 1_555
Mn1 O0 2.094075 1_565
Co0 O8 2.002100 1_555
Co0 O8 2.002100 1_455
Co0 O1 2.006018 1_555
Co0 O1 2.006018 1_455
Co0 O4 2.070180 1_555
Co0 O13 2.093975 1_555
Co1 O6 2.002219 1_455
Co1 O6 2.002219 1_555
Co1 O10 2.015828 1_555
Co1 O10 2.015828 1_455
Co1 O11 2.044900 1_555
Co1 O7 2.077040 1_555
Co2 O4 1.999312 1_555
Co2 O4 1.999312 1_655
Co2 O11 2.018058 1_655
Co2 O11 2.018058 1_555
Co2 O6 2.071694 1_555
Co2 O8 2.076221 1_555
Co3 O13 2.006074 1_555
Co3 O13 2.006074 1_655
Co3 O7 2.012170 1_556
Co3 O7 2.012170 1_656
Co3 O1 2.055089 1_555
Co3 O10 2.084200 1_556
Co4 O2 1.785363 1_555
Co4 O15 1.983715 1_545
Co4 O15 1.983715 1_645
Co4 O3 2.140005 1_655
Co4 O3 2.140005 1_555
Co4 O14 2.467007 1_545
