# generated using pymatgen
data_Ba4NaAl2B8(ClO6)3
_symmetry_space_group_name_H-M   'P 1'
_cell_length_a   6.92182485
_cell_length_b   12.22655458
_cell_length_c   12.22655458
_cell_angle_alpha   90.00000000
_cell_angle_beta   90.00000000
_cell_angle_gamma   90.00000000
_symmetry_Int_Tables_number   1
_chemical_formula_structural   Ba4NaAl2B8(ClO6)3
_chemical_formula_sum   'Ba8 Na2 Al4 B16 Cl6 O36'
_cell_volume   1034.73416167
_cell_formula_units_Z   2
loop_
 _symmetry_equiv_pos_site_id
 _symmetry_equiv_pos_as_xyz
  1  'x, y, z'
loop_
 _atom_site_type_symbol
 _atom_site_label
 _atom_site_symmetry_multiplicity
 _atom_site_fract_x
 _atom_site_fract_y
 _atom_site_fract_z
 _atom_site_occupancy
  Ba  Ba0  1  0.72131338  0.77790932  0.48294022  1
  Ba  Ba1  1  0.72131338  0.22209068  0.51705978  1
  Ba  Ba2  1  0.22131338  0.27790932  0.01705978  1
  Ba  Ba3  1  0.22131338  0.72209068  0.98294022  1
  Ba  Ba4  1  0.72131338  0.51705978  0.22209068  1
  Ba  Ba5  1  0.72131338  0.48294022  0.77790932  1
  Ba  Ba6  1  0.22131338  0.01705978  0.27790932  1
  Ba  Ba7  1  0.22131338  0.98294022  0.72209068  1
  Na  Na0  1  0.39389509  0.50000000  0.50000000  1
  Na  Na1  1  0.89389509  -0.00000000  -0.00000000  1
  Al  Al0  1  0.71364330  0.79745505  0.79745505  1
  Al  Al1  1  0.71364330  0.20254495  0.20254495  1
  Al  Al2  1  0.21364330  0.29745505  0.70254495  1
  Al  Al3  1  0.21364330  0.70254495  0.29745505  1
  B  B0  1  0.08665918  0.73292954  0.73292954  1
  B  B1  1  0.08665918  0.26707046  0.26707046  1
  B  B2  1  0.58665918  0.23292954  0.76707046  1
  B  B3  1  0.58665918  0.76707046  0.23292954  1
  B  B4  1  0.41785234  0.68443743  0.68443743  1
  B  B5  1  0.41785234  0.31556257  0.31556257  1
  B  B6  1  0.91785234  0.18443743  0.81556257  1
  B  B7  1  0.91785234  0.81556257  0.18443743  1
  B  B8  1  0.68231137  0.76646096  0.03429958  1
  B  B9  1  0.68231137  0.23353904  0.96570042  1
  B  B10  1  0.18231137  0.26646096  0.46570042  1
  B  B11  1  0.18231137  0.73353904  0.53429958  1
  B  B12  1  0.68231137  0.96570042  0.23353904  1
  B  B13  1  0.68231137  0.03429958  0.76646096  1
  B  B14  1  0.18231137  0.46570042  0.26646096  1
  B  B15  1  0.18231137  0.53429958  0.73353904  1
  Cl  Cl0  1  0.78118538  0.50000000  0.50000000  1
  Cl  Cl1  1  0.28118538  -0.00000000  -0.00000000  1
  Cl  Cl2  1  0.94892791  -0.00000000  0.50000000  1
  Cl  Cl3  1  0.44892791  0.50000000  0.00000000  1
  Cl  Cl4  1  0.94892791  0.50000000  0.00000000  1
  Cl  Cl5  1  0.44892791  -0.00000000  0.50000000  1
  O  O0  1  0.04659407  0.75646740  0.61428656  1
  O  O1  1  0.04659407  0.24353260  0.38571344  1
  O  O2  1  0.54659407  0.25646740  0.88571344  1
  O  O3  1  0.54659407  0.74353260  0.11428656  1
  O  O4  1  0.04659407  0.38571344  0.24353260  1
  O  O5  1  0.04659407  0.61428656  0.75646740  1
  O  O6  1  0.54659407  0.88571344  0.25646740  1
  O  O7  1  0.54659407  0.11428656  0.74353260  1
  O  O8  1  0.36867093  0.70197220  0.56352519  1
  O  O9  1  0.36867093  0.29802780  0.43647481  1
  O  O10  1  0.86867093  0.20197220  0.93647481  1
  O  O11  1  0.86867093  0.79802780  0.06352519  1
  O  O12  1  0.36867093  0.43647481  0.29802780  1
  O  O13  1  0.36867093  0.56352519  0.70197220  1
  O  O14  1  0.86867093  0.93647481  0.20197220  1
  O  O15  1  0.86867093  0.06352519  0.79802780  1
  O  O16  1  0.96998735  0.80184129  0.80184129  1
  O  O17  1  0.96998735  0.19815871  0.19815871  1
  O  O18  1  0.46998735  0.30184129  0.69815871  1
  O  O19  1  0.46998735  0.69815871  0.30184129  1
  O  O20  1  0.62149954  0.70162273  0.70162273  1
  O  O21  1  0.62149954  0.29837727  0.29837727  1
  O  O22  1  0.12149954  0.20162273  0.79837727  1
  O  O23  1  0.12149954  0.79837727  0.20162273  1
  O  O24  1  0.29458124  0.75367948  0.75367948  1
  O  O25  1  0.29458124  0.24632052  0.24632052  1
  O  O26  1  0.79458124  0.25367948  0.74632052  1
  O  O27  1  0.79458124  0.74632052  0.25367948  1
  O  O28  1  0.62442470  0.76099816  0.92821334  1
  O  O29  1  0.62442470  0.23900184  0.07178666  1
  O  O30  1  0.12442470  0.26099816  0.57178666  1
  O  O31  1  0.12442470  0.73900184  0.42821334  1
  O  O32  1  0.62442470  0.07178666  0.23900184  1
  O  O33  1  0.62442470  0.92821334  0.76099816  1
  O  O34  1  0.12442470  0.57178666  0.26099816  1
  O  O35  1  0.12442470  0.42821334  0.73900184  1
loop_
_geom_bond_atom_site_label_1
_geom_bond_atom_site_label_2
_geom_bond_distance
_geom_bond_site_symmetry_2
Ba0 O0 2.777967 1_655
Ba0 O8 2.791223 1_555
Ba0 O27 2.874641 1_555
Ba0 O31 2.908539 1_655
Ba0 O20 2.914817 1_555
Ba0 O19 2.979908 1_555
Ba0 Cl2 3.146291 1_565
Ba0 O6 3.296539 1_555
Ba0 Cl5 3.312352 1_565
Ba0 Cl0 3.429402 1_555
Ba1 O1 2.777967 1_655
Ba1 O9 2.791223 1_555
Ba1 O26 2.874641 1_555
Ba1 O30 2.908539 1_655
Ba1 O21 2.914817 1_555
Ba1 O18 2.979908 1_555
Ba1 Cl2 3.146291 1_555
Ba1 O7 3.296539 1_555
Ba1 Cl5 3.312352 1_555
Ba1 Cl0 3.429402 1_555
Ba2 O2 2.777967 1_554
Ba2 O10 2.791223 1_454
Ba2 O25 2.874641 1_555
Ba2 O29 2.908539 1_555
Ba2 O22 2.914817 1_554
Ba2 O17 2.979908 1_455
Ba2 Cl3 3.146291 1_555
Ba2 O4 3.296539 1_555
Ba2 Cl4 3.312352 1_455
Ba2 Cl1 3.429402 1_555
Ba3 O3 2.777967 1_556
Ba3 O11 2.791223 1_456
Ba3 O24 2.874641 1_555
Ba3 O28 2.908539 1_555
Ba3 O23 2.914817 1_556
Ba3 O16 2.979908 1_455
Ba3 Cl3 3.146291 1_556
Ba3 O5 3.296539 1_555
Ba3 Cl4 3.312352 1_456
Ba3 Cl1 3.429402 1_566
Ba4 O4 2.777967 1_655
Ba4 O12 2.791223 1_555
Ba4 O27 2.874641 1_555
Ba4 O34 2.908539 1_655
Ba4 O21 2.914817 1_555
Ba4 O19 2.979908 1_555
Ba4 Cl4 3.146291 1_555
Ba4 O3 3.296539 1_555
Ba4 Cl3 3.312352 1_555
Ba4 Cl0 3.429402 1_555
Ba5 O5 2.777967 1_655
Ba5 O13 2.791223 1_555
Ba5 O26 2.874641 1_555
Ba5 O35 2.908539 1_655
Ba5 O20 2.914817 1_555
Ba5 O18 2.979908 1_555
Ba5 Cl4 3.146291 1_556
Ba5 O2 3.296539 1_555
Ba5 Cl3 3.312352 1_556
Ba5 Cl0 3.429402 1_555
Ba6 O6 2.777967 1_545
Ba6 O14 2.791223 1_445
Ba6 O25 2.874641 1_555
Ba6 O32 2.908539 1_555
Ba6 O23 2.914817 1_545
Ba6 O17 2.979908 1_455
Ba6 Cl5 3.146291 1_555
Ba6 O1 3.296539 1_555
Ba6 Cl2 3.312352 1_455
Ba6 Cl1 3.429402 1_555
Ba7 O7 2.777967 1_565
Ba7 O15 2.791223 1_465
Ba7 O24 2.874641 1_555
Ba7 O33 2.908539 1_555
Ba7 O22 2.914817 1_565
Ba7 O16 2.979908 1_455
Ba7 Cl5 3.146291 1_565
Ba7 O0 3.296539 1_555
Ba7 Cl2 3.312352 1_465
Ba7 Cl1 3.429402 1_566
Na0 O12 2.594570 1_555
Na0 O9 2.594570 1_555
Na0 O8 2.594570 1_555
Na0 O13 2.594570 1_555
Na1 O14 2.594570 1_545
Na1 O10 2.594570 1_554
Na1 O15 2.594570 1_554
Na1 O11 2.594570 1_545
Al0 O28 1.770869 1_555
Al0 O33 1.770869 1_555
Al0 O20 1.775542 1_555
Al0 O16 1.775989 1_555
Al1 O32 1.770869 1_555
Al1 O29 1.770869 1_555
Al1 O21 1.775542 1_555
Al1 O17 1.775989 1_555
Al2 O30 1.770869 1_555
Al2 O35 1.770869 1_555
Al2 O22 1.775542 1_555
Al2 O18 1.775989 1_555
Al3 O34 1.770869 1_555
Al3 O31 1.770869 1_555
Al3 O23 1.775542 1_555
Al3 O19 1.775989 1_555
B0 O16 1.439438 1_455
B0 O24 1.483248 1_555
B0 O5 1.504645 1_555
B0 O0 1.504645 1_555
B1 O17 1.439438 1_455
B1 O25 1.483248 1_555
B1 O1 1.504645 1_555
B1 O4 1.504645 1_555
B2 O18 1.439438 1_555
B2 O26 1.483248 1_555
B2 O2 1.504645 1_555
B2 O7 1.504645 1_555
B3 O19 1.439438 1_555
B3 O27 1.483248 1_555
B3 O6 1.504645 1_555
B3 O3 1.504645 1_555
B4 O20 1.440590 1_555
B4 O24 1.470200 1_555
B4 O13 1.532104 1_555
B4 O8 1.532104 1_555
B5 O21 1.440590 1_555
B5 O25 1.470200 1_555
B5 O12 1.532104 1_555
B5 O9 1.532104 1_555
B6 O22 1.440590 1_655
B6 O26 1.470200 1_555
B6 O10 1.532104 1_555
B6 O15 1.532104 1_555
B7 O23 1.440590 1_655
B7 O27 1.470200 1_555
B7 O14 1.532104 1_555
B7 O11 1.532104 1_555
B8 O28 1.359189 1_554
B8 O3 1.384737 1_555
B8 O11 1.393058 1_555
B9 O29 1.359189 1_556
B9 O2 1.384737 1_555
B9 O10 1.393058 1_555
B10 O30 1.359189 1_555
B10 O1 1.384737 1_555
B10 O9 1.393058 1_555
B11 O31 1.359189 1_555
B11 O0 1.384737 1_555
B11 O8 1.393058 1_555
B12 O32 1.359189 1_565
B12 O6 1.384737 1_555
B12 O14 1.393058 1_555
B13 O33 1.359189 1_545
B13 O7 1.384737 1_555
B13 O15 1.393058 1_555
B14 O34 1.359189 1_555
B14 O4 1.384737 1_555
B14 O12 1.393058 1_555
B15 O35 1.359189 1_555
B15 O5 1.384737 1_555
B15 O13 1.393058 1_555
Cl0 Na0 2.680756 1_555
Cl1 Na1 2.680756 1_455
