# generated using pymatgen
data_K10Hf3Mo12PbO48
_symmetry_space_group_name_H-M   'P 1'
_cell_length_a   14.38065669
_cell_length_b   14.38065669
_cell_length_c   14.38065632
_cell_angle_alpha   44.40938433
_cell_angle_beta   44.40938433
_cell_angle_gamma   44.40938429
_symmetry_Int_Tables_number   1
_chemical_formula_structural   K10Hf3Mo12PbO48
_chemical_formula_sum   'K10 Hf3 Mo12 Pb1 O48'
_cell_volume   1323.87346326
_cell_formula_units_Z   1
loop_
 _symmetry_equiv_pos_site_id
 _symmetry_equiv_pos_as_xyz
  1  'x, y, z'
loop_
 _atom_site_type_symbol
 _atom_site_label
 _atom_site_symmetry_multiplicity
 _atom_site_fract_x
 _atom_site_fract_y
 _atom_site_fract_z
 _atom_site_occupancy
  K  K0  1  0.85061700  0.85061700  0.85061700  1
  K  K1  1  0.14938300  0.14938300  0.14938300  1
  K  K2  1  0.62827800  0.62827800  0.62827800  1
  K  K3  1  0.37172200  0.37172200  0.37172200  1
  K  K4  1  0.76382000  0.13515300  0.35919100  1
  K  K5  1  0.13515300  0.35919100  0.76382000  1
  K  K6  1  0.35919100  0.76382000  0.13515300  1
  K  K7  1  0.23618000  0.86484700  0.64080900  1
  K  K8  1  0.86484700  0.64080900  0.23618000  1
  K  K9  1  0.64080900  0.23618000  0.86484700  1
  Hf  Hf0  1  0.00000000  0.00000000  0.00000000  1
  Hf  Hf1  1  0.75056600  0.75056600  0.75056600  1
  Hf  Hf2  1  0.24943400  0.24943400  0.24943400  1
  Mo  Mo0  1  0.77011700  0.51047900  0.11316700  1
  Mo  Mo1  1  0.51047900  0.11316700  0.77011700  1
  Mo  Mo2  1  0.11316700  0.77011700  0.51047900  1
  Mo  Mo3  1  0.22988300  0.48952100  0.88683300  1
  Mo  Mo4  1  0.48952100  0.88683300  0.22988300  1
  Mo  Mo5  1  0.88683300  0.22988300  0.48952100  1
  Mo  Mo6  1  0.95316900  0.75211500  0.38644500  1
  Mo  Mo7  1  0.75211500  0.38644500  0.95316900  1
  Mo  Mo8  1  0.38644500  0.95316900  0.75211500  1
  Mo  Mo9  1  0.04683100  0.24788500  0.61355500  1
  Mo  Mo10  1  0.24788500  0.61355500  0.04683100  1
  Mo  Mo11  1  0.61355500  0.04683100  0.24788500  1
  Pb  Pb0  1  0.50000000  0.50000000  0.50000000  1
  O  O0  1  0.13674500  0.83654400  0.55541700  1
  O  O1  1  0.83654400  0.55541700  0.13674500  1
  O  O2  1  0.55541700  0.13674500  0.83654400  1
  O  O3  1  0.86325500  0.16345600  0.44458300  1
  O  O4  1  0.16345600  0.44458300  0.86325500  1
  O  O5  1  0.44458300  0.86325500  0.16345600  1
  O  O6  1  0.90374100  0.34721100  0.08505600  1
  O  O7  1  0.34721100  0.08505600  0.90374100  1
  O  O8  1  0.08505600  0.90374100  0.34721100  1
  O  O9  1  0.09625900  0.65278900  0.91494400  1
  O  O10  1  0.65278900  0.91494400  0.09625900  1
  O  O11  1  0.91494400  0.09625900  0.65278900  1
  O  O12  1  0.61345800  0.47756400  0.27787100  1
  O  O13  1  0.47756400  0.27787100  0.61345800  1
  O  O14  1  0.27787100  0.61345800  0.47756400  1
  O  O15  1  0.38654200  0.52243600  0.72212900  1
  O  O16  1  0.52243600  0.72212900  0.38654200  1
  O  O17  1  0.72212900  0.38654200  0.52243600  1
  O  O18  1  0.71434000  0.67105600  0.95748800  1
  O  O19  1  0.67105600  0.95748800  0.71434000  1
  O  O20  1  0.95748800  0.71434000  0.67105600  1
  O  O21  1  0.28566000  0.32894400  0.04251200  1
  O  O22  1  0.32894400  0.04251200  0.28566000  1
  O  O23  1  0.04251200  0.28566000  0.32894400  1
  O  O24  1  0.90198400  0.66748900  0.39255700  1
  O  O25  1  0.66748900  0.39255700  0.90198400  1
  O  O26  1  0.39255700  0.90198400  0.66748900  1
  O  O27  1  0.09801600  0.33251100  0.60744300  1
  O  O28  1  0.33251100  0.60744300  0.09801600  1
  O  O29  1  0.60744300  0.09801600  0.33251100  1
  O  O30  1  0.11863000  0.62739100  0.40541800  1
  O  O31  1  0.62739100  0.40541800  0.11863000  1
  O  O32  1  0.40541800  0.11863000  0.62739100  1
  O  O33  1  0.88137000  0.37260900  0.59458200  1
  O  O34  1  0.37260900  0.59458200  0.88137000  1
  O  O35  1  0.59458200  0.88137000  0.37260900  1
  O  O36  1  0.97758100  0.91006700  0.20637500  1
  O  O37  1  0.91006700  0.20637500  0.97758100  1
  O  O38  1  0.20637500  0.97758100  0.91006700  1
  O  O39  1  0.02241900  0.08993300  0.79362500  1
  O  O40  1  0.08993300  0.79362500  0.02241900  1
  O  O41  1  0.79362500  0.02241900  0.08993300  1
  O  O42  1  0.80820100  0.81160600  0.53705200  1
  O  O43  1  0.81160600  0.53705200  0.80820100  1
  O  O44  1  0.53705200  0.80820100  0.81160600  1
  O  O45  1  0.19179900  0.18839400  0.46294800  1
  O  O46  1  0.18839400  0.46294800  0.19179900  1
  O  O47  1  0.46294800  0.19179900  0.18839400  1
loop_
_geom_bond_atom_site_label_1
_geom_bond_atom_site_label_2
_geom_bond_distance
_geom_bond_site_symmetry_2
K0 O10 2.824617 1_556
K0 O9 2.824617 1_655
K0 O11 2.824617 1_565
K0 O0 3.174063 1_655
K0 O1 3.174063 1_556
K0 O2 3.174063 1_565
K0 O20 3.182350 1_555
K0 O19 3.182350 1_555
K0 O18 3.182350 1_555
K1 O7 2.824617 1_554
K1 O6 2.824617 1_455
K1 O8 2.824617 1_545
K1 O3 3.174063 1_455
K1 O4 3.174063 1_554
K1 O5 3.174063 1_545
K1 O23 3.182350 1_555
K1 O22 3.182350 1_555
K1 O21 3.182350 1_555
K2 O35 2.811874 1_555
K2 O34 2.811874 1_555
K2 O33 2.811874 1_555
K2 O25 2.945984 1_555
K2 O26 2.945985 1_555
K2 O24 2.945985 1_555
K3 O32 2.811874 1_555
K3 O31 2.811874 1_555
K3 O30 2.811874 1_555
K3 O28 2.945984 1_555
K3 O29 2.945985 1_555
K3 O27 2.945985 1_555
K4 O3 2.787963 1_555
K4 O29 2.954804 1_555
K4 O6 3.024453 1_555
K4 O42 3.112068 1_545
K4 O8 3.187918 1_645
K4 O12 3.234714 1_555
K4 O31 3.242750 1_555
K4 O19 3.299092 1_545
K4 O36 3.324411 1_545
K4 O13 3.416737 1_555
K5 O4 2.787963 1_555
K5 O27 2.954804 1_555
K5 O7 3.024453 1_555
K5 O43 3.112068 1_455
K5 O6 3.187918 1_456
K5 O13 3.234714 1_555
K5 O32 3.242750 1_555
K5 O20 3.299092 1_455
K5 O37 3.324411 1_455
K5 O14 3.416737 1_555
K6 O5 2.787963 1_555
K6 O28 2.954804 1_555
K6 O8 3.024453 1_555
K6 O44 3.112067 1_554
K6 O7 3.187918 1_564
K6 O14 3.234714 1_555
K6 O30 3.242750 1_555
K6 O18 3.299092 1_554
K6 O38 3.324411 1_554
K6 O12 3.416737 1_555
K7 O0 2.787963 1_555
K7 O26 2.954804 1_555
K7 O9 3.024453 1_555
K7 O45 3.112068 1_565
K7 O11 3.187918 1_465
K7 O15 3.234714 1_555
K7 O34 3.242750 1_555
K7 O22 3.299092 1_565
K7 O39 3.324411 1_565
K7 O16 3.416737 1_555
K8 O1 2.787963 1_555
K8 O24 2.954804 1_555
K8 O10 3.024453 1_555
K8 O46 3.112068 1_655
K8 O9 3.187918 1_654
K8 O16 3.234714 1_555
K8 O35 3.242750 1_555
K8 O23 3.299092 1_655
K8 O40 3.324411 1_655
K8 O17 3.416737 1_555
K9 O2 2.787963 1_555
K9 O25 2.954804 1_555
K9 O11 3.024453 1_555
K9 O47 3.112067 1_556
K9 O10 3.187918 1_546
K9 O17 3.234714 1_555
K9 O33 3.242750 1_555
K9 O21 3.299092 1_556
K9 O41 3.324411 1_556
K9 O15 3.416737 1_555
Hf0 O39 2.080710 1_554
Hf0 O36 2.080710 1_445
Hf0 O40 2.080710 1_545
Hf0 O37 2.080710 1_454
Hf0 O41 2.080710 1_455
Hf0 O38 2.080710 1_544
Hf1 O18 2.051485 1_555
Hf1 O19 2.051485 1_555
Hf1 O20 2.051485 1_555
Hf1 O42 2.106669 1_555
Hf1 O43 2.106669 1_555
Hf1 O44 2.106669 1_555
Hf2 O21 2.051485 1_555
Hf2 O22 2.051485 1_555
Hf2 O23 2.051485 1_555
Hf2 O45 2.106669 1_555
Hf2 O46 2.106669 1_555
Hf2 O47 2.106669 1_555
Mo0 O1 1.761511 1_555
Mo0 O6 1.780126 1_555
Mo0 O12 1.790970 1_555
Mo0 O18 1.876440 1_554
Mo1 O2 1.761511 1_555
Mo1 O7 1.780126 1_555
Mo1 O13 1.790970 1_555
Mo1 O19 1.876440 1_545
Mo2 O0 1.761511 1_555
Mo2 O8 1.780126 1_555
Mo2 O14 1.790970 1_555
Mo2 O20 1.876440 1_455
Mo3 O4 1.761511 1_555
Mo3 O9 1.780126 1_555
Mo3 O15 1.790970 1_555
Mo3 O21 1.876440 1_556
Mo4 O5 1.761511 1_555
Mo4 O10 1.780126 1_555
Mo4 O16 1.790970 1_555
Mo4 O22 1.876440 1_565
Mo5 O3 1.761511 1_555
Mo5 O11 1.780126 1_555
Mo5 O17 1.790970 1_555
Mo5 O23 1.876440 1_655
Mo6 O24 1.750751 1_555
Mo6 O30 1.756166 1_655
Mo6 O42 1.848528 1_555
Mo6 O36 1.850719 1_555
Mo7 O25 1.750751 1_555
Mo7 O31 1.756166 1_556
Mo7 O43 1.848528 1_555
Mo7 O37 1.850719 1_555
Mo8 O26 1.750751 1_555
Mo8 O32 1.756166 1_565
Mo8 O44 1.848528 1_555
Mo8 O38 1.850719 1_555
Mo9 O27 1.750751 1_555
Mo9 O33 1.756166 1_455
Mo9 O45 1.848528 1_555
Mo9 O39 1.850719 1_555
Mo10 O28 1.750751 1_555
Mo10 O34 1.756166 1_554
Mo10 O46 1.848528 1_555
Mo10 O40 1.850719 1_555
Mo11 O29 1.750751 1_555
Mo11 O35 1.756166 1_545
Mo11 O47 1.848528 1_555
Mo11 O41 1.850719 1_555
O12 Pb0 2.498837 1_555
O13 Pb0 2.498837 1_555
O14 Pb0 2.498837 1_555
O15 Pb0 2.498837 1_555
O16 Pb0 2.498837 1_555
O17 Pb0 2.498837 1_555
