# generated using pymatgen
data_Na6MnSe4
_symmetry_space_group_name_H-M   'P 1'
_cell_length_a   9.32781398
_cell_length_b   9.32782372
_cell_length_c   7.19276780
_cell_angle_alpha   89.99999568
_cell_angle_beta   89.99996423
_cell_angle_gamma   120.00677385
_symmetry_Int_Tables_number   1
_chemical_formula_structural   Na6MnSe4
_chemical_formula_sum   'Na12 Mn2 Se8'
_cell_volume   541.94751696
_cell_formula_units_Z   2
loop_
 _symmetry_equiv_pos_site_id
 _symmetry_equiv_pos_as_xyz
  1  'x, y, z'
loop_
 _atom_site_type_symbol
 _atom_site_label
 _atom_site_symmetry_multiplicity
 _atom_site_fract_x
 _atom_site_fract_y
 _atom_site_fract_z
 _atom_site_occupancy
  Na  Na0  1  0.14799035  0.85200932  0.53948100  1
  Na  Na1  1  0.29598012  0.14798527  0.03948679  1
  Na  Na2  1  0.85201473  0.70401975  0.03948684  1
  Na  Na3  1  0.14798542  0.29598022  0.53948652  1
  Na  Na4  1  0.70402006  0.85201483  0.53948677  1
  Na  Na5  1  0.85200960  0.14799068  0.03948078  1
  Na  Na6  1  0.53095127  0.46904864  0.37040830  1
  Na  Na7  1  0.06193885  0.53098660  0.87040592  1
  Na  Na8  1  0.46901349  0.93806117  0.87040642  1
  Na  Na9  1  0.53098631  0.06193859  0.37040642  1
  Na  Na10  1  0.93806153  0.46901356  0.37040638  1
  Na  Na11  1  0.46904858  0.53095142  0.87040886  1
  Mn  Mn0  1  0.33332900  0.66667063  0.25170518  1
  Mn  Mn1  1  0.66667103  0.33332948  0.75170532  1
  Se  Se0  1  0.33333333  0.66666595  0.60379120  1
  Se  Se1  1  0.66666603  0.33333382  0.10379221  1
  Se  Se2  1  0.18507056  0.81492888  0.14236992  1
  Se  Se3  1  0.37015058  0.18509025  0.64237643  1
  Se  Se4  1  0.81491046  0.62984944  0.64237693  1
  Se  Se5  1  0.18508998  0.37015039  0.14237711  1
  Se  Se6  1  0.62984877  0.81490980  0.14237679  1
  Se  Se7  1  0.81492994  0.18507130  0.64236988  1
loop_
_geom_bond_atom_site_label_1
_geom_bond_atom_site_label_2
_geom_bond_distance
_geom_bond_site_symmetry_2
Na0 Se4 2.838179 1_455
Na0 Se3 2.838189 1_565
Na0 Se2 2.918480 1_555
Na0 Se0 3.030070 1_555
Na1 Se2 2.838092 1_545
Na1 Se5 2.838321 1_555
Na1 Se3 2.918479 1_554
Na1 Se1 3.029757 1_555
Na2 Se2 2.838085 1_655
Na2 Se6 2.838326 1_555
Na2 Se4 2.918476 1_554
Na2 Se1 3.029760 1_555
Na3 Se7 2.838082 1_455
Na3 Se3 2.838319 1_555
Na3 Se5 2.918472 1_555
Na3 Se0 3.029758 1_555
Na4 Se7 2.838092 1_565
Na4 Se4 2.838325 1_555
Na4 Se6 2.918478 1_555
Na4 Se0 3.029762 1_555
Na5 Se5 2.838184 1_655
Na5 Se6 2.838189 1_545
Na5 Se7 2.918479 1_554
Na5 Se1 3.030074 1_555
Na6 Se1 2.913007 1_555
Na6 Se3 3.019685 1_555
Na6 Se4 3.019693 1_555
Na6 Se5 3.312458 1_555
Na6 Se6 3.312461 1_555
Na7 Se0 2.912617 1_555
Na7 Se2 3.019610 1_556
Na7 Se5 3.020082 1_556
Na7 Se7 3.312745 1_455
Na7 Se4 3.312911 1_455
Na8 Se0 2.912627 1_555
Na8 Se2 3.019608 1_556
Na8 Se6 3.020074 1_556
Na8 Se7 3.312752 1_565
Na8 Se3 3.312921 1_565
Na9 Se1 2.912621 1_555
Na9 Se7 3.019614 1_555
Na9 Se3 3.020076 1_555
Na9 Se2 3.312749 1_545
Na9 Se6 3.312914 1_545
Na10 Se1 2.912623 1_555
Na10 Se7 3.019607 1_555
Na10 Se4 3.020076 1_555
Na10 Se2 3.312745 1_655
Na10 Se5 3.312913 1_655
Na11 Se0 2.913017 1_555
Na11 Se5 3.019685 1_556
Na11 Se6 3.019686 1_556
Na11 Se4 3.312464 1_555
Na11 Se3 3.312465 1_555
Mn0 Se6 2.520947 1_555
Mn0 Se5 2.520953 1_555
Mn0 Se2 2.521173 1_555
Mn0 Se0 2.532473 1_555
Mn1 Se4 2.520951 1_555
Mn1 Se3 2.520954 1_555
Mn1 Se7 2.521176 1_555
Mn1 Se1 2.532479 1_556
