# generated using pymatgen
data_LiLaMg30O32
_symmetry_space_group_name_H-M   'P 1'
_cell_length_a   8.60811600
_cell_length_b   8.60811600
_cell_length_c   8.60041000
_cell_angle_alpha   90.00000000
_cell_angle_beta   90.00000000
_cell_angle_gamma   90.00000000
_symmetry_Int_Tables_number   1
_chemical_formula_structural   LiLaMg30O32
_chemical_formula_sum   'Li1 La1 Mg30 O32'
_cell_volume   637.28746606
_cell_formula_units_Z   1
loop_
 _symmetry_equiv_pos_site_id
 _symmetry_equiv_pos_as_xyz
  1  'x, y, z'
loop_
 _atom_site_type_symbol
 _atom_site_label
 _atom_site_symmetry_multiplicity
 _atom_site_fract_x
 _atom_site_fract_y
 _atom_site_fract_z
 _atom_site_occupancy
  Li  Li0  1  0.00000000  0.00000000  0.00000000  1
  La  La0  1  0.00000000  0.00000000  0.50000000  1
  Mg  Mg0  1  0.50000000  0.00000000  0.00000000  1
  Mg  Mg1  1  0.50000000  0.00000000  0.50000000  1
  Mg  Mg2  1  0.00000000  0.50000000  0.00000000  1
  Mg  Mg3  1  0.00000000  0.50000000  0.50000000  1
  Mg  Mg4  1  0.50000000  0.50000000  0.00000000  1
  Mg  Mg5  1  0.50000000  0.50000000  0.50000000  1
  Mg  Mg6  1  0.25489700  0.00000000  0.23811800  1
  Mg  Mg7  1  0.25489700  0.00000000  0.76188200  1
  Mg  Mg8  1  0.74510300  0.00000000  0.23811800  1
  Mg  Mg9  1  0.74510300  0.00000000  0.76188200  1
  Mg  Mg10  1  0.25013600  0.50000000  0.24804400  1
  Mg  Mg11  1  0.25013600  0.50000000  0.75195600  1
  Mg  Mg12  1  0.74986400  0.50000000  0.24804400  1
  Mg  Mg13  1  0.74986400  0.50000000  0.75195600  1
  Mg  Mg14  1  0.00000000  0.25489700  0.23811800  1
  Mg  Mg15  1  0.00000000  0.25489700  0.76188200  1
  Mg  Mg16  1  0.50000000  0.25013600  0.24804400  1
  Mg  Mg17  1  0.50000000  0.25013600  0.75195600  1
  Mg  Mg18  1  0.00000000  0.74510300  0.23811800  1
  Mg  Mg19  1  0.00000000  0.74510300  0.76188200  1
  Mg  Mg20  1  0.50000000  0.74986400  0.24804400  1
  Mg  Mg21  1  0.50000000  0.74986400  0.75195600  1
  Mg  Mg22  1  0.24760200  0.24760200  0.00000000  1
  Mg  Mg23  1  0.25773800  0.25773800  0.50000000  1
  Mg  Mg24  1  0.75239800  0.24760200  0.00000000  1
  Mg  Mg25  1  0.74226200  0.25773800  0.50000000  1
  Mg  Mg26  1  0.24760200  0.75239800  0.00000000  1
  Mg  Mg27  1  0.25773800  0.74226200  0.50000000  1
  Mg  Mg28  1  0.75239800  0.75239800  0.00000000  1
  Mg  Mg29  1  0.74226200  0.74226200  0.50000000  1
  O  O0  1  0.00000000  0.26080000  0.00000000  1
  O  O1  1  0.00000000  0.26816200  0.50000000  1
  O  O2  1  0.50000000  0.25183800  0.00000000  1
  O  O3  1  0.50000000  0.25326500  0.50000000  1
  O  O4  1  0.00000000  0.73920000  0.00000000  1
  O  O5  1  0.00000000  0.73183800  0.50000000  1
  O  O6  1  0.50000000  0.74816200  0.00000000  1
  O  O7  1  0.50000000  0.74673500  0.50000000  1
  O  O8  1  0.24922200  0.24922200  0.25138100  1
  O  O9  1  0.24922200  0.24922200  0.74861900  1
  O  O10  1  0.75077800  0.24922200  0.25138100  1
  O  O11  1  0.75077800  0.24922200  0.74861900  1
  O  O12  1  0.24922200  0.75077800  0.25138100  1
  O  O13  1  0.24922200  0.75077800  0.74861900  1
  O  O14  1  0.75077800  0.75077800  0.25138100  1
  O  O15  1  0.75077800  0.75077800  0.74861900  1
  O  O16  1  0.00000000  0.00000000  0.23277000  1
  O  O17  1  0.00000000  0.00000000  0.76723000  1
  O  O18  1  0.50000000  0.00000000  0.24886200  1
  O  O19  1  0.50000000  0.00000000  0.75113800  1
  O  O20  1  0.00000000  0.50000000  0.24886200  1
  O  O21  1  0.00000000  0.50000000  0.75113800  1
  O  O22  1  0.50000000  0.50000000  0.25022600  1
  O  O23  1  0.50000000  0.50000000  0.74977400  1
  O  O24  1  0.26080000  0.00000000  0.00000000  1
  O  O25  1  0.26816200  0.00000000  0.50000000  1
  O  O26  1  0.73920000  0.00000000  0.00000000  1
  O  O27  1  0.73183800  0.00000000  0.50000000  1
  O  O28  1  0.25183800  0.50000000  0.00000000  1
  O  O29  1  0.25326500  0.50000000  0.50000000  1
  O  O30  1  0.74816200  0.50000000  0.00000000  1
  O  O31  1  0.74673500  0.50000000  0.50000000  1
loop_
_geom_bond_atom_site_label_1
_geom_bond_atom_site_label_2
_geom_bond_distance
_geom_bond_site_symmetry_2
Li0 O17 2.001917 1_554
Li0 O16 2.001917 1_555
Li0 O4 2.244997 1_545
Li0 O26 2.244997 1_455
Li0 O24 2.244997 1_555
Li0 O0 2.244997 1_555
La0 O16 2.298288 1_555
La0 O17 2.298288 1_555
La0 O25 2.308370 1_555
La0 O5 2.308370 1_545
La0 O1 2.308370 1_555
La0 O27 2.308370 1_455
Mg0 O24 2.059061 1_555
Mg0 O26 2.059061 1_555
Mg0 O18 2.140315 1_555
Mg0 O19 2.140315 1_554
Mg0 O2 2.167851 1_555
Mg0 O6 2.167851 1_545
Mg1 O27 1.995688 1_555
Mg1 O25 1.995688 1_555
Mg1 O18 2.159890 1_555
Mg1 O19 2.159890 1_555
Mg1 O3 2.180134 1_555
Mg1 O7 2.180134 1_545
Mg2 O0 2.059061 1_555
Mg2 O4 2.059061 1_555
Mg2 O20 2.140315 1_555
Mg2 O21 2.140315 1_554
Mg2 O28 2.167851 1_555
Mg2 O30 2.167851 1_455
Mg3 O5 1.995688 1_555
Mg3 O1 1.995688 1_555
Mg3 O20 2.159890 1_555
Mg3 O21 2.159890 1_555
Mg3 O29 2.180134 1_555
Mg3 O31 2.180134 1_455
Mg4 O28 2.136207 1_555
Mg4 O6 2.136207 1_555
Mg4 O2 2.136207 1_555
Mg4 O30 2.136207 1_555
Mg4 O22 2.152046 1_555
Mg4 O23 2.152046 1_554
Mg5 O31 2.123924 1_555
Mg5 O7 2.123924 1_555
Mg5 O29 2.123924 1_555
Mg5 O3 2.123924 1_555
Mg5 O23 2.148159 1_555
Mg5 O22 2.148159 1_555
Mg6 O24 2.048543 1_555
Mg6 O18 2.111897 1_555
Mg6 O8 2.148918 1_555
Mg6 O12 2.148918 1_545
Mg6 O16 2.194665 1_555
Mg6 O25 2.255185 1_555
Mg7 O24 2.048543 1_556
Mg7 O19 2.111897 1_555
Mg7 O9 2.148918 1_555
Mg7 O13 2.148918 1_545
Mg7 O17 2.194665 1_555
Mg7 O25 2.255185 1_555
Mg8 O26 2.048543 1_555
Mg8 O18 2.111897 1_555
Mg8 O10 2.148918 1_555
Mg8 O14 2.148918 1_545
Mg8 O16 2.194665 1_655
Mg8 O27 2.255185 1_555
Mg9 O26 2.048543 1_556
Mg9 O19 2.111897 1_555
Mg9 O11 2.148918 1_555
Mg9 O15 2.148918 1_545
Mg9 O17 2.194665 1_655
Mg9 O27 2.255185 1_555
Mg10 O28 2.133330 1_555
Mg10 O22 2.150940 1_555
Mg10 O20 2.153211 1_555
Mg10 O12 2.158931 1_555
Mg10 O8 2.158931 1_555
Mg10 O29 2.167092 1_555
Mg11 O28 2.133330 1_556
Mg11 O23 2.150940 1_555
Mg11 O21 2.153211 1_555
Mg11 O13 2.158931 1_555
Mg11 O9 2.158931 1_555
Mg11 O29 2.167092 1_555
Mg12 O30 2.133330 1_555
Mg12 O22 2.150940 1_555
Mg12 O20 2.153211 1_655
Mg12 O14 2.158931 1_555
Mg12 O10 2.158931 1_555
Mg12 O31 2.167092 1_555
Mg13 O30 2.133330 1_556
Mg13 O23 2.150940 1_555
Mg13 O21 2.153211 1_655
Mg13 O15 2.158931 1_555
Mg13 O11 2.158931 1_555
Mg13 O31 2.167092 1_555
Mg14 O0 2.048543 1_555
Mg14 O20 2.111897 1_555
Mg14 O8 2.148918 1_555
Mg14 O10 2.148918 1_455
Mg14 O16 2.194665 1_555
Mg14 O1 2.255185 1_555
Mg15 O0 2.048543 1_556
Mg15 O21 2.111897 1_555
Mg15 O9 2.148918 1_555
Mg15 O11 2.148918 1_455
Mg15 O17 2.194665 1_555
Mg15 O1 2.255185 1_555
Mg16 O2 2.133330 1_555
Mg16 O22 2.150940 1_555
Mg16 O18 2.153211 1_555
Mg16 O10 2.158931 1_555
Mg16 O8 2.158931 1_555
Mg16 O3 2.167092 1_555
Mg17 O2 2.133330 1_556
Mg17 O23 2.150940 1_555
Mg17 O19 2.153211 1_555
Mg17 O9 2.158931 1_555
Mg17 O11 2.158931 1_555
Mg17 O3 2.167092 1_555
Mg18 O4 2.048543 1_555
Mg18 O20 2.111897 1_555
Mg18 O12 2.148918 1_555
Mg18 O14 2.148918 1_455
Mg18 O16 2.194665 1_565
Mg18 O5 2.255185 1_555
Mg19 O4 2.048543 1_556
Mg19 O21 2.111897 1_555
Mg19 O13 2.148918 1_555
Mg19 O15 2.148918 1_455
Mg19 O17 2.194665 1_565
Mg19 O5 2.255185 1_555
Mg20 O6 2.133330 1_555
Mg20 O22 2.150940 1_555
Mg20 O18 2.153211 1_565
Mg20 O14 2.158931 1_555
Mg20 O12 2.158931 1_555
Mg20 O7 2.167092 1_555
Mg21 O6 2.133330 1_556
Mg21 O23 2.150940 1_555
Mg21 O19 2.153211 1_565
Mg21 O15 2.158931 1_555
Mg21 O13 2.158931 1_555
Mg21 O7 2.167092 1_555
Mg22 O24 2.134412 1_555
Mg22 O0 2.134412 1_555
Mg22 O8 2.162070 1_555
Mg22 O9 2.162070 1_554
Mg22 O2 2.172977 1_555
Mg22 O28 2.172977 1_555
Mg23 O29 2.085775 1_555
Mg23 O3 2.085775 1_555
Mg23 O9 2.140737 1_555
Mg23 O8 2.140737 1_555
Mg23 O1 2.220452 1_555
Mg23 O25 2.220452 1_555
Mg24 O26 2.134412 1_555
Mg24 O0 2.134412 1_655
Mg24 O10 2.162070 1_555
Mg24 O11 2.162070 1_554
Mg24 O30 2.172977 1_555
Mg24 O2 2.172977 1_555
Mg25 O3 2.085775 1_555
Mg25 O31 2.085775 1_555
Mg25 O11 2.140737 1_555
Mg25 O10 2.140737 1_555
Mg25 O27 2.220452 1_555
Mg25 O1 2.220452 1_655
Mg26 O24 2.134412 1_565
Mg26 O4 2.134412 1_555
Mg26 O12 2.162070 1_555
Mg26 O13 2.162070 1_554
Mg26 O28 2.172977 1_555
Mg26 O6 2.172977 1_555
Mg27 O29 2.085775 1_555
Mg27 O7 2.085775 1_555
Mg27 O13 2.140737 1_555
Mg27 O12 2.140737 1_555
Mg27 O5 2.220452 1_555
Mg27 O25 2.220452 1_565
Mg28 O26 2.134412 1_565
Mg28 O4 2.134412 1_655
Mg28 O14 2.162070 1_555
Mg28 O15 2.162070 1_554
Mg28 O30 2.172977 1_555
Mg28 O6 2.172977 1_555
Mg29 O31 2.085775 1_555
Mg29 O7 2.085775 1_555
Mg29 O15 2.140737 1_555
Mg29 O14 2.140737 1_555
Mg29 O27 2.220452 1_565
Mg29 O5 2.220452 1_655
