# generated using pymatgen
data_Mg(InSe2)2
_symmetry_space_group_name_H-M   'P 1'
_cell_length_a   13.80497100
_cell_length_b   8.20534100
_cell_length_c   6.73756100
_cell_angle_alpha   90.00000000
_cell_angle_beta   90.00000000
_cell_angle_gamma   90.00000000
_symmetry_Int_Tables_number   1
_chemical_formula_structural   Mg(InSe2)2
_chemical_formula_sum   'Mg4 In8 Se16'
_cell_volume   763.19381678
_cell_formula_units_Z   4
loop_
 _symmetry_equiv_pos_site_id
 _symmetry_equiv_pos_as_xyz
  1  'x, y, z'
loop_
 _atom_site_type_symbol
 _atom_site_label
 _atom_site_symmetry_multiplicity
 _atom_site_fract_x
 _atom_site_fract_y
 _atom_site_fract_z
 _atom_site_occupancy
  Mg  Mg0  1  0.09316700  0.25000000  0.92960500  1
  Mg  Mg1  1  0.90683300  0.75000000  0.07039500  1
  Mg  Mg2  1  0.40683300  0.75000000  0.42960500  1
  Mg  Mg3  1  0.59316700  0.25000000  0.57039500  1
  In  In0  1  0.00000000  0.00000000  0.50000000  1
  In  In1  1  0.50000000  0.00000000  0.00000000  1
  In  In2  1  0.50000000  0.50000000  0.00000000  1
  In  In3  1  0.00000000  0.50000000  0.50000000  1
  In  In4  1  0.22938500  0.75000000  0.99960300  1
  In  In5  1  0.77061500  0.25000000  0.00039700  1
  In  In6  1  0.27061500  0.25000000  0.49960300  1
  In  In7  1  0.72938500  0.75000000  0.50039700  1
  Se  Se0  1  0.16672700  0.00249800  0.74336500  1
  Se  Se1  1  0.83327300  0.99750200  0.25663500  1
  Se  Se2  1  0.33327300  0.99750200  0.24336500  1
  Se  Se3  1  0.66672700  0.00249800  0.75663500  1
  Se  Se4  1  0.66672700  0.49750200  0.75663500  1
  Se  Se5  1  0.33327300  0.50249800  0.24336500  1
  Se  Se6  1  0.83327300  0.50249800  0.25663500  1
  Se  Se7  1  0.16672700  0.49750200  0.74336500  1
  Se  Se8  1  0.07404700  0.75000000  0.24847400  1
  Se  Se9  1  0.92595300  0.25000000  0.75152600  1
  Se  Se10  1  0.42595300  0.25000000  0.74847400  1
  Se  Se11  1  0.57404700  0.75000000  0.25152600  1
  Se  Se12  1  0.09304100  0.25000000  0.30961000  1
  Se  Se13  1  0.90695900  0.75000000  0.69039000  1
  Se  Se14  1  0.40695900  0.75000000  0.80961000  1
  Se  Se15  1  0.59304100  0.25000000  0.19039000  1
loop_
_geom_bond_atom_site_label_1
_geom_bond_atom_site_label_2
_geom_bond_distance
_geom_bond_site_symmetry_2
Mg0 Se12 2.560307 1_556
Mg0 Se7 2.594237 1_555
Mg0 Se0 2.594237 1_555
Mg0 Se9 2.601577 1_455
Mg1 Se13 2.560307 1_554
Mg1 Se6 2.594237 1_555
Mg1 Se1 2.594237 1_555
Mg1 Se8 2.601577 1_655
Mg2 Se14 2.560307 1_555
Mg2 Se2 2.594237 1_555
Mg2 Se5 2.594237 1_555
Mg2 Se11 2.601577 1_555
Mg3 Se15 2.560307 1_555
Mg3 Se3 2.594237 1_555
Mg3 Se4 2.594237 1_555
Mg3 Se10 2.601577 1_555
In0 Se12 2.739200 1_555
In0 Se13 2.739200 1_445
In0 Se0 2.826064 1_555
In0 Se1 2.826064 1_445
In0 Se8 2.850406 1_545
In0 Se9 2.850406 1_455
In1 Se15 2.739200 1_555
In1 Se14 2.739200 1_544
In1 Se3 2.826064 1_554
In1 Se2 2.826064 1_545
In1 Se11 2.850406 1_545
In1 Se10 2.850406 1_554
In2 Se15 2.739200 1_555
In2 Se14 2.739200 1_554
In2 Se4 2.826064 1_554
In2 Se5 2.826064 1_555
In2 Se11 2.850406 1_555
In2 Se10 2.850406 1_554
In3 Se12 2.739200 1_555
In3 Se13 2.739200 1_455
In3 Se7 2.826064 1_555
In3 Se6 2.826064 1_455
In3 Se8 2.850406 1_555
In3 Se9 2.850406 1_455
In4 Se8 2.722170 1_556
In4 Se14 2.765504 1_555
In4 Se0 2.832176 1_565
In4 Se7 2.832176 1_555
In4 Se2 2.979681 1_556
In4 Se5 2.979681 1_556
In5 Se9 2.722170 1_554
In5 Se15 2.765504 1_555
In5 Se6 2.832176 1_555
In5 Se1 2.832176 1_545
In5 Se3 2.979681 1_554
In5 Se4 2.979681 1_554
In6 Se10 2.722170 1_555
In6 Se12 2.765504 1_555
In6 Se5 2.832176 1_555
In6 Se2 2.832176 1_545
In6 Se7 2.979681 1_555
In6 Se0 2.979681 1_555
In7 Se11 2.722170 1_555
In7 Se13 2.765504 1_555
In7 Se3 2.832176 1_565
In7 Se4 2.832176 1_555
In7 Se6 2.979681 1_555
In7 Se1 2.979681 1_555
