# generated using pymatgen
data_NaNi2H3(SeO5)2
_symmetry_space_group_name_H-M   'P 1'
_cell_length_a   6.38634304
_cell_length_b   7.70870599
_cell_length_c   8.98162651
_cell_angle_alpha   99.49178933
_cell_angle_beta   90.01179264
_cell_angle_gamma   114.47483752
_symmetry_Int_Tables_number   1
_chemical_formula_structural   NaNi2H3(SeO5)2
_chemical_formula_sum   'Na2 Ni4 H6 Se4 O20'
_cell_volume   395.76970077
_cell_formula_units_Z   2
loop_
 _symmetry_equiv_pos_site_id
 _symmetry_equiv_pos_as_xyz
  1  'x, y, z'
loop_
 _atom_site_type_symbol
 _atom_site_label
 _atom_site_symmetry_multiplicity
 _atom_site_fract_x
 _atom_site_fract_y
 _atom_site_fract_z
 _atom_site_occupancy
  Na  Na0  1  0.25071600  0.50144300  0.74949800  1
  Na  Na1  1  0.75072300  0.50145500  0.24949700  1
  Ni  Ni0  1  0.75173900  0.99978200  0.74683500  1
  Ni  Ni1  1  0.74796000  0.00005800  0.24700700  1
  Ni  Ni2  1  0.25174700  0.99993800  0.24687400  1
  Ni  Ni3  1  0.24794600  0.00001100  0.74700400  1
  H  H0  1  0.39128600  0.78256000  0.07449800  1
  H  H1  1  0.89136800  0.78254400  0.57447700  1
  H  H2  1  0.11329800  0.22648500  0.42028700  1
  H  H3  1  0.61330600  0.22646500  0.92027000  1
  H  H4  1  0.00605300  0.01209300  0.49001100  1
  H  H5  1  0.50607600  0.01209000  0.99001800  1
  Se  Se0  1  0.14693300  0.29375400  0.05785300  1
  Se  Se1  1  0.64693300  0.29375800  0.55786800  1
  Se  Se2  1  0.35396100  0.70795700  0.43973300  1
  Se  Se3  1  0.85399000  0.70795800  0.93974900  1
  O  O0  1  0.46195700  0.92401400  0.10905400  1
  O  O1  1  0.96199500  0.92399200  0.60904400  1
  O  O2  1  0.04193600  0.08395500  0.38743000  1
  O  O3  1  0.54202200  0.08393200  0.88741700  1
  O  O4  1  0.25743700  0.51482900  0.02123900  1
  O  O5  1  0.75744100  0.51483800  0.52124100  1
  O  O6  1  0.24323300  0.48643200  0.47625400  1
  O  O7  1  0.74323500  0.48643100  0.97625700  1
  O  O8  1  0.07018600  0.14054500  0.88542200  1
  O  O9  1  0.57032000  0.14057100  0.38543000  1
  O  O10  1  0.42981300  0.85951200  0.61310500  1
  O  O11  1  0.92967100  0.85953400  0.11311000  1
  O  O12  1  0.40996600  0.25135900  0.65394000  1
  O  O13  1  0.90989900  0.25128800  0.15390100  1
  O  O14  1  0.84150200  0.25120800  0.65393100  1
  O  O15  1  0.34153600  0.25133600  0.15396400  1
  O  O16  1  0.09158900  0.75095900  0.84443600  1
  O  O17  1  0.59164700  0.75104300  0.34446200  1
  O  O18  1  0.65928800  0.75094200  0.84445700  1
  O  O19  1  0.15929500  0.75092300  0.34442600  1
loop_
_geom_bond_atom_site_label_1
_geom_bond_atom_site_label_2
_geom_bond_distance
_geom_bond_site_symmetry_2
Na0 O4 2.425410 1_556
Na0 O6 2.437285 1_555
Na0 O18 2.556312 1_555
Na0 O16 2.557055 1_555
Na0 O14 2.561923 1_455
Na0 O12 2.562555 1_555
Na1 O5 2.425440 1_555
Na1 O7 2.437237 1_554
Na1 O19 2.556190 1_655
Na1 O17 2.557353 1_555
Na1 O15 2.561491 1_555
Na1 O13 2.562843 1_555
Ni0 O1 2.021936 1_555
Ni0 O3 2.063812 1_565
Ni0 O14 2.096275 1_565
Ni0 O18 2.100834 1_555
Ni0 O10 2.137136 1_555
Ni0 O8 2.141910 1_665
Ni1 O0 2.021720 1_545
Ni1 O2 2.063405 1_655
Ni1 O13 2.096292 1_555
Ni1 O17 2.101006 1_545
Ni1 O11 2.139845 1_545
Ni1 O9 2.140237 1_555
Ni2 O0 2.022332 1_555
Ni2 O2 2.063655 1_565
Ni2 O15 2.096097 1_565
Ni2 O19 2.101645 1_555
Ni2 O11 2.138018 1_455
Ni2 O9 2.142349 1_565
Ni3 O1 2.021532 1_445
Ni3 O3 2.063822 1_555
Ni3 O12 2.096855 1_555
Ni3 O16 2.101140 1_545
Ni3 O10 2.140480 1_545
Ni3 O8 2.140884 1_555
H0 O0 0.984682 1_555
H1 O1 0.984655 1_555
H2 O2 0.989992 1_555
H3 O3 0.990008 1_555
H4 O2 1.127608 1_555
H4 O1 1.328406 1_445
H5 O3 1.127685 1_555
H5 O0 1.328323 1_546
O4 Se0 1.642830 1_555
O5 Se1 1.642908 1_555
O6 Se2 1.645616 1_555
O7 Se3 1.645586 1_555
O8 Se0 1.717668 1_556
O9 Se1 1.717647 1_555
O10 Se2 1.719034 1_555
O11 Se3 1.719023 1_554
O12 Se1 1.680875 1_555
O13 Se0 1.681060 1_655
O14 Se1 1.681261 1_555
O15 Se0 1.681078 1_555
O16 Se3 1.680046 1_455
O17 Se2 1.680237 1_555
O18 Se3 1.680158 1_555
O19 Se2 1.679961 1_555
