# generated using pymatgen
data_LaMg6Si
_symmetry_space_group_name_H-M   'P 1'
_cell_length_a   7.35106680
_cell_length_b   7.35106680
_cell_length_c   4.90020600
_cell_angle_alpha   90.00000000
_cell_angle_beta   90.00000000
_cell_angle_gamma   132.57662399
_symmetry_Int_Tables_number   1
_chemical_formula_structural   LaMg6Si
_chemical_formula_sum   'La1 Mg6 Si1'
_cell_volume   194.99031494
_cell_formula_units_Z   1
loop_
 _symmetry_equiv_pos_site_id
 _symmetry_equiv_pos_as_xyz
  1  'x, y, z'
loop_
 _atom_site_type_symbol
 _atom_site_label
 _atom_site_symmetry_multiplicity
 _atom_site_fract_x
 _atom_site_fract_y
 _atom_site_fract_z
 _atom_site_occupancy
  La  La0  1  0.80257800  0.19742200  0.50000000  1
  Mg  Mg0  1  0.30565800  0.18685300  0.50000000  1
  Mg  Mg1  1  0.81314700  0.69434200  0.50000000  1
  Mg  Mg2  1  0.17886300  0.32439100  0.00000000  1
  Mg  Mg3  1  0.67560900  0.82113700  0.00000000  1
  Mg  Mg4  1  0.63808900  0.36191100  0.00000000  1
  Mg  Mg5  1  0.21491800  0.78508200  0.00000000  1
  Si  Si0  1  0.37114200  0.62885800  0.50000000  1
loop_
_geom_bond_atom_site_label_1
_geom_bond_atom_site_label_2
_geom_bond_distance
_geom_bond_site_symmetry_2
La0 Si0 3.096845 1_655
La0 Si0 3.096845 1_545
La0 Mg4 3.302365 1_556
La0 Mg4 3.302365 1_555
La0 Mg3 3.321437 1_546
La0 Mg2 3.321437 1_656
La0 Mg2 3.321437 1_655
La0 Mg3 3.321437 1_545
Mg0 Si0 2.944932 1_555
Mg0 Mg2 3.028065 1_556
Mg0 Mg2 3.028065 1_555
Mg0 Mg4 3.061943 1_556
Mg0 Mg4 3.061943 1_555
Mg1 Si0 2.944932 1_555
Mg1 Mg3 3.028065 1_555
Mg1 Mg3 3.028065 1_556
Mg1 Mg4 3.061943 1_556
Mg1 Mg4 3.061943 1_555
Mg2 Mg3 2.936880 1_555
Mg2 Si0 2.954567 1_554
Mg2 Si0 2.954567 1_555
Mg2 Mg3 2.975356 1_445
Mg2 Mg4 3.195654 1_555
Mg2 Mg5 3.213182 1_555
Mg3 Si0 2.954567 1_554
Mg3 Si0 2.954567 1_555
Mg3 Mg4 3.195654 1_555
Mg3 Mg5 3.213182 1_555
Mg4 Mg5 3.131803 1_655
Mg4 Mg5 3.131803 1_545
Mg5 Si0 3.228826 1_554
Mg5 Si0 3.228826 1_555
