# generated using pymatgen
data_Er2PtAu
_symmetry_space_group_name_H-M   'P 1'
_cell_length_a   4.56161035
_cell_length_b   5.53906015
_cell_length_c   6.97579510
_cell_angle_alpha   90.00000000
_cell_angle_beta   90.00000000
_cell_angle_gamma   90.00000000
_symmetry_Int_Tables_number   1
_chemical_formula_structural   Er2PtAu
_chemical_formula_sum   'Er4 Pt2 Au2'
_cell_volume   176.25765273
_cell_formula_units_Z   2
loop_
 _symmetry_equiv_pos_site_id
 _symmetry_equiv_pos_as_xyz
  1  'x, y, z'
loop_
 _atom_site_type_symbol
 _atom_site_label
 _atom_site_symmetry_multiplicity
 _atom_site_fract_x
 _atom_site_fract_y
 _atom_site_fract_z
 _atom_site_occupancy
  Er  Er0  1  0.25000000  0.84836362  0.68491474  1
  Er  Er1  1  0.25000000  0.65163638  0.18491474  1
  Er  Er2  1  0.75000000  0.13356853  0.31664257  1
  Er  Er3  1  0.75000000  0.36643147  0.81664257  1
  Pt  Pt0  1  0.75000000  0.65296805  0.45822896  1
  Pt  Pt1  1  0.75000000  0.84703195  0.95822896  1
  Au  Au0  1  0.25000000  0.33997289  0.54021373  1
  Au  Au1  1  0.25000000  0.16002711  0.04021373  1
loop_
_geom_bond_atom_site_label_1
_geom_bond_atom_site_label_2
_geom_bond_distance
_geom_bond_site_symmetry_2
Er0 Pt1 2.972741 1_555
Er0 Pt1 2.972741 1_455
Er0 Pt0 2.978928 1_455
Er0 Pt0 2.978928 1_555
Er1 Pt0 2.972741 1_455
Er1 Pt0 2.972741 1_555
Er1 Pt1 2.978928 1_554
Er1 Pt1 2.978928 1_454
Er2 Pt0 2.839393 1_545
Er2 Pt1 2.961439 1_544
Er2 Pt0 3.041801 1_555
Er3 Pt1 2.839393 1_555
Er3 Pt0 2.961439 1_555
Er3 Pt1 3.041801 1_545
Au0 Er0 2.904121 1_545
Au0 Pt0 2.921449 1_455
Au0 Pt0 2.921449 1_555
Au0 Er2 2.990232 1_455
Au0 Er2 2.990232 1_555
Au0 Er3 2.990307 1_455
Au0 Er3 2.990307 1_555
Au0 Er0 2.991453 1_555
Au0 Er1 3.020450 1_555
Au1 Er1 2.904121 1_555
Au1 Pt1 2.921449 1_544
Au1 Pt1 2.921449 1_444
Au1 Er3 2.990232 1_454
Au1 Er3 2.990232 1_554
Au1 Er2 2.990307 1_455
Au1 Er2 2.990307 1_555
Au1 Er1 2.991453 1_545
Au1 Er0 3.020450 1_544
