# generated using pymatgen
data_RbTbS2O9
_symmetry_space_group_name_H-M   'P 1'
_cell_length_a   8.60128500
_cell_length_b   10.75880907
_cell_length_c   10.25453476
_cell_angle_alpha   120.81993904
_cell_angle_beta   90.00000000
_cell_angle_gamma   90.00000000
_symmetry_Int_Tables_number   1
_chemical_formula_structural   RbTbS2O9
_chemical_formula_sum   'Rb4 Tb4 S8 O36'
_cell_volume   814.94116829
_cell_formula_units_Z   4
loop_
 _symmetry_equiv_pos_site_id
 _symmetry_equiv_pos_as_xyz
  1  'x, y, z'
loop_
 _atom_site_type_symbol
 _atom_site_label
 _atom_site_symmetry_multiplicity
 _atom_site_fract_x
 _atom_site_fract_y
 _atom_site_fract_z
 _atom_site_occupancy
  Rb  Rb0  1  0.33339500  0.68085200  0.95930000  1
  Rb  Rb1  1  0.66660500  0.31914800  0.04070000  1
  Rb  Rb2  1  0.83339500  0.81914800  0.54070000  1
  Rb  Rb3  1  0.16660500  0.18085200  0.45930000  1
  Tb  Tb0  1  0.37075500  0.97222600  0.71979900  1
  Tb  Tb1  1  0.62924500  0.02777400  0.28020100  1
  Tb  Tb2  1  0.87075500  0.52777400  0.78020100  1
  Tb  Tb3  1  0.12924500  0.47222600  0.21979900  1
  S  S0  1  0.13191300  0.31379700  0.87486700  1
  S  S1  1  0.86808700  0.68620300  0.12513300  1
  S  S2  1  0.63191300  0.18620300  0.62513300  1
  S  S3  1  0.36808700  0.81379700  0.37486700  1
  S  S4  1  0.19548700  0.61303900  0.59826200  1
  S  S5  1  0.80451300  0.38696100  0.40173800  1
  S  S6  1  0.69548700  0.88696100  0.90173800  1
  S  S7  1  0.30451300  0.11303900  0.09826200  1
  O  O0  1  0.79242800  0.01962200  0.97897300  1
  O  O1  1  0.20757200  0.98037800  0.02102700  1
  O  O2  1  0.29242800  0.48037800  0.52102700  1
  O  O3  1  0.70757200  0.51962200  0.47897300  1
  O  O4  1  0.20349700  0.17319100  0.76447400  1
  O  O5  1  0.79650300  0.82680900  0.23552600  1
  O  O6  1  0.70349700  0.32680900  0.73552600  1
  O  O7  1  0.29650300  0.67319100  0.26447400  1
  O  O8  1  0.29714200  0.74448100  0.68244200  1
  O  O9  1  0.70285800  0.25551900  0.31755800  1
  O  O10  1  0.79714200  0.75551900  0.81755800  1
  O  O11  1  0.20285800  0.24448100  0.18244200  1
  O  O12  1  0.39963500  0.12742700  0.98526000  1
  O  O13  1  0.60036500  0.87257300  0.01474000  1
  O  O14  1  0.89963500  0.37257300  0.51474000  1
  O  O15  1  0.10036500  0.62742700  0.48526000  1
  O  O16  1  0.12176500  0.93704800  0.78474600  1
  O  O17  1  0.87823500  0.06295200  0.21525400  1
  O  O18  1  0.62176500  0.56295200  0.71525400  1
  O  O19  1  0.37823500  0.43704800  0.28474600  1
  O  O20  1  0.25175600  0.41704000  0.98364300  1
  O  O21  1  0.74824400  0.58296000  0.01635700  1
  O  O22  1  0.75175600  0.08296000  0.51635700  1
  O  O23  1  0.24824400  0.91704000  0.48364300  1
  O  O24  1  0.01277400  0.30090300  0.97261500  1
  O  O25  1  0.98722600  0.69909700  0.02738500  1
  O  O26  1  0.51277400  0.19909700  0.52738500  1
  O  O27  1  0.48722600  0.80090300  0.47261500  1
  O  O28  1  0.06184100  0.37551200  0.78690400  1
  O  O29  1  0.93815900  0.62448800  0.21309600  1
  O  O30  1  0.56184100  0.12448800  0.71309600  1
  O  O31  1  0.43815900  0.87551200  0.28690400  1
  O  O32  1  0.59592600  0.89297600  0.78694000  1
  O  O33  1  0.40407400  0.10702400  0.21306000  1
  O  O34  1  0.09592600  0.60702400  0.71306000  1
  O  O35  1  0.90407400  0.39297600  0.28694000  1
loop_
_geom_bond_atom_site_label_1
_geom_bond_atom_site_label_2
_geom_bond_distance
_geom_bond_site_symmetry_2
O0 S6 1.483686 1_545
O0 Rb1 3.141104 1_556
O1 S7 1.483686 1_565
O1 Rb0 3.141104 1_554
O2 S4 1.483686 1_555
O2 Rb3 3.141104 1_555
O3 S5 1.483686 1_555
O3 Rb2 3.141104 1_555
O4 S0 1.481305 1_555
O4 Tb0 2.437096 1_545
O4 Rb3 3.188266 1_555
O5 S1 1.481305 1_555
O5 Tb1 2.437096 1_565
O5 Rb2 3.188266 1_555
O6 S2 1.481305 1_555
O6 Tb2 2.437096 1_555
O6 Rb1 3.188266 1_556
O7 S3 1.481305 1_555
O7 Tb3 2.437096 1_555
O7 Rb0 3.188266 1_554
O8 S4 1.502879 1_555
O8 Tb0 2.364241 1_555
O8 Rb0 3.258464 1_555
O9 S5 1.502879 1_555
O9 Tb1 2.364241 1_555
O9 Rb1 3.258464 1_555
O10 S6 1.502879 1_555
O10 Tb2 2.364241 1_555
O10 Rb2 3.258464 1_555
O11 S7 1.502879 1_555
O11 Tb3 2.364241 1_555
O11 Rb3 3.258464 1_555
O12 S7 1.489949 1_556
O12 Tb0 2.366958 1_545
O12 Rb1 2.940954 1_556
O13 S6 1.489949 1_554
O13 Tb1 2.366958 1_565
O13 Rb0 2.940954 1_554
O14 S5 1.489949 1_555
O14 Tb2 2.366958 1_555
O14 Rb3 2.940954 1_655
O15 S4 1.489949 1_555
O15 Tb3 2.366958 1_555
O15 Rb2 2.940954 1_455
O16 Tb0 2.330597 1_555
O16 Rb2 3.281960 1_455
O17 Tb1 2.330597 1_555
O17 Rb3 3.281960 1_655
O18 Tb2 2.330597 1_555
O18 Rb0 3.281960 1_555
O19 Tb3 2.330597 1_555
O19 Rb1 3.281960 1_555
O20 S0 1.506985 1_555
O20 Tb3 2.419520 1_556
O20 Rb0 3.055710 1_555
O21 S1 1.506985 1_555
O21 Tb2 2.419520 1_554
O21 Rb1 3.055710 1_555
O22 S2 1.506985 1_555
O22 Tb1 2.419520 1_555
O22 Rb2 3.055710 1_545
O23 S3 1.506985 1_555
O23 Tb0 2.419520 1_555
O23 Rb3 3.055710 1_565
O24 S0 1.488813 1_555
O24 Tb3 2.457362 1_556
O24 Rb1 3.041554 1_456
O25 S1 1.488813 1_555
O25 Tb2 2.457362 1_554
O25 Rb0 3.041554 1_654
O26 S2 1.488813 1_555
O26 Tb1 2.457362 1_555
O26 Rb3 3.041554 1_555
O27 S3 1.488813 1_555
O27 Tb0 2.457362 1_555
O27 Rb2 3.041554 1_555
O28 S0 1.493812 1_555
O28 Tb2 2.346282 1_455
O28 Rb3 3.045411 1_555
O29 S1 1.493812 1_555
O29 Tb3 2.346282 1_655
O29 Rb2 3.045411 1_555
O30 S2 1.493812 1_555
O30 Tb0 2.346282 1_545
O30 Rb1 3.045411 1_556
O31 S3 1.493812 1_555
O31 Tb1 2.346282 1_565
O31 Rb0 3.045411 1_554
O32 S6 1.483708 1_555
O32 Tb0 2.356605 1_555
O32 Rb2 3.020548 1_555
O33 S7 1.483708 1_555
O33 Tb1 2.356605 1_555
O33 Rb3 3.020548 1_555
O34 S4 1.483708 1_555
O34 Tb2 2.356605 1_455
O34 Rb0 3.020548 1_555
O35 S5 1.483708 1_555
O35 Tb3 2.356605 1_655
O35 Rb1 3.020548 1_555
