# generated using pymatgen
data_Ba2W3O8
_symmetry_space_group_name_H-M   'P 1'
_cell_length_a   4.03164000
_cell_length_b   4.03164000
_cell_length_c   11.96937600
_cell_angle_alpha   90.00000000
_cell_angle_beta   90.00000000
_cell_angle_gamma   90.00000000
_symmetry_Int_Tables_number   1
_chemical_formula_structural   Ba2W3O8
_chemical_formula_sum   'Ba2 W3 O8'
_cell_volume   194.55168687
_cell_formula_units_Z   1
loop_
 _symmetry_equiv_pos_site_id
 _symmetry_equiv_pos_as_xyz
  1  'x, y, z'
loop_
 _atom_site_type_symbol
 _atom_site_label
 _atom_site_symmetry_multiplicity
 _atom_site_fract_x
 _atom_site_fract_y
 _atom_site_fract_z
 _atom_site_occupancy
  Ba  Ba0  1  0.50000000  0.50000000  0.69023000  1
  Ba  Ba1  1  0.50000000  0.50000000  0.30977000  1
  W  W0  1  0.00000000  0.00000000  0.88169100  1
  W  W1  1  0.00000000  0.00000000  0.50000000  1
  W  W2  1  0.00000000  0.00000000  0.11830900  1
  O  O0  1  0.00000000  0.50000000  0.85520300  1
  O  O1  1  0.50000000  0.00000000  0.87143800  1
  O  O2  1  0.50000000  0.00000000  0.50113000  1
  O  O3  1  0.00000000  0.00000000  0.66320900  1
  O  O4  1  0.00000000  0.50000000  0.12856200  1
  O  O5  1  0.50000000  0.00000000  0.14479700  1
  O  O6  1  0.00000000  0.00000000  0.33679100  1
  O  O7  1  0.00000000  0.50000000  0.49887000  1
loop_
_geom_bond_atom_site_label_1
_geom_bond_atom_site_label_2
_geom_bond_distance
_geom_bond_site_symmetry_2
Ba0 O0 2.821820 1_655
Ba0 O0 2.821820 1_555
Ba0 O3 2.869088 1_665
Ba0 O3 2.869088 1_555
Ba0 O3 2.869088 1_655
Ba0 O3 2.869088 1_565
Ba0 O1 2.961057 1_555
Ba0 O1 2.961057 1_565
Ba0 O2 3.030932 1_555
Ba0 O2 3.030932 1_565
Ba0 O7 3.051186 1_555
Ba0 O7 3.051186 1_655
Ba1 O5 2.821820 1_555
Ba1 O5 2.821820 1_565
Ba1 O6 2.869088 1_555
Ba1 O6 2.869088 1_655
Ba1 O6 2.869088 1_565
Ba1 O6 2.869088 1_665
Ba1 O4 2.961057 1_555
Ba1 O4 2.961057 1_655
Ba1 O7 3.030932 1_555
Ba1 O7 3.030932 1_655
Ba1 O2 3.051186 1_555
Ba1 O2 3.051186 1_565
O0 W0 2.040600 1_565
O0 W0 2.040600 1_555
O1 W0 2.019552 1_655
O1 W0 2.019552 1_555
O2 W1 2.015865 1_555
O2 W1 2.015865 1_655
O3 W1 1.953510 1_555
O3 W0 2.615093 1_555
O4 W2 2.019552 1_555
O4 W2 2.019552 1_565
O5 W2 2.040600 1_655
O5 W2 2.040600 1_555
O6 W1 1.953510 1_555
O6 W2 2.615093 1_555
O7 W1 2.015865 1_565
O7 W1 2.015865 1_555
