# generated using pymatgen
data_KP(HO)4
_symmetry_space_group_name_H-M   'P 1'
_cell_length_a   7.88039891
_cell_length_b   7.88039891
_cell_length_c   7.88039891
_cell_angle_alpha   101.38370599
_cell_angle_beta   101.38370599
_cell_angle_gamma   127.24632153
_symmetry_Int_Tables_number   1
_chemical_formula_structural   KP(HO)4
_chemical_formula_sum   'K2 P2 H8 O8'
_cell_volume   349.00797163
_cell_formula_units_Z   2
loop_
 _symmetry_equiv_pos_site_id
 _symmetry_equiv_pos_as_xyz
  1  'x, y, z'
loop_
 _atom_site_type_symbol
 _atom_site_label
 _atom_site_symmetry_multiplicity
 _atom_site_fract_x
 _atom_site_fract_y
 _atom_site_fract_z
 _atom_site_occupancy
  K  K0  1  0.75000000  0.25000000  0.50000000  1
  K  K1  1  0.50000000  0.50000000  0.00000000  1
  P  P0  1  0.25000000  0.75000000  0.50000000  1
  P  P1  1  0.00000000  0.00000000  0.00000000  1
  H  H0  1  0.22184500  0.02846200  0.51299900  1
  H  H1  1  0.51546300  0.70884600  0.48700100  1
  H  H2  1  0.29115400  0.77815500  0.80661700  1
  H  H3  1  0.73453700  0.72153800  0.69338300  1
  H  H4  1  0.97153800  0.48453700  0.19338300  1
  H  H5  1  0.02815500  0.04115400  0.30661700  1
  H  H6  1  0.27846200  0.97184500  0.01299900  1
  H  H7  1  0.95884600  0.26546300  0.98700100  1
  O  O0  1  0.33070300  0.03895300  0.61125900  1
  O  O1  1  0.42769500  0.71944400  0.38874100  1
  O  O2  1  0.28055600  0.66929700  0.70825100  1
  O  O3  1  0.82230500  0.71104700  0.79174900  1
  O  O4  1  0.96104700  0.57230500  0.29174900  1
  O  O5  1  0.91929700  0.03055600  0.20825100  1
  O  O6  1  0.28895300  0.08070300  0.11125900  1
  O  O7  1  0.96944400  0.17769500  0.88874100  1
loop_
_geom_bond_atom_site_label_1
_geom_bond_atom_site_label_2
_geom_bond_distance
_geom_bond_site_symmetry_2
K0 O0 3.085422 1_555
K0 O2 3.085423 1_655
K0 O1 3.085423 1_545
K0 O4 3.085424 1_555
K1 O6 3.085422 1_555
K1 O5 3.085423 1_565
K1 O7 3.085423 1_454
K1 O3 3.085424 1_554
H0 O0 0.984367 1_555
H1 O1 0.984362 1_555
H2 O2 0.984362 1_555
H3 O3 0.984357 1_555
H4 O4 0.984357 1_555
H5 O5 0.984362 1_455
H6 O6 0.984367 1_565
H7 O7 0.984362 1_555
O0 P0 1.896578 1_545
O1 P0 1.896585 1_555
O2 P0 1.896585 1_555
O3 P1 1.896581 1_666
O4 P0 1.896581 1_655
O5 P1 1.896585 1_655
O6 P1 1.896578 1_555
O7 P1 1.896585 1_656
