# generated using pymatgen
data_Li3V2P4(HO8)2
_symmetry_space_group_name_H-M   'P 1'
_cell_length_a   7.88667300
_cell_length_b   8.09605768
_cell_length_c   13.78249309
_cell_angle_alpha   89.71317339
_cell_angle_beta   79.78636585
_cell_angle_gamma   89.90268416
_symmetry_Int_Tables_number   1
_chemical_formula_structural   Li3V2P4(HO8)2
_chemical_formula_sum   'Li9 V6 P12 H6 O48'
_cell_volume   866.06888734
_cell_formula_units_Z   3
loop_
 _symmetry_equiv_pos_site_id
 _symmetry_equiv_pos_as_xyz
  1  'x, y, z'
loop_
 _atom_site_type_symbol
 _atom_site_label
 _atom_site_symmetry_multiplicity
 _atom_site_fract_x
 _atom_site_fract_y
 _atom_site_fract_z
 _atom_site_occupancy
  Li  Li0  1  0.97729700  0.86760000  0.17925600  1
  Li  Li1  1  0.69487200  0.13421400  0.14790900  1
  Li  Li2  1  0.19872900  0.37005700  0.15224600  1
  Li  Li3  1  0.85665600  0.36716200  0.48712500  1
  Li  Li4  1  0.63352400  0.86974600  0.51455200  1
  Li  Li5  1  0.14000700  0.63423500  0.51799300  1
  Li  Li6  1  0.79641800  0.63279000  0.85242400  1
  Li  Li7  1  0.30735100  0.86795900  0.84809700  1
  Li  Li8  1  0.02587200  0.13294300  0.81577200  1
  V  V0  1  0.82239000  0.50407500  0.16652700  1
  V  V1  1  0.33614200  0.99701100  0.16719700  1
  V  V2  1  0.49731300  0.49529500  0.49849800  1
  V  V3  1  0.01102000  0.00322800  0.50119300  1
  V  V4  1  0.66675100  0.00447400  0.83412700  1
  V  V5  1  0.16972100  0.49712500  0.83176300  1
  P  P0  1  0.72665400  0.84765900  0.04429400  1
  P  P1  1  0.21573300  0.65025300  0.04421000  1
  P  P2  1  0.94547000  0.15661800  0.28980900  1
  P  P3  1  0.88865400  0.65692700  0.37662500  1
  P  P4  1  0.44466900  0.34988200  0.28736400  1
  P  P5  1  0.38751200  0.85022500  0.37910800  1
  P  P6  1  0.62094400  0.15114000  0.62122500  1
  P  P7  1  0.54871300  0.65249400  0.71187300  1
  P  P8  1  0.10613300  0.34705000  0.62293100  1
  P  P9  1  0.05819300  0.84756600  0.71259300  1
  P  P10  1  0.77988900  0.35299900  0.95440200  1
  P  P11  1  0.27759200  0.15792800  0.95605700  1
  H  H0  1  0.48128300  0.51029800  0.00667000  1
  H  H1  1  0.67563400  0.01052000  0.32910300  1
  H  H2  1  0.15750200  0.51045700  0.33746700  1
  H  H3  1  0.80856900  0.50600600  0.67470200  1
  H  H4  1  0.36226200  0.01073800  0.65620200  1
  H  H5  1  0.01475400  0.00911800  0.99427100  1
  O  O0  1  0.88733500  0.94394400  0.06279600  1
  O  O1  1  0.79319500  0.33049600  0.06610900  1
  O  O2  1  0.72987600  0.67460900  0.09187400  1
  O  O3  1  0.57068100  0.95253000  0.09332500  1
  O  O4  1  0.37417100  0.54714300  0.06138100  1
  O  O5  1  0.94870900  0.32444600  0.23605900  1
  O  O6  1  0.27900700  0.17556700  0.06722100  1
  O  O7  1  0.88396100  0.67810400  0.26520600  1
  O  O8  1  0.21015300  0.81798200  0.09546600  1
  O  O9  1  0.77854200  0.06296600  0.27246600  1
  O  O10  1  0.05741200  0.54518000  0.09486300  1
  O  O11  1  0.61354200  0.45197800  0.23800000  1
  O  O12  1  0.46084200  0.18509300  0.23088200  1
  O  O13  1  0.95145300  0.17777300  0.40098100  1
  O  O14  1  0.37261100  0.83418600  0.27034700  1
  O  O15  1  0.28106900  0.43897800  0.27102100  1
  O  O16  1  0.88505100  0.82436200  0.43036000  1
  O  O17  1  0.09581100  0.04683100  0.24043800  1
  O  O18  1  0.73766400  0.54732400  0.42550500  1
  O  O19  1  0.55150200  0.93903300  0.39519600  1
  O  O20  1  0.45872200  0.33315400  0.39639900  1
  O  O21  1  0.37232900  0.68504000  0.43590100  1
  O  O22  1  0.94522200  0.44295200  0.60550300  1
  O  O23  1  0.21945400  0.95231000  0.42864100  1
  O  O24  1  0.77859000  0.04377600  0.56909300  1
  O  O25  1  0.05538200  0.56302500  0.39442400  1
  O  O26  1  0.62632700  0.31716300  0.56760200  1
  O  O27  1  0.54990300  0.67161900  0.60056700  1
  O  O28  1  0.46266000  0.04808400  0.60120600  1
  O  O29  1  0.26250000  0.45065000  0.57366300  1
  O  O30  1  0.90196700  0.95310500  0.76031800  1
  O  O31  1  0.10285700  0.17276500  0.57766500  1
  O  O32  1  0.71442200  0.56155300  0.73064200  1
  O  O33  1  0.62678600  0.16733700  0.73075400  1
  O  O34  1  0.04998100  0.82666500  0.60048700  1
  O  O35  1  0.54072400  0.81544200  0.76867100  1
  O  O36  1  0.38422700  0.55025100  0.75738600  1
  O  O37  1  0.94541500  0.45607600  0.90492000  1
  O  O38  1  0.22048200  0.93933000  0.72990900  1
  O  O39  1  0.79237700  0.18367900  0.90394200  1
  O  O40  1  0.11698400  0.32665700  0.73481100  1
  O  O41  1  0.71940000  0.82855400  0.93326700  1
  O  O42  1  0.04816100  0.67497100  0.76342400  1
  O  O43  1  0.62605100  0.45643400  0.93905700  1
  O  O44  1  0.42922200  0.04986100  0.90673900  1
  O  O45  1  0.27070800  0.32722100  0.90618900  1
  O  O46  1  0.21014400  0.67121100  0.93242300  1
  O  O47  1  0.11424800  0.05913100  0.93656200  1
loop_
_geom_bond_atom_site_label_1
_geom_bond_atom_site_label_2
_geom_bond_distance
_geom_bond_site_symmetry_2
Li0 O0 1.963223 1_555
Li0 O7 1.993796 1_555
Li0 O17 1.996658 1_665
Li0 O8 2.029191 1_655
Li0 O9 2.430433 1_565
Li1 O3 1.991531 1_545
Li1 O1 2.018376 1_555
Li1 O9 2.026273 1_555
Li1 O12 2.034136 1_555
Li1 O0 2.330605 1_545
Li2 O15 1.949424 1_555
Li2 O6 2.001359 1_555
Li2 O10 2.042994 1_555
Li2 O5 2.132899 1_455
Li2 O4 2.216439 1_555
Li3 O22 1.985437 1_555
Li3 O26 1.994334 1_555
Li3 O18 1.998769 1_555
Li3 O13 2.004781 1_555
Li3 O25 2.425139 1_655
Li4 O19 1.950931 1_555
Li4 O27 2.029926 1_555
Li4 O24 2.044564 1_565
Li4 O16 2.145241 1_555
Li4 O28 2.183306 1_565
Li5 O34 1.987872 1_555
Li5 O29 1.994414 1_555
Li5 O21 2.017218 1_555
Li5 O25 2.023008 1_555
Li5 O22 2.354824 1_455
Li6 O41 1.974029 1_555
Li6 O32 1.990963 1_555
Li6 O37 2.058308 1_555
Li6 O43 2.165663 1_555
Li6 O42 2.167388 1_655
Li7 O38 1.960014 1_555
Li7 O44 2.009502 1_565
Li7 O35 2.013497 1_555
Li7 O46 2.036026 1_555
Li7 O47 2.356656 1_565
Li8 O40 1.980665 1_555
Li8 O30 1.984888 1_445
Li8 O47 2.003635 1_555
Li8 O39 2.060432 1_455
Li8 O38 2.362089 1_545
H0 O4 1.070836 1_555
H0 O43 1.409676 1_554
H1 O9 1.105214 1_555
H1 O19 1.342966 1_545
H2 O25 1.106338 1_555
H2 O15 1.345424 1_555
H3 O32 1.071123 1_555
H3 O22 1.403641 1_555
H4 O28 1.038550 1_555
H4 O38 1.486606 1_545
H5 O47 1.090325 1_555
H5 O0 1.356640 1_446
O0 P0 1.548720 1_555
O1 P10 1.571305 1_554
O1 V0 2.019151 1_555
O2 P0 1.546007 1_555
O2 V0 1.935405 1_555
O3 P0 1.548580 1_555
O3 V1 1.980235 1_555
O4 P1 1.553575 1_555
O5 P2 1.542390 1_555
O5 V0 2.084593 1_555
O6 P11 1.541480 1_554
O6 V1 2.095113 1_545
O7 P3 1.551267 1_555
O7 V0 2.079993 1_555
O8 P1 1.530809 1_555
O8 V1 2.105507 1_555
O9 P2 1.575441 1_555
O10 P1 1.567999 1_555
O10 V0 1.967608 1_455
O11 P4 1.611424 1_555
O11 V0 1.812195 1_555
O12 P4 1.541692 1_555
O12 V1 2.093065 1_545
O13 P2 1.551637 1_555
O13 V3 2.081723 1_655
O14 P5 1.530405 1_555
O14 V1 1.991625 1_555
O15 P4 1.527775 1_555
O16 P3 1.545739 1_555
O16 V3 2.097639 1_665
O17 P2 1.541192 1_455
O17 V1 2.024154 1_545
O18 P3 1.540252 1_555
O18 V2 2.026051 1_555
O19 P5 1.531435 1_555
O20 P4 1.531644 1_555
O20 V2 1.991911 1_555
O21 P5 1.540245 1_555
O21 V2 2.087819 1_555
O22 P8 1.540753 1_655
O23 P5 1.608388 1_555
O23 V3 1.814101 1_565
O24 P6 1.582209 1_555
O24 V3 1.932993 1_655
O25 P3 1.573630 1_455
O26 P6 1.527685 1_555
O26 V2 2.084990 1_555
O27 P7 1.539470 1_555
O27 V2 2.101878 1_555
O28 P6 1.567990 1_555
O29 P8 1.544750 1_555
O29 V2 1.987844 1_555
O30 P9 1.547728 1_655
O30 V4 1.995362 1_565
O31 P8 1.547749 1_555
O31 V3 1.951415 1_555
O32 P7 1.559387 1_555
O33 P6 1.524738 1_555
O33 V4 2.001706 1_555
O34 P9 1.567899 1_555
O34 V3 2.034374 1_565
O35 P7 1.532881 1_555
O35 V4 2.116820 1_565
O36 P7 1.572067 1_555
O36 V5 1.865704 1_555
O37 P10 1.596243 1_555
O37 V5 1.903320 1_655
O38 P9 1.536368 1_555
O39 P10 1.535359 1_555
O39 V4 2.090319 1_555
O40 P8 1.567323 1_555
O40 V5 2.020090 1_555
O41 P0 1.549917 1_556
O41 V4 2.060990 1_565
O42 P9 1.555809 1_555
O42 V5 2.044845 1_555
O43 P10 1.517825 1_555
O44 P11 1.540035 1_555
O44 V4 1.995585 1_555
O45 P11 1.535398 1_555
O45 V5 1.962289 1_555
O46 P1 1.557544 1_556
O46 V5 2.047134 1_555
O47 P11 1.581123 1_555
