# generated using pymatgen
data_Na4CaFe4(PO4)6
_symmetry_space_group_name_H-M   'P 1'
_cell_length_a   8.83494410
_cell_length_b   8.83494410
_cell_length_c   6.49031426
_cell_angle_alpha   73.61996429
_cell_angle_beta   73.61996429
_cell_angle_gamma   91.49461666
_symmetry_Int_Tables_number   1
_chemical_formula_structural   Na4CaFe4(PO4)6
_chemical_formula_sum   'Na4 Ca1 Fe4 P6 O24'
_cell_volume   463.24028920
_cell_formula_units_Z   1
loop_
 _symmetry_equiv_pos_site_id
 _symmetry_equiv_pos_as_xyz
  1  'x, y, z'
loop_
 _atom_site_type_symbol
 _atom_site_label
 _atom_site_symmetry_multiplicity
 _atom_site_fract_x
 _atom_site_fract_y
 _atom_site_fract_z
 _atom_site_occupancy
  Na  Na0  1  0.50308200  0.49653700  0.24716800  1
  Na  Na1  1  0.50346300  0.49691800  0.75283200  1
  Na  Na2  1  0.00620300  0.99379700  0.00000000  1
  Na  Na3  1  0.73278600  0.26721400  0.00000000  1
  Ca  Ca0  1  0.26286800  0.73713200  0.50000000  1
  Fe  Fe0  1  0.92791900  0.61598900  0.39202700  1
  Fe  Fe1  1  0.38401100  0.07208100  0.60797300  1
  Fe  Fe2  1  0.06476300  0.37563700  0.11521300  1
  Fe  Fe3  1  0.62436300  0.93523700  0.88478700  1
  P  P0  1  0.27631900  0.72368100  0.00000000  1
  P  P1  1  0.72552500  0.27447500  0.50000000  1
  P  P2  1  0.65119500  0.85741500  0.38315900  1
  P  P3  1  0.14258500  0.34880500  0.61684100  1
  P  P4  1  0.34935300  0.14397900  0.11543400  1
  P  P5  1  0.85602100  0.65064700  0.88456600  1
  O  O0  1  0.15038700  0.74379000  0.21157100  1
  O  O1  1  0.25621000  0.84961300  0.78842900  1
  O  O2  1  0.84802600  0.25822600  0.28587600  1
  O  O3  1  0.74177400  0.15197400  0.71412400  1
  O  O4  1  0.53383200  0.71123100  0.43620200  1
  O  O5  1  0.28876900  0.46616800  0.56379800  1
  O  O6  1  0.46154200  0.28935800  0.06970000  1
  O  O7  1  0.71064200  0.53845800  0.93030000  1
  O  O8  1  0.25302100  0.55613500  0.97372600  1
  O  O9  1  0.44386500  0.74697900  0.02627400  1
  O  O10  1  0.74611500  0.44529100  0.52096200  1
  O  O11  1  0.55470900  0.25388500  0.47903800  1
  O  O12  1  0.82196600  0.81183800  0.36751800  1
  O  O13  1  0.18816200  0.17803400  0.63248200  1
  O  O14  1  0.17733400  0.18435700  0.12527600  1
  O  O15  1  0.81564300  0.82266600  0.87472400  1
  O  O16  1  0.66054800  0.98189500  0.15498600  1
  O  O17  1  0.01810500  0.33945200  0.84501400  1
  O  O18  1  0.34214600  0.01697900  0.34449500  1
  O  O19  1  0.98302100  0.65785400  0.65550500  1
  O  O20  1  0.59164700  0.93858300  0.57577900  1
  O  O21  1  0.06141700  0.40835300  0.42422100  1
  O  O22  1  0.40711400  0.05944900  0.92533200  1
  O  O23  1  0.94055100  0.59288600  0.07466800  1
loop_
_geom_bond_atom_site_label_1
_geom_bond_atom_site_label_2
_geom_bond_distance
_geom_bond_site_symmetry_2
Na0 O7 2.266564 1_554
Na0 O5 2.312606 1_555
Na0 O11 2.384798 1_555
Na0 O9 2.432937 1_555
Na0 O6 2.490844 1_555
Na0 O4 2.578881 1_555
Na1 O6 2.266564 1_556
Na1 O4 2.312606 1_555
Na1 O10 2.384798 1_555
Na1 O8 2.432937 1_555
Na1 O7 2.490844 1_555
Na1 O5 2.578881 1_555
Na2 O12 2.536614 1_455
Na2 O13 2.536614 1_564
Na2 O15 2.667236 1_454
Na2 O14 2.667236 1_565
Na2 O0 2.794595 1_555
Na2 O1 2.794595 1_554
Na2 O16 2.922305 1_455
Na2 O17 2.922305 1_564
Na3 O7 2.334247 1_554
Na3 O6 2.334247 1_555
Na3 O2 2.339252 1_555
Na3 O3 2.339252 1_554
Na3 O16 2.428440 1_545
Na3 O17 2.428440 1_654
Ca0 O4 2.340461 1_555
Ca0 O5 2.340461 1_555
Ca0 O1 2.342131 1_555
Ca0 O0 2.342131 1_555
Ca0 O18 2.392838 1_565
Ca0 O19 2.392838 1_455
Fe0 O12 1.977067 1_555
Fe0 O10 1.989563 1_555
Fe0 O19 2.028541 1_555
Fe0 O0 2.085616 1_655
Fe0 O23 2.098902 1_555
Fe0 O21 2.199011 1_655
Fe1 O13 1.977067 1_555
Fe1 O11 1.989563 1_555
Fe1 O18 2.028541 1_555
Fe1 O1 2.085616 1_545
Fe1 O22 2.098902 1_555
Fe1 O20 2.199011 1_545
Fe2 O14 1.977726 1_555
Fe2 O2 2.005412 1_455
Fe2 O17 2.016078 1_554
Fe2 O8 2.080131 1_554
Fe2 O21 2.097773 1_555
Fe2 O23 2.223839 1_455
Fe3 O15 1.977726 1_555
Fe3 O3 2.005412 1_565
Fe3 O16 2.016078 1_556
Fe3 O9 2.080131 1_556
Fe3 O20 2.097773 1_555
Fe3 O22 2.223839 1_565
O0 P0 1.562446 1_555
O1 P0 1.562446 1_556
O2 P1 1.547778 1_555
O3 P1 1.547778 1_555
O4 P2 1.529622 1_555
O5 P3 1.529622 1_555
O6 P4 1.507611 1_555
O7 P5 1.507611 1_555
O8 P0 1.552060 1_556
O9 P0 1.552060 1_555
O10 P1 1.563514 1_555
O11 P1 1.563514 1_555
O12 P2 1.554717 1_555
O13 P3 1.554717 1_555
O14 P4 1.558027 1_555
O15 P5 1.558027 1_555
O16 P2 1.554697 1_555
O17 P3 1.554697 1_555
O18 P4 1.573302 1_555
O19 P5 1.573302 1_555
O20 P2 1.583766 1_555
O21 P3 1.583766 1_555
O22 P4 1.589005 1_556
O23 P5 1.589005 1_554
