# generated using pymatgen
data_Ca3Nd2Sb3O14
_symmetry_space_group_name_H-M   'P 1'
_cell_length_a   7.53662540
_cell_length_b   7.53662540
_cell_length_c   7.49181206
_cell_angle_alpha   60.76009986
_cell_angle_beta   60.76009986
_cell_angle_gamma   60.48909187
_symmetry_Int_Tables_number   1
_chemical_formula_structural   Ca3Nd2Sb3O14
_chemical_formula_sum   'Ca3 Nd2 Sb3 O14'
_cell_volume   305.44755980
_cell_formula_units_Z   1
loop_
 _symmetry_equiv_pos_site_id
 _symmetry_equiv_pos_as_xyz
  1  'x, y, z'
loop_
 _atom_site_type_symbol
 _atom_site_label
 _atom_site_symmetry_multiplicity
 _atom_site_fract_x
 _atom_site_fract_y
 _atom_site_fract_z
 _atom_site_occupancy
  Ca  Ca0  1  0.00000000  0.00000000  0.00000000  1
  Ca  Ca1  1  0.50000000  0.50000000  0.50000000  1
  Ca  Ca2  1  0.50000000  0.50000000  0.00000000  1
  Nd  Nd0  1  0.50000000  0.00000000  0.50000000  1
  Nd  Nd1  1  0.00000000  0.50000000  0.50000000  1
  Sb  Sb0  1  0.00000000  0.00000000  0.50000000  1
  Sb  Sb1  1  0.50000000  0.00000000  0.00000000  1
  Sb  Sb2  1  0.00000000  0.50000000  0.00000000  1
  O  O0  1  0.37620600  0.37620600  0.37959300  1
  O  O1  1  0.62379400  0.62379400  0.62040700  1
  O  O2  1  0.31550000  0.91122200  0.31693300  1
  O  O3  1  0.68450000  0.08877800  0.68306700  1
  O  O4  1  0.08877800  0.68450000  0.68306700  1
  O  O5  1  0.91122200  0.31550000  0.31693300  1
  O  O6  1  0.62949000  0.09137700  0.09928400  1
  O  O7  1  0.37051000  0.90862300  0.90071600  1
  O  O8  1  0.90862300  0.37051000  0.90071600  1
  O  O9  1  0.09137700  0.62949000  0.09928400  1
  O  O10  1  0.90291300  0.90291300  0.37138700  1
  O  O11  1  0.09708700  0.09708700  0.62861300  1
  O  O12  1  0.68570700  0.68570700  0.08838800  1
  O  O13  1  0.31429300  0.31429300  0.91161200  1
loop_
_geom_bond_atom_site_label_1
_geom_bond_atom_site_label_2
_geom_bond_distance
_geom_bond_site_symmetry_2
Ca0 O10 2.315589 1_445
Ca0 O11 2.315589 1_554
Ca0 O7 2.324170 1_544
Ca0 O9 2.324170 1_545
Ca0 O6 2.324170 1_455
Ca0 O8 2.324170 1_454
Ca1 O0 2.248697 1_555
Ca1 O1 2.248697 1_555
Ca1 O5 2.623862 1_555
Ca1 O3 2.623862 1_555
Ca1 O4 2.623862 1_555
Ca1 O2 2.623862 1_555
Ca1 O12 2.631367 1_555
Ca1 O13 2.631367 1_555
Ca2 O1 2.345587 1_554
Ca2 O0 2.345587 1_555
Ca2 O7 2.549555 1_554
Ca2 O8 2.549555 1_554
Ca2 O9 2.549555 1_555
Ca2 O6 2.549555 1_555
Ca2 O12 2.845519 1_555
Ca2 O13 2.845519 1_554
Nd0 O0 2.332527 1_555
Nd0 O1 2.332527 1_545
Nd0 O7 2.493865 1_545
Nd0 O6 2.493865 1_555
Nd0 O10 2.515186 1_545
Nd0 O11 2.515186 1_555
Nd0 O3 2.817513 1_555
Nd0 O2 2.817513 1_545
Nd1 O0 2.332527 1_555
Nd1 O1 2.332527 1_455
Nd1 O9 2.493865 1_555
Nd1 O8 2.493865 1_455
Nd1 O10 2.515186 1_455
Nd1 O11 2.515186 1_555
Nd1 O4 2.817513 1_555
Nd1 O5 2.817513 1_455
O2 Sb0 2.031211 1_565
O2 Sb1 2.039129 1_565
O3 Sb0 2.031211 1_655
O3 Sb1 2.039129 1_556
O4 Sb0 2.031211 1_565
O4 Sb2 2.039129 1_556
O5 Sb0 2.031211 1_655
O5 Sb2 2.039129 1_655
O6 Sb1 1.962568 1_555
O7 Sb1 1.962568 1_566
O8 Sb2 1.962568 1_656
O9 Sb2 1.962568 1_555
O10 Sb0 1.975909 1_665
O11 Sb0 1.975909 1_555
O12 Sb2 2.028576 1_655
O12 Sb1 2.028576 1_565
O13 Sb1 2.028576 1_556
O13 Sb2 2.028576 1_556
