# generated using pymatgen
data_U3VSb5
_symmetry_space_group_name_H-M   'P 1'
_cell_length_a   9.11311826
_cell_length_b   9.11311826
_cell_length_c   6.08218300
_cell_angle_alpha   90.00000000
_cell_angle_beta   90.00000000
_cell_angle_gamma   120.00000191
_symmetry_Int_Tables_number   1
_chemical_formula_structural   U3VSb5
_chemical_formula_sum   'U6 V2 Sb10'
_cell_volume   437.44566677
_cell_formula_units_Z   2
loop_
 _symmetry_equiv_pos_site_id
 _symmetry_equiv_pos_as_xyz
  1  'x, y, z'
loop_
 _atom_site_type_symbol
 _atom_site_label
 _atom_site_symmetry_multiplicity
 _atom_site_fract_x
 _atom_site_fract_y
 _atom_site_fract_z
 _atom_site_occupancy
  U  U0  1  0.38872100  0.38872100  0.75000000  1
  U  U1  1  0.61127900  0.00000000  0.75000000  1
  U  U2  1  0.00000000  0.61127900  0.75000000  1
  U  U3  1  0.61127900  0.61127900  0.25000000  1
  U  U4  1  0.38872100  0.00000000  0.25000000  1
  U  U5  1  0.00000000  0.38872100  0.25000000  1
  V  V0  1  0.00000000  0.00000000  0.00000000  1
  V  V1  1  0.00000000  0.00000000  0.50000000  1
  Sb  Sb0  1  0.74353600  0.74353600  0.75000000  1
  Sb  Sb1  1  0.25646400  0.00000000  0.75000000  1
  Sb  Sb2  1  0.00000000  0.25646400  0.75000000  1
  Sb  Sb3  1  0.25646400  0.25646400  0.25000000  1
  Sb  Sb4  1  0.74353600  0.00000000  0.25000000  1
  Sb  Sb5  1  0.00000000  0.74353600  0.25000000  1
  Sb  Sb6  1  0.66666700  0.33333300  0.00000000  1
  Sb  Sb7  1  0.33333300  0.66666700  0.00000000  1
  Sb  Sb8  1  0.33333300  0.66666700  0.50000000  1
  Sb  Sb9  1  0.66666700  0.33333300  0.50000000  1
loop_
_geom_bond_atom_site_label_1
_geom_bond_atom_site_label_2
_geom_bond_distance
_geom_bond_site_symmetry_2
Sb0 V1 2.788279 1_665
Sb0 V0 2.788279 1_666
Sb0 U1 3.119628 1_565
Sb0 U2 3.119628 1_655
Sb0 U0 3.233471 1_555
Sb0 U3 3.271226 1_555
Sb0 U3 3.271226 1_556
Sb1 V0 2.788279 1_556
Sb1 V1 2.788279 1_555
Sb1 U2 3.119628 1_545
Sb1 U0 3.119628 1_555
Sb1 U1 3.233471 1_555
Sb1 U4 3.271226 1_555
Sb1 U4 3.271226 1_556
Sb2 V0 2.788279 1_556
Sb2 V1 2.788279 1_555
Sb2 U1 3.119628 1_455
Sb2 U0 3.119628 1_555
Sb2 U2 3.233471 1_555
Sb2 U5 3.271226 1_556
Sb2 U5 3.271226 1_555
Sb3 V1 2.788279 1_555
Sb3 V0 2.788279 1_555
Sb3 U5 3.119628 1_555
Sb3 U4 3.119628 1_555
Sb3 U3 3.233471 1_555
Sb3 U0 3.271226 1_555
Sb3 U0 3.271226 1_554
Sb4 V0 2.788279 1_655
Sb4 V1 2.788279 1_655
Sb4 U5 3.119628 1_655
Sb4 U3 3.119628 1_545
Sb4 U4 3.233471 1_555
Sb4 U1 3.271226 1_555
Sb4 U1 3.271226 1_554
Sb5 V0 2.788279 1_565
Sb5 V1 2.788279 1_565
Sb5 U4 3.119628 1_565
Sb5 U3 3.119628 1_455
Sb5 U5 3.233471 1_555
Sb5 U2 3.271226 1_555
Sb5 U2 3.271226 1_554
Sb6 Sb9 3.041091 1_554
Sb6 Sb9 3.041091 1_555
Sb6 U1 3.203307 1_554
Sb6 U5 3.203307 1_655
Sb6 U4 3.203310 1_555
Sb6 U2 3.203310 1_654
Sb6 U3 3.203315 1_555
Sb6 U0 3.203315 1_554
Sb7 Sb8 3.041091 1_555
Sb7 Sb8 3.041091 1_554
Sb7 U4 3.203307 1_565
Sb7 U2 3.203307 1_554
Sb7 U5 3.203310 1_555
Sb7 U1 3.203310 1_564
Sb7 U3 3.203315 1_555
Sb7 U0 3.203315 1_554
Sb8 U4 3.203307 1_565
Sb8 U2 3.203307 1_555
Sb8 U1 3.203310 1_565
Sb8 U5 3.203310 1_555
Sb8 U3 3.203315 1_555
Sb8 U0 3.203315 1_555
Sb9 U1 3.203307 1_555
Sb9 U5 3.203307 1_655
Sb9 U4 3.203310 1_555
Sb9 U2 3.203310 1_655
Sb9 U3 3.203315 1_555
Sb9 U0 3.203315 1_555
