# generated using pymatgen
data_YVO2
_symmetry_space_group_name_H-M   'P 1'
_cell_length_a   7.30955748
_cell_length_b   7.30955748
_cell_length_c   7.30955748
_cell_angle_alpha   129.81404047
_cell_angle_beta   129.81404047
_cell_angle_gamma   73.70422690
_symmetry_Int_Tables_number   1
_chemical_formula_structural   YVO2
_chemical_formula_sum   'Y4 V4 O8'
_cell_volume   224.82117873
_cell_formula_units_Z   4
loop_
 _symmetry_equiv_pos_site_id
 _symmetry_equiv_pos_as_xyz
  1  'x, y, z'
loop_
 _atom_site_type_symbol
 _atom_site_label
 _atom_site_symmetry_multiplicity
 _atom_site_fract_x
 _atom_site_fract_y
 _atom_site_fract_z
 _atom_site_occupancy
  Y  Y0  1  0.87500000  0.62500000  0.25000000  1
  Y  Y1  1  0.37500000  0.62500000  0.75000000  1
  Y  Y2  1  0.37500000  0.62500000  0.25000000  1
  Y  Y3  1  0.37500000  0.12500000  0.75000000  1
  V  V0  1  0.37500000  0.12500000  0.25000000  1
  V  V1  1  0.87500000  0.12500000  0.75000000  1
  V  V2  1  0.87500000  0.12500000  0.25000000  1
  V  V3  1  0.87500000  0.62500000  0.75000000  1
  O  O0  1  0.17404700  0.40708400  0.23303700  1
  O  O1  1  0.17404700  0.94101000  0.76696300  1
  O  O2  1  0.15708400  0.42404700  0.73303700  1
  O  O3  1  0.57595300  0.84291600  0.26696300  1
  O  O4  1  0.69101000  0.42404700  0.26696300  1
  O  O5  1  0.57595300  0.30899000  0.73303700  1
  O  O6  1  0.59291600  0.82595300  0.76696300  1
  O  O7  1  0.05899000  0.82595300  0.23303700  1
loop_
_geom_bond_atom_site_label_1
_geom_bond_atom_site_label_2
_geom_bond_distance
_geom_bond_site_symmetry_2
O0 V1 2.195206 1_454
O0 V0 2.195206 1_555
O0 Y0 2.339005 1_455
O0 Y1 2.339005 1_555
O0 Y2 2.353102 1_555
O1 V1 2.195206 1_465
O1 V0 2.195206 1_566
O1 Y0 2.339005 1_455
O1 Y1 2.339005 1_555
O1 Y3 2.353102 1_565
O2 V2 2.195206 1_455
O2 V3 2.195206 1_455
O2 Y3 2.339005 1_555
O2 Y2 2.339005 1_556
O2 Y1 2.353102 1_555
O3 V0 2.195206 1_565
O3 V1 2.195206 1_565
O3 Y1 2.339005 1_554
O3 Y0 2.339005 1_555
O3 Y2 2.353102 1_555
O4 V3 2.195206 1_555
O4 V2 2.195206 1_555
O4 Y2 2.339005 1_555
O4 Y3 2.339005 1_554
O4 Y0 2.353102 1_555
O5 V0 2.195206 1_555
O5 V1 2.195206 1_555
O5 Y1 2.339005 1_555
O5 Y0 2.339005 1_556
O5 Y3 2.353102 1_555
O6 V3 2.195206 1_555
O6 V2 2.195206 1_566
O6 Y2 2.339005 1_555
O6 Y3 2.339005 1_565
O6 Y1 2.353102 1_555
O7 V3 2.195206 1_454
O7 V2 2.195206 1_465
O7 Y2 2.339005 1_555
O7 Y3 2.339005 1_565
O7 Y0 2.353102 1_455
