# generated using pymatgen
data_CsCaI3
_symmetry_space_group_name_H-M   'P 1'
_cell_length_a   8.57588159
_cell_length_b   8.78260577
_cell_length_c   12.28814489
_cell_angle_alpha   90.00000000
_cell_angle_beta   90.00000000
_cell_angle_gamma   90.00000000
_symmetry_Int_Tables_number   1
_chemical_formula_structural   CsCaI3
_chemical_formula_sum   'Cs4 Ca4 I12'
_cell_volume   925.52571163
_cell_formula_units_Z   4
loop_
 _symmetry_equiv_pos_site_id
 _symmetry_equiv_pos_as_xyz
  1  'x, y, z'
loop_
 _atom_site_type_symbol
 _atom_site_label
 _atom_site_symmetry_multiplicity
 _atom_site_fract_x
 _atom_site_fract_y
 _atom_site_fract_z
 _atom_site_occupancy
  Cs  Cs0  1  0.01885243  0.44114787  0.25000000  1
  Cs  Cs1  1  0.98114757  0.55885213  0.75000000  1
  Cs  Cs2  1  0.51885243  0.05885213  0.75000000  1
  Cs  Cs3  1  0.48114757  0.94114787  0.25000000  1
  Ca  Ca0  1  0.00000000  0.00000000  -0.00000000  1
  Ca  Ca1  1  0.50000000  0.50000000  -0.00000000  1
  Ca  Ca2  1  0.00000000  0.00000000  0.50000000  1
  Ca  Ca3  1  0.50000000  0.50000000  0.50000000  1
  I  I0  1  0.29346903  0.20811219  0.03457412  1
  I  I1  1  0.70653097  0.79188781  0.96542588  1
  I  I2  1  0.79346903  0.29188781  0.96542588  1
  I  I3  1  0.70653097  0.79188781  0.53457412  1
  I  I4  1  0.20653097  0.70811219  0.03457412  1
  I  I5  1  0.29346903  0.20811219  0.46542588  1
  I  I6  1  0.20653097  0.70811219  0.46542588  1
  I  I7  1  0.79346903  0.29188781  0.53457412  1
  I  I8  1  0.56801212  0.50265679  0.25000000  1
  I  I9  1  0.43198788  0.49734321  0.75000000  1
  I  I10  1  0.06801212  0.99734321  0.75000000  1
  I  I11  1  0.93198788  0.00265679  0.25000000  1
loop_
_geom_bond_atom_site_label_1
_geom_bond_atom_site_label_2
_geom_bond_distance
_geom_bond_site_symmetry_2
Cs0 I6 3.885287 1_555
Cs0 I4 3.885287 1_555
Cs0 I8 3.903910 1_455
Cs0 I11 3.922482 1_455
Cs0 I0 4.091797 1_555
Cs0 I5 4.091797 1_555
Cs0 I7 4.205070 1_455
Cs0 I2 4.205070 1_454
Cs1 I2 3.885287 1_555
Cs1 I7 3.885287 1_555
Cs1 I9 3.903910 1_655
Cs1 I10 3.922482 1_655
Cs1 I1 4.091797 1_555
Cs1 I3 4.091797 1_555
Cs1 I6 4.205070 1_655
Cs1 I4 4.205070 1_656
Cs2 I1 3.885287 1_545
Cs2 I3 3.885287 1_545
Cs2 I10 3.903910 1_545
Cs2 I9 3.922482 1_555
Cs2 I7 4.091797 1_555
Cs2 I2 4.091797 1_555
Cs2 I5 4.205070 1_555
Cs2 I0 4.205070 1_556
Cs3 I5 3.885287 1_565
Cs3 I0 3.885287 1_565
Cs3 I11 3.903910 1_565
Cs3 I8 3.922482 1_555
Cs3 I6 4.091797 1_555
Cs3 I4 4.091797 1_555
Cs3 I1 4.205070 1_554
Cs3 I3 4.205070 1_555
Ca0 I11 3.127003 1_455
Ca0 I10 3.127003 1_544
Ca0 I0 3.139314 1_555
Ca0 I1 3.139314 1_444
Ca0 I4 3.144727 1_545
Ca0 I2 3.144727 1_454
Ca1 I9 3.127003 1_554
Ca1 I8 3.127003 1_555
Ca1 I2 3.139314 1_554
Ca1 I4 3.139314 1_555
Ca1 I1 3.144727 1_554
Ca1 I0 3.144727 1_555
Ca2 I11 3.127003 1_455
Ca2 I10 3.127003 1_545
Ca2 I5 3.139314 1_555
Ca2 I3 3.139314 1_445
Ca2 I6 3.144727 1_545
Ca2 I7 3.144727 1_455
Ca3 I9 3.127003 1_555
Ca3 I8 3.127003 1_555
Ca3 I7 3.139314 1_555
Ca3 I6 3.139314 1_555
Ca3 I5 3.144727 1_555
Ca3 I3 3.144727 1_555
