# generated using pymatgen
data_SrCeMg6
_symmetry_space_group_name_H-M   'P 1'
_cell_length_a   6.52891272
_cell_length_b   6.52891272
_cell_length_c   5.18656400
_cell_angle_alpha   90.00000000
_cell_angle_beta   90.00000000
_cell_angle_gamma   109.31800040
_symmetry_Int_Tables_number   1
_chemical_formula_structural   SrCeMg6
_chemical_formula_sum   'Sr1 Ce1 Mg6'
_cell_volume   208.63831837
_cell_formula_units_Z   1
loop_
 _symmetry_equiv_pos_site_id
 _symmetry_equiv_pos_as_xyz
  1  'x, y, z'
loop_
 _atom_site_type_symbol
 _atom_site_label
 _atom_site_symmetry_multiplicity
 _atom_site_fract_x
 _atom_site_fract_y
 _atom_site_fract_z
 _atom_site_occupancy
  Sr  Sr0  1  0.34383200  0.65616800  0.50000000  1
  Ce  Ce0  1  0.86238300  0.13761700  0.50000000  1
  Mg  Mg0  1  0.36095400  0.16989800  0.50000000  1
  Mg  Mg1  1  0.83010200  0.63904600  0.50000000  1
  Mg  Mg2  1  0.15322000  0.33689900  0.00000000  1
  Mg  Mg3  1  0.66310100  0.84678000  0.00000000  1
  Mg  Mg4  1  0.65424000  0.34576000  0.00000000  1
  Mg  Mg5  1  0.13216900  0.86783100  0.00000000  1
loop_
_geom_bond_atom_site_label_1
_geom_bond_atom_site_label_2
_geom_bond_distance
_geom_bond_site_symmetry_2
Ce0 Mg1 3.191608 1_545
Ce0 Mg0 3.191608 1_655
Ce0 Mg2 3.223197 1_656
Ce0 Mg2 3.223197 1_655
Ce0 Mg3 3.223197 1_546
Ce0 Mg3 3.223197 1_545
Ce0 Mg1 3.349418 1_555
Ce0 Mg0 3.349418 1_555
Ce0 Mg4 3.411807 1_556
Ce0 Mg4 3.411807 1_555
Mg0 Mg4 3.202408 1_555
Mg0 Mg4 3.202408 1_556
Mg0 Sr0 3.213527 1_555
Mg0 Mg2 3.275948 1_555
Mg0 Mg2 3.275948 1_556
Mg0 Mg5 3.301016 1_545
Mg0 Mg5 3.301016 1_546
Mg0 Sr0 3.318795 1_545
Mg1 Mg4 3.202408 1_555
Mg1 Mg4 3.202408 1_556
Mg1 Sr0 3.213527 1_555
Mg1 Mg3 3.275948 1_556
Mg1 Mg3 3.275948 1_555
Mg1 Mg5 3.301016 1_655
Mg1 Mg5 3.301016 1_656
Mg1 Sr0 3.318795 1_655
Mg2 Mg5 3.019824 1_545
Mg2 Mg4 3.252436 1_555
Mg2 Mg4 3.277390 1_455
Mg2 Sr0 3.301908 1_555
Mg2 Sr0 3.301908 1_554
Mg2 Mg5 3.514270 1_555
Mg3 Mg5 3.019824 1_655
Mg3 Mg4 3.252436 1_555
Mg3 Mg4 3.277390 1_565
Mg3 Sr0 3.301908 1_555
Mg3 Sr0 3.301908 1_554
Mg3 Mg5 3.514270 1_555
Mg5 Sr0 3.436290 1_555
Mg5 Sr0 3.436290 1_554
