# generated using pymatgen
data_SrZnIn3
_symmetry_space_group_name_H-M   'P 1'
_cell_length_a   6.88777684
_cell_length_b   6.88777684
_cell_length_c   6.88777684
_cell_angle_alpha   140.73125347
_cell_angle_beta   140.73125347
_cell_angle_gamma   56.74465947
_symmetry_Int_Tables_number   1
_chemical_formula_structural   SrZnIn3
_chemical_formula_sum   'Sr1 Zn1 In3'
_cell_volume   129.84983297
_cell_formula_units_Z   1
loop_
 _symmetry_equiv_pos_site_id
 _symmetry_equiv_pos_as_xyz
  1  'x, y, z'
loop_
 _atom_site_type_symbol
 _atom_site_label
 _atom_site_symmetry_multiplicity
 _atom_site_fract_x
 _atom_site_fract_y
 _atom_site_fract_z
 _atom_site_occupancy
  Sr  Sr0  1  0.00477716  0.00477716  -0.00000000  1
  Zn  Zn0  1  0.61397202  0.61397202  0.00000000  1
  In  In0  1  0.74197599  0.24197599  0.50000000  1
  In  In1  1  0.24197599  0.74197599  0.50000000  1
  In  In2  1  0.39729885  0.39729885  0.00000000  1
loop_
_geom_bond_atom_site_label_1
_geom_bond_atom_site_label_2
_geom_bond_distance
_geom_bond_site_symmetry_2
Sr0 Zn0 3.530538 1_455
Sr0 Zn0 3.530538 1_545
Sr0 Zn0 3.530538 1_556
Sr0 Zn0 3.530538 1_444
In0 Zn0 2.786337 1_556
In0 Zn0 2.786337 1_545
In0 In2 2.983423 1_656
In0 In2 2.983423 1_555
In0 In1 3.273067 1_656
In0 In1 3.273067 1_645
In0 In1 3.273067 1_544
In0 In1 3.273067 1_555
In0 Sr0 3.690847 1_555
In0 Sr0 3.690847 1_656
In0 Sr0 3.937387 1_655
In0 Sr0 3.937387 1_666
In1 Zn0 2.786337 1_556
In1 Zn0 2.786337 1_455
In1 In2 2.983423 1_555
In1 In2 2.983423 1_566
In1 Sr0 3.690847 1_566
In1 Sr0 3.690847 1_555
In1 Sr0 3.937387 1_666
In1 Sr0 3.937387 1_565
In2 Zn0 2.626254 1_555
In2 Sr0 3.522791 1_655
In2 Sr0 3.522791 1_565
In2 Sr0 3.522791 1_666
In2 Sr0 3.522791 1_554
