# generated using pymatgen
data_Dy
_symmetry_space_group_name_H-M   'P 1'
_cell_length_a   6.92952871
_cell_length_b   6.92952715
_cell_length_c   6.92952554
_cell_angle_alpha   109.47122841
_cell_angle_beta   109.47122393
_cell_angle_gamma   109.47121317
_symmetry_Int_Tables_number   1
_chemical_formula_structural   Dy
_chemical_formula_sum   Dy8
_cell_volume   256.14677293
_cell_formula_units_Z   8
loop_
 _symmetry_equiv_pos_site_id
 _symmetry_equiv_pos_as_xyz
  1  'x, y, z'
loop_
 _atom_site_type_symbol
 _atom_site_label
 _atom_site_symmetry_multiplicity
 _atom_site_fract_x
 _atom_site_fract_y
 _atom_site_fract_z
 _atom_site_occupancy
  Dy  Dy0_0  1  0.00000000  0.00000000  0.00000000  1
  Dy  Dy0_1  1  0.00000000  0.00000000  0.50000000  1
  Dy  Dy0_2  1  1.00000000  0.50000000  0.00000000  1
  Dy  Dy0_3  1  1.00000000  0.50000000  0.50000000  1
  Dy  Dy0_4  1  0.50000000  0.00000000  0.00000000  1
  Dy  Dy0_5  1  0.50000000  0.00000000  0.50000000  1
  Dy  Dy0_6  1  0.50000000  0.50000000  0.00000000  1
  Dy  Dy0_7  1  0.50000000  0.50000000  0.50000000  1
loop_
_geom_bond_atom_site_label_1
_geom_bond_atom_site_label_2
_geom_bond_distance
_geom_bond_site_symmetry_2
Dy0_0 Dy0_1 3.464763 1_555
Dy0_0 Dy0_1 3.464763 1_554
Dy0_0 Dy0_7 3.464763 1_555
Dy0_0 Dy0_7 3.464763 1_444
Dy0_0 Dy0_2 3.464764 1_445
Dy0_0 Dy0_2 3.464764 1_455
Dy0_0 Dy0_4 3.464764 1_555
Dy0_0 Dy0_4 3.464764 1_455
Dy0_1 Dy0_6 3.464763 1_445
Dy0_1 Dy0_6 3.464763 1_556
Dy0_1 Dy0_3 3.464764 1_445
Dy0_1 Dy0_3 3.464764 1_455
Dy0_1 Dy0_5 3.464764 1_455
Dy0_1 Dy0_5 3.464764 1_555
Dy0_2 Dy0_3 3.464763 1_555
Dy0_2 Dy0_3 3.464763 1_554
Dy0_2 Dy0_5 3.464763 1_554
Dy0_2 Dy0_5 3.464763 1_665
Dy0_2 Dy0_6 3.464764 1_555
Dy0_2 Dy0_6 3.464764 1_655
Dy0_3 Dy0_4 3.464763 1_555
Dy0_3 Dy0_4 3.464763 1_666
Dy0_3 Dy0_7 3.464764 1_555
Dy0_3 Dy0_7 3.464764 1_655
Dy0_4 Dy0_5 3.464763 1_555
Dy0_4 Dy0_5 3.464763 1_554
Dy0_4 Dy0_6 3.464764 1_555
Dy0_4 Dy0_6 3.464764 1_545
Dy0_5 Dy0_7 3.464764 1_545
Dy0_5 Dy0_7 3.464764 1_555
Dy0_6 Dy0_7 3.464763 1_554
Dy0_6 Dy0_7 3.464763 1_555
