# generated using pymatgen
data_MgTi2O4
_symmetry_space_group_name_H-M   'P 1'
_cell_length_a   6.01116783
_cell_length_b   6.01116783
_cell_length_c   14.93103100
_cell_angle_alpha   90.00000000
_cell_angle_beta   90.00000000
_cell_angle_gamma   119.99999815
_symmetry_Int_Tables_number   1
_chemical_formula_structural   MgTi2O4
_chemical_formula_sum   'Mg6 Ti12 O24'
_cell_volume   467.23798702
_cell_formula_units_Z   6
loop_
 _symmetry_equiv_pos_site_id
 _symmetry_equiv_pos_as_xyz
  1  'x, y, z'
loop_
 _atom_site_type_symbol
 _atom_site_label
 _atom_site_symmetry_multiplicity
 _atom_site_fract_x
 _atom_site_fract_y
 _atom_site_fract_z
 _atom_site_occupancy
  Mg  Mg0  1  0.00000000  0.00000000  0.04515200  1
  Mg  Mg1  1  0.33333300  0.66666700  0.37140700  1
  Mg  Mg2  1  0.33333300  0.66666700  0.00344400  1
  Mg  Mg3  1  0.66666700  0.33333300  0.70490800  1
  Mg  Mg4  1  0.00000000  0.00000000  0.29213700  1
  Mg  Mg5  1  0.33333300  0.66666700  0.62578800  1
  Ti  Ti0  1  0.99010500  0.49505200  0.16684700  1
  Ti  Ti1  1  0.50494800  0.00989500  0.16684700  1
  Ti  Ti2  1  0.33406400  0.16703200  0.49975900  1
  Ti  Ti3  1  0.50494800  0.49505200  0.16684700  1
  Ti  Ti4  1  0.66666700  0.33333300  0.34039000  1
  Ti  Ti5  1  0.83296800  0.66593600  0.49975900  1
  Ti  Ti6  1  0.67650300  0.83825100  0.83055100  1
  Ti  Ti7  1  0.83296800  0.16703200  0.49975900  1
  Ti  Ti8  1  0.16174900  0.83825100  0.83055100  1
  Ti  Ti9  1  0.00000000  0.00000000  0.66553900  1
  Ti  Ti10  1  0.16174900  0.32349700  0.83055100  1
  Ti  Ti11  1  0.66666700  0.33333300  0.95298900  1
  O  O0  1  0.17842200  0.35684400  0.09144100  1
  O  O1  1  0.33333300  0.66666700  0.23951200  1
  O  O2  1  0.17842200  0.82157800  0.09144100  1
  O  O3  1  0.64315600  0.82157800  0.09144100  1
  O  O4  1  0.35963900  0.17982000  0.24961000  1
  O  O5  1  0.50865800  0.01731500  0.41961400  1
  O  O6  1  0.82018000  0.17982000  0.24961000  1
  O  O7  1  0.66666700  0.33333300  0.08078500  1
  O  O8  1  0.50865800  0.49134200  0.41961400  1
  O  O9  1  0.66666700  0.33333300  0.57372700  1
  O  O10  1  0.82018000  0.64036100  0.24961000  1
  O  O11  1  0.98268500  0.49134200  0.41961400  1
  O  O12  1  0.68923300  0.84461700  0.58055000  1
  O  O13  1  0.84202600  0.68405200  0.75109500  1
  O  O14  1  0.15538300  0.84461700  0.58055000  1
  O  O15  1  0.00000000  0.00000000  0.42509400  1
  O  O16  1  0.00000000  0.00000000  0.91078700  1
  O  O17  1  0.84202600  0.15797400  0.75109500  1
  O  O18  1  0.15538300  0.31076700  0.58055000  1
  O  O19  1  0.31594800  0.15797400  0.75109500  1
  O  O20  1  0.01368300  0.50684200  0.91360000  1
  O  O21  1  0.33333300  0.66666700  0.75871000  1
  O  O22  1  0.49315800  0.50684200  0.91360000  1
  O  O23  1  0.49315800  0.98631700  0.91360000  1
loop_
_geom_bond_atom_site_label_1
_geom_bond_atom_site_label_2
_geom_bond_distance
_geom_bond_site_symmetry_2
Mg0 O2 1.982071 1_545
Mg0 O0 1.982071 1_555
Mg0 O3 1.982071 1_445
Mg0 O16 2.006208 1_554
Mg1 O5 1.962196 1_565
Mg1 O11 1.962196 1_455
Mg1 O8 1.962205 1_555
Mg1 O1 1.969328 1_555
Mg2 O2 2.080306 1_555
Mg2 O0 2.080310 1_555
Mg2 O3 2.080310 1_555
Mg2 O22 2.137419 1_554
Mg2 O23 2.137419 1_554
Mg2 O20 2.137419 1_554
Mg3 O17 1.951675 1_555
Mg3 O13 1.951680 1_555
Mg3 O19 1.951680 1_555
Mg3 O9 1.958668 1_555
Mg4 O4 1.976964 1_555
Mg4 O10 1.976964 1_445
Mg4 O6 1.976969 1_455
Mg4 O15 1.985185 1_555
Mg5 O14 1.972036 1_555
Mg5 O18 1.972036 1_555
Mg5 O12 1.972036 1_555
Mg5 O21 1.984663 1_555
O0 Ti0 2.044440 1_455
O0 Ti3 2.044445 1_555
O1 Ti1 2.090393 1_565
O1 Ti0 2.090393 1_455
O1 Ti3 2.090402 1_555
O2 Ti0 2.044445 1_455
O2 Ti1 2.044445 1_565
O3 Ti1 2.044440 1_565
O3 Ti3 2.044445 1_555
O4 Ti3 2.055612 1_555
O4 Ti1 2.055620 1_555
O4 Ti4 2.095683 1_555
O5 Ti4 2.026255 1_555
O5 Ti7 2.070728 1_555
O5 Ti2 2.070732 1_555
O6 Ti0 2.055612 1_555
O6 Ti1 2.055612 1_555
O6 Ti4 2.095675 1_555
O7 Ti11 1.908126 1_554
O7 Ti3 2.118080 1_555
O7 Ti0 2.118080 1_555
O7 Ti1 2.118080 1_555
O8 Ti4 2.026255 1_555
O8 Ti5 2.070728 1_555
O8 Ti2 2.070728 1_555
O9 Ti7 2.053709 1_555
O9 Ti5 2.053713 1_555
O9 Ti2 2.053713 1_555
O10 Ti3 2.055612 1_555
O10 Ti0 2.055620 1_555
O10 Ti4 2.095683 1_555
O11 Ti4 2.026255 1_555
O11 Ti7 2.070728 1_555
O11 Ti5 2.070732 1_555
O12 Ti9 2.056104 1_665
O12 Ti7 2.069618 1_565
O12 Ti5 2.069623 1_555
O13 Ti6 2.044233 1_555
O13 Ti8 2.044238 1_655
O13 Ti9 2.082575 1_665
O14 Ti9 2.056100 1_565
O14 Ti5 2.069619 1_455
O14 Ti2 2.069619 1_565
O15 Ti7 2.065727 1_455
O15 Ti5 2.065727 1_445
O15 Ti2 2.065727 1_555
O16 Ti10 2.066714 1_555
O16 Ti6 2.066714 1_445
O16 Ti8 2.066718 1_545
O17 Ti10 2.044238 1_655
O17 Ti6 2.044238 1_545
O17 Ti9 2.082575 1_655
O18 Ti9 2.056104 1_555
O18 Ti7 2.069618 1_455
O18 Ti2 2.069623 1_555
O19 Ti10 2.044233 1_555
O19 Ti8 2.044238 1_545
O19 Ti9 2.082575 1_555
O20 Ti11 1.899827 1_455
O20 Ti8 2.127292 1_555
O20 Ti10 2.127301 1_555
O21 Ti8 2.083767 1_555
O21 Ti10 2.083775 1_555
O21 Ti6 2.083775 1_555
O22 Ti11 1.899836 1_555
O22 Ti6 2.127293 1_555
O22 Ti10 2.127293 1_555
O23 Ti11 1.899827 1_565
O23 Ti8 2.127292 1_555
O23 Ti6 2.127301 1_555
