# generated using pymatgen
data_LiP2H8NO8
_symmetry_space_group_name_H-M   'P 1'
_cell_length_a   7.76644900
_cell_length_b   13.07866200
_cell_length_c   7.64059121
_cell_angle_alpha   90.00000000
_cell_angle_beta   100.69845301
_cell_angle_gamma   90.00000000
_symmetry_Int_Tables_number   1
_chemical_formula_structural   LiP2H8NO8
_chemical_formula_sum   'Li4 P8 H32 N4 O32'
_cell_volume   762.60106380
_cell_formula_units_Z   4
loop_
 _symmetry_equiv_pos_site_id
 _symmetry_equiv_pos_as_xyz
  1  'x, y, z'
loop_
 _atom_site_type_symbol
 _atom_site_label
 _atom_site_symmetry_multiplicity
 _atom_site_fract_x
 _atom_site_fract_y
 _atom_site_fract_z
 _atom_site_occupancy
  Li  Li0  1  0.83830700  0.39602800  0.31155900  1
  Li  Li1  1  0.16169300  0.89602800  0.18844100  1
  Li  Li2  1  0.16169300  0.60397200  0.68844100  1
  Li  Li3  1  0.83830700  0.10397200  0.81155900  1
  P  P0  1  0.81274900  0.16582100  0.42159000  1
  P  P1  1  0.18725100  0.66582100  0.07841000  1
  P  P2  1  0.18725100  0.83417900  0.57841000  1
  P  P3  1  0.81274900  0.33417900  0.92159000  1
  P  P4  1  0.24449100  0.42705000  0.45336200  1
  P  P5  1  0.75550900  0.92705000  0.04663800  1
  P  P6  1  0.75550900  0.57295000  0.54663800  1
  P  P7  1  0.24449100  0.07295000  0.95336200  1
  H  H0  1  0.31367200  0.04553000  0.45756000  1
  H  H1  1  0.68632800  0.54553000  0.04244000  1
  H  H2  1  0.68632800  0.95447000  0.54244000  1
  H  H3  1  0.31367200  0.45447000  0.95756000  1
  H  H4  1  0.50136600  0.11696400  0.49700300  1
  H  H5  1  0.49863400  0.61696400  0.00299700  1
  H  H6  1  0.49863400  0.88303600  0.50299700  1
  H  H7  1  0.50136600  0.38303600  0.99700300  1
  H  H8  1  0.33022000  0.14798200  0.32929600  1
  H  H9  1  0.66978000  0.64798200  0.17070400  1
  H  H10  1  0.66978000  0.85201800  0.67070400  1
  H  H11  1  0.33022000  0.35201800  0.82929600  1
  H  H12  1  0.31132800  0.16404400  0.54320400  1
  H  H13  1  0.68867200  0.66404400  0.95679600  1
  H  H14  1  0.68867200  0.83595600  0.45679600  1
  H  H15  1  0.31132800  0.33595600  0.04320400  1
  H  H16  1  0.72792700  0.18455300  0.13568600  1
  H  H17  1  0.27207300  0.68455300  0.36431400  1
  H  H18  1  0.27207300  0.81544700  0.86431400  1
  H  H19  1  0.72792700  0.31544700  0.63568600  1
  H  H20  1  0.95291200  0.04494400  0.30366600  1
  H  H21  1  0.04708800  0.54494400  0.19633400  1
  H  H22  1  0.04708800  0.95505600  0.69633400  1
  H  H23  1  0.95291200  0.45505600  0.80366600  1
  H  H24  1  0.07960100  0.30574000  0.53776500  1
  H  H25  1  0.92039900  0.80574000  0.96223500  1
  H  H26  1  0.92039900  0.69426000  0.46223500  1
  H  H27  1  0.07960100  0.19426000  0.03776500  1
  H  H28  1  0.51015900  0.43654500  0.38199200  1
  H  H29  1  0.48984100  0.93654500  0.11800800  1
  H  H30  1  0.48984100  0.56345500  0.61800800  1
  H  H31  1  0.51015900  0.06345500  0.88199200  1
  N  N0  1  0.36388700  0.11885500  0.45676700  1
  N  N1  1  0.63611300  0.61885500  0.04323300  1
  N  N2  1  0.63611300  0.88114500  0.54323300  1
  N  N3  1  0.36388700  0.38114500  0.95676700  1
  O  O0  1  0.67283600  0.16608800  0.23971800  1
  O  O1  1  0.32716400  0.66608800  0.26028200  1
  O  O2  1  0.32716400  0.83391200  0.76028200  1
  O  O3  1  0.67283600  0.33391200  0.73971800  1
  O  O4  1  0.98065100  0.10922600  0.38187800  1
  O  O5  1  0.01934900  0.60922600  0.11812200  1
  O  O6  1  0.01934900  0.89077400  0.61812200  1
  O  O7  1  0.98065100  0.39077400  0.88187800  1
  O  O8  1  0.72504500  0.10875000  0.55582100  1
  O  O9  1  0.27495500  0.60875000  0.94417900  1
  O  O10  1  0.27495500  0.89125000  0.44417900  1
  O  O11  1  0.72504500  0.39125000  0.05582100  1
  O  O12  1  0.86691400  0.27523600  0.48007500  1
  O  O13  1  0.13308600  0.77523600  0.01992500  1
  O  O14  1  0.13308600  0.72476400  0.51992500  1
  O  O15  1  0.86691400  0.22476400  0.98007500  1
  O  O16  1  0.31115000  0.51006200  0.58887500  1
  O  O17  1  0.68885000  0.01006200  0.91112500  1
  O  O18  1  0.68885000  0.48993800  0.41112500  1
  O  O19  1  0.31115000  0.98993800  0.08887500  1
  O  O20  1  0.20791500  0.32541700  0.56015600  1
  O  O21  1  0.79208500  0.82541700  0.93984400  1
  O  O22  1  0.79208500  0.67458300  0.43984400  1
  O  O23  1  0.20791500  0.17458300  0.06015600  1
  O  O24  1  0.07621200  0.45093300  0.32179500  1
  O  O25  1  0.92378800  0.95093300  0.17820500  1
  O  O26  1  0.92378800  0.54906700  0.67820500  1
  O  O27  1  0.07621200  0.04906700  0.82179500  1
  O  O28  1  0.39507400  0.39532400  0.35070600  1
  O  O29  1  0.60492600  0.89532400  0.14929400  1
  O  O30  1  0.60492600  0.60467600  0.64929400  1
  O  O31  1  0.39507400  0.10467600  0.85070600  1
loop_
_geom_bond_atom_site_label_1
_geom_bond_atom_site_label_2
_geom_bond_distance
_geom_bond_site_symmetry_2
Li0 O18 1.939701 1_555
Li0 O24 1.970284 1_655
Li0 O11 1.989370 1_555
Li0 O12 2.024038 1_555
Li1 O19 1.939701 1_555
Li1 O25 1.970284 1_455
Li1 O10 1.989370 1_555
Li1 O13 2.024038 1_555
Li2 O16 1.939701 1_555
Li2 O26 1.970284 1_455
Li2 O9 1.989370 1_555
Li2 O14 2.024038 1_555
Li3 O17 1.939701 1_555
Li3 O27 1.970284 1_655
Li3 O8 1.989370 1_555
Li3 O15 2.024038 1_555
H0 N0 1.035700 1_555
H1 N1 1.035700 1_555
H2 N2 1.035700 1_555
H3 N3 1.035700 1_555
H4 N0 1.055123 1_555
H4 O8 1.715075 1_555
H5 N1 1.055123 1_555
H5 O9 1.715075 1_554
H6 N2 1.055123 1_555
H6 O10 1.715075 1_555
H7 N3 1.055123 1_555
H7 O11 1.715075 1_556
H8 N0 1.033209 1_555
H9 N1 1.033209 1_555
H10 N2 1.033209 1_555
H11 N3 1.033209 1_555
H12 N0 1.025758 1_555
H13 N1 1.025758 1_556
H14 N2 1.025758 1_555
H15 N3 1.025758 1_554
H16 O0 0.999734 1_555
H17 O1 0.999734 1_555
H18 O2 0.999734 1_555
H19 O3 0.999734 1_555
H20 O4 1.030794 1_555
H20 O25 1.549622 1_545
H21 O5 1.030794 1_555
H21 O24 1.549622 1_555
H22 O6 1.030794 1_555
H22 O27 1.549622 1_565
H23 O7 1.030794 1_555
H23 O26 1.549622 1_555
H24 O20 1.012570 1_555
H24 O12 1.676796 1_455
H25 O21 1.012570 1_555
H25 O13 1.676796 1_656
H26 O22 1.012570 1_555
H26 O14 1.676796 1_655
H27 O23 1.012570 1_555
H27 O15 1.676796 1_454
H28 O28 1.033123 1_555
H28 O18 1.532470 1_555
H29 O29 1.033123 1_555
H29 O19 1.532470 1_555
H30 O30 1.033123 1_555
H30 O16 1.532470 1_555
H31 O31 1.033123 1_555
H31 O17 1.532470 1_555
O0 P0 1.597234 1_555
O1 P1 1.597234 1_555
O2 P2 1.597234 1_555
O3 P3 1.597234 1_555
O4 P0 1.577107 1_555
O5 P1 1.577107 1_555
O6 P2 1.577107 1_555
O7 P3 1.577107 1_555
O8 P0 1.527197 1_555
O9 P1 1.527197 1_556
O10 P2 1.527197 1_555
O11 P3 1.527197 1_554
O12 P0 1.534477 1_555
O13 P1 1.534477 1_555
O14 P2 1.534477 1_555
O15 P3 1.534477 1_555
O16 P4 1.523078 1_555
O17 P5 1.523078 1_546
O18 P6 1.523078 1_555
O19 P7 1.523078 1_564
O20 P4 1.612263 1_555
O21 P5 1.612263 1_556
O22 P6 1.612263 1_555
O23 P7 1.612263 1_554
O24 P4 1.525902 1_555
O25 P5 1.525902 1_555
O26 P6 1.525902 1_555
O27 P7 1.525902 1_555
O28 P4 1.579770 1_555
O29 P5 1.579770 1_555
O30 P6 1.579770 1_555
O31 P7 1.579770 1_555
