# generated using pymatgen
data_Ca(CoO2)2
_symmetry_space_group_name_H-M   'P 1'
_cell_length_a   6.15556427
_cell_length_b   6.15556427
_cell_length_c   14.74537726
_cell_angle_alpha   88.51406351
_cell_angle_beta   88.51406351
_cell_angle_gamma   58.84657420
_symmetry_Int_Tables_number   1
_chemical_formula_structural   Ca(CoO2)2
_chemical_formula_sum   'Ca6 Co12 O24'
_cell_volume   477.92943468
_cell_formula_units_Z   6
loop_
 _symmetry_equiv_pos_site_id
 _symmetry_equiv_pos_as_xyz
  1  'x, y, z'
loop_
 _atom_site_type_symbol
 _atom_site_label
 _atom_site_symmetry_multiplicity
 _atom_site_fract_x
 _atom_site_fract_y
 _atom_site_fract_z
 _atom_site_occupancy
  Ca  Ca0  1  0.83750500  0.83750500  0.95783700  1
  Ca  Ca1  1  0.16364000  0.16364000  0.67092300  1
  Ca  Ca2  1  0.33425000  0.33425000  0.83344800  1
  Ca  Ca3  1  0.83518200  0.83518200  0.32966100  1
  Ca  Ca4  1  0.00025500  0.00025500  0.49942400  1
  Ca  Ca5  1  0.66342200  0.66342200  0.16639300  1
  Co  Co0  1  0.82219600  0.33966900  0.83483300  1
  Co  Co1  1  0.50707100  0.50707100  0.61917900  1
  Co  Co2  1  0.50134000  0.50134000  0.99834100  1
  Co  Co3  1  0.33966900  0.82219600  0.83483300  1
  Co  Co4  1  0.49949700  0.00027000  0.49998700  1
  Co  Co5  1  0.17564000  0.17564000  0.28812100  1
  Co  Co6  1  0.00027000  0.49949700  0.49998700  1
  Co  Co7  1  0.17570000  0.66321600  0.16576500  1
  Co  Co8  1  0.82505400  0.82505400  0.71071200  1
  Co  Co9  1  0.66321600  0.17570000  0.16576500  1
  Co  Co10  1  0.49159400  0.49159400  0.37893100  1
  Co  Co11  1  0.15112000  0.15112000  0.03947500  1
  O  O0  1  0.66242400  0.23122600  0.92034500  1
  O  O1  1  0.51806400  0.51806400  0.75309500  1
  O  O2  1  0.23122600  0.66242400  0.92034500  1
  O  O3  1  0.63900200  0.63900200  0.90947800  1
  O  O4  1  0.36051700  0.83842600  0.57620200  1
  O  O5  1  0.99167600  0.99167600  0.76858600  1
  O  O6  1  0.18676600  0.18676600  0.42154800  1
  O  O7  1  0.50164000  0.96789100  0.76210000  1
  O  O8  1  0.83842600  0.36051700  0.57620200  1
  O  O9  1  0.14430700  0.14430700  0.90610700  1
  O  O10  1  0.33237200  0.33237200  0.57173500  1
  O  O11  1  0.96789100  0.50164000  0.76210000  1
  O  O12  1  0.03365700  0.50042000  0.23872500  1
  O  O13  1  0.66687200  0.66687200  0.42870800  1
  O  O14  1  0.16188300  0.63818400  0.42429700  1
  O  O15  1  0.50042000  0.03365700  0.23872500  1
  O  O16  1  0.85710600  0.85710600  0.10427100  1
  O  O17  1  0.81395500  0.81395500  0.57913400  1
  O  O18  1  0.01045200  0.01045200  0.23577100  1
  O  O19  1  0.63818400  0.16188300  0.42429700  1
  O  O20  1  0.35460400  0.35460400  0.08529000  1
  O  O21  1  0.78836700  0.32923200  0.07663800  1
  O  O22  1  0.48189900  0.48189900  0.24622600  1
  O  O23  1  0.32923200  0.78836700  0.07663800  1
loop_
_geom_bond_atom_site_label_1
_geom_bond_atom_site_label_2
_geom_bond_distance
_geom_bond_site_symmetry_2
Ca0 O2 2.144705 1_655
Ca0 O0 2.144705 1_565
Ca0 O16 2.175650 1_556
Ca0 O3 2.264885 1_555
Ca1 O8 2.230252 1_455
Ca1 O4 2.230252 1_545
Ca1 O11 2.248421 1_455
Ca1 O7 2.248421 1_545
Ca1 O10 2.292432 1_555
Ca1 O5 2.305654 1_445
Ca2 O2 2.211645 1_555
Ca2 O0 2.211645 1_555
Ca2 O11 2.217388 1_455
Ca2 O7 2.217388 1_545
Ca2 O1 2.269337 1_555
Ca2 O9 2.272982 1_555
Ca3 O15 2.233918 1_565
Ca3 O12 2.233918 1_655
Ca3 O19 2.235305 1_565
Ca3 O14 2.235305 1_655
Ca3 O13 2.287669 1_555
Ca3 O18 2.300887 1_665
Ca4 O14 2.227322 1_545
Ca4 O19 2.227322 1_455
Ca4 O4 2.231121 1_545
Ca4 O8 2.231121 1_455
Ca4 O6 2.276362 1_555
Ca4 O17 2.287478 1_445
Ca5 O23 2.241940 1_555
Ca5 O21 2.241940 1_555
Ca5 O22 2.244584 1_555
Ca5 O16 2.244847 1_555
Ca5 O15 2.245615 1_565
Ca5 O12 2.245615 1_655
Co0 O0 1.890508 1_555
Co0 O11 1.941234 1_555
Co0 O3 1.941425 1_555
Co0 O9 2.014333 1_655
Co0 O1 2.021043 1_555
Co0 O5 2.091558 1_545
Co1 O4 1.853238 1_555
Co1 O8 1.853238 1_555
Co1 O1 1.981657 1_555
Co1 O10 2.019108 1_555
Co2 O0 1.845176 1_555
Co2 O2 1.845176 1_555
Co2 O21 1.919008 1_556
Co2 O23 1.919008 1_556
Co2 O3 1.944440 1_555
Co2 O20 1.999868 1_556
Co3 O2 1.890508 1_555
Co3 O7 1.941234 1_555
Co3 O3 1.941425 1_555
Co3 O9 2.014333 1_565
Co3 O1 2.021043 1_555
Co3 O5 2.091558 1_455
Co4 O19 1.932824 1_555
Co4 O4 1.939393 1_545
Co4 O6 2.030144 1_555
Co4 O17 2.043273 1_545
Co4 O10 2.058257 1_555
Co4 O13 2.060562 1_545
Co5 O15 1.854948 1_555
Co5 O12 1.854948 1_555
Co5 O18 1.953181 1_555
Co5 O6 1.974588 1_555
Co6 O14 1.932824 1_555
Co6 O8 1.939393 1_455
Co6 O6 2.030144 1_555
Co6 O17 2.043273 1_455
Co6 O10 2.058257 1_555
Co6 O13 2.060562 1_455
Co7 O16 1.925362 1_455
Co7 O12 1.930793 1_555
Co7 O23 1.962186 1_555
Co7 O22 2.019057 1_555
Co7 O20 2.028359 1_555
Co7 O18 2.116436 1_565
Co8 O7 1.858965 1_555
Co8 O11 1.858965 1_555
Co8 O17 1.947348 1_555
Co8 O5 2.002845 1_555
Co9 O16 1.925362 1_545
Co9 O15 1.930793 1_555
Co9 O21 1.962186 1_555
Co9 O22 2.019057 1_555
Co9 O20 2.028359 1_555
Co9 O18 2.116436 1_655
Co10 O14 1.856572 1_555
Co10 O19 1.856572 1_555
Co10 O22 1.962633 1_555
Co10 O13 2.038020 1_555
Co11 O9 1.970090 1_554
Co11 O21 1.980675 1_455
Co11 O23 1.980675 1_545
Co11 O20 2.303312 1_555
