# generated using pymatgen
data_Ba17SrSm12Cl68
_symmetry_space_group_name_H-M   'P 1'
_cell_length_a   11.31383138
_cell_length_b   11.31383138
_cell_length_c   21.64728589
_cell_angle_alpha   90.00000000
_cell_angle_beta   90.00000000
_cell_angle_gamma   90.00000000
_symmetry_Int_Tables_number   1
_chemical_formula_structural   Ba17SrSm12Cl68
_chemical_formula_sum   'Ba17 Sr1 Sm12 Cl68'
_cell_volume   2770.91278409
_cell_formula_units_Z   1
loop_
 _symmetry_equiv_pos_site_id
 _symmetry_equiv_pos_as_xyz
  1  'x, y, z'
loop_
 _atom_site_type_symbol
 _atom_site_label
 _atom_site_symmetry_multiplicity
 _atom_site_fract_x
 _atom_site_fract_y
 _atom_site_fract_z
 _atom_site_occupancy
  Ba  Ba0  1  0.50000000  0.50000000  0.50000000  1
  Ba  Ba1  1  0.36318699  0.81697199  0.34217654  1
  Ba  Ba2  1  0.86366832  0.31566497  0.84287930  1
  Ba  Ba3  1  0.63681301  0.18302801  0.34217654  1
  Ba  Ba4  1  0.13633168  0.68433503  0.84287930  1
  Ba  Ba5  1  0.81697199  0.63681301  0.34217654  1
  Ba  Ba6  1  0.31566497  0.13633168  0.84287930  1
  Ba  Ba7  1  0.18302801  0.36318699  0.34217654  1
  Ba  Ba8  1  0.68433503  0.86366832  0.84287930  1
  Ba  Ba9  1  0.13633168  0.68433503  0.15712070  1
  Ba  Ba10  1  0.63681301  0.18302801  0.65782346  1
  Ba  Ba11  1  0.86366832  0.31566497  0.15712070  1
  Ba  Ba12  1  0.36318699  0.81697199  0.65782346  1
  Ba  Ba13  1  0.68433503  0.86366832  0.15712070  1
  Ba  Ba14  1  0.18302801  0.36318699  0.65782346  1
  Ba  Ba15  1  0.31566497  0.13633168  0.15712070  1
  Ba  Ba16  1  0.81697199  0.63681301  0.65782346  1
  Sr  Sr0  1  -0.00000000  -0.00000000  0.00000000  1
  Sm  Sm0  1  0.89308309  0.32023274  0.50000000  1
  Sm  Sm1  1  0.39095045  0.82096521  -0.00000000  1
  Sm  Sm2  1  0.60904955  0.17903479  -0.00000000  1
  Sm  Sm3  1  0.10691691  0.67976726  0.50000000  1
  Sm  Sm4  1  0.32023274  0.10691691  0.50000000  1
  Sm  Sm5  1  0.82096521  0.60904955  -0.00000000  1
  Sm  Sm6  1  0.17903479  0.39095045  -0.00000000  1
  Sm  Sm7  1  0.67976726  0.89308309  0.50000000  1
  Sm  Sm8  1  0.50000000  0.50000000  0.18627718  1
  Sm  Sm9  1  -0.00000000  -0.00000000  0.68630730  1
  Sm  Sm10  1  -0.00000000  -0.00000000  0.31369270  1
  Sm  Sm11  1  0.50000000  0.50000000  0.81372282  1
  Cl  Cl0  1  0.72444636  0.13922748  0.50000000  1
  Cl  Cl1  1  0.22468141  0.63849282  0.00000000  1
  Cl  Cl2  1  0.77531859  0.36150718  -0.00000000  1
  Cl  Cl3  1  0.27555364  0.86077252  0.50000000  1
  Cl  Cl4  1  0.13922748  0.27555364  0.50000000  1
  Cl  Cl5  1  0.63849282  0.77531859  0.00000000  1
  Cl  Cl6  1  0.36150718  0.22468141  -0.00000000  1
  Cl  Cl7  1  0.86077252  0.72444636  0.50000000  1
  Cl  Cl8  1  0.41179771  0.30864483  0.25915913  1
  Cl  Cl9  1  0.91186901  0.80862910  0.75966881  1
  Cl  Cl10  1  0.58820229  0.69135517  0.25915913  1
  Cl  Cl11  1  0.08813099  0.19137090  0.75966881  1
  Cl  Cl12  1  0.30864483  0.58820229  0.25915913  1
  Cl  Cl13  1  0.80862910  0.08813099  0.75966881  1
  Cl  Cl14  1  0.69135517  0.41179771  0.25915913  1
  Cl  Cl15  1  0.19137090  0.91186901  0.75966881  1
  Cl  Cl16  1  0.08813099  0.19137090  0.24033119  1
  Cl  Cl17  1  0.58820229  0.69135517  0.74084087  1
  Cl  Cl18  1  0.91186901  0.80862910  0.24033119  1
  Cl  Cl19  1  0.41179771  0.30864483  0.74084087  1
  Cl  Cl20  1  0.19137090  0.91186901  0.24033119  1
  Cl  Cl21  1  0.69135517  0.41179771  0.74084087  1
  Cl  Cl22  1  0.80862910  0.08813099  0.24033119  1
  Cl  Cl23  1  0.30864483  0.58820229  0.74084087  1
  Cl  Cl24  1  0.50000000  -0.00000000  0.07547886  1
  Cl  Cl25  1  -0.00000000  0.50000000  0.57549969  1
  Cl  Cl26  1  -0.00000000  0.50000000  0.07547886  1
  Cl  Cl27  1  0.50000000  -0.00000000  0.57549969  1
  Cl  Cl28  1  -0.00000000  0.50000000  0.42450031  1
  Cl  Cl29  1  0.50000000  -0.00000000  0.92452114  1
  Cl  Cl30  1  0.50000000  -0.00000000  0.42450031  1
  Cl  Cl31  1  -0.00000000  0.50000000  0.92452114  1
  Cl  Cl32  1  0.42792055  0.71019145  0.12074474  1
  Cl  Cl33  1  0.92887118  0.20921453  0.62121052  1
  Cl  Cl34  1  0.57207945  0.28980855  0.12074474  1
  Cl  Cl35  1  0.07112882  0.79078547  0.62121052  1
  Cl  Cl36  1  0.71019145  0.57207945  0.12074474  1
  Cl  Cl37  1  0.20921453  0.07112882  0.62121052  1
  Cl  Cl38  1  0.28980855  0.42792055  0.12074474  1
  Cl  Cl39  1  0.79078547  0.92887118  0.62121052  1
  Cl  Cl40  1  0.07112882  0.79078547  0.37878948  1
  Cl  Cl41  1  0.57207945  0.28980855  0.87925526  1
  Cl  Cl42  1  0.92887118  0.20921453  0.37878948  1
  Cl  Cl43  1  0.42792055  0.71019145  0.87925526  1
  Cl  Cl44  1  0.79078547  0.92887118  0.37878948  1
  Cl  Cl45  1  0.28980855  0.42792055  0.87925526  1
  Cl  Cl46  1  0.20921453  0.07112882  0.37878948  1
  Cl  Cl47  1  0.71019145  0.57207945  0.87925526  1
  Cl  Cl48  1  0.50000000  -0.00000000  0.24980519  1
  Cl  Cl49  1  -0.00000000  0.50000000  0.75019481  1
  Cl  Cl50  1  -0.00000000  0.50000000  0.24980519  1
  Cl  Cl51  1  0.50000000  -0.00000000  0.75019481  1
  Cl  Cl52  1  0.41175495  0.28519901  0.41968384  1
  Cl  Cl53  1  0.91471053  0.79188181  0.92232305  1
  Cl  Cl54  1  0.58824505  0.71480099  0.41968384  1
  Cl  Cl55  1  0.08528947  0.20811819  0.92232305  1
  Cl  Cl56  1  0.28519901  0.58824505  0.41968384  1
  Cl  Cl57  1  0.79188181  0.08528947  0.92232305  1
  Cl  Cl58  1  0.71480099  0.41175495  0.41968384  1
  Cl  Cl59  1  0.20811819  0.91471053  0.92232305  1
  Cl  Cl60  1  0.08528947  0.20811819  0.07767695  1
  Cl  Cl61  1  0.58824505  0.71480099  0.58031616  1
  Cl  Cl62  1  0.91471053  0.79188181  0.07767695  1
  Cl  Cl63  1  0.41175495  0.28519901  0.58031616  1
  Cl  Cl64  1  0.20811819  0.91471053  0.07767695  1
  Cl  Cl65  1  0.71480099  0.41175495  0.58031616  1
  Cl  Cl66  1  0.79188181  0.08528947  0.07767695  1
  Cl  Cl67  1  0.28519901  0.58824505  0.58031616  1
loop_
_geom_bond_atom_site_label_1
_geom_bond_atom_site_label_2
_geom_bond_distance
_geom_bond_site_symmetry_2
Ba0 Cl65 3.150490 1_555
Ba0 Cl61 3.150490 1_555
Ba0 Cl63 3.150490 1_555
Ba0 Cl58 3.150490 1_555
Ba0 Cl67 3.150490 1_555
Ba0 Cl52 3.150490 1_555
Ba0 Cl54 3.150490 1_555
Ba0 Cl56 3.150490 1_555
Ba1 Cl20 3.129226 1_555
Ba1 Cl30 3.140025 1_565
Ba1 Cl56 3.207836 1_555
Ba1 Cl12 3.210835 1_555
Ba1 Cl54 3.261102 1_555
Ba1 Cl48 3.268376 1_565
Ba1 Cl40 3.410912 1_555
Ba1 Cl10 3.424971 1_555
Ba1 Cl46 3.454161 1_565
Ba1 Cl3 3.591756 1_555
Ba2 Cl31 3.138789 1_655
Ba2 Cl21 3.140480 1_555
Ba2 Cl13 3.203014 1_555
Ba2 Cl57 3.226550 1_555
Ba2 Cl55 3.274906 1_655
Ba2 Cl49 3.279340 1_655
Ba2 Cl41 3.404256 1_555
Ba2 Cl11 3.416337 1_655
Ba2 Cl47 3.471479 1_555
Ba2 Cl2 3.582814 1_556
Ba3 Cl22 3.129226 1_555
Ba3 Cl30 3.140025 1_555
Ba3 Cl58 3.207836 1_555
Ba3 Cl14 3.210835 1_555
Ba3 Cl52 3.261102 1_555
Ba3 Cl48 3.268376 1_555
Ba3 Cl42 3.410912 1_555
Ba3 Cl8 3.424971 1_555
Ba3 Cl44 3.454161 1_545
Ba3 Cl0 3.591756 1_555
Ba4 Cl31 3.138789 1_555
Ba4 Cl23 3.140480 1_555
Ba4 Cl15 3.203014 1_555
Ba4 Cl59 3.226550 1_555
Ba4 Cl53 3.274906 1_455
Ba4 Cl49 3.279340 1_555
Ba4 Cl43 3.404256 1_555
Ba4 Cl9 3.416337 1_455
Ba4 Cl45 3.471479 1_555
Ba4 Cl1 3.582814 1_556
Ba5 Cl18 3.129226 1_555
Ba5 Cl28 3.140025 1_655
Ba5 Cl54 3.207836 1_555
Ba5 Cl10 3.210835 1_555
Ba5 Cl58 3.261102 1_555
Ba5 Cl50 3.268376 1_655
Ba5 Cl44 3.410912 1_555
Ba5 Cl14 3.424971 1_555
Ba5 Cl40 3.454161 1_655
Ba5 Cl7 3.591756 1_555
Ba6 Cl29 3.138789 1_555
Ba6 Cl19 3.140480 1_555
Ba6 Cl11 3.203014 1_555
Ba6 Cl55 3.226550 1_555
Ba6 Cl59 3.274906 1_545
Ba6 Cl51 3.279340 1_555
Ba6 Cl45 3.404256 1_555
Ba6 Cl15 3.416337 1_545
Ba6 Cl41 3.471479 1_555
Ba6 Cl6 3.582814 1_556
Ba7 Cl16 3.129226 1_555
Ba7 Cl28 3.140025 1_555
Ba7 Cl52 3.207836 1_555
Ba7 Cl8 3.210835 1_555
Ba7 Cl56 3.261102 1_555
Ba7 Cl50 3.268376 1_555
Ba7 Cl46 3.410912 1_555
Ba7 Cl12 3.424971 1_555
Ba7 Cl42 3.454161 1_455
Ba7 Cl4 3.591756 1_555
Ba8 Cl29 3.138789 1_565
Ba8 Cl17 3.140480 1_555
Ba8 Cl9 3.203014 1_555
Ba8 Cl53 3.226550 1_555
Ba8 Cl57 3.274906 1_565
Ba8 Cl51 3.279340 1_565
Ba8 Cl47 3.404256 1_555
Ba8 Cl13 3.416337 1_565
Ba8 Cl43 3.471479 1_555
Ba8 Cl5 3.582814 1_556
Ba9 Cl26 3.138789 1_555
Ba9 Cl12 3.140480 1_555
Ba9 Cl20 3.203014 1_555
Ba9 Cl64 3.226550 1_555
Ba9 Cl62 3.274906 1_455
Ba9 Cl50 3.279340 1_555
Ba9 Cl32 3.404256 1_555
Ba9 Cl18 3.416337 1_455
Ba9 Cl38 3.471479 1_555
Ba9 Cl1 3.582814 1_555
Ba10 Cl13 3.129226 1_555
Ba10 Cl27 3.140025 1_555
Ba10 Cl65 3.207836 1_555
Ba10 Cl21 3.210835 1_555
Ba10 Cl63 3.261102 1_555
Ba10 Cl51 3.268376 1_555
Ba10 Cl33 3.410912 1_555
Ba10 Cl19 3.424971 1_555
Ba10 Cl39 3.454161 1_545
Ba10 Cl0 3.591756 1_555
Ba11 Cl26 3.138789 1_655
Ba11 Cl14 3.140480 1_555
Ba11 Cl22 3.203014 1_555
Ba11 Cl66 3.226550 1_555
Ba11 Cl60 3.274906 1_655
Ba11 Cl50 3.279340 1_655
Ba11 Cl34 3.404256 1_555
Ba11 Cl16 3.416337 1_655
Ba11 Cl36 3.471479 1_555
Ba11 Cl2 3.582814 1_555
Ba12 Cl15 3.129226 1_555
Ba12 Cl27 3.140025 1_565
Ba12 Cl67 3.207836 1_555
Ba12 Cl23 3.210835 1_555
Ba12 Cl61 3.261102 1_555
Ba12 Cl51 3.268376 1_565
Ba12 Cl35 3.410912 1_555
Ba12 Cl17 3.424971 1_555
Ba12 Cl37 3.454161 1_565
Ba12 Cl3 3.591756 1_555
Ba13 Cl24 3.138789 1_565
Ba13 Cl10 3.140480 1_555
Ba13 Cl18 3.203014 1_555
Ba13 Cl62 3.226550 1_555
Ba13 Cl66 3.274906 1_565
Ba13 Cl48 3.279340 1_565
Ba13 Cl36 3.404256 1_555
Ba13 Cl22 3.416337 1_565
Ba13 Cl32 3.471479 1_555
Ba13 Cl5 3.582814 1_555
Ba14 Cl11 3.129226 1_555
Ba14 Cl25 3.140025 1_555
Ba14 Cl63 3.207836 1_555
Ba14 Cl19 3.210835 1_555
Ba14 Cl67 3.261102 1_555
Ba14 Cl49 3.268376 1_555
Ba14 Cl37 3.410912 1_555
Ba14 Cl23 3.424971 1_555
Ba14 Cl33 3.454161 1_455
Ba14 Cl4 3.591756 1_555
Ba15 Cl24 3.138789 1_555
Ba15 Cl8 3.140480 1_555
Ba15 Cl16 3.203014 1_555
Ba15 Cl60 3.226550 1_555
Ba15 Cl64 3.274906 1_545
Ba15 Cl48 3.279340 1_555
Ba15 Cl38 3.404256 1_555
Ba15 Cl20 3.416337 1_545
Ba15 Cl34 3.471479 1_555
Ba15 Cl6 3.582814 1_555
Ba16 Cl9 3.129226 1_555
Ba16 Cl25 3.140025 1_655
Ba16 Cl61 3.207836 1_555
Ba16 Cl17 3.210835 1_555
Ba16 Cl65 3.261102 1_555
Ba16 Cl49 3.268376 1_655
Ba16 Cl39 3.410912 1_555
Ba16 Cl21 3.424971 1_555
Ba16 Cl35 3.454161 1_655
Ba16 Cl7 3.591756 1_555
Cl0 Sm0 2.798916 1_555
Cl0 Sm7 2.830342 1_545
Cl1 Sm1 2.792972 1_555
Cl1 Sm6 2.847870 1_555
Cl2 Sm2 2.792972 1_555
Cl2 Sm5 2.847870 1_555
Cl3 Sm3 2.798916 1_555
Cl3 Sm4 2.830342 1_565
Cl4 Sm4 2.798916 1_555
Cl4 Sm0 2.830342 1_455
Cl5 Sm5 2.792972 1_555
Cl5 Sm1 2.847870 1_555
Cl6 Sm6 2.792972 1_555
Cl6 Sm2 2.847870 1_555
Cl7 Sm7 2.798916 1_555
Cl7 Sm3 2.830342 1_655
Cl8 Sm8 2.858670 1_555
Cl9 Sm9 2.864266 1_665
Cl10 Sm8 2.858670 1_555
Cl11 Sm9 2.864266 1_555
Cl12 Sm8 2.858670 1_555
Cl13 Sm9 2.864266 1_655
Cl14 Sm8 2.858670 1_555
Cl15 Sm9 2.864266 1_565
Cl16 Sm10 2.864266 1_555
Cl17 Sm11 2.858670 1_555
Cl18 Sm10 2.864266 1_665
Cl19 Sm11 2.858670 1_555
Cl20 Sm10 2.864266 1_565
Cl21 Sm11 2.858670 1_555
Cl22 Sm10 2.864266 1_655
Cl23 Sm11 2.858670 1_555
Cl24 Sm1 2.880067 1_545
Cl24 Sm2 2.880067 1_555
Cl25 Sm0 2.875925 1_455
Cl25 Sm3 2.875925 1_555
Cl26 Sm5 2.880067 1_455
Cl26 Sm6 2.880067 1_555
Cl27 Sm7 2.875925 1_545
Cl27 Sm4 2.875925 1_555
Cl28 Sm0 2.875925 1_455
Cl28 Sm3 2.875925 1_555
Cl29 Sm1 2.880067 1_546
Cl29 Sm2 2.880067 1_556
Cl30 Sm7 2.875925 1_545
Cl30 Sm4 2.875925 1_555
Cl31 Sm6 2.880067 1_556
Cl31 Sm5 2.880067 1_456
Cl32 Sm8 2.886637 1_555
Cl32 Sm1 2.928751 1_555
Cl33 Sm9 2.869867 1_655
Cl33 Sm0 2.937060 1_555
Cl34 Sm8 2.886637 1_555
Cl34 Sm2 2.928751 1_555
Cl35 Sm9 2.869867 1_565
Cl35 Sm3 2.937060 1_555
Cl36 Sm8 2.886637 1_555
Cl36 Sm5 2.928751 1_555
Cl37 Sm9 2.869867 1_555
Cl37 Sm4 2.937060 1_555
Cl38 Sm8 2.886637 1_555
Cl38 Sm6 2.928751 1_555
Cl39 Sm9 2.869867 1_665
Cl39 Sm7 2.937060 1_555
Cl40 Sm10 2.869867 1_565
Cl40 Sm3 2.937060 1_555
Cl41 Sm11 2.886637 1_555
Cl41 Sm2 2.928751 1_556
Cl42 Sm10 2.869867 1_655
Cl42 Sm0 2.937060 1_555
Cl43 Sm11 2.886637 1_555
Cl43 Sm1 2.928751 1_556
Cl44 Sm10 2.869867 1_665
Cl44 Sm7 2.937060 1_555
Cl45 Sm11 2.886637 1_555
Cl45 Sm6 2.928751 1_556
Cl46 Sm10 2.869867 1_555
Cl46 Sm4 2.937060 1_555
Cl47 Sm11 2.886637 1_555
Cl47 Sm5 2.928751 1_556
Cl52 Sm4 2.857187 1_555
Cl53 Sm5 2.869001 1_556
Cl53 Sr0 3.050043 1_666
Cl54 Sm7 2.857187 1_555
Cl55 Sm6 2.869001 1_556
Cl55 Sr0 3.050043 1_556
Cl56 Sm3 2.857187 1_555
Cl57 Sm2 2.869001 1_556
Cl57 Sr0 3.050043 1_656
Cl58 Sm0 2.857187 1_555
Cl59 Sm1 2.869001 1_556
Cl59 Sr0 3.050043 1_566
Cl60 Sm6 2.869001 1_555
Cl60 Sr0 3.050043 1_555
Cl61 Sm7 2.857187 1_555
Cl62 Sm5 2.869001 1_555
Cl62 Sr0 3.050043 1_665
Cl63 Sm4 2.857187 1_555
Cl64 Sm1 2.869001 1_555
Cl64 Sr0 3.050043 1_565
Cl65 Sm0 2.857187 1_555
Cl66 Sm2 2.869001 1_555
Cl66 Sr0 3.050043 1_655
Cl67 Sm3 2.857187 1_555
