# generated using pymatgen
data_TiCrAgS4
_symmetry_space_group_name_H-M   'P 1'
_cell_length_a   6.49617200
_cell_length_b   7.60355349
_cell_length_c   13.00941076
_cell_angle_alpha   98.19607390
_cell_angle_beta   94.21221137
_cell_angle_gamma   90.08561719
_symmetry_Int_Tables_number   1
_chemical_formula_structural   TiCrAgS4
_chemical_formula_sum   'Ti4 Cr4 Ag4 S16'
_cell_volume   634.25874172
_cell_formula_units_Z   4
loop_
 _symmetry_equiv_pos_site_id
 _symmetry_equiv_pos_as_xyz
  1  'x, y, z'
loop_
 _atom_site_type_symbol
 _atom_site_label
 _atom_site_symmetry_multiplicity
 _atom_site_fract_x
 _atom_site_fract_y
 _atom_site_fract_z
 _atom_site_occupancy
  Ti  Ti0  1  0.14813900  0.70394900  0.28561800  1
  Ti  Ti1  1  0.76640700  0.10279200  0.00090200  1
  Ti  Ti2  1  0.23811600  0.89981700  0.99747100  1
  Ti  Ti3  1  0.36258200  0.55338200  0.71611500  1
  Cr  Cr0  1  0.84085100  0.29909200  0.72210200  1
  Cr  Cr1  1  0.63270300  0.44436200  0.27915700  1
  Cr  Cr2  1  0.63416700  0.94774500  0.28635000  1
  Cr  Cr3  1  0.36883800  0.05701800  0.71344100  1
  Ag  Ag0  1  0.88300800  0.80466000  0.69583400  1
  Ag  Ag1  1  0.10728900  0.18230300  0.30235100  1
  Ag  Ag2  1  0.75162500  0.63581800  0.99923400  1
  Ag  Ag3  1  0.25905300  0.36353400  0.00104500  1
  S  S0  1  0.87511500  0.32960100  0.89265000  1
  S  S1  1  0.13356300  0.67543900  0.11071100  1
  S  S2  1  0.92168700  0.86743300  0.89554400  1
  S  S3  1  0.08755700  0.13490300  0.10262700  1
  S  S4  1  0.75066100  0.21934200  0.35590800  1
  S  S5  1  0.23807100  0.78405700  0.63574200  1
  S  S6  1  0.80794100  0.70558800  0.33907800  1
  S  S7  1  0.16770800  0.28800600  0.66320600  1
  S  S8  1  0.67354300  0.05985500  0.64470900  1
  S  S9  1  0.33222000  0.94782400  0.36512100  1
  S  S10  1  0.68210000  0.52033100  0.65152500  1
  S  S11  1  0.31896800  0.46711900  0.34231500  1
  S  S12  1  0.58145800  0.93245100  0.10909200  1
  S  S13  1  0.42897000  0.07093800  0.89045900  1
  S  S14  1  0.63100300  0.38574400  0.10911900  1
  S  S15  1  0.37665700  0.61689800  0.89257500  1
loop_
_geom_bond_atom_site_label_1
_geom_bond_atom_site_label_2
_geom_bond_distance
_geom_bond_site_symmetry_2
Cr0 S0 2.192410 1_555
Cr0 S8 2.194328 1_555
Cr0 S10 2.245624 1_555
Cr0 S7 2.307329 1_655
Cr1 S14 2.192583 1_555
Cr1 S4 2.211361 1_555
Cr1 S11 2.250626 1_555
Cr1 S6 2.295683 1_555
Cr2 S4 2.240115 1_565
Cr2 S9 2.278757 1_555
Cr2 S12 2.292582 1_555
Cr2 S6 2.321135 1_555
Cr3 S8 2.232366 1_555
Cr3 S13 2.294640 1_555
Cr3 S5 2.306815 1_545
Cr3 S7 2.329725 1_555
Ag0 S5 2.487351 1_655
Ag0 S10 2.497046 1_555
Ag0 S8 2.510368 1_565
Ag0 S2 2.567351 1_555
Ag1 S4 2.472867 1_455
Ag1 S9 2.495629 1_545
Ag1 S11 2.533011 1_555
Ag1 S3 2.565420 1_555
Ag2 S2 2.651800 1_555
Ag2 S14 2.684812 1_556
Ag2 S0 2.689949 1_555
Ag2 S15 2.706468 1_555
Ag2 S12 2.769862 1_556
Ag2 S1 2.773918 1_656
Ag3 S3 2.622049 1_555
Ag3 S15 2.686131 1_554
Ag3 S14 2.697331 1_555
Ag3 S1 2.745239 1_555
Ag3 S13 2.750594 1_554
Ag3 S0 2.766487 1_454
S0 Ti1 2.508188 1_556
S1 Ti0 2.249715 1_555
S1 Ti2 2.530295 1_554
S2 Ti2 2.355698 1_655
S2 Ti1 2.368095 1_566
S3 Ti2 2.351117 1_544
S3 Ti1 2.379946 1_455
S5 Ti3 2.286210 1_555
S6 Ti0 2.364590 1_655
S7 Ti3 2.369863 1_555
S9 Ti0 2.281025 1_555
S10 Ti3 2.296755 1_555
S11 Ti0 2.298410 1_555
S12 Ti1 2.421900 1_565
S12 Ti2 2.562182 1_554
S13 Ti2 2.435859 1_545
S13 Ti1 2.522826 1_556
S14 Ti1 2.590055 1_555
S15 Ti3 2.272551 1_555
S15 Ti2 2.578570 1_555
