# generated using pymatgen
data_Ce2CdPt2
_symmetry_space_group_name_H-M   'P 1'
_cell_length_a   3.81448246
_cell_length_b   7.86067040
_cell_length_c   7.86067040
_cell_angle_alpha   89.94643126
_cell_angle_beta   90.00000000
_cell_angle_gamma   90.00000000
_symmetry_Int_Tables_number   1
_chemical_formula_structural   Ce2CdPt2
_chemical_formula_sum   'Ce4 Cd2 Pt4'
_cell_volume   235.69729886
_cell_formula_units_Z   2
loop_
 _symmetry_equiv_pos_site_id
 _symmetry_equiv_pos_as_xyz
  1  'x, y, z'
loop_
 _atom_site_type_symbol
 _atom_site_label
 _atom_site_symmetry_multiplicity
 _atom_site_fract_x
 _atom_site_fract_y
 _atom_site_fract_z
 _atom_site_occupancy
  Ce  Ce0  1  0.50000000  0.32870264  0.17129736  1
  Ce  Ce1  1  0.50000000  0.82875692  0.32875692  1
  Ce  Ce2  1  0.50000000  0.67129736  0.82870264  1
  Ce  Ce3  1  0.50000000  0.17124308  0.67124308  1
  Cd  Cd0  1  -0.00000000  0.50000000  0.50000000  1
  Cd  Cd1  1  -0.00000000  -0.00000000  0.00000000  1
  Pt  Pt0  1  -0.00000000  0.86757661  0.63242339  1
  Pt  Pt1  1  0.00000000  0.63025732  0.13025732  1
  Pt  Pt2  1  -0.00000000  0.36974268  0.86974268  1
  Pt  Pt3  1  -0.00000000  0.13242339  0.36757661  1
loop_
_geom_bond_atom_site_label_1
_geom_bond_atom_site_label_2
_geom_bond_distance
_geom_bond_site_symmetry_2
Ce0 Pt3 2.897260 1_555
Ce0 Pt3 2.897260 1_655
Ce0 Pt1 3.059267 1_555
Ce0 Pt2 3.059267 1_554
Ce0 Pt1 3.059267 1_655
Ce0 Pt2 3.059267 1_654
Ce1 Pt1 2.917438 1_555
Ce1 Pt1 2.917438 1_655
Ce1 Pt0 3.070818 1_555
Ce1 Pt3 3.070818 1_565
Ce1 Pt0 3.070818 1_655
Ce1 Pt3 3.070818 1_665
Ce2 Pt0 2.897260 1_555
Ce2 Pt0 2.897260 1_655
Ce2 Pt2 3.059267 1_655
Ce2 Pt2 3.059267 1_555
Ce2 Pt1 3.059267 1_556
Ce2 Pt1 3.059267 1_656
Ce3 Pt2 2.917438 1_555
Ce3 Pt2 2.917438 1_655
Ce3 Pt3 3.070818 1_655
Ce3 Pt3 3.070818 1_555
Ce3 Pt0 3.070818 1_645
Ce3 Pt0 3.070818 1_545
Cd0 Pt3 3.072100 1_555
Cd0 Pt0 3.072100 1_555
Cd0 Pt2 3.080606 1_555
Cd0 Pt1 3.080606 1_555
Cd0 Ce3 3.481574 1_455
Cd0 Ce3 3.481574 1_555
Cd0 Ce1 3.481574 1_455
Cd0 Ce1 3.481574 1_555
Cd0 Ce2 3.483290 1_555
Cd0 Ce0 3.483290 1_455
Cd0 Ce0 3.483290 1_555
Cd0 Ce2 3.483290 1_455
Cd1 Pt0 3.072100 1_544
Cd1 Pt3 3.072100 1_555
Cd1 Pt2 3.080606 1_554
Cd1 Pt1 3.080606 1_545
Cd1 Ce3 3.481574 1_554
Cd1 Ce1 3.481574 1_445
Cd1 Ce1 3.481574 1_545
Cd1 Ce3 3.481574 1_454
Cd1 Ce0 3.483290 1_555
Cd1 Ce0 3.483290 1_455
Cd1 Ce2 3.483290 1_444
Cd1 Ce2 3.483290 1_544
Pt1 Pt2 2.897408 1_554
