# generated using pymatgen
data_Li9Co7O16
_symmetry_space_group_name_H-M   'P 1'
_cell_length_a   5.00331200
_cell_length_b   7.67176873
_cell_length_c   7.74054665
_cell_angle_alpha   97.65308378
_cell_angle_beta   101.64749561
_cell_angle_gamma   103.05466045
_symmetry_Int_Tables_number   1
_chemical_formula_structural   Li9Co7O16
_chemical_formula_sum   'Li9 Co7 O16'
_cell_volume   278.45513027
_cell_formula_units_Z   1
loop_
 _symmetry_equiv_pos_site_id
 _symmetry_equiv_pos_as_xyz
  1  'x, y, z'
loop_
 _atom_site_type_symbol
 _atom_site_label
 _atom_site_symmetry_multiplicity
 _atom_site_fract_x
 _atom_site_fract_y
 _atom_site_fract_z
 _atom_site_occupancy
  Li  Li0  1  0.50282400  0.75675100  0.75293600  1
  Li  Li1  1  0.99351200  0.36834900  0.11737600  1
  Li  Li2  1  0.50236200  0.00067200  0.50515800  1
  Li  Li3  1  0.01073700  0.88042400  0.63082800  1
  Li  Li4  1  0.49497900  0.49184800  0.99830400  1
  Li  Li5  1  0.99751000  0.12629800  0.37542800  1
  Li  Li6  1  0.00290500  0.62428200  0.87513200  1
  Li  Li7  1  0.49515000  0.24891800  0.24143700  1
  Li  Li8  1  0.50024800  0.12641100  0.87830700  1
  Co  Co0  1  0.00201800  0.00167500  0.99856400  1
  Co  Co1  1  0.99658100  0.24495800  0.75644100  1
  Co  Co2  1  0.49674000  0.62669200  0.37324300  1
  Co  Co3  1  0.49828900  0.88057000  0.11658100  1
  Co  Co4  1  0.00055200  0.49943000  0.50342000  1
  Co  Co5  1  0.99697500  0.74870200  0.24640300  1
  Co  Co6  1  0.50059900  0.36745300  0.63244900  1
  O  O0  1  0.74742900  0.76816900  0.00780300  1
  O  O1  1  0.25535900  0.39670000  0.38149900  1
  O  O2  1  0.79031600  0.01630900  0.76560200  1
  O  O3  1  0.25816900  0.88125600  0.90137300  1
  O  O4  1  0.75054800  0.50960600  0.25561800  1
  O  O5  1  0.24242500  0.14246000  0.62956200  1
  O  O6  1  0.26288600  0.64801700  0.13157700  1
  O  O7  1  0.76459000  0.25157300  0.52026800  1
  O  O8  1  0.25036200  0.74669900  0.49264500  1
  O  O9  1  0.76818100  0.36653200  0.86149500  1
  O  O10  1  0.24395700  0.99007800  0.22836800  1
  O  O11  1  0.72410200  0.85826200  0.35209900  1
  O  O12  1  0.23340100  0.48164900  0.74581400  1
  O  O13  1  0.74894200  0.09867900  0.12150900  1
  O  O14  1  0.74584600  0.61207500  0.61654100  1
  O  O15  1  0.22150500  0.23849600  0.98621900  1
loop_
_geom_bond_atom_site_label_1
_geom_bond_atom_site_label_2
_geom_bond_distance
_geom_bond_site_symmetry_2
Li0 O0 2.080404 1_556
Li0 O3 2.129482 1_555
Li0 O8 2.132576 1_555
Li0 O2 2.154272 1_565
Li0 O14 2.154284 1_555
Li0 O12 2.219955 1_555
Li1 O15 2.008969 1_654
Li1 O9 2.068368 1_554
Li1 O4 2.146784 1_555
Li1 O1 2.148210 1_655
Li1 O13 2.160617 1_555
Li1 O6 2.236724 1_655
Li2 O7 2.043844 1_555
Li2 O8 2.045983 1_545
Li2 O11 2.135811 1_545
Li2 O5 2.160491 1_555
Li2 O2 2.199770 1_555
Li2 O10 2.248590 1_545
Li3 O2 2.021284 1_465
Li3 O5 2.083786 1_565
Li3 O8 2.101225 1_555
Li3 O14 2.157449 1_455
Li3 O3 2.205498 1_555
Li3 O11 2.298539 1_455
Li4 O15 2.087387 1_555
Li4 O12 2.102115 1_555
Li4 O4 2.107452 1_556
Li4 O6 2.152005 1_556
Li4 O0 2.192260 1_556
Li4 O9 2.195715 1_555
Li5 O13 2.058570 1_555
Li5 O5 2.068732 1_655
Li5 O7 2.070089 1_555
Li5 O11 2.159371 1_545
Li5 O1 2.170364 1_655
Li5 O10 2.177238 1_645
Li6 O9 2.036100 1_455
Li6 O3 2.051860 1_555
Li6 O12 2.067318 1_555
Li6 O6 2.102288 1_556
Li6 O14 2.127359 1_455
Li6 O0 2.184612 1_456
Li7 O10 2.073817 1_545
Li7 O4 2.091660 1_555
Li7 O15 2.144754 1_554
Li7 O13 2.157497 1_555
Li7 O1 2.170827 1_555
Li7 O7 2.297193 1_555
Li8 O3 2.045442 1_545
Li8 O15 2.050119 1_555
Li8 O9 2.055774 1_555
Li8 O13 2.101869 1_556
Li8 O2 2.109407 1_555
Li8 O5 2.125663 1_555
Co0 O15 1.924384 1_555
Co0 O2 1.929422 1_455
Co0 O13 1.945871 1_456
Co0 O3 1.949617 1_545
Co0 O10 1.964369 1_546
Co0 O0 1.968965 1_446
Co1 O2 1.841724 1_555
Co1 O9 1.868626 1_555
Co1 O15 1.916465 1_655
Co1 O5 1.953177 1_655
Co1 O12 1.953237 1_655
Co1 O7 1.971386 1_555
Co2 O1 1.916880 1_555
Co2 O11 1.927851 1_555
Co2 O8 1.991859 1_555
Co2 O4 2.003190 1_555
Co2 O6 2.044320 1_555
Co2 O14 2.069849 1_555
Co3 O13 1.841132 1_565
Co3 O3 1.848096 1_554
Co3 O0 1.929348 1_555
Co3 O6 1.935133 1_555
Co3 O10 1.951340 1_555
Co3 O11 1.991990 1_555
Co4 O1 1.969441 1_555
Co4 O14 1.970811 1_455
Co4 O7 2.034840 1_455
Co4 O12 2.038034 1_555
Co4 O8 2.044707 1_555
Co4 O4 2.089289 1_455
Co5 O6 1.978782 1_655
Co5 O4 1.984574 1_555
Co5 O11 2.006505 1_555
Co5 O10 2.019988 1_655
Co5 O0 2.053978 1_555
Co5 O8 2.069154 1_655
Co6 O5 1.902436 1_555
Co6 O9 1.996232 1_555
Co6 O7 2.019134 1_555
Co6 O12 2.030470 1_555
Co6 O14 2.031010 1_555
Co6 O1 2.146449 1_555
