# generated using pymatgen
data_Tb2SiO5
_symmetry_space_group_name_H-M   'P 1'
_cell_length_a   6.91118800
_cell_length_b   6.70398469
_cell_length_c   9.07102663
_cell_angle_alpha   73.39216965
_cell_angle_beta   90.00000000
_cell_angle_gamma   90.00000000
_symmetry_Int_Tables_number   1
_chemical_formula_structural   Tb2SiO5
_chemical_formula_sum   'Tb8 Si4 O20'
_cell_volume   402.75058814
_cell_formula_units_Z   4
loop_
 _symmetry_equiv_pos_site_id
 _symmetry_equiv_pos_as_xyz
  1  'x, y, z'
loop_
 _atom_site_type_symbol
 _atom_site_label
 _atom_site_symmetry_multiplicity
 _atom_site_fract_x
 _atom_site_fract_y
 _atom_site_fract_z
 _atom_site_occupancy
  Tb  Tb0  1  0.35902598  0.42945168  0.38000855  1
  Tb  Tb1  1  0.64097402  0.57054832  0.61999145  1
  Tb  Tb2  1  0.85902598  0.07054832  0.61999145  1
  Tb  Tb3  1  0.14097402  0.92945168  0.38000855  1
  Tb  Tb4  1  0.37461129  0.26747633  0.02765764  1
  Tb  Tb5  1  0.62538871  0.73252367  0.97234236  1
  Tb  Tb6  1  0.87461129  0.23252367  0.97234236  1
  Tb  Tb7  1  0.12538871  0.76747633  0.02765764  1
  Si  Si0  1  0.91153862  0.46762209  0.29849192  1
  Si  Si1  1  0.08846138  0.53237791  0.70150808  1
  Si  Si2  1  0.41153862  0.03237791  0.70150808  1
  Si  Si3  1  0.58846138  0.96762209  0.29849192  1
  O  O0  1  0.42923559  0.15324903  0.29326198  1
  O  O1  1  0.57076441  0.84675097  0.70673802  1
  O  O2  1  0.92923559  0.34675097  0.70673802  1
  O  O3  1  0.07076441  0.65324903  0.29326198  1
  O  O4  1  0.22179924  0.03217107  0.60133520  1
  O  O5  1  0.77820076  0.96782893  0.39866480  1
  O  O6  1  0.72179924  0.46782893  0.39866480  1
  O  O7  1  0.27820076  0.53217107  0.60133520  1
  O  O8  1  0.11852956  0.05647915  0.11579917  1
  O  O9  1  0.88147044  0.94352085  0.88420083  1
  O  O10  1  0.61852956  0.44352085  0.88420083  1
  O  O11  1  0.38147044  0.55647915  0.11579917  1
  O  O12  1  0.13609262  0.49189133  0.88566290  1
  O  O13  1  0.86390738  0.50810867  0.11433710  1
  O  O14  1  0.63609262  0.00810867  0.11433710  1
  O  O15  1  0.36390738  0.99189133  0.88566290  1
  O  O16  1  0.04663775  0.26505521  0.37139398  1
  O  O17  1  0.95336225  0.73494479  0.62860602  1
  O  O18  1  0.54663775  0.23494479  0.62860602  1
  O  O19  1  0.45336225  0.76505521  0.37139398  1
loop_
_geom_bond_atom_site_label_1
_geom_bond_atom_site_label_2
_geom_bond_distance
_geom_bond_site_symmetry_2
O0 Si3 1.651696 1_545
O0 Tb0 2.261894 1_555
O0 Tb4 2.340729 1_555
O0 Tb3 2.482800 1_545
O1 Si2 1.651696 1_565
O1 Tb1 2.261894 1_555
O1 Tb5 2.340729 1_555
O1 Tb2 2.482800 1_565
O2 Si1 1.651696 1_655
O2 Tb2 2.261894 1_555
O2 Tb6 2.340729 1_555
O2 Tb1 2.482800 1_555
O3 Si0 1.651696 1_455
O3 Tb3 2.261894 1_555
O3 Tb7 2.340729 1_555
O3 Tb0 2.482800 1_555
O4 Si2 1.595612 1_555
O4 Tb3 2.367963 1_545
O4 Tb2 2.530957 1_455
O5 Si3 1.595612 1_555
O5 Tb2 2.367963 1_565
O5 Tb3 2.530957 1_655
O6 Si0 1.595612 1_555
O6 Tb1 2.367963 1_555
O6 Tb0 2.530957 1_555
O7 Si1 1.595612 1_555
O7 Tb0 2.367963 1_555
O7 Tb1 2.530957 1_555
O8 Tb6 2.247251 1_454
O8 Tb4 2.264050 1_555
O8 Tb7 2.298000 1_545
O8 Tb3 2.307923 1_545
O9 Tb7 2.247251 1_656
O9 Tb5 2.264050 1_555
O9 Tb6 2.298000 1_565
O9 Tb2 2.307923 1_565
O10 Tb4 2.247251 1_556
O10 Tb6 2.264050 1_555
O10 Tb5 2.298000 1_555
O10 Tb1 2.307923 1_555
O11 Tb5 2.247251 1_554
O11 Tb7 2.264050 1_555
O11 Tb4 2.298000 1_555
O11 Tb0 2.307923 1_555
O12 Si1 1.647220 1_555
O12 Tb4 2.352048 1_556
O12 Tb6 2.475054 1_455
O12 Tb7 2.537351 1_556
O13 Si0 1.647220 1_555
O13 Tb5 2.352048 1_554
O13 Tb7 2.475054 1_655
O13 Tb6 2.537351 1_554
O14 Si3 1.647220 1_545
O14 Tb6 2.352048 1_554
O14 Tb4 2.475054 1_555
O14 Tb5 2.537351 1_544
O15 Si2 1.647220 1_565
O15 Tb7 2.352048 1_556
O15 Tb5 2.475054 1_555
O15 Tb4 2.537351 1_566
O16 Si0 1.624784 1_455
O16 Tb3 2.322206 1_545
O16 Tb0 2.435396 1_555
O16 Tb2 2.604965 1_455
O17 Si1 1.624784 1_655
O17 Tb2 2.322206 1_565
O17 Tb1 2.435396 1_555
O17 Tb3 2.604965 1_655
O18 Si2 1.624784 1_555
O18 Tb1 2.322206 1_555
O18 Tb2 2.435396 1_555
O18 Tb0 2.604965 1_555
O19 Si3 1.624784 1_555
O19 Tb0 2.322206 1_555
O19 Tb3 2.435396 1_555
O19 Tb1 2.604965 1_555
