# generated using pymatgen
data_Ni(ClO3)2
_symmetry_space_group_name_H-M   'P 1'
_cell_length_a   5.94183107
_cell_length_b   5.94183107
_cell_length_c   7.43866300
_cell_angle_alpha   55.49970822
_cell_angle_beta   55.49970822
_cell_angle_gamma   48.52910597
_symmetry_Int_Tables_number   1
_chemical_formula_structural   Ni(ClO3)2
_chemical_formula_sum   'Ni1 Cl2 O6'
_cell_volume   154.19392334
_cell_formula_units_Z   1
loop_
 _symmetry_equiv_pos_site_id
 _symmetry_equiv_pos_as_xyz
  1  'x, y, z'
loop_
 _atom_site_type_symbol
 _atom_site_label
 _atom_site_symmetry_multiplicity
 _atom_site_fract_x
 _atom_site_fract_y
 _atom_site_fract_z
 _atom_site_occupancy
  Ni  Ni0  1  0.00000000  0.00000000  0.00000000  1
  Cl  Cl0  1  0.76247000  0.76247000  0.35909600  1
  Cl  Cl1  1  0.23753000  0.23753000  0.64090400  1
  O  O0  1  0.20680300  0.66211600  0.87907200  1
  O  O1  1  0.66211600  0.20680300  0.87907200  1
  O  O2  1  0.79319700  0.33788400  0.12092800  1
  O  O3  1  0.33788400  0.79319700  0.12092800  1
  O  O4  1  0.63013900  0.63013900  0.98961900  1
  O  O5  1  0.36986100  0.36986100  0.01038100  1
loop_
_geom_bond_atom_site_label_1
_geom_bond_atom_site_label_2
_geom_bond_distance
_geom_bond_site_symmetry_2
Ni0 O0 1.968749 1_544
Ni0 O1 1.968749 1_454
Ni0 O3 1.968749 1_545
Ni0 O2 1.968749 1_455
Cl0 Ni0 2.283842 1_665
Cl1 Ni0 2.283842 1_556
O0 O5 1.352958 1_556
O1 O5 1.352958 1_556
O2 O4 1.352958 1_554
O3 O4 1.352958 1_554
