# generated using pymatgen
data_La3NdCr4O12
_symmetry_space_group_name_H-M   'P 1'
_cell_length_a   7.87286100
_cell_length_b   5.57383800
_cell_length_c   5.57505341
_cell_angle_alpha   89.93658984
_cell_angle_beta   90.00000000
_cell_angle_gamma   90.00000000
_symmetry_Int_Tables_number   1
_chemical_formula_structural   La3NdCr4O12
_chemical_formula_sum   'La3 Nd1 Cr4 O12'
_cell_volume   244.64463295
_cell_formula_units_Z   1
loop_
 _symmetry_equiv_pos_site_id
 _symmetry_equiv_pos_as_xyz
  1  'x, y, z'
loop_
 _atom_site_type_symbol
 _atom_site_label
 _atom_site_symmetry_multiplicity
 _atom_site_fract_x
 _atom_site_fract_y
 _atom_site_fract_z
 _atom_site_occupancy
  La  La0  1  0.00000000  0.00737100  0.97061200  1
  La  La1  1  0.50000000  0.50703700  0.52818800  1
  La  La2  1  0.50000000  0.99180600  0.02948800  1
  Nd  Nd0  1  0.00000000  0.48938600  0.46332000  1
  Cr  Cr0  1  0.24899500  0.99977400  0.50030700  1
  Cr  Cr1  1  0.75064700  0.50015100  0.99917500  1
  Cr  Cr2  1  0.75100500  0.99977400  0.50030700  1
  Cr  Cr3  1  0.24935300  0.50015100  0.99917500  1
  O  O0  1  0.29308500  0.78353600  0.78362700  1
  O  O1  1  0.70798300  0.71754400  0.28285600  1
  O  O2  1  0.79597200  0.22058800  0.22012300  1
  O  O3  1  0.20365000  0.28473400  0.71517400  1
  O  O4  1  0.20402800  0.22058800  0.22012300  1
  O  O5  1  0.79635000  0.28473400  0.71517400  1
  O  O6  1  0.70691500  0.78353600  0.78362700  1
  O  O7  1  0.29201700  0.71754400  0.28285600  1
  O  O8  1  0.00000000  0.58031200  0.01986400  1
  O  O9  1  0.00000000  0.91227700  0.51443200  1
  O  O10  1  0.50000000  0.41942000  0.98565500  1
  O  O11  1  0.50000000  0.07973800  0.48591700  1
loop_
_geom_bond_atom_site_label_1
_geom_bond_atom_site_label_2
_geom_bond_distance
_geom_bond_site_symmetry_2
La0 O8 2.395840 1_546
La0 O4 2.435400 1_556
La0 O2 2.435400 1_456
La0 O9 2.598448 1_545
La0 O3 2.642683 1_555
La0 O5 2.642683 1_455
La0 O0 2.823175 1_545
La0 O6 2.823175 1_445
La1 O11 2.393586 1_555
La1 O7 2.434135 1_555
La1 O1 2.434135 1_555
La1 O10 2.596208 1_555
La1 O6 2.657393 1_555
La1 O0 2.657393 1_555
La1 O3 2.839479 1_555
La1 O5 2.839479 1_555
La2 O10 2.395677 1_564
La2 O6 2.425612 1_554
La2 O0 2.425612 1_554
La2 O11 2.591920 1_565
La2 O7 2.647364 1_555
La2 O1 2.647364 1_555
La2 O4 2.861511 1_565
La2 O2 2.861511 1_565
Nd0 O9 2.374600 1_555
Nd0 O5 2.416555 1_455
Nd0 O3 2.416555 1_555
Nd0 O8 2.523153 1_555
Nd0 O4 2.582179 1_555
Nd0 O2 2.582179 1_455
Nd0 O1 2.812846 1_455
Nd0 O7 2.812846 1_555
Cr0 O7 2.015756 1_555
Cr0 O0 2.015902 1_555
Cr0 O4 2.018878 1_565
Cr0 O9 2.021571 1_555
Cr0 O3 2.022220 1_565
Cr0 O11 2.027336 1_565
Cr1 O6 2.013294 1_555
Cr1 O8 2.016655 1_656
Cr1 O2 2.017056 1_556
Cr1 O5 2.020460 1_555
Cr1 O1 2.021527 1_556
Cr1 O10 2.025386 1_555
Cr2 O1 2.015756 1_555
Cr2 O6 2.015902 1_555
Cr2 O2 2.018878 1_565
Cr2 O9 2.021571 1_655
Cr2 O5 2.022220 1_565
Cr2 O11 2.027336 1_565
Cr3 O0 2.013294 1_555
Cr3 O8 2.016655 1_556
Cr3 O4 2.017056 1_556
Cr3 O3 2.020460 1_555
Cr3 O7 2.021527 1_556
Cr3 O10 2.025386 1_555
