# generated using pymatgen
data_RbHo2Cu3S5
_symmetry_space_group_name_H-M   'P 1'
_cell_length_a   7.23759720
_cell_length_b   7.23759720
_cell_length_c   16.49585800
_cell_angle_alpha   90.00000000
_cell_angle_beta   90.00000000
_cell_angle_gamma   148.38533473
_symmetry_Int_Tables_number   1
_chemical_formula_structural   RbHo2Cu3S5
_chemical_formula_sum   'Rb2 Ho4 Cu6 S10'
_cell_volume   452.96429657
_cell_formula_units_Z   2
loop_
 _symmetry_equiv_pos_site_id
 _symmetry_equiv_pos_as_xyz
  1  'x, y, z'
loop_
 _atom_site_type_symbol
 _atom_site_label
 _atom_site_symmetry_multiplicity
 _atom_site_fract_x
 _atom_site_fract_y
 _atom_site_fract_z
 _atom_site_occupancy
  Rb  Rb0  1  0.56554700  0.43445300  0.75000000  1
  Rb  Rb1  1  0.43445300  0.56554700  0.25000000  1
  Ho  Ho0  1  0.30801500  0.69198500  0.59272800  1
  Ho  Ho1  1  0.69198500  0.30801500  0.40727200  1
  Ho  Ho2  1  0.30801500  0.69198500  0.90727200  1
  Ho  Ho3  1  0.69198500  0.30801500  0.09272800  1
  Cu  Cu0  1  0.08410600  0.91589400  0.96367800  1
  Cu  Cu1  1  0.91589400  0.08410600  0.03632200  1
  Cu  Cu2  1  0.91589400  0.08410600  0.46367800  1
  Cu  Cu3  1  0.84485300  0.15514700  0.75000000  1
  Cu  Cu4  1  0.15514700  0.84485300  0.25000000  1
  Cu  Cu5  1  0.08410600  0.91589400  0.53632200  1
  S  S0  1  0.66773200  0.33226800  0.56949000  1
  S  S1  1  0.33226800  0.66773200  0.43051000  1
  S  S2  1  0.33226800  0.66773200  0.06949000  1
  S  S3  1  0.66773200  0.33226800  0.93051000  1
  S  S4  1  0.73778100  0.26221900  0.25000000  1
  S  S5  1  0.26221900  0.73778100  0.75000000  1
  S  S6  1  0.06141400  0.93858600  0.11310800  1
  S  S7  1  0.06141400  0.93858600  0.38689200  1
  S  S8  1  0.93858600  0.06141400  0.88689200  1
  S  S9  1  0.93858600  0.06141400  0.61310800  1
loop_
_geom_bond_atom_site_label_1
_geom_bond_atom_site_label_2
_geom_bond_distance
_geom_bond_site_symmetry_2
Rb0 S0 3.300308 1_555
Rb0 S3 3.300308 1_555
Rb0 S5 3.374943 1_545
Rb0 S5 3.374943 1_655
Rb0 S8 3.480384 1_565
Rb0 S9 3.480384 1_455
Rb0 S9 3.480384 1_565
Rb0 S8 3.480384 1_455
Rb1 S1 3.300308 1_555
Rb1 S2 3.300308 1_555
Rb1 S4 3.374943 1_455
Rb1 S4 3.374943 1_565
Rb1 S7 3.480384 1_545
Rb1 S7 3.480384 1_655
Rb1 S6 3.480384 1_655
Rb1 S6 3.480384 1_545
Ho0 S5 2.671595 1_555
Ho0 S1 2.697161 1_555
Ho0 S9 2.703182 1_565
Ho0 S9 2.703182 1_455
Ho0 S0 2.802034 1_455
Ho0 S0 2.802034 1_565
Ho1 S4 2.671595 1_555
Ho1 S0 2.697161 1_555
Ho1 S7 2.703182 1_655
Ho1 S7 2.703182 1_545
Ho1 S1 2.802034 1_545
Ho1 S1 2.802034 1_655
Ho2 S5 2.671595 1_555
Ho2 S2 2.697161 1_556
Ho2 S8 2.703182 1_565
Ho2 S8 2.703182 1_455
Ho2 S3 2.802034 1_455
Ho2 S3 2.802034 1_565
Ho3 S4 2.671595 1_555
Ho3 S3 2.697161 1_554
Ho3 S6 2.703182 1_655
Ho3 S6 2.703182 1_545
Ho3 S2 2.802034 1_655
Ho3 S2 2.802034 1_545
Cu0 S3 2.354344 1_455
Cu0 S3 2.354344 1_565
Cu0 S8 2.390023 1_465
Cu0 S6 2.485155 1_556
Cu1 S2 2.354344 1_655
Cu1 S2 2.354344 1_545
Cu1 S6 2.390023 1_645
Cu1 S8 2.485155 1_554
Cu2 S1 2.354344 1_655
Cu2 S1 2.354344 1_545
Cu2 S7 2.390023 1_645
Cu2 S9 2.485155 1_555
Cu3 S5 2.282890 1_545
Cu3 S5 2.282890 1_655
Cu3 S9 2.608363 1_555
Cu3 S8 2.608363 1_555
Cu4 S4 2.282890 1_455
Cu4 S4 2.282890 1_565
Cu4 S7 2.608363 1_555
Cu4 S6 2.608363 1_555
Cu5 S0 2.354344 1_455
Cu5 S0 2.354344 1_565
Cu5 S9 2.390023 1_465
Cu5 S7 2.485155 1_555
