# generated using pymatgen
data_Y4CdMo3O16
_symmetry_space_group_name_H-M   'P 1'
_cell_length_a   10.86018900
_cell_length_b   10.86018900
_cell_length_c   10.86018900
_cell_angle_alpha   90.00000000
_cell_angle_beta   90.00000000
_cell_angle_gamma   90.00000000
_symmetry_Int_Tables_number   1
_chemical_formula_structural   Y4CdMo3O16
_chemical_formula_sum   'Y16 Cd4 Mo12 O64'
_cell_volume   1280.89092892
_cell_formula_units_Z   4
loop_
 _symmetry_equiv_pos_site_id
 _symmetry_equiv_pos_as_xyz
  1  'x, y, z'
loop_
 _atom_site_type_symbol
 _atom_site_label
 _atom_site_symmetry_multiplicity
 _atom_site_fract_x
 _atom_site_fract_y
 _atom_site_fract_z
 _atom_site_occupancy
  Y  Y0  1  0.00000000  0.76410100  0.00000000  1
  Y  Y1  1  0.00000000  0.23589900  0.00000000  1
  Y  Y2  1  0.50000000  0.26410100  0.50000000  1
  Y  Y3  1  0.50000000  0.73589900  0.50000000  1
  Y  Y4  1  0.00000000  0.00000000  0.76410100  1
  Y  Y5  1  0.00000000  0.00000000  0.23589900  1
  Y  Y6  1  0.50000000  0.50000000  0.26410100  1
  Y  Y7  1  0.50000000  0.50000000  0.73589900  1
  Y  Y8  1  0.76410100  0.00000000  0.00000000  1
  Y  Y9  1  0.23589900  0.00000000  0.00000000  1
  Y  Y10  1  0.26410100  0.50000000  0.50000000  1
  Y  Y11  1  0.73589900  0.50000000  0.50000000  1
  Y  Y12  1  0.75000000  0.25000000  0.25000000  1
  Y  Y13  1  0.25000000  0.25000000  0.75000000  1
  Y  Y14  1  0.25000000  0.75000000  0.25000000  1
  Y  Y15  1  0.75000000  0.75000000  0.75000000  1
  Cd  Cd0  1  0.25000000  0.75000000  0.75000000  1
  Cd  Cd1  1  0.75000000  0.75000000  0.25000000  1
  Cd  Cd2  1  0.75000000  0.25000000  0.75000000  1
  Cd  Cd3  1  0.25000000  0.25000000  0.25000000  1
  Mo  Mo0  1  0.50000000  0.75130000  0.00000000  1
  Mo  Mo1  1  0.50000000  0.24870000  0.00000000  1
  Mo  Mo2  1  0.00000000  0.50000000  0.75130000  1
  Mo  Mo3  1  0.00000000  0.50000000  0.24870000  1
  Mo  Mo4  1  0.75130000  0.00000000  0.50000000  1
  Mo  Mo5  1  0.24870000  0.00000000  0.50000000  1
  Mo  Mo6  1  0.00000000  0.74870000  0.50000000  1
  Mo  Mo7  1  0.00000000  0.25130000  0.50000000  1
  Mo  Mo8  1  0.50000000  0.00000000  0.74870000  1
  Mo  Mo9  1  0.50000000  0.00000000  0.25130000  1
  Mo  Mo10  1  0.74870000  0.50000000  0.00000000  1
  Mo  Mo11  1  0.25130000  0.50000000  0.00000000  1
  O  O0  1  0.16499600  0.08151100  0.62068200  1
  O  O1  1  0.83500400  0.08151100  0.37931800  1
  O  O2  1  0.83500400  0.91848900  0.62068200  1
  O  O3  1  0.16499600  0.91848900  0.37931800  1
  O  O4  1  0.88761600  0.57623300  0.34237000  1
  O  O5  1  0.11238400  0.57623300  0.65763000  1
  O  O6  1  0.11238400  0.42376700  0.34237000  1
  O  O7  1  0.88761600  0.42376700  0.65763000  1
  O  O8  1  0.62068200  0.16499600  0.08151100  1
  O  O9  1  0.37931800  0.83500400  0.08151100  1
  O  O10  1  0.62068200  0.83500400  0.91848900  1
  O  O11  1  0.37931800  0.16499600  0.91848900  1
  O  O12  1  0.34237000  0.88761600  0.57623300  1
  O  O13  1  0.65763000  0.11238400  0.57623300  1
  O  O14  1  0.34237000  0.11238400  0.42376700  1
  O  O15  1  0.65763000  0.88761600  0.42376700  1
  O  O16  1  0.08151100  0.62068200  0.16499600  1
  O  O17  1  0.08151100  0.37931800  0.83500400  1
  O  O18  1  0.91848900  0.62068200  0.83500400  1
  O  O19  1  0.91848900  0.37931800  0.16499600  1
  O  O20  1  0.57623300  0.34237000  0.88761600  1
  O  O21  1  0.57623300  0.65763000  0.11238400  1
  O  O22  1  0.42376700  0.34237000  0.11238400  1
  O  O23  1  0.42376700  0.65763000  0.88761600  1
  O  O24  1  0.33500400  0.41848900  0.87931800  1
  O  O25  1  0.66499600  0.41848900  0.12068200  1
  O  O26  1  0.66499600  0.58151100  0.87931800  1
  O  O27  1  0.33500400  0.58151100  0.12068200  1
  O  O28  1  0.61238400  0.92376700  0.15763000  1
  O  O29  1  0.38761600  0.92376700  0.84237000  1
  O  O30  1  0.38761600  0.07623300  0.15763000  1
  O  O31  1  0.61238400  0.07623300  0.84237000  1
  O  O32  1  0.87931800  0.33500400  0.41848900  1
  O  O33  1  0.12068200  0.66499600  0.41848900  1
  O  O34  1  0.87931800  0.66499600  0.58151100  1
  O  O35  1  0.12068200  0.33500400  0.58151100  1
  O  O36  1  0.15763000  0.61238400  0.92376700  1
  O  O37  1  0.84237000  0.38761600  0.92376700  1
  O  O38  1  0.15763000  0.38761600  0.07623300  1
  O  O39  1  0.84237000  0.61238400  0.07623300  1
  O  O40  1  0.41848900  0.87931800  0.33500400  1
  O  O41  1  0.41848900  0.12068200  0.66499600  1
  O  O42  1  0.58151100  0.87931800  0.66499600  1
  O  O43  1  0.58151100  0.12068200  0.33500400  1
  O  O44  1  0.92376700  0.15763000  0.61238400  1
  O  O45  1  0.92376700  0.84237000  0.38761600  1
  O  O46  1  0.07623300  0.15763000  0.38761600  1
  O  O47  1  0.07623300  0.84237000  0.61238400  1
  O  O48  1  0.13004600  0.86995400  0.86995400  1
  O  O49  1  0.86995400  0.86995400  0.13004600  1
  O  O50  1  0.86995400  0.13004600  0.86995400  1
  O  O51  1  0.13004600  0.13004600  0.13004600  1
  O  O52  1  0.62905300  0.37094700  0.37094700  1
  O  O53  1  0.37094700  0.37094700  0.62905300  1
  O  O54  1  0.37094700  0.62905300  0.37094700  1
  O  O55  1  0.62905300  0.62905300  0.62905300  1
  O  O56  1  0.36995400  0.63004600  0.63004600  1
  O  O57  1  0.63004600  0.63004600  0.36995400  1
  O  O58  1  0.63004600  0.36995400  0.63004600  1
  O  O59  1  0.36995400  0.36995400  0.36995400  1
  O  O60  1  0.87094700  0.12905300  0.12905300  1
  O  O61  1  0.12905300  0.12905300  0.87094700  1
  O  O62  1  0.12905300  0.87094700  0.12905300  1
  O  O63  1  0.87094700  0.87094700  0.87094700  1
loop_
_geom_bond_atom_site_label_1
_geom_bond_atom_site_label_2
_geom_bond_distance
_geom_bond_site_symmetry_2
Cd0 O48 2.256383 1_555
Cd0 O56 2.256383 1_555
Cd0 O29 2.607924 1_555
Cd0 O23 2.607924 1_555
Cd0 O12 2.607924 1_555
Cd0 O5 2.607924 1_555
Cd0 O36 2.607924 1_555
Cd0 O47 2.607924 1_555
Cd1 O57 2.256383 1_555
Cd1 O49 2.256383 1_555
Cd1 O45 2.607924 1_555
Cd1 O15 2.607924 1_555
Cd1 O4 2.607924 1_555
Cd1 O21 2.607924 1_555
Cd1 O28 2.607924 1_555
Cd1 O39 2.607924 1_555
Cd2 O58 2.256383 1_555
Cd2 O50 2.256383 1_555
Cd2 O37 2.607924 1_555
Cd2 O7 2.607924 1_555
Cd2 O20 2.607924 1_555
Cd2 O13 2.607924 1_555
Cd2 O44 2.607924 1_555
Cd2 O31 2.607924 1_555
Cd3 O51 2.256383 1_555
Cd3 O59 2.256383 1_555
Cd3 O38 2.607924 1_555
Cd3 O30 2.607924 1_555
Cd3 O46 2.607924 1_555
Cd3 O6 2.607924 1_555
Cd3 O22 2.607924 1_555
Cd3 O14 2.607924 1_555
Mo0 O21 1.791625 1_555
Mo0 O23 1.791625 1_554
Mo0 O10 1.824206 1_554
Mo0 O9 1.824206 1_555
Mo1 O22 1.791625 1_555
Mo1 O20 1.791625 1_554
Mo1 O8 1.824206 1_555
Mo1 O11 1.824206 1_554
Mo2 O5 1.791625 1_555
Mo2 O7 1.791625 1_455
Mo2 O18 1.824206 1_455
Mo2 O17 1.824206 1_555
Mo3 O6 1.791625 1_555
Mo3 O4 1.791625 1_455
Mo3 O16 1.824206 1_555
Mo3 O19 1.824206 1_455
Mo4 O13 1.791625 1_555
Mo4 O15 1.791625 1_545
Mo4 O2 1.824206 1_545
Mo4 O1 1.824206 1_555
Mo5 O14 1.791625 1_555
Mo5 O12 1.791625 1_545
Mo5 O0 1.824206 1_555
Mo5 O3 1.824206 1_545
Mo6 O47 1.791625 1_555
Mo6 O45 1.791625 1_455
Mo6 O33 1.824206 1_555
Mo6 O34 1.824206 1_455
Mo7 O44 1.791625 1_455
Mo7 O46 1.791625 1_555
Mo7 O35 1.824206 1_555
Mo7 O32 1.824206 1_455
Mo8 O31 1.791625 1_555
Mo8 O29 1.791625 1_545
Mo8 O41 1.824206 1_555
Mo8 O42 1.824206 1_545
Mo9 O28 1.791625 1_545
Mo9 O30 1.791625 1_555
Mo9 O43 1.824206 1_555
Mo9 O40 1.824206 1_545
Mo10 O39 1.791625 1_555
Mo10 O37 1.791625 1_554
Mo10 O25 1.824206 1_555
Mo10 O26 1.824206 1_554
Mo11 O36 1.791625 1_554
Mo11 O38 1.791625 1_555
Mo11 O27 1.824206 1_555
Mo11 O24 1.824206 1_554
O0 Y13 2.484525 1_555
O0 Y4 2.533865 1_555
O1 Y12 2.484525 1_555
O1 Y5 2.533865 1_655
O2 Y15 2.484525 1_555
O2 Y4 2.533865 1_665
O3 Y14 2.484525 1_555
O3 Y5 2.533865 1_565
O4 Y11 2.516115 1_555
O5 Y10 2.516115 1_555
O6 Y10 2.516115 1_555
O7 Y11 2.516115 1_555
O8 Y12 2.484525 1_555
O8 Y8 2.533865 1_555
O9 Y14 2.484525 1_555
O9 Y9 2.533865 1_565
O10 Y15 2.484525 1_555
O10 Y8 2.533865 1_566
O11 Y13 2.484525 1_555
O11 Y9 2.533865 1_556
O12 Y3 2.516115 1_555
O13 Y2 2.516115 1_555
O14 Y2 2.516115 1_555
O15 Y3 2.516115 1_555
O16 Y14 2.484525 1_555
O16 Y0 2.533865 1_555
O17 Y13 2.484525 1_555
O17 Y1 2.533865 1_556
O18 Y15 2.484525 1_555
O18 Y0 2.533865 1_656
O19 Y12 2.484525 1_555
O19 Y1 2.533865 1_655
O20 Y7 2.516115 1_555
O21 Y6 2.516115 1_555
O22 Y6 2.516115 1_555
O23 Y7 2.516115 1_555
O24 Y13 2.484525 1_555
O24 Y7 2.533865 1_555
O25 Y12 2.484525 1_555
O25 Y6 2.533865 1_555
O26 Y15 2.484525 1_555
O26 Y7 2.533865 1_555
O27 Y14 2.484525 1_555
O27 Y6 2.533865 1_555
O28 Y8 2.516115 1_565
O29 Y9 2.516115 1_566
O30 Y9 2.516115 1_555
O31 Y8 2.516115 1_556
O32 Y12 2.484525 1_555
O32 Y11 2.533865 1_555
O33 Y14 2.484525 1_555
O33 Y10 2.533865 1_555
O34 Y15 2.484525 1_555
O34 Y11 2.533865 1_555
O35 Y13 2.484525 1_555
O35 Y10 2.533865 1_555
O36 Y0 2.516115 1_556
O37 Y1 2.516115 1_656
O38 Y1 2.516115 1_555
O39 Y0 2.516115 1_655
O40 Y14 2.484525 1_555
O40 Y3 2.533865 1_555
O41 Y13 2.484525 1_555
O41 Y2 2.533865 1_555
O42 Y15 2.484525 1_555
O42 Y3 2.533865 1_555
O43 Y12 2.484525 1_555
O43 Y2 2.533865 1_555
O44 Y4 2.516115 1_655
O45 Y5 2.516115 1_665
O46 Y5 2.516115 1_555
O47 Y4 2.516115 1_565
O48 Y9 2.304531 1_566
O48 Y0 2.304531 1_556
O48 Y4 2.304531 1_565
O49 Y5 2.304531 1_665
O49 Y0 2.304531 1_655
O49 Y8 2.304531 1_565
O50 Y1 2.304531 1_656
O50 Y8 2.304531 1_556
O50 Y4 2.304531 1_655
O51 Y1 2.304531 1_555
O51 Y9 2.304531 1_555
O51 Y5 2.304531 1_555
O52 Y12 2.275061 1_555
O52 Y6 2.296755 1_555
O52 Y2 2.296755 1_555
O52 Y11 2.296755 1_555
O53 Y13 2.275061 1_555
O53 Y2 2.296755 1_555
O53 Y10 2.296755 1_555
O53 Y7 2.296755 1_555
O54 Y14 2.275061 1_555
O54 Y6 2.296755 1_555
O54 Y10 2.296755 1_555
O54 Y3 2.296755 1_555
O55 Y15 2.275061 1_555
O55 Y7 2.296755 1_555
O55 Y3 2.296755 1_555
O55 Y11 2.296755 1_555
O56 Y7 2.304531 1_555
O56 Y3 2.304531 1_555
O56 Y10 2.304531 1_555
O57 Y3 2.304531 1_555
O57 Y11 2.304531 1_555
O57 Y6 2.304531 1_555
O58 Y7 2.304531 1_555
O58 Y11 2.304531 1_555
O58 Y2 2.304531 1_555
O59 Y6 2.304531 1_555
O59 Y2 2.304531 1_555
O59 Y10 2.304531 1_555
O60 Y12 2.275061 1_555
O60 Y8 2.296755 1_555
O60 Y1 2.296755 1_655
O60 Y5 2.296755 1_655
O61 Y13 2.275061 1_555
O61 Y4 2.296755 1_555
O61 Y1 2.296755 1_556
O61 Y9 2.296755 1_556
O62 Y14 2.275061 1_555
O62 Y0 2.296755 1_555
O62 Y9 2.296755 1_565
O62 Y5 2.296755 1_565
O63 Y15 2.275061 1_555
O63 Y4 2.296755 1_665
O63 Y0 2.296755 1_656
O63 Y8 2.296755 1_566
