# generated using pymatgen
data_Zn(GaS2)2
_symmetry_space_group_name_H-M   'P 1'
_cell_length_a   5.99270000
_cell_length_b   7.33133100
_cell_length_c   12.49505000
_cell_angle_alpha   90.00000000
_cell_angle_beta   90.00000000
_cell_angle_gamma   90.00000000
_symmetry_Int_Tables_number   1
_chemical_formula_structural   Zn(GaS2)2
_chemical_formula_sum   'Zn4 Ga8 S16'
_cell_volume   548.96336543
_cell_formula_units_Z   4
loop_
 _symmetry_equiv_pos_site_id
 _symmetry_equiv_pos_as_xyz
  1  'x, y, z'
loop_
 _atom_site_type_symbol
 _atom_site_label
 _atom_site_symmetry_multiplicity
 _atom_site_fract_x
 _atom_site_fract_y
 _atom_site_fract_z
 _atom_site_occupancy
  Zn  Zn0  1  0.00462200  0.75000000  0.26675700  1
  Zn  Zn1  1  0.49537800  0.75000000  0.76675700  1
  Zn  Zn2  1  0.99537800  0.25000000  0.73324300  1
  Zn  Zn3  1  0.50462200  0.25000000  0.23324300  1
  Ga  Ga0  1  0.58351200  0.75000000  0.08617400  1
  Ga  Ga1  1  0.91648800  0.75000000  0.58617400  1
  Ga  Ga2  1  0.41648800  0.25000000  0.91382600  1
  Ga  Ga3  1  0.08351200  0.25000000  0.41382600  1
  Ga  Ga4  1  0.00000000  0.50000000  0.00000000  1
  Ga  Ga5  1  0.50000000  0.00000000  0.50000000  1
  Ga  Ga6  1  0.00000000  0.00000000  0.00000000  1
  Ga  Ga7  1  0.50000000  0.50000000  0.50000000  1
  S  S0  1  0.20633700  0.75000000  0.08997100  1
  S  S1  1  0.29366300  0.75000000  0.58997100  1
  S  S2  1  0.79366300  0.25000000  0.91002900  1
  S  S3  1  0.70633700  0.25000000  0.41002900  1
  S  S4  1  0.73828500  0.75000000  0.42223600  1
  S  S5  1  0.76171500  0.75000000  0.92223600  1
  S  S6  1  0.26171500  0.25000000  0.57776400  1
  S  S7  1  0.23828500  0.25000000  0.07776400  1
  S  S8  1  0.75917000  0.50432200  0.16205800  1
  S  S9  1  0.74083000  0.99567800  0.66205800  1
  S  S10  1  0.24083000  0.00432200  0.83794200  1
  S  S11  1  0.25917000  0.49567800  0.33794200  1
  S  S12  1  0.24083000  0.49567800  0.83794200  1
  S  S13  1  0.25917000  0.00432200  0.33794200  1
  S  S14  1  0.75917000  0.99567800  0.16205800  1
  S  S15  1  0.74083000  0.50432200  0.66205800  1
loop_
_geom_bond_atom_site_label_1
_geom_bond_atom_site_label_2
_geom_bond_distance
_geom_bond_site_symmetry_2
Ga0 S0 2.260794 1_555
Ga0 S8 2.291565 1_555
Ga0 S14 2.291565 1_555
Ga0 S5 2.310075 1_554
Ga1 S1 2.260794 1_655
Ga1 S9 2.291565 1_555
Ga1 S15 2.291565 1_555
Ga1 S4 2.310075 1_555
Ga2 S2 2.260794 1_555
Ga2 S12 2.291565 1_555
Ga2 S10 2.291565 1_555
Ga2 S7 2.310075 1_556
Ga3 S3 2.260794 1_455
Ga3 S13 2.291565 1_555
Ga3 S11 2.291565 1_555
Ga3 S6 2.310075 1_555
Ga4 S0 2.480334 1_555
Ga4 S2 2.480334 1_454
Ga4 S8 2.486806 1_455
Ga4 S12 2.486806 1_554
Ga4 S7 2.518434 1_555
Ga4 S5 2.518434 1_454
Ga5 S3 2.480334 1_555
Ga5 S1 2.480334 1_545
Ga5 S13 2.486806 1_555
Ga5 S9 2.486806 1_545
Ga5 S4 2.518434 1_545
Ga5 S6 2.518434 1_555
Ga6 S2 2.480334 1_454
Ga6 S0 2.480334 1_545
Ga6 S14 2.486806 1_445
Ga6 S10 2.486806 1_554
Ga6 S7 2.518434 1_555
Ga6 S5 2.518434 1_444
Ga7 S3 2.480334 1_555
Ga7 S1 2.480334 1_555
Ga7 S11 2.486806 1_555
Ga7 S15 2.486806 1_555
Ga7 S4 2.518434 1_555
Ga7 S6 2.518434 1_555
S0 Zn0 2.518075 1_555
S1 Zn1 2.518075 1_555
S2 Zn2 2.518075 1_555
S3 Zn3 2.518075 1_555
S4 Zn0 2.514283 1_655
S5 Zn1 2.514283 1_555
S6 Zn2 2.514283 1_455
S7 Zn3 2.514283 1_555
S8 Zn3 2.567977 1_555
S8 Zn0 2.668178 1_655
S9 Zn2 2.567977 1_565
S9 Zn1 2.668178 1_555
S10 Zn1 2.567977 1_545
S10 Zn2 2.668178 1_455
S11 Zn0 2.567977 1_555
S11 Zn3 2.668178 1_555
S12 Zn1 2.567977 1_555
S12 Zn2 2.668178 1_455
S13 Zn0 2.567977 1_545
S13 Zn3 2.668178 1_555
S14 Zn3 2.567977 1_565
S14 Zn0 2.668178 1_655
S15 Zn2 2.567977 1_555
S15 Zn1 2.668178 1_555
