# generated using pymatgen
data_Li5MnO3F
_symmetry_space_group_name_H-M   'P 1'
_cell_length_a   4.73430048
_cell_length_b   9.46180887
_cell_length_c   9.47473167
_cell_angle_alpha   89.92355464
_cell_angle_beta   90.20177451
_cell_angle_gamma   90.06959670
_symmetry_Int_Tables_number   1
_chemical_formula_structural   Li5MnO3F
_chemical_formula_sum   'Li20 Mn4 O12 F4'
_cell_volume   424.41772365
_cell_formula_units_Z   4
loop_
 _symmetry_equiv_pos_site_id
 _symmetry_equiv_pos_as_xyz
  1  'x, y, z'
loop_
 _atom_site_type_symbol
 _atom_site_label
 _atom_site_symmetry_multiplicity
 _atom_site_fract_x
 _atom_site_fract_y
 _atom_site_fract_z
 _atom_site_occupancy
  Li  Li0  1  0.95524800  0.47182900  0.22369400  1
  Li  Li1  1  0.95529900  0.97187000  0.72385800  1
  Li  Li2  1  0.03234400  0.71823900  0.73997600  1
  Li  Li3  1  0.03241000  0.21821800  0.23997100  1
  Li  Li4  1  0.54300300  0.73346000  0.75854000  1
  Li  Li5  1  0.54304500  0.23346700  0.25856400  1
  Li  Li6  1  0.55387500  0.19483900  0.99316300  1
  Li  Li7  1  0.55394000  0.69489100  0.49315700  1
  Li  Li8  1  0.01772600  0.69947500  0.99796300  1
  Li  Li9  1  0.01775000  0.19956000  0.49800500  1
  Li  Li10  1  0.51637800  0.77200600  0.99942900  1
  Li  Li11  1  0.51649000  0.27206300  0.49946200  1
  Li  Li12  1  0.46656200  0.71381800  0.24117100  1
  Li  Li13  1  0.46652700  0.21379500  0.74119900  1
  Li  Li14  1  0.95642800  0.73512500  0.25664000  1
  Li  Li15  1  0.95644000  0.23511100  0.75668700  1
  Li  Li16  1  0.98056400  0.47699900  0.79946500  1
  Li  Li17  1  0.98048900  0.97703400  0.29962100  1
  Li  Li18  1  0.48084000  0.47273100  0.72477600  1
  Li  Li19  1  0.48078100  0.97273400  0.22485500  1
  Mn  Mn0  1  0.98144400  0.47609600  0.51176800  1
  Mn  Mn1  1  0.51814800  0.98481100  0.50191800  1
  Mn  Mn2  1  0.98109100  0.97588000  0.01193300  1
  Mn  Mn3  1  0.51822700  0.48488700  0.00171200  1
  O  O0  1  0.81252300  0.83986200  0.86799400  1
  O  O1  1  0.81276400  0.33986700  0.36796700  1
  O  O2  1  0.74211900  0.61769200  0.12529100  1
  O  O3  1  0.74226100  0.11762600  0.62542400  1
  O  O4  1  0.75697100  0.60023800  0.64307200  1
  O  O5  1  0.75697000  0.10022800  0.14312400  1
  O  O6  1  0.27922600  0.60928800  0.86684400  1
  O  O7  1  0.27915000  0.10918700  0.36693000  1
  O  O8  1  0.68780800  0.34246700  0.86433400  1
  O  O9  1  0.68778200  0.84247200  0.36432800  1
  O  O10  1  0.22240900  0.84104300  0.13323200  1
  O  O11  1  0.22239800  0.34107500  0.63324500  1
  F  F0  1  0.27885400  0.34114800  0.13760100  1
  F  F1  1  0.27887500  0.84115500  0.63757800  1
  F  F2  1  0.21736000  0.60892300  0.36272900  1
  F  F3  1  0.21747900  0.10878700  0.86278400  1
loop_
_geom_bond_atom_site_label_1
_geom_bond_atom_site_label_2
_geom_bond_distance
_geom_bond_site_symmetry_2
Li0 O2 1.945624 1_555
Li0 O1 1.970400 1_555
Li1 O3 1.944823 1_565
Li1 O0 1.970250 1_555
Li2 O4 1.944211 1_455
Li2 O6 1.965566 1_555
Li2 O0 1.973340 1_455
Li3 O5 1.944109 1_455
Li3 O7 1.966090 1_555
Li3 O1 1.972916 1_455
Li4 O0 1.925491 1_555
Li4 O4 1.956156 1_555
Li4 O6 1.998775 1_555
Li5 O1 1.925844 1_555
Li5 O5 1.956005 1_555
Li5 O7 2.000026 1_555
Li6 O5 1.932288 1_556
Li6 O8 1.960063 1_555
Li7 O4 1.932002 1_555
Li7 O9 1.959607 1_555
Li8 O2 1.939807 1_456
Li8 O6 1.954597 1_555
Li8 O0 2.053037 1_455
Li8 O10 2.090102 1_556
Li9 O3 1.940536 1_455
Li9 O7 1.954802 1_555
Li9 O1 2.052454 1_455
Li9 O11 2.089536 1_555
Li10 O0 1.984114 1_555
Li10 O10 1.996911 1_556
Li10 O2 2.164782 1_556
Li10 O6 2.280359 1_555
Li11 O1 1.984746 1_555
Li11 O11 1.997120 1_555
Li11 O3 2.166156 1_555
Li11 O7 2.281529 1_555
Li12 O2 1.936551 1_555
Li12 O10 1.955209 1_555
Li12 O9 1.983027 1_555
Li13 O3 1.936743 1_555
Li13 O11 1.955537 1_555
Li13 O8 1.983161 1_555
Li14 O9 1.924924 1_555
Li14 O2 1.950604 1_555
Li14 O10 1.990319 1_655
Li15 O8 1.924718 1_555
Li15 O3 1.950047 1_555
Li15 O11 1.990658 1_655
Li16 O8 1.979565 1_555
Li16 O6 1.991239 1_655
Li16 O4 2.159459 1_555
Li16 O11 2.338121 1_655
Li17 O9 1.979106 1_555
Li17 O7 1.990216 1_665
Li17 O5 2.159732 1_565
Li17 O10 2.339754 1_655
Li18 O4 1.940254 1_555
Li18 O11 1.947468 1_555
Li18 O8 2.053561 1_555
Li18 O6 2.099783 1_555
Li19 O5 1.940465 1_565
Li19 O10 1.947859 1_555
Li19 O9 2.053107 1_555
Li19 O7 2.099255 1_565
Mn0 O4 2.018177 1_555
Mn0 O1 2.037166 1_555
Mn0 O11 2.061190 1_655
Mn1 O3 2.016496 1_565
Mn1 O9 2.042775 1_555
Mn1 O7 2.071226 1_565
Mn2 O5 2.017771 1_565
Mn2 O0 2.036571 1_554
Mn2 O10 2.060128 1_655
Mn3 O2 2.016290 1_555
Mn3 O8 2.041896 1_554
Mn3 O6 2.070670 1_554
F0 Li3 1.912224 1_555
F0 Li5 1.976330 1_555
F0 Li0 2.134836 1_455
F0 Mn3 2.189410 1_555
F0 Li6 2.346596 1_554
F1 Li2 1.912530 1_555
F1 Li4 1.976204 1_555
F1 Li1 2.135604 1_455
F1 Mn1 2.187400 1_555
F1 Li7 2.346366 1_555
F2 Li12 1.925390 1_555
F2 Li14 1.988443 1_455
F2 Li7 2.171079 1_555
F2 Mn0 2.196353 1_455
F2 Li0 2.224176 1_455
F3 Li13 1.925645 1_555
F3 Li15 1.989489 1_455
F3 Li6 2.170476 1_555
F3 Mn2 2.198596 1_446
F3 Li1 2.222768 1_445
