# generated using pymatgen
data_Ce9(SbO)5
_symmetry_space_group_name_H-M   'P 1'
_cell_length_a   10.19727700
_cell_length_b   10.19727700
_cell_length_c   9.18017700
_cell_angle_alpha   90.00000000
_cell_angle_beta   90.00000000
_cell_angle_gamma   90.00000000
_symmetry_Int_Tables_number   1
_chemical_formula_structural   Ce9(SbO)5
_chemical_formula_sum   'Ce18 Sb10 O10'
_cell_volume   954.59573166
_cell_formula_units_Z   2
loop_
 _symmetry_equiv_pos_site_id
 _symmetry_equiv_pos_as_xyz
  1  'x, y, z'
loop_
 _atom_site_type_symbol
 _atom_site_label
 _atom_site_symmetry_multiplicity
 _atom_site_fract_x
 _atom_site_fract_y
 _atom_site_fract_z
 _atom_site_occupancy
  Ce  Ce0  1  0.50000000  0.00000000  0.67027200  1
  Ce  Ce1  1  0.00000000  0.50000000  0.32972800  1
  Ce  Ce2  1  0.10377700  0.20322000  0.65632300  1
  Ce  Ce3  1  0.89622300  0.79678000  0.65632300  1
  Ce  Ce4  1  0.29678000  0.60377700  0.65632300  1
  Ce  Ce5  1  0.70322000  0.39622300  0.65632300  1
  Ce  Ce6  1  0.39622300  0.29678000  0.34367700  1
  Ce  Ce7  1  0.60377700  0.70322000  0.34367700  1
  Ce  Ce8  1  0.20322000  0.89622300  0.34367700  1
  Ce  Ce9  1  0.79678000  0.10377700  0.34367700  1
  Ce  Ce10  1  0.72650800  0.91960200  0.00089100  1
  Ce  Ce11  1  0.27349200  0.08039800  0.00089100  1
  Ce  Ce12  1  0.58039800  0.22650800  0.00089100  1
  Ce  Ce13  1  0.41960200  0.77349200  0.00089100  1
  Ce  Ce14  1  0.77349200  0.58039800  0.99910900  1
  Ce  Ce15  1  0.22650800  0.41960200  0.99910900  1
  Ce  Ce16  1  0.91960200  0.27349200  0.99910900  1
  Ce  Ce17  1  0.08039800  0.72650800  0.99910900  1
  Sb  Sb0  1  0.50000000  0.00000000  0.30803100  1
  Sb  Sb1  1  0.00000000  0.50000000  0.69196900  1
  Sb  Sb2  1  0.40274400  0.30305700  0.70157000  1
  Sb  Sb3  1  0.59725600  0.69694300  0.70157000  1
  Sb  Sb4  1  0.19694300  0.90274400  0.70157000  1
  Sb  Sb5  1  0.80305700  0.09725600  0.70157000  1
  Sb  Sb6  1  0.09725600  0.19694300  0.29843000  1
  Sb  Sb7  1  0.90274400  0.80305700  0.29843000  1
  Sb  Sb8  1  0.30305700  0.59725600  0.29843000  1
  Sb  Sb9  1  0.69694300  0.40274400  0.29843000  1
  O  O0  1  0.50000000  0.00000000  0.92380500  1
  O  O1  1  0.00000000  0.50000000  0.07619500  1
  O  O2  1  0.77716800  0.12228400  0.09395600  1
  O  O3  1  0.22283200  0.87771600  0.09395600  1
  O  O4  1  0.37771600  0.27716800  0.09395600  1
  O  O5  1  0.62228400  0.72283200  0.09395600  1
  O  O6  1  0.72283200  0.37771600  0.90604400  1
  O  O7  1  0.27716800  0.62228400  0.90604400  1
  O  O8  1  0.12228400  0.22283200  0.90604400  1
  O  O9  1  0.87771600  0.77716800  0.90604400  1
loop_
_geom_bond_atom_site_label_1
_geom_bond_atom_site_label_2
_geom_bond_distance
_geom_bond_site_symmetry_2
Ce0 O0 2.327478 1_555
Ce0 Sb3 3.258284 1_545
Ce0 Sb2 3.258284 1_555
Ce0 Sb5 3.258284 1_555
Ce0 Sb4 3.258284 1_545
Ce0 Sb0 3.325436 1_555
Ce1 O1 2.327478 1_555
Ce1 Sb9 3.258284 1_455
Ce1 Sb6 3.258284 1_555
Ce1 Sb7 3.258284 1_455
Ce1 Sb8 3.258284 1_555
Ce1 Sb1 3.325436 1_555
Ce2 O8 2.308915 1_555
Ce2 Sb1 3.222692 1_555
Ce2 Sb4 3.234723 1_545
Ce2 Sb2 3.240873 1_555
Ce2 Sb5 3.277757 1_455
Ce2 Sb6 3.286817 1_555
Ce3 O9 2.308915 1_555
Ce3 Sb1 3.222692 1_655
Ce3 Sb5 3.234723 1_565
Ce3 Sb3 3.240873 1_555
Ce3 Sb4 3.277757 1_655
Ce3 Sb7 3.286817 1_555
Ce4 O7 2.308915 1_555
Ce4 Sb1 3.222692 1_555
Ce4 Sb3 3.234723 1_555
Ce4 Sb4 3.240873 1_555
Ce4 Sb2 3.277757 1_555
Ce4 Sb8 3.286817 1_555
Ce5 O6 2.308915 1_555
Ce5 Sb1 3.222692 1_655
Ce5 Sb2 3.234723 1_555
Ce5 Sb5 3.240873 1_555
Ce5 Sb3 3.277757 1_555
Ce5 Sb9 3.286817 1_555
Ce6 O4 2.308915 1_555
Ce6 Sb0 3.222692 1_555
Ce6 Sb8 3.234723 1_555
Ce6 Sb6 3.240873 1_555
Ce6 Sb9 3.277757 1_555
Ce6 Sb2 3.286817 1_555
Ce7 O5 2.308915 1_555
Ce7 Sb0 3.222692 1_565
Ce7 Sb9 3.234723 1_555
Ce7 Sb7 3.240873 1_555
Ce7 Sb8 3.277757 1_555
Ce7 Sb3 3.286817 1_555
Ce8 O3 2.308915 1_555
Ce8 Sb0 3.222692 1_565
Ce8 Sb7 3.234723 1_455
Ce8 Sb8 3.240873 1_555
Ce8 Sb6 3.277757 1_565
Ce8 Sb4 3.286817 1_555
Ce9 O2 2.308915 1_555
Ce9 Sb0 3.222692 1_555
Ce9 Sb6 3.234723 1_655
Ce9 Sb9 3.240873 1_555
Ce9 Sb7 3.277757 1_545
Ce9 Sb5 3.286817 1_555
Ce10 O9 2.290241 1_554
Ce10 O2 2.295315 1_565
Ce10 O5 2.426022 1_555
Ce10 O0 2.551066 1_564
Ce10 Sb5 3.382556 1_564
Ce10 Sb7 3.478928 1_555
Ce11 O8 2.290241 1_554
Ce11 O3 2.295315 1_545
Ce11 O4 2.426022 1_555
Ce11 O0 2.551066 1_554
Ce11 Sb4 3.382556 1_544
Ce11 Sb6 3.478928 1_555
Ce12 O6 2.290241 1_554
Ce12 O4 2.295315 1_555
Ce12 O2 2.426022 1_555
Ce12 O0 2.551066 1_554
Ce12 Sb2 3.382556 1_554
Ce12 Sb9 3.478928 1_555
Ce13 O7 2.290241 1_554
Ce13 O5 2.295315 1_555
Ce13 O3 2.426022 1_555
Ce13 O0 2.551066 1_564
Ce13 Sb3 3.382556 1_554
Ce13 Sb8 3.478928 1_555
Ce14 O5 2.290241 1_556
Ce14 O6 2.295315 1_555
Ce14 O9 2.426022 1_555
Ce14 O1 2.551066 1_656
Ce14 Sb9 3.382556 1_556
Ce14 Sb3 3.478928 1_555
Ce15 O4 2.290241 1_556
Ce15 O7 2.295315 1_555
Ce15 O8 2.426022 1_555
Ce15 O1 2.551066 1_556
Ce15 Sb8 3.382556 1_556
Ce15 Sb2 3.478928 1_555
Ce16 O2 2.290241 1_556
Ce16 O8 2.295315 1_655
Ce16 O6 2.426022 1_555
Ce16 O1 2.551066 1_656
Ce16 Sb6 3.382556 1_656
Ce16 Sb5 3.478928 1_555
Ce17 O3 2.290241 1_556
Ce17 O9 2.295315 1_455
Ce17 O7 2.426022 1_555
Ce17 O1 2.551066 1_556
Ce17 Sb7 3.382556 1_456
Ce17 Sb4 3.478928 1_555
