# generated using pymatgen
data_Ca(SbO2)2
_symmetry_space_group_name_H-M   'P 1'
_cell_length_a   3.23296900
_cell_length_b   10.01610700
_cell_length_c   13.53550600
_cell_angle_alpha   90.00000000
_cell_angle_beta   90.00000000
_cell_angle_gamma   90.00000000
_symmetry_Int_Tables_number   1
_chemical_formula_structural   Ca(SbO2)2
_chemical_formula_sum   'Ca4 Sb8 O16'
_cell_volume   438.30355322
_cell_formula_units_Z   4
loop_
 _symmetry_equiv_pos_site_id
 _symmetry_equiv_pos_as_xyz
  1  'x, y, z'
loop_
 _atom_site_type_symbol
 _atom_site_label
 _atom_site_symmetry_multiplicity
 _atom_site_fract_x
 _atom_site_fract_y
 _atom_site_fract_z
 _atom_site_occupancy
  Ca  Ca0  1  0.75000000  0.73738300  0.85425900  1
  Ca  Ca1  1  0.25000000  0.26261700  0.14574100  1
  Ca  Ca2  1  0.75000000  0.23738300  0.64574100  1
  Ca  Ca3  1  0.25000000  0.76261700  0.35425900  1
  Sb  Sb0  1  0.25000000  0.91798500  0.60679100  1
  Sb  Sb1  1  0.75000000  0.58201500  0.10679100  1
  Sb  Sb2  1  0.25000000  0.41798500  0.89320900  1
  Sb  Sb3  1  0.75000000  0.08201500  0.39320900  1
  Sb  Sb4  1  0.75000000  0.06675600  0.85161200  1
  Sb  Sb5  1  0.25000000  0.93324400  0.14838800  1
  Sb  Sb6  1  0.75000000  0.56675600  0.64838800  1
  Sb  Sb7  1  0.25000000  0.43324400  0.35161200  1
  O  O0  1  0.25000000  0.41881700  0.62994500  1
  O  O1  1  0.75000000  0.58118300  0.37005500  1
  O  O2  1  0.25000000  0.91881700  0.87005500  1
  O  O3  1  0.75000000  0.08118300  0.12994500  1
  O  O4  1  0.25000000  0.53362200  0.20218100  1
  O  O5  1  0.75000000  0.46637800  0.79781900  1
  O  O6  1  0.25000000  0.03362200  0.29781900  1
  O  O7  1  0.75000000  0.96637800  0.70218100  1
  O  O8  1  0.25000000  0.10441300  0.55446200  1
  O  O9  1  0.75000000  0.89558700  0.44553800  1
  O  O10  1  0.25000000  0.60441300  0.94553800  1
  O  O11  1  0.75000000  0.39558700  0.05446200  1
  O  O12  1  0.75000000  0.32830000  0.26952600  1
  O  O13  1  0.25000000  0.67170000  0.73047400  1
  O  O14  1  0.25000000  0.17170000  0.76952600  1
  O  O15  1  0.75000000  0.82830000  0.23047400  1
loop_
_geom_bond_atom_site_label_1
_geom_bond_atom_site_label_2
_geom_bond_distance
_geom_bond_site_symmetry_2
Ca0 O13 2.419321 1_555
Ca0 O13 2.419321 1_655
Ca0 O10 2.431728 1_655
Ca0 O10 2.431728 1_555
Ca0 O2 2.441552 1_555
Ca0 O2 2.441552 1_655
Ca1 O12 2.419321 1_555
Ca1 O12 2.419321 1_455
Ca1 O11 2.431728 1_455
Ca1 O11 2.431728 1_555
Ca1 O3 2.441552 1_455
Ca1 O3 2.441552 1_555
Ca2 O14 2.419321 1_655
Ca2 O14 2.419321 1_555
Ca2 O8 2.431728 1_555
Ca2 O8 2.431728 1_655
Ca2 O0 2.441552 1_655
Ca2 O0 2.441552 1_555
Ca3 O15 2.419321 1_455
Ca3 O15 2.419321 1_555
Ca3 O9 2.431728 1_455
Ca3 O9 2.431728 1_555
Ca3 O1 2.441552 1_555
Ca3 O1 2.441552 1_455
O0 Sb6 2.207032 1_555
O0 Sb6 2.207032 1_455
O1 Sb7 2.207032 1_555
O1 Sb7 2.207032 1_655
O2 Sb4 2.207032 1_465
O2 Sb4 2.207032 1_565
O3 Sb5 2.207032 1_545
O3 Sb5 2.207032 1_645
O4 Sb1 2.124862 1_555
O4 Sb1 2.124862 1_455
O4 Sb7 2.258723 1_555
O5 Sb2 2.124862 1_555
O5 Sb2 2.124862 1_655
O5 Sb6 2.258723 1_555
O6 Sb3 2.124862 1_555
O6 Sb3 2.124862 1_455
O6 Sb5 2.258723 1_545
O7 Sb0 2.124862 1_655
O7 Sb0 2.124862 1_555
O7 Sb4 2.258723 1_565
O8 Sb0 1.997106 1_545
O9 Sb3 1.997106 1_565
O10 Sb2 1.997106 1_555
O11 Sb1 1.997106 1_555
O12 Sb7 2.225396 1_555
O12 Sb7 2.225396 1_655
O13 Sb6 2.225396 1_455
O13 Sb6 2.225396 1_555
O14 Sb4 2.225396 1_455
O14 Sb4 2.225396 1_555
O15 Sb5 2.225396 1_555
O15 Sb5 2.225396 1_655
