# generated using pymatgen
data_Te4Mo3W(SeS)2
_symmetry_space_group_name_H-M   'P 1'
_cell_length_a   3.39981821
_cell_length_b   3.39981821
_cell_length_c   38.76360600
_cell_angle_alpha   90.00000000
_cell_angle_beta   90.00000000
_cell_angle_gamma   120.00000411
_symmetry_Int_Tables_number   1
_chemical_formula_structural   Te4Mo3W(SeS)2
_chemical_formula_sum   'Te4 Mo3 W1 Se2 S2'
_cell_volume   388.03077942
_cell_formula_units_Z   1
loop_
 _symmetry_equiv_pos_site_id
 _symmetry_equiv_pos_as_xyz
  1  'x, y, z'
loop_
 _atom_site_type_symbol
 _atom_site_label
 _atom_site_symmetry_multiplicity
 _atom_site_fract_x
 _atom_site_fract_y
 _atom_site_fract_z
 _atom_site_occupancy
  Te  Te0  1  0.00000000  0.00000000  0.70589600  1
  Te  Te1  1  0.33333300  0.66666700  0.42099900  1
  Te  Te2  1  0.33333300  0.66666700  0.51811400  1
  Te  Te3  1  0.00000000  0.00000000  0.60932400  1
  Mo  Mo0  1  0.00000000  0.00000000  0.09393700  1
  Mo  Mo1  1  0.33333300  0.66666700  0.28182200  1
  Mo  Mo2  1  0.33333300  0.66666700  0.65765000  1
  W  W0  1  0.00000000  0.00000000  0.46957000  1
  Se  Se0  1  0.33333300  0.66666700  0.05134800  1
  Se  Se1  1  0.33333300  0.66666700  0.13650200  1
  S  S0  1  0.00000000  0.00000000  0.32053700  1
  S  S1  1  0.00000000  0.00000000  0.24305000  1
loop_
_geom_bond_atom_site_label_1
_geom_bond_atom_site_label_2
_geom_bond_distance
_geom_bond_site_symmetry_2
Te1 W0 2.719890 1_565
Te1 W0 2.719892 1_665
Te1 W0 2.719892 1_555
Te2 W0 2.719165 1_565
Te2 W0 2.719168 1_665
Te2 W0 2.719168 1_555
Mo0 Se1 2.564240 1_545
Mo0 Se1 2.564242 1_555
Mo0 Se1 2.564242 1_445
Mo0 Se0 2.564838 1_545
Mo0 Se0 2.564840 1_445
Mo0 Se0 2.564840 1_555
Mo1 S0 2.470853 1_565
Mo1 S0 2.470855 1_555
Mo1 S0 2.470855 1_665
Mo1 S1 2.472195 1_565
Mo1 S1 2.472198 1_665
Mo1 S1 2.472198 1_555
Mo2 Te0 2.711184 1_565
Mo2 Te0 2.711186 1_665
Mo2 Te0 2.711186 1_555
Mo2 Te3 2.713324 1_565
Mo2 Te3 2.713326 1_555
Mo2 Te3 2.713326 1_665
