# generated using pymatgen
data_Mn3ZnO10
_symmetry_space_group_name_H-M   'P 1'
_cell_length_a   7.73996800
_cell_length_b   7.74133506
_cell_length_c   8.50748825
_cell_angle_alpha   66.77336511
_cell_angle_beta   65.63298660
_cell_angle_gamma   60.23567054
_symmetry_Int_Tables_number   1
_chemical_formula_structural   Mn3ZnO10
_chemical_formula_sum   'Mn6 Zn2 O20'
_cell_volume   391.33076885
_cell_formula_units_Z   2
loop_
 _symmetry_equiv_pos_site_id
 _symmetry_equiv_pos_as_xyz
  1  'x, y, z'
loop_
 _atom_site_type_symbol
 _atom_site_label
 _atom_site_symmetry_multiplicity
 _atom_site_fract_x
 _atom_site_fract_y
 _atom_site_fract_z
 _atom_site_occupancy
  Mn  Mn0  1  0.28531900  0.14238500  0.99867000  1
  Mn  Mn1  1  0.71468100  0.85761500  0.00133000  1
  Mn  Mn2  1  0.57369800  0.28662700  0.99605500  1
  Mn  Mn3  1  0.42630200  0.71337300  0.00394500  1
  Mn  Mn4  1  0.85799400  0.42953000  0.99650700  1
  Mn  Mn5  1  0.14200600  0.57047000  0.00349300  1
  Zn  Zn0  1  0.93945600  0.93860000  0.20499000  1
  Zn  Zn1  1  0.06054400  0.06140000  0.79501000  1
  O  O0  1  0.43224000  0.86982300  0.13056100  1
  O  O1  1  0.56776000  0.13017700  0.86943900  1
  O  O2  1  0.00716200  0.17086800  0.13632800  1
  O  O3  1  0.99283800  0.82913200  0.86367200  1
  O  O4  1  0.69711500  0.01741000  0.13742300  1
  O  O5  1  0.30288500  0.98259000  0.86257700  1
  O  O6  1  0.29544600  0.29583900  0.12608700  1
  O  O7  1  0.70455400  0.70416100  0.87391300  1
  O  O8  1  0.58336900  0.43723600  0.12692800  1
  O  O9  1  0.41663100  0.56276400  0.87307200  1
  O  O10  1  0.86227000  0.58483200  0.12981500  1
  O  O11  1  0.13773000  0.41516800  0.87018500  1
  O  O12  1  0.16544400  0.69136400  0.15003100  1
  O  O13  1  0.83455600  0.30863600  0.84996900  1
  O  O14  1  0.71204700  0.73665700  0.49387200  1
  O  O15  1  0.28795300  0.26334300  0.50612800  1
  O  O16  1  0.99194400  0.92539200  0.49905200  1
  O  O17  1  0.00805600  0.07460800  0.50094800  1
  O  O18  1  0.52689100  0.85098300  0.51561000  1
  O  O19  1  0.47310900  0.14901700  0.48439000  1
loop_
_geom_bond_atom_site_label_1
_geom_bond_atom_site_label_2
_geom_bond_distance
_geom_bond_site_symmetry_2
Mn0 O2 1.925377 1_556
Mn0 O5 1.929255 1_545
Mn0 O6 1.941812 1_556
Mn0 O11 1.942607 1_555
Mn0 O0 1.951268 1_546
Mn0 O1 1.972370 1_555
Mn1 O3 1.925377 1_554
Mn1 O4 1.929255 1_565
Mn1 O7 1.941812 1_554
Mn1 O10 1.942607 1_555
Mn1 O1 1.951268 1_564
Mn1 O0 1.972370 1_555
Mn2 O4 1.922706 1_556
Mn2 O13 1.937547 1_555
Mn2 O1 1.937626 1_555
Mn2 O8 1.945232 1_556
Mn2 O6 1.952161 1_556
Mn2 O9 1.961504 1_555
Mn3 O5 1.922706 1_554
Mn3 O12 1.937547 1_555
Mn3 O0 1.937626 1_555
Mn3 O9 1.945232 1_554
Mn3 O7 1.952161 1_554
Mn3 O8 1.961504 1_555
Mn4 O2 1.927878 1_656
Mn4 O8 1.932098 1_556
Mn4 O13 1.933494 1_555
Mn4 O7 1.945360 1_555
Mn4 O11 1.946891 1_655
Mn4 O10 1.969421 1_556
Mn5 O3 1.927878 1_454
Mn5 O9 1.932098 1_554
Mn5 O12 1.933494 1_555
Mn5 O6 1.945360 1_555
Mn5 O10 1.946891 1_455
Mn5 O11 1.969421 1_554
O2 Zn0 1.924420 1_445
O3 Zn1 1.924420 1_665
O4 Zn0 1.922971 1_545
O5 Zn1 1.922971 1_565
O12 Zn0 1.910074 1_455
O13 Zn1 1.910074 1_655
O14 O18 1.233845 1_555
O15 O19 1.233845 1_555
O16 O17 1.228625 1_665
