# generated using pymatgen
data_Mg6VCr
_symmetry_space_group_name_H-M   'P 1'
_cell_length_a   4.99580000
_cell_length_b   6.19732800
_cell_length_c   10.67269100
_cell_angle_alpha   90.00000000
_cell_angle_beta   90.00000000
_cell_angle_gamma   90.00000000
_symmetry_Int_Tables_number   1
_chemical_formula_structural   Mg6VCr
_chemical_formula_sum   'Mg12 V2 Cr2'
_cell_volume   330.43303675
_cell_formula_units_Z   2
loop_
 _symmetry_equiv_pos_site_id
 _symmetry_equiv_pos_as_xyz
  1  'x, y, z'
loop_
 _atom_site_type_symbol
 _atom_site_label
 _atom_site_symmetry_multiplicity
 _atom_site_fract_x
 _atom_site_fract_y
 _atom_site_fract_z
 _atom_site_occupancy
  Mg  Mg0  1  0.00000000  0.75937600  0.58559700  1
  Mg  Mg1  1  0.00000000  0.24062400  0.58559700  1
  Mg  Mg2  1  0.00000000  0.00000000  0.33465900  1
  Mg  Mg3  1  0.50000000  0.74012600  0.41346800  1
  Mg  Mg4  1  0.50000000  0.25987400  0.41346800  1
  Mg  Mg5  1  0.50000000  0.00000000  0.16549200  1
  Mg  Mg6  1  0.00000000  0.25937600  0.08559700  1
  Mg  Mg7  1  0.00000000  0.74062400  0.08559700  1
  Mg  Mg8  1  0.00000000  0.50000000  0.83465900  1
  Mg  Mg9  1  0.50000000  0.24012600  0.91346800  1
  Mg  Mg10  1  0.50000000  0.75987400  0.91346800  1
  Mg  Mg11  1  0.50000000  0.50000000  0.66549200  1
  V  V0  1  0.00000000  0.00000000  0.83568300  1
  V  V1  1  0.00000000  0.50000000  0.33568300  1
  Cr  Cr0  1  0.50000000  0.00000000  0.66603500  1
  Cr  Cr1  1  0.50000000  0.50000000  0.16603500  1
loop_
_geom_bond_atom_site_label_1
_geom_bond_atom_site_label_2
_geom_bond_distance
_geom_bond_site_symmetry_2
Mg0 Mg1 2.982452 1_565
Mg0 V0 3.057417 1_565
Mg0 Mg2 3.065358 1_565
Mg0 Mg11 3.090380 1_455
Mg0 Mg11 3.090380 1_555
Mg0 Mg3 3.102998 1_555
Mg0 Mg3 3.102998 1_455
Mg0 Mg8 3.106394 1_555
Mg0 V1 3.114178 1_555
Mg0 Mg1 3.214876 1_555
Mg1 V0 3.057417 1_555
Mg1 Mg2 3.065358 1_555
Mg1 Mg11 3.090380 1_555
Mg1 Mg11 3.090380 1_455
Mg1 Mg4 3.102998 1_555
Mg1 Mg4 3.102998 1_455
Mg1 Mg8 3.106394 1_555
Mg1 V1 3.114178 1_555
Mg2 Mg5 3.082080 1_555
Mg2 Mg5 3.082080 1_455
Mg2 Mg4 3.088810 1_455
Mg2 Mg4 3.088810 1_555
Mg2 Mg3 3.088810 1_545
Mg2 Mg3 3.088810 1_445
Mg2 V1 3.098683 1_545
Mg2 V1 3.098683 1_555
Mg2 Mg6 3.106394 1_555
Mg2 Mg7 3.106394 1_545
Mg3 Mg4 2.976279 1_555
Mg3 V1 3.023782 1_555
Mg3 V1 3.023782 1_655
Mg3 Mg5 3.098085 1_565
Mg3 Mg4 3.221049 1_565
Mg4 V1 3.023782 1_555
Mg4 V1 3.023782 1_655
Mg4 Mg5 3.098085 1_555
Mg5 Mg9 3.073995 1_554
Mg5 Mg6 3.090380 1_655
Mg5 Mg6 3.090380 1_555
Mg5 Mg7 3.090380 1_645
Mg5 Mg7 3.090380 1_545
Mg6 Mg7 2.982452 1_555
Mg6 V1 3.057417 1_555
Mg6 Mg8 3.065358 1_554
Mg6 Mg9 3.102998 1_554
Mg6 Mg9 3.102998 1_454
Mg6 V0 3.114178 1_554
Mg6 Mg7 3.214876 1_545
Mg7 V1 3.057417 1_555
Mg7 Mg8 3.065358 1_554
Mg7 V0 3.114178 1_564
Mg8 Mg9 3.088810 1_455
Mg8 Mg9 3.088810 1_555
Mg8 V0 3.098683 1_555
Mg8 V0 3.098683 1_565
Mg9 V0 3.023782 1_655
Mg9 V0 3.023782 1_555
Mg10 Mg9 2.976279 1_565
Mg10 V0 3.023782 1_565
Mg10 V0 3.023782 1_665
Mg10 Mg5 3.073995 1_566
Mg10 Mg8 3.088810 1_655
Mg10 Mg8 3.088810 1_555
Mg10 Mg11 3.098085 1_555
Mg10 Mg7 3.102998 1_556
Mg10 Mg7 3.102998 1_656
Mg10 Mg9 3.221049 1_555
Mg11 Mg4 3.073995 1_555
Mg11 Mg3 3.073995 1_555
Mg11 Mg8 3.082080 1_555
Mg11 Mg8 3.082080 1_655
Mg11 Mg9 3.098085 1_555
Cr0 Mg9 3.031214 1_555
Cr0 Mg10 3.031214 1_545
Cr0 Mg1 3.033194 1_555
Cr0 Mg1 3.033194 1_655
Cr0 Mg0 3.033194 1_645
Cr0 Mg0 3.033194 1_545
Cr0 V0 3.085090 1_655
Cr0 V0 3.085090 1_555
Cr0 Mg11 3.098669 1_545
Cr0 Mg11 3.098669 1_555
Cr0 Mg3 3.140045 1_545
Cr0 Mg4 3.140045 1_555
Cr1 Mg4 3.031214 1_555
Cr1 Mg3 3.031214 1_555
Cr1 Mg6 3.033194 1_555
Cr1 Mg6 3.033194 1_655
Cr1 Mg7 3.033194 1_555
Cr1 Mg7 3.033194 1_655
Cr1 V1 3.085090 1_655
Cr1 V1 3.085090 1_555
Cr1 Mg5 3.098669 1_565
Cr1 Mg5 3.098669 1_555
Cr1 Mg10 3.140045 1_554
Cr1 Mg9 3.140045 1_554
