# generated using pymatgen
data_Ca2Ta2CrO8
_symmetry_space_group_name_H-M   'P 1'
_cell_length_a   5.43336890
_cell_length_b   10.39357823
_cell_length_c   13.11403666
_cell_angle_alpha   112.36772498
_cell_angle_beta   88.06335802
_cell_angle_gamma   92.69853704
_symmetry_Int_Tables_number   1
_chemical_formula_structural   Ca2Ta2CrO8
_chemical_formula_sum   'Ca8 Ta8 Cr4 O32'
_cell_volume   683.99659008
_cell_formula_units_Z   4
loop_
 _symmetry_equiv_pos_site_id
 _symmetry_equiv_pos_as_xyz
  1  'x, y, z'
loop_
 _atom_site_type_symbol
 _atom_site_label
 _atom_site_symmetry_multiplicity
 _atom_site_fract_x
 _atom_site_fract_y
 _atom_site_fract_z
 _atom_site_occupancy
  Ca  Ca0  1  0.75520000  0.58390100  0.56349400  1
  Ca  Ca1  1  0.75516300  0.58386600  0.06351100  1
  Ca  Ca2  1  0.24796000  0.41712600  0.43587000  1
  Ca  Ca3  1  0.24797700  0.41705500  0.93585700  1
  Ca  Ca4  1  0.74590600  0.42302400  0.27209600  1
  Ca  Ca5  1  0.74591200  0.42296700  0.77205800  1
  Ca  Ca6  1  0.25715100  0.57806600  0.72756000  1
  Ca  Ca7  1  0.25716600  0.57811400  0.22761900  1
  Ta  Ta0  1  0.75040000  0.23122600  0.47719100  1
  Ta  Ta1  1  0.75043000  0.23122800  0.97723000  1
  Ta  Ta2  1  0.25357100  0.76979700  0.52267100  1
  Ta  Ta3  1  0.25334700  0.76969700  0.02259500  1
  Ta  Ta4  1  0.76175900  0.77009700  0.87959000  1
  Ta  Ta5  1  0.76176100  0.77012300  0.37957700  1
  Ta  Ta6  1  0.24194600  0.23057300  0.11992200  1
  Ta  Ta7  1  0.24203200  0.23060000  0.61987000  1
  Cr  Cr0  1  0.74549200  0.00468900  0.17787200  1
  Cr  Cr1  1  0.26039900  0.99550200  0.82232200  1
  Cr  Cr2  1  0.74602500  0.00465600  0.67777600  1
  Cr  Cr3  1  0.25987800  0.99567200  0.32183000  1
  O  O0  1  0.08728100  0.14778800  0.46107100  1
  O  O1  1  0.08732800  0.14778300  0.96116400  1
  O  O2  1  0.91670400  0.85292100  0.53850200  1
  O  O3  1  0.91652800  0.85292900  0.03855700  1
  O  O4  1  0.43502900  0.85429100  0.92155900  1
  O  O5  1  0.43510900  0.85428500  0.42158900  1
  O  O6  1  0.56864300  0.14661700  0.07813500  1
  O  O7  1  0.56871600  0.14664500  0.57810500  1
  O  O8  1  0.59698900  0.11176600  0.34332400  1
  O  O9  1  0.59729300  0.11167800  0.84335100  1
  O  O10  1  0.40820700  0.88848300  0.65632600  1
  O  O11  1  0.40792000  0.88849300  0.15629400  1
  O  O12  1  0.94909800  0.87383400  0.81531300  1
  O  O13  1  0.94892000  0.87388600  0.31524700  1
  O  O14  1  0.05599100  0.12652700  0.18440300  1
  O  O15  1  0.05614400  0.12659000  0.68435500  1
  O  O16  1  0.48530400  0.36924000  0.55357300  1
  O  O17  1  0.48531500  0.36922900  0.05359100  1
  O  O18  1  0.51764500  0.63141600  0.44572400  1
  O  O19  1  0.51765300  0.63143400  0.94573500  1
  O  O20  1  0.02079600  0.63381300  0.38165000  1
  O  O21  1  0.02086400  0.63378100  0.88163400  1
  O  O22  1  0.98193200  0.36671000  0.61791700  1
  O  O23  1  0.98193600  0.36670600  0.11794900  1
  O  O24  1  0.33791000  0.37440400  0.25864200  1
  O  O25  1  0.33792100  0.37439800  0.75861700  1
  O  O26  1  0.66526600  0.62668700  0.74081200  1
  O  O27  1  0.66525200  0.62669500  0.24080600  1
  O  O28  1  0.16104800  0.62947400  0.58244200  1
  O  O29  1  0.16105800  0.62946000  0.08243800  1
  O  O30  1  0.84214800  0.37135300  0.41711100  1
  O  O31  1  0.84216500  0.37133800  0.91711200  1
loop_
_geom_bond_atom_site_label_1
_geom_bond_atom_site_label_2
_geom_bond_distance
_geom_bond_site_symmetry_2
Ca0 O28 2.235569 1_655
Ca0 O26 2.236164 1_555
Ca0 O18 2.251758 1_555
Ca0 O30 2.365987 1_555
Ca0 O16 2.574697 1_555
Ca1 O27 2.235768 1_555
Ca1 O29 2.235829 1_655
Ca1 O19 2.251952 1_554
Ca1 O31 2.366013 1_554
Ca1 O17 2.574358 1_555
Ca2 O24 2.235175 1_555
Ca2 O30 2.235478 1_455
Ca2 O16 2.252329 1_555
Ca2 O28 2.365742 1_555
Ca2 O18 2.571154 1_555
Ca3 O31 2.235395 1_455
Ca3 O25 2.235446 1_555
Ca3 O17 2.252313 1_556
Ca3 O29 2.366179 1_556
Ca3 O19 2.571805 1_555
Ca4 O30 2.247093 1_555
Ca4 O24 2.248056 1_555
Ca4 O23 2.251350 1_555
Ca4 O27 2.366892 1_555
Ca4 O20 2.556559 1_655
Ca4 O18 2.778944 1_555
Ca5 O31 2.247344 1_555
Ca5 O25 2.247947 1_555
Ca5 O22 2.251293 1_555
Ca5 O26 2.367075 1_555
Ca5 O21 2.556982 1_655
Ca5 O19 2.779646 1_555
Ca6 O28 2.246602 1_555
Ca6 O26 2.248622 1_555
Ca6 O21 2.251726 1_555
Ca6 O25 2.365421 1_555
Ca6 O22 2.561493 1_455
Ca6 O16 2.783273 1_555
Ca7 O29 2.247023 1_555
Ca7 O27 2.248385 1_555
Ca7 O20 2.251544 1_555
Ca7 O24 2.365580 1_555
Ca7 O23 2.561950 1_455
Ca7 O17 2.783836 1_555
Cr0 O14 2.045274 1_655
Cr0 O11 2.114028 1_545
Cr0 O3 2.125889 1_545
Cr0 O8 2.173886 1_555
Cr0 O6 2.548916 1_555
Cr1 O12 2.046727 1_455
Cr1 O9 2.111218 1_565
Cr1 O1 2.129708 1_565
Cr1 O10 2.178084 1_555
Cr1 O4 2.533050 1_555
Cr2 O15 2.044088 1_655
Cr2 O10 2.115134 1_545
Cr2 O2 2.124615 1_545
Cr2 O9 2.175526 1_555
Cr2 O7 2.549827 1_555
Cr3 O13 2.046845 1_455
Cr3 O8 2.111462 1_565
Cr3 O0 2.130729 1_565
Cr3 O11 2.174011 1_555
Cr3 O5 2.540983 1_555
O0 Ta0 2.032462 1_455
O0 Ta7 2.114374 1_555
O1 Ta1 2.032641 1_455
O1 Ta6 2.113620 1_556
O2 Ta2 2.031331 1_655
O2 Ta5 2.116196 1_555
O3 Ta3 2.031419 1_655
O3 Ta4 2.116276 1_554
O4 Ta4 1.983393 1_555
O4 Ta3 2.054176 1_556
O5 Ta5 1.982928 1_555
O5 Ta2 2.053594 1_555
O6 Ta6 1.982108 1_555
O6 Ta1 2.053182 1_554
O7 Ta7 1.982018 1_555
O7 Ta0 2.052827 1_555
O8 Ta0 1.913319 1_555
O9 Ta1 1.913039 1_555
O10 Ta2 1.912096 1_555
O11 Ta3 1.912657 1_555
O12 Ta4 1.854594 1_555
O13 Ta5 1.854753 1_555
O14 Ta6 1.854909 1_555
O15 Ta7 1.854487 1_555
O16 Ta0 2.034483 1_555
O16 Ta7 2.296930 1_555
O17 Ta1 2.034428 1_554
O17 Ta6 2.297601 1_555
O18 Ta2 2.034063 1_555
O18 Ta5 2.298722 1_555
O19 Ta3 2.034066 1_556
O19 Ta4 2.298337 1_555
O20 Ta5 2.051448 1_455
O20 Ta2 2.240023 1_555
O21 Ta4 2.051653 1_455
O21 Ta3 2.238450 1_556
O22 Ta7 2.053633 1_655
O22 Ta0 2.232378 1_555
O23 Ta6 2.053533 1_655
O23 Ta1 2.232225 1_554
O24 Ta6 1.933119 1_555
O25 Ta7 1.933105 1_555
O26 Ta4 1.932626 1_555
O27 Ta5 1.932664 1_555
O28 Ta2 1.941298 1_555
O29 Ta3 1.940877 1_555
O30 Ta0 1.941363 1_555
O31 Ta1 1.941531 1_555
