# generated using pymatgen
data_Sr2MgTi6N2O11
_symmetry_space_group_name_H-M   'P 1'
_cell_length_a   3.91784102
_cell_length_b   7.82172105
_cell_length_c   9.41589918
_cell_angle_alpha   84.55063277
_cell_angle_beta   89.99770570
_cell_angle_gamma   75.48440346
_symmetry_Int_Tables_number   1
_chemical_formula_structural   Sr2MgTi6N2O11
_chemical_formula_sum   'Sr2 Mg1 Ti6 N2 O11'
_cell_volume   277.98581124
_cell_formula_units_Z   1
loop_
 _symmetry_equiv_pos_site_id
 _symmetry_equiv_pos_as_xyz
  1  'x, y, z'
loop_
 _atom_site_type_symbol
 _atom_site_label
 _atom_site_symmetry_multiplicity
 _atom_site_fract_x
 _atom_site_fract_y
 _atom_site_fract_z
 _atom_site_occupancy
  Sr  Sr0  1  0.52722200  0.94264200  0.73306600  1
  Sr  Sr1  1  0.44198200  0.11262800  0.22956500  1
  Mg  Mg0  1  0.71103400  0.57393700  0.96324800  1
  Ti  Ti0  1  0.12015100  0.75579300  0.11744500  1
  Ti  Ti1  1  0.16501000  0.66651500  0.42568600  1
  Ti  Ti2  1  0.24011200  0.51618100  0.74398400  1
  Ti  Ti3  1  0.76443800  0.46776700  0.25467800  1
  Ti  Ti4  1  0.82512600  0.34649000  0.57212200  1
  Ti  Ti5  1  0.88894900  0.21898600  0.91698800  1
  N  N0  1  0.23053200  0.53550400  0.25009400  1
  N  N1  1  0.83163600  0.33348200  0.08626400  1
  O  O0  1  0.05949700  0.87707700  0.30050600  1
  O  O1  1  0.12933600  0.73772700  0.63282600  1
  O  O2  1  0.17778400  0.64049900  0.92847200  1
  O  O3  1  0.62520100  0.74584200  0.11311800  1
  O  O4  1  0.68974500  0.61697500  0.44448700  1
  O  O5  1  0.75683300  0.48272400  0.76733600  1
  O  O6  1  0.29865000  0.39942900  0.55591500  1
  O  O7  1  0.37175300  0.25331300  0.86452200  1
  O  O8  1  0.86848000  0.26017100  0.38100500  1
  O  O9  1  0.93056800  0.13584000  0.68207500  1
  O  O10  1  0.00328700  0.99048900  0.99129500  1
loop_
_geom_bond_atom_site_label_1
_geom_bond_atom_site_label_2
_geom_bond_distance
_geom_bond_site_symmetry_2
Mg0 O3 2.011485 1_556
Mg0 O5 2.032200 1_555
Mg0 O2 2.040935 1_555
Mg0 O2 2.041340 1_655
Mg0 N1 2.059862 1_556
N0 Ti0 1.983348 1_555
N0 Ti1 2.009839 1_555
N0 Ti3 2.024300 1_455
N0 Ti3 2.024386 1_555
N0 Sr1 3.226737 1_555
N1 Ti5 1.887641 1_554
N1 Ti3 1.965932 1_555
N1 Sr1 2.830127 1_655
N1 Sr1 2.830963 1_555
O0 Ti1 1.887510 1_555
O0 Ti0 2.031016 1_555
O0 Sr1 2.688078 1_465
O0 Sr1 2.690055 1_565
O1 Ti2 1.888182 1_555
O1 Ti1 2.073927 1_555
O1 Sr0 2.723308 1_455
O1 Sr0 2.725752 1_555
O2 Ti2 2.055359 1_555
O2 Ti0 2.057419 1_556
O3 Ti0 1.960671 1_655
O3 Ti0 1.961221 1_555
O3 Ti3 2.378996 1_555
O3 Sr1 3.084333 1_565
O4 Ti1 1.998896 1_555
O4 Ti1 1.999301 1_655
O4 Ti3 2.206072 1_555
O4 Ti4 2.270741 1_555
O5 Ti2 1.984612 1_555
O5 Ti2 1.984755 1_655
O5 Ti4 2.194261 1_555
O5 Ti5 2.328454 1_555
O6 Ti4 2.002285 1_555
O6 Ti4 2.002383 1_455
O6 Ti2 2.055366 1_555
O6 Ti1 2.259908 1_555
O7 Ti5 2.030621 1_455
O7 Ti5 2.030803 1_555
O7 Ti2 2.192458 1_555
O7 Sr0 2.763542 1_545
O8 Ti3 1.875905 1_555
O8 Ti4 1.973901 1_555
O8 Sr1 2.725086 1_655
O8 Sr1 2.727013 1_555
O9 Ti4 1.814413 1_555
O9 Ti5 2.358420 1_555
O9 Sr0 2.463725 1_645
O9 Sr0 2.463826 1_545
O10 Ti5 1.801558 1_465
O10 Ti0 2.038381 1_556
O10 Sr1 3.182865 1_566
O10 Sr1 3.183658 1_466
