# generated using pymatgen
data_HfMg6Ti
_symmetry_space_group_name_H-M   'P 1'
_cell_length_a   4.97155300
_cell_length_b   6.26562100
_cell_length_c   11.20267600
_cell_angle_alpha   90.00000000
_cell_angle_beta   90.00000000
_cell_angle_gamma   90.00000000
_symmetry_Int_Tables_number   1
_chemical_formula_structural   HfMg6Ti
_chemical_formula_sum   'Hf2 Mg12 Ti2'
_cell_volume   348.96186609
_cell_formula_units_Z   2
loop_
 _symmetry_equiv_pos_site_id
 _symmetry_equiv_pos_as_xyz
  1  'x, y, z'
loop_
 _atom_site_type_symbol
 _atom_site_label
 _atom_site_symmetry_multiplicity
 _atom_site_fract_x
 _atom_site_fract_y
 _atom_site_fract_z
 _atom_site_occupancy
  Hf  Hf0  1  0.50000000  0.50000000  0.17999500  1
  Hf  Hf1  1  0.50000000  0.00000000  0.67999500  1
  Mg  Mg0  1  0.00000000  0.74336000  0.08054900  1
  Mg  Mg1  1  0.00000000  0.25664000  0.08054900  1
  Mg  Mg2  1  0.00000000  0.00000000  0.33207100  1
  Mg  Mg3  1  0.50000000  0.25865300  0.42070600  1
  Mg  Mg4  1  0.50000000  0.74134700  0.42070600  1
  Mg  Mg5  1  0.50000000  0.00000000  0.16687800  1
  Mg  Mg6  1  0.00000000  0.24336000  0.58054900  1
  Mg  Mg7  1  0.00000000  0.75664000  0.58054900  1
  Mg  Mg8  1  0.00000000  0.50000000  0.83207100  1
  Mg  Mg9  1  0.50000000  0.75865300  0.92070600  1
  Mg  Mg10  1  0.50000000  0.24134700  0.92070600  1
  Mg  Mg11  1  0.50000000  0.50000000  0.66687800  1
  Ti  Ti0  1  0.00000000  0.50000000  0.31854400  1
  Ti  Ti1  1  0.00000000  0.00000000  0.81854400  1
loop_
_geom_bond_atom_site_label_1
_geom_bond_atom_site_label_2
_geom_bond_distance
_geom_bond_site_symmetry_2
Hf0 Ti0 2.930556 1_555
Hf0 Ti0 2.930556 1_655
Hf0 Mg4 3.091667 1_555
Hf0 Mg3 3.091667 1_555
Hf0 Mg0 3.121736 1_655
Hf0 Mg1 3.121736 1_555
Hf0 Mg1 3.121736 1_655
Hf0 Mg0 3.121736 1_555
Hf0 Mg5 3.136255 1_565
Hf0 Mg5 3.136255 1_555
Hf0 Mg9 3.326240 1_554
Hf0 Mg10 3.326240 1_554
Hf1 Ti1 2.930556 1_655
Hf1 Ti1 2.930556 1_555
Hf1 Mg10 3.091667 1_555
Hf1 Mg9 3.091667 1_545
Hf1 Mg7 3.121736 1_545
Hf1 Mg6 3.121736 1_655
Hf1 Mg6 3.121736 1_555
Hf1 Mg7 3.121736 1_645
Hf1 Mg11 3.136255 1_555
Hf1 Mg11 3.136255 1_545
Hf1 Mg3 3.326240 1_555
Hf1 Mg4 3.326240 1_545
Mg0 Mg1 3.049603 1_555
Mg0 Mg9 3.065088 1_554
Mg0 Mg9 3.065088 1_454
Mg0 Ti0 3.071407 1_555
Mg0 Mg5 3.114497 1_465
Mg0 Mg5 3.114497 1_565
Mg0 Mg8 3.173886 1_554
Mg0 Mg1 3.216018 1_565
Mg0 Mg2 3.244262 1_565
Mg0 Ti1 3.346766 1_564
Mg1 Mg10 3.065088 1_454
Mg1 Mg10 3.065088 1_554
Mg1 Ti0 3.071407 1_555
Mg1 Mg5 3.114497 1_555
Mg1 Mg5 3.114497 1_455
Mg1 Mg8 3.173886 1_554
Mg1 Mg2 3.244262 1_555
Mg1 Ti1 3.346766 1_554
Mg2 Mg5 3.099003 1_455
Mg2 Mg5 3.099003 1_555
Mg2 Mg3 3.129129 1_455
Mg2 Mg3 3.129129 1_555
Mg2 Mg4 3.129129 1_545
Mg2 Mg4 3.129129 1_445
Mg2 Ti0 3.136473 1_545
Mg2 Ti0 3.136473 1_555
Mg2 Mg6 3.173886 1_555
Mg2 Mg7 3.173886 1_545
Mg3 Mg4 3.024378 1_555
Mg3 Mg6 3.065088 1_655
Mg3 Mg6 3.065088 1_555
Mg3 Ti0 3.126604 1_555
Mg3 Ti0 3.126604 1_655
Mg3 Mg4 3.241243 1_545
Mg3 Mg5 3.272951 1_555
Mg4 Mg7 3.065088 1_555
Mg4 Mg7 3.065088 1_655
Mg4 Ti0 3.126604 1_655
Mg4 Ti0 3.126604 1_555
Mg4 Mg5 3.272951 1_565
Mg5 Mg9 3.145170 1_544
Mg6 Mg7 3.049603 1_545
Mg6 Ti1 3.071407 1_555
Mg6 Mg7 3.216018 1_555
Mg6 Mg8 3.244262 1_555
Mg6 Ti0 3.346766 1_555
Mg7 Ti1 3.071407 1_565
Mg7 Mg8 3.244262 1_555
Mg7 Ti0 3.346766 1_555
Mg8 Mg9 3.129129 1_455
Mg8 Mg9 3.129129 1_555
Mg8 Ti1 3.136473 1_555
Mg8 Ti1 3.136473 1_565
Mg9 Ti1 3.126604 1_565
Mg9 Ti1 3.126604 1_665
Mg10 Mg9 3.024378 1_545
Mg10 Ti1 3.126604 1_555
Mg10 Ti1 3.126604 1_655
Mg10 Mg8 3.129129 1_555
Mg10 Mg8 3.129129 1_655
Mg10 Mg5 3.145170 1_556
Mg10 Mg9 3.241243 1_555
Mg10 Mg11 3.272951 1_555
Mg11 Mg8 3.099003 1_555
Mg11 Mg8 3.099003 1_655
Mg11 Mg6 3.114497 1_555
Mg11 Mg6 3.114497 1_655
Mg11 Mg7 3.114497 1_655
Mg11 Mg7 3.114497 1_555
Mg11 Mg4 3.145170 1_555
Mg11 Mg3 3.145170 1_555
Mg11 Mg9 3.272951 1_555
