# generated using pymatgen
data_Zn3Fe2(Si2O7)2
_symmetry_space_group_name_H-M   'P 1'
_cell_length_a   9.11666164
_cell_length_b   9.11666164
_cell_length_c   9.89451628
_cell_angle_alpha   60.96280340
_cell_angle_beta   60.96280340
_cell_angle_gamma   50.69167928
_symmetry_Int_Tables_number   1
_chemical_formula_structural   Zn3Fe2(Si2O7)2
_chemical_formula_sum   'Zn6 Fe4 Si8 O28'
_cell_volume   536.74548151
_cell_formula_units_Z   2
loop_
 _symmetry_equiv_pos_site_id
 _symmetry_equiv_pos_as_xyz
  1  'x, y, z'
loop_
 _atom_site_type_symbol
 _atom_site_label
 _atom_site_symmetry_multiplicity
 _atom_site_fract_x
 _atom_site_fract_y
 _atom_site_fract_z
 _atom_site_occupancy
  Zn  Zn0  1  0.05809900  0.28049000  0.09760100  1
  Zn  Zn1  1  0.71951000  0.94190100  0.40239900  1
  Zn  Zn2  1  0.28049000  0.05809900  0.59760100  1
  Zn  Zn3  1  0.39448000  0.60552000  0.75000000  1
  Zn  Zn4  1  0.94190100  0.71951000  0.90239900  1
  Zn  Zn5  1  0.60552000  0.39448000  0.25000000  1
  Fe  Fe0  1  0.79433800  0.20566200  0.75000000  1
  Fe  Fe1  1  0.20566200  0.79433800  0.25000000  1
  Fe  Fe2  1  0.00000000  0.00000000  0.00000000  1
  Fe  Fe3  1  0.00000000  0.00000000  0.50000000  1
  Si  Si0  1  0.53087300  0.10097700  0.70942700  1
  Si  Si1  1  0.10097700  0.53087300  0.20942700  1
  Si  Si2  1  0.51848900  0.24182900  0.10264700  1
  Si  Si3  1  0.24182900  0.51848900  0.60264700  1
  Si  Si4  1  0.89902300  0.46912700  0.79057300  1
  Si  Si5  1  0.48151100  0.75817100  0.89735300  1
  Si  Si6  1  0.75817100  0.48151100  0.39735300  1
  Si  Si7  1  0.46912700  0.89902300  0.29057300  1
  O  O0  1  0.83401500  0.30028400  0.33020000  1
  O  O1  1  0.95694500  0.88260700  0.41658900  1
  O  O2  1  0.45865000  0.63939400  0.08711200  1
  O  O3  1  0.88260700  0.95694500  0.91658900  1
  O  O4  1  0.25169200  0.94410600  0.32301700  1
  O  O5  1  0.05911500  0.50548700  0.62580500  1
  O  O6  1  0.63939400  0.45865000  0.58711200  1
  O  O7  1  0.05589400  0.74830800  0.17698300  1
  O  O8  1  0.94088500  0.49451300  0.37419500  1
  O  O9  1  0.63377500  0.67582100  0.26696400  1
  O  O10  1  0.04305500  0.11739300  0.58341100  1
  O  O11  1  0.74830800  0.05589400  0.67698300  1
  O  O12  1  0.49451300  0.94088500  0.87419500  1
  O  O13  1  0.30028400  0.83401500  0.83020000  1
  O  O14  1  0.67582100  0.63377500  0.76696400  1
  O  O15  1  0.94410600  0.25169200  0.82301700  1
  O  O16  1  0.90363100  0.50646000  0.93388800  1
  O  O17  1  0.36622500  0.32417900  0.73303600  1
  O  O18  1  0.49354000  0.09636900  0.56611200  1
  O  O19  1  0.32417900  0.36622500  0.23303600  1
  O  O20  1  0.50548700  0.05911500  0.12580500  1
  O  O21  1  0.11739300  0.04305500  0.08341100  1
  O  O22  1  0.50646000  0.90363100  0.43388800  1
  O  O23  1  0.54135000  0.36060600  0.91288800  1
  O  O24  1  0.09636900  0.49354000  0.06611200  1
  O  O25  1  0.36060600  0.54135000  0.41288800  1
  O  O26  1  0.69971600  0.16598500  0.16980000  1
  O  O27  1  0.16598500  0.69971600  0.66980000  1
loop_
_geom_bond_atom_site_label_1
_geom_bond_atom_site_label_2
_geom_bond_distance
_geom_bond_site_symmetry_2
Fe0 O10 1.963042 1_655
Fe0 O3 1.963042 1_545
Fe0 O23 2.094321 1_555
Fe0 O6 2.094321 1_555
Fe0 O11 2.130771 1_555
Fe0 O15 2.130771 1_555
Fe1 O21 1.963042 1_565
Fe1 O1 1.963042 1_455
Fe1 O2 2.094321 1_555
Fe1 O25 2.094321 1_555
Fe1 O7 2.130771 1_555
Fe1 O4 2.130771 1_555
Fe2 O21 1.919575 1_555
Fe2 O3 1.919575 1_444
Fe2 O15 2.018787 1_454
Fe2 O7 2.018787 1_545
Fe2 O26 2.315483 1_455
Fe2 O13 2.315483 1_544
Fe3 O10 1.919575 1_555
Fe3 O1 1.919575 1_445
Fe3 O4 2.018787 1_545
Fe3 O11 2.018787 1_455
Fe3 O0 2.315483 1_455
Fe3 O27 2.315483 1_545
O0 Si6 1.679760 1_555
O0 Zn5 2.093608 1_555
O0 Zn0 2.207859 1_655
O1 Zn1 1.932955 1_555
O2 Si5 1.635139 1_554
O2 Zn5 2.046825 1_555
O3 Zn4 1.932955 1_555
O4 Si7 1.636921 1_555
O5 Si4 1.635978 1_455
O5 Si3 1.641501 1_555
O6 Si6 1.635139 1_555
O6 Zn3 2.046825 1_555
O7 Si1 1.636921 1_555
O8 Si1 1.635978 1_655
O8 Si6 1.641501 1_555
O9 Si7 1.643016 1_555
O9 Si6 1.656819 1_555
O10 Zn2 1.932955 1_555
O11 Si0 1.636921 1_555
O12 Si0 1.635978 1_565
O12 Si5 1.641501 1_555
O13 Si5 1.679760 1_555
O13 Zn3 2.093608 1_555
O13 Zn2 2.207859 1_565
O14 Si4 1.643016 1_555
O14 Si5 1.656819 1_555
O15 Si4 1.636921 1_555
O16 Si4 1.634895 1_555
O16 Zn0 2.037245 1_656
O16 Zn4 2.038859 1_555
O17 Si0 1.643016 1_555
O17 Si3 1.656819 1_555
O18 Si0 1.634895 1_555
O18 Zn1 2.037245 1_545
O18 Zn2 2.038859 1_555
O19 Si1 1.643016 1_555
O19 Si2 1.656819 1_555
O20 Si7 1.635978 1_545
O20 Si2 1.641501 1_555
O21 Zn0 1.932955 1_555
O22 Si7 1.634895 1_555
O22 Zn2 2.037245 1_565
O22 Zn1 2.038859 1_555
O23 Si2 1.635139 1_556
O23 Zn3 2.046825 1_555
O24 Si1 1.634895 1_555
O24 Zn4 2.037245 1_454
O24 Zn0 2.038859 1_555
O25 Si3 1.635139 1_555
O25 Zn5 2.046825 1_555
O26 Si2 1.679760 1_555
O26 Zn5 2.093608 1_555
O26 Zn1 2.207859 1_545
O27 Si3 1.679760 1_555
O27 Zn3 2.093608 1_555
O27 Zn4 2.207859 1_455
