# generated using pymatgen
data_SnO2
_symmetry_space_group_name_H-M   'P 1'
_cell_length_a   5.81974883
_cell_length_b   5.81974883
_cell_length_c   5.81974883
_cell_angle_alpha   112.12975327
_cell_angle_beta   108.16399253
_cell_angle_gamma   108.15307558
_symmetry_Int_Tables_number   1
_chemical_formula_structural   SnO2
_chemical_formula_sum   'Sn4 O8'
_cell_volume   151.49050869
_cell_formula_units_Z   4
loop_
 _symmetry_equiv_pos_site_id
 _symmetry_equiv_pos_as_xyz
  1  'x, y, z'
loop_
 _atom_site_type_symbol
 _atom_site_label
 _atom_site_symmetry_multiplicity
 _atom_site_fract_x
 _atom_site_fract_y
 _atom_site_fract_z
 _atom_site_occupancy
  Sn  Sn0  1  0.50359900  0.75000000  0.75359900  1
  Sn  Sn1  1  0.49640100  0.25000000  0.24640100  1
  Sn  Sn2  1  0.00000000  0.50000000  0.00000000  1
  Sn  Sn3  1  0.00000000  0.00000000  0.50000000  1
  O  O0  1  0.30649600  0.50272200  0.30921800  1
  O  O1  1  0.18944500  0.94350500  0.24594000  1
  O  O2  1  0.30649600  0.99727700  0.80377300  1
  O  O3  1  0.80243500  0.55649500  0.24594000  1
  O  O4  1  0.19756500  0.44350500  0.75406000  1
  O  O5  1  0.81055500  0.05649500  0.75406000  1
  O  O6  1  0.69350400  0.00272300  0.19622700  1
  O  O7  1  0.69350400  0.49727800  0.69078200  1
loop_
_geom_bond_atom_site_label_1
_geom_bond_atom_site_label_2
_geom_bond_distance
_geom_bond_site_symmetry_2
O0 Sn1 2.092364 1_555
O0 Sn2 2.092842 1_555
O0 Sn0 2.095933 1_555
O1 Sn1 2.093038 1_565
O1 Sn2 2.094228 1_555
O1 Sn3 2.094228 1_565
O2 Sn1 2.092369 1_566
O2 Sn3 2.092842 1_565
O2 Sn0 2.095928 1_555
O3 Sn1 2.093038 1_555
O3 Sn2 2.094228 1_655
O3 Sn3 2.094228 1_665
O4 Sn0 2.093038 1_555
O4 Sn2 2.094228 1_556
O4 Sn3 2.094228 1_555
O5 Sn0 2.093038 1_545
O5 Sn2 2.094228 1_656
O5 Sn3 2.094228 1_655
O6 Sn0 2.092369 1_544
O6 Sn3 2.092842 1_655
O6 Sn1 2.095928 1_555
O7 Sn0 2.092364 1_555
O7 Sn2 2.092842 1_656
O7 Sn1 2.095933 1_555
