# generated using pymatgen
data_Mg2TaWO6
_symmetry_space_group_name_H-M   'P 1'
_cell_length_a   5.67118287
_cell_length_b   5.67118287
_cell_length_c   5.67118225
_cell_angle_alpha   55.70464370
_cell_angle_beta   55.70464370
_cell_angle_gamma   55.70464503
_symmetry_Int_Tables_number   1
_chemical_formula_structural   Mg2TaWO6
_chemical_formula_sum   'Mg2 Ta1 W1 O6'
_cell_volume   116.12380304
_cell_formula_units_Z   1
loop_
 _symmetry_equiv_pos_site_id
 _symmetry_equiv_pos_as_xyz
  1  'x, y, z'
loop_
 _atom_site_type_symbol
 _atom_site_label
 _atom_site_symmetry_multiplicity
 _atom_site_fract_x
 _atom_site_fract_y
 _atom_site_fract_z
 _atom_site_occupancy
  Mg  Mg0  1  0.77239600  0.77239600  0.77239600  1
  Mg  Mg1  1  0.27689100  0.27689100  0.27689100  1
  Ta  Ta0  1  0.48184500  0.48184500  0.48184500  1
  W  W0  1  0.98121400  0.98121400  0.98121400  1
  O  O0  1  0.57781500  0.85967900  0.21373200  1
  O  O1  1  0.38667800  0.09703900  0.68300700  1
  O  O2  1  0.68300700  0.38667800  0.09703900  1
  O  O3  1  0.09703900  0.68300700  0.38667800  1
  O  O4  1  0.85967900  0.21373200  0.57781500  1
  O  O5  1  0.21373200  0.57781500  0.85967900  1
loop_
_geom_bond_atom_site_label_1
_geom_bond_atom_site_label_2
_geom_bond_distance
_geom_bond_site_symmetry_2
Mg0 O3 2.022639 1_655
Mg0 O2 2.022640 1_556
Mg0 O1 2.022640 1_565
Mg0 O0 2.322789 1_556
Mg0 O5 2.322789 1_655
Mg0 O4 2.322789 1_565
Mg1 O5 2.086836 1_554
Mg1 O4 2.086837 1_455
Mg1 O0 2.086837 1_545
Mg1 O1 2.232839 1_555
Mg1 O3 2.232839 1_555
Mg1 O2 2.232839 1_555
O0 Ta0 1.977287 1_555
O0 W0 2.191073 1_554
O1 Ta0 2.045251 1_555
O1 W0 2.155687 1_445
O2 Ta0 2.045251 1_555
O2 W0 2.155687 1_544
O3 Ta0 2.045251 1_555
O3 W0 2.155687 1_454
O4 Ta0 1.977287 1_555
O4 W0 2.191073 1_545
O5 Ta0 1.977287 1_555
O5 W0 2.191073 1_455
