# generated using pymatgen
data_LaMg6Sb
_symmetry_space_group_name_H-M   'P 1'
_cell_length_a   5.00369200
_cell_length_b   6.52401900
_cell_length_c   12.67025700
_cell_angle_alpha   90.00000000
_cell_angle_beta   90.00000000
_cell_angle_gamma   90.00000000
_symmetry_Int_Tables_number   1
_chemical_formula_structural   LaMg6Sb
_chemical_formula_sum   'La2 Mg12 Sb2'
_cell_volume   413.61017142
_cell_formula_units_Z   2
loop_
 _symmetry_equiv_pos_site_id
 _symmetry_equiv_pos_as_xyz
  1  'x, y, z'
loop_
 _atom_site_type_symbol
 _atom_site_label
 _atom_site_symmetry_multiplicity
 _atom_site_fract_x
 _atom_site_fract_y
 _atom_site_fract_z
 _atom_site_occupancy
  La  La0  1  0.00000000  0.50000000  0.30749000  1
  La  La1  1  0.00000000  0.00000000  0.80749000  1
  Mg  Mg0  1  0.00000000  0.76979100  0.06877000  1
  Mg  Mg1  1  0.00000000  0.23020900  0.06877000  1
  Mg  Mg2  1  0.00000000  0.00000000  0.35082900  1
  Mg  Mg3  1  0.50000000  0.25221000  0.43314300  1
  Mg  Mg4  1  0.50000000  0.74779000  0.43314300  1
  Mg  Mg5  1  0.50000000  0.00000000  0.20321300  1
  Mg  Mg6  1  0.00000000  0.26979100  0.56877000  1
  Mg  Mg7  1  0.00000000  0.73020900  0.56877000  1
  Mg  Mg8  1  0.00000000  0.50000000  0.85082900  1
  Mg  Mg9  1  0.50000000  0.75221000  0.93314300  1
  Mg  Mg10  1  0.50000000  0.24779000  0.93314300  1
  Mg  Mg11  1  0.50000000  0.50000000  0.70321300  1
  Sb  Sb0  1  0.50000000  0.50000000  0.13464000  1
  Sb  Sb1  1  0.50000000  0.00000000  0.63464000  1
loop_
_geom_bond_atom_site_label_1
_geom_bond_atom_site_label_2
_geom_bond_distance
_geom_bond_site_symmetry_2
La0 Mg2 3.307905 1_565
La0 Mg2 3.307905 1_555
La0 Sb0 3.324992 1_455
La0 Sb0 3.324992 1_555
La0 Mg3 3.377459 1_555
La0 Mg3 3.377459 1_455
La0 Mg4 3.377459 1_455
La0 Mg4 3.377459 1_555
La0 Mg1 3.499500 1_555
La0 Mg0 3.499500 1_555
La0 Mg6 3.635241 1_555
La0 Mg7 3.635241 1_555
La1 Mg8 3.307905 1_555
La1 Mg8 3.307905 1_545
La1 Sb1 3.324992 1_455
La1 Sb1 3.324992 1_555
La1 Mg10 3.377459 1_555
La1 Mg9 3.377459 1_445
La1 Mg9 3.377459 1_545
La1 Mg10 3.377459 1_455
La1 Mg6 3.499500 1_555
La1 Mg7 3.499500 1_545
La1 Mg0 3.635241 1_546
La1 Mg1 3.635241 1_556
Mg0 Sb0 3.170773 1_455
Mg0 Sb0 3.170773 1_555
Mg0 Mg8 3.274627 1_554
Mg0 Mg5 3.378841 1_565
Mg0 Mg5 3.378841 1_465
Mg1 Sb0 3.170773 1_455
Mg1 Sb0 3.170773 1_555
Mg1 Mg8 3.274627 1_554
Mg1 Mg5 3.378841 1_555
Mg1 Mg5 3.378841 1_455
Mg2 Mg5 3.123680 1_455
Mg2 Mg5 3.123680 1_555
Mg2 Mg4 3.170863 1_545
Mg2 Mg4 3.170863 1_445
Mg2 Mg3 3.170863 1_555
Mg2 Mg3 3.170863 1_455
Mg2 Mg6 3.274627 1_555
Mg2 Mg7 3.274627 1_545
Mg3 Sb1 3.037321 1_555
Mg3 Mg5 3.345829 1_555
Mg4 Sb1 3.037321 1_565
Mg4 Mg5 3.345829 1_565
Mg5 Sb0 3.375735 1_545
Mg5 Sb0 3.375735 1_555
Mg6 Sb1 3.170773 1_455
Mg6 Sb1 3.170773 1_555
Mg7 Sb1 3.170773 1_465
Mg7 Sb1 3.170773 1_565
Mg8 Mg9 3.170863 1_555
Mg8 Mg9 3.170863 1_455
Mg9 Sb0 3.037321 1_556
Mg10 Sb0 3.037321 1_556
Mg10 Mg8 3.170863 1_555
Mg10 Mg8 3.170863 1_655
Mg10 Mg11 3.345829 1_555
Mg11 Mg8 3.123680 1_555
Mg11 Mg8 3.123680 1_655
Mg11 Mg9 3.345829 1_555
Mg11 Sb1 3.375735 1_555
Mg11 Sb1 3.375735 1_565
Mg11 Mg7 3.378841 1_655
Mg11 Mg6 3.378841 1_555
Mg11 Mg7 3.378841 1_555
Mg11 Mg6 3.378841 1_655
