# generated using pymatgen
data_Cs2Zr(AgTe2)2
_symmetry_space_group_name_H-M   'P 1'
_cell_length_a   8.40743337
_cell_length_b   8.40743337
_cell_length_c   6.61764724
_cell_angle_alpha   90.00000000
_cell_angle_beta   90.00000000
_cell_angle_gamma   133.60586723
_symmetry_Int_Tables_number   1
_chemical_formula_structural   Cs2Zr(AgTe2)2
_chemical_formula_sum   'Cs2 Zr1 Ag2 Te4'
_cell_volume   338.71136690
_cell_formula_units_Z   1
loop_
 _symmetry_equiv_pos_site_id
 _symmetry_equiv_pos_as_xyz
  1  'x, y, z'
loop_
 _atom_site_type_symbol
 _atom_site_label
 _atom_site_symmetry_multiplicity
 _atom_site_fract_x
 _atom_site_fract_y
 _atom_site_fract_z
 _atom_site_occupancy
  Cs  Cs0  1  0.50000000  -0.00000000  0.25867355  1
  Cs  Cs1  1  -0.00000000  0.50000000  0.74132645  1
  Zr  Zr0  1  -0.00000000  -0.00000000  0.00000000  1
  Ag  Ag0  1  -0.00000000  -0.00000000  0.50000000  1
  Ag  Ag1  1  0.50000000  0.50000000  0.00000000  1
  Te  Te0  1  0.86323004  0.65540258  0.23961410  1
  Te  Te1  1  0.13676996  0.34459742  0.23961410  1
  Te  Te2  1  0.65540258  0.86323004  0.76038590  1
  Te  Te3  1  0.34459742  0.13676996  0.76038590  1
loop_
_geom_bond_atom_site_label_1
_geom_bond_atom_site_label_2
_geom_bond_distance
_geom_bond_site_symmetry_2
Cs0 Te0 3.959271 1_445
Cs0 Te1 3.959271 1_655
Cs0 Te3 3.996883 1_554
Cs0 Te2 3.996883 1_544
Cs0 Te2 4.015601 1_545
Cs0 Te3 4.015601 1_555
Cs0 Te1 4.061183 1_545
Cs0 Te0 4.061183 1_555
Cs1 Te2 3.959271 1_445
Cs1 Te3 3.959271 1_565
Cs1 Te1 3.996883 1_556
Cs1 Te0 3.996883 1_456
Cs1 Te1 4.015601 1_555
Cs1 Te0 4.015601 1_455
Cs1 Te2 4.061183 1_555
Cs1 Te3 4.061183 1_455
Ag0 Te2 2.844254 1_445
Ag0 Te3 2.844254 1_555
Ag0 Te0 2.844254 1_445
Ag0 Te1 2.844254 1_555
Ag0 Zr0 3.308824 1_556
Ag0 Zr0 3.308824 1_555
Ag1 Te0 2.836131 1_555
Ag1 Te2 2.836131 1_554
Ag1 Te1 2.836131 1_555
Ag1 Te3 2.836131 1_554
Ag1 Zr0 3.311645 1_665
Ag1 Zr0 3.311645 1_555
Te0 Zr0 2.763141 1_665
Te1 Zr0 2.763141 1_555
Te2 Zr0 2.763141 1_666
Te3 Zr0 2.763141 1_556
