# generated using pymatgen
data_Mg5Ti
_symmetry_space_group_name_H-M   'P 1'
_cell_length_a   12.02008580
_cell_length_b   12.02008580
_cell_length_c   14.92538639
_cell_angle_alpha   75.82544948
_cell_angle_beta   75.82544948
_cell_angle_gamma   29.92547956
_symmetry_Int_Tables_number   1
_chemical_formula_structural   Mg5Ti
_chemical_formula_sum   'Mg40 Ti8'
_cell_volume   1040.66604739
_cell_formula_units_Z   8
loop_
 _symmetry_equiv_pos_site_id
 _symmetry_equiv_pos_as_xyz
  1  'x, y, z'
loop_
 _atom_site_type_symbol
 _atom_site_label
 _atom_site_symmetry_multiplicity
 _atom_site_fract_x
 _atom_site_fract_y
 _atom_site_fract_z
 _atom_site_occupancy
  Mg  Mg0_0  1  0.00091150  0.00091150  0.00376350  1
  Mg  Mg0_1  1  0.00091150  0.00091150  0.50376350  1
  Mg  Mg0_2  1  0.00091150  0.50091150  0.00376350  1
  Mg  Mg0_3  1  0.00091150  0.50091150  0.50376350  1
  Mg  Mg0_4  1  0.50091150  0.00091150  0.00376350  1
  Mg  Mg0_5  1  0.50091150  0.00091150  0.50376350  1
  Mg  Mg0_6  1  0.50091150  0.50091150  0.00376350  1
  Mg  Mg0_7  1  0.50091150  0.50091150  0.50376350  1
  Mg  Mg1_0  1  0.16658600  0.16658600  0.16549450  1
  Mg  Mg1_1  1  0.16658600  0.16658600  0.66549450  1
  Mg  Mg1_2  1  0.16658600  0.66658600  0.16549450  1
  Mg  Mg1_3  1  0.16658600  0.66658600  0.66549450  1
  Mg  Mg1_4  1  0.66658600  0.16658600  0.16549450  1
  Mg  Mg1_5  1  0.66658600  0.16658600  0.66549450  1
  Mg  Mg1_6  1  0.66658600  0.66658600  0.16549450  1
  Mg  Mg1_7  1  0.66658600  0.66658600  0.66549450  1
  Mg  Mg2_0  1  0.47340350  0.47340350  0.30318050  1
  Mg  Mg2_1  1  0.47340350  0.47340350  0.80318050  1
  Mg  Mg2_2  1  0.47340350  0.97340350  0.30318050  1
  Mg  Mg2_3  1  0.47340350  0.97340350  0.80318050  1
  Mg  Mg2_4  1  0.97340350  0.47340350  0.30318050  1
  Mg  Mg2_5  1  0.97340350  0.47340350  0.80318050  1
  Mg  Mg2_6  1  0.97340350  0.97340350  0.30318050  1
  Mg  Mg2_7  1  0.97340350  0.97340350  0.80318050  1
  Mg  Mg3_0  1  0.33291750  0.33291750  0.32980350  1
  Mg  Mg3_1  1  0.33291750  0.33291750  0.82980350  1
  Mg  Mg3_2  1  0.33291750  0.83291750  0.32980350  1
  Mg  Mg3_3  1  0.33291750  0.83291750  0.82980350  1
  Mg  Mg3_4  1  0.83291750  0.33291750  0.32980350  1
  Mg  Mg3_5  1  0.83291750  0.33291750  0.82980350  1
  Mg  Mg3_6  1  0.83291750  0.83291750  0.32980350  1
  Mg  Mg3_7  1  0.83291750  0.83291750  0.82980350  1
  Mg  Mg4_0  1  0.13735150  0.13735150  0.47517950  1
  Mg  Mg4_1  1  0.13735150  0.13735150  0.97517950  1
  Mg  Mg4_2  1  0.13735150  0.63735150  0.47517950  1
  Mg  Mg4_3  1  0.13735150  0.63735150  0.97517950  1
  Mg  Mg4_4  1  0.63735150  0.13735150  0.47517950  1
  Mg  Mg4_5  1  0.63735150  0.13735150  0.97517950  1
  Mg  Mg4_6  1  0.63735150  0.63735150  0.47517950  1
  Mg  Mg4_7  1  0.63735150  0.63735150  0.97517950  1
  Ti  Ti0_0  1  0.30549600  0.30549600  0.13924500  1
  Ti  Ti0_1  1  0.30549600  0.30549600  0.63924500  1
  Ti  Ti0_2  1  0.30549600  0.80549600  0.13924500  1
  Ti  Ti0_3  1  0.30549600  0.80549600  0.63924500  1
  Ti  Ti0_4  1  0.80549600  0.30549600  0.13924500  1
  Ti  Ti0_5  1  0.80549600  0.30549600  0.63924500  1
  Ti  Ti0_6  1  0.80549600  0.80549600  0.13924500  1
  Ti  Ti0_7  1  0.80549600  0.80549600  0.63924500  1
loop_
_geom_bond_atom_site_label_1
_geom_bond_atom_site_label_2
_geom_bond_distance
_geom_bond_site_symmetry_2
Mg0_0 Ti0_2 3.066515 1_545
Mg0_0 Ti0_4 3.066515 1_455
Mg0_0 Mg4_1 3.088388 1_554
Mg0_0 Mg0_6 3.103476 1_455
Mg0_0 Mg0_6 3.103476 1_545
Mg0_0 Mg1_4 3.110272 1_455
Mg0_0 Mg1_2 3.110272 1_545
Mg0_0 Mg4_5 3.180628 1_454
Mg0_0 Mg4_3 3.180628 1_544
Mg0_0 Mg3_5 3.204665 1_454
Mg0_0 Mg3_3 3.204665 1_544
Mg0_0 Mg2_7 3.215661 1_444
Mg0_1 Ti0_3 3.066515 1_545
Mg0_1 Ti0_5 3.066515 1_455
Mg0_1 Mg4_0 3.088388 1_555
Mg0_1 Mg0_7 3.103476 1_545
Mg0_1 Mg0_7 3.103476 1_455
Mg0_1 Mg1_5 3.110272 1_455
Mg0_1 Mg1_3 3.110272 1_545
Mg0_1 Mg4_2 3.180628 1_545
Mg0_1 Mg4_4 3.180628 1_455
Mg0_1 Mg3_2 3.204665 1_545
Mg0_1 Mg3_4 3.204665 1_455
Mg0_1 Mg2_6 3.215661 1_445
Mg0_2 Ti0_6 3.066515 1_455
Mg0_2 Ti0_0 3.066515 1_555
Mg0_2 Mg4_3 3.088388 1_554
Mg0_2 Mg0_4 3.103476 1_465
Mg0_2 Mg0_4 3.103476 1_555
Mg0_2 Mg1_6 3.110272 1_455
Mg0_2 Mg1_0 3.110272 1_555
Mg0_2 Mg4_7 3.180628 1_454
Mg0_2 Mg4_1 3.180628 1_554
Mg0_2 Mg3_7 3.204665 1_454
Mg0_2 Mg3_1 3.204665 1_554
Mg0_2 Mg2_5 3.215661 1_454
Mg0_3 Ti0_7 3.066515 1_455
Mg0_3 Ti0_1 3.066515 1_555
Mg0_3 Mg4_2 3.088388 1_555
Mg0_3 Mg0_5 3.103476 1_555
Mg0_3 Mg0_5 3.103476 1_465
Mg0_3 Mg1_7 3.110272 1_455
Mg0_3 Mg1_1 3.110272 1_555
Mg0_3 Mg4_6 3.180628 1_455
Mg0_3 Mg4_0 3.180628 1_555
Mg0_3 Mg3_6 3.204665 1_455
Mg0_3 Mg3_0 3.204665 1_555
Mg0_3 Mg2_4 3.215661 1_455
Mg0_4 Ti0_0 3.066515 1_555
Mg0_4 Ti0_6 3.066515 1_545
Mg0_4 Mg4_5 3.088388 1_554
Mg0_4 Mg1_0 3.110272 1_555
Mg0_4 Mg1_6 3.110272 1_545
Mg0_4 Mg4_7 3.180628 1_544
Mg0_4 Mg4_1 3.180628 1_554
Mg0_4 Mg3_7 3.204665 1_544
Mg0_4 Mg3_1 3.204665 1_554
Mg0_4 Mg2_3 3.215661 1_544
Mg0_5 Ti0_7 3.066515 1_545
Mg0_5 Ti0_1 3.066515 1_555
Mg0_5 Mg4_4 3.088388 1_555
Mg0_5 Mg1_7 3.110272 1_545
Mg0_5 Mg1_1 3.110272 1_555
Mg0_5 Mg4_6 3.180628 1_545
Mg0_5 Mg4_0 3.180628 1_555
Mg0_5 Mg3_6 3.204665 1_545
Mg0_5 Mg3_0 3.204665 1_555
Mg0_5 Mg2_2 3.215661 1_545
Mg0_6 Ti0_4 3.066515 1_555
Mg0_6 Ti0_2 3.066515 1_555
Mg0_6 Mg4_7 3.088388 1_554
Mg0_6 Mg1_2 3.110272 1_555
Mg0_6 Mg1_4 3.110272 1_555
Mg0_6 Mg4_5 3.180628 1_554
Mg0_6 Mg4_3 3.180628 1_554
Mg0_6 Mg3_5 3.204665 1_554
Mg0_6 Mg3_3 3.204665 1_554
Mg0_6 Mg2_1 3.215661 1_554
Mg0_7 Ti0_5 3.066515 1_555
Mg0_7 Ti0_3 3.066515 1_555
Mg0_7 Mg4_6 3.088388 1_555
Mg0_7 Mg1_5 3.110272 1_555
Mg0_7 Mg1_3 3.110272 1_555
Mg0_7 Mg4_4 3.180628 1_555
Mg0_7 Mg4_2 3.180628 1_555
Mg0_7 Mg3_4 3.204665 1_555
Mg0_7 Mg3_2 3.204665 1_555
Mg0_7 Mg2_0 3.215661 1_555
Mg1_0 Mg4_1 3.083390 1_554
Mg1_0 Mg1_6 3.103476 1_455
Mg1_0 Mg1_6 3.103476 1_545
Mg1_0 Ti0_4 3.119390 1_455
Mg1_0 Ti0_2 3.119390 1_545
Mg1_0 Mg2_4 3.122021 1_455
Mg1_0 Mg2_2 3.122021 1_545
Mg1_0 Mg3_4 3.127662 1_455
Mg1_0 Mg3_2 3.127662 1_545
Mg1_0 Ti0_0 3.149771 1_555
Mg1_1 Mg4_0 3.083390 1_555
Mg1_1 Mg1_7 3.103476 1_545
Mg1_1 Mg1_7 3.103476 1_455
Mg1_1 Ti0_5 3.119390 1_455
Mg1_1 Ti0_3 3.119390 1_545
Mg1_1 Mg2_3 3.122021 1_545
Mg1_1 Mg2_5 3.122021 1_455
Mg1_1 Mg3_3 3.127662 1_545
Mg1_1 Mg3_5 3.127662 1_455
Mg1_1 Ti0_1 3.149771 1_555
Mg1_2 Mg4_3 3.083390 1_554
Mg1_2 Mg1_4 3.103476 1_465
Mg1_2 Mg1_4 3.103476 1_555
Mg1_2 Ti0_0 3.119390 1_555
Mg1_2 Ti0_6 3.119390 1_455
Mg1_2 Mg2_0 3.122021 1_555
Mg1_2 Mg2_6 3.122021 1_455
Mg1_2 Mg3_0 3.127662 1_555
Mg1_2 Mg3_6 3.127662 1_455
Mg1_2 Ti0_2 3.149771 1_555
Mg1_3 Mg4_2 3.083390 1_555
Mg1_3 Mg1_5 3.103476 1_555
Mg1_3 Mg1_5 3.103476 1_465
Mg1_3 Ti0_1 3.119390 1_555
Mg1_3 Ti0_7 3.119390 1_455
Mg1_3 Mg2_7 3.122021 1_455
Mg1_3 Mg2_1 3.122021 1_555
Mg1_3 Mg3_1 3.127662 1_555
Mg1_3 Mg3_7 3.127662 1_455
Mg1_3 Ti0_3 3.149771 1_555
Mg1_4 Mg4_5 3.083390 1_554
Mg1_4 Ti0_6 3.119390 1_545
Mg1_4 Ti0_0 3.119390 1_555
Mg1_4 Mg2_0 3.122021 1_555
Mg1_4 Mg2_6 3.122021 1_545
Mg1_4 Mg3_0 3.127662 1_555
Mg1_4 Mg3_6 3.127662 1_545
Mg1_4 Ti0_4 3.149771 1_555
Mg1_5 Mg4_4 3.083390 1_555
Mg1_5 Ti0_1 3.119390 1_555
Mg1_5 Ti0_7 3.119390 1_545
Mg1_5 Mg2_1 3.122021 1_555
Mg1_5 Mg2_7 3.122021 1_545
Mg1_5 Mg3_1 3.127662 1_555
Mg1_5 Mg3_7 3.127662 1_545
Mg1_5 Ti0_5 3.149771 1_555
Mg1_6 Mg4_7 3.083390 1_554
Mg1_6 Ti0_4 3.119390 1_555
Mg1_6 Ti0_2 3.119390 1_555
Mg1_6 Mg2_4 3.122021 1_555
Mg1_6 Mg2_2 3.122021 1_555
Mg1_6 Mg3_2 3.127662 1_555
Mg1_6 Mg3_4 3.127662 1_555
Mg1_6 Ti0_6 3.149771 1_555
Mg1_7 Mg4_6 3.083390 1_555
Mg1_7 Ti0_5 3.119390 1_555
Mg1_7 Ti0_3 3.119390 1_555
Mg1_7 Mg2_3 3.122021 1_555
Mg1_7 Mg2_5 3.122021 1_555
Mg1_7 Mg3_3 3.127662 1_555
Mg1_7 Mg3_5 3.127662 1_555
Mg1_7 Ti0_7 3.149771 1_555
Mg2_0 Mg3_4 3.089882 1_555
Mg2_0 Mg3_2 3.089882 1_555
Mg2_0 Mg2_6 3.103476 1_545
Mg2_0 Mg2_6 3.103476 1_455
Mg2_0 Ti0_4 3.108848 1_555
Mg2_0 Ti0_2 3.108848 1_555
Mg2_0 Mg3_0 3.185355 1_555
Mg2_0 Mg4_4 3.223583 1_555
Mg2_0 Mg4_2 3.223583 1_555
Mg2_1 Mg3_5 3.089882 1_555
Mg2_1 Mg3_3 3.089882 1_555
Mg2_1 Mg2_7 3.103476 1_545
Mg2_1 Mg2_7 3.103476 1_455
Mg2_1 Ti0_5 3.108848 1_555
Mg2_1 Ti0_3 3.108848 1_555
Mg2_1 Mg3_1 3.185355 1_555
Mg2_1 Mg4_5 3.223583 1_555
Mg2_1 Mg4_3 3.223583 1_555
Mg2_2 Mg3_6 3.089882 1_555
Mg2_2 Mg3_0 3.089882 1_565
Mg2_2 Mg2_4 3.103476 1_465
Mg2_2 Mg2_4 3.103476 1_555
Mg2_2 Ti0_0 3.108848 1_565
Mg2_2 Ti0_6 3.108848 1_555
Mg2_2 Mg3_2 3.185355 1_555
Mg2_2 Mg4_6 3.223583 1_555
Mg2_2 Mg4_0 3.223583 1_565
Mg2_3 Mg3_7 3.089882 1_555
Mg2_3 Mg3_1 3.089882 1_565
Mg2_3 Mg2_5 3.103476 1_465
Mg2_3 Mg2_5 3.103476 1_555
Mg2_3 Ti0_7 3.108848 1_555
Mg2_3 Ti0_1 3.108848 1_565
Mg2_3 Mg3_3 3.185355 1_555
Mg2_3 Mg4_7 3.223583 1_555
Mg2_3 Mg4_1 3.223583 1_565
Mg2_4 Mg3_6 3.089882 1_555
Mg2_4 Mg3_0 3.089882 1_655
Mg2_4 Ti0_0 3.108848 1_655
Mg2_4 Ti0_6 3.108848 1_555
Mg2_4 Mg3_4 3.185355 1_555
Mg2_4 Mg4_6 3.223583 1_555
Mg2_4 Mg4_0 3.223583 1_655
Mg2_5 Mg3_7 3.089882 1_555
Mg2_5 Mg3_1 3.089882 1_655
Mg2_5 Ti0_7 3.108848 1_555
Mg2_5 Ti0_1 3.108848 1_655
Mg2_5 Mg3_5 3.185355 1_555
Mg2_5 Mg4_1 3.223583 1_655
Mg2_5 Mg4_7 3.223583 1_555
Mg2_6 Mg3_4 3.089882 1_565
Mg2_6 Mg3_2 3.089882 1_655
Mg2_6 Ti0_4 3.108848 1_565
Mg2_6 Ti0_2 3.108848 1_655
Mg2_6 Mg3_6 3.185355 1_555
Mg2_6 Mg4_2 3.223583 1_655
Mg2_6 Mg4_4 3.223583 1_565
Mg2_7 Mg3_3 3.089882 1_655
Mg2_7 Mg3_5 3.089882 1_565
Mg2_7 Ti0_5 3.108848 1_565
Mg2_7 Ti0_3 3.108848 1_655
Mg2_7 Mg3_7 3.185355 1_555
Mg2_7 Mg4_5 3.223583 1_565
Mg2_7 Mg4_3 3.223583 1_655
Mg3_0 Ti0_0 3.068076 1_555
Mg3_0 Mg3_6 3.103476 1_545
Mg3_0 Mg3_6 3.103476 1_455
Mg3_0 Mg4_4 3.178802 1_555
Mg3_0 Mg4_2 3.178802 1_555
Mg3_1 Ti0_1 3.068076 1_555
Mg3_1 Mg3_7 3.103476 1_455
Mg3_1 Mg3_7 3.103476 1_545
Mg3_1 Mg4_3 3.178802 1_555
Mg3_1 Mg4_5 3.178802 1_555
Mg3_2 Ti0_2 3.068076 1_555
Mg3_2 Mg3_4 3.103476 1_465
Mg3_2 Mg3_4 3.103476 1_555
Mg3_2 Mg4_0 3.178802 1_565
Mg3_2 Mg4_6 3.178802 1_555
Mg3_3 Ti0_3 3.068076 1_555
Mg3_3 Mg3_5 3.103476 1_465
Mg3_3 Mg3_5 3.103476 1_555
Mg3_3 Mg4_1 3.178802 1_565
Mg3_3 Mg4_7 3.178802 1_555
Mg3_4 Ti0_4 3.068076 1_555
Mg3_4 Mg4_6 3.178802 1_555
Mg3_4 Mg4_0 3.178802 1_655
Mg3_5 Ti0_5 3.068076 1_555
Mg3_5 Mg4_1 3.178802 1_655
Mg3_5 Mg4_7 3.178802 1_555
Mg3_6 Ti0_6 3.068076 1_555
Mg3_6 Mg4_2 3.178802 1_655
Mg3_6 Mg4_4 3.178802 1_565
Mg3_7 Ti0_7 3.068076 1_555
Mg3_7 Mg4_5 3.178802 1_565
Mg3_7 Mg4_3 3.178802 1_655
Mg4_0 Mg4_6 3.103476 1_545
Mg4_0 Mg4_6 3.103476 1_455
Mg4_0 Ti0_5 3.107802 1_455
Mg4_0 Ti0_3 3.107802 1_545
Mg4_1 Mg4_7 3.103476 1_455
Mg4_1 Mg4_7 3.103476 1_545
Mg4_1 Ti0_4 3.107802 1_456
Mg4_1 Ti0_2 3.107802 1_546
Mg4_2 Mg4_4 3.103476 1_465
Mg4_2 Mg4_4 3.103476 1_555
Mg4_2 Ti0_1 3.107802 1_555
Mg4_2 Ti0_7 3.107802 1_455
Mg4_3 Mg4_5 3.103476 1_465
Mg4_3 Mg4_5 3.103476 1_555
Mg4_3 Ti0_6 3.107802 1_456
Mg4_3 Ti0_0 3.107802 1_556
Mg4_4 Ti0_1 3.107802 1_555
Mg4_4 Ti0_7 3.107802 1_545
Mg4_5 Ti0_6 3.107802 1_546
Mg4_5 Ti0_0 3.107802 1_556
Mg4_6 Ti0_5 3.107802 1_555
Mg4_6 Ti0_3 3.107802 1_555
Mg4_7 Ti0_4 3.107802 1_556
Mg4_7 Ti0_2 3.107802 1_556
Ti0_0 Ti0_6 3.103476 1_545
Ti0_0 Ti0_6 3.103476 1_455
Ti0_1 Ti0_7 3.103476 1_455
Ti0_1 Ti0_7 3.103476 1_545
Ti0_2 Ti0_4 3.103476 1_555
Ti0_2 Ti0_4 3.103476 1_465
Ti0_3 Ti0_5 3.103476 1_555
Ti0_3 Ti0_5 3.103476 1_465
