# generated using pymatgen
data_Na5Ni2P(CO4)4
_symmetry_space_group_name_H-M   'P 1'
_cell_length_a   9.83044535
_cell_length_b   9.89939010
_cell_length_c   9.90302184
_cell_angle_alpha   59.52773743
_cell_angle_beta   60.21775644
_cell_angle_gamma   60.25450613
_symmetry_Int_Tables_number   1
_chemical_formula_structural   Na5Ni2P(CO4)4
_chemical_formula_sum   'Na10 Ni4 P2 C8 O32'
_cell_volume   681.38132824
_cell_formula_units_Z   2
loop_
 _symmetry_equiv_pos_site_id
 _symmetry_equiv_pos_as_xyz
  1  'x, y, z'
loop_
 _atom_site_type_symbol
 _atom_site_label
 _atom_site_symmetry_multiplicity
 _atom_site_fract_x
 _atom_site_fract_y
 _atom_site_fract_z
 _atom_site_occupancy
  Na  Na0  1  0.08421186  0.65371990  0.09334410  1
  Na  Na1  1  0.08495845  0.09391723  0.65227463  1
  Na  Na2  1  0.66872414  0.09334410  0.65371990  1
  Na  Na3  1  0.66885069  0.65227463  0.09391723  1
  Na  Na4  1  0.34628010  0.91578814  0.33127586  1
  Na  Na5  1  0.90665590  0.33127586  0.91578814  1
  Na  Na6  1  0.34772537  0.33114931  0.91504155  1
  Na  Na7  1  0.90608277  0.91504155  0.33114931  1
  Na  Na8  1  0.08921601  0.66078399  0.66078399  1
  Na  Na9  1  0.33921601  0.91078399  0.91078399  1
  Ni  Ni0  1  0.49949992  0.49950437  0.00112175  1
  Ni  Ni1  1  0.49987496  0.00112175  0.49950437  1
  Ni  Ni2  1  0.50049563  0.50050008  0.50012504  1
  Ni  Ni3  1  0.99887825  0.50012504  0.50050008  1
  P  P0  1  0.12866039  0.12133961  0.12133961  1
  P  P1  1  0.87866039  0.87133961  0.87133961  1
  C  C0  1  0.28284561  0.28545441  0.28588674  1
  C  C1  1  0.64581325  0.28588674  0.28545441  1
  C  C2  1  0.28333741  0.64990956  0.28336003  1
  C  C3  1  0.28339301  0.28336003  0.64990956  1
  C  C4  1  0.71411326  0.35418675  0.71715439  1
  C  C5  1  0.71454559  0.71715439  0.35418675  1
  C  C6  1  0.35009044  0.71666259  0.71660699  1
  C  C7  1  0.71663997  0.71660699  0.71666259  1
  O  O0  1  0.32041969  0.05900395  0.05931789  1
  O  O1  1  0.06125947  0.05931789  0.05900395  1
  O  O2  1  0.06507442  0.31409878  0.05771669  1
  O  O3  1  0.06311111  0.05771669  0.31409878  1
  O  O4  1  0.65079829  0.14238433  0.30948122  1
  O  O5  1  0.39733515  0.30948122  0.14238433  1
  O  O6  1  0.65278509  0.40029079  0.14065636  1
  O  O7  1  0.30626776  0.14065636  0.40029079  1
  O  O8  1  0.14551874  0.40398523  0.31064466  1
  O  O9  1  0.63985037  0.31064466  0.40398523  1
  O  O10  1  0.30665621  0.65072049  0.14179749  1
  O  O11  1  0.40082582  0.14179749  0.65072049  1
  O  O12  1  0.85761567  0.34920171  0.60266485  1
  O  O13  1  0.69051878  0.60266485  0.34920171  1
  O  O14  1  0.40062896  0.65337671  0.30610551  1
  O  O15  1  0.13988882  0.30610551  0.65337671  1
  O  O16  1  0.85934364  0.69373224  0.34721491  1
  O  O17  1  0.59970921  0.34721491  0.69373224  1
  O  O18  1  0.30687132  0.39928245  0.65374814  1
  O  O19  1  0.14009809  0.65374814  0.39928245  1
  O  O20  1  0.68935534  0.36014963  0.85448126  1
  O  O21  1  0.59601477  0.85448126  0.36014963  1
  O  O22  1  0.34927951  0.69334379  0.59917418  1
  O  O23  1  0.85820251  0.59917418  0.69334379  1
  O  O24  1  0.69389449  0.86011118  0.59937104  1
  O  O25  1  0.34662329  0.59937104  0.86011118  1
  O  O26  1  0.34625186  0.85990191  0.69312868  1
  O  O27  1  0.60071755  0.69312868  0.85990191  1
  O  O28  1  0.94068211  0.93874053  0.67958031  1
  O  O29  1  0.94099605  0.67958031  0.93874053  1
  O  O30  1  0.94228331  0.93688889  0.93492558  1
  O  O31  1  0.68590122  0.93492558  0.93688889  1
loop_
_geom_bond_atom_site_label_1
_geom_bond_atom_site_label_2
_geom_bond_distance
_geom_bond_site_symmetry_2
Na0 O8 2.349465 1_555
Na0 O29 2.403722 1_454
Na0 O10 2.444662 1_555
Na0 O16 2.446290 1_455
Na0 O30 2.469594 1_454
Na0 O25 2.498586 1_554
Na1 O7 2.368309 1_555
Na1 O28 2.409173 1_445
Na1 O12 2.418613 1_455
Na1 O15 2.420452 1_555
Na1 O30 2.463504 1_445
Na1 O26 2.511039 1_545
Na2 O9 2.349466 1_555
Na2 O28 2.403713 1_545
Na2 O11 2.444662 1_555
Na2 O17 2.446290 1_555
Na2 O31 2.469591 1_545
Na2 O24 2.498586 1_545
Na3 O6 2.368314 1_555
Na3 O29 2.409156 1_554
Na3 O13 2.418613 1_555
Na3 O14 2.420459 1_555
Na3 O31 2.463498 1_554
Na3 O27 2.511045 1_554
Na4 O21 2.349470 1_555
Na4 O0 2.403713 1_565
Na4 O22 2.444662 1_555
Na4 O7 2.446290 1_565
Na4 O3 2.469590 1_565
Na4 O14 2.498586 1_555
Na5 O20 2.349460 1_555
Na5 O1 2.403717 1_656
Na5 O23 2.444662 1_555
Na5 O6 2.446290 1_556
Na5 O2 2.469599 1_656
Na5 O15 2.498586 1_655
Na6 O17 2.368310 1_555
Na6 O0 2.409156 1_556
Na6 O5 2.418613 1_556
Na6 O25 2.420462 1_555
Na6 O2 2.463498 1_556
Na6 O18 2.511036 1_555
Na7 O16 2.368304 1_555
Na7 O1 2.409163 1_665
Na7 O4 2.418613 1_565
Na7 O24 2.420458 1_555
Na7 O3 2.463515 1_665
Na7 O19 2.511041 1_655
Na8 O19 2.413076 1_555
Na8 O18 2.413076 1_555
Na8 O29 2.449626 1_455
Na8 O28 2.449626 1_455
Na8 O22 2.465915 1_555
Na8 O23 2.465915 1_455
Na9 O26 2.413076 1_555
Na9 O27 2.413076 1_555
Na9 O1 2.449630 1_566
Na9 O0 2.449635 1_566
Na9 O10 2.465915 1_556
Na9 O11 2.465915 1_565
Ni0 O20 2.068767 1_554
Ni0 O5 2.077068 1_555
Ni0 O6 2.089999 1_555
Ni0 O25 2.096717 1_554
Ni0 O27 2.100291 1_554
Ni0 O10 2.109746 1_555
Ni1 O21 2.068767 1_545
Ni1 O4 2.077056 1_555
Ni1 O7 2.090007 1_555
Ni1 O24 2.096709 1_545
Ni1 O26 2.100296 1_545
Ni1 O11 2.109744 1_555
Ni2 O9 2.068767 1_555
Ni2 O13 2.077067 1_555
Ni2 O17 2.090007 1_555
Ni2 O14 2.096710 1_555
Ni2 O18 2.100291 1_555
Ni2 O22 2.109752 1_555
Ni3 O8 2.068767 1_655
Ni3 O12 2.077052 1_555
Ni3 O16 2.090002 1_555
Ni3 O15 2.096715 1_655
Ni3 O19 2.100299 1_655
Ni3 O23 2.109752 1_555
C0 O8 1.284730 1_555
C0 O7 1.294521 1_555
C0 O5 1.294893 1_555
C1 O9 1.284725 1_555
C1 O6 1.294521 1_555
C1 O4 1.294898 1_555
C2 O14 1.298656 1_555
C2 O19 1.298996 1_555
C2 O10 1.299652 1_555
C3 O15 1.298656 1_555
C3 O18 1.298996 1_555
C3 O11 1.299652 1_555
C4 O20 1.284735 1_555
C4 O17 1.294521 1_555
C4 O12 1.294894 1_555
C5 O21 1.284731 1_555
C5 O16 1.294521 1_555
C5 O13 1.294888 1_555
C6 O25 1.298656 1_555
C6 O26 1.298996 1_555
C6 O22 1.299652 1_555
C7 O24 1.298656 1_555
C7 O27 1.298996 1_555
C7 O23 1.299652 1_555
O0 P0 1.546445 1_555
O1 P0 1.546437 1_555
O2 P0 1.554726 1_555
O3 P0 1.554726 1_555
O28 P1 1.546445 1_555
O29 P1 1.546445 1_555
O30 P1 1.554718 1_555
O31 P1 1.554726 1_555
