# generated using pymatgen
data_Ba2CdGe2O7
_symmetry_space_group_name_H-M   'P 1'
_cell_length_a   8.69067111
_cell_length_b   8.69067111
_cell_length_c   5.55830529
_cell_angle_alpha   90.00000000
_cell_angle_beta   90.00000000
_cell_angle_gamma   90.00000000
_symmetry_Int_Tables_number   1
_chemical_formula_structural   Ba2CdGe2O7
_chemical_formula_sum   'Ba4 Cd2 Ge4 O14'
_cell_volume   419.80637209
_cell_formula_units_Z   2
loop_
 _symmetry_equiv_pos_site_id
 _symmetry_equiv_pos_as_xyz
  1  'x, y, z'
loop_
 _atom_site_type_symbol
 _atom_site_label
 _atom_site_symmetry_multiplicity
 _atom_site_fract_x
 _atom_site_fract_y
 _atom_site_fract_z
 _atom_site_occupancy
  Ba  Ba0  1  0.16510798  0.33489202  0.50706740  1
  Ba  Ba1  1  0.83489202  0.66510798  0.50706740  1
  Ba  Ba2  1  0.66510798  0.16510798  0.49293260  1
  Ba  Ba3  1  0.33489202  0.83489202  0.49293260  1
  Cd  Cd0  1  0.00000000  -0.00000000  -0.00000000  1
  Cd  Cd1  1  0.50000000  0.50000000  -0.00000000  1
  Ge  Ge0  1  0.63721996  0.86278004  0.94732728  1
  Ge  Ge1  1  0.36278004  0.13721996  0.94732728  1
  Ge  Ge2  1  0.13721996  0.63721996  0.05267272  1
  Ge  Ge3  1  0.86278004  0.36278004  0.05267272  1
  O  O0  1  0.00000000  0.50000000  0.16486859  1
  O  O1  1  0.50000000  -0.00000000  0.83513141  1
  O  O2  1  0.63973888  0.86026112  0.25807661  1
  O  O3  1  0.36026112  0.13973888  0.25807661  1
  O  O4  1  0.13973888  0.63973888  0.74192339  1
  O  O5  1  0.86026112  0.36026112  0.74192339  1
  O  O6  1  0.07689807  0.80311568  0.20915003  1
  O  O7  1  0.92310193  0.19688432  0.20915003  1
  O  O8  1  0.19688432  0.07689807  0.79084997  1
  O  O9  1  0.42310193  0.30311568  0.79084997  1
  O  O10  1  0.80311568  0.92310193  0.79084997  1
  O  O11  1  0.57689807  0.69688432  0.79084997  1
  O  O12  1  0.30311568  0.57689807  0.20915003  1
  O  O13  1  0.69688432  0.42310193  0.20915003  1
loop_
_geom_bond_atom_site_label_1
_geom_bond_atom_site_label_2
_geom_bond_distance
_geom_bond_site_symmetry_2
Ba0 O8 2.755266 1_555
Ba0 O9 2.755266 1_555
Ba0 O3 2.769165 1_555
Ba0 O0 2.781303 1_555
Ba0 O12 2.933257 1_555
Ba0 O7 2.933257 1_455
Ba0 O5 2.961688 1_455
Ba0 O4 2.961688 1_555
Ba1 O10 2.755266 1_555
Ba1 O11 2.755266 1_555
Ba1 O2 2.769165 1_555
Ba1 O0 2.781303 1_655
Ba1 O6 2.933257 1_655
Ba1 O13 2.933257 1_555
Ba1 O4 2.961688 1_655
Ba1 O5 2.961688 1_555
Ba2 O7 2.755266 1_555
Ba2 O13 2.755266 1_555
Ba2 O5 2.769165 1_555
Ba2 O1 2.781303 1_555
Ba2 O10 2.933257 1_545
Ba2 O9 2.933257 1_555
Ba2 O3 2.961688 1_555
Ba2 O2 2.961688 1_545
Ba3 O12 2.755266 1_555
Ba3 O6 2.755266 1_555
Ba3 O4 2.769165 1_555
Ba3 O1 2.781303 1_565
Ba3 O8 2.933257 1_565
Ba3 O11 2.933257 1_555
Ba3 O3 2.961688 1_565
Ba3 O2 2.961688 1_555
Cd0 O8 2.173888 1_554
Cd0 O10 2.173888 1_444
Cd0 O7 2.173888 1_455
Cd0 O6 2.173888 1_545
Cd1 O13 2.173888 1_555
Cd1 O12 2.173888 1_555
Cd1 O9 2.173888 1_554
Cd1 O11 2.173888 1_554
Ge0 O2 1.727517 1_556
Ge0 O11 1.763496 1_555
Ge0 O10 1.763496 1_555
Ge0 O1 1.798103 1_565
Ge1 O3 1.727517 1_556
Ge1 O8 1.763496 1_555
Ge1 O9 1.763496 1_555
Ge1 O1 1.798103 1_555
Ge2 O4 1.727517 1_554
Ge2 O6 1.763496 1_555
Ge2 O12 1.763496 1_555
Ge2 O0 1.798103 1_555
Ge3 O5 1.727517 1_554
Ge3 O13 1.763496 1_555
Ge3 O7 1.763496 1_555
Ge3 O0 1.798103 1_655
