# generated using pymatgen
data_Ba2MgCuSn2F14
_symmetry_space_group_name_H-M   'P 1'
_cell_length_a   5.38862705
_cell_length_b   7.70279062
_cell_length_c   15.49843869
_cell_angle_alpha   91.55000353
_cell_angle_beta   90.39728442
_cell_angle_gamma   109.78284798
_symmetry_Int_Tables_number   1
_chemical_formula_structural   Ba2MgCuSn2F14
_chemical_formula_sum   'Ba4 Mg2 Cu2 Sn4 F28'
_cell_volume   605.02465295
_cell_formula_units_Z   2
loop_
 _symmetry_equiv_pos_site_id
 _symmetry_equiv_pos_as_xyz
  1  'x, y, z'
loop_
 _atom_site_type_symbol
 _atom_site_label
 _atom_site_symmetry_multiplicity
 _atom_site_fract_x
 _atom_site_fract_y
 _atom_site_fract_z
 _atom_site_occupancy
  Ba  Ba0  1  0.08132800  0.35031800  0.62258400  1
  Ba  Ba1  1  0.27001900  0.35138600  0.12765300  1
  Ba  Ba2  1  0.91180800  0.63348500  0.37203000  1
  Ba  Ba3  1  0.72104200  0.63530600  0.87302300  1
  Mg  Mg0  1  0.46252900  0.01071500  0.75292600  1
  Mg  Mg1  1  0.55263000  0.01272100  0.25363900  1
  Cu  Cu0  1  0.50381400  0.00584100  0.99918100  1
  Cu  Cu1  1  0.50640600  0.00655100  0.49675700  1
  Sn  Sn0  1  0.08662400  0.23012600  0.87522300  1
  Sn  Sn1  1  0.90846000  0.76485800  0.12538400  1
  Sn  Sn2  1  0.15333500  0.22697600  0.37674800  1
  Sn  Sn3  1  0.85708500  0.76461400  0.62493100  1
  F  F0  1  0.83053600  0.96220400  0.32351800  1
  F  F1  1  0.86403500  0.30770200  0.45945300  1
  F  F2  1  0.12626500  0.70490000  0.54778400  1
  F  F3  1  0.63240000  0.49852900  0.60328100  1
  F  F4  1  0.62596000  0.06465600  0.63141600  1
  F  F5  1  0.56426600  0.92850000  0.87016100  1
  F  F6  1  0.44386200  0.30600300  0.95613700  1
  F  F7  1  0.88770500  0.00874700  0.16292200  1
  F  F8  1  0.36635100  0.33874700  0.77301000  1
  F  F9  1  0.37684500  0.52301600  0.39714600  1
  F  F10  1  0.79039600  0.23561800  0.77805200  1
  F  F11  1  0.14578500  0.52012300  0.89519600  1
  F  F12  1  0.45505000  0.23589500  0.27254600  1
  F  F13  1  0.19391400  0.77114300  0.21231100  1
  F  F14  1  0.43669700  0.05724700  0.12754400  1
  F  F15  1  0.63865800  0.65801100  0.21784900  1
  F  F16  1  0.09744800  0.83296200  0.01308800  1
  F  F17  1  0.12184700  0.00770700  0.66529900  1
  F  F18  1  0.89217100  0.16409200  0.00035100  1
  F  F19  1  0.73650600  0.83351700  0.51397900  1
  F  F20  1  0.58031900  0.70381800  0.04676200  1
  F  F21  1  0.57913400  0.77164000  0.71231100  1
  F  F22  1  0.97966800  0.34088800  0.27038000  1
  F  F23  1  0.27237300  0.16396500  0.50882900  1
  F  F24  1  0.35988200  0.93004300  0.36951900  1
  F  F25  1  0.12749900  0.97018200  0.82612400  1
  F  F26  1  0.01686300  0.65949500  0.71912900  1
  F  F27  1  0.86673500  0.49855100  0.10301100  1
loop_
_geom_bond_atom_site_label_1
_geom_bond_atom_site_label_2
_geom_bond_distance
_geom_bond_site_symmetry_2
Ba0 F23 2.667791 1_555
Ba0 F4 2.692158 1_455
Ba0 F1 2.743143 1_455
Ba0 F8 2.802928 1_555
Ba0 F17 2.816583 1_555
Ba0 F3 2.819021 1_555
Ba0 F10 2.876465 1_455
Ba0 F26 2.899254 1_555
Ba0 F2 2.930855 1_555
Ba0 F3 3.020399 1_455
Ba1 F14 2.705063 1_555
Ba1 F22 2.705488 1_455
Ba1 F12 2.739663 1_555
Ba1 F27 2.798727 1_455
Ba1 F18 2.814526 1_455
Ba1 F7 2.814580 1_455
Ba1 F15 2.843506 1_555
Ba1 F6 2.876086 1_554
Ba1 F20 2.979561 1_555
Ba1 F27 3.056677 1_555
Ba2 F24 2.705933 1_655
Ba2 F9 2.749305 1_555
Ba2 F1 2.819725 1_555
Ba2 F0 2.831508 1_555
Ba2 F22 2.840618 1_555
Ba2 F15 2.841845 1_555
Ba2 F2 2.915947 1_655
Ba2 F9 2.933082 1_655
Ba2 F13 2.943788 1_655
Ba2 F19 2.989490 1_555
Ba3 F5 2.666925 1_555
Ba3 F11 2.742986 1_655
Ba3 F6 2.821907 1_555
Ba3 F8 2.843555 1_555
Ba3 F26 2.853116 1_655
Ba3 F25 2.877217 1_655
Ba3 F20 2.885550 1_556
Ba3 F21 2.924083 1_555
Ba3 F11 2.946843 1_555
Ba3 F16 2.968863 1_656
Cu0 F18 2.034003 1_556
Cu0 F14 2.075985 1_556
Cu0 F5 2.129650 1_545
Cu0 F16 2.159393 1_546
Cu0 F6 2.545823 1_555
Cu1 F23 2.030205 1_555
Cu1 F24 2.111877 1_545
Cu1 F19 2.125668 1_545
Cu1 F4 2.169466 1_555
Cu1 F1 2.547758 1_555
F0 Mg1 1.990402 1_565
F0 Sn2 2.313749 1_665
F1 Sn2 2.258471 1_655
F2 Sn3 2.047210 1_455
F3 Sn3 2.014129 1_555
F4 Mg0 2.076620 1_555
F5 Mg0 2.070359 1_565
F6 Sn0 2.187510 1_555
F7 Sn1 1.991033 1_545
F7 Mg1 2.303943 1_555
F8 Sn0 2.175488 1_555
F9 Sn2 2.201609 1_555
F10 Mg0 2.038712 1_555
F10 Sn0 2.198566 1_655
F11 Sn0 2.160193 1_555
F12 Mg1 1.975928 1_555
F12 Sn2 2.285382 1_555
F13 Sn1 2.025038 1_455
F13 Mg1 2.256746 1_565
F14 Mg1 2.119308 1_555
F15 Sn1 2.031621 1_555
F16 Sn1 2.013376 1_455
F17 Sn3 2.012218 1_445
F17 Mg0 2.269371 1_555
F18 Sn0 2.199610 1_654
F19 Sn3 1.981957 1_555
F20 Sn1 2.051546 1_555
F21 Sn3 2.039435 1_555
F21 Mg0 2.215485 1_565
F22 Sn2 2.230705 1_655
F23 Sn2 2.254713 1_555
F24 Mg1 2.085624 1_565
F25 Mg0 2.076000 1_565
F25 Sn0 2.203449 1_565
F26 Sn3 2.011647 1_455
F27 Sn1 2.006709 1_555
