# generated using pymatgen
data_PrPdPb
_symmetry_space_group_name_H-M   'P 1'
_cell_length_a   7.83359898
_cell_length_b   7.83359898
_cell_length_c   4.14377484
_cell_angle_alpha   90.00000000
_cell_angle_beta   90.00000000
_cell_angle_gamma   120.00000537
_symmetry_Int_Tables_number   1
_chemical_formula_structural   PrPdPb
_chemical_formula_sum   'Pr3 Pd3 Pb3'
_cell_volume   220.21628271
_cell_formula_units_Z   3
loop_
 _symmetry_equiv_pos_site_id
 _symmetry_equiv_pos_as_xyz
  1  'x, y, z'
loop_
 _atom_site_type_symbol
 _atom_site_label
 _atom_site_symmetry_multiplicity
 _atom_site_fract_x
 _atom_site_fract_y
 _atom_site_fract_z
 _atom_site_occupancy
  Pr  Pr0  1  0.40923720  0.40923720  0.50000000  1
  Pr  Pr1  1  0.59076280  1.00000000  0.50000000  1
  Pr  Pr2  1  1.00000000  0.59076280  0.50000000  1
  Pd  Pd0  1  0.66666700  0.33333300  0.00000000  1
  Pd  Pd1  1  0.33333300  0.66666700  -0.00000000  1
  Pd  Pd2  1  -0.00000000  0.00000000  0.50000000  1
  Pb  Pb0  1  0.74389627  0.74389627  -0.00000000  1
  Pb  Pb1  1  0.25610373  1.00000000  -0.00000000  1
  Pb  Pb2  1  1.00000000  0.25610373  0.00000000  1
loop_
_geom_bond_atom_site_label_1
_geom_bond_atom_site_label_2
_geom_bond_distance
_geom_bond_site_symmetry_2
Pd0 Pr1 3.148332 1_545
Pd0 Pr1 3.148332 1_544
Pd0 Pr2 3.148334 1_554
Pd0 Pr2 3.148334 1_555
Pd0 Pr0 3.148338 1_555
Pd0 Pr0 3.148338 1_554
Pd1 Pr2 3.148332 1_455
Pd1 Pr2 3.148332 1_454
Pd1 Pr1 3.148334 1_555
Pd1 Pr1 3.148334 1_554
Pd1 Pr0 3.148338 1_555
Pd1 Pr0 3.148338 1_554
Pd2 Pr0 3.205800 1_555
Pd2 Pr2 3.205800 1_445
Pd2 Pr1 3.205800 1_445
Pb0 Pd2 2.884027 1_665
Pb0 Pd2 2.884027 1_664
Pb0 Pd0 2.960427 1_555
Pb0 Pd1 2.960427 1_555
Pb0 Pr0 3.341470 1_554
Pb0 Pr0 3.341470 1_555
Pb0 Pr2 3.487585 1_554
Pb0 Pr1 3.487585 1_555
Pb0 Pr1 3.487585 1_554
Pb0 Pr2 3.487585 1_555
Pb1 Pd2 2.884027 1_565
Pb1 Pd2 2.884027 1_564
Pb1 Pd1 2.960420 1_555
Pb1 Pd0 2.960425 1_565
Pb1 Pr1 3.341471 1_554
Pb1 Pr1 3.341471 1_555
Pb1 Pr2 3.487584 1_455
Pb1 Pr2 3.487584 1_454
Pb1 Pr0 3.487584 1_565
Pb1 Pr0 3.487584 1_564
Pb2 Pd2 2.884027 1_655
Pb2 Pd2 2.884027 1_654
Pb2 Pd0 2.960420 1_555
Pb2 Pd1 2.960425 1_655
Pb2 Pr2 3.341471 1_555
Pb2 Pr2 3.341471 1_554
Pb2 Pr1 3.487584 1_545
Pb2 Pr1 3.487584 1_544
Pb2 Pr0 3.487584 1_654
Pb2 Pr0 3.487584 1_655
