# generated using pymatgen
data_CaMn2(PO4)2
_symmetry_space_group_name_H-M   'P 1'
_cell_length_a   9.10839816
_cell_length_b   9.10839816
_cell_length_c   17.48358691
_cell_angle_alpha   62.81307634
_cell_angle_beta   62.81307634
_cell_angle_gamma   32.47730283
_symmetry_Int_Tables_number   1
_chemical_formula_structural   CaMn2(PO4)2
_chemical_formula_sum   'Ca4 Mn8 P8 O32'
_cell_volume   685.01768796
_cell_formula_units_Z   4
loop_
 _symmetry_equiv_pos_site_id
 _symmetry_equiv_pos_as_xyz
  1  'x, y, z'
loop_
 _atom_site_type_symbol
 _atom_site_label
 _atom_site_symmetry_multiplicity
 _atom_site_fract_x
 _atom_site_fract_y
 _atom_site_fract_z
 _atom_site_occupancy
  Ca  Ca0  1  0.48036700  0.83390500  0.85572600  1
  Ca  Ca1  1  0.16489900  0.51618500  0.64541300  1
  Ca  Ca2  1  0.83390500  0.48036700  0.35572600  1
  Ca  Ca3  1  0.51618500  0.16489900  0.14541300  1
  Mn  Mn0  1  0.19747300  0.61636300  0.96046800  1
  Mn  Mn1  1  0.38340700  0.79985900  0.53935700  1
  Mn  Mn2  1  0.79985900  0.38340700  0.03935700  1
  Mn  Mn3  1  0.50440300  0.00194600  0.99875600  1
  Mn  Mn4  1  0.61636300  0.19747300  0.46046800  1
  Mn  Mn5  1  0.65182700  0.34745000  0.24997200  1
  Mn  Mn6  1  0.34745000  0.65182700  0.74997200  1
  Mn  Mn7  1  0.00194600  0.50440300  0.49875600  1
  P  P0  1  0.04996400  0.51420400  0.86729200  1
  P  P1  1  0.77026500  0.19403400  0.60914400  1
  P  P2  1  0.94715300  0.48606500  0.13352300  1
  P  P3  1  0.19403400  0.77026500  0.10914400  1
  P  P4  1  0.51420400  0.04996400  0.36729200  1
  P  P5  1  0.48606500  0.94715300  0.63352300  1
  P  P6  1  0.22618200  0.80526500  0.39107100  1
  P  P7  1  0.80526500  0.22618200  0.89107100  1
  O  O0  1  0.69890000  0.80520000  0.10755800  1
  O  O1  1  0.79735400  0.35765300  0.92851400  1
  O  O2  1  0.80520000  0.69890000  0.60755800  1
  O  O3  1  0.80560100  0.35024000  0.53857000  1
  O  O4  1  0.19025800  0.36020700  0.05537900  1
  O  O5  1  0.56527100  0.34363100  0.68889100  1
  O  O6  1  0.64809700  0.18927700  0.96004600  1
  O  O7  1  0.88620700  0.06286400  0.12956900  1
  O  O8  1  0.18927700  0.64809700  0.46004600  1
  O  O9  1  0.64072400  0.19615900  0.57321500  1
  O  O10  1  0.86944900  0.37640000  0.14466900  1
  O  O11  1  0.60295900  0.94992200  0.28748000  1
  O  O12  1  0.19615900  0.64072400  0.07321500  1
  O  O13  1  0.06286400  0.88620700  0.62956900  1
  O  O14  1  0.29989400  0.19542100  0.89355700  1
  O  O15  1  0.12429200  0.62775100  0.85536700  1
  O  O16  1  0.94992200  0.60295900  0.78748000  1
  O  O17  1  0.35024000  0.80560100  0.03857000  1
  O  O18  1  0.37640000  0.86944900  0.64466900  1
  O  O19  1  0.39852400  0.04546600  0.71273100  1
  O  O20  1  0.93413600  0.11342800  0.37020000  1
  O  O21  1  0.36020700  0.19025800  0.55537900  1
  O  O22  1  0.11342800  0.93413600  0.87020000  1
  O  O23  1  0.34363100  0.56527100  0.18889100  1
  O  O24  1  0.35765300  0.79735400  0.42851400  1
  O  O25  1  0.19542100  0.29989400  0.39355700  1
  O  O26  1  0.04546600  0.39852400  0.21273100  1
  O  O27  1  0.64262800  0.80514100  0.44538100  1
  O  O28  1  0.80514100  0.64262800  0.94538100  1
  O  O29  1  0.65463800  0.43328800  0.81092700  1
  O  O30  1  0.43328800  0.65463800  0.31092700  1
  O  O31  1  0.62775100  0.12429200  0.35536700  1
loop_
_geom_bond_atom_site_label_1
_geom_bond_atom_site_label_2
_geom_bond_distance
_geom_bond_site_symmetry_2
Ca0 O19 2.323018 1_565
Ca0 O14 2.417947 1_565
Ca0 O1 2.440188 1_555
Ca0 O22 2.521530 1_555
Ca0 O16 2.567403 1_555
Ca0 O28 2.699867 1_555
Ca0 O17 2.826791 1_556
Ca0 O29 2.855026 1_555
Ca1 O16 2.316621 1_455
Ca1 O2 2.391056 1_455
Ca1 O9 2.433490 1_555
Ca1 O13 2.529183 1_555
Ca1 O19 2.565165 1_555
Ca1 O21 2.693791 1_555
Ca1 O5 2.849184 1_555
Ca1 O8 2.868890 1_555
Ca2 O26 2.323018 1_655
Ca2 O25 2.417947 1_655
Ca2 O24 2.440188 1_555
Ca2 O20 2.521530 1_555
Ca2 O11 2.567403 1_555
Ca2 O27 2.699867 1_555
Ca2 O3 2.826791 1_555
Ca2 O30 2.855026 1_555
Ca3 O11 2.316621 1_545
Ca3 O0 2.391056 1_545
Ca3 O12 2.433490 1_555
Ca3 O7 2.529183 1_555
Ca3 O26 2.565165 1_555
Ca3 O4 2.693791 1_555
Ca3 O23 2.849184 1_555
Ca3 O6 2.868890 1_554
Mn0 O12 2.075751 1_556
Mn0 O22 2.155408 1_555
Mn0 O15 2.158714 1_555
Mn0 O4 2.196078 1_556
Mn0 O6 2.244728 1_555
Mn1 O24 2.067843 1_555
Mn1 O13 2.163745 1_555
Mn1 O18 2.164902 1_555
Mn1 O27 2.202528 1_555
Mn1 O3 2.234221 1_555
Mn2 O1 2.067843 1_554
Mn2 O7 2.163745 1_555
Mn2 O10 2.164902 1_555
Mn2 O28 2.202528 1_554
Mn2 O17 2.234221 1_555
Mn3 O28 2.101121 1_545
Mn3 O4 2.103709 1_556
Mn3 O0 2.139248 1_546
Mn3 O14 2.142114 1_555
Mn3 O6 2.643049 1_555
Mn3 O17 2.803713 1_546
Mn4 O9 2.075751 1_555
Mn4 O20 2.155408 1_555
Mn4 O31 2.158714 1_555
Mn4 O21 2.196078 1_555
Mn4 O8 2.244728 1_555
Mn5 O30 2.077532 1_555
Mn5 O23 2.088879 1_555
Mn5 O10 2.119354 1_555
Mn5 O31 2.129629 1_555
Mn5 O20 2.677900 1_555
Mn5 O7 2.692773 1_555
Mn6 O29 2.077532 1_555
Mn6 O5 2.088879 1_555
Mn6 O18 2.119354 1_555
Mn6 O15 2.129629 1_555
Mn6 O22 2.677900 1_555
Mn6 O13 2.692773 1_555
Mn7 O27 2.101121 1_455
Mn7 O21 2.103709 1_555
Mn7 O2 2.139248 1_455
Mn7 O25 2.142114 1_555
Mn7 O8 2.643049 1_555
Mn7 O3 2.803713 1_455
O0 P2 1.552745 1_555
O1 P7 1.547701 1_555
O2 P5 1.552745 1_555
O3 P1 1.567133 1_555
O4 P2 1.570926 1_455
O5 P1 1.533461 1_555
O6 P7 1.574977 1_555
O7 P3 1.561673 1_645
O8 P6 1.574977 1_555
O9 P1 1.553963 1_555
O10 P2 1.557412 1_555
O11 P4 1.522897 1_565
O12 P3 1.553963 1_555
O13 P1 1.561673 1_465
O14 P0 1.551950 1_555
O15 P0 1.557812 1_555
O16 P0 1.522897 1_655
O17 P3 1.567133 1_555
O18 P5 1.557412 1_555
O19 P5 1.508279 1_545
O20 P6 1.562435 1_645
O21 P5 1.570926 1_545
O22 P7 1.562435 1_465
O23 P3 1.533461 1_555
O24 P6 1.547701 1_555
O25 P4 1.551950 1_555
O26 P2 1.508279 1_455
O27 P4 1.575192 1_565
O28 P0 1.575192 1_655
O29 P7 1.542357 1_555
O30 P6 1.542357 1_555
O31 P4 1.557812 1_555
