# generated using pymatgen
data_LaEuS2
_symmetry_space_group_name_H-M   'P 1'
_cell_length_a   7.22128740
_cell_length_b   7.22128740
_cell_length_c   7.22128760
_cell_angle_alpha   33.32897308
_cell_angle_beta   33.32897308
_cell_angle_gamma   33.32898254
_symmetry_Int_Tables_number   1
_chemical_formula_structural   LaEuS2
_chemical_formula_sum   'La1 Eu1 S2'
_cell_volume   101.22165047
_cell_formula_units_Z   1
loop_
 _symmetry_equiv_pos_site_id
 _symmetry_equiv_pos_as_xyz
  1  'x, y, z'
loop_
 _atom_site_type_symbol
 _atom_site_label
 _atom_site_symmetry_multiplicity
 _atom_site_fract_x
 _atom_site_fract_y
 _atom_site_fract_z
 _atom_site_occupancy
  La  La0  1  0.50000000  0.50000000  0.50000000  1
  Eu  Eu0  1  -0.00000000  -0.00000000  0.00000000  1
  S  S0  1  0.25078670  0.25078670  0.25078670  1
  S  S1  1  0.74921330  0.74921330  0.74921330  1
loop_
_geom_bond_atom_site_label_1
_geom_bond_atom_site_label_2
_geom_bond_distance
_geom_bond_site_symmetry_2
La0 S0 2.945273 1_556
La0 S1 2.945273 1_554
La0 S0 2.945273 1_565
La0 S0 2.945273 1_655
La0 S1 2.945273 1_455
La0 S1 2.945273 1_545
Eu0 S1 2.926611 1_445
Eu0 S0 2.926611 1_554
Eu0 S1 2.926612 1_544
Eu0 S1 2.926612 1_454
Eu0 S0 2.926612 1_545
Eu0 S0 2.926612 1_455
