# generated using pymatgen
data_Mg(SnO2)2
_symmetry_space_group_name_H-M   'P 1'
_cell_length_a   6.72787601
_cell_length_b   6.72787601
_cell_length_c   15.76130524
_cell_angle_alpha   89.61990803
_cell_angle_beta   89.61990803
_cell_angle_gamma   58.19629371
_symmetry_Int_Tables_number   1
_chemical_formula_structural   Mg(SnO2)2
_chemical_formula_sum   'Mg6 Sn12 O24'
_cell_volume   606.29264077
_cell_formula_units_Z   6
loop_
 _symmetry_equiv_pos_site_id
 _symmetry_equiv_pos_as_xyz
  1  'x, y, z'
loop_
 _atom_site_type_symbol
 _atom_site_label
 _atom_site_symmetry_multiplicity
 _atom_site_fract_x
 _atom_site_fract_y
 _atom_site_fract_z
 _atom_site_occupancy
  Mg  Mg0  1  0.16534800  0.16534800  0.04278500  1
  Mg  Mg1  1  0.48944000  0.48944000  0.37946100  1
  Mg  Mg2  1  0.83098700  0.83098700  0.33190500  1
  Mg  Mg3  1  0.81822600  0.81822600  0.71642200  1
  Mg  Mg4  1  0.50319900  0.50319900  0.00265400  1
  Mg  Mg5  1  0.51595400  0.51595400  0.61889200  1
  Sn  Sn0  1  0.66469800  0.66469800  0.16609600  1
  Sn  Sn1  1  0.17094400  0.65791700  0.16556600  1
  Sn  Sn2  1  0.00490200  0.00490200  0.49967800  1
  Sn  Sn3  1  0.65791700  0.17094400  0.16556600  1
  Sn  Sn4  1  0.51564800  0.00131700  0.49913900  1
  Sn  Sn5  1  0.17045400  0.17045400  0.66721500  1
  Sn  Sn6  1  0.16323000  0.16323000  0.28881100  1
  Sn  Sn7  1  0.33550800  0.33550800  0.83723800  1
  Sn  Sn8  1  0.00131700  0.51564800  0.49913900  1
  Sn  Sn9  1  0.82731200  0.33294500  0.83526600  1
  Sn  Sn10  1  0.33294500  0.82731200  0.83526600  1
  Sn  Sn11  1  0.83731700  0.83731700  0.94765500  1
  O  O0  1  0.34156600  0.34156600  0.07764800  1
  O  O1  1  0.51550600  0.51550600  0.24815500  1
  O  O2  1  0.81165000  0.35730400  0.08883900  1
  O  O3  1  0.35730400  0.81165000  0.08883900  1
  O  O4  1  0.68993200  0.68993200  0.42125500  1
  O  O5  1  0.97188600  0.54372900  0.24023300  1
  O  O6  1  0.81339000  0.81339000  0.58376400  1
  O  O7  1  0.54372900  0.97188600  0.24023300  1
  O  O8  1  0.83338300  0.83338300  0.09646300  1
  O  O9  1  0.14201400  0.64217300  0.41034200  1
  O  O10  1  0.64217300  0.14201400  0.41034200  1
  O  O11  1  0.96665400  0.96665400  0.24072500  1
  O  O12  1  0.99513200  0.99513200  0.76816500  1
  O  O13  1  0.36586800  0.84044100  0.56816800  1
  O  O14  1  0.84044100  0.36586800  0.56816800  1
  O  O15  1  0.14632900  0.14632900  0.91045400  1
  O  O16  1  0.18177900  0.18177900  0.43947100  1
  O  O17  1  0.49404000  0.96031700  0.76212700  1
  O  O18  1  0.96031700  0.49404000  0.76212700  1
  O  O19  1  0.33938600  0.33938600  0.57177400  1
  O  O20  1  0.67636700  0.21421600  0.92073700  1
  O  O21  1  0.21421600  0.67636700  0.92073700  1
  O  O22  1  0.51212000  0.51212000  0.75242400  1
  O  O23  1  0.63106900  0.63106900  0.90980600  1
loop_
_geom_bond_atom_site_label_1
_geom_bond_atom_site_label_2
_geom_bond_distance
_geom_bond_site_symmetry_2
Mg0 O15 2.099350 1_554
Mg0 O3 2.146561 1_545
Mg0 O2 2.146561 1_455
Mg0 O0 2.147534 1_555
Mg1 O9 2.053370 1_555
Mg1 O10 2.053370 1_555
Mg1 O1 2.089820 1_555
Mg1 O4 2.452400 1_555
Mg2 O11 2.138888 1_555
Mg2 O4 2.167539 1_555
Mg2 O10 2.175436 1_565
Mg2 O9 2.175436 1_655
Mg2 O5 2.192990 1_555
Mg2 O7 2.192990 1_555
Mg3 O18 1.995129 1_555
Mg3 O17 1.995129 1_555
Mg3 O6 2.092068 1_555
Mg3 O12 2.239894 1_555
Mg4 O23 2.090083 1_554
Mg4 O21 2.104816 1_554
Mg4 O20 2.104816 1_554
Mg4 O0 2.230365 1_555
Mg4 O3 2.233368 1_555
Mg4 O2 2.233368 1_555
Mg5 O13 2.022076 1_555
Mg5 O14 2.022076 1_555
Mg5 O22 2.104779 1_555
Mg5 O19 2.210130 1_555
O0 Sn3 2.282694 1_555
O0 Sn1 2.282694 1_555
O1 Sn0 2.171466 1_555
O1 Sn1 2.380919 1_555
O1 Sn3 2.380919 1_555
O2 Sn0 2.144661 1_555
O2 Sn3 2.331180 1_555
O3 Sn0 2.144661 1_555
O3 Sn1 2.331180 1_555
O4 Sn4 2.167140 1_565
O4 Sn8 2.167140 1_655
O5 Sn0 2.132047 1_555
O5 Sn1 2.195510 1_655
O5 Sn6 2.304415 1_655
O6 Sn8 2.175740 1_655
O6 Sn4 2.175740 1_565
O6 Sn2 2.604086 1_665
O7 Sn0 2.132047 1_555
O7 Sn3 2.195510 1_565
O7 Sn6 2.304415 1_565
O8 Sn1 2.219801 1_655
O8 Sn3 2.219801 1_565
O8 Sn0 2.259422 1_555
O8 Sn11 2.345513 1_554
O9 Sn8 2.096506 1_555
O9 Sn2 2.538630 1_565
O10 Sn4 2.096506 1_555
O10 Sn2 2.538630 1_655
O11 Sn3 2.146813 1_565
O11 Sn1 2.146813 1_655
O11 Sn6 2.437791 1_665
O12 Sn9 2.206827 1_565
O12 Sn10 2.206827 1_655
O12 Sn5 2.594407 1_665
O13 Sn4 2.118987 1_565
O13 Sn2 2.339665 1_565
O13 Sn5 2.457079 1_565
O14 Sn8 2.118987 1_655
O14 Sn2 2.339665 1_655
O14 Sn5 2.457079 1_655
O15 Sn9 2.181980 1_455
O15 Sn10 2.181980 1_545
O15 Sn7 2.498011 1_555
O16 Sn8 2.131298 1_555
O16 Sn4 2.131298 1_555
O16 Sn2 2.279336 1_555
O16 Sn6 2.386240 1_555
O17 Sn10 2.072746 1_555
O17 Sn5 2.397320 1_565
O17 Sn7 2.469011 1_565
O18 Sn9 2.072746 1_555
O18 Sn5 2.397320 1_655
O18 Sn7 2.469011 1_655
O19 Sn8 2.250283 1_555
O19 Sn4 2.250283 1_555
O19 Sn5 2.482442 1_555
O20 Sn9 2.075275 1_555
O20 Sn11 2.209109 1_545
O20 Sn7 2.389614 1_555
O21 Sn10 2.075275 1_555
O21 Sn11 2.209109 1_455
O21 Sn7 2.389614 1_555
O22 Sn10 2.230763 1_555
O22 Sn9 2.230763 1_555
O22 Sn7 2.461042 1_555
O23 Sn9 2.089474 1_555
O23 Sn10 2.089474 1_555
O23 Sn11 2.501649 1_555
