# generated using pymatgen
data_Sr4Hf3TiO12
_symmetry_space_group_name_H-M   'P 1'
_cell_length_a   5.73240616
_cell_length_b   8.23335654
_cell_length_c   5.73758242
_cell_angle_alpha   89.96234773
_cell_angle_beta   90.02071320
_cell_angle_gamma   90.01808592
_symmetry_Int_Tables_number   1
_chemical_formula_structural   Sr4Hf3TiO12
_chemical_formula_sum   'Sr4 Hf3 Ti1 O12'
_cell_volume   270.79626480
_cell_formula_units_Z   1
loop_
 _symmetry_equiv_pos_site_id
 _symmetry_equiv_pos_as_xyz
  1  'x, y, z'
loop_
 _atom_site_type_symbol
 _atom_site_label
 _atom_site_symmetry_multiplicity
 _atom_site_fract_x
 _atom_site_fract_y
 _atom_site_fract_z
 _atom_site_occupancy
  Sr  Sr0  1  0.49351300  0.24302400  0.50407500  1
  Sr  Sr1  1  0.99214600  0.24308700  0.99684300  1
  Sr  Sr2  1  0.50648700  0.75697600  0.49592500  1
  Sr  Sr3  1  0.00785400  0.75691300  0.00315700  1
  Hf  Hf0  1  0.00000000  0.50000000  0.50000000  1
  Hf  Hf1  1  0.50000000  0.50000000  0.00000000  1
  Hf  Hf2  1  0.00000000  0.00000000  0.50000000  1
  Ti  Ti0  1  0.50000000  0.00000000  0.00000000  1
  O  O0  1  0.72015500  0.01363400  0.26754800  1
  O  O1  1  0.19343300  0.48966000  0.19316700  1
  O  O2  1  0.30697400  0.51232800  0.69354400  1
  O  O3  1  0.76771700  0.99017800  0.77984000  1
  O  O4  1  0.27984500  0.98636600  0.73245200  1
  O  O5  1  0.80656700  0.51034000  0.80683300  1
  O  O6  1  0.69302600  0.48767200  0.30645600  1
  O  O7  1  0.23228300  0.00982200  0.22016000  1
  O  O8  1  0.00416200  0.24927300  0.52705700  1
  O  O9  1  0.49850300  0.24352900  0.97580200  1
  O  O10  1  0.99583800  0.75072700  0.47294300  1
  O  O11  1  0.50149700  0.75647100  0.02419800  1
loop_
_geom_bond_atom_site_label_1
_geom_bond_atom_site_label_2
_geom_bond_distance
_geom_bond_site_symmetry_2
Hf0 O10 2.070196 1_455
Hf0 O8 2.070196 1_555
Hf0 O5 2.082720 1_455
Hf0 O1 2.082720 1_555
Hf0 O2 2.082936 1_555
Hf0 O6 2.082936 1_455
Hf1 O6 2.079605 1_555
Hf1 O2 2.079605 1_554
Hf1 O1 2.079694 1_555
Hf1 O5 2.079694 1_554
Hf1 O11 2.116282 1_555
Hf1 O9 2.116282 1_554
Hf2 O8 2.058448 1_555
Hf2 O10 2.058448 1_445
Hf2 O7 2.087777 1_555
Hf2 O3 2.087777 1_445
Hf2 O0 2.088820 1_455
Hf2 O4 2.088820 1_545
O0 Ti0 1.990099 1_555
O0 Sr0 2.665112 1_555
O0 Sr2 2.771011 1_545
O0 Sr1 2.899722 1_554
O0 Sr3 3.081707 1_645
O1 Sr1 2.592723 1_454
O1 Sr3 2.675711 1_555
O1 Sr0 3.203110 1_555
O2 Sr2 2.578262 1_555
O2 Sr0 2.692031 1_555
O2 Sr3 3.187494 1_556
O3 Ti0 1.989719 1_566
O3 Sr3 2.687441 1_656
O3 Sr1 2.746238 1_565
O3 Sr2 2.929692 1_555
O3 Sr0 3.050222 1_565
O4 Ti0 1.990099 1_566
O4 Sr2 2.665112 1_555
O4 Sr0 2.771011 1_565
O4 Sr3 2.899722 1_556
O4 Sr1 3.081707 1_465
O5 Sr3 2.592723 1_656
O5 Sr1 2.675711 1_555
O5 Sr2 3.203110 1_555
O6 Sr0 2.578262 1_555
O6 Sr2 2.692031 1_555
O6 Sr1 3.187494 1_554
O7 Ti0 1.989719 1_555
O7 Sr1 2.687441 1_454
O7 Sr3 2.746238 1_545
O7 Sr0 2.929692 1_555
O7 Sr2 3.050222 1_545
O8 Sr1 2.696788 1_455
O8 Sr0 2.808793 1_555
O8 Sr0 2.930605 1_455
O8 Sr1 3.043361 1_454
O9 Ti0 2.009792 1_556
O9 Sr0 2.706719 1_555
O9 Sr1 2.832296 1_555
O9 Sr1 2.905198 1_455
O9 Sr0 3.031155 1_556
O10 Sr3 2.696788 1_655
O10 Sr2 2.808793 1_555
O10 Sr2 2.930605 1_655
O10 Sr3 3.043361 1_656
O11 Ti0 2.009792 1_565
O11 Sr2 2.706719 1_555
O11 Sr3 2.832296 1_555
O11 Sr3 2.905198 1_655
O11 Sr2 3.031155 1_554
