# generated using pymatgen
data_MoW3(SeS)4
_symmetry_space_group_name_H-M   'P 1'
_cell_length_a   3.25708581
_cell_length_b   3.25708581
_cell_length_c   36.94139800
_cell_angle_alpha   90.00000000
_cell_angle_beta   90.00000000
_cell_angle_gamma   119.99999616
_symmetry_Int_Tables_number   1
_chemical_formula_structural   MoW3(SeS)4
_chemical_formula_sum   'Mo1 W3 Se4 S4'
_cell_volume   339.39260592
_cell_formula_units_Z   1
loop_
 _symmetry_equiv_pos_site_id
 _symmetry_equiv_pos_as_xyz
  1  'x, y, z'
loop_
 _atom_site_type_symbol
 _atom_site_label
 _atom_site_symmetry_multiplicity
 _atom_site_fract_x
 _atom_site_fract_y
 _atom_site_fract_z
 _atom_site_occupancy
  Mo  Mo0  1  0.00000000  0.00000000  0.09391000  1
  W  W0  1  0.00000000  0.00000000  0.46971900  1
  W  W1  1  0.33333300  0.66666700  0.28175800  1
  W  W2  1  0.33333300  0.66666700  0.65756600  1
  Se  Se0  1  0.00000000  0.00000000  0.32797200  1
  Se  Se1  1  0.33333300  0.66666700  0.42346700  1
  Se  Se2  1  0.33333300  0.66666700  0.51591100  1
  Se  Se3  1  0.00000000  0.00000000  0.23551400  1
  S  S0  1  0.00000000  0.00000000  0.69952400  1
  S  S1  1  0.33333300  0.66666700  0.05215700  1
  S  S2  1  0.33333300  0.66666700  0.13565900  1
  S  S3  1  0.00000000  0.00000000  0.61559000  1
loop_
_geom_bond_atom_site_label_1
_geom_bond_atom_site_label_2
_geom_bond_distance
_geom_bond_site_symmetry_2
Mo0 S2 2.432032 1_545
Mo0 S2 2.432035 1_555
Mo0 S2 2.432035 1_445
Mo0 S1 2.432126 1_545
Mo0 S1 2.432128 1_555
Mo0 S1 2.432128 1_445
Se0 W1 2.539835 1_545
Se0 W1 2.539837 1_445
Se0 W1 2.539837 1_555
Se1 W0 2.540779 1_565
Se1 W0 2.540781 1_665
Se1 W0 2.540781 1_555
Se2 W0 2.539289 1_565
Se2 W0 2.539291 1_665
Se2 W0 2.539291 1_555
Se3 W1 2.540580 1_545
Se3 W1 2.540582 1_445
Se3 W1 2.540582 1_555
S0 W2 2.436936 1_545
S0 W2 2.436938 1_445
S0 W2 2.436938 1_555
S3 W2 2.437359 1_545
S3 W2 2.437361 1_445
S3 W2 2.437361 1_555
