# generated using pymatgen
data_Li4Co(BO3)2
_symmetry_space_group_name_H-M   'P 1'
_cell_length_a   3.29913600
_cell_length_b   7.87792600
_cell_length_c   9.27579300
_cell_angle_alpha   90.00000000
_cell_angle_beta   90.00000000
_cell_angle_gamma   90.00000000
_symmetry_Int_Tables_number   1
_chemical_formula_structural   Li4Co(BO3)2
_chemical_formula_sum   'Li8 Co2 B4 O12'
_cell_volume   241.08109984
_cell_formula_units_Z   2
loop_
 _symmetry_equiv_pos_site_id
 _symmetry_equiv_pos_as_xyz
  1  'x, y, z'
loop_
 _atom_site_type_symbol
 _atom_site_label
 _atom_site_symmetry_multiplicity
 _atom_site_fract_x
 _atom_site_fract_y
 _atom_site_fract_z
 _atom_site_occupancy
  Li  Li0  1  0.50000000  0.17871200  0.05308200  1
  Li  Li1  1  0.00000000  0.00829300  0.20026000  1
  Li  Li2  1  0.50000000  0.50829300  0.29974000  1
  Li  Li3  1  0.00000000  0.67871200  0.44691800  1
  Li  Li4  1  0.00000000  0.32128800  0.55308200  1
  Li  Li5  1  0.50000000  0.49170700  0.70026000  1
  Li  Li6  1  0.00000000  0.99170700  0.79974000  1
  Li  Li7  1  0.50000000  0.82128800  0.94691800  1
  Co  Co0  1  0.00000000  0.50000000  0.00000000  1
  Co  Co1  1  0.50000000  0.00000000  0.50000000  1
  B  B0  1  0.50000000  0.76888800  0.20129500  1
  B  B1  1  0.00000000  0.26888800  0.29870500  1
  B  B2  1  0.00000000  0.73111200  0.70129500  1
  B  B3  1  0.50000000  0.23111200  0.79870500  1
  O  O0  1  0.50000000  0.61852600  0.11471000  1
  O  O1  1  0.00000000  0.25500700  0.14902900  1
  O  O2  1  0.50000000  0.92295100  0.13487600  1
  O  O3  1  0.00000000  0.42295100  0.36512400  1
  O  O4  1  0.50000000  0.75500700  0.35097100  1
  O  O5  1  0.00000000  0.11852600  0.38529000  1
  O  O6  1  0.00000000  0.88147400  0.61471000  1
  O  O7  1  0.50000000  0.24499300  0.64902900  1
  O  O8  1  0.00000000  0.57704900  0.63487600  1
  O  O9  1  0.50000000  0.07704900  0.86512400  1
  O  O10  1  0.00000000  0.74499300  0.85097100  1
  O  O11  1  0.50000000  0.38147400  0.88529000  1
loop_
_geom_bond_atom_site_label_1
_geom_bond_atom_site_label_2
_geom_bond_distance
_geom_bond_site_symmetry_2
Li0 O9 1.918614 1_554
Li0 O1 1.968351 1_655
Li0 O1 1.968351 1_555
Li0 O2 2.152979 1_545
Li0 O11 2.230224 1_554
Li1 O2 1.881732 1_445
Li1 O2 1.881732 1_545
Li1 O5 1.923491 1_555
Li1 O1 2.000846 1_555
Li2 O3 1.881732 1_655
Li2 O3 1.881732 1_555
Li2 O0 1.923491 1_555
Li2 O4 2.000846 1_555
Li3 O8 1.918614 1_555
Li3 O4 1.968351 1_555
Li3 O4 1.968351 1_455
Li3 O3 2.152979 1_555
Li3 O6 2.230224 1_555
Li4 O3 1.918614 1_555
Li4 O7 1.968351 1_455
Li4 O7 1.968351 1_555
Li4 O8 2.152979 1_555
Li4 O5 2.230224 1_555
Li5 O8 1.881732 1_555
Li5 O8 1.881732 1_655
Li5 O11 1.923491 1_555
Li5 O7 2.000846 1_555
Li6 O9 1.881732 1_565
Li6 O9 1.881732 1_465
Li6 O6 1.923491 1_555
Li6 O10 2.000846 1_555
Li7 O2 1.918614 1_556
Li7 O10 1.968351 1_555
Li7 O10 1.968351 1_655
Li7 O9 2.152979 1_565
Li7 O0 2.230224 1_556
Co0 O11 2.173728 1_554
Co0 O11 2.173728 1_454
Co0 O0 2.173728 1_555
Co0 O0 2.173728 1_455
Co0 O1 2.374019 1_555
Co0 O10 2.374019 1_554
Co1 O5 2.173728 1_655
Co1 O5 2.173728 1_555
Co1 O6 2.173728 1_545
Co1 O6 2.173728 1_645
Co1 O4 2.374019 1_545
Co1 O7 2.374019 1_555
B0 O2 1.361112 1_555
B0 O4 1.392664 1_555
B0 O0 1.431146 1_555
B1 O3 1.361112 1_555
B1 O1 1.392664 1_555
B1 O5 1.431146 1_555
B2 O8 1.361112 1_555
B2 O10 1.392664 1_555
B2 O6 1.431146 1_555
B3 O9 1.361112 1_555
B3 O7 1.392664 1_555
B3 O11 1.431146 1_555
