# generated using pymatgen
data_Mg16Al12Br
_symmetry_space_group_name_H-M   'P 1'
_cell_length_a   9.03215900
_cell_length_b   9.03215900
_cell_length_c   9.08160388
_cell_angle_alpha   71.56740379
_cell_angle_beta   71.56740379
_cell_angle_gamma   107.59396727
_symmetry_Int_Tables_number   1
_chemical_formula_structural   Mg16Al12Br
_chemical_formula_sum   'Mg16 Al12 Br1'
_cell_volume   596.50591168
_cell_formula_units_Z   1
loop_
 _symmetry_equiv_pos_site_id
 _symmetry_equiv_pos_as_xyz
  1  'x, y, z'
loop_
 _atom_site_type_symbol
 _atom_site_label
 _atom_site_symmetry_multiplicity
 _atom_site_fract_x
 _atom_site_fract_y
 _atom_site_fract_z
 _atom_site_occupancy
  Mg  Mg0  1  0.99841700  0.99841700  0.34255800  1
  Mg  Mg1  1  0.33485600  0.33485600  0.67994800  1
  Mg  Mg2  1  0.31087400  0.31087400  0.29265800  1
  Mg  Mg3  1  0.00227100  0.00227100  0.99728300  1
  Mg  Mg4  1  0.39479600  0.66898800  0.00662800  1
  Mg  Mg5  1  0.29370800  0.59858000  0.39987700  1
  Mg  Mg6  1  0.69200600  0.00595200  0.59283600  1
  Mg  Mg7  1  0.65218000  0.00605300  0.98771400  1
  Mg  Mg8  1  0.32339800  0.71495800  0.67739600  1
  Mg  Mg9  1  0.99756400  0.40340500  0.31898900  1
  Mg  Mg10  1  0.40340500  0.99756400  0.31898900  1
  Mg  Mg11  1  0.71495800  0.32339800  0.67739600  1
  Mg  Mg12  1  0.00605300  0.65218000  0.98771400  1
  Mg  Mg13  1  0.00595200  0.69200600  0.59283600  1
  Mg  Mg14  1  0.59858000  0.29370800  0.39987700  1
  Mg  Mg15  1  0.66898800  0.39479600  0.00662800  1
  Al  Al0  1  0.63886800  0.63886800  0.15905500  1
  Al  Al1  1  0.84118700  0.84118700  0.81084300  1
  Al  Al2  1  0.15748800  0.34622900  0.02350900  1
  Al  Al3  1  0.64110300  0.83131700  0.34415200  1
  Al  Al4  1  0.00767200  0.19555700  0.63154600  1
  Al  Al5  1  0.80779500  0.18149100  0.18537900  1
  Al  Al6  1  0.99559100  0.37677900  0.81613700  1
  Al  Al7  1  0.37677900  0.99559100  0.81613700  1
  Al  Al8  1  0.18149100  0.80779500  0.18537900  1
  Al  Al9  1  0.19555700  0.00767200  0.63154600  1
  Al  Al10  1  0.83131700  0.64110300  0.34415200  1
  Al  Al11  1  0.34622900  0.15748800  0.02350900  1
  Br  Br0  1  0.58091900  0.58091900  0.74933000  1
loop_
_geom_bond_atom_site_label_1
_geom_bond_atom_site_label_2
_geom_bond_distance
_geom_bond_site_symmetry_2
Mg0 Mg6 3.010635 1_565
Mg0 Mg13 3.010635 1_655
Mg0 Mg3 3.113831 1_664
Mg0 Mg2 3.114822 1_665
Mg1 Mg14 3.095651 1_555
Mg1 Mg5 3.095651 1_555
Mg1 Mg3 3.154135 1_555
Mg2 Mg5 3.077847 1_555
Mg2 Mg4 3.121504 1_555
Mg2 Mg9 3.145161 1_455
Mg3 Mg7 3.200726 1_455
Mg4 Mg7 3.136971 1_564
Mg4 Mg5 3.184838 1_555
Mg4 Mg9 3.275921 1_455
Mg5 Mg8 3.075893 1_555
Mg5 Mg9 3.164304 1_455
Mg6 Mg9 3.273104 1_555
Mg10 Mg7 3.095315 1_564
Mg10 Mg8 3.126596 1_555
Mg10 Mg2 3.145161 1_565
Mg10 Mg14 3.164304 1_565
Mg10 Mg5 3.196095 1_555
Mg10 Mg13 3.273104 1_555
Mg10 Mg15 3.275921 1_565
Mg11 Mg7 3.062376 1_555
Mg11 Mg14 3.075893 1_555
Mg11 Mg9 3.126596 1_555
Mg12 Mg8 3.062376 1_555
Mg12 Mg9 3.095315 1_456
Mg12 Mg15 3.136971 1_456
Mg12 Mg3 3.200726 1_565
Mg13 Mg5 3.149410 1_555
Mg14 Mg2 3.077847 1_555
Mg14 Mg6 3.149410 1_555
Mg14 Mg15 3.184838 1_555
Mg14 Mg9 3.196095 1_555
Mg15 Mg2 3.121504 1_555
Al0 Al1 2.711356 1_554
Al0 Al3 2.774084 1_555
Al0 Al10 2.774084 1_555
Al0 Mg15 2.984000 1_555
Al0 Mg4 2.984000 1_555
Al0 Mg14 3.022232 1_555
Al0 Mg5 3.022232 1_555
Al0 Mg2 3.028715 1_555
Al0 Mg7 3.132398 1_564
Al0 Mg12 3.132398 1_654
Al0 Mg3 3.330706 1_664
Al1 Al9 2.720913 1_665
Al1 Al4 2.720913 1_665
Al1 Mg3 2.989395 1_665
Al1 Mg6 2.997677 1_565
Al1 Mg13 2.997677 1_655
Al1 Mg12 3.004524 1_655
Al1 Mg7 3.004524 1_565
Al1 Br0 3.112002 1_555
Al2 Al5 2.681506 1_455
Al2 Al6 2.723582 1_454
Al2 Mg9 2.903463 1_455
Al2 Mg4 2.974604 1_555
Al2 Mg0 3.035008 1_445
Al2 Mg1 3.074607 1_554
Al2 Mg3 3.117647 1_554
Al2 Mg2 3.148215 1_555
Al2 Mg8 3.256017 1_554
Al3 Al5 2.685853 1_565
Al3 Mg5 2.975899 1_555
Al3 Mg10 2.993054 1_555
Al3 Mg8 3.028461 1_555
Al3 Mg7 3.073801 1_564
Al3 Mg0 3.115394 1_555
Al3 Mg6 3.204825 1_565
Al3 Mg3 3.213969 1_664
Al4 Al6 2.688656 1_455
Al4 Al9 2.738729 1_555
Al4 Mg9 2.913335 1_455
Al4 Mg2 2.995850 1_555
Al4 Mg6 3.041084 1_455
Al4 Mg1 3.071276 1_555
Al4 Mg11 3.154356 1_455
Al4 Mg3 3.203362 1_555
Al4 Mg7 3.211002 1_455
Al4 Mg5 3.222745 1_555
Al5 Al6 2.843771 1_554
Al5 Mg14 2.910569 1_555
Al5 Mg15 2.947602 1_555
Al5 Mg9 3.033803 1_555
Al5 Mg0 3.085257 1_545
Al5 Mg7 3.123591 1_554
Al5 Mg10 3.134866 1_545
Al5 Mg6 3.184408 1_555
Al5 Mg3 3.192779 1_654
Al6 Mg13 2.880162 1_655
Al6 Mg15 2.993724 1_556
Al6 Mg8 3.069790 1_655
Al6 Mg1 3.108685 1_655
Al6 Mg11 3.147992 1_555
Al6 Mg7 3.259808 1_555
Al6 Mg3 3.289257 1_655
Al6 Mg12 3.320612 1_655
Al6 Mg5 3.326746 1_655
Al7 Al9 2.688656 1_565
Al7 Al8 2.843771 1_556
Al7 Mg6 2.880162 1_565
Al7 Mg4 2.993724 1_556
Al7 Mg11 3.069790 1_565
Al7 Mg1 3.108685 1_565
Al7 Mg8 3.147992 1_555
Al7 Mg12 3.259808 1_555
Al7 Mg3 3.289257 1_565
Al7 Mg7 3.320612 1_565
Al7 Mg14 3.326746 1_565
Al8 Mg5 2.910569 1_555
Al8 Mg4 2.947602 1_555
Al8 Mg10 3.033803 1_555
Al8 Mg0 3.085257 1_455
Al8 Mg12 3.123591 1_554
Al8 Mg9 3.134866 1_455
Al8 Mg13 3.184408 1_555
Al8 Mg3 3.192779 1_564
Al9 Mg10 2.913335 1_545
Al9 Mg2 2.995850 1_555
Al9 Mg13 3.041084 1_545
Al9 Mg1 3.071276 1_555
Al9 Mg8 3.154356 1_545
Al9 Mg3 3.203362 1_555
Al9 Mg12 3.211002 1_545
Al9 Mg14 3.222745 1_555
Al10 Al8 2.685853 1_655
Al10 Al3 2.772678 1_555
Al10 Mg14 2.975899 1_555
Al10 Mg9 2.993054 1_555
Al10 Mg11 3.028461 1_555
Al10 Mg12 3.073801 1_654
Al10 Mg0 3.115394 1_555
Al10 Mg13 3.204825 1_655
Al10 Mg3 3.213969 1_664
Al11 Al8 2.681506 1_545
Al11 Al7 2.723582 1_544
Al11 Al2 2.751207 1_555
Al11 Mg10 2.903463 1_545
Al11 Mg15 2.974604 1_555
Al11 Mg0 3.035008 1_445
Al11 Mg1 3.074607 1_554
Al11 Mg3 3.117647 1_554
Al11 Mg2 3.148215 1_555
Al11 Mg11 3.256017 1_554
Br0 Mg15 2.901485 1_556
Br0 Mg4 2.901485 1_556
Br0 Mg1 3.010139 1_555
Br0 Mg8 3.076642 1_555
Br0 Mg11 3.076642 1_555
Br0 Mg13 3.329209 1_655
Br0 Mg6 3.329209 1_565
