# generated using pymatgen
data_UCo3B2
_symmetry_space_group_name_H-M   'P 1'
_cell_length_a   9.91851641
_cell_length_b   9.91855059
_cell_length_c   5.99899158
_cell_angle_alpha   90.00000000
_cell_angle_beta   90.00000000
_cell_angle_gamma   120.00011740
_symmetry_Int_Tables_number   1
_chemical_formula_structural   UCo3B2
_chemical_formula_sum   'U8 Co24 B16'
_cell_volume   511.09696180
_cell_formula_units_Z   8
loop_
 _symmetry_equiv_pos_site_id
 _symmetry_equiv_pos_as_xyz
  1  'x, y, z'
loop_
 _atom_site_type_symbol
 _atom_site_label
 _atom_site_symmetry_multiplicity
 _atom_site_fract_x
 _atom_site_fract_y
 _atom_site_fract_z
 _atom_site_occupancy
  U  U0_0  1  0.00000000  0.00000000  0.00000000  1
  U  U0_1  1  0.00000000  0.00000000  0.50000000  1
  U  U0_2  1  0.00000000  0.50000000  0.00000000  1
  U  U0_3  1  0.00000000  0.50000000  0.50000000  1
  U  U0_4  1  0.50000000  0.00000000  0.00000000  1
  U  U0_5  1  0.50000000  0.00000000  0.50000000  1
  U  U0_6  1  0.50000000  0.50000000  0.00000000  1
  U  U0_7  1  0.50000000  0.50000000  0.50000000  1
  Co  Co0_0  1  0.25000000  0.25000000  0.25000000  1
  Co  Co0_1  1  0.25000000  0.25000000  0.75000000  1
  Co  Co0_2  1  0.25000000  0.75000000  0.25000000  1
  Co  Co0_3  1  0.25000000  0.75000000  0.75000000  1
  Co  Co0_4  1  0.75000000  0.25000000  0.25000000  1
  Co  Co0_5  1  0.75000000  0.25000000  0.75000000  1
  Co  Co0_6  1  0.75000000  0.75000000  0.25000000  1
  Co  Co0_7  1  0.75000000  0.75000000  0.75000000  1
  Co  Co1_0  1  0.25000000  0.00000000  0.25000000  1
  Co  Co1_1  1  0.25000000  0.00000000  0.75000000  1
  Co  Co1_2  1  0.25000000  0.50000000  0.25000000  1
  Co  Co1_3  1  0.25000000  0.50000000  0.75000000  1
  Co  Co1_4  1  0.75000000  0.00000000  0.25000000  1
  Co  Co1_5  1  0.75000000  0.00000000  0.75000000  1
  Co  Co1_6  1  0.75000000  0.50000000  0.25000000  1
  Co  Co1_7  1  0.75000000  0.50000000  0.75000000  1
  Co  Co2_0  1  0.00000000  0.25000000  0.25000000  1
  Co  Co2_1  1  0.00000000  0.25000000  0.75000000  1
  Co  Co2_2  1  0.00000000  0.75000000  0.25000000  1
  Co  Co2_3  1  0.00000000  0.75000000  0.75000000  1
  Co  Co2_4  1  0.50000000  0.25000000  0.25000000  1
  Co  Co2_5  1  0.50000000  0.25000000  0.75000000  1
  Co  Co2_6  1  0.50000000  0.75000000  0.25000000  1
  Co  Co2_7  1  0.50000000  0.75000000  0.75000000  1
  B  B0_0  1  0.33333469  0.16666710  0.00000000  1
  B  B0_1  1  0.33333469  0.16666710  0.50000000  1
  B  B0_2  1  0.33333469  0.66666710  0.00000000  1
  B  B0_3  1  0.33333469  0.66666710  0.50000000  1
  B  B0_4  1  0.83333469  0.16666710  0.00000000  1
  B  B0_5  1  0.83333469  0.16666710  0.50000000  1
  B  B0_6  1  0.83333469  0.66666709  0.00000000  1
  B  B0_7  1  0.83333469  0.66666709  0.50000000  1
  B  B1_0  1  0.16666531  0.33333291  0.00000000  1
  B  B1_1  1  0.16666531  0.33333291  0.50000000  1
  B  B1_2  1  0.16666531  0.83333291  0.00000000  1
  B  B1_3  1  0.16666531  0.83333291  0.50000000  1
  B  B1_4  1  0.66666531  0.33333291  0.00000000  1
  B  B1_5  1  0.66666531  0.33333291  0.50000000  1
  B  B1_6  1  0.66666531  0.83333291  0.00000000  1
  B  B1_7  1  0.66666531  0.83333291  0.50000000  1
loop_
_geom_bond_atom_site_label_1
_geom_bond_atom_site_label_2
_geom_bond_distance
_geom_bond_site_symmetry_2
U0_0 U0_1 2.999496 1_555
U0_0 U0_1 2.999496 1_554
U0_2 U0_3 2.999496 1_555
U0_2 U0_3 2.999496 1_554
U0_4 U0_5 2.999496 1_554
U0_4 U0_5 2.999496 1_555
U0_6 U0_7 2.999496 1_555
U0_6 U0_7 2.999496 1_554
Co0_0 U0_6 2.897896 1_555
Co0_0 U0_7 2.897896 1_555
Co0_0 U0_0 2.897896 1_555
Co0_0 U0_1 2.897896 1_555
Co0_1 U0_6 2.897896 1_556
Co0_1 U0_7 2.897896 1_555
Co0_1 U0_1 2.897896 1_555
Co0_1 U0_0 2.897896 1_556
Co0_2 U0_2 2.897896 1_555
Co0_2 U0_3 2.897896 1_555
Co0_2 U0_5 2.897896 1_565
Co0_2 U0_4 2.897896 1_565
Co0_3 U0_3 2.897896 1_555
Co0_3 U0_2 2.897896 1_556
Co0_3 U0_4 2.897896 1_566
Co0_3 U0_5 2.897896 1_565
Co0_4 U0_5 2.897896 1_555
Co0_4 U0_4 2.897896 1_555
Co0_4 U0_2 2.897896 1_655
Co0_4 U0_3 2.897896 1_655
Co0_5 U0_4 2.897896 1_556
Co0_5 U0_5 2.897896 1_555
Co0_5 U0_2 2.897896 1_656
Co0_5 U0_3 2.897896 1_655
Co0_6 U0_0 2.897896 1_665
Co0_6 U0_1 2.897896 1_665
Co0_6 U0_6 2.897896 1_555
Co0_6 U0_7 2.897896 1_555
Co0_7 U0_0 2.897896 1_666
Co0_7 U0_1 2.897896 1_665
Co0_7 U0_6 2.897896 1_556
Co0_7 U0_7 2.897896 1_555
Co1_0 U0_4 2.897897 1_555
Co1_0 U0_5 2.897897 1_555
Co1_0 U0_1 2.897897 1_555
Co1_0 U0_0 2.897897 1_555
Co1_1 U0_5 2.897897 1_555
Co1_1 U0_0 2.897897 1_556
Co1_1 U0_1 2.897897 1_555
Co1_1 U0_4 2.897897 1_556
Co1_2 U0_6 2.897897 1_555
Co1_2 U0_7 2.897897 1_555
Co1_2 U0_2 2.897897 1_555
Co1_2 U0_3 2.897897 1_555
Co1_3 U0_6 2.897897 1_556
Co1_3 U0_7 2.897897 1_555
Co1_3 U0_3 2.897897 1_555
Co1_3 U0_2 2.897897 1_556
Co1_4 U0_4 2.897897 1_555
Co1_4 U0_5 2.897897 1_555
Co1_4 U0_1 2.897897 1_655
Co1_4 U0_0 2.897897 1_655
Co1_5 U0_5 2.897897 1_555
Co1_5 U0_1 2.897897 1_655
Co1_5 U0_4 2.897897 1_556
Co1_5 U0_0 2.897897 1_656
Co1_6 U0_2 2.897897 1_655
Co1_6 U0_3 2.897897 1_655
Co1_6 U0_7 2.897897 1_555
Co1_6 U0_6 2.897897 1_555
Co1_7 U0_2 2.897897 1_656
Co1_7 U0_3 2.897897 1_655
Co1_7 U0_7 2.897897 1_555
Co1_7 U0_6 2.897897 1_556
Co2_0 U0_3 2.897904 1_555
Co2_0 U0_2 2.897904 1_555
Co2_0 U0_0 2.897904 1_555
Co2_0 U0_1 2.897904 1_555
Co2_1 U0_3 2.897904 1_555
Co2_1 U0_0 2.897904 1_556
Co2_1 U0_2 2.897904 1_556
Co2_1 U0_1 2.897904 1_555
Co2_2 U0_1 2.897904 1_565
Co2_2 U0_3 2.897904 1_555
Co2_2 U0_2 2.897904 1_555
Co2_2 U0_0 2.897904 1_565
Co2_3 U0_1 2.897904 1_565
Co2_3 U0_3 2.897904 1_555
Co2_3 U0_2 2.897904 1_556
Co2_3 U0_0 2.897904 1_566
Co2_4 U0_6 2.897904 1_555
Co2_4 U0_7 2.897904 1_555
Co2_4 U0_4 2.897904 1_555
Co2_4 U0_5 2.897904 1_555
Co2_5 U0_6 2.897904 1_556
Co2_5 U0_7 2.897904 1_555
Co2_5 U0_4 2.897904 1_556
Co2_5 U0_5 2.897904 1_555
Co2_6 U0_6 2.897904 1_555
Co2_6 U0_7 2.897904 1_555
Co2_6 U0_5 2.897904 1_565
Co2_6 U0_4 2.897904 1_565
Co2_7 U0_6 2.897904 1_556
Co2_7 U0_7 2.897904 1_555
Co2_7 U0_4 2.897904 1_566
Co2_7 U0_5 2.897904 1_565
B0_0 Co2_5 2.073337 1_554
B0_0 Co2_4 2.073337 1_555
B0_0 Co1_1 2.073351 1_554
B0_0 Co1_0 2.073351 1_555
B0_0 Co0_1 2.073354 1_554
B0_0 Co0_0 2.073354 1_555
B0_0 U0_4 2.863228 1_555
B0_0 U0_6 2.863232 1_555
B0_0 U0_0 2.863237 1_555
B0_1 Co2_4 2.073337 1_555
B0_1 Co2_5 2.073337 1_555
B0_1 Co1_1 2.073351 1_555
B0_1 Co1_0 2.073351 1_555
B0_1 Co0_0 2.073354 1_555
B0_1 Co0_1 2.073354 1_555
B0_1 U0_5 2.863228 1_555
B0_1 U0_7 2.863232 1_555
B0_1 U0_1 2.863237 1_555
B0_2 Co2_6 2.073337 1_555
B0_2 Co2_7 2.073337 1_554
B0_2 Co1_2 2.073351 1_555
B0_2 Co1_3 2.073351 1_554
B0_2 Co0_2 2.073354 1_555
B0_2 Co0_3 2.073354 1_554
B0_2 U0_6 2.863228 1_555
B0_2 U0_4 2.863232 1_565
B0_2 U0_2 2.863237 1_555
B0_3 Co2_6 2.073337 1_555
B0_3 Co2_7 2.073337 1_555
B0_3 Co1_2 2.073351 1_555
B0_3 Co1_3 2.073351 1_555
B0_3 Co0_2 2.073354 1_555
B0_3 Co0_3 2.073354 1_555
B0_3 U0_7 2.863228 1_555
B0_3 U0_5 2.863232 1_565
B0_3 U0_3 2.863237 1_555
B0_4 Co2_1 2.073337 1_654
B0_4 Co2_0 2.073337 1_655
B0_4 Co1_4 2.073351 1_555
B0_4 Co1_5 2.073351 1_554
B0_4 Co0_4 2.073354 1_555
B0_4 Co0_5 2.073354 1_554
B0_4 U0_0 2.863228 1_655
B0_4 U0_2 2.863232 1_655
B0_4 U0_4 2.863237 1_555
B0_5 Co2_0 2.073337 1_655
B0_5 Co2_1 2.073337 1_655
B0_5 Co1_5 2.073351 1_555
B0_5 Co1_4 2.073351 1_555
B0_5 Co0_4 2.073354 1_555
B0_5 Co0_5 2.073354 1_555
B0_5 U0_1 2.863228 1_655
B0_5 U0_3 2.863232 1_655
B0_5 U0_5 2.863237 1_555
B0_6 Co2_3 2.073337 1_654
B0_6 Co2_2 2.073337 1_655
B0_6 Co1_6 2.073351 1_555
B0_6 Co1_7 2.073351 1_554
B0_6 Co0_6 2.073354 1_555
B0_6 Co0_7 2.073354 1_554
B0_6 U0_2 2.863228 1_655
B0_6 U0_0 2.863232 1_665
B0_6 U0_6 2.863237 1_555
B0_7 Co2_3 2.073337 1_655
B0_7 Co2_2 2.073337 1_655
B0_7 Co1_6 2.073351 1_555
B0_7 Co1_7 2.073351 1_555
B0_7 Co0_6 2.073354 1_555
B0_7 Co0_7 2.073354 1_555
B0_7 U0_3 2.863228 1_655
B0_7 U0_1 2.863232 1_665
B0_7 U0_7 2.863237 1_555
B1_0 Co2_1 2.073337 1_554
B1_0 Co2_0 2.073337 1_555
B1_0 Co1_2 2.073351 1_555
B1_0 Co1_3 2.073351 1_554
B1_0 Co0_1 2.073354 1_554
B1_0 Co0_0 2.073354 1_555
B1_0 U0_2 2.863228 1_555
B1_0 U0_0 2.863232 1_555
B1_0 U0_6 2.863237 1_555
B1_1 Co2_0 2.073337 1_555
B1_1 Co2_1 2.073337 1_555
B1_1 Co1_2 2.073351 1_555
B1_1 Co1_3 2.073351 1_555
B1_1 Co0_0 2.073354 1_555
B1_1 Co0_1 2.073354 1_555
B1_1 U0_3 2.863228 1_555
B1_1 U0_1 2.863232 1_555
B1_1 U0_7 2.863237 1_555
B1_2 Co2_3 2.073337 1_554
B1_2 Co2_2 2.073337 1_555
B1_2 Co1_1 2.073351 1_564
B1_2 Co1_0 2.073351 1_565
B1_2 Co0_3 2.073354 1_554
B1_2 Co0_2 2.073354 1_555
B1_2 U0_0 2.863228 1_565
B1_2 U0_2 2.863232 1_555
B1_2 U0_4 2.863237 1_565
B1_3 Co2_2 2.073337 1_555
B1_3 Co2_3 2.073337 1_555
B1_3 Co1_1 2.073351 1_565
B1_3 Co1_0 2.073351 1_565
B1_3 Co0_3 2.073354 1_555
B1_3 Co0_2 2.073354 1_555
B1_3 U0_1 2.863228 1_565
B1_3 U0_3 2.863232 1_555
B1_3 U0_5 2.863237 1_565
B1_4 Co2_5 2.073337 1_554
B1_4 Co2_4 2.073337 1_555
B1_4 Co1_7 2.073351 1_554
B1_4 Co1_6 2.073351 1_555
B1_4 Co0_5 2.073354 1_554
B1_4 Co0_4 2.073354 1_555
B1_4 U0_6 2.863228 1_555
B1_4 U0_4 2.863232 1_555
B1_4 U0_2 2.863237 1_655
B1_5 Co2_5 2.073337 1_555
B1_5 Co2_4 2.073337 1_555
B1_5 Co1_7 2.073351 1_555
B1_5 Co1_6 2.073351 1_555
B1_5 Co0_5 2.073354 1_555
B1_5 Co0_4 2.073354 1_555
B1_5 U0_7 2.863228 1_555
B1_5 U0_5 2.863232 1_555
B1_5 U0_3 2.863237 1_655
B1_6 Co2_6 2.073337 1_555
B1_6 Co2_7 2.073337 1_554
B1_6 Co1_4 2.073351 1_565
B1_6 Co1_5 2.073351 1_564
B1_6 Co0_6 2.073354 1_555
B1_6 Co0_7 2.073354 1_554
B1_6 U0_4 2.863228 1_565
B1_6 U0_6 2.863232 1_555
B1_6 U0_0 2.863237 1_665
B1_7 Co2_6 2.073337 1_555
B1_7 Co2_7 2.073337 1_555
B1_7 Co1_4 2.073351 1_565
B1_7 Co1_5 2.073351 1_565
B1_7 Co0_6 2.073354 1_555
B1_7 Co0_7 2.073354 1_555
B1_7 U0_5 2.863228 1_565
B1_7 U0_7 2.863232 1_555
B1_7 U0_1 2.863237 1_665
