# generated using pymatgen
data_Li2MnV3O8
_symmetry_space_group_name_H-M   'P 1'
_cell_length_a   5.96355289
_cell_length_b   10.32949419
_cell_length_c   5.97028016
_cell_angle_alpha   90.41840687
_cell_angle_beta   119.88473649
_cell_angle_gamma   106.74177907
_symmetry_Int_Tables_number   1
_chemical_formula_structural   Li2MnV3O8
_chemical_formula_sum   'Li4 Mn2 V6 O16'
_cell_volume   300.27255539
_cell_formula_units_Z   2
loop_
 _symmetry_equiv_pos_site_id
 _symmetry_equiv_pos_as_xyz
  1  'x, y, z'
loop_
 _atom_site_type_symbol
 _atom_site_label
 _atom_site_symmetry_multiplicity
 _atom_site_fract_x
 _atom_site_fract_y
 _atom_site_fract_z
 _atom_site_occupancy
  Li  Li0  1  0.12800200  0.19002800  0.06123400  1
  Li  Li1  1  0.12368800  0.69131500  0.56157500  1
  Li  Li2  1  0.87631800  0.30869100  0.43842100  1
  Li  Li3  1  0.87200200  0.80997700  0.93876100  1
  Mn  Mn0  1  0.49223900  0.75065200  0.25017700  1
  Mn  Mn1  1  0.50773800  0.24935500  0.74987500  1
  V  V0  1  0.49998300  0.99997800  0.00001400  1
  V  V1  1  0.50000300  0.99994200  0.49994100  1
  V  V2  1  0.00002200  0.50002300  0.00004100  1
  V  V3  1  0.49997800  0.50001700  0.49999300  1
  V  V4  1  0.50001600  0.49999900  0.99998200  1
  V  V5  1  0.99996100  0.99997800  0.50001600  1
  O  O0  1  0.24838100  0.39582600  0.12294100  1
  O  O1  1  0.26984100  0.89578800  0.62217100  1
  O  O2  1  0.73016500  0.10422000  0.37782500  1
  O  O3  1  0.75162200  0.60417800  0.87705400  1
  O  O4  1  0.70574000  0.62409700  0.35331300  1
  O  O5  1  0.71705900  0.12209600  0.85193500  1
  O  O6  1  0.25636500  0.62309100  0.34934600  1
  O  O7  1  0.26815700  0.12428400  0.84982300  1
  O  O8  1  0.25791400  0.62495400  0.91136900  1
  O  O9  1  0.27872000  0.12508400  0.41035400  1
  O  O10  1  0.72128200  0.87492600  0.58964000  1
  O  O11  1  0.74209000  0.37505200  0.08862400  1
  O  O12  1  0.73185300  0.87572400  0.15017500  1
  O  O13  1  0.74364100  0.37691300  0.65064300  1
  O  O14  1  0.28295500  0.87791200  0.14806800  1
  O  O15  1  0.29426700  0.37590800  0.64668600  1
loop_
_geom_bond_atom_site_label_1
_geom_bond_atom_site_label_2
_geom_bond_distance
_geom_bond_site_symmetry_2
Li0 O5 2.001125 1_454
Li0 O0 2.003965 1_555
Li0 O9 2.025654 1_555
Li0 O7 2.029447 1_554
Li1 O1 1.991376 1_555
Li1 O6 2.008822 1_555
Li1 O4 2.035320 1_455
Li1 O8 2.035458 1_555
Li2 O2 1.991357 1_555
Li2 O13 2.008778 1_555
Li2 O15 2.035325 1_655
Li2 O11 2.035472 1_555
Li3 O14 2.001173 1_656
Li3 O3 2.003975 1_555
Li3 O10 2.025683 1_555
Li3 O12 2.029447 1_556
Mn0 O10 1.953010 1_555
Mn0 O8 1.956978 1_554
Mn0 O6 1.959308 1_555
Mn0 O14 1.963677 1_555
Mn0 O12 1.966036 1_555
Mn0 O4 1.974475 1_555
Mn1 O9 1.953234 1_555
Mn1 O11 1.956738 1_556
Mn1 O13 1.959660 1_555
Mn1 O5 1.963817 1_555
Mn1 O7 1.965680 1_555
Mn1 O15 1.974335 1_555
O0 V2 1.933246 1_555
O0 V4 2.031681 1_554
O0 V3 2.036049 1_555
O1 V1 1.932057 1_555
O1 V5 2.029817 1_455
O1 V0 2.039365 1_556
O2 V1 1.932011 1_545
O2 V5 2.029836 1_545
O2 V0 2.039386 1_545
O3 V2 1.933089 1_656
O3 V4 2.031433 1_555
O3 V3 2.036003 1_555
O4 V4 2.018353 1_554
O4 V3 2.023970 1_555
O5 V1 1.998377 1_545
O5 V0 2.065090 1_546
O6 V2 1.991691 1_555
O6 V3 2.077111 1_555
O7 V5 2.004360 1_445
O7 V0 2.041626 1_546
O8 V2 1.997197 1_556
O8 V4 2.086335 1_555
O9 V1 1.996987 1_545
O9 V5 2.092685 1_445
O10 V1 1.995839 1_555
O10 V5 2.091963 1_555
O11 V2 1.997196 1_655
O11 V4 2.086128 1_554
O12 V5 2.004224 1_555
O12 V0 2.041331 1_555
O13 V2 1.992249 1_656
O13 V3 2.077562 1_555
O14 V1 1.997297 1_555
O14 V0 2.064555 1_555
O15 V4 2.018152 1_555
O15 V3 2.023971 1_555
