# generated using pymatgen
data_Cs2CaCl4
_symmetry_space_group_name_H-M   'P 1'
_cell_length_a   5.39162792
_cell_length_b   5.39162792
_cell_length_c   9.45763697
_cell_angle_alpha   106.56130045
_cell_angle_beta   106.56130045
_cell_angle_gamma   90.00000000
_symmetry_Int_Tables_number   1
_chemical_formula_structural   Cs2CaCl4
_chemical_formula_sum   'Cs2 Ca1 Cl4'
_cell_volume   251.60294121
_cell_formula_units_Z   1
loop_
 _symmetry_equiv_pos_site_id
 _symmetry_equiv_pos_as_xyz
  1  'x, y, z'
loop_
 _atom_site_type_symbol
 _atom_site_label
 _atom_site_symmetry_multiplicity
 _atom_site_fract_x
 _atom_site_fract_y
 _atom_site_fract_z
 _atom_site_occupancy
  Cs  Cs0  1  0.35648404  0.35648404  0.71296808  1
  Cs  Cs1  1  0.64351596  0.64351596  0.28703192  1
  Ca  Ca0  1  -0.00000000  -0.00000000  -0.00000000  1
  Cl  Cl0  1  0.15765065  0.15765065  0.31530329  1
  Cl  Cl1  1  0.84234935  0.84234935  0.68469671  1
  Cl  Cl2  1  -0.00000000  0.50000000  -0.00000000  1
  Cl  Cl3  1  0.50000000  -0.00000000  -0.00000000  1
loop_
_geom_bond_atom_site_label_1
_geom_bond_atom_site_label_2
_geom_bond_distance
_geom_bond_site_symmetry_2
Ca0 Cl2 2.695814 1_555
Ca0 Cl2 2.695814 1_545
Ca0 Cl3 2.695814 1_455
Ca0 Cl3 2.695814 1_555
Ca0 Cl1 2.729005 1_444
Ca0 Cl0 2.729005 1_555
Cl0 Cs0 3.441859 1_555
Cl0 Cs1 3.820294 1_445
Cl0 Cs1 3.820301 1_455
Cl0 Cs1 3.820301 1_545
Cl0 Cs1 3.820309 1_555
Cl1 Cs1 3.441859 1_555
Cl1 Cs0 3.820294 1_665
Cl1 Cs0 3.820301 1_655
Cl1 Cs0 3.820301 1_565
Cl1 Cs0 3.820309 1_555
Cl2 Cs1 3.665954 1_555
Cl2 Cs0 3.665954 1_454
Cl2 Cs1 3.665954 1_455
Cl2 Cs0 3.665954 1_554
Cl3 Cs0 3.665954 1_544
Cl3 Cs1 3.665954 1_555
Cl3 Cs1 3.665954 1_545
Cl3 Cs0 3.665954 1_554
