# generated using pymatgen
data_NaSrPH18SO12
_symmetry_space_group_name_H-M   'P 1'
_cell_length_a   10.80322605
_cell_length_b   10.80322605
_cell_length_c   10.80322605
_cell_angle_alpha   90.00000000
_cell_angle_beta   90.00000000
_cell_angle_gamma   90.00000000
_symmetry_Int_Tables_number   1
_chemical_formula_structural   NaSrPH18SO12
_chemical_formula_sum   'Na4 Sr4 P4 H72 S4 O48'
_cell_volume   1260.84119665
_cell_formula_units_Z   4
loop_
 _symmetry_equiv_pos_site_id
 _symmetry_equiv_pos_as_xyz
  1  'x, y, z'
loop_
 _atom_site_type_symbol
 _atom_site_label
 _atom_site_symmetry_multiplicity
 _atom_site_fract_x
 _atom_site_fract_y
 _atom_site_fract_z
 _atom_site_occupancy
  Na  Na0  1  0.43815534  0.93815534  0.56184466  1
  Na  Na1  1  0.93815534  0.56184466  0.43815534  1
  Na  Na2  1  0.56184466  0.43815534  0.93815534  1
  Na  Na3  1  0.06184466  0.06184466  0.06184466  1
  Sr  Sr0  1  0.18888870  0.81111130  0.31111130  1
  Sr  Sr1  1  0.68888870  0.68888870  0.68888870  1
  Sr  Sr2  1  0.31111130  0.18888870  0.81111130  1
  Sr  Sr3  1  0.81111130  0.31111130  0.18888870  1
  P  P0  1  0.69330861  0.80669139  0.19330861  1
  P  P1  1  0.80669139  0.19330861  0.69330861  1
  P  P2  1  0.30669139  0.30669139  0.30669139  1
  P  P3  1  0.19330861  0.69330861  0.80669139  1
  H  H0  1  0.26919770  0.82939420  0.01847717  1
  H  H1  1  0.98152283  0.76919770  0.67060580  1
  H  H2  1  0.32939420  0.48152283  0.73080230  1
  H  H3  1  0.76919770  0.67060580  0.98152283  1
  H  H4  1  0.48152283  0.73080230  0.32939420  1
  H  H5  1  0.82939420  0.01847717  0.26919770  1
  H  H6  1  0.73080230  0.32939420  0.48152283  1
  H  H7  1  0.01847717  0.26919770  0.82939420  1
  H  H8  1  0.67060580  0.98152283  0.76919770  1
  H  H9  1  0.23080230  0.17060580  0.51847717  1
  H  H10  1  0.51847717  0.23080230  0.17060580  1
  H  H11  1  0.17060580  0.51847717  0.23080230  1
  H  H12  1  0.39057296  0.85239678  0.09783792  1
  H  H13  1  0.90216208  0.89057296  0.64760322  1
  H  H14  1  0.35239678  0.40216208  0.60942704  1
  H  H15  1  0.89057296  0.64760322  0.90216208  1
  H  H16  1  0.40216208  0.60942704  0.35239678  1
  H  H17  1  0.85239678  0.09783792  0.39057296  1
  H  H18  1  0.60942704  0.35239678  0.40216208  1
  H  H19  1  0.09783792  0.39057296  0.85239678  1
  H  H20  1  0.64760322  0.90216208  0.89057296  1
  H  H21  1  0.10942704  0.14760322  0.59783792  1
  H  H22  1  0.59783792  0.10942704  0.14760322  1
  H  H23  1  0.14760322  0.59783792  0.10942704  1
  H  H24  1  0.40046501  0.68438074  0.66234928  1
  H  H25  1  0.33765072  0.90046501  0.81561926  1
  H  H26  1  0.18438074  0.83765072  0.59953499  1
  H  H27  1  0.90046501  0.81561926  0.33765072  1
  H  H28  1  0.83765072  0.59953499  0.18438074  1
  H  H29  1  0.68438074  0.66234928  0.40046501  1
  H  H30  1  0.59953499  0.18438074  0.83765072  1
  H  H31  1  0.66234928  0.40046501  0.68438074  1
  H  H32  1  0.81561926  0.33765072  0.90046501  1
  H  H33  1  0.09953499  0.31561926  0.16234928  1
  H  H34  1  0.16234928  0.09953499  0.31561926  1
  H  H35  1  0.31561926  0.16234928  0.09953499  1
  H  H36  1  0.43523735  0.70092604  0.52041147  1
  H  H37  1  0.47958853  0.93523735  0.79907396  1
  H  H38  1  0.20092604  0.97958853  0.56476265  1
  H  H39  1  0.93523735  0.79907396  0.47958853  1
  H  H40  1  0.97958853  0.56476265  0.20092604  1
  H  H41  1  0.70092604  0.52041147  0.43523735  1
  H  H42  1  0.56476265  0.20092604  0.97958853  1
  H  H43  1  0.52041147  0.43523735  0.70092604  1
  H  H44  1  0.79907396  0.47958853  0.93523735  1
  H  H45  1  0.06476265  0.29907396  0.02041147  1
  H  H46  1  0.02041147  0.06476265  0.29907396  1
  H  H47  1  0.29907396  0.02041147  0.06476265  1
  H  H48  1  0.03594603  0.77996553  0.04456493  1
  H  H49  1  0.95543507  0.53594603  0.72003447  1
  H  H50  1  0.27996553  0.45543507  0.96405397  1
  H  H51  1  0.53594603  0.72003447  0.95543507  1
  H  H52  1  0.45543507  0.96405397  0.27996553  1
  H  H53  1  0.77996553  0.04456493  0.03594603  1
  H  H54  1  0.96405397  0.27996553  0.45543507  1
  H  H55  1  0.04456493  0.03594603  0.77996553  1
  H  H56  1  0.72003447  0.95543507  0.53594603  1
  H  H57  1  0.46405397  0.22003447  0.54456493  1
  H  H58  1  0.54456493  0.46405397  0.22003447  1
  H  H59  1  0.22003447  0.54456493  0.46405397  1
  H  H60  1  0.94443543  0.84659601  0.13778959  1
  H  H61  1  0.86221041  0.44443543  0.65340399  1
  H  H62  1  0.34659601  0.36221041  0.05556457  1
  H  H63  1  0.44443543  0.65340399  0.86221041  1
  H  H64  1  0.36221041  0.05556457  0.34659601  1
  H  H65  1  0.84659601  0.13778959  0.94443543  1
  H  H66  1  0.05556457  0.34659601  0.36221041  1
  H  H67  1  0.13778959  0.94443543  0.84659601  1
  H  H68  1  0.65340399  0.86221041  0.44443543  1
  H  H69  1  0.55556457  0.15340399  0.63778959  1
  H  H70  1  0.63778959  0.55556457  0.15340399  1
  H  H71  1  0.15340399  0.63778959  0.55556457  1
  S  S0  1  0.58380155  0.91619845  0.08380155  1
  S  S1  1  0.91619845  0.08380155  0.58380155  1
  S  S2  1  0.41619845  0.41619845  0.41619845  1
  S  S3  1  0.08380155  0.58380155  0.91619845  1
  O  O0  1  0.29985878  0.85585975  0.10128658  1
  O  O1  1  0.89871342  0.79985878  0.64414025  1
  O  O2  1  0.35585975  0.39871342  0.70014122  1
  O  O3  1  0.79985878  0.64414025  0.89871342  1
  O  O4  1  0.39871342  0.70014122  0.35585975  1
  O  O5  1  0.85585975  0.10128658  0.29985878  1
  O  O6  1  0.70014122  0.35585975  0.39871342  1
  O  O7  1  0.10128658  0.29985878  0.85585975  1
  O  O8  1  0.64414025  0.89871342  0.79985878  1
  O  O9  1  0.20014122  0.14414025  0.60128658  1
  O  O10  1  0.60128658  0.20014122  0.14414025  1
  O  O11  1  0.14414025  0.60128658  0.20014122  1
  O  O12  1  0.46298975  0.71866864  0.60510988  1
  O  O13  1  0.39489012  0.96298975  0.78133136  1
  O  O14  1  0.21866864  0.89489012  0.53701025  1
  O  O15  1  0.96298975  0.78133136  0.39489012  1
  O  O16  1  0.89489012  0.53701025  0.21866864  1
  O  O17  1  0.71866864  0.60510988  0.46298975  1
  O  O18  1  0.53701025  0.21866864  0.89489012  1
  O  O19  1  0.60510988  0.46298975  0.71866864  1
  O  O20  1  0.78133136  0.39489012  0.96298975  1
  O  O21  1  0.03701025  0.28133136  0.10510988  1
  O  O22  1  0.10510988  0.03701025  0.28133136  1
  O  O23  1  0.28133136  0.10510988  0.03701025  1
  O  O24  1  0.03098704  0.84397578  0.10754469  1
  O  O25  1  0.89245531  0.53098704  0.65602422  1
  O  O26  1  0.34397578  0.39245531  0.96901296  1
  O  O27  1  0.53098704  0.65602422  0.89245531  1
  O  O28  1  0.39245531  0.96901296  0.34397578  1
  O  O29  1  0.84397578  0.10754469  0.03098704  1
  O  O30  1  0.96901296  0.34397578  0.39245531  1
  O  O31  1  0.10754469  0.03098704  0.84397578  1
  O  O32  1  0.65602422  0.89245531  0.53098704  1
  O  O33  1  0.46901296  0.15602422  0.60754469  1
  O  O34  1  0.60754469  0.46901296  0.15602422  1
  O  O35  1  0.15602422  0.60754469  0.46901296  1
  O  O36  1  0.22009113  0.81455427  0.87555448  1
  O  O37  1  0.12444552  0.72009113  0.68544573  1
  O  O38  1  0.31455427  0.62444552  0.77990887  1
  O  O39  1  0.72009113  0.68544573  0.12444552  1
  O  O40  1  0.62444552  0.77990887  0.31455427  1
  O  O41  1  0.81455427  0.87555448  0.22009113  1
  O  O42  1  0.77990887  0.31455427  0.62444552  1
  O  O43  1  0.87555448  0.22009113  0.81455427  1
  O  O44  1  0.68544573  0.12444552  0.72009113  1
  O  O45  1  0.27990887  0.18544573  0.37555448  1
  O  O46  1  0.37555448  0.27990887  0.18544573  1
  O  O47  1  0.18544573  0.37555448  0.27990887  1
loop_
_geom_bond_atom_site_label_1
_geom_bond_atom_site_label_2
_geom_bond_distance
_geom_bond_site_symmetry_2
Na0 O33 2.427904 1_565
Na0 O28 2.427904 1_555
Na0 O32 2.427904 1_555
Na0 O14 2.431639 1_555
Na0 O13 2.431639 1_555
Na0 O12 2.431639 1_555
Na1 O35 2.427904 1_655
Na1 O30 2.427904 1_555
Na1 O25 2.427904 1_555
Na1 O16 2.431639 1_555
Na1 O17 2.431639 1_555
Na1 O15 2.431639 1_555
Na2 O34 2.427904 1_556
Na2 O26 2.427904 1_555
Na2 O27 2.427904 1_555
Na2 O18 2.431639 1_555
Na2 O19 2.431639 1_555
Na2 O20 2.431639 1_555
Na3 O24 2.427904 1_545
Na3 O29 2.427904 1_455
Na3 O31 2.427904 1_554
Na3 O23 2.431639 1_555
Na3 O22 2.431639 1_555
Na3 O21 2.431639 1_555
P0 S0 2.049067 1_555
P1 S1 2.049067 1_555
P2 S2 2.049067 1_555
P3 S3 2.049067 1_555
H0 O0 0.995887 1_555
H0 O36 1.640475 1_554
H1 O1 0.995887 1_555
H1 O37 1.640475 1_655
H2 O2 0.995887 1_555
H2 O38 1.640475 1_555
H3 O3 0.995887 1_555
H3 O39 1.640475 1_556
H4 O4 0.995887 1_555
H4 O40 1.640475 1_555
H5 O5 0.995887 1_555
H5 O41 1.640475 1_545
H6 O6 0.995887 1_555
H6 O42 1.640475 1_555
H7 O7 0.995887 1_555
H7 O43 1.640475 1_455
H8 O8 0.995887 1_555
H8 O44 1.640475 1_565
H9 O9 0.995887 1_555
H9 O45 1.640475 1_555
H10 O10 0.995887 1_555
H10 O46 1.640475 1_555
H11 O11 0.995887 1_555
H11 O47 1.640475 1_555
H12 O0 0.981427 1_555
H13 O1 0.981427 1_555
H14 O2 0.981427 1_555
H15 O3 0.981427 1_555
H16 O4 0.981427 1_555
H17 O5 0.981427 1_555
H18 O6 0.981427 1_555
H19 O7 0.981427 1_555
H20 O8 0.981427 1_555
H21 O9 0.981427 1_555
H22 O10 0.981427 1_555
H23 O11 0.981427 1_555
H24 O12 0.987852 1_555
H24 O38 1.701059 1_555
H25 O13 0.987852 1_555
H25 O36 1.701059 1_555
H26 O14 0.987852 1_555
H26 O37 1.701059 1_555
H27 O15 0.987852 1_555
H27 O41 1.701059 1_555
H28 O16 0.987852 1_555
H28 O39 1.701059 1_555
H29 O17 0.987852 1_555
H29 O40 1.701059 1_555
H30 O18 0.987852 1_555
H30 O44 1.701059 1_555
H31 O19 0.987852 1_555
H31 O42 1.701059 1_555
H32 O20 0.987852 1_555
H32 O43 1.701059 1_555
H33 O21 0.987852 1_555
H33 O47 1.701059 1_555
H34 O22 0.987852 1_555
H34 O45 1.701059 1_555
H35 O23 0.987852 1_555
H35 O46 1.701059 1_555
H36 O12 0.981776 1_555
H37 O13 0.981776 1_555
H38 O14 0.981776 1_555
H39 O15 0.981776 1_555
H40 O16 0.981776 1_555
H41 O17 0.981776 1_555
H42 O18 0.981776 1_555
H43 O19 0.981776 1_555
H44 O20 0.981776 1_555
H45 O21 0.981776 1_555
H46 O22 0.981776 1_555
H47 O23 0.981776 1_555
H48 O24 0.971591 1_555
H49 O25 0.971591 1_555
H50 O26 0.971591 1_555
H51 O27 0.971591 1_555
H52 O28 0.971591 1_555
H53 O29 0.971591 1_555
H54 O30 0.971591 1_555
H55 O31 0.971591 1_555
H56 O32 0.971591 1_555
H57 O33 0.971591 1_555
H58 O34 0.971591 1_555
H59 O35 0.971591 1_555
H60 O24 0.990886 1_655
H60 O41 1.690325 1_555
H61 O25 0.990886 1_555
H61 O42 1.690325 1_555
H62 O26 0.990886 1_554
H62 O46 1.690325 1_555
H63 O27 0.990886 1_555
H63 O38 1.690325 1_555
H64 O28 0.990886 1_545
H64 O45 1.690325 1_555
H65 O29 0.990886 1_556
H65 O43 1.690325 1_555
H66 O30 0.990886 1_455
H66 O47 1.690325 1_555
H67 O31 0.990886 1_565
H67 O36 1.690325 1_555
H68 O32 0.990886 1_555
H68 O40 1.690325 1_555
H69 O33 0.990886 1_555
H69 O44 1.690325 1_555
H70 O34 0.990886 1_555
H70 O39 1.690325 1_555
H71 O35 0.990886 1_555
H71 O37 1.690325 1_555
O0 Sr0 2.609448 1_555
O1 Sr1 2.609448 1_555
O2 Sr2 2.609448 1_555
O3 Sr1 2.609448 1_555
O4 Sr0 2.609448 1_555
O5 Sr3 2.609448 1_555
O6 Sr3 2.609448 1_555
O7 Sr2 2.609448 1_555
O8 Sr1 2.609448 1_555
O9 Sr2 2.609448 1_555
O10 Sr3 2.609448 1_555
O11 Sr0 2.609448 1_555
O12 Sr1 2.622672 1_555
O13 Sr2 2.622672 1_565
O14 Sr0 2.622672 1_555
O15 Sr0 2.622672 1_655
O16 Sr3 2.622672 1_555
O17 Sr1 2.622672 1_555
O18 Sr2 2.622672 1_555
O19 Sr1 2.622672 1_555
O20 Sr3 2.622672 1_556
O21 Sr3 2.622672 1_455
O22 Sr0 2.622672 1_545
O23 Sr2 2.622672 1_554
O24 Sr0 2.805770 1_555
O25 Sr1 2.805770 1_555
O26 Sr2 2.805770 1_555
O27 Sr1 2.805770 1_555
O28 Sr0 2.805770 1_555
O29 Sr3 2.805770 1_555
O30 Sr3 2.805770 1_555
O31 Sr2 2.805770 1_555
O32 Sr1 2.805770 1_555
O33 Sr2 2.805770 1_555
O34 Sr3 2.805770 1_555
O35 Sr0 2.805770 1_555
O36 P3 1.533904 1_555
O37 P3 1.533904 1_555
O38 P3 1.533904 1_555
O39 P0 1.533904 1_555
O40 P0 1.533904 1_555
O41 P0 1.533904 1_555
O42 P1 1.533904 1_555
O43 P1 1.533904 1_555
O44 P1 1.533904 1_555
O45 P2 1.533904 1_555
O46 P2 1.533904 1_555
O47 P2 1.533904 1_555
