# generated using pymatgen
data_Li3MnV(PO4)3
_symmetry_space_group_name_H-M   'P 1'
_cell_length_a   10.23476436
_cell_length_b   10.23476436
_cell_length_c   10.23476436
_cell_angle_alpha   108.79327229
_cell_angle_beta   108.79327229
_cell_angle_gamma   110.83579560
_symmetry_Int_Tables_number   1
_chemical_formula_structural   Li3MnV(PO4)3
_chemical_formula_sum   'Li12 Mn4 V4 P12 O48'
_cell_volume   824.94759318
_cell_formula_units_Z   4
loop_
 _symmetry_equiv_pos_site_id
 _symmetry_equiv_pos_as_xyz
  1  'x, y, z'
loop_
 _atom_site_type_symbol
 _atom_site_label
 _atom_site_symmetry_multiplicity
 _atom_site_fract_x
 _atom_site_fract_y
 _atom_site_fract_z
 _atom_site_occupancy
  Li  Li0  1  0.24321900  0.11757000  0.61897100  1
  Li  Li1  1  0.99972200  0.49972200  0.50000000  1
  Li  Li2  1  0.37575200  0.75678100  0.87435100  1
  Li  Li3  1  0.50027800  0.00027800  0.50000000  1
  Li  Li4  1  0.88243000  0.50140000  0.12564900  1
  Li  Li5  1  0.75140000  0.12575200  0.11897100  1
  Li  Li6  1  0.49860000  0.62424800  0.38102900  1
  Li  Li7  1  0.36757000  0.24860000  0.37435100  1
  Li  Li8  1  0.74972200  0.74972200  0.00000000  1
  Li  Li9  1  0.87424800  0.99321900  0.62564900  1
  Li  Li10  1  0.25027800  0.25027800  0.00000000  1
  Li  Li11  1  0.00678100  0.63243000  0.88102900  1
  Mn  Mn0  1  0.12500000  0.87500000  0.75000000  1
  Mn  Mn1  1  0.62500000  0.87500000  0.75000000  1
  Mn  Mn2  1  0.12500000  0.37500000  0.25000000  1
  Mn  Mn3  1  0.12500000  0.87500000  0.25000000  1
  V  V0  1  0.12500000  0.37500000  0.75000000  1
  V  V1  1  0.62500000  0.37500000  0.25000000  1
  V  V2  1  0.62500000  0.87500000  0.25000000  1
  V  V3  1  0.62500000  0.37500000  0.75000000  1
  P  P0  1  0.87549700  0.75353700  0.37265300  1
  P  P1  1  0.50000000  0.50000000  0.00000000  1
  P  P2  1  0.25000000  0.75000000  0.50000000  1
  P  P3  1  0.49715500  0.12450300  0.87804000  1
  P  P4  1  0.00353700  0.13088400  0.37804000  1
  P  P5  1  0.38088400  0.50284500  0.62734700  1
  P  P6  1  0.86911600  0.24715500  0.87265300  1
  P  P7  1  0.75284500  0.62549700  0.62196000  1
  P  P8  1  0.24646300  0.61911600  0.12196000  1
  P  P9  1  0.00000000  0.00000000  0.00000000  1
  P  P10  1  0.75000000  0.25000000  0.50000000  1
  P  P11  1  0.37450300  0.99646300  0.12734700  1
  O  O0  1  0.03154000  0.17220300  0.54928200  1
  O  O1  1  0.83269300  0.58020000  0.33966900  1
  O  O2  1  0.74387800  0.28689600  0.36248000  1
  O  O3  1  0.01265400  0.88631300  0.54175100  1
  O  O4  1  0.32558400  0.36860200  0.86248000  1
  O  O5  1  0.31999900  0.08019200  0.84070300  1
  O  O6  1  0.21337700  0.75771300  0.63808800  1
  O  O7  1  0.24228700  0.88037500  0.45566400  1
  O  O8  1  0.11962500  0.57528900  0.36191200  1
  O  O9  1  0.01051100  0.27070400  0.34070300  1
  O  O10  1  0.63139800  0.49387800  0.95698100  1
  O  O11  1  0.51774200  0.96846000  0.14066400  1
  O  O12  1  0.24053000  0.49302300  0.66033100  1
  O  O13  1  0.62707900  0.26774200  0.04928200  1
  O  O14  1  0.50697700  0.16730700  0.74750700  1
  O  O15  1  0.52909700  0.98734600  0.87365900  1
  O  O16  1  0.91980800  0.76051100  0.23980700  1
  O  O17  1  0.53689600  0.67441600  0.04301900  1
  O  O18  1  0.42471100  0.78662300  0.54433600  1
  O  O19  1  0.13631300  0.09456200  0.37365900  1
  O  O20  1  0.34456200  0.47090300  0.45824900  1
  O  O21  1  0.52070400  0.68000100  0.76019300  1
  O  O22  1  0.82779700  0.37707900  0.85933600  1
  O  O23  1  0.83020000  0.99053000  0.24750700  1
  O  O24  1  0.41980000  0.75947000  0.25249300  1
  O  O25  1  0.42220300  0.37292100  0.64066400  1
  O  O26  1  0.72929600  0.06999900  0.73980700  1
  O  O27  1  0.90543800  0.27909700  0.04175100  1
  O  O28  1  0.11368700  0.65543800  0.12634100  1
  O  O29  1  0.82528900  0.96337700  0.95566400  1
  O  O30  1  0.71310400  0.07558400  0.45698100  1
  O  O31  1  0.33019200  0.98948900  0.26019300  1
  O  O32  1  0.72090300  0.76265400  0.62634100  1
  O  O33  1  0.74302300  0.58269300  0.75249300  1
  O  O34  1  0.62292100  0.48225800  0.45071800  1
  O  O35  1  0.00947000  0.25697700  0.83966900  1
  O  O36  1  0.73225800  0.78154000  0.35933600  1
  O  O37  1  0.61860200  0.25612200  0.54301900  1
  O  O38  1  0.23948900  0.47929600  0.15929700  1
  O  O39  1  0.13037500  0.17471100  0.13808800  1
  O  O40  1  0.00771300  0.86962500  0.04433600  1
  O  O41  1  0.03662300  0.99228700  0.86191200  1
  O  O42  1  0.93000100  0.66980800  0.65929700  1
  O  O43  1  0.92441600  0.38139800  0.63752000  1
  O  O44  1  0.23734600  0.86368700  0.95824900  1
  O  O45  1  0.50612200  0.46310400  0.13752000  1
  O  O46  1  0.41730700  0.16980000  0.16033100  1
  O  O47  1  0.21846000  0.57779700  0.95071800  1
loop_
_geom_bond_atom_site_label_1
_geom_bond_atom_site_label_2
_geom_bond_distance
_geom_bond_site_symmetry_2
Li0 O19 2.285189 1_555
Li0 O3 2.327030 1_545
Li0 O5 2.353324 1_555
Li0 O14 2.362182 1_555
Li0 O0 2.374480 1_555
Li0 O7 2.458869 1_545
Li0 O25 2.488679 1_555
Li0 O4 2.550093 1_555
Li1 O43 2.274818 1_555
Li1 O2 2.274818 1_555
Li1 O6 2.290873 1_655
Li1 O8 2.290873 1_655
Li1 O9 2.449952 1_655
Li1 O42 2.449952 1_555
Li1 O12 2.521637 1_655
Li1 O1 2.521639 1_555
Li2 O44 2.285189 1_555
Li2 O15 2.327030 1_555
Li2 O21 2.353324 1_555
Li2 O12 2.362179 1_555
Li2 O11 2.374486 1_556
Li2 O6 2.458869 1_555
Li2 O47 2.488684 1_555
Li2 O17 2.550098 1_556
Li3 O37 2.274814 1_555
Li3 O30 2.274824 1_555
Li3 O7 2.290873 1_545
Li3 O18 2.290873 1_545
Li3 O31 2.449952 1_545
Li3 O26 2.449952 1_555
Li3 O24 2.521633 1_545
Li3 O14 2.521633 1_555
Li4 O27 2.285179 1_555
Li4 O28 2.327033 1_655
Li4 O16 2.353334 1_555
Li4 O1 2.362174 1_555
Li4 O22 2.374488 1_554
Li4 O8 2.458865 1_655
Li4 O13 2.488679 1_555
Li4 O10 2.550102 1_554
Li5 O15 2.285184 1_544
Li5 O27 2.327035 1_555
Li5 O9 2.353330 1_655
Li5 O23 2.362186 1_545
Li5 O13 2.374473 1_555
Li5 O29 2.458876 1_544
Li5 O11 2.488682 1_545
Li5 O2 2.550087 1_555
Li6 O32 2.285184 1_555
Li6 O20 2.327035 1_555
Li6 O38 2.353330 1_555
Li6 O24 2.362186 1_555
Li6 O34 2.374473 1_555
Li6 O18 2.458876 1_555
Li6 O36 2.488682 1_555
Li6 O45 2.550087 1_555
Li7 O20 2.285179 1_555
Li7 O19 2.327033 1_555
Li7 O31 2.353334 1_545
Li7 O46 2.362174 1_555
Li7 O25 2.374488 1_555
Li7 O39 2.458865 1_555
Li7 O34 2.488679 1_555
Li7 O37 2.550102 1_555
Li8 O10 2.274814 1_554
Li8 O17 2.274824 1_555
Li8 O40 2.290873 1_655
Li8 O29 2.290873 1_554
Li8 O16 2.449952 1_555
Li8 O21 2.449952 1_554
Li8 O23 2.521633 1_555
Li8 O33 2.521633 1_554
Li9 O3 2.285189 1_655
Li9 O32 2.327030 1_555
Li9 O26 2.353324 1_565
Li9 O35 2.362179 1_665
Li9 O36 2.374486 1_555
Li9 O41 2.458869 1_655
Li9 O0 2.488684 1_665
Li9 O30 2.550098 1_565
Li10 O4 2.274818 1_554
Li10 O45 2.274818 1_555
Li10 O41 2.290873 1_544
Li10 O39 2.290873 1_555
Li10 O38 2.449952 1_555
Li10 O5 2.449952 1_554
Li10 O35 2.521637 1_554
Li10 O46 2.521639 1_555
Li11 O28 2.285189 1_556
Li11 O44 2.327030 1_555
Li11 O42 2.353324 1_455
Li11 O33 2.362182 1_455
Li11 O47 2.374480 1_555
Li11 O40 2.458869 1_556
Li11 O22 2.488679 1_455
Li11 O43 2.550093 1_455
Mn0 O5 1.955455 1_565
Mn0 O42 1.955455 1_455
Mn0 O6 2.031034 1_555
Mn0 O41 2.031034 1_555
Mn0 O3 2.133773 1_555
Mn0 O44 2.133773 1_555
Mn1 O26 1.955455 1_565
Mn1 O21 1.955455 1_555
Mn1 O18 2.031034 1_555
Mn1 O29 2.031034 1_555
Mn1 O15 2.133773 1_555
Mn1 O32 2.133773 1_555
Mn2 O9 1.955455 1_555
Mn2 O38 1.955455 1_555
Mn2 O39 2.031034 1_555
Mn2 O8 2.031034 1_555
Mn2 O20 2.133773 1_555
Mn2 O27 2.133773 1_455
Mn3 O31 1.955455 1_555
Mn3 O16 1.955455 1_455
Mn3 O40 2.031034 1_555
Mn3 O7 2.031034 1_555
Mn3 O19 2.133773 1_565
Mn3 O28 2.133773 1_555
O0 P4 1.563732 1_555
O0 V0 2.004361 1_555
O1 P0 1.555359 1_555
O1 V1 2.024082 1_555
O2 P10 1.558845 1_555
O2 V1 2.040971 1_555
O3 P0 1.541037 1_455
O4 P1 1.558845 1_556
O4 V0 2.040971 1_555
O5 P3 1.579928 1_555
O6 P2 1.560328 1_555
O7 P2 1.560328 1_555
O8 P2 1.560328 1_555
O9 P4 1.579938 1_555
O10 P1 1.558850 1_556
O10 V3 2.040962 1_555
O11 P11 1.563730 1_555
O11 V2 2.004356 1_555
O12 P5 1.555364 1_555
O12 V0 2.024071 1_555
O13 P3 1.563733 1_554
O13 V1 2.004361 1_555
O14 P3 1.555363 1_555
O14 V3 2.024080 1_555
O15 P3 1.541042 1_565
O16 P0 1.579938 1_555
O17 P1 1.558843 1_555
O17 V2 2.040965 1_555
O18 P2 1.560328 1_555
O19 P4 1.541037 1_555
O20 P5 1.541034 1_555
O21 P5 1.579932 1_555
O22 P6 1.563745 1_555
O22 V3 2.004359 1_555
O23 P4 1.555361 1_665
O23 V2 2.024080 1_555
O24 P8 1.555361 1_555
O24 V2 2.024080 1_555
O25 P5 1.563745 1_555
O25 V3 2.004359 1_555
O26 P6 1.579932 1_555
O27 P6 1.541034 1_554
O28 P8 1.541037 1_555
O29 P9 1.560328 1_666
O30 P10 1.558843 1_555
O30 V2 2.040965 1_545
O31 P11 1.579938 1_555
O32 P7 1.541042 1_555
O33 P7 1.555363 1_555
O33 V3 2.024080 1_555
O34 P7 1.563733 1_555
O34 V1 2.004361 1_555
O35 P6 1.555364 1_455
O35 V0 2.024071 1_555
O36 P0 1.563730 1_555
O36 V2 2.004356 1_555
O37 P10 1.558850 1_555
O37 V3 2.040962 1_555
O38 P8 1.579938 1_555
O39 P9 1.560328 1_555
O40 P9 1.560328 1_565
O41 P9 1.560328 1_566
O42 P7 1.579928 1_555
O43 P10 1.558845 1_555
O43 V0 2.040971 1_655
O44 P11 1.541037 1_556
O45 P1 1.558845 1_555
O45 V1 2.040971 1_555
O46 P11 1.555359 1_545
O46 V1 2.024082 1_555
O47 P8 1.563732 1_556
O47 V0 2.004361 1_555
