# generated using pymatgen
data_Li7Co5O12
_symmetry_space_group_name_H-M   'P 1'
_cell_length_a   5.02768000
_cell_length_b   5.11346579
_cell_length_c   8.67168065
_cell_angle_alpha   73.30802972
_cell_angle_beta   85.20919333
_cell_angle_gamma   79.90585851
_symmetry_Int_Tables_number   1
_chemical_formula_structural   Li7Co5O12
_chemical_formula_sum   'Li7 Co5 O12'
_cell_volume   210.10948000
_cell_formula_units_Z   1
loop_
 _symmetry_equiv_pos_site_id
 _symmetry_equiv_pos_as_xyz
  1  'x, y, z'
loop_
 _atom_site_type_symbol
 _atom_site_label
 _atom_site_symmetry_multiplicity
 _atom_site_fract_x
 _atom_site_fract_y
 _atom_site_fract_z
 _atom_site_occupancy
  Li  Li0  1  0.25618500  0.08934700  0.91886900  1
  Li  Li1  1  0.75251300  0.24898700  0.75261900  1
  Li  Li2  1  0.25113800  0.41930800  0.58448000  1
  Li  Li3  1  0.24748700  0.75101300  0.24738100  1
  Li  Li4  1  0.74381500  0.91065300  0.08113100  1
  Li  Li5  1  0.74886200  0.58069200  0.41552000  1
  Li  Li6  1  0.50000000  0.50000000  0.00000000  1
  Co  Co0  1  0.00653200  0.66068900  0.83850000  1
  Co  Co1  1  0.99346800  0.33931100  0.16150000  1
  Co  Co2  1  0.49989000  0.82636700  0.67670800  1
  Co  Co3  1  0.00000000  0.00000000  0.50000000  1
  Co  Co4  1  0.50011000  0.17363300  0.32329200  1
  O  O0  1  0.10327000  0.68313400  0.03409800  1
  O  O1  1  0.64523300  0.86386600  0.86302900  1
  O  O2  1  0.12070400  0.00818600  0.71791300  1
  O  O3  1  0.11874000  0.36677300  0.36116000  1
  O  O4  1  0.65429400  0.51856600  0.20779400  1
  O  O5  1  0.63204800  0.19388300  0.53270400  1
  O  O6  1  0.34570600  0.48143400  0.79220600  1
  O  O7  1  0.88126000  0.63322700  0.63884000  1
  O  O8  1  0.36795200  0.80611700  0.46729600  1
  O  O9  1  0.35476700  0.13613400  0.13697100  1
  O  O10  1  0.89673000  0.31686600  0.96590200  1
  O  O11  1  0.87929600  0.99181400  0.28208700  1
loop_
_geom_bond_atom_site_label_1
_geom_bond_atom_site_label_2
_geom_bond_distance
_geom_bond_site_symmetry_2
Li0 O10 2.048995 1_455
Li0 O9 2.082794 1_556
Li0 O2 2.094223 1_555
Li0 O6 2.097005 1_555
Li0 O1 2.182156 1_545
Li0 O0 2.267874 1_546
Li1 O1 2.070920 1_545
Li1 O2 2.086700 1_655
Li1 O7 2.116229 1_555
Li1 O5 2.155093 1_555
Li1 O10 2.178978 1_555
Li1 O6 2.231328 1_555
Li2 O6 2.023985 1_555
Li2 O7 2.076948 1_455
Li2 O8 2.107764 1_555
Li2 O5 2.139571 1_555
Li2 O3 2.200540 1_555
Li2 O2 2.268819 1_555
Li3 O9 2.070920 1_565
Li3 O11 2.086700 1_455
Li3 O3 2.116229 1_555
Li3 O8 2.155093 1_555
Li3 O0 2.178978 1_555
Li3 O4 2.231328 1_555
Li4 O0 2.048995 1_655
Li4 O1 2.082794 1_554
Li4 O11 2.094223 1_555
Li4 O4 2.097005 1_555
Li4 O9 2.182156 1_565
Li4 O10 2.267874 1_564
Li5 O4 2.023985 1_555
Li5 O3 2.076948 1_655
Li5 O5 2.107764 1_555
Li5 O8 2.139571 1_555
Li5 O7 2.200540 1_555
Li5 O11 2.268819 1_555
Li6 O4 2.053116 1_555
Li6 O6 2.053116 1_554
Li6 O0 2.085359 1_555
Li6 O10 2.085359 1_554
Li6 O9 2.113691 1_555
Li6 O1 2.113691 1_554
Co0 O0 1.842794 1_556
Co0 O6 1.859671 1_555
Co0 O10 1.933618 1_455
Co0 O7 1.940857 1_455
Co0 O2 1.941720 1_565
Co0 O1 1.955804 1_455
Co1 O10 1.842794 1_554
Co1 O4 1.859671 1_555
Co1 O0 1.933618 1_655
Co1 O3 1.940857 1_655
Co1 O11 1.941720 1_545
Co1 O9 1.955804 1_655
Co2 O1 1.898839 1_555
Co2 O6 2.012419 1_555
Co2 O8 2.020332 1_555
Co2 O2 2.020464 1_565
Co2 O7 2.043772 1_555
Co2 O5 2.117447 1_565
Co3 O8 1.979043 1_545
Co3 O5 1.979043 1_455
Co3 O2 2.046164 1_555
Co3 O11 2.046164 1_445
Co3 O3 2.073321 1_555
Co3 O7 2.073321 1_445
Co4 O9 1.898839 1_555
Co4 O4 2.012419 1_555
Co4 O5 2.020332 1_555
Co4 O11 2.020464 1_545
Co4 O3 2.043772 1_555
Co4 O8 2.117447 1_545
