# generated using pymatgen
data_Ta4MoSe10
_symmetry_space_group_name_H-M   'P 1'
_cell_length_a   3.44368055
_cell_length_b   3.44368055
_cell_length_c   33.97964572
_cell_angle_alpha   87.09542473
_cell_angle_beta   89.99999938
_cell_angle_gamma   59.99998939
_symmetry_Int_Tables_number   1
_chemical_formula_structural   Ta4MoSe10
_chemical_formula_sum   'Ta4 Mo1 Se10'
_cell_volume   348.37777460
_cell_formula_units_Z   1
loop_
 _symmetry_equiv_pos_site_id
 _symmetry_equiv_pos_as_xyz
  1  'x, y, z'
loop_
 _atom_site_type_symbol
 _atom_site_label
 _atom_site_symmetry_multiplicity
 _atom_site_fract_x
 _atom_site_fract_y
 _atom_site_fract_z
 _atom_site_occupancy
  Ta  Ta0  1  0.39987200  0.20025500  0.19961700  1
  Ta  Ta1  1  0.79995100  0.40009800  0.39985300  1
  Ta  Ta2  1  0.19995600  0.60008700  0.59986900  1
  Ta  Ta3  1  0.60002800  0.79994400  0.80008400  1
  Mo  Mo0  1  0.99999200  0.00001700  0.99997500  1
  Se  Se0  1  0.88321800  0.23356300  0.64965500  1
  Se  Se1  1  0.28328300  0.43343500  0.84984800  1
  Se  Se2  1  0.68267200  0.63465500  0.04801700  1
  Se  Se3  1  0.08311800  0.83376500  0.24935300  1
  Se  Se4  1  0.48321700  0.03356600  0.44965000  1
  Se  Se5  1  0.04995500  0.90009100  0.14986400  1
  Se  Se6  1  0.45002300  0.09995400  0.35006900  1
  Se  Se7  1  0.85002500  0.29994900  0.55007600  1
  Se  Se8  1  0.25009000  0.49982000  0.75027100  1
  Se  Se9  1  0.65060000  0.69880100  0.95179900  1
loop_
_geom_bond_atom_site_label_1
_geom_bond_atom_site_label_2
_geom_bond_distance
_geom_bond_site_symmetry_2
Mo0 Se2 2.570747 1_646
Mo0 Se2 2.570747 1_556
Mo0 Se2 2.570752 1_546
Mo0 Se9 2.573632 1_645
Mo0 Se9 2.573632 1_555
Mo0 Se9 2.573633 1_545
Se0 Ta2 2.608652 1_555
Se0 Ta2 2.608652 1_645
Se0 Ta2 2.608652 1_655
Se1 Ta3 2.608168 1_555
Se1 Ta3 2.608170 1_455
Se1 Ta3 2.608170 1_545
Se3 Ta0 2.607551 1_565
Se3 Ta0 2.607556 1_465
Se3 Ta0 2.607556 1_555
Se4 Ta1 2.608892 1_545
Se4 Ta1 2.608894 1_455
Se4 Ta1 2.608894 1_555
Se5 Ta0 2.607925 1_565
Se5 Ta0 2.607929 1_465
Se5 Ta0 2.607929 1_555
Se6 Ta1 2.608608 1_455
Se6 Ta1 2.608608 1_545
Se6 Ta1 2.608608 1_555
Se7 Ta2 2.608806 1_645
Se7 Ta2 2.608806 1_555
Se7 Ta2 2.608806 1_655
Se8 Ta3 2.609244 1_455
Se8 Ta3 2.609244 1_555
Se8 Ta3 2.609246 1_545
