# generated using pymatgen
data_Th3TlF13
_symmetry_space_group_name_H-M   'P 1'
_cell_length_a   7.44775202
_cell_length_b   8.16929973
_cell_length_c   8.65825491
_cell_angle_alpha   90.00000000
_cell_angle_beta   90.00000000
_cell_angle_gamma   90.00000000
_symmetry_Int_Tables_number   1
_chemical_formula_structural   Th3TlF13
_chemical_formula_sum   'Th6 Tl2 F26'
_cell_volume   526.79349841
_cell_formula_units_Z   2
loop_
 _symmetry_equiv_pos_site_id
 _symmetry_equiv_pos_as_xyz
  1  'x, y, z'
loop_
 _atom_site_type_symbol
 _atom_site_label
 _atom_site_symmetry_multiplicity
 _atom_site_fract_x
 _atom_site_fract_y
 _atom_site_fract_z
 _atom_site_occupancy
  Th  Th0  1  0.89248839  0.50000000  0.08541986  1
  Th  Th1  1  0.10751161  0.50000000  0.58541986  1
  Th  Th2  1  0.60241653  0.24720012  0.75084719  1
  Th  Th3  1  0.60241653  0.75279988  0.75084719  1
  Th  Th4  1  0.39758347  0.75279988  0.25084719  1
  Th  Th5  1  0.39758347  0.24720012  0.25084719  1
  Tl  Tl0  1  0.89761201  0.00000000  0.39359146  1
  Tl  Tl1  1  0.10238799  0.00000000  0.89359146  1
  F  F0  1  0.77167667  0.00000000  0.71678394  1
  F  F1  1  0.22832333  0.00000000  0.21678394  1
  F  F2  1  0.45374286  0.19613348  0.98894701  1
  F  F3  1  0.45374286  0.80386652  0.98894701  1
  F  F4  1  0.54625714  0.80386652  0.48894701  1
  F  F5  1  0.54625714  0.19613348  0.48894701  1
  F  F6  1  0.63853561  0.50000000  0.90638782  1
  F  F7  1  0.36146439  0.50000000  0.40638782  1
  F  F8  1  0.03181418  0.50000000  0.84891110  1
  F  F9  1  0.96818582  0.50000000  0.34891110  1
  F  F10  1  0.59630608  0.50000000  0.62599204  1
  F  F11  1  0.40369392  0.50000000  0.12599204  1
  F  F12  1  0.30407644  0.32670928  0.72071204  1
  F  F13  1  0.30407644  0.67329072  0.72071204  1
  F  F14  1  0.69592356  0.67329072  0.22071204  1
  F  F15  1  0.69592356  0.32670928  0.22071204  1
  F  F16  1  0.82602101  0.24402992  0.94185316  1
  F  F17  1  0.82602101  0.75597008  0.94185316  1
  F  F18  1  0.17397899  0.75597008  0.44185316  1
  F  F19  1  0.17397899  0.24402992  0.44185316  1
  F  F20  1  0.43571363  0.00000000  0.73882054  1
  F  F21  1  0.56428637  0.00000000  0.23882054  1
  F  F22  1  0.11664854  0.69470284  0.12837771  1
  F  F23  1  0.11664854  0.30529716  0.12837771  1
  F  F24  1  0.88335146  0.30529716  0.62837771  1
  F  F25  1  0.88335146  0.69470284  0.62837771  1
loop_
_geom_bond_atom_site_label_1
_geom_bond_atom_site_label_2
_geom_bond_distance
_geom_bond_site_symmetry_2
F0 Th2 2.398812 1_555
F0 Th3 2.398812 1_545
F1 Th5 2.398812 1_555
F1 Th4 2.398812 1_545
F2 Th5 2.343285 1_556
F2 Th2 2.376977 1_555
F3 Th4 2.343285 1_556
F3 Th3 2.376977 1_555
F4 Th3 2.343285 1_555
F4 Th4 2.376977 1_555
F5 Th2 2.343285 1_555
F5 Th5 2.376977 1_555
F6 Th0 2.445431 1_556
F6 Th2 2.480128 1_555
F6 Th3 2.480128 1_555
F7 Th1 2.445431 1_555
F7 Th4 2.480128 1_555
F7 Th5 2.480128 1_555
F8 Th0 2.295657 1_456
F8 Th1 2.350003 1_555
F9 Th1 2.295657 1_655
F9 Th0 2.350003 1_555
F10 Th2 2.331466 1_555
F10 Th3 2.331466 1_555
F11 Th5 2.331466 1_555
F11 Th4 2.331466 1_555
F12 Th2 2.329612 1_555
F12 Th1 2.349354 1_555
F13 Th3 2.329612 1_555
F13 Th1 2.349354 1_555
F14 Th4 2.329612 1_555
F14 Th0 2.349354 1_555
F15 Th5 2.329612 1_555
F15 Th0 2.349354 1_555
F16 Th2 2.347136 1_555
F16 Th0 2.482515 1_556
F17 Th3 2.347136 1_555
F17 Th0 2.482515 1_556
F18 Th4 2.347136 1_555
F18 Th1 2.482515 1_555
F19 Th5 2.347136 1_555
F19 Th1 2.482515 1_555
F20 Th3 2.372868 1_545
F20 Th2 2.372868 1_555
F21 Th4 2.372868 1_545
F21 Th5 2.372868 1_555
F22 Th0 2.335701 1_455
F22 Th4 2.393221 1_555
F23 Th0 2.335701 1_455
F23 Th5 2.393221 1_555
F24 Th1 2.335701 1_655
F24 Th2 2.393221 1_555
F25 Th1 2.335701 1_655
F25 Th3 2.393221 1_555
