# generated using pymatgen
data_Mg4Si6O23
_symmetry_space_group_name_H-M   'P 1'
_cell_length_a   13.56935561
_cell_length_b   27.88643899
_cell_length_c   5.28450573
_cell_angle_alpha   90.00000000
_cell_angle_beta   90.00000000
_cell_angle_gamma   90.00000000
_symmetry_Int_Tables_number   1
_chemical_formula_structural   Mg4Si6O23
_chemical_formula_sum   'Mg16 Si24 O92'
_cell_volume   1999.66229159
_cell_formula_units_Z   4
loop_
 _symmetry_equiv_pos_site_id
 _symmetry_equiv_pos_as_xyz
  1  'x, y, z'
loop_
 _atom_site_type_symbol
 _atom_site_label
 _atom_site_symmetry_multiplicity
 _atom_site_fract_x
 _atom_site_fract_y
 _atom_site_fract_z
 _atom_site_occupancy
  Mg  Mg0  1  0.50000000  0.52201796  0.75000000  1
  Mg  Mg1  1  -0.00000000  0.97798204  0.75000000  1
  Mg  Mg2  1  0.50000000  0.47798204  0.25000000  1
  Mg  Mg3  1  -0.00000000  0.02201796  0.25000000  1
  Mg  Mg4  1  0.50000000  0.41149499  0.75000000  1
  Mg  Mg5  1  -0.00000000  0.08850501  0.75000000  1
  Mg  Mg6  1  0.50000000  0.58850501  0.25000000  1
  Mg  Mg7  1  -0.00000000  0.91149499  0.25000000  1
  Mg  Mg8  1  0.50000000  0.65486467  0.75000000  1
  Mg  Mg9  1  -0.00000000  0.84513533  0.75000000  1
  Mg  Mg10  1  0.50000000  0.34513533  0.25000000  1
  Mg  Mg11  1  -0.00000000  0.15486467  0.25000000  1
  Mg  Mg12  1  0.50000000  0.30108073  0.75000000  1
  Mg  Mg13  1  -0.00000000  0.19891927  0.75000000  1
  Mg  Mg14  1  0.50000000  0.69891927  0.25000000  1
  Mg  Mg15  1  -0.00000000  0.80108073  0.25000000  1
  Si  Si0  1  0.29537779  0.52870077  0.08586871  1
  Si  Si1  1  0.70462221  0.52870077  0.41413129  1
  Si  Si2  1  0.20462221  0.97129923  0.08586871  1
  Si  Si3  1  0.79537779  0.97129923  0.41413129  1
  Si  Si4  1  0.70462221  0.47129923  0.91413129  1
  Si  Si5  1  0.29537779  0.47129923  0.58586871  1
  Si  Si6  1  0.79537779  0.02870077  0.91413129  1
  Si  Si7  1  0.20462221  0.02870077  0.58586871  1
  Si  Si8  1  0.29374582  0.64059276  0.07823638  1
  Si  Si9  1  0.70625418  0.64059276  0.42176362  1
  Si  Si10  1  0.20625418  0.85940724  0.07823638  1
  Si  Si11  1  0.79374582  0.85940724  0.42176362  1
  Si  Si12  1  0.70625418  0.35940724  0.92176362  1
  Si  Si13  1  0.29374582  0.35940724  0.57823638  1
  Si  Si14  1  0.79374582  0.14059276  0.92176362  1
  Si  Si15  1  0.20625418  0.14059276  0.57823638  1
  Si  Si16  1  0.29210934  0.69575518  0.56955440  1
  Si  Si17  1  0.70789066  0.69575518  0.93044560  1
  Si  Si18  1  0.20789066  0.80424482  0.56955440  1
  Si  Si19  1  0.79210934  0.80424482  0.93044560  1
  Si  Si20  1  0.70789066  0.30424482  0.43044560  1
  Si  Si21  1  0.29210934  0.30424482  0.06955440  1
  Si  Si22  1  0.79210934  0.19575518  0.43044560  1
  Si  Si23  1  0.20789066  0.19575518  0.06955440  1
  O  O0  1  0.50000000  0.20371828  0.75000000  1
  O  O1  1  -0.00000000  0.29628172  0.75000000  1
  O  O2  1  0.50000000  0.79628172  0.25000000  1
  O  O3  1  -0.00000000  0.70371828  0.25000000  1
  O  O4  1  0.50000000  0.98528733  0.75000000  1
  O  O5  1  -0.00000000  0.51471267  0.75000000  1
  O  O6  1  0.50000000  0.01471267  0.25000000  1
  O  O7  1  -0.00000000  0.48528733  0.25000000  1
  O  O8  1  0.25000000  0.75000000  0.57935675  1
  O  O9  1  0.75000000  0.75000000  0.92064325  1
  O  O10  1  0.75000000  0.25000000  0.42064325  1
  O  O11  1  0.25000000  0.25000000  0.07935675  1
  O  O12  1  0.41686978  0.52910846  0.09668855  1
  O  O13  1  0.58313022  0.52910846  0.40331145  1
  O  O14  1  0.08313022  0.97089154  0.09668855  1
  O  O15  1  0.91686978  0.97089154  0.40331145  1
  O  O16  1  0.58313022  0.47089154  0.90331145  1
  O  O17  1  0.41686978  0.47089154  0.59668855  1
  O  O18  1  0.91686978  0.02910846  0.90331145  1
  O  O19  1  0.08313022  0.02910846  0.59668855  1
  O  O20  1  0.41479291  0.64449104  0.09376593  1
  O  O21  1  0.58520709  0.64449104  0.40623407  1
  O  O22  1  0.08520709  0.85550896  0.09376593  1
  O  O23  1  0.91479291  0.85550896  0.40623407  1
  O  O24  1  0.58520709  0.35550896  0.90623407  1
  O  O25  1  0.41479291  0.35550896  0.59376593  1
  O  O26  1  0.91479291  0.14449104  0.90623407  1
  O  O27  1  0.08520709  0.14449104  0.59376593  1
  O  O28  1  0.41170807  0.69710729  0.55512515  1
  O  O29  1  0.58829193  0.69710729  0.94487485  1
  O  O30  1  0.08829193  0.80289271  0.55512515  1
  O  O31  1  0.91170807  0.80289271  0.94487485  1
  O  O32  1  0.58829193  0.30289271  0.44487485  1
  O  O33  1  0.41170807  0.30289271  0.05512515  1
  O  O34  1  0.91170807  0.19710729  0.44487485  1
  O  O35  1  0.08829193  0.19710729  0.05512515  1
  O  O36  1  0.25517935  0.50037004  0.83499430  1
  O  O37  1  0.74482065  0.50037004  0.66500570  1
  O  O38  1  0.24482065  0.99962996  0.83499430  1
  O  O39  1  0.75517935  0.99962996  0.66500570  1
  O  O40  1  0.74482065  0.49962996  0.16500570  1
  O  O41  1  0.25517935  0.49962996  0.33499430  1
  O  O42  1  0.75517935  0.00037004  0.16500570  1
  O  O43  1  0.24482065  0.00037004  0.33499430  1
  O  O44  1  0.25735889  0.58434237  0.08524369  1
  O  O45  1  0.74264111  0.58434237  0.41475631  1
  O  O46  1  0.24264111  0.91565763  0.08524369  1
  O  O47  1  0.75735889  0.91565763  0.41475631  1
  O  O48  1  0.74264111  0.41565763  0.91475631  1
  O  O49  1  0.25735889  0.41565763  0.58524369  1
  O  O50  1  0.75735889  0.08434237  0.91475631  1
  O  O51  1  0.24264111  0.08434237  0.58524369  1
  O  O52  1  0.25430925  0.66622561  0.81992711  1
  O  O53  1  0.74569075  0.66622561  0.68007289  1
  O  O54  1  0.24569075  0.83377439  0.81992711  1
  O  O55  1  0.75430925  0.83377439  0.68007289  1
  O  O56  1  0.74569075  0.33377439  0.18007289  1
  O  O57  1  0.25430925  0.33377439  0.31992711  1
  O  O58  1  0.75430925  0.16622561  0.18007289  1
  O  O59  1  0.24569075  0.16622561  0.31992711  1
  O  O60  1  0.24516637  0.66831449  0.32145305  1
  O  O61  1  0.75483363  0.66831449  0.17854695  1
  O  O62  1  0.25483363  0.83168551  0.32145305  1
  O  O63  1  0.74516637  0.83168551  0.17854695  1
  O  O64  1  0.75483363  0.33168551  0.67854695  1
  O  O65  1  0.24516637  0.33168551  0.82145305  1
  O  O66  1  0.74516637  0.16831449  0.67854695  1
  O  O67  1  0.25483363  0.16831449  0.82145305  1
  O  O68  1  0.45490127  0.58764343  0.66196296  1
  O  O69  1  0.54509873  0.58764343  0.83803704  1
  O  O70  1  0.04509873  0.91235657  0.66196296  1
  O  O71  1  0.95490127  0.91235657  0.83803704  1
  O  O72  1  0.54509873  0.41235657  0.33803704  1
  O  O73  1  0.45490127  0.41235657  0.16196296  1
  O  O74  1  0.95490127  0.08764343  0.33803704  1
  O  O75  1  0.04509873  0.08764343  0.16196296  1
  O  O76  1  0.44679281  0.77057390  0.09287601  1
  O  O77  1  0.55320719  0.77057390  0.40712399  1
  O  O78  1  0.05320719  0.72942610  0.09287601  1
  O  O79  1  0.94679281  0.72942610  0.40712399  1
  O  O80  1  0.55320719  0.22942610  0.90712399  1
  O  O81  1  0.44679281  0.22942610  0.59287601  1
  O  O82  1  0.94679281  0.27057390  0.90712399  1
  O  O83  1  0.05320719  0.27057390  0.59287601  1
  O  O84  1  0.47198798  0.91901437  0.34198495  1
  O  O85  1  0.52801202  0.91901437  0.15801505  1
  O  O86  1  0.02801202  0.58098563  0.34198495  1
  O  O87  1  0.97198798  0.58098563  0.15801505  1
  O  O88  1  0.52801202  0.08098563  0.65801505  1
  O  O89  1  0.47198798  0.08098563  0.84198495  1
  O  O90  1  0.97198798  0.41901437  0.65801505  1
  O  O91  1  0.02801202  0.41901437  0.84198495  1
loop_
_geom_bond_atom_site_label_1
_geom_bond_atom_site_label_2
_geom_bond_distance
_geom_bond_site_symmetry_2
Mg0 O68 1.984958 1_555
Mg0 O69 1.984958 1_555
Mg0 O17 1.990361 1_555
Mg0 O16 1.990361 1_555
Mg0 O13 2.160565 1_555
Mg0 O12 2.160565 1_556
Mg1 O70 1.984958 1_555
Mg1 O71 1.984958 1_455
Mg1 O19 1.990361 1_565
Mg1 O18 1.990361 1_465
Mg1 O14 2.160565 1_556
Mg1 O15 2.160565 1_455
Mg2 O73 1.984958 1_555
Mg2 O72 1.984958 1_555
Mg2 O12 1.990361 1_555
Mg2 O13 1.990361 1_555
Mg2 O17 2.160565 1_555
Mg2 O16 2.160565 1_554
Mg3 O75 1.984958 1_555
Mg3 O74 1.984958 1_455
Mg3 O14 1.990361 1_545
Mg3 O15 1.990361 1_445
Mg3 O19 2.160565 1_555
Mg3 O18 2.160565 1_454
Mg4 O25 2.110915 1_555
Mg4 O24 2.110915 1_555
Mg4 O17 2.161560 1_555
Mg4 O16 2.161560 1_555
Mg4 O73 2.261524 1_556
Mg4 O72 2.261524 1_555
Mg5 O27 2.110915 1_555
Mg5 O26 2.110915 1_455
Mg5 O19 2.161560 1_555
Mg5 O18 2.161560 1_455
Mg5 O75 2.261524 1_556
Mg5 O74 2.261524 1_455
Mg6 O20 2.110915 1_555
Mg6 O21 2.110915 1_555
Mg6 O12 2.161560 1_555
Mg6 O13 2.161560 1_555
Mg6 O69 2.261524 1_554
Mg6 O68 2.261524 1_555
Mg7 O22 2.110915 1_555
Mg7 O23 2.110915 1_455
Mg7 O15 2.161560 1_455
Mg7 O14 2.161560 1_555
Mg7 O71 2.261524 1_454
Mg7 O70 2.261524 1_555
Mg8 O29 1.970674 1_555
Mg8 O28 1.970674 1_555
Mg8 O68 2.026059 1_555
Mg8 O69 2.026059 1_555
Mg8 O20 2.172706 1_556
Mg8 O21 2.172706 1_555
Mg9 O30 1.970674 1_555
Mg9 O31 1.970674 1_455
Mg9 O70 2.026059 1_555
Mg9 O71 2.026059 1_455
Mg9 O22 2.172706 1_556
Mg9 O23 2.172706 1_455
Mg10 O32 1.970674 1_555
Mg10 O33 1.970674 1_555
Mg10 O73 2.026059 1_555
Mg10 O72 2.026059 1_555
Mg10 O25 2.172706 1_555
Mg10 O24 2.172706 1_554
Mg11 O35 1.970674 1_555
Mg11 O34 1.970674 1_455
Mg11 O75 2.026059 1_555
Mg11 O74 2.026059 1_455
Mg11 O27 2.172706 1_555
Mg11 O26 2.172706 1_454
Mg12 O32 2.009443 1_555
Mg12 O33 2.009443 1_556
Mg12 O25 2.078991 1_555
Mg12 O24 2.078991 1_555
Mg12 O80 2.281113 1_555
Mg12 O81 2.281113 1_555
Mg13 O34 2.009443 1_455
Mg13 O35 2.009443 1_556
Mg13 O27 2.078991 1_555
Mg13 O26 2.078991 1_455
Mg13 O83 2.281113 1_555
Mg13 O82 2.281113 1_455
Mg14 O29 2.009443 1_554
Mg14 O28 2.009443 1_555
Mg14 O20 2.078991 1_555
Mg14 O21 2.078991 1_555
Mg14 O77 2.281113 1_555
Mg14 O76 2.281113 1_555
Mg15 O30 2.009443 1_555
Mg15 O31 2.009443 1_454
Mg15 O22 2.078991 1_555
Mg15 O23 2.078991 1_455
Mg15 O79 2.281113 1_455
Mg15 O78 2.281113 1_555
O0 O80 1.313258 1_555
O0 O81 1.313258 1_555
O1 O82 1.313258 1_455
O1 O83 1.313258 1_555
O2 O77 1.313258 1_555
O2 O76 1.313258 1_555
O3 O79 1.313258 1_455
O3 O78 1.313258 1_555
O8 Si18 1.617845 1_555
O8 Si16 1.617845 1_555
O9 Si19 1.617845 1_555
O9 Si17 1.617845 1_555
O10 Si22 1.617845 1_555
O10 Si20 1.617845 1_555
O11 Si23 1.617845 1_555
O11 Si21 1.617845 1_555
O12 Si0 1.649598 1_555
O13 Si1 1.649598 1_555
O14 Si2 1.649598 1_555
O15 Si3 1.649598 1_555
O16 Si4 1.649598 1_555
O17 Si5 1.649598 1_555
O18 Si6 1.649598 1_555
O19 Si7 1.649598 1_555
O20 Si8 1.648169 1_555
O21 Si9 1.648169 1_555
O22 Si10 1.648169 1_555
O23 Si11 1.648169 1_555
O24 Si12 1.648169 1_555
O25 Si13 1.648169 1_555
O26 Si14 1.648169 1_555
O27 Si15 1.648169 1_555
O28 Si16 1.625106 1_555
O29 Si17 1.625106 1_555
O30 Si18 1.625106 1_555
O31 Si19 1.625106 1_555
O32 Si20 1.625106 1_555
O33 Si21 1.625106 1_555
O34 Si22 1.625106 1_555
O35 Si23 1.625106 1_555
O36 Si0 1.636859 1_556
O36 Si5 1.639489 1_555
O37 Si1 1.636859 1_555
O37 Si4 1.639489 1_555
O38 Si2 1.636859 1_556
O38 Si7 1.639489 1_565
O39 Si3 1.636859 1_555
O39 Si6 1.639489 1_565
O40 Si4 1.636859 1_554
O40 Si1 1.639489 1_555
O41 Si5 1.636859 1_555
O41 Si0 1.639489 1_555
O42 Si6 1.636859 1_554
O42 Si3 1.639489 1_545
O43 Si7 1.636859 1_555
O43 Si2 1.639489 1_545
O44 Si0 1.635164 1_555
O44 Si8 1.644912 1_555
O45 Si1 1.635164 1_555
O45 Si9 1.644912 1_555
O46 Si2 1.635164 1_555
O46 Si10 1.644912 1_555
O47 Si3 1.635164 1_555
O47 Si11 1.644912 1_555
O48 Si4 1.635164 1_555
O48 Si12 1.644912 1_555
O49 Si5 1.635164 1_555
O49 Si13 1.644912 1_555
O50 Si6 1.635164 1_555
O50 Si14 1.644912 1_555
O51 Si7 1.635164 1_555
O51 Si15 1.644912 1_555
O52 Si8 1.631147 1_556
O52 Si16 1.640665 1_555
O53 Si9 1.631147 1_555
O53 Si17 1.640665 1_555
O54 Si10 1.631147 1_556
O54 Si18 1.640665 1_555
O55 Si11 1.631147 1_555
O55 Si19 1.640665 1_555
O56 Si12 1.631147 1_554
O56 Si20 1.640665 1_555
O57 Si13 1.631147 1_555
O57 Si21 1.640665 1_555
O58 Si14 1.631147 1_554
O58 Si22 1.640665 1_555
O59 Si15 1.631147 1_555
O59 Si23 1.640665 1_555
O60 Si8 1.638322 1_555
O60 Si16 1.646293 1_555
O61 Si9 1.638322 1_555
O61 Si17 1.646293 1_554
O62 Si10 1.638322 1_555
O62 Si18 1.646293 1_555
O63 Si11 1.638322 1_555
O63 Si19 1.646293 1_554
O64 Si12 1.638322 1_555
O64 Si20 1.646293 1_555
O65 Si13 1.638322 1_555
O65 Si21 1.646293 1_556
O66 Si14 1.638322 1_555
O66 Si22 1.646293 1_555
O67 Si15 1.638322 1_555
O67 Si23 1.646293 1_556
O68 O69 1.537448 1_555
O70 O71 1.537448 1_455
O72 O73 1.537448 1_555
O74 O75 1.537448 1_655
O84 O85 1.234128 1_555
O86 O87 1.234128 1_455
O88 O89 1.234128 1_555
O90 O91 1.234128 1_655
