# generated using pymatgen
data_Rb2Cd5As4
_symmetry_space_group_name_H-M   'P 1'
_cell_length_a   7.43205694
_cell_length_b   7.43205694
_cell_length_c   12.74813300
_cell_angle_alpha   90.00000000
_cell_angle_beta   90.00000000
_cell_angle_gamma   116.85062796
_symmetry_Int_Tables_number   1
_chemical_formula_structural   Rb2Cd5As4
_chemical_formula_sum   'Rb4 Cd10 As8'
_cell_volume   628.23273775
_cell_formula_units_Z   2
loop_
 _symmetry_equiv_pos_site_id
 _symmetry_equiv_pos_as_xyz
  1  'x, y, z'
loop_
 _atom_site_type_symbol
 _atom_site_label
 _atom_site_symmetry_multiplicity
 _atom_site_fract_x
 _atom_site_fract_y
 _atom_site_fract_z
 _atom_site_occupancy
  Rb  Rb0  1  0.20865500  0.79134500  0.50000000  1
  Rb  Rb1  1  0.20865500  0.79134500  0.00000000  1
  Rb  Rb2  1  0.79134500  0.20865500  0.50000000  1
  Rb  Rb3  1  0.79134500  0.20865500  0.00000000  1
  Cd  Cd0  1  0.52746100  0.23434800  0.25000000  1
  Cd  Cd1  1  0.76565200  0.47253900  0.75000000  1
  Cd  Cd2  1  0.47253900  0.76565200  0.75000000  1
  Cd  Cd3  1  0.23434800  0.52746100  0.25000000  1
  Cd  Cd4  1  0.65027300  0.65027300  0.39404600  1
  Cd  Cd5  1  0.34972700  0.34972700  0.60595400  1
  Cd  Cd6  1  0.65027300  0.65027300  0.10595400  1
  Cd  Cd7  1  0.34972700  0.34972700  0.89404600  1
  Cd  Cd8  1  0.00694400  0.00694400  0.25000000  1
  Cd  Cd9  1  0.99305600  0.99305600  0.75000000  1
  As  As0  1  0.59713900  0.90878000  0.25000000  1
  As  As1  1  0.09122000  0.40286100  0.75000000  1
  As  As2  1  0.40286100  0.09122000  0.75000000  1
  As  As3  1  0.90878000  0.59713900  0.25000000  1
  As  As4  1  0.27582000  0.27582000  0.40019900  1
  As  As5  1  0.72418000  0.72418000  0.59980100  1
  As  As6  1  0.27582000  0.27582000  0.09980100  1
  As  As7  1  0.72418000  0.72418000  0.90019900  1
loop_
_geom_bond_atom_site_label_1
_geom_bond_atom_site_label_2
_geom_bond_distance
_geom_bond_site_symmetry_2
Cd0 Rb2 3.791866 1_555
Cd0 Rb3 3.791866 1_555
Cd1 Rb3 3.791866 1_556
Cd1 Rb2 3.791866 1_555
Cd2 Rb0 3.791866 1_555
Cd2 Rb1 3.791866 1_556
Cd3 Rb0 3.791866 1_555
Cd3 Rb1 3.791866 1_555
As0 Cd0 2.693458 1_565
As0 Cd8 2.793079 1_665
As0 Cd6 2.811496 1_555
As0 Cd4 2.811496 1_555
As0 Cd3 2.898077 1_555
As0 Rb2 3.781755 1_565
As0 Rb3 3.781755 1_565
As1 Cd1 2.693458 1_455
As1 Cd9 2.793079 1_445
As1 Cd7 2.811496 1_555
As1 Cd5 2.811496 1_555
As1 Cd2 2.898077 1_555
As1 Rb3 3.781755 1_456
As1 Rb2 3.781755 1_455
As2 Cd2 2.693458 1_545
As2 Cd9 2.793079 1_445
As2 Cd7 2.811496 1_555
As2 Cd5 2.811496 1_555
As2 Cd1 2.898077 1_555
As2 Rb0 3.781755 1_545
As2 Rb1 3.781755 1_546
As3 Cd3 2.693458 1_655
As3 Cd8 2.793079 1_665
As3 Cd6 2.811496 1_555
As3 Cd4 2.811496 1_555
As3 Cd0 2.898077 1_555
As3 Rb0 3.781755 1_655
As3 Rb1 3.781755 1_655
As4 Cd5 2.685324 1_555
As4 Cd3 2.789211 1_555
As4 Cd0 2.789211 1_555
As4 Cd8 2.836462 1_555
As4 Cd4 2.915420 1_555
As4 Rb0 3.634406 1_545
As4 Rb2 3.634406 1_455
As5 Cd4 2.685324 1_555
As5 Cd2 2.789211 1_555
As5 Cd1 2.789211 1_555
As5 Cd9 2.836462 1_555
As5 Cd5 2.915420 1_555
As5 Rb0 3.634406 1_655
As5 Rb2 3.634406 1_565
As6 Cd7 2.685324 1_554
As6 Cd3 2.789211 1_555
As6 Cd0 2.789211 1_555
As6 Cd8 2.836462 1_555
As6 Cd6 2.915420 1_555
As6 Rb3 3.634406 1_455
As6 Rb1 3.634406 1_545
As7 Cd6 2.685324 1_556
As7 Cd2 2.789211 1_555
As7 Cd1 2.789211 1_555
As7 Cd9 2.836462 1_555
As7 Cd7 2.915420 1_555
As7 Rb1 3.634406 1_656
As7 Rb3 3.634406 1_566
