# generated using pymatgen
data_CaFe2(AsO5)2
_symmetry_space_group_name_H-M   'P 1'
_cell_length_a   5.38982538
_cell_length_b   5.38982538
_cell_length_c   7.77315013
_cell_angle_alpha   70.27813127
_cell_angle_beta   70.27813127
_cell_angle_gamma   68.72672195
_symmetry_Int_Tables_number   1
_chemical_formula_structural   CaFe2(AsO5)2
_chemical_formula_sum   'Ca1 Fe2 As2 O10'
_cell_volume   192.03885533
_cell_formula_units_Z   1
loop_
 _symmetry_equiv_pos_site_id
 _symmetry_equiv_pos_as_xyz
  1  'x, y, z'
loop_
 _atom_site_type_symbol
 _atom_site_label
 _atom_site_symmetry_multiplicity
 _atom_site_fract_x
 _atom_site_fract_y
 _atom_site_fract_z
 _atom_site_occupancy
  Ca  Ca0  1  0.00000000  0.00000000  0.00000000  1
  Fe  Fe0  1  0.50000000  0.00000000  0.50000000  1
  Fe  Fe1  1  0.00000000  0.50000000  0.50000000  1
  As  As0  1  0.57756600  0.57756600  0.21209300  1
  As  As1  1  0.42243400  0.42243400  0.78790700  1
  O  O0  1  0.26807900  0.26807900  0.00324400  1
  O  O1  1  0.73192100  0.73192100  0.99675600  1
  O  O2  1  0.68370700  0.22281400  0.25448500  1
  O  O3  1  0.31629300  0.77718600  0.74551500  1
  O  O4  1  0.77718600  0.31629300  0.74551500  1
  O  O5  1  0.22281400  0.68370700  0.25448500  1
  O  O6  1  0.83920600  0.83920600  0.56275900  1
  O  O7  1  0.16079400  0.16079400  0.43724100  1
  O  O8  1  0.67004600  0.67004600  0.37469300  1
  O  O9  1  0.32995400  0.32995400  0.62530700  1
loop_
_geom_bond_atom_site_label_1
_geom_bond_atom_site_label_2
_geom_bond_distance
_geom_bond_site_symmetry_2
Ca0 O0 2.395874 1_555
Ca0 O1 2.395874 1_444
Ca0 O2 2.470482 1_455
Ca0 O5 2.470482 1_545
Ca0 O4 2.470482 1_454
Ca0 O3 2.470482 1_544
Fe0 O7 1.870420 1_555
Fe0 O6 1.870420 1_545
Fe0 O3 2.026184 1_545
Fe0 O2 2.026184 1_555
Fe0 O9 2.082133 1_555
Fe0 O8 2.082133 1_545
Fe1 O7 1.870420 1_555
Fe1 O6 1.870420 1_455
Fe1 O4 2.026184 1_455
Fe1 O5 2.026184 1_555
Fe1 O9 2.082133 1_555
Fe1 O8 2.082133 1_455
As0 O1 1.675881 1_554
As0 O2 1.732069 1_555
As0 O5 1.732069 1_555
As0 O8 1.767783 1_555
As1 O0 1.675881 1_556
As1 O4 1.732069 1_555
As1 O3 1.732069 1_555
As1 O9 1.767783 1_555
