# generated using pymatgen
data_Zr7Cu10
_symmetry_space_group_name_H-M   'P 1'
_cell_length_a   9.30984501
_cell_length_b   7.85658641
_cell_length_c   7.85658641
_cell_angle_alpha   72.37317269
_cell_angle_beta   90.00000000
_cell_angle_gamma   90.00000000
_symmetry_Int_Tables_number   1
_chemical_formula_structural   Zr7Cu10
_chemical_formula_sum   'Zr14 Cu20'
_cell_volume   547.67820318
_cell_formula_units_Z   2
loop_
 _symmetry_equiv_pos_site_id
 _symmetry_equiv_pos_as_xyz
  1  'x, y, z'
loop_
 _atom_site_type_symbol
 _atom_site_label
 _atom_site_symmetry_multiplicity
 _atom_site_fract_x
 _atom_site_fract_y
 _atom_site_fract_z
 _atom_site_occupancy
  Zr  Zr0  1  0.50000000  0.75742976  0.75742976  1
  Zr  Zr1  1  0.00000000  0.25743076  0.25743076  1
  Zr  Zr2  1  0.74999597  0.93108160  0.46104574  1
  Zr  Zr3  1  0.25000303  0.46104574  0.93108160  1
  Zr  Zr4  1  0.75000403  0.43108160  0.96104674  1
  Zr  Zr5  1  0.24999597  0.96104674  0.43108160  1
  Zr  Zr6  1  0.80679045  0.63600652  0.25616531  1
  Zr  Zr7  1  0.19320955  0.25616531  0.63600652  1
  Zr  Zr8  1  0.69320955  0.13600652  0.75616431  1
  Zr  Zr9  1  0.30679045  0.75616431  0.13600652  1
  Zr  Zr10  1  0.50000000  0.44611762  0.44611762  1
  Zr  Zr11  1  0.00000000  0.94611762  0.94611762  1
  Zr  Zr12  1  0.50000000  0.13487098  0.13487098  1
  Zr  Zr13  1  0.00000000  0.63486998  0.63486998  1
  Cu  Cu0  1  0.79644303  0.07331447  0.11097172  1
  Cu  Cu1  1  0.20355797  0.11097172  0.07331447  1
  Cu  Cu2  1  0.70355697  0.57331447  0.61097172  1
  Cu  Cu3  1  0.29644303  0.61097172  0.57331447  1
  Cu  Cu4  1  0.70356538  0.28144699  0.31875205  1
  Cu  Cu5  1  0.29643462  0.31875205  0.28144699  1
  Cu  Cu6  1  0.79643462  0.78144699  0.81875305  1
  Cu  Cu7  1  0.20356538  0.81875305  0.78144699  1
  Cu  Cu8  1  0.50843335  0.79594493  0.38926256  1
  Cu  Cu9  1  0.49156665  0.38926256  0.79594493  1
  Cu  Cu10  1  0.99156665  0.29594593  0.88926256  1
  Cu  Cu11  1  0.00843335  0.88926256  0.29594593  1
  Cu  Cu12  1  0.50846155  0.50310910  0.09639583  1
  Cu  Cu13  1  0.49153745  0.09639583  0.50310910  1
  Cu  Cu14  1  0.99153745  0.00311010  0.59639483  1
  Cu  Cu15  1  0.00846255  0.59639483  0.00311010  1
  Cu  Cu16  1  0.60262971  0.83986579  0.05251302  1
  Cu  Cu17  1  0.39737029  0.05251302  0.83986579  1
  Cu  Cu18  1  0.89737029  0.33986479  0.55251402  1
  Cu  Cu19  1  0.10262971  0.55251402  0.33986479  1
loop_
_geom_bond_atom_site_label_1
_geom_bond_atom_site_label_2
_geom_bond_distance
_geom_bond_site_symmetry_2
Cu0 Cu11 2.612534 1_645
Cu0 Zr11 2.655450 1_644
Cu0 Zr2 2.671881 1_545
Cu0 Cu16 2.709397 1_545
Cu0 Zr4 2.733121 1_554
Cu0 Cu10 2.747414 1_554
Cu0 Cu4 2.775450 1_555
Cu0 Zr12 2.817952 1_555
Cu0 Zr1 2.831232 1_655
Cu0 Zr8 2.846986 1_554
Cu0 Zr6 3.277389 1_545
Cu1 Cu10 2.612541 1_454
Cu1 Zr11 2.655456 1_544
Cu1 Zr3 2.671878 1_554
Cu1 Cu17 2.709391 1_554
Cu1 Zr5 2.733119 1_545
Cu1 Cu11 2.747420 1_545
Cu1 Cu5 2.775447 1_555
Cu1 Zr12 2.817943 1_555
Cu1 Zr1 2.831238 1_555
Cu1 Zr9 2.846983 1_545
Cu1 Zr7 3.277389 1_554
Cu2 Cu9 2.612531 1_555
Cu2 Zr10 2.655450 1_555
Cu2 Zr4 2.671889 1_555
Cu2 Zr2 2.733122 1_555
Cu2 Cu8 2.747410 1_555
Cu2 Cu6 2.775456 1_555
Cu2 Zr13 2.817950 1_655
Cu2 Zr0 2.831222 1_555
Cu2 Zr6 2.846978 1_555
Cu2 Zr8 3.277388 1_555
Cu3 Cu8 2.612531 1_555
Cu3 Zr10 2.655450 1_555
Cu3 Zr5 2.671889 1_555
Cu3 Zr3 2.733123 1_555
Cu3 Cu9 2.747410 1_555
Cu3 Cu7 2.775456 1_555
Cu3 Zr13 2.817950 1_555
Cu3 Zr0 2.831222 1_555
Cu3 Zr7 2.846978 1_555
Cu3 Zr9 3.277388 1_555
Cu4 Zr10 2.655334 1_555
Cu4 Zr2 2.673974 1_545
Cu4 Zr4 2.732412 1_554
Cu4 Zr1 2.817631 1_655
Cu4 Zr12 2.830629 1_555
Cu4 Zr6 2.845257 1_555
Cu4 Zr8 3.278223 1_555
Cu5 Zr10 2.655334 1_555
Cu5 Zr3 2.673976 1_554
Cu5 Zr5 2.732412 1_545
Cu5 Zr1 2.817631 1_555
Cu5 Zr12 2.830629 1_555
Cu5 Zr7 2.845257 1_555
Cu5 Zr9 3.278223 1_555
Cu6 Zr11 2.655329 1_655
Cu6 Zr4 2.673974 1_555
Cu6 Zr2 2.732426 1_555
Cu6 Zr0 2.817635 1_555
Cu6 Zr13 2.830643 1_655
Cu6 Zr8 2.845255 1_565
Cu6 Zr6 3.278223 1_556
Cu7 Zr11 2.655329 1_555
Cu7 Zr5 2.673974 1_555
Cu7 Zr3 2.732425 1_555
Cu7 Zr0 2.817635 1_555
Cu7 Zr13 2.830643 1_555
Cu7 Zr9 2.845255 1_556
Cu7 Zr7 3.278223 1_565
Cu8 Zr2 2.620216 1_555
Cu8 Zr10 2.648798 1_555
Cu8 Zr5 2.799556 1_555
Cu8 Zr12 2.805013 1_565
Cu8 Zr0 2.816808 1_555
Cu8 Zr9 2.820894 1_555
Cu8 Zr6 3.344191 1_555
Cu9 Zr3 2.620224 1_555
Cu9 Zr10 2.648798 1_555
Cu9 Zr4 2.799556 1_555
Cu9 Zr12 2.805013 1_556
Cu9 Zr0 2.816808 1_555
Cu9 Zr8 2.820894 1_555
Cu9 Zr7 3.344191 1_555
Cu10 Zr4 2.620215 1_555
Cu10 Zr11 2.648806 1_645
Cu10 Cu18 2.708306 1_555
Cu10 Cu15 2.770464 1_656
Cu10 Zr3 2.799540 1_655
Cu10 Zr13 2.805005 1_655
Cu10 Zr1 2.816816 1_656
Cu10 Zr7 2.820894 1_655
Cu10 Zr8 3.344198 1_555
Cu11 Zr5 2.620215 1_555
Cu11 Zr11 2.648806 1_554
Cu11 Cu19 2.708306 1_555
Cu11 Cu14 2.770464 1_465
Cu11 Zr2 2.799548 1_455
Cu11 Zr13 2.805005 1_555
Cu11 Zr1 2.816816 1_565
Cu11 Zr6 2.820894 1_455
Cu11 Zr9 3.344198 1_555
Cu12 Cu5 2.613950 1_555
Cu12 Zr4 2.621490 1_554
Cu12 Zr10 2.647832 1_555
Cu12 Cu16 2.708329 1_555
Cu12 Cu4 2.746168 1_555
Cu12 Cu9 2.770474 1_554
Cu12 Zr3 2.801053 1_554
Cu12 Zr0 2.805014 1_554
Cu12 Zr12 2.817433 1_555
Cu12 Zr9 2.819470 1_555
Cu12 Zr6 3.342679 1_555
Cu13 Cu4 2.613957 1_555
Cu13 Zr5 2.621482 1_545
Cu13 Zr10 2.647832 1_555
Cu13 Cu17 2.708326 1_555
Cu13 Cu5 2.746162 1_555
Cu13 Cu8 2.770474 1_545
Cu13 Zr2 2.801053 1_545
Cu13 Zr0 2.805014 1_545
Cu13 Zr12 2.817434 1_555
Cu13 Zr8 2.819477 1_555
Cu13 Zr7 3.342672 1_555
Cu14 Cu7 2.613960 1_645
Cu14 Zr2 2.621485 1_545
Cu14 Zr11 2.647839 1_645
Cu14 Cu18 2.708314 1_555
Cu14 Cu6 2.746172 1_545
Cu14 Zr5 2.801050 1_645
Cu14 Zr1 2.805003 1_655
Cu14 Zr13 2.817449 1_645
Cu14 Zr7 2.819479 1_655
Cu14 Zr8 3.342668 1_555
Cu15 Cu6 2.613960 1_454
Cu15 Zr3 2.621477 1_554
Cu15 Zr11 2.647839 1_554
Cu15 Cu19 2.708314 1_555
Cu15 Cu7 2.746172 1_554
Cu15 Zr4 2.801050 1_454
Cu15 Zr1 2.805003 1_555
Cu15 Zr13 2.817449 1_554
Cu15 Zr6 2.819479 1_455
Cu15 Zr9 3.342668 1_555
Cu16 Zr6 2.680661 1_555
Cu16 Cu8 2.708311 1_555
Cu16 Cu6 2.711009 1_554
Cu16 Cu17 2.746560 1_564
Cu16 Zr12 2.758940 1_565
Cu16 Zr0 2.759798 1_554
Cu16 Zr9 2.861330 1_555
Cu16 Zr8 2.874821 1_564
Cu17 Zr7 2.680661 1_555
Cu17 Cu9 2.708311 1_555
Cu17 Cu7 2.711009 1_545
Cu17 Zr12 2.758940 1_556
Cu17 Zr0 2.759798 1_545
Cu17 Zr8 2.861330 1_555
Cu17 Zr9 2.874821 1_546
Cu18 Zr8 2.680651 1_555
Cu18 Cu2 2.709400 1_555
Cu18 Cu4 2.711018 1_555
Cu18 Cu19 2.746573 1_655
Cu18 Zr13 2.758932 1_655
Cu18 Zr1 2.759791 1_655
Cu18 Zr7 2.861327 1_655
Cu18 Zr6 2.874826 1_555
Cu19 Zr9 2.680651 1_555
Cu19 Cu3 2.709400 1_555
Cu19 Cu5 2.711018 1_555
Cu19 Zr13 2.758932 1_555
Cu19 Zr1 2.759791 1_555
Cu19 Zr6 2.861327 1_455
Cu19 Zr7 2.874826 1_555
