# generated using pymatgen
data_TbCu5
_symmetry_space_group_name_H-M   'P 1'
_cell_length_a   4.98564505
_cell_length_b   4.98564740
_cell_length_c   4.05203150
_cell_angle_alpha   90.00000000
_cell_angle_beta   90.00000000
_cell_angle_gamma   120.00000461
_symmetry_Int_Tables_number   1
_chemical_formula_structural   TbCu5
_chemical_formula_sum   'Tb1 Cu5'
_cell_volume   87.22607715
_cell_formula_units_Z   1
loop_
 _symmetry_equiv_pos_site_id
 _symmetry_equiv_pos_as_xyz
  1  'x, y, z'
loop_
 _atom_site_type_symbol
 _atom_site_label
 _atom_site_symmetry_multiplicity
 _atom_site_fract_x
 _atom_site_fract_y
 _atom_site_fract_z
 _atom_site_occupancy
  Tb  Tb0  1  -0.00000000  -0.00000000  0.00000000  1
  Cu  Cu0  1  -0.00000000  0.50000000  0.50000000  1
  Cu  Cu1  1  0.33333300  0.66666700  -0.00000000  1
  Cu  Cu2  1  0.66666700  0.33333300  -0.00000000  1
  Cu  Cu3  1  0.50000000  -0.00000000  0.50000000  1
  Cu  Cu4  1  0.50000000  0.50000000  0.50000000  1
loop_
_geom_bond_atom_site_label_1
_geom_bond_atom_site_label_2
_geom_bond_distance
_geom_bond_site_symmetry_2
Cu0 Cu1 2.485181 1_555
Cu0 Cu2 2.485181 1_455
Cu0 Cu1 2.485181 1_556
Cu0 Cu2 2.485181 1_456
Cu0 Cu4 2.492823 1_455
Cu0 Cu4 2.492823 1_555
Cu0 Cu3 2.492823 1_455
Cu0 Cu3 2.492823 1_565
Cu0 Tb0 3.212306 1_555
Cu0 Tb0 3.212306 1_556
Cu0 Tb0 3.212306 1_565
Cu0 Tb0 3.212306 1_566
Cu1 Cu3 2.485181 1_564
Cu1 Cu3 2.485181 1_565
Cu1 Cu4 2.485184 1_555
Cu1 Cu4 2.485184 1_554
Cu1 Tb0 2.878461 1_565
Cu1 Tb0 2.878465 1_665
Cu1 Tb0 2.878466 1_555
Cu2 Cu3 2.485181 1_555
Cu2 Cu3 2.485181 1_554
Cu2 Cu4 2.485184 1_554
Cu2 Cu4 2.485184 1_555
Cu2 Tb0 2.878461 1_655
Cu2 Tb0 2.878465 1_555
Cu2 Tb0 2.878466 1_665
Cu3 Cu4 2.492824 1_555
Cu3 Cu4 2.492824 1_545
Cu3 Tb0 3.212305 1_555
Cu3 Tb0 3.212305 1_556
Cu3 Tb0 3.212305 1_656
Cu3 Tb0 3.212305 1_655
Cu4 Tb0 3.212305 1_555
Cu4 Tb0 3.212305 1_556
Cu4 Tb0 3.212305 1_666
Cu4 Tb0 3.212305 1_665
