# generated using pymatgen
data_Na3Co2CuH8S4O17
_symmetry_space_group_name_H-M   'P 1'
_cell_length_a   7.59708428
_cell_length_b   7.89223496
_cell_length_c   14.33853800
_cell_angle_alpha   90.00000000
_cell_angle_beta   90.00000000
_cell_angle_gamma   101.35630887
_symmetry_Int_Tables_number   1
_chemical_formula_structural   Na3Co2CuH8S4O17
_chemical_formula_sum   'Na6 Co4 Cu2 H16 S8 O34'
_cell_volume   842.87796328
_cell_formula_units_Z   2
loop_
 _symmetry_equiv_pos_site_id
 _symmetry_equiv_pos_as_xyz
  1  'x, y, z'
loop_
 _atom_site_type_symbol
 _atom_site_label
 _atom_site_symmetry_multiplicity
 _atom_site_fract_x
 _atom_site_fract_y
 _atom_site_fract_z
 _atom_site_occupancy
  Na  Na0  1  0.61783200  0.29078000  0.74923000  1
  Na  Na1  1  0.38216800  0.70922000  0.24923000  1
  Na  Na2  1  0.05711200  0.32446000  0.60698100  1
  Na  Na3  1  0.94288800  0.67554000  0.10698100  1
  Na  Na4  1  0.96919700  0.68864400  0.40146100  1
  Na  Na5  1  0.03080300  0.31135600  0.90146100  1
  Co  Co0  1  0.26508200  0.84048500  0.61344800  1
  Co  Co1  1  0.73491800  0.15951500  0.11344800  1
  Co  Co2  1  0.73602200  0.16037600  0.38759500  1
  Co  Co3  1  0.26397800  0.83962400  0.88759500  1
  Cu  Cu0  1  0.78789100  0.77447900  0.74953400  1
  Cu  Cu1  1  0.21210900  0.22552100  0.24953400  1
  H  H0  1  0.54126500  0.69831100  0.53861300  1
  H  H1  1  0.45873500  0.30168900  0.03861300  1
  H  H2  1  0.45977100  0.30190500  0.46148000  1
  H  H3  1  0.54022900  0.69809500  0.96148000  1
  H  H4  1  0.35274100  0.62668200  0.48680800  1
  H  H5  1  0.64725900  0.37331800  0.98680800  1
  H  H6  1  0.64823100  0.37355400  0.51308900  1
  H  H7  1  0.35176900  0.62644600  0.01308900  1
  H  H8  1  0.80404400  0.94009200  0.51976000  1
  H  H9  1  0.19595600  0.05990800  0.01976000  1
  H  H10  1  0.19462600  0.05963400  0.47984700  1
  H  H11  1  0.80537400  0.94036600  0.97984700  1
  H  H12  1  0.68559100  0.05552700  0.56667300  1
  H  H13  1  0.31440900  0.94447300  0.06667300  1
  H  H14  1  0.31490400  0.94491700  0.43380700  1
  H  H15  1  0.68509600  0.05508300  0.93380700  1
  S  S0  1  0.84354200  0.63484700  0.61709800  1
  S  S1  1  0.15645800  0.36515300  0.11709800  1
  S  S2  1  0.15613700  0.36466900  0.38170800  1
  S  S3  1  0.84386300  0.63533100  0.88170800  1
  S  S4  1  0.00901900  0.02217100  0.75062700  1
  S  S5  1  0.99098100  0.97782900  0.25062700  1
  S  S6  1  0.53838300  0.89445600  0.75029500  1
  S  S7  1  0.46161700  0.10554400  0.25029500  1
  O  O0  1  0.53104600  0.00549100  0.66334100  1
  O  O1  1  0.46895400  0.99450900  0.16334100  1
  O  O2  1  0.46791900  0.99320800  0.33676400  1
  O  O3  1  0.53208100  0.00679200  0.83676400  1
  O  O4  1  0.77532700  0.71635800  0.53066300  1
  O  O5  1  0.22467300  0.28364200  0.03066300  1
  O  O6  1  0.22281300  0.28244000  0.46807000  1
  O  O7  1  0.77718700  0.71756000  0.96807000  1
  O  O8  1  0.93325600  0.18447100  0.75087500  1
  O  O9  1  0.06674400  0.81552900  0.25087500  1
  O  O10  1  0.12521300  0.02780000  0.66389000  1
  O  O11  1  0.87478700  0.97220000  0.16389000  1
  O  O12  1  0.87403800  0.97121700  0.33712000  1
  O  O13  1  0.12596200  0.02878300  0.83712000  1
  O  O14  1  0.75703600  0.44449700  0.61675000  1
  O  O15  1  0.24296400  0.55550300  0.11675000  1
  O  O16  1  0.24628100  0.55458400  0.38190600  1
  O  O17  1  0.75371900  0.44541600  0.88190600  1
  O  O18  1  0.40896900  0.68616100  0.54375100  1
  O  O19  1  0.59103100  0.31383900  0.04375100  1
  O  O20  1  0.59221700  0.31985400  0.45454400  1
  O  O21  1  0.40778300  0.68014600  0.95454400  1
  O  O22  1  0.04318500  0.63891000  0.59959400  1
  O  O23  1  0.95681500  0.36109000  0.09959400  1
  O  O24  1  0.95706700  0.36462000  0.39817500  1
  O  O25  1  0.04293300  0.63538000  0.89817500  1
  O  O26  1  0.78181500  0.06063300  0.51948300  1
  O  O27  1  0.21818500  0.93936700  0.01948300  1
  O  O28  1  0.21689400  0.93896700  0.48012000  1
  O  O29  1  0.78310600  0.06103300  0.98012000  1
  O  O30  1  0.34940300  0.77496300  0.75067900  1
  O  O31  1  0.65059700  0.22503700  0.25067900  1
  O  O32  1  0.33649400  0.37575700  0.70672200  1
  O  O33  1  0.66350600  0.62424300  0.20672200  1
loop_
_geom_bond_atom_site_label_1
_geom_bond_atom_site_label_2
_geom_bond_distance
_geom_bond_site_symmetry_2
Na0 O17 2.382865 1_555
Na0 O14 2.386060 1_555
Na0 O32 2.440092 1_555
Na0 O0 2.536983 1_555
Na0 O3 2.539311 1_555
Na0 O8 2.690457 1_555
Na1 O16 2.382865 1_555
Na1 O15 2.386060 1_555
Na1 O33 2.440092 1_555
Na1 O1 2.536983 1_555
Na1 O2 2.539311 1_555
Na1 O9 2.690457 1_555
Na2 O6 2.413766 1_555
Na2 O8 2.439985 1_455
Na2 O22 2.506935 1_555
Na2 O32 2.525026 1_555
Na2 O10 2.625317 1_555
Na2 O14 2.639070 1_455
Na2 O26 2.927230 1_455
Na3 O7 2.413766 1_554
Na3 O9 2.439985 1_655
Na3 O23 2.506935 1_555
Na3 O33 2.525026 1_555
Na3 O11 2.625317 1_555
Na3 O15 2.639070 1_655
Na3 O27 2.927230 1_655
Na4 O4 2.403330 1_555
Na4 O9 2.433478 1_655
Na4 O24 2.541172 1_555
Na4 O16 2.550748 1_655
Na4 O12 2.642377 1_555
Na4 O28 2.692968 1_655
Na4 O22 2.937317 1_655
Na5 O5 2.403330 1_556
Na5 O8 2.433478 1_455
Na5 O25 2.541172 1_555
Na5 O17 2.550748 1_455
Na5 O13 2.642377 1_555
Na5 O29 2.692968 1_455
Na5 O23 2.937317 1_456
Co0 O18 2.049725 1_555
Co0 O22 2.087105 1_555
Co0 O10 2.111003 1_565
Co0 O28 2.122473 1_555
Co0 O30 2.163339 1_555
Co0 O0 2.292172 1_565
Co1 O19 2.049725 1_555
Co1 O23 2.087105 1_555
Co1 O11 2.111003 1_545
Co1 O29 2.122473 1_554
Co1 O31 2.163339 1_555
Co1 O1 2.292172 1_545
Co2 O20 2.059309 1_555
Co2 O24 2.091738 1_555
Co2 O26 2.103508 1_555
Co2 O12 2.113848 1_545
Co2 O31 2.160113 1_555
Co2 O2 2.315626 1_545
Co3 O21 2.059309 1_555
Co3 O25 2.091738 1_555
Co3 O27 2.103508 1_556
Co3 O13 2.113848 1_565
Co3 O30 2.160113 1_555
Co3 O3 2.315626 1_565
Cu0 S3 2.272103 1_555
Cu0 S0 2.276538 1_555
Cu0 S6 2.279607 1_555
Cu0 S4 2.313118 1_665
Cu1 S2 2.272103 1_555
Cu1 S1 2.276538 1_555
Cu1 S7 2.279607 1_555
Cu1 S5 2.313118 1_445
H0 O18 0.993389 1_555
H0 O4 1.759401 1_555
H1 O19 0.993389 1_555
H1 O5 1.759401 1_555
H2 O20 0.993111 1_555
H2 O6 1.778848 1_555
H3 O21 0.993111 1_555
H3 O7 1.778848 1_555
H4 O18 0.995238 1_555
H4 O16 1.749032 1_555
H5 O19 0.995238 1_556
H5 O17 1.749032 1_555
H6 O20 0.997173 1_555
H6 O14 1.738884 1_555
H7 O21 0.997173 1_554
H7 O15 1.738884 1_555
H8 O26 0.998423 1_565
H8 O4 1.743054 1_555
H9 O27 0.998423 1_545
H9 O5 1.743054 1_555
H10 O28 0.999509 1_545
H10 O6 1.737291 1_555
H11 O29 0.999509 1_565
H11 O7 1.737291 1_555
H12 O26 0.991086 1_555
H13 O27 0.991086 1_555
H14 O28 0.991880 1_555
H15 O29 0.991880 1_555
O0 S6 1.531262 1_545
O1 S7 1.531262 1_565
O2 S7 1.530437 1_565
O3 S6 1.530437 1_545
O4 S0 1.532871 1_555
O5 S1 1.532871 1_555
O6 S2 1.529905 1_555
O7 S3 1.529905 1_555
O8 S4 1.504121 1_655
O9 S5 1.504121 1_455
O10 S4 1.520689 1_555
O11 S5 1.520689 1_555
O12 S5 1.520467 1_555
O13 S4 1.520467 1_555
O14 S0 1.516568 1_555
O15 S1 1.516568 1_555
O16 S2 1.520304 1_555
O17 S3 1.520304 1_555
O22 S0 1.531424 1_455
O23 S1 1.531424 1_655
O24 S2 1.530597 1_655
O25 S3 1.530597 1_455
O30 S6 1.554804 1_555
O31 S7 1.554804 1_555
