# generated using pymatgen
data_ErO
_symmetry_space_group_name_H-M   'P 1'
_cell_length_a   3.96324538
_cell_length_b   3.96324538
_cell_length_c   4.76082000
_cell_angle_alpha   90.00000000
_cell_angle_beta   90.00000000
_cell_angle_gamma   119.99998963
_symmetry_Int_Tables_number   1
_chemical_formula_structural   ErO
_chemical_formula_sum   'Er2 O2'
_cell_volume   64.76112173
_cell_formula_units_Z   2
loop_
 _symmetry_equiv_pos_site_id
 _symmetry_equiv_pos_as_xyz
  1  'x, y, z'
loop_
 _atom_site_type_symbol
 _atom_site_label
 _atom_site_symmetry_multiplicity
 _atom_site_fract_x
 _atom_site_fract_y
 _atom_site_fract_z
 _atom_site_occupancy
  Er  Er0  1  0.66666700  0.33333300  0.25000000  1
  Er  Er1  1  0.33333300  0.66666700  0.75000000  1
  O  O0  1  0.66666700  0.33333300  0.75000000  1
  O  O1  1  0.33333300  0.66666700  0.25000000  1
loop_
_geom_bond_atom_site_label_1
_geom_bond_atom_site_label_2
_geom_bond_distance
_geom_bond_site_symmetry_2
Er0 O1 2.288179 1_545
Er0 O1 2.288179 1_655
Er0 O1 2.288185 1_555
Er0 O0 2.380410 1_555
Er0 O0 2.380410 1_554
Er1 O0 2.288179 1_565
Er1 O0 2.288179 1_455
Er1 O0 2.288185 1_555
Er1 O1 2.380410 1_555
Er1 O1 2.380410 1_556
