# generated using pymatgen
data_BeNi3
_symmetry_space_group_name_H-M   'P 1'
_cell_length_a   4.15018481
_cell_length_b   4.15018481
_cell_length_c   4.15018481
_cell_angle_alpha   130.71566210
_cell_angle_beta   130.71566210
_cell_angle_gamma   72.26522335
_symmetry_Int_Tables_number   1
_chemical_formula_structural   BeNi3
_chemical_formula_sum   'Be1 Ni3'
_cell_volume   40.14722559
_cell_formula_units_Z   1
loop_
 _symmetry_equiv_pos_site_id
 _symmetry_equiv_pos_as_xyz
  1  'x, y, z'
loop_
 _atom_site_type_symbol
 _atom_site_label
 _atom_site_symmetry_multiplicity
 _atom_site_fract_x
 _atom_site_fract_y
 _atom_site_fract_z
 _atom_site_occupancy
  Be  Be0  1  0.00000000  0.00000000  0.00000000  1
  Ni  Ni0  1  0.75000000  0.25000000  0.50000000  1
  Ni  Ni1  1  0.25000000  0.75000000  0.50000000  1
  Ni  Ni2  1  0.50000000  0.50000000  0.00000000  1
loop_
_geom_bond_atom_site_label_1
_geom_bond_atom_site_label_2
_geom_bond_distance
_geom_bond_site_symmetry_2
Be0 Ni0 2.408980 1_444
Be0 Ni1 2.408980 1_544
Be0 Ni0 2.408980 1_454
Be0 Ni1 2.408980 1_444
Be0 Ni1 2.408980 1_555
Be0 Ni0 2.408980 1_555
Be0 Ni0 2.408980 1_455
Be0 Ni1 2.408980 1_545
Be0 Ni2 2.447182 1_556
Be0 Ni2 2.447182 1_455
Be0 Ni2 2.447182 1_444
Be0 Ni2 2.447182 1_545
Ni0 Ni2 2.408980 1_555
Ni0 Ni2 2.408980 1_556
Ni0 Ni2 2.408980 1_545
Ni0 Ni2 2.408980 1_656
Ni0 Ni1 2.447182 1_544
Ni0 Ni1 2.447182 1_645
Ni0 Ni1 2.447182 1_656
Ni0 Ni1 2.447182 1_555
Ni1 Ni2 2.408980 1_455
Ni1 Ni2 2.408980 1_566
Ni1 Ni2 2.408980 1_556
Ni1 Ni2 2.408980 1_555
