# generated using pymatgen
data_CeInCu
_symmetry_space_group_name_H-M   'P 1'
_cell_length_a   4.74078156
_cell_length_b   4.74078156
_cell_length_c   6.73449384
_cell_angle_alpha   90.00373691
_cell_angle_beta   89.99626309
_cell_angle_gamma   120.04514747
_symmetry_Int_Tables_number   1
_chemical_formula_structural   CeInCu
_chemical_formula_sum   'Ce2 In2 Cu2'
_cell_volume   131.02003881
_cell_formula_units_Z   2
loop_
 _symmetry_equiv_pos_site_id
 _symmetry_equiv_pos_as_xyz
  1  'x, y, z'
loop_
 _atom_site_type_symbol
 _atom_site_label
 _atom_site_symmetry_multiplicity
 _atom_site_fract_x
 _atom_site_fract_y
 _atom_site_fract_z
 _atom_site_occupancy
  Ce  Ce0  1  -0.00000000  0.00000000  0.50000000  1
  Ce  Ce1  1  -0.00000000  0.00000000  0.00000000  1
  In  In0  1  0.66631407  0.33368593  0.25029048  1
  In  In1  1  0.33368593  0.66631407  0.74970952  1
  Cu  Cu0  1  0.66667922  0.33332078  0.74995051  1
  Cu  Cu1  1  0.33332078  0.66667922  0.25004949  1
loop_
_geom_bond_atom_site_label_1
_geom_bond_atom_site_label_2
_geom_bond_distance
_geom_bond_site_symmetry_2
Ce0 In1 3.210077 1_445
Ce0 In0 3.210077 1_555
Ce0 In0 3.210077 1_445
Ce0 In1 3.210077 1_555
Ce0 Cu1 3.212312 1_445
Ce0 Cu1 3.212312 1_555
Ce0 Cu0 3.212312 1_555
Ce0 Cu0 3.212312 1_445
Ce0 Cu1 3.213609 1_545
Ce0 Cu0 3.213609 1_455
Ce0 In1 3.215531 1_545
Ce0 In0 3.215531 1_455
Ce1 In1 3.212236 1_554
Ce1 In0 3.212236 1_555
Ce1 In0 3.212236 1_445
Ce1 In1 3.212236 1_444
Ce1 Cu1 3.212554 1_445
Ce1 Cu1 3.212554 1_555
Ce1 Cu0 3.212554 1_554
Ce1 Cu0 3.212554 1_444
Ce1 Cu1 3.214174 1_545
Ce1 Cu0 3.214174 1_454
Ce1 In1 3.217363 1_544
Ce1 In0 3.217363 1_455
Cu0 In1 2.734922 1_555
Cu0 In1 2.737245 1_545
Cu0 In1 2.737245 1_655
Cu0 In0 3.364959 1_555
Cu0 In0 3.369538 1_556
Cu1 In0 2.734922 1_555
Cu1 In0 2.737245 1_455
Cu1 In0 2.737245 1_565
Cu1 In1 3.364959 1_555
Cu1 In1 3.369538 1_554
