# generated using pymatgen
data_CdI3NO
_symmetry_space_group_name_H-M   'P 1'
_cell_length_a   8.28356600
_cell_length_b   7.06952100
_cell_length_c   17.49145400
_cell_angle_alpha   90.00000000
_cell_angle_beta   90.00000000
_cell_angle_gamma   90.00000000
_symmetry_Int_Tables_number   1
_chemical_formula_structural   CdI3NO
_chemical_formula_sum   'Cd4 I12 N4 O4'
_cell_volume   1024.31430539
_cell_formula_units_Z   4
loop_
 _symmetry_equiv_pos_site_id
 _symmetry_equiv_pos_as_xyz
  1  'x, y, z'
loop_
 _atom_site_type_symbol
 _atom_site_label
 _atom_site_symmetry_multiplicity
 _atom_site_fract_x
 _atom_site_fract_y
 _atom_site_fract_z
 _atom_site_occupancy
  Cd  Cd0  1  0.28987200  0.00000000  0.52068900  1
  Cd  Cd1  1  0.71012800  0.00000000  0.02068900  1
  Cd  Cd2  1  0.28009500  0.50000000  0.51874400  1
  Cd  Cd3  1  0.71990500  0.50000000  0.01874400  1
  I  I0  1  0.95434200  0.00000000  0.50781200  1
  I  I1  1  0.04565800  0.00000000  0.00781200  1
  I  I2  1  0.95004900  0.50000000  0.49424600  1
  I  I3  1  0.04995100  0.50000000  0.99424600  1
  I  I4  1  0.40789400  0.50000000  0.66581300  1
  I  I5  1  0.59210600  0.50000000  0.16581300  1
  I  I6  1  0.42424400  0.00000000  0.66550100  1
  I  I7  1  0.57575600  0.00000000  0.16550100  1
  I  I8  1  0.45241500  0.25047600  0.41558300  1
  I  I9  1  0.45241500  0.74952400  0.41558300  1
  I  I10  1  0.54758500  0.74952400  0.91558300  1
  I  I11  1  0.54758500  0.25047600  0.91558300  1
  N  N0  1  0.80483000  0.24857700  0.64872700  1
  N  N1  1  0.80483000  0.75142300  0.64872700  1
  N  N2  1  0.19517000  0.75142300  0.14872700  1
  N  N3  1  0.19517000  0.24857700  0.14872700  1
  O  O0  1  0.05016500  0.08723800  0.79402800  1
  O  O1  1  0.05016500  0.91276200  0.79402800  1
  O  O2  1  0.94983500  0.91276200  0.29402800  1
  O  O3  1  0.94983500  0.08723800  0.29402800  1
loop_
_geom_bond_atom_site_label_1
_geom_bond_atom_site_label_2
_geom_bond_distance
_geom_bond_site_symmetry_2
Cd0 I6 2.766748 1_555
Cd0 I0 2.788496 1_455
Cd0 I9 2.885888 1_545
Cd0 I8 2.885888 1_555
Cd1 I7 2.766748 1_555
Cd1 I1 2.788496 1_655
Cd1 I11 2.885888 1_554
Cd1 I10 2.885888 1_544
Cd2 I2 2.767335 1_455
Cd2 I4 2.781763 1_555
Cd2 I9 2.899186 1_555
Cd2 I8 2.899186 1_555
Cd3 I3 2.767335 1_654
Cd3 I5 2.781763 1_555
Cd3 I10 2.899186 1_554
Cd3 I11 2.899186 1_554
O0 O1 1.233462 1_545
O2 O3 1.233462 1_565
