# generated using pymatgen
data_Ca2LaGaCu2O7
_symmetry_space_group_name_H-M   'P 1'
_cell_length_a   11.78676274
_cell_length_b   11.78676274
_cell_length_c   11.78676274
_cell_angle_alpha   153.29113345
_cell_angle_beta   152.28689437
_cell_angle_gamma   38.86842240
_symmetry_Int_Tables_number   1
_chemical_formula_structural   Ca2LaGaCu2O7
_chemical_formula_sum   'Ca4 La2 Ga2 Cu4 O14'
_cell_volume   341.68088929
_cell_formula_units_Z   2
loop_
 _symmetry_equiv_pos_site_id
 _symmetry_equiv_pos_as_xyz
  1  'x, y, z'
loop_
 _atom_site_type_symbol
 _atom_site_label
 _atom_site_symmetry_multiplicity
 _atom_site_fract_x
 _atom_site_fract_y
 _atom_site_fract_z
 _atom_site_occupancy
  Ca  Ca0  1  0.61114500  0.68747300  0.98913500  1
  Ca  Ca1  1  0.38885500  0.37799000  0.07632800  1
  Ca  Ca2  1  0.19833800  0.18747300  0.07632800  1
  Ca  Ca3  1  0.80166200  0.87799000  0.98913500  1
  La  La0  1  0.00000000  0.00491500  0.00491500  1
  La  La1  1  0.50000000  0.50491500  0.00491500  1
  Ga  Ga0  1  0.17663100  0.80461100  0.48124300  1
  Ga  Ga1  1  0.82336900  0.30461100  0.62798000  1
  Cu  Cu0  1  0.58578700  0.08878800  0.51184500  1
  Cu  Cu1  1  0.41421300  0.92605800  0.50300100  1
  Cu  Cu2  1  0.07694300  0.58878800  0.50300100  1
  Cu  Cu3  1  0.92305700  0.42605800  0.51184500  1
  O  O0  1  0.13381400  0.15806100  0.79187500  1
  O  O1  1  0.86618600  0.65806100  0.02424700  1
  O  O2  1  0.60947900  0.14094100  0.39092800  1
  O  O3  1  0.39052100  0.78144900  0.53146200  1
  O  O4  1  0.25001300  0.64094100  0.53146200  1
  O  O5  1  0.74998700  0.28144900  0.39092800  1
  O  O6  1  0.32220500  0.32703200  0.50940900  1
  O  O7  1  0.67779500  0.18720400  0.00482700  1
  O  O8  1  0.31762200  0.82703200  0.00482700  1
  O  O9  1  0.68237800  0.68720400  0.50940900  1
  O  O10  1  0.82420900  0.83066800  0.50501800  1
  O  O11  1  0.17579100  0.68080900  0.00645900  1
  O  O12  1  0.82565000  0.33066800  0.00645900  1
  O  O13  1  0.17435000  0.18080900  0.50501800  1
loop_
_geom_bond_atom_site_label_1
_geom_bond_atom_site_label_2
_geom_bond_distance
_geom_bond_site_symmetry_2
Ca0 O4 2.283219 1_555
Ca0 O1 2.399774 1_556
Ca0 O2 2.402960 1_566
Ca0 O8 2.537124 1_556
Ca0 O6 2.671331 1_555
Ca0 O10 2.712262 1_556
Ca0 O12 2.860697 1_556
Ca1 O5 2.283219 1_555
Ca1 O0 2.399774 1_554
Ca1 O3 2.402960 1_555
Ca1 O9 2.537121 1_555
Ca1 O7 2.671331 1_555
Ca1 O11 2.712262 1_555
Ca1 O13 2.860697 1_554
Ca2 O2 2.283219 1_555
Ca2 O0 2.399774 1_554
Ca2 O4 2.402960 1_555
Ca2 O6 2.537113 1_555
Ca2 O8 2.671336 1_545
Ca2 O12 2.712262 1_455
Ca2 O10 2.860697 1_444
Ca3 O3 2.283219 1_555
Ca3 O1 2.399774 1_556
Ca3 O5 2.402960 1_566
Ca3 O7 2.537113 1_566
Ca3 O9 2.671339 1_555
Ca3 O13 2.712262 1_666
Ca3 O11 2.860697 1_656
La0 O8 2.488312 1_545
La0 O9 2.488315 1_444
La0 O6 2.515965 1_555
La0 O7 2.515965 1_455
La0 O11 2.572728 1_545
La0 O10 2.572728 1_444
La0 O12 2.573009 1_455
La0 O13 2.573009 1_555
La1 O6 2.488322 1_554
La1 O7 2.488322 1_555
La1 O9 2.515959 1_555
La1 O8 2.515962 1_555
La1 O13 2.572728 1_554
La1 O12 2.572728 1_555
La1 O11 2.573009 1_555
La1 O10 2.573009 1_555
Ga0 O4 1.831778 1_555
Ga0 O3 1.831797 1_555
Ga0 O1 1.925768 1_455
Ga0 O0 1.939611 1_565
Ga1 O2 1.831788 1_555
Ga1 O5 1.831788 1_555
Ga1 O0 1.925764 1_655
Ga1 O1 1.939614 1_556
Cu0 O12 1.944748 1_556
Cu0 O10 1.951775 1_545
Cu0 O6 1.984793 1_555
Cu0 O8 2.005684 1_545
Cu0 O2 2.241505 1_555
Cu1 O13 1.944748 1_565
Cu1 O11 1.951775 1_555
Cu1 O7 1.984793 1_566
Cu1 O9 2.005687 1_555
Cu1 O3 2.241505 1_555
Cu2 O10 1.944748 1_455
Cu2 O12 1.951775 1_455
Cu2 O8 1.984794 1_556
Cu2 O6 2.005682 1_555
Cu2 O4 2.241505 1_555
Cu3 O11 1.944748 1_656
Cu3 O13 1.951775 1_655
Cu3 O9 1.984791 1_555
Cu3 O7 2.005682 1_555
Cu3 O5 2.241505 1_555
