# generated using pymatgen
data_MgB4Os3
_symmetry_space_group_name_H-M   'P 1'
_cell_length_a   2.91292912
_cell_length_b   6.10898245
_cell_length_c   9.75399202
_cell_angle_alpha   90.00000000
_cell_angle_beta   90.00000000
_cell_angle_gamma   103.79292924
_symmetry_Int_Tables_number   1
_chemical_formula_structural   MgB4Os3
_chemical_formula_sum   'Mg2 B8 Os6'
_cell_volume   168.56741854
_cell_formula_units_Z   2
loop_
 _symmetry_equiv_pos_site_id
 _symmetry_equiv_pos_as_xyz
  1  'x, y, z'
loop_
 _atom_site_type_symbol
 _atom_site_label
 _atom_site_symmetry_multiplicity
 _atom_site_fract_x
 _atom_site_fract_y
 _atom_site_fract_z
 _atom_site_occupancy
  Mg  Mg0  1  0.50000000  0.00000000  -0.00000000  1
  Mg  Mg1  1  0.50000000  0.00000000  0.50000000  1
  B  B0  1  0.62309039  0.24617979  0.25000000  1
  B  B1  1  0.37690961  0.75382021  0.75000000  1
  B  B2  1  0.34615760  0.69231519  0.25000000  1
  B  B3  1  0.65384240  0.30768481  0.75000000  1
  B  B4  1  0.15884651  0.31769402  0.89004862  1
  B  B5  1  0.84115349  0.68230598  0.39004862  1
  B  B6  1  0.84115349  0.68230598  0.10995138  1
  B  B7  1  0.15884651  0.31769402  0.60995138  1
  Os  Os0  1  0.19979205  0.39958410  0.10739320  1
  Os  Os1  1  0.01613764  0.03227527  0.75000000  1
  Os  Os2  1  0.98386236  0.96772473  0.25000000  1
  Os  Os3  1  0.80020795  0.60041590  0.89260680  1
  Os  Os4  1  0.80020795  0.60041590  0.60739320  1
  Os  Os5  1  0.19979205  0.39958410  0.39260680  1
loop_
_geom_bond_atom_site_label_1
_geom_bond_atom_site_label_2
_geom_bond_distance
_geom_bond_site_symmetry_2
Mg0 Os1 2.846792 1_554
Mg0 Os2 2.846792 1_545
Mg0 Os1 2.846792 1_654
Mg0 Os2 2.846792 1_445
Mg0 Os3 2.972979 1_544
Mg0 Os0 2.972979 1_555
Mg0 Os3 2.972979 1_444
Mg0 Os0 2.972979 1_655
Mg1 Os1 2.846792 1_555
Mg1 Os2 2.846792 1_545
Mg1 Os1 2.846792 1_655
Mg1 Os2 2.846792 1_445
Mg1 Os5 2.972979 1_655
Mg1 Os5 2.972979 1_555
Mg1 Os4 2.972979 1_445
Mg1 Os4 2.972979 1_545
B0 Os2 2.202378 1_545
B0 Os2 2.202380 1_445
B0 Os5 2.210078 1_655
B0 Os0 2.210078 1_655
B0 Os5 2.210080 1_555
B0 Os0 2.210080 1_555
B0 Mg1 2.842438 1_555
B0 Mg0 2.842438 1_555
B1 Os1 2.202378 1_565
B1 Os1 2.202380 1_665
B1 Os4 2.210078 1_455
B1 Os3 2.210078 1_455
B1 Os3 2.210080 1_555
B1 Os4 2.210080 1_555
B1 Mg0 2.842438 1_566
B1 Mg1 2.842438 1_565
B2 B5 1.997713 1_455
B2 B6 1.997713 1_455
B2 B6 1.997715 1_555
B2 B5 1.997715 1_555
B2 Os2 2.188858 1_555
B2 Os2 2.188858 1_455
B2 Os0 2.225094 1_555
B2 Os5 2.225094 1_555
B3 B4 1.997713 1_655
B3 B7 1.997713 1_655
B3 B4 1.997715 1_555
B3 B7 1.997715 1_555
B3 Os1 2.188858 1_555
B3 Os1 2.188858 1_655
B3 Os3 2.225094 1_555
B3 Os4 2.225094 1_555
B4 Os0 2.174935 1_556
B4 Os1 2.175648 1_555
B4 Os3 2.221570 1_455
B4 Os3 2.221572 1_555
B4 Mg0 2.612283 1_456
B4 Mg0 2.612284 1_556
B5 Os4 2.174935 1_555
B5 Os2 2.175648 1_555
B5 Os5 2.221570 1_655
B5 Os5 2.221572 1_555
B5 Mg1 2.612283 1_665
B5 Mg1 2.612284 1_565
B6 Os3 2.174935 1_554
B6 Os2 2.175648 1_555
B6 Os0 2.221570 1_655
B6 Os0 2.221572 1_555
B6 Mg0 2.612283 1_665
B6 Mg0 2.612284 1_565
B7 Os5 2.174935 1_555
B7 Os1 2.175648 1_555
B7 Os4 2.221570 1_455
B7 Os4 2.221572 1_555
B7 Mg1 2.612283 1_455
B7 Mg1 2.612284 1_555
