# generated using pymatgen
data_La8Cu3O16
_symmetry_space_group_name_H-M   'P 1'
_cell_length_a   7.53639700
_cell_length_b   8.85995854
_cell_length_c   11.61591289
_cell_angle_alpha   93.66295195
_cell_angle_beta   99.16646330
_cell_angle_gamma   102.40535604
_symmetry_Int_Tables_number   1
_chemical_formula_structural   La8Cu3O16
_chemical_formula_sum   'La16 Cu6 O32'
_cell_volume   743.95536915
_cell_formula_units_Z   2
loop_
 _symmetry_equiv_pos_site_id
 _symmetry_equiv_pos_as_xyz
  1  'x, y, z'
loop_
 _atom_site_type_symbol
 _atom_site_label
 _atom_site_symmetry_multiplicity
 _atom_site_fract_x
 _atom_site_fract_y
 _atom_site_fract_z
 _atom_site_occupancy
  La  La0  1  0.81301000  0.04738700  0.72505800  1
  La  La1  1  0.67491200  0.94841000  0.27655300  1
  La  La2  1  0.32508800  0.05159000  0.72344700  1
  La  La3  1  0.82459800  0.79661000  0.98186500  1
  La  La4  1  0.80945400  0.29645600  0.48132600  1
  La  La5  1  0.82878900  0.54936800  0.22568100  1
  La  La6  1  0.31341300  0.79442000  0.98332800  1
  La  La7  1  0.32999100  0.29358400  0.48414800  1
  La  La8  1  0.18699000  0.95261300  0.27494200  1
  La  La9  1  0.67000900  0.70641600  0.51585200  1
  La  La10  1  0.68658700  0.20558000  0.01667200  1
  La  La11  1  0.69222400  0.45057800  0.77763700  1
  La  La12  1  0.19054600  0.70354400  0.51867400  1
  La  La13  1  0.17540200  0.20339000  0.01813500  1
  La  La14  1  0.30777600  0.54942200  0.22236300  1
  La  La15  1  0.17121100  0.45063200  0.77431900  1
  Cu  Cu0  1  0.00000000  0.00000000  0.50000000  1
  Cu  Cu1  1  0.99977100  0.24936900  0.25000600  1
  Cu  Cu2  1  0.49994800  0.24991300  0.24961700  1
  Cu  Cu3  1  0.00022900  0.75063100  0.74999400  1
  Cu  Cu4  1  0.50000000  0.50000000  0.00000000  1
  Cu  Cu5  1  0.50005200  0.75008700  0.75038300  1
  O  O0  1  0.99861800  0.87024500  0.62205300  1
  O  O1  1  0.89927200  0.77495400  0.35743900  1
  O  O2  1  0.50073900  0.87501200  0.62945900  1
  O  O3  1  0.75880400  0.00298000  0.50164700  1
  O  O4  1  0.41497000  0.76264000  0.36419000  1
  O  O5  1  0.91829300  0.01796600  0.11698000  1
  O  O6  1  0.91755500  0.51601200  0.61902300  1
  O  O7  1  0.58503000  0.23736000  0.63581000  1
  O  O8  1  0.99797500  0.36790100  0.12530700  1
  O  O9  1  0.49926100  0.12498800  0.37054100  1
  O  O10  1  0.24119600  0.99702000  0.49835300  1
  O  O11  1  0.74837000  0.24587200  0.24754300  1
  O  O12  1  0.74858800  0.74642800  0.74783200  1
  O  O13  1  0.10072800  0.22504600  0.64256100  1
  O  O14  1  0.60108800  0.97446500  0.89047400  1
  O  O15  1  0.59986200  0.47271100  0.39229600  1
  O  O16  1  0.89776000  0.27108100  0.85566300  1
  O  O17  1  0.40013800  0.52728900  0.60770400  1
  O  O18  1  0.39891200  0.02553500  0.10952600  1
  O  O19  1  0.50195600  0.37852500  0.12704700  1
  O  O20  1  0.25141200  0.25357200  0.25216800  1
  O  O21  1  0.74396200  0.50393400  0.00242100  1
  O  O22  1  0.25163000  0.75412800  0.75245700  1
  O  O23  1  0.00138200  0.12975500  0.37794700  1
  O  O24  1  0.41781000  0.26580900  0.86644300  1
  O  O25  1  0.08170700  0.98203400  0.88302000  1
  O  O26  1  0.08244500  0.48398800  0.38097700  1
  O  O27  1  0.58219000  0.73419100  0.13355700  1
  O  O28  1  0.25603800  0.49606600  0.99757900  1
  O  O29  1  0.49804400  0.62147500  0.87295300  1
  O  O30  1  0.10224000  0.72891900  0.14433700  1
  O  O31  1  0.00202500  0.63209900  0.87469300  1
loop_
_geom_bond_atom_site_label_1
_geom_bond_atom_site_label_2
_geom_bond_distance
_geom_bond_site_symmetry_2
La0 O16 2.323949 1_555
La0 O2 2.551564 1_545
La0 O3 2.553244 1_555
La0 O12 2.643986 1_545
La0 O0 2.662347 1_545
La0 O25 2.694140 1_645
La0 O14 2.711690 1_545
La0 O13 2.736058 1_655
La0 O7 2.785273 1_555
La1 O27 2.346732 1_555
La1 O9 2.554199 1_565
La1 O3 2.578846 1_565
La1 O1 2.626483 1_555
La1 O11 2.629056 1_565
La1 O4 2.654658 1_555
La1 O23 2.675583 1_665
La1 O5 2.814858 1_565
La1 O18 2.837620 1_565
La2 O24 2.346732 1_555
La2 O2 2.554199 1_545
La2 O10 2.578846 1_545
La2 O13 2.626483 1_555
La2 O22 2.629056 1_545
La2 O7 2.654658 1_555
La2 O0 2.675583 1_445
La2 O25 2.814858 1_545
La2 O14 2.837620 1_545
La3 O5 2.338122 1_566
La3 O31 2.568689 1_655
La3 O21 2.568804 1_556
La3 O12 2.675085 1_555
La3 O29 2.679816 1_555
La3 O14 2.689228 1_555
La3 O25 2.711822 1_655
La3 O27 2.732062 1_556
La3 O30 2.779443 1_656
La4 O6 2.347858 1_555
La4 O3 2.577416 1_555
La4 O9 2.587435 1_555
La4 O15 2.597860 1_555
La4 O23 2.638242 1_655
La4 O7 2.657348 1_555
La4 O11 2.672981 1_555
La4 O26 2.809802 1_655
La4 O13 2.857443 1_655
La5 O1 2.348034 1_555
La5 O21 2.554235 1_555
La5 O8 2.585552 1_555
La5 O26 2.598967 1_655
La5 O19 2.635963 1_555
La5 O30 2.659780 1_655
La5 O11 2.664284 1_555
La5 O15 2.812821 1_555
La5 O27 2.859780 1_555
La6 O18 2.346411 1_566
La6 O31 2.557815 1_555
La6 O28 2.605682 1_555
La6 O27 2.624927 1_556
La6 O22 2.635259 1_555
La6 O30 2.656633 1_556
La6 O29 2.676055 1_555
La6 O14 2.808433 1_555
La6 O25 2.831321 1_555
La7 O17 2.352659 1_555
La7 O7 2.547696 1_555
La7 O9 2.589086 1_555
La7 O10 2.591166 1_545
La7 O23 2.648634 1_555
La7 O20 2.648939 1_555
La7 O15 2.704547 1_555
La7 O13 2.728563 1_555
La7 O26 2.942920 1_555
La8 O30 2.323949 1_555
La8 O9 2.551564 1_565
La8 O10 2.553244 1_555
La8 O20 2.643986 1_565
La8 O23 2.662347 1_565
La8 O5 2.694140 1_465
La8 O18 2.711690 1_565
La8 O1 2.736058 1_455
La8 O4 2.785273 1_555
La9 O15 2.352659 1_555
La9 O4 2.547696 1_555
La9 O2 2.589086 1_555
La9 O3 2.591166 1_565
La9 O0 2.648634 1_555
La9 O12 2.648939 1_555
La9 O17 2.704547 1_555
La9 O1 2.728563 1_555
La9 O6 2.942920 1_555
La10 O14 2.346411 1_544
La10 O8 2.557815 1_555
La10 O21 2.605682 1_555
La10 O24 2.624927 1_554
La10 O11 2.635259 1_555
La10 O16 2.656633 1_554
La10 O19 2.676055 1_555
La10 O18 2.808433 1_555
La10 O5 2.831321 1_555
La11 O7 2.336244 1_555
La11 O16 2.558383 1_555
La11 O31 2.573929 1_655
La11 O21 2.575251 1_556
La11 O12 2.618302 1_555
La11 O29 2.629472 1_555
La11 O6 2.706452 1_555
La11 O24 2.731650 1_555
La11 O17 2.938328 1_555
La12 O26 2.347858 1_555
La12 O10 2.577416 1_555
La12 O2 2.587435 1_555
La12 O17 2.597860 1_555
La12 O0 2.638242 1_455
La12 O4 2.657348 1_555
La12 O22 2.672981 1_555
La12 O6 2.809802 1_455
La12 O1 2.857443 1_455
La13 O25 2.338122 1_544
La13 O8 2.568689 1_455
La13 O28 2.568804 1_554
La13 O20 2.675085 1_555
La13 O19 2.679816 1_555
La13 O18 2.689228 1_555
La13 O5 2.711822 1_455
La13 O24 2.732062 1_554
La13 O16 2.779443 1_454
La14 O4 2.336244 1_555
La14 O30 2.558383 1_555
La14 O8 2.573929 1_455
La14 O28 2.575251 1_554
La14 O20 2.618302 1_555
La14 O19 2.629472 1_555
La14 O26 2.706452 1_555
La14 O27 2.731650 1_555
La14 O15 2.938328 1_555
La15 O13 2.348034 1_555
La15 O28 2.554235 1_555
La15 O31 2.585552 1_555
La15 O6 2.598967 1_455
La15 O29 2.635963 1_555
La15 O16 2.659780 1_455
La15 O22 2.664284 1_555
La15 O17 2.812821 1_555
La15 O24 2.859780 1_555
Cu0 O10 1.826721 1_545
Cu0 O3 1.826721 1_455
Cu0 O23 1.881381 1_555
Cu0 O0 1.881381 1_445
Cu0 O13 2.412762 1_555
Cu0 O1 2.412762 1_445
Cu1 O8 1.842672 1_555
Cu1 O23 1.879611 1_655
Cu1 O11 1.883853 1_555
Cu1 O20 1.884931 1_655
Cu1 O5 2.391685 1_555
Cu1 O26 2.400250 1_655
Cu2 O9 1.842994 1_555
Cu2 O19 1.879504 1_555
Cu2 O11 1.884166 1_555
Cu2 O20 1.885194 1_555
Cu2 O18 2.391946 1_555
Cu2 O15 2.399194 1_555
Cu3 O31 1.842672 1_555
Cu3 O0 1.879611 1_455
Cu3 O22 1.883853 1_555
Cu3 O12 1.884931 1_455
Cu3 O25 2.391685 1_555
Cu3 O6 2.400250 1_455
Cu4 O28 1.827102 1_554
Cu4 O21 1.827102 1_555
Cu4 O19 1.881297 1_555
Cu4 O29 1.881297 1_554
Cu4 O27 2.413732 1_555
Cu4 O24 2.413732 1_554
Cu5 O2 1.842994 1_555
Cu5 O29 1.879504 1_555
Cu5 O22 1.884166 1_555
Cu5 O12 1.885194 1_555
Cu5 O14 2.391946 1_555
Cu5 O17 2.399194 1_555
