# generated using pymatgen
data_Mg2Sc
_symmetry_space_group_name_H-M   'P 1'
_cell_length_a   12.25722384
_cell_length_b   12.25722384
_cell_length_c   15.32027045
_cell_angle_alpha   75.82730746
_cell_angle_beta   75.82730746
_cell_angle_gamma   30.20758366
_symmetry_Int_Tables_number   1
_chemical_formula_structural   Mg2Sc
_chemical_formula_sum   'Mg32 Sc16'
_cell_volume   1120.20942017
_cell_formula_units_Z   16
loop_
 _symmetry_equiv_pos_site_id
 _symmetry_equiv_pos_as_xyz
  1  'x, y, z'
loop_
 _atom_site_type_symbol
 _atom_site_label
 _atom_site_symmetry_multiplicity
 _atom_site_fract_x
 _atom_site_fract_y
 _atom_site_fract_z
 _atom_site_occupancy
  Mg  Mg0_0  1  0.01397599  0.01397600  0.34700771  1
  Mg  Mg0_1  1  0.01397600  0.01397600  0.84700772  1
  Mg  Mg0_2  1  0.01397599  0.51397600  0.34700771  1
  Mg  Mg0_3  1  0.01397599  0.51397600  0.84700772  1
  Mg  Mg0_4  1  0.51397600  0.01397600  0.34700771  1
  Mg  Mg0_5  1  0.51397600  0.01397600  0.84700772  1
  Mg  Mg0_6  1  0.51397600  0.51397600  0.34700772  1
  Mg  Mg0_7  1  0.51397599  0.51397600  0.84700772  1
  Mg  Mg1_0  1  0.15286070  0.15286070  0.32031647  1
  Mg  Mg1_1  1  0.15286070  0.15286070  0.82031647  1
  Mg  Mg1_2  1  0.15286070  0.65286070  0.32031647  1
  Mg  Mg1_3  1  0.15286070  0.65286070  0.82031647  1
  Mg  Mg1_4  1  0.65286070  0.15286070  0.32031647  1
  Mg  Mg1_5  1  0.65286070  0.15286070  0.82031647  1
  Mg  Mg1_6  1  0.65286070  0.65286070  0.32031647  1
  Mg  Mg1_7  1  0.65286070  0.65286070  0.82031647  1
  Mg  Mg2_0  1  0.34713930  0.34713930  0.17968353  1
  Mg  Mg2_1  1  0.34713930  0.34713930  0.67968353  1
  Mg  Mg2_2  1  0.34713930  0.84713930  0.17968353  1
  Mg  Mg2_3  1  0.34713930  0.84713930  0.67968353  1
  Mg  Mg2_4  1  0.84713930  0.34713930  0.17968353  1
  Mg  Mg2_5  1  0.84713930  0.34713930  0.67968353  1
  Mg  Mg2_6  1  0.84713930  0.84713930  0.17968353  1
  Mg  Mg2_7  1  0.84713930  0.84713930  0.67968353  1
  Mg  Mg3_0  1  0.48602401  0.48602401  0.15299229  1
  Mg  Mg3_1  1  0.48602400  0.48602401  0.65299228  1
  Mg  Mg3_2  1  0.48602400  0.98602400  0.15299229  1
  Mg  Mg3_3  1  0.48602401  0.98602401  0.65299228  1
  Mg  Mg3_4  1  0.98602400  0.48602401  0.15299229  1
  Mg  Mg3_5  1  0.98602401  0.48602401  0.65299228  1
  Mg  Mg3_6  1  0.98602401  0.98602401  0.15299229  1
  Mg  Mg3_7  1  0.98602400  0.98602401  0.65299228  1
  Sc  Sc0_0  1  0.18083622  0.18083622  0.01372352  1
  Sc  Sc0_1  1  0.18083622  0.18083622  0.51372352  1
  Sc  Sc0_2  1  0.18083622  0.68083622  0.01372352  1
  Sc  Sc0_3  1  0.18083622  0.68083622  0.51372352  1
  Sc  Sc0_4  1  0.68083622  0.18083622  0.01372352  1
  Sc  Sc0_5  1  0.68083622  0.18083622  0.51372352  1
  Sc  Sc0_6  1  0.68083622  0.68083622  0.01372352  1
  Sc  Sc0_7  1  0.68083622  0.68083622  0.51372352  1
  Sc  Sc1_0  1  0.31916378  0.31916378  0.48627648  1
  Sc  Sc1_1  1  0.31916378  0.31916378  0.98627648  1
  Sc  Sc1_2  1  0.31916378  0.81916378  0.48627648  1
  Sc  Sc1_3  1  0.31916378  0.81916378  0.98627648  1
  Sc  Sc1_4  1  0.81916378  0.31916378  0.48627648  1
  Sc  Sc1_5  1  0.81916378  0.31916378  0.98627648  1
  Sc  Sc1_6  1  0.81916378  0.81916378  0.48627648  1
  Sc  Sc1_7  1  0.81916378  0.81916378  0.98627648  1
loop_
_geom_bond_atom_site_label_1
_geom_bond_atom_site_label_2
_geom_bond_distance
_geom_bond_site_symmetry_2
Mg0_0 Mg1_4 3.190430 1_455
Mg0_0 Mg1_2 3.190430 1_545
Mg0_0 Mg0_6 3.193845 1_545
Mg0_0 Mg0_6 3.193845 1_455
Mg0_0 Sc1_2 3.197211 1_545
Mg0_0 Sc1_4 3.197211 1_455
Mg0_0 Mg3_6 3.204686 1_445
Mg0_0 Mg1_0 3.207845 1_555
Mg0_0 Sc0_5 3.224363 1_455
Mg0_0 Sc0_3 3.224363 1_545
Mg0_0 Mg2_2 3.230538 1_545
Mg0_0 Mg2_4 3.230538 1_455
Mg0_1 Mg1_5 3.190430 1_455
Mg0_1 Mg1_3 3.190430 1_545
Mg0_1 Mg0_7 3.193845 1_545
Mg0_1 Mg0_7 3.193845 1_455
Mg0_1 Sc1_3 3.197211 1_545
Mg0_1 Sc1_5 3.197211 1_455
Mg0_1 Mg3_7 3.204686 1_445
Mg0_1 Mg1_1 3.207845 1_555
Mg0_1 Sc0_4 3.224363 1_456
Mg0_1 Sc0_2 3.224363 1_546
Mg0_1 Mg2_3 3.230538 1_545
Mg0_1 Mg2_5 3.230538 1_455
Mg0_2 Mg1_0 3.190430 1_555
Mg0_2 Mg1_6 3.190430 1_455
Mg0_2 Mg0_4 3.193845 1_465
Mg0_2 Mg0_4 3.193845 1_555
Mg0_2 Sc1_0 3.197211 1_555
Mg0_2 Sc1_6 3.197211 1_455
Mg0_2 Mg3_4 3.204686 1_455
Mg0_2 Mg1_2 3.207845 1_555
Mg0_2 Sc0_7 3.224363 1_455
Mg0_2 Sc0_1 3.224363 1_555
Mg0_2 Mg2_0 3.230538 1_555
Mg0_2 Mg2_6 3.230538 1_455
Mg0_3 Mg1_7 3.190430 1_455
Mg0_3 Mg1_1 3.190430 1_555
Mg0_3 Mg0_5 3.193845 1_465
Mg0_3 Mg0_5 3.193845 1_555
Mg0_3 Sc1_1 3.197211 1_555
Mg0_3 Sc1_7 3.197211 1_455
Mg0_3 Mg3_5 3.204686 1_455
Mg0_3 Mg1_3 3.207845 1_555
Mg0_3 Sc0_0 3.224363 1_556
Mg0_3 Sc0_6 3.224363 1_456
Mg0_3 Mg2_1 3.230538 1_555
Mg0_3 Mg2_7 3.230538 1_455
Mg0_4 Mg1_6 3.190430 1_545
Mg0_4 Mg1_0 3.190430 1_555
Mg0_4 Sc1_6 3.197211 1_545
Mg0_4 Sc1_0 3.197211 1_555
Mg0_4 Mg3_2 3.204686 1_545
Mg0_4 Mg1_4 3.207845 1_555
Mg0_4 Sc0_7 3.224363 1_545
Mg0_4 Sc0_1 3.224363 1_555
Mg0_4 Mg2_6 3.230538 1_545
Mg0_4 Mg2_0 3.230538 1_555
Mg0_5 Mg1_7 3.190430 1_545
Mg0_5 Mg1_1 3.190430 1_555
Mg0_5 Sc1_1 3.197211 1_555
Mg0_5 Sc1_7 3.197211 1_545
Mg0_5 Mg3_3 3.204686 1_545
Mg0_5 Mg1_5 3.207845 1_555
Mg0_5 Sc0_0 3.224363 1_556
Mg0_5 Sc0_6 3.224363 1_546
Mg0_5 Mg2_1 3.230538 1_555
Mg0_5 Mg2_7 3.230538 1_545
Mg0_6 Mg1_4 3.190430 1_555
Mg0_6 Mg1_2 3.190430 1_555
Mg0_6 Sc1_2 3.197211 1_555
Mg0_6 Sc1_4 3.197211 1_555
Mg0_6 Mg3_0 3.204686 1_555
Mg0_6 Mg1_6 3.207845 1_555
Mg0_6 Sc0_5 3.224363 1_555
Mg0_6 Sc0_3 3.224363 1_555
Mg0_6 Mg2_4 3.230538 1_555
Mg0_6 Mg2_2 3.230538 1_555
Mg0_7 Mg1_5 3.190430 1_555
Mg0_7 Mg1_3 3.190430 1_555
Mg0_7 Sc1_3 3.197211 1_555
Mg0_7 Sc1_5 3.197211 1_555
Mg0_7 Mg3_1 3.204686 1_555
Mg0_7 Mg1_7 3.207845 1_555
Mg0_7 Sc0_4 3.224363 1_556
Mg0_7 Sc0_2 3.224363 1_556
Mg0_7 Mg2_3 3.230538 1_555
Mg0_7 Mg2_5 3.230538 1_555
Mg1_0 Mg1_6 3.193845 1_455
Mg1_0 Mg1_6 3.193845 1_545
Mg1_0 Sc0_1 3.195800 1_555
Mg1_0 Mg2_4 3.220649 1_455
Mg1_0 Mg2_2 3.220649 1_545
Mg1_0 Sc1_4 3.222440 1_455
Mg1_0 Sc1_2 3.222440 1_545
Mg1_0 Mg3_2 3.230538 1_545
Mg1_0 Mg3_4 3.230538 1_455
Mg1_1 Mg1_7 3.193845 1_545
Mg1_1 Mg1_7 3.193845 1_455
Mg1_1 Sc0_0 3.195800 1_556
Mg1_1 Mg2_5 3.220649 1_455
Mg1_1 Mg2_3 3.220649 1_545
Mg1_1 Sc1_5 3.222440 1_455
Mg1_1 Sc1_3 3.222440 1_545
Mg1_1 Mg3_3 3.230538 1_545
Mg1_1 Mg3_5 3.230538 1_455
Mg1_2 Mg1_4 3.193845 1_465
Mg1_2 Mg1_4 3.193845 1_555
Mg1_2 Sc0_3 3.195800 1_555
Mg1_2 Mg2_6 3.220649 1_455
Mg1_2 Mg2_0 3.220649 1_555
Mg1_2 Sc1_6 3.222440 1_455
Mg1_2 Sc1_0 3.222440 1_555
Mg1_2 Mg3_0 3.230538 1_555
Mg1_2 Mg3_6 3.230538 1_455
Mg1_3 Mg1_5 3.193845 1_465
Mg1_3 Mg1_5 3.193845 1_555
Mg1_3 Sc0_2 3.195800 1_556
Mg1_3 Mg2_7 3.220649 1_455
Mg1_3 Mg2_1 3.220649 1_555
Mg1_3 Sc1_1 3.222440 1_555
Mg1_3 Sc1_7 3.222440 1_455
Mg1_3 Mg3_7 3.230538 1_455
Mg1_3 Mg3_1 3.230538 1_555
Mg1_4 Sc0_5 3.195800 1_555
Mg1_4 Mg2_0 3.220649 1_555
Mg1_4 Mg2_6 3.220649 1_545
Mg1_4 Sc1_6 3.222440 1_545
Mg1_4 Sc1_0 3.222440 1_555
Mg1_4 Mg3_0 3.230538 1_555
Mg1_4 Mg3_6 3.230538 1_545
Mg1_5 Sc0_4 3.195800 1_556
Mg1_5 Mg2_7 3.220649 1_545
Mg1_5 Mg2_1 3.220649 1_555
Mg1_5 Sc1_1 3.222440 1_555
Mg1_5 Sc1_7 3.222440 1_545
Mg1_5 Mg3_1 3.230538 1_555
Mg1_5 Mg3_7 3.230538 1_545
Mg1_6 Sc0_7 3.195800 1_555
Mg1_6 Mg2_4 3.220649 1_555
Mg1_6 Mg2_2 3.220649 1_555
Mg1_6 Sc1_4 3.222440 1_555
Mg1_6 Sc1_2 3.222440 1_555
Mg1_6 Mg3_2 3.230538 1_555
Mg1_6 Mg3_4 3.230538 1_555
Mg1_7 Sc0_6 3.195800 1_556
Mg1_7 Mg2_5 3.220649 1_555
Mg1_7 Mg2_3 3.220649 1_555
Mg1_7 Sc1_5 3.222440 1_555
Mg1_7 Sc1_3 3.222440 1_555
Mg1_7 Mg3_3 3.230538 1_555
Mg1_7 Mg3_5 3.230538 1_555
Mg2_0 Mg3_4 3.190430 1_455
Mg2_0 Mg3_2 3.190430 1_545
Mg2_0 Mg2_6 3.193845 1_455
Mg2_0 Mg2_6 3.193845 1_545
Mg2_0 Sc1_1 3.195800 1_554
Mg2_0 Mg3_0 3.207845 1_555
Mg2_0 Sc0_2 3.222440 1_555
Mg2_0 Sc0_4 3.222440 1_555
Mg2_1 Mg3_5 3.190430 1_455
Mg2_1 Mg3_3 3.190430 1_545
Mg2_1 Mg2_7 3.193845 1_545
Mg2_1 Mg2_7 3.193845 1_455
Mg2_1 Sc1_0 3.195800 1_555
Mg2_1 Mg3_1 3.207845 1_555
Mg2_1 Sc0_3 3.222440 1_555
Mg2_1 Sc0_5 3.222440 1_555
Mg2_2 Mg3_6 3.190430 1_455
Mg2_2 Mg3_0 3.190430 1_555
Mg2_2 Mg2_4 3.193845 1_465
Mg2_2 Mg2_4 3.193845 1_555
Mg2_2 Sc1_3 3.195800 1_554
Mg2_2 Mg3_2 3.207845 1_555
Mg2_2 Sc0_6 3.222440 1_555
Mg2_2 Sc0_0 3.222440 1_565
Mg2_3 Mg3_7 3.190430 1_455
Mg2_3 Mg3_1 3.190430 1_555
Mg2_3 Mg2_5 3.193845 1_465
Mg2_3 Mg2_5 3.193845 1_555
Mg2_3 Sc1_2 3.195800 1_555
Mg2_3 Mg3_3 3.207845 1_555
Mg2_3 Sc0_1 3.222440 1_565
Mg2_3 Sc0_7 3.222440 1_555
Mg2_4 Mg3_6 3.190430 1_545
Mg2_4 Mg3_0 3.190430 1_555
Mg2_4 Sc1_5 3.195800 1_554
Mg2_4 Mg3_4 3.207845 1_555
Mg2_4 Sc0_6 3.222440 1_555
Mg2_4 Sc0_0 3.222440 1_655
Mg2_5 Mg3_1 3.190430 1_555
Mg2_5 Mg3_7 3.190430 1_545
Mg2_5 Sc1_4 3.195800 1_555
Mg2_5 Mg3_5 3.207845 1_555
Mg2_5 Sc0_1 3.222440 1_655
Mg2_5 Sc0_7 3.222440 1_555
Mg2_6 Mg3_4 3.190430 1_555
Mg2_6 Mg3_2 3.190430 1_555
Mg2_6 Sc1_7 3.195800 1_554
Mg2_6 Mg3_6 3.207845 1_555
Mg2_6 Sc0_2 3.222440 1_655
Mg2_6 Sc0_4 3.222440 1_565
Mg2_7 Mg3_5 3.190430 1_555
Mg2_7 Mg3_3 3.190430 1_555
Mg2_7 Sc1_6 3.195800 1_555
Mg2_7 Mg3_7 3.207845 1_555
Mg2_7 Sc0_3 3.222440 1_655
Mg2_7 Sc0_5 3.222440 1_565
Mg3_0 Mg3_6 3.193845 1_545
Mg3_0 Mg3_6 3.193845 1_455
Mg3_0 Sc0_4 3.197211 1_555
Mg3_0 Sc0_2 3.197211 1_555
Mg3_0 Sc1_3 3.224363 1_554
Mg3_0 Sc1_5 3.224363 1_554
Mg3_1 Mg3_7 3.193845 1_455
Mg3_1 Mg3_7 3.193845 1_545
Mg3_1 Sc0_5 3.197211 1_555
Mg3_1 Sc0_3 3.197211 1_555
Mg3_1 Sc1_2 3.224363 1_555
Mg3_1 Sc1_4 3.224363 1_555
Mg3_2 Mg3_4 3.193845 1_465
Mg3_2 Mg3_4 3.193845 1_555
Mg3_2 Sc0_0 3.197211 1_565
Mg3_2 Sc0_6 3.197211 1_555
Mg3_2 Sc1_7 3.224363 1_554
Mg3_2 Sc1_1 3.224363 1_564
Mg3_3 Mg3_5 3.193845 1_465
Mg3_3 Mg3_5 3.193845 1_555
Mg3_3 Sc0_7 3.197211 1_555
Mg3_3 Sc0_1 3.197211 1_565
Mg3_3 Sc1_0 3.224363 1_565
Mg3_3 Sc1_6 3.224363 1_555
Mg3_4 Sc0_0 3.197211 1_655
Mg3_4 Sc0_6 3.197211 1_555
Mg3_4 Sc1_1 3.224363 1_654
Mg3_4 Sc1_7 3.224363 1_554
Mg3_5 Sc0_7 3.197211 1_555
Mg3_5 Sc0_1 3.197211 1_655
Mg3_5 Sc1_0 3.224363 1_655
Mg3_5 Sc1_6 3.224363 1_555
Mg3_6 Sc0_4 3.197211 1_565
Mg3_6 Sc0_2 3.197211 1_655
Mg3_6 Sc1_3 3.224363 1_654
Mg3_6 Sc1_5 3.224363 1_564
Mg3_7 Sc0_5 3.197211 1_565
Mg3_7 Sc0_3 3.197211 1_655
Mg3_7 Sc1_2 3.224363 1_655
Mg3_7 Sc1_4 3.224363 1_565
Sc0_0 Sc1_1 3.193253 1_554
Sc0_0 Sc0_6 3.193845 1_545
Sc0_0 Sc0_6 3.193845 1_455
Sc0_0 Sc1_5 3.205657 1_454
Sc0_0 Sc1_3 3.205657 1_544
Sc0_1 Sc1_0 3.193253 1_555
Sc0_1 Sc0_7 3.193845 1_545
Sc0_1 Sc0_7 3.193845 1_455
Sc0_1 Sc1_4 3.205657 1_455
Sc0_1 Sc1_2 3.205657 1_545
Sc0_2 Sc1_3 3.193253 1_554
Sc0_2 Sc0_4 3.193845 1_465
Sc0_2 Sc0_4 3.193845 1_555
Sc0_2 Sc1_7 3.205657 1_454
Sc0_2 Sc1_1 3.205657 1_554
Sc0_3 Sc1_2 3.193253 1_555
Sc0_3 Sc0_5 3.193845 1_555
Sc0_3 Sc0_5 3.193845 1_465
Sc0_3 Sc1_0 3.205657 1_555
Sc0_3 Sc1_6 3.205657 1_455
Sc0_4 Sc1_5 3.193253 1_554
Sc0_4 Sc1_7 3.205657 1_544
Sc0_4 Sc1_1 3.205657 1_554
Sc0_5 Sc1_4 3.193253 1_555
Sc0_5 Sc1_6 3.205657 1_545
Sc0_5 Sc1_0 3.205657 1_555
Sc0_6 Sc1_7 3.193253 1_554
Sc0_6 Sc1_5 3.205657 1_554
Sc0_6 Sc1_3 3.205657 1_554
Sc0_7 Sc1_6 3.193253 1_555
Sc0_7 Sc1_4 3.205657 1_555
Sc0_7 Sc1_2 3.205657 1_555
Sc1_0 Sc1_6 3.193845 1_545
Sc1_0 Sc1_6 3.193845 1_455
Sc1_1 Sc1_7 3.193845 1_545
Sc1_1 Sc1_7 3.193845 1_455
Sc1_2 Sc1_4 3.193845 1_555
Sc1_2 Sc1_4 3.193845 1_465
Sc1_3 Sc1_5 3.193845 1_465
Sc1_3 Sc1_5 3.193845 1_555
