# generated using pymatgen
data_Mg9Si5
_symmetry_space_group_name_H-M   'P 1'
_cell_length_a   7.23830600
_cell_length_b   7.24392331
_cell_length_c   12.11377192
_cell_angle_alpha   89.44856911
_cell_angle_beta   89.23522930
_cell_angle_gamma   60.30467656
_symmetry_Int_Tables_number   1
_chemical_formula_structural   Mg9Si5
_chemical_formula_sum   'Mg18 Si10'
_cell_volume   551.70214752
_cell_formula_units_Z   2
loop_
 _symmetry_equiv_pos_site_id
 _symmetry_equiv_pos_as_xyz
  1  'x, y, z'
loop_
 _atom_site_type_symbol
 _atom_site_label
 _atom_site_symmetry_multiplicity
 _atom_site_fract_x
 _atom_site_fract_y
 _atom_site_fract_z
 _atom_site_occupancy
  Mg  Mg0  1  0.34216000  0.15359600  0.67577500  1
  Mg  Mg1  1  0.77503000  0.83637200  0.51693700  1
  Mg  Mg2  1  0.14516200  0.68917900  0.67286800  1
  Mg  Mg3  1  0.03056100  0.09158300  0.51742300  1
  Mg  Mg4  1  0.45420600  0.77000700  0.80434700  1
  Mg  Mg5  1  0.51541600  0.34564400  0.51582400  1
  Mg  Mg6  1  0.82350400  0.78445100  0.17894400  1
  Mg  Mg7  1  0.43036700  0.01649800  0.00804900  1
  Mg  Mg8  1  0.03821200  0.12963400  0.17723400  1
  Mg  Mg9  1  0.71784000  0.51153200  0.00480000  1
  Mg  Mg10  1  0.47913000  0.34836400  0.17701900  1
  Mg  Mg11  1  0.19457400  0.74037300  0.00424300  1
  Mg  Mg12  1  0.71866000  0.50970900  0.35445600  1
  Mg  Mg13  1  0.49854900  0.34481700  0.85453800  1
  Mg  Mg14  1  0.41640000  0.03087700  0.35352500  1
  Mg  Mg15  1  0.01814200  0.12526900  0.85027300  1
  Mg  Mg16  1  0.19539500  0.72895800  0.35426300  1
  Mg  Mg17  1  0.81253000  0.46322900  0.67169500  1
  Si  Si0  1  0.78048100  0.07886500  0.01591000  1
  Si  Si1  1  0.77812800  0.09119700  0.34658400  1
  Si  Si2  1  0.44375400  0.75643100  0.54404800  1
  Si  Si3  1  0.77582400  0.86722700  0.84822500  1
  Si  Si4  1  0.44477900  0.75488500  0.18159900  1
  Si  Si5  1  0.76624200  0.08342000  0.68604600  1
  Si  Si6  1  0.11870600  0.41883500  0.04325800  1
  Si  Si7  1  0.06835600  0.48000300  0.84333800  1
  Si  Si8  1  0.10675300  0.42698300  0.50300100  1
  Si  Si9  1  0.11170000  0.42163400  0.29548200  1
loop_
_geom_bond_atom_site_label_1
_geom_bond_atom_site_label_2
_geom_bond_distance
_geom_bond_site_symmetry_2
Mg0 Si8 2.806756 1_555
Mg0 Si5 2.856481 1_555
Mg0 Si7 2.996806 1_555
Mg0 Si2 3.053728 1_545
Mg1 Si5 2.712481 1_565
Mg1 Si8 2.744508 1_655
Mg1 Si2 2.746652 1_555
Mg1 Si1 2.762778 1_565
Mg2 Si7 2.759202 1_555
Mg2 Si5 2.817885 1_465
Mg2 Si2 2.877888 1_555
Mg2 Si8 2.921072 1_555
Mg2 Si3 3.131732 1_455
Mg3 Si8 2.748549 1_555
Mg3 Si1 2.779854 1_455
Mg3 Si2 2.785643 1_545
Mg3 Si5 2.800324 1_455
Mg4 Si3 2.804021 1_555
Mg4 Si2 3.158764 1_555
Mg5 Si8 2.721195 1_555
Mg5 Si1 2.777132 1_555
Mg5 Si2 2.779632 1_555
Mg5 Si5 2.786410 1_555
Mg6 Si0 2.797000 1_565
Mg6 Si9 2.797723 1_655
Mg6 Si4 2.853244 1_555
Mg6 Si1 2.918095 1_565
Mg6 Si6 2.943631 1_655
Mg7 Si6 2.692465 1_555
Mg7 Si4 2.784862 1_545
Mg7 Si0 2.788752 1_555
Mg7 Si3 2.898687 1_544
Mg8 Si9 2.828853 1_555
Mg8 Si4 2.849349 1_545
Mg8 Si0 2.868004 1_455
Mg8 Si1 2.869730 1_455
Mg8 Si6 2.912202 1_555
Mg9 Si6 2.680823 1_655
Mg9 Si4 2.847558 1_555
Mg9 Si0 2.938107 1_555
Mg9 Si7 3.101106 1_654
Mg10 Si9 2.815768 1_555
Mg10 Si4 2.830921 1_555
Mg10 Si0 2.849328 1_555
Mg10 Si1 2.902410 1_555
Mg10 Si6 2.910275 1_555
Mg11 Si6 2.681282 1_555
Mg11 Si0 2.780287 1_465
Mg11 Si4 2.864206 1_555
Mg11 Si7 3.164941 1_554
Mg12 Si9 2.677179 1_655
Mg12 Si4 2.831927 1_555
Mg12 Si1 2.845510 1_555
Mg12 Si2 2.976898 1_555
Mg12 Si8 3.151928 1_655
Mg13 Si7 2.767865 1_555
Mg13 Si0 2.799311 1_556
Mg13 Si5 2.799928 1_555
Mg13 Si3 3.020676 1_545
Mg14 Si9 2.681186 1_555
Mg14 Si4 2.835245 1_545
Mg14 Si1 2.860143 1_555
Mg14 Si2 2.975253 1_545
Mg14 Si8 3.186736 1_555
Mg15 Si0 2.750654 1_456
Mg15 Si7 2.768166 1_555
Mg15 Si5 2.833771 1_455
Mg15 Si3 3.133924 1_445
Mg16 Si9 2.684847 1_555
Mg16 Si4 2.810002 1_555
Mg16 Si1 2.857792 1_465
Mg16 Si2 3.005059 1_555
Mg16 Si8 3.118817 1_555
Mg17 Si7 2.845621 1_655
Mg17 Si8 2.849662 1_655
Mg17 Si2 2.908118 1_555
Mg17 Si5 2.935085 1_555
Si0 Si3 2.567225 1_544
Si3 Si5 2.480702 1_565
Si3 Si7 2.543692 1_655
Si6 Si7 2.457053 1_554
Si8 Si9 2.514013 1_555
