# generated using pymatgen
data_Ce4In21Pd10
_symmetry_space_group_name_H-M   'P 1'
_cell_length_a   12.04161643
_cell_length_b   12.04161643
_cell_length_c   17.59147592
_cell_angle_alpha   56.02368859
_cell_angle_beta   56.02368859
_cell_angle_gamma   21.20183363
_symmetry_Int_Tables_number   1
_chemical_formula_structural   Ce4In21Pd10
_chemical_formula_sum   'Ce4 In21 Pd10'
_cell_volume   758.88959655
_cell_formula_units_Z   1
loop_
 _symmetry_equiv_pos_site_id
 _symmetry_equiv_pos_as_xyz
  1  'x, y, z'
loop_
 _atom_site_type_symbol
 _atom_site_label
 _atom_site_symmetry_multiplicity
 _atom_site_fract_x
 _atom_site_fract_y
 _atom_site_fract_z
 _atom_site_occupancy
  Ce  Ce0  1  0.22925600  0.22925600  0.67494500  1
  Ce  Ce1  1  0.77074400  0.77074400  0.32505500  1
  Ce  Ce2  1  0.87756100  0.87756100  0.83347900  1
  Ce  Ce3  1  0.12243900  0.12243900  0.16652100  1
  In  In0  1  0.50000000  0.50000000  0.00000000  1
  In  In1  1  0.11617400  0.11617400  0.94749500  1
  In  In2  1  0.88382600  0.88382600  0.05250500  1
  In  In3  1  0.45762500  0.45762500  0.86771900  1
  In  In4  1  0.54237500  0.54237500  0.13228100  1
  In  In5  1  0.06508900  0.06508900  0.70190400  1
  In  In6  1  0.93491100  0.93491100  0.29809600  1
  In  In7  1  0.36861600  0.36861600  0.70099000  1
  In  In8  1  0.63138400  0.63138400  0.29901000  1
  In  In9  1  0.98958500  0.98958500  0.59160500  1
  In  In10  1  0.01041500  0.01041500  0.40839500  1
  In  In11  1  0.74893600  0.74893600  0.79270100  1
  In  In12  1  0.25106400  0.25106400  0.20729900  1
  In  In13  1  0.61611700  0.61611700  0.79513300  1
  In  In14  1  0.38388300  0.38388300  0.20486700  1
  In  In15  1  0.60242600  0.60242600  0.50393700  1
  In  In16  1  0.39757400  0.39757400  0.49606300  1
  In  In17  1  0.20236200  0.20236200  0.49335700  1
  In  In18  1  0.79763800  0.79763800  0.50664300  1
  In  In19  1  0.70099400  0.70099400  0.00111800  1
  In  In20  1  0.29900600  0.29900600  0.99888200  1
  Pd  Pd0  1  0.24922500  0.24922500  0.88587500  1
  Pd  Pd1  1  0.75077500  0.75077500  0.11412500  1
  Pd  Pd2  1  0.02426300  0.02426300  0.88910700  1
  Pd  Pd3  1  0.97573700  0.97573700  0.11089300  1
  Pd  Pd4  1  0.65402800  0.65402800  0.61308400  1
  Pd  Pd5  1  0.34597200  0.34597200  0.38691600  1
  Pd  Pd6  1  0.86359500  0.86359500  0.60673800  1
  Pd  Pd7  1  0.13640500  0.13640500  0.39326200  1
  Pd  Pd8  1  0.49482400  0.49482400  0.68689900  1
  Pd  Pd9  1  0.50517600  0.50517600  0.31310100  1
loop_
_geom_bond_atom_site_label_1
_geom_bond_atom_site_label_2
_geom_bond_distance
_geom_bond_site_symmetry_2
Ce0 In13 3.179879 1_455
Ce0 In13 3.179879 1_545
Ce0 In11 3.242360 1_455
Ce0 In11 3.242360 1_545
Ce0 In18 3.292971 1_545
Ce0 In18 3.292971 1_455
Ce0 Pd4 3.386228 1_455
Ce0 Pd4 3.386228 1_545
Ce0 In16 3.394238 1_555
Ce0 Pd6 3.481557 1_455
Ce0 Pd6 3.481557 1_545
Ce0 In7 3.579351 1_555
Ce0 In17 3.594722 1_555
Ce0 In5 3.637539 1_555
Ce0 In1 3.944528 1_555
Ce1 In14 3.179879 1_565
Ce1 In14 3.179879 1_655
Ce1 In12 3.242360 1_655
Ce1 In12 3.242360 1_565
Ce1 In17 3.292971 1_565
Ce1 In17 3.292971 1_655
Ce1 Pd5 3.386228 1_655
Ce1 Pd5 3.386228 1_565
Ce1 In15 3.394238 1_555
Ce1 Pd7 3.481557 1_655
Ce1 Pd7 3.481557 1_565
Ce1 In8 3.579351 1_555
Ce1 In18 3.594722 1_555
Ce1 In6 3.637539 1_555
Ce1 In2 3.944528 1_555
Ce2 In3 3.187542 1_655
Ce2 In3 3.187542 1_565
Ce2 In20 3.267877 1_655
Ce2 In20 3.267877 1_565
Ce2 In7 3.308392 1_655
Ce2 In7 3.308392 1_565
Ce2 Pd8 3.335068 1_655
Ce2 Pd8 3.335068 1_565
Ce2 Pd0 3.435440 1_655
Ce2 Pd0 3.435440 1_565
Ce2 In19 3.485790 1_556
Ce2 In11 3.502753 1_555
Ce2 In9 3.508020 1_555
Ce2 In5 3.657883 1_665
Ce2 In2 3.939200 1_556
Ce3 In4 3.187542 1_545
Ce3 In4 3.187542 1_455
Ce3 In19 3.267877 1_545
Ce3 In19 3.267877 1_455
Ce3 In8 3.308392 1_455
Ce3 In8 3.308392 1_545
Ce3 Pd9 3.335068 1_545
Ce3 Pd9 3.335068 1_455
Ce3 Pd1 3.435440 1_455
Ce3 Pd1 3.435440 1_545
Ce3 In20 3.485790 1_554
Ce3 In12 3.502753 1_555
Ce3 In10 3.508020 1_555
Ce3 In6 3.657883 1_445
Ce3 In1 3.939200 1_554
In0 Pd3 2.787241 1_545
In0 Pd3 2.787241 1_455
In0 Pd2 2.787241 1_654
In0 Pd2 2.787241 1_564
In1 Pd0 2.685670 1_555
In1 Pd2 2.886172 1_555
In1 Pd3 2.906578 1_446
In2 Pd1 2.685670 1_555
In2 Pd3 2.886172 1_555
In2 Pd2 2.906578 1_664
In3 Pd8 2.776403 1_555
In3 Pd2 2.865700 1_565
In3 Pd2 2.865700 1_655
In4 Pd9 2.776403 1_555
In4 Pd3 2.865700 1_545
In4 Pd3 2.865700 1_455
In5 Pd4 2.835613 1_455
In5 Pd4 2.835613 1_545
In5 Pd2 2.856570 1_555
In5 Pd8 2.871056 1_545
In5 Pd8 2.871056 1_455
In6 Pd5 2.835613 1_565
In6 Pd5 2.835613 1_655
In6 Pd3 2.856570 1_555
In6 Pd9 2.871056 1_565
In6 Pd9 2.871056 1_655
In7 Pd6 2.809745 1_455
In7 Pd6 2.809745 1_545
In7 Pd0 2.848400 1_555
In7 Pd8 2.853980 1_555
In8 Pd7 2.809745 1_655
In8 Pd7 2.809745 1_565
In8 Pd1 2.848400 1_555
In8 Pd9 2.853980 1_555
In9 Pd8 2.823005 1_655
In9 Pd8 2.823005 1_565
In9 Pd6 2.839561 1_555
In9 Pd7 3.234845 1_665
In10 Pd9 2.823005 1_545
In10 Pd9 2.823005 1_455
In10 Pd7 2.839561 1_555
In10 Pd6 3.234845 1_445
In11 Pd0 2.758029 1_655
In11 Pd0 2.758029 1_565
In11 Pd6 2.823512 1_555
In12 Pd1 2.758029 1_545
In12 Pd1 2.758029 1_455
In12 Pd7 2.823512 1_555
In13 Pd4 2.791659 1_555
In13 Pd2 2.877638 1_565
In13 Pd2 2.877638 1_655
In14 Pd5 2.791659 1_555
In14 Pd3 2.877638 1_545
In14 Pd3 2.877638 1_455
In15 Pd8 2.743172 1_555
In15 Pd7 2.750307 1_655
In15 Pd7 2.750307 1_565
In15 Pd4 2.801026 1_555
In16 Pd9 2.743172 1_555
In16 Pd6 2.750307 1_455
In16 Pd6 2.750307 1_545
In16 Pd5 2.801026 1_555
In17 Pd5 2.797289 1_555
In17 Pd4 2.812872 1_455
In17 Pd4 2.812872 1_545
In17 Pd7 2.943549 1_555
In18 Pd4 2.797289 1_555
In18 Pd5 2.812872 1_565
In18 Pd5 2.812872 1_655
In18 Pd6 2.943549 1_555
In19 Pd0 2.772882 1_564
In19 Pd0 2.772882 1_654
In19 Pd1 2.829228 1_555
In20 Pd1 2.772882 1_546
In20 Pd1 2.772882 1_456
In20 Pd0 2.829228 1_555
