# generated using pymatgen
data_Na4CaZr2TiSi4(O8F)2
_symmetry_space_group_name_H-M   'P 1'
_cell_length_a   7.19700900
_cell_length_b   5.72326700
_cell_length_c   18.73731402
_cell_angle_alpha   76.97631600
_cell_angle_beta   90.00000000
_cell_angle_gamma   90.00000000
_symmetry_Int_Tables_number   1
_chemical_formula_structural   Na4CaZr2TiSi4(O8F)2
_chemical_formula_sum   'Na8 Ca2 Zr4 Ti2 Si8 O32 F4'
_cell_volume   751.94458459
_cell_formula_units_Z   2
loop_
 _symmetry_equiv_pos_site_id
 _symmetry_equiv_pos_as_xyz
  1  'x, y, z'
loop_
 _atom_site_type_symbol
 _atom_site_label
 _atom_site_symmetry_multiplicity
 _atom_site_fract_x
 _atom_site_fract_y
 _atom_site_fract_z
 _atom_site_occupancy
  Na  Na0  1  0.65405600  0.00000000  0.75000000  1
  Na  Na1  1  0.34594400  0.00000000  0.25000000  1
  Na  Na2  1  0.88745100  0.70404700  0.93048500  1
  Na  Na3  1  0.11254900  0.29595300  0.06951500  1
  Na  Na4  1  0.88745100  0.29595300  0.56951500  1
  Na  Na5  1  0.11254900  0.70404700  0.43048500  1
  Na  Na6  1  0.88882800  0.50000000  0.75000000  1
  Na  Na7  1  0.11117200  0.50000000  0.25000000  1
  Ca  Ca0  1  0.14953800  0.00000000  0.75000000  1
  Ca  Ca1  1  0.85046200  0.00000000  0.25000000  1
  Zr  Zr0  1  0.38286400  0.69922900  0.92528800  1
  Zr  Zr1  1  0.61713600  0.30077100  0.07471200  1
  Zr  Zr2  1  0.38286400  0.30077100  0.57471200  1
  Zr  Zr3  1  0.61713600  0.69922900  0.42528800  1
  Ti  Ti0  1  0.39636800  0.50000000  0.75000000  1
  Ti  Ti1  1  0.60363200  0.50000000  0.25000000  1
  Si  Si0  1  0.88284900  0.77139100  0.10394300  1
  Si  Si1  1  0.11715100  0.22860900  0.89605700  1
  Si  Si2  1  0.88284900  0.22860900  0.39605700  1
  Si  Si3  1  0.11715100  0.77139100  0.60394300  1
  Si  Si4  1  0.66088800  0.77905500  0.60491100  1
  Si  Si5  1  0.33911200  0.22094500  0.39508900  1
  Si  Si6  1  0.66088800  0.22094500  0.89508900  1
  Si  Si7  1  0.33911200  0.77905500  0.10491100  1
  O  O0  1  0.82228700  0.57731200  0.05658400  1
  O  O1  1  0.17771300  0.42268800  0.94341600  1
  O  O2  1  0.82228700  0.42268800  0.44341600  1
  O  O3  1  0.17771300  0.57731200  0.55658400  1
  O  O4  1  0.38189600  0.72623700  0.81546100  1
  O  O5  1  0.61810400  0.27376300  0.18453900  1
  O  O6  1  0.38189600  0.27376300  0.68453900  1
  O  O7  1  0.61810400  0.72623700  0.31546100  1
  O  O8  1  0.88834400  0.76409000  0.60925000  1
  O  O9  1  0.11165600  0.23591000  0.39075000  1
  O  O10  1  0.88834400  0.23591000  0.89075000  1
  O  O11  1  0.11165600  0.76409000  0.10925000  1
  O  O12  1  0.59836900  0.94212900  0.92279000  1
  O  O13  1  0.40163100  0.05787100  0.07721000  1
  O  O14  1  0.59836900  0.05787100  0.57721000  1
  O  O15  1  0.40163100  0.94212900  0.42279000  1
  O  O16  1  0.17827700  0.94906800  0.93043600  1
  O  O17  1  0.82172300  0.05093200  0.06956400  1
  O  O18  1  0.17827700  0.05093200  0.56956400  1
  O  O19  1  0.82172300  0.94906800  0.43043600  1
  O  O20  1  0.58950700  0.68076300  0.68926300  1
  O  O21  1  0.41049300  0.31923700  0.31073700  1
  O  O22  1  0.58950700  0.31923700  0.81073700  1
  O  O23  1  0.41049300  0.68076300  0.18926300  1
  O  O24  1  0.59284300  0.59976200  0.55159800  1
  O  O25  1  0.40715700  0.40023800  0.44840200  1
  O  O26  1  0.59284300  0.40023800  0.94840200  1
  O  O27  1  0.40715700  0.59976200  0.05159800  1
  O  O28  1  0.80691000  0.69512900  0.18863700  1
  O  O29  1  0.19309000  0.30487100  0.81136300  1
  O  O30  1  0.80691000  0.30487100  0.31136300  1
  O  O31  1  0.19309000  0.69512900  0.68863700  1
  F  F0  1  0.90988300  0.79419300  0.80934200  1
  F  F1  1  0.09011700  0.20580700  0.19065800  1
  F  F2  1  0.90988300  0.20580700  0.69065800  1
  F  F3  1  0.09011700  0.79419300  0.30934200  1
loop_
_geom_bond_atom_site_label_1
_geom_bond_atom_site_label_2
_geom_bond_distance
_geom_bond_site_symmetry_2
Na0 O20 2.405482 1_545
Na0 O22 2.405482 1_555
Na0 O6 2.632463 1_555
Na0 O4 2.632463 1_545
Na1 O21 2.405482 1_555
Na1 O23 2.405482 1_545
Na1 O5 2.632463 1_555
Na1 O7 2.632463 1_545
Na2 O0 2.357172 1_556
Na2 O12 2.473363 1_555
Na2 O16 2.519305 1_655
Na2 O1 2.615320 1_655
Na2 O26 2.714521 1_555
Na2 O10 2.938015 1_555
Na2 O10 2.966278 1_565
Na3 O1 2.357172 1_554
Na3 O13 2.473363 1_555
Na3 O17 2.519305 1_455
Na3 O0 2.615320 1_455
Na3 O27 2.714521 1_555
Na3 O11 2.938015 1_555
Na3 O11 2.966278 1_545
Na4 O2 2.357172 1_555
Na4 O14 2.473363 1_555
Na4 O18 2.519305 1_655
Na4 O3 2.615320 1_655
Na4 O24 2.714521 1_555
Na4 O8 2.938015 1_555
Na4 O8 2.966278 1_545
Na5 O3 2.357172 1_555
Na5 O15 2.473363 1_555
Na5 O19 2.519305 1_455
Na5 O2 2.615320 1_455
Na5 O25 2.714521 1_555
Na5 O9 2.938015 1_555
Na5 O9 2.966278 1_565
Na6 O20 2.544691 1_555
Na6 O22 2.544691 1_555
Na6 O31 2.604912 1_655
Na6 O29 2.604912 1_655
Na6 O8 2.728217 1_555
Na6 O10 2.728217 1_555
Na7 O23 2.544691 1_555
Na7 O21 2.544691 1_555
Na7 O30 2.604912 1_455
Na7 O28 2.604912 1_455
Na7 O11 2.728217 1_555
Na7 O9 2.728217 1_555
Ca0 F0 2.237946 1_445
Ca0 F2 2.237946 1_455
Ca0 O31 2.317105 1_545
Ca0 O29 2.317105 1_555
Ca0 O4 2.426878 1_545
Ca0 O6 2.426878 1_555
Ca1 F3 2.237946 1_645
Ca1 F1 2.237946 1_655
Ca1 O30 2.317105 1_555
Ca1 O28 2.317105 1_545
Ca1 O5 2.426878 1_555
Ca1 O7 2.426878 1_545
O0 Si0 1.629562 1_555
O0 Zr1 2.134958 1_555
O1 Si1 1.629562 1_555
O1 Zr0 2.134958 1_555
O2 Si2 1.629562 1_555
O2 Zr3 2.134958 1_555
O3 Si3 1.629562 1_555
O3 Zr2 2.134958 1_555
O4 Ti0 1.976778 1_555
O4 Zr0 2.028639 1_555
O5 Ti1 1.976778 1_555
O5 Zr1 2.028639 1_555
O6 Ti0 1.976778 1_555
O6 Zr2 2.028639 1_555
O7 Ti1 1.976778 1_555
O7 Zr3 2.028639 1_555
O8 Si4 1.640300 1_555
O8 Si3 1.649687 1_655
O9 Si5 1.640300 1_555
O9 Si2 1.649687 1_455
O10 Si6 1.640300 1_555
O10 Si1 1.649687 1_655
O11 Si7 1.640300 1_555
O11 Si0 1.649687 1_455
O12 Si6 1.626327 1_565
O12 Zr0 2.076305 1_555
O13 Si7 1.626327 1_545
O13 Zr1 2.076305 1_555
O14 Si4 1.626327 1_545
O14 Zr2 2.076305 1_555
O15 Si5 1.626327 1_565
O15 Zr3 2.076305 1_555
O16 Si1 1.644272 1_565
O16 Zr0 2.069801 1_555
O17 Si0 1.644272 1_545
O17 Zr1 2.069801 1_555
O18 Si3 1.644272 1_545
O18 Zr2 2.069801 1_555
O19 Si2 1.644272 1_565
O19 Zr3 2.069801 1_555
O20 Si4 1.636374 1_555
O20 Ti0 1.940869 1_555
O21 Si5 1.636374 1_555
O21 Ti1 1.940869 1_555
O22 Si6 1.636374 1_555
O22 Ti0 1.940869 1_555
O23 Si7 1.636374 1_555
O23 Ti1 1.940869 1_555
O24 Si4 1.659120 1_555
O24 Zr2 2.250679 1_555
O24 Zr3 2.312729 1_555
O25 Si5 1.659120 1_555
O25 Zr3 2.250679 1_555
O25 Zr2 2.312729 1_555
O26 Si6 1.659120 1_555
O26 Zr0 2.250679 1_555
O26 Zr1 2.312729 1_556
O27 Si7 1.659120 1_555
O27 Zr1 2.250679 1_555
O27 Zr0 2.312729 1_554
O28 Si0 1.641766 1_555
O28 Ti1 2.032437 1_555
O29 Si1 1.641766 1_555
O29 Ti0 2.032437 1_555
O30 Si2 1.641766 1_555
O30 Ti1 2.032437 1_555
O31 Si3 1.641766 1_555
O31 Ti0 2.032437 1_555
F0 Na2 2.217395 1_555
F0 Na6 2.222185 1_555
F0 Na0 2.328830 1_565
F1 Na3 2.217395 1_555
F1 Na7 2.222185 1_555
F1 Na1 2.328830 1_555
F2 Na4 2.217395 1_555
F2 Na6 2.222185 1_555
F2 Na0 2.328830 1_555
F3 Na5 2.217395 1_555
F3 Na7 2.222185 1_555
F3 Na1 2.328830 1_565
