# generated using pymatgen
data_KCaPHO4
_symmetry_space_group_name_H-M   'P 1'
_cell_length_a   5.58633908
_cell_length_b   5.58633908
_cell_length_c   7.86581079
_cell_angle_alpha   85.86527717
_cell_angle_beta   85.86527717
_cell_angle_gamma   96.67575878
_symmetry_Int_Tables_number   1
_chemical_formula_structural   KCaPHO4
_chemical_formula_sum   'K2 Ca2 P2 H2 O8'
_cell_volume   242.36706562
_cell_formula_units_Z   2
loop_
 _symmetry_equiv_pos_site_id
 _symmetry_equiv_pos_as_xyz
  1  'x, y, z'
loop_
 _atom_site_type_symbol
 _atom_site_label
 _atom_site_symmetry_multiplicity
 _atom_site_fract_x
 _atom_site_fract_y
 _atom_site_fract_z
 _atom_site_occupancy
  K  K0  1  0.76942300  0.23057700  0.50000000  1
  K  K1  1  0.23057700  0.76942300  0.50000000  1
  Ca  Ca0  1  0.78214200  0.21785800  0.00000000  1
  Ca  Ca1  1  0.21785800  0.78214200  0.00000000  1
  P  P0  1  0.76635200  0.76635200  0.24735900  1
  P  P1  1  0.23364800  0.23364800  0.75264100  1
  H  H0  1  0.33570900  0.33570900  0.19165600  1
  H  H1  1  0.66429100  0.66429100  0.80834400  1
  O  O0  1  0.97730200  0.97730200  0.19436500  1
  O  O1  1  0.02269800  0.02269800  0.80563500  1
  O  O2  1  0.72564600  0.72564600  0.44185800  1
  O  O3  1  0.27435400  0.27435400  0.55814200  1
  O  O4  1  0.53946700  0.84820100  0.16379900  1
  O  O5  1  0.46053300  0.15179900  0.83620100  1
  O  O6  1  0.15179900  0.46053300  0.83620100  1
  O  O7  1  0.84820100  0.53946700  0.16379900  1
loop_
_geom_bond_atom_site_label_1
_geom_bond_atom_site_label_2
_geom_bond_distance
_geom_bond_site_symmetry_2
K0 O3 2.812227 1_555
K0 O2 2.812227 1_555
K0 O2 2.875268 1_545
K0 O3 2.875268 1_655
K0 O5 3.026908 1_555
K0 O7 3.026908 1_555
K0 O1 3.098376 1_655
K0 O0 3.098376 1_545
K1 O3 2.812227 1_555
K1 O2 2.812227 1_555
K1 O2 2.875268 1_455
K1 O3 2.875268 1_565
K1 O6 3.026908 1_555
K1 O4 3.026908 1_555
K1 O1 3.098376 1_565
K1 O0 3.098376 1_455
Ca0 O7 2.296135 1_555
Ca0 O5 2.296135 1_554
Ca0 O0 2.369925 1_545
Ca0 O1 2.369925 1_654
Ca0 O6 2.544750 1_654
Ca0 O4 2.544750 1_545
Ca1 O4 2.296135 1_555
Ca1 O6 2.296135 1_554
Ca1 O0 2.369925 1_455
Ca1 O1 2.369925 1_564
Ca1 O5 2.544750 1_564
Ca1 O7 2.544750 1_455
O0 P0 1.576908 1_555
O1 P1 1.576908 1_555
O2 P0 1.526968 1_555
O3 P1 1.526968 1_555
O4 P0 1.568134 1_555
O5 P1 1.568134 1_555
O6 P1 1.568134 1_555
O7 P0 1.568134 1_555
