# generated using pymatgen
data_LaBr3O7
_symmetry_space_group_name_H-M   'P 1'
_cell_length_a   6.59239300
_cell_length_b   7.35479314
_cell_length_c   8.78639741
_cell_angle_alpha   83.70478183
_cell_angle_beta   87.62760197
_cell_angle_gamma   75.33706236
_symmetry_Int_Tables_number   1
_chemical_formula_structural   LaBr3O7
_chemical_formula_sum   'La2 Br6 O14'
_cell_volume   409.61358152
_cell_formula_units_Z   2
loop_
 _symmetry_equiv_pos_site_id
 _symmetry_equiv_pos_as_xyz
  1  'x, y, z'
loop_
 _atom_site_type_symbol
 _atom_site_label
 _atom_site_symmetry_multiplicity
 _atom_site_fract_x
 _atom_site_fract_y
 _atom_site_fract_z
 _atom_site_occupancy
  La  La0  1  0.79719300  0.79599300  0.24391300  1
  La  La1  1  0.20280700  0.20400700  0.75608700  1
  Br  Br0  1  0.31036800  0.74262100  0.52409400  1
  Br  Br1  1  0.68963200  0.25737900  0.47590600  1
  Br  Br2  1  0.32666600  0.74485900  0.02329500  1
  Br  Br3  1  0.67333400  0.25514100  0.97670500  1
  Br  Br4  1  0.82555900  0.70444500  0.81705600  1
  Br  Br5  1  0.17444100  0.29555500  0.18294400  1
  O  O0  1  0.60669600  0.10272500  0.12810200  1
  O  O1  1  0.39330400  0.89727500  0.87189800  1
  O  O2  1  0.54276200  0.68092800  0.14226000  1
  O  O3  1  0.45723800  0.31907200  0.85774000  1
  O  O4  1  0.75059600  0.02959900  0.44141600  1
  O  O5  1  0.24940400  0.97040100  0.55858400  1
  O  O6  1  0.56568400  0.69650800  0.46572100  1
  O  O7  1  0.43431600  0.30349200  0.53427900  1
  O  O8  1  0.92355900  0.79828000  0.96746700  1
  O  O9  1  0.07644100  0.20172000  0.03253300  1
  O  O10  1  0.16447500  0.74600100  0.36996500  1
  O  O11  1  0.83552500  0.25399900  0.63003500  1
  O  O12  1  0.95915100  0.45776800  0.25367400  1
  O  O13  1  0.04084900  0.54223200  0.74632600  1
loop_
_geom_bond_atom_site_label_1
_geom_bond_atom_site_label_2
_geom_bond_distance
_geom_bond_site_symmetry_2
La0 O2 2.309916 1_555
La0 O0 2.422794 1_565
La0 O12 2.439574 1_555
La0 O4 2.529870 1_565
La0 O8 2.534708 1_554
La0 O6 2.582483 1_555
La0 O10 2.627999 1_655
La1 O3 2.309916 1_555
La1 O1 2.422794 1_545
La1 O13 2.439574 1_555
La1 O5 2.529870 1_545
La1 O9 2.534708 1_556
La1 O7 2.582483 1_555
La1 O11 2.627999 1_455
Br0 O5 1.679373 1_555
Br0 O10 1.687588 1_555
Br0 O6 1.699627 1_555
Br1 O4 1.679373 1_555
Br1 O11 1.687588 1_555
Br1 O7 1.699627 1_555
Br2 O2 1.737676 1_555
Br2 O1 1.758704 1_554
Br3 O3 1.737676 1_555
Br3 O0 1.758704 1_556
Br4 O13 1.748214 1_655
Br4 O8 1.771060 1_555
Br5 O12 1.748214 1_455
Br5 O9 1.771060 1_555
