# generated using pymatgen
data_Na2SrMnV2O8
_symmetry_space_group_name_H-M   'P 1'
_cell_length_a   5.64822100
_cell_length_b   9.79197700
_cell_length_c   14.00242428
_cell_angle_alpha   89.94156432
_cell_angle_beta   90.00000000
_cell_angle_gamma   90.00000000
_symmetry_Int_Tables_number   1
_chemical_formula_structural   Na2SrMnV2O8
_chemical_formula_sum   'Na8 Sr4 Mn4 V8 O32'
_cell_volume   774.43517934
_cell_formula_units_Z   4
loop_
 _symmetry_equiv_pos_site_id
 _symmetry_equiv_pos_as_xyz
  1  'x, y, z'
loop_
 _atom_site_type_symbol
 _atom_site_label
 _atom_site_symmetry_multiplicity
 _atom_site_fract_x
 _atom_site_fract_y
 _atom_site_fract_z
 _atom_site_occupancy
  Na  Na0  1  0.47707400  0.81896900  0.91551200  1
  Na  Na1  1  0.97707400  0.68103100  0.08448800  1
  Na  Na2  1  0.52292600  0.18103100  0.08448800  1
  Na  Na3  1  0.02292600  0.31896900  0.91551200  1
  Na  Na4  1  0.51749800  0.15025800  0.58555600  1
  Na  Na5  1  0.01749800  0.34974200  0.41444400  1
  Na  Na6  1  0.48250200  0.84974200  0.41444400  1
  Na  Na7  1  0.98250200  0.65025800  0.58555600  1
  Sr  Sr0  1  0.56107800  0.46095500  0.75032200  1
  Sr  Sr1  1  0.06107800  0.03904500  0.24967800  1
  Sr  Sr2  1  0.43892200  0.53904500  0.24967800  1
  Sr  Sr3  1  0.93892200  0.96095500  0.75032200  1
  Mn  Mn0  1  0.50000000  0.50000000  0.50000000  1
  Mn  Mn1  1  0.00000000  0.00000000  0.50000000  1
  Mn  Mn2  1  0.50000000  0.50000000  0.00000000  1
  Mn  Mn3  1  0.00000000  0.00000000  0.00000000  1
  V  V0  1  0.46719400  0.81716400  0.63718900  1
  V  V1  1  0.96719400  0.68283600  0.36281100  1
  V  V2  1  0.53280600  0.18283600  0.36281100  1
  V  V3  1  0.03280600  0.31716400  0.63718900  1
  V  V4  1  0.48006100  0.14881100  0.86317300  1
  V  V5  1  0.98006100  0.35118900  0.13682700  1
  V  V6  1  0.51993900  0.85118900  0.13682700  1
  V  V7  1  0.01993900  0.64881100  0.86317300  1
  O  O0  1  0.49732100  0.64022500  0.61907500  1
  O  O1  1  0.99732100  0.85977500  0.38092500  1
  O  O2  1  0.50267900  0.35977500  0.38092500  1
  O  O3  1  0.00267900  0.14022500  0.61907500  1
  O  O4  1  0.68768900  0.90755700  0.57535300  1
  O  O5  1  0.18768900  0.59244300  0.42464700  1
  O  O6  1  0.31231100  0.09244300  0.42464700  1
  O  O7  1  0.81231100  0.40755700  0.57535300  1
  O  O8  1  0.19223400  0.08212700  0.87678700  1
  O  O9  1  0.69223400  0.41787300  0.12321300  1
  O  O10  1  0.80776600  0.91787300  0.12321300  1
  O  O11  1  0.30776600  0.58212700  0.87678700  1
  O  O12  1  0.69111700  0.03888400  0.91359900  1
  O  O13  1  0.19111700  0.46111600  0.08640100  1
  O  O14  1  0.30888300  0.96111600  0.08640100  1
  O  O15  1  0.80888300  0.53888400  0.91359900  1
  O  O16  1  0.48753100  0.30418200  0.92537700  1
  O  O17  1  0.98753100  0.19581800  0.07462300  1
  O  O18  1  0.51246900  0.69581800  0.07462300  1
  O  O19  1  0.01246900  0.80418200  0.92537700  1
  O  O20  1  0.19280300  0.86833900  0.59164100  1
  O  O21  1  0.69280300  0.63166100  0.40835900  1
  O  O22  1  0.80719700  0.13166100  0.40835900  1
  O  O23  1  0.30719700  0.36833900  0.59164100  1
  O  O24  1  0.48530000  0.86243300  0.75496100  1
  O  O25  1  0.98530000  0.63756700  0.24503900  1
  O  O26  1  0.51470000  0.13756700  0.24503900  1
  O  O27  1  0.01470000  0.36243300  0.75496100  1
  O  O28  1  0.55548100  0.18455200  0.74719200  1
  O  O29  1  0.05548100  0.31544800  0.25280800  1
  O  O30  1  0.44451900  0.81544800  0.25280800  1
  O  O31  1  0.94451900  0.68455200  0.74719200  1
loop_
_geom_bond_atom_site_label_1
_geom_bond_atom_site_label_2
_geom_bond_distance
_geom_bond_site_symmetry_2
Na0 O24 2.288080 1_555
Na0 O12 2.469683 1_565
Na0 O18 2.540153 1_556
Na0 O11 2.567011 1_555
Na0 O19 2.631803 1_555
Na0 O14 2.927870 1_556
Na1 O25 2.288080 1_555
Na1 O13 2.469683 1_655
Na1 O19 2.540153 1_654
Na1 O10 2.567011 1_555
Na1 O18 2.631803 1_555
Na1 O15 2.927870 1_554
Na2 O26 2.288080 1_555
Na2 O14 2.469683 1_545
Na2 O16 2.540153 1_554
Na2 O9 2.567011 1_555
Na2 O17 2.631803 1_555
Na2 O12 2.927870 1_554
Na3 O27 2.288080 1_555
Na3 O15 2.469683 1_455
Na3 O17 2.540153 1_456
Na3 O8 2.567011 1_555
Na3 O16 2.631803 1_555
Na3 O13 2.927870 1_556
Na4 O28 2.298445 1_555
Na4 O23 2.445135 1_555
Na4 O4 2.567687 1_545
Na4 O6 2.596685 1_555
Na4 O3 2.782030 1_655
Na4 O3 2.947068 1_555
Na4 O22 2.977885 1_555
Na4 O7 3.023272 1_555
Na5 O29 2.298445 1_555
Na5 O22 2.445135 1_455
Na5 O5 2.567687 1_555
Na5 O7 2.596685 1_455
Na5 O2 2.782030 1_555
Na5 O2 2.947068 1_455
Na5 O23 2.977885 1_555
Na5 O6 3.023272 1_555
Na6 O30 2.298445 1_555
Na6 O21 2.445135 1_555
Na6 O6 2.567687 1_565
Na6 O4 2.596685 1_555
Na6 O1 2.782030 1_455
Na6 O1 2.947068 1_555
Na6 O20 2.977885 1_555
Na6 O5 3.023272 1_555
Na7 O31 2.298445 1_555
Na7 O20 2.445135 1_655
Na7 O7 2.567687 1_555
Na7 O5 2.596685 1_655
Na7 O0 2.782030 1_555
Na7 O0 2.947068 1_655
Na7 O21 2.977885 1_555
Na7 O4 3.023272 1_555
Mn0 O21 2.119249 1_555
Mn0 O23 2.119249 1_555
Mn0 O0 2.161080 1_555
Mn0 O2 2.161080 1_555
Mn0 O5 2.245535 1_555
Mn0 O7 2.245535 1_555
Mn1 O20 2.119249 1_545
Mn1 O22 2.119249 1_455
Mn1 O3 2.161080 1_555
Mn1 O1 2.161080 1_445
Mn1 O4 2.245535 1_445
Mn1 O6 2.245535 1_555
Mn2 O13 2.156727 1_555
Mn2 O15 2.156727 1_554
Mn2 O18 2.185741 1_555
Mn2 O16 2.185741 1_554
Mn2 O9 2.190752 1_555
Mn2 O11 2.190752 1_554
Mn3 O14 2.156727 1_545
Mn3 O12 2.156727 1_454
Mn3 O17 2.185741 1_455
Mn3 O19 2.185741 1_544
Mn3 O10 2.190752 1_445
Mn3 O8 2.190752 1_554
O0 V0 1.759553 1_555
O0 Sr0 2.565537 1_555
O1 V1 1.759553 1_555
O1 Sr1 2.565537 1_665
O2 V2 1.759553 1_555
O2 Sr2 2.565537 1_555
O3 V3 1.759553 1_555
O3 Sr3 2.565537 1_445
O4 V0 1.755739 1_555
O4 Sr3 2.879597 1_555
O5 V1 1.755739 1_455
O5 Sr2 2.879597 1_555
O6 V2 1.755739 1_555
O6 Sr1 2.879597 1_555
O7 V3 1.755739 1_655
O7 Sr0 2.879597 1_555
O8 V4 1.762211 1_555
O8 Sr3 2.568068 1_445
O9 V5 1.762211 1_555
O9 Sr2 2.568068 1_555
O10 V6 1.762211 1_555
O10 Sr1 2.568068 1_665
O11 V7 1.762211 1_555
O11 Sr0 2.568068 1_555
O12 V4 1.754061 1_555
O12 Sr3 2.787819 1_545
O13 V5 1.754061 1_455
O13 Sr2 2.787819 1_555
O14 V6 1.754061 1_555
O14 Sr1 2.787819 1_565
O15 V7 1.754061 1_655
O15 Sr0 2.787819 1_555
O16 V4 1.754355 1_555
O16 Sr0 2.920587 1_555
O17 V5 1.754355 1_555
O17 Sr1 2.920587 1_655
O18 V6 1.754355 1_555
O18 Sr2 2.920587 1_555
O19 V7 1.754355 1_555
O19 Sr3 2.920587 1_455
O20 V0 1.749047 1_555
O20 Sr3 2.796386 1_455
O21 V1 1.749047 1_555
O21 Sr2 2.796386 1_555
O22 V2 1.749047 1_555
O22 Sr1 2.796386 1_655
O23 V3 1.749047 1_555
O23 Sr0 2.796386 1_555
O24 V0 1.711125 1_555
O24 Sr3 2.738510 1_555
O24 Sr3 3.233972 1_455
O25 V1 1.711125 1_555
O25 Sr2 2.738510 1_655
O25 Sr2 3.233972 1_555
O26 V2 1.711125 1_555
O26 Sr1 2.738510 1_555
O26 Sr1 3.233972 1_655
O27 V3 1.711125 1_555
O27 Sr0 2.738510 1_455
O27 Sr0 3.233972 1_555
O28 V4 1.714705 1_555
O28 Sr0 2.707116 1_555
O28 Sr3 3.079929 1_545
O29 V5 1.714705 1_455
O29 Sr1 2.707116 1_555
O29 Sr2 3.079929 1_555
O30 V6 1.714705 1_555
O30 Sr2 2.707116 1_555
O30 Sr1 3.079929 1_565
O31 V7 1.714705 1_655
O31 Sr3 2.707116 1_555
O31 Sr0 3.079929 1_555
