# generated using pymatgen
data_PrCdIn
_symmetry_space_group_name_H-M   'P 1'
_cell_length_a   4.92308575
_cell_length_b   4.92308575
_cell_length_c   7.84187842
_cell_angle_alpha   90.00000000
_cell_angle_beta   90.00000000
_cell_angle_gamma   120.00000392
_symmetry_Int_Tables_number   1
_chemical_formula_structural   PrCdIn
_chemical_formula_sum   'Pr2 Cd2 In2'
_cell_volume   164.59836626
_cell_formula_units_Z   2
loop_
 _symmetry_equiv_pos_site_id
 _symmetry_equiv_pos_as_xyz
  1  'x, y, z'
loop_
 _atom_site_type_symbol
 _atom_site_label
 _atom_site_symmetry_multiplicity
 _atom_site_fract_x
 _atom_site_fract_y
 _atom_site_fract_z
 _atom_site_occupancy
  Pr  Pr0  1  0.00000000  0.00000000  0.26209294  1
  Pr  Pr1  1  0.00000000  0.00000000  0.73790706  1
  Cd  Cd0  1  0.33333300  0.66666700  0.47304640  1
  Cd  Cd1  1  0.66666700  0.33333300  0.52695360  1
  In  In0  1  0.66666700  0.33333300  0.94760643  1
  In  In1  1  0.33333300  0.66666700  0.05239357  1
loop_
_geom_bond_atom_site_label_1
_geom_bond_atom_site_label_2
_geom_bond_distance
_geom_bond_site_symmetry_2
Pr0 Pr1 3.731276 1_555
Pr0 Pr1 4.110602 1_554
Cd0 Cd1 2.873606 1_455
Cd0 Cd1 2.873606 1_565
Cd0 Cd1 2.873615 1_555
Cd0 Pr0 3.288696 1_565
Cd0 Pr0 3.288700 1_555
Cd0 Pr0 3.288700 1_665
Cd0 In1 3.298708 1_555
Cd0 Pr1 3.520349 1_565
Cd0 Pr1 3.520353 1_555
Cd0 Pr1 3.520353 1_665
Cd1 Pr1 3.288696 1_655
Cd1 Pr1 3.288700 1_555
Cd1 Pr1 3.288700 1_665
Cd1 In0 3.298708 1_555
Cd1 Pr0 3.520349 1_655
Cd1 Pr0 3.520353 1_555
Cd1 Pr0 3.520353 1_665
In0 In1 2.958740 1_656
In0 In1 2.958740 1_546
In0 In1 2.958749 1_556
In0 Pr1 3.283760 1_655
In0 Pr1 3.283764 1_555
In0 Pr1 3.283764 1_665
In0 Pr0 3.763094 1_656
In0 Pr0 3.763097 1_556
In0 Pr0 3.763097 1_666
In1 Pr0 3.283760 1_565
In1 Pr0 3.283764 1_555
In1 Pr0 3.283764 1_665
In1 Pr1 3.763094 1_564
In1 Pr1 3.763097 1_554
In1 Pr1 3.763097 1_664
