# generated using pymatgen
data_RbSm(WO4)2
_symmetry_space_group_name_H-M   'P 1'
_cell_length_a   7.69556923
_cell_length_b   7.69556923
_cell_length_c   7.54894415
_cell_angle_alpha   62.77064440
_cell_angle_beta   62.77064440
_cell_angle_gamma   89.17744898
_symmetry_Int_Tables_number   1
_chemical_formula_structural   RbSm(WO4)2
_chemical_formula_sum   'Rb2 Sm2 W4 O16'
_cell_volume   342.54815951
_cell_formula_units_Z   2
loop_
 _symmetry_equiv_pos_site_id
 _symmetry_equiv_pos_as_xyz
  1  'x, y, z'
loop_
 _atom_site_type_symbol
 _atom_site_label
 _atom_site_symmetry_multiplicity
 _atom_site_fract_x
 _atom_site_fract_y
 _atom_site_fract_z
 _atom_site_occupancy
  Rb  Rb0  1  0.19944800  0.80055200  0.75000000  1
  Rb  Rb1  1  0.80055200  0.19944800  0.25000000  1
  Sm  Sm0  1  0.77529100  0.22470900  0.75000000  1
  Sm  Sm1  1  0.22470900  0.77529100  0.25000000  1
  W  W0  1  0.69795500  0.68771700  0.77892000  1
  W  W1  1  0.30204500  0.31228300  0.22108000  1
  W  W2  1  0.31228300  0.30204500  0.72108000  1
  W  W3  1  0.68771700  0.69795500  0.27892000  1
  O  O0  1  0.62048300  0.75211000  0.55913300  1
  O  O1  1  0.37951700  0.24789000  0.44086700  1
  O  O2  1  0.24789000  0.37951700  0.94086700  1
  O  O3  1  0.75211000  0.62048300  0.05913300  1
  O  O4  1  0.38000700  0.06721600  0.87017800  1
  O  O5  1  0.61999300  0.93278400  0.12982200  1
  O  O6  1  0.93278400  0.61999300  0.62982200  1
  O  O7  1  0.06721600  0.38000700  0.37017800  1
  O  O8  1  0.58653000  0.37023500  0.97051600  1
  O  O9  1  0.41347000  0.62976500  0.02948400  1
  O  O10  1  0.62976500  0.41347000  0.52948400  1
  O  O11  1  0.37023500  0.58653000  0.47051600  1
  O  O12  1  0.78625700  0.94895400  0.69195200  1
  O  O13  1  0.21374300  0.05104600  0.30804800  1
  O  O14  1  0.05104600  0.21374300  0.80804800  1
  O  O15  1  0.94895400  0.78625700  0.19195200  1
loop_
_geom_bond_atom_site_label_1
_geom_bond_atom_site_label_2
_geom_bond_distance
_geom_bond_site_symmetry_2
O0 W0 1.870335 1_555
O0 W3 2.171385 1_555
O0 Rb0 2.982946 1_555
O0 Rb1 3.007185 1_565
O1 W1 1.870335 1_555
O1 W2 2.171385 1_555
O1 Rb1 2.982946 1_555
O1 Rb0 3.007185 1_545
O2 W2 1.870335 1_555
O2 W1 2.171385 1_556
O2 Rb0 2.982946 1_555
O2 Rb1 3.007185 1_456
O3 W3 1.870335 1_555
O3 W0 2.171385 1_554
O3 Rb1 2.982946 1_555
O3 Rb0 3.007185 1_654
O4 W2 1.858129 1_555
O4 Sm1 2.396474 1_546
O4 Sm0 2.849489 1_555
O4 Rb0 3.147082 1_545
O5 W3 1.858129 1_555
O5 Sm0 2.396474 1_564
O5 Sm1 2.849489 1_555
O5 Rb1 3.147082 1_565
O6 W0 1.858129 1_555
O6 Sm1 2.396474 1_655
O6 Sm0 2.849489 1_555
O6 Rb0 3.147082 1_655
O7 W1 1.858129 1_555
O7 Sm0 2.396474 1_455
O7 Sm1 2.849489 1_555
O7 Rb1 3.147082 1_455
O8 W1 2.009028 1_556
O8 W0 2.118473 1_555
O8 Sm0 2.362595 1_555
O8 Rb1 3.077595 1_556
O9 W0 2.009028 1_554
O9 W1 2.118473 1_555
O9 Sm1 2.362595 1_555
O9 Rb0 3.077595 1_554
O10 W3 2.009028 1_555
O10 W2 2.118473 1_555
O10 Sm0 2.362595 1_555
O10 Rb1 3.077595 1_555
O11 W2 2.009028 1_555
O11 W3 2.118473 1_555
O11 Sm1 2.362595 1_555
O11 Rb0 3.077595 1_555
O12 W0 1.832357 1_555
O12 Sm0 2.348275 1_565
O12 Rb1 2.940017 1_565
O13 W1 1.832357 1_555
O13 Sm1 2.348275 1_545
O13 Rb0 2.940017 1_545
O14 W2 1.832357 1_555
O14 Sm0 2.348275 1_455
O14 Rb1 2.940017 1_456
O15 W3 1.832357 1_555
O15 Sm1 2.348275 1_655
O15 Rb0 2.940017 1_654
