# generated using pymatgen
data_Er6Si11N20O
_symmetry_space_group_name_H-M   'P 1'
_cell_length_a   9.73117021
_cell_length_b   9.73117021
_cell_length_c   10.61435014
_cell_angle_alpha   90.00000000
_cell_angle_beta   90.00000000
_cell_angle_gamma   119.99999805
_symmetry_Int_Tables_number   1
_chemical_formula_structural   Er6Si11N20O
_chemical_formula_sum   'Er12 Si22 N40 O2'
_cell_volume   870.47076180
_cell_formula_units_Z   2
loop_
 _symmetry_equiv_pos_site_id
 _symmetry_equiv_pos_as_xyz
  1  'x, y, z'
loop_
 _atom_site_type_symbol
 _atom_site_label
 _atom_site_symmetry_multiplicity
 _atom_site_fract_x
 _atom_site_fract_y
 _atom_site_fract_z
 _atom_site_occupancy
  Er  Er0  1  0.12719493  0.26269357  0.17492810  1
  Er  Er1  1  0.13549764  0.87280507  0.17492810  1
  Er  Er2  1  0.73730643  0.86450236  0.17492810  1
  Er  Er3  1  0.86450236  0.73730643  0.67492810  1
  Er  Er4  1  0.26269357  0.12719493  0.67492810  1
  Er  Er5  1  0.87280507  0.13549764  0.67492810  1
  Er  Er6  1  0.20303175  0.39944220  0.50057974  1
  Er  Er7  1  0.19641045  0.79696825  0.50057974  1
  Er  Er8  1  0.60055780  0.80358955  0.50057974  1
  Er  Er9  1  0.80358955  0.60055780  0.00057974  1
  Er  Er10  1  0.39944220  0.20303175  0.00057974  1
  Er  Er11  1  0.79696825  0.19641045  0.00057974  1
  Si  Si0  1  0.00000000  -0.00000000  0.43515849  1
  Si  Si1  1  0.00000000  -0.00000000  0.93515849  1
  Si  Si2  1  0.53665489  0.00967086  0.24482904  1
  Si  Si3  1  0.47301597  0.46334511  0.24482904  1
  Si  Si4  1  0.99032914  0.52698403  0.24482904  1
  Si  Si5  1  0.52698403  0.99032914  0.74482904  1
  Si  Si6  1  0.00967086  0.53665489  0.74482904  1
  Si  Si7  1  0.46334511  0.47301597  0.74482904  1
  Si  Si8  1  0.13143427  0.57408925  0.00556290  1
  Si  Si9  1  0.44265498  0.86856573  0.00556290  1
  Si  Si10  1  0.42591075  0.55734502  0.00556290  1
  Si  Si11  1  0.55734502  0.42591075  0.50556290  1
  Si  Si12  1  0.57408925  0.13143427  0.50556290  1
  Si  Si13  1  0.86856573  0.44265498  0.50556290  1
  Si  Si14  1  0.33333300  0.66666700  0.31229803  1
  Si  Si15  1  0.66666700  0.33333300  0.81229803  1
  Si  Si16  1  0.34001863  0.15612535  0.35691744  1
  Si  Si17  1  0.81610672  0.65998137  0.35691744  1
  Si  Si18  1  0.84387465  0.18389328  0.35691744  1
  Si  Si19  1  0.18389328  0.84387465  0.85691744  1
  Si  Si20  1  0.15612535  0.34001863  0.85691744  1
  Si  Si21  1  0.65998137  0.81610672  0.85691744  1
  N  N0  1  0.01633850  0.17650450  0.37801187  1
  N  N1  1  0.16016600  0.98366150  0.37801187  1
  N  N2  1  0.82349550  0.83983400  0.37801187  1
  N  N3  1  0.83983400  0.82349550  0.87801187  1
  N  N4  1  0.17650450  0.01633850  0.87801187  1
  N  N5  1  0.98366150  0.16016600  0.87801187  1
  N  N6  1  0.36418516  0.25624518  0.21548995  1
  N  N7  1  0.89206003  0.63581484  0.21548995  1
  N  N8  1  0.74375482  0.10793997  0.21548995  1
  N  N9  1  0.10793997  0.74375482  0.71548995  1
  N  N10  1  0.25624518  0.36418516  0.71548995  1
  N  N11  1  0.63581484  0.89206003  0.71548995  1
  N  N12  1  0.00000000  -0.00000000  0.09854604  1
  N  N13  1  0.00000000  -0.00000000  0.59854604  1
  N  N14  1  0.33333300  0.66666700  0.03789046  1
  N  N15  1  0.66666700  0.33333300  0.53789046  1
  N  N16  1  0.31387537  0.48586187  0.28985034  1
  N  N17  1  0.17198649  0.68612463  0.28985034  1
  N  N18  1  0.51413813  0.82801351  0.28985034  1
  N  N19  1  0.82801351  0.51413813  0.78985034  1
  N  N20  1  0.48586187  0.31387537  0.78985034  1
  N  N21  1  0.68612463  0.17198649  0.78985034  1
  N  N22  1  0.36376520  0.27556097  0.48679894  1
  N  N23  1  0.91179677  0.63623480  0.48679894  1
  N  N24  1  0.72443903  0.08820323  0.48679894  1
  N  N25  1  0.08820323  0.72443903  0.98679894  1
  N  N26  1  0.27556097  0.36376520  0.98679894  1
  N  N27  1  0.63623480  0.91179677  0.98679894  1
  N  N28  1  0.47800957  0.09251921  0.36204423  1
  N  N29  1  0.61450964  0.52199043  0.36204423  1
  N  N30  1  0.90748079  0.38549036  0.36204423  1
  N  N31  1  0.38549036  0.90748079  0.86204423  1
  N  N32  1  0.09251921  0.47800957  0.86204423  1
  N  N33  1  0.52199043  0.61450964  0.86204423  1
  N  N34  1  0.00872305  0.43137904  0.11269399  1
  N  N35  1  0.42265599  0.99127695  0.11269399  1
  N  N36  1  0.56862096  0.57734401  0.11269399  1
  N  N37  1  0.57734401  0.56862096  0.61269399  1
  N  N38  1  0.43137904  0.00872305  0.61269399  1
  N  N39  1  0.99127695  0.42265599  0.61269399  1
  O  O0  1  0.33333300  0.66666700  0.48005532  1
  O  O1  1  0.66666700  0.33333300  0.98005532  1
loop_
_geom_bond_atom_site_label_1
_geom_bond_atom_site_label_2
_geom_bond_distance
_geom_bond_site_symmetry_2
Er0 N16 2.357791 1_555
Er0 N12 2.357966 1_555
Er0 N0 2.368337 1_555
Er0 N26 2.370509 1_554
Er0 N6 2.377507 1_555
Er0 N34 2.520408 1_555
Er1 N17 2.357796 1_555
Er1 N12 2.357958 1_565
Er1 N1 2.368336 1_555
Er1 N25 2.370509 1_554
Er1 N7 2.377502 1_455
Er1 N35 2.520417 1_555
Er2 N18 2.357788 1_555
Er2 N12 2.357966 1_665
Er2 N2 2.368340 1_555
Er2 N27 2.370509 1_554
Er2 N8 2.377497 1_565
Er2 N36 2.520416 1_555
Er3 N19 2.357788 1_555
Er3 N13 2.357966 1_665
Er3 N3 2.368340 1_555
Er3 N23 2.370509 1_555
Er3 N9 2.377497 1_655
Er3 N37 2.520416 1_555
Er4 N20 2.357791 1_555
Er4 N13 2.357966 1_555
Er4 N4 2.368337 1_555
Er4 N22 2.370509 1_555
Er4 N10 2.377507 1_555
Er4 N38 2.520408 1_555
Er5 N21 2.357796 1_555
Er5 N13 2.357958 1_655
Er5 N5 2.368336 1_555
Er5 N24 2.370509 1_555
Er5 N11 2.377502 1_545
Er5 N39 2.520417 1_555
Er6 O0 2.262763 1_555
Er6 N0 2.399639 1_555
Er6 N10 2.401476 1_555
Er6 N22 2.409710 1_555
Er6 N16 2.442675 1_555
Er6 N39 2.485725 1_455
Er7 O0 2.262755 1_555
Er7 N1 2.399639 1_555
Er7 N9 2.401476 1_555
Er7 N23 2.409702 1_455
Er7 N17 2.442675 1_555
Er7 N38 2.485725 1_565
Er8 O0 2.262763 1_555
Er8 N2 2.399639 1_555
Er8 N11 2.401476 1_555
Er8 N24 2.409701 1_565
Er8 N18 2.442675 1_555
Er8 N37 2.485725 1_555
Er9 O1 2.262763 1_554
Er9 N3 2.399639 1_554
Er9 N7 2.401476 1_555
Er9 N25 2.409701 1_654
Er9 N19 2.442675 1_554
Er9 N36 2.485725 1_555
Er10 O1 2.262763 1_554
Er10 N4 2.399639 1_554
Er10 N6 2.401476 1_555
Er10 N26 2.409710 1_554
Er10 N20 2.442675 1_554
Er10 N35 2.485725 1_545
Er11 O1 2.262755 1_554
Er11 N5 2.399639 1_554
Er11 N8 2.401476 1_555
Er11 N27 2.409702 1_544
Er11 N21 2.442675 1_554
Er11 N34 2.485725 1_655
N0 Si18 1.729908 1_455
N0 Si0 1.752216 1_555
N1 Si16 1.729908 1_565
N1 Si0 1.752216 1_565
N2 Si17 1.729908 1_555
N2 Si0 1.752216 1_665
N3 Si21 1.729908 1_555
N3 Si1 1.752216 1_665
N4 Si19 1.729908 1_545
N4 Si1 1.752216 1_555
N5 Si20 1.729908 1_655
N5 Si1 1.752216 1_655
N6 Si16 1.740372 1_555
N6 Si3 1.773632 1_555
N7 Si17 1.740372 1_555
N7 Si4 1.773632 1_555
N8 Si18 1.740372 1_555
N8 Si2 1.773632 1_555
N9 Si19 1.740372 1_555
N9 Si6 1.773632 1_555
N10 Si20 1.740372 1_555
N10 Si7 1.773632 1_555
N11 Si21 1.740372 1_555
N11 Si5 1.773632 1_555
N12 Si1 1.734253 1_554
N13 Si0 1.734253 1_555
N14 Si8 1.737655 1_555
N14 Si9 1.737656 1_555
N14 Si10 1.737664 1_555
N15 Si12 1.737655 1_555
N15 Si13 1.737656 1_555
N15 Si11 1.737664 1_555
N16 Si14 1.689713 1_555
N16 Si3 1.736069 1_555
N17 Si14 1.689703 1_555
N17 Si4 1.736069 1_455
N18 Si14 1.689709 1_555
N18 Si2 1.736069 1_565
N19 Si15 1.689709 1_555
N19 Si6 1.736069 1_655
N20 Si15 1.689713 1_555
N20 Si7 1.736069 1_555
N21 Si15 1.689703 1_555
N21 Si5 1.736069 1_545
N22 Si11 1.724160 1_555
N22 Si16 1.742471 1_555
N23 Si13 1.724157 1_555
N23 Si17 1.742477 1_555
N24 Si12 1.724166 1_555
N24 Si18 1.742473 1_555
N25 Si8 1.724166 1_556
N25 Si19 1.742473 1_555
N26 Si10 1.724160 1_556
N26 Si20 1.742471 1_555
N27 Si9 1.724157 1_556
N27 Si21 1.742477 1_555
N28 Si2 1.727338 1_555
N28 Si12 1.727462 1_555
N28 Si16 1.737922 1_555
N29 Si3 1.727338 1_555
N29 Si11 1.727462 1_555
N29 Si17 1.737922 1_555
N30 Si4 1.727338 1_555
N30 Si13 1.727462 1_555
N30 Si18 1.737922 1_555
N31 Si5 1.727338 1_555
N31 Si9 1.727462 1_556
N31 Si19 1.737922 1_555
N32 Si6 1.727338 1_555
N32 Si8 1.727462 1_556
N32 Si20 1.737922 1_555
N33 Si7 1.727338 1_555
N33 Si10 1.727462 1_556
N33 Si21 1.737922 1_555
N34 Si8 1.728947 1_555
N34 Si4 1.741034 1_455
N35 Si9 1.728947 1_555
N35 Si2 1.741034 1_565
N36 Si10 1.728947 1_555
N36 Si3 1.741034 1_555
N37 Si11 1.728947 1_555
N37 Si7 1.741034 1_555
N38 Si12 1.728947 1_555
N38 Si5 1.741034 1_545
N39 Si13 1.728947 1_555
N39 Si6 1.741034 1_655
O0 Si14 1.780635 1_555
O1 Si15 1.780635 1_555
