# generated using pymatgen
data_K3U2O6F7
_symmetry_space_group_name_H-M   'P 1'
_cell_length_a   6.42864910
_cell_length_b   9.31725973
_cell_length_c   11.63703800
_cell_angle_alpha   90.00000000
_cell_angle_beta   90.00000000
_cell_angle_gamma   94.13969685
_symmetry_Int_Tables_number   1
_chemical_formula_structural   K3U2O6F7
_chemical_formula_sum   'K6 U4 O12 F14'
_cell_volume   695.20970119
_cell_formula_units_Z   2
loop_
 _symmetry_equiv_pos_site_id
 _symmetry_equiv_pos_as_xyz
  1  'x, y, z'
loop_
 _atom_site_type_symbol
 _atom_site_label
 _atom_site_symmetry_multiplicity
 _atom_site_fract_x
 _atom_site_fract_y
 _atom_site_fract_z
 _atom_site_occupancy
  K  K0  1  0.53716400  0.56567800  0.75000000  1
  K  K1  1  0.46283600  0.43432200  0.25000000  1
  K  K2  1  0.88097500  0.93882200  0.75000000  1
  K  K3  1  0.11902500  0.06117800  0.25000000  1
  K  K4  1  0.00000000  0.50000000  0.00000000  1
  K  K5  1  0.00000000  0.50000000  0.50000000  1
  U  U0  1  0.59454700  0.81271000  0.44191500  1
  U  U1  1  0.40545300  0.18729000  0.55808500  1
  U  U2  1  0.40545300  0.18729000  0.94191500  1
  U  U3  1  0.59454700  0.81271000  0.05808500  1
  O  O0  1  0.26726200  0.79032700  0.75000000  1
  O  O1  1  0.73273800  0.20967300  0.25000000  1
  O  O2  1  0.83543300  0.90590300  0.39208200  1
  O  O3  1  0.16456700  0.09409700  0.60791800  1
  O  O4  1  0.16456700  0.09409700  0.89208200  1
  O  O5  1  0.83543300  0.90590300  0.10791800  1
  O  O6  1  0.65233600  0.27745600  0.99043000  1
  O  O7  1  0.34766400  0.72254400  0.00957000  1
  O  O8  1  0.34766400  0.72254400  0.49043000  1
  O  O9  1  0.65233600  0.27745600  0.50957000  1
  O  O10  1  0.91032000  0.40286700  0.75000000  1
  O  O11  1  0.08968000  0.59713300  0.25000000  1
  F  F0  1  0.52740800  0.20081200  0.75000000  1
  F  F1  1  0.47259200  0.79918800  0.25000000  1
  F  F2  1  0.69616800  0.60472300  0.37862200  1
  F  F3  1  0.30383200  0.39527700  0.62137800  1
  F  F4  1  0.30383200  0.39527700  0.87862200  1
  F  F5  1  0.69616800  0.60472300  0.12137800  1
  F  F6  1  0.76149300  0.72015800  0.90759200  1
  F  F7  1  0.23850700  0.27984200  0.09240800  1
  F  F8  1  0.23850700  0.27984200  0.40759200  1
  F  F9  1  0.76149300  0.72015800  0.59240800  1
  F  F10  1  0.57844300  0.97551400  0.90286600  1
  F  F11  1  0.42155700  0.02448600  0.09713400  1
  F  F12  1  0.42155700  0.02448600  0.40286600  1
  F  F13  1  0.57844300  0.97551400  0.59713400  1
loop_
_geom_bond_atom_site_label_1
_geom_bond_atom_site_label_2
_geom_bond_distance
_geom_bond_site_symmetry_2
K0 O0 2.813549 1_555
K0 O10 2.929369 1_555
K1 O1 2.813549 1_555
K1 O11 2.929369 1_555
K2 O3 2.787430 1_665
K2 O4 2.787430 1_665
K2 O0 2.928670 1_655
K3 O5 2.787430 1_445
K3 O2 2.787430 1_445
K3 O1 2.928670 1_455
K4 O6 2.939046 1_454
K4 O7 2.939046 1_555
K4 O11 3.088671 1_555
K4 O10 3.088671 1_454
K5 O9 2.939046 1_455
K5 O8 2.939046 1_555
K5 O10 3.088671 1_455
K5 O11 3.088671 1_555
O2 U0 1.814989 1_555
O3 U1 1.814989 1_555
O4 U2 1.814989 1_555
O5 U3 1.814989 1_555
O6 U2 1.830565 1_555
O7 U3 1.830565 1_555
O8 U0 1.830565 1_555
O9 U1 1.830565 1_555
F0 U1 2.367278 1_555
F0 U2 2.367278 1_555
F1 U0 2.367278 1_555
F1 U3 2.367278 1_555
F2 U0 2.215264 1_555
F2 K1 2.582099 1_555
F2 K5 2.652813 1_655
F3 U1 2.215264 1_555
F3 K0 2.582099 1_555
F3 K5 2.652813 1_555
F4 U2 2.215264 1_555
F4 K0 2.582099 1_555
F4 K4 2.652813 1_556
F5 U3 2.215264 1_555
F5 K1 2.582099 1_555
F5 K4 2.652813 1_655
F6 U3 2.257454 1_556
F6 K0 2.686064 1_555
F6 K2 2.806786 1_555
F6 K4 2.858168 1_656
F7 U2 2.257454 1_554
F7 K1 2.686064 1_555
F7 K3 2.806786 1_555
F7 K4 2.858168 1_555
F8 U1 2.257454 1_555
F8 K1 2.686064 1_555
F8 K3 2.806786 1_555
F8 K5 2.858168 1_555
F9 U0 2.257454 1_555
F9 K0 2.686064 1_555
F9 K2 2.806786 1_555
F9 K5 2.858168 1_655
F10 U3 2.365802 1_556
F10 U2 2.377701 1_565
F10 K2 2.675801 1_555
F11 U2 2.365802 1_554
F11 U3 2.377701 1_545
F11 K3 2.675801 1_555
F12 U1 2.365802 1_555
F12 U0 2.377701 1_545
F12 K3 2.675801 1_555
F13 U0 2.365802 1_555
F13 U1 2.377701 1_565
F13 K2 2.675801 1_555
