# generated using pymatgen
data_Nd2TiCuO6
_symmetry_space_group_name_H-M   'P 1'
_cell_length_a   5.83780400
_cell_length_b   5.50165100
_cell_length_c   9.39961241
_cell_angle_alpha   54.04174938
_cell_angle_beta   90.00000000
_cell_angle_gamma   90.00000000
_symmetry_Int_Tables_number   1
_chemical_formula_structural   Nd2TiCuO6
_chemical_formula_sum   'Nd4 Ti2 Cu2 O12'
_cell_volume   244.36549336
_cell_formula_units_Z   2
loop_
 _symmetry_equiv_pos_site_id
 _symmetry_equiv_pos_as_xyz
  1  'x, y, z'
loop_
 _atom_site_type_symbol
 _atom_site_label
 _atom_site_symmetry_multiplicity
 _atom_site_fract_x
 _atom_site_fract_y
 _atom_site_fract_z
 _atom_site_occupancy
  Nd  Nd0  1  0.06828300  0.76354800  0.75101600  1
  Nd  Nd1  1  0.56828300  0.23645200  0.74898400  1
  Nd  Nd2  1  0.93171700  0.23645200  0.24898400  1
  Nd  Nd3  1  0.43171700  0.76354800  0.25101600  1
  Ti  Ti0  1  0.50000000  0.00000000  0.50000000  1
  Ti  Ti1  1  0.00000000  0.00000000  0.00000000  1
  Cu  Cu0  1  0.50000000  0.50000000  0.00000000  1
  Cu  Cu1  1  0.00000000  0.50000000  0.50000000  1
  O  O0  1  0.46835100  0.65154600  0.75166900  1
  O  O1  1  0.96835100  0.34845400  0.74833100  1
  O  O2  1  0.53164900  0.34845400  0.24833100  1
  O  O3  1  0.03164900  0.65154600  0.25166900  1
  O  O4  1  0.81933600  0.75968800  0.95170000  1
  O  O5  1  0.31933600  0.24031200  0.54830000  1
  O  O6  1  0.21293000  0.86634400  0.44907800  1
  O  O7  1  0.71293000  0.13365600  0.05092200  1
  O  O8  1  0.18066400  0.24031200  0.04830000  1
  O  O9  1  0.68066400  0.75968800  0.45170000  1
  O  O10  1  0.78707000  0.13365600  0.55092200  1
  O  O11  1  0.28707000  0.86634400  0.94907800  1
loop_
_geom_bond_atom_site_label_1
_geom_bond_atom_site_label_2
_geom_bond_distance
_geom_bond_site_symmetry_2
Nd0 O4 2.371460 1_455
Nd0 O1 2.371488 1_455
Nd0 O0 2.414527 1_555
Nd0 O10 2.425089 1_465
Nd0 O11 2.579462 1_555
Nd0 O5 2.605612 1_565
Nd0 O8 2.660586 1_556
Nd0 O6 2.683787 1_555
Nd1 O5 2.371460 1_555
Nd1 O0 2.371488 1_555
Nd1 O1 2.414527 1_555
Nd1 O11 2.425089 1_545
Nd1 O10 2.579462 1_555
Nd1 O4 2.605612 1_545
Nd1 O9 2.660586 1_555
Nd1 O7 2.683787 1_556
Nd2 O8 2.371460 1_655
Nd2 O3 2.371488 1_655
Nd2 O2 2.414527 1_555
Nd2 O6 2.425089 1_645
Nd2 O7 2.579462 1_555
Nd2 O9 2.605612 1_545
Nd2 O4 2.660586 1_554
Nd2 O10 2.683787 1_555
Nd3 O9 2.371460 1_555
Nd3 O2 2.371488 1_555
Nd3 O3 2.414527 1_555
Nd3 O7 2.425089 1_565
Nd3 O6 2.579462 1_555
Nd3 O8 2.605612 1_565
Nd3 O5 2.660586 1_555
Nd3 O11 2.683787 1_554
Cu0 O2 1.972888 1_555
Cu0 O0 1.972888 1_554
Cu0 O11 2.168764 1_554
Cu0 O7 2.168764 1_555
Cu0 O4 2.227308 1_554
Cu0 O8 2.227308 1_555
Cu1 O1 1.972888 1_455
Cu1 O3 1.972888 1_555
Cu1 O10 2.168764 1_455
Cu1 O6 2.168764 1_555
Cu1 O5 2.227308 1_555
Cu1 O9 2.227308 1_455
O0 Ti0 1.994856 1_565
O1 Ti1 1.994856 1_656
O2 Ti0 1.994856 1_555
O3 Ti1 1.994856 1_565
O4 Ti1 1.942001 1_666
O5 Ti0 1.942001 1_555
O6 Ti0 1.997913 1_565
O7 Ti1 1.997913 1_655
O8 Ti1 1.942001 1_555
O9 Ti0 1.942001 1_565
O10 Ti0 1.997913 1_555
O11 Ti1 1.997913 1_566
