# generated using pymatgen
data_Li2MnAgF6
_symmetry_space_group_name_H-M   'P 1'
_cell_length_a   6.01553000
_cell_length_b   6.01553018
_cell_length_c   6.01553028
_cell_angle_alpha   60.00000123
_cell_angle_beta   60.00000156
_cell_angle_gamma   60.00000097
_symmetry_Int_Tables_number   1
_chemical_formula_structural   Li2MnAgF6
_chemical_formula_sum   'Li2 Mn1 Ag1 F6'
_cell_volume   153.92414099
_cell_formula_units_Z   1
loop_
 _symmetry_equiv_pos_site_id
 _symmetry_equiv_pos_as_xyz
  1  'x, y, z'
loop_
 _atom_site_type_symbol
 _atom_site_label
 _atom_site_symmetry_multiplicity
 _atom_site_fract_x
 _atom_site_fract_y
 _atom_site_fract_z
 _atom_site_occupancy
  Li  Li0  1  0.25000000  0.25000000  0.25000000  1
  Li  Li1  1  0.75000000  0.75000000  0.75000000  1
  Mn  Mn0  1  0.00000000  0.00000000  0.00000000  1
  Ag  Ag0  1  0.50000000  0.50000000  0.50000000  1
  F  F0  1  0.22924400  0.77075600  0.22924400  1
  F  F1  1  0.77075600  0.77075600  0.22924400  1
  F  F2  1  0.77075600  0.22924400  0.77075600  1
  F  F3  1  0.77075600  0.22924400  0.22924400  1
  F  F4  1  0.22924400  0.77075600  0.77075600  1
  F  F5  1  0.22924400  0.22924400  0.77075600  1
loop_
_geom_bond_atom_site_label_1
_geom_bond_atom_site_label_2
_geom_bond_distance
_geom_bond_site_symmetry_2
Ag0 F1 2.303387 1_555
Ag0 F5 2.303387 1_555
Ag0 F2 2.303387 1_555
Ag0 F0 2.303387 1_555
Ag0 F4 2.303387 1_555
Ag0 F3 2.303387 1_555
F0 Mn0 1.950235 1_565
F1 Mn0 1.950235 1_665
F2 Mn0 1.950235 1_656
F3 Mn0 1.950235 1_655
F4 Mn0 1.950235 1_566
F5 Mn0 1.950235 1_556
