# generated using pymatgen
data_U(AlFe)6
_symmetry_space_group_name_H-M   'P 1'
_cell_length_a   6.55592539
_cell_length_b   6.55592539
_cell_length_c   6.55592539
_cell_angle_alpha   135.72994881
_cell_angle_beta   98.93470120
_cell_angle_gamma   97.39063943
_symmetry_Int_Tables_number   1
_chemical_formula_structural   U(AlFe)6
_chemical_formula_sum   'U1 Al6 Fe6'
_cell_volume   182.17193312
_cell_formula_units_Z   1
loop_
 _symmetry_equiv_pos_site_id
 _symmetry_equiv_pos_as_xyz
  1  'x, y, z'
loop_
 _atom_site_type_symbol
 _atom_site_label
 _atom_site_symmetry_multiplicity
 _atom_site_fract_x
 _atom_site_fract_y
 _atom_site_fract_z
 _atom_site_occupancy
  U  U0  1  0.00000000  0.00000000  0.00000000  1
  Al  Al0  1  0.65129800  0.65129800  0.00000000  1
  Al  Al1  1  0.34870200  0.34870200  0.00000000  1
  Al  Al2  1  0.34198800  0.00000000  0.34198800  1
  Al  Al3  1  0.65801200  0.00000000  0.65801200  1
  Al  Al4  1  0.19946100  0.69946100  0.50000000  1
  Al  Al5  1  0.80053900  0.30053900  0.50000000  1
  Fe  Fe0  1  0.50000000  0.50000000  0.50000000  1
  Fe  Fe1  1  0.50000000  0.00000000  0.00000000  1
  Fe  Fe2  1  0.00000000  0.50000000  0.00000000  1
  Fe  Fe3  1  0.00000000  0.00000000  0.50000000  1
  Fe  Fe4  1  0.76836300  0.50000000  0.26836300  1
  Fe  Fe5  1  0.23163700  0.50000000  0.73163700  1
loop_
_geom_bond_atom_site_label_1
_geom_bond_atom_site_label_2
_geom_bond_distance
_geom_bond_site_symmetry_2
Al0 Fe3 2.606399 1_665
Al0 Fe0 2.606399 1_554
Al0 Fe1 2.606399 1_565
Al0 Fe2 2.606399 1_655
Al0 Al1 2.618862 1_555
Al0 Fe4 2.635125 1_555
Al0 Fe5 2.635125 1_554
Al0 Al5 2.787516 1_554
Al0 Al5 2.787516 1_565
Al0 U0 3.017893 1_665
Al0 Al3 3.103137 1_554
Al0 Al3 3.103137 1_565
Al0 Al2 3.103137 1_565
Al0 Al2 3.103137 1_554
Al1 Fe2 2.606399 1_555
Al1 Fe3 2.606399 1_554
Al1 Fe0 2.606399 1_555
Al1 Fe1 2.606399 1_555
Al1 Fe4 2.635125 1_555
Al1 Fe5 2.635125 1_554
Al1 Al4 2.787516 1_544
Al1 Al4 2.787516 1_555
Al1 U0 3.017893 1_555
Al1 Al3 3.103137 1_554
Al1 Al3 3.103137 1_565
Al1 Al2 3.103137 1_565
Al1 Al2 3.103137 1_554
Al2 Fe3 2.611767 1_555
Al2 Fe2 2.611767 1_545
Al2 Fe0 2.611767 1_555
Al2 Fe1 2.611767 1_555
Al2 Fe5 2.643130 1_544
Al2 Fe5 2.643130 1_555
Al2 Al3 2.692887 1_555
Al2 U0 2.914130 1_555
Al2 Al5 2.928894 1_555
Al2 Al4 2.928894 1_545
Al3 Fe0 2.611767 1_545
Al3 Fe3 2.611767 1_655
Al3 Fe2 2.611767 1_656
Al3 Fe1 2.611767 1_556
Al3 Fe4 2.643130 1_556
Al3 Fe4 2.643130 1_545
Al3 U0 2.914130 1_656
Al3 Al4 2.928894 1_545
Al3 Al5 2.928894 1_555
Al4 Fe1 2.500984 1_566
Al4 Fe2 2.500984 1_555
Al4 Fe0 2.500984 1_555
Al4 Fe3 2.500984 1_565
Al4 Fe5 2.622199 1_555
Al4 Fe4 2.622199 1_455
Al4 U0 3.013624 1_566
Al4 U0 3.013624 1_555
Al5 Fe2 2.500984 1_656
Al5 Fe0 2.500984 1_555
Al5 Fe1 2.500984 1_555
Al5 Fe3 2.500984 1_655
Al5 Fe5 2.622199 1_655
Al5 Fe4 2.622199 1_555
Al5 U0 3.013624 1_655
Al5 U0 3.013624 1_666
Fe0 Fe1 2.470211 1_566
Fe0 Fe1 2.470211 1_555
Fe0 Fe4 2.496278 1_555
Fe0 Fe5 2.496278 1_555
Fe0 U0 3.277963 1_555
Fe0 U0 3.277963 1_666
Fe1 Fe4 2.496278 1_555
Fe1 Fe5 2.496278 1_544
Fe1 U0 3.277963 1_655
Fe1 U0 3.277963 1_555
Fe2 Fe3 2.470211 1_565
Fe2 Fe3 2.470211 1_554
Fe2 Fe4 2.496278 1_455
Fe2 Fe5 2.496278 1_554
Fe2 U0 3.277963 1_565
Fe2 U0 3.277963 1_555
Fe3 Fe4 2.496278 1_445
Fe3 Fe5 2.496278 1_555
Fe3 U0 3.277963 1_555
Fe3 U0 3.277963 1_556
Fe4 U0 3.161942 1_655
Fe4 U0 3.161942 1_666
Fe5 U0 3.161942 1_566
Fe5 U0 3.161942 1_555
