# generated using pymatgen
data_Tm(Mo3S4)2
_symmetry_space_group_name_H-M   'P 1'
_cell_length_a   6.48547920
_cell_length_b   6.48547920
_cell_length_c   6.48547958
_cell_angle_alpha   89.63848426
_cell_angle_beta   89.63848426
_cell_angle_gamma   89.63849046
_symmetry_Int_Tables_number   1
_chemical_formula_structural   Tm(Mo3S4)2
_chemical_formula_sum   'Tm1 Mo6 S8'
_cell_volume   272.77239130
_cell_formula_units_Z   1
loop_
 _symmetry_equiv_pos_site_id
 _symmetry_equiv_pos_as_xyz
  1  'x, y, z'
loop_
 _atom_site_type_symbol
 _atom_site_label
 _atom_site_symmetry_multiplicity
 _atom_site_fract_x
 _atom_site_fract_y
 _atom_site_fract_z
 _atom_site_occupancy
  Tm  Tm0  1  0.00000000  0.00000000  0.00000000  1
  Mo  Mo0  1  0.55935500  0.41981100  0.22234600  1
  Mo  Mo1  1  0.41981100  0.22234600  0.55935500  1
  Mo  Mo2  1  0.22234600  0.55935500  0.41981100  1
  Mo  Mo3  1  0.44064500  0.58018900  0.77765400  1
  Mo  Mo4  1  0.58018900  0.77765400  0.44064500  1
  Mo  Mo5  1  0.77765400  0.44064500  0.58018900  1
  S  S0  1  0.23600300  0.23600300  0.23600300  1
  S  S1  1  0.76399700  0.76399700  0.76399700  1
  S  S2  1  0.12814400  0.36625200  0.75309000  1
  S  S3  1  0.36625200  0.75309000  0.12814400  1
  S  S4  1  0.75309000  0.12814400  0.36625200  1
  S  S5  1  0.87185600  0.63374800  0.24691000  1
  S  S6  1  0.63374800  0.24691000  0.87185600  1
  S  S7  1  0.24691000  0.87185600  0.63374800  1
loop_
_geom_bond_atom_site_label_1
_geom_bond_atom_site_label_2
_geom_bond_distance
_geom_bond_site_symmetry_2
Mo0 S0 2.419623 1_555
Mo0 S4 2.447535 1_555
Mo0 S5 2.469905 1_555
Mo0 S3 2.563684 1_555
Mo0 S6 2.582375 1_554
Mo1 S0 2.419623 1_555
Mo1 S2 2.447535 1_555
Mo1 S6 2.469905 1_555
Mo1 S4 2.563684 1_555
Mo1 S7 2.582375 1_545
Mo2 S0 2.419623 1_555
Mo2 S3 2.447535 1_555
Mo2 S7 2.469905 1_555
Mo2 S2 2.563684 1_555
Mo2 S5 2.582375 1_455
Mo3 S1 2.419623 1_555
Mo3 S7 2.447535 1_555
Mo3 S2 2.469905 1_555
Mo3 S6 2.563684 1_555
Mo3 S3 2.582375 1_556
Mo4 S1 2.419623 1_555
Mo4 S5 2.447535 1_555
Mo4 S3 2.469905 1_555
Mo4 S7 2.563684 1_555
Mo4 S4 2.582375 1_565
Mo5 S1 2.419623 1_555
Mo5 S6 2.447535 1_555
Mo5 S4 2.469905 1_555
Mo5 S5 2.563684 1_555
Mo5 S2 2.582375 1_655
S0 Tm0 2.667739 1_555
S1 Tm0 2.667739 1_666
S2 Tm0 2.976106 1_556
S3 Tm0 2.976106 1_565
S4 Tm0 2.976106 1_655
S5 Tm0 2.976106 1_665
S6 Tm0 2.976106 1_656
S7 Tm0 2.976106 1_566
