# generated using pymatgen
data_YSn3Se2ClO8
_symmetry_space_group_name_H-M   'P 1'
_cell_length_a   7.19555100
_cell_length_b   7.50631900
_cell_length_c   10.44873500
_cell_angle_alpha   90.00000000
_cell_angle_beta   90.00000000
_cell_angle_gamma   90.00000000
_symmetry_Int_Tables_number   1
_chemical_formula_structural   YSn3Se2ClO8
_chemical_formula_sum   'Y2 Sn6 Se4 Cl2 O16'
_cell_volume   564.35813209
_cell_formula_units_Z   2
loop_
 _symmetry_equiv_pos_site_id
 _symmetry_equiv_pos_as_xyz
  1  'x, y, z'
loop_
 _atom_site_type_symbol
 _atom_site_label
 _atom_site_symmetry_multiplicity
 _atom_site_fract_x
 _atom_site_fract_y
 _atom_site_fract_z
 _atom_site_occupancy
  Y  Y0  1  0.00000000  0.68503300  0.00000000  1
  Y  Y1  1  0.50000000  0.31496700  0.50000000  1
  Sn  Sn0  1  0.25000000  0.00000000  0.75000000  1
  Sn  Sn1  1  0.25000000  0.00000000  0.25000000  1
  Sn  Sn2  1  0.75000000  0.00000000  0.75000000  1
  Sn  Sn3  1  0.50000000  0.82744900  0.50000000  1
  Sn  Sn4  1  0.00000000  0.17255100  0.00000000  1
  Sn  Sn5  1  0.75000000  0.00000000  0.25000000  1
  Se  Se0  1  0.50000000  0.56892800  0.81993600  1
  Se  Se1  1  0.00000000  0.43107200  0.68006400  1
  Se  Se2  1  0.50000000  0.56892800  0.18006400  1
  Se  Se3  1  0.00000000  0.43107200  0.31993600  1
  Cl  Cl0  1  0.00000000  0.87163400  0.50000000  1
  Cl  Cl1  1  0.50000000  0.12836600  0.00000000  1
  O  O0  1  0.00000000  0.93381800  0.87594200  1
  O  O1  1  0.00000000  0.44480700  0.84841800  1
  O  O2  1  0.50000000  0.55519300  0.34841800  1
  O  O3  1  0.31097800  0.70733700  0.84824000  1
  O  O4  1  0.18902200  0.29266300  0.34824000  1
  O  O5  1  0.81097800  0.29266300  0.34824000  1
  O  O6  1  0.50000000  0.06618200  0.62405800  1
  O  O7  1  0.68902200  0.70733700  0.84824000  1
  O  O8  1  0.68902200  0.70733700  0.15176000  1
  O  O9  1  0.81097800  0.29266300  0.65176000  1
  O  O10  1  0.00000000  0.93381800  0.12405800  1
  O  O11  1  0.50000000  0.06618200  0.37594200  1
  O  O12  1  0.18902200  0.29266300  0.65176000  1
  O  O13  1  0.31097800  0.70733700  0.15176000  1
  O  O14  1  0.50000000  0.55519300  0.65158200  1
  O  O15  1  0.00000000  0.44480700  0.15158200  1
loop_
_geom_bond_atom_site_label_1
_geom_bond_atom_site_label_2
_geom_bond_distance
_geom_bond_site_symmetry_2
O0 Sn4 2.211684 1_566
O0 Y0 2.273250 1_556
O0 Sn0 2.283522 1_565
O0 Sn2 2.283522 1_465
O1 Se1 1.762105 1_555
O1 Y0 2.400026 1_556
O1 Sn4 2.585540 1_556
O2 Se2 1.762105 1_555
O2 Y1 2.400026 1_555
O2 Sn3 2.585540 1_555
O3 Se0 1.736889 1_555
O3 Sn0 2.464186 1_565
O3 Y0 2.747651 1_556
O4 Se3 1.736889 1_555
O4 Sn1 2.464186 1_555
O4 Y1 2.747651 1_555
O5 Se3 1.736889 1_655
O5 Sn5 2.464186 1_555
O5 Y1 2.747651 1_555
O6 Sn3 2.211684 1_545
O6 Y1 2.273250 1_555
O6 Sn2 2.283522 1_555
O6 Sn0 2.283522 1_555
O7 Se0 1.736889 1_555
O7 Sn2 2.464186 1_565
O7 Y0 2.747651 1_656
O8 Se2 1.736889 1_555
O8 Sn5 2.464186 1_565
O8 Y0 2.747651 1_655
O9 Se1 1.736889 1_655
O9 Sn2 2.464186 1_555
O9 Y1 2.747651 1_555
O10 Sn4 2.211684 1_565
O10 Y0 2.273250 1_555
O10 Sn5 2.283522 1_465
O10 Sn1 2.283522 1_565
O11 Sn3 2.211684 1_545
O11 Y1 2.273250 1_555
O11 Sn1 2.283522 1_555
O11 Sn5 2.283522 1_555
O12 Se1 1.736889 1_555
O12 Sn0 2.464186 1_555
O12 Y1 2.747651 1_555
O13 Se2 1.736889 1_555
O13 Sn1 2.464186 1_565
O13 Y0 2.747651 1_555
O14 Se0 1.762105 1_555
O14 Y1 2.400026 1_555
O14 Sn3 2.585540 1_555
O15 Se3 1.762105 1_555
O15 Y0 2.400026 1_555
O15 Sn4 2.585540 1_555
