# generated using pymatgen
data_Pr4Si2S3O7
_symmetry_space_group_name_H-M   'P 1'
_cell_length_a   11.16533175
_cell_length_b   11.16533175
_cell_length_c   11.16533175
_cell_angle_alpha   114.32982711
_cell_angle_beta   114.32982711
_cell_angle_gamma   100.13816533
_symmetry_Int_Tables_number   1
_chemical_formula_structural   Pr4Si2S3O7
_chemical_formula_sum   'Pr16 Si8 S12 O28'
_cell_volume   1050.68661935
_cell_formula_units_Z   4
loop_
 _symmetry_equiv_pos_site_id
 _symmetry_equiv_pos_as_xyz
  1  'x, y, z'
loop_
 _atom_site_type_symbol
 _atom_site_label
 _atom_site_symmetry_multiplicity
 _atom_site_fract_x
 _atom_site_fract_y
 _atom_site_fract_z
 _atom_site_occupancy
  Pr  Pr0  1  0.42132300  0.92132300  0.84264700  1
  Pr  Pr1  1  0.67132300  0.32867700  0.00000000  1
  Pr  Pr2  1  0.32867700  0.67132300  0.00000000  1
  Pr  Pr3  1  0.07867700  0.57867700  0.15735300  1
  Pr  Pr4  1  0.32867700  0.32867700  0.65735300  1
  Pr  Pr5  1  0.07867700  0.92132300  0.50000000  1
  Pr  Pr6  1  0.42132300  0.57867700  0.50000000  1
  Pr  Pr7  1  0.67132300  0.67132300  0.34264700  1
  Pr  Pr8  1  0.03167400  0.79468300  0.76300900  1
  Pr  Pr9  1  0.03167400  0.26866600  0.23699100  1
  Pr  Pr10  1  0.20531700  0.96832600  0.23699100  1
  Pr  Pr11  1  0.01866600  0.28167400  0.73699100  1
  Pr  Pr12  1  0.54468300  0.28167400  0.26300900  1
  Pr  Pr13  1  0.71832600  0.98133400  0.26300900  1
  Pr  Pr14  1  0.71832600  0.45531700  0.73699100  1
  Pr  Pr15  1  0.73133400  0.96832600  0.76300900  1
  Si  Si0  1  0.27728200  0.40129900  0.12401700  1
  Si  Si1  1  0.27728200  0.15326500  0.87598300  1
  Si  Si2  1  0.59870100  0.72271800  0.87598300  1
  Si  Si3  1  0.90326500  0.52728200  0.37598300  1
  Si  Si4  1  0.15129900  0.52728200  0.62401700  1
  Si  Si5  1  0.47271800  0.09673500  0.62401700  1
  Si  Si6  1  0.47271800  0.84870100  0.37598300  1
  Si  Si7  1  0.84673500  0.72271800  0.12401700  1
  S  S0  1  0.50000000  0.50000000  0.00000000  1
  S  S1  1  0.25000000  0.75000000  0.50000000  1
  S  S2  1  0.75000000  0.25000000  0.50000000  1
  S  S3  1  0.00000000  0.00000000  0.00000000  1
  S  S4  1  0.87500000  0.97597400  0.60097400  1
  S  S5  1  0.72597400  0.62500000  0.60097400  1
  S  S6  1  0.02402600  0.12500000  0.39902600  1
  S  S7  1  0.37500000  0.27402600  0.39902600  1
  S  S8  1  0.87500000  0.27402600  0.89902600  1
  S  S9  1  0.02402600  0.62500000  0.89902600  1
  S  S10  1  0.72597400  0.12500000  0.10097400  1
  S  S11  1  0.37500000  0.97597400  0.10097400  1
  O  O0  1  0.77076300  0.77076300  0.00000000  1
  O  O1  1  0.52076300  0.02076300  0.50000000  1
  O  O2  1  0.97923700  0.47923700  0.50000000  1
  O  O3  1  0.22923700  0.22923700  0.00000000  1
  O  O4  1  0.20030000  0.97414300  0.77384300  1
  O  O5  1  0.20030000  0.42645700  0.22615700  1
  O  O6  1  0.02585700  0.79970000  0.22615700  1
  O  O7  1  0.17645700  0.45030000  0.72615700  1
  O  O8  1  0.72414300  0.45030000  0.27384300  1
  O  O9  1  0.54970000  0.82354300  0.27384300  1
  O  O10  1  0.54970000  0.27585700  0.72615700  1
  O  O11  1  0.57354300  0.79970000  0.77384300  1
  O  O12  1  0.30026900  0.05935800  0.52203400  1
  O  O13  1  0.53732300  0.77823400  0.47796600  1
  O  O14  1  0.94064200  0.69973100  0.47796600  1
  O  O15  1  0.52823400  0.55026900  0.74091100  1
  O  O16  1  0.80935800  0.78732300  0.25908900  1
  O  O17  1  0.44973100  0.47176600  0.25908900  1
  O  O18  1  0.21267700  0.19064200  0.74091100  1
  O  O19  1  0.22176600  0.46267700  0.52203400  1
  O  O20  1  0.44973100  0.19064200  0.97796600  1
  O  O21  1  0.21267700  0.47176600  0.02203400  1
  O  O22  1  0.80935800  0.55026900  0.02203400  1
  O  O23  1  0.22176600  0.69973100  0.75908900  1
  O  O24  1  0.94064200  0.46267700  0.24091100  1
  O  O25  1  0.30026900  0.77823400  0.24091100  1
  O  O26  1  0.53732300  0.05935800  0.75908900  1
  O  O27  1  0.52823400  0.78732300  0.97796600  1
loop_
_geom_bond_atom_site_label_1
_geom_bond_atom_site_label_2
_geom_bond_distance
_geom_bond_site_symmetry_2
Pr0 S1 2.933671 1_555
Pr0 S11 2.974759 1_556
Pr0 S10 2.974767 1_566
Pr1 S0 2.933662 1_555
Pr1 S10 2.974770 1_555
Pr1 S8 2.974770 1_554
Pr2 S0 2.933662 1_555
Pr2 S9 2.974770 1_554
Pr2 S11 2.974770 1_555
Pr3 S1 2.933671 1_555
Pr3 S9 2.974759 1_554
Pr3 S8 2.974767 1_454
Pr4 S0 2.933671 1_556
Pr4 S7 2.974759 1_555
Pr4 S6 2.974767 1_555
Pr5 S1 2.933662 1_555
Pr5 S4 2.974770 1_455
Pr5 S6 2.974770 1_565
Pr6 S1 2.933662 1_555
Pr6 S5 2.974770 1_555
Pr6 S7 2.974770 1_555
Pr7 S0 2.933671 1_555
Pr7 S5 2.974759 1_555
Pr7 S4 2.974767 1_555
Pr8 S5 2.885087 1_455
Pr8 S9 2.885087 1_555
Pr8 S3 2.905225 1_566
Pr8 S11 3.476608 1_556
Pr8 S4 3.476608 1_455
Pr9 S10 2.885088 1_455
Pr9 S6 2.885096 1_555
Pr9 S3 2.905232 1_555
Pr9 S8 3.476602 1_454
Pr9 S7 3.476612 1_555
Pr10 S11 2.885087 1_555
Pr10 S7 2.885087 1_565
Pr10 S3 2.905225 1_565
Pr10 S9 3.476608 1_554
Pr10 S6 3.476608 1_565
Pr11 S4 2.885088 1_445
Pr11 S8 2.885096 1_455
Pr11 S2 2.905232 1_455
Pr11 S6 3.476602 1_555
Pr11 S9 3.476612 1_555
Pr12 S11 2.885087 1_545
Pr12 S7 2.885087 1_555
Pr12 S2 2.905225 1_555
Pr12 S10 3.476608 1_555
Pr12 S5 3.476608 1_555
Pr13 S6 2.885088 1_665
Pr13 S10 2.885096 1_565
Pr13 S2 2.905232 1_565
Pr13 S4 3.476602 1_555
Pr13 S11 3.476612 1_555
Pr14 S9 2.885087 1_655
Pr14 S5 2.885087 1_555
Pr14 S2 2.905225 1_555
Pr14 S8 3.476608 1_555
Pr14 S7 3.476608 1_555
Pr15 S8 2.885088 1_565
Pr15 S4 2.885096 1_555
Pr15 S3 2.905232 1_666
Pr15 S10 3.476602 1_566
Pr15 S5 3.476612 1_555
O0 Si7 1.651997 1_555
O0 Si2 1.651997 1_554
O1 Si5 1.651997 1_555
O1 Si6 1.651997 1_545
O2 Si4 1.651997 1_655
O2 Si3 1.651997 1_555
O3 Si0 1.651997 1_555
O3 Si1 1.651997 1_554
O4 Si1 1.657407 1_565
O4 Pr8 2.420514 1_555
O4 Pr0 2.520229 1_555
O4 Pr5 2.520229 1_555
O5 Si0 1.657407 1_555
O5 Pr9 2.420507 1_555
O5 Pr6 2.520229 1_555
O5 Pr3 2.520233 1_555
O6 Si7 1.657407 1_455
O6 Pr10 2.420514 1_555
O6 Pr3 2.520229 1_555
O6 Pr5 2.520229 1_555
O7 Si4 1.657407 1_555
O7 Pr11 2.420507 1_555
O7 Pr2 2.520229 1_556
O7 Pr4 2.520233 1_555
O8 Si3 1.657407 1_555
O8 Pr12 2.420514 1_555
O8 Pr7 2.520229 1_555
O8 Pr1 2.520229 1_555
O9 Si6 1.657407 1_555
O9 Pr13 2.420507 1_555
O9 Pr2 2.520229 1_555
O9 Pr7 2.520233 1_555
O10 Si5 1.657407 1_555
O10 Pr14 2.420514 1_555
O10 Pr4 2.520229 1_555
O10 Pr1 2.520229 1_556
O11 Si2 1.657407 1_555
O11 Pr15 2.420507 1_555
O11 Pr6 2.520229 1_555
O11 Pr0 2.520233 1_555
O12 Si5 1.642293 1_555
O12 Pr5 2.529996 1_545
O12 Pr10 2.541858 1_545
O12 Pr4 2.636556 1_555
O13 Si6 1.642299 1_555
O13 Pr6 2.529982 1_555
O13 Pr15 2.541860 1_555
O13 Pr7 2.636556 1_555
O14 Si3 1.642293 1_555
O14 Pr5 2.529996 1_655
O14 Pr8 2.541858 1_655
O14 Pr7 2.636556 1_555
O15 Si2 1.642291 1_555
O15 Pr4 2.529986 1_555
O15 Pr14 2.541868 1_555
O15 Pr6 2.636556 1_555
O16 Si7 1.642291 1_555
O16 Pr7 2.529999 1_555
O16 Pr13 2.541858 1_555
O16 Pr5 2.636556 1_655
O17 Si0 1.642291 1_555
O17 Pr7 2.529986 1_555
O17 Pr12 2.541868 1_555
O17 Pr6 2.636556 1_555
O18 Si1 1.642291 1_555
O18 Pr4 2.529999 1_555
O18 Pr11 2.541858 1_555
O18 Pr5 2.636556 1_545
O19 Si4 1.642299 1_555
O19 Pr6 2.529982 1_555
O19 Pr9 2.541860 1_555
O19 Pr4 2.636556 1_555
O20 Si1 1.642293 1_555
O20 Pr1 2.529996 1_556
O20 Pr12 2.541858 1_556
O20 Pr0 2.636556 1_545
O21 Si0 1.642299 1_555
O21 Pr2 2.529982 1_555
O21 Pr11 2.541860 1_554
O21 Pr3 2.636556 1_555
O22 Si7 1.642293 1_555
O22 Pr1 2.529996 1_555
O22 Pr14 2.541858 1_554
O22 Pr3 2.636556 1_655
O23 Si4 1.642291 1_555
O23 Pr0 2.529986 1_555
O23 Pr8 2.541868 1_555
O23 Pr2 2.636556 1_556
O24 Si3 1.642291 1_555
O24 Pr3 2.529999 1_655
O24 Pr9 2.541858 1_655
O24 Pr1 2.636556 1_555
O25 Si6 1.642291 1_555
O25 Pr3 2.529986 1_555
O25 Pr10 2.541868 1_555
O25 Pr2 2.636556 1_555
O26 Si5 1.642291 1_555
O26 Pr0 2.529999 1_545
O26 Pr15 2.541858 1_545
O26 Pr1 2.636556 1_556
O27 Si2 1.642299 1_555
O27 Pr2 2.529982 1_556
O27 Pr13 2.541860 1_556
O27 Pr0 2.636556 1_555
