# generated using pymatgen
data_Mg6CuSn
_symmetry_space_group_name_H-M   'P 1'
_cell_length_a   4.99509000
_cell_length_b   6.20653900
_cell_length_c   10.86843300
_cell_angle_alpha   90.00000000
_cell_angle_beta   90.00000000
_cell_angle_gamma   90.00000000
_symmetry_Int_Tables_number   1
_chemical_formula_structural   Mg6CuSn
_chemical_formula_sum   'Mg12 Cu2 Sn2'
_cell_volume   336.94556063
_cell_formula_units_Z   2
loop_
 _symmetry_equiv_pos_site_id
 _symmetry_equiv_pos_as_xyz
  1  'x, y, z'
loop_
 _atom_site_type_symbol
 _atom_site_label
 _atom_site_symmetry_multiplicity
 _atom_site_fract_x
 _atom_site_fract_y
 _atom_site_fract_z
 _atom_site_occupancy
  Mg  Mg0  1  0.00000000  0.24578200  0.08024400  1
  Mg  Mg1  1  0.00000000  0.75421800  0.08024400  1
  Mg  Mg2  1  0.00000000  0.00000000  0.33202600  1
  Mg  Mg3  1  0.50000000  0.74134800  0.41060300  1
  Mg  Mg4  1  0.50000000  0.25865200  0.41060300  1
  Mg  Mg5  1  0.50000000  0.00000000  0.16735100  1
  Mg  Mg6  1  0.00000000  0.74578200  0.58024400  1
  Mg  Mg7  1  0.00000000  0.25421800  0.58024400  1
  Mg  Mg8  1  0.00000000  0.50000000  0.83202600  1
  Mg  Mg9  1  0.50000000  0.24134800  0.91060300  1
  Mg  Mg10  1  0.50000000  0.75865200  0.91060300  1
  Mg  Mg11  1  0.50000000  0.50000000  0.66735100  1
  Cu  Cu0  1  0.00000000  0.50000000  0.35386400  1
  Cu  Cu1  1  0.00000000  0.00000000  0.85386400  1
  Sn  Sn0  1  0.50000000  0.50000000  0.16506400  1
  Sn  Sn1  1  0.50000000  0.00000000  0.66506400  1
loop_
_geom_bond_atom_site_label_1
_geom_bond_atom_site_label_2
_geom_bond_distance
_geom_bond_site_symmetry_2
Mg0 Mg1 3.050911 1_545
Mg0 Mg5 3.075877 1_455
Mg0 Mg5 3.075877 1_555
Mg0 Sn0 3.094682 1_555
Mg0 Sn0 3.094682 1_455
Mg0 Mg9 3.104486 1_554
Mg0 Mg9 3.104486 1_454
Mg0 Mg8 3.125268 1_554
Mg0 Mg2 3.132940 1_555
Mg0 Mg1 3.155628 1_555
Mg1 Mg5 3.075877 1_565
Mg1 Mg5 3.075877 1_465
Mg1 Sn0 3.094682 1_555
Mg1 Sn0 3.094682 1_455
Mg1 Mg10 3.104486 1_554
Mg1 Mg10 3.104486 1_454
Mg1 Mg8 3.125268 1_554
Mg1 Mg2 3.132940 1_565
Mg2 Mg5 3.072616 1_455
Mg2 Mg5 3.072616 1_555
Mg2 Mg3 3.089362 1_545
Mg2 Mg4 3.089362 1_455
Mg2 Mg3 3.089362 1_445
Mg2 Mg4 3.089362 1_555
Mg2 Mg7 3.125268 1_555
Mg2 Mg6 3.125268 1_545
Mg3 Mg4 2.995872 1_555
Mg3 Sn0 3.060289 1_555
Mg3 Mg5 3.092993 1_565
Mg3 Mg6 3.104486 1_555
Mg3 Mg6 3.104486 1_655
Mg3 Sn1 3.197749 1_565
Mg3 Mg4 3.210667 1_565
Mg4 Sn0 3.060289 1_555
Mg4 Mg5 3.092993 1_555
Mg4 Mg7 3.104486 1_655
Mg4 Mg7 3.104486 1_555
Mg4 Sn1 3.197749 1_555
Mg5 Sn0 3.103369 1_555
Mg5 Sn0 3.103369 1_545
Mg5 Mg9 3.167083 1_554
Mg6 Mg7 3.050911 1_555
Mg6 Sn1 3.094682 1_465
Mg6 Sn1 3.094682 1_565
Mg6 Mg8 3.132940 1_555
Mg6 Mg7 3.155628 1_565
Mg7 Sn1 3.094682 1_455
Mg7 Sn1 3.094682 1_555
Mg7 Mg8 3.132940 1_555
Mg8 Mg9 3.089362 1_455
Mg8 Mg9 3.089362 1_555
Mg9 Sn1 3.060289 1_555
Mg9 Sn0 3.197749 1_556
Mg10 Mg9 2.995872 1_565
Mg10 Sn1 3.060289 1_565
Mg10 Mg8 3.089362 1_555
Mg10 Mg8 3.089362 1_655
Mg10 Mg11 3.092993 1_555
Mg10 Mg5 3.167083 1_566
Mg10 Sn0 3.197749 1_556
Mg10 Mg9 3.210667 1_555
Mg11 Mg8 3.072616 1_555
Mg11 Mg8 3.072616 1_655
Mg11 Mg7 3.075877 1_655
Mg11 Mg6 3.075877 1_555
Mg11 Mg6 3.075877 1_655
Mg11 Mg7 3.075877 1_555
Mg11 Mg9 3.092993 1_555
Mg11 Sn1 3.103369 1_555
Mg11 Sn1 3.103369 1_565
Mg11 Mg4 3.167083 1_555
Mg11 Mg3 3.167083 1_555
Cu0 Mg7 2.894920 1_555
Cu0 Mg6 2.894920 1_555
Cu0 Mg4 2.976880 1_455
Cu0 Mg4 2.976880 1_555
Cu0 Mg3 2.976880 1_555
Cu0 Mg3 2.976880 1_455
Cu0 Mg2 3.112333 1_555
Cu0 Mg2 3.112333 1_565
Cu0 Sn0 3.232379 1_555
Cu0 Sn0 3.232379 1_455
Cu0 Mg0 3.366468 1_555
Cu0 Mg1 3.366468 1_555
Cu1 Mg1 2.894920 1_546
Cu1 Mg0 2.894920 1_556
Cu1 Mg9 2.976880 1_455
Cu1 Mg9 2.976880 1_555
Cu1 Mg10 2.976880 1_445
Cu1 Mg10 2.976880 1_545
Cu1 Mg8 3.112333 1_555
Cu1 Mg8 3.112333 1_545
Cu1 Sn1 3.232379 1_455
Cu1 Sn1 3.232379 1_555
Cu1 Mg7 3.366468 1_555
Cu1 Mg6 3.366468 1_545
