# generated using pymatgen
data_MgTi
_symmetry_space_group_name_H-M   'P 1'
_cell_length_a   6.13823077
_cell_length_b   6.13823077
_cell_length_c   4.83678100
_cell_angle_alpha   90.00000000
_cell_angle_beta   90.00000000
_cell_angle_gamma   120.00000827
_symmetry_Int_Tables_number   1
_chemical_formula_structural   MgTi
_chemical_formula_sum   'Mg4 Ti4'
_cell_volume   157.82414411
_cell_formula_units_Z   4
loop_
 _symmetry_equiv_pos_site_id
 _symmetry_equiv_pos_as_xyz
  1  'x, y, z'
loop_
 _atom_site_type_symbol
 _atom_site_label
 _atom_site_symmetry_multiplicity
 _atom_site_fract_x
 _atom_site_fract_y
 _atom_site_fract_z
 _atom_site_occupancy
  Mg  Mg0  1  0.01241600  0.50620800  0.00000000  1
  Mg  Mg1  1  0.49379200  0.50620800  0.00000000  1
  Mg  Mg2  1  0.49379200  0.98758400  0.00000000  1
  Mg  Mg3  1  0.66666700  0.33333300  0.50000000  1
  Ti  Ti0  1  0.00000000  0.00000000  0.00000000  1
  Ti  Ti1  1  0.70261600  0.85130800  0.50000000  1
  Ti  Ti2  1  0.14869200  0.29738400  0.50000000  1
  Ti  Ti3  1  0.14869200  0.85130800  0.50000000  1
loop_
_geom_bond_atom_site_label_1
_geom_bond_atom_site_label_2
_geom_bond_distance
_geom_bond_site_symmetry_2
Mg0 Mg2 2.954797 1_555
Mg0 Mg1 2.954797 1_555
Mg0 Mg3 3.037547 1_455
Mg0 Mg3 3.037547 1_454
Mg0 Ti3 3.043616 1_554
Mg0 Ti3 3.043616 1_555
Mg0 Ti2 3.043616 1_555
Mg0 Ti2 3.043616 1_554
Mg0 Ti0 3.069825 1_555
Mg0 Ti0 3.069825 1_565
Mg0 Mg2 3.183433 1_445
Mg0 Mg1 3.183434 1_455
Mg1 Mg2 2.954797 1_555
Mg1 Mg3 3.037550 1_555
Mg1 Mg3 3.037550 1_554
Mg1 Ti2 3.043616 1_555
Mg1 Ti2 3.043616 1_554
Mg1 Ti1 3.043616 1_554
Mg1 Ti1 3.043616 1_555
Mg1 Ti0 3.069825 1_555
Mg1 Ti0 3.069825 1_665
Mg1 Mg2 3.183434 1_545
Mg2 Mg3 3.037547 1_564
Mg2 Mg3 3.037547 1_565
Mg2 Ti3 3.043616 1_555
Mg2 Ti3 3.043616 1_554
Mg2 Ti1 3.043616 1_554
Mg2 Ti1 3.043616 1_555
Mg2 Ti0 3.069825 1_665
Mg2 Ti0 3.069825 1_565
Mg3 Ti1 3.075056 1_545
Mg3 Ti2 3.075056 1_655
Mg3 Ti3 3.075059 1_655
Mg3 Ti3 3.075059 1_545
Mg3 Ti1 3.075062 1_555
Mg3 Ti2 3.075062 1_555
Ti0 Ti1 2.889240 1_444
Ti0 Ti2 2.889240 1_554
Ti0 Ti1 2.889240 1_445
Ti0 Ti2 2.889240 1_555
Ti0 Ti3 2.889240 1_544
Ti0 Ti3 2.889240 1_545
Ti1 Ti2 2.738117 1_665
Ti1 Ti3 2.738117 1_655
Ti1 Ti2 3.400113 1_555
Ti1 Ti3 3.400113 1_555
Ti2 Ti3 2.738117 1_545
Ti2 Ti3 3.400113 1_555
