# generated using pymatgen
data_Cs3VS4
_symmetry_space_group_name_H-M   'P 1'
_cell_length_a   9.81626332
_cell_length_b   9.81314985
_cell_length_c   11.59973533
_cell_angle_alpha   90.00000000
_cell_angle_beta   90.00000000
_cell_angle_gamma   90.00000000
_symmetry_Int_Tables_number   1
_chemical_formula_structural   Cs3VS4
_chemical_formula_sum   'Cs12 V4 S16'
_cell_volume   1117.38467469
_cell_formula_units_Z   4
loop_
 _symmetry_equiv_pos_site_id
 _symmetry_equiv_pos_as_xyz
  1  'x, y, z'
loop_
 _atom_site_type_symbol
 _atom_site_label
 _atom_site_symmetry_multiplicity
 _atom_site_fract_x
 _atom_site_fract_y
 _atom_site_fract_z
 _atom_site_occupancy
  Cs  Cs0  1  0.54427168  0.20816030  0.04017163  1
  Cs  Cs1  1  0.04427168  0.29183970  0.45982837  1
  Cs  Cs2  1  0.45572832  0.79183970  0.54017163  1
  Cs  Cs3  1  0.95572832  0.70816030  0.95982837  1
  Cs  Cs4  1  0.45572832  0.79183970  0.95982837  1
  Cs  Cs5  1  0.95572832  0.70816030  0.54017163  1
  Cs  Cs6  1  0.54427168  0.20816030  0.45982837  1
  Cs  Cs7  1  0.04427168  0.29183970  0.04017163  1
  Cs  Cs8  1  0.65080366  0.41153371  0.75000000  1
  Cs  Cs9  1  0.15080366  0.08846629  0.75000000  1
  Cs  Cs10  1  0.34919634  0.58846629  0.25000000  1
  Cs  Cs11  1  0.84919634  0.91153371  0.25000000  1
  V  V0  1  0.72263193  0.98214982  0.75000000  1
  V  V1  1  0.22263193  0.51785018  0.75000000  1
  V  V2  1  0.27736807  0.01785018  0.25000000  1
  V  V3  1  0.77736807  0.48214982  0.25000000  1
  S  S0  1  0.82782290  0.04671855  0.59669147  1
  S  S1  1  0.32782290  0.45328145  0.90330853  1
  S  S2  1  0.17217710  0.95328145  0.09669147  1
  S  S3  1  0.67217710  0.54671855  0.40330853  1
  S  S4  1  0.17217710  0.95328145  0.40330853  1
  S  S5  1  0.67217710  0.54671855  0.09669147  1
  S  S6  1  0.82782290  0.04671855  0.90330853  1
  S  S7  1  0.32782290  0.45328145  0.59669147  1
  S  S8  1  0.51868619  0.06526195  0.75000000  1
  S  S9  1  0.01868619  0.43473805  0.75000000  1
  S  S10  1  0.48131381  0.93473805  0.25000000  1
  S  S11  1  0.98131381  0.56526195  0.25000000  1
  S  S12  1  0.71066006  0.76313866  0.75000000  1
  S  S13  1  0.21066006  0.73686134  0.75000000  1
  S  S14  1  0.28933994  0.23686134  0.25000000  1
  S  S15  1  0.78933994  0.26313866  0.25000000  1
loop_
_geom_bond_atom_site_label_1
_geom_bond_atom_site_label_2
_geom_bond_distance
_geom_bond_site_symmetry_2
Cs0 S15 3.464445 1_555
Cs0 S14 3.502263 1_555
Cs0 S6 3.574583 1_554
Cs0 S1 3.580618 1_554
Cs0 S5 3.611658 1_555
Cs0 S8 3.654977 1_554
Cs0 S10 3.674952 1_545
Cs1 S14 3.464445 1_555
Cs1 S15 3.502263 1_455
Cs1 S7 3.574583 1_555
Cs1 S0 3.580618 1_455
Cs1 S4 3.611658 1_545
Cs1 S9 3.654977 1_555
Cs1 S11 3.674952 1_455
Cs2 S13 3.464445 1_555
Cs2 S12 3.502263 1_555
Cs2 S4 3.574583 1_555
Cs2 S3 3.580618 1_555
Cs2 S7 3.611658 1_555
Cs2 S10 3.654977 1_555
Cs2 S8 3.674952 1_565
Cs3 S12 3.464445 1_555
Cs3 S13 3.502263 1_655
Cs3 S5 3.574583 1_556
Cs3 S2 3.580618 1_656
Cs3 S6 3.611658 1_565
Cs3 S11 3.654977 1_556
Cs3 S9 3.674952 1_655
Cs4 S13 3.464445 1_555
Cs4 S12 3.502263 1_555
Cs4 S2 3.574583 1_556
Cs4 S5 3.580618 1_556
Cs4 S1 3.611658 1_555
Cs4 S10 3.654977 1_556
Cs4 S8 3.674952 1_565
Cs5 S12 3.464445 1_555
Cs5 S13 3.502263 1_655
Cs5 S3 3.574583 1_555
Cs5 S4 3.580618 1_655
Cs5 S0 3.611658 1_565
Cs5 S11 3.654977 1_555
Cs5 S9 3.674952 1_655
Cs6 S15 3.464445 1_555
Cs6 S14 3.502263 1_555
Cs6 S0 3.574583 1_555
Cs6 S7 3.580618 1_555
Cs6 S3 3.611658 1_555
Cs6 S8 3.654977 1_555
Cs6 S10 3.674952 1_545
Cs7 S14 3.464445 1_555
Cs7 S15 3.502263 1_455
Cs7 S1 3.574583 1_554
Cs7 S6 3.580618 1_454
Cs7 S2 3.611658 1_545
Cs7 S9 3.654977 1_554
Cs7 S11 3.674952 1_455
Cs8 S12 3.500023 1_555
Cs8 S9 3.618404 1_655
Cs8 S8 3.637096 1_555
Cs8 S7 3.658164 1_555
Cs8 S1 3.658164 1_555
Cs9 S13 3.500023 1_545
Cs9 S8 3.618404 1_555
Cs9 S9 3.637096 1_555
Cs9 S6 3.658164 1_455
Cs9 S0 3.658164 1_455
Cs10 S14 3.500023 1_555
Cs10 S11 3.618404 1_455
Cs10 S10 3.637096 1_555
Cs10 S5 3.658164 1_555
Cs10 S3 3.658164 1_555
Cs11 S15 3.500023 1_565
Cs11 S10 3.618404 1_555
Cs11 S11 3.637096 1_555
Cs11 S4 3.658164 1_655
Cs11 S2 3.658164 1_655
S0 V0 2.151788 1_545
S1 V1 2.151788 1_555
S2 V2 2.151788 1_565
S3 V3 2.151788 1_555
S4 V2 2.151788 1_565
S5 V3 2.151788 1_555
S6 V0 2.151788 1_545
S7 V1 2.151788 1_555
S8 V0 2.161743 1_545
S9 V1 2.161743 1_555
S10 V2 2.161743 1_565
S11 V3 2.161743 1_555
S12 V0 2.152400 1_555
S13 V1 2.152400 1_555
S14 V2 2.152400 1_555
S15 V3 2.152400 1_555
