# generated using pymatgen
data_Cs3Gd(PO4)2
_symmetry_space_group_name_H-M   'P 1'
_cell_length_a   10.43486132
_cell_length_b   10.57649606
_cell_length_c   10.72199827
_cell_angle_alpha   90.00000000
_cell_angle_beta   107.69579226
_cell_angle_gamma   90.00000000
_symmetry_Int_Tables_number   1
_chemical_formula_structural   Cs3Gd(PO4)2
_chemical_formula_sum   'Cs12 Gd4 P8 O32'
_cell_volume   1127.33504941
_cell_formula_units_Z   4
loop_
 _symmetry_equiv_pos_site_id
 _symmetry_equiv_pos_as_xyz
  1  'x, y, z'
loop_
 _atom_site_type_symbol
 _atom_site_label
 _atom_site_symmetry_multiplicity
 _atom_site_fract_x
 _atom_site_fract_y
 _atom_site_fract_z
 _atom_site_occupancy
  Cs  Cs0  1  0.72172045  0.89713676  0.98121516  1
  Cs  Cs1  1  0.27827955  0.39713676  0.01878484  1
  Cs  Cs2  1  0.52023668  0.32006164  0.77777010  1
  Cs  Cs3  1  0.47976332  0.82006164  0.22222990  1
  Cs  Cs4  1  0.03452859  0.26626073  0.66534118  1
  Cs  Cs5  1  0.96547141  0.76626073  0.33465882  1
  Cs  Cs6  1  0.33241136  0.51823910  0.45417263  1
  Cs  Cs7  1  0.66758864  0.01823910  0.54582737  1
  Cs  Cs8  1  0.00972828  0.91621072  0.78940691  1
  Cs  Cs9  1  0.99027172  0.41621072  0.21059309  1
  Cs  Cs10  1  0.27450269  0.97714204  0.56397540  1
  Cs  Cs11  1  0.72549731  0.47714204  0.43602460  1
  Gd  Gd0  1  0.84142514  0.56468648  0.83719459  1
  Gd  Gd1  1  0.15857486  0.06468648  0.16280541  1
  Gd  Gd2  1  0.34332541  0.70797115  0.83625354  1
  Gd  Gd3  1  0.65667459  0.20797115  0.16374646  1
  P  P0  1  0.09755736  0.58563909  0.64609581  1
  P  P1  1  0.90244264  0.08563909  0.35390419  1
  P  P2  1  0.36136088  0.05437004  0.92284898  1
  P  P3  1  0.63863912  0.55437004  0.07715102  1
  P  P4  1  0.60005228  0.69574155  0.65119017  1
  P  P5  1  0.39994772  0.19574155  0.34880983  1
  P  P6  1  0.13407850  0.71724815  0.07778073  1
  P  P7  1  0.86592150  0.21724815  0.92221927  1
  O  O0  1  0.97755102  0.56693076  0.70334640  1
  O  O1  1  0.02244898  0.06693076  0.29665360  1
  O  O2  1  0.22737103  0.51942070  0.73909762  1
  O  O3  1  0.77262897  0.01942070  0.26090238  1
  O  O4  1  0.05721624  0.53095569  0.50666301  1
  O  O5  1  0.94278376  0.03095569  0.49333699  1
  O  O6  1  0.63354575  0.54956255  0.66713396  1
  O  O7  1  0.36645425  0.04956255  0.33286604  1
  O  O8  1  0.56549724  0.73587783  0.50759454  1
  O  O9  1  0.43450276  0.23587783  0.49240546  1
  O  O10  1  0.73171905  0.76019104  0.74099927  1
  O  O11  1  0.26828095  0.26019104  0.25900073  1
  O  O12  1  0.47952322  0.72408483  0.70525716  1
  O  O13  1  0.52047678  0.22408483  0.29474284  1
  O  O14  1  0.29228999  0.13935092  0.80553450  1
  O  O15  1  0.70771001  0.63935092  0.19446550  1
  O  O16  1  0.38207763  0.91780133  0.87445389  1
  O  O17  1  0.61792237  0.41780133  0.12554611  1
  O  O18  1  0.50373566  0.10811564  0.99873519  1
  O  O19  1  0.49626434  0.60811564  0.00126481  1
  O  O20  1  0.27734980  0.04395083  0.01923152  1
  O  O21  1  0.72265020  0.54395083  0.98076848  1
  O  O22  1  0.11876938  0.85450388  0.12747787  1
  O  O23  1  0.88123062  0.35450388  0.87252213  1
  O  O24  1  0.22079705  0.71977955  0.98214632  1
  O  O25  1  0.77920295  0.21977955  0.01785368  1
  O  O26  1  0.98904029  0.67273595  0.99873079  1
  O  O27  1  0.01095971  0.17273595  0.00126921  1
  O  O28  1  0.19601154  0.62976607  0.19456350  1
  O  O29  1  0.80398846  0.12976607  0.80543650  1
  O  O30  1  0.14037350  0.72875499  0.65066922  1
  O  O31  1  0.85962650  0.22875499  0.34933078  1
loop_
_geom_bond_atom_site_label_1
_geom_bond_atom_site_label_2
_geom_bond_distance
_geom_bond_site_symmetry_2
Cs0 O10 2.984261 1_555
Cs0 O3 3.159004 1_566
Cs0 O18 3.232377 1_565
Cs0 O29 3.365442 1_565
Cs0 O16 3.384169 1_555
Cs0 O25 3.466344 1_566
Cs0 O15 3.589732 1_556
Cs0 O26 3.623632 1_555
Cs1 O11 2.984261 1_555
Cs1 O2 3.159004 1_554
Cs1 O19 3.232377 1_555
Cs1 O28 3.365442 1_555
Cs1 O17 3.384169 1_555
Cs1 O24 3.466344 1_554
Cs1 O14 3.589732 1_554
Cs1 O27 3.623632 1_555
Cs2 O9 3.048064 1_555
Cs2 O6 3.090254 1_555
Cs2 O14 3.135251 1_555
Cs2 O25 3.290108 1_556
Cs2 O18 3.303887 1_555
Cs2 O21 3.465697 1_555
Cs2 O29 3.517362 1_555
Cs2 O23 3.609435 1_555
Cs2 O2 3.631344 1_555
Cs2 O17 3.701530 1_556
Cs3 O8 3.048064 1_555
Cs3 O7 3.090254 1_565
Cs3 O15 3.135251 1_555
Cs3 O24 3.290108 1_554
Cs3 O19 3.303887 1_555
Cs3 O20 3.465697 1_565
Cs3 O28 3.517362 1_555
Cs3 O22 3.609435 1_555
Cs3 O3 3.631344 1_565
Cs3 O16 3.701530 1_554
Cs4 O14 2.972840 1_555
Cs4 O5 3.072132 1_455
Cs4 O23 3.244184 1_455
Cs4 O0 3.283208 1_455
Cs4 O2 3.297955 1_555
Cs4 O4 3.321587 1_555
Cs4 O31 3.348025 1_455
Cs4 O29 3.510602 1_455
Cs5 O15 2.972840 1_555
Cs5 O4 3.072132 1_655
Cs5 O22 3.244184 1_655
Cs5 O1 3.283208 1_665
Cs5 O3 3.297955 1_565
Cs5 O5 3.321587 1_565
Cs5 O30 3.348025 1_655
Cs5 O28 3.510602 1_655
Cs6 O28 2.959176 1_555
Cs6 O4 3.092500 1_555
Cs6 O9 3.155311 1_555
Cs6 O8 3.270379 1_555
Cs6 O6 3.291758 1_555
Cs6 O11 3.379997 1_555
Cs6 O12 3.439707 1_555
Cs6 O2 3.545419 1_555
Cs7 O29 2.959176 1_555
Cs7 O5 3.092500 1_555
Cs7 O8 3.155311 1_545
Cs7 O9 3.270379 1_555
Cs7 O7 3.291758 1_555
Cs7 O10 3.379997 1_545
Cs7 O13 3.439707 1_555
Cs7 O3 3.545419 1_555
Cs8 O30 3.038899 1_555
Cs8 O29 3.156654 1_465
Cs8 O10 3.239250 1_455
Cs8 O5 3.269542 1_465
Cs9 O31 3.038899 1_555
Cs9 O28 3.156654 1_655
Cs9 O11 3.239250 1_655
Cs9 O4 3.269542 1_655
Cs10 O7 3.015459 1_565
Cs10 O14 3.064894 1_565
Cs10 O16 3.234835 1_555
Cs10 O30 3.242736 1_555
Cs10 O5 3.359372 1_465
Cs10 O1 3.384056 1_565
Cs10 O9 3.412294 1_565
Cs10 O12 3.473449 1_555
Cs11 O6 3.015459 1_555
Cs11 O15 3.064894 1_555
Cs11 O17 3.234835 1_555
Cs11 O31 3.242736 1_555
Cs11 O4 3.359372 1_655
Cs11 O0 3.384056 1_555
Cs11 O8 3.412294 1_555
Cs11 O13 3.473449 1_555
Gd0 O26 2.248676 1_555
Gd0 O21 2.261380 1_555
Gd0 O23 2.272018 1_555
Gd0 O0 2.305883 1_555
Gd0 O6 2.377228 1_555
Gd0 O10 2.435591 1_555
Gd1 O27 2.248676 1_555
Gd1 O20 2.261380 1_555
Gd1 O22 2.272018 1_545
Gd1 O1 2.305883 1_555
Gd1 O7 2.377228 1_555
Gd1 O11 2.435591 1_555
Gd2 O19 2.253003 1_556
Gd2 O16 2.270626 1_555
Gd2 O12 2.288038 1_555
Gd2 O24 2.305018 1_555
Gd2 O2 2.399952 1_555
Gd2 O30 2.435348 1_555
Gd3 O18 2.253003 1_554
Gd3 O17 2.270626 1_555
Gd3 O13 2.288038 1_555
Gd3 O25 2.305018 1_555
Gd3 O3 2.399952 1_555
Gd3 O31 2.435348 1_555
O0 P0 1.565689 1_655
O1 P1 1.565689 1_455
O2 P0 1.580694 1_555
O3 P1 1.580694 1_555
O4 P0 1.537575 1_555
O5 P1 1.537575 1_555
O6 P4 1.582832 1_555
O7 P5 1.582832 1_555
O8 P4 1.530748 1_555
O9 P5 1.530748 1_555
O10 P4 1.573299 1_555
O11 P5 1.573299 1_555
O12 P4 1.565561 1_555
O13 P5 1.565561 1_555
O14 P2 1.535693 1_555
O15 P3 1.535693 1_555
O16 P2 1.571788 1_565
O17 P3 1.571788 1_555
O18 P2 1.567633 1_555
O19 P3 1.567633 1_555
O20 P2 1.548978 1_554
O21 P3 1.548978 1_556
O22 P6 1.571174 1_555
O23 P7 1.571174 1_555
O24 P6 1.560468 1_556
O25 P7 1.560468 1_554
O26 P6 1.565482 1_656
O27 P7 1.565482 1_454
O28 P6 1.532865 1_555
O29 P7 1.532865 1_555
O30 P0 1.574763 1_555
O31 P1 1.574763 1_555
