# generated using pymatgen
data_Na(FeSb3)4
_symmetry_space_group_name_H-M   'P 1'
_cell_length_a   7.95208261
_cell_length_b   7.95197709
_cell_length_c   7.95196636
_cell_angle_alpha   109.47033576
_cell_angle_beta   109.47095043
_cell_angle_gamma   109.47199467
_symmetry_Int_Tables_number   1
_chemical_formula_structural   Na(FeSb3)4
_chemical_formula_sum   'Na1 Fe4 Sb12'
_cell_volume   387.08887415
_cell_formula_units_Z   1
loop_
 _symmetry_equiv_pos_site_id
 _symmetry_equiv_pos_as_xyz
  1  'x, y, z'
loop_
 _atom_site_type_symbol
 _atom_site_label
 _atom_site_symmetry_multiplicity
 _atom_site_fract_x
 _atom_site_fract_y
 _atom_site_fract_z
 _atom_site_occupancy
  Na  Na0  1  0.00000000  0.00000000  0.00000000  1
  Fe  Fe0  1  0.50000000  0.50000000  0.50000000  1
  Fe  Fe1  1  0.00000000  0.50000000  0.00000000  1
  Fe  Fe2  1  0.00000000  0.00000000  0.50000000  1
  Fe  Fe3  1  0.50000000  0.00000000  0.00000000  1
  Sb  Sb0  1  0.49504374  0.33580760  0.15921042  1
  Sb  Sb1  1  0.33577540  0.84076169  0.17655153  1
  Sb  Sb2  1  0.15922899  0.82340922  0.66418916  1
  Sb  Sb3  1  0.66417901  0.84078642  0.50495555  1
  Sb  Sb4  1  0.84077101  0.17659078  0.33581084  1
  Sb  Sb5  1  0.66422460  0.15923831  0.82344847  1
  Sb  Sb6  1  0.84076571  0.50497102  0.66419611  1
  Sb  Sb7  1  0.15923429  0.49502898  0.33580389  1
  Sb  Sb8  1  0.33582099  0.15921358  0.49504445  1
  Sb  Sb9  1  0.17656755  0.33578715  0.84076833  1
  Sb  Sb10  1  0.82343245  0.66421285  0.15923167  1
  Sb  Sb11  1  0.50495626  0.66419240  0.84078958  1
loop_
_geom_bond_atom_site_label_1
_geom_bond_atom_site_label_2
_geom_bond_distance
_geom_bond_site_symmetry_2
Na0 Sb1 3.412346 1_545
Na0 Sb5 3.412346 1_454
Na0 Sb9 3.412349 1_554
Na0 Sb10 3.412349 1_445
Na0 Sb7 3.412467 1_555
Na0 Sb6 3.412467 1_444
Na0 Sb4 3.412583 1_455
Na0 Sb2 3.412583 1_544
Na0 Sb11 3.412615 1_444
Na0 Sb0 3.412615 1_555
Na0 Sb3 3.412647 1_444
Na0 Sb8 3.412647 1_555
Fe0 Sb6 2.566091 1_555
Fe0 Sb7 2.566091 1_555
Fe0 Sb3 2.566226 1_555
Fe0 Sb8 2.566226 1_555
Fe0 Sb11 2.566292 1_555
Fe0 Sb0 2.566292 1_555
Fe1 Sb1 2.565991 1_555
Fe1 Sb5 2.565991 1_454
Fe1 Sb6 2.566134 1_454
Fe1 Sb7 2.566134 1_555
Fe1 Sb10 2.566167 1_455
Fe1 Sb9 2.566167 1_554
Fe2 Sb9 2.566061 1_555
Fe2 Sb10 2.566061 1_445
Fe2 Sb8 2.566173 1_555
Fe2 Sb3 2.566173 1_445
Fe2 Sb2 2.566198 1_545
Fe2 Sb4 2.566198 1_455
Fe3 Sb11 2.566084 1_544
Fe3 Sb0 2.566084 1_555
Fe3 Sb1 2.566086 1_545
Fe3 Sb5 2.566086 1_554
Fe3 Sb4 2.566147 1_555
Fe3 Sb2 2.566147 1_544
Sb0 Sb9 2.924074 1_554
Sb0 Sb10 3.015285 1_555
Sb1 Sb8 2.924083 1_565
Sb1 Sb3 3.015368 1_555
Sb2 Sb6 2.924087 1_455
Sb2 Sb7 3.015316 1_555
Sb3 Sb5 2.924083 1_565
Sb4 Sb7 2.924087 1_655
Sb4 Sb6 3.015316 1_555
Sb5 Sb8 3.015368 1_555
Sb10 Sb11 2.924074 1_554
Sb11 Sb9 3.015285 1_555
