# generated using pymatgen
data_TiFeH2
_symmetry_space_group_name_H-M   'P 1'
_cell_length_a   2.82052000
_cell_length_b   4.57464000
_cell_length_c   4.75886600
_cell_angle_alpha   90.00000000
_cell_angle_beta   90.00000000
_cell_angle_gamma   90.00000000
_symmetry_Int_Tables_number   1
_chemical_formula_structural   TiFeH2
_chemical_formula_sum   'Ti2 Fe2 H4'
_cell_volume   61.40299895
_cell_formula_units_Z   2
loop_
 _symmetry_equiv_pos_site_id
 _symmetry_equiv_pos_as_xyz
  1  'x, y, z'
loop_
 _atom_site_type_symbol
 _atom_site_label
 _atom_site_symmetry_multiplicity
 _atom_site_fract_x
 _atom_site_fract_y
 _atom_site_fract_z
 _atom_site_occupancy
  Ti  Ti0  1  0.50000000  0.28994400  0.70017700  1
  Ti  Ti1  1  0.50000000  0.78994400  0.29982300  1
  Fe  Fe0  1  0.00000000  0.78968300  0.81297200  1
  Fe  Fe1  1  0.00000000  0.28968300  0.18702800  1
  H  H0  1  0.50000000  0.44952100  0.06753600  1
  H  H1  1  0.50000000  0.94952100  0.93246400  1
  H  H2  1  0.00000000  0.55285200  0.52143700  1
  H  H3  1  0.00000000  0.05285200  0.47856300  1
loop_
_geom_bond_atom_site_label_1
_geom_bond_atom_site_label_2
_geom_bond_distance
_geom_bond_site_symmetry_2
Fe0 H1 1.687260 1_555
Fe0 H1 1.687260 1_455
Fe0 H2 1.760285 1_555
Fe0 H3 1.995485 1_565
Fe1 H0 1.687260 1_455
Fe1 H0 1.687260 1_555
Fe1 H3 1.760285 1_555
Fe1 H2 1.995485 1_555
H0 Ti0 1.894507 1_554
H0 Ti1 1.909760 1_555
H1 Ti1 1.894507 1_556
H1 Ti0 1.909760 1_565
H2 Ti0 2.039329 1_555
H2 Ti0 2.039329 1_455
H2 Ti1 2.068202 1_455
H2 Ti1 2.068202 1_555
H3 Ti1 2.039329 1_545
H3 Ti1 2.039329 1_445
H3 Ti0 2.068202 1_455
H3 Ti0 2.068202 1_555
