# generated using pymatgen
data_Er3(Al2Fe)2
_symmetry_space_group_name_H-M   'P 1'
_cell_length_a   5.34188656
_cell_length_b   5.36022295
_cell_length_c   13.26505082
_cell_angle_alpha   90.58273580
_cell_angle_beta   88.99691547
_cell_angle_gamma   119.13476790
_symmetry_Int_Tables_number   1
_chemical_formula_structural   Er3(Al2Fe)2
_chemical_formula_sum   'Er6 Al8 Fe4'
_cell_volume   331.71915394
_cell_formula_units_Z   2
loop_
 _symmetry_equiv_pos_site_id
 _symmetry_equiv_pos_as_xyz
  1  'x, y, z'
loop_
 _atom_site_type_symbol
 _atom_site_label
 _atom_site_symmetry_multiplicity
 _atom_site_fract_x
 _atom_site_fract_y
 _atom_site_fract_z
 _atom_site_occupancy
  Er  Er0  1  0.33930600  0.67014400  0.91860000  1
  Er  Er1  1  0.00708400  0.99889300  0.24599800  1
  Er  Er2  1  0.66937100  0.33200500  0.58262200  1
  Er  Er3  1  0.33062900  0.66799500  0.66737800  1
  Er  Er4  1  0.99291600  0.00110700  0.00400200  1
  Er  Er5  1  0.66069400  0.32985600  0.33140000  1
  Al  Al0  1  0.16763000  0.33459300  0.45751000  1
  Al  Al1  1  0.83237000  0.66540700  0.79249000  1
  Al  Al2  1  0.34012600  0.67816200  0.28714400  1
  Al  Al3  1  0.00000000  0.00000000  0.62500000  1
  Al  Al4  1  0.65987400  0.32183800  0.96285600  1
  Al  Al5  1  0.00000000  0.50000000  0.12500000  1
  Al  Al6  1  0.66573600  0.83210100  0.45806500  1
  Al  Al7  1  0.33426400  0.16789900  0.79193500  1
  Fe  Fe0  1  0.50000000  0.50000000  0.12500000  1
  Fe  Fe1  1  0.16519200  0.83268500  0.45859100  1
  Fe  Fe2  1  0.83480800  0.16731500  0.79140900  1
  Fe  Fe3  1  0.50000000  0.00000000  0.12500000  1
loop_
_geom_bond_atom_site_label_1
_geom_bond_atom_site_label_2
_geom_bond_distance
_geom_bond_site_symmetry_2
Er0 Fe3 3.140878 1_566
Er0 Fe0 3.155971 1_556
Er0 Fe2 3.165634 1_565
Er0 Fe2 3.219911 1_455
Er0 Er4 3.269171 1_566
Er0 Er4 3.307053 1_466
Er0 Er3 3.333431 1_555
Er0 Er4 3.334033 1_456
Er1 Fe3 3.057194 1_565
Er1 Fe0 3.126838 1_565
Er1 Fe0 3.174326 1_455
Er1 Fe3 3.175183 1_465
Er1 Er4 3.212584 1_465
Er1 Fe1 3.213561 1_555
Er1 Er5 3.269171 1_565
Er1 Er5 3.307053 1_465
Er1 Er5 3.334033 1_455
Er2 Fe1 3.152839 1_655
Er2 Fe2 3.182122 1_555
Er2 Fe1 3.189137 1_545
Er2 Er3 3.292844 1_555
Er2 Er3 3.299761 1_655
Er2 Er3 3.308388 1_545
Er2 Er5 3.333431 1_555
Er3 Fe2 3.152839 1_455
Er3 Fe1 3.182122 1_555
Er3 Fe2 3.189137 1_565
Er4 Fe3 3.057194 1_555
Er4 Fe0 3.126838 1_545
Er4 Fe0 3.174326 1_655
Er4 Fe3 3.175183 1_655
Er4 Fe2 3.213561 1_554
Er5 Fe3 3.140878 1_555
Er5 Fe0 3.155971 1_555
Er5 Fe1 3.165634 1_545
Er5 Fe1 3.219911 1_655
Al0 Fe1 2.676141 1_555
Al0 Fe1 2.684205 1_545
Al0 Al6 2.698618 1_555
Al0 Al3 2.720713 1_555
Al0 Al6 2.722310 1_445
Al0 Al2 2.776179 1_555
Al0 Er5 3.105876 1_555
Al0 Er2 3.106239 1_455
Al0 Er2 3.182867 1_555
Al0 Er3 3.189129 1_555
Al0 Er5 3.197361 1_455
Al0 Er1 3.213155 1_545
Al1 Fe2 2.676141 1_555
Al1 Fe2 2.684205 1_565
Al1 Al7 2.698618 1_555
Al1 Al3 2.720713 1_665
Al1 Al7 2.722310 1_665
Al1 Al4 2.776179 1_555
Al1 Er0 3.105876 1_555
Al1 Er3 3.106239 1_655
Al1 Er3 3.182867 1_555
Al1 Er2 3.189129 1_555
Al1 Er0 3.197361 1_655
Al1 Er4 3.213155 1_566
Al2 Fe3 2.628331 1_565
Al2 Fe0 2.637344 1_555
Al2 Al5 2.691621 1_555
Al2 Fe1 2.715229 1_555
Al2 Al6 2.747600 1_555
Al2 Er1 3.074072 1_555
Al2 Er5 3.106187 1_565
Al2 Er5 3.151728 1_555
Al2 Er1 3.151810 1_655
Al2 Er5 3.217567 1_455
Al2 Er1 3.225864 1_545
Al3 Fe1 2.667939 1_545
Al3 Fe2 2.667939 1_455
Al3 Al7 2.726723 1_555
Al3 Al6 2.726723 1_445
Al3 Er3 3.117393 1_545
Al3 Er2 3.117393 1_455
Al3 Er3 3.165826 1_445
Al3 Er2 3.165826 1_555
Al3 Er2 3.176802 1_445
Al3 Er3 3.176802 1_555
Al4 Fe3 2.628331 1_556
Al4 Fe0 2.637344 1_556
Al4 Al5 2.691621 1_656
Al4 Fe2 2.715229 1_555
Al4 Al7 2.747600 1_555
Al4 Er4 3.074072 1_556
Al4 Er0 3.106187 1_545
Al4 Er0 3.151728 1_555
Al4 Er4 3.151810 1_456
Al4 Er0 3.217567 1_655
Al4 Er4 3.225864 1_566
Al5 Fe0 2.670943 1_555
Al5 Fe0 2.670943 1_455
Al5 Fe3 2.710453 1_565
Al5 Fe3 2.710453 1_455
Al5 Er4 3.089516 1_455
Al5 Er1 3.089516 1_555
Al5 Er5 3.143340 1_455
Al5 Er0 3.143340 1_554
Al5 Er4 3.159309 1_465
Al5 Er1 3.159309 1_545
Al6 Fe1 2.666646 1_655
Al6 Fe1 2.675262 1_555
Al6 Er2 3.125854 1_565
Al6 Er5 3.148090 1_555
Al6 Er3 3.166991 1_555
Al6 Er2 3.171432 1_555
Al6 Er5 3.178874 1_565
Al6 Er1 3.212759 1_655
Al7 Fe2 2.666646 1_455
Al7 Fe2 2.675262 1_555
Al7 Er3 3.125854 1_545
Al7 Er0 3.148090 1_555
Al7 Er2 3.166991 1_555
Al7 Er3 3.171432 1_555
Al7 Er0 3.178874 1_545
Al7 Er4 3.212759 1_456
Fe0 Fe3 2.680111 1_555
Fe0 Fe3 2.680111 1_565
