# generated using pymatgen
data_La7BP2O17
_symmetry_space_group_name_H-M   'P 1'
_cell_length_a   7.03291391
_cell_length_b   12.68908491
_cell_length_c   18.08136929
_cell_angle_alpha   90.00000000
_cell_angle_beta   90.00000000
_cell_angle_gamma   97.52385403
_symmetry_Int_Tables_number   1
_chemical_formula_structural   La7BP2O17
_chemical_formula_sum   'La28 B4 P8 O68'
_cell_volume   1599.71141810
_cell_formula_units_Z   4
loop_
 _symmetry_equiv_pos_site_id
 _symmetry_equiv_pos_as_xyz
  1  'x, y, z'
loop_
 _atom_site_type_symbol
 _atom_site_label
 _atom_site_symmetry_multiplicity
 _atom_site_fract_x
 _atom_site_fract_y
 _atom_site_fract_z
 _atom_site_occupancy
  La  La0  1  0.02075477  0.82085266  0.27398325  1
  La  La1  1  0.97924523  0.17914734  0.72601675  1
  La  La2  1  0.47924523  0.67914734  0.77398325  1
  La  La3  1  0.52075477  0.32085266  0.22601675  1
  La  La4  1  0.78506822  0.56869156  0.13050208  1
  La  La5  1  0.21493178  0.43130844  0.86949792  1
  La  La6  1  0.71493178  0.93130844  0.63050208  1
  La  La7  1  0.28506822  0.06869156  0.36949792  1
  La  La8  1  0.49691850  0.80273112  0.39317442  1
  La  La9  1  0.50308150  0.19726888  0.60682558  1
  La  La10  1  0.00308150  0.69726888  0.89317442  1
  La  La11  1  0.99691850  0.30273112  0.10682558  1
  La  La12  1  0.19154749  0.90364003  0.72495800  1
  La  La13  1  0.80845251  0.09635997  0.27504200  1
  La  La14  1  0.30845251  0.59635997  0.22495800  1
  La  La15  1  0.69154749  0.40364003  0.77504200  1
  La  La16  1  0.77360948  0.49016729  0.55498986  1
  La  La17  1  0.22639052  0.50983271  0.44501014  1
  La  La18  1  0.72639052  0.00983271  0.05498986  1
  La  La19  1  0.27360948  0.99016729  0.94501014  1
  La  La20  1  0.99113503  0.78683006  0.48261891  1
  La  La21  1  0.00886497  0.21316994  0.51738109  1
  La  La22  1  0.50886497  0.71316994  0.98261891  1
  La  La23  1  0.49113503  0.28683006  0.01738109  1
  La  La24  1  0.76058688  0.57101130  0.34534228  1
  La  La25  1  0.23941312  0.42898870  0.65465772  1
  La  La26  1  0.73941312  0.92898870  0.84534228  1
  La  La27  1  0.26058688  0.07101130  0.15465772  1
  B  B0  1  0.24920801  0.99864829  0.56858952  1
  B  B1  1  0.75079199  0.00135171  0.43141048  1
  B  B2  1  0.25079199  0.50135171  0.06858952  1
  B  B3  1  0.74920801  0.49864829  0.93141048  1
  P  P0  1  0.54848722  0.83600990  0.19789857  1
  P  P1  1  0.45151278  0.16399010  0.80210143  1
  P  P2  1  0.95151278  0.66399010  0.69789857  1
  P  P3  1  0.04848722  0.33600990  0.30210143  1
  P  P4  1  0.03557354  0.81692248  0.06151471  1
  P  P5  1  0.96442646  0.18307752  0.93848529  1
  P  P6  1  0.46442646  0.68307752  0.56151471  1
  P  P7  1  0.53557354  0.31692248  0.43848529  1
  O  O0  1  0.47962418  0.90336844  0.13460345  1
  O  O1  1  0.52037582  0.09663156  0.86539655  1
  O  O2  1  0.02037582  0.59663156  0.63460345  1
  O  O3  1  0.97962418  0.40336844  0.36539655  1
  O  O4  1  0.40108571  0.99774854  0.62003368  1
  O  O5  1  0.59891429  0.00225146  0.37996632  1
  O  O6  1  0.09891429  0.50225146  0.12003368  1
  O  O7  1  0.90108571  0.49774854  0.87996632  1
  O  O8  1  0.60277055  0.50874697  0.23148710  1
  O  O9  1  0.39722945  0.49125303  0.76851290  1
  O  O10  1  0.89722945  0.99125303  0.73148710  1
  O  O11  1  0.10277055  0.00874697  0.26851290  1
  O  O12  1  0.80746711  0.75743512  0.36826351  1
  O  O13  1  0.19253289  0.24256488  0.63173649  1
  O  O14  1  0.69253289  0.74256488  0.86826351  1
  O  O15  1  0.30746711  0.25743512  0.13173649  1
  O  O16  1  0.08380993  0.94091946  0.06587277  1
  O  O17  1  0.91619007  0.05908054  0.93412723  1
  O  O18  1  0.41619007  0.55908054  0.56587277  1
  O  O19  1  0.58380993  0.44091946  0.43412723  1
  O  O20  1  0.04836828  0.76206822  0.13629274  1
  O  O21  1  0.95163172  0.23793178  0.86370726  1
  O  O22  1  0.45163172  0.73793178  0.63629274  1
  O  O23  1  0.54836828  0.26206822  0.36370726  1
  O  O24  1  0.08530871  0.88054299  0.85543188  1
  O  O25  1  0.91469129  0.11945701  0.14456812  1
  O  O26  1  0.41469129  0.61945701  0.35543188  1
  O  O27  1  0.58530871  0.38054299  0.64456812  1
  O  O28  1  0.38298297  0.80744483  0.25575159  1
  O  O29  1  0.61701703  0.19255517  0.74424841  1
  O  O30  1  0.11701703  0.69255517  0.75575159  1
  O  O31  1  0.88298297  0.30744483  0.24424841  1
  O  O32  1  0.96102778  0.59466309  0.45761218  1
  O  O33  1  0.03897222  0.40533691  0.54238782  1
  O  O34  1  0.53897222  0.90533691  0.95761218  1
  O  O35  1  0.46102778  0.09466309  0.04238782  1
  O  O36  1  0.17714471  0.77810946  0.00404985  1
  O  O37  1  0.82285529  0.22189054  0.99595015  1
  O  O38  1  0.32285529  0.72189054  0.50404985  1
  O  O39  1  0.67714471  0.27810946  0.49595015  1
  O  O40  1  0.89603081  0.77185922  0.67172076  1
  O  O41  1  0.10396919  0.22814078  0.32827924  1
  O  O42  1  0.60396919  0.72814078  0.17172076  1
  O  O43  1  0.39603081  0.27185922  0.82827924  1
  O  O44  1  0.19391104  0.87279295  0.39121294  1
  O  O45  1  0.80608896  0.12720705  0.60878706  1
  O  O46  1  0.30608896  0.62720705  0.89121294  1
  O  O47  1  0.69391104  0.37279295  0.10878706  1
  O  O48  1  0.82965648  0.79699011  0.02953749  1
  O  O49  1  0.17034352  0.20300989  0.97046251  1
  O  O50  1  0.67034352  0.70300989  0.52953749  1
  O  O51  1  0.32965648  0.29699011  0.47046251  1
  O  O52  1  0.08711961  0.92721601  0.58091944  1
  O  O53  1  0.91288039  0.07278399  0.41908056  1
  O  O54  1  0.41288039  0.57278399  0.08091944  1
  O  O55  1  0.58711961  0.42721601  0.91908056  1
  O  O56  1  0.72844146  0.92288863  0.48529629  1
  O  O57  1  0.27155854  0.07711137  0.51470371  1
  O  O58  1  0.77155854  0.57711137  0.98529629  1
  O  O59  1  0.22844146  0.42288863  0.01470371  1
  O  O60  1  0.99533900  0.62819016  0.25741373  1
  O  O61  1  0.00466100  0.37180984  0.74258627  1
  O  O62  1  0.50466100  0.87180984  0.75741373  1
  O  O63  1  0.49533900  0.12819016  0.24258627  1
  O  O64  1  0.77598123  0.59768197  0.73555105  1
  O  O65  1  0.22401877  0.40231803  0.26444895  1
  O  O66  1  0.72401877  0.90231803  0.23555105  1
  O  O67  1  0.27598123  0.09768197  0.76444895  1
loop_
_geom_bond_atom_site_label_1
_geom_bond_atom_site_label_2
_geom_bond_distance
_geom_bond_site_symmetry_2
La0 O12 2.342564 1_455
La0 O11 2.380502 1_565
La0 O60 2.446198 1_455
La0 O44 2.490026 1_555
La0 O66 2.543944 1_455
La0 O28 2.596339 1_555
La0 O20 2.613488 1_555
La1 O13 2.342564 1_655
La1 O10 2.380502 1_545
La1 O61 2.446198 1_655
La1 O45 2.490026 1_555
La1 O67 2.543944 1_655
La1 O29 2.596339 1_555
La1 O21 2.613488 1_555
La2 O14 2.342564 1_555
La2 O9 2.380502 1_555
La2 O62 2.446198 1_555
La2 O46 2.490026 1_555
La2 O64 2.543944 1_555
La2 O30 2.596339 1_555
La2 O22 2.613488 1_555
La3 O15 2.342564 1_555
La3 O8 2.380502 1_555
La3 O63 2.446198 1_555
La3 O47 2.490026 1_555
La3 O65 2.543944 1_555
La3 O31 2.596339 1_555
La3 O23 2.613488 1_555
La4 O8 2.302393 1_555
La4 O6 2.471005 1_655
La4 O47 2.515335 1_555
La4 O58 2.629915 1_554
La4 O42 2.635545 1_555
La4 O54 2.773750 1_555
La4 O60 2.780347 1_555
La4 O20 2.875948 1_655
La5 O9 2.302393 1_555
La5 O7 2.471005 1_455
La5 O46 2.515335 1_555
La5 O59 2.629915 1_556
La5 O43 2.635545 1_555
La5 O55 2.773750 1_555
La5 O61 2.780347 1_555
La5 O21 2.875948 1_455
La6 O10 2.302393 1_555
La6 O4 2.471005 1_555
La6 O45 2.515335 1_565
La6 O56 2.629915 1_555
La6 O40 2.635545 1_555
La6 O52 2.773750 1_655
La6 O62 2.780347 1_555
La6 O22 2.875948 1_555
La7 O11 2.302393 1_555
La7 O5 2.471005 1_555
La7 O44 2.515335 1_545
La7 O57 2.629915 1_555
La7 O41 2.635545 1_555
La7 O53 2.773750 1_455
La7 O63 2.780347 1_555
La7 O23 2.875948 1_555
La8 O12 2.373205 1_555
La8 O44 2.414336 1_555
La8 O26 2.419975 1_555
La8 O38 2.498227 1_555
La8 O5 2.550620 1_565
La8 O28 2.613887 1_555
La8 O56 2.664649 1_555
La9 O13 2.373205 1_555
La9 O45 2.414336 1_555
La9 O27 2.419975 1_555
La9 O39 2.498227 1_555
La9 O4 2.550620 1_545
La9 O29 2.613887 1_555
La9 O57 2.664649 1_555
La10 O14 2.373205 1_455
La10 O46 2.414336 1_555
La10 O24 2.419975 1_555
La10 O36 2.498227 1_556
La10 O7 2.550620 1_455
La10 O30 2.613887 1_555
La10 O58 2.664649 1_455
La11 O15 2.373205 1_655
La11 O47 2.414336 1_555
La11 O25 2.419975 1_555
La11 O37 2.498227 1_554
La11 O6 2.550620 1_655
La11 O31 2.613887 1_555
La11 O59 2.664649 1_655
La12 O62 2.364251 1_555
La12 O10 2.477307 1_455
La12 O24 2.480400 1_555
La12 O67 2.557752 1_565
La12 O4 2.595402 1_555
La12 O40 2.670613 1_455
La12 O30 2.718698 1_555
La12 O52 2.733020 1_555
La13 O63 2.364251 1_555
La13 O11 2.477307 1_655
La13 O25 2.480400 1_555
La13 O66 2.557752 1_545
La13 O5 2.595402 1_555
La13 O41 2.670613 1_655
La13 O31 2.718698 1_555
La13 O53 2.733020 1_555
La14 O60 2.364251 1_455
La14 O8 2.477307 1_555
La14 O26 2.480400 1_555
La14 O65 2.557752 1_555
La14 O6 2.595402 1_555
La14 O42 2.670613 1_555
La14 O28 2.718698 1_555
La14 O54 2.733020 1_555
La15 O61 2.364251 1_655
La15 O9 2.477307 1_555
La15 O27 2.480400 1_555
La15 O64 2.557752 1_555
La15 O7 2.595402 1_555
La15 O43 2.670613 1_555
La15 O29 2.718698 1_555
La15 O55 2.733020 1_555
La16 O33 2.284658 1_655
La16 O27 2.414488 1_555
La16 O32 2.477496 1_555
La16 O2 2.509020 1_655
La16 O19 2.594163 1_555
La16 O18 2.774472 1_555
La16 O39 2.891765 1_555
La16 O50 2.923545 1_555
La17 O32 2.284658 1_455
La17 O26 2.414488 1_555
La17 O33 2.477496 1_555
La17 O3 2.509020 1_455
La17 O18 2.594163 1_555
La17 O19 2.774472 1_555
La17 O38 2.891765 1_555
La17 O51 2.923545 1_555
La18 O35 2.284658 1_555
La18 O25 2.414488 1_555
La18 O34 2.477496 1_544
La18 O0 2.509020 1_545
La18 O17 2.594163 1_554
La18 O16 2.774472 1_645
La18 O37 2.891765 1_554
La18 O48 2.923545 1_545
La19 O34 2.284658 1_555
La19 O24 2.414488 1_555
La19 O35 2.477496 1_566
La19 O1 2.509020 1_565
La19 O16 2.594163 1_556
La19 O17 2.774472 1_465
La19 O36 2.891765 1_556
La19 O49 2.923545 1_565
La20 O44 2.355376 1_655
La20 O12 2.440673 1_555
La20 O32 2.461702 1_555
La20 O50 2.512475 1_555
La20 O52 2.544256 1_655
La20 O38 2.602943 1_655
La20 O56 2.689156 1_555
La21 O45 2.355376 1_455
La21 O13 2.440673 1_555
La21 O33 2.461702 1_555
La21 O51 2.512475 1_555
La21 O53 2.544256 1_455
La21 O39 2.602943 1_455
La21 O57 2.689156 1_555
La22 O46 2.355376 1_555
La22 O14 2.440673 1_555
La22 O34 2.461702 1_555
La22 O48 2.512475 1_556
La22 O54 2.544256 1_556
La22 O36 2.602943 1_556
La22 O58 2.689156 1_555
La23 O47 2.355376 1_555
La23 O15 2.440673 1_555
La23 O35 2.461702 1_555
La23 O49 2.512475 1_554
La23 O55 2.544256 1_554
La23 O37 2.602943 1_554
La23 O59 2.689156 1_555
La24 O60 2.337986 1_555
La24 O12 2.381605 1_555
La24 O8 2.421682 1_555
La24 O32 2.467258 1_555
La24 O19 2.512043 1_555
La24 O26 2.592412 1_555
La24 O3 2.808526 1_555
La25 O61 2.337986 1_555
La25 O13 2.381605 1_555
La25 O9 2.421682 1_555
La25 O33 2.467258 1_555
La25 O18 2.512043 1_555
La25 O27 2.592412 1_555
La25 O2 2.808526 1_555
La26 O62 2.337986 1_555
La26 O14 2.381605 1_555
La26 O10 2.421682 1_555
La26 O34 2.467258 1_555
La26 O17 2.512043 1_565
La26 O24 2.592412 1_655
La26 O1 2.808526 1_565
La27 O63 2.337986 1_555
La27 O15 2.381605 1_555
La27 O11 2.421682 1_555
La27 O35 2.467258 1_555
La27 O16 2.512043 1_545
La27 O25 2.592412 1_455
La27 O0 2.808526 1_545
B0 O52 1.378473 1_555
B0 O57 1.387195 1_565
B0 O4 1.417565 1_555
B1 O53 1.378473 1_555
B1 O56 1.387195 1_545
B1 O5 1.417565 1_555
B2 O54 1.378473 1_555
B2 O59 1.387195 1_555
B2 O6 1.417565 1_555
B3 O55 1.378473 1_555
B3 O58 1.387195 1_555
B3 O7 1.417565 1_555
O0 P0 1.543792 1_555
O1 P1 1.543792 1_555
O2 P2 1.543792 1_455
O3 P3 1.543792 1_655
O16 P4 1.567522 1_555
O17 P5 1.567522 1_555
O18 P6 1.567522 1_555
O19 P7 1.567522 1_555
O20 P4 1.528768 1_555
O21 P5 1.528768 1_555
O22 P6 1.528768 1_555
O23 P7 1.528768 1_555
O28 P0 1.571618 1_555
O29 P1 1.571618 1_555
O30 P2 1.571618 1_455
O31 P3 1.571618 1_655
O36 P4 1.562664 1_555
O37 P5 1.562664 1_555
O38 P6 1.562664 1_555
O39 P7 1.562664 1_555
O40 P2 1.545856 1_555
O41 P3 1.545856 1_555
O42 P0 1.545856 1_555
O43 P1 1.545856 1_555
O48 P4 1.549074 1_655
O49 P5 1.549074 1_455
O50 P6 1.549074 1_555
O51 P7 1.549074 1_555
O64 P2 1.556731 1_555
O65 P3 1.556731 1_555
O66 P0 1.556731 1_555
O67 P1 1.556731 1_555
