# generated using pymatgen
data_KPF6
_symmetry_space_group_name_H-M   'P 1'
_cell_length_a   7.53562312
_cell_length_b   7.53562312
_cell_length_c   7.53562312
_cell_angle_alpha   90.00000000
_cell_angle_beta   90.00000000
_cell_angle_gamma   90.00000000
_symmetry_Int_Tables_number   1
_chemical_formula_structural   KPF6
_chemical_formula_sum   'K4 P4 F24'
_cell_volume   427.91499936
_cell_formula_units_Z   4
loop_
 _symmetry_equiv_pos_site_id
 _symmetry_equiv_pos_as_xyz
  1  'x, y, z'
loop_
 _atom_site_type_symbol
 _atom_site_label
 _atom_site_symmetry_multiplicity
 _atom_site_fract_x
 _atom_site_fract_y
 _atom_site_fract_z
 _atom_site_occupancy
  K  K0  1  0.50000000  0.50000000  0.50000000  1
  K  K1  1  0.00000000  0.50000000  0.00000000  1
  K  K2  1  0.00000000  0.00000000  0.50000000  1
  K  K3  1  0.50000000  0.00000000  0.00000000  1
  P  P0  1  0.00000000  0.00000000  0.00000000  1
  P  P1  1  0.50000000  0.00000000  0.50000000  1
  P  P2  1  0.50000000  0.50000000  0.00000000  1
  P  P3  1  0.00000000  0.50000000  0.50000000  1
  F  F0  1  0.63093199  0.15486075  0.57081565  1
  F  F1  1  0.13093199  0.34513925  0.42918435  1
  F  F2  1  0.36906801  0.65486075  0.92918435  1
  F  F3  1  0.34513925  0.42918435  0.13093199  1
  F  F4  1  0.92918435  0.36906801  0.65486075  1
  F  F5  1  0.42918435  0.13093199  0.34513925  1
  F  F6  1  0.15486075  0.57081565  0.63093199  1
  F  F7  1  0.57081565  0.63093199  0.15486075  1
  F  F8  1  0.13093199  0.15486075  0.92918435  1
  F  F9  1  0.92918435  0.13093199  0.15486075  1
  F  F10  1  0.15486075  0.92918435  0.13093199  1
  F  F11  1  0.34513925  0.07081565  0.63093199  1
  F  F12  1  0.42918435  0.36906801  0.84513925  1
  F  F13  1  0.84513925  0.42918435  0.36906801  1
  F  F14  1  0.57081565  0.86906801  0.65486075  1
  F  F15  1  0.07081565  0.63093199  0.34513925  1
  F  F16  1  0.65486075  0.57081565  0.86906801  1
  F  F17  1  0.63093199  0.34513925  0.07081565  1
  F  F18  1  0.86906801  0.65486075  0.57081565  1
  F  F19  1  0.36906801  0.84513925  0.42918435  1
  F  F20  1  0.86906801  0.84513925  0.07081565  1
  F  F21  1  0.07081565  0.86906801  0.84513925  1
  F  F22  1  0.84513925  0.07081565  0.86906801  1
  F  F23  1  0.65486075  0.92918435  0.36906801  1
loop_
_geom_bond_atom_site_label_1
_geom_bond_atom_site_label_2
_geom_bond_distance
_geom_bond_site_symmetry_2
F0 P1 1.618667 1_555
F0 K0 2.832424 1_555
F0 K2 3.062912 1_655
F1 P3 1.618667 1_555
F1 K2 2.832424 1_555
F1 K0 3.062912 1_555
F2 P2 1.618667 1_556
F2 K3 2.832424 1_566
F2 K1 3.062912 1_556
F3 P2 1.618667 1_555
F3 K1 2.832424 1_555
F3 K0 3.062912 1_555
F4 P3 1.618667 1_655
F4 K1 2.832424 1_656
F4 K2 3.062912 1_655
F5 P1 1.618667 1_555
F5 K3 2.832424 1_555
F5 K0 3.062912 1_555
F6 P3 1.618667 1_555
F6 K0 2.832424 1_555
F6 K1 3.062912 1_556
F7 P2 1.618667 1_555
F7 K0 2.832424 1_555
F7 K3 3.062912 1_565
F8 P0 1.618667 1_556
F8 K1 2.832424 1_556
F8 K3 3.062912 1_556
F9 P0 1.618667 1_655
F9 K2 2.832424 1_655
F9 K1 3.062912 1_655
F10 P0 1.618667 1_565
F10 K3 2.832424 1_565
F10 K2 3.062912 1_565
F11 P1 1.618667 1_555
F11 K2 2.832424 1_555
F11 K3 3.062912 1_556
F12 P2 1.618667 1_556
F12 K0 2.832424 1_555
F12 K3 3.062912 1_556
F13 P3 1.618667 1_655
F13 K0 2.832424 1_555
F13 K1 3.062912 1_655
F14 P1 1.618667 1_565
F14 K3 2.832424 1_566
F14 K0 3.062912 1_555
F15 P3 1.618667 1_555
F15 K1 2.832424 1_555
F15 K2 3.062912 1_565
F16 P2 1.618667 1_556
F16 K1 2.832424 1_656
F16 K0 3.062912 1_555
F17 P2 1.618667 1_555
F17 K3 2.832424 1_555
F17 K1 3.062912 1_655
F18 P3 1.618667 1_655
F18 K2 2.832424 1_665
F18 K0 3.062912 1_555
F19 P1 1.618667 1_565
F19 K0 2.832424 1_555
F19 K2 3.062912 1_565
F20 P0 1.618667 1_665
F20 K1 2.832424 1_655
F20 K3 3.062912 1_565
F21 P0 1.618667 1_566
F21 K2 2.832424 1_565
F21 K1 3.062912 1_556
F22 P0 1.618667 1_656
F22 K3 2.832424 1_556
F22 K2 3.062912 1_655
F23 P1 1.618667 1_565
F23 K2 2.832424 1_665
F23 K3 3.062912 1_565
