# generated using pymatgen
data_Nb7S8
_symmetry_space_group_name_H-M   'P 1'
_cell_length_a   6.73775389
_cell_length_b   6.73775389
_cell_length_c   6.46268900
_cell_angle_alpha   90.00000000
_cell_angle_beta   90.00000000
_cell_angle_gamma   119.99999891
_symmetry_Int_Tables_number   1
_chemical_formula_structural   Nb7S8
_chemical_formula_sum   'Nb7 S8'
_cell_volume   254.08216444
_cell_formula_units_Z   1
loop_
 _symmetry_equiv_pos_site_id
 _symmetry_equiv_pos_as_xyz
  1  'x, y, z'
loop_
 _atom_site_type_symbol
 _atom_site_label
 _atom_site_symmetry_multiplicity
 _atom_site_fract_x
 _atom_site_fract_y
 _atom_site_fract_z
 _atom_site_occupancy
  Nb  Nb0  1  0.14630500  0.29261000  0.50018300  1
  Nb  Nb1  1  0.14630500  0.85369500  0.50018300  1
  Nb  Nb2  1  0.70739000  0.85369500  0.50018300  1
  Nb  Nb3  1  0.18723800  0.37447600  0.00268500  1
  Nb  Nb4  1  0.18723800  0.81276200  0.00268500  1
  Nb  Nb5  1  0.62552400  0.81276200  0.00268500  1
  Nb  Nb6  1  0.66666700  0.33333300  0.50473700  1
  S  S0  1  0.00000000  0.00000000  0.21883100  1
  S  S1  1  0.33333300  0.66666700  0.71993100  1
  S  S2  1  0.50550200  0.49449800  0.25264300  1
  S  S3  1  0.98899600  0.49449800  0.25264300  1
  S  S4  1  0.50550200  0.01100400  0.25264300  1
  S  S5  1  0.83024700  0.16975300  0.76322700  1
  S  S6  1  0.33950500  0.16975300  0.76322700  1
  S  S7  1  0.83024700  0.66049500  0.76322700  1
loop_
_geom_bond_atom_site_label_1
_geom_bond_atom_site_label_2
_geom_bond_distance
_geom_bond_site_symmetry_2
Nb0 S0 2.494272 1_555
Nb0 S6 2.519362 1_555
Nb0 S5 2.519367 1_455
Nb0 S1 2.603999 1_555
Nb0 S3 2.640982 1_455
Nb0 S2 2.640982 1_555
Nb1 S0 2.494272 1_565
Nb1 S6 2.519366 1_565
Nb1 S7 2.519366 1_455
Nb1 S1 2.603994 1_555
Nb1 S3 2.640982 1_455
Nb1 S4 2.640982 1_565
Nb2 S0 2.494272 1_665
Nb2 S7 2.519362 1_555
Nb2 S5 2.519367 1_565
Nb2 S1 2.603999 1_555
Nb2 S4 2.640982 1_565
Nb2 S2 2.640982 1_555
Nb3 S3 2.475429 1_455
Nb3 S2 2.475429 1_555
Nb3 S1 2.499216 1_554
Nb3 S0 2.593437 1_555
Nb3 S6 2.601011 1_554
Nb3 S5 2.601015 1_454
Nb4 S3 2.475429 1_455
Nb4 S4 2.475429 1_565
Nb4 S1 2.499212 1_554
Nb4 S0 2.593437 1_565
Nb4 S7 2.601016 1_454
Nb4 S6 2.601016 1_564
Nb5 S4 2.475429 1_565
Nb5 S2 2.475429 1_555
Nb5 S1 2.499216 1_554
Nb5 S0 2.593437 1_665
Nb5 S7 2.601011 1_554
Nb5 S5 2.601015 1_564
Nb6 S3 2.488325 1_555
Nb6 S4 2.488325 1_555
Nb6 S2 2.488329 1_555
Nb6 S5 2.536728 1_555
Nb6 S7 2.536736 1_555
Nb6 S6 2.536736 1_555
