# generated using pymatgen
data_GaBiN2
_symmetry_space_group_name_H-M   'P 1'
_cell_length_a   7.66913603
_cell_length_b   6.53512100
_cell_length_c   5.81759640
_cell_angle_alpha   90.00000000
_cell_angle_beta   103.68344072
_cell_angle_gamma   90.00000000
_symmetry_Int_Tables_number   1
_chemical_formula_structural   GaBiN2
_chemical_formula_sum   'Ga4 Bi4 N8'
_cell_volume   283.29506149
_cell_formula_units_Z   4
loop_
 _symmetry_equiv_pos_site_id
 _symmetry_equiv_pos_as_xyz
  1  'x, y, z'
loop_
 _atom_site_type_symbol
 _atom_site_label
 _atom_site_symmetry_multiplicity
 _atom_site_fract_x
 _atom_site_fract_y
 _atom_site_fract_z
 _atom_site_occupancy
  Ga  Ga0  1  0.12508000  0.36076500  0.63680300  1
  Ga  Ga1  1  0.87492000  0.86076500  0.86319700  1
  Ga  Ga2  1  0.87492000  0.63923500  0.36319700  1
  Ga  Ga3  1  0.12508000  0.13923500  0.13680300  1
  Bi  Bi0  1  0.30468200  0.88474100  0.68774200  1
  Bi  Bi1  1  0.69531800  0.38474100  0.81225800  1
  Bi  Bi2  1  0.69531800  0.11525900  0.31225800  1
  Bi  Bi3  1  0.30468200  0.61525900  0.18774200  1
  N  N0  1  0.14610200  0.87470800  0.96838800  1
  N  N1  1  0.85389800  0.37470800  0.53161200  1
  N  N2  1  0.85389800  0.12529200  0.03161200  1
  N  N3  1  0.14610200  0.62529200  0.46838800  1
  N  N4  1  0.21228300  0.35356300  0.97139900  1
  N  N5  1  0.78771700  0.85356300  0.52860100  1
  N  N6  1  0.78771700  0.64643700  0.02860100  1
  N  N7  1  0.21228300  0.14643700  0.47139900  1
loop_
_geom_bond_atom_site_label_1
_geom_bond_atom_site_label_2
_geom_bond_distance
_geom_bond_site_symmetry_2
Ga0 N4 1.903315 1_555
Ga0 N7 1.907747 1_555
Ga0 N3 2.012246 1_555
Ga0 N1 2.026312 1_455
Ga1 N5 1.903315 1_555
Ga1 N6 1.907747 1_556
Ga1 N2 2.012246 1_566
Ga1 N0 2.026312 1_655
Ga2 N6 1.903315 1_555
Ga2 N5 1.907747 1_555
Ga2 N1 2.012246 1_555
Ga2 N3 2.026312 1_655
Ga3 N7 1.903315 1_555
Ga3 N4 1.907747 1_554
Ga3 N0 2.012246 1_544
Ga3 N2 2.026312 1_455
Bi0 N7 2.142216 1_565
Bi0 N0 2.255762 1_555
Bi0 N3 2.290873 1_555
Bi1 N6 2.142216 1_556
Bi1 N1 2.255762 1_555
Bi1 N2 2.290873 1_556
Bi2 N5 2.142216 1_545
Bi2 N2 2.255762 1_555
Bi2 N1 2.290873 1_555
Bi3 N4 2.142216 1_554
Bi3 N3 2.255762 1_555
Bi3 N0 2.290873 1_554
