# generated using pymatgen
data_UCr4(H3O4)6
_symmetry_space_group_name_H-M   'P 1'
_cell_length_a   9.03654523
_cell_length_b   9.03654523
_cell_length_c   13.40979068
_cell_angle_alpha   80.09262857
_cell_angle_beta   80.09262857
_cell_angle_gamma   78.50595550
_symmetry_Int_Tables_number   1
_chemical_formula_structural   UCr4(H3O4)6
_chemical_formula_sum   'U2 Cr8 H36 O48'
_cell_volume   1046.24827373
_cell_formula_units_Z   2
loop_
 _symmetry_equiv_pos_site_id
 _symmetry_equiv_pos_as_xyz
  1  'x, y, z'
loop_
 _atom_site_type_symbol
 _atom_site_label
 _atom_site_symmetry_multiplicity
 _atom_site_fract_x
 _atom_site_fract_y
 _atom_site_fract_z
 _atom_site_occupancy
  U  U0  1  0.62599000  0.37401000  0.25000000  1
  U  U1  1  0.37401000  0.62599000  0.75000000  1
  Cr  Cr0  1  0.24101200  0.54631600  0.38814400  1
  Cr  Cr1  1  0.45368400  0.75898800  0.11185600  1
  Cr  Cr2  1  0.75898800  0.45368400  0.61185600  1
  Cr  Cr3  1  0.54631600  0.24101200  0.88814400  1
  Cr  Cr4  1  0.78228700  0.99335700  0.41062700  1
  Cr  Cr5  1  0.00664300  0.21771300  0.08937300  1
  Cr  Cr6  1  0.21771300  0.00664300  0.58937300  1
  Cr  Cr7  1  0.99335700  0.78228700  0.91062700  1
  H  H0  1  0.36559900  0.95805500  0.24451700  1
  H  H1  1  0.04194500  0.63440100  0.25548300  1
  H  H2  1  0.63440100  0.04194500  0.75548300  1
  H  H3  1  0.95805500  0.36559900  0.74451700  1
  H  H4  1  0.27879300  0.04217700  0.35075900  1
  H  H5  1  0.95782300  0.72120700  0.14924100  1
  H  H6  1  0.72120700  0.95782300  0.64924100  1
  H  H7  1  0.04217700  0.27879300  0.85075900  1
  H  H8  1  0.22248100  0.12215300  0.23645900  1
  H  H9  1  0.87784700  0.77751900  0.26354100  1
  H  H10  1  0.77751900  0.87784700  0.76354100  1
  H  H11  1  0.12215300  0.22248100  0.73645900  1
  H  H12  1  0.91268800  0.39755800  0.44267800  1
  H  H13  1  0.60244200  0.08731200  0.05732200  1
  H  H14  1  0.08731200  0.60244200  0.55732200  1
  H  H15  1  0.39755800  0.91268800  0.94267800  1
  H  H16  1  0.89121000  0.25570100  0.38378900  1
  H  H17  1  0.74429900  0.10879000  0.11621100  1
  H  H18  1  0.10879000  0.74429900  0.61621100  1
  H  H19  1  0.25570100  0.89121000  0.88378900  1
  H  H20  1  0.03751600  0.35384600  0.34437300  1
  H  H21  1  0.64615400  0.96248400  0.15562700  1
  H  H22  1  0.96248400  0.64615400  0.65562700  1
  H  H23  1  0.35384600  0.03751600  0.84437300  1
  H  H24  1  0.34449100  0.49116200  0.11138000  1
  H  H25  1  0.50883800  0.65550900  0.38862000  1
  H  H26  1  0.65550900  0.50883800  0.88862000  1
  H  H27  1  0.49116200  0.34449100  0.61138000  1
  H  H28  1  0.18327900  0.35524400  0.13632300  1
  H  H29  1  0.64475600  0.81672100  0.36367700  1
  H  H30  1  0.81672100  0.64475600  0.86367700  1
  H  H31  1  0.35524400  0.18327900  0.63632300  1
  H  H32  1  0.33858100  0.39541500  0.02660400  1
  H  H33  1  0.60458500  0.66141900  0.47339600  1
  H  H34  1  0.66141900  0.60458500  0.97339600  1
  H  H35  1  0.39541500  0.33858100  0.52660400  1
  O  O0  1  0.50329900  0.24759300  0.23116700  1
  O  O1  1  0.75240700  0.49670100  0.26883300  1
  O  O2  1  0.49670100  0.75240700  0.76883300  1
  O  O3  1  0.24759300  0.50329900  0.73116700  1
  O  O4  1  0.43635600  0.48150200  0.36538300  1
  O  O5  1  0.51849800  0.56364400  0.13461700  1
  O  O6  1  0.56364400  0.51849800  0.63461700  1
  O  O7  1  0.48150200  0.43635600  0.86538300  1
  O  O8  1  0.17389200  0.47427500  0.50618700  1
  O  O9  1  0.52572500  0.82610800  0.99381300  1
  O  O10  1  0.82610800  0.52572500  0.49381300  1
  O  O11  1  0.47427500  0.17389200  0.00618700  1
  O  O12  1  0.21444500  0.72700600  0.38382800  1
  O  O13  1  0.27299400  0.78555500  0.11617200  1
  O  O14  1  0.78555500  0.27299400  0.61617200  1
  O  O15  1  0.72700600  0.21444500  0.88382800  1
  O  O16  1  0.14226200  0.50493200  0.30308600  1
  O  O17  1  0.49506800  0.85773800  0.19691400  1
  O  O18  1  0.85773800  0.49506800  0.69691400  1
  O  O19  1  0.50493200  0.14226200  0.80308600  1
  O  O20  1  0.74315200  0.18790300  0.36840100  1
  O  O21  1  0.81209700  0.25684800  0.13159900  1
  O  O22  1  0.25684800  0.81209700  0.63159900  1
  O  O23  1  0.18790300  0.74315200  0.86840100  1
  O  O24  1  0.96235400  0.95218600  0.40661000  1
  O  O25  1  0.04781400  0.03764600  0.09339000  1
  O  O26  1  0.03764600  0.04781400  0.59339000  1
  O  O27  1  0.95218600  0.96235400  0.90661000  1
  O  O28  1  0.73344600  0.88234900  0.32832100  1
  O  O29  1  0.11765100  0.26655400  0.17167900  1
  O  O30  1  0.26655400  0.11765100  0.67167900  1
  O  O31  1  0.88234900  0.73344600  0.82832100  1
  O  O32  1  0.69982700  0.95031800  0.52694100  1
  O  O33  1  0.04968200  0.30017300  0.97305900  1
  O  O34  1  0.30017300  0.04968200  0.47305900  1
  O  O35  1  0.95031800  0.69982700  0.02694100  1
  O  O36  1  0.26739200  0.02597200  0.28027900  1
  O  O37  1  0.97402800  0.73260800  0.21972100  1
  O  O38  1  0.73260800  0.97402800  0.71972100  1
  O  O39  1  0.02597200  0.26739200  0.78027900  1
  O  O40  1  0.97194000  0.30480500  0.40421600  1
  O  O41  1  0.69519500  0.02806000  0.09578400  1
  O  O42  1  0.02806000  0.69519500  0.59578400  1
  O  O43  1  0.30480500  0.97194000  0.90421600  1
  O  O44  1  0.27279400  0.45639200  0.07637200  1
  O  O45  1  0.54360800  0.72720600  0.42362800  1
  O  O46  1  0.72720600  0.54360800  0.92362800  1
  O  O47  1  0.45639200  0.27279400  0.57637200  1
loop_
_geom_bond_atom_site_label_1
_geom_bond_atom_site_label_2
_geom_bond_distance
_geom_bond_site_symmetry_2
Cr0 O12 1.594711 1_555
Cr0 O8 1.664252 1_555
Cr0 O16 1.693273 1_555
Cr0 O4 1.736758 1_555
Cr1 O13 1.594711 1_555
Cr1 O9 1.664252 1_554
Cr1 O17 1.693273 1_555
Cr1 O5 1.736758 1_555
Cr2 O14 1.594711 1_555
Cr2 O10 1.664252 1_555
Cr2 O18 1.693273 1_555
Cr2 O6 1.736758 1_555
Cr3 O15 1.594711 1_555
Cr3 O11 1.664252 1_556
Cr3 O19 1.693273 1_555
Cr3 O7 1.736758 1_555
Cr4 O24 1.588872 1_555
Cr4 O32 1.626694 1_555
Cr4 O20 1.736354 1_565
Cr4 O28 1.773213 1_555
Cr5 O25 1.588872 1_555
Cr5 O33 1.626694 1_554
Cr5 O21 1.736354 1_455
Cr5 O29 1.773213 1_555
Cr6 O26 1.588872 1_555
Cr6 O34 1.626694 1_555
Cr6 O22 1.736354 1_545
Cr6 O30 1.773213 1_555
Cr7 O27 1.588872 1_555
Cr7 O35 1.626694 1_556
Cr7 O23 1.736354 1_655
Cr7 O31 1.773213 1_555
H0 O36 1.063948 1_565
H0 O17 1.455166 1_555
H1 O37 1.063948 1_455
H1 O16 1.455166 1_555
H2 O38 1.063948 1_545
H2 O19 1.455166 1_555
H3 O39 1.063948 1_655
H3 O18 1.455166 1_555
H4 O36 1.006210 1_555
H4 O34 1.698267 1_555
H5 O37 1.006210 1_555
H5 O35 1.698267 1_555
H6 O38 1.006210 1_555
H6 O32 1.698267 1_555
H7 O39 1.006210 1_555
H7 O33 1.698267 1_555
H8 O36 1.015457 1_555
H8 O29 1.659879 1_555
H9 O37 1.015457 1_555
H9 O28 1.659879 1_555
H10 O38 1.015457 1_555
H10 O31 1.659879 1_555
H11 O39 1.015457 1_555
H11 O30 1.659879 1_555
H12 O40 1.063063 1_555
H12 O10 1.466719 1_555
H13 O41 1.063063 1_555
H13 O11 1.466719 1_555
H14 O42 1.063063 1_555
H14 O8 1.466719 1_555
H15 O43 1.063063 1_555
H15 O9 1.466719 1_555
H16 O40 1.021631 1_555
H16 O20 1.634986 1_555
H17 O41 1.021631 1_555
H17 O21 1.634986 1_555
H18 O42 1.021631 1_555
H18 O22 1.634986 1_555
H19 O43 1.021631 1_555
H19 O23 1.634986 1_555
H20 O40 1.005070 1_455
H21 O41 1.005070 1_565
H22 O42 1.005070 1_655
H23 O43 1.005070 1_545
H24 O44 0.987633 1_555
H25 O45 0.987633 1_555
H26 O46 0.987633 1_555
H27 O47 0.987633 1_555
H28 O29 1.086614 1_555
H28 O44 1.397893 1_555
H29 O28 1.086614 1_555
H29 O45 1.397893 1_555
H30 O31 1.086614 1_555
H30 O46 1.397893 1_555
H31 O30 1.086614 1_555
H31 O47 1.397893 1_555
H32 O44 0.980766 1_555
H33 O45 0.980766 1_555
H34 O46 0.980766 1_555
H35 O47 0.980766 1_555
O0 U0 1.816152 1_555
O1 U0 1.816152 1_555
O2 U1 1.816152 1_555
O3 U1 1.816152 1_555
O4 U0 2.283749 1_555
O5 U0 2.283749 1_555
O6 U1 2.283749 1_555
O7 U1 2.283749 1_555
O20 U0 2.328123 1_555
O21 U0 2.328123 1_555
O22 U1 2.328123 1_555
O23 U1 2.328123 1_555
