# generated using pymatgen
data_TlMo6(SeS)4
_symmetry_space_group_name_H-M   'P 1'
_cell_length_a   6.79878600
_cell_length_b   6.82889779
_cell_length_c   6.84828783
_cell_angle_alpha   91.38092628
_cell_angle_beta   90.33769652
_cell_angle_gamma   90.05175912
_symmetry_Int_Tables_number   1
_chemical_formula_structural   TlMo6(SeS)4
_chemical_formula_sum   'Tl1 Mo6 Se4 S4'
_cell_volume   317.85573856
_cell_formula_units_Z   1
loop_
 _symmetry_equiv_pos_site_id
 _symmetry_equiv_pos_as_xyz
  1  'x, y, z'
loop_
 _atom_site_type_symbol
 _atom_site_label
 _atom_site_symmetry_multiplicity
 _atom_site_fract_x
 _atom_site_fract_y
 _atom_site_fract_z
 _atom_site_occupancy
  Tl  Tl0  1  0.99230900  0.00331600  0.00102200  1
  Mo  Mo0  1  0.44298000  0.76455800  0.41392000  1
  Mo  Mo1  1  0.58750100  0.43837400  0.24541100  1
  Mo  Mo2  1  0.76391200  0.58628600  0.56171300  1
  Mo  Mo3  1  0.56307700  0.23119600  0.58458700  1
  Mo  Mo4  1  0.41909500  0.56034100  0.75676800  1
  Mo  Mo5  1  0.23200300  0.41305400  0.44356200  1
  Se  Se0  1  0.25587200  0.60160400  0.11985600  1
  Se  Se1  1  0.12145600  0.74730900  0.60919200  1
  Se  Se2  1  0.38806600  0.11593100  0.25654100  1
  Se  Se3  1  0.74696300  0.39125500  0.88147300  1
  S  S0  1  0.75351300  0.75219200  0.25624300  1
  S  S1  1  0.25446000  0.24360000  0.74573700  1
  S  S2  1  0.87429000  0.27624300  0.40333300  1
  S  S3  1  0.60450600  0.87474000  0.72064300  1
loop_
_geom_bond_atom_site_label_1
_geom_bond_atom_site_label_2
_geom_bond_distance
_geom_bond_site_symmetry_2
Mo0 S0 2.377668 1_555
Mo0 S3 2.465663 1_555
Mo0 Se1 2.573374 1_555
Mo0 Se0 2.602179 1_555
Mo0 Se2 2.679565 1_565
Mo1 S0 2.420534 1_555
Mo1 S2 2.496801 1_555
Mo1 Se2 2.587804 1_555
Mo1 Se0 2.663320 1_555
Mo1 Se3 2.735793 1_554
Mo2 S0 2.403635 1_555
Mo2 S2 2.474695 1_555
Mo2 S3 2.480683 1_555
Mo2 Se3 2.593381 1_555
Mo2 Se1 2.681900 1_655
Mo3 S1 2.377131 1_555
Mo3 S2 2.482036 1_555
Mo3 Se3 2.598444 1_555
Mo3 Se2 2.638924 1_555
Mo3 S3 2.642025 1_545
Mo4 S1 2.433900 1_555
Mo4 S3 2.506837 1_555
Mo4 Se1 2.605614 1_555
Mo4 Se3 2.657302 1_555
Mo4 Se0 2.737340 1_556
Mo5 S1 2.399321 1_555
Mo5 Se0 2.596152 1_555
Mo5 Se2 2.603415 1_555
Mo5 S2 2.615156 1_455
Mo5 Se1 2.636298 1_555
Se1 Tl0 3.291232 1_466
Se2 Tl0 3.281622 1_455
Se3 Tl0 3.250746 1_556
S0 Tl0 2.967237 1_565
S1 Tl0 3.015831 1_456
