# generated using pymatgen
data_Mg14ZrSb
_symmetry_space_group_name_H-M   'P 1'
_cell_length_a   6.40165500
_cell_length_b   6.28510262
_cell_length_c   10.35734147
_cell_angle_alpha   90.00000000
_cell_angle_beta   90.00000000
_cell_angle_gamma   119.39954143
_symmetry_Int_Tables_number   1
_chemical_formula_structural   Mg14ZrSb
_chemical_formula_sum   'Mg14 Zr1 Sb1'
_cell_volume   363.06103605
_cell_formula_units_Z   1
loop_
 _symmetry_equiv_pos_site_id
 _symmetry_equiv_pos_as_xyz
  1  'x, y, z'
loop_
 _atom_site_type_symbol
 _atom_site_label
 _atom_site_symmetry_multiplicity
 _atom_site_fract_x
 _atom_site_fract_y
 _atom_site_fract_z
 _atom_site_occupancy
  Mg  Mg0  1  0.16643771  0.33321835  0.62500000  1
  Mg  Mg1  1  0.16619774  0.83309837  0.62500000  1
  Mg  Mg2  1  0.66714256  0.33148632  0.12500000  1
  Mg  Mg3  1  0.66613020  0.33327034  0.62500000  1
  Mg  Mg4  1  0.66714256  0.83565523  0.12500000  1
  Mg  Mg5  1  0.66613020  0.83285886  0.62500000  1
  Mg  Mg6  1  0.33386003  0.16956751  0.37650986  1
  Mg  Mg7  1  0.33386003  0.16956751  0.87349014  1
  Mg  Mg8  1  0.33386003  0.66429352  0.37650986  1
  Mg  Mg9  1  0.33386003  0.66429352  0.87349014  1
  Mg  Mg10  1  0.83560737  0.16780418  0.37489627  1
  Mg  Mg11  1  0.83560737  0.16780418  0.87510373  1
  Mg  Mg12  1  0.83125215  0.66562658  0.37607972  1
  Mg  Mg13  1  0.83125215  0.66562658  0.87392028  1
  Zr  Zr0  1  0.16636243  0.33318072  0.12500000  1
  Sb  Sb0  1  0.16529746  0.83264823  0.12500000  1
loop_
_geom_bond_atom_site_label_1
_geom_bond_atom_site_label_2
_geom_bond_distance
_geom_bond_site_symmetry_2
Mg0 Mg1 3.142552 1_545
Mg0 Mg1 3.142552 1_555
Mg0 Mg7 3.148475 1_555
Mg0 Mg6 3.148475 1_555
Mg0 Mg9 3.148481 1_555
Mg0 Mg8 3.148481 1_555
Mg0 Mg11 3.180359 1_455
Mg0 Mg10 3.180359 1_455
Mg0 Mg5 3.198698 1_555
Mg0 Mg3 3.198699 1_555
Mg0 Mg5 3.202956 1_445
Mg0 Mg3 3.202956 1_455
Mg1 Mg9 3.165369 1_555
Mg1 Mg8 3.165369 1_555
Mg1 Mg6 3.165375 1_565
Mg1 Mg7 3.165375 1_565
Mg1 Mg12 3.183796 1_455
Mg1 Mg13 3.183796 1_455
Mg1 Mg3 3.200521 1_455
Mg1 Mg5 3.200521 1_455
Mg1 Mg3 3.201134 1_565
Mg1 Mg5 3.201134 1_555
Mg2 Mg4 3.116349 1_545
Mg2 Mg4 3.168753 1_555
Mg2 Zr0 3.190619 1_655
Mg2 Sb0 3.198336 1_655
Mg2 Mg7 3.200295 1_554
Mg2 Mg6 3.200295 1_555
Mg2 Sb0 3.203404 1_545
Mg2 Zr0 3.211063 1_555
Mg3 Mg5 3.139965 1_555
Mg3 Mg5 3.145138 1_545
Mg3 Mg6 3.171484 1_555
Mg3 Mg7 3.171484 1_555
Mg4 Zr0 3.190619 1_665
Mg4 Sb0 3.198336 1_655
Mg4 Mg8 3.200295 1_555
Mg4 Mg9 3.200295 1_554
Mg4 Sb0 3.203404 1_555
Mg4 Zr0 3.211063 1_555
Mg5 Mg9 3.171484 1_555
Mg5 Mg8 3.171484 1_555
Mg6 Mg8 3.109404 1_555
Mg6 Zr0 3.174216 1_555
Mg6 Mg8 3.175699 1_545
Mg6 Sb0 3.192332 1_545
Mg7 Mg9 3.109404 1_555
Mg7 Zr0 3.174216 1_556
Mg7 Mg9 3.175699 1_545
Mg7 Sb0 3.192332 1_546
Mg8 Zr0 3.174222 1_555
Mg8 Sb0 3.192326 1_555
Mg9 Zr0 3.174222 1_556
Mg9 Sb0 3.192326 1_556
Mg10 Mg12 3.142669 1_545
Mg10 Mg12 3.142669 1_555
Mg10 Mg2 3.163822 1_555
Mg10 Mg4 3.163828 1_545
Mg10 Mg3 3.174367 1_555
Mg10 Mg5 3.174373 1_545
Mg10 Zr0 3.178366 1_655
Mg10 Mg8 3.184259 1_655
Mg10 Mg6 3.184260 1_655
Mg10 Mg8 3.217511 1_545
Mg10 Mg6 3.217512 1_555
Mg11 Mg13 3.142669 1_545
Mg11 Mg13 3.142669 1_555
Mg11 Mg2 3.163822 1_556
Mg11 Mg4 3.163828 1_546
Mg11 Mg3 3.174367 1_555
Mg11 Mg5 3.174373 1_545
Mg11 Zr0 3.178366 1_656
Mg11 Mg9 3.184259 1_655
Mg11 Mg7 3.184260 1_655
Mg11 Mg9 3.217511 1_545
Mg11 Mg7 3.217512 1_555
Mg12 Mg5 3.155914 1_555
Mg12 Mg3 3.155921 1_555
Mg12 Mg4 3.179726 1_555
Mg12 Mg2 3.179732 1_555
Mg12 Mg6 3.180031 1_555
Mg12 Mg8 3.180031 1_555
Mg12 Sb0 3.199007 1_655
Mg12 Mg6 3.221646 1_665
Mg12 Mg8 3.221647 1_655
Mg13 Mg5 3.155914 1_555
Mg13 Mg3 3.155921 1_555
Mg13 Mg4 3.179726 1_556
Mg13 Mg2 3.179732 1_556
Mg13 Mg7 3.180031 1_555
Mg13 Mg9 3.180031 1_555
Mg13 Sb0 3.199007 1_656
Mg13 Mg7 3.221646 1_665
Mg13 Mg9 3.221647 1_655
Sb0 Zr0 3.142557 1_555
Sb0 Zr0 3.142557 1_565
