# generated using pymatgen
data_NaMg14Ti
_symmetry_space_group_name_H-M   'P 1'
_cell_length_a   6.43702021
_cell_length_b   6.43701967
_cell_length_c   10.19852667
_cell_angle_alpha   90.00000000
_cell_angle_beta   90.00000000
_cell_angle_gamma   120.00000271
_symmetry_Int_Tables_number   1
_chemical_formula_structural   NaMg14Ti
_chemical_formula_sum   'Na1 Mg14 Ti1'
_cell_volume   365.96349368
_cell_formula_units_Z   1
loop_
 _symmetry_equiv_pos_site_id
 _symmetry_equiv_pos_as_xyz
  1  'x, y, z'
loop_
 _atom_site_type_symbol
 _atom_site_label
 _atom_site_symmetry_multiplicity
 _atom_site_fract_x
 _atom_site_fract_y
 _atom_site_fract_z
 _atom_site_occupancy
  Na  Na0  1  0.16666700  0.33333300  0.62500000  1
  Mg  Mg0  1  0.16973047  0.83486474  0.12500000  1
  Mg  Mg1  1  0.16939282  0.83469591  0.62500000  1
  Mg  Mg2  1  0.66513526  0.33026953  0.12500000  1
  Mg  Mg3  1  0.66530409  0.33060718  0.62500000  1
  Mg  Mg4  1  0.66513526  0.83486474  0.12500000  1
  Mg  Mg5  1  0.66530409  0.83469591  0.62500000  1
  Mg  Mg6  1  0.33164868  0.16835132  0.36872887  1
  Mg  Mg7  1  0.33164868  0.16835132  0.88127113  1
  Mg  Mg8  1  0.33164868  0.66329836  0.36872887  1
  Mg  Mg9  1  0.33164868  0.66329836  0.88127113  1
  Mg  Mg10  1  0.83670164  0.16835132  0.36872887  1
  Mg  Mg11  1  0.83670164  0.16835132  0.88127113  1
  Mg  Mg12  1  0.83333300  0.66666700  0.37522518  1
  Mg  Mg13  1  0.83333300  0.66666700  0.87477482  1
  Ti  Ti0  1  0.16666700  0.33333300  0.12500000  1
loop_
_geom_bond_atom_site_label_1
_geom_bond_atom_site_label_2
_geom_bond_distance
_geom_bond_site_symmetry_2
Mg0 Mg8 3.104129 1_555
Mg0 Mg9 3.104129 1_554
Mg0 Mg6 3.104136 1_565
Mg0 Mg7 3.104136 1_564
Mg0 Mg12 3.166867 1_455
Mg0 Mg13 3.166867 1_454
Mg0 Mg2 3.188930 1_565
Mg0 Mg4 3.188931 1_555
Mg0 Ti0 3.218555 1_565
Mg0 Ti0 3.218555 1_555
Mg0 Mg2 3.248089 1_455
Mg0 Mg4 3.248090 1_455
Mg1 Mg13 3.162051 1_455
Mg1 Mg12 3.162051 1_455
Mg1 Mg3 3.192191 1_565
Mg1 Mg5 3.192191 1_555
Mg1 Mg8 3.208002 1_555
Mg1 Mg9 3.208002 1_555
Mg1 Mg6 3.208009 1_565
Mg1 Mg7 3.208009 1_565
Mg1 Na0 3.218546 1_555
Mg1 Na0 3.218546 1_565
Mg1 Mg3 3.244829 1_455
Mg1 Mg5 3.244829 1_455
Mg2 Mg6 3.104136 1_555
Mg2 Mg7 3.104136 1_554
Mg2 Mg4 3.188930 1_545
Mg2 Ti0 3.218555 1_555
Mg2 Ti0 3.218555 1_655
Mg2 Mg4 3.248089 1_555
Mg3 Mg5 3.192191 1_545
Mg3 Mg6 3.208009 1_555
Mg3 Mg7 3.208009 1_555
Mg3 Na0 3.218546 1_555
Mg3 Na0 3.218546 1_655
Mg3 Mg5 3.244829 1_555
Mg4 Mg9 3.104135 1_554
Mg4 Mg8 3.104135 1_555
Mg4 Ti0 3.218555 1_555
Mg4 Ti0 3.218555 1_665
Mg5 Mg8 3.208009 1_555
Mg5 Mg9 3.208009 1_555
Mg5 Na0 3.218546 1_555
Mg5 Na0 3.218546 1_665
Mg6 Ti0 3.092257 1_555
Mg6 Mg8 3.185984 1_555
Mg6 Na0 3.195984 1_555
Mg6 Mg8 3.251036 1_545
Mg7 Ti0 3.092257 1_556
Mg7 Mg9 3.185984 1_555
Mg7 Na0 3.195984 1_555
Mg7 Mg9 3.251036 1_545
Mg8 Ti0 3.092263 1_555
Mg8 Na0 3.195990 1_555
Mg9 Ti0 3.092263 1_556
Mg9 Na0 3.195990 1_555
Mg10 Ti0 3.092264 1_655
Mg10 Mg2 3.104129 1_555
Mg10 Mg4 3.104135 1_545
Mg10 Mg8 3.185984 1_655
Mg10 Mg6 3.185984 1_655
Mg10 Na0 3.195990 1_655
Mg10 Mg3 3.208002 1_555
Mg10 Mg5 3.208008 1_545
Mg10 Mg12 3.219246 1_545
Mg10 Mg12 3.219246 1_555
Mg10 Mg8 3.251036 1_545
Mg10 Mg6 3.251036 1_555
Mg11 Ti0 3.092264 1_656
Mg11 Mg2 3.104129 1_556
Mg11 Mg4 3.104135 1_546
Mg11 Mg9 3.185984 1_655
Mg11 Mg7 3.185984 1_655
Mg11 Na0 3.195990 1_655
Mg11 Mg3 3.208002 1_555
Mg11 Mg5 3.208008 1_545
Mg11 Mg13 3.219246 1_545
Mg11 Mg13 3.219246 1_555
Mg11 Mg9 3.251036 1_545
Mg11 Mg7 3.251036 1_555
Mg12 Mg5 3.162045 1_555
Mg12 Mg3 3.162051 1_555
Mg12 Mg4 3.166860 1_555
Mg12 Mg2 3.166867 1_555
Mg12 Mg6 3.219246 1_665
Mg12 Mg6 3.219246 1_555
Mg12 Mg8 3.219247 1_655
Mg12 Mg8 3.219247 1_555
Mg13 Mg5 3.162045 1_555
Mg13 Mg3 3.162051 1_555
Mg13 Mg4 3.166860 1_556
Mg13 Mg2 3.166867 1_556
Mg13 Mg7 3.219246 1_665
Mg13 Mg7 3.219246 1_555
Mg13 Mg9 3.219247 1_655
Mg13 Mg9 3.219247 1_555
