# generated using pymatgen
data_LuGa2Pd
_symmetry_space_group_name_H-M   'P 1'
_cell_length_a   5.42531750
_cell_length_b   5.42531750
_cell_length_c   6.50959196
_cell_angle_alpha   90.00000000
_cell_angle_beta   90.00000000
_cell_angle_gamma   132.78442346
_symmetry_Int_Tables_number   1
_chemical_formula_structural   LuGa2Pd
_chemical_formula_sum   'Lu2 Ga4 Pd2'
_cell_volume   140.62080601
_cell_formula_units_Z   2
loop_
 _symmetry_equiv_pos_site_id
 _symmetry_equiv_pos_as_xyz
  1  'x, y, z'
loop_
 _atom_site_type_symbol
 _atom_site_label
 _atom_site_symmetry_multiplicity
 _atom_site_fract_x
 _atom_site_fract_y
 _atom_site_fract_z
 _atom_site_occupancy
  Lu  Lu0  1  0.58677217  0.41322783  0.25000000  1
  Lu  Lu1  1  0.41322224  0.58677776  0.75000000  1
  Ga  Ga0  1  0.87292619  0.12707381  0.44708883  1
  Ga  Ga1  1  0.12707485  0.87292515  0.55291063  1
  Ga  Ga2  1  0.87292619  0.12707381  0.05291117  1
  Ga  Ga3  1  0.12707485  0.87292515  0.94708937  1
  Pd  Pd0  1  0.29845979  0.70154021  0.25000000  1
  Pd  Pd1  1  0.70154373  0.29845627  0.75000000  1
loop_
_geom_bond_atom_site_label_1
_geom_bond_atom_site_label_2
_geom_bond_distance
_geom_bond_site_symmetry_2
Lu0 Pd0 2.866554 1_555
Lu0 Pd0 3.024965 1_655
Lu0 Pd0 3.024965 1_545
Lu0 Pd1 3.449036 1_554
Lu0 Pd1 3.449036 1_555
Lu1 Pd1 2.866644 1_555
Lu1 Pd1 3.024902 1_565
Lu1 Pd1 3.024902 1_455
Lu1 Pd0 3.449006 1_555
Lu1 Pd0 3.449006 1_556
Ga0 Ga2 2.565936 1_555
Ga0 Pd1 2.606077 1_555
Ga0 Ga1 2.619093 1_645
Ga0 Pd0 2.629598 1_655
Ga0 Pd0 2.629598 1_545
Ga0 Lu1 2.961289 1_545
Ga0 Lu1 2.961289 1_655
Ga0 Lu0 3.120988 1_555
Ga0 Lu0 3.299578 1_545
Ga0 Lu0 3.299578 1_655
Ga1 Ga3 2.565943 1_555
Ga1 Pd0 2.606090 1_555
Ga1 Pd1 2.629607 1_455
Ga1 Pd1 2.629607 1_565
Ga1 Lu0 2.961295 1_455
Ga1 Lu0 2.961295 1_565
Ga1 Lu1 3.120929 1_555
Ga1 Lu1 3.299621 1_565
Ga1 Lu1 3.299621 1_455
Ga2 Pd1 2.606077 1_554
Ga2 Ga3 2.619093 1_644
Ga2 Pd0 2.629598 1_655
Ga2 Pd0 2.629598 1_545
Ga2 Lu1 2.961289 1_544
Ga2 Lu1 2.961289 1_654
Ga2 Lu0 3.120988 1_555
Ga2 Lu0 3.299578 1_545
Ga2 Lu0 3.299578 1_655
Ga3 Pd0 2.606090 1_556
Ga3 Pd1 2.629607 1_455
Ga3 Pd1 2.629607 1_565
Ga3 Lu0 2.961295 1_456
Ga3 Lu0 2.961295 1_566
Ga3 Lu1 3.120929 1_555
Ga3 Lu1 3.299621 1_565
Ga3 Lu1 3.299621 1_455
