# generated using pymatgen
data_Mg149Ru
_symmetry_space_group_name_H-M   'P 1'
_cell_length_a   15.92221169
_cell_length_b   15.92221709
_cell_length_c   15.63554652
_cell_angle_alpha   90.00000000
_cell_angle_beta   90.00000000
_cell_angle_gamma   120.00001320
_symmetry_Int_Tables_number   1
_chemical_formula_structural   Mg149Ru
_chemical_formula_sum   'Mg149 Ru1'
_cell_volume   3432.81638672
_cell_formula_units_Z   1
loop_
 _symmetry_equiv_pos_site_id
 _symmetry_equiv_pos_as_xyz
  1  'x, y, z'
loop_
 _atom_site_type_symbol
 _atom_site_label
 _atom_site_symmetry_multiplicity
 _atom_site_fract_x
 _atom_site_fract_y
 _atom_site_fract_z
 _atom_site_occupancy
  Mg  Mg0  1  0.39743088  0.00033966  -0.00000000  1
  Mg  Mg1  1  0.60290778  0.00033966  -0.00000000  1
  Mg  Mg2  1  0.18963858  0.00178032  -0.00000000  1
  Mg  Mg3  1  0.81214274  0.00178032  -0.00000000  1
  Mg  Mg4  1  0.99821868  0.18785726  -0.00000000  1
  Mg  Mg5  1  0.18963858  0.18785826  -0.00000000  1
  Mg  Mg6  1  0.39777797  0.19888948  -0.00000000  1
  Mg  Mg7  1  0.80111152  0.19888948  -0.00000000  1
  Mg  Mg8  1  0.59974234  0.19948368  -0.00000000  1
  Mg  Mg9  1  0.19830839  0.39661777  -0.00000000  1
  Mg  Mg10  1  0.39743088  0.39709122  -0.00000000  1
  Mg  Mg11  1  0.99966034  0.39709122  -0.00000000  1
  Mg  Mg12  1  0.80051532  0.40025766  -0.00000000  1
  Mg  Mg13  1  0.59974234  0.40025866  -0.00000000  1
  Mg  Mg14  1  0.40019790  0.59980210  -0.00000000  1
  Mg  Mg15  1  0.19960319  0.59980210  -0.00000000  1
  Mg  Mg16  1  0.80111152  0.60222203  -0.00000000  1
  Mg  Mg17  1  0.60290778  0.60256812  -0.00000000  1
  Mg  Mg18  1  0.99966034  0.60256812  -0.00000000  1
  Mg  Mg19  1  0.40019790  0.80039581  -0.00000000  1
  Mg  Mg20  1  0.60338323  0.80169161  -0.00000000  1
  Mg  Mg21  1  0.19830839  0.80169161  -0.00000000  1
  Mg  Mg22  1  0.99821868  0.81036142  -0.00000000  1
  Mg  Mg23  1  0.81214274  0.81036142  -0.00000000  1
  Mg  Mg24  1  0.06302139  0.12604178  0.15662399  1
  Mg  Mg25  1  0.06302139  0.93697861  0.15662399  1
  Mg  Mg26  1  0.87395822  0.93697961  0.15662399  1
  Mg  Mg27  1  0.06603428  0.33074851  0.16539160  1
  Mg  Mg28  1  0.26471423  0.33074851  0.16539160  1
  Mg  Mg29  1  0.06603428  0.73528677  0.16539160  1
  Mg  Mg30  1  0.66925249  0.73528677  0.16539160  1
  Mg  Mg31  1  0.66925249  0.93396572  0.16539160  1
  Mg  Mg32  1  0.26471423  0.93396572  0.16539160  1
  Mg  Mg33  1  0.06656439  0.53328220  0.16599782  1
  Mg  Mg34  1  0.46671780  0.53328220  0.16599782  1
  Mg  Mg35  1  0.46671780  0.93343561  0.16599782  1
  Mg  Mg36  1  0.26635847  0.53271593  0.16622812  1
  Mg  Mg37  1  0.46728407  0.73364153  0.16622812  1
  Mg  Mg38  1  0.26635847  0.73364253  0.16622812  1
  Mg  Mg39  1  0.46720630  0.13369382  0.16670304  1
  Mg  Mg40  1  0.66648752  0.13369382  0.16670304  1
  Mg  Mg41  1  0.46720630  0.33351248  0.16670304  1
  Mg  Mg42  1  0.86630618  0.33351248  0.16670304  1
  Mg  Mg43  1  0.86630618  0.53279370  0.16670304  1
  Mg  Mg44  1  0.66648752  0.53279370  0.16670304  1
  Mg  Mg45  1  0.66666700  0.33333400  0.16670552  1
  Mg  Mg46  1  0.86554411  0.13445589  0.16720499  1
  Mg  Mg47  1  0.26891179  0.13445589  0.16720499  1
  Mg  Mg48  1  0.86554411  0.73108821  0.16720499  1
  Mg  Mg49  1  0.19857997  0.19896557  0.33091568  1
  Mg  Mg50  1  0.00038560  0.19896557  0.33091568  1
  Mg  Mg51  1  0.00038560  0.80142103  0.33091568  1
  Mg  Mg52  1  0.80103543  0.80142103  0.33091568  1
  Mg  Mg53  1  0.19857997  0.99961440  0.33091568  1
  Mg  Mg54  1  0.80103543  0.99961440  0.33091568  1
  Mg  Mg55  1  -0.00000000  0.00000000  0.33178828  1
  Mg  Mg56  1  0.39932336  0.99983635  0.33269219  1
  Mg  Mg57  1  0.60051299  0.99983735  0.33269219  1
  Mg  Mg58  1  0.00016265  0.39948601  0.33269219  1
  Mg  Mg59  1  0.39932336  0.39948601  0.33269219  1
  Mg  Mg60  1  0.60051299  0.60067664  0.33269219  1
  Mg  Mg61  1  0.00016265  0.60067664  0.33269219  1
  Mg  Mg62  1  0.19997636  0.39995271  0.33301959  1
  Mg  Mg63  1  0.60004729  0.80002364  0.33301959  1
  Mg  Mg64  1  0.19997636  0.80002364  0.33301959  1
  Mg  Mg65  1  0.19999900  0.59999950  0.33335144  1
  Mg  Mg66  1  0.40000050  0.59999950  0.33335144  1
  Mg  Mg67  1  0.40000050  0.80000100  0.33335144  1
  Mg  Mg68  1  0.59981631  0.19963262  0.33350909  1
  Mg  Mg69  1  0.59981631  0.40018369  0.33350909  1
  Mg  Mg70  1  0.80036738  0.40018369  0.33350909  1
  Mg  Mg71  1  0.80006842  0.19993058  0.33364705  1
  Mg  Mg72  1  0.39986216  0.19993058  0.33364705  1
  Mg  Mg73  1  0.80006842  0.60013784  0.33364705  1
  Mg  Mg74  1  0.26606121  0.13303010  0.50000000  1
  Mg  Mg75  1  0.86696990  0.13303010  0.50000000  1
  Mg  Mg76  1  0.06657624  0.13315249  0.50000000  1
  Mg  Mg77  1  0.46685280  0.13346968  0.50000000  1
  Mg  Mg78  1  0.66661788  0.13346968  0.50000000  1
  Mg  Mg79  1  0.26637958  0.33268824  0.50000000  1
  Mg  Mg80  1  0.06630866  0.33268824  0.50000000  1
  Mg  Mg81  1  0.86652932  0.33338212  0.50000000  1
  Mg  Mg82  1  0.46685280  0.33338212  0.50000000  1
  Mg  Mg83  1  0.66666700  0.33333400  0.50000000  1
  Mg  Mg84  1  0.26646856  0.53293812  0.50000000  1
  Mg  Mg85  1  0.46687642  0.53312258  0.50000000  1
  Mg  Mg86  1  0.06624615  0.53312358  0.50000000  1
  Mg  Mg87  1  0.86652932  0.53314720  0.50000000  1
  Mg  Mg88  1  0.66661788  0.53314820  0.50000000  1
  Mg  Mg89  1  0.46706188  0.73353144  0.50000000  1
  Mg  Mg90  1  0.26646856  0.73353144  0.50000000  1
  Mg  Mg91  1  0.06630866  0.73362042  0.50000000  1
  Mg  Mg92  1  0.66731176  0.73362042  0.50000000  1
  Mg  Mg93  1  0.86696990  0.73393979  0.50000000  1
  Mg  Mg94  1  0.06657624  0.93342376  0.50000000  1
  Mg  Mg95  1  0.86684751  0.93342376  0.50000000  1
  Mg  Mg96  1  0.46687642  0.93375385  0.50000000  1
  Mg  Mg97  1  0.26637958  0.93369134  0.50000000  1
  Mg  Mg98  1  0.66731176  0.93369134  0.50000000  1
  Mg  Mg99  1  0.80006842  0.19993058  0.66635195  1
  Mg  Mg100  1  0.39986216  0.19993058  0.66635195  1
  Mg  Mg101  1  0.80006842  0.60013784  0.66635195  1
  Mg  Mg102  1  0.59981631  0.19963262  0.66649091  1
  Mg  Mg103  1  0.59981631  0.40018369  0.66649091  1
  Mg  Mg104  1  0.80036738  0.40018369  0.66649091  1
  Mg  Mg105  1  0.19999900  0.59999950  0.66664856  1
  Mg  Mg106  1  0.40000050  0.59999950  0.66664856  1
  Mg  Mg107  1  0.40000050  0.80000100  0.66664856  1
  Mg  Mg108  1  0.19997636  0.39995271  0.66698041  1
  Mg  Mg109  1  0.60004729  0.80002364  0.66698041  1
  Mg  Mg110  1  0.19997636  0.80002364  0.66698041  1
  Mg  Mg111  1  0.39932336  0.99983635  0.66730781  1
  Mg  Mg112  1  0.60051299  0.99983735  0.66730781  1
  Mg  Mg113  1  0.00016265  0.39948601  0.66730781  1
  Mg  Mg114  1  0.39932336  0.39948601  0.66730781  1
  Mg  Mg115  1  0.60051299  0.60067664  0.66730781  1
  Mg  Mg116  1  0.00016265  0.60067664  0.66730781  1
  Mg  Mg117  1  -0.00000000  0.00000000  0.66821072  1
  Mg  Mg118  1  0.19857997  0.19896557  0.66908432  1
  Mg  Mg119  1  0.00038560  0.19896557  0.66908432  1
  Mg  Mg120  1  0.00038560  0.80142103  0.66908432  1
  Mg  Mg121  1  0.80103543  0.80142103  0.66908432  1
  Mg  Mg122  1  0.19857997  0.99961440  0.66908432  1
  Mg  Mg123  1  0.80103543  0.99961440  0.66908432  1
  Mg  Mg124  1  0.86554411  0.13445589  0.83279601  1
  Mg  Mg125  1  0.26891179  0.13445589  0.83279601  1
  Mg  Mg126  1  0.86554411  0.73108821  0.83279601  1
  Mg  Mg127  1  0.66666700  0.33333400  0.83329548  1
  Mg  Mg128  1  0.46720630  0.13369382  0.83329696  1
  Mg  Mg129  1  0.66648752  0.13369382  0.83329696  1
  Mg  Mg130  1  0.46720630  0.33351248  0.83329696  1
  Mg  Mg131  1  0.86630618  0.33351248  0.83329696  1
  Mg  Mg132  1  0.86630618  0.53279370  0.83329696  1
  Mg  Mg133  1  0.66648752  0.53279370  0.83329696  1
  Mg  Mg134  1  0.26635847  0.53271593  0.83377188  1
  Mg  Mg135  1  0.46728407  0.73364153  0.83377188  1
  Mg  Mg136  1  0.26635847  0.73364253  0.83377188  1
  Mg  Mg137  1  0.06656439  0.53328220  0.83400318  1
  Mg  Mg138  1  0.46671780  0.53328220  0.83400318  1
  Mg  Mg139  1  0.46671780  0.93343561  0.83400318  1
  Mg  Mg140  1  0.06603428  0.33074851  0.83460840  1
  Mg  Mg141  1  0.26471423  0.33074851  0.83460840  1
  Mg  Mg142  1  0.06603428  0.73528677  0.83460840  1
  Mg  Mg143  1  0.66925249  0.73528677  0.83460840  1
  Mg  Mg144  1  0.66925249  0.93396572  0.83460840  1
  Mg  Mg145  1  0.26471423  0.93396572  0.83460840  1
  Mg  Mg146  1  0.06302139  0.12604178  0.84337601  1
  Mg  Mg147  1  0.06302139  0.93697861  0.84337601  1
  Mg  Mg148  1  0.87395822  0.93697961  0.84337601  1
  Ru  Ru0  1  -0.00000000  0.00000000  -0.00000000  1
loop_
_geom_bond_atom_site_label_1
_geom_bond_atom_site_label_2
_geom_bond_distance
_geom_bond_site_symmetry_2
Mg0 Mg6 3.158594 1_555
Mg0 Mg21 3.166700 1_545
Mg0 Mg32 3.168022 1_545
Mg0 Mg145 3.168022 1_544
Mg0 Mg39 3.190223 1_555
Mg0 Mg128 3.190223 1_554
Mg0 Mg8 3.196328 1_555
Mg0 Mg139 3.203654 1_544
Mg0 Mg35 3.203666 1_545
Mg0 Mg19 3.205805 1_545
Mg0 Mg1 3.271647 1_555
Mg0 Mg2 3.320042 1_555
Mg1 Mg7 3.158601 1_555
Mg1 Mg20 3.166709 1_545
Mg1 Mg31 3.168038 1_545
Mg1 Mg144 3.168038 1_544
Mg1 Mg40 3.190223 1_555
Mg1 Mg129 3.190223 1_554
Mg1 Mg8 3.196313 1_555
Mg1 Mg139 3.203645 1_544
Mg1 Mg35 3.203658 1_545
Mg1 Mg19 3.205796 1_545
Mg1 Mg3 3.320074 1_555
Mg2 Mg5 2.962773 1_555
Mg2 Ru0 3.005393 1_555
Mg2 Mg25 3.007649 1_545
Mg2 Mg22 3.047820 1_445
Mg2 Mg47 3.197524 1_555
Mg2 Mg6 3.229810 1_555
Mg2 Mg32 3.251590 1_545
Mg2 Mg21 3.257072 1_545
Mg3 Mg4 2.962748 1_555
Mg3 Ru0 3.005377 1_655
Mg3 Mg46 3.197525 1_555
Mg3 Mg7 3.229819 1_555
Mg3 Mg31 3.251589 1_545
Mg4 Ru0 3.005386 1_655
Mg4 Mg5 3.047820 1_655
Mg4 Mg46 3.197516 1_555
Mg4 Mg7 3.229795 1_555
Mg4 Mg9 3.257095 1_655
Mg5 Ru0 3.005392 1_555
Mg5 Mg6 3.229803 1_555
Mg5 Mg9 3.257088 1_555
Mg6 Mg8 3.210999 1_555
Mg7 Mg8 3.210984 1_555
Mg10 Mg6 3.158578 1_555
Mg10 Mg9 3.166708 1_555
Mg10 Mg28 3.168022 1_555
Mg10 Mg141 3.168022 1_554
Mg10 Mg41 3.190223 1_555
Mg10 Mg130 3.190223 1_554
Mg10 Mg13 3.196328 1_555
Mg10 Mg138 3.203654 1_554
Mg10 Mg34 3.203666 1_555
Mg10 Mg14 3.205805 1_555
Mg10 Mg17 3.271647 1_555
Mg10 Mg5 3.320042 1_555
Mg11 Mg7 3.158577 1_555
Mg11 Mg9 3.166692 1_655
Mg11 Mg27 3.168022 1_655
Mg11 Mg140 3.168022 1_654
Mg11 Mg42 3.190223 1_555
Mg11 Mg131 3.190223 1_554
Mg11 Mg12 3.196336 1_555
Mg11 Mg137 3.203654 1_654
Mg11 Mg33 3.203666 1_655
Mg11 Mg15 3.205796 1_655
Mg11 Mg18 3.271648 1_555
Mg11 Mg4 3.320051 1_555
Mg12 Mg43 3.183361 1_555
Mg12 Mg132 3.183361 1_554
Mg12 Mg42 3.183361 1_555
Mg12 Mg131 3.183361 1_554
Mg12 Mg127 3.193793 1_554
Mg12 Mg45 3.193806 1_555
Mg12 Mg18 3.196328 1_555
Mg12 Mg8 3.196758 1_555
Mg12 Mg13 3.196758 1_555
Mg12 Mg16 3.210985 1_555
Mg12 Mg7 3.210985 1_555
Mg13 Mg44 3.183353 1_555
Mg13 Mg133 3.183353 1_554
Mg13 Mg130 3.183360 1_554
Mg13 Mg41 3.183360 1_555
Mg13 Mg45 3.193814 1_555
Mg13 Mg17 3.196313 1_555
Mg13 Mg8 3.196783 1_555
Mg13 Mg16 3.210983 1_555
Mg13 Mg6 3.210991 1_555
Mg14 Mg34 3.178334 1_555
Mg14 Mg36 3.187647 1_555
Mg14 Mg37 3.187647 1_555
Mg14 Mg19 3.193897 1_555
Mg14 Mg15 3.193911 1_555
Mg14 Mg17 3.205796 1_555
Mg14 Mg9 3.224885 1_555
Mg14 Mg20 3.224893 1_555
Mg15 Mg33 3.178326 1_555
Mg15 Mg38 3.187655 1_555
Mg15 Mg36 3.187663 1_555
Mg15 Mg19 3.193903 1_555
Mg15 Mg18 3.205780 1_455
Mg15 Mg21 3.224886 1_555
Mg15 Mg9 3.224886 1_555
Mg16 Mg18 3.158585 1_555
Mg16 Mg17 3.158601 1_555
Mg16 Mg48 3.161060 1_555
Mg16 Mg43 3.200137 1_555
Mg16 Mg44 3.200144 1_555
Mg16 Mg22 3.229795 1_555
Mg16 Mg23 3.229804 1_555
Mg17 Mg20 3.166709 1_555
Mg17 Mg30 3.168038 1_555
Mg17 Mg44 3.190223 1_555
Mg17 Mg34 3.203658 1_555
Mg17 Mg23 3.320066 1_555
Mg18 Mg21 3.166708 1_655
Mg18 Mg29 3.168038 1_655
Mg18 Mg43 3.190222 1_555
Mg18 Mg33 3.203658 1_655
Mg18 Mg22 3.320067 1_555
Mg19 Mg35 3.178334 1_555
Mg19 Mg38 3.187647 1_555
Mg19 Mg37 3.187655 1_555
Mg19 Mg21 3.224893 1_555
Mg19 Mg20 3.224893 1_555
Mg20 Mg30 3.164504 1_555
Mg20 Mg31 3.164504 1_555
Mg20 Mg37 3.205786 1_555
Mg20 Mg3 3.257079 1_565
Mg20 Mg23 3.257086 1_555
Mg21 Mg29 3.164504 1_555
Mg21 Mg32 3.164504 1_555
Mg21 Mg38 3.205787 1_555
Mg21 Mg22 3.257087 1_455
Mg22 Mg23 2.962741 1_555
Mg22 Ru0 3.005386 1_665
Mg22 Mg25 3.007650 1_655
Mg22 Mg48 3.197516 1_555
Mg22 Mg29 3.251589 1_655
Mg23 Ru0 3.005385 1_665
Mg23 Mg26 3.007658 1_555
Mg23 Mg3 3.047813 1_565
Mg23 Mg48 3.197516 1_555
Mg23 Mg30 3.251589 1_555
Mg24 Ru0 3.002956 1_555
Mg24 Mg5 3.007649 1_555
Mg24 Mg4 3.007658 1_455
Mg24 Mg26 3.010296 1_445
Mg24 Mg25 3.010305 1_545
Mg24 Mg47 3.217596 1_555
Mg24 Mg46 3.217612 1_455
Mg24 Mg28 3.238560 1_555
Mg24 Mg27 3.238568 1_555
Mg24 Mg55 3.243701 1_555
Mg24 Mg49 3.305620 1_555
Mg24 Mg50 3.305628 1_555
Mg25 Ru0 3.002965 1_565
Mg25 Mg26 3.010312 1_455
Mg25 Mg47 3.217603 1_565
Mg25 Mg48 3.217604 1_455
Mg25 Mg29 3.238537 1_555
Mg25 Mg32 3.238551 1_555
Mg25 Mg55 3.243708 1_565
Mg25 Mg51 3.305612 1_555
Mg25 Mg53 3.305619 1_555
Mg26 Ru0 3.002956 1_665
Mg26 Mg3 3.007641 1_565
Mg26 Mg46 3.217597 1_565
Mg26 Mg48 3.217613 1_555
Mg26 Mg31 3.238544 1_555
Mg26 Mg30 3.238551 1_555
Mg26 Mg55 3.243701 1_665
Mg26 Mg54 3.305612 1_555
Mg26 Mg52 3.305620 1_555
Mg27 Mg46 3.159487 1_455
Mg27 Mg50 3.162300 1_555
Mg27 Mg28 3.163424 1_555
Mg27 Mg9 3.164504 1_555
Mg27 Mg42 3.202410 1_455
Mg27 Mg36 3.202793 1_555
Mg27 Mg62 3.206529 1_555
Mg27 Mg58 3.207545 1_555
Mg27 Mg33 3.220587 1_555
Mg27 Mg4 3.251598 1_455
Mg28 Mg47 3.159488 1_555
Mg28 Mg49 3.162300 1_555
Mg28 Mg9 3.164512 1_555
Mg28 Mg41 3.202410 1_555
Mg28 Mg36 3.202786 1_555
Mg28 Mg62 3.206530 1_555
Mg28 Mg59 3.207544 1_555
Mg28 Mg34 3.220586 1_555
Mg28 Mg5 3.251590 1_555
Mg29 Mg48 3.159479 1_455
Mg29 Mg51 3.162300 1_555
Mg29 Mg32 3.163416 1_555
Mg29 Mg43 3.202418 1_455
Mg29 Mg38 3.202801 1_555
Mg29 Mg64 3.206529 1_555
Mg29 Mg61 3.207553 1_555
Mg29 Mg33 3.220603 1_555
Mg30 Mg48 3.159480 1_555
Mg30 Mg52 3.162299 1_555
Mg30 Mg31 3.163409 1_555
Mg30 Mg44 3.202419 1_555
Mg30 Mg37 3.202793 1_555
Mg30 Mg63 3.206530 1_555
Mg30 Mg60 3.207553 1_555
Mg30 Mg34 3.220602 1_555
Mg31 Mg46 3.159479 1_565
Mg31 Mg54 3.162299 1_555
Mg31 Mg40 3.202419 1_565
Mg31 Mg37 3.202801 1_555
Mg31 Mg63 3.206530 1_555
Mg31 Mg57 3.207561 1_555
Mg31 Mg35 3.220602 1_555
Mg32 Mg47 3.159488 1_565
Mg32 Mg53 3.162300 1_555
Mg32 Mg39 3.202410 1_565
Mg32 Mg38 3.202786 1_555
Mg32 Mg64 3.206530 1_555
Mg32 Mg56 3.207544 1_555
Mg32 Mg35 3.220586 1_555
Mg33 Mg42 3.184691 1_455
Mg33 Mg43 3.184691 1_455
Mg33 Mg38 3.185683 1_555
Mg33 Mg36 3.185683 1_555
Mg33 Mg61 3.193258 1_555
Mg33 Mg58 3.193258 1_555
Mg33 Mg65 3.198796 1_555
Mg34 Mg44 3.184691 1_555
Mg34 Mg41 3.184692 1_555
Mg34 Mg36 3.185667 1_555
Mg34 Mg37 3.185668 1_555
Mg34 Mg60 3.193250 1_555
Mg34 Mg59 3.193258 1_555
Mg34 Mg66 3.198797 1_555
Mg35 Mg40 3.184691 1_565
Mg35 Mg39 3.184692 1_565
Mg35 Mg38 3.185667 1_555
Mg35 Mg37 3.185684 1_555
Mg35 Mg57 3.193250 1_555
Mg35 Mg56 3.193250 1_555
Mg35 Mg67 3.198797 1_555
Mg36 Mg62 3.186283 1_555
Mg36 Mg66 3.197507 1_555
Mg36 Mg65 3.197516 1_555
Mg36 Mg37 3.199180 1_555
Mg36 Mg38 3.199197 1_555
Mg36 Mg9 3.205779 1_555
Mg37 Mg63 3.186282 1_555
Mg37 Mg66 3.197508 1_555
Mg37 Mg67 3.197516 1_555
Mg37 Mg38 3.199188 1_555
Mg38 Mg64 3.186283 1_555
Mg38 Mg67 3.197507 1_555
Mg38 Mg65 3.197516 1_555
Mg39 Mg47 3.163381 1_555
Mg39 Mg40 3.172998 1_555
Mg39 Mg45 3.177285 1_555
Mg39 Mg41 3.181556 1_555
Mg39 Mg8 3.183360 1_555
Mg39 Mg56 3.184781 1_545
Mg39 Mg68 3.185261 1_555
Mg39 Mg72 3.194735 1_555
Mg39 Mg6 3.200145 1_555
Mg40 Mg46 3.163381 1_555
Mg40 Mg45 3.177286 1_555
Mg40 Mg42 3.181555 1_555
Mg40 Mg8 3.183353 1_555
Mg40 Mg57 3.184773 1_545
Mg40 Mg68 3.185261 1_555
Mg40 Mg71 3.194734 1_555
Mg40 Mg7 3.200144 1_555
Mg41 Mg47 3.163381 1_555
Mg41 Mg44 3.172998 1_555
Mg41 Mg45 3.177277 1_555
Mg41 Mg59 3.184773 1_555
Mg41 Mg69 3.185261 1_555
Mg41 Mg72 3.194743 1_555
Mg41 Mg6 3.200137 1_555
Mg42 Mg46 3.163383 1_555
Mg42 Mg43 3.172999 1_555
Mg42 Mg45 3.177277 1_555
Mg42 Mg58 3.184772 1_655
Mg42 Mg70 3.185261 1_555
Mg42 Mg71 3.194743 1_555
Mg42 Mg7 3.200137 1_555
Mg43 Mg48 3.163382 1_555
Mg43 Mg45 3.177269 1_555
Mg43 Mg44 3.181555 1_555
Mg43 Mg61 3.184772 1_655
Mg43 Mg70 3.185261 1_555
Mg43 Mg73 3.194743 1_555
Mg44 Mg48 3.163381 1_555
Mg44 Mg45 3.177270 1_555
Mg44 Mg60 3.184781 1_555
Mg44 Mg69 3.185261 1_555
Mg44 Mg73 3.194734 1_555
Mg45 Mg8 3.193822 1_555
Mg45 Mg70 3.193879 1_555
Mg45 Mg69 3.193879 1_555
Mg45 Mg68 3.193887 1_555
Mg46 Mg7 3.161060 1_555
Mg46 Mg50 3.164075 1_655
Mg46 Mg54 3.164075 1_545
Mg46 Mg71 3.167496 1_555
Mg47 Mg6 3.161060 1_555
Mg47 Mg53 3.164075 1_545
Mg47 Mg49 3.164075 1_555
Mg47 Mg72 3.167496 1_555
Mg47 Mg5 3.197524 1_555
Mg48 Mg51 3.164075 1_655
Mg48 Mg52 3.164075 1_555
Mg48 Mg73 3.167496 1_555
Mg49 Mg50 3.155693 1_555
Mg49 Mg55 3.164936 1_555
Mg49 Mg53 3.174113 1_545
Mg49 Mg62 3.189272 1_555
Mg49 Mg59 3.194626 1_555
Mg49 Mg72 3.197488 1_555
Mg49 Mg76 3.209741 1_555
Mg49 Mg74 3.220853 1_555
Mg49 Mg79 3.223275 1_555
Mg50 Mg55 3.164937 1_555
Mg50 Mg54 3.174103 1_445
Mg50 Mg62 3.189271 1_555
Mg50 Mg58 3.194627 1_555
Mg50 Mg71 3.197488 1_455
Mg50 Mg76 3.209742 1_555
Mg50 Mg75 3.220844 1_455
Mg50 Mg80 3.223275 1_555
Mg51 Mg53 3.155685 1_555
Mg51 Mg55 3.164921 1_565
Mg51 Mg52 3.174096 1_455
Mg51 Mg64 3.189279 1_555
Mg51 Mg61 3.194643 1_555
Mg51 Mg73 3.197496 1_455
Mg51 Mg94 3.209734 1_555
Mg51 Mg93 3.220844 1_455
Mg51 Mg91 3.223283 1_555
Mg52 Mg54 3.155678 1_555
Mg52 Mg55 3.164920 1_665
Mg52 Mg63 3.189279 1_555
Mg52 Mg60 3.194650 1_555
Mg52 Mg73 3.197489 1_555
Mg52 Mg95 3.209734 1_555
Mg52 Mg93 3.220845 1_555
Mg52 Mg92 3.223283 1_555
Mg53 Mg55 3.164936 1_565
Mg53 Mg64 3.189272 1_555
Mg53 Mg56 3.194634 1_555
Mg53 Mg72 3.197480 1_565
Mg53 Mg94 3.209741 1_555
Mg53 Mg74 3.220845 1_565
Mg53 Mg97 3.223275 1_555
Mg54 Mg55 3.164920 1_665
Mg54 Mg63 3.189279 1_555
Mg54 Mg57 3.194658 1_555
Mg54 Mg71 3.197489 1_565
Mg54 Mg95 3.209734 1_555
Mg54 Mg75 3.220845 1_565
Mg54 Mg98 3.223283 1_555
Mg55 Mg95 3.207552 1_445
Mg55 Mg94 3.207553 1_545
Mg55 Mg76 3.207553 1_555
Mg56 Mg64 3.177763 1_555
Mg56 Mg72 3.181698 1_565
Mg56 Mg68 3.186785 1_565
Mg56 Mg67 3.187243 1_555
Mg56 Mg97 3.194326 1_555
Mg56 Mg77 3.199808 1_565
Mg56 Mg96 3.199827 1_555
Mg56 Mg57 3.203376 1_555
Mg57 Mg63 3.177780 1_555
Mg57 Mg71 3.181689 1_565
Mg57 Mg68 3.186770 1_565
Mg57 Mg67 3.187250 1_555
Mg57 Mg98 3.194334 1_555
Mg57 Mg78 3.199800 1_565
Mg57 Mg96 3.199835 1_555
Mg58 Mg62 3.177771 1_555
Mg58 Mg71 3.181697 1_455
Mg58 Mg70 3.186777 1_455
Mg58 Mg65 3.187258 1_555
Mg58 Mg80 3.194326 1_555
Mg58 Mg81 3.199808 1_455
Mg58 Mg86 3.199843 1_555
Mg58 Mg61 3.203401 1_555
Mg59 Mg62 3.177771 1_555
Mg59 Mg72 3.181698 1_555
Mg59 Mg69 3.186777 1_555
Mg59 Mg66 3.187259 1_555
Mg59 Mg79 3.194326 1_555
Mg59 Mg82 3.199808 1_555
Mg59 Mg85 3.199835 1_555
Mg59 Mg60 3.203392 1_555
Mg60 Mg63 3.177764 1_555
Mg60 Mg73 3.181697 1_555
Mg60 Mg69 3.186786 1_555
Mg60 Mg66 3.187242 1_555
Mg60 Mg92 3.194326 1_555
Mg60 Mg88 3.199808 1_555
Mg60 Mg85 3.199835 1_555
Mg61 Mg64 3.177771 1_555
Mg61 Mg73 3.181697 1_455
Mg61 Mg70 3.186777 1_455
Mg61 Mg65 3.187258 1_555
Mg61 Mg91 3.194326 1_555
Mg61 Mg87 3.199808 1_455
Mg61 Mg86 3.199835 1_555
Mg62 Mg66 3.185011 1_555
Mg62 Mg65 3.185012 1_555
Mg62 Mg84 3.190461 1_555
Mg62 Mg80 3.195885 1_555
Mg62 Mg79 3.195885 1_555
Mg63 Mg66 3.185011 1_555
Mg63 Mg67 3.185011 1_555
Mg63 Mg89 3.190461 1_555
Mg63 Mg92 3.195885 1_555
Mg63 Mg98 3.195885 1_555
Mg64 Mg67 3.185011 1_555
Mg64 Mg65 3.185012 1_555
Mg64 Mg90 3.190453 1_555
Mg64 Mg91 3.195885 1_555
Mg64 Mg97 3.195885 1_555
Mg65 Mg67 3.184466 1_555
Mg65 Mg66 3.184466 1_555
Mg65 Mg84 3.190555 1_555
Mg65 Mg90 3.190563 1_555
Mg65 Mg86 3.192318 1_555
Mg66 Mg67 3.184467 1_555
Mg66 Mg84 3.190563 1_555
Mg66 Mg89 3.190563 1_555
Mg66 Mg85 3.192318 1_555
Mg67 Mg89 3.190555 1_555
Mg67 Mg90 3.190563 1_555
Mg67 Mg96 3.192318 1_555
Mg68 Mg77 3.184031 1_555
Mg68 Mg78 3.184039 1_555
Mg68 Mg71 3.186088 1_555
Mg68 Mg72 3.186088 1_555
Mg68 Mg83 3.189897 1_555
Mg68 Mg70 3.193216 1_555
Mg68 Mg69 3.193218 1_555
Mg69 Mg82 3.184031 1_555
Mg69 Mg88 3.184039 1_555
Mg69 Mg73 3.186088 1_555
Mg69 Mg72 3.186096 1_555
Mg69 Mg83 3.189889 1_555
Mg69 Mg70 3.193217 1_555
Mg70 Mg87 3.184031 1_555
Mg70 Mg81 3.184031 1_555
Mg70 Mg71 3.186097 1_555
Mg70 Mg73 3.186097 1_555
Mg70 Mg83 3.189888 1_555
Mg71 Mg78 3.186140 1_555
Mg71 Mg81 3.186148 1_555
Mg71 Mg75 3.188939 1_555
Mg72 Mg82 3.186148 1_555
Mg72 Mg77 3.186148 1_555
Mg72 Mg74 3.188930 1_555
Mg73 Mg88 3.186140 1_555
Mg73 Mg87 3.186148 1_555
Mg73 Mg93 3.188939 1_555
Mg74 Mg97 3.176453 1_545
Mg74 Mg79 3.176469 1_555
Mg74 Mg94 3.177209 1_545
Mg74 Mg76 3.177217 1_555
Mg74 Mg82 3.193552 1_555
Mg74 Mg77 3.193552 1_555
Mg75 Mg98 3.176460 1_545
Mg75 Mg80 3.176460 1_655
Mg75 Mg76 3.177200 1_655
Mg75 Mg95 3.177202 1_545
Mg75 Mg99 3.188926 1_555
Mg75 Mg78 3.193553 1_555
Mg75 Mg81 3.193562 1_555
Mg76 Mg79 3.179183 1_555
Mg76 Mg80 3.179184 1_555
Mg76 Mg95 3.180123 1_445
Mg76 Mg94 3.180124 1_545
Mg77 Mg96 3.180107 1_545
Mg77 Mg78 3.180702 1_555
Mg77 Mg83 3.181883 1_555
Mg77 Mg82 3.183049 1_555
Mg77 Mg97 3.186459 1_545
Mg78 Mg96 3.180122 1_545
Mg78 Mg83 3.181892 1_555
Mg78 Mg81 3.183040 1_555
Mg78 Mg99 3.186127 1_555
Mg78 Mg98 3.186453 1_545
Mg79 Mg80 3.185572 1_555
Mg79 Mg82 3.186467 1_555
Mg79 Mg84 3.187714 1_555
Mg79 Mg85 3.191856 1_555
Mg80 Mg81 3.186467 1_455
Mg80 Mg84 3.187705 1_555
Mg80 Mg86 3.191873 1_555
Mg81 Mg86 3.180130 1_655
Mg81 Mg87 3.180703 1_555
Mg81 Mg83 3.181867 1_555
Mg81 Mg99 3.186136 1_555
Mg82 Mg85 3.180123 1_555
Mg82 Mg88 3.180710 1_555
Mg82 Mg83 3.181867 1_555
Mg83 Mg87 3.181859 1_555
Mg83 Mg88 3.181876 1_555
Mg84 Mg86 3.189461 1_555
Mg84 Mg85 3.189469 1_555
Mg84 Mg89 3.193889 1_555
Mg84 Mg90 3.193890 1_555
Mg85 Mg88 3.180122 1_555
Mg85 Mg89 3.189478 1_555
Mg85 Mg92 3.191872 1_555
Mg86 Mg87 3.180122 1_455
Mg86 Mg90 3.189461 1_555
Mg86 Mg91 3.191857 1_555
Mg87 Mg88 3.183040 1_555
Mg87 Mg91 3.186467 1_655
Mg87 Mg93 3.193561 1_555
Mg88 Mg92 3.186453 1_555
Mg88 Mg93 3.193552 1_555
Mg89 Mg98 3.187705 1_555
Mg89 Mg92 3.187713 1_555
Mg89 Mg96 3.189462 1_555
Mg89 Mg90 3.193889 1_555
Mg90 Mg91 3.187697 1_555
Mg90 Mg97 3.187698 1_555
Mg90 Mg96 3.189461 1_555
Mg91 Mg93 3.176460 1_455
Mg91 Mg94 3.179184 1_555
Mg91 Mg97 3.185571 1_555
Mg92 Mg93 3.176460 1_555
Mg92 Mg95 3.179183 1_555
Mg92 Mg98 3.185573 1_555
Mg93 Mg94 3.177201 1_655
Mg93 Mg95 3.177202 1_555
Mg94 Mg97 3.179183 1_555
Mg94 Mg95 3.180123 1_455
Mg95 Mg98 3.179183 1_555
Mg96 Mg97 3.191856 1_555
Mg96 Mg98 3.191872 1_555
Mg100 Mg125 3.167522 1_555
Mg100 Mg111 3.181698 1_545
Mg100 Mg114 3.181698 1_555
Mg100 Mg102 3.186088 1_555
Mg100 Mg103 3.186096 1_555
Mg100 Mg82 3.186136 1_555
Mg100 Mg77 3.186136 1_555
Mg100 Mg74 3.188917 1_555
Mg100 Mg128 3.194747 1_555
Mg100 Mg130 3.194755 1_555
Mg100 Mg122 3.197480 1_545
Mg100 Mg118 3.197488 1_555
Mg101 Mg126 3.167522 1_555
Mg101 Mg116 3.181697 1_655
Mg101 Mg115 3.181697 1_555
Mg101 Mg103 3.186088 1_555
Mg101 Mg104 3.186097 1_555
Mg101 Mg88 3.186127 1_555
Mg101 Mg87 3.186136 1_555
Mg101 Mg93 3.188926 1_555
Mg101 Mg133 3.194747 1_555
Mg101 Mg132 3.194755 1_555
Mg101 Mg121 3.197489 1_555
Mg101 Mg120 3.197496 1_655
Mg102 Mg77 3.184031 1_555
Mg102 Mg78 3.184039 1_555
Mg102 Mg128 3.185261 1_555
Mg102 Mg129 3.185261 1_555
Mg102 Mg99 3.186088 1_555
Mg102 Mg112 3.186770 1_545
Mg102 Mg111 3.186785 1_545
Mg102 Mg83 3.189897 1_555
Mg102 Mg104 3.193216 1_555
Mg102 Mg103 3.193218 1_555
Mg102 Mg127 3.193900 1_555
Mg103 Mg82 3.184031 1_555
Mg103 Mg88 3.184039 1_555
Mg103 Mg130 3.185261 1_555
Mg103 Mg133 3.185261 1_555
Mg103 Mg114 3.186777 1_555
Mg103 Mg115 3.186786 1_555
Mg103 Mg83 3.189889 1_555
Mg103 Mg104 3.193217 1_555
Mg103 Mg127 3.193892 1_555
Mg104 Mg87 3.184031 1_555
Mg104 Mg81 3.184031 1_555
Mg104 Mg132 3.185261 1_555
Mg104 Mg131 3.185261 1_555
Mg104 Mg99 3.186097 1_555
Mg104 Mg116 3.186777 1_655
Mg104 Mg113 3.186777 1_655
Mg104 Mg83 3.189888 1_555
Mg104 Mg127 3.193892 1_555
Mg105 Mg107 3.184466 1_555
Mg105 Mg106 3.184466 1_555
Mg105 Mg110 3.185012 1_555
Mg105 Mg108 3.185012 1_555
Mg105 Mg113 3.187258 1_555
Mg105 Mg116 3.187258 1_555
Mg105 Mg84 3.190555 1_555
Mg105 Mg90 3.190563 1_555
Mg105 Mg86 3.192318 1_555
Mg105 Mg136 3.197516 1_555
Mg105 Mg134 3.197516 1_555
Mg105 Mg137 3.198809 1_555
Mg106 Mg107 3.184467 1_555
Mg106 Mg109 3.185011 1_555
Mg106 Mg108 3.185011 1_555
Mg106 Mg115 3.187242 1_555
Mg106 Mg114 3.187259 1_555
Mg106 Mg84 3.190563 1_555
Mg106 Mg89 3.190563 1_555
Mg106 Mg85 3.192318 1_555
Mg106 Mg134 3.197507 1_555
Mg106 Mg135 3.197508 1_555
Mg106 Mg138 3.198809 1_555
Mg107 Mg110 3.185011 1_555
Mg107 Mg109 3.185011 1_555
Mg107 Mg111 3.187243 1_555
Mg107 Mg112 3.187250 1_555
Mg107 Mg89 3.190555 1_555
Mg107 Mg90 3.190563 1_555
Mg107 Mg96 3.192318 1_555
Mg107 Mg136 3.197507 1_555
Mg107 Mg135 3.197516 1_555
Mg107 Mg139 3.198809 1_555
Mg108 Mg114 3.177771 1_555
Mg108 Mg113 3.177771 1_555
Mg108 Mg134 3.186283 1_555
Mg108 Mg119 3.189271 1_555
Mg108 Mg118 3.189272 1_555
Mg108 Mg84 3.190461 1_555
Mg108 Mg80 3.195885 1_555
Mg108 Mg79 3.195885 1_555
Mg108 Mg140 3.206529 1_555
Mg108 Mg141 3.206530 1_555
Mg109 Mg115 3.177764 1_555
Mg109 Mg112 3.177780 1_555
Mg109 Mg135 3.186282 1_555
Mg109 Mg123 3.189279 1_555
Mg109 Mg121 3.189279 1_555
Mg109 Mg89 3.190461 1_555
Mg109 Mg92 3.195885 1_555
Mg109 Mg98 3.195885 1_555
Mg109 Mg143 3.206530 1_555
Mg109 Mg144 3.206530 1_555
Mg110 Mg111 3.177763 1_555
Mg110 Mg116 3.177771 1_555
Mg110 Mg136 3.186283 1_555
Mg110 Mg122 3.189272 1_555
Mg110 Mg120 3.189279 1_555
Mg110 Mg90 3.190453 1_555
Mg110 Mg91 3.195885 1_555
Mg110 Mg97 3.195885 1_555
Mg110 Mg142 3.206529 1_555
Mg110 Mg145 3.206530 1_555
Mg111 Mg128 3.184781 1_565
Mg111 Mg139 3.193263 1_555
Mg111 Mg97 3.194326 1_555
Mg111 Mg122 3.194634 1_555
Mg111 Mg77 3.199808 1_565
Mg111 Mg96 3.199827 1_555
Mg111 Mg112 3.203376 1_555
Mg111 Mg145 3.207544 1_555
Mg112 Mg99 3.181689 1_565
Mg112 Mg129 3.184773 1_565
Mg112 Mg139 3.193262 1_555
Mg112 Mg98 3.194334 1_555
Mg112 Mg123 3.194658 1_555
Mg112 Mg78 3.199800 1_565
Mg112 Mg96 3.199835 1_555
Mg112 Mg144 3.207561 1_555
Mg113 Mg99 3.181697 1_455
Mg113 Mg131 3.184772 1_455
Mg113 Mg137 3.193271 1_555
Mg113 Mg80 3.194326 1_555
Mg113 Mg119 3.194627 1_555
Mg113 Mg81 3.199808 1_455
Mg113 Mg86 3.199843 1_555
Mg113 Mg116 3.203401 1_555
Mg113 Mg140 3.207545 1_555
Mg114 Mg130 3.184773 1_555
Mg114 Mg138 3.193271 1_555
Mg114 Mg79 3.194326 1_555
Mg114 Mg118 3.194626 1_555
Mg114 Mg82 3.199808 1_555
Mg114 Mg85 3.199835 1_555
Mg114 Mg115 3.203392 1_555
Mg114 Mg141 3.207544 1_555
Mg115 Mg133 3.184781 1_555
Mg115 Mg138 3.193263 1_555
Mg115 Mg92 3.194326 1_555
Mg115 Mg121 3.194650 1_555
Mg115 Mg88 3.199808 1_555
Mg115 Mg85 3.199835 1_555
Mg115 Mg143 3.207553 1_555
Mg116 Mg132 3.184772 1_455
Mg116 Mg137 3.193271 1_555
Mg116 Mg91 3.194326 1_555
Mg116 Mg120 3.194643 1_555
Mg116 Mg87 3.199808 1_455
Mg116 Mg86 3.199835 1_555
Mg116 Mg142 3.207553 1_555
Mg117 Mg121 3.164920 1_445
Mg117 Mg123 3.164920 1_445
Mg117 Mg120 3.164921 1_545
Mg117 Mg118 3.164936 1_555
Mg117 Mg122 3.164936 1_545
Mg117 Mg119 3.164937 1_555
Mg117 Mg95 3.207540 1_445
Mg117 Mg94 3.207540 1_545
Mg117 Mg76 3.207540 1_555
Mg117 Mg148 3.243714 1_445
Mg117 Mg146 3.243714 1_555
Mg117 Mg147 3.243722 1_545
Mg118 Mg119 3.155693 1_555
Mg118 Mg141 3.162300 1_555
Mg118 Mg125 3.164088 1_555
Mg118 Mg122 3.174113 1_545
Mg118 Mg76 3.209741 1_555
Mg118 Mg74 3.220853 1_555
Mg118 Mg79 3.223275 1_555
Mg118 Mg146 3.305620 1_555
Mg119 Mg140 3.162300 1_555
Mg119 Mg124 3.164087 1_455
Mg119 Mg123 3.174103 1_445
Mg119 Mg99 3.197488 1_455
Mg119 Mg76 3.209742 1_555
Mg119 Mg75 3.220844 1_455
Mg119 Mg80 3.223275 1_555
Mg119 Mg146 3.305628 1_555
Mg120 Mg122 3.155685 1_555
Mg120 Mg142 3.162300 1_555
Mg120 Mg126 3.164088 1_455
Mg120 Mg121 3.174096 1_455
Mg120 Mg94 3.209734 1_555
Mg120 Mg93 3.220844 1_455
Mg120 Mg91 3.223283 1_555
Mg120 Mg147 3.305612 1_555
Mg121 Mg123 3.155678 1_555
Mg121 Mg143 3.162299 1_555
Mg121 Mg126 3.164088 1_555
Mg121 Mg95 3.209734 1_555
Mg121 Mg93 3.220845 1_555
Mg121 Mg92 3.223283 1_555
Mg121 Mg148 3.305620 1_555
Mg122 Mg145 3.162300 1_555
Mg122 Mg125 3.164088 1_565
Mg122 Mg94 3.209741 1_555
Mg122 Mg74 3.220845 1_565
Mg122 Mg97 3.223275 1_555
Mg122 Mg147 3.305619 1_555
Mg123 Mg144 3.162299 1_555
Mg123 Mg124 3.164088 1_565
Mg123 Mg99 3.197489 1_565
Mg123 Mg95 3.209734 1_555
Mg123 Mg75 3.220845 1_565
Mg123 Mg98 3.223283 1_555
Mg123 Mg148 3.305612 1_555
Mg124 Mg144 3.159479 1_545
Mg124 Mg140 3.159487 1_655
Mg124 Mg7 3.161047 1_556
Mg124 Mg129 3.163381 1_555
Mg124 Mg131 3.163382 1_555
Mg124 Mg99 3.167522 1_555
Mg124 Mg4 3.197503 1_556
Mg124 Mg3 3.197512 1_556
Mg124 Mg148 3.217596 1_545
Mg124 Mg146 3.217611 1_655
Mg125 Mg145 3.159488 1_545
Mg125 Mg141 3.159488 1_555
Mg125 Mg6 3.161047 1_556
Mg125 Mg130 3.163381 1_555
Mg125 Mg128 3.163381 1_555
Mg125 Mg2 3.197511 1_556
Mg125 Mg5 3.197511 1_556
Mg125 Mg146 3.217595 1_555
Mg125 Mg147 3.217603 1_545
Mg126 Mg142 3.159479 1_655
Mg126 Mg143 3.159480 1_555
Mg126 Mg16 3.161047 1_556
Mg126 Mg133 3.163381 1_555
Mg126 Mg132 3.163382 1_555
Mg126 Mg22 3.197503 1_556
Mg126 Mg23 3.197504 1_556
Mg126 Mg147 3.217603 1_655
Mg126 Mg148 3.217612 1_555
Mg127 Mg132 3.177269 1_555
Mg127 Mg133 3.177270 1_555
Mg127 Mg131 3.177277 1_555
Mg127 Mg130 3.177277 1_555
Mg127 Mg128 3.177285 1_555
Mg127 Mg129 3.177286 1_555
Mg127 Mg13 3.193801 1_556
Mg127 Mg8 3.193809 1_556
Mg128 Mg129 3.172998 1_555
Mg128 Mg130 3.181556 1_555
Mg128 Mg8 3.183360 1_556
Mg128 Mg139 3.184692 1_545
Mg128 Mg6 3.200145 1_556
Mg128 Mg145 3.202410 1_545
Mg129 Mg131 3.181555 1_555
Mg129 Mg8 3.183353 1_556
Mg129 Mg139 3.184691 1_545
Mg129 Mg99 3.194747 1_555
Mg129 Mg7 3.200144 1_556
Mg129 Mg144 3.202419 1_545
Mg130 Mg133 3.172998 1_555
Mg130 Mg138 3.184692 1_555
Mg130 Mg6 3.200137 1_556
Mg130 Mg141 3.202410 1_555
Mg131 Mg132 3.172999 1_555
Mg131 Mg137 3.184691 1_655
Mg131 Mg99 3.194755 1_555
Mg131 Mg7 3.200137 1_556
Mg131 Mg140 3.202410 1_655
Mg132 Mg133 3.181555 1_555
Mg132 Mg137 3.184691 1_655
Mg132 Mg18 3.190222 1_556
Mg132 Mg16 3.200137 1_556
Mg132 Mg142 3.202418 1_655
Mg133 Mg138 3.184691 1_555
Mg133 Mg17 3.190223 1_556
Mg133 Mg16 3.200144 1_556
Mg133 Mg143 3.202419 1_555
Mg134 Mg138 3.185667 1_555
Mg134 Mg137 3.185683 1_555
Mg134 Mg14 3.187647 1_556
Mg134 Mg15 3.187663 1_556
Mg134 Mg135 3.199180 1_555
Mg134 Mg136 3.199197 1_555
Mg134 Mg141 3.202786 1_555
Mg134 Mg140 3.202793 1_555
Mg134 Mg9 3.205779 1_556
Mg135 Mg138 3.185668 1_555
Mg135 Mg139 3.185684 1_555
Mg135 Mg14 3.187647 1_556
Mg135 Mg19 3.187655 1_556
Mg135 Mg136 3.199188 1_555
Mg135 Mg143 3.202793 1_555
Mg135 Mg144 3.202801 1_555
Mg135 Mg20 3.205786 1_556
Mg136 Mg139 3.185667 1_555
Mg136 Mg137 3.185683 1_555
Mg136 Mg19 3.187647 1_556
Mg136 Mg15 3.187655 1_556
Mg136 Mg145 3.202786 1_555
Mg136 Mg142 3.202801 1_555
Mg136 Mg21 3.205787 1_556
Mg137 Mg15 3.178313 1_556
Mg137 Mg18 3.203645 1_456
Mg137 Mg140 3.220587 1_555
Mg137 Mg142 3.220603 1_555
Mg138 Mg14 3.178321 1_556
Mg138 Mg17 3.203645 1_556
Mg138 Mg141 3.220586 1_555
Mg138 Mg143 3.220602 1_555
Mg139 Mg19 3.178321 1_556
Mg139 Mg145 3.220586 1_555
Mg139 Mg144 3.220602 1_555
Mg140 Mg141 3.163424 1_555
Mg140 Mg9 3.164504 1_556
Mg140 Mg146 3.238568 1_555
Mg140 Mg4 3.251598 1_456
Mg141 Mg9 3.164512 1_556
Mg141 Mg146 3.238560 1_555
Mg141 Mg5 3.251590 1_556
Mg142 Mg145 3.163416 1_555
Mg142 Mg21 3.164504 1_556
Mg142 Mg18 3.168038 1_456
Mg142 Mg147 3.238537 1_555
Mg142 Mg22 3.251589 1_456
Mg143 Mg144 3.163409 1_555
Mg143 Mg20 3.164504 1_556
Mg143 Mg17 3.168038 1_556
Mg143 Mg148 3.238551 1_555
Mg143 Mg23 3.251589 1_556
Mg144 Mg20 3.164504 1_556
Mg144 Mg148 3.238544 1_555
Mg144 Mg3 3.251589 1_566
Mg145 Mg21 3.164504 1_556
Mg145 Mg147 3.238551 1_555
Mg145 Mg2 3.251590 1_566
Mg146 Ru0 3.002956 1_556
Mg146 Mg5 3.007649 1_556
Mg146 Mg4 3.007658 1_456
Mg146 Mg148 3.010296 1_445
Mg146 Mg147 3.010305 1_545
Mg147 Ru0 3.002965 1_566
Mg147 Mg2 3.007649 1_566
Mg147 Mg22 3.007650 1_456
Mg147 Mg148 3.010312 1_455
Mg148 Ru0 3.002956 1_666
Mg148 Mg3 3.007641 1_566
Mg148 Mg23 3.007658 1_556
