# generated using pymatgen
data_BaLa4Ti4O15
_symmetry_space_group_name_H-M   'P 1'
_cell_length_a   5.62698752
_cell_length_b   5.62698752
_cell_length_c   22.74947500
_cell_angle_alpha   90.00000000
_cell_angle_beta   90.00000000
_cell_angle_gamma   119.99999435
_symmetry_Int_Tables_number   1
_chemical_formula_structural   BaLa4Ti4O15
_chemical_formula_sum   'Ba2 La8 Ti8 O30'
_cell_volume   623.81230751
_cell_formula_units_Z   2
loop_
 _symmetry_equiv_pos_site_id
 _symmetry_equiv_pos_as_xyz
  1  'x, y, z'
loop_
 _atom_site_type_symbol
 _atom_site_label
 _atom_site_symmetry_multiplicity
 _atom_site_fract_x
 _atom_site_fract_y
 _atom_site_fract_z
 _atom_site_occupancy
  Ba  Ba0  1  0.66666700  0.33333300  0.45946700  1
  Ba  Ba1  1  0.66666700  0.33333300  0.95946700  1
  La  La0  1  0.66666700  0.33333300  0.14177200  1
  La  La1  1  0.66666700  0.33333300  0.64177200  1
  La  La2  1  0.33333300  0.66666700  0.85863300  1
  La  La3  1  0.33333300  0.66666700  0.35863300  1
  La  La4  1  0.00000000  0.00000000  0.25067100  1
  La  La5  1  0.00000000  0.00000000  0.75067100  1
  La  La6  1  0.33333300  0.66666700  0.53138800  1
  La  La7  1  0.33333300  0.66666700  0.03138800  1
  Ti  Ti0  1  0.00000000  0.00000000  0.09342000  1
  Ti  Ti1  1  0.00000000  0.00000000  0.59342000  1
  Ti  Ti2  1  0.00000000  0.00000000  0.90812500  1
  Ti  Ti3  1  0.00000000  0.00000000  0.40812500  1
  Ti  Ti4  1  0.66666700  0.33333300  0.30101600  1
  Ti  Ti5  1  0.66666700  0.33333300  0.80101600  1
  Ti  Ti6  1  0.33333300  0.66666700  0.69774900  1
  Ti  Ti7  1  0.33333300  0.66666700  0.19774900  1
  O  O0  1  0.56172400  0.00013300  0.24967000  1
  O  O1  1  0.43841000  0.43827600  0.24967000  1
  O  O2  1  0.99986700  0.56159000  0.24967000  1
  O  O3  1  0.56172400  0.56159000  0.74967000  1
  O  O4  1  0.99986700  0.43827600  0.74967000  1
  O  O5  1  0.43841000  0.00013300  0.74967000  1
  O  O6  1  0.66076600  0.80813700  0.94433000  1
  O  O7  1  0.14737100  0.33923400  0.94433000  1
  O  O8  1  0.19186300  0.85262900  0.94433000  1
  O  O9  1  0.66076600  0.85262900  0.44433000  1
  O  O10  1  0.19186300  0.33923400  0.44433000  1
  O  O11  1  0.14737100  0.80813700  0.44433000  1
  O  O12  1  0.33277700  0.24687800  0.05886000  1
  O  O13  1  0.91410200  0.66722300  0.05886000  1
  O  O14  1  0.75312200  0.08589800  0.05886000  1
  O  O15  1  0.33277700  0.08589800  0.55886000  1
  O  O16  1  0.75312200  0.66722300  0.55886000  1
  O  O17  1  0.91410200  0.24687800  0.55886000  1
  O  O18  1  0.22892300  0.89767600  0.15488000  1
  O  O19  1  0.66875300  0.77107700  0.15488000  1
  O  O20  1  0.10232400  0.33124700  0.15488000  1
  O  O21  1  0.22892300  0.33124700  0.65488000  1
  O  O22  1  0.10232400  0.77107700  0.65488000  1
  O  O23  1  0.66875300  0.89767600  0.65488000  1
  O  O24  1  0.77853600  0.10924300  0.84484700  1
  O  O25  1  0.33070700  0.22146400  0.84484700  1
  O  O26  1  0.89075700  0.66929300  0.84484700  1
  O  O27  1  0.77853600  0.66929300  0.34484700  1
  O  O28  1  0.89075700  0.22146400  0.34484700  1
  O  O29  1  0.33070700  0.10924300  0.34484700  1
loop_
_geom_bond_atom_site_label_1
_geom_bond_atom_site_label_2
_geom_bond_distance
_geom_bond_site_symmetry_2
Ba0 O9 2.710431 1_545
Ba0 O11 2.710434 1_655
Ba0 O10 2.710437 1_555
Ba0 O17 2.822283 1_555
Ba0 O16 2.822283 1_555
Ba0 O15 2.822283 1_555
Ba0 O10 2.958916 1_655
Ba0 O11 2.958919 1_545
Ba0 O9 2.958922 1_555
Ba0 O28 3.095043 1_555
Ba0 O29 3.095045 1_555
Ba0 O27 3.095046 1_555
Ba1 O7 2.710431 1_655
Ba1 O8 2.710434 1_545
Ba1 O6 2.710437 1_555
Ba1 O14 2.822283 1_556
Ba1 O12 2.822283 1_556
Ba1 O13 2.822283 1_556
Ba1 O6 2.958916 1_545
Ba1 O8 2.958919 1_655
Ba1 O7 2.958922 1_555
Ba1 O24 3.095043 1_555
Ba1 O26 3.095045 1_555
Ba1 O25 3.095046 1_555
La0 O20 2.475354 1_655
La0 O18 2.475357 1_545
La0 O19 2.475359 1_555
La0 O14 2.531858 1_555
La0 O12 2.531858 1_555
La0 O13 2.531858 1_555
La1 O23 2.475354 1_545
La1 O22 2.475357 1_655
La1 O21 2.475359 1_555
La1 O17 2.531858 1_555
La1 O16 2.531858 1_555
La1 O15 2.531858 1_555
La2 O26 2.517403 1_455
La2 O24 2.517406 1_565
La2 O25 2.517409 1_555
La2 O8 2.522388 1_555
La2 O7 2.522391 1_555
La2 O6 2.522392 1_555
La2 O25 3.144927 1_565
La2 O24 3.144930 1_455
La2 O26 3.144933 1_555
La3 O29 2.517403 1_565
La3 O28 2.517406 1_455
La3 O27 2.517409 1_555
La3 O11 2.522388 1_555
La3 O9 2.522391 1_555
La3 O10 2.522392 1_555
La3 O27 3.144927 1_455
La3 O28 3.144930 1_565
La3 O29 3.144933 1_555
La4 O0 2.466653 1_455
La4 O1 2.466656 1_555
La4 O2 2.466659 1_445
La4 O28 2.699438 1_455
La4 O29 2.699438 1_555
La4 O27 2.699438 1_445
La4 O18 2.735217 1_545
La4 O20 2.735218 1_555
La4 O19 2.735218 1_445
La5 O4 2.466653 1_455
La5 O3 2.466656 1_445
La5 O5 2.466659 1_555
La5 O24 2.699438 1_455
La5 O26 2.699438 1_445
La5 O25 2.699438 1_555
La5 O22 2.735217 1_545
La5 O23 2.735218 1_445
La5 O21 2.735218 1_555
La6 O15 2.441905 1_565
La6 O17 2.441910 1_455
La6 O16 2.441916 1_555
La6 O11 2.546395 1_555
La6 O9 2.546398 1_555
La6 O10 2.546398 1_555
La7 O13 2.441905 1_455
La7 O14 2.441910 1_565
La7 O12 2.441916 1_555
La7 O8 2.546395 1_554
La7 O7 2.546398 1_554
La7 O6 2.546398 1_554
O0 Ti4 2.030095 1_555
O0 Ti7 2.038684 1_545
O1 Ti4 2.030095 1_555
O1 Ti7 2.038691 1_555
O2 Ti4 2.030095 1_555
O2 Ti7 2.038682 1_655
O3 Ti5 2.030095 1_555
O3 Ti6 2.038691 1_555
O4 Ti5 2.030095 1_555
O4 Ti6 2.038684 1_655
O5 Ti5 2.030095 1_555
O5 Ti6 2.038682 1_545
O6 Ti2 1.851185 1_665
O7 Ti2 1.851185 1_555
O8 Ti2 1.851185 1_565
O9 Ti3 1.851185 1_665
O10 Ti3 1.851185 1_555
O11 Ti3 1.851185 1_565
O12 Ti0 1.858241 1_555
O13 Ti0 1.858242 1_665
O14 Ti0 1.858237 1_655
O15 Ti1 1.858242 1_555
O16 Ti1 1.858241 1_665
O17 Ti1 1.858237 1_655
O18 Ti7 1.936409 1_555
O18 Ti0 2.165049 1_565
O19 Ti7 1.936414 1_555
O19 Ti0 2.165050 1_665
O20 Ti7 1.936413 1_555
O20 Ti0 2.165049 1_555
O21 Ti6 1.936414 1_555
O21 Ti1 2.165050 1_555
O22 Ti6 1.936409 1_555
O22 Ti1 2.165049 1_565
O23 Ti6 1.936413 1_555
O23 Ti1 2.165049 1_665
O24 Ti5 1.942749 1_555
O24 Ti2 2.183835 1_655
O25 Ti5 1.942754 1_555
O25 Ti2 2.183835 1_555
O26 Ti5 1.942753 1_555
O26 Ti2 2.183835 1_665
O27 Ti4 1.942754 1_555
O27 Ti3 2.183835 1_665
O28 Ti4 1.942749 1_555
O28 Ti3 2.183835 1_655
O29 Ti4 1.942753 1_555
O29 Ti3 2.183835 1_555
