# generated using pymatgen
data_Sr3CaTiMn3O10
_symmetry_space_group_name_H-M   'P 1'
_cell_length_a   11.15750103
_cell_length_b   11.32787654
_cell_length_c   17.73652345
_cell_angle_alpha   108.55431675
_cell_angle_beta   108.53323025
_cell_angle_gamma   89.89965055
_symmetry_Int_Tables_number   1
_chemical_formula_structural   Sr3CaTiMn3O10
_chemical_formula_sum   'Sr24 Ca8 Ti8 Mn24 O80'
_cell_volume   2002.64233954
_cell_formula_units_Z   8
loop_
 _symmetry_equiv_pos_site_id
 _symmetry_equiv_pos_as_xyz
  1  'x, y, z'
loop_
 _atom_site_type_symbol
 _atom_site_label
 _atom_site_symmetry_multiplicity
 _atom_site_fract_x
 _atom_site_fract_y
 _atom_site_fract_z
 _atom_site_occupancy
  Sr  Sr0  1  0.30740500  0.05955500  0.60941700  1
  Sr  Sr1  1  0.30757100  0.55990700  0.60907300  1
  Sr  Sr2  1  0.80917600  0.06139900  0.60928000  1
  Sr  Sr3  1  0.80989800  0.56000700  0.61030400  1
  Sr  Sr4  1  0.19784500  0.43866200  0.39049900  1
  Sr  Sr5  1  0.19354000  0.43670800  0.88898800  1
  Sr  Sr6  1  0.19452800  0.93892100  0.38821400  1
  Sr  Sr7  1  0.69911100  0.43992900  0.38963600  1
  Sr  Sr8  1  0.69729400  0.43990800  0.88981400  1
  Sr  Sr9  1  0.70190600  0.93867500  0.38996500  1
  Sr  Sr10  1  0.69526900  0.93686000  0.88821000  1
  Sr  Sr11  1  0.05893100  0.29530000  0.11166300  1
  Sr  Sr12  1  0.05835000  0.29941100  0.60909200  1
  Sr  Sr13  1  0.05869300  0.79785500  0.60990000  1
  Sr  Sr14  1  0.55776100  0.30054000  0.60871700  1
  Sr  Sr15  1  0.55759500  0.80102600  0.11317800  1
  Sr  Sr16  1  0.55997300  0.79761200  0.60983200  1
  Sr  Sr17  1  0.44760700  0.20126800  0.38774300  1
  Sr  Sr18  1  0.44106200  0.20054300  0.88854200  1
  Sr  Sr19  1  0.44749600  0.69812400  0.38770800  1
  Sr  Sr20  1  0.44516600  0.69949900  0.88895600  1
  Sr  Sr21  1  0.94744900  0.19942800  0.38857200  1
  Sr  Sr22  1  0.94918700  0.20367900  0.88999000  1
  Sr  Sr23  1  0.94785700  0.69977500  0.38846000  1
  Ca  Ca0  1  0.30197400  0.06841600  0.10923700  1
  Ca  Ca1  1  0.30284800  0.56317100  0.10953800  1
  Ca  Ca2  1  0.80422800  0.06533000  0.10787300  1
  Ca  Ca3  1  0.80350700  0.56595700  0.11022200  1
  Ca  Ca4  1  0.19602900  0.93664300  0.89248200  1
  Ca  Ca5  1  0.05362100  0.79809600  0.10957500  1
  Ca  Ca6  1  0.55050700  0.29257700  0.11040700  1
  Ca  Ca7  1  0.94493400  0.70218500  0.89166300  1
  Ti  Ti0  1  0.00337100  0.99814000  0.99809900  1
  Ti  Ti1  1  0.00564000  0.50429000  0.00652300  1
  Ti  Ti2  1  0.50022800  0.00024300  0.00150700  1
  Ti  Ti3  1  0.50463000  0.99913200  0.49906000  1
  Ti  Ti4  1  0.50332200  0.50347700  0.00567500  1
  Ti  Ti5  1  0.24924300  0.75155300  0.00266700  1
  Ti  Ti6  1  0.74936600  0.25115800  0.00146300  1
  Ti  Ti7  1  0.75714900  0.75100800  0.00277500  1
  Mn  Mn0  1  0.00501900  0.99848900  0.49937100  1
  Mn  Mn1  1  0.00472400  0.50049600  0.50002100  1
  Mn  Mn2  1  0.50523000  0.50162100  0.50038200  1
  Mn  Mn3  1  0.25498900  0.25114100  0.00185300  1
  Mn  Mn4  1  0.25376400  0.24888700  0.49927600  1
  Mn  Mn5  1  0.25434600  0.74979500  0.49912100  1
  Mn  Mn6  1  0.75401000  0.25016100  0.49906500  1
  Mn  Mn7  1  0.75596200  0.74893700  0.49971500  1
  Mn  Mn8  1  0.10443300  0.09034300  0.24356700  1
  Mn  Mn9  1  0.11063700  0.09234400  0.75059100  1
  Mn  Mn10  1  0.11037100  0.59586600  0.24825500  1
  Mn  Mn11  1  0.11256600  0.60195400  0.75339600  1
  Mn  Mn12  1  0.60654900  0.09732900  0.24574600  1
  Mn  Mn13  1  0.61236900  0.09716800  0.74994000  1
  Mn  Mn14  1  0.61013600  0.58995900  0.24725100  1
  Mn  Mn15  1  0.61725100  0.59749500  0.75150500  1
  Mn  Mn16  1  0.36059400  0.40294000  0.24854900  1
  Mn  Mn17  1  0.36304500  0.40510200  0.75284900  1
  Mn  Mn18  1  0.35838100  0.90429200  0.24693000  1
  Mn  Mn19  1  0.36135100  0.90402300  0.75262200  1
  Mn  Mn20  1  0.85457000  0.40050400  0.24493600  1
  Mn  Mn21  1  0.86253500  0.40877700  0.75449800  1
  Mn  Mn22  1  0.86402500  0.90655400  0.24716900  1
  Mn  Mn23  1  0.86475000  0.90196200  0.75051600  1
  O  O0  1  0.12637900  0.12297900  0.49399200  1
  O  O1  1  0.12321800  0.10834600  0.99087700  1
  O  O2  1  0.12768300  0.62543000  0.49239000  1
  O  O3  1  0.12212400  0.62547600  0.98715100  1
  O  O4  1  0.62474700  0.12131600  0.49269000  1
  O  O5  1  0.62722400  0.12432600  0.99335900  1
  O  O6  1  0.62374700  0.62129400  0.49243300  1
  O  O7  1  0.63029200  0.62343900  0.99202700  1
  O  O8  1  0.13161300  0.39138500  0.01185300  1
  O  O9  1  0.13192700  0.37485000  0.50474600  1
  O  O10  1  0.13953000  0.87872100  0.01648800  1
  O  O11  1  0.13203500  0.88013100  0.50758300  1
  O  O12  1  0.63867300  0.37924300  0.01389800  1
  O  O13  1  0.63102800  0.37552900  0.50479500  1
  O  O14  1  0.64123200  0.88042300  0.01287400  1
  O  O15  1  0.63214000  0.87891200  0.50721700  1
  O  O16  1  0.37592300  0.11812500  0.49165700  1
  O  O17  1  0.38017500  0.11219300  0.99173800  1
  O  O18  1  0.37618000  0.62064600  0.49323200  1
  O  O19  1  0.37684900  0.61799200  0.99130400  1
  O  O20  1  0.87570700  0.12146200  0.49456900  1
  O  O21  1  0.87649100  0.11593600  0.99224300  1
  O  O22  1  0.87334300  0.62206900  0.49158200  1
  O  O23  1  0.87913900  0.62316700  0.99017800  1
  O  O24  1  0.39516600  0.38993800  0.01645200  1
  O  O25  1  0.37964000  0.37565000  0.50344500  1
  O  O26  1  0.38711800  0.88561600  0.01402700  1
  O  O27  1  0.38504600  0.88155200  0.50777400  1
  O  O28  1  0.88503200  0.38939300  0.01448400  1
  O  O29  1  0.87895500  0.37587300  0.50479500  1
  O  O30  1  0.88954300  0.88050800  0.01448500  1
  O  O31  1  0.88372500  0.88063600  0.50663900  1
  O  O32  1  0.07805300  0.08250200  0.12869100  1
  O  O33  1  0.07579400  0.08039700  0.63499300  1
  O  O34  1  0.07917500  0.59794600  0.12626400  1
  O  O35  1  0.07508900  0.58546500  0.63301500  1
  O  O36  1  0.58161500  0.08902800  0.12794900  1
  O  O37  1  0.57385900  0.08423000  0.62738300  1
  O  O38  1  0.58569200  0.58983800  0.12633700  1
  O  O39  1  0.57451800  0.58160600  0.63178200  1
  O  O40  1  0.44072800  0.41993400  0.36430000  1
  O  O41  1  0.44821800  0.41745400  0.87332700  1
  O  O42  1  0.44489400  0.91807000  0.37077500  1
  O  O43  1  0.45094800  0.91554000  0.87535000  1
  O  O44  1  0.93650700  0.41940200  0.36239200  1
  O  O45  1  0.94130000  0.41667200  0.87146000  1
  O  O46  1  0.94437100  0.91805300  0.36838800  1
  O  O47  1  0.95188800  0.90395500  0.87615300  1
  O  O48  1  0.33174600  0.28799500  0.13815700  1
  O  O49  1  0.32750900  0.30172600  0.63909100  1
  O  O50  1  0.32540800  0.77839600  0.12525300  1
  O  O51  1  0.32396900  0.80161300  0.63468100  1
  O  O52  1  0.82673600  0.28390700  0.12695200  1
  O  O53  1  0.82997800  0.30731200  0.64133100  1
  O  O54  1  0.83150700  0.78154700  0.12684200  1
  O  O55  1  0.82429600  0.79508200  0.62885800  1
  O  O56  1  0.18399100  0.18998800  0.35716300  1
  O  O57  1  0.18943400  0.20341800  0.86309100  1
  O  O58  1  0.19384500  0.70544800  0.36840400  1
  O  O59  1  0.20156300  0.71986400  0.87751000  1
  O  O60  1  0.68303700  0.19501800  0.36038500  1
  O  O61  1  0.70045000  0.20965700  0.87783600  1
  O  O62  1  0.69166900  0.70202100  0.36836300  1
  O  O63  1  0.70440000  0.70848500  0.87528800  1
  O  O64  1  0.42475100  0.07086400  0.23895700  1
  O  O65  1  0.43243200  0.06584900  0.75238000  1
  O  O66  1  0.42268700  0.56139600  0.23886900  1
  O  O67  1  0.43876600  0.56397100  0.75231100  1
  O  O68  1  0.92500400  0.07486500  0.23932100  1
  O  O69  1  0.93771200  0.07148800  0.75245100  1
  O  O70  1  0.92291800  0.55999100  0.23895300  1
  O  O71  1  0.93383800  0.57406100  0.76074300  1
  O  O72  1  0.18513800  0.42786900  0.24796100  1
  O  O73  1  0.18798800  0.43479000  0.75265800  1
  O  O74  1  0.17123100  0.92729100  0.24037200  1
  O  O75  1  0.18410800  0.93337500  0.76056800  1
  O  O76  1  0.67222500  0.41500900  0.24008000  1
  O  O77  1  0.68664500  0.42939300  0.75154300  1
  O  O78  1  0.68377700  0.94086800  0.24813400  1
  O  O79  1  0.68609300  0.93268800  0.75231900  1
loop_
_geom_bond_atom_site_label_1
_geom_bond_atom_site_label_2
_geom_bond_distance
_geom_bond_site_symmetry_2
Ca0 O64 2.264254 1_555
Ca0 O48 2.375507 1_555
Ca0 O10 2.545052 1_545
Ca0 O1 2.555189 1_554
Ca0 O26 2.613361 1_545
Ca0 O32 2.626424 1_555
Ca0 O17 2.676855 1_554
Ca0 O36 3.032261 1_555
Ca1 O66 2.264859 1_555
Ca1 O50 2.368581 1_555
Ca1 O8 2.490360 1_555
Ca1 O24 2.578728 1_555
Ca1 O34 2.619962 1_555
Ca1 O19 2.719619 1_554
Ca1 O3 2.731959 1_554
Ca2 O68 2.259683 1_555
Ca2 O52 2.392310 1_555
Ca2 O14 2.520535 1_545
Ca2 O5 2.604126 1_554
Ca2 O30 2.611784 1_545
Ca2 O36 2.620537 1_555
Ca2 O21 2.643068 1_554
Ca2 O32 2.957646 1_655
Ca3 O70 2.270880 1_555
Ca3 O54 2.373752 1_555
Ca3 O38 2.539915 1_555
Ca3 O12 2.547800 1_555
Ca3 O28 2.554467 1_555
Ca3 O7 2.615836 1_554
Ca3 O23 2.772668 1_554
Ca3 O34 3.009078 1_655
Ca4 O75 2.289170 1_555
Ca4 O59 2.387345 1_555
Ca4 O1 2.494855 1_565
Ca4 O17 2.600411 1_565
Ca4 O47 2.659876 1_455
Ca4 O26 2.719205 1_556
Ca4 O10 2.732524 1_556
Ca4 O43 2.956366 1_555
Ca5 O74 2.270780 1_555
Ca5 O34 2.383409 1_555
Ca5 O30 2.469962 1_455
Ca5 O10 2.539215 1_555
Ca5 O54 2.606003 1_455
Ca5 O23 2.631216 1_454
Ca5 O3 2.733199 1_554
Ca5 O50 2.970526 1_555
Ca6 O76 2.246899 1_555
Ca6 O36 2.432898 1_555
Ca6 O24 2.514809 1_555
Ca6 O17 2.636454 1_554
Ca6 O48 2.642534 1_555
Ca6 O12 2.646665 1_555
Ca6 O5 2.698326 1_554
Ca6 O52 3.006155 1_555
Ca7 O71 2.277469 1_555
Ca7 O47 2.391677 1_555
Ca7 O23 2.491251 1_555
Ca7 O3 2.516741 1_655
Ca7 O63 2.609409 1_555
Ca7 O30 2.694257 1_556
Ca7 O10 2.785067 1_656
Ca7 O59 2.965258 1_655
Mn0 O11 1.952848 1_555
Mn0 O31 1.963972 1_455
Mn0 O0 2.001434 1_565
Mn0 O20 2.004940 1_465
Mn0 O46 2.083493 1_455
Mn0 O33 2.155308 1_565
Mn1 O9 2.010064 1_555
Mn1 O22 2.013065 1_455
Mn1 O29 2.031702 1_455
Mn1 O2 2.037182 1_555
Mn1 O35 2.118357 1_555
Mn1 O44 2.185451 1_455
Mn2 O6 1.962828 1_555
Mn2 O18 1.973113 1_555
Mn2 O13 2.002668 1_555
Mn2 O25 2.026704 1_555
Mn2 O39 2.088878 1_555
Mn2 O40 2.162517 1_555
Mn3 O8 2.102020 1_555
Mn3 O17 2.105339 1_554
Mn3 O1 2.107600 1_554
Mn3 O24 2.115973 1_555
Mn3 O48 2.189766 1_555
Mn3 O57 2.212417 1_554
Mn4 O9 1.970366 1_555
Mn4 O0 1.974961 1_555
Mn4 O25 1.978237 1_555
Mn4 O16 2.013144 1_555
Mn4 O49 2.223697 1_555
Mn4 O56 2.255816 1_555
Mn5 O2 1.946505 1_555
Mn5 O18 1.996283 1_555
Mn5 O11 2.011682 1_555
Mn5 O27 2.024193 1_555
Mn5 O58 2.085274 1_555
Mn5 O51 2.155233 1_555
Mn6 O29 1.951018 1_555
Mn6 O13 1.974840 1_555
Mn6 O20 1.990834 1_555
Mn6 O4 2.005446 1_555
Mn6 O60 2.202972 1_555
Mn6 O53 2.259931 1_555
Mn7 O22 1.945000 1_555
Mn7 O6 2.012724 1_555
Mn7 O31 2.013061 1_555
Mn7 O15 2.019706 1_555
Mn7 O55 2.056786 1_555
Mn7 O62 2.091798 1_555
Mn8 O56 1.881675 1_555
Mn8 O32 1.936391 1_555
Mn8 O74 1.981320 1_545
Mn8 O68 1.985275 1_455
Mn9 O57 1.904848 1_555
Mn9 O33 1.920962 1_555
Mn9 O69 1.956157 1_455
Mn9 O75 2.012842 1_545
Mn10 O58 2.002108 1_555
Mn10 O70 2.075504 1_455
Mn10 O72 2.075674 1_555
Mn10 O34 2.087329 1_555
Mn11 O35 1.986822 1_555
Mn11 O73 2.068755 1_555
Mn11 O71 2.070528 1_455
Mn11 O59 2.088015 1_555
Mn12 O60 1.885587 1_555
Mn12 O78 1.976055 1_545
Mn12 O36 1.989223 1_555
Mn12 O64 2.010650 1_555
Mn13 O37 2.033456 1_555
Mn13 O79 2.042684 1_545
Mn13 O65 2.055696 1_555
Mn13 O61 2.117296 1_555
Mn14 O62 2.019838 1_555
Mn14 O66 2.067632 1_555
Mn14 O38 2.073637 1_555
Mn14 O76 2.077127 1_555
Mn15 O39 1.970353 1_555
Mn15 O67 2.033342 1_555
Mn15 O77 2.054490 1_555
Mn15 O63 2.058361 1_555
Mn16 O48 1.900269 1_555
Mn16 O40 1.906183 1_555
Mn16 O72 1.974641 1_555
Mn16 O66 2.001866 1_555
Mn17 O49 1.894441 1_555
Mn17 O73 1.980483 1_555
Mn17 O67 1.993487 1_555
Mn17 O41 2.002026 1_555
Mn18 O42 2.053174 1_555
Mn18 O74 2.074766 1_555
Mn18 O50 2.089283 1_555
Mn18 O64 2.090472 1_565
Mn19 O51 1.948924 1_555
Mn19 O65 2.000422 1_565
Mn19 O75 2.046052 1_555
Mn19 O43 2.047212 1_555
Mn20 O44 1.930730 1_555
Mn20 O70 2.008748 1_555
Mn20 O52 2.012299 1_555
Mn20 O76 2.017450 1_555
Mn21 O53 1.884566 1_555
Mn21 O45 1.951180 1_555
Mn21 O77 1.962004 1_555
Mn21 O71 1.991978 1_555
Mn22 O46 2.009985 1_555
Mn22 O78 2.052045 1_555
Mn22 O54 2.068298 1_555
Mn22 O68 2.085924 1_565
Mn23 O55 2.011417 1_555
Mn23 O79 2.031424 1_555
Mn23 O69 2.073037 1_565
Mn23 O47 2.121829 1_555
O0 Sr6 2.618606 1_545
O0 Sr21 2.623575 1_455
O0 Sr0 2.662568 1_555
O0 Sr12 2.668576 1_555
O1 Ti0 1.891957 1_545
O1 Sr22 2.674354 1_455
O1 Sr11 2.770064 1_556
O2 Sr23 2.600723 1_455
O2 Sr4 2.610589 1_555
O2 Sr13 2.678691 1_555
O2 Sr1 2.682194 1_555
O3 Ti5 1.906814 1_556
O3 Ti1 2.069307 1_556
O3 Sr5 2.597187 1_555
O4 Ti3 1.981636 1_545
O4 Sr17 2.630447 1_555
O4 Sr9 2.633096 1_545
O4 Sr2 2.674795 1_555
O4 Sr14 2.688673 1_555
O5 Ti6 1.921719 1_556
O5 Ti2 2.066588 1_556
O5 Sr10 2.634044 1_545
O5 Sr18 2.660150 1_555
O6 Sr19 2.602988 1_555
O6 Sr7 2.614752 1_555
O6 Sr16 2.668611 1_555
O6 Sr3 2.706438 1_555
O7 Ti7 1.946358 1_556
O7 Ti4 2.084775 1_556
O7 Sr8 2.573959 1_555
O7 Sr20 2.635630 1_555
O7 Sr15 2.770089 1_556
O8 Ti1 1.899064 1_555
O8 Sr11 2.667999 1_555
O8 Sr5 2.675889 1_554
O8 Sr22 2.762148 1_454
O9 Sr12 2.608500 1_555
O9 Sr1 2.626702 1_555
O9 Sr4 2.655369 1_555
O9 Sr21 2.672740 1_455
O10 Ti5 1.895675 1_555
O10 Ti0 2.050098 1_554
O11 Sr0 2.579326 1_565
O11 Sr13 2.618151 1_555
O11 Sr6 2.692507 1_555
O11 Sr23 2.714489 1_455
O12 Ti6 1.908519 1_555
O12 Ti4 2.065330 1_555
O12 Sr8 2.760947 1_554
O12 Sr18 2.817348 1_554
O13 Sr14 2.596934 1_555
O13 Sr3 2.646437 1_555
O13 Sr17 2.664610 1_555
O13 Sr7 2.686577 1_555
O14 Ti7 1.956396 1_555
O14 Ti2 2.079203 1_565
O14 Sr15 2.630848 1_555
O14 Sr10 2.722069 1_554
O14 Sr20 2.812316 1_554
O15 Ti3 1.971634 1_555
O15 Sr16 2.609596 1_555
O15 Sr2 2.609914 1_565
O15 Sr9 2.704828 1_555
O15 Sr19 2.721665 1_555
O16 Ti3 1.970381 1_545
O16 Sr6 2.620467 1_545
O16 Sr17 2.639723 1_555
O16 Sr0 2.699236 1_555
O16 Sr14 2.702479 1_555
O17 Ti2 1.849006 1_556
O17 Sr18 2.602292 1_555
O18 Sr4 2.616885 1_555
O18 Sr19 2.626980 1_555
O18 Sr16 2.679703 1_555
O18 Sr1 2.679966 1_555
O19 Ti4 1.927266 1_556
O19 Ti5 2.082689 1_556
O19 Sr20 2.584100 1_555
O19 Sr5 2.641406 1_555
O19 Sr15 2.725733 1_556
O20 Sr9 2.602318 1_545
O20 Sr21 2.640279 1_555
O20 Sr2 2.645055 1_555
O20 Sr12 2.668199 1_655
O21 Ti0 1.945140 1_645
O21 Ti6 2.089346 1_556
O21 Sr10 2.620805 1_545
O21 Sr22 2.649562 1_555
O21 Sr11 2.700543 1_656
O22 Sr7 2.590532 1_555
O22 Sr23 2.608683 1_555
O22 Sr13 2.691099 1_655
O22 Sr3 2.705709 1_555
O23 Ti1 1.967552 1_656
O23 Ti7 1.995047 1_556
O23 Sr8 2.638531 1_555
O24 Ti4 1.858901 1_555
O24 Sr18 2.765710 1_554
O24 Sr5 2.824461 1_554
O25 Sr14 2.608839 1_555
O25 Sr4 2.637937 1_555
O25 Sr1 2.641263 1_555
O25 Sr17 2.663219 1_555
O26 Ti2 1.922360 1_565
O26 Ti5 2.080815 1_555
O26 Sr15 2.562891 1_555
O26 Sr20 2.778050 1_554
O27 Ti3 1.961251 1_555
O27 Sr0 2.596076 1_565
O27 Sr16 2.614013 1_555
O27 Sr6 2.728442 1_555
O27 Sr19 2.731329 1_555
O28 Ti1 1.941312 1_655
O28 Ti6 2.086287 1_555
O28 Sr11 2.628224 1_655
O28 Sr8 2.731520 1_554
O28 Sr22 2.803039 1_554
O29 Sr12 2.615036 1_655
O29 Sr3 2.621696 1_555
O29 Sr7 2.656600 1_555
O29 Sr21 2.683721 1_555
O30 Ti0 1.990002 1_654
O30 Ti7 1.998960 1_555
O30 Sr10 2.817979 1_554
O31 Sr2 2.604470 1_565
O31 Sr13 2.618864 1_655
O31 Sr9 2.649995 1_555
O31 Sr23 2.705255 1_555
O32 Ti0 2.083204 1_544
O32 Sr11 2.523498 1_555
O33 Sr12 2.659118 1_555
O33 Sr0 2.759445 1_555
O33 Sr2 2.860246 1_455
O33 Sr13 3.085441 1_545
O34 Ti1 1.941801 1_555
O35 Sr13 2.562920 1_555
O35 Sr1 2.758971 1_555
O35 Sr3 2.858619 1_455
O35 Sr12 3.129175 1_555
O36 Ti2 2.034384 1_555
O36 Sr15 3.193514 1_545
O37 Ti3 2.048122 1_545
O37 Sr14 2.573505 1_555
O37 Sr2 2.746668 1_555
O37 Sr0 2.891739 1_555
O37 Sr16 3.160748 1_545
O38 Ti4 1.949922 1_555
O38 Sr15 2.486384 1_555
O39 Sr16 2.594199 1_555
O39 Sr3 2.770671 1_555
O39 Sr1 2.875901 1_555
O39 Sr14 3.076354 1_555
O40 Sr17 2.636080 1_555
O40 Sr7 2.770984 1_555
O40 Sr4 2.888015 1_555
O40 Sr19 3.042538 1_555
O41 Ti4 2.113460 1_556
O41 Sr18 2.559906 1_555
O41 Sr8 2.704060 1_555
O41 Sr5 2.942837 1_555
O41 Sr20 3.118945 1_555
O42 Ti3 2.042783 1_555
O42 Sr19 2.601757 1_555
O42 Sr9 2.779359 1_555
O42 Sr6 2.907807 1_555
O42 Sr17 3.124592 1_565
O43 Ti2 2.020679 1_566
O43 Sr20 2.537304 1_555
O43 Sr10 2.667109 1_555
O43 Sr18 3.166134 1_565
O44 Sr21 2.671898 1_555
O44 Sr4 2.794173 1_655
O44 Sr7 2.836090 1_555
O44 Sr23 3.057226 1_555
O45 Ti1 2.152956 1_656
O45 Sr22 2.534302 1_555
O45 Sr5 2.733121 1_655
O45 Sr8 2.844928 1_555
O46 Sr23 2.606378 1_555
O46 Sr6 2.700999 1_655
O46 Sr9 2.849343 1_555
O46 Sr21 3.091137 1_565
O47 Ti0 1.972343 1_655
O47 Sr10 2.952544 1_555
O48 Sr11 2.933898 1_555
O49 Sr0 2.619383 1_555
O49 Sr14 2.786658 1_555
O49 Sr12 2.877194 1_555
O49 Sr1 3.130476 1_555
O50 Ti5 1.986846 1_555
O50 Sr15 2.685686 1_555
O51 Sr1 2.625641 1_555
O51 Sr16 2.802635 1_555
O51 Sr13 2.849042 1_555
O51 Sr0 3.090528 1_565
O52 Ti6 2.022609 1_555
O52 Sr11 2.696674 1_655
O53 Sr2 2.654729 1_555
O53 Sr12 2.778570 1_655
O53 Sr14 2.901919 1_555
O53 Sr3 3.077144 1_555
O54 Ti7 2.001555 1_555
O54 Sr15 3.001406 1_555
O55 Sr3 2.575915 1_555
O55 Sr13 2.742227 1_655
O55 Sr16 2.861044 1_555
O55 Sr2 3.142900 1_565
O56 Sr4 2.681816 1_555
O56 Sr17 2.811545 1_555
O56 Sr21 2.860597 1_455
O56 Sr6 3.059457 1_545
O57 Sr5 2.532071 1_555
O57 Sr18 2.700088 1_555
O57 Sr22 2.867940 1_455
O58 Sr6 2.554449 1_555
O58 Sr19 2.744977 1_555
O58 Sr23 2.880865 1_455
O58 Sr4 3.167159 1_555
O59 Ti5 2.020499 1_556
O59 Sr20 2.675592 1_555
O60 Sr7 2.650428 1_555
O60 Sr17 2.815737 1_555
O60 Sr21 2.828955 1_555
O60 Sr9 3.106276 1_545
O61 Ti6 1.977617 1_556
O61 Sr8 2.549737 1_555
O61 Sr22 2.716903 1_555
O61 Sr18 2.964041 1_555
O61 Sr10 3.155288 1_545
O62 Sr9 2.581869 1_555
O62 Sr23 2.766958 1_555
O62 Sr19 2.854140 1_555
O62 Sr7 3.107415 1_555
O63 Ti7 2.037927 1_556
O63 Sr10 2.528256 1_555
O63 Sr20 2.982887 1_555
O63 Sr8 3.137130 1_555
O64 Sr17 2.510741 1_555
O65 Sr18 2.382722 1_555
O65 Sr0 2.453024 1_555
O66 Sr19 2.525742 1_555
O67 Sr20 2.399656 1_555
O67 Sr1 2.482117 1_555
O68 Sr21 2.502801 1_555
O69 Sr22 2.384757 1_555
O69 Sr2 2.453346 1_555
O70 Sr23 2.544940 1_555
O71 Sr3 2.538120 1_555
O72 Sr11 2.369628 1_555
O72 Sr4 2.449893 1_555
O73 Sr5 2.392171 1_555
O73 Sr12 2.471665 1_555
O74 Sr6 2.511541 1_555
O75 Sr13 2.544726 1_555
O76 Sr7 2.494771 1_555
O77 Sr8 2.381534 1_555
O77 Sr14 2.440104 1_555
O78 Sr15 2.381900 1_555
O78 Sr9 2.466982 1_555
O79 Sr10 2.364868 1_555
O79 Sr16 2.448292 1_555
