# generated using pymatgen
data_TiCrCuS4
_symmetry_space_group_name_H-M   'P 1'
_cell_length_a   6.69002554
_cell_length_b   6.69002554
_cell_length_c   5.93556094
_cell_angle_alpha   63.52743907
_cell_angle_beta   63.52743907
_cell_angle_gamma   29.98106000
_symmetry_Int_Tables_number   1
_chemical_formula_structural   TiCrCuS4
_chemical_formula_sum   'Ti1 Cr1 Cu1 S4'
_cell_volume   117.77076929
_cell_formula_units_Z   1
loop_
 _symmetry_equiv_pos_site_id
 _symmetry_equiv_pos_as_xyz
  1  'x, y, z'
loop_
 _atom_site_type_symbol
 _atom_site_label
 _atom_site_symmetry_multiplicity
 _atom_site_fract_x
 _atom_site_fract_y
 _atom_site_fract_z
 _atom_site_occupancy
  Ti  Ti0  1  0.24433528  0.24433528  0.77772742  1
  Cr  Cr0  1  0.75609421  0.75609421  0.23154871  1
  Cu  Cu0  1  0.49868508  0.49868508  0.50137759  1
  S  S0  1  0.37637767  0.37637767  0.95315868  1
  S  S1  1  0.62217147  0.62217147  0.04842810  1
  S  S2  1  0.86595775  0.86595775  0.46628402  1
  S  S3  1  0.13637854  0.13637854  0.52147448  1
loop_
_geom_bond_atom_site_label_1
_geom_bond_atom_site_label_2
_geom_bond_distance
_geom_bond_site_symmetry_2
Cr0 S0 2.402245 1_654
Cr0 S0 2.402245 1_564
Cr0 S2 2.404886 1_555
Cr0 S3 2.427427 1_565
Cr0 S3 2.427427 1_655
Cr0 S1 2.431844 1_555
Cu0 S0 2.403613 1_555
Cu0 S1 2.411447 1_555
Cu0 S2 2.512053 1_545
Cu0 S2 2.512053 1_455
Cu0 S3 2.524227 1_565
Cu0 S3 2.524227 1_655
S0 Ti0 2.374220 1_555
S1 Ti0 2.393248 1_564
S1 Ti0 2.393248 1_654
S2 Ti0 2.490125 1_655
S2 Ti0 2.490125 1_565
S3 Ti0 2.493811 1_555
