# generated using pymatgen
data_Sr2YV2O7
_symmetry_space_group_name_H-M   'P 1'
_cell_length_a   13.38005522
_cell_length_b   13.38005522
_cell_length_c   13.38005522
_cell_angle_alpha   157.35676002
_cell_angle_beta   156.44940012
_cell_angle_gamma   32.89919436
_symmetry_Int_Tables_number   1
_chemical_formula_structural   Sr2YV2O7
_chemical_formula_sum   'Sr4 Y2 V4 O14'
_cell_volume   368.15226121
_cell_formula_units_Z   2
loop_
 _symmetry_equiv_pos_site_id
 _symmetry_equiv_pos_as_xyz
  1  'x, y, z'
loop_
 _atom_site_type_symbol
 _atom_site_label
 _atom_site_symmetry_multiplicity
 _atom_site_fract_x
 _atom_site_fract_y
 _atom_site_fract_z
 _atom_site_occupancy
  Sr  Sr0  1  0.82300900  0.75222600  0.94263200  1
  Sr  Sr1  1  0.19040700  0.24777400  0.07078300  1
  Sr  Sr2  1  0.69040700  0.61962400  0.94263200  1
  Sr  Sr3  1  0.32300900  0.38037600  0.07078300  1
  Y  Y0  1  0.51560500  0.50000000  0.01560500  1
  Y  Y1  1  0.01560500  0.00000000  0.01560500  1
  V  V0  1  0.43517100  0.92728300  0.52440100  1
  V  V1  1  0.59711800  0.07271700  0.50788800  1
  V  V2  1  0.09711800  0.58922900  0.52440100  1
  V  V3  1  0.93517100  0.41077100  0.50788800  1
  O  O0  1  0.01056500  0.51395300  0.02451800  1
  O  O1  1  0.51056500  0.48604700  0.49661200  1
  O  O2  1  0.21334900  0.19758600  0.51487800  1
  O  O3  1  0.31729200  0.80241400  0.01576200  1
  O  O4  1  0.81729200  0.80153000  0.51487800  1
  O  O5  1  0.71334900  0.19847000  0.01576200  1
  O  O6  1  0.70821600  0.69185500  0.51741100  1
  O  O7  1  0.82555600  0.30814500  0.01636100  1
  O  O8  1  0.32555600  0.30919400  0.51741100  1
  O  O9  1  0.20821600  0.69080600  0.01636100  1
  O  O10  1  0.86864000  0.32249300  0.49233200  1
  O  O11  1  0.16984000  0.67750700  0.54614700  1
  O  O12  1  0.66984000  0.12369300  0.49233200  1
  O  O13  1  0.36864000  0.87630700  0.54614700  1
loop_
_geom_bond_atom_site_label_1
_geom_bond_atom_site_label_2
_geom_bond_distance
_geom_bond_site_symmetry_2
O0 Sr2 2.373503 1_454
O0 Sr0 2.373521 1_454
O0 Sr3 2.409339 1_555
O0 Sr1 2.409339 1_555
O1 Sr3 2.373511 1_555
O1 Sr1 2.373511 1_555
O1 Sr2 2.409328 1_555
O1 Sr0 2.409346 1_555
O2 V3 2.006107 1_455
O2 V0 2.009288 1_545
O2 Y1 2.314657 1_555
O2 Y0 2.319123 1_556
O3 V2 2.006095 1_554
O3 V1 2.009286 1_565
O3 Y1 2.314664 1_565
O3 Y0 2.319131 1_555
O4 V1 2.006100 1_565
O4 V2 2.009285 1_655
O4 Y0 2.314664 1_555
O4 Y1 2.319131 1_666
O5 V0 2.006105 1_544
O5 V3 2.009286 1_555
O5 Y0 2.314660 1_555
O5 Y1 2.319120 1_655
O6 V3 2.007174 1_555
O6 V0 2.008961 1_555
O6 Y1 2.414510 1_666
O6 Y0 2.425397 1_555
O7 V2 2.007178 1_655
O7 V1 2.008961 1_554
O7 Y1 2.414510 1_655
O7 Y0 2.425397 1_555
O8 V1 2.007182 1_555
O8 V2 2.008961 1_555
O8 Y0 2.414502 1_556
O8 Y1 2.425389 1_555
O9 V0 2.007186 1_555
O9 V3 2.008961 1_454
O9 Y0 2.414505 1_555
O9 Y1 2.425386 1_565
O10 V3 1.789714 1_555
O10 Sr0 2.576490 1_555
O10 Sr3 2.834925 1_656
O10 Sr0 2.947859 1_544
O10 Sr3 2.963824 1_555
O11 V2 1.789727 1_555
O11 Sr1 2.576490 1_555
O11 Sr2 2.834920 1_555
O11 Sr1 2.947859 1_566
O11 Sr2 2.963829 1_454
O12 V1 1.789727 1_555
O12 Sr2 2.576490 1_555
O12 Sr1 2.834917 1_656
O12 Sr2 2.947859 1_544
O12 Sr1 2.963817 1_555
O13 V0 1.789714 1_555
O13 Sr3 2.576490 1_555
O13 Sr0 2.834912 1_555
O13 Sr3 2.947859 1_566
O13 Sr0 2.963822 1_454
