# generated using pymatgen
data_Ba2Mg3Tl2(WO3)4
_symmetry_space_group_name_H-M   'P 1'
_cell_length_a   22.23174469
_cell_length_b   22.23174469
_cell_length_c   22.23174469
_cell_angle_alpha   169.72481331
_cell_angle_beta   169.72481331
_cell_angle_gamma   14.55091531
_symmetry_Int_Tables_number   1
_chemical_formula_structural   Ba2Mg3Tl2(WO3)4
_chemical_formula_sum   'Ba2 Mg3 Tl2 W4 O12'
_cell_volume   349.60673797
_cell_formula_units_Z   1
loop_
 _symmetry_equiv_pos_site_id
 _symmetry_equiv_pos_as_xyz
  1  'x, y, z'
loop_
 _atom_site_type_symbol
 _atom_site_label
 _atom_site_symmetry_multiplicity
 _atom_site_fract_x
 _atom_site_fract_y
 _atom_site_fract_z
 _atom_site_occupancy
  Ba  Ba0  1  0.16494800  0.16494800  0.00000000  1
  Ba  Ba1  1  0.83505200  0.83505200  0.00000000  1
  Mg  Mg0  1  0.08096500  0.08096500  0.00000000  1
  Mg  Mg1  1  0.91903500  0.91903500  0.00000000  1
  Mg  Mg2  1  0.00000000  0.00000000  0.00000000  1
  Tl  Tl0  1  0.72503800  0.72503800  0.00000000  1
  Tl  Tl1  1  0.27496200  0.27496200  0.00000000  1
  W  W0  1  0.54438300  0.54438300  0.00000000  1
  W  W1  1  0.39717800  0.39717800  0.00000000  1
  W  W2  1  0.60282200  0.60282200  0.00000000  1
  W  W3  1  0.45561700  0.45561700  0.00000000  1
  O  O0  1  0.89323000  0.39323000  0.50000000  1
  O  O1  1  0.03165600  0.53165600  0.50000000  1
  O  O2  1  0.22104800  0.22104800  0.00000000  1
  O  O3  1  0.46834400  0.96834400  0.50000000  1
  O  O4  1  0.77895200  0.77895200  0.00000000  1
  O  O5  1  0.60677000  0.10677000  0.50000000  1
  O  O6  1  0.10677000  0.60677000  0.50000000  1
  O  O7  1  0.35069100  0.35069100  0.00000000  1
  O  O8  1  0.39323000  0.89323000  0.50000000  1
  O  O9  1  0.53165600  0.03165600  0.50000000  1
  O  O10  1  0.96834400  0.46834400  0.50000000  1
  O  O11  1  0.64930900  0.64930900  0.00000000  1
loop_
_geom_bond_atom_site_label_1
_geom_bond_atom_site_label_2
_geom_bond_distance
_geom_bond_site_symmetry_2
Ba0 O2 2.474319 1_555
Ba0 O11 2.898686 1_545
Ba0 O11 2.898686 1_455
Ba0 O11 2.898686 1_556
Ba0 O11 2.898686 1_444
Ba1 O4 2.474319 1_555
Ba1 O7 2.898686 1_565
Ba1 O7 2.898686 1_655
Ba1 O7 2.898686 1_666
Ba1 O7 2.898686 1_554
Mg0 O5 2.293179 1_454
Mg0 O6 2.293179 1_555
Mg0 O5 2.293179 1_555
Mg0 O6 2.293179 1_544
Mg1 O8 2.293179 1_554
Mg1 O0 2.293179 1_554
Mg1 O8 2.293179 1_655
Mg1 O0 2.293179 1_565
Mg2 O9 2.431601 1_454
Mg2 O3 2.431601 1_444
Mg2 O10 2.431601 1_455
Mg2 O1 2.431601 1_555
Mg2 O10 2.431601 1_444
Mg2 O3 2.431601 1_545
Mg2 O1 2.431601 1_544
Mg2 O9 2.431601 1_555
O0 W1 1.998405 1_656
O0 W1 1.998405 1_555
O1 W0 2.068428 1_556
O1 W0 2.068428 1_455
O2 Tl1 2.377904 1_555
O2 Tl0 2.820917 1_455
O2 Tl0 2.820917 1_556
O2 Tl0 2.820917 1_444
O2 Tl0 2.820917 1_545
O3 W3 2.068428 1_555
O3 W3 2.068428 1_566
O4 Tl0 2.377904 1_555
O4 Tl1 2.820917 1_565
O4 Tl1 2.820917 1_554
O4 Tl1 2.820917 1_655
O4 Tl1 2.820917 1_666
O5 W2 1.998405 1_556
O5 W2 1.998405 1_545
O6 W2 1.998405 1_455
O6 W2 1.998405 1_556
O7 W1 2.050333 1_555
O8 W1 1.998405 1_555
O8 W1 1.998405 1_566
O9 W0 2.068428 1_556
O9 W0 2.068428 1_545
O10 W3 2.068428 1_555
O10 W3 2.068428 1_656
O11 W2 2.050333 1_555
