# generated using pymatgen
data_KBa3Y2(Co3O8)2
_symmetry_space_group_name_H-M   'P 1'
_cell_length_a   12.17363782
_cell_length_b   12.17363782
_cell_length_c   12.17363782
_cell_angle_alpha   153.52786527
_cell_angle_beta   153.52786527
_cell_angle_gamma   37.78620856
_symmetry_Int_Tables_number   1
_chemical_formula_structural   KBa3Y2(Co3O8)2
_chemical_formula_sum   'K1 Ba3 Y2 Co6 O16'
_cell_volume   357.93367158
_cell_formula_units_Z   1
loop_
 _symmetry_equiv_pos_site_id
 _symmetry_equiv_pos_as_xyz
  1  'x, y, z'
loop_
 _atom_site_type_symbol
 _atom_site_label
 _atom_site_symmetry_multiplicity
 _atom_site_fract_x
 _atom_site_fract_y
 _atom_site_fract_z
 _atom_site_occupancy
  K  K0  1  0.41565700  0.41565700  0.00000000  1
  Ba  Ba0  1  0.91560800  0.91560800  0.00000000  1
  Ba  Ba1  1  0.08474200  0.08474200  0.00000000  1
  Ba  Ba2  1  0.58243300  0.58243300  0.00000000  1
  Y  Y0  1  0.75054600  0.75054600  0.00000000  1
  Y  Y1  1  0.25255100  0.25255100  0.00000000  1
  Co  Co0  1  0.33184000  0.83184000  0.50000000  1
  Co  Co1  1  0.83184000  0.33184000  0.50000000  1
  Co  Co2  1  0.17150100  0.67150100  0.50000000  1
  Co  Co3  1  0.67150100  0.17150100  0.50000000  1
  Co  Co4  1  0.99814800  0.49814800  0.50000000  1
  Co  Co5  1  0.49814800  0.99814800  0.50000000  1
  O  O0  1  0.41786800  0.91786800  0.50000000  1
  O  O1  1  0.91786800  0.41786800  0.50000000  1
  O  O2  1  0.08123800  0.58123800  0.50000000  1
  O  O3  1  0.58123800  0.08123800  0.50000000  1
  O  O4  1  0.56282100  0.56282100  0.50335000  1
  O  O5  1  0.05947100  0.05947100  0.49665000  1
  O  O6  1  0.56282100  0.05947100  0.00000000  1
  O  O7  1  0.05947100  0.56282100  0.00000000  1
  O  O8  1  0.43734300  0.43734300  0.49922000  1
  O  O9  1  0.93812300  0.93812300  0.50078000  1
  O  O10  1  0.43734300  0.93812300  0.00000000  1
  O  O11  1  0.93812300  0.43734300  0.00000000  1
  O  O12  1  0.24686700  0.24686700  0.49285400  1
  O  O13  1  0.75401200  0.75401200  0.50714600  1
  O  O14  1  0.24686700  0.75401200  0.00000000  1
  O  O15  1  0.75401200  0.24686700  0.00000000  1
loop_
_geom_bond_atom_site_label_1
_geom_bond_atom_site_label_2
_geom_bond_distance
_geom_bond_site_symmetry_2
K0 O1 2.787786 1_555
K0 O0 2.787786 1_555
K0 O1 2.787786 1_454
K0 O0 2.787786 1_544
K0 O13 2.794748 1_555
K0 O15 2.794754 1_555
K0 O14 2.794754 1_555
K0 O12 2.794764 1_554
K0 O4 3.119729 1_555
K0 O6 3.119729 1_555
K0 O7 3.119729 1_555
K0 O5 3.119729 1_554
Ba0 O13 2.755532 1_554
Ba0 O14 2.755543 1_655
Ba0 O15 2.755543 1_565
Ba0 O12 2.755548 1_665
Ba0 O1 2.787807 1_565
Ba0 O0 2.787807 1_655
Ba0 O0 2.787807 1_554
Ba0 O1 2.787807 1_554
Ba0 O5 3.102124 1_665
Ba0 O6 3.102124 1_565
Ba0 O4 3.102124 1_554
Ba0 O7 3.102124 1_655
Ba1 O12 2.746903 1_555
Ba1 O15 2.746914 1_455
Ba1 O14 2.746914 1_545
Ba1 O13 2.746920 1_444
Ba1 O2 2.788489 1_544
Ba1 O3 2.788489 1_454
Ba1 O2 2.788489 1_555
Ba1 O3 2.788489 1_555
Ba1 O8 3.082371 1_555
Ba1 O11 3.082371 1_455
Ba1 O10 3.082371 1_545
Ba1 O9 3.082371 1_444
Ba2 O12 2.750236 1_554
Ba2 O14 2.750242 1_555
Ba2 O15 2.750242 1_555
Ba2 O13 2.750252 1_555
Ba2 O2 2.787457 1_655
Ba2 O3 2.787457 1_565
Ba2 O2 2.787457 1_554
Ba2 O3 2.787457 1_554
Ba2 O8 3.127372 1_554
Ba2 O9 3.127372 1_555
Ba2 O10 3.127372 1_555
Ba2 O11 3.127372 1_555
Co0 O0 1.981702 1_555
Co0 O6 2.027805 1_566
Co0 O4 2.027805 1_555
Co0 O7 2.027805 1_555
Co0 O5 2.027805 1_565
Co1 O1 1.981702 1_555
Co1 O4 2.027805 1_555
Co1 O6 2.027805 1_555
Co1 O7 2.027805 1_656
Co1 O5 2.027805 1_655
Co2 O9 2.006091 1_455
Co2 O10 2.006091 1_556
Co2 O11 2.006091 1_455
Co2 O8 2.006091 1_555
Co2 O2 2.079258 1_555
Co3 O11 2.006091 1_556
Co3 O9 2.006091 1_545
Co3 O10 2.006091 1_545
Co3 O8 2.006091 1_555
Co3 O3 2.079258 1_555
Co4 O1 1.849294 1_555
Co4 O2 1.914024 1_655
Co4 O13 1.971841 1_555
Co4 O15 1.971841 1_555
Co4 O14 1.971841 1_656
Co4 O12 1.971842 1_655
Co5 O0 1.849294 1_555
Co5 O3 1.914024 1_565
Co5 O13 1.971841 1_555
Co5 O15 1.971841 1_566
Co5 O14 1.971841 1_555
Co5 O12 1.971842 1_565
O4 Y1 2.399725 1_555
O4 Y0 2.404452 1_556
O5 Y1 2.399725 1_556
O5 Y0 2.404452 1_445
O6 Y1 2.399725 1_555
O6 Y0 2.404452 1_545
O7 Y1 2.399725 1_555
O7 Y0 2.404452 1_455
O8 Y0 2.447513 1_556
O8 Y1 2.470197 1_555
O9 Y0 2.447513 1_555
O9 Y1 2.470197 1_666
O10 Y0 2.447513 1_555
O10 Y1 2.470197 1_565
O11 Y0 2.447513 1_555
O11 Y1 2.470197 1_655
