# generated using pymatgen
data_Mg2Fe2O5
_symmetry_space_group_name_H-M   'P 1'
_cell_length_a   3.53551100
_cell_length_b   5.60981000
_cell_length_c   10.60172900
_cell_angle_alpha   90.00000000
_cell_angle_beta   90.00000000
_cell_angle_gamma   90.00000000
_symmetry_Int_Tables_number   1
_chemical_formula_structural   Mg2Fe2O5
_chemical_formula_sum   'Mg4 Fe4 O10'
_cell_volume   210.26986881
_cell_formula_units_Z   2
loop_
 _symmetry_equiv_pos_site_id
 _symmetry_equiv_pos_as_xyz
  1  'x, y, z'
loop_
 _atom_site_type_symbol
 _atom_site_label
 _atom_site_symmetry_multiplicity
 _atom_site_fract_x
 _atom_site_fract_y
 _atom_site_fract_z
 _atom_site_occupancy
  Mg  Mg0  1  0.50000000  0.79134800  0.90239700  1
  Mg  Mg1  1  0.50000000  0.20865200  0.09760300  1
  Mg  Mg2  1  0.50000000  0.29134800  0.59760300  1
  Mg  Mg3  1  0.50000000  0.70865200  0.40239700  1
  Fe  Fe0  1  0.00000000  0.76044200  0.63981800  1
  Fe  Fe1  1  0.00000000  0.23955800  0.36018200  1
  Fe  Fe2  1  0.00000000  0.73955800  0.13981800  1
  Fe  Fe3  1  0.00000000  0.26044200  0.86018200  1
  O  O0  1  0.00000000  0.00000000  0.50000000  1
  O  O1  1  0.00000000  0.63961600  0.30945100  1
  O  O2  1  0.00000000  0.13961600  0.19054900  1
  O  O3  1  0.00000000  0.86038400  0.80945100  1
  O  O4  1  0.50000000  0.83416400  0.09036700  1
  O  O5  1  0.50000000  0.16583600  0.90963300  1
  O  O6  1  0.00000000  0.36038400  0.69054900  1
  O  O7  1  0.50000000  0.66583600  0.59036700  1
  O  O8  1  0.00000000  0.50000000  0.00000000  1
  O  O9  1  0.50000000  0.33416400  0.40963300  1
loop_
_geom_bond_atom_site_label_1
_geom_bond_atom_site_label_2
_geom_bond_distance
_geom_bond_site_symmetry_2
Mg0 O4 2.007230 1_556
Mg0 O3 2.060567 1_555
Mg0 O3 2.060567 1_655
Mg0 O5 2.102207 1_565
Mg0 O8 2.620491 1_556
Mg0 O8 2.620491 1_656
Mg1 O5 2.007230 1_554
Mg1 O2 2.060567 1_555
Mg1 O2 2.060567 1_655
Mg1 O4 2.102207 1_545
Mg1 O8 2.620491 1_555
Mg1 O8 2.620491 1_655
Mg2 O9 2.007230 1_555
Mg2 O6 2.060567 1_555
Mg2 O6 2.060567 1_655
Mg2 O7 2.102207 1_555
Mg2 O0 2.620491 1_655
Mg2 O0 2.620491 1_555
Mg3 O7 2.007230 1_555
Mg3 O1 2.060567 1_655
Mg3 O1 2.060567 1_555
Mg3 O9 2.102207 1_555
Mg3 O0 2.620491 1_565
Mg3 O0 2.620491 1_665
Fe0 O3 1.883770 1_555
Fe0 O7 1.918718 1_455
Fe0 O7 1.918718 1_555
Fe0 O0 2.000812 1_565
Fe0 O6 2.307796 1_555
Fe1 O2 1.883770 1_555
Fe1 O9 1.918718 1_555
Fe1 O9 1.918718 1_455
Fe1 O0 2.000812 1_555
Fe1 O1 2.307796 1_555
Fe2 O1 1.883770 1_555
Fe2 O4 1.918718 1_455
Fe2 O4 1.918718 1_555
Fe2 O8 2.000812 1_555
Fe2 O2 2.307796 1_565
Fe3 O6 1.883770 1_555
Fe3 O5 1.918718 1_455
Fe3 O5 1.918718 1_555
Fe3 O8 2.000812 1_556
Fe3 O3 2.307796 1_545
