# generated using pymatgen
data_Y2FeC4
_symmetry_space_group_name_H-M   'P 1'
_cell_length_a   5.04379800
_cell_length_b   6.62141762
_cell_length_c   6.62141762
_cell_angle_alpha   68.86653391
_cell_angle_beta   67.61242020
_cell_angle_gamma   67.61242020
_symmetry_Int_Tables_number   1
_chemical_formula_structural   Y2FeC4
_chemical_formula_sum   'Y4 Fe2 C8'
_cell_volume   182.95422213
_cell_formula_units_Z   2
loop_
 _symmetry_equiv_pos_site_id
 _symmetry_equiv_pos_as_xyz
  1  'x, y, z'
loop_
 _atom_site_type_symbol
 _atom_site_label
 _atom_site_symmetry_multiplicity
 _atom_site_fract_x
 _atom_site_fract_y
 _atom_site_fract_z
 _atom_site_occupancy
  Y  Y0  1  0.14564100  0.19685700  0.51186200  1
  Y  Y1  1  0.85435900  0.80314300  0.48813800  1
  Y  Y2  1  0.64564100  0.51186200  0.19685700  1
  Y  Y3  1  0.35435900  0.48813800  0.80314300  1
  Fe  Fe0  1  0.75000000  0.00000000  0.00000000  1
  Fe  Fe1  1  0.25000000  0.00000000  0.00000000  1
  C  C0  1  0.37179100  0.79151000  0.46490800  1
  C  C1  1  0.62820900  0.20849000  0.53509200  1
  C  C2  1  0.87179100  0.46490800  0.79151000  1
  C  C3  1  0.12820900  0.53509200  0.20849000  1
  C  C4  1  0.42304700  0.91155000  0.24235600  1
  C  C5  1  0.57695300  0.08845000  0.75764400  1
  C  C6  1  0.92304700  0.24235600  0.91155000  1
  C  C7  1  0.07695300  0.75764400  0.08845000  1
loop_
_geom_bond_atom_site_label_1
_geom_bond_atom_site_label_2
_geom_bond_distance
_geom_bond_site_symmetry_2
C0 C4 1.375451 1_555
C0 Y3 2.408140 1_555
C0 Y1 2.527918 1_555
C0 Y1 2.527923 1_455
C0 Y0 2.569236 1_565
C0 Y2 2.653461 1_555
C1 C5 1.375451 1_555
C1 Y2 2.408140 1_555
C1 Y0 2.527918 1_555
C1 Y0 2.527923 1_655
C1 Y1 2.569236 1_545
C1 Y3 2.653461 1_555
C2 C6 1.375451 1_555
C2 Y1 2.408140 1_555
C2 Y3 2.527918 1_655
C2 Y3 2.527923 1_555
C2 Y2 2.569236 1_556
C2 Y0 2.653461 1_655
C3 C7 1.375451 1_555
C3 Y0 2.408140 1_555
C3 Y2 2.527918 1_455
C3 Y2 2.527923 1_555
C3 Y3 2.569236 1_554
C3 Y1 2.653461 1_455
C4 Fe1 1.918290 1_565
C4 Fe0 1.918290 1_565
C4 Y2 2.531632 1_555
C4 Y0 2.688218 1_565
C5 Fe0 1.918290 1_556
C5 Fe1 1.918290 1_556
C5 Y3 2.531632 1_555
C5 Y1 2.688218 1_545
C6 Fe0 1.918290 1_556
C6 Fe1 1.918290 1_656
C6 Y0 2.531632 1_655
C6 Y2 2.688218 1_556
C7 Fe0 1.918290 1_465
C7 Fe1 1.918290 1_565
C7 Y1 2.531632 1_455
C7 Y3 2.688218 1_554
