# generated using pymatgen
data_Mg14SiNi
_symmetry_space_group_name_H-M   'P 1'
_cell_length_a   6.14844746
_cell_length_b   6.14844700
_cell_length_c   10.10153081
_cell_angle_alpha   90.00000000
_cell_angle_beta   90.00000000
_cell_angle_gamma   120.00000249
_symmetry_Int_Tables_number   1
_chemical_formula_structural   Mg14SiNi
_chemical_formula_sum   'Mg14 Si1 Ni1'
_cell_volume   330.71105549
_cell_formula_units_Z   1
loop_
 _symmetry_equiv_pos_site_id
 _symmetry_equiv_pos_as_xyz
  1  'x, y, z'
loop_
 _atom_site_type_symbol
 _atom_site_label
 _atom_site_symmetry_multiplicity
 _atom_site_fract_x
 _atom_site_fract_y
 _atom_site_fract_z
 _atom_site_occupancy
  Mg  Mg0  1  0.16433596  0.83216748  0.12500000  1
  Mg  Mg1  1  0.16689123  0.83344511  0.62500000  1
  Mg  Mg2  1  0.66783252  0.33566404  0.12500000  1
  Mg  Mg3  1  0.66655489  0.33310877  0.62500000  1
  Mg  Mg4  1  0.66783252  0.83216748  0.12500000  1
  Mg  Mg5  1  0.66655489  0.83344511  0.62500000  1
  Mg  Mg6  1  0.32791910  0.17208090  0.36834556  1
  Mg  Mg7  1  0.32791910  0.17208090  0.88165444  1
  Mg  Mg8  1  0.32791910  0.65583921  0.36834556  1
  Mg  Mg9  1  0.32791910  0.65583921  0.88165444  1
  Mg  Mg10  1  0.84416079  0.17208090  0.36834556  1
  Mg  Mg11  1  0.84416079  0.17208090  0.88165444  1
  Mg  Mg12  1  0.83333300  0.66666700  0.37392291  1
  Mg  Mg13  1  0.83333300  0.66666700  0.87607709  1
  Si  Si0  1  0.16666700  0.33333300  0.62500000  1
  Ni  Ni0  1  0.16666700  0.33333300  0.12500000  1
loop_
_geom_bond_atom_site_label_1
_geom_bond_atom_site_label_2
_geom_bond_distance
_geom_bond_site_symmetry_2
Mg0 Mg2 3.052725 1_455
Mg0 Mg4 3.052725 1_455
Mg0 Mg9 3.052859 1_554
Mg0 Mg8 3.052859 1_555
Mg0 Mg7 3.052865 1_564
Mg0 Mg6 3.052865 1_565
Mg0 Mg12 3.070686 1_455
Mg0 Mg13 3.070686 1_454
Mg0 Ni0 3.074249 1_565
Mg0 Ni0 3.074249 1_555
Mg0 Mg2 3.095722 1_565
Mg0 Mg4 3.095722 1_555
Mg1 Mg3 3.072156 1_565
Mg1 Mg5 3.072156 1_555
Mg1 Si0 3.074224 1_555
Mg1 Si0 3.074224 1_565
Mg1 Mg3 3.076291 1_455
Mg1 Mg5 3.076292 1_455
Mg1 Mg12 3.096315 1_455
Mg1 Mg13 3.096315 1_455
Mg1 Mg9 3.158394 1_555
Mg1 Mg8 3.158394 1_555
Mg1 Mg6 3.158400 1_565
Mg1 Mg7 3.158400 1_565
Mg2 Mg4 3.052725 1_555
Mg2 Mg7 3.052865 1_554
Mg2 Mg6 3.052865 1_555
Mg2 Ni0 3.074249 1_655
Mg2 Ni0 3.074249 1_555
Mg2 Mg4 3.095722 1_545
Mg3 Mg5 3.072156 1_545
Mg3 Si0 3.074224 1_655
Mg3 Si0 3.074224 1_555
Mg3 Mg5 3.076291 1_555
Mg3 Mg6 3.158400 1_555
Mg3 Mg7 3.158400 1_555
Mg4 Mg8 3.052865 1_555
Mg4 Mg9 3.052865 1_554
Mg4 Ni0 3.074249 1_665
Mg4 Ni0 3.074249 1_555
Mg5 Si0 3.074224 1_555
Mg5 Si0 3.074224 1_665
Mg5 Mg8 3.158400 1_555
Mg5 Mg9 3.158400 1_555
Mg6 Mg8 2.974362 1_555
Mg6 Ni0 2.998580 1_555
Mg6 Si0 3.109744 1_555
Mg6 Mg8 3.174085 1_545
Mg7 Mg9 2.974362 1_555
Mg7 Ni0 2.998580 1_556
Mg7 Si0 3.109744 1_555
Mg7 Mg9 3.174085 1_545
Mg8 Ni0 2.998586 1_555
Mg8 Si0 3.109750 1_555
Mg9 Ni0 2.998586 1_556
Mg9 Si0 3.109750 1_555
Mg10 Mg8 2.974362 1_655
Mg10 Mg6 2.974363 1_655
Mg10 Ni0 2.998586 1_655
Mg10 Mg2 3.052859 1_555
Mg10 Mg4 3.052865 1_545
Mg10 Mg12 3.075280 1_555
Mg10 Mg12 3.075280 1_545
Mg10 Si0 3.109750 1_655
Mg10 Mg3 3.158394 1_555
Mg10 Mg5 3.158400 1_545
Mg10 Mg8 3.174085 1_545
Mg10 Mg6 3.174085 1_555
Mg11 Mg9 2.974362 1_655
Mg11 Mg7 2.974363 1_655
Mg11 Ni0 2.998586 1_656
Mg11 Mg2 3.052859 1_556
Mg11 Mg4 3.052865 1_546
Mg11 Mg13 3.075280 1_555
Mg11 Mg13 3.075280 1_545
Mg11 Si0 3.109750 1_655
Mg11 Mg3 3.158394 1_555
Mg11 Mg5 3.158400 1_545
Mg11 Mg9 3.174085 1_545
Mg11 Mg7 3.174085 1_555
Mg12 Mg4 3.070680 1_555
Mg12 Mg2 3.070686 1_555
Mg12 Mg6 3.075280 1_665
Mg12 Mg6 3.075280 1_555
Mg12 Mg8 3.075280 1_655
Mg12 Mg8 3.075280 1_555
Mg12 Mg5 3.096309 1_555
Mg12 Mg3 3.096315 1_555
Mg13 Mg4 3.070680 1_556
Mg13 Mg2 3.070686 1_556
Mg13 Mg7 3.075280 1_665
Mg13 Mg7 3.075280 1_555
Mg13 Mg9 3.075280 1_655
Mg13 Mg9 3.075280 1_555
Mg13 Mg5 3.096309 1_555
Mg13 Mg3 3.096315 1_555
