# generated using pymatgen
data_Yb(Ga2Ge)2
_symmetry_space_group_name_H-M   'P 1'
_cell_length_a   6.11032800
_cell_length_b   6.11032800
_cell_length_c   8.69970429
_cell_angle_alpha   110.55951917
_cell_angle_beta   110.55951917
_cell_angle_gamma   90.00000000
_symmetry_Int_Tables_number   1
_chemical_formula_structural   Yb(Ga2Ge)2
_chemical_formula_sum   'Yb2 Ga8 Ge4'
_cell_volume   281.92297471
_cell_formula_units_Z   2
loop_
 _symmetry_equiv_pos_site_id
 _symmetry_equiv_pos_as_xyz
  1  'x, y, z'
loop_
 _atom_site_type_symbol
 _atom_site_label
 _atom_site_symmetry_multiplicity
 _atom_site_fract_x
 _atom_site_fract_y
 _atom_site_fract_z
 _atom_site_occupancy
  Yb  Yb0  1  0.08255000  0.58255000  0.16510100  1
  Yb  Yb1  1  0.58255000  0.08255000  0.16510100  1
  Ga  Ga0  1  0.46411100  0.96411100  0.50541600  1
  Ga  Ga1  1  0.04130500  0.54130500  0.50541600  1
  Ga  Ga2  1  0.96411100  0.04130500  0.50541600  1
  Ga  Ga3  1  0.54130500  0.46411100  0.50541600  1
  Ga  Ga4  1  0.49245800  0.49245800  0.98491500  1
  Ga  Ga5  1  0.99245800  0.99245800  0.98491500  1
  Ga  Ga6  1  0.65747900  0.65747900  0.31495800  1
  Ga  Ga7  1  0.15747900  0.15747900  0.31495800  1
  Ge  Ge0  1  0.74579300  0.24579300  0.80971200  1
  Ge  Ge1  1  0.06391800  0.56391800  0.80971200  1
  Ge  Ge2  1  0.24579300  0.06391800  0.80971200  1
  Ge  Ge3  1  0.56391800  0.74579300  0.80971200  1
loop_
_geom_bond_atom_site_label_1
_geom_bond_atom_site_label_2
_geom_bond_distance
_geom_bond_site_symmetry_2
Ga0 Ge0 2.555868 1_565
Ga0 Ga7 2.616581 1_565
Ga0 Ga6 2.616581 1_555
Ga0 Yb0 3.152867 1_555
Ga0 Yb1 3.580874 1_565
Ga1 Ge1 2.555872 1_555
Ga1 Ga6 2.616581 1_455
Ga1 Ga7 2.616581 1_555
Ga1 Yb0 3.152862 1_555
Ga1 Yb1 3.580880 1_455
Ga2 Ge2 2.555870 1_655
Ga2 Ga7 2.616581 1_655
Ga2 Ga6 2.616581 1_545
Ga2 Yb1 3.152864 1_555
Ga2 Yb0 3.580877 1_645
Ga3 Ge3 2.555870 1_555
Ga3 Ga6 2.616581 1_555
Ga3 Ga7 2.616581 1_555
Ga3 Yb1 3.152864 1_555
Ga3 Yb0 3.580877 1_555
Ga4 Ga6 2.492137 1_556
Ga4 Ge3 2.652297 1_555
Ga4 Ge0 2.652302 1_555
Ga4 Ge1 2.652307 1_555
Ga4 Ge2 2.652311 1_555
Ga4 Yb1 3.344421 1_566
Ga4 Yb0 3.344421 1_656
Ga4 Yb0 3.344432 1_556
Ga4 Yb1 3.344432 1_556
Ga5 Ga7 2.492137 1_666
Ga5 Ge2 2.652297 1_665
Ga5 Ge0 2.652302 1_565
Ga5 Ge1 2.652307 1_655
Ga5 Ge3 2.652311 1_555
Ga5 Yb0 3.344421 1_666
Ga5 Yb1 3.344421 1_666
Ga5 Yb1 3.344432 1_566
Ga5 Yb0 3.344432 1_656
Ga6 Yb0 3.257981 1_655
Ga6 Yb1 3.257981 1_565
Ga6 Yb0 3.257987 1_555
Ga6 Yb1 3.257987 1_555
Ga7 Yb0 3.257981 1_555
Ga7 Yb1 3.257981 1_555
Ga7 Yb0 3.257987 1_545
Ga7 Yb1 3.257987 1_455
Ge0 Ge1 2.749016 1_655
Ge0 Yb0 3.015057 1_656
Ge1 Yb0 3.015057 1_556
Ge2 Ge3 2.749016 1_545
Ge2 Yb1 3.015057 1_556
Ge3 Yb1 3.015057 1_566
