# generated using pymatgen
data_HoCo5Si3
_symmetry_space_group_name_H-M   'P 1'
_cell_length_a   3.66794193
_cell_length_b   14.55327969
_cell_length_c   14.55327254
_cell_angle_alpha   120.00040454
_cell_angle_beta   90.00000000
_cell_angle_gamma   90.00000000
_symmetry_Int_Tables_number   1
_chemical_formula_structural   HoCo5Si3
_chemical_formula_sum   'Ho6 Co30 Si18'
_cell_volume   672.77965716
_cell_formula_units_Z   6
loop_
 _symmetry_equiv_pos_site_id
 _symmetry_equiv_pos_as_xyz
  1  'x, y, z'
loop_
 _atom_site_type_symbol
 _atom_site_label
 _atom_site_symmetry_multiplicity
 _atom_site_fract_x
 _atom_site_fract_y
 _atom_site_fract_z
 _atom_site_occupancy
  Ho  Ho0  1  0.75000000  0.70702208  0.10108896  1
  Ho  Ho1  1  0.25000000  0.29296737  0.89891309  1
  Ho  Ho2  1  0.75000000  0.39406801  0.29297271  1
  Ho  Ho3  1  0.25000000  0.60594715  0.70702575  1
  Ho  Ho4  1  0.75000000  0.89890949  0.60594363  1
  Ho  Ho5  1  0.25000000  0.10108449  0.39406366  1
  Co  Co0  1  0.75000000  0.90411477  0.02963745  1
  Co  Co1  1  0.25000000  0.09588435  0.97035480  1
  Co  Co2  1  0.75000000  0.12553091  0.09587883  1
  Co  Co3  1  0.25000000  0.87447722  0.90410765  1
  Co  Co4  1  0.75000000  0.97036279  0.87447525  1
  Co  Co5  1  0.25000000  0.02964247  0.12552205  1
  Co  Co6  1  0.75000000  0.58649559  0.85251333  1
  Co  Co7  1  0.25000000  0.41350754  0.14748767  1
  Co  Co8  1  0.75000000  0.26601932  0.41350233  1
  Co  Co9  1  0.25000000  0.73398398  0.58649792  1
  Co  Co10  1  0.75000000  0.14748202  0.73398327  1
  Co  Co11  1  0.25000000  0.85250797  0.26601976  1
  Co  Co12  1  0.75000000  0.95141199  0.21942077  1
  Co  Co13  1  0.25000000  0.04858583  0.78057637  1
  Co  Co14  1  0.75000000  0.26800977  0.04858723  1
  Co  Co15  1  0.25000000  0.73199244  0.95140815  1
  Co  Co16  1  0.75000000  0.78058118  0.73199032  1
  Co  Co17  1  0.25000000  0.21942317  0.26800423  1
  Co  Co18  1  0.75000000  0.77486192  0.34765293  1
  Co  Co19  1  0.25000000  0.22512963  0.65234945  1
  Co  Co20  1  0.75000000  0.57278572  0.22513440  1
  Co  Co21  1  0.25000000  0.42721398  0.77486754  1
  Co  Co22  1  0.75000000  0.65234833  0.42721999  1
  Co  Co23  1  0.25000000  0.34765039  0.57278728  1
  Co  Co24  1  0.75000000  0.45937315  0.53374372  1
  Co  Co25  1  0.25000000  0.54063778  0.46625749  1
  Co  Co26  1  0.75000000  0.07437449  0.54063933  1
  Co  Co27  1  0.25000000  0.92561942  0.45937168  1
  Co  Co28  1  0.75000000  0.46625490  0.92562596  1
  Co  Co29  1  0.25000000  0.53374495  0.07437980  1
  Si  Si0  1  0.75000000  0.93726243  0.36988869  1
  Si  Si1  1  0.25000000  0.06273310  0.63011036  1
  Si  Si2  1  0.75000000  0.43262556  0.06273759  1
  Si  Si3  1  0.25000000  0.56737751  0.93726607  1
  Si  Si4  1  0.75000000  0.63011383  0.56737637  1
  Si  Si5  1  0.25000000  0.36988728  0.43262153  1
  Si  Si6  1  0.75000000  0.44252004  0.68187376  1
  Si  Si7  1  0.25000000  0.55748326  0.31812662  1
  Si  Si8  1  0.75000000  0.23935172  0.55747819  1
  Si  Si9  1  0.25000000  0.76063554  0.44251446  1
  Si  Si10  1  0.75000000  0.31812506  0.76064335  1
  Si  Si11  1  0.25000000  0.68187412  0.23935516  1
  Si  Si12  1  0.75000000  0.75306689  0.87126175  1
  Si  Si13  1  0.25000000  0.24693848  0.12873975  1
  Si  Si14  1  0.75000000  0.11819283  0.24692947  1
  Si  Si15  1  0.25000000  0.88180597  0.75306651  1
  Si  Si16  1  0.75000000  0.12873927  0.88180660  1
  Si  Si17  1  0.25000000  0.87126056  0.11819699  1
loop_
_geom_bond_atom_site_label_1
_geom_bond_atom_site_label_2
_geom_bond_distance
_geom_bond_site_symmetry_2
Ho0 Si11 2.878003 1_655
Ho0 Si11 2.878003 1_555
Ho0 Si3 2.886607 1_654
Ho0 Si3 2.886607 1_554
Ho0 Si17 2.922913 1_655
Ho0 Si17 2.922913 1_555
Ho1 Si10 2.878110 1_455
Ho1 Si10 2.878110 1_555
Ho1 Si2 2.886676 1_556
Ho1 Si2 2.886676 1_456
Ho1 Si16 2.922803 1_455
Ho1 Si16 2.922803 1_555
Ho2 Si7 2.877988 1_555
Ho2 Si7 2.877988 1_655
Ho2 Si5 2.886682 1_555
Ho2 Si5 2.886682 1_655
Ho2 Si13 2.922862 1_555
Ho2 Si13 2.922862 1_655
Ho3 Si6 2.878127 1_455
Ho3 Si6 2.878127 1_555
Ho3 Si4 2.886592 1_555
Ho3 Si4 2.886592 1_455
Ho3 Si12 2.922836 1_455
Ho3 Si12 2.922836 1_555
Ho4 Si9 2.878128 1_655
Ho4 Si9 2.878128 1_555
Ho4 Si1 2.886673 1_565
Ho4 Si1 2.886673 1_665
Ho4 Si15 2.922799 1_655
Ho4 Si15 2.922799 1_555
Ho5 Si8 2.877998 1_555
Ho5 Si8 2.877998 1_455
Ho5 Si0 2.886621 1_445
Ho5 Si0 2.886621 1_545
Ho5 Si14 2.922959 1_555
Ho5 Si14 2.922959 1_455
Co0 Si12 2.253443 1_554
Co0 Si17 2.422683 1_555
Co0 Si17 2.422683 1_655
Co0 Co5 2.469568 1_665
Co0 Co5 2.469568 1_565
Co0 Co3 2.469607 1_654
Co0 Co3 2.469607 1_554
Co0 Co12 2.490201 1_555
Co1 Si13 2.253557 1_556
Co1 Si16 2.422584 1_455
Co1 Si16 2.422584 1_555
Co1 Co4 2.469512 1_445
Co1 Co4 2.469512 1_545
Co1 Co2 2.469527 1_456
Co1 Co2 2.469527 1_556
Co1 Co13 2.490126 1_555
Co2 Si14 2.253577 1_555
Co2 Si13 2.422607 1_555
Co2 Si13 2.422607 1_655
Co2 Co5 2.469613 1_555
Co2 Co5 2.469613 1_655
Co3 Si15 2.253366 1_555
Co3 Si12 2.422669 1_555
Co3 Si12 2.422669 1_455
Co3 Co4 2.469513 1_455
Co3 Co4 2.469513 1_555
Co4 Si16 2.253444 1_565
Co4 Si15 2.422636 1_555
Co4 Si15 2.422636 1_655
Co5 Si17 2.253566 1_545
Co5 Si14 2.422611 1_455
Co5 Si14 2.422611 1_555
Co6 Si12 2.299902 1_555
Co6 Si3 2.303344 1_555
Co6 Si3 2.303344 1_655
Co6 Si6 2.313861 1_555
Co6 Ho3 2.919935 1_555
Co6 Ho3 2.919935 1_655
Co6 Ho0 3.133390 1_556
Co7 Si13 2.299873 1_555
Co7 Si2 2.303320 1_455
Co7 Si2 2.303320 1_555
Co7 Si7 2.313856 1_555
Co7 Ho2 2.919826 1_555
Co7 Ho2 2.919826 1_455
Co7 Ho1 3.133373 1_554
Co8 Si14 2.299924 1_555
Co8 Si5 2.303314 1_655
Co8 Si5 2.303314 1_555
Co8 Si8 2.313913 1_555
Co8 Ho5 2.919943 1_655
Co8 Ho5 2.919943 1_555
Co8 Ho2 3.133443 1_555
Co9 Si15 2.299861 1_555
Co9 Si4 2.303326 1_555
Co9 Si4 2.303326 1_455
Co9 Si9 2.313878 1_555
Co9 Ho4 2.919806 1_555
Co9 Ho4 2.919806 1_455
Co9 Ho3 3.133269 1_555
Co10 Si16 2.299863 1_555
Co10 Si1 2.303338 1_555
Co10 Si1 2.303338 1_655
Co10 Si10 2.313944 1_555
Co10 Co26 2.460817 1_555
Co10 Co13 2.621198 1_655
Co10 Co13 2.621198 1_555
Co10 Co19 2.719261 1_555
Co10 Co19 2.719261 1_655
Co10 Ho1 2.919851 1_555
Co10 Ho1 2.919851 1_655
Co10 Ho4 3.133349 1_545
Co11 Si17 2.299939 1_555
Co11 Si0 2.303333 1_455
Co11 Si0 2.303333 1_555
Co11 Si11 2.313787 1_555
Co11 Co27 2.460916 1_555
Co11 Co12 2.621321 1_455
Co11 Co12 2.621321 1_555
Co11 Co18 2.719241 1_555
Co11 Co18 2.719241 1_455
Co11 Ho0 2.919860 1_555
Co11 Ho0 2.919860 1_455
Co11 Ho5 3.133400 1_565
Co12 Si14 2.253861 1_565
Co12 Si17 2.275047 1_655
Co12 Si17 2.275047 1_555
Co12 Si0 2.299688 1_555
Co12 Ho5 3.005275 1_565
Co12 Ho5 3.005275 1_665
Co12 Ho0 3.080672 1_555
Co13 Si15 2.253841 1_545
Co13 Si16 2.275090 1_455
Co13 Si16 2.275090 1_555
Co13 Si1 2.299642 1_555
Co13 Ho4 3.005220 1_545
Co13 Ho4 3.005220 1_445
Co13 Ho1 3.080564 1_555
Co14 Si16 2.253839 1_554
Co14 Si13 2.275056 1_555
Co14 Si13 2.275056 1_655
Co14 Si2 2.299657 1_555
Co14 Co2 2.490051 1_555
Co14 Co7 2.621263 1_555
Co14 Co7 2.621263 1_655
Co14 Ho1 3.005216 1_654
Co14 Ho1 3.005216 1_554
Co14 Ho2 3.080614 1_555
Co15 Si17 2.253901 1_556
Co15 Si12 2.275022 1_555
Co15 Si12 2.275022 1_455
Co15 Si3 2.299697 1_555
Co15 Co3 2.490224 1_555
Co15 Co6 2.621244 1_555
Co15 Co6 2.621244 1_455
Co15 Ho0 3.005382 1_456
Co15 Ho0 3.005382 1_556
Co15 Ho3 3.080572 1_555
Co16 Si12 2.253905 1_555
Co16 Si15 2.275049 1_655
Co16 Si15 2.275049 1_555
Co16 Si4 2.299641 1_555
Co16 Co4 2.490170 1_555
Co16 Co9 2.621213 1_555
Co16 Co9 2.621213 1_655
Co16 Ho3 3.005209 1_655
Co16 Ho3 3.005209 1_555
Co16 Ho4 3.080500 1_555
Co17 Si13 2.253815 1_555
Co17 Si14 2.275100 1_455
Co17 Si14 2.275100 1_555
Co17 Si5 2.299648 1_555
Co17 Co5 2.490150 1_555
Co17 Co8 2.621272 1_455
Co17 Co8 2.621272 1_555
Co17 Ho2 3.005315 1_455
Co17 Ho2 3.005315 1_555
Co17 Ho5 3.080792 1_555
Co18 Si0 2.219421 1_555
Co18 Si11 2.354984 1_555
Co18 Si11 2.354984 1_655
Co18 Si9 2.366021 1_655
Co18 Si9 2.366021 1_555
Co18 Co27 2.693211 1_555
Co18 Co27 2.693211 1_655
Co18 Ho0 3.210604 1_555
Co18 Ho4 3.256200 1_555
Co19 Si1 2.219345 1_555
Co19 Si10 2.354989 1_555
Co19 Si10 2.354989 1_455
Co19 Si8 2.366086 1_555
Co19 Si8 2.366086 1_455
Co19 Co26 2.693169 1_555
Co19 Co26 2.693169 1_455
Co19 Ho1 3.210607 1_555
Co19 Ho5 3.256138 1_555
Co20 Si2 2.219351 1_555
Co20 Si7 2.354989 1_555
Co20 Si7 2.354989 1_655
Co20 Si11 2.366044 1_555
Co20 Si11 2.366044 1_655
Co20 Co29 2.693180 1_655
Co20 Co29 2.693180 1_555
Co20 Co7 2.719222 1_555
Co20 Co7 2.719222 1_655
Co20 Ho2 3.210511 1_555
Co20 Ho0 3.256108 1_555
Co21 Si3 2.219385 1_555
Co21 Si6 2.355023 1_455
Co21 Si6 2.355023 1_555
Co21 Si10 2.366037 1_455
Co21 Si10 2.366037 1_555
Co21 Co28 2.693219 1_555
Co21 Co28 2.693219 1_455
Co21 Co6 2.719255 1_455
Co21 Co6 2.719255 1_555
Co21 Ho3 3.210764 1_555
Co21 Ho1 3.256240 1_555
Co22 Si4 2.219292 1_555
Co22 Si9 2.354948 1_655
Co22 Si9 2.354948 1_555
Co22 Si7 2.366057 1_655
Co22 Si7 2.366057 1_555
Co22 Co25 2.693127 1_655
Co22 Co25 2.693127 1_555
Co22 Co9 2.719220 1_655
Co22 Co9 2.719220 1_555
Co22 Ho4 3.210563 1_555
Co22 Ho2 3.256073 1_555
Co23 Si5 2.219448 1_555
Co23 Si8 2.355000 1_455
Co23 Si8 2.355000 1_555
Co23 Si6 2.366036 1_555
Co23 Si6 2.366036 1_455
Co23 Co24 2.693298 1_455
Co23 Co24 2.693298 1_555
Co23 Co8 2.719284 1_455
Co23 Co8 2.719284 1_555
Co23 Ho5 3.210612 1_555
Co23 Ho3 3.256275 1_555
Co24 Si4 2.279854 1_555
Co24 Si6 2.288292 1_555
Co24 Si5 2.304054 1_555
Co24 Si5 2.304054 1_655
Co24 Co8 2.460937 1_555
Co24 Co25 2.624562 1_655
Co24 Co25 2.624562 1_555
Co24 Ho3 2.982254 1_555
Co24 Ho3 2.982254 1_655
Co24 Ho2 3.138641 1_555
Co25 Si5 2.279979 1_555
Co25 Si7 2.288240 1_555
Co25 Si4 2.304002 1_555
Co25 Si4 2.304002 1_455
Co25 Co9 2.460847 1_555
Co25 Ho2 2.982256 1_555
Co25 Ho2 2.982256 1_455
Co25 Ho3 3.138586 1_555
Co26 Si0 2.279957 1_545
Co26 Si8 2.288291 1_555
Co26 Si1 2.303956 1_655
Co26 Si1 2.303956 1_555
Co26 Co27 2.624592 1_545
Co26 Co27 2.624592 1_645
Co26 Ho5 2.982300 1_655
Co26 Ho5 2.982300 1_555
Co26 Ho4 3.138632 1_545
Co27 Si1 2.279851 1_565
Co27 Si9 2.288276 1_555
Co27 Si0 2.304069 1_455
Co27 Si0 2.304069 1_555
Co27 Ho4 2.982257 1_455
Co27 Ho4 2.982257 1_555
Co27 Ho5 3.138672 1_565
Co28 Si2 2.279879 1_556
Co28 Si10 2.288271 1_555
Co28 Si3 2.304049 1_555
Co28 Si3 2.304049 1_655
Co28 Co6 2.460946 1_555
Co28 Co29 2.624579 1_556
Co28 Co29 2.624579 1_656
Co28 Ho1 2.982306 1_655
Co28 Ho1 2.982306 1_555
Co28 Ho0 3.138581 1_556
Co29 Si3 2.279940 1_554
Co29 Si11 2.288206 1_555
Co29 Si2 2.304013 1_555
Co29 Si2 2.304013 1_455
Co29 Co7 2.460847 1_555
Co29 Ho0 2.982203 1_555
Co29 Ho0 2.982203 1_455
Co29 Ho1 3.138702 1_554
Si6 Si8 2.582052 1_555
Si7 Si9 2.581852 1_555
Si10 Si8 2.582012 1_555
Si10 Si6 2.582025 1_555
Si11 Si9 2.581955 1_555
Si11 Si7 2.581991 1_555
