# generated using pymatgen
data_SrLa3Cr4O12
_symmetry_space_group_name_H-M   'P 1'
_cell_length_a   5.53432230
_cell_length_b   7.82319027
_cell_length_c   5.58905708
_cell_angle_alpha   90.07321051
_cell_angle_beta   90.65269014
_cell_angle_gamma   91.01561189
_symmetry_Int_Tables_number   1
_chemical_formula_structural   SrLa3Cr4O12
_chemical_formula_sum   'Sr1 La3 Cr4 O12'
_cell_volume   241.93015195
_cell_formula_units_Z   1
loop_
 _symmetry_equiv_pos_site_id
 _symmetry_equiv_pos_as_xyz
  1  'x, y, z'
loop_
 _atom_site_type_symbol
 _atom_site_label
 _atom_site_symmetry_multiplicity
 _atom_site_fract_x
 _atom_site_fract_y
 _atom_site_fract_z
 _atom_site_occupancy
  Sr  Sr0  1  0.49976500  0.24782600  0.00295300  1
  La  La0  1  0.00024100  0.75253000  0.49654000  1
  La  La1  1  0.50057200  0.75436100  0.99881900  1
  La  La2  1  0.99826400  0.24690500  0.50121500  1
  Cr  Cr0  1  0.99999900  0.00085000  0.00068000  1
  Cr  Cr1  1  0.49896700  0.49739900  0.49896300  1
  Cr  Cr2  1  0.99985100  0.49933900  0.99958400  1
  Cr  Cr3  1  0.50058500  0.99989900  0.49977000  1
  O  O0  1  0.00092900  0.74864300  0.06187700  1
  O  O1  1  0.49867100  0.25822800  0.55205900  1
  O  O2  1  0.99940800  0.25086000  0.93303500  1
  O  O3  1  0.50140200  0.74411800  0.43845400  1
  O  O4  1  0.22036100  0.53386400  0.71670200  1
  O  O5  1  0.78127400  0.96615100  0.71770400  1
  O  O6  1  0.72261000  0.02239700  0.22409200  1
  O  O7  1  0.28289200  0.47605500  0.23120400  1
  O  O8  1  0.71534600  0.53757800  0.77036500  1
  O  O9  1  0.27978200  0.96258800  0.77831500  1
  O  O10  1  0.21412100  0.02800600  0.28874800  1
  O  O11  1  0.78496300  0.47240400  0.28891900  1
loop_
_geom_bond_atom_site_label_1
_geom_bond_atom_site_label_2
_geom_bond_distance
_geom_bond_site_symmetry_2
La0 O5 2.426937 1_455
La0 O0 2.429555 1_555
La0 O4 2.443288 1_555
La0 O10 2.709540 1_565
La0 O9 2.724310 1_555
La0 O11 2.727278 1_455
La0 O8 2.761079 1_455
La0 O3 2.775693 1_455
La0 O3 2.798113 1_555
La0 O6 3.034253 1_465
La1 O9 2.388923 1_555
La1 O8 2.453541 1_555
La1 O3 2.458508 1_556
La1 O6 2.712729 1_566
La1 O5 2.756476 1_555
La1 O4 2.776546 1_555
La1 O0 2.788643 1_656
La1 O0 2.791114 1_556
La1 O7 2.797948 1_556
La2 O2 2.413560 1_555
La2 O10 2.422709 1_655
La2 O11 2.441470 1_555
La2 O6 2.766829 1_555
La2 O5 2.770686 1_545
La2 O1 2.780568 1_655
La2 O1 2.785649 1_555
La2 O4 2.804034 1_655
La2 O7 2.816632 1_655
Cr0 O2 1.992608 1_554
Cr0 O5 1.995992 1_544
Cr0 O10 1.997081 1_655
Cr0 O6 1.999149 1_555
Cr0 O0 2.003007 1_645
Cr0 O9 2.022640 1_644
Cr1 O1 1.894817 1_555
Cr1 O7 1.910228 1_555
Cr1 O8 1.943661 1_555
Cr1 O3 1.959797 1_555
Cr1 O11 1.993576 1_555
Cr1 O4 1.999315 1_555
Cr2 O2 1.978650 1_555
Cr2 O0 1.980639 1_656
Cr2 O4 2.023691 1_655
Cr2 O11 2.027211 1_556
Cr2 O7 2.031566 1_656
Cr2 O8 2.044910 1_555
Cr3 O10 1.980715 1_565
Cr3 O5 1.984620 1_555
Cr3 O6 1.987709 1_565
Cr3 O9 2.008474 1_555
Cr3 O3 2.029818 1_555
Cr3 O1 2.041839 1_565
O1 Sr0 2.521432 1_556
O1 Sr0 3.070037 1_555
O2 Sr0 2.792685 1_656
O2 Sr0 2.796754 1_556
O4 Sr0 3.167579 1_556
O5 Sr0 3.161345 1_566
O6 Sr0 2.491335 1_555
O7 Sr0 2.522100 1_555
O8 Sr0 2.863328 1_556
O9 Sr0 2.810639 1_566
O10 Sr0 2.824189 1_555
O11 Sr0 2.823044 1_555
