# generated using pymatgen
data_KLiMg30O31
_symmetry_space_group_name_H-M   'P 1'
_cell_length_a   8.55524700
_cell_length_b   8.57500300
_cell_length_c   8.64544500
_cell_angle_alpha   90.00000000
_cell_angle_beta   90.00000000
_cell_angle_gamma   90.00000000
_symmetry_Int_Tables_number   1
_chemical_formula_structural   KLiMg30O31
_chemical_formula_sum   'K1 Li1 Mg30 O31'
_cell_volume   634.24081360
_cell_formula_units_Z   1
loop_
 _symmetry_equiv_pos_site_id
 _symmetry_equiv_pos_as_xyz
  1  'x, y, z'
loop_
 _atom_site_type_symbol
 _atom_site_label
 _atom_site_symmetry_multiplicity
 _atom_site_fract_x
 _atom_site_fract_y
 _atom_site_fract_z
 _atom_site_occupancy
  K  K0  1  0.00000000  0.00438000  0.00000000  1
  Li  Li0  1  0.50000000  0.02390400  0.00000000  1
  Mg  Mg0  1  0.00000000  0.00159700  0.50000000  1
  Mg  Mg1  1  0.50000000  0.00450300  0.50000000  1
  Mg  Mg2  1  0.00000000  0.49993700  0.00000000  1
  Mg  Mg3  1  0.50000000  0.48041000  0.00000000  1
  Mg  Mg4  1  0.00000000  0.49883500  0.50000000  1
  Mg  Mg5  1  0.50000000  0.49729000  0.50000000  1
  Mg  Mg6  1  0.25557300  0.99856300  0.24832700  1
  Mg  Mg7  1  0.74442700  0.99856300  0.24832700  1
  Mg  Mg8  1  0.25557300  0.99856300  0.75167300  1
  Mg  Mg9  1  0.74442700  0.99856300  0.75167300  1
  Mg  Mg10  1  0.25077000  0.50046500  0.24899400  1
  Mg  Mg11  1  0.74923000  0.50046500  0.24899400  1
  Mg  Mg12  1  0.25077000  0.50046500  0.75100600  1
  Mg  Mg13  1  0.74923000  0.50046500  0.75100600  1
  Mg  Mg14  1  0.23134600  0.75293300  0.00000000  1
  Mg  Mg15  1  0.76865400  0.75293300  0.00000000  1
  Mg  Mg16  1  0.24710600  0.75117100  0.50000000  1
  Mg  Mg17  1  0.75289400  0.75117100  0.50000000  1
  Mg  Mg18  1  0.25359400  0.24496600  0.00000000  1
  Mg  Mg19  1  0.74640600  0.24496600  0.00000000  1
  Mg  Mg20  1  0.24941800  0.24857000  0.50000000  1
  Mg  Mg21  1  0.75058200  0.24857000  0.50000000  1
  Mg  Mg22  1  0.00000000  0.75018700  0.25467300  1
  Mg  Mg23  1  0.50000000  0.75509600  0.27059400  1
  Mg  Mg24  1  0.00000000  0.75018700  0.74532700  1
  Mg  Mg25  1  0.50000000  0.75509600  0.72940600  1
  Mg  Mg26  1  0.00000000  0.25049500  0.25149200  1
  Mg  Mg27  1  0.50000000  0.24305700  0.24813800  1
  Mg  Mg28  1  0.00000000  0.25049500  0.74850800  1
  Mg  Mg29  1  0.50000000  0.24305700  0.75186200  1
  O  O0  1  0.00000000  0.72727400  0.00000000  1
  O  O1  1  0.00000000  0.74450400  0.50000000  1
  O  O2  1  0.50000000  0.74569600  0.50000000  1
  O  O3  1  0.00000000  0.27535000  0.00000000  1
  O  O4  1  0.50000000  0.25264600  0.00000000  1
  O  O5  1  0.00000000  0.25487000  0.50000000  1
  O  O6  1  0.50000000  0.25412800  0.50000000  1
  O  O7  1  0.25458700  0.74921400  0.24642700  1
  O  O8  1  0.74541300  0.74921400  0.24642700  1
  O  O9  1  0.25458700  0.74921400  0.75357300  1
  O  O10  1  0.74541300  0.74921400  0.75357300  1
  O  O11  1  0.25113200  0.24997700  0.24740800  1
  O  O12  1  0.74886800  0.24997700  0.24740800  1
  O  O13  1  0.25113200  0.24997700  0.75259200  1
  O  O14  1  0.74886800  0.24997700  0.75259200  1
  O  O15  1  0.28056900  0.98650800  0.00000000  1
  O  O16  1  0.71943100  0.98650800  0.00000000  1
  O  O17  1  0.25346700  0.99886100  0.50000000  1
  O  O18  1  0.74653300  0.99886100  0.50000000  1
  O  O19  1  0.26147300  0.50937700  0.00000000  1
  O  O20  1  0.73852700  0.50937700  0.00000000  1
  O  O21  1  0.25245900  0.50075100  0.50000000  1
  O  O22  1  0.74754100  0.50075100  0.50000000  1
  O  O23  1  0.00000000  0.99781600  0.27284000  1
  O  O24  1  0.50000000  0.99694900  0.26235600  1
  O  O25  1  0.00000000  0.99781600  0.72716000  1
  O  O26  1  0.50000000  0.99694900  0.73764400  1
  O  O27  1  0.00000000  0.50169700  0.25327900  1
  O  O28  1  0.50000000  0.50746900  0.24479600  1
  O  O29  1  0.00000000  0.50169700  0.74672100  1
  O  O30  1  0.50000000  0.50746900  0.75520400  1
loop_
_geom_bond_atom_site_label_1
_geom_bond_atom_site_label_2
_geom_bond_distance
_geom_bond_site_symmetry_2
K0 O3 2.323569 1_555
K0 O23 2.359495 1_545
K0 O25 2.359495 1_544
K0 O0 2.376185 1_545
K0 O15 2.405224 1_545
K0 O16 2.405224 1_445
Li0 O16 1.904477 1_545
Li0 O15 1.904477 1_545
Li0 O4 1.961463 1_555
Li0 O24 2.279931 1_545
Li0 O26 2.279931 1_544
Mg0 O23 1.964167 1_545
Mg0 O25 1.964167 1_545
Mg0 O18 2.168600 1_445
Mg0 O17 2.168600 1_545
Mg0 O5 2.171817 1_555
Mg0 O1 2.204573 1_545
Mg1 O26 2.055559 1_545
Mg1 O24 2.055559 1_545
Mg1 O17 2.109706 1_545
Mg1 O18 2.109706 1_545
Mg1 O6 2.140535 1_555
Mg1 O2 2.219271 1_545
Mg2 O3 1.925834 1_555
Mg2 O0 1.949415 1_555
Mg2 O27 2.189762 1_555
Mg2 O29 2.189762 1_554
Mg2 O19 2.238430 1_555
Mg2 O20 2.238430 1_455
Mg3 O4 1.953077 1_555
Mg3 O20 2.055719 1_555
Mg3 O19 2.055719 1_555
Mg3 O28 2.129052 1_555
Mg3 O30 2.129052 1_554
Mg4 O5 2.092001 1_555
Mg4 O1 2.106612 1_555
Mg4 O29 2.133154 1_555
Mg4 O27 2.133154 1_555
Mg4 O22 2.159912 1_455
Mg4 O21 2.159912 1_555
Mg5 O6 2.085115 1_555
Mg5 O21 2.117982 1_555
Mg5 O22 2.117982 1_555
Mg5 O2 2.130082 1_555
Mg5 O30 2.208078 1_555
Mg5 O28 2.208078 1_555
Mg6 O24 2.094693 1_555
Mg6 O7 2.138248 1_555
Mg6 O11 2.156225 1_565
Mg6 O15 2.159996 1_555
Mg6 O17 2.175901 1_555
Mg6 O23 2.196746 1_555
Mg7 O24 2.094693 1_555
Mg7 O8 2.138248 1_555
Mg7 O12 2.156225 1_565
Mg7 O16 2.159996 1_555
Mg7 O18 2.175901 1_555
Mg7 O23 2.196746 1_655
Mg8 O26 2.094693 1_555
Mg8 O9 2.138248 1_555
Mg8 O13 2.156225 1_565
Mg8 O15 2.159996 1_556
Mg8 O17 2.175901 1_555
Mg8 O25 2.196746 1_555
Mg9 O26 2.094693 1_555
Mg9 O10 2.138248 1_555
Mg9 O14 2.156225 1_565
Mg9 O16 2.159996 1_556
Mg9 O18 2.175901 1_555
Mg9 O25 2.196746 1_655
Mg10 O28 2.133379 1_555
Mg10 O7 2.133389 1_555
Mg10 O27 2.145745 1_555
Mg10 O11 2.147981 1_555
Mg10 O19 2.155965 1_555
Mg10 O21 2.170108 1_555
Mg11 O28 2.133379 1_555
Mg11 O8 2.133389 1_555
Mg11 O27 2.145745 1_655
Mg11 O12 2.147981 1_555
Mg11 O20 2.155965 1_555
Mg11 O22 2.170108 1_555
Mg12 O30 2.133379 1_555
Mg12 O9 2.133389 1_555
Mg12 O29 2.145745 1_555
Mg12 O13 2.147981 1_555
Mg12 O19 2.155965 1_556
Mg12 O21 2.170108 1_555
Mg13 O30 2.133379 1_555
Mg13 O10 2.133389 1_555
Mg13 O29 2.145745 1_655
Mg13 O14 2.147981 1_555
Mg13 O20 2.155965 1_556
Mg13 O22 2.170108 1_555
Mg14 O0 1.991415 1_555
Mg14 O15 2.046698 1_555
Mg14 O19 2.104338 1_555
Mg14 O7 2.139967 1_555
Mg14 O9 2.139967 1_554
Mg15 O0 1.991415 1_655
Mg15 O16 2.046698 1_555
Mg15 O20 2.104338 1_555
Mg15 O8 2.139967 1_555
Mg15 O10 2.139967 1_554
Mg16 O1 2.114826 1_555
Mg16 O17 2.124640 1_555
Mg16 O21 2.147841 1_555
Mg16 O2 2.164080 1_555
Mg16 O9 2.193250 1_555
Mg16 O7 2.193250 1_555
Mg17 O1 2.114826 1_655
Mg17 O18 2.124640 1_555
Mg17 O22 2.147841 1_555
Mg17 O2 2.164080 1_555
Mg17 O10 2.193250 1_555
Mg17 O8 2.193250 1_555
Mg18 O4 2.109093 1_555
Mg18 O11 2.139488 1_555
Mg18 O13 2.139488 1_554
Mg18 O3 2.185148 1_555
Mg18 O15 2.228261 1_545
Mg18 O19 2.268327 1_555
Mg19 O4 2.109093 1_555
Mg19 O12 2.139488 1_555
Mg19 O14 2.139488 1_554
Mg19 O3 2.185148 1_655
Mg19 O16 2.228261 1_545
Mg19 O20 2.268327 1_555
Mg20 O5 2.134516 1_555
Mg20 O17 2.141536 1_545
Mg20 O6 2.144321 1_555
Mg20 O21 2.162609 1_555
Mg20 O13 2.183853 1_555
Mg20 O11 2.183853 1_555
Mg21 O5 2.134516 1_655
Mg21 O18 2.141536 1_545
Mg21 O6 2.144321 1_555
Mg21 O22 2.162609 1_555
Mg21 O14 2.183853 1_555
Mg21 O12 2.183853 1_555
Mg22 O1 2.121521 1_555
Mg22 O23 2.129220 1_555
Mg22 O27 2.130837 1_555
Mg22 O7 2.179237 1_555
Mg22 O8 2.179237 1_455
Mg22 O0 2.210511 1_555
Mg23 O2 1.984954 1_555
Mg23 O24 2.075113 1_555
Mg23 O7 2.110542 1_555
Mg23 O8 2.110542 1_555
Mg23 O28 2.135084 1_555
Mg24 O1 2.121521 1_555
Mg24 O25 2.129220 1_555
Mg24 O29 2.130837 1_555
Mg24 O10 2.179237 1_455
Mg24 O9 2.179237 1_555
Mg24 O0 2.210511 1_556
Mg25 O2 1.984954 1_555
Mg25 O26 2.075113 1_555
Mg25 O10 2.110542 1_555
Mg25 O9 2.110542 1_555
Mg25 O30 2.135084 1_555
Mg26 O5 2.148790 1_555
Mg26 O11 2.148791 1_555
Mg26 O12 2.148791 1_455
Mg26 O27 2.154113 1_555
Mg26 O23 2.174570 1_545
Mg26 O3 2.184681 1_555
Mg27 O24 2.113954 1_545
Mg27 O12 2.129963 1_555
Mg27 O11 2.129963 1_555
Mg27 O4 2.146839 1_555
Mg27 O6 2.179528 1_555
Mg27 O28 2.267518 1_555
Mg28 O5 2.148790 1_555
Mg28 O13 2.148791 1_555
Mg28 O14 2.148791 1_455
Mg28 O29 2.154113 1_555
Mg28 O25 2.174570 1_545
Mg28 O3 2.184681 1_556
Mg29 O26 2.113954 1_545
Mg29 O14 2.129963 1_555
Mg29 O13 2.129963 1_555
Mg29 O4 2.146839 1_556
Mg29 O6 2.179528 1_555
Mg29 O30 2.267518 1_555
