# generated using pymatgen
data_Mg2Cd
_symmetry_space_group_name_H-M   'P 1'
_cell_length_a   16.51123559
_cell_length_b   16.51123559
_cell_length_c   9.92309842
_cell_angle_alpha   90.00000000
_cell_angle_beta   90.00000000
_cell_angle_gamma   157.61632165
_symmetry_Int_Tables_number   1
_chemical_formula_structural   Mg2Cd
_chemical_formula_sum   'Mg32 Cd16'
_cell_volume   1030.17583249
_cell_formula_units_Z   16
loop_
 _symmetry_equiv_pos_site_id
 _symmetry_equiv_pos_as_xyz
  1  'x, y, z'
loop_
 _atom_site_type_symbol
 _atom_site_label
 _atom_site_symmetry_multiplicity
 _atom_site_fract_x
 _atom_site_fract_y
 _atom_site_fract_z
 _atom_site_occupancy
  Mg  Mg0_0  1  0.00014970  0.49985030  0.00000000  1
  Mg  Mg0_1  1  0.00014970  0.49985030  0.50000000  1
  Mg  Mg0_2  1  0.00014970  0.99985030  0.00000000  1
  Mg  Mg0_3  1  0.00014970  0.99985030  0.50000000  1
  Mg  Mg0_4  1  0.50014970  0.49985030  0.00000000  1
  Mg  Mg0_5  1  0.50014970  0.49985030  0.50000000  1
  Mg  Mg0_6  1  0.50014970  0.99985030  0.00000000  1
  Mg  Mg0_7  1  0.50014970  0.99985030  0.50000000  1
  Mg  Mg1_0  1  0.16615473  0.33384527  0.00000000  1
  Mg  Mg1_1  1  0.16615473  0.33384527  0.50000000  1
  Mg  Mg1_2  1  0.16615473  0.83384527  0.00000000  1
  Mg  Mg1_3  1  0.16615473  0.83384527  0.50000000  1
  Mg  Mg1_4  1  0.66615473  0.33384527  0.00000000  1
  Mg  Mg1_5  1  0.66615473  0.33384527  0.50000000  1
  Mg  Mg1_6  1  0.66615473  0.83384527  0.00000000  1
  Mg  Mg1_7  1  0.66615473  0.83384527  0.50000000  1
  Mg  Mg2_0  1  0.33260197  0.16739803  0.00000000  1
  Mg  Mg2_1  1  0.33260197  0.16739803  0.50000000  1
  Mg  Mg2_2  1  0.33260197  0.66739803  0.00000000  1
  Mg  Mg2_3  1  0.33260197  0.66739803  0.50000000  1
  Mg  Mg2_4  1  0.83260197  0.16739803  0.00000000  1
  Mg  Mg2_5  1  0.83260197  0.16739803  0.50000000  1
  Mg  Mg2_6  1  0.83260197  0.66739803  0.00000000  1
  Mg  Mg2_7  1  0.83260197  0.66739803  0.50000000  1
  Mg  Mg3_0  1  0.22296341  0.27703659  0.25000000  1
  Mg  Mg3_1  1  0.22296341  0.27703659  0.75000000  1
  Mg  Mg3_2  1  0.22296341  0.77703658  0.25000000  1
  Mg  Mg3_3  1  0.22296341  0.77703658  0.75000000  1
  Mg  Mg3_4  1  0.72296342  0.27703659  0.25000000  1
  Mg  Mg3_5  1  0.72296342  0.27703659  0.75000000  1
  Mg  Mg3_6  1  0.72296341  0.77703659  0.25000000  1
  Mg  Mg3_7  1  0.72296341  0.77703659  0.75000000  1
  Cd  Cd0_0  1  0.05471517  0.44528482  0.25000000  1
  Cd  Cd0_1  1  0.05471517  0.44528482  0.75000000  1
  Cd  Cd0_2  1  0.05471517  0.94528482  0.25000000  1
  Cd  Cd0_3  1  0.05471517  0.94528482  0.75000000  1
  Cd  Cd0_4  1  0.55471518  0.44528482  0.25000000  1
  Cd  Cd0_5  1  0.55471518  0.44528482  0.75000000  1
  Cd  Cd0_6  1  0.55471518  0.94528482  0.25000000  1
  Cd  Cd0_7  1  0.55471518  0.94528482  0.75000000  1
  Cd  Cd1_0  1  0.39008200  0.10991801  0.25000000  1
  Cd  Cd1_1  1  0.39008200  0.10991801  0.75000000  1
  Cd  Cd1_2  1  0.39008200  0.60991801  0.25000000  1
  Cd  Cd1_3  1  0.39008200  0.60991801  0.75000000  1
  Cd  Cd1_4  1  0.89008200  0.10991801  0.25000000  1
  Cd  Cd1_5  1  0.89008200  0.10991801  0.75000000  1
  Cd  Cd1_6  1  0.89008200  0.60991801  0.25000000  1
  Cd  Cd1_7  1  0.89008200  0.60991801  0.75000000  1
loop_
_geom_bond_atom_site_label_1
_geom_bond_atom_site_label_2
_geom_bond_distance
_geom_bond_site_symmetry_2
Mg0_0 Mg3_5 3.081792 1_454
Mg0_0 Mg3_4 3.081792 1_455
Mg0_0 Mg3_3 3.081792 1_554
Mg0_0 Mg3_2 3.081792 1_555
Mg0_0 Mg2_2 3.114775 1_555
Mg0_0 Mg2_4 3.114775 1_455
Mg0_0 Mg1_4 3.157735 1_455
Mg0_0 Mg1_2 3.157735 1_555
Mg0_0 Mg0_6 3.204742 1_445
Mg0_0 Mg0_6 3.204742 1_555
Mg0_1 Mg3_3 3.081792 1_555
Mg0_1 Mg3_4 3.081792 1_455
Mg0_1 Mg3_2 3.081792 1_555
Mg0_1 Mg3_5 3.081792 1_455
Mg0_1 Mg2_3 3.114775 1_555
Mg0_1 Mg2_5 3.114775 1_455
Mg0_1 Mg1_3 3.157735 1_555
Mg0_1 Mg1_5 3.157735 1_455
Mg0_1 Mg0_7 3.204742 1_555
Mg0_1 Mg0_7 3.204742 1_445
Mg0_2 Mg3_7 3.081792 1_454
Mg0_2 Mg3_1 3.081792 1_564
Mg0_2 Mg3_6 3.081792 1_455
Mg0_2 Mg3_0 3.081792 1_565
Mg0_2 Mg2_0 3.114775 1_565
Mg0_2 Mg2_6 3.114775 1_455
Mg0_2 Mg1_0 3.157735 1_565
Mg0_2 Mg1_6 3.157735 1_455
Mg0_2 Mg0_4 3.204742 1_565
Mg0_2 Mg0_4 3.204742 1_455
Mg0_3 Mg3_1 3.081792 1_565
Mg0_3 Mg3_7 3.081792 1_455
Mg0_3 Mg3_6 3.081792 1_455
Mg0_3 Mg3_0 3.081792 1_565
Mg0_3 Mg2_7 3.114775 1_455
Mg0_3 Mg2_1 3.114775 1_565
Mg0_3 Mg1_1 3.157735 1_565
Mg0_3 Mg1_7 3.157735 1_455
Mg0_3 Mg0_5 3.204742 1_565
Mg0_3 Mg0_5 3.204742 1_455
Mg0_4 Mg3_0 3.081792 1_555
Mg0_4 Mg3_1 3.081792 1_554
Mg0_4 Mg3_7 3.081792 1_554
Mg0_4 Mg3_6 3.081792 1_555
Mg0_4 Mg2_6 3.114775 1_555
Mg0_4 Mg2_0 3.114775 1_555
Mg0_4 Mg1_0 3.157735 1_555
Mg0_4 Mg1_6 3.157735 1_555
Mg0_5 Mg3_0 3.081792 1_555
Mg0_5 Mg3_1 3.081792 1_555
Mg0_5 Mg3_7 3.081792 1_555
Mg0_5 Mg3_6 3.081792 1_555
Mg0_5 Mg2_1 3.114775 1_555
Mg0_5 Mg2_7 3.114775 1_555
Mg0_5 Mg1_1 3.157735 1_555
Mg0_5 Mg1_7 3.157735 1_555
Mg0_6 Mg3_5 3.081792 1_564
Mg0_6 Mg3_4 3.081792 1_565
Mg0_6 Mg3_3 3.081792 1_554
Mg0_6 Mg3_2 3.081792 1_555
Mg0_6 Mg2_2 3.114775 1_555
Mg0_6 Mg2_4 3.114775 1_565
Mg0_6 Mg1_4 3.157735 1_565
Mg0_6 Mg1_2 3.157735 1_555
Mg0_7 Mg3_5 3.081792 1_565
Mg0_7 Mg3_4 3.081792 1_565
Mg0_7 Mg3_3 3.081792 1_555
Mg0_7 Mg3_2 3.081792 1_555
Mg0_7 Mg2_3 3.114775 1_555
Mg0_7 Mg2_5 3.114775 1_565
Mg0_7 Mg1_5 3.157735 1_565
Mg0_7 Mg1_3 3.157735 1_555
Mg1_0 Mg3_1 3.088835 1_554
Mg1_0 Mg3_0 3.088835 1_555
Mg1_0 Mg2_4 3.145399 1_455
Mg1_0 Mg2_2 3.145399 1_555
Mg1_0 Mg1_6 3.204742 1_445
Mg1_0 Mg1_6 3.204742 1_555
Mg1_1 Mg3_1 3.088835 1_555
Mg1_1 Mg3_0 3.088835 1_555
Mg1_1 Mg2_5 3.145399 1_455
Mg1_1 Mg2_3 3.145399 1_555
Mg1_1 Mg1_7 3.204742 1_445
Mg1_1 Mg1_7 3.204742 1_555
Mg1_2 Mg3_3 3.088835 1_554
Mg1_2 Mg3_2 3.088835 1_555
Mg1_2 Mg2_6 3.145399 1_455
Mg1_2 Mg2_0 3.145399 1_565
Mg1_2 Mg1_4 3.204742 1_565
Mg1_2 Mg1_4 3.204742 1_455
Mg1_3 Mg3_3 3.088835 1_555
Mg1_3 Mg3_2 3.088835 1_555
Mg1_3 Mg2_7 3.145399 1_455
Mg1_3 Mg2_1 3.145399 1_565
Mg1_3 Mg1_5 3.204742 1_565
Mg1_3 Mg1_5 3.204742 1_455
Mg1_4 Mg3_4 3.088835 1_555
Mg1_4 Mg3_5 3.088835 1_554
Mg1_4 Mg2_6 3.145399 1_555
Mg1_4 Mg2_0 3.145399 1_555
Mg1_5 Mg3_4 3.088835 1_555
Mg1_5 Mg3_5 3.088835 1_555
Mg1_5 Mg2_1 3.145399 1_555
Mg1_5 Mg2_7 3.145399 1_555
Mg1_6 Mg3_7 3.088835 1_554
Mg1_6 Mg3_6 3.088835 1_555
Mg1_6 Mg2_4 3.145399 1_565
Mg1_6 Mg2_2 3.145399 1_555
Mg1_7 Mg3_6 3.088835 1_555
Mg1_7 Mg3_7 3.088835 1_555
Mg1_7 Mg2_5 3.145399 1_565
Mg1_7 Mg2_3 3.145399 1_555
Mg2_0 Mg2_6 3.204742 1_445
Mg2_0 Mg2_6 3.204742 1_555
Mg2_1 Mg2_7 3.204742 1_445
Mg2_1 Mg2_7 3.204742 1_555
Mg2_2 Mg2_4 3.204742 1_455
Mg2_2 Mg2_4 3.204742 1_565
Mg2_3 Mg2_5 3.204742 1_455
Mg2_3 Mg2_5 3.204742 1_565
Mg3_0 Mg3_6 3.204742 1_555
Mg3_0 Mg3_6 3.204742 1_445
Mg3_1 Mg3_7 3.204742 1_555
Mg3_1 Mg3_7 3.204742 1_445
Mg3_2 Mg3_4 3.204742 1_455
Mg3_2 Mg3_4 3.204742 1_565
Mg3_3 Mg3_5 3.204742 1_455
Mg3_3 Mg3_5 3.204742 1_565
Cd0_0 Mg0_0 3.046100 1_555
Cd0_0 Mg0_1 3.046100 1_555
Cd0_0 Mg2_2 3.088354 1_555
Cd0_0 Mg2_3 3.088354 1_555
Cd0_0 Mg2_4 3.088354 1_455
Cd0_0 Mg2_5 3.088354 1_455
Cd0_0 Mg3_4 3.095338 1_455
Cd0_0 Mg3_2 3.095338 1_555
Cd0_0 Cd1_4 3.196108 1_455
Cd0_0 Cd1_2 3.196108 1_555
Cd0_0 Cd0_6 3.204742 1_555
Cd0_0 Cd0_6 3.204742 1_445
Cd0_1 Mg0_0 3.046100 1_556
Cd0_1 Mg0_1 3.046100 1_555
Cd0_1 Mg2_2 3.088354 1_556
Cd0_1 Mg2_3 3.088354 1_555
Cd0_1 Mg2_4 3.088354 1_456
Cd0_1 Mg2_5 3.088354 1_455
Cd0_1 Mg3_5 3.095338 1_455
Cd0_1 Mg3_3 3.095338 1_555
Cd0_1 Cd1_5 3.196108 1_455
Cd0_1 Cd1_3 3.196108 1_555
Cd0_1 Cd0_7 3.204742 1_445
Cd0_1 Cd0_7 3.204742 1_555
Cd0_2 Mg0_2 3.046100 1_555
Cd0_2 Mg0_3 3.046100 1_555
Cd0_2 Mg2_7 3.088354 1_455
Cd0_2 Mg2_6 3.088354 1_455
Cd0_2 Mg2_0 3.088354 1_565
Cd0_2 Mg2_1 3.088354 1_565
Cd0_2 Mg3_0 3.095338 1_565
Cd0_2 Mg3_6 3.095338 1_455
Cd0_2 Cd1_0 3.196108 1_565
Cd0_2 Cd1_6 3.196108 1_455
Cd0_2 Cd0_4 3.204742 1_565
Cd0_2 Cd0_4 3.204742 1_455
Cd0_3 Mg0_2 3.046100 1_556
Cd0_3 Mg0_3 3.046100 1_555
Cd0_3 Mg2_6 3.088354 1_456
Cd0_3 Mg2_7 3.088354 1_455
Cd0_3 Mg2_1 3.088354 1_565
Cd0_3 Mg2_0 3.088354 1_566
Cd0_3 Mg3_1 3.095338 1_565
Cd0_3 Mg3_7 3.095338 1_455
Cd0_3 Cd1_1 3.196108 1_565
Cd0_3 Cd1_7 3.196108 1_455
Cd0_3 Cd0_5 3.204742 1_565
Cd0_3 Cd0_5 3.204742 1_455
Cd0_4 Mg0_5 3.046100 1_555
Cd0_4 Mg0_4 3.046100 1_555
Cd0_4 Mg2_7 3.088354 1_555
Cd0_4 Mg2_6 3.088354 1_555
Cd0_4 Mg2_0 3.088354 1_555
Cd0_4 Mg2_1 3.088354 1_555
Cd0_4 Mg3_0 3.095338 1_555
Cd0_4 Mg3_6 3.095338 1_555
Cd0_4 Cd1_6 3.196108 1_555
Cd0_4 Cd1_0 3.196108 1_555
Cd0_5 Mg0_4 3.046100 1_556
Cd0_5 Mg0_5 3.046100 1_555
Cd0_5 Mg2_7 3.088354 1_555
Cd0_5 Mg2_0 3.088354 1_556
Cd0_5 Mg2_6 3.088354 1_556
Cd0_5 Mg2_1 3.088354 1_555
Cd0_5 Mg3_1 3.095338 1_555
Cd0_5 Mg3_7 3.095338 1_555
Cd0_5 Cd1_7 3.196108 1_555
Cd0_5 Cd1_1 3.196108 1_555
Cd0_6 Mg0_7 3.046100 1_555
Cd0_6 Mg0_6 3.046100 1_555
Cd0_6 Mg2_5 3.088354 1_565
Cd0_6 Mg2_2 3.088354 1_555
Cd0_6 Mg2_3 3.088354 1_555
Cd0_6 Mg2_4 3.088354 1_565
Cd0_6 Mg3_2 3.095338 1_555
Cd0_6 Mg3_4 3.095338 1_565
Cd0_6 Cd1_4 3.196108 1_565
Cd0_6 Cd1_2 3.196108 1_555
Cd0_7 Mg0_7 3.046100 1_555
Cd0_7 Mg0_6 3.046100 1_556
Cd0_7 Mg2_4 3.088354 1_566
Cd0_7 Mg2_5 3.088354 1_565
Cd0_7 Mg2_3 3.088354 1_555
Cd0_7 Mg2_2 3.088354 1_556
Cd0_7 Mg3_3 3.095338 1_555
Cd0_7 Mg3_5 3.095338 1_565
Cd0_7 Cd1_5 3.196108 1_565
Cd0_7 Cd1_3 3.196108 1_555
Cd1_0 Mg1_4 3.071678 1_555
Cd1_0 Mg1_5 3.071678 1_555
Cd1_0 Mg1_3 3.071678 1_545
Cd1_0 Mg1_2 3.071678 1_545
Cd1_0 Mg2_1 3.101841 1_555
Cd1_0 Mg2_0 3.101841 1_555
Cd1_0 Mg3_4 3.126705 1_555
Cd1_0 Mg3_2 3.126705 1_545
Cd1_0 Cd1_6 3.204742 1_445
Cd1_0 Cd1_6 3.204742 1_555
Cd1_1 Mg1_5 3.071678 1_555
Cd1_1 Mg1_4 3.071678 1_556
Cd1_1 Mg1_3 3.071678 1_545
Cd1_1 Mg1_2 3.071678 1_546
Cd1_1 Mg2_1 3.101841 1_555
Cd1_1 Mg2_0 3.101841 1_556
Cd1_1 Mg3_5 3.126705 1_555
Cd1_1 Mg3_3 3.126705 1_545
Cd1_1 Cd1_7 3.204742 1_445
Cd1_1 Cd1_7 3.204742 1_555
Cd1_2 Mg1_7 3.071678 1_555
Cd1_2 Mg1_6 3.071678 1_555
Cd1_2 Mg1_1 3.071678 1_555
Cd1_2 Mg1_0 3.071678 1_555
Cd1_2 Mg2_2 3.101841 1_555
Cd1_2 Mg2_3 3.101841 1_555
Cd1_2 Mg3_6 3.126705 1_555
Cd1_2 Mg3_0 3.126705 1_555
Cd1_2 Cd1_4 3.204742 1_565
Cd1_2 Cd1_4 3.204742 1_455
Cd1_3 Mg1_7 3.071678 1_555
Cd1_3 Mg1_6 3.071678 1_556
Cd1_3 Mg1_1 3.071678 1_555
Cd1_3 Mg1_0 3.071678 1_556
Cd1_3 Mg2_2 3.101841 1_556
Cd1_3 Mg2_3 3.101841 1_555
Cd1_3 Mg3_7 3.126705 1_555
Cd1_3 Mg3_1 3.126705 1_555
Cd1_3 Cd1_5 3.204742 1_565
Cd1_3 Cd1_5 3.204742 1_455
Cd1_4 Mg1_7 3.071678 1_545
Cd1_4 Mg1_0 3.071678 1_655
Cd1_4 Mg1_1 3.071678 1_655
Cd1_4 Mg1_6 3.071678 1_545
Cd1_4 Mg2_4 3.101841 1_555
Cd1_4 Mg2_5 3.101841 1_555
Cd1_4 Mg3_0 3.126705 1_655
Cd1_4 Mg3_6 3.126705 1_545
Cd1_5 Mg1_6 3.071678 1_546
Cd1_5 Mg1_7 3.071678 1_545
Cd1_5 Mg1_0 3.071678 1_656
Cd1_5 Mg1_1 3.071678 1_655
Cd1_5 Mg2_4 3.101841 1_556
Cd1_5 Mg2_5 3.101841 1_555
Cd1_5 Mg3_1 3.126705 1_655
Cd1_5 Mg3_7 3.126705 1_545
Cd1_6 Mg1_3 3.071678 1_655
Cd1_6 Mg1_2 3.071678 1_655
Cd1_6 Mg1_4 3.071678 1_555
Cd1_6 Mg1_5 3.071678 1_555
Cd1_6 Mg2_6 3.101841 1_555
Cd1_6 Mg2_7 3.101841 1_555
Cd1_6 Mg3_2 3.126705 1_655
Cd1_6 Mg3_4 3.126705 1_555
Cd1_7 Mg1_2 3.071678 1_656
Cd1_7 Mg1_3 3.071678 1_655
Cd1_7 Mg1_4 3.071678 1_556
Cd1_7 Mg1_5 3.071678 1_555
Cd1_7 Mg2_6 3.101841 1_556
Cd1_7 Mg2_7 3.101841 1_555
Cd1_7 Mg3_3 3.126705 1_655
Cd1_7 Mg3_5 3.126705 1_555
