# generated using pymatgen
data_FeIr
_symmetry_space_group_name_H-M   'P 1'
_cell_length_a   9.06002669
_cell_length_b   9.06002669
_cell_length_c   9.06002778
_cell_angle_alpha   34.89987665
_cell_angle_beta   34.89987665
_cell_angle_gamma   34.89987750
_symmetry_Int_Tables_number   1
_chemical_formula_structural   FeIr
_chemical_formula_sum   'Fe8 Ir8'
_cell_volume   217.32944787
_cell_formula_units_Z   8
loop_
 _symmetry_equiv_pos_site_id
 _symmetry_equiv_pos_as_xyz
  1  'x, y, z'
loop_
 _atom_site_type_symbol
 _atom_site_label
 _atom_site_symmetry_multiplicity
 _atom_site_fract_x
 _atom_site_fract_y
 _atom_site_fract_z
 _atom_site_occupancy
  Fe  Fe0_0  1  0.00000000  0.00000000  0.00000000  1
  Fe  Fe0_1  1  0.00000000  0.00000000  0.50000000  1
  Fe  Fe0_2  1  0.00000000  0.50000000  0.00000000  1
  Fe  Fe0_3  1  0.00000000  0.50000000  0.50000000  1
  Fe  Fe0_4  1  0.50000000  0.00000000  0.00000000  1
  Fe  Fe0_5  1  0.50000000  0.00000000  0.50000000  1
  Fe  Fe0_6  1  0.50000000  0.50000000  0.00000000  1
  Fe  Fe0_7  1  0.50000000  0.50000000  0.50000000  1
  Ir  Ir0_0  1  0.25000000  0.25000000  0.25000000  1
  Ir  Ir0_1  1  0.25000000  0.25000000  0.75000000  1
  Ir  Ir0_2  1  0.25000000  0.75000000  0.25000000  1
  Ir  Ir0_3  1  0.25000000  0.75000000  0.75000000  1
  Ir  Ir0_4  1  0.75000000  0.25000000  0.25000000  1
  Ir  Ir0_5  1  0.75000000  0.25000000  0.75000000  1
  Ir  Ir0_6  1  0.75000000  0.75000000  0.25000000  1
  Ir  Ir0_7  1  0.75000000  0.75000000  0.75000000  1
loop_
_geom_bond_atom_site_label_1
_geom_bond_atom_site_label_2
_geom_bond_distance
_geom_bond_site_symmetry_2
Fe0_0 Ir0_1 2.641131 1_554
Fe0_0 Ir0_6 2.641131 1_445
Fe0_0 Ir0_2 2.641132 1_545
Fe0_0 Ir0_4 2.641132 1_455
Fe0_0 Ir0_3 2.641132 1_544
Fe0_0 Ir0_5 2.641132 1_454
Fe0_0 Fe0_6 2.716852 1_545
Fe0_0 Fe0_6 2.716852 1_455
Fe0_0 Fe0_5 2.716852 1_554
Fe0_0 Fe0_5 2.716852 1_455
Fe0_0 Fe0_3 2.716852 1_545
Fe0_0 Fe0_3 2.716852 1_554
Fe0_1 Ir0_7 2.641131 1_445
Fe0_1 Ir0_0 2.641131 1_555
Fe0_1 Ir0_3 2.641132 1_545
Fe0_1 Ir0_5 2.641132 1_455
Fe0_1 Ir0_2 2.641132 1_545
Fe0_1 Ir0_4 2.641132 1_455
Fe0_1 Fe0_7 2.716852 1_545
Fe0_1 Fe0_7 2.716852 1_455
Fe0_1 Fe0_4 2.716852 1_555
Fe0_1 Fe0_4 2.716852 1_456
Fe0_1 Fe0_2 2.716852 1_546
Fe0_1 Fe0_2 2.716852 1_555
Fe0_2 Ir0_3 2.641131 1_554
Fe0_2 Ir0_4 2.641131 1_455
Fe0_2 Ir0_7 2.641132 1_454
Fe0_2 Ir0_0 2.641132 1_555
Fe0_2 Ir0_1 2.641132 1_554
Fe0_2 Ir0_6 2.641132 1_455
Fe0_2 Fe0_4 2.716852 1_555
Fe0_2 Fe0_4 2.716852 1_465
Fe0_2 Fe0_7 2.716852 1_455
Fe0_2 Fe0_7 2.716852 1_554
Fe0_3 Ir0_5 2.641131 1_455
Fe0_3 Ir0_2 2.641131 1_555
Fe0_3 Ir0_6 2.641132 1_455
Fe0_3 Ir0_0 2.641132 1_555
Fe0_3 Ir0_1 2.641132 1_555
Fe0_3 Ir0_7 2.641132 1_455
Fe0_3 Fe0_5 2.716852 1_555
Fe0_3 Fe0_5 2.716852 1_465
Fe0_3 Fe0_6 2.716852 1_555
Fe0_3 Fe0_6 2.716852 1_456
Fe0_4 Ir0_5 2.641131 1_554
Fe0_4 Ir0_2 2.641131 1_545
Fe0_4 Ir0_7 2.641132 1_544
Fe0_4 Ir0_1 2.641132 1_554
Fe0_4 Ir0_6 2.641132 1_545
Fe0_4 Ir0_0 2.641132 1_555
Fe0_4 Fe0_7 2.716852 1_554
Fe0_4 Fe0_7 2.716852 1_545
Fe0_5 Ir0_3 2.641131 1_545
Fe0_5 Ir0_4 2.641131 1_555
Fe0_5 Ir0_6 2.641132 1_545
Fe0_5 Ir0_0 2.641132 1_555
Fe0_5 Ir0_1 2.641132 1_555
Fe0_5 Ir0_7 2.641132 1_545
Fe0_5 Fe0_6 2.716852 1_555
Fe0_5 Fe0_6 2.716852 1_546
Fe0_6 Ir0_0 2.641131 1_555
Fe0_6 Ir0_7 2.641131 1_554
Fe0_6 Ir0_3 2.641132 1_554
Fe0_6 Ir0_5 2.641132 1_554
Fe0_6 Ir0_2 2.641132 1_555
Fe0_6 Ir0_4 2.641132 1_555
Fe0_7 Ir0_6 2.641131 1_555
Fe0_7 Ir0_1 2.641131 1_555
Fe0_7 Ir0_3 2.641132 1_555
Fe0_7 Ir0_5 2.641132 1_555
Fe0_7 Ir0_4 2.641132 1_555
Fe0_7 Ir0_2 2.641132 1_555
Ir0_0 Ir0_6 2.716852 1_545
Ir0_0 Ir0_6 2.716852 1_455
Ir0_0 Ir0_5 2.716852 1_554
Ir0_0 Ir0_3 2.716852 1_554
Ir0_0 Ir0_3 2.716852 1_545
Ir0_0 Ir0_5 2.716852 1_455
Ir0_1 Ir0_7 2.716852 1_455
Ir0_1 Ir0_7 2.716852 1_545
Ir0_1 Ir0_4 2.716852 1_456
Ir0_1 Ir0_4 2.716852 1_555
Ir0_1 Ir0_2 2.716852 1_546
Ir0_1 Ir0_2 2.716852 1_555
Ir0_2 Ir0_4 2.716852 1_555
Ir0_2 Ir0_4 2.716852 1_465
Ir0_2 Ir0_7 2.716852 1_455
Ir0_2 Ir0_7 2.716852 1_554
Ir0_3 Ir0_5 2.716852 1_555
Ir0_3 Ir0_5 2.716852 1_465
Ir0_3 Ir0_6 2.716852 1_555
Ir0_3 Ir0_6 2.716852 1_456
Ir0_4 Ir0_7 2.716852 1_545
Ir0_4 Ir0_7 2.716852 1_554
Ir0_5 Ir0_6 2.716852 1_555
Ir0_5 Ir0_6 2.716852 1_546
