# generated using pymatgen
data_Ti2Re
_symmetry_space_group_name_H-M   'P 1'
_cell_length_a   8.74566660
_cell_length_b   8.74566397
_cell_length_c   5.67410318
_cell_angle_alpha   90.00000925
_cell_angle_beta   89.99964985
_cell_angle_gamma   119.99998087
_symmetry_Int_Tables_number   1
_chemical_formula_structural   Ti2Re
_chemical_formula_sum   'Ti16 Re8'
_cell_volume   375.84921558
_cell_formula_units_Z   8
loop_
 _symmetry_equiv_pos_site_id
 _symmetry_equiv_pos_as_xyz
  1  'x, y, z'
loop_
 _atom_site_type_symbol
 _atom_site_label
 _atom_site_symmetry_multiplicity
 _atom_site_fract_x
 _atom_site_fract_y
 _atom_site_fract_z
 _atom_site_occupancy
  Ti  Ti0_0  1  0.33333200  0.16666600  0.35187607  1
  Ti  Ti0_1  1  0.33333200  0.16666600  0.85187607  1
  Ti  Ti0_2  1  0.33333200  0.66666600  0.35187607  1
  Ti  Ti0_3  1  0.33333200  0.66666600  0.85187607  1
  Ti  Ti0_4  1  0.83333200  0.16666600  0.35187607  1
  Ti  Ti0_5  1  0.83333200  0.16666600  0.85187607  1
  Ti  Ti0_6  1  0.83333200  0.66666600  0.35187607  1
  Ti  Ti0_7  1  0.83333200  0.66666600  0.85187607  1
  Ti  Ti1_0  1  0.16666800  0.33333400  0.14812393  1
  Ti  Ti1_1  1  0.16666800  0.33333400  0.64812393  1
  Ti  Ti1_2  1  0.16666800  0.83333400  0.14812393  1
  Ti  Ti1_3  1  0.16666800  0.83333400  0.64812393  1
  Ti  Ti1_4  1  0.66666800  0.33333400  0.14812393  1
  Ti  Ti1_5  1  0.66666800  0.33333400  0.64812393  1
  Ti  Ti1_6  1  0.66666800  0.83333400  0.14812393  1
  Ti  Ti1_7  1  0.66666800  0.83333400  0.64812393  1
  Re  Re0_0  1  0.00000000  0.00000000  0.00000000  1
  Re  Re0_1  1  0.00000000  0.00000000  0.50000000  1
  Re  Re0_2  1  0.00000000  0.50000000  0.00000000  1
  Re  Re0_3  1  0.00000000  0.50000000  0.50000000  1
  Re  Re0_4  1  0.50000000  0.00000000  0.00000000  1
  Re  Re0_5  1  0.50000000  0.00000000  0.50000000  1
  Re  Re0_6  1  0.50000000  0.50000000  0.00000000  1
  Re  Re0_7  1  0.50000000  0.50000000  0.50000000  1
loop_
_geom_bond_atom_site_label_1
_geom_bond_atom_site_label_2
_geom_bond_distance
_geom_bond_site_symmetry_2
Ti0_0 Ti1_0 2.776770 1_555
Ti0_0 Ti1_2 2.776770 1_545
Ti0_0 Ti1_4 2.776787 1_555
Ti0_0 Ti0_1 2.837052 1_554
Ti0_0 Ti0_1 2.837052 1_555
Ti0_1 Ti1_1 2.776770 1_555
Ti0_1 Ti1_3 2.776770 1_545
Ti0_1 Ti1_5 2.776787 1_555
Ti0_2 Ti1_2 2.776770 1_555
Ti0_2 Ti1_0 2.776770 1_555
Ti0_2 Ti1_6 2.776787 1_555
Ti0_2 Ti0_3 2.837052 1_555
Ti0_2 Ti0_3 2.837052 1_554
Ti0_3 Ti1_3 2.776770 1_555
Ti0_3 Ti1_1 2.776770 1_555
Ti0_3 Ti1_7 2.776787 1_555
Ti0_4 Ti1_4 2.776770 1_555
Ti0_4 Ti1_6 2.776770 1_545
Ti0_4 Ti1_0 2.776787 1_655
Ti0_4 Ti0_5 2.837052 1_554
Ti0_4 Ti0_5 2.837052 1_555
Ti0_5 Ti1_5 2.776770 1_555
Ti0_5 Ti1_7 2.776770 1_545
Ti0_5 Ti1_1 2.776787 1_655
Ti0_6 Ti1_6 2.776770 1_555
Ti0_6 Ti1_4 2.776770 1_555
Ti0_6 Ti1_2 2.776787 1_655
Ti0_6 Ti0_7 2.837052 1_554
Ti0_6 Ti0_7 2.837052 1_555
Ti0_7 Ti1_7 2.776770 1_555
Ti0_7 Ti1_5 2.776770 1_555
Ti0_7 Ti1_3 2.776787 1_655
Ti1_0 Ti1_1 2.837052 1_554
Ti1_0 Ti1_1 2.837052 1_555
Ti1_2 Ti1_3 2.837052 1_554
Ti1_2 Ti1_3 2.837052 1_555
Ti1_4 Ti1_5 2.837052 1_554
Ti1_4 Ti1_5 2.837052 1_555
Ti1_6 Ti1_7 2.837052 1_555
Ti1_6 Ti1_7 2.837052 1_554
Re0_0 Ti0_1 2.660865 1_554
Re0_0 Ti1_6 2.660865 1_445
Re0_0 Ti0_5 2.660887 1_454
Re0_0 Ti1_2 2.660887 1_545
Re0_0 Ti1_0 2.660887 1_555
Re0_0 Ti0_7 2.660887 1_444
Re0_0 Re0_1 2.837052 1_555
Re0_0 Re0_1 2.837052 1_554
Re0_1 Ti0_0 2.660865 1_555
Re0_1 Ti1_7 2.660865 1_445
Re0_1 Ti0_4 2.660887 1_455
Re0_1 Ti1_3 2.660887 1_545
Re0_1 Ti1_1 2.660887 1_555
Re0_1 Ti0_6 2.660887 1_445
Re0_2 Ti0_3 2.660865 1_554
Re0_2 Ti1_4 2.660865 1_455
Re0_2 Ti0_7 2.660887 1_454
Re0_2 Ti1_0 2.660887 1_555
Re0_2 Ti1_2 2.660887 1_555
Re0_2 Ti0_5 2.660887 1_454
Re0_2 Re0_3 2.837052 1_555
Re0_2 Re0_3 2.837052 1_554
Re0_3 Ti0_2 2.660865 1_555
Re0_3 Ti1_5 2.660865 1_455
Re0_3 Ti0_6 2.660887 1_455
Re0_3 Ti1_1 2.660887 1_555
Re0_3 Ti1_3 2.660887 1_555
Re0_3 Ti0_4 2.660887 1_455
Re0_4 Ti0_5 2.660865 1_554
Re0_4 Ti1_2 2.660865 1_545
Re0_4 Ti1_6 2.660887 1_545
Re0_4 Ti0_1 2.660887 1_554
Re0_4 Ti1_4 2.660887 1_555
Re0_4 Ti0_3 2.660887 1_544
Re0_4 Re0_5 2.837052 1_555
Re0_4 Re0_5 2.837052 1_554
Re0_5 Ti0_4 2.660865 1_555
Re0_5 Ti1_3 2.660865 1_545
Re0_5 Ti1_7 2.660887 1_545
Re0_5 Ti0_0 2.660887 1_555
Re0_5 Ti1_5 2.660887 1_555
Re0_5 Ti0_2 2.660887 1_545
Re0_6 Ti0_7 2.660865 1_554
Re0_6 Ti1_0 2.660865 1_555
Re0_6 Ti0_3 2.660887 1_554
Re0_6 Ti1_4 2.660887 1_555
Re0_6 Ti1_6 2.660887 1_555
Re0_6 Ti0_1 2.660887 1_554
Re0_6 Re0_7 2.837052 1_555
Re0_6 Re0_7 2.837052 1_554
Re0_7 Ti0_6 2.660865 1_555
Re0_7 Ti1_1 2.660865 1_555
Re0_7 Ti0_2 2.660887 1_555
Re0_7 Ti1_5 2.660887 1_555
Re0_7 Ti1_7 2.660887 1_555
Re0_7 Ti0_0 2.660887 1_555
