# generated using pymatgen
data_Sm7(BrO6)3
_symmetry_space_group_name_H-M   'P 1'
_cell_length_a   15.66295618
_cell_length_b   15.66295618
_cell_length_c   4.25286400
_cell_angle_alpha   90.00000000
_cell_angle_beta   90.00000000
_cell_angle_gamma   120.00000075
_symmetry_Int_Tables_number   1
_chemical_formula_structural   Sm7(BrO6)3
_chemical_formula_sum   'Sm14 Br6 O36'
_cell_volume   903.56539325
_cell_formula_units_Z   2
loop_
 _symmetry_equiv_pos_site_id
 _symmetry_equiv_pos_as_xyz
  1  'x, y, z'
loop_
 _atom_site_type_symbol
 _atom_site_label
 _atom_site_symmetry_multiplicity
 _atom_site_fract_x
 _atom_site_fract_y
 _atom_site_fract_z
 _atom_site_occupancy
  Sm  Sm0  1  0.65555800  0.54148600  0.75000000  1
  Sm  Sm1  1  0.34444200  0.45851400  0.25000000  1
  Sm  Sm2  1  0.88592800  0.34444200  0.75000000  1
  Sm  Sm3  1  0.11407200  0.65555800  0.25000000  1
  Sm  Sm4  1  0.45851400  0.11407200  0.75000000  1
  Sm  Sm5  1  0.54148600  0.88592800  0.25000000  1
  Sm  Sm6  1  0.74023700  0.89053800  0.75000000  1
  Sm  Sm7  1  0.25976300  0.10946200  0.25000000  1
  Sm  Sm8  1  0.15030000  0.25976300  0.75000000  1
  Sm  Sm9  1  0.84970000  0.74023700  0.25000000  1
  Sm  Sm10  1  0.10946200  0.84970000  0.75000000  1
  Sm  Sm11  1  0.89053800  0.15030000  0.25000000  1
  Sm  Sm12  1  0.33333300  0.66666700  0.75000000  1
  Sm  Sm13  1  0.66666700  0.33333300  0.25000000  1
  Br  Br0  1  0.93676100  0.55450800  0.75000000  1
  Br  Br1  1  0.06323900  0.44549200  0.25000000  1
  Br  Br2  1  0.61774700  0.06323900  0.75000000  1
  Br  Br3  1  0.38225300  0.93676100  0.25000000  1
  Br  Br4  1  0.44549200  0.38225300  0.75000000  1
  Br  Br5  1  0.55450800  0.61774700  0.25000000  1
  O  O0  1  0.47520600  0.83487800  0.75000000  1
  O  O1  1  0.52479400  0.16512200  0.25000000  1
  O  O2  1  0.35967100  0.52479400  0.75000000  1
  O  O3  1  0.64032900  0.47520600  0.25000000  1
  O  O4  1  0.16512200  0.64032900  0.75000000  1
  O  O5  1  0.83487800  0.35967100  0.25000000  1
  O  O6  1  0.75111300  0.72022200  0.75000000  1
  O  O7  1  0.24888700  0.27977800  0.25000000  1
  O  O8  1  0.96910900  0.24888700  0.75000000  1
  O  O9  1  0.03089100  0.75111300  0.25000000  1
  O  O10  1  0.27977800  0.03089100  0.75000000  1
  O  O11  1  0.72022200  0.96910900  0.25000000  1
  O  O12  1  0.84283800  0.81560700  0.75000000  1
  O  O13  1  0.15716200  0.18439300  0.25000000  1
  O  O14  1  0.97276900  0.15716200  0.75000000  1
  O  O15  1  0.02723100  0.84283800  0.25000000  1
  O  O16  1  0.18439300  0.02723100  0.75000000  1
  O  O17  1  0.81560700  0.97276900  0.25000000  1
  O  O18  1  0.56390400  0.82258000  0.75000000  1
  O  O19  1  0.43609600  0.17742000  0.25000000  1
  O  O20  1  0.25867600  0.43609600  0.75000000  1
  O  O21  1  0.74132400  0.56390400  0.25000000  1
  O  O22  1  0.17742000  0.74132400  0.75000000  1
  O  O23  1  0.82258000  0.25867600  0.25000000  1
  O  O24  1  0.92585900  0.73587900  0.75000000  1
  O  O25  1  0.07414100  0.26412100  0.25000000  1
  O  O26  1  0.81002100  0.07414100  0.75000000  1
  O  O27  1  0.18997900  0.92585900  0.25000000  1
  O  O28  1  0.26412100  0.18997900  0.75000000  1
  O  O29  1  0.73587900  0.81002100  0.25000000  1
  O  O30  1  0.72242500  0.42924700  0.75000000  1
  O  O31  1  0.27757500  0.57075300  0.25000000  1
  O  O32  1  0.70682200  0.27757500  0.75000000  1
  O  O33  1  0.29317800  0.72242500  0.25000000  1
  O  O34  1  0.57075300  0.29317800  0.75000000  1
  O  O35  1  0.42924700  0.70682200  0.25000000  1
loop_
_geom_bond_atom_site_label_1
_geom_bond_atom_site_label_2
_geom_bond_distance
_geom_bond_site_symmetry_2
Br0 Sm2 2.973217 1_555
Br0 Sm3 3.216223 1_656
Br0 Sm3 3.216223 1_655
Br1 Sm3 2.973217 1_555
Br1 Sm2 3.216223 1_455
Br1 Sm2 3.216223 1_454
Br2 Sm4 2.973217 1_555
Br2 Sm5 3.216223 1_546
Br2 Sm5 3.216223 1_545
Br3 Sm5 2.973217 1_555
Br3 Sm4 3.216223 1_564
Br3 Sm4 3.216223 1_565
Br4 Sm0 2.973217 1_555
Br4 Sm1 3.216223 1_556
Br4 Sm1 3.216223 1_555
Br5 Sm1 2.973217 1_555
Br5 Sm0 3.216223 1_555
Br5 Sm0 3.216223 1_554
O0 O18 1.494921 1_555
O0 Sm5 2.325663 1_555
O0 Sm5 2.325663 1_556
O0 Sm12 2.454555 1_555
O1 O19 1.494921 1_555
O1 Sm4 2.325663 1_555
O1 Sm4 2.325663 1_554
O1 Sm13 2.454555 1_555
O2 O20 1.494912 1_555
O2 Sm1 2.325665 1_555
O2 Sm1 2.325665 1_556
O2 Sm12 2.454555 1_555
O3 Sm0 2.325665 1_554
O3 Sm0 2.325665 1_555
O3 Sm13 2.454555 1_555
O4 Sm3 2.325659 1_556
O4 Sm3 2.325659 1_555
O4 Sm12 2.454555 1_555
O5 Sm2 2.325659 1_555
O5 Sm2 2.325659 1_554
O5 Sm13 2.454555 1_555
O6 Sm0 2.426404 1_555
O6 Sm9 2.553497 1_556
O6 Sm9 2.553497 1_555
O6 Sm6 2.756777 1_555
O7 Sm1 2.426404 1_555
O7 Sm8 2.553497 1_555
O7 Sm8 2.553497 1_554
O7 Sm7 2.756777 1_555
O8 Sm2 2.426404 1_555
O8 Sm11 2.553494 1_555
O8 Sm11 2.553494 1_556
O8 Sm8 2.756762 1_655
O9 Sm3 2.426404 1_555
O9 Sm10 2.553494 1_555
O9 Sm10 2.553494 1_554
O9 Sm9 2.756762 1_455
O10 O16 1.466189 1_555
O10 Sm4 2.426404 1_555
O10 Sm7 2.553489 1_555
O10 Sm7 2.553489 1_556
O10 Sm10 2.756769 1_545
O11 O17 1.466189 1_555
O11 Sm5 2.426404 1_555
O11 Sm6 2.553489 1_554
O11 Sm6 2.553489 1_555
O11 Sm11 2.756769 1_565
O12 O6 1.466189 1_555
O12 Sm6 2.417866 1_555
O12 Sm9 2.460440 1_556
O12 Sm9 2.460440 1_555
O13 O7 1.466189 1_555
O13 Sm7 2.417866 1_555
O13 Sm8 2.460440 1_554
O13 Sm8 2.460440 1_555
O14 O8 1.466189 1_555
O14 Sm8 2.417853 1_655
O14 Sm11 2.460432 1_556
O14 Sm11 2.460432 1_555
O15 O9 1.466189 1_555
O15 Sm9 2.417853 1_455
O15 Sm10 2.460432 1_555
O15 Sm10 2.460432 1_554
O16 Sm10 2.417852 1_545
O16 Sm7 2.460436 1_556
O16 Sm7 2.460436 1_555
O17 Sm11 2.417852 1_565
O17 Sm6 2.460436 1_555
O17 Sm6 2.460436 1_554
O18 Sm6 2.412725 1_555
O18 Sm5 2.444975 1_556
O18 Sm5 2.444975 1_555
O19 Sm7 2.412725 1_555
O19 Sm4 2.444975 1_555
O19 Sm4 2.444975 1_554
O20 Sm8 2.412727 1_555
O20 Sm1 2.444975 1_555
O20 Sm1 2.444975 1_556
O21 O3 1.494912 1_555
O21 Sm9 2.412727 1_555
O21 Sm0 2.444975 1_554
O21 Sm0 2.444975 1_555
O22 O4 1.494905 1_555
O22 Sm10 2.412739 1_555
O22 Sm3 2.444975 1_555
O22 Sm3 2.444975 1_556
O23 O5 1.494905 1_555
O23 Sm11 2.412739 1_555
O23 Sm2 2.444975 1_555
O23 Sm2 2.444975 1_554
O24 Sm9 2.455758 1_556
O24 Sm9 2.455758 1_555
O24 Sm10 2.514254 1_655
O25 Sm8 2.455758 1_555
O25 Sm8 2.455758 1_554
O25 Sm11 2.514254 1_455
O26 Sm11 2.455758 1_556
O26 Sm11 2.455758 1_555
O26 Sm6 2.514249 1_545
O27 Sm10 2.455758 1_555
O27 Sm10 2.455758 1_554
O27 Sm7 2.514249 1_565
O28 Sm7 2.455758 1_556
O28 Sm7 2.455758 1_555
O28 Sm8 2.514278 1_555
O29 Sm6 2.455758 1_555
O29 Sm6 2.455758 1_554
O29 Sm9 2.514278 1_555
O30 Sm0 2.455334 1_555
O30 Sm13 2.495859 1_556
O30 Sm13 2.495859 1_555
O31 Sm1 2.455334 1_555
O31 Sm12 2.495859 1_555
O31 Sm12 2.495859 1_554
O32 Sm2 2.455334 1_555
O32 Sm13 2.495853 1_556
O32 Sm13 2.495853 1_555
O33 Sm3 2.455334 1_555
O33 Sm12 2.495853 1_555
O33 Sm12 2.495853 1_554
O34 Sm4 2.455334 1_555
O34 Sm13 2.495860 1_556
O34 Sm13 2.495860 1_555
O35 Sm5 2.455334 1_555
O35 Sm12 2.495860 1_554
O35 Sm12 2.495860 1_555
