# generated using pymatgen
data_SrCrO2
_symmetry_space_group_name_H-M   'P 1'
_cell_length_a   5.33961410
_cell_length_b   5.33939474
_cell_length_c   5.33939821
_cell_angle_alpha   98.95094153
_cell_angle_beta   114.97261033
_cell_angle_gamma   114.97288353
_symmetry_Int_Tables_number   1
_chemical_formula_structural   SrCrO2
_chemical_formula_sum   'Sr2 Cr2 O4'
_cell_volume   114.30716122
_cell_formula_units_Z   2
loop_
 _symmetry_equiv_pos_site_id
 _symmetry_equiv_pos_as_xyz
  1  'x, y, z'
loop_
 _atom_site_type_symbol
 _atom_site_label
 _atom_site_symmetry_multiplicity
 _atom_site_fract_x
 _atom_site_fract_y
 _atom_site_fract_z
 _atom_site_occupancy
  Sr  Sr0  1  0.49999800  0.25000100  0.74999800  1
  Sr  Sr1  1  0.49999800  0.75000000  0.24999600  1
  Cr  Cr0  1  0.99999100  0.49999700  0.49999500  1
  Cr  Cr1  1  0.99999300  0.99999200  0.99999900  1
  O  O0  1  0.00000800  0.25000200  0.75000700  1
  O  O1  1  0.99998900  0.75000400  0.24999400  1
  O  O2  1  0.50001800  0.75000700  0.75001000  1
  O  O3  1  0.50000400  0.24999700  0.25000200  1
loop_
_geom_bond_atom_site_label_1
_geom_bond_atom_site_label_2
_geom_bond_distance
_geom_bond_site_symmetry_2
Cr0 O0 2.029340 1_655
Cr0 O1 2.029344 1_555
Cr0 O3 2.029407 1_555
Cr0 O2 2.029569 1_655
Cr1 O1 2.029243 1_556
Cr1 O0 2.029320 1_665
Cr1 O2 2.029358 1_555
Cr1 O3 2.029504 1_666
O0 Sr0 2.669776 1_555
O0 Sr1 2.669776 1_556
O0 Sr0 2.669838 1_455
O0 Sr1 2.669852 1_445
O1 Sr1 2.669754 1_555
O1 Sr0 2.669804 1_554
O1 Sr0 2.669824 1_665
O1 Sr1 2.669860 1_655
O2 Sr0 2.669674 1_555
O2 Sr1 2.669675 1_556
O2 Sr0 2.669720 1_565
O2 Sr1 2.669723 1_555
O3 Sr1 2.669663 1_545
O3 Sr0 2.669688 1_555
O3 Sr0 2.669710 1_554
O3 Sr1 2.669732 1_555
