# generated using pymatgen
data_CeSb2Au
_symmetry_space_group_name_H-M   'P 1'
_cell_length_a   4.44388600
_cell_length_b   4.44388600
_cell_length_c   10.25481142
_cell_angle_alpha   90.00000000
_cell_angle_beta   90.00000000
_cell_angle_gamma   90.00000000
_symmetry_Int_Tables_number   1
_chemical_formula_structural   CeSb2Au
_chemical_formula_sum   'Ce2 Sb4 Au2'
_cell_volume   202.51327502
_cell_formula_units_Z   2
loop_
 _symmetry_equiv_pos_site_id
 _symmetry_equiv_pos_as_xyz
  1  'x, y, z'
loop_
 _atom_site_type_symbol
 _atom_site_label
 _atom_site_symmetry_multiplicity
 _atom_site_fract_x
 _atom_site_fract_y
 _atom_site_fract_z
 _atom_site_occupancy
  Ce  Ce0  1  0.00000000  0.50000000  0.75364855  1
  Ce  Ce1  1  0.50000000  -0.00000000  0.24635145  1
  Sb  Sb0  1  0.50000000  0.50000000  0.00000000  1
  Sb  Sb1  1  0.00000000  0.00000000  0.00000000  1
  Sb  Sb2  1  -0.00000000  0.50000000  0.32298012  1
  Sb  Sb3  1  0.50000000  -0.00000000  0.67701988  1
  Au  Au0  1  0.50000000  0.50000000  0.50000000  1
  Au  Au1  1  0.00000000  -0.00000000  0.50000000  1
loop_
_geom_bond_atom_site_label_1
_geom_bond_atom_site_label_2
_geom_bond_distance
_geom_bond_site_symmetry_2
Ce0 Sb3 3.239068 1_455
Ce0 Sb3 3.239068 1_565
Ce0 Sb3 3.239068 1_555
Ce0 Sb3 3.239068 1_465
Ce0 Sb0 3.364396 1_556
Ce0 Sb1 3.364396 1_556
Ce0 Sb0 3.364396 1_456
Ce0 Sb1 3.364396 1_566
Ce1 Sb2 3.239068 1_645
Ce1 Sb2 3.239068 1_555
Ce1 Sb2 3.239068 1_655
Ce1 Sb2 3.239068 1_545
Ce1 Sb1 3.364396 1_655
Ce1 Sb0 3.364396 1_545
Ce1 Sb0 3.364396 1_555
Ce1 Sb1 3.364396 1_555
Sb0 Sb1 3.142302 1_555
Sb0 Sb1 3.142302 1_565
Sb0 Sb1 3.142302 1_655
Sb0 Sb1 3.142302 1_665
Au0 Sb2 2.869210 1_555
Au0 Sb3 2.869210 1_565
Au0 Sb3 2.869210 1_555
Au0 Sb2 2.869210 1_655
Au0 Au1 3.142302 1_665
Au0 Au1 3.142302 1_555
Au0 Au1 3.142302 1_655
Au0 Au1 3.142302 1_565
Au0 Ce1 3.420942 1_565
Au0 Ce0 3.420942 1_555
Au0 Ce0 3.420942 1_655
Au0 Ce1 3.420942 1_555
Au1 Sb2 2.869210 1_555
Au1 Sb3 2.869210 1_455
Au1 Sb2 2.869210 1_545
Au1 Sb3 2.869210 1_555
Au1 Ce1 3.420942 1_455
Au1 Ce0 3.420942 1_555
Au1 Ce0 3.420942 1_545
Au1 Ce1 3.420942 1_555
