# generated using pymatgen
data_RbMg2
_symmetry_space_group_name_H-M   'P 1'
_cell_length_a   27.52030473
_cell_length_b   27.52030473
_cell_length_c   9.66469400
_cell_angle_alpha   90.00000000
_cell_angle_beta   90.00000000
_cell_angle_gamma   163.93726241
_symmetry_Int_Tables_number   1
_chemical_formula_structural   RbMg2
_chemical_formula_sum   'Rb16 Mg32'
_cell_volume   2025.29204336
_cell_formula_units_Z   16
loop_
 _symmetry_equiv_pos_site_id
 _symmetry_equiv_pos_as_xyz
  1  'x, y, z'
loop_
 _atom_site_type_symbol
 _atom_site_label
 _atom_site_symmetry_multiplicity
 _atom_site_fract_x
 _atom_site_fract_y
 _atom_site_fract_z
 _atom_site_occupancy
  Rb  Rb0_0  1  0.16357650  0.33642350  0.37500000  1
  Rb  Rb0_1  1  0.16357650  0.33642350  0.87500000  1
  Rb  Rb0_2  1  0.16357650  0.83642350  0.37500000  1
  Rb  Rb0_3  1  0.16357650  0.83642350  0.87500000  1
  Rb  Rb0_4  1  0.66357650  0.33642350  0.37500000  1
  Rb  Rb0_5  1  0.66357650  0.33642350  0.87500000  1
  Rb  Rb0_6  1  0.66357650  0.83642350  0.37500000  1
  Rb  Rb0_7  1  0.66357650  0.83642350  0.87500000  1
  Rb  Rb1_0  1  0.33642350  0.16357650  0.12500000  1
  Rb  Rb1_1  1  0.33642350  0.16357650  0.62500000  1
  Rb  Rb1_2  1  0.33642350  0.66357650  0.12500000  1
  Rb  Rb1_3  1  0.33642350  0.66357650  0.62500000  1
  Rb  Rb1_4  1  0.83642350  0.16357650  0.12500000  1
  Rb  Rb1_5  1  0.83642350  0.16357650  0.62500000  1
  Rb  Rb1_6  1  0.83642350  0.66357650  0.12500000  1
  Rb  Rb1_7  1  0.83642350  0.66357650  0.62500000  1
  Mg  Mg0_0  1  0.27438800  0.22561200  0.37500000  1
  Mg  Mg0_1  1  0.27438800  0.22561200  0.87500000  1
  Mg  Mg0_2  1  0.27438800  0.72561200  0.37500000  1
  Mg  Mg0_3  1  0.27438800  0.72561200  0.87500000  1
  Mg  Mg0_4  1  0.77438800  0.22561200  0.37500000  1
  Mg  Mg0_5  1  0.77438800  0.22561200  0.87500000  1
  Mg  Mg0_6  1  0.77438800  0.72561200  0.37500000  1
  Mg  Mg0_7  1  0.77438800  0.72561200  0.87500000  1
  Mg  Mg1_0  1  0.47874950  0.02125050  0.37500000  1
  Mg  Mg1_1  1  0.47874950  0.02125050  0.87500000  1
  Mg  Mg1_2  1  0.47874950  0.52125050  0.37500000  1
  Mg  Mg1_3  1  0.47874950  0.52125050  0.87500000  1
  Mg  Mg1_4  1  0.97874950  0.02125050  0.37500000  1
  Mg  Mg1_5  1  0.97874950  0.02125050  0.87500000  1
  Mg  Mg1_6  1  0.97874950  0.52125050  0.37500000  1
  Mg  Mg1_7  1  0.97874950  0.52125050  0.87500000  1
  Mg  Mg2_0  1  0.02125050  0.47874950  0.12500000  1
  Mg  Mg2_1  1  0.02125050  0.47874950  0.62500000  1
  Mg  Mg2_2  1  0.02125050  0.97874950  0.12500000  1
  Mg  Mg2_3  1  0.02125050  0.97874950  0.62500000  1
  Mg  Mg2_4  1  0.52125050  0.47874950  0.12500000  1
  Mg  Mg2_5  1  0.52125050  0.47874950  0.62500000  1
  Mg  Mg2_6  1  0.52125050  0.97874950  0.12500000  1
  Mg  Mg2_7  1  0.52125050  0.97874950  0.62500000  1
  Mg  Mg3_0  1  0.22561200  0.27438800  0.12500000  1
  Mg  Mg3_1  1  0.22561200  0.27438800  0.62500000  1
  Mg  Mg3_2  1  0.22561200  0.77438800  0.12500000  1
  Mg  Mg3_3  1  0.22561200  0.77438800  0.62500000  1
  Mg  Mg3_4  1  0.72561200  0.27438800  0.12500000  1
  Mg  Mg3_5  1  0.72561200  0.27438800  0.62500000  1
  Mg  Mg3_6  1  0.72561200  0.77438800  0.12500000  1
  Mg  Mg3_7  1  0.72561200  0.77438800  0.62500000  1
loop_
_geom_bond_atom_site_label_1
_geom_bond_atom_site_label_2
_geom_bond_distance
_geom_bond_site_symmetry_2
Rb0_0 Rb0_6 3.845006 1_445
Rb0_0 Rb0_6 3.845006 1_555
Rb0_1 Rb0_7 3.845006 1_445
Rb0_1 Rb0_7 3.845006 1_555
Rb0_2 Rb0_4 3.845006 1_455
Rb0_2 Rb0_4 3.845006 1_565
Rb0_3 Rb0_5 3.845006 1_455
Rb0_3 Rb0_5 3.845006 1_565
Rb1_0 Rb1_6 3.845006 1_555
Rb1_0 Rb1_6 3.845006 1_445
Rb1_1 Rb1_7 3.845006 1_445
Rb1_1 Rb1_7 3.845006 1_555
Rb1_2 Rb1_4 3.845006 1_455
Rb1_2 Rb1_4 3.845006 1_565
Rb1_3 Rb1_5 3.845006 1_565
Rb1_3 Rb1_5 3.845006 1_455
Mg0_0 Mg2_5 3.092435 1_555
Mg0_0 Mg2_2 3.092435 1_545
Mg0_0 Mg2_4 3.092435 1_555
Mg0_0 Mg2_3 3.092435 1_545
Mg0_0 Mg1_2 3.143699 1_555
Mg0_0 Mg1_4 3.143699 1_455
Mg0_0 Rb1_1 4.155590 1_555
Mg0_0 Rb1_0 4.155590 1_555
Mg0_1 Mg2_5 3.092435 1_555
Mg0_1 Mg2_2 3.092435 1_546
Mg0_1 Mg2_4 3.092435 1_556
Mg0_1 Mg2_3 3.092435 1_545
Mg0_1 Mg1_3 3.143699 1_555
Mg0_1 Mg1_5 3.143699 1_455
Mg0_1 Rb1_1 4.155590 1_555
Mg0_1 Rb1_0 4.155590 1_556
Mg0_2 Mg2_6 3.092435 1_555
Mg0_2 Mg2_7 3.092435 1_555
Mg0_2 Mg2_1 3.092435 1_555
Mg0_2 Mg2_0 3.092435 1_555
Mg0_2 Mg1_6 3.143699 1_455
Mg0_2 Mg1_0 3.143699 1_565
Mg0_2 Rb1_2 4.155590 1_555
Mg0_2 Rb1_3 4.155590 1_555
Mg0_3 Mg2_6 3.092435 1_556
Mg0_3 Mg2_7 3.092435 1_555
Mg0_3 Mg2_1 3.092435 1_555
Mg0_3 Mg2_0 3.092435 1_556
Mg0_3 Mg1_7 3.143699 1_455
Mg0_3 Mg1_1 3.143699 1_565
Mg0_3 Rb1_3 4.155590 1_555
Mg0_3 Rb1_2 4.155590 1_556
Mg0_4 Mg2_6 3.092435 1_545
Mg0_4 Mg2_7 3.092435 1_545
Mg0_4 Mg2_0 3.092435 1_655
Mg0_4 Mg2_1 3.092435 1_655
Mg0_4 Mg1_6 3.143699 1_555
Mg0_4 Mg1_0 3.143699 1_555
Mg0_4 Rb1_4 4.155590 1_555
Mg0_4 Rb1_5 4.155590 1_555
Mg0_5 Mg2_6 3.092435 1_546
Mg0_5 Mg2_7 3.092435 1_545
Mg0_5 Mg2_0 3.092435 1_656
Mg0_5 Mg2_1 3.092435 1_655
Mg0_5 Mg1_7 3.143699 1_555
Mg0_5 Mg1_1 3.143699 1_555
Mg0_5 Rb1_4 4.155590 1_556
Mg0_5 Rb1_5 4.155590 1_555
Mg0_6 Mg2_5 3.092435 1_555
Mg0_6 Mg2_2 3.092435 1_655
Mg0_6 Mg2_4 3.092435 1_555
Mg0_6 Mg2_3 3.092435 1_655
Mg0_6 Mg1_4 3.143699 1_565
Mg0_6 Mg1_2 3.143699 1_555
Mg0_6 Rb1_6 4.155590 1_555
Mg0_6 Rb1_7 4.155590 1_555
Mg0_7 Mg2_5 3.092435 1_555
Mg0_7 Mg2_4 3.092435 1_556
Mg0_7 Mg2_2 3.092435 1_656
Mg0_7 Mg2_3 3.092435 1_655
Mg0_7 Mg1_5 3.143699 1_565
Mg0_7 Mg1_3 3.143699 1_555
Mg0_7 Rb1_6 4.155590 1_556
Mg0_7 Rb1_7 4.155590 1_555
Mg1_0 Mg3_5 3.092435 1_555
Mg1_0 Mg3_2 3.092435 1_545
Mg1_0 Mg3_3 3.092435 1_545
Mg1_0 Mg3_4 3.092435 1_555
Mg1_0 Mg2_6 3.347135 1_545
Mg1_0 Mg2_7 3.347135 1_545
Mg1_0 Rb0_2 4.038882 1_545
Mg1_0 Rb0_4 4.038882 1_555
Mg1_1 Mg3_5 3.092435 1_555
Mg1_1 Mg3_4 3.092435 1_556
Mg1_1 Mg3_3 3.092435 1_545
Mg1_1 Mg3_2 3.092435 1_546
Mg1_1 Mg2_6 3.347135 1_546
Mg1_1 Mg2_7 3.347135 1_545
Mg1_1 Rb0_3 4.038882 1_545
Mg1_1 Rb0_5 4.038882 1_555
Mg1_2 Mg3_0 3.092435 1_555
Mg1_2 Mg3_1 3.092435 1_555
Mg1_2 Mg3_6 3.092435 1_555
Mg1_2 Mg3_7 3.092435 1_555
Mg1_2 Mg2_4 3.347135 1_555
Mg1_2 Mg2_5 3.347135 1_555
Mg1_2 Rb0_6 4.038882 1_555
Mg1_2 Rb0_0 4.038882 1_555
Mg1_3 Mg3_1 3.092435 1_555
Mg1_3 Mg3_0 3.092435 1_556
Mg1_3 Mg3_6 3.092435 1_556
Mg1_3 Mg3_7 3.092435 1_555
Mg1_3 Mg2_5 3.347135 1_555
Mg1_3 Mg2_4 3.347135 1_556
Mg1_3 Rb0_7 4.038882 1_555
Mg1_3 Rb0_1 4.038882 1_555
Mg1_4 Mg3_6 3.092435 1_545
Mg1_4 Mg3_7 3.092435 1_545
Mg1_4 Mg3_0 3.092435 1_655
Mg1_4 Mg3_1 3.092435 1_655
Mg1_4 Mg2_2 3.347135 1_645
Mg1_4 Mg2_3 3.347135 1_645
Mg1_4 Rb0_6 4.038882 1_545
Mg1_4 Rb0_0 4.038882 1_655
Mg1_5 Mg3_7 3.092435 1_545
Mg1_5 Mg3_6 3.092435 1_546
Mg1_5 Mg3_0 3.092435 1_656
Mg1_5 Mg3_1 3.092435 1_655
Mg1_5 Mg2_3 3.347135 1_645
Mg1_5 Mg2_2 3.347135 1_646
Mg1_5 Rb0_7 4.038882 1_545
Mg1_5 Rb0_1 4.038882 1_655
Mg1_6 Mg3_3 3.092435 1_655
Mg1_6 Mg3_2 3.092435 1_655
Mg1_6 Mg3_5 3.092435 1_555
Mg1_6 Mg3_4 3.092435 1_555
Mg1_6 Mg2_0 3.347135 1_655
Mg1_6 Mg2_1 3.347135 1_655
Mg1_6 Rb0_2 4.038882 1_655
Mg1_6 Rb0_4 4.038882 1_555
Mg1_7 Mg3_2 3.092435 1_656
Mg1_7 Mg3_3 3.092435 1_655
Mg1_7 Mg3_5 3.092435 1_555
Mg1_7 Mg3_4 3.092435 1_556
Mg1_7 Mg2_0 3.347135 1_656
Mg1_7 Mg2_1 3.347135 1_655
Mg1_7 Rb0_3 4.038882 1_655
Mg1_7 Rb0_5 4.038882 1_555
Mg2_0 Mg3_2 3.143699 1_555
Mg2_0 Mg3_4 3.143699 1_455
Mg2_0 Rb1_4 4.038882 1_455
Mg2_0 Rb1_2 4.038882 1_555
Mg2_1 Mg3_3 3.143699 1_555
Mg2_1 Mg3_5 3.143699 1_455
Mg2_1 Rb1_5 4.038882 1_455
Mg2_1 Rb1_3 4.038882 1_555
Mg2_2 Mg3_6 3.143699 1_455
Mg2_2 Mg3_0 3.143699 1_565
Mg2_2 Rb1_0 4.038882 1_565
Mg2_2 Rb1_6 4.038882 1_455
Mg2_3 Mg3_7 3.143699 1_455
Mg2_3 Mg3_1 3.143699 1_565
Mg2_3 Rb1_1 4.038882 1_565
Mg2_3 Rb1_7 4.038882 1_455
Mg2_4 Mg3_6 3.143699 1_555
Mg2_4 Mg3_0 3.143699 1_555
Mg2_4 Rb1_0 4.038882 1_555
Mg2_4 Rb1_6 4.038882 1_555
Mg2_5 Mg3_7 3.143699 1_555
Mg2_5 Mg3_1 3.143699 1_555
Mg2_5 Rb1_1 4.038882 1_555
Mg2_5 Rb1_7 4.038882 1_555
Mg2_6 Mg3_4 3.143699 1_565
Mg2_6 Mg3_2 3.143699 1_555
Mg2_6 Rb1_4 4.038882 1_565
Mg2_6 Rb1_2 4.038882 1_555
Mg2_7 Mg3_5 3.143699 1_565
Mg2_7 Mg3_3 3.143699 1_555
Mg2_7 Rb1_5 4.038882 1_565
Mg2_7 Rb1_3 4.038882 1_555
Mg3_0 Rb0_1 4.155590 1_554
Mg3_0 Rb0_0 4.155590 1_555
Mg3_1 Rb0_1 4.155590 1_555
Mg3_1 Rb0_0 4.155590 1_555
Mg3_2 Rb0_3 4.155590 1_554
Mg3_2 Rb0_2 4.155590 1_555
Mg3_3 Rb0_2 4.155590 1_555
Mg3_3 Rb0_3 4.155590 1_555
Mg3_4 Rb0_4 4.155590 1_555
Mg3_4 Rb0_5 4.155590 1_554
Mg3_5 Rb0_4 4.155590 1_555
Mg3_5 Rb0_5 4.155590 1_555
Mg3_6 Rb0_6 4.155590 1_555
Mg3_6 Rb0_7 4.155590 1_554
Mg3_7 Rb0_7 4.155590 1_555
Mg3_7 Rb0_6 4.155590 1_555
