# generated using pymatgen
data_YbSmS2
_symmetry_space_group_name_H-M   'P 1'
_cell_length_a   6.86603520
_cell_length_b   6.86603520
_cell_length_c   6.86603558
_cell_angle_alpha   32.76627443
_cell_angle_beta   32.76627443
_cell_angle_gamma   32.76627455
_symmetry_Int_Tables_number   1
_chemical_formula_structural   YbSmS2
_chemical_formula_sum   'Yb1 Sm1 S2'
_cell_volume   84.34108207
_cell_formula_units_Z   1
loop_
 _symmetry_equiv_pos_site_id
 _symmetry_equiv_pos_as_xyz
  1  'x, y, z'
loop_
 _atom_site_type_symbol
 _atom_site_label
 _atom_site_symmetry_multiplicity
 _atom_site_fract_x
 _atom_site_fract_y
 _atom_site_fract_z
 _atom_site_occupancy
  Yb  Yb0  1  0.50000000  0.50000000  0.50000000  1
  Sm  Sm0  1  0.00000000  0.00000000  0.00000000  1
  S  S0  1  0.24351301  0.24351301  0.24351301  1
  S  S1  1  0.75648699  0.75648699  0.75648699  1
loop_
_geom_bond_atom_site_label_1
_geom_bond_atom_site_label_2
_geom_bond_distance
_geom_bond_site_symmetry_2
S0 Yb0 2.690811 1_455
S0 Yb0 2.690811 1_545
S0 Yb0 2.690811 1_554
S0 Sm0 2.839116 1_565
S0 Sm0 2.839116 1_655
S0 Sm0 2.839116 1_556
S1 Yb0 2.690811 1_655
S1 Yb0 2.690811 1_565
S1 Yb0 2.690811 1_556
S1 Sm0 2.839116 1_566
S1 Sm0 2.839116 1_656
S1 Sm0 2.839116 1_665
