# generated using pymatgen
data_NaMoAsO8
_symmetry_space_group_name_H-M   'P 1'
_cell_length_a   10.55316708
_cell_length_b   10.90877693
_cell_length_c   7.28870678
_cell_angle_alpha   114.85492008
_cell_angle_beta   82.76220662
_cell_angle_gamma   119.51114949
_symmetry_Int_Tables_number   1
_chemical_formula_structural   NaMoAsO8
_chemical_formula_sum   'Na4 Mo4 As4 O32'
_cell_volume   659.09005976
_cell_formula_units_Z   4
loop_
 _symmetry_equiv_pos_site_id
 _symmetry_equiv_pos_as_xyz
  1  'x, y, z'
loop_
 _atom_site_type_symbol
 _atom_site_label
 _atom_site_symmetry_multiplicity
 _atom_site_fract_x
 _atom_site_fract_y
 _atom_site_fract_z
 _atom_site_occupancy
  Na  Na0  1  0.84601400  0.54759500  0.01512200  1
  Na  Na1  1  0.15398600  0.45240500  0.98487800  1
  Na  Na2  1  0.78250900  0.97664800  0.08829600  1
  Na  Na3  1  0.21749100  0.02335200  0.91170400  1
  Mo  Mo0  1  0.83858100  0.67562100  0.59508400  1
  Mo  Mo1  1  0.16141900  0.32437900  0.40491600  1
  Mo  Mo2  1  0.63880400  0.29468300  0.50913500  1
  Mo  Mo3  1  0.36119600  0.70531700  0.49086500  1
  As  As0  1  0.74157600  0.93602300  0.57564100  1
  As  As1  1  0.25842400  0.06397700  0.42435900  1
  As  As2  1  0.49818200  0.55633300  0.77630400  1
  As  As3  1  0.50181800  0.44366700  0.22369600  1
  O  O0  1  0.97312400  0.82550700  0.79577600  1
  O  O1  1  0.02687600  0.17449300  0.20422400  1
  O  O2  1  0.92743200  0.62823900  0.37960900  1
  O  O3  1  0.07256800  0.37176100  0.62039100  1
  O  O4  1  0.73027900  0.24901100  0.29743200  1
  O  O5  1  0.26972100  0.75098900  0.70256800  1
  O  O6  1  0.65350600  0.20742800  0.64807200  1
  O  O7  1  0.34649400  0.79257200  0.35192800  1
  O  O8  1  0.79122200  0.50795500  0.66898600  1
  O  O9  1  0.20877800  0.49204500  0.33101400  1
  O  O10  1  0.79964700  0.79947700  0.49034300  1
  O  O11  1  0.20035300  0.20052300  0.50965700  1
  O  O12  1  0.43713300  0.14306800  0.36450800  1
  O  O13  1  0.56286700  0.85693200  0.63549200  1
  O  O14  1  0.67117200  0.70756900  0.80670900  1
  O  O15  1  0.32882800  0.29243100  0.19329100  1
  O  O16  1  0.49672100  0.38389800  0.72630000  1
  O  O17  1  0.50327900  0.61610200  0.27370000  1
  O  O18  1  0.61598400  0.47143200  0.40708400  1
  O  O19  1  0.38401600  0.52856800  0.59291600  1
  O  O20  1  0.40632100  0.59328300  0.98863500  1
  O  O21  1  0.59367900  0.40671700  0.01136500  1
  O  O22  1  0.83545400  0.06330500  0.82527400  1
  O  O23  1  0.16454600  0.93669500  0.17472600  1
  O  O24  1  0.77741500  0.01477900  0.41157900  1
  O  O25  1  0.22258500  0.98522100  0.58842100  1
  O  O26  1  0.88330500  0.29055500  0.95684500  1
  O  O27  1  0.11669500  0.70944500  0.04315500  1
  O  O28  1  0.93516200  0.83558400  0.16452600  1
  O  O29  1  0.06483800  0.16441600  0.83547400  1
  O  O30  1  0.50388000  0.95584500  0.02691300  1
  O  O31  1  0.49612000  0.04415500  0.97308700  1
loop_
_geom_bond_atom_site_label_1
_geom_bond_atom_site_label_2
_geom_bond_distance
_geom_bond_site_symmetry_2
Na0 O21 2.324854 1_555
Na0 O8 2.467878 1_554
Na0 O27 2.488759 1_655
Na0 O28 2.532002 1_555
Na0 O2 2.536870 1_555
Na0 O26 2.870791 1_554
Na1 O20 2.324854 1_555
Na1 O9 2.467878 1_556
Na1 O26 2.488759 1_455
Na1 O29 2.532002 1_555
Na1 O3 2.536870 1_555
Na1 O27 2.870791 1_556
Na2 O24 2.212306 1_565
Na2 O1 2.356934 1_665
Na2 O22 2.369443 1_564
Na2 O14 2.520798 1_554
Na2 O30 2.913154 1_555
Na2 O28 2.942542 1_555
Na2 O4 3.008243 1_565
Na3 O25 2.212306 1_545
Na3 O0 2.356934 1_445
Na3 O23 2.369443 1_546
Na3 O15 2.520798 1_556
Na3 O31 2.913154 1_555
Na3 O29 2.942542 1_555
Na3 O5 3.008243 1_545
Mo0 O2 1.742683 1_555
Mo0 O0 1.747780 1_555
Mo0 O8 1.935220 1_555
Mo0 O10 2.017479 1_555
Mo0 O14 2.256088 1_555
Mo0 O18 2.334040 1_555
Mo1 O3 1.742683 1_555
Mo1 O1 1.747780 1_555
Mo1 O9 1.935220 1_555
Mo1 O11 2.017479 1_555
Mo1 O15 2.256088 1_555
Mo1 O19 2.334040 1_555
Mo2 O6 1.717839 1_555
Mo2 O4 1.735896 1_555
Mo2 O8 1.965765 1_555
Mo2 O12 2.002006 1_555
Mo2 O16 2.290308 1_555
Mo2 O18 2.457054 1_555
Mo3 O7 1.717839 1_555
Mo3 O5 1.735896 1_555
Mo3 O9 1.965765 1_555
Mo3 O13 2.002006 1_555
Mo3 O17 2.290308 1_555
Mo3 O19 2.457054 1_555
As0 O24 1.655489 1_565
As0 O13 1.731337 1_555
As0 O10 1.733687 1_555
As0 O22 1.787519 1_565
As1 O25 1.655489 1_545
As1 O12 1.731337 1_555
As1 O11 1.733687 1_555
As1 O23 1.787519 1_545
As2 O14 1.712041 1_555
As2 O20 1.726239 1_555
As2 O19 1.742388 1_555
As2 O16 1.751558 1_555
As3 O15 1.712041 1_555
As3 O21 1.726239 1_555
As3 O18 1.742388 1_555
As3 O17 1.751558 1_555
O30 O31 1.221560 1_564
