# generated using pymatgen
data_Er2Nb3Ge4
_symmetry_space_group_name_H-M   'P 1'
_cell_length_a   7.00666400
_cell_length_b   7.18159500
_cell_length_c   13.59395100
_cell_angle_alpha   90.00000000
_cell_angle_beta   90.00000000
_cell_angle_gamma   90.00000000
_symmetry_Int_Tables_number   1
_chemical_formula_structural   Er2Nb3Ge4
_chemical_formula_sum   'Er8 Nb12 Ge16'
_cell_volume   684.03433506
_cell_formula_units_Z   4
loop_
 _symmetry_equiv_pos_site_id
 _symmetry_equiv_pos_as_xyz
  1  'x, y, z'
loop_
 _atom_site_type_symbol
 _atom_site_label
 _atom_site_symmetry_multiplicity
 _atom_site_fract_x
 _atom_site_fract_y
 _atom_site_fract_z
 _atom_site_occupancy
  Er  Er0  1  0.49621400  0.32565700  0.09455800  1
  Er  Er1  1  0.99621400  0.17434300  0.40544200  1
  Er  Er2  1  0.50378600  0.67434300  0.59455800  1
  Er  Er3  1  0.00378600  0.82565700  0.90544200  1
  Er  Er4  1  0.50378600  0.67434300  0.90544200  1
  Er  Er5  1  0.00378600  0.82565700  0.59455800  1
  Er  Er6  1  0.49621400  0.32565700  0.40544200  1
  Er  Er7  1  0.99621400  0.17434300  0.09455800  1
  Nb  Nb0  1  0.66510100  0.01204100  0.75000000  1
  Nb  Nb1  1  0.16510100  0.48795900  0.75000000  1
  Nb  Nb2  1  0.33489900  0.98795900  0.25000000  1
  Nb  Nb3  1  0.83489900  0.51204100  0.25000000  1
  Nb  Nb4  1  0.84062400  0.32878100  0.62636800  1
  Nb  Nb5  1  0.34062400  0.17121900  0.87363200  1
  Nb  Nb6  1  0.15937600  0.67121900  0.12636800  1
  Nb  Nb7  1  0.65937600  0.82878100  0.37363200  1
  Nb  Nb8  1  0.15937600  0.67121900  0.37363200  1
  Nb  Nb9  1  0.65937600  0.82878100  0.12636800  1
  Nb  Nb10  1  0.84062400  0.32878100  0.87363200  1
  Nb  Nb11  1  0.34062400  0.17121900  0.62636800  1
  Ge  Ge0  1  0.80541900  0.63949600  0.75000000  1
  Ge  Ge1  1  0.30541900  0.86050400  0.75000000  1
  Ge  Ge2  1  0.19458100  0.36050400  0.25000000  1
  Ge  Ge3  1  0.69458100  0.13949600  0.25000000  1
  Ge  Ge4  1  0.54056600  0.37926500  0.75000000  1
  Ge  Ge5  1  0.04056600  0.12073500  0.75000000  1
  Ge  Ge6  1  0.45943400  0.62073500  0.25000000  1
  Ge  Ge7  1  0.95943400  0.87926500  0.25000000  1
  Ge  Ge8  1  0.67532500  0.03787400  0.54146000  1
  Ge  Ge9  1  0.17532500  0.46212600  0.95854000  1
  Ge  Ge10  1  0.32467500  0.96212600  0.04146000  1
  Ge  Ge11  1  0.82467500  0.53787400  0.45854000  1
  Ge  Ge12  1  0.32467500  0.96212600  0.45854000  1
  Ge  Ge13  1  0.82467500  0.53787400  0.04146000  1
  Ge  Ge14  1  0.67532500  0.03787400  0.95854000  1
  Ge  Ge15  1  0.17532500  0.46212600  0.54146000  1
loop_
_geom_bond_atom_site_label_1
_geom_bond_atom_site_label_2
_geom_bond_distance
_geom_bond_site_symmetry_2
Er0 Ge13 2.853117 1_555
Er0 Ge3 2.860814 1_555
Er0 Ge10 2.963366 1_545
Er0 Ge2 2.999055 1_555
Er0 Ge6 3.003697 1_555
Er0 Ge14 3.043888 1_554
Er0 Ge9 3.071569 1_554
Er1 Ge12 2.853117 1_645
Er1 Ge2 2.860814 1_655
Er1 Ge11 2.963366 1_555
Er1 Ge3 2.999055 1_555
Er1 Ge7 3.003697 1_545
Er1 Ge15 3.043888 1_655
Er1 Ge8 3.071569 1_555
Er2 Ge15 2.853117 1_555
Er2 Ge1 2.860814 1_555
Er2 Ge8 2.963366 1_565
Er2 Ge0 2.999055 1_555
Er2 Ge4 3.003697 1_555
Er2 Ge12 3.043888 1_555
Er2 Ge11 3.071569 1_555
Er3 Ge14 2.853117 1_465
Er3 Ge0 2.860814 1_455
Er3 Ge9 2.963366 1_555
Er3 Ge1 2.999055 1_555
Er3 Ge5 3.003697 1_565
Er3 Ge13 3.043888 1_456
Er3 Ge10 3.071569 1_556
Er4 Ge9 2.853117 1_555
Er4 Ge1 2.860814 1_555
Er4 Ge14 2.963366 1_565
Er4 Ge0 2.999055 1_555
Er4 Ge4 3.003697 1_555
Er4 Ge10 3.043888 1_556
Er4 Ge13 3.071569 1_556
Er5 Ge8 2.853117 1_465
Er5 Ge0 2.860814 1_455
Er5 Ge15 2.963366 1_555
Er5 Ge1 2.999055 1_555
Er5 Ge5 3.003697 1_565
Er5 Ge11 3.043888 1_455
Er5 Ge12 3.071569 1_555
Er6 Ge11 2.853117 1_555
Er6 Ge3 2.860814 1_555
Er6 Ge12 2.963366 1_545
Er6 Ge2 2.999055 1_555
Er6 Ge6 3.003697 1_555
Er6 Ge8 3.043888 1_555
Er6 Ge15 3.071569 1_555
Er7 Ge10 2.853117 1_645
Er7 Ge2 2.860814 1_655
Er7 Ge13 2.963366 1_555
Er7 Ge3 2.999055 1_555
Er7 Ge7 3.003697 1_545
Er7 Ge9 3.043888 1_654
Er7 Ge14 3.071569 1_554
Ge0 Ge4 2.633713 1_555
Ge0 Nb1 2.745106 1_655
Ge0 Nb10 2.804407 1_555
Ge0 Nb4 2.804407 1_555
Ge0 Nb0 2.850391 1_565
Ge1 Ge5 2.633713 1_565
Ge1 Nb0 2.745106 1_565
Ge1 Nb5 2.804407 1_565
Ge1 Nb11 2.804407 1_565
Ge1 Nb1 2.850391 1_555
Ge2 Ge6 2.633713 1_555
Ge2 Nb3 2.745106 1_455
Ge2 Nb8 2.804407 1_555
Ge2 Nb6 2.804407 1_555
Ge2 Nb2 2.850391 1_545
Ge3 Ge7 2.633713 1_545
Ge3 Nb2 2.745106 1_545
Ge3 Nb7 2.804407 1_545
Ge3 Nb9 2.804407 1_545
Ge3 Nb3 2.850391 1_555
Ge4 Nb5 2.649436 1_555
Ge4 Nb11 2.649436 1_555
Ge4 Nb10 2.715903 1_555
Ge4 Nb4 2.715903 1_555
Ge4 Nb1 2.744123 1_555
Ge4 Nb0 2.777858 1_555
Ge5 Nb10 2.649436 1_455
Ge5 Nb4 2.649436 1_455
Ge5 Nb5 2.715903 1_555
Ge5 Nb11 2.715903 1_555
Ge5 Nb0 2.744123 1_455
Ge5 Nb1 2.777858 1_555
Ge6 Nb7 2.649436 1_555
Ge6 Nb9 2.649436 1_555
Ge6 Nb8 2.715903 1_555
Ge6 Nb6 2.715903 1_555
Ge6 Nb3 2.744123 1_555
Ge6 Nb2 2.777858 1_555
Ge7 Nb8 2.649436 1_655
Ge7 Nb6 2.649436 1_655
Ge7 Nb7 2.715903 1_555
Ge7 Nb9 2.715903 1_555
Ge7 Nb2 2.744123 1_655
Ge7 Nb3 2.777858 1_555
Ge8 Nb4 2.652985 1_555
Ge8 Nb7 2.733560 1_545
Ge8 Nb11 2.783700 1_555
Ge8 Nb0 2.841850 1_555
Ge9 Nb5 2.652985 1_555
Ge9 Nb6 2.733560 1_556
Ge9 Nb10 2.783700 1_455
Ge9 Nb1 2.841850 1_555
Ge10 Nb6 2.652985 1_555
Ge10 Nb5 2.733560 1_564
Ge10 Ge14 2.757322 1_564
Ge10 Nb9 2.783700 1_555
Ge10 Nb2 2.841850 1_555
Ge11 Nb7 2.652985 1_555
Ge11 Nb4 2.733560 1_555
Ge11 Ge15 2.757322 1_655
Ge11 Nb8 2.783700 1_655
Ge11 Nb3 2.841850 1_555
Ge12 Nb8 2.652985 1_555
Ge12 Nb11 2.733560 1_565
Ge12 Ge8 2.757322 1_565
Ge12 Nb7 2.783700 1_555
Ge12 Nb2 2.841850 1_555
Ge13 Nb9 2.652985 1_555
Ge13 Nb10 2.733560 1_554
Ge13 Ge9 2.757322 1_654
Ge13 Nb6 2.783700 1_655
Ge13 Nb3 2.841850 1_555
Ge14 Nb10 2.652985 1_555
Ge14 Nb9 2.733560 1_546
Ge14 Nb5 2.783700 1_555
Ge14 Nb0 2.841850 1_555
Ge15 Nb11 2.652985 1_555
Ge15 Nb8 2.733560 1_555
Ge15 Nb4 2.783700 1_455
Ge15 Nb1 2.841850 1_555
