# generated using pymatgen
data_NaMnO2
_symmetry_space_group_name_H-M   'P 1'
_cell_length_a   2.92019007
_cell_length_b   3.21008035
_cell_length_c   21.84829646
_cell_angle_alpha   89.83193099
_cell_angle_beta   90.13180314
_cell_angle_gamma   117.07590647
_symmetry_Int_Tables_number   1
_chemical_formula_structural   NaMnO2
_chemical_formula_sum   'Na4 Mn4 O8'
_cell_volume   182.36005828
_cell_formula_units_Z   4
loop_
 _symmetry_equiv_pos_site_id
 _symmetry_equiv_pos_as_xyz
  1  'x, y, z'
loop_
 _atom_site_type_symbol
 _atom_site_label
 _atom_site_symmetry_multiplicity
 _atom_site_fract_x
 _atom_site_fract_y
 _atom_site_fract_z
 _atom_site_occupancy
  Na  Na0  1  0.68264000  0.38312000  0.12498700  1
  Na  Na1  1  0.70940400  0.40942600  0.62504800  1
  Na  Na2  1  0.31581100  0.61778700  0.37491900  1
  Na  Na3  1  0.29133800  0.58887500  0.87494700  1
  Mn  Mn0  1  0.00189300  0.99885700  0.75003200  1
  Mn  Mn1  1  0.02111000  0.02452300  0.50015500  1
  Mn  Mn2  1  0.99941300  0.00097200  0.25009500  1
  Mn  Mn3  1  0.97870200  0.97656400  0.99983100  1
  O  O0  1  0.37298000  0.74991700  0.19919800  1
  O  O1  1  0.37676800  0.75002500  0.69915900  1
  O  O2  1  0.62542400  0.25190500  0.30090800  1
  O  O3  1  0.62610900  0.24748600  0.80094200  1
  O  O4  1  0.64478500  0.27235100  0.44914800  1
  O  O5  1  0.60453200  0.22817100  0.94892800  1
  O  O6  1  0.35439200  0.72808000  0.05074000  1
  O  O7  1  0.39470000  0.77194200  0.55096400  1
loop_
_geom_bond_atom_site_label_1
_geom_bond_atom_site_label_2
_geom_bond_distance
_geom_bond_site_symmetry_2
Na0 O6 2.392709 1_555
Na0 O6 2.394231 1_655
Na0 O0 2.412504 1_555
Na0 O0 2.427415 1_545
Na0 O0 2.431986 1_655
Na0 O6 2.479865 1_545
Na1 O1 2.381452 1_655
Na1 O1 2.396915 1_555
Na1 O7 2.402981 1_555
Na1 O7 2.421309 1_655
Na1 O7 2.439814 1_545
Na1 O1 2.482189 1_545
Na2 O4 2.392806 1_455
Na2 O4 2.394720 1_555
Na2 O2 2.407535 1_555
Na2 O2 2.426466 1_565
Na2 O2 2.428842 1_455
Na2 O4 2.478577 1_565
Na3 O3 2.376322 1_455
Na3 O5 2.395005 1_555
Na3 O3 2.400816 1_555
Na3 O5 2.421910 1_455
Na3 O5 2.442255 1_565
Na3 O3 2.479016 1_565
Mn0 O3 1.966822 1_565
Mn0 O1 1.968324 1_455
Mn0 O1 1.969429 1_555
Mn0 O3 1.971426 1_465
Mn0 O1 2.415589 1_565
Mn0 O3 2.416476 1_455
Mn1 O4 1.966603 1_455
Mn1 O7 1.968318 1_545
Mn1 O4 1.968990 1_555
Mn1 O7 1.972231 1_445
Mn1 O7 2.409614 1_555
Mn1 O4 2.423673 1_445
Mn2 O2 1.969413 1_655
Mn2 O2 1.971228 1_555
Mn2 O0 1.971355 1_545
Mn2 O0 1.971613 1_645
Mn2 O2 2.409657 1_545
Mn2 O0 2.410191 1_655
Mn3 O6 1.965406 1_656
Mn3 O5 1.968657 1_565
Mn3 O6 1.969116 1_556
Mn3 O5 1.972176 1_665
Mn3 O5 2.413034 1_555
Mn3 O6 2.421020 1_666
