# generated using pymatgen
data_HoAlCo
_symmetry_space_group_name_H-M   'P 1'
_cell_length_a   5.31672254
_cell_length_b   5.31673846
_cell_length_c   8.38055700
_cell_angle_alpha   90.00000000
_cell_angle_beta   90.00000000
_cell_angle_gamma   60.90670872
_symmetry_Int_Tables_number   1
_chemical_formula_structural   HoAlCo
_chemical_formula_sum   'Ho4 Al4 Co4'
_cell_volume   207.00875431
_cell_formula_units_Z   4
loop_
 _symmetry_equiv_pos_site_id
 _symmetry_equiv_pos_as_xyz
  1  'x, y, z'
loop_
 _atom_site_type_symbol
 _atom_site_label
 _atom_site_symmetry_multiplicity
 _atom_site_fract_x
 _atom_site_fract_y
 _atom_site_fract_z
 _atom_site_occupancy
  Ho  Ho0  1  0.33345300  0.33345200  0.54694900  1
  Ho  Ho1  1  0.67066500  0.67067200  0.42432000  1
  Ho  Ho2  1  0.67066500  0.67067200  0.07568000  1
  Ho  Ho3  1  0.33345300  0.33345200  0.95305100  1
  Al  Al0  1  0.99545600  0.99547500  0.47974600  1
  Al  Al1  1  0.99545600  0.99547500  0.02025400  1
  Al  Al2  1  0.83386200  0.33976500  0.75000000  1
  Al  Al3  1  0.33975900  0.83385600  0.75000000  1
  Co  Co0  1  0.83237800  0.83237800  0.75000000  1
  Co  Co1  1  0.17170800  0.65054300  0.25000000  1
  Co  Co2  1  0.65057200  0.17169000  0.25000000  1
  Co  Co3  1  0.17257400  0.17257200  0.25000000  1
loop_
_geom_bond_atom_site_label_1
_geom_bond_atom_site_label_2
_geom_bond_distance
_geom_bond_site_symmetry_2
Ho0 Ho1 3.247168 1_545
Ho0 Ho1 3.247195 1_455
Ho0 Ho1 3.257451 1_555
Ho0 Ho3 3.403361 1_555
Ho1 Ho2 2.921797 1_555
Ho2 Ho3 3.247168 1_564
Ho2 Ho3 3.247195 1_654
Ho2 Ho3 3.257451 1_554
Al0 Co2 2.505310 1_565
Al0 Co1 2.505457 1_655
Al0 Co3 2.518485 1_665
Al0 Co0 2.713765 1_555
Al0 Al2 2.772936 1_565
Al0 Al3 2.772967 1_655
Al0 Ho1 3.013266 1_555
Al0 Ho0 3.127915 1_565
Al0 Ho0 3.128017 1_655
Al0 Ho0 3.148929 1_665
Al0 Ho1 3.171171 1_565
Al0 Ho1 3.171217 1_655
Al1 Co2 2.505310 1_565
Al1 Co1 2.505457 1_655
Al1 Co3 2.518485 1_665
Al1 Co0 2.713765 1_554
Al1 Al2 2.772936 1_564
Al1 Al3 2.772967 1_654
Al1 Ho2 3.013266 1_555
Al1 Ho3 3.127915 1_564
Al1 Ho3 3.128017 1_654
Al1 Ho3 3.148929 1_664
Al1 Ho2 3.171171 1_565
Al1 Ho2 3.171217 1_655
Al2 Co0 2.615267 1_555
Al2 Al3 2.662900 1_555
Al2 Co0 2.701489 1_545
Al2 Al3 2.726528 1_645
Al2 Ho2 3.132597 1_556
Al2 Ho1 3.132597 1_555
Al2 Ho0 3.140935 1_655
Al2 Ho3 3.140935 1_655
Al2 Ho0 3.172087 1_555
Al2 Ho3 3.172087 1_555
Al3 Co0 2.615307 1_555
Al3 Co0 2.701434 1_455
Al3 Ho2 3.132592 1_556
Al3 Ho1 3.132592 1_555
Al3 Ho3 3.140979 1_565
Al3 Ho0 3.140979 1_565
Al3 Ho0 3.172055 1_555
Al3 Ho3 3.172055 1_555
Co0 Ho2 3.105922 1_556
Co0 Ho1 3.105922 1_555
Co0 Ho0 3.187049 1_565
Co0 Ho3 3.187049 1_565
Co0 Ho0 3.187054 1_655
Co0 Ho3 3.187054 1_655
Co1 Co3 2.539011 1_555
Co1 Co2 2.580774 1_555
Co1 Co3 2.777733 1_565
Co1 Co2 2.808655 1_465
Co1 Ho3 2.892230 1_554
Co1 Ho0 2.892230 1_555
Co1 Ho2 2.994133 1_455
Co1 Ho1 2.994133 1_455
Co1 Ho2 3.075581 1_555
Co1 Ho1 3.075581 1_555
Co2 Co3 2.539106 1_555
Co2 Co3 2.777623 1_655
Co2 Ho0 2.892295 1_555
Co2 Ho3 2.892295 1_554
Co2 Ho1 2.994100 1_545
Co2 Ho2 2.994100 1_545
Co2 Ho2 3.075618 1_555
Co2 Ho1 3.075618 1_555
Co3 Ho3 2.892726 1_554
Co3 Ho0 2.892726 1_555
Co3 Ho2 3.065271 1_545
Co3 Ho1 3.065271 1_545
Co3 Ho2 3.065313 1_455
Co3 Ho1 3.065313 1_455
