# generated using pymatgen
data_Li3Ni11As7
_symmetry_space_group_name_H-M   'P 1'
_cell_length_a   3.69518643
_cell_length_b   9.27562617
_cell_length_c   9.30858955
_cell_angle_alpha   120.18533229
_cell_angle_beta   90.00000000
_cell_angle_gamma   90.00000000
_symmetry_Int_Tables_number   1
_chemical_formula_structural   Li3Ni11As7
_chemical_formula_sum   'Li3 Ni11 As7'
_cell_volume   275.79095138
_cell_formula_units_Z   1
loop_
 _symmetry_equiv_pos_site_id
 _symmetry_equiv_pos_as_xyz
  1  'x, y, z'
loop_
 _atom_site_type_symbol
 _atom_site_label
 _atom_site_symmetry_multiplicity
 _atom_site_fract_x
 _atom_site_fract_y
 _atom_site_fract_z
 _atom_site_occupancy
  Li  Li0  1  0.50000000  0.32991919  0.66584420  1
  Li  Li1  1  0.00000000  0.66946900  0.33834323  1
  Li  Li2  1  0.50000000  0.12046561  0.90188315  1
  Ni  Ni0  1  -0.00000000  0.88219856  0.72083823  1
  Ni  Ni1  1  -0.00000000  0.28396178  0.16317592  1
  Ni  Ni2  1  -0.00000000  0.83233240  0.11938609  1
  Ni  Ni3  1  0.50000000  0.95392653  0.56931977  1
  Ni  Ni4  1  0.50000000  0.43081186  0.38518233  1
  Ni  Ni5  1  0.50000000  0.61587928  0.04295301  1
  Ni  Ni6  1  0.00000000  0.38082294  0.94992227  1
  Ni  Ni7  1  -0.00000000  0.05187819  0.42777784  1
  Ni  Ni8  1  -0.00000000  0.56728235  0.61974365  1
  Ni  Ni9  1  0.50000000  0.09176055  0.21125964  1
  Ni  Ni10  1  0.50000000  0.78696122  0.88185347  1
  As  As0  1  0.50000000  0.70978509  0.58931785  1
  As  As1  1  0.50000000  0.42313325  0.12842484  1
  As  As2  1  0.50000000  0.87753572  0.29184763  1
  As  As3  1  0.00000000  0.99643146  0.00417793  1
  As  As4  1  -0.00000000  0.12610581  0.70270328  1
  As  As5  1  0.00000000  0.29032305  0.41626108  1
  As  As6  1  -0.00000000  0.57901714  0.86978460  1
loop_
_geom_bond_atom_site_label_1
_geom_bond_atom_site_label_2
_geom_bond_distance
_geom_bond_site_symmetry_2
Li0 Ni3 3.133576 1_545
Li1 Ni3 3.048513 1_455
Li1 Ni3 3.048513 1_555
Li2 Ni3 2.675956 1_545
Li2 Ni0 2.718962 1_545
Li2 Ni0 2.718962 1_645
Li2 Ni1 2.814273 1_656
Li2 Ni1 2.814273 1_556
Li2 Ni6 2.891318 1_655
Li2 Ni6 2.891318 1_555
Li2 Ni10 3.004043 1_545
Li2 Ni9 3.022508 1_556
Ni0 Ni3 2.605606 1_455
Ni0 Ni3 2.605606 1_555
Ni3 Ni7 2.679333 1_565
Ni3 Ni7 2.679333 1_665
As0 Ni4 2.315629 1_555
As0 Ni0 2.345453 1_555
As0 Ni0 2.345453 1_655
As0 Ni3 2.363646 1_555
As0 Ni8 2.370113 1_555
As0 Ni8 2.370113 1_655
As0 Ni10 2.442833 1_555
As0 Li1 2.851812 1_655
As0 Li1 2.851812 1_555
As1 Ni5 2.293424 1_555
As1 Ni4 2.355044 1_555
As1 Ni1 2.367403 1_555
As1 Ni1 2.367403 1_655
As1 Ni6 2.381765 1_654
As1 Ni6 2.381765 1_554
As1 Li2 2.524923 1_554
As1 Li1 2.821864 1_555
As1 Li1 2.821864 1_655
As2 Ni3 2.309311 1_555
As2 Ni2 2.343021 1_555
As2 Ni2 2.343021 1_655
As2 Ni7 2.360533 1_665
As2 Ni7 2.360533 1_565
As2 Ni5 2.367222 1_555
As2 Ni9 2.451561 1_565
As2 Li1 2.857552 1_555
As2 Li1 2.857552 1_655
As3 Ni2 2.260188 1_555
As3 Ni0 2.295387 1_554
As3 Ni1 2.309576 1_565
As3 Ni9 2.489425 1_565
As3 Ni9 2.489425 1_465
As3 Ni10 2.502101 1_554
As3 Ni10 2.502101 1_454
As3 Li2 2.597233 1_564
As3 Li2 2.597233 1_464
As4 Ni7 2.291618 1_555
As4 Ni6 2.326034 1_555
As4 Ni3 2.347721 1_545
As4 Ni3 2.347721 1_445
As4 Ni0 2.351802 1_545
As4 Li2 2.636571 1_555
As4 Li2 2.636571 1_455
As4 Li0 2.785242 1_555
As4 Li0 2.785242 1_455
As5 Ni7 2.267522 1_555
As5 Ni8 2.300901 1_555
As5 Ni1 2.326757 1_555
As5 Ni4 2.361043 1_455
As5 Ni4 2.361043 1_555
As5 Ni9 2.629257 1_455
As5 Ni9 2.629257 1_555
As5 Li0 2.843941 1_455
As5 Li0 2.843941 1_555
As6 Ni8 2.274747 1_555
As6 Ni6 2.305459 1_555
As6 Ni2 2.330110 1_556
As6 Ni5 2.361072 1_456
As6 Ni5 2.361072 1_556
As6 Ni10 2.632230 1_555
As6 Ni10 2.632230 1_455
As6 Li0 2.818729 1_555
As6 Li0 2.818729 1_455
