# generated using pymatgen
data_Ga3BN4
_symmetry_space_group_name_H-M   'P 1'
_cell_length_a   4.31038100
_cell_length_b   4.31038100
_cell_length_c   4.31038100
_cell_angle_alpha   90.00000000
_cell_angle_beta   90.00000000
_cell_angle_gamma   90.00000000
_symmetry_Int_Tables_number   1
_chemical_formula_structural   Ga3BN4
_chemical_formula_sum   'Ga3 B1 N4'
_cell_volume   80.08422536
_cell_formula_units_Z   1
loop_
 _symmetry_equiv_pos_site_id
 _symmetry_equiv_pos_as_xyz
  1  'x, y, z'
loop_
 _atom_site_type_symbol
 _atom_site_label
 _atom_site_symmetry_multiplicity
 _atom_site_fract_x
 _atom_site_fract_y
 _atom_site_fract_z
 _atom_site_occupancy
  Ga  Ga0  1  0.50000000  0.50000000  0.00000000  1
  Ga  Ga1  1  0.50000000  0.00000000  0.50000000  1
  Ga  Ga2  1  0.00000000  0.50000000  0.50000000  1
  B  B0  1  0.00000000  0.00000000  0.00000000  1
  N  N0  1  0.77956800  0.77956800  0.22043200  1
  N  N1  1  0.77956800  0.22043200  0.77956800  1
  N  N2  1  0.22043200  0.77956800  0.77956800  1
  N  N3  1  0.22043200  0.22043200  0.22043200  1
loop_
_geom_bond_atom_site_label_1
_geom_bond_atom_site_label_2
_geom_bond_distance
_geom_bond_site_symmetry_2
Ga0 N1 1.951164 1_554
Ga0 N2 1.951164 1_554
Ga0 N3 1.951164 1_555
Ga0 N0 1.951164 1_555
Ga1 N0 1.951164 1_545
Ga1 N2 1.951164 1_545
Ga1 N3 1.951164 1_555
Ga1 N1 1.951164 1_555
Ga2 N0 1.951164 1_455
Ga2 N1 1.951164 1_455
Ga2 N3 1.951164 1_555
Ga2 N2 1.951164 1_555
B0 N1 1.645701 1_454
B0 N2 1.645701 1_544
B0 N0 1.645701 1_445
B0 N3 1.645701 1_555
