# generated using pymatgen
data_Th(AlAu)2
_symmetry_space_group_name_H-M   'P 1'
_cell_length_a   4.39718084
_cell_length_b   4.39718084
_cell_length_c   10.39030556
_cell_angle_alpha   90.00000000
_cell_angle_beta   90.00000000
_cell_angle_gamma   90.00000000
_symmetry_Int_Tables_number   1
_chemical_formula_structural   Th(AlAu)2
_chemical_formula_sum   'Th2 Al4 Au4'
_cell_volume   200.89862920
_cell_formula_units_Z   2
loop_
 _symmetry_equiv_pos_site_id
 _symmetry_equiv_pos_as_xyz
  1  'x, y, z'
loop_
 _atom_site_type_symbol
 _atom_site_label
 _atom_site_symmetry_multiplicity
 _atom_site_fract_x
 _atom_site_fract_y
 _atom_site_fract_z
 _atom_site_occupancy
  Th  Th0  1  -0.00000000  0.50000000  0.24718559  1
  Th  Th1  1  0.50000000  0.00000000  0.75281441  1
  Al  Al0  1  0.00000000  0.00000000  0.50000000  1
  Al  Al1  1  0.50000000  0.50000000  0.50000000  1
  Al  Al2  1  0.00000000  0.50000000  0.86940853  1
  Al  Al3  1  0.50000000  0.00000000  0.13059147  1
  Au  Au0  1  0.00000000  -0.00000000  0.00000000  1
  Au  Au1  1  0.50000000  0.50000000  0.00000000  1
  Au  Au2  1  -0.00000000  0.50000000  0.62895480  1
  Au  Au3  1  0.50000000  -0.00000000  0.37104520  1
loop_
_geom_bond_atom_site_label_1
_geom_bond_atom_site_label_2
_geom_bond_distance
_geom_bond_site_symmetry_2
Al0 Au2 2.574700 1_545
Al0 Au2 2.574700 1_555
Al0 Au3 2.574700 1_455
Al0 Au3 2.574700 1_555
Al0 Th1 3.425489 1_455
Al0 Th0 3.425489 1_555
Al0 Th0 3.425489 1_545
Al0 Th1 3.425489 1_555
Al1 Au2 2.574700 1_555
Al1 Au2 2.574700 1_655
Al1 Au3 2.574700 1_555
Al1 Au3 2.574700 1_565
Al1 Th0 3.425489 1_555
Al1 Th1 3.425489 1_565
Al1 Th0 3.425489 1_655
Al1 Th1 3.425489 1_555
Al2 Au2 2.498388 1_555
Al2 Au0 2.583590 1_556
Al2 Au1 2.583590 1_556
Al2 Au0 2.583590 1_566
Al2 Au1 2.583590 1_456
Al2 Th1 3.336946 1_565
Al2 Th1 3.336946 1_555
Al2 Th1 3.336946 1_465
Al2 Th1 3.336946 1_455
Al3 Au3 2.498388 1_555
Al3 Au0 2.583590 1_555
Al3 Au1 2.583590 1_555
Al3 Au1 2.583590 1_545
Al3 Au0 2.583590 1_655
Al3 Th0 3.336946 1_555
Al3 Th0 3.336946 1_545
Al3 Th0 3.336946 1_655
Al3 Th0 3.336946 1_645
Au0 Th1 3.380849 1_554
Au0 Th1 3.380849 1_454
Au0 Th0 3.380849 1_545
Au0 Th0 3.380849 1_555
Au1 Th1 3.380849 1_564
Au1 Th1 3.380849 1_554
Au1 Th0 3.380849 1_655
Au1 Th0 3.380849 1_555
Au2 Th1 3.365087 1_555
Au2 Th1 3.365087 1_465
Au2 Th1 3.365087 1_455
Au2 Th1 3.365087 1_565
Au3 Th0 3.365087 1_645
Au3 Th0 3.365087 1_555
Au3 Th0 3.365087 1_545
Au3 Th0 3.365087 1_655
