# generated using pymatgen
data_Zr4CoNi
_symmetry_space_group_name_H-M   'P 1'
_cell_length_a   5.24890704
_cell_length_b   5.24890704
_cell_length_c   5.24891695
_cell_angle_alpha   105.19385424
_cell_angle_beta   105.19385424
_cell_angle_gamma   118.41325376
_symmetry_Int_Tables_number   1
_chemical_formula_structural   Zr4CoNi
_chemical_formula_sum   'Zr4 Co1 Ni1'
_cell_volume   109.26107029
_cell_formula_units_Z   1
loop_
 _symmetry_equiv_pos_site_id
 _symmetry_equiv_pos_as_xyz
  1  'x, y, z'
loop_
 _atom_site_type_symbol
 _atom_site_label
 _atom_site_symmetry_multiplicity
 _atom_site_fract_x
 _atom_site_fract_y
 _atom_site_fract_z
 _atom_site_occupancy
  Zr  Zr0  1  0.91754768  0.41754768  0.83509436  1
  Zr  Zr1  1  0.58245232  0.08245232  0.16490564  1
  Zr  Zr2  1  0.08245332  0.91754668  0.50000000  1
  Zr  Zr3  1  0.41754668  0.58245332  0.50000000  1
  Co  Co0  1  0.00000000  0.00000000  0.00000000  1
  Ni  Ni0  1  0.50000000  0.50000000  0.00000000  1
loop_
_geom_bond_atom_site_label_1
_geom_bond_atom_site_label_2
_geom_bond_distance
_geom_bond_site_symmetry_2
Zr0 Zr1 3.021829 1_555
Zr0 Zr1 3.071182 1_666
Zr0 Zr1 3.071192 1_556
Zr0 Zr3 3.357215 1_656
Zr0 Zr2 3.357215 1_656
Zr0 Zr3 3.357216 1_555
Zr0 Zr2 3.357216 1_645
Zr0 Zr2 3.433137 1_655
Zr0 Zr3 3.433137 1_655
Zr0 Zr2 3.433141 1_545
Zr0 Zr3 3.433141 1_545
Zr1 Zr3 3.357215 1_544
Zr1 Zr2 3.357215 1_544
Zr1 Zr2 3.357216 1_645
Zr1 Zr3 3.357216 1_555
Zr1 Zr3 3.433137 1_545
Zr1 Zr2 3.433137 1_545
Zr1 Zr2 3.433141 1_655
Zr1 Zr3 3.433141 1_655
Zr2 Zr3 3.021813 1_555
Zr2 Zr3 3.071190 1_565
Zr2 Zr3 3.071190 1_455
Co0 Ni0 2.687144 1_445
Co0 Ni0 2.687144 1_555
Co0 Zr0 2.727748 1_444
Co0 Zr1 2.727748 1_555
Co0 Zr1 2.727751 1_455
Co0 Zr0 2.727751 1_454
Co0 Zr3 2.727755 1_555
Co0 Zr2 2.727755 1_545
Co0 Zr3 2.727755 1_444
Co0 Zr2 2.727755 1_544
Ni0 Zr0 2.727748 1_454
Ni0 Zr1 2.727748 1_565
Ni0 Zr0 2.727751 1_554
Ni0 Zr1 2.727751 1_555
Ni0 Zr3 2.727755 1_555
Ni0 Zr2 2.727755 1_544
Ni0 Zr2 2.727755 1_655
Ni0 Zr3 2.727755 1_554
