# generated using pymatgen
data_Mg6TiCuO8
_symmetry_space_group_name_H-M   'P 1'
_cell_length_a   4.26466200
_cell_length_b   4.26466200
_cell_length_c   8.82206800
_cell_angle_alpha   90.00000000
_cell_angle_beta   90.00000000
_cell_angle_gamma   90.00000000
_symmetry_Int_Tables_number   1
_chemical_formula_structural   Mg6TiCuO8
_chemical_formula_sum   'Mg6 Ti1 Cu1 O8'
_cell_volume   160.44996764
_cell_formula_units_Z   1
loop_
 _symmetry_equiv_pos_site_id
 _symmetry_equiv_pos_as_xyz
  1  'x, y, z'
loop_
 _atom_site_type_symbol
 _atom_site_label
 _atom_site_symmetry_multiplicity
 _atom_site_fract_x
 _atom_site_fract_y
 _atom_site_fract_z
 _atom_site_occupancy
  Mg  Mg0  1  0.50000000  0.50000000  0.00000000  1
  Mg  Mg1  1  0.50000000  0.50000000  0.50000000  1
  Mg  Mg2  1  0.00000000  0.50000000  0.23895700  1
  Mg  Mg3  1  0.00000000  0.50000000  0.76104300  1
  Mg  Mg4  1  0.50000000  0.00000000  0.23895700  1
  Mg  Mg5  1  0.50000000  0.00000000  0.76104300  1
  Ti  Ti0  1  0.00000000  0.00000000  0.50000000  1
  Cu  Cu0  1  0.00000000  0.00000000  0.00000000  1
  O  O0  1  0.00000000  0.00000000  0.27075600  1
  O  O1  1  0.00000000  0.00000000  0.72924400  1
  O  O2  1  0.50000000  0.50000000  0.25125600  1
  O  O3  1  0.50000000  0.50000000  0.74874400  1
  O  O4  1  0.00000000  0.50000000  0.00000000  1
  O  O5  1  0.00000000  0.50000000  0.50000000  1
  O  O6  1  0.50000000  0.00000000  0.00000000  1
  O  O7  1  0.50000000  0.00000000  0.50000000  1
loop_
_geom_bond_atom_site_label_1
_geom_bond_atom_site_label_2
_geom_bond_distance
_geom_bond_site_symmetry_2
Mg0 O6 2.132331 1_555
Mg0 O6 2.132331 1_565
Mg0 O4 2.132331 1_555
Mg0 O4 2.132331 1_655
Mg0 O2 2.216598 1_555
Mg0 O3 2.216598 1_554
Mg1 O7 2.132331 1_555
Mg1 O7 2.132331 1_565
Mg1 O5 2.132331 1_655
Mg1 O5 2.132331 1_555
Mg1 O3 2.194436 1_555
Mg1 O2 2.194436 1_555
Mg2 O4 2.108095 1_555
Mg2 O2 2.135090 1_555
Mg2 O2 2.135090 1_455
Mg2 O0 2.150706 1_555
Mg2 O0 2.150706 1_565
Mg2 O5 2.302939 1_555
Mg3 O4 2.108095 1_556
Mg3 O3 2.135090 1_455
Mg3 O3 2.135090 1_555
Mg3 O1 2.150706 1_565
Mg3 O1 2.150706 1_555
Mg3 O5 2.302939 1_555
Mg4 O6 2.108095 1_555
Mg4 O2 2.135090 1_555
Mg4 O2 2.135090 1_545
Mg4 O0 2.150706 1_555
Mg4 O0 2.150706 1_655
Mg4 O7 2.302939 1_555
Mg5 O6 2.108095 1_556
Mg5 O3 2.135090 1_545
Mg5 O3 2.135090 1_555
Mg5 O1 2.150706 1_555
Mg5 O1 2.150706 1_655
Mg5 O7 2.302939 1_555
Cu0 O6 2.132331 1_555
Cu0 O4 2.132331 1_555
Cu0 O6 2.132331 1_455
Cu0 O4 2.132331 1_545
Cu0 O0 2.388628 1_555
Cu0 O1 2.388628 1_554
O0 Ti0 2.022406 1_555
O1 Ti0 2.022406 1_555
O5 Ti0 2.132331 1_555
O5 Ti0 2.132331 1_565
O7 Ti0 2.132331 1_555
O7 Ti0 2.132331 1_655
