# generated using pymatgen
data_Mg2Si3
_symmetry_space_group_name_H-M   'P 1'
_cell_length_a   3.55891400
_cell_length_b   6.18341650
_cell_length_c   18.24367827
_cell_angle_alpha   83.76383983
_cell_angle_beta   84.43795178
_cell_angle_gamma   73.28171302
_symmetry_Int_Tables_number   1
_chemical_formula_structural   Mg2Si3
_chemical_formula_sum   'Mg8 Si12'
_cell_volume   381.31907083
_cell_formula_units_Z   4
loop_
 _symmetry_equiv_pos_site_id
 _symmetry_equiv_pos_as_xyz
  1  'x, y, z'
loop_
 _atom_site_type_symbol
 _atom_site_label
 _atom_site_symmetry_multiplicity
 _atom_site_fract_x
 _atom_site_fract_y
 _atom_site_fract_z
 _atom_site_occupancy
  Mg  Mg0  1  0.18279500  0.84351300  0.79945900  1
  Mg  Mg1  1  0.33057700  0.09856900  0.24619700  1
  Mg  Mg2  1  0.99728600  0.07469100  0.94337100  1
  Mg  Mg3  1  0.60465600  0.74066800  0.05429000  1
  Mg  Mg4  1  0.60341200  0.57339000  0.23216000  1
  Mg  Mg5  1  0.90209300  0.50187100  0.71052200  1
  Mg  Mg6  1  0.40882600  0.71783400  0.42614400  1
  Mg  Mg7  1  0.03867900  0.28971700  0.56172600  1
  Si  Si0  1  0.22601400  0.61291100  0.94277100  1
  Si  Si1  1  0.34765000  0.28751800  0.03461000  1
  Si  Si2  1  0.82958500  0.49019800  0.85940900  1
  Si  Si3  1  0.81110800  0.27557500  0.12091800  1
  Si  Si4  1  0.73672900  0.17162300  0.35672500  1
  Si  Si5  1  0.59881100  0.12564400  0.68880000  1
  Si  Si6  1  0.68313500  0.06283200  0.48309200  1
  Si  Si7  1  0.87084100  0.73502200  0.56440600  1
  Si  Si8  1  0.10361900  0.44491300  0.34941400  1
  Si  Si9  1  0.25699900  0.85837300  0.65072600  1
  Si  Si10  1  0.48440600  0.21629700  0.81824700  1
  Si  Si11  1  0.98258100  0.87879000  0.15712500  1
loop_
_geom_bond_atom_site_label_1
_geom_bond_atom_site_label_2
_geom_bond_distance
_geom_bond_site_symmetry_2
Mg0 Si9 2.694775 1_555
Mg0 Si0 2.834522 1_555
Mg0 Si10 2.872210 1_565
Mg0 Si10 2.884246 1_465
Mg0 Si2 2.888482 1_555
Mg0 Si2 2.888535 1_455
Mg0 Si5 3.066070 1_465
Mg0 Si5 3.074508 1_565
Mg1 Si4 2.738245 1_555
Mg1 Si4 2.749413 1_455
Mg1 Si11 2.793996 1_545
Mg1 Si11 2.803489 1_445
Mg1 Si8 2.893233 1_555
Mg1 Si3 2.991820 1_455
Mg1 Si3 3.020280 1_555
Mg2 Si0 2.735641 1_645
Mg2 Si2 2.782732 1_555
Mg2 Si1 2.797725 1_556
Mg2 Si1 2.807071 1_656
Mg2 Si10 2.941924 1_655
Mg2 Si10 2.960261 1_555
Mg3 Si11 2.748875 1_555
Mg3 Si11 2.757834 1_455
Mg3 Si0 2.841181 1_554
Mg3 Si0 2.850512 1_654
Mg3 Si3 2.913066 1_555
Mg4 Si3 2.791823 1_555
Mg4 Si11 2.794174 1_555
Mg4 Si8 2.816288 1_655
Mg4 Si11 2.818869 1_455
Mg4 Si8 2.842024 1_555
Mg5 Si2 2.698526 1_555
Mg5 Si7 2.885655 1_555
Mg5 Si9 2.893376 1_555
Mg5 Si5 2.899712 1_655
Mg5 Si9 2.908124 1_655
Mg5 Si5 2.908933 1_555
Mg5 Si10 3.034061 1_655
Mg5 Si10 3.062710 1_555
Mg6 Si8 2.801771 1_555
Mg6 Si8 2.891922 1_655
Mg6 Si6 2.908534 1_565
Mg6 Si7 3.007436 1_455
Mg6 Si6 3.015290 1_465
Mg6 Si7 3.168633 1_555
Mg7 Si7 2.649208 1_455
Mg7 Si6 2.689762 1_555
Mg7 Si6 2.727225 1_455
Mg7 Si9 2.909522 1_545
Mg7 Si5 2.924667 1_455
Mg7 Si5 3.098221 1_555
Si0 Si1 2.439269 1_556
Si0 Si2 2.482287 1_455
Si0 Si2 2.486469 1_555
Si1 Si3 2.367275 1_455
Si1 Si3 2.369259 1_555
Si4 Si6 2.335685 1_555
Si4 Si8 2.401066 1_655
Si4 Si8 2.401862 1_555
Si5 Si9 2.502678 1_545
Si5 Si9 2.531300 1_645
Si6 Si7 2.348486 1_545
Si7 Si9 2.496799 1_655
Si7 Si9 2.543552 1_555
Si10 Si5 2.454993 1_555
Si10 Si2 2.555311 1_455
Si10 Si2 2.567807 1_555
Si11 Si3 2.385993 1_565
