# generated using pymatgen
data_Mg(Ni2O3)2
_symmetry_space_group_name_H-M   'P 1'
_cell_length_a   5.08250772
_cell_length_b   5.08250772
_cell_length_c   14.77806000
_cell_angle_alpha   90.00000000
_cell_angle_beta   90.00000000
_cell_angle_gamma   146.54988340
_symmetry_Int_Tables_number   1
_chemical_formula_structural   Mg(Ni2O3)2
_chemical_formula_sum   'Mg2 Ni8 O12'
_cell_volume   210.42203373
_cell_formula_units_Z   2
loop_
 _symmetry_equiv_pos_site_id
 _symmetry_equiv_pos_as_xyz
  1  'x, y, z'
loop_
 _atom_site_type_symbol
 _atom_site_label
 _atom_site_symmetry_multiplicity
 _atom_site_fract_x
 _atom_site_fract_y
 _atom_site_fract_z
 _atom_site_occupancy
  Mg  Mg0  1  0.34340000  0.65660000  0.75000000  1
  Mg  Mg1  1  0.65660000  0.34340000  0.25000000  1
  Ni  Ni0  1  0.13666200  0.86333800  0.04436500  1
  Ni  Ni1  1  0.59419500  0.40580500  0.63570500  1
  Ni  Ni2  1  0.86333800  0.13666200  0.95563500  1
  Ni  Ni3  1  0.40580500  0.59419500  0.36429500  1
  Ni  Ni4  1  0.13666200  0.86333800  0.45563500  1
  Ni  Ni5  1  0.86333800  0.13666200  0.54436500  1
  Ni  Ni6  1  0.40580500  0.59419500  0.13570500  1
  Ni  Ni7  1  0.59419500  0.40580500  0.86429500  1
  O  O0  1  0.50000000  0.50000000  0.50000000  1
  O  O1  1  0.50000000  0.50000000  0.00000000  1
  O  O2  1  0.95247400  0.04752600  0.83857600  1
  O  O3  1  0.04752600  0.95247400  0.16142400  1
  O  O4  1  0.04752600  0.95247400  0.33857600  1
  O  O5  1  0.95247400  0.04752600  0.66142400  1
  O  O6  1  0.22291800  0.77708200  0.92254000  1
  O  O7  1  0.77708200  0.22291800  0.07746000  1
  O  O8  1  0.77708200  0.22291800  0.42254000  1
  O  O9  1  0.22291800  0.77708200  0.57746000  1
  O  O10  1  0.69530800  0.30469200  0.75000000  1
  O  O11  1  0.30469200  0.69530800  0.25000000  1
loop_
_geom_bond_atom_site_label_1
_geom_bond_atom_site_label_2
_geom_bond_distance
_geom_bond_site_symmetry_2
Mg0 O10 2.053716 1_455
Mg0 O10 2.053716 1_565
Mg0 O5 2.231646 1_455
Mg0 O2 2.231646 1_565
Mg0 O5 2.231646 1_565
Mg0 O2 2.231646 1_455
Mg1 O11 2.053716 1_655
Mg1 O11 2.053716 1_545
Mg1 O4 2.231646 1_655
Mg1 O4 2.231646 1_545
Mg1 O3 2.231646 1_655
Mg1 O3 2.231646 1_545
Ni0 O3 1.935340 1_555
Ni0 O6 1.986533 1_554
Ni0 O7 2.060868 1_565
Ni0 O7 2.060868 1_455
Ni0 O1 2.083061 1_565
Ni0 O1 2.083061 1_455
Ni1 O10 1.954951 1_555
Ni1 O5 2.046270 1_455
Ni1 O5 2.046270 1_565
Ni1 O9 2.109624 1_655
Ni1 O9 2.109624 1_545
Ni1 O0 2.205159 1_555
Ni2 O2 1.935340 1_555
Ni2 O7 1.986533 1_556
Ni2 O6 2.060868 1_655
Ni2 O6 2.060868 1_545
Ni2 O1 2.083061 1_656
Ni2 O1 2.083061 1_546
Ni3 O11 1.954951 1_555
Ni3 O4 2.046270 1_655
Ni3 O4 2.046270 1_545
Ni3 O8 2.109624 1_455
Ni3 O8 2.109624 1_565
Ni3 O0 2.205159 1_555
Ni4 O4 1.935340 1_555
Ni4 O9 1.986533 1_555
Ni4 O8 2.060868 1_565
Ni4 O8 2.060868 1_455
Ni4 O0 2.083061 1_565
Ni4 O0 2.083061 1_455
Ni5 O5 1.935340 1_555
Ni5 O8 1.986533 1_555
Ni5 O9 2.060868 1_655
Ni5 O9 2.060868 1_545
Ni5 O0 2.083061 1_655
Ni5 O0 2.083061 1_545
Ni6 O11 1.954951 1_555
Ni6 O3 2.046270 1_545
Ni6 O3 2.046270 1_655
Ni6 O7 2.109624 1_455
Ni6 O7 2.109624 1_565
Ni6 O1 2.205159 1_555
Ni7 O10 1.954951 1_555
Ni7 O2 2.046270 1_455
Ni7 O2 2.046270 1_565
Ni7 O6 2.109624 1_545
Ni7 O6 2.109624 1_655
Ni7 O1 2.205159 1_556
