# generated using pymatgen
data_VP3(Pb3O8)2
_symmetry_space_group_name_H-M   'P 1'
_cell_length_a   5.93910600
_cell_length_b   7.60767699
_cell_length_c   9.67107905
_cell_angle_alpha   100.86811764
_cell_angle_beta   90.34060429
_cell_angle_gamma   112.67851881
_symmetry_Int_Tables_number   1
_chemical_formula_structural   VP3(Pb3O8)2
_chemical_formula_sum   'V1 P3 Pb6 O16'
_cell_volume   394.45582016
_cell_formula_units_Z   1
loop_
 _symmetry_equiv_pos_site_id
 _symmetry_equiv_pos_as_xyz
  1  'x, y, z'
loop_
 _atom_site_type_symbol
 _atom_site_label
 _atom_site_symmetry_multiplicity
 _atom_site_fract_x
 _atom_site_fract_y
 _atom_site_fract_z
 _atom_site_occupancy
  V  V0  1  0.64396600  0.79471700  0.05308200  1
  P  P0  1  0.84953700  0.20009900  0.44420700  1
  P  P1  1  0.35108000  0.20026600  0.94492100  1
  P  P2  1  0.15240600  0.80049200  0.55556400  1
  Pb  Pb0  1  0.01032400  0.37191300  0.15525400  1
  Pb  Pb1  1  0.65012900  0.64100300  0.35289900  1
  Pb  Pb2  1  0.99725700  0.64134500  0.84265600  1
  Pb  Pb3  1  0.35387100  0.35724500  0.65256000  1
  Pb  Pb4  1  0.29483800  0.00208900  0.25371800  1
  Pb  Pb5  1  0.70268900  0.00142300  0.74686200  1
  O  O0  1  0.63828200  0.70866900  0.86962700  1
  O  O1  1  0.91962400  0.27764700  0.60821300  1
  O  O2  1  0.35830000  0.27937200  0.10767700  1
  O  O3  1  0.08052500  0.72240200  0.39314000  1
  O  O4  1  0.85143600  0.72911200  0.13904700  1
  O  O5  1  0.09531100  0.26170200  0.37027400  1
  O  O6  1  0.16711000  0.26226500  0.86801200  1
  O  O7  1  0.90649100  0.73840300  0.62944200  1
  O  O8  1  0.74226300  0.04383900  0.08428200  1
  O  O9  1  0.71357800  0.97554700  0.41642600  1
  O  O10  1  0.26209200  0.97484500  0.91814300  1
  O  O11  1  0.28815500  0.02468900  0.58295500  1
  O  O12  1  0.36284600  0.70249900  0.12235700  1
  O  O13  1  0.68079500  0.28910500  0.38802900  1
  O  O14  1  0.60612400  0.28706400  0.88705500  1
  O  O15  1  0.32097000  0.71224900  0.61359900  1
loop_
_geom_bond_atom_site_label_1
_geom_bond_atom_site_label_2
_geom_bond_distance
_geom_bond_site_symmetry_2
O0 V0 1.766850 1_556
O0 Pb2 2.382019 1_555
O0 Pb5 2.619513 1_565
O1 P0 1.577022 1_555
O1 Pb3 2.426251 1_655
O1 Pb5 2.620926 1_555
O2 P1 1.569605 1_554
O2 Pb0 2.447362 1_555
O2 Pb4 2.665241 1_555
O3 P2 1.564352 1_555
O3 Pb1 2.396997 1_455
O3 Pb4 2.641866 1_565
O4 V0 1.754164 1_555
O4 Pb1 2.467851 1_555
O4 Pb4 2.712404 1_665
O5 P0 1.572514 1_455
O5 Pb0 2.500666 1_555
O5 Pb4 2.748969 1_555
O6 P1 1.577829 1_555
O6 Pb3 2.463989 1_555
O6 Pb5 2.789740 1_455
O7 P2 1.573021 1_655
O7 Pb2 2.440403 1_555
O7 Pb5 2.790271 1_565
O8 V0 1.718389 1_545
O8 Pb0 2.347775 1_655
O9 P0 1.550224 1_565
O9 Pb1 2.380135 1_555
O10 P1 1.555429 1_565
O10 Pb2 2.377962 1_455
O11 P2 1.547905 1_545
O11 Pb3 2.366322 1_555
O12 V0 1.736640 1_555
O12 Pb4 2.568237 1_565
O12 Pb0 2.656900 1_555
O13 P0 1.553569 1_555
O13 Pb4 2.597083 1_555
O14 P1 1.556205 1_555
O14 Pb5 2.597807 1_555
O15 P2 1.556145 1_555
O15 Pb5 2.586606 1_565
