# generated using pymatgen
data_HoCuPb
_symmetry_space_group_name_H-M   'P 1'
_cell_length_a   4.58734362
_cell_length_b   4.58734362
_cell_length_c   7.46865200
_cell_angle_alpha   90.00000000
_cell_angle_beta   90.00000000
_cell_angle_gamma   119.99999451
_symmetry_Int_Tables_number   1
_chemical_formula_structural   HoCuPb
_chemical_formula_sum   'Ho2 Cu2 Pb2'
_cell_volume   136.11168956
_cell_formula_units_Z   2
loop_
 _symmetry_equiv_pos_site_id
 _symmetry_equiv_pos_as_xyz
  1  'x, y, z'
loop_
 _atom_site_type_symbol
 _atom_site_label
 _atom_site_symmetry_multiplicity
 _atom_site_fract_x
 _atom_site_fract_y
 _atom_site_fract_z
 _atom_site_occupancy
  Ho  Ho0  1  0.00000000  0.00000000  0.50000000  1
  Ho  Ho1  1  0.00000000  0.00000000  0.00000000  1
  Cu  Cu0  1  0.33333300  0.66666700  0.75000000  1
  Cu  Cu1  1  0.66666700  0.33333300  0.25000000  1
  Pb  Pb0  1  0.33333300  0.66666700  0.25000000  1
  Pb  Pb1  1  0.66666700  0.33333300  0.75000000  1
loop_
_geom_bond_atom_site_label_1
_geom_bond_atom_site_label_2
_geom_bond_distance
_geom_bond_site_symmetry_2
Ho0 Pb0 3.240503 1_545
Ho0 Pb1 3.240503 1_455
Ho0 Pb0 3.240506 1_445
Ho0 Pb1 3.240506 1_555
Ho0 Pb0 3.240506 1_555
Ho0 Pb1 3.240506 1_445
Ho1 Pb0 3.240503 1_545
Ho1 Pb1 3.240503 1_454
Ho1 Pb0 3.240506 1_445
Ho1 Pb0 3.240506 1_555
Ho1 Pb1 3.240506 1_554
Ho1 Pb1 3.240506 1_444
Cu0 Pb1 2.648502 1_455
Cu0 Pb1 2.648502 1_565
Cu0 Pb1 2.648509 1_555
Cu0 Ho0 3.240503 1_565
Cu0 Ho1 3.240503 1_566
Cu0 Ho1 3.240506 1_556
Cu0 Ho0 3.240506 1_665
Cu0 Ho0 3.240506 1_555
Cu0 Ho1 3.240506 1_666
Cu1 Pb0 2.648502 1_545
Cu1 Pb0 2.648502 1_655
Cu1 Pb0 2.648509 1_555
Cu1 Ho1 3.240503 1_655
Cu1 Ho0 3.240503 1_655
Cu1 Ho1 3.240506 1_555
Cu1 Ho0 3.240506 1_665
Cu1 Ho0 3.240506 1_555
Cu1 Ho1 3.240506 1_665
