# generated using pymatgen
data_Li3Mn4(P2O7)4
_symmetry_space_group_name_H-M   'P 1'
_cell_length_a   9.80618400
_cell_length_b   9.81017178
_cell_length_c   11.06461236
_cell_angle_alpha   101.29330437
_cell_angle_beta   89.81644481
_cell_angle_gamma   91.12642011
_symmetry_Int_Tables_number   1
_chemical_formula_structural   Li3Mn4(P2O7)4
_chemical_formula_sum   'Li6 Mn8 P16 O56'
_cell_volume   1043.60786670
_cell_formula_units_Z   2
loop_
 _symmetry_equiv_pos_site_id
 _symmetry_equiv_pos_as_xyz
  1  'x, y, z'
loop_
 _atom_site_type_symbol
 _atom_site_label
 _atom_site_symmetry_multiplicity
 _atom_site_fract_x
 _atom_site_fract_y
 _atom_site_fract_z
 _atom_site_occupancy
  Li  Li0  1  0.89770300  0.09053200  0.02363500  1
  Li  Li1  1  0.39183900  0.40948200  0.97202400  1
  Li  Li2  1  0.60810900  0.58683200  0.02628000  1
  Li  Li3  1  0.10387500  0.90709500  0.97745800  1
  Li  Li4  1  0.42088800  0.84326900  0.46625300  1
  Li  Li5  1  0.71809000  0.89062000  0.54759500  1
  Mn  Mn0  1  0.08049600  0.19570100  0.65797100  1
  Mn  Mn1  1  0.78583800  0.26719300  0.82946200  1
  Mn  Mn2  1  0.28899600  0.22664300  0.17016900  1
  Mn  Mn3  1  0.57660500  0.30522900  0.34153900  1
  Mn  Mn4  1  0.42269700  0.69500100  0.66951900  1
  Mn  Mn5  1  0.70910900  0.76591200  0.82821400  1
  Mn  Mn6  1  0.21664700  0.73141500  0.17303800  1
  Mn  Mn7  1  0.92354100  0.80731600  0.33597700  1
  P  P0  1  0.55814900  0.02397000  0.75310700  1
  P  P1  1  0.28903500  0.11784900  0.87811700  1
  P  P2  1  0.07017500  0.06305200  0.24521000  1
  P  P3  1  0.85118400  0.13693500  0.43548800  1
  P  P4  1  0.35466600  0.37173000  0.57176900  1
  P  P5  1  0.57607000  0.43441200  0.75794700  1
  P  P6  1  0.93830500  0.53121000  0.75749700  1
  P  P7  1  0.78941700  0.37927500  0.12188900  1
  P  P8  1  0.20845200  0.61612300  0.88237200  1
  P  P9  1  0.06304300  0.46773800  0.24347100  1
  P  P10  1  0.43146000  0.56189700  0.24177900  1
  P  P11  1  0.64801700  0.62997000  0.42913600  1
  P  P12  1  0.14279400  0.86985400  0.56335200  1
  P  P13  1  0.93196100  0.93896600  0.75578200  1
  P  P14  1  0.71065700  0.88156500  0.11939500  1
  P  P15  1  0.43809400  0.97112700  0.24054500  1
  O  O0  1  0.58028300  0.01333800  0.61822300  1
  O  O1  1  0.14812000  0.02104900  0.54906400  1
  O  O2  1  0.92709900  0.08927600  0.72883000  1
  O  O3  1  0.66326100  0.11099300  0.84158900  1
  O  O4  1  0.41497400  0.09685700  0.78306900  1
  O  O5  1  0.18151700  0.18668000  0.80948500  1
  O  O6  1  0.34061900  0.22418800  0.99406300  1
  O  O7  1  0.74699300  0.01825300  0.08821500  1
  O  O8  1  0.93538600  0.13116300  0.30757100  1
  O  O9  1  0.06310600  0.06436100  0.10900000  1
  O  O10  1  0.44764800  0.11803700  0.20333400  1
  O  O11  1  0.71389200  0.19474300  0.41205500  1
  O  O12  1  0.19270800  0.15610700  0.30057300  1
  O  O13  1  0.93631100  0.22692800  0.53937500  1
  O  O14  1  0.43219800  0.28523000  0.46375600  1
  O  O15  1  0.69211800  0.33687200  0.70138200  1
  O  O16  1  0.21211500  0.31653500  0.59395500  1
  O  O17  1  0.94442400  0.38636100  0.79759600  1
  O  O18  1  0.43755300  0.36589500  0.69669900  1
  O  O19  1  0.56655500  0.43079500  0.89386300  1
  O  O20  1  0.23826600  0.47775600  0.91074700  1
  O  O21  1  0.83922800  0.27387200  0.00606200  1
  O  O22  1  0.67658000  0.31186000  0.18963900  1
  O  O23  1  0.91472300  0.39876800  0.21911900  1
  O  O24  1  0.42166600  0.41314800  0.26994600  1
  O  O25  1  0.16212800  0.37381900  0.15769200  1
  O  O26  1  0.90751500  0.52357400  0.62297100  1
  O  O27  1  0.65822000  0.48275400  0.44630100  1
  O  O28  1  0.34987100  0.52646200  0.56409900  1
  O  O29  1  0.09532100  0.47663800  0.37906800  1
  O  O30  1  0.84179400  0.62701100  0.84567000  1
  O  O31  1  0.58861300  0.58357700  0.73167900  1
  O  O32  1  0.08701200  0.60093800  0.78292100  1
  O  O33  1  0.32442700  0.68678100  0.81933700  1
  O  O34  1  0.15753400  0.72179900  0.99762700  1
  O  O35  1  0.75815000  0.51714000  0.09239800  1
  O  O36  1  0.43338300  0.56442600  0.10578200  1
  O  O37  1  0.57271500  0.63009000  0.29882700  1
  O  O38  1  0.05838100  0.61374900  0.20611200  1
  O  O39  1  0.78261700  0.70776800  0.41831700  1
  O  O40  1  0.32029400  0.66422200  0.30313200  1
  O  O41  1  0.55861100  0.72436200  0.52830200  1
  O  O42  1  0.05909000  0.77792500  0.45910700  1
  O  O43  1  0.80692300  0.84890500  0.69851000  1
  O  O44  1  0.28243000  0.81209600  0.58182000  1
  O  O45  1  0.54676500  0.87313200  0.78928200  1
  O  O46  1  0.93806000  0.93447700  0.89077400  1
  O  O47  1  0.06400100  0.86569700  0.69196200  1
  O  O48  1  0.25067900  0.98078600  0.90766800  1
  O  O49  1  0.65938700  0.77277700  0.00426500  1
  O  O50  1  0.81989400  0.81385100  0.18785300  1
  O  O51  1  0.58442000  0.90055300  0.21404200  1
  O  O52  1  0.33743000  0.88009900  0.14862900  1
  O  O53  1  0.07694600  0.91140900  0.27020600  1
  O  O54  1  0.83980500  0.98488400  0.45022700  1
  O  O55  1  0.41077400  0.97480100  0.37300300  1
loop_
_geom_bond_atom_site_label_1
_geom_bond_atom_site_label_2
_geom_bond_distance
_geom_bond_site_symmetry_2
Li0 O7 1.829754 1_555
Li0 O9 1.926140 1_655
Li0 O21 1.944170 1_555
Li0 O46 1.949372 1_544
Li1 O20 1.843987 1_555
Li1 O6 1.937252 1_555
Li1 O36 1.940417 1_556
Li1 O19 1.942746 1_555
Li2 O35 1.846560 1_555
Li2 O19 1.938240 1_554
Li2 O49 1.943425 1_555
Li2 O36 1.951693 1_555
Li3 O48 1.833554 1_555
Li3 O46 1.940121 1_455
Li3 O9 1.949229 1_566
Li3 O34 1.956595 1_555
Li4 O55 1.807355 1_555
Li4 O44 1.922962 1_555
Li4 O41 2.009369 1_555
Li4 O40 2.453056 1_555
Li4 O0 2.621005 1_565
Li5 O0 1.890749 1_565
Li5 O54 1.943956 1_555
Li5 O43 2.001392 1_555
Li5 O39 2.167506 1_555
Li5 O41 2.217431 1_555
Mn0 O16 1.958464 1_555
Mn0 O5 1.967699 1_555
Mn0 O13 2.000313 1_455
Mn0 O1 2.014532 1_555
Mn0 O2 2.053964 1_455
Mn0 O17 2.572700 1_455
Mn1 O15 1.932012 1_555
Mn1 O3 1.953973 1_555
Mn1 O17 1.998968 1_555
Mn1 O21 2.012863 1_556
Mn1 O2 2.351397 1_555
Mn1 O19 2.717633 1_555
Mn2 O25 1.949675 1_555
Mn2 O12 1.951633 1_555
Mn2 O10 1.977931 1_555
Mn2 O6 2.007349 1_554
Mn2 O24 2.320229 1_555
Mn2 O9 2.710770 1_555
Mn3 O22 1.954462 1_555
Mn3 O14 1.988258 1_555
Mn3 O11 1.997828 1_555
Mn3 O27 2.043929 1_555
Mn3 O24 2.110979 1_555
Mn3 O10 2.476106 1_555
Mn4 O33 1.929273 1_555
Mn4 O28 1.951371 1_555
Mn4 O41 2.109168 1_555
Mn4 O44 2.158786 1_555
Mn4 O31 2.164847 1_555
Mn4 O45 2.304277 1_555
Mn5 O30 1.939445 1_555
Mn5 O49 1.995132 1_556
Mn5 O43 2.015095 1_555
Mn5 O45 2.018420 1_555
Mn5 O31 2.216605 1_555
Mn6 O52 1.920330 1_555
Mn6 O40 1.986673 1_555
Mn6 O38 1.991586 1_555
Mn6 O34 2.011265 1_554
Mn6 O53 2.343649 1_555
Mn6 O36 2.721004 1_555
Mn7 O50 1.943614 1_555
Mn7 O42 1.971440 1_655
Mn7 O39 1.995197 1_555
Mn7 O53 2.014696 1_655
Mn7 O54 2.119874 1_555
Mn7 O38 2.537098 1_655
O0 P0 1.491044 1_555
O1 P12 1.522002 1_545
O2 P13 1.562253 1_545
O3 P0 1.547339 1_555
O4 P0 1.592495 1_555
O4 P1 1.609487 1_555
O5 P1 1.542145 1_555
O6 P1 1.564997 1_555
O7 P14 1.485160 1_545
O8 P2 1.586801 1_655
O8 P3 1.628241 1_555
O9 P2 1.511502 1_555
O10 P15 1.575512 1_545
O11 P3 1.513681 1_555
O12 P2 1.547568 1_555
O13 P3 1.541834 1_555
O14 P4 1.532575 1_555
O15 P5 1.551143 1_555
O16 P4 1.525656 1_555
O17 P6 1.571664 1_555
O18 P5 1.596150 1_555
O18 P4 1.617005 1_555
O19 P5 1.513745 1_555
O20 P8 1.486505 1_555
O21 P7 1.564309 1_555
O22 P7 1.543943 1_555
O23 P9 1.593188 1_655
O23 P7 1.619408 1_555
O24 P10 1.551836 1_555
O25 P9 1.542921 1_555
O26 P6 1.506871 1_555
O27 P11 1.498355 1_555
O28 P4 1.538462 1_555
O29 P9 1.519686 1_555
O30 P6 1.549416 1_555
O31 P5 1.549266 1_555
O32 P6 1.600494 1_455
O32 P8 1.608856 1_555
O33 P8 1.553574 1_555
O34 P8 1.564864 1_555
O35 P7 1.489792 1_555
O36 P10 1.509860 1_555
O37 P10 1.602640 1_555
O37 P11 1.622231 1_555
O38 P9 1.568218 1_555
O39 P11 1.527794 1_555
O40 P10 1.558279 1_555
O41 P11 1.567759 1_555
O42 P12 1.544994 1_555
O43 P13 1.558428 1_555
O44 P12 1.521653 1_555
O45 P0 1.608576 1_565
O46 P13 1.504293 1_555
O47 P13 1.588633 1_455
O47 P12 1.624221 1_555
O48 P1 1.485894 1_565
O49 P14 1.570041 1_555
O50 P14 1.546848 1_555
O51 P15 1.606585 1_555
O51 P14 1.608774 1_555
O52 P15 1.556362 1_555
O53 P2 1.568162 1_565
O54 P3 1.533842 1_565
O55 P15 1.482639 1_555
