# generated using pymatgen
data_BaGdCo2O5
_symmetry_space_group_name_H-M   'P 1'
_cell_length_a   3.84485800
_cell_length_b   4.02327500
_cell_length_c   7.65935600
_cell_angle_alpha   90.00000000
_cell_angle_beta   90.00000000
_cell_angle_gamma   90.00000000
_symmetry_Int_Tables_number   1
_chemical_formula_structural   BaGdCo2O5
_chemical_formula_sum   'Ba1 Gd1 Co2 O5'
_cell_volume   118.48197341
_cell_formula_units_Z   1
loop_
 _symmetry_equiv_pos_site_id
 _symmetry_equiv_pos_as_xyz
  1  'x, y, z'
loop_
 _atom_site_type_symbol
 _atom_site_label
 _atom_site_symmetry_multiplicity
 _atom_site_fract_x
 _atom_site_fract_y
 _atom_site_fract_z
 _atom_site_occupancy
  Ba  Ba0  1  0.50000000  0.50000000  0.00000000  1
  Gd  Gd0  1  0.50000000  0.50000000  0.50000000  1
  Co  Co0  1  0.00000000  0.00000000  0.25638300  1
  Co  Co1  1  0.00000000  0.00000000  0.74361700  1
  O  O0  1  0.00000000  0.00000000  0.00000000  1
  O  O1  1  0.00000000  0.50000000  0.30757100  1
  O  O2  1  0.00000000  0.50000000  0.69242900  1
  O  O3  1  0.50000000  0.00000000  0.31505400  1
  O  O4  1  0.50000000  0.00000000  0.68494600  1
loop_
_geom_bond_atom_site_label_1
_geom_bond_atom_site_label_2
_geom_bond_distance
_geom_bond_site_symmetry_2
Ba0 O0 2.782520 1_655
Ba0 O0 2.782520 1_665
Ba0 O0 2.782520 1_565
Ba0 O0 2.782520 1_555
Ba0 O1 3.040643 1_555
Ba0 O1 3.040643 1_655
Ba0 O2 3.040643 1_654
Ba0 O2 3.040643 1_554
Ba0 O3 3.141622 1_555
Ba0 O3 3.141622 1_565
Ba0 O4 3.141622 1_564
Ba0 O4 3.141622 1_554
Gd0 O2 2.422408 1_555
Gd0 O1 2.422408 1_555
Gd0 O1 2.422408 1_655
Gd0 O2 2.422408 1_655
Gd0 O4 2.460355 1_565
Gd0 O4 2.460355 1_555
Gd0 O3 2.460355 1_555
Gd0 O3 2.460355 1_565
Co0 O0 1.963729 1_555
Co0 O3 1.974254 1_455
Co0 O3 1.974254 1_555
Co0 O1 2.049488 1_545
Co0 O1 2.049488 1_555
Co1 O0 1.963729 1_556
Co1 O4 1.974254 1_555
Co1 O4 1.974254 1_455
Co1 O2 2.049488 1_555
Co1 O2 2.049488 1_545
