# generated using pymatgen
data_Ca3Fe2(MoO6)2
_symmetry_space_group_name_H-M   'P 1'
_cell_length_a   5.34875564
_cell_length_b   5.46288895
_cell_length_c   7.68144052
_cell_angle_alpha   89.63418868
_cell_angle_beta   89.77593564
_cell_angle_gamma   90.05528850
_symmetry_Int_Tables_number   1
_chemical_formula_structural   Ca3Fe2(MoO6)2
_chemical_formula_sum   'Ca3 Fe2 Mo2 O12'
_cell_volume   224.44266432
_cell_formula_units_Z   1
loop_
 _symmetry_equiv_pos_site_id
 _symmetry_equiv_pos_as_xyz
  1  'x, y, z'
loop_
 _atom_site_type_symbol
 _atom_site_label
 _atom_site_symmetry_multiplicity
 _atom_site_fract_x
 _atom_site_fract_y
 _atom_site_fract_z
 _atom_site_occupancy
  Ca  Ca0  1  0.99117487  0.95289738  0.75320320  1
  Ca  Ca1  1  0.00690097  0.04380623  0.25095444  1
  Ca  Ca2  1  0.48477906  0.55661567  0.25055937  1
  Fe  Fe0  1  0.49250377  0.01793147  0.49327773  1
  Fe  Fe1  1  0.98906798  0.51225625  0.00827431  1
  Mo  Mo0  1  0.50123817  0.01864823  0.98653481  1
  Mo  Mo1  1  0.99115940  0.49741194  0.51778617  1
  O  O0  1  0.72172232  0.70006093  0.53294250  1
  O  O1  1  0.79919507  0.19651031  0.96771550  1
  O  O2  1  0.27997396  0.29161186  0.44577715  1
  O  O3  1  0.21487335  0.79815741  0.03752952  1
  O  O4  1  0.20371715  0.77968842  0.46142453  1
  O  O5  1  0.29895736  0.27959952  0.05043266  1
  O  O6  1  0.81484495  0.19454917  0.53184822  1
  O  O7  1  0.70886504  0.72848824  0.96462662  1
  O  O8  1  0.07010460  0.50644127  0.74567621  1
  O  O9  1  0.42443928  0.02243601  0.75472233  1
  O  O10  1  0.57472684  0.98016188  0.24643286  1
  O  O11  1  0.91599589  0.48112480  0.25295186  1
loop_
_geom_bond_atom_site_label_1
_geom_bond_atom_site_label_2
_geom_bond_distance
_geom_bond_site_symmetry_2
Ca0 O6 2.347258 1_565
Ca0 O9 2.348079 1_665
Ca0 O1 2.357555 1_565
Ca0 O8 2.476611 1_655
Ca0 O7 2.524346 1_555
Ca0 O0 2.625373 1_555
Ca0 O3 2.629646 1_656
Ca0 O4 2.687061 1_655
Ca1 O10 2.337688 1_445
Ca1 O3 2.396379 1_545
Ca1 O4 2.406293 1_545
Ca1 O11 2.438593 1_455
Ca1 O2 2.498934 1_555
Ca1 O6 2.529016 1_455
Ca1 O5 2.534558 1_555
Ca1 O1 2.580942 1_454
Ca2 O11 2.343566 1_555
Ca2 O2 2.345388 1_555
Ca2 O10 2.362810 1_555
Ca2 O5 2.383253 1_555
Ca2 O4 2.525534 1_555
Ca2 O3 2.549036 1_555
Ca2 O0 2.639427 1_555
Ca2 O7 2.663295 1_554
Fe0 O2 1.913170 1_555
Fe0 O10 1.957019 1_545
Fe0 O6 1.998935 1_555
Fe0 O4 2.035397 1_545
Fe0 O9 2.039909 1_555
Fe0 O0 2.147479 1_545
Fe1 O11 1.924619 1_555
Fe1 O7 1.938109 1_554
Fe1 O3 1.987852 1_655
Fe1 O1 2.027229 1_554
Fe1 O8 2.061968 1_654
Fe1 O5 2.114390 1_655
Mo0 O9 1.828978 1_555
Mo0 O5 1.857814 1_556
Mo0 O1 1.870368 1_555
Mo0 O7 1.944107 1_545
Mo0 O3 1.983964 1_546
Mo0 O10 2.045783 1_546
Mo1 O8 1.803306 1_655
Mo1 O0 1.821935 1_555
Mo1 O6 1.905868 1_555
Mo1 O4 1.960145 1_655
Mo1 O2 1.990210 1_655
Mo1 O11 2.077642 1_555
