# generated using pymatgen
data_HoAgS2
_symmetry_space_group_name_H-M   'P 1'
_cell_length_a   7.59829866
_cell_length_b   7.59603242
_cell_length_c   12.38076158
_cell_angle_alpha   89.97946133
_cell_angle_beta   90.00000000
_cell_angle_gamma   90.00000000
_symmetry_Int_Tables_number   1
_chemical_formula_structural   HoAgS2
_chemical_formula_sum   'Ho8 Ag8 S16'
_cell_volume   714.57941629
_cell_formula_units_Z   8
loop_
 _symmetry_equiv_pos_site_id
 _symmetry_equiv_pos_as_xyz
  1  'x, y, z'
loop_
 _atom_site_type_symbol
 _atom_site_label
 _atom_site_symmetry_multiplicity
 _atom_site_fract_x
 _atom_site_fract_y
 _atom_site_fract_z
 _atom_site_occupancy
  Ho  Ho0  1  0.49884475  0.25145620  0.00333190  1
  Ho  Ho1  1  -0.00115525  0.74854380  0.99666810  1
  Ho  Ho2  1  0.74795165  -0.00006239  0.75334502  1
  Ho  Ho3  1  0.24795165  0.00006239  0.24665498  1
  Ho  Ho4  1  0.25001575  0.49908312  0.74670549  1
  Ho  Ho5  1  0.75001575  0.50091688  0.25329451  1
  Ho  Ho6  1  -0.00098387  0.24924578  0.50347236  1
  Ho  Ho7  1  0.49901613  0.75075422  0.49652764  1
  Ag  Ag0  1  0.75471599  0.49704800  0.81134409  1
  Ag  Ag1  1  0.25471599  0.50295200  0.18865591  1
  Ag  Ag2  1  0.22868072  0.98641159  0.69025696  1
  Ag  Ag3  1  0.72868072  0.01358841  0.30974304  1
  Ag  Ag4  1  0.98272046  0.23026770  0.05992832  1
  Ag  Ag5  1  0.48272046  0.76973230  0.94007168  1
  Ag  Ag6  1  0.50120269  0.25836713  0.56099342  1
  Ag  Ag7  1  0.00120269  0.74163287  0.43900658  1
  S  S0  1  0.22532717  0.97685917  0.46730508  1
  S  S1  1  0.72532717  0.02314083  0.53269492  1
  S  S2  1  0.76791692  0.51928314  0.47416016  1
  S  S3  1  0.26791692  0.48071686  0.52583984  1
  S  S4  1  0.47848407  0.27033619  0.22458832  1
  S  S5  1  0.97848407  0.72966381  0.77541168  1
  S  S6  1  0.52071085  0.27189460  0.78293386  1
  S  S7  1  0.02071085  0.72810540  0.21706614  1
  S  S8  1  0.01732017  0.23073591  0.72426404  1
  S  S9  1  0.51732017  0.76926409  0.27573596  1
  S  S10  1  0.47515219  0.77324123  0.71741967  1
  S  S11  1  0.97515219  0.22675877  0.28258033  1
  S  S12  1  0.72875744  0.98012947  0.97456568  1
  S  S13  1  0.22875744  0.01987053  0.02543432  1
  S  S14  1  0.27078205  0.52220577  0.96731137  1
  S  S15  1  0.77078205  0.47779423  0.03268863  1
loop_
_geom_bond_atom_site_label_1
_geom_bond_atom_site_label_2
_geom_bond_distance
_geom_bond_site_symmetry_2
Ho0 S15 2.712541 1_555
Ho0 S13 2.716730 1_555
Ho0 S12 2.725240 1_544
Ho0 S14 2.725954 1_554
Ho0 S6 2.738098 1_554
Ho0 S4 2.747485 1_555
Ho1 S14 2.712541 1_555
Ho1 S12 2.716730 1_455
Ho1 S13 2.725240 1_566
Ho1 S15 2.725954 1_456
Ho1 S7 2.738098 1_556
Ho1 S5 2.747485 1_455
Ho2 S5 2.712448 1_545
Ho2 S6 2.717268 1_555
Ho2 S8 2.718800 1_655
Ho2 S10 2.731335 1_545
Ho2 S1 2.742826 1_555
Ho2 S12 2.746831 1_545
Ho3 S4 2.712448 1_555
Ho3 S7 2.717268 1_545
Ho3 S9 2.718800 1_545
Ho3 S11 2.731335 1_455
Ho3 S0 2.742826 1_545
Ho3 S13 2.746831 1_555
Ho4 S8 2.712695 1_555
Ho4 S10 2.719214 1_555
Ho4 S6 2.722002 1_555
Ho4 S5 2.729691 1_455
Ho4 S3 2.741468 1_555
Ho4 S14 2.741518 1_555
Ho5 S9 2.712695 1_555
Ho5 S11 2.719214 1_555
Ho5 S7 2.722002 1_655
Ho5 S4 2.729691 1_555
Ho5 S2 2.741468 1_555
Ho5 S15 2.741518 1_555
Ho6 S3 2.709823 1_555
Ho6 S1 2.721190 1_455
Ho6 S2 2.724342 1_455
Ho6 S0 2.727475 1_545
Ho6 S8 2.740664 1_555
Ho6 S11 2.746195 1_455
Ho7 S2 2.709823 1_555
Ho7 S0 2.721190 1_555
Ho7 S3 2.724342 1_555
Ho7 S1 2.727475 1_565
Ho7 S9 2.740664 1_555
Ho7 S10 2.746195 1_555
Ag0 S5 2.492059 1_555
Ag0 S6 2.492110 1_555
Ag0 S15 2.746975 1_556
Ag0 S8 3.039324 1_655
Ag1 S4 2.492059 1_555
Ag1 S7 2.492110 1_555
Ag1 S14 2.746975 1_554
Ag1 S9 3.039324 1_555
Ag2 S8 2.490251 1_565
Ag2 S10 2.498383 1_555
Ag2 S0 2.761411 1_555
Ag2 S5 2.920210 1_455
Ag3 S9 2.490251 1_545
Ag3 S11 2.498383 1_555
Ag3 S1 2.761411 1_555
Ag3 S4 2.920210 1_555
Ag4 S13 2.496388 1_655
Ag4 S15 2.498360 1_555
Ag4 S11 2.757320 1_555
Ag4 S12 2.907283 1_544
Ag5 S12 2.496388 1_555
Ag5 S14 2.498360 1_555
Ag5 S10 2.757320 1_555
Ag5 S13 2.907283 1_566
Ag6 S3 2.486676 1_555
Ag6 S1 2.493169 1_555
Ag6 S6 2.753741 1_555
Ag6 S2 3.031380 1_555
Ag7 S2 2.486676 1_455
Ag7 S0 2.493169 1_555
Ag7 S7 2.753741 1_555
Ag7 S3 3.031380 1_555
