# generated using pymatgen
data_Mg5Si6
_symmetry_space_group_name_H-M   'P 1'
_cell_length_a   14.60107443
_cell_length_b   14.60107443
_cell_length_c   6.84813239
_cell_angle_alpha   83.15258548
_cell_angle_beta   83.15258548
_cell_angle_gamma   16.01289608
_symmetry_Int_Tables_number   1
_chemical_formula_structural   Mg5Si6
_chemical_formula_sum   'Mg10 Si12'
_cell_volume   399.80645778
_cell_formula_units_Z   2
loop_
 _symmetry_equiv_pos_site_id
 _symmetry_equiv_pos_as_xyz
  1  'x, y, z'
loop_
 _atom_site_type_symbol
 _atom_site_label
 _atom_site_symmetry_multiplicity
 _atom_site_fract_x
 _atom_site_fract_y
 _atom_site_fract_z
 _atom_site_occupancy
  Mg  Mg0  1  0.08306200  0.08306200  0.09606000  1
  Mg  Mg1  1  0.83217300  0.83217300  0.33679600  1
  Mg  Mg2  1  0.41724700  0.41724700  0.37702200  1
  Mg  Mg3  1  0.25214100  0.25214100  0.17783300  1
  Mg  Mg4  1  0.65970700  0.65970700  0.24433800  1
  Mg  Mg5  1  0.50605100  0.50605100  0.97977000  1
  Mg  Mg6  1  0.35880300  0.35880300  0.02796300  1
  Mg  Mg7  1  0.29706000  0.29706000  0.65608800  1
  Mg  Mg8  1  0.61941600  0.61941600  0.75840100  1
  Mg  Mg9  1  0.54090200  0.54090200  0.43354500  1
  Si  Si0  1  0.05089800  0.05089800  0.73547600  1
  Si  Si1  1  0.11020100  0.11020100  0.45693100  1
  Si  Si2  1  0.80296800  0.80296800  0.95702400  1
  Si  Si3  1  0.86940100  0.86940100  0.69182900  1
  Si  Si4  1  0.98909500  0.98909500  0.26666900  1
  Si  Si5  1  0.17718300  0.17718300  0.92851000  1
  Si  Si6  1  0.73657500  0.73657500  0.48995700  1
  Si  Si7  1  0.43137100  0.43137100  0.76105200  1
  Si  Si8  1  0.97360400  0.97360400  0.62906500  1
  Si  Si9  1  0.18660000  0.18660000  0.55954600  1
  Si  Si10  1  0.72694800  0.72694800  0.85601600  1
  Si  Si11  1  0.92436300  0.92436300  0.07648100  1
loop_
_geom_bond_atom_site_label_1
_geom_bond_atom_site_label_2
_geom_bond_distance
_geom_bond_site_symmetry_2
Mg0 Si1 2.681455 1_555
Mg0 Si0 2.741480 1_554
Mg0 Si5 2.823549 1_554
Mg0 Si4 2.825640 1_445
Mg1 Si3 2.774976 1_555
Mg1 Si2 2.829474 1_554
Mg1 Si6 2.836217 1_555
Mg1 Si11 3.023340 1_555
Mg2 Si7 2.709571 1_555
Mg2 Si11 2.883101 1_455
Mg2 Si11 2.883101 1_545
Mg2 Si4 2.940350 1_545
Mg2 Si4 2.940350 1_455
Mg2 Si3 3.159060 1_455
Mg2 Si3 3.159060 1_545
Mg3 Si2 2.836828 1_544
Mg3 Si2 2.836828 1_454
Mg3 Si5 2.916311 1_554
Mg3 Si6 2.945446 1_545
Mg3 Si6 2.945446 1_455
Mg3 Si9 3.038455 1_555
Mg3 Si10 3.148053 1_544
Mg3 Si10 3.148053 1_454
Mg4 Si1 2.793398 1_565
Mg4 Si1 2.793398 1_655
Mg4 Si6 2.944574 1_555
Mg4 Si5 2.967489 1_654
Mg4 Si5 2.967489 1_564
Mg4 Si10 3.099597 1_554
Mg4 Si9 3.131207 1_655
Mg4 Si9 3.131207 1_565
Mg5 Si7 2.772367 1_555
Mg5 Si4 2.829228 1_456
Mg5 Si4 2.829228 1_546
Mg5 Si0 2.845023 1_565
Mg5 Si0 2.845023 1_655
Mg5 Si11 3.126964 1_546
Mg5 Si11 3.126964 1_456
Mg6 Si7 2.611707 1_554
Mg6 Si2 2.677273 1_544
Mg6 Si2 2.677273 1_454
Mg6 Si11 2.827048 1_455
Mg6 Si11 2.827048 1_545
Mg6 Si3 3.059199 1_454
Mg6 Si3 3.059199 1_544
Mg7 Si2 2.914965 1_545
Mg7 Si2 2.914965 1_455
Mg7 Si3 2.948777 1_455
Mg7 Si3 2.948777 1_545
Mg7 Si6 2.994781 1_455
Mg7 Si6 2.994781 1_545
Mg7 Si10 3.074518 1_545
Mg7 Si10 3.074518 1_455
Mg8 Si0 2.856803 1_655
Mg8 Si0 2.856803 1_565
Mg8 Si1 2.932852 1_655
Mg8 Si1 2.932852 1_565
Mg8 Si5 2.958394 1_655
Mg8 Si5 2.958394 1_565
Mg8 Si9 3.021222 1_565
Mg8 Si9 3.021222 1_655
Mg8 Si10 3.258335 1_555
Mg9 Si4 2.845798 1_455
Mg9 Si4 2.845798 1_545
Mg9 Si1 2.873101 1_655
Mg9 Si1 2.873101 1_565
Mg9 Si0 2.939160 1_565
Mg9 Si0 2.939160 1_655
Mg9 Si8 3.014721 1_455
Mg9 Si8 3.014721 1_545
Si0 Si1 2.406610 1_555
Si0 Si8 2.432926 1_445
Si1 Si9 2.397607 1_555
Si2 Si3 2.479639 1_555
Si3 Si7 2.788648 1_655
Si3 Si7 2.788648 1_565
Si4 Si8 2.468194 1_555
Si5 Si9 2.508537 1_555
Si6 Si9 2.507127 1_655
Si6 Si9 2.507127 1_565
Si7 Si8 2.485683 1_545
Si7 Si8 2.485683 1_455
Si10 Si2 2.382685 1_555
Si10 Si6 2.488695 1_555
Si10 Si5 2.506258 1_565
Si10 Si5 2.506258 1_655
Si11 Si4 2.405694 1_555
