# generated using pymatgen
data_K3NaOs2O9
_symmetry_space_group_name_H-M   'P 1'
_cell_length_a   5.98254919
_cell_length_b   5.98254919
_cell_length_c   14.26067735
_cell_angle_alpha   90.00000000
_cell_angle_beta   90.00000000
_cell_angle_gamma   119.99998818
_symmetry_Int_Tables_number   1
_chemical_formula_structural   K3NaOs2O9
_chemical_formula_sum   'K6 Na2 Os4 O18'
_cell_volume   442.02149991
_cell_formula_units_Z   2
loop_
 _symmetry_equiv_pos_site_id
 _symmetry_equiv_pos_as_xyz
  1  'x, y, z'
loop_
 _atom_site_type_symbol
 _atom_site_label
 _atom_site_symmetry_multiplicity
 _atom_site_fract_x
 _atom_site_fract_y
 _atom_site_fract_z
 _atom_site_occupancy
  K  K0  1  -0.00000000  0.00000000  0.24990708  1
  K  K1  1  -0.00000000  0.00000000  0.75004204  1
  K  K2  1  0.33333300  0.66666700  0.39346095  1
  K  K3  1  0.66666700  0.33333300  0.60716930  1
  K  K4  1  0.66666700  0.33333300  0.89293284  1
  K  K5  1  0.33333300  0.66666700  0.10648890  1
  Na  Na0  1  -0.00000000  0.00000000  0.50030811  1
  Na  Na1  1  -0.00000000  0.00000000  -0.00030010  1
  Os  Os0  1  0.66666700  0.33333300  0.35138150  1
  Os  Os1  1  0.33333300  0.66666700  0.64874808  1
  Os  Os2  1  0.33333300  0.66666700  0.85125590  1
  Os  Os3  1  0.66666700  0.33333300  0.14860860  1
  O  O0  1  0.53018860  0.46981140  0.24997873  1
  O  O1  1  0.53018860  0.06037619  0.24997873  1
  O  O2  1  0.93962381  0.46981140  0.24997873  1
  O  O3  1  0.46983059  0.53016941  0.75000946  1
  O  O4  1  0.46983059  0.93966218  0.75000946  1
  O  O5  1  0.06033782  0.53016941  0.75000946  1
  O  O6  1  0.36129873  0.18064987  0.41042575  1
  O  O7  1  0.81935013  0.18064987  0.41042575  1
  O  O8  1  0.81935013  0.63870127  0.41042575  1
  O  O9  1  0.63886324  0.81943112  0.58989276  1
  O  O10  1  0.18056888  0.81943112  0.58989276  1
  O  O11  1  0.18056888  0.36113676  0.58989276  1
  O  O12  1  0.63884302  0.81942101  0.91015661  1
  O  O13  1  0.18057899  0.81942101  0.91015661  1
  O  O14  1  0.18057899  0.36115698  0.91015661  1
  O  O15  1  0.36131002  0.18065551  0.08953562  1
  O  O16  1  0.81934449  0.18065551  0.08953562  1
  O  O17  1  0.81934449  0.63868998  0.08953562  1
loop_
_geom_bond_atom_site_label_1
_geom_bond_atom_site_label_2
_geom_bond_distance
_geom_bond_site_symmetry_2
K0 O15 2.955442 1_555
K0 O17 2.955442 1_445
K0 O16 2.955445 1_455
K0 O6 2.957029 1_555
K0 O8 2.957029 1_445
K0 O7 2.957033 1_455
K0 O2 3.007583 1_455
K0 O1 3.007583 1_455
K0 O0 3.007587 1_555
K0 O0 3.007587 1_445
K0 O2 3.007589 1_445
K0 O1 3.007589 1_555
K1 O12 2.952105 1_445
K1 O14 2.952105 1_555
K1 O13 2.952108 1_545
K1 O11 2.952422 1_555
K1 O9 2.952422 1_445
K1 O10 2.952425 1_545
K1 O4 3.007563 1_545
K1 O5 3.007563 1_545
K1 O3 3.007567 1_445
K1 O3 3.007567 1_555
K1 O4 3.007569 1_445
K1 O5 3.007569 1_555
K2 O2 2.889225 1_455
K2 O1 2.889225 1_565
K2 O0 2.889232 1_555
K2 O6 3.004538 1_555
K2 O8 3.004538 1_555
K2 O6 3.004538 1_565
K2 O8 3.004538 1_455
K2 O7 3.004538 1_565
K2 O7 3.004538 1_455
K2 O10 3.217569 1_555
K2 O11 3.217574 1_555
K2 O9 3.217574 1_555
K3 O5 2.882608 1_655
K3 O4 2.882608 1_545
K3 O3 2.882615 1_555
K3 O11 3.004859 1_555
K3 O9 3.004859 1_555
K3 O9 3.004859 1_545
K3 O11 3.004859 1_655
K3 O10 3.004859 1_545
K3 O10 3.004859 1_655
K3 O7 3.221028 1_555
K3 O6 3.221033 1_555
K3 O8 3.221033 1_555
K4 O4 2.883446 1_545
K4 O5 2.883446 1_655
K4 O3 2.883453 1_555
K4 O14 3.004802 1_555
K4 O12 3.004802 1_555
K4 O14 3.004802 1_655
K4 O12 3.004802 1_545
K4 O13 3.004803 1_655
K4 O13 3.004803 1_545
K4 O16 3.219250 1_556
K4 O15 3.219256 1_556
K4 O17 3.219256 1_556
K5 O2 2.889302 1_455
K5 O1 2.889302 1_565
K5 O0 2.889309 1_555
K5 O15 3.004527 1_555
K5 O17 3.004527 1_555
K5 O17 3.004527 1_455
K5 O15 3.004527 1_565
K5 O16 3.004528 1_455
K5 O16 3.004528 1_565
K5 O13 3.216282 1_554
K5 O14 3.216287 1_554
K5 O12 3.216287 1_554
Na0 O9 2.265609 1_445
Na0 O11 2.265609 1_555
Na0 O10 2.265613 1_545
Na0 O8 2.268698 1_445
Na0 O6 2.268698 1_555
Na0 O7 2.268702 1_455
Na1 O12 2.265363 1_444
Na1 O14 2.265363 1_554
Na1 O13 2.265367 1_544
Na1 O17 2.268370 1_445
Na1 O15 2.268370 1_555
Na1 O16 2.268374 1_455
O0 Os3 2.022311 1_555
O0 Os0 2.022643 1_555
O1 Os3 2.022311 1_555
O1 Os0 2.022644 1_555
O2 Os3 2.022311 1_555
O2 Os0 2.022644 1_555
O3 Os2 2.021189 1_555
O3 Os1 2.021341 1_555
O4 Os2 2.021189 1_555
O4 Os1 2.021342 1_555
O5 Os2 2.021189 1_555
O5 Os1 2.021342 1_555
O6 Os0 1.792234 1_555
O7 Os0 1.792225 1_555
O8 Os0 1.792234 1_555
O9 Os1 1.791711 1_555
O10 Os1 1.791702 1_555
O11 Os1 1.791711 1_555
O12 Os2 1.791922 1_555
O13 Os2 1.791913 1_555
O14 Os2 1.791922 1_555
O15 Os3 1.792375 1_555
O16 Os3 1.792366 1_555
O17 Os3 1.792375 1_555
