# generated using pymatgen
data_NaH4CS2N3O2
_symmetry_space_group_name_H-M   'P 1'
_cell_length_a   6.00589300
_cell_length_b   18.47082300
_cell_length_c   7.24873677
_cell_angle_alpha   90.00000000
_cell_angle_beta   115.81842343
_cell_angle_gamma   90.00000000
_symmetry_Int_Tables_number   1
_chemical_formula_structural   NaH4CS2N3O2
_chemical_formula_sum   'Na4 H16 C4 S8 N12 O8'
_cell_volume   723.86059578
_cell_formula_units_Z   4
loop_
 _symmetry_equiv_pos_site_id
 _symmetry_equiv_pos_as_xyz
  1  'x, y, z'
loop_
 _atom_site_type_symbol
 _atom_site_label
 _atom_site_symmetry_multiplicity
 _atom_site_fract_x
 _atom_site_fract_y
 _atom_site_fract_z
 _atom_site_occupancy
  Na  Na0  1  0.16893100  0.50316900  0.34726600  1
  Na  Na1  1  0.16893100  0.99683100  0.84726600  1
  Na  Na2  1  0.83106900  0.49683100  0.65273400  1
  Na  Na3  1  0.83106900  0.00316900  0.15273400  1
  H  H0  1  0.30489300  0.57557900  0.74062700  1
  H  H1  1  0.30489300  0.92442100  0.24062700  1
  H  H2  1  0.69510700  0.42442100  0.25937300  1
  H  H3  1  0.69510700  0.07557900  0.75937300  1
  H  H4  1  0.08480100  0.62383800  0.59264500  1
  H  H5  1  0.08480100  0.87616200  0.09264500  1
  H  H6  1  0.91519900  0.37616200  0.40735500  1
  H  H7  1  0.91519900  0.12383800  0.90735500  1
  H  H8  1  0.55035000  0.62348300  0.41213200  1
  H  H9  1  0.55035000  0.87651700  0.91213200  1
  H  H10  1  0.44965000  0.37651700  0.58786800  1
  H  H11  1  0.44965000  0.12348300  0.08786800  1
  H  H12  1  0.56901900  0.56839300  0.25876800  1
  H  H13  1  0.56901900  0.93160700  0.75876800  1
  H  H14  1  0.43098100  0.43160700  0.74123200  1
  H  H15  1  0.43098100  0.06839300  0.24123200  1
  C  C0  1  0.76937600  0.83936500  0.49631500  1
  C  C1  1  0.76937600  0.66063500  0.99631500  1
  C  C2  1  0.23062400  0.16063500  0.50368500  1
  C  C3  1  0.23062400  0.33936500  0.00368500  1
  S  S0  1  0.05468700  0.79868000  0.56880500  1
  S  S1  1  0.05468700  0.70132000  0.06880500  1
  S  S2  1  0.94531300  0.20132000  0.43119500  1
  S  S3  1  0.94531300  0.29868000  0.93119500  1
  S  S4  1  0.71872800  0.93020200  0.49539800  1
  S  S5  1  0.71872800  0.56979800  0.99539800  1
  S  S6  1  0.28127200  0.06979800  0.50460200  1
  S  S7  1  0.28127200  0.43020200  0.00460200  1
  N  N0  1  0.68786000  0.72110300  0.46405900  1
  N  N1  1  0.68786000  0.77889700  0.96405900  1
  N  N2  1  0.31214000  0.27889700  0.53594100  1
  N  N3  1  0.31214000  0.22110300  0.03594100  1
  N  N4  1  0.92596800  0.71591000  0.52749800  1
  N  N5  1  0.92596800  0.78409000  0.02749800  1
  N  N6  1  0.07403200  0.28409000  0.47250200  1
  N  N7  1  0.07403200  0.21591000  0.97250200  1
  N  N8  1  0.59340300  0.78746300  0.44366700  1
  N  N9  1  0.59340300  0.71253700  0.94366700  1
  N  N10  1  0.40659700  0.21253700  0.55633300  1
  N  N11  1  0.40659700  0.28746300  0.05633300  1
  O  O0  1  0.14132600  0.57295400  0.62060400  1
  O  O1  1  0.14132600  0.92704600  0.12060400  1
  O  O2  1  0.85867400  0.42704600  0.37939600  1
  O  O3  1  0.85867400  0.07295400  0.87939600  1
  O  O4  1  0.52957400  0.57119300  0.37700000  1
  O  O5  1  0.52957400  0.92880700  0.87700000  1
  O  O6  1  0.47042600  0.42880700  0.62300000  1
  O  O7  1  0.47042600  0.07119300  0.12300000  1
loop_
_geom_bond_atom_site_label_1
_geom_bond_atom_site_label_2
_geom_bond_distance
_geom_bond_site_symmetry_2
Na0 O2 2.425159 1_455
Na0 O0 2.429171 1_555
Na0 O4 2.431047 1_555
Na0 O6 2.451085 1_555
Na0 S5 3.053514 1_454
Na0 S7 3.146606 1_555
Na1 O3 2.425159 1_465
Na1 O1 2.429171 1_556
Na1 O5 2.431047 1_555
Na1 O7 2.451085 1_566
Na1 S4 3.053514 1_455
Na1 S6 3.146606 1_565
Na2 O0 2.425159 1_655
Na2 O2 2.429171 1_555
Na2 O6 2.431047 1_555
Na2 O4 2.451085 1_555
Na2 S7 3.053514 1_656
Na2 S5 3.146606 1_555
Na3 O1 2.425159 1_645
Na3 O3 2.429171 1_554
Na3 O7 2.431047 1_555
Na3 O5 2.451085 1_544
Na3 S6 3.053514 1_655
Na3 S4 3.146606 1_545
H0 O0 0.989881 1_555
H1 O1 0.989881 1_555
H2 O2 0.989881 1_555
H3 O3 0.989881 1_555
H4 O0 0.989822 1_555
H5 O1 0.989822 1_555
H6 O2 0.989822 1_555
H7 O3 0.989822 1_555
H8 O4 0.992769 1_555
H9 O5 0.992769 1_555
H10 O6 0.992769 1_555
H11 O7 0.992769 1_555
H12 O4 0.984963 1_555
H13 O5 0.984963 1_555
H14 O6 0.984963 1_555
H15 O7 0.984963 1_555
C0 N8 1.352907 1_555
C0 S4 1.704682 1_555
C0 S0 1.729970 1_655
C1 N9 1.352907 1_555
C1 S5 1.704682 1_555
C1 S1 1.729970 1_656
C2 N10 1.352907 1_555
C2 S6 1.704682 1_555
C2 S2 1.729970 1_455
C3 N11 1.352907 1_555
C3 S7 1.704682 1_555
C3 S3 1.729970 1_454
N0 N4 1.301116 1_555
N0 N8 1.331553 1_555
N1 N5 1.301116 1_556
N1 N9 1.331553 1_555
N2 N6 1.301116 1_555
N3 N7 1.301116 1_554
N4 S0 1.680176 1_655
N5 S1 1.680176 1_655
N6 S2 1.680176 1_455
N7 S3 1.680176 1_455
N10 N2 1.331553 1_555
N11 N3 1.331553 1_555
