# generated using pymatgen
data_Mg16Al12Mo
_symmetry_space_group_name_H-M   'P 1'
_cell_length_a   8.91341884
_cell_length_b   8.91341884
_cell_length_c   8.91341916
_cell_angle_alpha   108.18734830
_cell_angle_beta   108.18734830
_cell_angle_gamma   108.18734111
_symmetry_Int_Tables_number   1
_chemical_formula_structural   Mg16Al12Mo
_chemical_formula_sum   'Mg16 Al12 Mo1'
_cell_volume   569.58373399
_cell_formula_units_Z   1
loop_
 _symmetry_equiv_pos_site_id
 _symmetry_equiv_pos_as_xyz
  1  'x, y, z'
loop_
 _atom_site_type_symbol
 _atom_site_label
 _atom_site_symmetry_multiplicity
 _atom_site_fract_x
 _atom_site_fract_y
 _atom_site_fract_z
 _atom_site_occupancy
  Mg  Mg0  1  0.31947900  0.71418400  0.31947900  1
  Mg  Mg1  1  0.58378600  0.30063600  0.58378600  1
  Mg  Mg2  1  0.99382200  0.99382200  0.99382200  1
  Mg  Mg3  1  0.00853200  0.65082000  0.00853200  1
  Mg  Mg4  1  0.40280400  0.00247300  0.68135600  1
  Mg  Mg5  1  0.30063600  0.58378600  0.58378600  1
  Mg  Mg6  1  0.68135600  0.40280400  0.00247300  1
  Mg  Mg7  1  0.65082000  0.00853200  0.00853200  1
  Mg  Mg8  1  0.31947900  0.31947900  0.71418400  1
  Mg  Mg9  1  0.00247300  0.68135600  0.40280400  1
  Mg  Mg10  1  0.40280400  0.68135600  0.00247300  1
  Mg  Mg11  1  0.71418400  0.31947900  0.31947900  1
  Mg  Mg12  1  0.00853200  0.00853200  0.65082000  1
  Mg  Mg13  1  0.00247300  0.40280400  0.68135600  1
  Mg  Mg14  1  0.58378600  0.58378600  0.30063600  1
  Mg  Mg15  1  0.68135600  0.00247300  0.40280400  1
  Al  Al0  1  0.81274700  0.19191500  0.81274700  1
  Al  Al1  1  0.64572900  0.83714800  0.64572900  1
  Al  Al2  1  0.18531500  0.00262300  0.36680400  1
  Al  Al3  1  0.00262300  0.36680400  0.18531500  1
  Al  Al4  1  0.64572900  0.64572900  0.83714800  1
  Al  Al5  1  0.00262300  0.18531500  0.36680400  1
  Al  Al6  1  0.81274700  0.81274700  0.19191500  1
  Al  Al7  1  0.19191500  0.81274700  0.81274700  1
  Al  Al8  1  0.36680400  0.18531500  0.00262300  1
  Al  Al9  1  0.83714800  0.64572900  0.64572900  1
  Al  Al10  1  0.18531500  0.36680400  0.00262300  1
  Al  Al11  1  0.36680400  0.00262300  0.18531500  1
  Mo  Mo0  1  0.28819200  0.28819200  0.28819200  1
loop_
_geom_bond_atom_site_label_1
_geom_bond_atom_site_label_2
_geom_bond_distance
_geom_bond_site_symmetry_2
Mg0 Mg14 2.960367 1_555
Mg0 Mg5 2.960367 1_555
Mg0 Mg3 2.988782 1_555
Mg0 Mg9 3.090451 1_555
Mg0 Mg10 3.090451 1_555
Mg0 Mg4 3.114150 1_565
Mg0 Mg15 3.114150 1_565
Mg1 Mg8 2.960367 1_555
Mg1 Mg11 2.960367 1_555
Mg1 Mo0 3.032785 1_555
Mg1 Mg15 3.172394 1_555
Mg1 Mg4 3.172395 1_555
Mg1 Mg13 3.297116 1_655
Mg1 Mg6 3.297116 1_556
Mg2 Mo0 2.785787 1_666
Mg2 Mg7 3.141869 1_566
Mg2 Mg3 3.141869 1_656
Mg3 Mg6 3.032692 1_455
Mg4 Mg7 3.032692 1_556
Mg4 Mg8 3.090451 1_555
Mg4 Mg5 3.297116 1_545
Mg5 Mg8 2.960367 1_555
Mg5 Mo0 3.032785 1_555
Mg5 Mg9 3.172394 1_555
Mg6 Mg8 3.114150 1_554
Mg10 Mg7 3.032692 1_565
Mg10 Mg8 3.114150 1_554
Mg10 Mg14 3.172395 1_555
Mg10 Mg5 3.297116 1_554
Mg11 Mg14 2.960367 1_555
Mg11 Mg7 2.988782 1_555
Mg11 Mg15 3.090451 1_555
Mg11 Mg6 3.090451 1_555
Mg11 Mg13 3.114150 1_655
Mg11 Mg9 3.114150 1_655
Mg12 Mg8 2.988782 1_555
Mg12 Mg15 3.032692 1_455
Mg12 Mg9 3.032692 1_545
Mg12 Mg2 3.141869 1_445
Mg13 Mg3 3.032692 1_556
Mg13 Mg8 3.090451 1_555
Mg13 Mg5 3.172395 1_555
Mg14 Mo0 3.032786 1_555
Mg14 Mg6 3.172395 1_555
Mg14 Mg9 3.297116 1_655
Mg14 Mg15 3.297116 1_565
Al0 Al1 2.677877 1_545
Al0 Al3 2.816992 1_656
Al0 Al10 2.816992 1_656
Al0 Mg6 2.896732 1_556
Al0 Mg13 2.896732 1_655
Al0 Mg1 3.022952 1_555
Al0 Mg12 3.111382 1_655
Al0 Mg7 3.111383 1_556
Al0 Mg15 3.133210 1_555
Al0 Mg4 3.133210 1_555
Al0 Mg2 3.203037 1_545
Al1 Al9 2.763961 1_555
Al1 Al4 2.763962 1_555
Al1 Mg14 2.948133 1_555
Al1 Mg5 2.948133 1_555
Al1 Mg0 2.975902 1_555
Al1 Mg4 3.014935 1_565
Al1 Mg15 3.014936 1_565
Al1 Mg7 3.094275 1_566
Al1 Mg12 3.094275 1_665
Al1 Mg2 3.128026 1_555
Al2 Al5 2.637949 1_555
Al2 Mo0 2.805053 1_555
Al2 Al6 2.816992 1_445
Al2 Mg4 2.868796 1_555
Al2 Mg9 2.990972 1_545
Al2 Mg8 3.019119 1_555
Al2 Mg0 3.126518 1_545
Al2 Mg1 3.166500 1_555
Al2 Mg3 3.168135 1_545
Al2 Mg2 3.191144 1_444
Al3 Al5 2.620579 1_555
Al3 Mo0 2.805053 1_555
Al3 Mg9 2.868796 1_555
Al3 Mg6 2.990972 1_455
Al3 Mg0 3.019120 1_555
Al3 Mg11 3.126518 1_455
Al3 Mg5 3.166499 1_555
Al3 Mg7 3.168135 1_455
Al3 Mg2 3.191144 1_444
Al4 Al6 2.677877 1_556
Al4 Al9 2.763962 1_555
Al4 Mg1 2.948133 1_555
Al4 Mg5 2.948133 1_555
Al4 Mg8 2.975902 1_555
Al4 Mg6 3.014936 1_556
Al4 Mg10 3.014936 1_556
Al4 Mg3 3.094275 1_656
Al4 Mg7 3.094275 1_566
Al4 Mg2 3.128026 1_555
Al5 Mo0 2.805053 1_555
Al5 Al6 2.816992 1_445
Al5 Mg13 2.868796 1_555
Al5 Mg15 2.990972 1_455
Al5 Mg8 3.019119 1_555
Al5 Mg11 3.126518 1_455
Al5 Mg5 3.166500 1_555
Al5 Mg7 3.168135 1_455
Al5 Mg2 3.191144 1_444
Al6 Mg9 2.896732 1_655
Al6 Mg15 2.896732 1_565
Al6 Mg14 3.022952 1_555
Al6 Mg7 3.111382 1_565
Al6 Mg3 3.111382 1_655
Al6 Mg10 3.133210 1_555
Al6 Mg6 3.133210 1_555
Al6 Mg2 3.203038 1_554
Al7 Al9 2.677877 1_455
Al7 Al8 2.816992 1_566
Al7 Mg10 2.896732 1_556
Al7 Mg4 2.896732 1_565
Al7 Mg5 3.022952 1_555
Al7 Mg12 3.111382 1_565
Al7 Mg3 3.111383 1_556
Al7 Mg9 3.133210 1_555
Al7 Mg13 3.133210 1_555
Al7 Mg2 3.203037 1_455
Al8 Mo0 2.805053 1_555
Al8 Mg6 2.868796 1_555
Al8 Mg4 2.990972 1_554
Al8 Mg11 3.019119 1_555
Al8 Mg8 3.126518 1_554
Al8 Mg14 3.166499 1_555
Al8 Mg12 3.168135 1_554
Al8 Mg2 3.191144 1_444
Al9 Mg14 2.948133 1_555
Al9 Mg1 2.948133 1_555
Al9 Mg11 2.975902 1_555
Al9 Mg13 3.014935 1_655
Al9 Mg9 3.014936 1_655
Al9 Mg3 3.094275 1_656
Al9 Mg12 3.094275 1_665
Al9 Mg2 3.128026 1_555
Al10 Al8 2.620579 1_555
Al10 Al3 2.637950 1_555
Al10 Mo0 2.805053 1_555
Al10 Mg10 2.868796 1_555
Al10 Mg13 2.990972 1_554
Al10 Mg0 3.019119 1_555
Al10 Mg8 3.126518 1_554
Al10 Mg14 3.166499 1_555
Al10 Mg12 3.168135 1_554
Al10 Mg2 3.191144 1_444
Al11 Al2 2.620579 1_555
Al11 Al8 2.637950 1_555
Al11 Mo0 2.805053 1_555
Al11 Al7 2.816992 1_544
Al11 Mg15 2.868796 1_555
Al11 Mg10 2.990972 1_545
Al11 Mg11 3.019120 1_555
Al11 Mg0 3.126518 1_545
Al11 Mg1 3.166499 1_555
Al11 Mg3 3.168135 1_545
Al11 Mg2 3.191144 1_444
