# generated using pymatgen
data_Cd5P3O13
_symmetry_space_group_name_H-M   'P 1'
_cell_length_a   6.69728500
_cell_length_b   9.56151769
_cell_length_c   9.56156544
_cell_angle_alpha   120.00052980
_cell_angle_beta   90.00000000
_cell_angle_gamma   90.00000000
_symmetry_Int_Tables_number   1
_chemical_formula_structural   Cd5P3O13
_chemical_formula_sum   'Cd10 P6 O26'
_cell_volume   530.25274877
_cell_formula_units_Z   2
loop_
 _symmetry_equiv_pos_site_id
 _symmetry_equiv_pos_as_xyz
  1  'x, y, z'
loop_
 _atom_site_type_symbol
 _atom_site_label
 _atom_site_symmetry_multiplicity
 _atom_site_fract_x
 _atom_site_fract_y
 _atom_site_fract_z
 _atom_site_occupancy
  Cd  Cd0  1  0.50041000  0.66666900  0.33333600  1
  Cd  Cd1  1  0.00041000  0.33333100  0.66666400  1
  Cd  Cd2  1  0.49777600  0.33333100  0.66666400  1
  Cd  Cd3  1  0.99777600  0.66666900  0.33333600  1
  Cd  Cd4  1  0.74673500  0.00262400  0.75780100  1
  Cd  Cd5  1  0.74673500  0.24219100  0.24481500  1
  Cd  Cd6  1  0.74673500  0.75518300  0.99737000  1
  Cd  Cd7  1  0.24673500  0.99737600  0.24219900  1
  Cd  Cd8  1  0.24673500  0.75780900  0.75518500  1
  Cd  Cd9  1  0.24673500  0.24481700  0.00263000  1
  P  P0  1  0.74712500  0.36990900  0.97518700  1
  P  P1  1  0.74712400  0.02481500  0.39472100  1
  P  P2  1  0.74712500  0.60527600  0.63009300  1
  P  P3  1  0.24712500  0.63009100  0.02481300  1
  P  P4  1  0.24712400  0.97518500  0.60527900  1
  P  P5  1  0.24712500  0.39472400  0.36990700  1
  O  O0  1  0.74743800  0.48906400  0.16047300  1
  O  O1  1  0.74743900  0.83952600  0.32860100  1
  O  O2  1  0.74743800  0.67140700  0.51093900  1
  O  O3  1  0.24743800  0.51093600  0.83952700  1
  O  O4  1  0.24743900  0.16047400  0.67139900  1
  O  O5  1  0.24743800  0.32859300  0.48906100  1
  O  O6  1  0.55974800  0.25994900  0.91960500  1
  O  O7  1  0.55974800  0.08038500  0.34033700  1
  O  O8  1  0.55974800  0.65965500  0.74004700  1
  O  O9  1  0.05974800  0.74005100  0.08039500  1
  O  O10  1  0.05974800  0.91961500  0.65966300  1
  O  O11  1  0.05974800  0.34034500  0.25995300  1
  O  O12  1  0.43038400  0.74487700  0.07764500  1
  O  O13  1  0.43038200  0.92236400  0.66723800  1
  O  O14  1  0.43038300  0.33276800  0.25512500  1
  O  O15  1  0.93038400  0.25512300  0.92235500  1
  O  O16  1  0.93038200  0.07763600  0.33276200  1
  O  O17  1  0.93038300  0.66723200  0.74487500  1
  O  O18  1  0.75156400  0.46312600  0.87806500  1
  O  O19  1  0.75156400  0.12194400  0.58506600  1
  O  O20  1  0.75156400  0.41493400  0.53687500  1
  O  O21  1  0.25156400  0.53687400  0.12193500  1
  O  O22  1  0.25156400  0.87805600  0.41493400  1
  O  O23  1  0.25156400  0.58506600  0.46312500  1
  O  O24  1  0.74083200  0.99999900  0.99999100  1
  O  O25  1  0.24083200  0.00000100  0.00000900  1
loop_
_geom_bond_atom_site_label_1
_geom_bond_atom_site_label_2
_geom_bond_distance
_geom_bond_site_symmetry_2
Cd0 O1 2.354923 1_555
Cd0 O0 2.354977 1_555
Cd0 O2 2.354989 1_555
Cd0 O22 2.427851 1_555
Cd0 O23 2.427892 1_555
Cd0 O21 2.427937 1_555
Cd1 O4 2.354923 1_555
Cd1 O3 2.354977 1_555
Cd1 O5 2.354989 1_555
Cd1 O19 2.427851 1_455
Cd1 O20 2.427892 1_455
Cd1 O18 2.427937 1_455
Cd2 O4 2.370540 1_555
Cd2 O3 2.370603 1_555
Cd2 O5 2.370615 1_555
Cd2 O19 2.450689 1_555
Cd2 O20 2.450730 1_555
Cd2 O18 2.450774 1_555
Cd3 O1 2.370540 1_555
Cd3 O0 2.370603 1_555
Cd3 O2 2.370615 1_555
Cd3 O22 2.450689 1_655
Cd3 O23 2.450730 1_655
Cd3 O21 2.450774 1_655
Cd4 O10 2.271631 1_645
Cd4 O13 2.272252 1_545
Cd4 O24 2.328702 1_545
Cd4 O19 2.432040 1_555
Cd4 O15 2.453242 1_555
Cd4 O6 2.491760 1_555
Cd5 O11 2.271678 1_655
Cd5 O14 2.272285 1_555
Cd5 O24 2.328731 1_544
Cd5 O20 2.432069 1_555
Cd5 O16 2.453274 1_555
Cd5 O7 2.491801 1_555
Cd6 O9 2.271700 1_656
Cd6 O12 2.272300 1_556
Cd6 O24 2.328719 1_555
Cd6 O18 2.432048 1_555
Cd6 O17 2.453214 1_555
Cd6 O8 2.491750 1_555
Cd7 O7 2.271631 1_565
Cd7 O16 2.272252 1_465
Cd7 O25 2.328702 1_565
Cd7 O22 2.432040 1_555
Cd7 O12 2.453242 1_555
Cd7 O9 2.491760 1_555
Cd8 O8 2.271678 1_555
Cd8 O17 2.272285 1_455
Cd8 O25 2.328731 1_566
Cd8 O23 2.432069 1_555
Cd8 O13 2.453274 1_555
Cd8 O10 2.491801 1_555
Cd9 O6 2.271700 1_554
Cd9 O15 2.272300 1_454
Cd9 O25 2.328719 1_555
Cd9 O21 2.432048 1_555
Cd9 O14 2.453214 1_555
Cd9 O11 2.491750 1_555
O0 P0 1.555062 1_554
O1 P1 1.555104 1_565
O2 P2 1.555066 1_555
O3 P3 1.555062 1_556
O4 P4 1.555104 1_545
O5 P5 1.555066 1_555
O6 P0 1.550451 1_555
O7 P1 1.550422 1_555
O8 P2 1.550424 1_555
O9 P3 1.550451 1_555
O10 P4 1.550422 1_555
O11 P5 1.550424 1_555
O12 P3 1.552958 1_555
O13 P4 1.552930 1_555
O14 P5 1.552935 1_555
O15 P0 1.552958 1_555
O16 P1 1.552930 1_555
O17 P2 1.552935 1_555
O18 P0 1.576505 1_555
O19 P1 1.576546 1_555
O20 P2 1.576513 1_555
O21 P3 1.576505 1_555
O22 P4 1.576546 1_555
O23 P5 1.576513 1_555
