# generated using pymatgen
data_ZnCrBiO5
_symmetry_space_group_name_H-M   'P 1'
_cell_length_a   5.31438700
_cell_length_b   10.72320800
_cell_length_c   15.26619100
_cell_angle_alpha   90.00000000
_cell_angle_beta   90.00000000
_cell_angle_gamma   90.00000000
_symmetry_Int_Tables_number   1
_chemical_formula_structural   ZnCrBiO5
_chemical_formula_sum   'Zn8 Cr8 Bi8 O40'
_cell_volume   869.97865821
_cell_formula_units_Z   8
loop_
 _symmetry_equiv_pos_site_id
 _symmetry_equiv_pos_as_xyz
  1  'x, y, z'
loop_
 _atom_site_type_symbol
 _atom_site_label
 _atom_site_symmetry_multiplicity
 _atom_site_fract_x
 _atom_site_fract_y
 _atom_site_fract_z
 _atom_site_occupancy
  Zn  Zn0  1  0.49984000  0.35896300  0.45131400  1
  Zn  Zn1  1  0.99984000  0.14103700  0.45131400  1
  Zn  Zn2  1  0.99984000  0.64103700  0.04868600  1
  Zn  Zn3  1  0.00016000  0.35896300  0.95131400  1
  Zn  Zn4  1  0.50016000  0.14103700  0.95131400  1
  Zn  Zn5  1  0.00016000  0.85896300  0.54868600  1
  Zn  Zn6  1  0.50016000  0.64103700  0.54868600  1
  Zn  Zn7  1  0.49984000  0.85896300  0.04868600  1
  Cr  Cr0  1  0.97270800  0.39742500  0.59048400  1
  Cr  Cr1  1  0.52729200  0.89742500  0.40951600  1
  Cr  Cr2  1  0.02729200  0.60257500  0.40951600  1
  Cr  Cr3  1  0.47270800  0.10257500  0.59048400  1
  Cr  Cr4  1  0.02729200  0.10257500  0.09048400  1
  Cr  Cr5  1  0.97270800  0.89742500  0.90951600  1
  Cr  Cr6  1  0.52729200  0.39742500  0.09048400  1
  Cr  Cr7  1  0.47270800  0.60257500  0.90951600  1
  Bi  Bi0  1  0.97613800  0.85436100  0.22796600  1
  Bi  Bi1  1  0.02386200  0.14563900  0.77203400  1
  Bi  Bi2  1  0.52386200  0.35436100  0.77203400  1
  Bi  Bi3  1  0.02386200  0.64563900  0.72796600  1
  Bi  Bi4  1  0.47613800  0.14563900  0.27203400  1
  Bi  Bi5  1  0.47613800  0.64563900  0.22796600  1
  Bi  Bi6  1  0.52386200  0.85436100  0.72796600  1
  Bi  Bi7  1  0.97613800  0.35436100  0.27203400  1
  O  O0  1  0.92483200  0.33293300  0.69631900  1
  O  O1  1  0.31248000  0.04196800  0.05676600  1
  O  O2  1  0.18752000  0.54196800  0.94323400  1
  O  O3  1  0.28472700  0.77863400  0.14504800  1
  O  O4  1  0.21527300  0.27863400  0.85495200  1
  O  O5  1  0.92483200  0.83293300  0.80368100  1
  O  O6  1  0.21527300  0.77863400  0.64504800  1
  O  O7  1  0.57516800  0.83293300  0.30368100  1
  O  O8  1  0.31248000  0.54196800  0.44323400  1
  O  O9  1  0.07516800  0.66706700  0.30368100  1
  O  O10  1  0.57516800  0.33293300  0.19631900  1
  O  O11  1  0.64277300  0.20038300  0.52649000  1
  O  O12  1  0.81248000  0.95803200  0.44323400  1
  O  O13  1  0.71527300  0.72136600  0.64504800  1
  O  O14  1  0.17179500  0.02359100  0.88254000  1
  O  O15  1  0.81248000  0.45803200  0.05676600  1
  O  O16  1  0.07516800  0.16706700  0.19631900  1
  O  O17  1  0.78472700  0.22136600  0.35495200  1
  O  O18  1  0.14277300  0.79961700  0.97351000  1
  O  O19  1  0.18752000  0.04196800  0.55676600  1
  O  O20  1  0.35722700  0.79961700  0.47351000  1
  O  O21  1  0.82820500  0.97640900  0.11746000  1
  O  O22  1  0.71527300  0.22136600  0.85495200  1
  O  O23  1  0.67179500  0.97640900  0.61746000  1
  O  O24  1  0.35722700  0.29961700  0.02649000  1
  O  O25  1  0.14277300  0.29961700  0.52649000  1
  O  O26  1  0.68752000  0.45803200  0.55676600  1
  O  O27  1  0.68752000  0.95803200  0.94323400  1
  O  O28  1  0.67179500  0.47640900  0.88254000  1
  O  O29  1  0.85722700  0.70038300  0.47351000  1
  O  O30  1  0.85722700  0.20038300  0.02649000  1
  O  O31  1  0.64277300  0.70038300  0.97351000  1
  O  O32  1  0.82820500  0.47640900  0.38254000  1
  O  O33  1  0.78472700  0.72136600  0.14504800  1
  O  O34  1  0.28472700  0.27863400  0.35495200  1
  O  O35  1  0.17179500  0.52359100  0.61746000  1
  O  O36  1  0.32820500  0.52359100  0.11746000  1
  O  O37  1  0.42483200  0.16706700  0.69631900  1
  O  O38  1  0.32820500  0.02359100  0.38254000  1
  O  O39  1  0.42483200  0.66706700  0.80368100  1
loop_
_geom_bond_atom_site_label_1
_geom_bond_atom_site_label_2
_geom_bond_distance
_geom_bond_site_symmetry_2
Cr0 O25 1.694483 1_655
Cr0 O26 1.727535 1_555
Cr0 O35 1.766172 1_655
Cr0 O0 1.775801 1_555
Cr1 O20 1.694483 1_555
Cr1 O12 1.727535 1_555
Cr1 O38 1.766172 1_565
Cr1 O7 1.775801 1_555
Cr2 O29 1.694483 1_455
Cr2 O8 1.727535 1_555
Cr2 O32 1.766172 1_455
Cr2 O9 1.775801 1_555
Cr3 O11 1.694483 1_555
Cr3 O19 1.727535 1_555
Cr3 O23 1.766172 1_545
Cr3 O37 1.775801 1_555
Cr4 O30 1.694483 1_455
Cr4 O1 1.727535 1_555
Cr4 O21 1.766172 1_445
Cr4 O16 1.775801 1_555
Cr5 O18 1.694483 1_655
Cr5 O27 1.727535 1_555
Cr5 O14 1.766172 1_665
Cr5 O5 1.775801 1_555
Cr6 O24 1.694483 1_555
Cr6 O15 1.727535 1_555
Cr6 O36 1.766172 1_555
Cr6 O10 1.775801 1_555
Cr7 O31 1.694483 1_555
Cr7 O2 1.727535 1_555
Cr7 O28 1.766172 1_555
Cr7 O39 1.775801 1_555
Bi0 O33 2.161243 1_555
Bi0 O3 2.225136 1_655
Bi0 O21 2.275274 1_555
Bi0 O9 2.376273 1_655
Bi0 O7 2.435083 1_555
Bi1 O4 2.161243 1_555
Bi1 O22 2.225136 1_455
Bi1 O14 2.275274 1_555
Bi1 O0 2.376273 1_455
Bi1 O37 2.435083 1_555
Bi2 O22 2.161243 1_555
Bi2 O4 2.225136 1_555
Bi2 O28 2.275274 1_555
Bi2 O37 2.376273 1_555
Bi2 O0 2.435083 1_555
Bi3 O6 2.161243 1_555
Bi3 O13 2.225136 1_455
Bi3 O35 2.275274 1_555
Bi3 O5 2.376273 1_455
Bi3 O39 2.435083 1_555
Bi4 O34 2.161243 1_555
Bi4 O17 2.225136 1_555
Bi4 O38 2.275274 1_555
Bi4 O10 2.376273 1_555
Bi4 O16 2.435083 1_555
Bi5 O3 2.161243 1_555
Bi5 O33 2.225136 1_555
Bi5 O36 2.275274 1_555
Bi5 O7 2.376273 1_555
Bi5 O9 2.435083 1_555
Bi6 O13 2.161243 1_555
Bi6 O6 2.225136 1_555
Bi6 O23 2.275274 1_555
Bi6 O39 2.376273 1_555
Bi6 O5 2.435083 1_555
Bi7 O17 2.161243 1_555
Bi7 O34 2.225136 1_655
Bi7 O32 2.275274 1_555
Bi7 O16 2.376273 1_655
Bi7 O10 2.435083 1_555
O1 Zn4 2.171404 1_554
O1 Zn7 2.204009 1_545
O2 Zn2 2.171404 1_456
O2 Zn3 2.204009 1_555
O3 Zn7 2.052548 1_555
O4 Zn3 2.052548 1_555
O6 Zn5 2.052548 1_555
O8 Zn6 2.171404 1_555
O8 Zn0 2.204009 1_555
O11 Zn0 2.187636 1_555
O11 Zn1 2.307149 1_555
O12 Zn5 2.171404 1_655
O12 Zn1 2.204009 1_565
O13 Zn6 2.052548 1_555
O14 Zn4 2.394502 1_555
O15 Zn3 2.171404 1_654
O15 Zn2 2.204009 1_555
O17 Zn1 2.052548 1_555
O18 Zn2 2.187636 1_456
O18 Zn7 2.307149 1_556
O19 Zn1 2.171404 1_455
O19 Zn5 2.204009 1_545
O20 Zn6 2.187636 1_555
O20 Zn5 2.307149 1_555
O21 Zn7 2.394502 1_555
O22 Zn4 2.052548 1_555
O23 Zn5 2.394502 1_655
O24 Zn4 2.187636 1_554
O24 Zn3 2.307149 1_554
O25 Zn1 2.187636 1_455
O25 Zn0 2.307149 1_555
O26 Zn0 2.171404 1_555
O26 Zn6 2.204009 1_555
O27 Zn7 2.171404 1_556
O27 Zn4 2.204009 1_565
O28 Zn3 2.394502 1_655
O29 Zn5 2.187636 1_655
O29 Zn6 2.307149 1_555
O30 Zn3 2.187636 1_654
O30 Zn4 2.307149 1_554
O31 Zn7 2.187636 1_556
O31 Zn2 2.307149 1_556
O32 Zn0 2.394502 1_555
O33 Zn2 2.052548 1_555
O34 Zn0 2.052548 1_555
O35 Zn6 2.394502 1_555
O36 Zn2 2.394502 1_455
O38 Zn1 2.394502 1_455
