# generated using pymatgen
data_Li2CoO3
_symmetry_space_group_name_H-M   'P 1'
_cell_length_a   2.97767100
_cell_length_b   5.95060295
_cell_length_c   6.30215272
_cell_angle_alpha   103.57361891
_cell_angle_beta   103.42683656
_cell_angle_gamma   93.65294325
_symmetry_Int_Tables_number   1
_chemical_formula_structural   Li2CoO3
_chemical_formula_sum   'Li4 Co2 O6'
_cell_volume   104.75314084
_cell_formula_units_Z   2
loop_
 _symmetry_equiv_pos_site_id
 _symmetry_equiv_pos_as_xyz
  1  'x, y, z'
loop_
 _atom_site_type_symbol
 _atom_site_label
 _atom_site_symmetry_multiplicity
 _atom_site_fract_x
 _atom_site_fract_y
 _atom_site_fract_z
 _atom_site_occupancy
  Li  Li0  1  0.66492300  0.33759500  0.82815700  1
  Li  Li1  1  0.33507700  0.66240500  0.17184300  1
  Li  Li2  1  0.00000000  0.00000000  0.50000000  1
  Li  Li3  1  0.00000000  0.50000000  0.50000000  1
  Co  Co0  1  0.66481000  0.82041300  0.82364600  1
  Co  Co1  1  0.33519000  0.17958700  0.17635400  1
  O  O0  1  0.19201200  0.60345600  0.83526400  1
  O  O1  1  0.84556900  0.92483100  0.14418500  1
  O  O2  1  0.48602700  0.23622100  0.46979400  1
  O  O3  1  0.15443100  0.07516900  0.85581500  1
  O  O4  1  0.80798800  0.39654400  0.16473600  1
  O  O5  1  0.51397300  0.76377900  0.53020600  1
loop_
_geom_bond_atom_site_label_1
_geom_bond_atom_site_label_2
_geom_bond_distance
_geom_bond_site_symmetry_2
Li0 O4 2.003983 1_556
Li0 O2 2.123474 1_555
Li0 O0 2.141461 1_655
Li0 O3 2.174380 1_555
Li0 O0 2.183505 1_555
Li0 O3 2.212092 1_655
Li1 O0 2.003983 1_554
Li1 O5 2.123474 1_555
Li1 O4 2.141461 1_455
Li1 O1 2.174380 1_555
Li1 O4 2.183505 1_555
Li1 O1 2.212092 1_455
Li2 O2 2.025069 1_555
Li2 O5 2.025069 1_445
Li2 O1 2.112818 1_445
Li2 O3 2.112818 1_555
Li2 O5 2.149138 1_545
Li2 O2 2.149138 1_455
Li3 O4 1.988403 1_455
Li3 O0 1.988403 1_555
Li3 O2 2.064125 1_455
Li3 O5 2.064125 1_555
Li3 O2 2.207180 1_555
Li3 O5 2.207180 1_455
Co0 O5 1.742890 1_555
Co0 O0 1.874767 1_555
Co0 O1 1.902576 1_556
Co0 O3 1.975251 1_665
Co0 O0 2.094213 1_655
Co0 O3 2.222885 1_565
Co1 O2 1.742890 1_555
Co1 O4 1.874767 1_555
Co1 O3 1.902576 1_554
Co1 O1 1.975251 1_445
Co1 O4 2.094213 1_455
Co1 O1 2.222885 1_545
