# generated using pymatgen
data_Li3TiV2O6
_symmetry_space_group_name_H-M   'P 1'
_cell_length_a   5.96909969
_cell_length_b   6.65591306
_cell_length_c   6.06132208
_cell_angle_alpha   104.34889383
_cell_angle_beta   89.41939891
_cell_angle_gamma   103.00767514
_symmetry_Int_Tables_number   1
_chemical_formula_structural   Li3TiV2O6
_chemical_formula_sum   'Li6 Ti2 V4 O12'
_cell_volume   227.05032079
_cell_formula_units_Z   2
loop_
 _symmetry_equiv_pos_site_id
 _symmetry_equiv_pos_as_xyz
  1  'x, y, z'
loop_
 _atom_site_type_symbol
 _atom_site_label
 _atom_site_symmetry_multiplicity
 _atom_site_fract_x
 _atom_site_fract_y
 _atom_site_fract_z
 _atom_site_occupancy
  Li  Li0  1  0.33524400  0.33513800  0.83977200  1
  Li  Li1  1  0.83540500  0.33512900  0.83989500  1
  Li  Li2  1  0.49975500  0.99537100  0.50135200  1
  Li  Li3  1  0.99977000  0.99539800  0.50136400  1
  Li  Li4  1  0.66762600  0.67005600  0.16143100  1
  Li  Li5  1  0.16766400  0.67008500  0.16142500  1
  Ti  Ti0  1  0.33454400  0.34037200  0.34231100  1
  Ti  Ti1  1  0.83464000  0.34037600  0.34239700  1
  V  V0  1  0.66652000  0.66739400  0.66563400  1
  V  V1  1  0.50188100  0.99178700  0.99312100  1
  V  V2  1  0.16654400  0.66736100  0.66572800  1
  V  V3  1  0.00178700  0.99186000  0.99323800  1
  O  O0  1  0.26288500  0.01867800  0.24034100  1
  O  O1  1  0.76286700  0.01863100  0.24038200  1
  O  O2  1  0.41334500  0.64926800  0.40879600  1
  O  O3  1  0.91343700  0.64932700  0.40885200  1
  O  O4  1  0.41718300  0.67307300  0.91503700  1
  O  O5  1  0.91704900  0.67315300  0.91501400  1
  O  O6  1  0.74629400  0.00281300  0.76088000  1
  O  O7  1  0.24628000  0.00279400  0.76098900  1
  O  O8  1  0.58267800  0.33107000  0.56150700  1
  O  O9  1  0.08266100  0.33104100  0.56153900  1
  O  O10  1  0.58401200  0.32509700  0.10901000  1
  O  O11  1  0.08398600  0.32513400  0.10898200  1
loop_
_geom_bond_atom_site_label_1
_geom_bond_atom_site_label_2
_geom_bond_distance
_geom_bond_site_symmetry_2
Li0 O7 2.087100 1_555
Li0 O4 2.123023 1_555
Li0 O11 2.208111 1_556
Li0 O8 2.229758 1_555
Li0 O10 2.240653 1_556
Li0 O9 2.264566 1_555
Li1 O6 2.086896 1_555
Li1 O5 2.123640 1_555
Li1 O10 2.208233 1_556
Li1 O9 2.229468 1_655
Li1 O11 2.239108 1_656
Li1 O8 2.265927 1_555
Li2 O8 2.114806 1_565
Li2 O6 2.148994 1_565
Li2 O7 2.171448 1_565
Li2 O2 2.172076 1_555
Li2 O0 2.189029 1_565
Li2 O1 2.225828 1_565
Li3 O9 2.114437 1_665
Li3 O7 2.149402 1_665
Li3 O6 2.170930 1_565
Li3 O3 2.171875 1_555
Li3 O1 2.188835 1_565
Li3 O0 2.226084 1_665
Li4 O5 2.098642 1_554
Li4 O2 2.129129 1_555
Li4 O4 2.130557 1_554
Li4 O3 2.158541 1_555
Li4 O10 2.178878 1_555
Li4 O1 2.190080 1_565
Li5 O4 2.098900 1_554
Li5 O3 2.129158 1_455
Li5 O5 2.131476 1_454
Li5 O2 2.158007 1_555
Li5 O11 2.178809 1_555
Li5 O0 2.190199 1_565
O0 Ti0 2.021559 1_555
O0 V1 2.061874 1_544
O0 V3 2.119841 1_544
O1 Ti1 2.021873 1_555
O1 V3 2.061183 1_644
O1 V1 2.119977 1_544
O2 Ti0 1.941277 1_555
O2 V2 2.133191 1_555
O2 V0 2.143463 1_555
O3 Ti1 1.941635 1_555
O3 V0 2.133023 1_555
O3 V2 2.143517 1_655
O4 V1 2.001019 1_555
O4 V0 2.110260 1_555
O4 V2 2.124857 1_555
O5 V3 2.000959 1_655
O5 V2 2.110422 1_655
O5 V0 2.124601 1_555
O6 V1 2.019113 1_545
O6 V0 2.105319 1_545
O6 V3 2.111678 1_645
O7 V3 2.019457 1_545
O7 V2 2.105410 1_545
O7 V1 2.111348 1_545
O8 Ti1 1.997000 1_555
O8 Ti0 2.021078 1_555
O8 V0 2.112270 1_555
O9 Ti0 1.997131 1_555
O9 Ti1 2.020434 1_455
O9 V2 2.112260 1_555
O10 Ti1 2.037821 1_555
O10 Ti0 2.044917 1_555
O10 V1 2.097715 1_544
O11 Ti0 2.037352 1_555
O11 Ti1 2.044838 1_455
O11 V3 2.097428 1_544
