# generated using pymatgen
data_BaMg6W
_symmetry_space_group_name_H-M   'P 1'
_cell_length_a   6.68228100
_cell_length_b   6.68228100
_cell_length_c   4.36506400
_cell_angle_alpha   90.00000000
_cell_angle_beta   90.00000000
_cell_angle_gamma   90.00000000
_symmetry_Int_Tables_number   1
_chemical_formula_structural   BaMg6W
_chemical_formula_sum   'Ba1 Mg6 W1'
_cell_volume   194.91267620
_cell_formula_units_Z   1
loop_
 _symmetry_equiv_pos_site_id
 _symmetry_equiv_pos_as_xyz
  1  'x, y, z'
loop_
 _atom_site_type_symbol
 _atom_site_label
 _atom_site_symmetry_multiplicity
 _atom_site_fract_x
 _atom_site_fract_y
 _atom_site_fract_z
 _atom_site_occupancy
  Ba  Ba0  1  0.00000000  0.00000000  0.50000000  1
  Mg  Mg0  1  0.00000000  0.50000000  0.50000000  1
  Mg  Mg1  1  0.50000000  0.00000000  0.50000000  1
  Mg  Mg2  1  0.71137900  0.28862100  0.00000000  1
  Mg  Mg3  1  0.28862100  0.71137900  0.00000000  1
  Mg  Mg4  1  0.71137900  0.71137900  0.00000000  1
  Mg  Mg5  1  0.28862100  0.28862100  0.00000000  1
  W  W0  1  0.50000000  0.50000000  0.50000000  1
loop_
_geom_bond_atom_site_label_1
_geom_bond_atom_site_label_2
_geom_bond_distance
_geom_bond_site_symmetry_2
Ba0 Mg1 3.341140 1_555
Ba0 Mg1 3.341140 1_455
Ba0 Mg0 3.341140 1_545
Ba0 Mg0 3.341140 1_555
Ba0 Mg5 3.493251 1_556
Ba0 Mg2 3.493251 1_456
Ba0 Mg3 3.493251 1_546
Ba0 Mg2 3.493251 1_455
Ba0 Mg3 3.493251 1_545
Ba0 Mg4 3.493251 1_446
Ba0 Mg4 3.493251 1_445
Ba0 Mg5 3.493251 1_555
Mg0 Mg5 3.237014 1_555
Mg0 Mg4 3.237014 1_456
Mg0 Mg3 3.237014 1_555
Mg0 Mg2 3.237014 1_456
Mg0 Mg4 3.237014 1_455
Mg0 Mg3 3.237014 1_556
Mg0 Mg5 3.237014 1_556
Mg0 Mg2 3.237014 1_455
Mg0 W0 3.341140 1_455
Mg0 W0 3.341140 1_555
Mg1 Mg5 3.237014 1_555
Mg1 Mg2 3.237014 1_556
Mg1 Mg3 3.237014 1_545
Mg1 Mg2 3.237014 1_555
Mg1 Mg4 3.237014 1_546
Mg1 Mg5 3.237014 1_556
Mg1 Mg4 3.237014 1_545
Mg1 Mg3 3.237014 1_546
Mg1 W0 3.341140 1_545
Mg1 W0 3.341140 1_555
Mg2 W0 2.958669 1_554
Mg2 W0 2.958669 1_555
Mg3 W0 2.958669 1_554
Mg3 W0 2.958669 1_555
Mg4 W0 2.958669 1_554
Mg4 W0 2.958669 1_555
Mg5 W0 2.958669 1_554
Mg5 W0 2.958669 1_555
