# generated using pymatgen
data_MgTi2Nb2(PbO3)5
_symmetry_space_group_name_H-M   'P 1'
_cell_length_a   5.83617834
_cell_length_b   5.83617834
_cell_length_c   12.11402674
_cell_angle_alpha   78.25769180
_cell_angle_beta   78.25769180
_cell_angle_gamma   58.15434329
_symmetry_Int_Tables_number   1
_chemical_formula_structural   MgTi2Nb2(PbO3)5
_chemical_formula_sum   'Mg1 Ti2 Nb2 Pb5 O15'
_cell_volume   340.87043393
_cell_formula_units_Z   1
loop_
 _symmetry_equiv_pos_site_id
 _symmetry_equiv_pos_as_xyz
  1  'x, y, z'
loop_
 _atom_site_type_symbol
 _atom_site_label
 _atom_site_symmetry_multiplicity
 _atom_site_fract_x
 _atom_site_fract_y
 _atom_site_fract_z
 _atom_site_occupancy
  Mg  Mg0  1  0.30918700  0.30918700  0.09736300  1
  Ti  Ti0  1  0.11165500  0.11165500  0.69108800  1
  Ti  Ti1  1  0.51323300  0.51323300  0.49958600  1
  Nb  Nb0  1  0.70212300  0.70212300  0.90267200  1
  Nb  Nb1  1  0.90991600  0.90991600  0.29500000  1
  Pb  Pb0  1  0.02579000  0.02579000  0.98156600  1
  Pb  Pb1  1  0.42865800  0.42865800  0.79308300  1
  Pb  Pb2  1  0.83072600  0.83072600  0.59265100  1
  Pb  Pb3  1  0.23145200  0.23145200  0.39063500  1
  Pb  Pb4  1  0.62951100  0.62951100  0.18140000  1
  O  O0  1  0.68060800  0.68060800  0.41213900  1
  O  O1  1  0.27941900  0.27941900  0.60579300  1
  O  O2  1  0.88216900  0.88216900  0.80364500  1
  O  O3  1  0.50044800  0.50044800  0.99403700  1
  O  O4  1  0.08667900  0.08667900  0.20783400  1
  O  O5  1  0.58620300  0.07499300  0.21567900  1
  O  O6  1  0.18170100  0.67622200  0.41353500  1
  O  O7  1  0.77935500  0.27912900  0.60755400  1
  O  O8  1  0.37474800  0.88587700  0.80224600  1
  O  O9  1  0.98203800  0.48517800  0.00498600  1
  O  O10  1  0.07499300  0.58620300  0.21567900  1
  O  O11  1  0.67622200  0.18170100  0.41353500  1
  O  O12  1  0.27912900  0.77935500  0.60755400  1
  O  O13  1  0.88587700  0.37474800  0.80224600  1
  O  O14  1  0.48517800  0.98203800  0.00498600  1
loop_
_geom_bond_atom_site_label_1
_geom_bond_atom_site_label_2
_geom_bond_distance
_geom_bond_site_symmetry_2
Mg0 O3 2.058194 1_554
Mg0 O9 2.070036 1_455
Mg0 O14 2.070036 1_545
Mg0 O10 2.085703 1_555
Mg0 O5 2.085703 1_555
Mg0 O4 2.351274 1_555
Nb0 O2 1.945866 1_555
Nb0 O9 1.952110 1_556
Nb0 O14 1.952110 1_556
Nb0 O3 2.096943 1_555
Nb0 O13 2.129178 1_555
Nb0 O8 2.129178 1_555
Nb1 O4 1.865416 1_665
Nb1 O10 1.965228 1_655
Nb1 O5 1.965228 1_565
Nb1 O11 2.070040 1_565
Nb1 O6 2.070040 1_655
Nb1 O0 2.437150 1_555
O0 Ti1 1.787500 1_555
O1 Ti0 1.781289 1_555
O1 Ti1 2.432137 1_555
O1 Pb3 2.761681 1_555
O2 Ti0 2.419311 1_665
O2 Pb2 2.726380 1_555
O3 Pb1 2.700506 1_555
O5 Pb3 2.572730 1_555
O5 Pb4 2.588267 1_545
O6 Ti1 2.051917 1_555
O6 Pb3 2.522733 1_555
O6 Pb2 2.599070 1_455
O7 Ti1 1.962091 1_555
O7 Ti0 2.033804 1_655
O7 Pb2 2.512623 1_545
O7 Pb1 2.653883 1_555
O8 Ti0 1.972680 1_565
O8 Pb1 2.540102 1_555
O8 Pb0 2.588371 1_565
O9 Pb4 2.573689 1_555
O9 Pb0 2.625169 1_654
O10 Pb3 2.572730 1_555
O10 Pb4 2.588267 1_455
O11 Ti1 2.051917 1_555
O11 Pb3 2.522733 1_555
O11 Pb2 2.599070 1_545
O12 Ti1 1.962091 1_555
O12 Ti0 2.033804 1_565
O12 Pb2 2.512623 1_455
O12 Pb1 2.653883 1_555
O13 Ti0 1.972680 1_655
O13 Pb1 2.540102 1_555
O13 Pb0 2.588371 1_655
O14 Pb4 2.573689 1_555
O14 Pb0 2.625169 1_564
