# generated using pymatgen
data_Te4Mo3W(SeS)2
_symmetry_space_group_name_H-M   'P 1'
_cell_length_a   3.39917980
_cell_length_b   3.39917980
_cell_length_c   38.70084200
_cell_angle_alpha   90.00000000
_cell_angle_beta   90.00000000
_cell_angle_gamma   119.99999609
_symmetry_Int_Tables_number   1
_chemical_formula_structural   Te4Mo3W(SeS)2
_chemical_formula_sum   'Te4 Mo3 W1 Se2 S2'
_cell_volume   387.25705370
_cell_formula_units_Z   1
loop_
 _symmetry_equiv_pos_site_id
 _symmetry_equiv_pos_as_xyz
  1  'x, y, z'
loop_
 _atom_site_type_symbol
 _atom_site_label
 _atom_site_symmetry_multiplicity
 _atom_site_fract_x
 _atom_site_fract_y
 _atom_site_fract_z
 _atom_site_occupancy
  Te  Te0  1  0.33333300  0.66666700  0.33022300  1
  Te  Te1  1  0.33333300  0.66666700  0.70619300  1
  Te  Te2  1  0.33333300  0.66666700  0.23341200  1
  Te  Te3  1  0.33333300  0.66666700  0.60884900  1
  Mo  Mo0  1  0.33333300  0.66666700  0.09390400  1
  Mo  Mo1  1  0.33333300  0.66666700  0.46965300  1
  Mo  Mo2  1  0.66666700  0.33333300  0.28181800  1
  W  W0  1  0.66666700  0.33333300  0.65754100  1
  Se  Se0  1  0.66666700  0.33333300  0.05129300  1
  Se  Se1  1  0.66666700  0.33333300  0.13654400  1
  S  S0  1  0.66666700  0.33333300  0.43083100  1
  S  S1  1  0.66666700  0.33333300  0.50848600  1
loop_
_geom_bond_atom_site_label_1
_geom_bond_atom_site_label_2
_geom_bond_distance
_geom_bond_site_symmetry_2
Te1 W0 2.719684 1_455
Te1 W0 2.719684 1_565
Te1 W0 2.719688 1_555
Te3 W0 2.720756 1_455
Te3 W0 2.720756 1_565
Te3 W0 2.720760 1_555
Mo0 Se0 2.563384 1_455
Mo0 Se0 2.563384 1_565
Mo0 Se0 2.563388 1_555
Mo0 Se1 2.564106 1_455
Mo0 Se1 2.564106 1_565
Mo0 Se1 2.564110 1_555
Mo1 S0 2.471600 1_455
Mo1 S0 2.471600 1_565
Mo1 S0 2.471604 1_555
Mo1 S1 2.471859 1_455
Mo1 S1 2.471859 1_565
Mo1 S1 2.471863 1_555
Mo2 Te0 2.713075 1_545
Mo2 Te0 2.713075 1_655
Mo2 Te0 2.713079 1_555
Mo2 Te2 2.713101 1_545
Mo2 Te2 2.713101 1_655
Mo2 Te2 2.713105 1_555
