# generated using pymatgen
data_DyTmMn4
_symmetry_space_group_name_H-M   'P 1'
_cell_length_a   5.09112626
_cell_length_b   5.08786300
_cell_length_c   8.35579602
_cell_angle_alpha   90.00000000
_cell_angle_beta   90.00640323
_cell_angle_gamma   60.02119438
_symmetry_Int_Tables_number   1
_chemical_formula_structural   DyTmMn4
_chemical_formula_sum   'Dy2 Tm2 Mn8'
_cell_volume   187.48237483
_cell_formula_units_Z   2
loop_
 _symmetry_equiv_pos_site_id
 _symmetry_equiv_pos_as_xyz
  1  'x, y, z'
loop_
 _atom_site_type_symbol
 _atom_site_label
 _atom_site_symmetry_multiplicity
 _atom_site_fract_x
 _atom_site_fract_y
 _atom_site_fract_z
 _atom_site_occupancy
  Dy  Dy0  1  0.33335500  0.33332200  0.56339000  1
  Dy  Dy1  1  0.66664500  0.66667800  0.43661000  1
  Tm  Tm0  1  0.66666400  0.66666800  0.06235600  1
  Tm  Tm1  1  0.33333600  0.33333200  0.93764400  1
  Mn  Mn0  1  0.00000000  0.00000000  0.50000000  1
  Mn  Mn1  1  0.00000000  0.00000000  0.00000000  1
  Mn  Mn2  1  0.83147900  0.33722000  0.75255400  1
  Mn  Mn3  1  0.33720400  0.83139800  0.75248000  1
  Mn  Mn4  1  0.83147900  0.83130100  0.75255400  1
  Mn  Mn5  1  0.16852100  0.66278000  0.24744600  1
  Mn  Mn6  1  0.66279600  0.16860200  0.24752000  1
  Mn  Mn7  1  0.16852100  0.16869900  0.24744600  1
loop_
_geom_bond_atom_site_label_1
_geom_bond_atom_site_label_2
_geom_bond_distance
_geom_bond_site_symmetry_2
Dy0 Mn0 2.985481 1_555
Dy0 Mn0 2.985485 1_565
Dy0 Mn0 2.987296 1_655
Dy0 Mn3 2.994703 1_545
Dy0 Mn3 2.994708 1_555
Dy0 Mn2 2.996266 1_455
Dy0 Mn4 2.996268 1_455
Dy0 Mn4 2.996573 1_545
Dy0 Mn2 2.996575 1_555
Dy0 Mn7 3.012828 1_555
Dy0 Mn5 3.012830 1_555
Dy0 Mn6 3.012947 1_555
Dy0 Dy1 3.123220 1_545
Dy0 Dy1 3.123229 1_555
Dy0 Dy1 3.125073 1_455
Dy0 Tm1 3.127190 1_555
Dy1 Mn0 2.985481 1_665
Dy1 Mn0 2.985485 1_655
Dy1 Mn0 2.987296 1_565
Dy1 Mn6 2.994703 1_565
Dy1 Mn6 2.994708 1_555
Dy1 Mn5 2.996266 1_655
Dy1 Mn7 2.996268 1_655
Dy1 Mn7 2.996573 1_565
Dy1 Mn5 2.996575 1_555
Dy1 Mn4 3.012828 1_555
Dy1 Mn2 3.012830 1_555
Dy1 Mn3 3.012947 1_555
Dy1 Tm0 3.127190 1_555
Tm0 Tm1 3.117357 1_564
Tm0 Tm1 3.117357 1_554
Tm0 Tm1 3.119356 1_654
Mn0 Mn3 2.580943 1_545
Mn0 Mn6 2.580943 1_455
Mn0 Mn5 2.581175 1_545
Mn0 Mn2 2.581175 1_455
Mn0 Mn4 2.581175 1_445
Mn0 Mn7 2.581175 1_555
Mn1 Mn5 2.546241 1_545
Mn1 Mn2 2.546241 1_454
Mn1 Mn7 2.546242 1_555
Mn1 Mn4 2.546242 1_444
Mn1 Mn3 2.547492 1_544
Mn1 Mn6 2.547492 1_455
Mn1 Tm0 2.983988 1_455
Mn1 Tm1 2.983988 1_544
Mn1 Tm1 2.983988 1_554
Mn1 Tm0 2.983988 1_445
Mn1 Tm0 2.985726 1_545
Mn1 Tm1 2.985726 1_454
Mn2 Mn4 2.513816 1_555
Mn2 Mn3 2.516170 1_555
Mn2 Mn4 2.574047 1_545
Mn2 Mn3 2.574956 1_645
Mn2 Tm0 2.968107 1_556
Mn2 Tm1 2.978087 1_655
Mn2 Tm1 2.979118 1_555
Mn3 Mn4 2.516170 1_555
Mn3 Mn4 2.574957 1_455
Mn3 Tm0 2.968882 1_556
Mn3 Tm1 2.977531 1_565
Mn3 Tm1 2.977531 1_555
Mn4 Tm0 2.968107 1_556
Mn4 Tm1 2.978087 1_655
Mn4 Tm1 2.979118 1_565
Mn5 Mn7 2.513816 1_555
Mn5 Mn6 2.516170 1_555
Mn5 Mn7 2.574047 1_565
Mn5 Mn6 2.574956 1_465
Mn5 Tm1 2.968107 1_554
Mn5 Tm0 2.978087 1_455
Mn5 Tm0 2.979118 1_555
Mn6 Mn7 2.516170 1_555
Mn6 Mn7 2.574957 1_655
Mn6 Tm1 2.968882 1_554
Mn6 Tm0 2.977531 1_545
Mn6 Tm0 2.977531 1_555
Mn7 Tm1 2.968107 1_554
Mn7 Tm0 2.978087 1_455
Mn7 Tm0 2.979118 1_545
