# generated using pymatgen
data_Zn2Ni21B20
_symmetry_space_group_name_H-M   'P 1'
_cell_length_a   8.76270541
_cell_length_b   8.76270541
_cell_length_c   8.76270541
_cell_angle_alpha   131.53157093
_cell_angle_beta   131.53157093
_cell_angle_gamma   70.96987350
_symmetry_Int_Tables_number   1
_chemical_formula_structural   Zn2Ni21B20
_chemical_formula_sum   'Zn2 Ni21 B20'
_cell_volume   369.23250342
_cell_formula_units_Z   1
loop_
 _symmetry_equiv_pos_site_id
 _symmetry_equiv_pos_as_xyz
  1  'x, y, z'
loop_
 _atom_site_type_symbol
 _atom_site_label
 _atom_site_symmetry_multiplicity
 _atom_site_fract_x
 _atom_site_fract_y
 _atom_site_fract_z
 _atom_site_occupancy
  Zn  Zn0  1  0.80956400  0.80956400  0.00000000  1
  Zn  Zn1  1  0.19043600  0.19043600  0.00000000  1
  Ni  Ni0  1  0.89925100  0.19817600  0.29892500  1
  Ni  Ni1  1  0.89925100  0.60032600  0.70107500  1
  Ni  Ni2  1  0.19817600  0.89925100  0.29892500  1
  Ni  Ni3  1  0.60032600  0.89925100  0.70107500  1
  Ni  Ni4  1  0.10074900  0.80182400  0.70107500  1
  Ni  Ni5  1  0.10074900  0.39967400  0.29892500  1
  Ni  Ni6  1  0.80182400  0.10074900  0.70107500  1
  Ni  Ni7  1  0.39967400  0.10074900  0.29892500  1
  Ni  Ni8  1  0.23984700  0.50000000  0.73984700  1
  Ni  Ni9  1  0.76015300  0.50000000  0.26015300  1
  Ni  Ni10  1  0.50000000  0.76015300  0.26015300  1
  Ni  Ni11  1  0.50000000  0.23984700  0.73984700  1
  Ni  Ni12  1  0.00000000  0.00000000  0.50000000  1
  Ni  Ni13  1  0.50000000  0.50000000  0.50000000  1
  Ni  Ni14  1  0.00000000  0.50000000  0.00000000  1
  Ni  Ni15  1  0.50000000  0.00000000  0.00000000  1
  Ni  Ni16  1  0.75000000  0.25000000  0.50000000  1
  Ni  Ni17  1  0.25000000  0.75000000  0.50000000  1
  Ni  Ni18  1  0.00000000  0.00000000  0.00000000  1
  Ni  Ni19  1  0.63829600  0.63829600  0.00000000  1
  Ni  Ni20  1  0.36170400  0.36170400  0.00000000  1
  B  B0  1  0.65388200  0.95299600  0.29911300  1
  B  B1  1  0.65388200  0.35476900  0.70088700  1
  B  B2  1  0.95299600  0.65388200  0.29911300  1
  B  B3  1  0.35476900  0.65388200  0.70088700  1
  B  B4  1  0.34611800  0.04700400  0.70088700  1
  B  B5  1  0.34611800  0.64523100  0.29911300  1
  B  B6  1  0.04700400  0.34611800  0.70088700  1
  B  B7  1  0.64523100  0.34611800  0.29911300  1
  B  B8  1  0.18844000  0.18844000  0.58865000  1
  B  B9  1  0.59979000  0.59979000  0.41135000  1
  B  B10  1  0.18844000  0.59979000  0.00000000  1
  B  B11  1  0.59979000  0.18844000  0.00000000  1
  B  B12  1  0.81156000  0.81156000  0.41135000  1
  B  B13  1  0.40021000  0.40021000  0.58865000  1
  B  B14  1  0.81156000  0.40021000  0.00000000  1
  B  B15  1  0.40021000  0.81156000  0.00000000  1
  B  B16  1  0.20281900  0.20281900  0.40563800  1
  B  B17  1  0.79718100  0.79718100  0.59436200  1
  B  B18  1  0.20281900  0.79718100  0.00000000  1
  B  B19  1  0.79718100  0.20281900  0.00000000  1
loop_
_geom_bond_atom_site_label_1
_geom_bond_atom_site_label_2
_geom_bond_distance
_geom_bond_site_symmetry_2
Ni0 Zn0 2.502413 1_545
Ni1 Zn0 2.502413 1_556
Ni2 Zn0 2.502413 1_455
Ni3 Zn0 2.502413 1_556
Ni4 Zn1 2.502413 1_566
Ni5 Zn1 2.502413 1_555
Ni6 Zn1 2.502413 1_656
Ni7 Zn1 2.502413 1_555
Ni12 Zn1 2.681606 1_556
Ni12 Zn0 2.681606 1_445
Ni13 Zn0 2.681606 1_556
Ni13 Zn1 2.681606 1_555
Ni14 Zn1 2.681606 1_555
Ni14 Zn0 2.681606 1_455
Ni15 Zn0 2.681606 1_545
Ni15 Zn1 2.681606 1_555
Ni18 Zn1 2.717595 1_555
Ni18 Zn0 2.717595 1_445
Ni19 Zn0 2.444060 1_555
Ni20 Zn1 2.444060 1_555
B0 B15 1.763517 1_555
B0 B12 1.763523 1_555
B0 Ni16 1.992409 1_565
B0 Ni19 2.163173 1_555
B0 Ni7 2.180702 1_565
B0 Ni6 2.180706 1_565
B0 Ni10 2.213775 1_555
B0 Ni15 2.289202 1_565
B0 Ni12 2.289207 1_665
B1 B13 1.763516 1_555
B1 B14 1.763516 1_556
B1 Ni16 1.992416 1_555
B1 Ni19 2.163168 1_556
B1 Ni7 2.180704 1_555
B1 Ni6 2.180704 1_555
B1 Ni11 2.213768 1_555
B1 Ni13 2.289208 1_555
B1 Ni14 2.289208 1_656
B2 Ni17 1.992409 1_655
B2 Ni19 2.163173 1_555
B2 Ni5 2.180702 1_655
B2 Ni4 2.180706 1_655
B2 Ni9 2.213775 1_555
B2 Ni14 2.289202 1_655
B2 Ni12 2.289207 1_665
B3 Ni17 1.992416 1_555
B3 Ni19 2.163168 1_556
B3 Ni5 2.180704 1_555
B3 Ni4 2.180704 1_555
B3 Ni8 2.213768 1_555
B3 Ni13 2.289208 1_555
B3 Ni15 2.289208 1_566
B4 B8 1.763523 1_555
B4 Ni17 1.992409 1_545
B4 Ni20 2.163173 1_556
B4 Ni3 2.180702 1_545
B4 Ni2 2.180706 1_545
B4 Ni11 2.213775 1_555
B4 Ni15 2.289202 1_556
B4 Ni12 2.289207 1_555
B5 B9 1.763516 1_555
B5 Ni17 1.992416 1_555
B5 Ni20 2.163168 1_555
B5 Ni2 2.180704 1_555
B5 Ni3 2.180704 1_555
B5 Ni10 2.213768 1_555
B5 Ni14 2.289208 1_555
B5 Ni13 2.289208 1_555
B6 B8 1.763523 1_555
B6 Ni16 1.992409 1_455
B6 Ni20 2.163173 1_556
B6 Ni1 2.180702 1_455
B6 Ni0 2.180706 1_455
B6 Ni8 2.213775 1_555
B6 Ni14 2.289202 1_556
B6 Ni12 2.289207 1_555
B7 B9 1.763516 1_555
B7 Ni16 1.992416 1_555
B7 Ni20 2.163168 1_555
B7 Ni0 2.180704 1_555
B7 Ni1 2.180704 1_555
B7 Ni9 2.213768 1_555
B7 Ni15 2.289208 1_555
B7 Ni13 2.289208 1_555
B8 Ni12 2.105432 1_555
B8 Ni0 2.118787 1_455
B8 Ni2 2.118787 1_545
B8 Ni20 2.142904 1_556
B8 Ni8 2.150772 1_555
B8 Ni11 2.150772 1_555
B9 Ni13 2.105432 1_555
B9 Ni3 2.118787 1_555
B9 Ni1 2.118787 1_555
B9 Ni20 2.142904 1_555
B9 Ni9 2.150772 1_555
B9 Ni10 2.150772 1_555
B10 B5 1.763516 1_555
B10 B6 1.763517 1_554
B10 B18 1.774765 1_555
B10 Ni14 2.105432 1_555
B10 Ni2 2.118787 1_555
B10 Ni1 2.118787 1_454
B10 Ni20 2.142904 1_555
B10 Ni8 2.150772 1_554
B10 Ni10 2.150772 1_555
B11 B7 1.763516 1_555
B11 B4 1.763517 1_554
B11 B19 1.774765 1_555
B11 Ni15 2.105432 1_555
B11 Ni0 2.118787 1_555
B11 Ni3 2.118787 1_544
B11 Ni20 2.142904 1_555
B11 Ni9 2.150772 1_555
B11 Ni11 2.150772 1_554
B12 B2 1.763523 1_555
B12 B17 1.774765 1_555
B12 Ni12 2.105432 1_665
B12 Ni4 2.118787 1_655
B12 Ni6 2.118787 1_565
B12 Ni19 2.142904 1_555
B12 Ni10 2.150772 1_555
B12 Ni9 2.150772 1_555
B13 B3 1.763516 1_555
B13 B16 1.774765 1_555
B13 Ni13 2.105432 1_555
B13 Ni7 2.118787 1_555
B13 Ni5 2.118787 1_555
B13 Ni19 2.142904 1_556
B13 Ni11 2.150772 1_555
B13 Ni8 2.150772 1_555
B14 B2 1.763517 1_555
B14 B19 1.774765 1_555
B14 Ni14 2.105432 1_655
B14 Ni5 2.118787 1_655
B14 Ni6 2.118787 1_554
B14 Ni19 2.142904 1_555
B14 Ni9 2.150772 1_555
B14 Ni11 2.150772 1_554
B15 B3 1.763516 1_554
B15 B18 1.774765 1_555
B15 Ni15 2.105432 1_565
B15 Ni7 2.118787 1_565
B15 Ni4 2.118787 1_554
B15 Ni19 2.142904 1_555
B15 Ni10 2.150772 1_555
B15 Ni8 2.150772 1_554
B16 B8 1.774765 1_555
B16 Ni18 2.063340 1_555
B16 Ni11 2.154336 1_555
B16 Ni8 2.154336 1_555
B16 Ni5 2.161876 1_555
B16 Ni7 2.161876 1_555
B16 Ni0 2.161876 1_455
B16 Ni2 2.161876 1_545
B17 B9 1.774765 1_555
B17 Ni18 2.063340 1_666
B17 Ni10 2.154336 1_555
B17 Ni9 2.154336 1_555
B17 Ni3 2.161876 1_555
B17 Ni1 2.161876 1_555
B17 Ni6 2.161876 1_565
B17 Ni4 2.161876 1_655
B18 Ni18 2.063340 1_565
B18 Ni10 2.154336 1_555
B18 Ni8 2.154336 1_554
B18 Ni2 2.161876 1_555
B18 Ni7 2.161876 1_565
B18 Ni1 2.161876 1_454
B18 Ni4 2.161876 1_554
B19 Ni18 2.063340 1_655
B19 Ni9 2.154336 1_555
B19 Ni11 2.154336 1_554
B19 Ni5 2.161876 1_655
B19 Ni0 2.161876 1_555
B19 Ni3 2.161876 1_544
B19 Ni6 2.161876 1_554
