# generated using pymatgen
data_Nb5(GeN3)3
_symmetry_space_group_name_H-M   'P 1'
_cell_length_a   6.82887889
_cell_length_b   10.49162930
_cell_length_c   20.80048773
_cell_angle_alpha   90.00000000
_cell_angle_beta   90.00000000
_cell_angle_gamma   140.19082071
_symmetry_Int_Tables_number   1
_chemical_formula_structural   Nb5(GeN3)3
_chemical_formula_sum   'Nb20 Ge12 N36'
_cell_volume   954.12169406
_cell_formula_units_Z   4
loop_
 _symmetry_equiv_pos_site_id
 _symmetry_equiv_pos_as_xyz
  1  'x, y, z'
loop_
 _atom_site_type_symbol
 _atom_site_label
 _atom_site_symmetry_multiplicity
 _atom_site_fract_x
 _atom_site_fract_y
 _atom_site_fract_z
 _atom_site_occupancy
  Nb  Nb0  1  0.00000000  0.45645939  0.86091260  1
  Nb  Nb1  1  1.00000000  0.54354061  0.13908740  1
  Nb  Nb2  1  1.00000000  0.04354061  0.36091260  1
  Nb  Nb3  1  0.00000000  0.95645939  0.63908740  1
  Nb  Nb4  1  0.32508387  0.85453623  0.89236625  1
  Nb  Nb5  1  0.32508387  0.47054763  0.10763375  1
  Nb  Nb6  1  0.32508387  0.97054763  0.39236625  1
  Nb  Nb7  1  0.32508387  0.35453623  0.60763375  1
  Nb  Nb8  1  0.67491613  0.14546377  0.10763375  1
  Nb  Nb9  1  0.67491613  0.52945237  0.89236625  1
  Nb  Nb10  1  0.67491613  0.02945237  0.60763375  1
  Nb  Nb11  1  0.67491613  0.64546377  0.39236625  1
  Nb  Nb12  1  0.00000000  0.44105545  0.59267057  1
  Nb  Nb13  1  1.00000000  0.55894455  0.40732943  1
  Nb  Nb14  1  1.00000000  0.05894455  0.09267057  1
  Nb  Nb15  1  0.00000000  0.94105545  0.90732943  1
  Nb  Nb16  1  0.58938966  0.29469433  -0.00000000  1
  Nb  Nb17  1  0.58938966  0.79469433  0.50000000  1
  Nb  Nb18  1  0.41061034  0.70530567  -0.00000000  1
  Nb  Nb19  1  0.41061034  0.20530567  0.50000000  1
  Ge  Ge0  1  0.00000000  0.76778633  0.06784703  1
  Ge  Ge1  1  1.00000000  0.23221367  0.93215297  1
  Ge  Ge2  1  1.00000000  0.73221367  0.56784703  1
  Ge  Ge3  1  0.00000000  0.26778633  0.43215297  1
  Ge  Ge4  1  1.00000000  0.18649338  0.74397185  1
  Ge  Ge5  1  0.00000000  0.81350662  0.25602815  1
  Ge  Ge6  1  0.00000000  0.31350662  0.24397185  1
  Ge  Ge7  1  1.00000000  0.68649338  0.75602815  1
  Ge  Ge8  1  0.50000000  0.69413215  0.75000000  1
  Ge  Ge9  1  0.50000000  0.80586785  0.25000000  1
  Ge  Ge10  1  0.50000000  0.30586785  0.25000000  1
  Ge  Ge11  1  0.50000000  0.19413215  0.75000000  1
  N  N0  1  1.00000000  0.31145274  0.66590648  1
  N  N1  1  0.00000000  0.68854726  0.33409352  1
  N  N2  1  0.00000000  0.18854726  0.16590648  1
  N  N3  1  1.00000000  0.81145274  0.83409352  1
  N  N4  1  1.00000000  0.27806148  0.83666413  1
  N  N5  1  0.00000000  0.72193852  0.16333587  1
  N  N6  1  0.00000000  0.22193852  0.33666413  1
  N  N7  1  1.00000000  0.77806148  0.66333587  1
  N  N8  1  0.67843917  0.40067721  0.81071648  1
  N  N9  1  0.67843917  0.27776196  0.18928352  1
  N  N10  1  0.67843917  0.77776196  0.31071648  1
  N  N11  1  0.67843917  0.90067721  0.68928352  1
  N  N12  1  0.32156083  0.59932279  0.18928352  1
  N  N13  1  0.32156083  0.72223804  0.81071648  1
  N  N14  1  0.32156083  0.22223804  0.68928352  1
  N  N15  1  0.32156083  0.09932279  0.31071648  1
  N  N16  1  0.39530902  0.05481394  0.94179160  1
  N  N17  1  0.39530902  0.34049508  0.05820840  1
  N  N18  1  0.39530902  0.84049508  0.44179160  1
  N  N19  1  0.39530902  0.55481394  0.55820840  1
  N  N20  1  0.60469098  0.94518606  0.05820840  1
  N  N21  1  0.60469098  0.65950492  0.94179160  1
  N  N22  1  0.60469098  0.15950492  0.55820840  1
  N  N23  1  0.60469098  0.44518606  0.44179160  1
  N  N24  1  0.30134980  0.05177750  0.07259581  1
  N  N25  1  0.30134980  0.24957230  0.92740419  1
  N  N26  1  0.30134980  0.74957230  0.57259581  1
  N  N27  1  0.30134980  0.55177750  0.42740419  1
  N  N28  1  0.69865020  0.94822250  0.92740419  1
  N  N29  1  0.69865020  0.75042770  0.07259581  1
  N  N30  1  0.69865020  0.25042770  0.42740419  1
  N  N31  1  0.69865020  0.44822250  0.57259581  1
  N  N32  1  1.00000000  0.58902337  0.94625715  1
  N  N33  1  0.00000000  0.41097663  0.05374285  1
  N  N34  1  0.00000000  0.91097663  0.44625715  1
  N  N35  1  1.00000000  0.08902337  0.55374285  1
loop_
_geom_bond_atom_site_label_1
_geom_bond_atom_site_label_2
_geom_bond_distance
_geom_bond_site_symmetry_2
Ge0 N24 1.924058 1_565
Ge0 N29 1.924058 1_455
Ge0 N5 2.043631 1_555
Ge1 N28 1.924058 1_545
Ge1 N25 1.924058 1_655
Ge1 N4 2.043631 1_555
Ge2 N31 1.924058 1_555
Ge2 N26 1.924058 1_655
Ge2 N7 2.043631 1_555
Ge3 N27 1.924058 1_555
Ge3 N30 1.924058 1_455
Ge3 N6 2.043631 1_555
Ge4 N0 2.086986 1_555
Ge4 N4 2.154135 1_555
Ge4 N11 2.234149 1_545
Ge4 N14 2.234149 1_655
Ge5 N1 2.086986 1_555
Ge5 N5 2.154135 1_555
Ge5 N15 2.234149 1_565
Ge5 N10 2.234149 1_455
Ge6 N2 2.086986 1_555
Ge6 N6 2.154135 1_555
Ge6 N12 2.234149 1_555
Ge6 N9 2.234149 1_455
Ge7 N3 2.086986 1_555
Ge7 N7 2.154135 1_555
Ge7 N8 2.234149 1_555
Ge7 N13 2.234149 1_655
Ge8 N11 1.928427 1_555
Ge8 N13 1.928427 1_555
Ge9 N12 1.928427 1_555
Ge9 N10 1.928427 1_555
Ge10 N15 1.928427 1_555
Ge10 N9 1.928427 1_555
Ge11 N8 1.928427 1_555
Ge11 N14 1.928427 1_555
N0 Nb12 2.041929 1_655
N0 Nb10 2.249455 1_555
N0 Nb7 2.249456 1_655
N1 Nb13 2.041929 1_455
N1 Nb6 2.249455 1_555
N1 Nb11 2.249456 1_455
N2 Nb14 2.041929 1_455
N2 Nb5 2.249455 1_555
N2 Nb8 2.249456 1_455
N3 Nb15 2.041929 1_655
N3 Nb9 2.249455 1_555
N3 Nb4 2.249456 1_655
N4 Nb0 1.938454 1_655
N5 Nb1 1.938454 1_455
N6 Nb2 1.938454 1_455
N7 Nb3 1.938454 1_655
N8 Nb0 2.068864 1_655
N8 Nb9 2.181810 1_555
N9 Nb1 2.068864 1_555
N9 Nb8 2.181810 1_555
N10 Nb2 2.068864 1_565
N10 Nb11 2.181810 1_555
N11 Nb3 2.068864 1_655
N11 Nb10 2.181810 1_565
N12 Nb1 2.068864 1_455
N12 Nb5 2.181810 1_555
N13 Nb0 2.068864 1_555
N13 Nb4 2.181810 1_555
N14 Nb3 2.068864 1_545
N14 Nb7 2.181810 1_555
N15 Nb2 2.068864 1_455
N15 Nb6 2.181810 1_545
N16 Nb4 2.038129 1_545
N16 Nb15 2.067776 1_545
N16 Nb16 2.105192 1_556
N17 Nb5 2.038129 1_555
N17 Nb14 2.067776 1_455
N17 Nb16 2.105200 1_555
N18 Nb6 2.038129 1_555
N18 Nb13 2.067776 1_455
N18 Nb17 2.105200 1_555
N19 Nb7 2.038129 1_555
N19 Nb12 2.067776 1_555
N19 Nb17 2.105192 1_555
N20 Nb8 2.038129 1_565
N20 Nb14 2.067776 1_565
N20 Nb18 2.105192 1_555
N21 Nb9 2.038129 1_555
N21 Nb15 2.067776 1_655
N21 Nb18 2.105200 1_556
N22 Nb10 2.038129 1_555
N22 Nb12 2.067776 1_655
N22 Nb19 2.105200 1_555
N23 Nb11 2.038129 1_555
N23 Nb13 2.067776 1_555
N23 Nb19 2.105192 1_555
N24 Nb8 2.037820 1_555
N24 Nb14 2.156995 1_455
N24 Nb16 2.223217 1_555
N25 Nb9 2.037820 1_555
N25 Nb15 2.156995 1_545
N25 Nb16 2.223222 1_556
N26 Nb10 2.037820 1_565
N26 Nb12 2.156995 1_555
N26 Nb17 2.223222 1_555
N27 Nb11 2.037820 1_555
N27 Nb13 2.156995 1_455
N27 Nb17 2.223217 1_555
N28 Nb4 2.037820 1_555
N28 Nb15 2.156995 1_655
N28 Nb18 2.223217 1_556
N29 Nb5 2.037820 1_555
N29 Nb14 2.156995 1_565
N29 Nb18 2.223222 1_555
N30 Nb6 2.037820 1_545
N30 Nb13 2.156995 1_555
N30 Nb19 2.223222 1_555
N31 Nb7 2.037820 1_555
N31 Nb12 2.156995 1_655
N31 Nb19 2.223217 1_555
N32 Nb4 2.108015 1_655
N32 Nb9 2.108016 1_555
N32 Nb0 2.255155 1_655
N32 Nb18 2.311883 1_656
N32 Nb16 2.311888 1_556
N33 Nb8 2.108015 1_455
N33 Nb5 2.108016 1_555
N33 Nb1 2.255155 1_455
N33 Nb16 2.311883 1_455
N33 Nb18 2.311888 1_555
N34 Nb11 2.108015 1_455
N34 Nb6 2.108016 1_555
N34 Nb2 2.255155 1_465
N34 Nb17 2.311883 1_455
N34 Nb19 2.311888 1_565
N35 Nb7 2.108015 1_655
N35 Nb10 2.108016 1_555
N35 Nb3 2.255155 1_645
N35 Nb19 2.311883 1_655
N35 Nb17 2.311888 1_545
