# generated using pymatgen
data_ErInCu4
_symmetry_space_group_name_H-M   'P 1'
_cell_length_a   5.04586042
_cell_length_b   5.04586042
_cell_length_c   5.04586042
_cell_angle_alpha   60.00000000
_cell_angle_beta   60.00000000
_cell_angle_gamma   60.00000000
_symmetry_Int_Tables_number   1
_chemical_formula_structural   ErInCu4
_chemical_formula_sum   'Er1 In1 Cu4'
_cell_volume   90.84283948
_cell_formula_units_Z   1
loop_
 _symmetry_equiv_pos_site_id
 _symmetry_equiv_pos_as_xyz
  1  'x, y, z'
loop_
 _atom_site_type_symbol
 _atom_site_label
 _atom_site_symmetry_multiplicity
 _atom_site_fract_x
 _atom_site_fract_y
 _atom_site_fract_z
 _atom_site_occupancy
  Er  Er0  1  0.25000000  0.25000000  0.25000000  1
  In  In0  1  -0.00000000  -0.00000000  -0.00000000  1
  Cu  Cu0  1  0.62519544  0.62519544  0.62519544  1
  Cu  Cu1  1  0.62519544  0.62519544  0.12441168  1
  Cu  Cu2  1  0.62519544  0.12441168  0.62519544  1
  Cu  Cu3  1  0.12441168  0.62519544  0.62519544  1
loop_
_geom_bond_atom_site_label_1
_geom_bond_atom_site_label_2
_geom_bond_distance
_geom_bond_site_symmetry_2
Er0 In0 3.089946 1_565
Er0 In0 3.089946 1_655
Er0 In0 3.089946 1_556
Er0 In0 3.089946 1_555
Cu0 Cu2 2.518975 1_565
Cu0 Cu3 2.518975 1_655
Cu0 Cu1 2.518975 1_556
Cu0 Cu2 2.526885 1_555
Cu0 Cu3 2.526885 1_555
Cu0 Cu1 2.526885 1_555
Cu0 In0 2.957978 1_566
Cu0 In0 2.957978 1_665
Cu0 In0 2.957978 1_656
Cu0 Er0 2.958819 1_655
Cu0 Er0 2.958819 1_556
Cu0 Er0 2.958819 1_565
Cu1 Cu3 2.518975 1_654
Cu1 Cu2 2.518975 1_564
Cu1 Cu2 2.526885 1_555
Cu1 Cu3 2.526885 1_555
Cu1 In0 2.957974 1_565
Cu1 In0 2.957974 1_655
Cu1 In0 2.957983 1_665
Cu1 Er0 2.958815 1_555
Cu1 Er0 2.958824 1_655
Cu1 Er0 2.958824 1_565
Cu2 Cu3 2.518975 1_645
Cu2 Cu3 2.526885 1_555
Cu2 In0 2.957974 1_556
Cu2 In0 2.957974 1_655
Cu2 In0 2.957983 1_656
Cu2 Er0 2.958815 1_555
Cu2 Er0 2.958824 1_556
Cu2 Er0 2.958824 1_655
Cu3 In0 2.957974 1_556
Cu3 In0 2.957974 1_565
Cu3 In0 2.957983 1_566
Cu3 Er0 2.958815 1_555
Cu3 Er0 2.958824 1_556
Cu3 Er0 2.958824 1_565
