# generated using pymatgen
data_RbCaHfF7
_symmetry_space_group_name_H-M   'P 1'
_cell_length_a   6.50660520
_cell_length_b   6.50660520
_cell_length_c   8.49973497
_cell_angle_alpha   90.00000000
_cell_angle_beta   90.00000000
_cell_angle_gamma   116.38615067
_symmetry_Int_Tables_number   1
_chemical_formula_structural   RbCaHfF7
_chemical_formula_sum   'Rb2 Ca2 Hf2 F14'
_cell_volume   322.35519027
_cell_formula_units_Z   2
loop_
 _symmetry_equiv_pos_site_id
 _symmetry_equiv_pos_as_xyz
  1  'x, y, z'
loop_
 _atom_site_type_symbol
 _atom_site_label
 _atom_site_symmetry_multiplicity
 _atom_site_fract_x
 _atom_site_fract_y
 _atom_site_fract_z
 _atom_site_occupancy
  Rb  Rb0  1  -0.00000000  -0.00000000  0.00000000  1
  Rb  Rb1  1  -0.00000000  -0.00000000  0.50000000  1
  Ca  Ca0  1  0.30913625  0.69086375  0.75000000  1
  Ca  Ca1  1  0.69086375  0.30913625  0.25000000  1
  Hf  Hf0  1  0.69504888  0.30495112  0.75000000  1
  Hf  Hf1  1  0.30495112  0.69504888  0.25000000  1
  F  F0  1  0.35147247  0.06656456  0.75000000  1
  F  F1  1  0.64852753  0.93343544  0.25000000  1
  F  F2  1  0.93343544  0.64852753  0.75000000  1
  F  F3  1  0.06656456  0.35147247  0.25000000  1
  F  F4  1  0.51247692  0.48752308  0.75000000  1
  F  F5  1  0.48752308  0.51247692  0.25000000  1
  F  F6  1  0.70429306  0.29570694  0.98483290  1
  F  F7  1  0.29570694  0.70429306  0.01516710  1
  F  F8  1  0.29570694  0.70429306  0.48483290  1
  F  F9  1  0.70429306  0.29570694  0.51516710  1
  F  F10  1  0.67473582  0.97673616  0.75000000  1
  F  F11  1  0.32526418  0.02326384  0.25000000  1
  F  F12  1  0.02326384  0.32526418  0.75000000  1
  F  F13  1  0.97673616  0.67473582  0.25000000  1
loop_
_geom_bond_atom_site_label_1
_geom_bond_atom_site_label_2
_geom_bond_distance
_geom_bond_site_symmetry_2
Ca0 F4 2.248745 1_555
Ca0 F7 2.258738 1_556
Ca0 F8 2.258738 1_555
Ca0 F12 2.277213 1_555
Ca0 F10 2.277213 1_555
Ca0 F0 2.335190 1_565
Ca0 F2 2.335190 1_455
Ca1 F5 2.248745 1_555
Ca1 F6 2.258738 1_554
Ca1 F9 2.258738 1_555
Ca1 F11 2.277213 1_555
Ca1 F13 2.277213 1_555
Ca1 F1 2.335190 1_545
Ca1 F3 2.335190 1_655
F0 Hf0 2.078792 1_555
F0 Rb0 3.008726 1_556
F0 Rb1 3.008726 1_555
F1 Hf1 2.078792 1_555
F1 Rb0 3.008726 1_665
F1 Rb1 3.008726 1_665
F2 Hf0 2.078792 1_555
F2 Rb1 3.008726 1_665
F2 Rb0 3.008726 1_666
F3 Hf1 2.078792 1_555
F3 Rb1 3.008726 1_555
F3 Rb0 3.008726 1_555
F4 Hf0 2.019064 1_555
F5 Hf1 2.019064 1_555
F6 Hf0 1.998634 1_555
F6 Rb0 3.272764 1_656
F7 Hf1 1.998634 1_555
F7 Rb0 3.272764 1_565
F8 Hf1 1.998634 1_555
F8 Rb1 3.272764 1_565
F9 Hf0 1.998634 1_555
F9 Rb1 3.272764 1_655
F10 Hf0 2.080199 1_565
F10 Rb0 2.955084 1_666
F10 Rb1 2.955084 1_665
F11 Hf1 2.080199 1_545
F11 Rb1 2.955084 1_555
F11 Rb0 2.955084 1_555
F12 Hf0 2.080199 1_455
F12 Rb0 2.955084 1_556
F12 Rb1 2.955084 1_555
F13 Hf1 2.080199 1_655
F13 Rb0 2.955084 1_665
F13 Rb1 2.955084 1_665
