# generated using pymatgen
data_Cs3CoCl5
_symmetry_space_group_name_H-M   'P 1'
_cell_length_a   9.76793771
_cell_length_b   9.76793771
_cell_length_c   9.76794165
_cell_angle_alpha   123.15651624
_cell_angle_beta   123.15651624
_cell_angle_gamma   84.61449348
_symmetry_Int_Tables_number   1
_chemical_formula_structural   Cs3CoCl5
_chemical_formula_sum   'Cs6 Co2 Cl10'
_cell_volume   624.55572900
_cell_formula_units_Z   2
loop_
 _symmetry_equiv_pos_site_id
 _symmetry_equiv_pos_as_xyz
  1  'x, y, z'
loop_
 _atom_site_type_symbol
 _atom_site_label
 _atom_site_symmetry_multiplicity
 _atom_site_fract_x
 _atom_site_fract_y
 _atom_site_fract_z
 _atom_site_occupancy
  Cs  Cs0  1  0.75000000  0.75000000  0.00000000  1
  Cs  Cs1  1  0.25000000  0.25000000  0.00000000  1
  Cs  Cs2  1  0.66532358  0.16532358  0.83064716  1
  Cs  Cs3  1  0.33467642  0.83467642  0.16935284  1
  Cs  Cs4  1  0.16532458  0.33467542  0.50000000  1
  Cs  Cs5  1  0.83467542  0.66532458  0.50000000  1
  Co  Co0  1  0.75000000  0.25000000  0.50000000  1
  Co  Co1  1  0.25000000  0.75000000  0.50000000  1
  Cl  Cl0  1  -0.00000000  0.00000000  0.00000000  1
  Cl  Cl1  1  0.50000000  0.50000000  0.00000000  1
  Cl  Cl2  1  0.98038257  0.48038257  0.77549284  1
  Cl  Cl3  1  0.70489073  0.20489073  0.22450716  1
  Cl  Cl4  1  0.48038257  0.70488973  0.50000000  1
  Cl  Cl5  1  0.20488973  0.98038257  0.50000000  1
  Cl  Cl6  1  0.01961743  0.51961743  0.22450716  1
  Cl  Cl7  1  0.29510927  0.79510927  0.77549284  1
  Cl  Cl8  1  0.51961743  0.29511027  0.50000000  1
  Cl  Cl9  1  0.79511027  0.01961743  0.50000000  1
loop_
_geom_bond_atom_site_label_1
_geom_bond_atom_site_label_2
_geom_bond_distance
_geom_bond_site_symmetry_2
Cl0 Cs5 3.470878 1_444
Cl0 Cs4 3.470878 1_555
Cl0 Cs3 3.470880 1_545
Cl0 Cs2 3.470880 1_454
Cl0 Cs0 3.611919 1_445
Cl0 Cs1 3.611919 1_555
Cl1 Cs5 3.470878 1_555
Cl1 Cs4 3.470878 1_554
Cl1 Cs3 3.470880 1_555
Cl1 Cs2 3.470880 1_554
Cl1 Cs1 3.611919 1_555
Cl1 Cs0 3.611919 1_555
Cl2 Co0 2.252146 1_555
Cl2 Cs3 3.445997 1_656
Cl2 Cs4 3.629883 1_655
Cl2 Cs5 3.629883 1_555
Cl2 Cs0 3.844129 1_556
Cl2 Cs1 3.844129 1_656
Cl3 Co0 2.252155 1_555
Cl3 Cs2 3.445988 1_554
Cl3 Cs4 3.629874 1_655
Cl3 Cs5 3.629874 1_555
Cl3 Cs0 3.844134 1_545
Cl3 Cs1 3.844134 1_555
Cl4 Co1 2.252145 1_555
Cl4 Cs5 3.445986 1_555
Cl4 Cs2 3.629876 1_565
Cl4 Cs3 3.629876 1_555
Cl4 Cs1 3.844131 1_555
Cl4 Cs0 3.844131 1_556
Cl5 Co1 2.252145 1_555
Cl5 Cs4 3.445986 1_565
Cl5 Cs3 3.629876 1_555
Cl5 Cs2 3.629876 1_565
Cl5 Cs0 3.844131 1_455
Cl5 Cs1 3.844131 1_566
Cl6 Co1 2.252146 1_555
Cl6 Cs2 3.445997 1_454
Cl6 Cs5 3.629883 1_455
Cl6 Cs4 3.629883 1_555
Cl6 Cs0 3.844129 1_455
Cl6 Cs1 3.844129 1_555
Cl7 Co1 2.252155 1_555
Cl7 Cs3 3.445988 1_556
Cl7 Cs4 3.629874 1_555
Cl7 Cs5 3.629874 1_455
Cl7 Cs0 3.844134 1_556
Cl7 Cs1 3.844134 1_566
Cl8 Co0 2.252145 1_555
Cl8 Cs4 3.445986 1_555
Cl8 Cs2 3.629876 1_555
Cl8 Cs3 3.629876 1_545
Cl8 Cs0 3.844131 1_556
Cl8 Cs1 3.844131 1_555
Cl9 Co0 2.252145 1_555
Cl9 Cs5 3.445986 1_545
Cl9 Cs3 3.629876 1_545
Cl9 Cs2 3.629876 1_555
Cl9 Cs0 3.844131 1_545
Cl9 Cs1 3.844131 1_656
