# generated using pymatgen
data_PuCrO3
_symmetry_space_group_name_H-M   'P 1'
_cell_length_a   5.47280300
_cell_length_b   5.61466000
_cell_length_c   7.81671900
_cell_angle_alpha   90.00000000
_cell_angle_beta   90.00000000
_cell_angle_gamma   90.00000000
_symmetry_Int_Tables_number   1
_chemical_formula_structural   PuCrO3
_chemical_formula_sum   'Pu4 Cr4 O12'
_cell_volume   240.19157935
_cell_formula_units_Z   4
loop_
 _symmetry_equiv_pos_site_id
 _symmetry_equiv_pos_as_xyz
  1  'x, y, z'
loop_
 _atom_site_type_symbol
 _atom_site_label
 _atom_site_symmetry_multiplicity
 _atom_site_fract_x
 _atom_site_fract_y
 _atom_site_fract_z
 _atom_site_occupancy
  Pu  Pu0  1  0.00895400  0.45343000  0.25000000  1
  Pu  Pu1  1  0.99104600  0.54657000  0.75000000  1
  Pu  Pu2  1  0.50895400  0.04657000  0.75000000  1
  Pu  Pu3  1  0.49104600  0.95343000  0.25000000  1
  Cr  Cr0  1  0.00000000  0.00000000  0.00000000  1
  Cr  Cr1  1  0.50000000  0.50000000  0.00000000  1
  Cr  Cr2  1  0.00000000  0.00000000  0.50000000  1
  Cr  Cr3  1  0.50000000  0.50000000  0.50000000  1
  O  O0  1  0.30403900  0.19700700  0.04740400  1
  O  O1  1  0.69596100  0.80299300  0.95259600  1
  O  O2  1  0.80403900  0.30299300  0.95259600  1
  O  O3  1  0.69596100  0.80299300  0.54740400  1
  O  O4  1  0.19596100  0.69700700  0.04740400  1
  O  O5  1  0.30403900  0.19700700  0.45259600  1
  O  O6  1  0.19596100  0.69700700  0.45259600  1
  O  O7  1  0.80403900  0.30299300  0.54740400  1
  O  O8  1  0.59452100  0.53317000  0.25000000  1
  O  O9  1  0.40547900  0.46683000  0.75000000  1
  O  O10  1  0.09452100  0.96683000  0.75000000  1
  O  O11  1  0.90547900  0.03317000  0.25000000  1
loop_
_geom_bond_atom_site_label_1
_geom_bond_atom_site_label_2
_geom_bond_distance
_geom_bond_site_symmetry_2
Cr0 O10 2.030049 1_544
Cr0 O11 2.030049 1_455
Cr0 O0 2.032126 1_555
Cr0 O1 2.032126 1_444
Cr0 O2 2.044885 1_454
Cr0 O4 2.044885 1_545
Cr1 O8 2.030049 1_555
Cr1 O9 2.030049 1_554
Cr1 O4 2.032126 1_555
Cr1 O2 2.032126 1_554
Cr1 O1 2.044885 1_554
Cr1 O0 2.044885 1_555
Cr2 O10 2.030049 1_545
Cr2 O11 2.030049 1_455
Cr2 O5 2.032126 1_555
Cr2 O3 2.032126 1_445
Cr2 O7 2.044885 1_455
Cr2 O6 2.044885 1_545
Cr3 O8 2.030049 1_555
Cr3 O9 2.030049 1_555
Cr3 O6 2.032126 1_555
Cr3 O7 2.032126 1_555
Cr3 O3 2.044885 1_555
Cr3 O5 2.044885 1_555
O0 Pu3 2.329312 1_545
O0 Pu0 2.681186 1_555
O0 Pu2 2.715778 1_554
O1 Pu2 2.329312 1_565
O1 Pu1 2.681186 1_555
O1 Pu3 2.715778 1_556
O2 Pu1 2.329312 1_555
O2 Pu2 2.681186 1_555
O2 Pu0 2.715778 1_656
O3 Pu2 2.329312 1_565
O3 Pu1 2.681186 1_555
O3 Pu3 2.715778 1_555
O4 Pu0 2.329312 1_555
O4 Pu3 2.681186 1_555
O4 Pu1 2.715778 1_454
O5 Pu3 2.329312 1_545
O5 Pu0 2.681186 1_555
O5 Pu2 2.715778 1_555
O6 Pu0 2.329312 1_555
O6 Pu3 2.681186 1_555
O6 Pu1 2.715778 1_455
O7 Pu1 2.329312 1_555
O7 Pu2 2.681186 1_555
O7 Pu0 2.715778 1_655
O8 Pu0 2.311876 1_655
O8 Pu3 2.426620 1_555
O9 Pu1 2.311876 1_455
O9 Pu2 2.426620 1_555
O10 Pu2 2.311876 1_565
O10 Pu1 2.426620 1_455
O11 Pu3 2.311876 1_545
O11 Pu0 2.426620 1_655
