# generated using pymatgen
data_Tb2Co3Ni
_symmetry_space_group_name_H-M   'P 1'
_cell_length_a   4.91845983
_cell_length_b   4.91845983
_cell_length_c   5.25545088
_cell_angle_alpha   90.00000000
_cell_angle_beta   62.09941081
_cell_angle_gamma   120.00000000
_symmetry_Int_Tables_number   1
_chemical_formula_structural   Tb2Co3Ni
_chemical_formula_sum   'Tb2 Co3 Ni1'
_cell_volume   92.64651114
_cell_formula_units_Z   1
loop_
 _symmetry_equiv_pos_site_id
 _symmetry_equiv_pos_as_xyz
  1  'x, y, z'
loop_
 _atom_site_type_symbol
 _atom_site_label
 _atom_site_symmetry_multiplicity
 _atom_site_fract_x
 _atom_site_fract_y
 _atom_site_fract_z
 _atom_site_occupancy
  Tb  Tb0  1  0.51165573  0.75582736  0.73251691  1
  Tb  Tb1  1  0.98834427  0.99417264  0.01748309  1
  Co  Co0  1  0.25000000  0.37500000  0.37500000  1
  Co  Co1  1  0.25000000  0.87500000  0.37500000  1
  Co  Co2  1  0.75000000  0.37500000  0.37500000  1
  Ni  Ni0  1  0.75000000  0.37500000  0.87500000  1
loop_
_geom_bond_atom_site_label_1
_geom_bond_atom_site_label_2
_geom_bond_distance
_geom_bond_site_symmetry_2
Tb0 Tb1 3.106734 1_446
Tb0 Tb1 3.106734 1_556
Tb0 Tb1 3.106741 1_456
Tb0 Tb1 3.162036 1_555
Co0 Co1 2.459230 1_545
Co0 Co2 2.459230 1_455
Co0 Co1 2.459230 1_555
Co0 Co2 2.459230 1_555
Co0 Ni0 2.627725 1_554
Co0 Ni0 2.627725 1_455
Co0 Tb1 2.923599 1_445
Co0 Tb0 2.923599 1_555
Co0 Tb0 2.923599 1_445
Co0 Tb1 2.923599 1_555
Co0 Tb1 3.176216 1_446
Co0 Tb0 3.176216 1_554
Co1 Co2 2.459230 1_565
Co1 Co2 2.459230 1_455
Co1 Ni0 2.627725 1_564
Co1 Ni0 2.627725 1_455
Co1 Tb0 2.923597 1_455
Co1 Tb1 2.923597 1_555
Co1 Tb0 2.923601 1_555
Co1 Tb1 2.923601 1_455
Co1 Tb1 3.176218 1_456
Co1 Tb0 3.176218 1_554
Co2 Ni0 2.627725 1_554
Co2 Ni0 2.627725 1_555
Co2 Tb1 2.923597 1_545
Co2 Tb0 2.923597 1_555
Co2 Tb0 2.923601 1_545
Co2 Tb1 2.923601 1_555
Co2 Tb1 3.176218 1_446
Co2 Tb0 3.176218 1_654
Ni0 Tb1 2.908736 1_546
Ni0 Tb0 2.908736 1_555
Ni0 Tb0 2.908741 1_655
Ni0 Tb0 2.908741 1_545
Ni0 Tb1 2.908741 1_446
Ni0 Tb1 2.908741 1_556
