# generated using pymatgen
data_GdLuIr2
_symmetry_space_group_name_H-M   'P 1'
_cell_length_a   4.79951022
_cell_length_b   4.79951022
_cell_length_c   4.79951022
_cell_angle_alpha   60.00000000
_cell_angle_beta   60.00000000
_cell_angle_gamma   60.00000000
_symmetry_Int_Tables_number   1
_chemical_formula_structural   GdLuIr2
_chemical_formula_sum   'Gd1 Lu1 Ir2'
_cell_volume   78.17641728
_cell_formula_units_Z   1
loop_
 _symmetry_equiv_pos_site_id
 _symmetry_equiv_pos_as_xyz
  1  'x, y, z'
loop_
 _atom_site_type_symbol
 _atom_site_label
 _atom_site_symmetry_multiplicity
 _atom_site_fract_x
 _atom_site_fract_y
 _atom_site_fract_z
 _atom_site_occupancy
  Gd  Gd0  1  0.25000000  0.25000000  0.25000000  1
  Lu  Lu0  1  0.74999900  0.74999900  0.74999900  1
  Ir  Ir0  1  0.00000000  -0.00000000  -0.00000000  1
  Ir  Ir1  1  0.50000100  0.50000100  0.50000100  1
loop_
_geom_bond_atom_site_label_1
_geom_bond_atom_site_label_2
_geom_bond_distance
_geom_bond_site_symmetry_2
Gd0 Ir1 2.939084 1_545
Gd0 Ir1 2.939084 1_455
Gd0 Ir1 2.939084 1_554
Gd0 Ir0 2.939088 1_565
Gd0 Ir0 2.939088 1_655
Gd0 Ir0 2.939088 1_555
Gd0 Ir0 2.939088 1_556
Gd0 Ir1 2.939100 1_555
Ir0 Lu0 2.939084 1_445
Ir0 Lu0 2.939084 1_454
Ir0 Lu0 2.939084 1_544
Ir0 Lu0 2.939100 1_444
Ir1 Lu0 2.939064 1_555
Ir1 Lu0 2.939096 1_455
Ir1 Lu0 2.939096 1_545
Ir1 Lu0 2.939096 1_554
