# generated using pymatgen
data_In8PbN6
_symmetry_space_group_name_H-M   'P 1'
_cell_length_a   13.70279273
_cell_length_b   17.60490222
_cell_length_c   5.61890455
_cell_angle_alpha   96.10615403
_cell_angle_beta   86.08187922
_cell_angle_gamma   129.96979708
_symmetry_Int_Tables_number   1
_chemical_formula_structural   In8PbN6
_chemical_formula_sum   'In24 Pb3 N18'
_cell_volume   1032.92632978
_cell_formula_units_Z   3
loop_
 _symmetry_equiv_pos_site_id
 _symmetry_equiv_pos_as_xyz
  1  'x, y, z'
loop_
 _atom_site_type_symbol
 _atom_site_label
 _atom_site_symmetry_multiplicity
 _atom_site_fract_x
 _atom_site_fract_y
 _atom_site_fract_z
 _atom_site_occupancy
  In  In0  1  0.00000000  0.61914800  0.33520000  1
  In  In1  1  0.54471300  0.93466100  0.66545800  1
  In  In2  1  0.45528700  0.38994700  0.66545800  1
  In  In3  1  0.00000000  0.54976600  0.79882700  1
  In  In4  1  0.46514300  0.92794600  0.13717400  1
  In  In5  1  0.53485700  0.46280200  0.13717400  1
  In  In6  1  0.83983000  0.63603100  0.97160800  1
  In  In7  1  0.68852100  0.18080700  0.28698800  1
  In  In8  1  0.37283000  0.20752500  0.30320000  1
  In  In9  1  0.16017000  0.79620100  0.97160800  1
  In  In10  1  0.62717000  0.83469400  0.30320000  1
  In  In11  1  0.31147900  0.49228600  0.28698800  1
  In  In12  1  0.62695600  0.68169800  0.02255100  1
  In  In13  1  0.00000000  0.32443300  0.93241900  1
  In  In14  1  0.37304400  0.05474200  0.02255100  1
  In  In15  1  0.56887800  0.63030000  0.54702700  1
  In  In16  1  0.00000000  0.39760900  0.47443800  1
  In  In17  1  0.43112200  0.06142200  0.54702700  1
  In  In18  1  0.84806000  0.71935700  0.52513500  1
  In  In19  1  0.85399100  0.09488000  0.72678500  1
  In  In20  1  0.19619800  0.09944000  0.84586100  1
  In  In21  1  0.15194000  0.87129700  0.52513500  1
  In  In22  1  0.80380200  0.90324100  0.84586100  1
  In  In23  1  0.14600900  0.24089000  0.72678500  1
  Pb  Pb0  1  0.00000000  0.97788400  0.38748700  1
  Pb  Pb1  1  0.27962700  0.66987100  0.31915800  1
  Pb  Pb2  1  0.72037300  0.39024400  0.31915800  1
  N  N0  1  0.00000000  0.06690300  0.76273500  1
  N  N1  1  0.17012600  0.00139800  0.54527900  1
  N  N2  1  0.82987400  0.83127300  0.54527900  1
  N  N3  1  0.48628600  0.66015900  0.29327400  1
  N  N4  1  0.13956300  0.44789200  0.19137400  1
  N  N5  1  0.30219400  0.92723300  0.22436900  1
  N  N6  1  0.51371400  0.17387300  0.29327400  1
  N  N7  1  0.69780600  0.62503900  0.22436900  1
  N  N8  1  0.86043700  0.30833000  0.19137400  1
  N  N9  1  0.29416800  0.23033400  0.62988400  1
  N  N10  1  0.00000000  0.74160400  0.28062200  1
  N  N11  1  0.70583200  0.93616500  0.62988400  1
  N  N12  1  0.15092900  0.66934600  0.05301300  1
  N  N13  1  0.46168800  0.83014400  0.33872100  1
  N  N14  1  0.42352300  0.46891700  0.43855700  1
  N  N15  1  0.84907100  0.51841700  0.05301300  1
  N  N16  1  0.57647700  0.04539400  0.43855700  1
  N  N17  1  0.53831200  0.36845700  0.33872100  1
loop_
_geom_bond_atom_site_label_1
_geom_bond_atom_site_label_2
_geom_bond_distance
_geom_bond_site_symmetry_2
In0 N10 2.209588 1_555
In0 N15 2.252574 1_455
In0 N12 2.252575 1_555
In1 N11 2.186473 1_555
In1 N13 2.219870 1_555
In1 N16 2.231147 1_565
In2 N9 2.186450 1_555
In2 N17 2.219855 1_555
In2 N14 2.231162 1_555
In3 N12 2.217949 1_556
In3 N15 2.217949 1_456
In4 N13 2.133561 1_555
In4 N16 2.241846 1_565
In4 N5 2.245360 1_555
In5 N17 2.133531 1_555
In5 N14 2.241853 1_555
In5 N7 2.245371 1_555
In6 N7 2.244734 1_556
In6 N15 2.249184 1_556
In6 N10 2.424801 1_656
In7 N8 2.041363 1_555
In7 N16 2.077621 1_555
In7 N6 2.316788 1_555
In8 N9 2.195772 1_555
In8 N17 2.212757 1_555
In8 N6 2.351297 1_555
In9 N5 2.244734 1_556
In9 N12 2.249184 1_556
In9 N10 2.424801 1_556
In10 N11 2.195772 1_555
In10 N13 2.212757 1_555
In10 N3 2.351283 1_555
In11 N4 2.041356 1_555
In11 N14 2.077621 1_555
In11 N3 2.316788 1_555
In12 N7 2.204245 1_555
In12 N3 2.226254 1_555
In13 N4 2.205836 1_556
In13 N8 2.205843 1_456
In14 N5 2.204245 1_545
In14 N6 2.226253 1_555
In15 N3 2.175870 1_555
In15 N14 2.222119 1_555
In15 N7 2.480606 1_555
In16 N8 2.163210 1_455
In16 N4 2.163212 1_555
In17 N6 2.175870 1_555
In17 N16 2.222119 1_555
In17 N5 2.480606 1_545
In18 N2 2.129879 1_555
In18 N10 2.247585 1_655
In18 N7 2.310515 1_555
In19 N11 2.182843 1_545
In19 N0 2.372500 1_655
In20 N1 2.151594 1_555
In20 N9 2.232236 1_555
In20 N0 2.431104 1_555
In21 N1 2.129862 1_565
In21 N10 2.247585 1_555
In21 N5 2.310516 1_555
In22 N2 2.151572 1_555
In22 N11 2.232236 1_555
In22 N0 2.431113 1_665
In23 N9 2.182843 1_555
In23 N0 2.372513 1_555
N0 Pb0 2.489729 1_545
N1 Pb0 2.314412 1_545
N2 Pb0 2.314403 1_655
N12 Pb1 2.383899 1_555
N13 Pb1 2.263853 1_555
N15 Pb2 2.383899 1_555
N17 Pb2 2.263863 1_555
