# generated using pymatgen
data_Er3Ni13B2
_symmetry_space_group_name_H-M   'P 1'
_cell_length_a   4.90068200
_cell_length_b   4.92369625
_cell_length_c   10.90508600
_cell_angle_alpha   90.00000000
_cell_angle_beta   90.00000000
_cell_angle_gamma   119.84549943
_symmetry_Int_Tables_number   1
_chemical_formula_structural   Er3Ni13B2
_chemical_formula_sum   'Er3 Ni13 B2'
_cell_volume   228.23462445
_cell_formula_units_Z   1
loop_
 _symmetry_equiv_pos_site_id
 _symmetry_equiv_pos_as_xyz
  1  'x, y, z'
loop_
 _atom_site_type_symbol
 _atom_site_label
 _atom_site_symmetry_multiplicity
 _atom_site_fract_x
 _atom_site_fract_y
 _atom_site_fract_z
 _atom_site_occupancy
  Er  Er0  1  0.50000000  0.00000000  0.00000000  1
  Er  Er1  1  0.50000000  0.00000000  0.67070500  1
  Er  Er2  1  0.50000000  0.00000000  0.32929500  1
  Ni  Ni0  1  0.00000000  0.00000000  0.50000000  1
  Ni  Ni1  1  0.50000000  0.50000000  0.50000000  1
  Ni  Ni2  1  0.00000000  0.50000000  0.50000000  1
  Ni  Ni3  1  0.83340100  0.66680100  0.68076300  1
  Ni  Ni4  1  0.16659900  0.33319900  0.68076300  1
  Ni  Ni5  1  0.16659900  0.33319900  0.31923700  1
  Ni  Ni6  1  0.83340100  0.66680100  0.31923700  1
  Ni  Ni7  1  0.00000000  0.00000000  0.86611300  1
  Ni  Ni8  1  0.50000000  0.50000000  0.86591300  1
  Ni  Ni9  1  0.00000000  0.50000000  0.86591300  1
  Ni  Ni10  1  0.00000000  0.00000000  0.13388700  1
  Ni  Ni11  1  0.50000000  0.50000000  0.13408700  1
  Ni  Ni12  1  0.00000000  0.50000000  0.13408700  1
  B  B0  1  0.83335300  0.66670500  0.00000000  1
  B  B1  1  0.16664700  0.33329500  0.00000000  1
loop_
_geom_bond_atom_site_label_1
_geom_bond_atom_site_label_2
_geom_bond_distance
_geom_bond_site_symmetry_2
Er0 Ni10 2.852353 1_555
Er0 Ni10 2.852353 1_655
Er0 Ni7 2.852353 1_654
Er0 Ni7 2.852353 1_554
Er0 Ni12 2.863357 1_545
Er0 Ni12 2.863357 1_655
Er0 Ni11 2.863357 1_545
Er0 Ni11 2.863357 1_555
Er0 Ni8 2.863357 1_554
Er0 Ni9 2.863357 1_654
Er0 Ni8 2.863357 1_544
Er0 Ni9 2.863357 1_544
Er1 Ni3 2.835678 1_445
Er1 Ni4 2.835678 1_655
Er1 Ni4 2.835682 1_555
Er1 Ni3 2.835682 1_545
Er1 Ni3 2.849798 1_555
Er1 Ni4 2.849798 1_545
Er1 Ni0 3.077263 1_655
Er1 Ni0 3.077263 1_555
Er1 Ni1 3.086434 1_555
Er1 Ni1 3.086434 1_545
Er1 Ni2 3.086434 1_655
Er1 Ni2 3.086434 1_545
Er1 Ni7 3.247319 1_555
Er1 Ni7 3.247319 1_655
Er1 Ni9 3.254584 1_545
Er1 Ni9 3.254584 1_655
Er1 Ni8 3.254584 1_555
Er1 Ni8 3.254584 1_545
Er2 Ni6 2.835678 1_445
Er2 Ni5 2.835678 1_655
Er2 Ni5 2.835682 1_555
Er2 Ni6 2.835682 1_545
Er2 Ni6 2.849798 1_555
Er2 Ni5 2.849798 1_545
Er2 Ni0 3.077263 1_655
Er2 Ni0 3.077263 1_555
Er2 Ni1 3.086434 1_555
Er2 Ni1 3.086434 1_545
Er2 Ni2 3.086434 1_655
Er2 Ni2 3.086434 1_545
Er2 Ni10 3.247319 1_555
Er2 Ni10 3.247319 1_655
Er2 Ni12 3.254584 1_655
Er2 Ni11 3.254584 1_545
Er2 Ni11 3.254584 1_555
Er2 Ni12 3.254584 1_545
Ni0 Ni4 2.431183 1_555
Ni0 Ni5 2.431183 1_555
Ni0 Ni3 2.431183 1_445
Ni0 Ni6 2.431183 1_445
Ni0 Ni1 2.461848 1_555
Ni0 Ni1 2.461848 1_445
Ni0 Ni2 2.461848 1_555
Ni0 Ni2 2.461848 1_545
Ni1 Ni4 2.427811 1_555
Ni1 Ni3 2.427811 1_555
Ni1 Ni5 2.427811 1_555
Ni1 Ni6 2.427811 1_555
Ni1 Ni2 2.450341 1_655
Ni1 Ni2 2.450341 1_555
Ni2 Ni3 2.427808 1_455
Ni2 Ni6 2.427808 1_455
Ni2 Ni4 2.427808 1_555
Ni2 Ni5 2.427808 1_555
Ni3 Ni9 2.466810 1_655
Ni3 Ni8 2.466813 1_555
Ni3 Ni7 2.471915 1_665
Ni3 Ni4 2.834418 1_655
Ni3 Ni4 2.834427 1_555
Ni3 Ni4 2.845965 1_665
Ni4 Ni9 2.466810 1_555
Ni4 Ni8 2.466813 1_555
Ni4 Ni7 2.471915 1_555
Ni5 Ni6 2.834418 1_455
Ni5 Ni6 2.834427 1_555
Ni5 Ni6 2.845965 1_445
Ni10 Ni5 2.471915 1_555
Ni10 Ni6 2.471915 1_445
Ni11 Ni6 2.466813 1_555
Ni11 Ni5 2.466813 1_555
Ni12 Ni6 2.466810 1_455
Ni12 Ni5 2.466810 1_555
B0 Ni12 2.036177 1_655
B0 Ni9 2.036177 1_654
B0 Ni11 2.036180 1_555
B0 Ni8 2.036180 1_554
B0 Ni10 2.039066 1_665
B0 Ni7 2.039066 1_664
B0 Er0 2.833762 1_665
B0 Er0 2.833766 1_565
B0 Er0 2.847276 1_555
B1 Ni12 2.036177 1_555
B1 Ni9 2.036177 1_554
B1 Ni11 2.036180 1_555
B1 Ni8 2.036180 1_554
B1 Ni10 2.039066 1_555
B1 Ni7 2.039066 1_554
B1 Er0 2.833762 1_455
B1 Er0 2.833766 1_555
B1 Er0 2.847276 1_565
