# generated using pymatgen
data_Mg14ZnBi
_symmetry_space_group_name_H-M   'P 1'
_cell_length_a   6.38564492
_cell_length_b   6.38564440
_cell_length_c   10.40162563
_cell_angle_alpha   90.00000000
_cell_angle_beta   90.00000000
_cell_angle_gamma   120.00000269
_symmetry_Int_Tables_number   1
_chemical_formula_structural   Mg14ZnBi
_chemical_formula_sum   'Mg14 Zn1 Bi1'
_cell_volume   367.31725860
_cell_formula_units_Z   1
loop_
 _symmetry_equiv_pos_site_id
 _symmetry_equiv_pos_as_xyz
  1  'x, y, z'
loop_
 _atom_site_type_symbol
 _atom_site_label
 _atom_site_symmetry_multiplicity
 _atom_site_fract_x
 _atom_site_fract_y
 _atom_site_fract_z
 _atom_site_occupancy
  Mg  Mg0  1  0.16535756  0.83267828  0.12500000  1
  Mg  Mg1  1  0.16633568  0.83316734  0.62500000  1
  Mg  Mg2  1  0.66732172  0.33464244  0.12500000  1
  Mg  Mg3  1  0.66683266  0.33366432  0.62500000  1
  Mg  Mg4  1  0.66732172  0.83267828  0.12500000  1
  Mg  Mg5  1  0.66683266  0.83316734  0.62500000  1
  Mg  Mg6  1  0.33481015  0.16518985  0.36564532  1
  Mg  Mg7  1  0.33481015  0.16518985  0.88435468  1
  Mg  Mg8  1  0.33481015  0.66962131  0.36564532  1
  Mg  Mg9  1  0.33481015  0.66962131  0.88435468  1
  Mg  Mg10  1  0.83037869  0.16518985  0.36564532  1
  Mg  Mg11  1  0.83037869  0.16518985  0.88435468  1
  Mg  Mg12  1  0.83333300  0.66666700  0.37434047  1
  Mg  Mg13  1  0.83333300  0.66666700  0.87565953  1
  Zn  Zn0  1  0.16666700  0.33333300  0.12500000  1
  Bi  Bi0  1  0.16666700  0.33333300  0.62500000  1
loop_
_geom_bond_atom_site_label_1
_geom_bond_atom_site_label_2
_geom_bond_distance
_geom_bond_site_symmetry_2
Mg0 Mg9 3.105995 1_554
Mg0 Mg8 3.105995 1_555
Mg0 Mg7 3.106001 1_564
Mg0 Mg6 3.106001 1_565
Mg0 Mg12 3.177718 1_455
Mg0 Mg13 3.177718 1_454
Mg0 Mg2 3.180280 1_455
Mg0 Mg4 3.180280 1_455
Mg0 Zn0 3.192830 1_565
Mg0 Zn0 3.192830 1_555
Mg0 Mg2 3.205365 1_565
Mg0 Mg4 3.205365 1_555
Mg1 Mg13 3.192043 1_455
Mg1 Mg12 3.192043 1_455
Mg1 Mg8 3.263313 1_555
Mg1 Mg9 3.263313 1_555
Mg1 Mg6 3.263319 1_565
Mg1 Mg7 3.263319 1_565
Mg2 Mg7 3.106001 1_554
Mg2 Mg6 3.106001 1_555
Mg2 Mg4 3.180280 1_555
Mg2 Zn0 3.192831 1_655
Mg2 Zn0 3.192831 1_555
Mg2 Mg4 3.205365 1_545
Mg3 Mg7 3.263319 1_555
Mg3 Mg6 3.263319 1_555
Mg4 Mg9 3.106001 1_554
Mg4 Mg8 3.106001 1_555
Mg4 Zn0 3.192830 1_665
Mg4 Zn0 3.192830 1_555
Mg5 Mg8 3.263319 1_555
Mg5 Mg9 3.263319 1_555
Mg6 Zn0 3.118338 1_555
Mg6 Mg8 3.164524 1_545
Mg6 Mg8 3.221120 1_555
Mg7 Zn0 3.118338 1_556
Mg7 Mg9 3.164524 1_545
Mg7 Mg9 3.221120 1_555
Mg8 Zn0 3.118345 1_555
Mg9 Zn0 3.118345 1_556
Mg10 Mg2 3.105995 1_555
Mg10 Mg4 3.106001 1_545
Mg10 Zn0 3.118345 1_655
Mg10 Mg8 3.164524 1_545
Mg10 Mg6 3.164525 1_555
Mg10 Mg12 3.194145 1_555
Mg10 Mg12 3.194145 1_545
Mg10 Mg8 3.221120 1_655
Mg10 Mg6 3.221120 1_655
Mg10 Mg3 3.263313 1_555
Mg10 Mg5 3.263319 1_545
Mg11 Mg2 3.105995 1_556
Mg11 Mg4 3.106001 1_546
Mg11 Zn0 3.118345 1_656
Mg11 Mg9 3.164524 1_545
Mg11 Mg7 3.164525 1_555
Mg11 Mg13 3.194145 1_555
Mg11 Mg13 3.194145 1_545
Mg11 Mg9 3.221120 1_655
Mg11 Mg7 3.221120 1_655
Mg11 Mg3 3.263313 1_555
Mg11 Mg5 3.263319 1_545
Mg12 Mg4 3.177711 1_555
Mg12 Mg2 3.177718 1_555
Mg12 Mg5 3.192037 1_555
Mg12 Mg3 3.192043 1_555
Mg12 Mg6 3.194145 1_555
Mg12 Mg6 3.194145 1_665
Mg12 Mg8 3.194145 1_655
Mg12 Mg8 3.194145 1_555
Mg13 Mg4 3.177711 1_556
Mg13 Mg2 3.177718 1_556
Mg13 Mg5 3.192037 1_555
Mg13 Mg3 3.192043 1_555
Mg13 Mg7 3.194145 1_555
Mg13 Mg7 3.194145 1_665
Mg13 Mg9 3.194145 1_655
Mg13 Mg9 3.194145 1_555
Bi0 Mg5 3.192823 1_445
Bi0 Mg1 3.192823 1_545
Bi0 Mg1 3.192823 1_555
Bi0 Mg5 3.192823 1_555
Bi0 Mg3 3.192823 1_455
Bi0 Mg3 3.192823 1_555
Bi0 Mg6 3.276607 1_555
Bi0 Mg7 3.276607 1_555
Bi0 Mg8 3.276613 1_555
Bi0 Mg9 3.276613 1_555
Bi0 Mg10 3.276613 1_455
Bi0 Mg11 3.276613 1_455
