# generated using pymatgen
data_CsSbS(O2F)2
_symmetry_space_group_name_H-M   'P 1'
_cell_length_a   5.46722900
_cell_length_b   10.13725000
_cell_length_c   11.69428300
_cell_angle_alpha   90.00000000
_cell_angle_beta   90.00000000
_cell_angle_gamma   90.00000000
_symmetry_Int_Tables_number   1
_chemical_formula_structural   CsSbS(O2F)2
_chemical_formula_sum   'Cs4 Sb4 S4 O16 F8'
_cell_volume   648.12835462
_cell_formula_units_Z   4
loop_
 _symmetry_equiv_pos_site_id
 _symmetry_equiv_pos_as_xyz
  1  'x, y, z'
loop_
 _atom_site_type_symbol
 _atom_site_label
 _atom_site_symmetry_multiplicity
 _atom_site_fract_x
 _atom_site_fract_y
 _atom_site_fract_z
 _atom_site_occupancy
  Cs  Cs0  1  0.61420100  0.01431000  0.16084400  1
  Cs  Cs1  1  0.11420100  0.98569000  0.83915600  1
  Cs  Cs2  1  0.61420100  0.51431000  0.33915600  1
  Cs  Cs3  1  0.11420100  0.48569000  0.66084400  1
  Sb  Sb0  1  0.10419900  0.32715000  0.08059800  1
  Sb  Sb1  1  0.60419900  0.67285000  0.91940200  1
  Sb  Sb2  1  0.10419900  0.82715000  0.41940200  1
  Sb  Sb3  1  0.60419900  0.17285000  0.58059800  1
  S  S0  1  0.16390900  0.20292600  0.36575000  1
  S  S1  1  0.66390900  0.79707400  0.63425000  1
  S  S2  1  0.16390900  0.70292600  0.13425000  1
  S  S3  1  0.66390900  0.29707400  0.86575000  1
  O  O0  1  0.01182000  0.08739000  0.33824700  1
  O  O1  1  0.51182000  0.91261000  0.66175300  1
  O  O2  1  0.01182000  0.58739000  0.16175300  1
  O  O3  1  0.51182000  0.41261000  0.83824700  1
  O  O4  1  0.39967700  0.15093300  0.42201800  1
  O  O5  1  0.89967700  0.84906700  0.57798200  1
  O  O6  1  0.39967700  0.65093300  0.07798200  1
  O  O7  1  0.89967700  0.34906700  0.92201800  1
  O  O8  1  0.25524200  0.26949100  0.25745400  1
  O  O9  1  0.75524200  0.73050900  0.74254600  1
  O  O10  1  0.25524200  0.76949100  0.24254600  1
  O  O11  1  0.75524200  0.23050900  0.75745400  1
  O  O12  1  0.03992300  0.29858200  0.43930500  1
  O  O13  1  0.53992300  0.70141800  0.56069500  1
  O  O14  1  0.03992300  0.79858200  0.06069500  1
  O  O15  1  0.53992300  0.20141800  0.93930500  1
  F  F0  1  0.07956100  0.13367200  0.06175500  1
  F  F1  1  0.57956100  0.86632800  0.93824500  1
  F  F2  1  0.07956100  0.63367200  0.43824500  1
  F  F3  1  0.57956100  0.36632800  0.56175500  1
  F  F4  1  0.28366600  0.17828900  0.65506200  1
  F  F5  1  0.78366600  0.82171100  0.34493800  1
  F  F6  1  0.28366600  0.67828900  0.84493800  1
  F  F7  1  0.78366600  0.32171100  0.15506200  1
loop_
_geom_bond_atom_site_label_1
_geom_bond_atom_site_label_2
_geom_bond_distance
_geom_bond_site_symmetry_2
Cs0 F1 3.010411 1_544
Cs0 F0 3.046304 1_655
Cs0 F5 3.050430 1_545
Cs0 O0 3.094920 1_655
Cs0 O15 3.236440 1_554
Cs0 F7 3.251721 1_555
Cs0 O10 3.305089 1_545
Cs0 F0 3.369093 1_555
Cs0 O14 3.401686 1_645
Cs0 O8 3.437960 1_555
Cs0 O4 3.552767 1_555
Cs1 F0 3.010411 1_566
Cs1 F1 3.046304 1_555
Cs1 F4 3.050430 1_565
Cs1 O1 3.094920 1_555
Cs1 O14 3.236440 1_556
Cs1 F6 3.251721 1_555
Cs1 O11 3.305089 1_465
Cs1 F1 3.369093 1_455
Cs1 O15 3.401686 1_565
Cs1 O9 3.437960 1_455
Cs1 O5 3.552767 1_455
Cs2 F3 3.010411 1_555
Cs2 F2 3.046304 1_655
Cs2 F7 3.050430 1_555
Cs2 O2 3.094920 1_655
Cs2 O13 3.236440 1_555
Cs2 F5 3.251721 1_555
Cs2 O8 3.305089 1_555
Cs2 F2 3.369093 1_555
Cs2 O12 3.401686 1_655
Cs2 O10 3.437960 1_555
Cs2 O6 3.552767 1_555
Cs3 F2 3.010411 1_555
Cs3 F3 3.046304 1_555
Cs3 F6 3.050430 1_555
Cs3 O3 3.094920 1_555
Cs3 O12 3.236440 1_555
Cs3 F4 3.251721 1_555
Cs3 O9 3.305089 1_455
Cs3 F3 3.369093 1_455
Cs3 O13 3.401686 1_555
Cs3 O11 3.437960 1_455
Cs3 O7 3.552767 1_455
O0 S0 1.471936 1_555
O1 S1 1.471936 1_555
O2 S2 1.471936 1_555
O3 S3 1.471936 1_555
O4 S0 1.540226 1_555
O4 Sb3 2.176869 1_555
O5 S1 1.540226 1_555
O5 Sb2 2.176869 1_655
O6 S2 1.540226 1_555
O6 Sb1 2.176869 1_554
O7 S3 1.540226 1_555
O7 Sb0 2.176869 1_656
O8 S0 1.519393 1_555
O8 Sb0 2.302398 1_555
O9 S1 1.519393 1_555
O9 Sb1 2.302398 1_555
O10 S2 1.519393 1_555
O10 Sb2 2.302398 1_555
O11 S3 1.519393 1_555
O11 Sb3 2.302398 1_555
O12 S0 1.462767 1_555
O13 S1 1.462767 1_555
O14 S2 1.462767 1_555
O15 S3 1.462767 1_555
F0 Sb0 1.978266 1_555
F1 Sb1 1.978266 1_555
F2 Sb2 1.978266 1_555
F3 Sb3 1.978266 1_555
F4 Sb3 1.957636 1_555
F5 Sb2 1.957636 1_655
F6 Sb1 1.957636 1_555
F7 Sb0 1.957636 1_655
