# generated using pymatgen
data_InPPd5
_symmetry_space_group_name_H-M   'P 1'
_cell_length_a   3.95300612
_cell_length_b   3.95300612
_cell_length_c   6.97024072
_cell_angle_alpha   90.00000000
_cell_angle_beta   90.00000000
_cell_angle_gamma   90.00000000
_symmetry_Int_Tables_number   1
_chemical_formula_structural   InPPd5
_chemical_formula_sum   'In1 P1 Pd5'
_cell_volume   108.91877552
_cell_formula_units_Z   1
loop_
 _symmetry_equiv_pos_site_id
 _symmetry_equiv_pos_as_xyz
  1  'x, y, z'
loop_
 _atom_site_type_symbol
 _atom_site_label
 _atom_site_symmetry_multiplicity
 _atom_site_fract_x
 _atom_site_fract_y
 _atom_site_fract_z
 _atom_site_occupancy
  In  In0  1  0.50000000  0.50000000  0.00000000  1
  P  P0  1  0.00000000  -0.00000000  0.50000000  1
  Pd  Pd0  1  0.00000000  0.50000000  0.29906566  1
  Pd  Pd1  1  -0.00000000  0.50000000  0.70093434  1
  Pd  Pd2  1  0.50000000  -0.00000000  0.29906566  1
  Pd  Pd3  1  0.50000000  -0.00000000  0.70093434  1
  Pd  Pd4  1  0.00000000  -0.00000000  0.00000000  1
loop_
_geom_bond_atom_site_label_1
_geom_bond_atom_site_label_2
_geom_bond_distance
_geom_bond_site_symmetry_2
In0 Pd4 2.795197 1_565
In0 Pd4 2.795197 1_655
In0 Pd4 2.795197 1_665
In0 Pd4 2.795197 1_555
In0 Pd2 2.872621 1_555
In0 Pd3 2.872621 1_554
In0 Pd2 2.872621 1_565
In0 Pd1 2.872621 1_554
In0 Pd0 2.872621 1_655
In0 Pd1 2.872621 1_654
In0 Pd0 2.872621 1_555
In0 Pd3 2.872621 1_564
P0 Pd1 2.422423 1_555
P0 Pd3 2.422423 1_555
P0 Pd0 2.422423 1_545
P0 Pd1 2.422423 1_545
P0 Pd3 2.422423 1_455
P0 Pd2 2.422423 1_555
P0 Pd2 2.422423 1_455
P0 Pd0 2.422423 1_555
Pd0 Pd2 2.795197 1_555
Pd0 Pd2 2.795197 1_465
Pd0 Pd2 2.795197 1_565
Pd0 Pd2 2.795197 1_455
Pd0 Pd1 2.801121 1_555
Pd0 Pd4 2.872621 1_555
Pd0 Pd4 2.872621 1_565
Pd1 Pd3 2.795197 1_555
Pd1 Pd3 2.795197 1_465
Pd1 Pd3 2.795197 1_455
Pd1 Pd3 2.795197 1_565
Pd1 Pd4 2.872621 1_566
Pd1 Pd4 2.872621 1_556
Pd2 Pd3 2.801121 1_555
Pd2 Pd4 2.872621 1_555
Pd2 Pd4 2.872621 1_655
Pd3 Pd4 2.872621 1_656
Pd3 Pd4 2.872621 1_556
