# generated using pymatgen
data_SrMo5O8
_symmetry_space_group_name_H-M   'P 1'
_cell_length_a   9.54827700
_cell_length_b   8.40940300
_cell_length_c   10.81020448
_cell_angle_alpha   70.24552757
_cell_angle_beta   90.00000000
_cell_angle_gamma   90.00000000
_symmetry_Int_Tables_number   1
_chemical_formula_structural   SrMo5O8
_chemical_formula_sum   'Sr4 Mo20 O32'
_cell_volume   816.92608220
_cell_formula_units_Z   4
loop_
 _symmetry_equiv_pos_site_id
 _symmetry_equiv_pos_as_xyz
  1  'x, y, z'
loop_
 _atom_site_type_symbol
 _atom_site_label
 _atom_site_symmetry_multiplicity
 _atom_site_fract_x
 _atom_site_fract_y
 _atom_site_fract_z
 _atom_site_occupancy
  Sr  Sr0  1  0.47801100  0.71608500  0.53209600  1
  Sr  Sr1  1  0.97801100  0.28391500  0.96790400  1
  Sr  Sr2  1  0.52198900  0.28391500  0.46790400  1
  Sr  Sr3  1  0.02198900  0.71608500  0.03209600  1
  Mo  Mo0  1  0.36668500  0.58971600  0.19082300  1
  Mo  Mo1  1  0.86073700  0.79252700  0.72747400  1
  Mo  Mo2  1  0.63926300  0.79252700  0.22747400  1
  Mo  Mo3  1  0.13926300  0.20747300  0.27252600  1
  Mo  Mo4  1  0.37014300  0.80560400  0.86493200  1
  Mo  Mo5  1  0.87014300  0.19439600  0.63506800  1
  Mo  Mo6  1  0.62985700  0.19439600  0.13506800  1
  Mo  Mo7  1  0.12985700  0.80560400  0.36493200  1
  Mo  Mo8  1  0.36073700  0.20747300  0.77252600  1
  Mo  Mo9  1  0.86668500  0.41028400  0.30917700  1
  Mo  Mo10  1  0.63331500  0.41028400  0.80917700  1
  Mo  Mo11  1  0.13331500  0.58971600  0.69082300  1
  Mo  Mo12  1  0.35703300  0.39560200  0.98134400  1
  Mo  Mo13  1  0.85703300  0.60439800  0.51865600  1
  Mo  Mo14  1  0.64296700  0.60439800  0.01865600  1
  Mo  Mo15  1  0.14296700  0.39560200  0.48134400  1
  Mo  Mo16  1  0.14456900  0.99246200  0.58686400  1
  Mo  Mo17  1  0.64456900  0.00753800  0.91313600  1
  Mo  Mo18  1  0.85543100  0.00753800  0.41313600  1
  Mo  Mo19  1  0.35543100  0.99246200  0.08686400  1
  O  O0  1  0.50090800  0.58955900  0.86422000  1
  O  O1  1  0.00090800  0.41044100  0.63578000  1
  O  O2  1  0.49909200  0.41044100  0.13578000  1
  O  O3  1  0.99909200  0.58955900  0.36422000  1
  O  O4  1  0.26674600  0.37441000  0.32271300  1
  O  O5  1  0.76674600  0.62559000  0.17728700  1
  O  O6  1  0.73325400  0.62559000  0.67728700  1
  O  O7  1  0.23325400  0.37441000  0.82271300  1
  O  O8  1  0.27063600  0.78870300  0.69543100  1
  O  O9  1  0.77063600  0.21129700  0.80456900  1
  O  O10  1  0.72936400  0.21129700  0.30456900  1
  O  O11  1  0.22936400  0.78870300  0.19543100  1
  O  O12  1  0.26952000  0.19413300  0.60020500  1
  O  O13  1  0.76952000  0.80586700  0.89979500  1
  O  O14  1  0.73048000  0.80586700  0.39979500  1
  O  O15  1  0.23048000  0.19413300  0.10020500  1
  O  O16  1  0.24173500  0.60352800  0.50992000  1
  O  O17  1  0.74173500  0.39647200  0.99008000  1
  O  O18  1  0.75826500  0.39647200  0.49008000  1
  O  O19  1  0.25826500  0.60352800  0.00992000  1
  O  O20  1  0.49632000  0.02336000  0.75945400  1
  O  O21  1  0.99632000  0.97664000  0.74054600  1
  O  O22  1  0.50368000  0.97664000  0.24054600  1
  O  O23  1  0.00368000  0.02336000  0.25945400  1
  O  O24  1  0.98975600  0.60915000  0.83673600  1
  O  O25  1  0.48975600  0.39085000  0.66326400  1
  O  O26  1  0.01024400  0.39085000  0.16326400  1
  O  O27  1  0.51024400  0.60915000  0.33673600  1
  O  O28  1  0.24413700  0.00216200  0.40642200  1
  O  O29  1  0.75586300  0.99783800  0.59357800  1
  O  O30  1  0.74413700  0.99783800  0.09357800  1
  O  O31  1  0.25586300  0.00216200  0.90642200  1
loop_
_geom_bond_atom_site_label_1
_geom_bond_atom_site_label_2
_geom_bond_distance
_geom_bond_site_symmetry_2
Mo0 O4 2.115798 1_555
Mo0 O27 2.137271 1_555
Mo0 O11 2.139663 1_555
Mo0 O19 2.180826 1_555
Mo0 O2 2.198100 1_555
Mo1 O24 2.014819 1_555
Mo1 O21 2.059365 1_555
Mo1 O6 2.064373 1_555
Mo1 O13 2.093453 1_555
Mo1 O29 2.095102 1_555
Mo2 O27 2.014819 1_555
Mo2 O22 2.059365 1_555
Mo2 O5 2.064373 1_555
Mo2 O14 2.093453 1_555
Mo2 O30 2.095102 1_555
Mo3 O26 2.014819 1_555
Mo3 O23 2.059365 1_555
Mo3 O4 2.064373 1_555
Mo3 O15 2.093453 1_555
Mo3 O28 2.095102 1_555
Mo4 O8 2.111029 1_555
Mo4 O31 2.150623 1_565
Mo4 O19 2.164494 1_556
Mo4 O20 2.166439 1_565
Mo4 O0 2.206640 1_555
Mo5 O9 2.111029 1_555
Mo5 O29 2.150623 1_545
Mo5 O18 2.164494 1_555
Mo5 O21 2.166439 1_545
Mo5 O1 2.206640 1_655
Mo6 O10 2.111029 1_555
Mo6 O30 2.150623 1_545
Mo6 O17 2.164494 1_554
Mo6 O22 2.166439 1_545
Mo6 O2 2.206640 1_555
Mo7 O11 2.111029 1_555
Mo7 O28 2.150623 1_565
Mo7 O16 2.164494 1_555
Mo7 O23 2.166439 1_565
Mo7 O3 2.206640 1_455
Mo8 O25 2.014819 1_555
Mo8 O20 2.059365 1_555
Mo8 O7 2.064373 1_555
Mo8 O12 2.093453 1_555
Mo8 O31 2.095102 1_555
Mo9 O5 2.115798 1_555
Mo9 O26 2.137271 1_655
Mo9 O10 2.139663 1_555
Mo9 O18 2.180826 1_555
Mo9 O3 2.198100 1_555
Mo10 O6 2.115798 1_555
Mo10 O25 2.137271 1_555
Mo10 O9 2.139663 1_555
Mo10 O17 2.180826 1_555
Mo10 O0 2.198100 1_555
Mo11 O7 2.115798 1_555
Mo11 O24 2.137271 1_455
Mo11 O8 2.139663 1_555
Mo11 O16 2.180826 1_555
Mo11 O1 2.198100 1_555
Mo12 O19 2.099355 1_556
Mo12 O15 2.123676 1_556
Mo12 O7 2.139118 1_555
Mo12 O0 2.180522 1_555
Mo12 O2 2.187110 1_556
Mo13 O18 2.099355 1_555
Mo13 O14 2.123676 1_555
Mo13 O6 2.139118 1_555
Mo13 O1 2.180522 1_655
Mo13 O3 2.187110 1_555
Mo14 O17 2.099355 1_554
Mo14 O13 2.123676 1_554
Mo14 O5 2.139118 1_555
Mo14 O2 2.180522 1_555
Mo14 O0 2.187110 1_554
Mo15 O16 2.099355 1_555
Mo15 O12 2.123676 1_555
Mo15 O4 2.139118 1_555
Mo15 O3 2.180522 1_455
Mo15 O1 2.187110 1_555
Mo16 O8 2.098335 1_555
Mo16 O12 2.117954 1_565
Mo16 O28 2.146586 1_565
Mo16 O21 2.152212 1_455
Mo17 O9 2.098335 1_555
Mo17 O13 2.117954 1_545
Mo17 O30 2.146586 1_546
Mo17 O20 2.152212 1_555
Mo18 O10 2.098335 1_555
Mo18 O14 2.117954 1_545
Mo18 O29 2.146586 1_545
Mo18 O23 2.152212 1_655
Mo19 O11 2.098335 1_555
Mo19 O15 2.117954 1_565
Mo19 O31 2.146586 1_564
Mo19 O22 2.152212 1_555
O4 Sr2 2.859160 1_555
O5 Sr3 2.859160 1_655
O6 Sr0 2.859160 1_555
O7 Sr1 2.859160 1_455
O8 Sr0 2.853093 1_555
O9 Sr1 2.853093 1_555
O10 Sr2 2.853093 1_555
O11 Sr3 2.853093 1_555
O12 Sr2 2.774308 1_555
O13 Sr3 2.774308 1_656
O14 Sr0 2.774308 1_555
O15 Sr1 2.774308 1_454
O16 Sr0 2.489268 1_555
O17 Sr1 2.489268 1_555
O18 Sr2 2.489268 1_555
O19 Sr3 2.489268 1_555
O24 Sr3 2.578218 1_656
O24 Sr1 2.623360 1_555
O25 Sr2 2.578218 1_555
O25 Sr0 2.623360 1_555
O26 Sr1 2.578218 1_454
O26 Sr3 2.623360 1_555
O27 Sr0 2.578218 1_555
O27 Sr2 2.623360 1_555
