# generated using pymatgen
data_Na4Ni3(SbO5)2
_symmetry_space_group_name_H-M   'P 1'
_cell_length_a   5.31807252
_cell_length_b   9.53881813
_cell_length_c   9.53881282
_cell_angle_alpha   108.50035161
_cell_angle_beta   95.91198983
_cell_angle_gamma   95.91210533
_symmetry_Int_Tables_number   1
_chemical_formula_structural   Na4Ni3(SbO5)2
_chemical_formula_sum   'Na8 Ni6 Sb4 O20'
_cell_volume   451.69217929
_cell_formula_units_Z   2
loop_
 _symmetry_equiv_pos_site_id
 _symmetry_equiv_pos_as_xyz
  1  'x, y, z'
loop_
 _atom_site_type_symbol
 _atom_site_label
 _atom_site_symmetry_multiplicity
 _atom_site_fract_x
 _atom_site_fract_y
 _atom_site_fract_z
 _atom_site_occupancy
  Na  Na0  1  0.75001200  0.44452900  0.05548600  1
  Na  Na1  1  0.24998700  0.94451300  0.55547000  1
  Na  Na2  1  0.75001400  0.25547900  0.24454100  1
  Na  Na3  1  0.24998300  0.75546000  0.74452000  1
  Na  Na4  1  0.25000200  0.54844100  0.95156000  1
  Na  Na5  1  0.75000100  0.04844100  0.45156000  1
  Na  Na6  1  0.75000000  0.65150300  0.84848600  1
  Na  Na7  1  0.25000100  0.15151500  0.34849800  1
  Ni  Ni0  1  0.99997100  0.60003900  0.39994600  1
  Ni  Ni1  1  0.99999300  0.79987900  0.20013600  1
  Ni  Ni2  1  0.50001600  0.90012700  0.09985900  1
  Ni  Ni3  1  0.49998200  0.10004300  0.89995100  1
  Ni  Ni4  1  0.50000400  0.29985100  0.70016200  1
  Ni  Ni5  1  0.00000600  0.40011800  0.59987400  1
  Sb  Sb0  1  0.50000100  0.49693100  0.50306900  1
  Sb  Sb1  1  0.00000700  0.99694700  0.00306100  1
  Sb  Sb2  1  0.50000400  0.70308800  0.29691200  1
  Sb  Sb3  1  0.00000100  0.20308000  0.79692000  1
  O  O0  1  0.87677700  0.19718600  0.99718900  1
  O  O1  1  0.37676000  0.69718000  0.49718300  1
  O  O2  1  0.62324200  0.50281800  0.30282100  1
  O  O3  1  0.12322400  0.00281200  0.80281500  1
  O  O4  1  0.35467300  0.29819500  0.89467400  1
  O  O5  1  0.85467700  0.79820200  0.39466600  1
  O  O6  1  0.85460800  0.59466500  0.59817700  1
  O  O7  1  0.35459500  0.09467600  0.09817500  1
  O  O8  1  0.64540900  0.90182600  0.90532600  1
  O  O9  1  0.14539400  0.40182300  0.40533500  1
  O  O10  1  0.14532300  0.60533200  0.20179800  1
  O  O11  1  0.64532900  0.10532600  0.70180500  1
  O  O12  1  0.87629500  0.39906200  0.80954500  1
  O  O13  1  0.37630000  0.89906600  0.30955200  1
  O  O14  1  0.37623400  0.50952100  0.69905300  1
  O  O15  1  0.87621700  0.00951700  0.19904000  1
  O  O16  1  0.62369800  0.69044600  0.10093300  1
  O  O17  1  0.12370600  0.19045500  0.60093800  1
  O  O18  1  0.12378500  0.80096000  0.99048300  1
  O  O19  1  0.62376800  0.30094700  0.49047900  1
loop_
_geom_bond_atom_site_label_1
_geom_bond_atom_site_label_2
_geom_bond_distance
_geom_bond_site_symmetry_2
Na0 O16 2.425078 1_555
Na0 O12 2.425207 1_554
Na0 O2 2.429457 1_555
Na0 O0 2.429515 1_554
Na0 O10 2.468389 1_655
Na0 O4 2.468587 1_554
Na1 O13 2.425083 1_555
Na1 O17 2.425213 1_565
Na1 O1 2.429449 1_555
Na1 O3 2.429526 1_565
Na1 O5 2.468386 1_455
Na1 O11 2.468605 1_565
Na2 O19 2.425101 1_555
Na2 O15 2.425197 1_555
Na2 O2 2.429503 1_555
Na2 O0 2.429590 1_554
Na2 O9 2.468712 1_655
Na2 O7 2.468952 1_555
Na3 O14 2.425124 1_555
Na3 O18 2.425194 1_555
Na3 O1 2.429494 1_555
Na3 O3 2.429583 1_565
Na3 O6 2.468693 1_455
Na3 O8 2.468990 1_555
Na4 O16 2.334911 1_556
Na4 O12 2.335002 1_455
Na4 O10 2.411630 1_556
Na4 O4 2.411692 1_555
Na4 O14 2.491360 1_555
Na4 O18 2.491436 1_555
Na5 O13 2.334946 1_545
Na5 O17 2.334988 1_655
Na5 O5 2.411633 1_545
Na5 O11 2.411683 1_555
Na5 O19 2.491357 1_555
Na5 O15 2.491440 1_555
Na6 O14 2.335311 1_555
Na6 O18 2.335505 1_655
Na6 O6 2.412166 1_555
Na6 O8 2.412261 1_555
Na6 O12 2.490869 1_555
Na6 O16 2.490932 1_556
Na7 O19 2.335309 1_555
Na7 O15 2.335507 1_455
Na7 O9 2.412158 1_555
Na7 O7 2.412265 1_555
Na7 O17 2.490859 1_555
Na7 O13 2.490943 1_545
Ni0 O2 2.102827 1_555
Ni0 O1 2.103164 1_655
Ni0 O5 2.127409 1_555
Ni0 O10 2.127446 1_655
Ni0 O6 2.128419 1_555
Ni0 O9 2.128471 1_655
Ni1 O5 2.086234 1_555
Ni1 O10 2.086385 1_655
Ni1 O13 2.131286 1_655
Ni1 O16 2.131303 1_555
Ni1 O15 2.171454 1_565
Ni1 O18 2.171584 1_654
Ni2 O8 2.086502 1_554
Ni2 O7 2.086679 1_565
Ni2 O15 2.130738 1_565
Ni2 O18 2.130813 1_554
Ni2 O16 2.171591 1_555
Ni2 O13 2.171736 1_555
Ni3 O3 2.103000 1_555
Ni3 O0 2.103197 1_555
Ni3 O4 2.127340 1_555
Ni3 O11 2.127391 1_555
Ni3 O7 2.128397 1_556
Ni3 O8 2.128453 1_545
Ni4 O4 2.086060 1_555
Ni4 O11 2.086132 1_555
Ni4 O12 2.131179 1_555
Ni4 O17 2.131266 1_555
Ni4 O14 2.171765 1_555
Ni4 O19 2.171836 1_555
Ni5 O9 2.086557 1_555
Ni5 O6 2.086636 1_455
Ni5 O14 2.130886 1_555
Ni5 O19 2.130897 1_455
Ni5 O17 2.171440 1_555
Ni5 O12 2.171513 1_455
O0 Sb1 2.097398 1_646
O0 Sb3 2.097715 1_655
O1 Sb0 2.097551 1_555
O1 Sb2 2.097814 1_555
O2 Sb0 2.097542 1_555
O2 Sb2 2.097797 1_555
O3 Sb1 2.097413 1_546
O3 Sb3 2.097709 1_555
O4 Sb3 1.999637 1_555
O5 Sb2 1.999639 1_555
O6 Sb0 1.999286 1_555
O7 Sb1 1.999202 1_545
O8 Sb1 1.999274 1_656
O9 Sb0 1.999286 1_555
O10 Sb2 1.999680 1_555
O11 Sb3 1.999637 1_655
O12 Sb3 2.017153 1_655
O13 Sb2 2.017083 1_555
O14 Sb0 2.017374 1_555
O15 Sb1 2.017420 1_645
O16 Sb2 2.017064 1_555
O17 Sb3 2.017148 1_555
O18 Sb1 2.017451 1_556
O19 Sb0 2.017376 1_555
