# generated using pymatgen
data_Mg14MnSb
_symmetry_space_group_name_H-M   'P 1'
_cell_length_a   6.30430142
_cell_length_b   6.29654172
_cell_length_c   10.30555113
_cell_angle_alpha   90.00000000
_cell_angle_beta   90.00000000
_cell_angle_gamma   119.95929712
_symmetry_Int_Tables_number   1
_chemical_formula_structural   Mg14MnSb
_chemical_formula_sum   'Mg14 Mn1 Sb1'
_cell_volume   354.42054425
_cell_formula_units_Z   1
loop_
 _symmetry_equiv_pos_site_id
 _symmetry_equiv_pos_as_xyz
  1  'x, y, z'
loop_
 _atom_site_type_symbol
 _atom_site_label
 _atom_site_symmetry_multiplicity
 _atom_site_fract_x
 _atom_site_fract_y
 _atom_site_fract_z
 _atom_site_occupancy
  Mg  Mg0  1  0.16706780  0.33353340  0.62500000  1
  Mg  Mg1  1  0.16654051  0.83326976  0.62500000  1
  Mg  Mg2  1  0.66839062  0.33298903  0.12500000  1
  Mg  Mg3  1  0.66627128  0.33333913  0.62500000  1
  Mg  Mg4  1  0.66839062  0.83540060  0.12500000  1
  Mg  Mg5  1  0.66627128  0.83293115  0.62500000  1
  Mg  Mg6  1  0.33246855  0.17101233  0.37232453  1
  Mg  Mg7  1  0.33246855  0.17101233  0.87767547  1
  Mg  Mg8  1  0.33246855  0.66145723  0.37232453  1
  Mg  Mg9  1  0.33246855  0.66145723  0.87767547  1
  Mg  Mg10  1  0.83804348  0.16902224  0.37180133  1
  Mg  Mg11  1  0.83804348  0.16902224  0.87819867  1
  Mg  Mg12  1  0.83127198  0.66563649  0.37760971  1
  Mg  Mg13  1  0.83127198  0.66563649  0.87239029  1
  Mn  Mn0  1  0.16555626  0.33277763  0.12500000  1
  Sb  Sb0  1  0.16300649  0.83150274  0.12500000  1
loop_
_geom_bond_atom_site_label_1
_geom_bond_atom_site_label_2
_geom_bond_distance
_geom_bond_site_symmetry_2
Mg0 Mg5 3.147740 1_555
Mg0 Mg3 3.147740 1_555
Mg0 Mg1 3.148272 1_545
Mg0 Mg1 3.148272 1_555
Mg0 Mg5 3.156561 1_445
Mg0 Mg3 3.156562 1_455
Mg0 Mg6 3.159245 1_555
Mg0 Mg7 3.159245 1_555
Mg0 Mg9 3.159252 1_555
Mg0 Mg8 3.159252 1_555
Mg0 Mg11 3.168328 1_455
Mg0 Mg10 3.168328 1_455
Mg1 Mg12 3.138989 1_455
Mg1 Mg13 3.138989 1_455
Mg1 Mg3 3.151518 1_565
Mg1 Mg5 3.151519 1_555
Mg1 Mg3 3.152784 1_455
Mg1 Mg5 3.152784 1_455
Mg1 Mg8 3.189899 1_555
Mg1 Mg9 3.189899 1_555
Mg1 Mg7 3.189905 1_565
Mg1 Mg6 3.189905 1_565
Mg2 Sb0 3.130536 1_655
Mg2 Mg4 3.133086 1_545
Mg2 Mn0 3.134947 1_655
Mg2 Mg7 3.140748 1_554
Mg2 Mg6 3.140748 1_555
Mg2 Mg4 3.163455 1_555
Mg2 Mn0 3.169355 1_555
Mg2 Sb0 3.173909 1_545
Mg3 Mg5 3.145702 1_555
Mg3 Mg5 3.150840 1_545
Mg3 Mg7 3.178917 1_555
Mg3 Mg6 3.178917 1_555
Mg4 Sb0 3.130536 1_655
Mg4 Mn0 3.134947 1_665
Mg4 Mg9 3.140748 1_554
Mg4 Mg8 3.140748 1_555
Mg4 Mn0 3.169355 1_555
Mg4 Sb0 3.173909 1_555
Mg5 Mg9 3.178917 1_555
Mg5 Mg8 3.178917 1_555
Mg6 Mg8 3.088107 1_555
Mg6 Mn0 3.116355 1_555
Mg6 Sb0 3.150668 1_545
Mg6 Mg8 3.208435 1_545
Mg7 Mg9 3.088107 1_555
Mg7 Mn0 3.116355 1_556
Mg7 Sb0 3.150668 1_546
Mg7 Mg9 3.208435 1_545
Mg8 Mn0 3.116361 1_555
Mg8 Sb0 3.150662 1_555
Mg9 Mn0 3.116361 1_556
Mg9 Sb0 3.150662 1_556
Mg10 Mn0 3.109500 1_655
Mg10 Mg8 3.110770 1_655
Mg10 Mg6 3.110771 1_655
Mg10 Mg2 3.127569 1_555
Mg10 Mg4 3.127575 1_545
Mg10 Mg12 3.149057 1_545
Mg10 Mg12 3.149057 1_555
Mg10 Mg3 3.189181 1_555
Mg10 Mg5 3.189187 1_545
Mg10 Mg8 3.193577 1_545
Mg10 Mg6 3.193577 1_555
Mg11 Mn0 3.109500 1_656
Mg11 Mg9 3.110770 1_655
Mg11 Mg7 3.110771 1_655
Mg11 Mg2 3.127569 1_556
Mg11 Mg4 3.127575 1_546
Mg11 Mg13 3.149057 1_545
Mg11 Mg13 3.149057 1_555
Mg11 Mg3 3.189181 1_555
Mg11 Mg5 3.189187 1_545
Mg11 Mg9 3.193577 1_545
Mg11 Mg7 3.193577 1_555
Mg12 Mg5 3.128251 1_555
Mg12 Mg3 3.128258 1_555
Mg12 Mg6 3.132022 1_555
Mg12 Mg8 3.132023 1_555
Mg12 Sb0 3.171765 1_655
Mg12 Mg6 3.173385 1_665
Mg12 Mg8 3.173385 1_655
Mg12 Mg4 3.173388 1_555
Mg12 Mg2 3.173394 1_555
Mg13 Mg5 3.128251 1_555
Mg13 Mg3 3.128258 1_555
Mg13 Mg7 3.132022 1_555
Mg13 Mg9 3.132023 1_555
Mg13 Sb0 3.171765 1_656
Mg13 Mg7 3.173385 1_665
Mg13 Mg9 3.173385 1_655
Mg13 Mg4 3.173388 1_556
Mg13 Mg2 3.173394 1_556
Mn0 Sb0 3.148302 1_555
Mn0 Sb0 3.148302 1_545
