# generated using pymatgen
data_Y2AlRu
_symmetry_space_group_name_H-M   'P 1'
_cell_length_a   4.96872763
_cell_length_b   4.96872763
_cell_length_c   4.96872763
_cell_angle_alpha   60.00000000
_cell_angle_beta   60.00000000
_cell_angle_gamma   60.00000000
_symmetry_Int_Tables_number   1
_chemical_formula_structural   Y2AlRu
_chemical_formula_sum   'Y2 Al1 Ru1'
_cell_volume   86.74023092
_cell_formula_units_Z   1
loop_
 _symmetry_equiv_pos_site_id
 _symmetry_equiv_pos_as_xyz
  1  'x, y, z'
loop_
 _atom_site_type_symbol
 _atom_site_label
 _atom_site_symmetry_multiplicity
 _atom_site_fract_x
 _atom_site_fract_y
 _atom_site_fract_z
 _atom_site_occupancy
  Y  Y0  1  0.75000000  0.75000000  0.75000000  1
  Y  Y1  1  0.25000000  0.25000000  0.25000000  1
  Al  Al0  1  0.00000000  0.00000000  0.00000000  1
  Ru  Ru0  1  0.50000000  0.50000000  0.50000000  1
loop_
_geom_bond_atom_site_label_1
_geom_bond_atom_site_label_2
_geom_bond_distance
_geom_bond_site_symmetry_2
Al0 Y1 3.042712 1_545
Al0 Y0 3.042712 1_454
Al0 Y0 3.042712 1_544
Al0 Y1 3.042712 1_455
Al0 Y1 3.042712 1_554
Al0 Y0 3.042712 1_444
Al0 Y0 3.042712 1_445
Al0 Y1 3.042712 1_555
Ru0 Y1 3.042712 1_565
Ru0 Y0 3.042712 1_545
Ru0 Y1 3.042712 1_655
Ru0 Y0 3.042712 1_455
Ru0 Y0 3.042712 1_555
Ru0 Y1 3.042712 1_556
Ru0 Y0 3.042712 1_554
Ru0 Y1 3.042712 1_555
