# generated using pymatgen
data_PmMgS3
_symmetry_space_group_name_H-M   'P 1'
_cell_length_a   6.97573485
_cell_length_b   6.97573485
_cell_length_c   6.80728538
_cell_angle_alpha   74.35313055
_cell_angle_beta   74.35313055
_cell_angle_gamma   110.61856137
_symmetry_Int_Tables_number   1
_chemical_formula_structural   PmMgS3
_chemical_formula_sum   'Pm2 Mg2 S6'
_cell_volume   273.00943744
_cell_formula_units_Z   2
loop_
 _symmetry_equiv_pos_site_id
 _symmetry_equiv_pos_as_xyz
  1  'x, y, z'
loop_
 _atom_site_type_symbol
 _atom_site_label
 _atom_site_symmetry_multiplicity
 _atom_site_fract_x
 _atom_site_fract_y
 _atom_site_fract_z
 _atom_site_occupancy
  Pm  Pm0  1  0.78540400  0.78540400  0.25881200  1
  Pm  Pm1  1  0.21459600  0.21459600  0.74118800  1
  Mg  Mg0  1  0.33961300  0.66038700  0.00000000  1
  Mg  Mg1  1  0.66038700  0.33961300  0.00000000  1
  S  S0  1  0.23360400  0.92524600  0.14743300  1
  S  S1  1  0.76639600  0.07475400  0.85256700  1
  S  S2  1  0.07475400  0.76639600  0.85256700  1
  S  S3  1  0.92524600  0.23360400  0.14743300  1
  S  S4  1  0.57300700  0.57300700  0.71890100  1
  S  S5  1  0.42699300  0.42699300  0.28109900  1
loop_
_geom_bond_atom_site_label_1
_geom_bond_atom_site_label_2
_geom_bond_distance
_geom_bond_site_symmetry_2
Pm0 S3 2.734215 1_565
Pm0 S0 2.734215 1_655
Pm0 S4 2.765380 1_555
Pm0 S5 2.777258 1_555
Pm0 S2 3.019037 1_654
Pm0 S1 3.019037 1_564
Pm1 S2 2.734215 1_545
Pm1 S1 2.734215 1_455
Pm1 S5 2.765380 1_555
Pm1 S4 2.777258 1_555
Pm1 S0 3.019037 1_546
Pm1 S3 3.019037 1_456
Mg0 S5 2.516225 1_555
Mg0 S4 2.516225 1_554
Mg0 S0 2.555349 1_555
Mg0 S2 2.555349 1_554
Mg0 S3 2.998056 1_455
Mg0 S1 2.998056 1_564
Mg1 S5 2.516225 1_555
Mg1 S4 2.516225 1_554
Mg1 S1 2.555349 1_554
Mg1 S3 2.555349 1_555
Mg1 S0 2.998056 1_545
Mg1 S2 2.998056 1_654
