# generated using pymatgen
data_BeF2
_symmetry_space_group_name_H-M   'P 1'
_cell_length_a   12.62160500
_cell_length_b   6.93018400
_cell_length_c   7.16657758
_cell_angle_alpha   62.03758306
_cell_angle_beta   90.00000000
_cell_angle_gamma   90.00000000
_symmetry_Int_Tables_number   1
_chemical_formula_structural   BeF2
_chemical_formula_sum   'Be16 F32'
_cell_volume   553.67821247
_cell_formula_units_Z   16
loop_
 _symmetry_equiv_pos_site_id
 _symmetry_equiv_pos_as_xyz
  1  'x, y, z'
loop_
 _atom_site_type_symbol
 _atom_site_label
 _atom_site_symmetry_multiplicity
 _atom_site_fract_x
 _atom_site_fract_y
 _atom_site_fract_z
 _atom_site_occupancy
  Be  Be0  1  0.89261900  0.45055500  0.64279300  1
  Be  Be1  1  0.83461000  0.00779000  0.90454900  1
  Be  Be2  1  0.89298400  0.55621300  0.18510600  1
  Be  Be3  1  0.89780300  0.08723300  0.26601500  1
  Be  Be4  1  0.60250800  0.41357900  0.23436000  1
  Be  Be5  1  0.60631400  0.94497600  0.31879300  1
  Be  Be6  1  0.66650200  0.49252900  0.59519000  1
  Be  Be7  1  0.60791100  0.04835000  0.85950300  1
  Be  Be8  1  0.39780300  0.91276700  0.73398500  1
  Be  Be9  1  0.39298400  0.44378700  0.81489400  1
  Be  Be10  1  0.33461000  0.99221000  0.09545100  1
  Be  Be11  1  0.39261900  0.54944500  0.35720700  1
  Be  Be12  1  0.10791100  0.95165000  0.14049700  1
  Be  Be13  1  0.16650200  0.50747100  0.40481000  1
  Be  Be14  1  0.10631400  0.05502400  0.68120700  1
  Be  Be15  1  0.10250800  0.58642100  0.76564000  1
  F  F0  1  0.90452000  0.19355500  0.73529600  1
  F  F1  1  0.90058300  0.55556500  0.39224900  1
  F  F2  1  0.88919200  0.77333800  0.98897600  1
  F  F3  1  0.89056100  0.35147300  0.17255800  1
  F  F4  1  0.72325900  0.00438300  0.81464400  1
  F  F5  1  0.86058700  0.96580300  0.48339700  1
  F  F6  1  0.51877800  0.95726500  0.77873600  1
  F  F7  1  0.82531800  0.04454100  0.10290800  1
  F  F8  1  0.67581400  0.46007200  0.39409300  1
  F  F9  1  0.98178400  0.53988400  0.72463500  1
  F  F10  1  0.64003300  0.52750800  0.01676700  1
  F  F11  1  0.77708600  0.49233000  0.68834200  1
  F  F12  1  0.60688700  0.14788000  0.33378500  1
  F  F13  1  0.61166600  0.72650000  0.51324500  1
  F  F14  1  0.59917700  0.94847000  0.10925100  1
  F  F15  1  0.39056100  0.64852700  0.82744200  1
  F  F16  1  0.59611200  0.30569800  0.76267400  1
  F  F17  1  0.36058700  0.03419700  0.51660300  1
  F  F18  1  0.38919200  0.22666200  0.01102400  1
  F  F19  1  0.40452000  0.80644500  0.26470400  1
  F  F20  1  0.32531800  0.95545900  0.89709200  1
  F  F21  1  0.40058300  0.44443500  0.60775100  1
  F  F22  1  0.22325900  0.99561700  0.18535600  1
  F  F23  1  0.01877800  0.04273500  0.22126400  1
  F  F24  1  0.27708600  0.50767000  0.31165800  1
  F  F25  1  0.09917700  0.05153000  0.89074900  1
  F  F26  1  0.17581400  0.53992800  0.60590700  1
  F  F27  1  0.09611200  0.69430200  0.23732600  1
  F  F28  1  0.48178400  0.46011600  0.27536500  1
  F  F29  1  0.11166600  0.27350000  0.48675500  1
  F  F30  1  0.14003300  0.47249200  0.98323300  1
  F  F31  1  0.10688700  0.85212000  0.66621500  1
loop_
_geom_bond_atom_site_label_1
_geom_bond_atom_site_label_2
_geom_bond_distance
_geom_bond_site_symmetry_2
Be0 F9 1.527843 1_555
Be0 F11 1.550928 1_555
Be0 F0 1.589637 1_555
Be0 F1 1.593202 1_555
Be1 F4 1.550867 1_555
Be1 F7 1.561721 1_556
Be1 F0 1.562956 1_555
Be1 F2 1.599602 1_545
Be2 F3 1.463529 1_555
Be2 F1 1.485505 1_555
Be2 F2 1.502899 1_554
Be3 F5 1.458211 1_545
Be3 F7 1.617167 1_555
Be3 F23 1.619296 1_655
Be3 F3 1.631000 1_555
Be4 F10 1.457672 1_555
Be4 F28 1.612762 1_555
Be4 F8 1.617468 1_555
Be4 F12 1.634292 1_555
Be5 F12 1.459647 1_565
Be5 F14 1.493218 1_555
Be5 F13 1.503434 1_555
Be6 F11 1.546905 1_555
Be6 F8 1.563778 1_555
Be6 F16 1.564938 1_555
Be6 F13 1.600020 1_555
Be7 F6 1.530283 1_545
Be7 F4 1.551655 1_555
Be7 F16 1.588670 1_555
Be7 F14 1.591532 1_546
Be8 F17 1.458211 1_565
Be8 F20 1.617167 1_555
Be8 F6 1.619296 1_555
Be8 F15 1.631000 1_555
Be9 F15 1.463529 1_555
Be9 F21 1.485505 1_555
Be9 F18 1.502899 1_556
Be10 F22 1.550867 1_555
Be10 F20 1.561721 1_554
Be10 F19 1.562956 1_555
Be10 F18 1.599602 1_565
Be11 F28 1.527843 1_555
Be11 F24 1.550928 1_555
Be11 F19 1.589637 1_555
Be11 F21 1.593202 1_555
Be12 F23 1.530283 1_565
Be12 F22 1.551655 1_555
Be12 F27 1.588670 1_555
Be12 F25 1.591532 1_564
Be13 F24 1.546905 1_555
Be13 F26 1.563778 1_555
Be13 F27 1.564938 1_555
Be13 F29 1.600020 1_555
Be14 F31 1.459647 1_545
Be14 F25 1.493218 1_555
Be14 F29 1.503434 1_555
Be15 F30 1.457672 1_555
Be15 F9 1.612762 1_455
Be15 F26 1.617468 1_555
Be15 F31 1.634292 1_555
