# generated using pymatgen
data_Fe5O3F7
_symmetry_space_group_name_H-M   'P 1'
_cell_length_a   4.79681300
_cell_length_b   4.81059900
_cell_length_c   15.68016100
_cell_angle_alpha   90.00000000
_cell_angle_beta   90.00000000
_cell_angle_gamma   90.00000000
_symmetry_Int_Tables_number   1
_chemical_formula_structural   Fe5O3F7
_chemical_formula_sum   'Fe10 O6 F14'
_cell_volume   361.82824228
_cell_formula_units_Z   2
loop_
 _symmetry_equiv_pos_site_id
 _symmetry_equiv_pos_as_xyz
  1  'x, y, z'
loop_
 _atom_site_type_symbol
 _atom_site_label
 _atom_site_symmetry_multiplicity
 _atom_site_fract_x
 _atom_site_fract_y
 _atom_site_fract_z
 _atom_site_occupancy
  Fe  Fe0  1  0.00933500  0.75214600  0.90478600  1
  Fe  Fe1  1  0.00933500  0.75214600  0.09521400  1
  Fe  Fe2  1  0.97933600  0.70960600  0.29102800  1
  Fe  Fe3  1  0.03090900  0.78086000  0.50000000  1
  Fe  Fe4  1  0.97933600  0.70960600  0.70897200  1
  Fe  Fe5  1  0.53090900  0.21914000  0.00000000  1
  Fe  Fe6  1  0.50933500  0.24785400  0.40478600  1
  Fe  Fe7  1  0.47933600  0.29039400  0.20897200  1
  Fe  Fe8  1  0.50933500  0.24785400  0.59521400  1
  Fe  Fe9  1  0.47933600  0.29039400  0.79102800  1
  O  O0  1  0.18514600  0.55969100  0.19860400  1
  O  O1  1  0.18514600  0.55969100  0.80139600  1
  O  O2  1  0.68514600  0.44030900  0.30139600  1
  O  O3  1  0.68514600  0.44030900  0.69860400  1
  O  O4  1  0.31828300  0.07170400  0.50000000  1
  O  O5  1  0.81828300  0.92829600  0.00000000  1
  F  F0  1  0.21981700  0.52454700  0.00000000  1
  F  F1  1  0.19606400  0.55286600  0.39275100  1
  F  F2  1  0.19606400  0.55286600  0.60724900  1
  F  F3  1  0.69606400  0.44713400  0.89275100  1
  F  F4  1  0.69606400  0.44713400  0.10724900  1
  F  F5  1  0.71981700  0.47545300  0.50000000  1
  F  F6  1  0.30810500  0.05727900  0.89086200  1
  F  F7  1  0.30810500  0.05727900  0.10913800  1
  F  F8  1  0.28750800  0.04407100  0.29881400  1
  F  F9  1  0.28750800  0.04407100  0.70118600  1
  F  F10  1  0.80810500  0.94272100  0.39086200  1
  F  F11  1  0.78750800  0.95592900  0.20118600  1
  F  F12  1  0.78750800  0.95592900  0.79881400  1
  F  F13  1  0.80810500  0.94272100  0.60913800  1
loop_
_geom_bond_atom_site_label_1
_geom_bond_atom_site_label_2
_geom_bond_distance
_geom_bond_site_symmetry_2
Fe0 O5 1.945993 1_456
Fe0 O1 2.048550 1_555
Fe1 O5 1.945993 1_455
Fe1 O0 2.048550 1_555
Fe2 O0 1.896042 1_655
Fe2 O2 1.922527 1_555
Fe3 O4 1.964123 1_565
Fe4 O1 1.896042 1_655
Fe4 O3 1.922527 1_555
Fe5 O5 1.964123 1_545
Fe6 O4 1.945993 1_555
Fe6 O2 2.048550 1_555
Fe7 O2 1.896042 1_555
Fe7 O0 1.922527 1_555
Fe8 O4 1.945993 1_555
Fe8 O3 2.048550 1_555
Fe9 O3 1.896042 1_555
Fe9 O1 1.922527 1_555
F0 Fe5 2.094118 1_555
F0 Fe0 2.108819 1_554
F0 Fe1 2.108819 1_555
F1 Fe2 2.047790 1_455
F1 Fe6 2.108712 1_555
F1 Fe3 2.158380 1_555
F2 Fe4 2.047790 1_455
F2 Fe8 2.108712 1_555
F2 Fe3 2.158380 1_555
F3 Fe9 2.047790 1_555
F3 Fe0 2.108712 1_655
F3 Fe5 2.158380 1_556
F4 Fe7 2.047790 1_555
F4 Fe1 2.108712 1_655
F4 Fe5 2.158380 1_555
F5 Fe3 2.094118 1_655
F5 Fe8 2.108819 1_555
F5 Fe6 2.108819 1_555
F6 Fe0 2.063061 1_545
F6 Fe9 2.093501 1_555
F6 Fe5 2.162654 1_556
F7 Fe1 2.063061 1_545
F7 Fe7 2.093501 1_555
F7 Fe5 2.162654 1_555
F8 Fe7 2.058002 1_555
F8 Fe2 2.188359 1_445
F8 Fe6 2.203261 1_555
F9 Fe9 2.058002 1_555
F9 Fe4 2.188359 1_445
F9 Fe8 2.203261 1_555
F10 Fe6 2.063061 1_565
F10 Fe2 2.093501 1_555
F10 Fe3 2.162654 1_655
F11 Fe2 2.058002 1_555
F11 Fe7 2.188359 1_565
F11 Fe1 2.203261 1_655
F12 Fe4 2.058002 1_555
F12 Fe9 2.188359 1_565
F12 Fe0 2.203261 1_655
F13 Fe8 2.063061 1_565
F13 Fe4 2.093501 1_555
F13 Fe3 2.162654 1_655
