# generated using pymatgen
data_TbTlS2O9
_symmetry_space_group_name_H-M   'P 1'
_cell_length_a   8.55220900
_cell_length_b   10.51411287
_cell_length_c   10.21988148
_cell_angle_alpha   119.89159530
_cell_angle_beta   90.00000000
_cell_angle_gamma   90.00000000
_symmetry_Int_Tables_number   1
_chemical_formula_structural   TbTlS2O9
_chemical_formula_sum   'Tb4 Tl4 S8 O36'
_cell_volume   796.71097657
_cell_formula_units_Z   4
loop_
 _symmetry_equiv_pos_site_id
 _symmetry_equiv_pos_as_xyz
  1  'x, y, z'
loop_
 _atom_site_type_symbol
 _atom_site_label
 _atom_site_symmetry_multiplicity
 _atom_site_fract_x
 _atom_site_fract_y
 _atom_site_fract_z
 _atom_site_occupancy
  Tb  Tb0  1  0.36238200  0.96309700  0.71692900  1
  Tb  Tb1  1  0.63761800  0.03690300  0.28307100  1
  Tb  Tb2  1  0.86238200  0.53690300  0.78307100  1
  Tb  Tb3  1  0.13761800  0.46309700  0.21692900  1
  Tl  Tl0  1  0.33234700  0.68758500  0.96525300  1
  Tl  Tl1  1  0.66765300  0.31241500  0.03474700  1
  Tl  Tl2  1  0.83234700  0.81241500  0.53474700  1
  Tl  Tl3  1  0.16765300  0.18758500  0.46525300  1
  S  S0  1  0.12994000  0.31621900  0.87345000  1
  S  S1  1  0.87006000  0.68378100  0.12655000  1
  S  S2  1  0.62994000  0.18378100  0.62655000  1
  S  S3  1  0.37006000  0.81621900  0.37345000  1
  S  S4  1  0.19944100  0.60314800  0.59859300  1
  S  S5  1  0.80055900  0.39685200  0.40140700  1
  S  S6  1  0.69944100  0.89685200  0.90140700  1
  S  S7  1  0.30055900  0.10314800  0.09859300  1
  O  O0  1  0.78366700  0.03799600  0.96893300  1
  O  O1  1  0.21633300  0.96200400  0.03106700  1
  O  O2  1  0.28366700  0.46200400  0.53106700  1
  O  O3  1  0.71633300  0.53799600  0.46893300  1
  O  O4  1  0.20368000  0.17521200  0.76283600  1
  O  O5  1  0.79632000  0.82478800  0.23716400  1
  O  O6  1  0.70368000  0.32478800  0.73716400  1
  O  O7  1  0.29632000  0.67521200  0.26283600  1
  O  O8  1  0.30989300  0.72905900  0.67587400  1
  O  O9  1  0.69010700  0.27094100  0.32412600  1
  O  O10  1  0.80989300  0.77094100  0.82412600  1
  O  O11  1  0.19010700  0.22905900  0.17587400  1
  O  O12  1  0.38545800  0.11712100  0.97823100  1
  O  O13  1  0.61454200  0.88287900  0.02176900  1
  O  O14  1  0.88545800  0.38287900  0.52176900  1
  O  O15  1  0.11454200  0.61712100  0.47823100  1
  O  O16  1  0.09357200  0.94397200  0.76864100  1
  O  O17  1  0.90642800  0.05602800  0.23135900  1
  O  O18  1  0.59357200  0.55602800  0.73135900  1
  O  O19  1  0.40642800  0.44397200  0.26864100  1
  O  O20  1  0.25033300  0.42012600  0.98118000  1
  O  O21  1  0.74966700  0.57987400  0.01882000  1
  O  O22  1  0.75033300  0.07987400  0.51882000  1
  O  O23  1  0.24966700  0.92012600  0.48118000  1
  O  O24  1  0.01207700  0.29900500  0.97047900  1
  O  O25  1  0.98792300  0.70099500  0.02952100  1
  O  O26  1  0.51207700  0.20099500  0.52952100  1
  O  O27  1  0.48792300  0.79900500  0.47047900  1
  O  O28  1  0.05753300  0.38023100  0.78630600  1
  O  O29  1  0.94246700  0.61976900  0.21369400  1
  O  O30  1  0.55753300  0.11976900  0.71369400  1
  O  O31  1  0.44246700  0.88023100  0.28630600  1
  O  O32  1  0.58812200  0.88545100  0.78422400  1
  O  O33  1  0.41187800  0.11454900  0.21577600  1
  O  O34  1  0.08812200  0.61454900  0.71577600  1
  O  O35  1  0.91187800  0.38545100  0.28422400  1
loop_
_geom_bond_atom_site_label_1
_geom_bond_atom_site_label_2
_geom_bond_distance
_geom_bond_site_symmetry_2
O0 S6 1.475334 1_545
O0 Tl1 2.797733 1_556
O1 S7 1.475334 1_565
O1 Tl0 2.797733 1_554
O2 S4 1.475334 1_555
O2 Tl3 2.797733 1_555
O3 S5 1.475334 1_555
O3 Tl2 2.797733 1_555
O4 S0 1.484304 1_555
O4 Tb0 2.448090 1_545
O5 S1 1.484304 1_555
O5 Tb1 2.448090 1_565
O6 S2 1.484304 1_555
O6 Tb2 2.448090 1_555
O7 S3 1.484304 1_555
O7 Tb3 2.448090 1_555
O8 S4 1.492142 1_555
O8 Tb0 2.324551 1_555
O9 S5 1.492142 1_555
O9 Tb1 2.324551 1_555
O10 S6 1.492142 1_555
O10 Tb2 2.324551 1_555
O11 S7 1.492142 1_555
O11 Tb3 2.324551 1_555
O12 S7 1.497331 1_556
O12 Tb0 2.341467 1_545
O13 S6 1.497331 1_554
O13 Tb1 2.341467 1_565
O14 S5 1.497331 1_555
O14 Tb2 2.341467 1_555
O15 S4 1.497331 1_555
O15 Tb3 2.341467 1_555
O16 Tb0 2.389705 1_555
O17 Tb1 2.389705 1_555
O18 Tb2 2.389705 1_555
O19 Tb3 2.389705 1_555
O20 S0 1.505644 1_555
O20 Tb3 2.419346 1_556
O21 S1 1.505644 1_555
O21 Tb2 2.419346 1_554
O22 S2 1.505644 1_555
O22 Tb1 2.419346 1_555
O23 S3 1.505644 1_555
O23 Tb0 2.419346 1_555
O24 S0 1.486945 1_555
O24 Tb3 2.478291 1_556
O25 S1 1.486945 1_555
O25 Tb2 2.478291 1_554
O26 S2 1.486945 1_555
O26 Tb1 2.478291 1_555
O27 S3 1.486945 1_555
O27 Tb0 2.478291 1_555
O28 S0 1.492325 1_555
O28 Tb2 2.356763 1_455
O29 S1 1.492325 1_555
O29 Tb3 2.356763 1_655
O30 S2 1.492325 1_555
O30 Tb0 2.356763 1_545
O31 S3 1.492325 1_555
O31 Tb1 2.356763 1_565
O32 S6 1.487235 1_555
O32 Tb0 2.329423 1_555
O33 S7 1.487235 1_555
O33 Tb1 2.329423 1_555
O34 S4 1.487235 1_555
O34 Tb2 2.329423 1_455
O35 S5 1.487235 1_555
O35 Tb3 2.329423 1_655
