# generated using pymatgen
data_Nd2NiPtO6
_symmetry_space_group_name_H-M   'P 1'
_cell_length_a   5.79969000
_cell_length_b   5.47987100
_cell_length_c   9.57842909
_cell_angle_alpha   55.15374751
_cell_angle_beta   90.00000000
_cell_angle_gamma   90.00000000
_symmetry_Int_Tables_number   1
_chemical_formula_structural   Nd2NiPtO6
_chemical_formula_sum   'Nd4 Ni2 Pt2 O12'
_cell_volume   249.83173742
_cell_formula_units_Z   2
loop_
 _symmetry_equiv_pos_site_id
 _symmetry_equiv_pos_as_xyz
  1  'x, y, z'
loop_
 _atom_site_type_symbol
 _atom_site_label
 _atom_site_symmetry_multiplicity
 _atom_site_fract_x
 _atom_site_fract_y
 _atom_site_fract_z
 _atom_site_occupancy
  Nd  Nd0  1  0.43219600  0.23217300  0.74902700  1
  Nd  Nd1  1  0.56780400  0.76782700  0.25097300  1
  Nd  Nd2  1  0.93219600  0.76782700  0.75097300  1
  Nd  Nd3  1  0.06780400  0.23217300  0.24902700  1
  Ni  Ni0  1  0.00000000  0.50000000  0.50000000  1
  Ni  Ni1  1  0.50000000  0.50000000  0.00000000  1
  Pt  Pt0  1  0.00000000  0.00000000  0.00000000  1
  Pt  Pt1  1  0.50000000  0.00000000  0.50000000  1
  O  O0  1  0.03299900  0.35375600  0.75069100  1
  O  O1  1  0.96700100  0.64624400  0.24930900  1
  O  O2  1  0.53299900  0.64624400  0.74930900  1
  O  O3  1  0.46700100  0.35375600  0.25069100  1
  O  O4  1  0.70301400  0.86237300  0.94600000  1
  O  O5  1  0.29698600  0.13762700  0.05400000  1
  O  O6  1  0.20301400  0.13762700  0.55400000  1
  O  O7  1  0.79698600  0.86237300  0.44600000  1
  O  O8  1  0.19766700  0.74926900  0.94754900  1
  O  O9  1  0.80233300  0.25073100  0.05245100  1
  O  O10  1  0.69766700  0.25073100  0.55245100  1
  O  O11  1  0.30233300  0.74926900  0.44754900  1
loop_
_geom_bond_atom_site_label_1
_geom_bond_atom_site_label_2
_geom_bond_distance
_geom_bond_site_symmetry_2
Nd0 O2 2.344656 1_555
Nd0 O10 2.389000 1_555
Nd0 O4 2.400838 1_545
Nd0 O0 2.411748 1_555
Nd0 O6 2.575030 1_555
Nd0 O8 2.591978 1_545
Nd0 O11 2.754033 1_555
Nd0 O5 2.772552 1_556
Nd1 O3 2.344656 1_555
Nd1 O11 2.389000 1_555
Nd1 O5 2.400838 1_565
Nd1 O1 2.411748 1_555
Nd1 O7 2.575030 1_555
Nd1 O9 2.591978 1_565
Nd1 O10 2.754033 1_555
Nd1 O4 2.772552 1_554
Nd2 O0 2.344656 1_655
Nd2 O8 2.389000 1_655
Nd2 O6 2.400838 1_665
Nd2 O2 2.411748 1_555
Nd2 O4 2.575030 1_555
Nd2 O10 2.591978 1_565
Nd2 O9 2.754033 1_556
Nd2 O7 2.772552 1_555
Nd3 O1 2.344656 1_455
Nd3 O9 2.389000 1_455
Nd3 O7 2.400838 1_445
Nd3 O3 2.411748 1_555
Nd3 O5 2.575030 1_555
Nd3 O11 2.591978 1_545
Nd3 O8 2.754033 1_554
Nd3 O6 2.772552 1_555
Ni0 O0 2.060512 1_555
Ni0 O1 2.060512 1_455
Ni0 O11 2.099661 1_555
Ni0 O10 2.099661 1_455
Ni0 O7 2.103177 1_455
Ni0 O6 2.103177 1_555
Ni1 O3 2.060512 1_555
Ni1 O2 2.060512 1_554
Ni1 O9 2.099661 1_555
Ni1 O8 2.099661 1_554
Ni1 O4 2.103177 1_554
Ni1 O5 2.103177 1_555
O0 Pt0 2.051099 1_556
O1 Pt0 2.051099 1_665
O2 Pt1 2.051099 1_565
O3 Pt1 2.051099 1_555
O4 Pt0 2.061272 1_666
O5 Pt0 2.061272 1_555
O6 Pt1 2.061272 1_555
O7 Pt1 2.061272 1_565
O8 Pt0 2.059922 1_566
O9 Pt0 2.059922 1_655
O10 Pt1 2.059922 1_555
O11 Pt1 2.059922 1_565
