# generated using pymatgen
data_Cs2LiSbBr6
_symmetry_space_group_name_H-M   'P 1'
_cell_length_a   7.96115686
_cell_length_b   7.96115686
_cell_length_c   7.96115686
_cell_angle_alpha   60.00000000
_cell_angle_beta   60.00000000
_cell_angle_gamma   60.00000000
_symmetry_Int_Tables_number   1
_chemical_formula_structural   Cs2LiSbBr6
_chemical_formula_sum   'Cs2 Li1 Sb1 Br6'
_cell_volume   356.79071563
_cell_formula_units_Z   1
loop_
 _symmetry_equiv_pos_site_id
 _symmetry_equiv_pos_as_xyz
  1  'x, y, z'
loop_
 _atom_site_type_symbol
 _atom_site_label
 _atom_site_symmetry_multiplicity
 _atom_site_fract_x
 _atom_site_fract_y
 _atom_site_fract_z
 _atom_site_occupancy
  Cs  Cs0  1  0.75000000  0.75000000  0.75000000  1
  Cs  Cs1  1  0.25000000  0.25000000  0.25000000  1
  Li  Li0  1  0.50000000  0.50000000  0.50000000  1
  Sb  Sb0  1  0.00000000  0.00000000  0.00000000  1
  Br  Br0  1  0.74885800  0.25114200  0.25114200  1
  Br  Br1  1  0.25114200  0.25114200  0.74885800  1
  Br  Br2  1  0.25114200  0.74885800  0.74885800  1
  Br  Br3  1  0.25114200  0.74885800  0.25114200  1
  Br  Br4  1  0.74885800  0.25114200  0.74885800  1
  Br  Br5  1  0.74885800  0.74885800  0.25114200  1
loop_
_geom_bond_atom_site_label_1
_geom_bond_atom_site_label_2
_geom_bond_distance
_geom_bond_site_symmetry_2
Br0 Li0 2.801836 1_555
Br0 Sb0 2.827552 1_655
Br0 Cs1 3.980599 1_655
Br0 Cs1 3.980599 1_555
Br0 Cs0 3.980599 1_545
Br0 Cs0 3.980599 1_554
Br1 Li0 2.801836 1_555
Br1 Sb0 2.827552 1_556
Br1 Cs0 3.980599 1_455
Br1 Cs1 3.980599 1_555
Br1 Cs1 3.980599 1_556
Br1 Cs0 3.980599 1_545
Br2 Li0 2.801836 1_555
Br2 Sb0 2.827552 1_566
Br2 Cs0 3.980599 1_455
Br2 Cs1 3.980599 1_556
Br2 Cs0 3.980599 1_555
Br2 Cs1 3.980599 1_565
Br3 Li0 2.801836 1_555
Br3 Sb0 2.827552 1_565
Br3 Cs0 3.980599 1_455
Br3 Cs1 3.980599 1_555
Br3 Cs1 3.980599 1_565
Br3 Cs0 3.980599 1_554
Br4 Li0 2.801836 1_555
Br4 Sb0 2.827552 1_656
Br4 Cs1 3.980599 1_655
Br4 Cs1 3.980599 1_556
Br4 Cs0 3.980599 1_555
Br4 Cs0 3.980599 1_545
Br5 Li0 2.801836 1_555
Br5 Sb0 2.827552 1_665
Br5 Cs1 3.980599 1_655
Br5 Cs0 3.980599 1_555
Br5 Cs1 3.980599 1_565
Br5 Cs0 3.980599 1_554
