# generated using pymatgen
data_Sm2Ga12Pd
_symmetry_space_group_name_H-M   'P 1'
_cell_length_a   6.06925900
_cell_length_b   6.06925900
_cell_length_c   15.70288500
_cell_angle_alpha   90.00000000
_cell_angle_beta   90.00000000
_cell_angle_gamma   90.00000000
_symmetry_Int_Tables_number   1
_chemical_formula_structural   Sm2Ga12Pd
_chemical_formula_sum   'Sm4 Ga24 Pd2'
_cell_volume   578.42997709
_cell_formula_units_Z   2
loop_
 _symmetry_equiv_pos_site_id
 _symmetry_equiv_pos_as_xyz
  1  'x, y, z'
loop_
 _atom_site_type_symbol
 _atom_site_label
 _atom_site_symmetry_multiplicity
 _atom_site_fract_x
 _atom_site_fract_y
 _atom_site_fract_z
 _atom_site_occupancy
  Sm  Sm0  1  0.50000000  0.00000000  0.25050500  1
  Sm  Sm1  1  0.00000000  0.50000000  0.25050500  1
  Sm  Sm2  1  0.00000000  0.50000000  0.74949500  1
  Sm  Sm3  1  0.50000000  0.00000000  0.74949500  1
  Ga  Ga0  1  0.00000000  0.00000000  0.18775100  1
  Ga  Ga1  1  0.50000000  0.50000000  0.18775100  1
  Ga  Ga2  1  0.50000000  0.50000000  0.81224900  1
  Ga  Ga3  1  0.00000000  0.00000000  0.81224900  1
  Ga  Ga4  1  0.00000000  0.00000000  0.34312600  1
  Ga  Ga5  1  0.50000000  0.50000000  0.34312600  1
  Ga  Ga6  1  0.50000000  0.50000000  0.65687400  1
  Ga  Ga7  1  0.00000000  0.00000000  0.65687400  1
  Ga  Ga8  1  0.25080400  0.75080400  0.91059400  1
  Ga  Ga9  1  0.75080400  0.74919600  0.91059400  1
  Ga  Ga10  1  0.24919600  0.25080400  0.91059400  1
  Ga  Ga11  1  0.74919600  0.24919600  0.91059400  1
  Ga  Ga12  1  0.24919600  0.74919600  0.08940600  1
  Ga  Ga13  1  0.74919600  0.75080400  0.08940600  1
  Ga  Ga14  1  0.25080400  0.24919600  0.08940600  1
  Ga  Ga15  1  0.75080400  0.25080400  0.08940600  1
  Ga  Ga16  1  0.32822200  0.82822200  0.42918300  1
  Ga  Ga17  1  0.82822200  0.67177800  0.42918300  1
  Ga  Ga18  1  0.17177800  0.32822200  0.42918300  1
  Ga  Ga19  1  0.67177800  0.17177800  0.42918300  1
  Ga  Ga20  1  0.17177800  0.67177800  0.57081700  1
  Ga  Ga21  1  0.67177800  0.82822200  0.57081700  1
  Ga  Ga22  1  0.32822200  0.17177800  0.57081700  1
  Ga  Ga23  1  0.82822200  0.32822200  0.57081700  1
  Pd  Pd0  1  0.50000000  0.00000000  0.00000000  1
  Pd  Pd1  1  0.00000000  0.50000000  0.00000000  1
loop_
_geom_bond_atom_site_label_1
_geom_bond_atom_site_label_2
_geom_bond_distance
_geom_bond_site_symmetry_2
Ga0 Ga4 2.439836 1_555
Ga0 Ga14 2.643747 1_555
Ga0 Ga12 2.643747 1_545
Ga0 Ga15 2.643747 1_455
Ga0 Ga13 2.643747 1_445
Ga0 Sm1 3.190615 1_555
Ga0 Sm1 3.190615 1_545
Ga0 Sm0 3.190615 1_455
Ga0 Sm0 3.190615 1_555
Ga1 Ga5 2.439836 1_555
Ga1 Ga13 2.643747 1_555
Ga1 Ga15 2.643747 1_555
Ga1 Ga12 2.643747 1_555
Ga1 Ga14 2.643747 1_555
Ga1 Sm1 3.190615 1_555
Ga1 Sm0 3.190615 1_565
Ga1 Sm0 3.190615 1_555
Ga1 Sm1 3.190615 1_655
Ga2 Ga6 2.439836 1_555
Ga2 Ga9 2.643747 1_555
Ga2 Ga8 2.643747 1_555
Ga2 Sm2 3.190615 1_555
Ga2 Sm2 3.190615 1_655
Ga2 Sm3 3.190615 1_555
Ga2 Sm3 3.190615 1_565
Ga3 Ga7 2.439836 1_555
Ga3 Ga8 2.643747 1_545
Ga3 Ga9 2.643747 1_445
Ga3 Sm2 3.190615 1_555
Ga3 Sm3 3.190615 1_555
Ga3 Sm2 3.190615 1_545
Ga3 Sm3 3.190615 1_455
Ga4 Sm0 3.365160 1_455
Ga4 Sm1 3.365160 1_555
Ga4 Sm1 3.365160 1_545
Ga4 Sm0 3.365160 1_555
Ga5 Sm1 3.365160 1_655
Ga5 Sm1 3.365160 1_555
Ga5 Sm0 3.365160 1_555
Ga5 Sm0 3.365160 1_565
Ga6 Sm3 3.365160 1_565
Ga6 Sm2 3.365160 1_555
Ga6 Sm2 3.365160 1_655
Ga6 Sm3 3.365160 1_555
Ga7 Sm3 3.365160 1_555
Ga7 Sm3 3.365160 1_455
Ga7 Sm2 3.365160 1_555
Ga7 Sm2 3.365160 1_545
Ga8 Pd0 2.558504 1_566
Ga8 Pd1 2.570054 1_556
Ga8 Sm3 3.312763 1_565
Ga8 Sm2 3.321691 1_555
Ga9 Pd1 2.558504 1_656
Ga9 Pd0 2.570054 1_566
Ga9 Sm2 3.312763 1_655
Ga9 Sm3 3.321691 1_565
Ga10 Pd1 2.558504 1_556
Ga10 Pd0 2.570054 1_556
Ga10 Ga3 2.643747 1_555
Ga10 Ga2 2.643747 1_555
Ga10 Sm2 3.312763 1_555
Ga10 Sm3 3.321691 1_555
Ga11 Pd0 2.558504 1_556
Ga11 Pd1 2.570054 1_656
Ga11 Ga2 2.643747 1_555
Ga11 Ga3 2.643747 1_655
Ga11 Sm3 3.312763 1_555
Ga11 Sm2 3.321691 1_655
Ga12 Pd1 2.558504 1_555
Ga12 Pd0 2.570054 1_565
Ga12 Sm1 3.312763 1_555
Ga12 Sm0 3.321691 1_565
Ga13 Pd0 2.558504 1_565
Ga13 Pd1 2.570054 1_655
Ga13 Sm0 3.312763 1_565
Ga13 Sm1 3.321691 1_655
Ga14 Pd0 2.558504 1_555
Ga14 Pd1 2.570054 1_555
Ga14 Sm0 3.312763 1_555
Ga14 Sm1 3.321691 1_555
Ga15 Pd1 2.558504 1_655
Ga15 Pd0 2.570054 1_555
Ga15 Sm1 3.312763 1_655
Ga15 Sm0 3.321691 1_555
Ga16 Ga20 2.597990 1_555
Ga16 Ga4 2.623241 1_565
Ga16 Ga5 2.623241 1_555
Ga16 Ga19 2.948820 1_565
Ga16 Ga22 3.048643 1_565
Ga16 Ga21 3.048643 1_555
Ga16 Sm0 3.169570 1_565
Ga17 Ga21 2.597990 1_555
Ga17 Ga5 2.623241 1_555
Ga17 Ga4 2.623241 1_665
Ga17 Ga18 2.948820 1_655
Ga17 Ga20 3.048643 1_655
Ga17 Ga23 3.048643 1_555
Ga17 Sm1 3.169570 1_655
Ga18 Ga22 2.597990 1_555
Ga18 Ga4 2.623241 1_555
Ga18 Ga5 2.623241 1_555
Ga18 Ga23 3.048643 1_455
Ga18 Ga20 3.048643 1_555
Ga18 Sm1 3.169570 1_555
Ga19 Ga23 2.597990 1_555
Ga19 Ga5 2.623241 1_555
Ga19 Ga4 2.623241 1_655
Ga19 Ga21 3.048643 1_545
Ga19 Ga22 3.048643 1_555
Ga19 Sm0 3.169570 1_555
Ga20 Ga6 2.623241 1_555
Ga20 Ga7 2.623241 1_565
Ga20 Ga23 2.948820 1_455
Ga20 Sm2 3.169570 1_555
Ga21 Ga6 2.623241 1_555
Ga21 Ga7 2.623241 1_665
Ga21 Ga22 2.948820 1_565
Ga21 Sm3 3.169570 1_565
Ga22 Ga7 2.623241 1_555
Ga22 Ga6 2.623241 1_555
Ga22 Sm3 3.169570 1_555
Ga23 Ga7 2.623241 1_655
Ga23 Ga6 2.623241 1_555
Ga23 Sm2 3.169570 1_655
