# generated using pymatgen
data_H8C2N6O7
_symmetry_space_group_name_H-M   'P 1'
_cell_length_a   8.41973972
_cell_length_b   8.41973972
_cell_length_c   7.88367518
_cell_angle_alpha   84.48714554
_cell_angle_beta   84.48714554
_cell_angle_gamma   120.75887565
_symmetry_Int_Tables_number   1
_chemical_formula_structural   H8C2N6O7
_chemical_formula_sum   'H16 C4 N12 O14'
_cell_volume   471.10932719
_cell_formula_units_Z   2
loop_
 _symmetry_equiv_pos_site_id
 _symmetry_equiv_pos_as_xyz
  1  'x, y, z'
loop_
 _atom_site_type_symbol
 _atom_site_label
 _atom_site_symmetry_multiplicity
 _atom_site_fract_x
 _atom_site_fract_y
 _atom_site_fract_z
 _atom_site_occupancy
  H  H0  1  0.38256400  0.23651000  0.95732700  1
  H  H1  1  0.76349000  0.61743600  0.54267300  1
  H  H2  1  0.61743600  0.76349000  0.04267300  1
  H  H3  1  0.23651000  0.38256400  0.45732700  1
  H  H4  1  0.56884600  0.21820500  0.85659700  1
  H  H5  1  0.78179500  0.43115400  0.64340300  1
  H  H6  1  0.43115400  0.78179500  0.14340300  1
  H  H7  1  0.21820500  0.56884600  0.35659700  1
  H  H8  1  0.34297700  0.47769000  0.82954900  1
  H  H9  1  0.52231000  0.65702300  0.67045100  1
  H  H10  1  0.65702300  0.52231000  0.17045100  1
  H  H11  1  0.47769000  0.34297700  0.32954900  1
  H  H12  1  0.89328100  0.23353000  0.81173300  1
  H  H13  1  0.76647000  0.10671900  0.68826700  1
  H  H14  1  0.10671900  0.76647000  0.18826700  1
  H  H15  1  0.23353000  0.89328100  0.31173300  1
  C  C0  1  0.11518900  0.88481100  0.75000000  1
  C  C1  1  0.88481100  0.11518900  0.25000000  1
  C  C2  1  0.55938300  0.44061700  0.75000000  1
  C  C3  1  0.44061700  0.55938300  0.25000000  1
  N  N0  1  0.21601700  0.78398300  0.75000000  1
  N  N1  1  0.78398300  0.21601700  0.25000000  1
  N  N2  1  0.18599700  0.04082800  0.62420600  1
  N  N3  1  0.95917200  0.81400300  0.87579400  1
  N  N4  1  0.81400300  0.95917200  0.37579400  1
  N  N5  1  0.04082800  0.18599700  0.12420600  1
  N  N6  1  0.46769400  0.53230600  0.75000000  1
  N  N7  1  0.53230600  0.46769400  0.25000000  1
  N  N8  1  0.49159800  0.28035800  0.85944900  1
  N  N9  1  0.71964200  0.50840200  0.64055100  1
  N  N10  1  0.50840200  0.71964200  0.14055100  1
  N  N11  1  0.28035800  0.49159800  0.35944900  1
  O  O0  1  0.15139400  0.64213400  0.68155900  1
  O  O1  1  0.35786600  0.84860600  0.81844100  1
  O  O2  1  0.84860600  0.35786600  0.31844100  1
  O  O3  1  0.64213400  0.15139400  0.18155900  1
  O  O4  1  0.32371900  0.07483400  0.51249400  1
  O  O5  1  0.92516600  0.67628100  0.98750600  1
  O  O6  1  0.67628100  0.92516600  0.48750600  1
  O  O7  1  0.07483400  0.32371900  0.01249400  1
  O  O8  1  0.11748000  0.14284400  0.62293500  1
  O  O9  1  0.85715600  0.88252000  0.87706500  1
  O  O10  1  0.88252100  0.85715600  0.37706500  1
  O  O11  1  0.14284400  0.11747900  0.12293500  1
  O  O12  1  0.78993600  0.21006400  0.75000000  1
  O  O13  1  0.21006400  0.78993600  0.25000000  1
loop_
_geom_bond_atom_site_label_1
_geom_bond_atom_site_label_2
_geom_bond_distance
_geom_bond_site_symmetry_2
H0 N8 1.018332 1_555
H1 N9 1.018332 1_555
H2 N10 1.018332 1_555
H3 N11 1.018332 1_555
H4 N8 1.022246 1_555
H5 N9 1.022246 1_555
H6 N10 1.022246 1_555
H7 N11 1.022246 1_555
H8 N6 1.015668 1_555
H9 N6 1.015668 1_555
H10 N7 1.015668 1_555
H11 N7 1.015668 1_555
H12 O12 0.978280 1_555
H13 O12 0.978280 1_555
H14 O13 0.978280 1_555
H15 O13 0.978280 1_555
C0 N2 1.378253 1_565
C0 N3 1.378253 1_455
C0 N0 1.476007 1_555
C1 N5 1.378253 1_655
C1 N4 1.378253 1_545
C1 N1 1.476007 1_555
C2 N8 1.336018 1_555
C2 N9 1.336018 1_555
C2 N6 1.342222 1_555
C3 N11 1.336018 1_555
C3 N10 1.336018 1_555
C3 N7 1.342222 1_555
N0 O1 1.236586 1_555
N0 O0 1.236586 1_555
N1 O2 1.236586 1_555
N1 O3 1.236586 1_555
N2 O8 1.255788 1_555
N2 O4 1.271997 1_555
N3 O9 1.255788 1_555
N3 O5 1.271997 1_555
N4 O10 1.255795 1_555
N4 O6 1.271997 1_555
N5 O11 1.255795 1_555
N5 O7 1.271997 1_555
