# generated using pymatgen
data_Li9Mn2Co5O16
_symmetry_space_group_name_H-M   'P 1'
_cell_length_a   10.67351166
_cell_length_b   10.67351166
_cell_length_c   9.86324623
_cell_angle_alpha   72.60812755
_cell_angle_beta   72.60812755
_cell_angle_gamma   15.69540041
_symmetry_Int_Tables_number   1
_chemical_formula_structural   Li9Mn2Co5O16
_chemical_formula_sum   'Li9 Mn2 Co5 O16'
_cell_volume   289.80838808
_cell_formula_units_Z   1
loop_
 _symmetry_equiv_pos_site_id
 _symmetry_equiv_pos_as_xyz
  1  'x, y, z'
loop_
 _atom_site_type_symbol
 _atom_site_label
 _atom_site_symmetry_multiplicity
 _atom_site_fract_x
 _atom_site_fract_y
 _atom_site_fract_z
 _atom_site_occupancy
  Li  Li0  1  0.55781900  0.55781900  0.67527800  1
  Li  Li1  1  0.44218100  0.44218100  0.32472200  1
  Li  Li2  1  0.31250600  0.31250600  0.93434800  1
  Li  Li3  1  0.93607700  0.93607700  0.80295000  1
  Li  Li4  1  0.81360600  0.81360600  0.44639800  1
  Li  Li5  1  0.68749400  0.68749400  0.06565200  1
  Li  Li6  1  0.18639400  0.18639400  0.55360200  1
  Li  Li7  1  0.06392300  0.06392300  0.19705000  1
  Li  Li8  1  0.00000000  0.00000000  0.50000000  1
  Mn  Mn0  1  0.12602100  0.12602100  0.87320500  1
  Mn  Mn1  1  0.87397900  0.87397900  0.12679500  1
  Co  Co0  1  0.75541700  0.75541700  0.74266300  1
  Co  Co1  1  0.61422800  0.61422800  0.37899400  1
  Co  Co2  1  0.50000000  0.50000000  0.00000000  1
  Co  Co3  1  0.38577200  0.38577200  0.62100600  1
  Co  Co4  1  0.24458300  0.24458300  0.25733700  1
  O  O0  1  0.65319900  0.65319900  0.73649500  1
  O  O1  1  0.53676600  0.53676600  0.33804400  1
  O  O2  1  0.39976500  0.39976500  0.98918000  1
  O  O3  1  0.03676100  0.03676100  0.85692500  1
  O  O4  1  0.90338400  0.90338400  0.47967700  1
  O  O5  1  0.78380700  0.78380700  0.10815500  1
  O  O6  1  0.27955600  0.27955600  0.60498400  1
  O  O7  1  0.15758600  0.15758600  0.22637700  1
  O  O8  1  0.46323400  0.46323400  0.66195600  1
  O  O9  1  0.34680100  0.34680100  0.26350500  1
  O  O10  1  0.21619300  0.21619300  0.89184500  1
  O  O11  1  0.84241400  0.84241400  0.77362300  1
  O  O12  1  0.72044400  0.72044400  0.39501600  1
  O  O13  1  0.60023500  0.60023500  0.01082000  1
  O  O14  1  0.09661600  0.09661600  0.52032300  1
  O  O15  1  0.96323900  0.96323900  0.14307500  1
loop_
_geom_bond_atom_site_label_1
_geom_bond_atom_site_label_2
_geom_bond_distance
_geom_bond_site_symmetry_2
Li0 O8 2.043688 1_555
Li0 O14 2.091942 1_565
Li0 O14 2.091942 1_655
Li0 O3 2.247373 1_655
Li0 O3 2.247373 1_565
Li0 O0 2.273288 1_555
Li1 O1 2.043688 1_555
Li1 O4 2.091942 1_545
Li1 O4 2.091942 1_455
Li1 O15 2.247373 1_455
Li1 O15 2.247373 1_545
Li1 O9 2.273288 1_555
Li2 O2 2.073586 1_555
Li2 O11 2.105222 1_545
Li2 O11 2.105222 1_455
Li2 O5 2.191625 1_456
Li2 O5 2.191625 1_546
Li2 O10 2.199844 1_555
Li3 O8 1.976285 1_655
Li3 O8 1.976285 1_565
Li3 O11 2.086287 1_555
Li3 O2 2.288307 1_655
Li3 O2 2.288307 1_565
Li3 O3 2.345385 1_665
Li4 O4 2.021948 1_555
Li4 O6 2.099847 1_565
Li4 O6 2.099847 1_655
Li4 O12 2.177309 1_555
Li4 O9 2.259787 1_565
Li4 O9 2.259787 1_655
Li5 O13 2.073586 1_555
Li5 O7 2.105222 1_655
Li5 O7 2.105222 1_565
Li5 O10 2.191625 1_564
Li5 O10 2.191625 1_654
Li5 O5 2.199844 1_555
Li6 O14 2.021948 1_555
Li6 O12 2.099847 1_545
Li6 O12 2.099847 1_455
Li6 O6 2.177309 1_555
Li6 O0 2.259787 1_455
Li6 O0 2.259787 1_545
Li7 O1 1.976285 1_545
Li7 O1 1.976285 1_455
Li7 O7 2.086287 1_555
Li7 O13 2.288307 1_545
Li7 O13 2.288307 1_455
Li7 O15 2.345385 1_445
Li8 O14 2.112293 1_555
Li8 O4 2.112293 1_445
Li8 O8 2.128532 1_455
Li8 O1 2.128532 1_455
Li8 O1 2.128532 1_545
Li8 O8 2.128532 1_545
Mn0 O3 1.942083 1_555
Mn0 O0 1.950579 1_545
Mn0 O0 1.950579 1_455
Mn0 O13 1.953703 1_546
Mn0 O13 1.953703 1_456
Mn0 O10 1.970162 1_555
Mn1 O15 1.942083 1_555
Mn1 O9 1.950579 1_565
Mn1 O9 1.950579 1_655
Mn1 O2 1.953703 1_564
Mn1 O2 1.953703 1_654
Mn1 O5 1.970162 1_555
Co0 O6 1.951982 1_565
Co0 O6 1.951982 1_655
Co0 O11 1.953686 1_555
Co0 O10 2.059244 1_565
Co0 O10 2.059244 1_655
Co0 O0 2.180742 1_555
Co1 O1 1.801600 1_555
Co1 O14 1.972931 1_565
Co1 O14 1.972931 1_655
Co1 O7 2.097054 1_655
Co1 O7 2.097054 1_565
Co1 O12 2.298785 1_555
Co2 O15 2.014364 1_455
Co2 O15 2.014364 1_545
Co2 O3 2.014364 1_654
Co2 O3 2.014364 1_564
Co2 O13 2.154284 1_555
Co2 O2 2.154284 1_554
Co3 O8 1.801600 1_555
Co3 O4 1.972931 1_455
Co3 O4 1.972931 1_545
Co3 O11 2.097054 1_545
Co3 O11 2.097054 1_455
Co3 O6 2.298785 1_555
Co4 O12 1.951982 1_455
Co4 O12 1.951982 1_545
Co4 O7 1.953686 1_555
Co4 O5 2.059244 1_455
Co4 O5 2.059244 1_545
Co4 O9 2.180742 1_555
