# generated using pymatgen
data_RbSO3F
_symmetry_space_group_name_H-M   'P 1'
_cell_length_a   6.23194300
_cell_length_b   7.74486500
_cell_length_c   9.06637200
_cell_angle_alpha   90.00000000
_cell_angle_beta   90.00000000
_cell_angle_gamma   90.00000000
_symmetry_Int_Tables_number   1
_chemical_formula_structural   RbSO3F
_chemical_formula_sum   'Rb4 S4 O12 F4'
_cell_volume   437.59349657
_cell_formula_units_Z   4
loop_
 _symmetry_equiv_pos_site_id
 _symmetry_equiv_pos_as_xyz
  1  'x, y, z'
loop_
 _atom_site_type_symbol
 _atom_site_label
 _atom_site_symmetry_multiplicity
 _atom_site_fract_x
 _atom_site_fract_y
 _atom_site_fract_z
 _atom_site_occupancy
  Rb  Rb0  1  0.25000000  0.34203900  0.82502000  1
  Rb  Rb1  1  0.25000000  0.15796100  0.32502000  1
  Rb  Rb2  1  0.75000000  0.65796100  0.17498000  1
  Rb  Rb3  1  0.75000000  0.84203900  0.67498000  1
  S  S0  1  0.25000000  0.80203400  0.93897200  1
  S  S1  1  0.25000000  0.69796600  0.43897200  1
  S  S2  1  0.75000000  0.19796600  0.06102700  1
  S  S3  1  0.75000000  0.30203400  0.56102800  1
  O  O0  1  0.05319300  0.70554300  0.91190100  1
  O  O1  1  0.44680700  0.79445700  0.41190100  1
  O  O2  1  0.55319300  0.29445700  0.08809900  1
  O  O3  1  0.94680700  0.20554300  0.58809900  1
  O  O4  1  0.94680700  0.29445700  0.08809900  1
  O  O5  1  0.55319300  0.20554300  0.58809900  1
  O  O6  1  0.44680700  0.70554300  0.91190100  1
  O  O7  1  0.05319300  0.79445700  0.41190100  1
  O  O8  1  0.25000000  0.91264000  0.06733000  1
  O  O9  1  0.25000000  0.58736000  0.56733000  1
  O  O10  1  0.75000000  0.08736000  0.93267000  1
  O  O11  1  0.75000000  0.41264000  0.43267000  1
  F  F0  1  0.25000000  0.94196500  0.80025800  1
  F  F1  1  0.25000000  0.55803500  0.30025800  1
  F  F2  1  0.75000000  0.05803500  0.19974200  1
  F  F3  1  0.75000000  0.44196500  0.69974200  1
loop_
_geom_bond_atom_site_label_1
_geom_bond_atom_site_label_2
_geom_bond_distance
_geom_bond_site_symmetry_2
O0 S0 1.457048 1_555
O0 Rb3 3.049862 1_455
O0 Rb2 3.065125 1_456
O0 Rb0 3.170268 1_555
O1 S1 1.457048 1_555
O1 Rb2 3.049862 1_555
O1 Rb3 3.065125 1_555
O1 Rb1 3.170268 1_565
O2 S2 1.457049 1_555
O2 Rb1 3.049862 1_555
O2 Rb0 3.065125 1_554
O2 Rb2 3.170268 1_555
O3 S3 1.457048 1_555
O3 Rb0 3.049862 1_655
O3 Rb1 3.065125 1_655
O3 Rb3 3.170268 1_545
O4 S2 1.457049 1_555
O4 Rb1 3.049862 1_655
O4 Rb0 3.065125 1_654
O4 Rb2 3.170268 1_555
O5 S3 1.457048 1_555
O5 Rb0 3.049862 1_555
O5 Rb1 3.065125 1_555
O5 Rb3 3.170268 1_545
O6 S0 1.457048 1_555
O6 Rb3 3.049862 1_555
O6 Rb2 3.065125 1_556
O6 Rb0 3.170268 1_555
O7 S1 1.457048 1_555
O7 Rb2 3.049862 1_455
O7 Rb3 3.065125 1_455
O7 Rb1 3.170268 1_565
O8 S0 1.445028 1_554
O8 Rb1 3.011358 1_565
O9 S1 1.445028 1_555
O9 Rb0 3.011358 1_555
O10 S2 1.445021 1_556
O10 Rb3 3.011358 1_545
O11 S3 1.445028 1_555
O11 Rb2 3.011358 1_555
F0 S0 1.660165 1_555
F0 Rb0 3.106642 1_565
F0 Rb3 3.405628 1_455
F0 Rb3 3.405628 1_555
F1 S1 1.660165 1_555
F1 Rb1 3.106642 1_555
F1 Rb2 3.405628 1_555
F1 Rb2 3.405628 1_455
F2 S2 1.660172 1_555
F2 Rb2 3.106642 1_545
F2 Rb1 3.405628 1_655
F2 Rb1 3.405628 1_555
F3 S3 1.660165 1_555
F3 Rb3 3.106642 1_555
F3 Rb0 3.405628 1_655
F3 Rb0 3.405628 1_555
