# generated using pymatgen
data_Ba6Mg(IrO3)6
_symmetry_space_group_name_H-M   'P 1'
_cell_length_a   5.98222375
_cell_length_b   5.68670173
_cell_length_c   15.07616178
_cell_angle_alpha   91.30254521
_cell_angle_beta   83.46285948
_cell_angle_gamma   117.80919779
_symmetry_Int_Tables_number   1
_chemical_formula_structural   Ba6Mg(IrO3)6
_chemical_formula_sum   'Ba6 Mg1 Ir6 O18'
_cell_volume   450.42462361
_cell_formula_units_Z   1
loop_
 _symmetry_equiv_pos_site_id
 _symmetry_equiv_pos_as_xyz
  1  'x, y, z'
loop_
 _atom_site_type_symbol
 _atom_site_label
 _atom_site_symmetry_multiplicity
 _atom_site_fract_x
 _atom_site_fract_y
 _atom_site_fract_z
 _atom_site_occupancy
  Ba  Ba0  1  0.09215264  0.05048579  0.75685555  1
  Ba  Ba1  1  0.90774959  0.94864428  0.24344859  1
  Ba  Ba2  1  0.36564798  0.68115300  0.90766723  1
  Ba  Ba3  1  0.48396967  0.74138637  0.61162124  1
  Ba  Ba4  1  0.63613370  0.31955755  0.09196664  1
  Ba  Ba5  1  0.51601099  0.25812239  0.38859457  1
  Mg  Mg0  1  0.00053907  0.50056104  0.50007182  1
  Ir  Ir0  1  0.00021677  0.00036374  0.00000134  1
  Ir  Ir1  1  0.99985381  0.00001753  0.50007734  1
  Ir  Ir2  1  0.28673263  0.64694791  0.14645826  1
  Ir  Ir3  1  0.18377342  0.58183639  0.33009721  1
  Ir  Ir4  1  0.71402213  0.35306438  0.85327417  1
  Ir  Ir5  1  0.81653017  0.41761701  0.66996064  1
  O  O0  1  0.95604187  0.22198450  0.40455592  1
  O  O1  1  0.67385162  0.85982562  0.09278910  1
  O  O2  1  0.04378975  0.77826815  0.59576025  1
  O  O3  1  0.32653317  0.14000060  0.90722135  1
  O  O4  1  0.17530514  0.89418755  0.08798702  1
  O  O5  1  0.95553807  0.72184733  0.40526254  1
  O  O6  1  0.82471698  0.10712321  0.91220439  1
  O  O7  1  0.04476187  0.27819295  0.59487207  1
  O  O8  1  0.38230977  0.68201125  0.43359166  1
  O  O9  1  0.15553638  0.37081972  0.05049911  1
  O  O10  1  0.61782449  0.31741683  0.56647260  1
  O  O11  1  0.83846888  0.63047380  0.94892162  1
  O  O12  1  0.62150429  0.54994182  0.76165435  1
  O  O13  1  0.37822963  0.44917341  0.23822039  1
  O  O14  1  0.61590872  0.08787459  0.75144658  1
  O  O15  1  0.04924745  0.52858391  0.77314897  1
  O  O16  1  0.38524012  0.91124975  0.24861293  1
  O  O17  1  0.95185822  0.47127063  0.22668457  1
loop_
_geom_bond_atom_site_label_1
_geom_bond_atom_site_label_2
_geom_bond_distance
_geom_bond_site_symmetry_2
Ba0 O3 2.714660 1_555
Ba0 O6 2.782424 1_455
Ba0 O2 2.819544 1_545
Ba0 O15 2.850350 1_555
Ba0 O15 2.871005 1_545
Ba0 O7 2.892212 1_555
Ba0 O12 2.918886 1_445
Ba0 O14 2.964377 1_455
Ba0 O14 3.031499 1_555
Ba0 O12 3.122653 1_555
Ba1 O1 2.717377 1_555
Ba1 O4 2.779622 1_655
Ba1 O0 2.822803 1_565
Ba1 O17 2.850436 1_555
Ba1 O17 2.872916 1_565
Ba1 O5 2.888306 1_555
Ba1 O13 2.917932 1_665
Ba1 O16 2.971326 1_655
Ba1 O16 3.024376 1_555
Ba1 O13 3.124057 1_555
Ba2 O9 2.611135 1_556
Ba2 O6 2.691205 1_565
Ba2 O3 2.726582 1_565
Ba2 O15 2.776687 1_555
Ba2 O12 2.822942 1_555
Ba2 O3 2.975324 1_555
Ba2 O11 3.021460 1_455
Ba2 O14 3.058072 1_565
Ba2 O11 3.104792 1_555
Ba2 O4 3.253795 1_556
Ba2 O6 3.351964 1_455
Ba2 O1 3.393498 1_556
Ba3 O7 2.751130 1_555
Ba3 O14 2.772737 1_565
Ba3 O2 2.774197 1_555
Ba3 O8 2.797605 1_555
Ba3 O12 2.889628 1_555
Ba3 O10 2.918907 1_555
Ba3 Ir1 3.034957 1_565
Ba3 O10 3.060170 1_565
Ba3 O15 3.148561 1_555
Ba3 O2 3.237487 1_655
Ba3 O7 3.305114 1_665
Ba4 O11 2.612311 1_554
Ba4 O4 2.695128 1_545
Ba4 O1 2.727353 1_545
Ba4 O17 2.776707 1_555
Ba4 O13 2.828080 1_555
Ba4 O1 2.973624 1_555
Ba4 O9 2.975104 1_655
Ba4 O16 3.067873 1_545
Ba4 O9 3.152971 1_555
Ba4 O6 3.240911 1_554
Ba4 O4 3.348993 1_655
Ba4 O3 3.392821 1_554
Ba5 O5 2.753444 1_555
Ba5 O0 2.771408 1_555
Ba5 O16 2.775525 1_545
Ba5 O10 2.795612 1_555
Ba5 O13 2.893497 1_555
Ba5 O8 2.917472 1_555
Ba5 Ir1 3.035666 1_455
Ba5 O8 3.060354 1_545
Ba5 O17 3.156319 1_555
Ba5 O0 3.240074 1_455
Ba5 O5 3.302671 1_445
Mg0 O5 2.045620 1_455
Mg0 O7 2.047469 1_555
Mg0 O2 2.059668 1_555
Mg0 O0 2.060152 1_455
Mg0 O8 2.147595 1_555
Mg0 O10 2.151573 1_455
Ir0 O9 2.035376 1_555
Ir0 O11 2.037343 1_444
Ir0 O4 2.040605 1_545
Ir0 O6 2.042187 1_454
Ir0 O3 2.092896 1_554
Ir0 O1 2.092960 1_445
Ir1 O7 2.050643 1_655
Ir1 O5 2.051365 1_545
Ir1 O0 2.052593 1_555
Ir1 O2 2.053884 1_645
Ir2 O17 2.027315 1_455
Ir2 O9 2.044497 1_555
Ir2 O16 2.062327 1_555
Ir2 O4 2.064654 1_555
Ir2 O13 2.072658 1_555
Ir2 O1 2.117857 1_555
Ir3 O8 1.979875 1_555
Ir3 O16 2.032680 1_555
Ir3 O13 2.060450 1_555
Ir3 O17 2.093998 1_455
Ir3 O5 2.098402 1_455
Ir3 O0 2.111569 1_455
Ir4 O15 2.027971 1_655
Ir4 O11 2.041430 1_555
Ir4 O6 2.058763 1_555
Ir4 O14 2.061432 1_555
Ir4 O12 2.071292 1_555
Ir4 O3 2.120801 1_555
Ir5 O10 1.980354 1_555
Ir5 O14 2.033459 1_555
Ir5 O12 2.059863 1_555
Ir5 O15 2.094109 1_655
Ir5 O7 2.095619 1_655
Ir5 O2 2.112428 1_655
