# generated using pymatgen
data_La6CuSb15
_symmetry_space_group_name_H-M   'P 1'
_cell_length_a   12.69153068
_cell_length_b   12.69153068
_cell_length_c   4.35408353
_cell_angle_alpha   80.28848330
_cell_angle_beta   80.28848330
_cell_angle_gamma   101.22872656
_symmetry_Int_Tables_number   1
_chemical_formula_structural   La6CuSb15
_chemical_formula_sum   'La6 Cu1 Sb15'
_cell_volume   663.15503734
_cell_formula_units_Z   1
loop_
 _symmetry_equiv_pos_site_id
 _symmetry_equiv_pos_as_xyz
  1  'x, y, z'
loop_
 _atom_site_type_symbol
 _atom_site_label
 _atom_site_symmetry_multiplicity
 _atom_site_fract_x
 _atom_site_fract_y
 _atom_site_fract_z
 _atom_site_occupancy
  La  La0  1  0.32447300  0.67671300  0.92994500  1
  La  La1  1  0.67671300  0.32447300  0.92994500  1
  La  La2  1  0.26821700  0.00460200  0.79521600  1
  La  La3  1  0.72791100  0.99488100  0.07382100  1
  La  La4  1  0.99488100  0.72791100  0.07382100  1
  La  La5  1  0.00460200  0.26821700  0.79521600  1
  Cu  Cu0  1  0.25981200  0.25981200  0.68113000  1
  Sb  Sb0  1  0.40454900  0.40454900  0.02148300  1
  Sb  Sb1  1  0.59697100  0.59697100  0.83372300  1
  Sb  Sb2  1  0.46611900  0.24589900  0.57457200  1
  Sb  Sb3  1  0.54164100  0.75244700  0.27982200  1
  Sb  Sb4  1  0.75244700  0.54164100  0.27982200  1
  Sb  Sb5  1  0.24589900  0.46611900  0.57457200  1
  Sb  Sb6  1  0.51328600  0.91579100  0.71665600  1
  Sb  Sb7  1  0.48543000  0.08119600  0.14400800  1
  Sb  Sb8  1  0.08119600  0.48543000  0.14400800  1
  Sb  Sb9  1  0.91579100  0.51328600  0.71665600  1
  Sb  Sb10  1  0.15687600  0.15687600  0.27493100  1
  Sb  Sb11  1  0.85217600  0.85217600  0.58601200  1
  Sb  Sb12  1  0.19874500  0.79965000  0.43239000  1
  Sb  Sb13  1  0.79965000  0.19874500  0.43239000  1
  Sb  Sb14  1  0.99321500  0.99321500  0.97716200  1
loop_
_geom_bond_atom_site_label_1
_geom_bond_atom_site_label_2
_geom_bond_distance
_geom_bond_site_symmetry_2
La0 Sb12 3.266401 1_555
La0 Sb12 3.272621 1_556
La0 Sb6 3.358329 1_555
La0 Sb5 3.377888 1_555
La0 Sb5 3.391572 1_556
La0 Sb8 3.412022 1_556
La0 Sb3 3.423453 1_556
La0 Sb3 3.457085 1_555
La0 Sb0 3.763293 1_556
La0 Sb1 3.765335 1_555
La1 Sb13 3.266401 1_555
La1 Sb13 3.272621 1_556
La1 Sb9 3.358329 1_555
La1 Sb2 3.377888 1_555
La1 Sb2 3.391572 1_556
La1 Sb7 3.412022 1_556
La1 Sb4 3.423453 1_556
La1 Sb4 3.457085 1_555
La1 Sb0 3.763293 1_556
La1 Sb1 3.765335 1_555
La2 Sb12 3.316955 1_545
La2 Sb12 3.329732 1_546
La2 Sb10 3.394719 1_556
La2 Sb10 3.395602 1_555
La2 Sb14 3.414975 1_445
La2 Sb7 3.423147 1_556
La2 Sb2 3.436231 1_555
La2 Sb7 3.460290 1_555
La2 Sb6 3.492550 1_545
La3 Sb13 3.299355 1_565
La3 Sb14 3.326810 1_554
La3 Sb13 3.333181 1_564
La3 Sb3 3.373579 1_555
La3 Sb11 3.399833 1_554
La3 Sb6 3.417099 1_555
La3 Sb11 3.417209 1_555
La3 Sb6 3.425880 1_554
La3 Sb7 3.445689 1_565
La4 Sb12 3.299355 1_655
La4 Sb14 3.326810 1_554
La4 Sb12 3.333181 1_654
La4 Sb4 3.373579 1_555
La4 Sb11 3.399833 1_554
La4 Sb9 3.417099 1_555
La4 Sb11 3.417209 1_555
La4 Sb9 3.425880 1_554
La4 Sb8 3.445689 1_655
La5 Sb13 3.316955 1_455
La5 Sb13 3.329732 1_456
La5 Sb10 3.394719 1_556
La5 Sb10 3.395602 1_555
La5 Sb14 3.414975 1_445
La5 Sb8 3.423147 1_556
La5 Sb5 3.436231 1_555
La5 Sb8 3.460290 1_555
La5 Sb9 3.492550 1_455
Cu0 Sb5 2.626796 1_555
Cu0 Sb2 2.626796 1_555
Cu0 Sb10 2.674745 1_556
Cu0 Sb10 2.726873 1_555
Cu0 Sb0 3.076917 1_556
Cu0 Sb0 3.181800 1_555
Cu0 La2 3.218526 1_555
Cu0 La5 3.218526 1_555
Sb0 Sb1 2.987727 1_554
Sb0 Sb5 3.142124 1_554
Sb0 Sb2 3.142124 1_554
Sb0 Sb2 3.174268 1_555
Sb0 Sb5 3.174268 1_555
Sb1 Sb3 3.087396 1_556
Sb1 Sb4 3.087396 1_556
Sb1 Sb4 3.115874 1_555
Sb1 Sb3 3.115874 1_555
Sb2 Sb7 3.038562 1_556
Sb2 Sb7 3.051345 1_555
Sb3 Sb6 3.051737 1_554
Sb3 Sb6 3.071602 1_555
Sb4 Sb9 3.051737 1_554
Sb4 Sb9 3.071602 1_555
Sb5 Sb8 3.038562 1_556
Sb5 Sb8 3.051345 1_555
Sb6 Sb7 3.062521 1_566
Sb6 Sb7 3.093411 1_565
Sb8 Sb9 3.062521 1_454
Sb8 Sb9 3.093411 1_455
Sb11 Sb14 2.997701 1_554
Sb11 Sb14 3.180868 1_555
