# generated using pymatgen
data_Hg
_symmetry_space_group_name_H-M   'P 1'
_cell_length_a   8.31555586
_cell_length_b   8.31555586
_cell_length_c   8.31555586
_cell_angle_alpha   90.00000000
_cell_angle_beta   90.00000000
_cell_angle_gamma   90.00000000
_symmetry_Int_Tables_number   1
_chemical_formula_structural   Hg
_chemical_formula_sum   Hg20
_cell_volume   575.00795877
_cell_formula_units_Z   20
loop_
 _symmetry_equiv_pos_site_id
 _symmetry_equiv_pos_as_xyz
  1  'x, y, z'
loop_
 _atom_site_type_symbol
 _atom_site_label
 _atom_site_symmetry_multiplicity
 _atom_site_fract_x
 _atom_site_fract_y
 _atom_site_fract_z
 _atom_site_occupancy
  Hg  Hg0  1  0.87500000  0.70492959  0.04507041  1
  Hg  Hg1  1  0.06069085  0.06069085  0.06069085  1
  Hg  Hg2  1  0.20493059  0.45493059  0.12499900  1
  Hg  Hg3  1  0.81069085  0.31069085  0.18930915  1
  Hg  Hg4  1  0.45493059  0.12499900  0.20493059  1
  Hg  Hg5  1  0.54506941  0.62500100  0.29506941  1
  Hg  Hg6  1  0.18930915  0.81069085  0.31069085  1
  Hg  Hg7  1  0.79506941  0.95493059  0.37500000  1
  Hg  Hg8  1  0.93930915  0.56069085  0.43930815  1
  Hg  Hg9  1  0.12499900  0.20493059  0.45493059  1
  Hg  Hg10  1  0.62500100  0.29506941  0.54506941  1
  Hg  Hg11  1  0.43930815  0.93930915  0.56069085  1
  Hg  Hg12  1  0.29506941  0.54506941  0.62500100  1
  Hg  Hg13  1  0.68930815  0.68930815  0.68930815  1
  Hg  Hg14  1  0.04507041  0.87500000  0.70492959  1
  Hg  Hg15  1  0.95493059  0.37500000  0.79506941  1
  Hg  Hg16  1  0.31069085  0.18930915  0.81069085  1
  Hg  Hg17  1  0.70492959  0.04507041  0.87500000  1
  Hg  Hg18  1  0.56069085  0.43930815  0.93930915  1
  Hg  Hg19  1  0.37500000  0.79506941  0.95493059  1
loop_
_geom_bond_atom_site_label_1
_geom_bond_atom_site_label_2
_geom_bond_distance
_geom_bond_site_symmetry_2
Hg0 Hg1 3.339616 1_665
Hg0 Hg13 3.339628 1_554
Hg1 Hg3 3.128491 1_455
Hg1 Hg16 3.128491 1_554
Hg1 Hg6 3.128491 1_545
Hg1 Hg14 3.339616 1_544
Hg1 Hg17 3.339616 1_454
Hg2 Hg6 3.339613 1_555
Hg3 Hg8 3.128486 1_555
Hg3 Hg7 3.339609 1_545
Hg3 Hg4 3.339613 1_555
Hg5 Hg6 3.339605 1_555
Hg6 Hg8 3.128489 1_455
Hg8 Hg9 3.339606 1_655
Hg10 Hg3 3.339605 1_555
Hg10 Hg11 3.339617 1_545
Hg11 Hg6 3.128486 1_555
Hg11 Hg16 3.128489 1_565
Hg11 Hg13 3.128494 1_555
Hg11 Hg4 3.339606 1_565
Hg11 Hg7 3.339617 1_555
Hg12 Hg16 3.339605 1_555
Hg12 Hg8 3.339617 1_455
Hg13 Hg8 3.128494 1_555
Hg13 Hg18 3.128494 1_555
Hg13 Hg17 3.339628 1_565
Hg13 Hg14 3.339628 1_655
Hg15 Hg16 3.339609 1_655
Hg15 Hg8 3.339617 1_555
Hg16 Hg18 3.128486 1_555
Hg16 Hg9 3.339613 1_555
Hg18 Hg3 3.128489 1_556
Hg18 Hg2 3.339606 1_556
Hg18 Hg19 3.339617 1_555
Hg18 Hg5 3.339617 1_556
Hg19 Hg6 3.339609 1_556
