# generated using pymatgen
data_CsAc3
_symmetry_space_group_name_H-M   'P 1'
_cell_length_a   5.80452300
_cell_length_b   5.80452300
_cell_length_c   5.80452300
_cell_angle_alpha   90.00000000
_cell_angle_beta   90.00000000
_cell_angle_gamma   90.00000000
_symmetry_Int_Tables_number   1
_chemical_formula_structural   CsAc3
_chemical_formula_sum   'Cs1 Ac3'
_cell_volume   195.56881721
_cell_formula_units_Z   1
loop_
 _symmetry_equiv_pos_site_id
 _symmetry_equiv_pos_as_xyz
  1  'x, y, z'
loop_
 _atom_site_type_symbol
 _atom_site_label
 _atom_site_symmetry_multiplicity
 _atom_site_fract_x
 _atom_site_fract_y
 _atom_site_fract_z
 _atom_site_occupancy
  Cs  Cs0  1  0.00000000  0.00000000  0.00000000  1
  Ac  Ac0  1  0.00000000  0.50000000  0.50000000  1
  Ac  Ac1  1  0.50000000  0.00000000  0.50000000  1
  Ac  Ac2  1  0.50000000  0.50000000  0.00000000  1
loop_
_geom_bond_atom_site_label_1
_geom_bond_atom_site_label_2
_geom_bond_distance
_geom_bond_site_symmetry_2
Ac0 Ac1 4.104418 1_555
Ac0 Ac1 4.104418 1_465
Ac0 Cs0 4.104418 1_555
Ac0 Cs0 4.104418 1_566
Ac0 Ac2 4.104418 1_556
Ac0 Ac2 4.104418 1_555
Ac0 Ac1 4.104418 1_455
Ac0 Cs0 4.104418 1_556
Ac0 Ac1 4.104418 1_565
Ac0 Cs0 4.104418 1_565
Ac0 Ac2 4.104418 1_456
Ac0 Ac2 4.104418 1_455
Ac1 Cs0 4.104418 1_656
Ac1 Cs0 4.104418 1_555
Ac1 Ac2 4.104418 1_556
Ac1 Ac2 4.104418 1_555
Ac1 Cs0 4.104418 1_556
Ac1 Ac2 4.104418 1_545
Ac1 Cs0 4.104418 1_655
Ac1 Ac2 4.104418 1_546
Ac2 Cs0 4.104418 1_555
Ac2 Cs0 4.104418 1_655
Ac2 Cs0 4.104418 1_665
Ac2 Cs0 4.104418 1_565
