# generated using pymatgen
data_Li9Mn2Co5O16
_symmetry_space_group_name_H-M   'P 1'
_cell_length_a   2.95130700
_cell_length_b   10.05379011
_cell_length_c   10.22918490
_cell_angle_alpha   108.19188411
_cell_angle_beta   90.75676744
_cell_angle_gamma   91.07456650
_symmetry_Int_Tables_number   1
_chemical_formula_structural   Li9Mn2Co5O16
_chemical_formula_sum   'Li9 Mn2 Co5 O16'
_cell_volume   288.23878538
_cell_formula_units_Z   1
loop_
 _symmetry_equiv_pos_site_id
 _symmetry_equiv_pos_as_xyz
  1  'x, y, z'
loop_
 _atom_site_type_symbol
 _atom_site_label
 _atom_site_symmetry_multiplicity
 _atom_site_fract_x
 _atom_site_fract_y
 _atom_site_fract_z
 _atom_site_occupancy
  Li  Li0  1  0.98655200  0.26439400  0.26062000  1
  Li  Li1  1  0.48782300  0.50552700  0.74696900  1
  Li  Li2  1  0.00731600  0.74727700  0.25171900  1
  Li  Li3  1  0.49523600  0.49536200  0.25687000  1
  Li  Li4  1  0.01098100  0.74672200  0.74072700  1
  Li  Li5  1  0.51362500  0.99159700  0.24722800  1
  Li  Li6  1  0.49899500  0.00307600  0.74887700  1
  Li  Li7  1  0.99959500  0.25011300  0.75120300  1
  Li  Li8  1  0.01203200  0.49514600  0.49033800  1
  Mn  Mn0  1  0.00121400  0.00028000  0.00126900  1
  Mn  Mn1  1  0.48556000  0.25485900  0.50089200  1
  Co  Co0  1  0.00236600  0.50078900  0.99939400  1
  Co  Co1  1  0.51545800  0.74192800  0.49971000  1
  Co  Co2  1  0.50066800  0.73725500  0.99767400  1
  Co  Co3  1  0.98917600  0.99956100  0.50381400  1
  Co  Co4  1  0.49555300  0.26318900  0.00039200  1
  O  O0  1  0.50979200  0.11086500  0.10841900  1
  O  O1  1  0.99488300  0.35909100  0.60979000  1
  O  O2  1  0.50735700  0.63012100  0.11721600  1
  O  O3  1  0.00528100  0.36816300  0.12279200  1
  O  O4  1  0.50805400  0.64327500  0.61302900  1
  O  O5  1  0.00426900  0.87738900  0.11287300  1
  O  O6  1  0.97252800  0.87526800  0.61192700  1
  O  O7  1  0.45165900  0.12241500  0.61376500  1
  O  O8  1  0.49633400  0.36000500  0.38371700  1
  O  O9  1  0.99480000  0.63222600  0.87284400  1
  O  O10  1  0.53517000  0.87504000  0.39251700  1
  O  O11  1  0.05441400  0.63746000  0.38449500  1
  O  O12  1  0.49300900  0.88875100  0.89328900  1
  O  O13  1  0.97661100  0.12989300  0.39593000  1
  O  O14  1  0.99383000  0.12290300  0.89007400  1
  O  O15  1  0.49986000  0.37006300  0.87962500  1
loop_
_geom_bond_atom_site_label_1
_geom_bond_atom_site_label_2
_geom_bond_distance
_geom_bond_site_symmetry_2
Li0 O8 1.978151 1_655
Li0 O8 1.986767 1_555
Li0 O3 1.999378 1_655
Li0 O13 2.216628 1_555
Li0 O0 2.268576 1_555
Li0 O0 2.417339 1_655
Li1 O9 2.091112 1_555
Li1 O9 2.119574 1_455
Li1 O1 2.197459 1_455
Li1 O15 2.202712 1_555
Li1 O4 2.232144 1_555
Li1 O1 2.285647 1_555
Li2 O11 2.005013 1_555
Li2 O2 2.080105 1_455
Li2 O2 2.136632 1_555
Li2 O10 2.151967 1_455
Li2 O10 2.204931 1_555
Li2 O5 2.211025 1_555
Li3 O11 2.094738 1_555
Li3 O3 2.095348 1_555
Li3 O8 2.153633 1_555
Li3 O3 2.194073 1_655
Li3 O2 2.255137 1_555
Li3 O11 2.271324 1_655
Li4 O4 2.008403 1_455
Li4 O9 2.030955 1_455
Li4 O4 2.049306 1_555
Li4 O6 2.117476 1_455
Li4 O12 2.229794 1_555
Li4 O12 2.358980 1_455
Li5 O5 2.088634 1_555
Li5 O5 2.105624 1_655
Li5 O0 2.125387 1_565
Li5 O13 2.160396 1_565
Li5 O10 2.161885 1_555
Li5 O13 2.363178 1_465
Li6 O7 2.099003 1_555
Li6 O14 2.112358 1_555
Li6 O6 2.135841 1_545
Li6 O12 2.136284 1_545
Li6 O6 2.184361 1_445
Li6 O14 2.190431 1_455
Li7 O15 2.062201 1_655
Li7 O1 2.069480 1_555
Li7 O7 2.095612 1_655
Li7 O15 2.117537 1_555
Li7 O14 2.188181 1_555
Li7 O7 2.230456 1_555
Li8 O11 2.049185 1_555
Li8 O8 2.065730 1_555
Li8 O8 2.074917 1_455
Li8 O1 2.099836 1_455
Li8 O4 2.153760 1_555
Li8 O4 2.229501 1_455
Mn0 O14 1.920941 1_454
Mn0 O5 1.926329 1_545
Mn0 O0 1.955354 1_555
Mn0 O12 1.961313 1_444
Mn0 O0 1.970405 1_455
Mn0 O12 1.978395 1_544
Mn1 O8 1.829224 1_555
Mn1 O1 1.940704 1_555
Mn1 O1 1.951093 1_455
Mn1 O13 2.007936 1_455
Mn1 O7 2.018463 1_555
Mn1 O13 2.024522 1_555
Co0 O2 2.065400 1_556
Co0 O15 2.073947 1_455
Co0 O2 2.101625 1_456
Co0 O3 2.102946 1_556
Co0 O9 2.119172 1_455
Co0 O15 2.120990 1_555
Co1 O4 1.745165 1_555
Co1 O11 1.864057 1_555
Co1 O6 1.965931 1_555
Co1 O10 1.977804 1_555
Co1 O11 2.088416 1_655
Co1 O6 2.202414 1_455
Co2 O2 1.865042 1_556
Co2 O9 2.005761 1_455
Co2 O9 2.034033 1_555
Co2 O5 2.102650 1_656
Co2 O12 2.115810 1_555
Co2 O5 2.146212 1_556
Co3 O6 1.910240 1_555
Co3 O10 1.914580 1_555
Co3 O7 1.918959 1_665
Co3 O13 1.959552 1_565
Co3 O7 2.135503 1_565
Co3 O10 2.166607 1_655
Co4 O15 1.873362 1_554
Co4 O3 2.002548 1_655
Co4 O3 2.013745 1_555
Co4 O14 2.083027 1_454
Co4 O14 2.133796 1_554
Co4 O0 2.150811 1_555
