# generated using pymatgen
data_Ba10Zn4Cu(WO6)5
_symmetry_space_group_name_H-M   'P 1'
_cell_length_a   10.10377387
_cell_length_b   10.10377387
_cell_length_c   14.28971068
_cell_angle_alpha   61.88958750
_cell_angle_beta   61.88958750
_cell_angle_gamma   33.55393041
_symmetry_Int_Tables_number   1
_chemical_formula_structural   Ba10Zn4Cu(WO6)5
_chemical_formula_sum   'Ba10 Zn4 Cu1 W5 O30'
_cell_volume   701.90749544
_cell_formula_units_Z   1
loop_
 _symmetry_equiv_pos_site_id
 _symmetry_equiv_pos_as_xyz
  1  'x, y, z'
loop_
 _atom_site_type_symbol
 _atom_site_label
 _atom_site_symmetry_multiplicity
 _atom_site_fract_x
 _atom_site_fract_y
 _atom_site_fract_z
 _atom_site_occupancy
  Ba  Ba0  1  0.39999700  0.39999700  0.65002600  1
  Ba  Ba1  1  0.99999500  0.99999500  0.24960100  1
  Ba  Ba2  1  0.59968800  0.59968800  0.85046400  1
  Ba  Ba3  1  0.20001900  0.20001900  0.44998700  1
  Ba  Ba4  1  0.80030700  0.80030700  0.04991400  1
  Ba  Ba5  1  0.60000300  0.60000300  0.34997400  1
  Ba  Ba6  1  0.19969300  0.19969300  0.95008600  1
  Ba  Ba7  1  0.79998100  0.79998100  0.55001300  1
  Ba  Ba8  1  0.40031200  0.40031200  0.14953600  1
  Ba  Ba9  1  0.00000500  0.00000500  0.75039900  1
  Zn  Zn0  1  0.59997000  0.59997000  0.60003900  1
  Zn  Zn1  1  0.20003400  0.20003400  0.20004700  1
  Zn  Zn2  1  0.79996600  0.79996600  0.79995300  1
  Zn  Zn3  1  0.40003000  0.40003000  0.39996100  1
  Cu  Cu0  1  0.00000000  0.00000000  0.00000000  1
  W  W0  1  0.00000000  0.00000000  0.50000000  1
  W  W1  1  0.59986900  0.59986900  0.09985000  1
  W  W2  1  0.19982600  0.19982600  0.70026300  1
  W  W3  1  0.80017400  0.80017400  0.29973700  1
  W  W4  1  0.40013100  0.40013100  0.90015000  1
  O  O0  1  0.90483600  0.90483600  0.64275700  1
  O  O1  1  0.50481800  0.50481800  0.24279700  1
  O  O2  1  0.10475900  0.10475900  0.84285500  1
  O  O3  1  0.70492900  0.70492900  0.44260400  1
  O  O4  1  0.30480500  0.30480500  0.04277500  1
  O  O5  1  0.19040200  0.71437000  0.45242900  1
  O  O6  1  0.79041900  0.31432800  0.05237000  1
  O  O7  1  0.39043200  0.91439200  0.65237900  1
  O  O8  1  0.99041300  0.51432700  0.25238800  1
  O  O9  1  0.59049500  0.11443400  0.85243800  1
  O  O10  1  0.28563000  0.80959800  0.54757100  1
  O  O11  1  0.88556600  0.40950500  0.14756200  1
  O  O12  1  0.48567300  0.00958700  0.74761200  1
  O  O13  1  0.08560800  0.60956800  0.34762100  1
  O  O14  1  0.68567200  0.20958100  0.94763000  1
  O  O15  1  0.09516400  0.09516400  0.35724300  1
  O  O16  1  0.69519500  0.69519500  0.95722500  1
  O  O17  1  0.29507100  0.29507100  0.55739600  1
  O  O18  1  0.89524100  0.89524100  0.15714500  1
  O  O19  1  0.49518200  0.49518200  0.75720300  1
  O  O20  1  0.80959800  0.28563000  0.54757100  1
  O  O21  1  0.40950500  0.88556600  0.14756200  1
  O  O22  1  0.00958700  0.48567300  0.74761200  1
  O  O23  1  0.60956800  0.08560800  0.34762100  1
  O  O24  1  0.20958100  0.68567200  0.94763000  1
  O  O25  1  0.71437000  0.19040200  0.45242900  1
  O  O26  1  0.31432800  0.79041900  0.05237000  1
  O  O27  1  0.91439200  0.39043200  0.65237900  1
  O  O28  1  0.51432700  0.99041300  0.25238800  1
  O  O29  1  0.11443400  0.59049500  0.85243800  1
loop_
_geom_bond_atom_site_label_1
_geom_bond_atom_site_label_2
_geom_bond_distance
_geom_bond_site_symmetry_2
Ba0 O19 2.917704 1_555
Ba0 O0 2.918134 1_455
Ba0 O0 2.918134 1_545
Ba0 O22 2.918318 1_555
Ba0 O12 2.918318 1_555
Ba0 O17 2.918543 1_555
Ba0 O5 2.918624 1_555
Ba0 O25 2.918624 1_555
Ba0 O20 2.918891 1_555
Ba0 O10 2.918891 1_555
Ba0 O9 2.919138 1_555
Ba0 O29 2.919138 1_555
Ba1 O18 2.913506 1_555
Ba1 O6 2.914395 1_565
Ba1 O26 2.914395 1_655
Ba1 O11 2.917649 1_565
Ba1 O21 2.917649 1_655
Ba1 O1 2.918005 1_565
Ba1 O1 2.918005 1_655
Ba1 O13 2.918741 1_655
Ba1 O23 2.918741 1_565
Ba1 O15 2.922983 1_665
Ba1 O25 2.923812 1_565
Ba1 O5 2.923812 1_655
Ba2 O24 2.913863 1_555
Ba2 O14 2.913863 1_555
Ba2 O26 2.913867 1_556
Ba2 O6 2.913867 1_556
Ba2 O19 2.918266 1_555
Ba2 O16 2.918285 1_555
Ba2 O2 2.918299 1_565
Ba2 O2 2.918299 1_655
Ba2 O27 2.923335 1_555
Ba2 O7 2.923335 1_555
Ba2 O22 2.923525 1_655
Ba2 O12 2.923525 1_565
Ba3 O23 2.918174 1_555
Ba3 O13 2.918174 1_555
Ba3 O17 2.918187 1_555
Ba3 O3 2.918187 1_455
Ba3 O3 2.918187 1_545
Ba3 O15 2.918577 1_555
Ba3 O27 2.918622 1_455
Ba3 O7 2.918622 1_545
Ba3 O8 2.918659 1_455
Ba3 O28 2.918659 1_545
Ba3 O10 2.918814 1_545
Ba3 O20 2.918814 1_455
Ba4 O18 2.914030 1_555
Ba4 O24 2.914542 1_654
Ba4 O14 2.914542 1_564
Ba4 O29 2.917782 1_654
Ba4 O9 2.917782 1_564
Ba4 O4 2.918007 1_655
Ba4 O4 2.918007 1_565
Ba4 O28 2.918572 1_555
Ba4 O8 2.918572 1_555
Ba4 O16 2.922520 1_554
Ba4 O11 2.924335 1_555
Ba4 O21 2.924335 1_555
Ba5 O1 2.917704 1_555
Ba5 O15 2.918134 1_655
Ba5 O15 2.918134 1_565
Ba5 O8 2.918318 1_555
Ba5 O28 2.918318 1_555
Ba5 O3 2.918543 1_555
Ba5 O20 2.918624 1_555
Ba5 O10 2.918624 1_555
Ba5 O25 2.918891 1_555
Ba5 O5 2.918891 1_555
Ba5 O11 2.919138 1_555
Ba5 O21 2.919138 1_555
Ba6 O2 2.914030 1_555
Ba6 O6 2.914542 1_456
Ba6 O26 2.914542 1_546
Ba6 O21 2.917782 1_546
Ba6 O11 2.917782 1_456
Ba6 O16 2.918007 1_545
Ba6 O16 2.918007 1_455
Ba6 O12 2.918572 1_555
Ba6 O22 2.918572 1_555
Ba6 O4 2.922520 1_556
Ba6 O9 2.924335 1_555
Ba6 O29 2.924335 1_555
Ba7 O27 2.918174 1_555
Ba7 O7 2.918174 1_555
Ba7 O3 2.918187 1_555
Ba7 O17 2.918187 1_655
Ba7 O17 2.918187 1_565
Ba7 O0 2.918577 1_555
Ba7 O23 2.918622 1_565
Ba7 O13 2.918622 1_655
Ba7 O22 2.918659 1_655
Ba7 O12 2.918659 1_565
Ba7 O5 2.918814 1_655
Ba7 O25 2.918814 1_565
Ba8 O26 2.913863 1_555
Ba8 O6 2.913863 1_555
Ba8 O14 2.913867 1_554
Ba8 O24 2.913867 1_554
Ba8 O1 2.918266 1_555
Ba8 O4 2.918285 1_555
Ba8 O18 2.918299 1_545
Ba8 O18 2.918299 1_455
Ba8 O13 2.923335 1_555
Ba8 O23 2.923335 1_555
Ba8 O28 2.923525 1_545
Ba8 O8 2.923525 1_455
Ba9 O2 2.913506 1_555
Ba9 O24 2.914395 1_545
Ba9 O14 2.914395 1_455
Ba9 O9 2.917649 1_455
Ba9 O29 2.917649 1_545
Ba9 O19 2.918005 1_455
Ba9 O19 2.918005 1_545
Ba9 O27 2.918741 1_455
Ba9 O7 2.918741 1_545
Ba9 O0 2.922983 1_445
Ba9 O20 2.923812 1_455
Ba9 O10 2.923812 1_545
Cu0 O24 2.160496 1_544
Cu0 O14 2.160496 1_454
Cu0 O6 2.160496 1_455
Cu0 O26 2.160496 1_545
Cu0 O18 2.161231 1_445
Cu0 O2 2.161231 1_554
O0 W0 1.963323 1_665
O0 Zn2 2.162568 1_555
O1 W1 1.963963 1_555
O1 Zn3 2.161627 1_555
O2 W2 1.961161 1_555
O3 W3 1.964899 1_555
O3 Zn0 2.165274 1_555
O4 W4 1.963575 1_554
O4 Zn1 2.162378 1_555
O5 W0 1.963281 1_565
O5 Zn3 2.161209 1_555
O6 W1 1.961187 1_555
O7 W2 1.963408 1_565
O7 Zn0 2.161201 1_555
O8 W3 1.963915 1_555
O8 Zn1 2.159803 1_655
O9 W4 1.965154 1_555
O9 Zn2 2.163054 1_545
O10 W0 1.963281 1_565
O10 Zn0 2.161209 1_555
O11 W1 1.965154 1_555
O11 Zn1 2.163054 1_655
O12 W2 1.963915 1_555
O12 Zn2 2.159803 1_545
O13 W3 1.963408 1_455
O13 Zn3 2.161201 1_555
O14 W4 1.961187 1_555
O15 W0 1.963323 1_555
O15 Zn1 2.162568 1_555
O16 W1 1.963575 1_556
O16 Zn2 2.162378 1_555
O17 W2 1.964899 1_555
O17 Zn3 2.165274 1_555
O18 W3 1.961161 1_555
O19 W4 1.963963 1_555
O19 Zn0 2.161627 1_555
O20 W0 1.963281 1_655
O20 Zn0 2.161209 1_555
O21 W1 1.965154 1_555
O21 Zn1 2.163054 1_565
O22 W2 1.963915 1_555
O22 Zn2 2.159803 1_455
O23 W3 1.963408 1_545
O23 Zn3 2.161201 1_555
O24 W4 1.961187 1_555
O25 W0 1.963281 1_655
O25 Zn3 2.161209 1_555
O26 W1 1.961187 1_555
O27 W2 1.963408 1_655
O27 Zn0 2.161201 1_555
O28 W3 1.963915 1_555
O28 Zn1 2.159803 1_565
O29 W4 1.965154 1_555
O29 Zn2 2.163054 1_455
