# generated using pymatgen
data_CeUTe6
_symmetry_space_group_name_H-M   'P 1'
_cell_length_a   13.03598847
_cell_length_b   13.03598847
_cell_length_c   4.40142400
_cell_angle_alpha   90.00000000
_cell_angle_beta   90.00000000
_cell_angle_gamma   160.57622099
_symmetry_Int_Tables_number   1
_chemical_formula_structural   CeUTe6
_chemical_formula_sum   'Ce1 U1 Te6'
_cell_volume   248.73760022
_cell_formula_units_Z   1
loop_
 _symmetry_equiv_pos_site_id
 _symmetry_equiv_pos_as_xyz
  1  'x, y, z'
loop_
 _atom_site_type_symbol
 _atom_site_label
 _atom_site_symmetry_multiplicity
 _atom_site_fract_x
 _atom_site_fract_y
 _atom_site_fract_z
 _atom_site_occupancy
  Ce  Ce0  1  0.83237500  0.16762500  0.00000000  1
  U  U0  1  0.16737500  0.83262500  0.50000000  1
  Te  Te0  1  0.29416500  0.70583500  0.50000000  1
  Te  Te1  1  0.70272000  0.29728000  0.00000000  1
  Te  Te2  1  0.57343100  0.42656900  0.50000000  1
  Te  Te3  1  0.42826700  0.57173300  0.00000000  1
  Te  Te4  1  0.92833500  0.07166500  0.50000000  1
  Te  Te5  1  0.07333200  0.92666800  0.00000000  1
loop_
_geom_bond_atom_site_label_1
_geom_bond_atom_site_label_2
_geom_bond_distance
_geom_bond_site_symmetry_2
Ce0 Te0 3.262412 1_544
Ce0 Te0 3.262412 1_545
Ce0 Te0 3.262412 1_655
Ce0 Te0 3.262412 1_654
Ce0 Te3 3.302817 1_655
Ce0 Te3 3.302817 1_545
Ce0 Te4 3.305200 1_554
Ce0 Te4 3.305200 1_555
Ce0 Te1 3.331916 1_555
Te0 U0 3.258291 1_555
Te1 U0 3.241012 1_545
Te1 U0 3.241012 1_544
Te1 U0 3.241012 1_655
Te1 U0 3.241012 1_654
Te2 Te5 3.111132 1_655
Te2 Te5 3.111132 1_656
Te2 Te5 3.111132 1_545
Te2 Te5 3.111132 1_546
Te2 U0 3.265637 1_545
Te2 U0 3.265637 1_655
Te3 Te4 3.111132 1_564
Te3 Te4 3.111132 1_565
Te3 Te4 3.111132 1_455
Te3 Te4 3.111132 1_454
Te5 U0 3.268609 1_555
Te5 U0 3.268609 1_554
