# generated using pymatgen
data_TlBiF4
_symmetry_space_group_name_H-M   'P 1'
_cell_length_a   7.11903670
_cell_length_b   7.11903670
_cell_length_c   7.11903670
_cell_angle_alpha   128.44887823
_cell_angle_beta   128.44887823
_cell_angle_gamma   75.89898316
_symmetry_Int_Tables_number   1
_chemical_formula_structural   TlBiF4
_chemical_formula_sum   'Tl2 Bi2 F8'
_cell_volume   215.19278101
_cell_formula_units_Z   2
loop_
 _symmetry_equiv_pos_site_id
 _symmetry_equiv_pos_as_xyz
  1  'x, y, z'
loop_
 _atom_site_type_symbol
 _atom_site_label
 _atom_site_symmetry_multiplicity
 _atom_site_fract_x
 _atom_site_fract_y
 _atom_site_fract_z
 _atom_site_occupancy
  Tl  Tl0  1  0.00000000  0.00000000  0.00000000  1
  Tl  Tl1  1  0.75000000  0.25000000  0.50000000  1
  Bi  Bi0  1  0.50000000  0.50000000  0.00000000  1
  Bi  Bi1  1  0.25000000  0.75000000  0.50000000  1
  F  F0  1  0.37500000  0.42499600  0.54999600  1
  F  F1  1  0.87500000  0.82500400  0.45000400  1
  F  F2  1  0.57500400  0.12500000  0.95000400  1
  F  F3  1  0.87500000  0.42499600  0.04999600  1
  F  F4  1  0.17499600  0.62500000  0.04999600  1
  F  F5  1  0.37500000  0.82500400  0.95000400  1
  F  F6  1  0.17499600  0.12500000  0.54999600  1
  F  F7  1  0.57500400  0.62500000  0.45000400  1
loop_
_geom_bond_atom_site_label_1
_geom_bond_atom_site_label_2
_geom_bond_distance
_geom_bond_site_symmetry_2
Bi0 F5 2.428754 1_554
Bi0 F2 2.428754 1_554
Bi0 F0 2.428754 1_554
Bi0 F1 2.428754 1_555
Bi0 F4 2.428754 1_555
Bi0 F7 2.428754 1_555
Bi0 F6 2.428754 1_554
Bi0 F3 2.428754 1_555
Bi1 F5 2.428754 1_555
Bi1 F6 2.428754 1_565
Bi1 F7 2.428754 1_555
Bi1 F2 2.428754 1_565
Bi1 F4 2.428754 1_555
Bi1 F3 2.428754 1_455
Bi1 F1 2.428754 1_455
Bi1 F0 2.428754 1_555
F0 Tl0 2.795596 1_555
F0 Tl1 2.795596 1_555
F1 Tl0 2.795596 1_666
F1 Tl1 2.795596 1_565
F2 Tl0 2.795596 1_656
F2 Tl1 2.795596 1_556
F3 Tl0 2.795596 1_655
F3 Tl1 2.795596 1_554
F4 Tl1 2.795596 1_454
F4 Tl0 2.795596 1_565
F5 Tl0 2.795596 1_566
F5 Tl1 2.795596 1_566
F6 Tl1 2.795596 1_455
F6 Tl0 2.795596 1_555
F7 Tl1 2.795596 1_555
F7 Tl0 2.795596 1_666
