# generated using pymatgen
data_K2DyCl5
_symmetry_space_group_name_H-M   'P 1'
_cell_length_a   7.91673287
_cell_length_b   8.54467974
_cell_length_c   12.66536278
_cell_angle_alpha   90.00000000
_cell_angle_beta   90.00000000
_cell_angle_gamma   90.00000000
_symmetry_Int_Tables_number   1
_chemical_formula_structural   K2DyCl5
_chemical_formula_sum   'K8 Dy4 Cl20'
_cell_volume   856.76045886
_cell_formula_units_Z   4
loop_
 _symmetry_equiv_pos_site_id
 _symmetry_equiv_pos_as_xyz
  1  'x, y, z'
loop_
 _atom_site_type_symbol
 _atom_site_label
 _atom_site_symmetry_multiplicity
 _atom_site_fract_x
 _atom_site_fract_y
 _atom_site_fract_z
 _atom_site_occupancy
  K  K0  1  0.55666191  0.49459854  0.82851808  1
  K  K1  1  0.44333809  0.50540146  0.17148192  1
  K  K2  1  0.05666191  0.50540146  0.67148192  1
  K  K3  1  0.44333809  -0.00540146  0.17148192  1
  K  K4  1  0.94333809  0.49459854  0.32851808  1
  K  K5  1  0.55666191  0.00540146  0.82851808  1
  K  K6  1  0.94333809  0.00540146  0.32851808  1
  K  K7  1  0.05666191  -0.00540146  0.67148192  1
  Dy  Dy0  1  0.57522734  0.75000000  0.50494856  1
  Dy  Dy1  1  0.42477266  0.25000000  0.49505144  1
  Dy  Dy2  1  0.07522734  0.25000000  0.99505144  1
  Dy  Dy3  1  0.92477266  0.75000000  0.00494856  1
  Cl  Cl0  1  0.84335759  0.75000000  0.80029995  1
  Cl  Cl1  1  0.15664241  0.25000000  0.19970005  1
  Cl  Cl2  1  0.34335759  0.25000000  0.69970005  1
  Cl  Cl3  1  0.65664241  0.75000000  0.30029995  1
  Cl  Cl4  1  0.38170413  0.75000000  0.67730892  1
  Cl  Cl5  1  0.61829587  0.25000000  0.32269108  1
  Cl  Cl6  1  0.88170413  0.25000000  0.82269108  1
  Cl  Cl7  1  0.11829587  0.75000000  0.17730892  1
  Cl  Cl8  1  0.91684868  0.75000000  0.50989557  1
  Cl  Cl9  1  0.08315132  0.25000000  0.49010443  1
  Cl  Cl10  1  0.41684868  0.25000000  0.99010443  1
  Cl  Cl11  1  0.58315132  0.75000000  0.00989557  1
  Cl  Cl12  1  0.66494667  0.04358986  0.57257431  1
  Cl  Cl13  1  0.33505333  0.95641014  0.42742569  1
  Cl  Cl14  1  0.16494667  0.95641014  0.92742569  1
  Cl  Cl15  1  0.33505333  0.54358986  0.42742569  1
  Cl  Cl16  1  0.83505333  0.04358986  0.07257431  1
  Cl  Cl17  1  0.66494667  0.45641014  0.57257431  1
  Cl  Cl18  1  0.83505333  0.45641014  0.07257431  1
  Cl  Cl19  1  0.16494667  0.54358986  0.92742569  1
loop_
_geom_bond_atom_site_label_1
_geom_bond_atom_site_label_2
_geom_bond_distance
_geom_bond_site_symmetry_2
Cl0 Dy3 2.670886 1_556
Cl0 K7 3.143512 1_665
Cl0 K2 3.143512 1_655
Cl0 K0 3.168876 1_555
Cl0 K5 3.168876 1_565
Cl1 Dy2 2.670886 1_554
Cl1 K6 3.143512 1_455
Cl1 K4 3.143512 1_455
Cl1 K1 3.168876 1_555
Cl1 K3 3.168876 1_555
Cl2 Dy1 2.670886 1_555
Cl2 K5 3.143512 1_555
Cl2 K0 3.143512 1_555
Cl2 K2 3.168876 1_555
Cl2 K7 3.168876 1_555
Cl3 Dy0 2.670886 1_555
Cl3 K1 3.143512 1_555
Cl3 K3 3.143512 1_565
Cl3 K4 3.168876 1_555
Cl3 K6 3.168876 1_565
Cl4 Dy0 2.666976 1_555
Cl4 K0 3.216940 1_555
Cl4 K5 3.216940 1_565
Cl4 K7 3.315923 1_565
Cl4 K2 3.315923 1_555
Cl5 Dy1 2.666976 1_555
Cl5 K1 3.216940 1_555
Cl5 K3 3.216940 1_555
Cl5 K4 3.315923 1_555
Cl5 K6 3.315923 1_555
Cl6 Dy2 2.666976 1_655
Cl6 K2 3.216940 1_655
Cl6 K7 3.216940 1_655
Cl6 K5 3.315923 1_555
Cl6 K0 3.315923 1_555
Cl7 Dy3 2.666976 1_455
Cl7 K4 3.216940 1_455
Cl7 K6 3.216940 1_465
Cl7 K1 3.315923 1_555
Cl7 K3 3.315923 1_565
Cl8 Dy0 2.705251 1_555
Cl8 K7 3.127568 1_665
Cl8 K2 3.127568 1_655
Cl8 K4 3.175484 1_555
Cl8 K6 3.175484 1_565
Cl9 Dy1 2.705251 1_555
Cl9 K6 3.127568 1_455
Cl9 K4 3.127568 1_455
Cl9 K2 3.175484 1_555
Cl9 K7 3.175484 1_555
Cl10 Dy2 2.705251 1_555
Cl10 K0 3.127568 1_555
Cl10 K5 3.127568 1_555
Cl10 K1 3.175484 1_556
Cl10 K3 3.175484 1_556
Cl11 Dy3 2.705251 1_555
Cl11 K1 3.127568 1_555
Cl11 K3 3.127568 1_565
Cl11 K0 3.175484 1_554
Cl11 K5 3.175484 1_564
Cl12 Dy0 2.744328 1_545
Cl12 Dy1 2.773086 1_555
Cl12 K5 3.368899 1_555
Cl12 K7 3.370660 1_655
Cl13 Dy1 2.744328 1_565
Cl13 Dy0 2.773086 1_555
Cl13 K3 3.368899 1_565
Cl13 K6 3.370660 1_465
Cl14 Dy2 2.744328 1_565
Cl14 Dy3 2.773086 1_456
Cl14 K7 3.368899 1_565
Cl14 K5 3.370660 1_565
Cl15 Dy1 2.744328 1_555
Cl15 Dy0 2.773086 1_555
Cl15 K1 3.368899 1_555
Cl15 K4 3.370660 1_455
Cl16 Dy3 2.744328 1_545
Cl16 Dy2 2.773086 1_654
Cl16 K6 3.368899 1_555
Cl16 K3 3.370660 1_555
Cl17 Dy0 2.744328 1_555
Cl17 Dy1 2.773086 1_555
Cl17 K0 3.368899 1_555
Cl17 K2 3.370660 1_655
Cl18 Dy3 2.744328 1_555
Cl18 Dy2 2.773086 1_654
Cl18 K4 3.368899 1_555
Cl18 K1 3.370660 1_555
Cl19 Dy2 2.744328 1_555
Cl19 Dy3 2.773086 1_456
Cl19 K2 3.368899 1_555
Cl19 K0 3.370660 1_555
