# generated using pymatgen
data_EuAs
_symmetry_space_group_name_H-M   'P 1'
_cell_length_a   6.29271853
_cell_length_b   7.92369792
_cell_length_c   7.92664365
_cell_angle_alpha   120.01227818
_cell_angle_beta   90.00023090
_cell_angle_gamma   89.99969914
_symmetry_Int_Tables_number   1
_chemical_formula_structural   EuAs
_chemical_formula_sum   'Eu6 As6'
_cell_volume   342.24131622
_cell_formula_units_Z   6
loop_
 _symmetry_equiv_pos_site_id
 _symmetry_equiv_pos_as_xyz
  1  'x, y, z'
loop_
 _atom_site_type_symbol
 _atom_site_label
 _atom_site_symmetry_multiplicity
 _atom_site_fract_x
 _atom_site_fract_y
 _atom_site_fract_z
 _atom_site_occupancy
  Eu  Eu0  1  -0.00000052  0.31953203  0.99908592  1
  Eu  Eu1  1  -0.00000274  0.68076792  0.68100426  1
  Eu  Eu2  1  -0.00000228  0.00134427  0.31987869  1
  Eu  Eu3  1  0.50000071  0.64716030  0.00067154  1
  Eu  Eu4  1  0.49999439  0.35226528  0.35251197  1
  Eu  Eu5  1  0.49999455  0.99881732  0.64652081  1
  As  As0  1  0.29296727  0.00021283  0.00009666  1
  As  As1  1  0.70707103  0.00020359  0.00008396  1
  As  As2  1  0.23088772  0.33318355  0.66679653  1
  As  As3  1  0.76910375  0.33318059  0.66678538  1
  As  As4  1  0.22759373  0.66657228  0.33328089  1
  As  As5  1  0.77239439  0.66656005  0.33327938  1
loop_
_geom_bond_atom_site_label_1
_geom_bond_atom_site_label_2
_geom_bond_distance
_geom_bond_site_symmetry_2
As0 As1 2.605838 1_555
As0 Eu4 3.080076 1_555
As0 Eu5 3.085661 1_544
As0 Eu3 3.088031 1_545
As0 Eu1 3.130275 1_544
As0 Eu2 3.130712 1_555
As0 Eu0 3.133828 1_554
As1 Eu4 3.080284 1_555
As1 Eu5 3.085724 1_544
As1 Eu3 3.088121 1_545
As1 Eu1 3.130039 1_644
As1 Eu2 3.130593 1_655
As1 Eu0 3.133716 1_654
As2 Eu0 3.057017 1_555
As2 Eu2 3.058332 1_555
As2 Eu1 3.065733 1_555
As2 Eu4 3.077911 1_555
As2 Eu3 3.078092 1_556
As2 Eu5 3.080077 1_545
As3 Eu0 3.057095 1_655
As3 Eu2 3.058290 1_655
As3 Eu1 3.065740 1_655
As3 Eu4 3.077845 1_555
As3 Eu3 3.078104 1_556
As3 Eu5 3.080114 1_545
As4 As5 2.864441 1_455
As4 Eu0 3.056645 1_554
As4 Eu1 3.057909 1_555
As4 Eu2 3.062809 1_565
As4 Eu5 3.081377 1_555
As4 Eu3 3.083413 1_555
As4 Eu4 3.089290 1_555
As5 Eu0 3.056623 1_654
As5 Eu1 3.057889 1_655
As5 Eu2 3.062924 1_665
As5 Eu5 3.081417 1_555
As5 Eu3 3.083382 1_555
As5 Eu4 3.089228 1_555
