# generated using pymatgen
data_Cs2Mo7O22
_symmetry_space_group_name_H-M   'P 1'
_cell_length_a   11.39091633
_cell_length_b   11.39091633
_cell_length_c   19.42768799
_cell_angle_alpha   58.31173170
_cell_angle_beta   58.31173170
_cell_angle_gamma   28.84643193
_symmetry_Int_Tables_number   1
_chemical_formula_structural   Cs2Mo7O22
_chemical_formula_sum   'Cs4 Mo14 O44'
_cell_volume   1021.75580587
_cell_formula_units_Z   2
loop_
 _symmetry_equiv_pos_site_id
 _symmetry_equiv_pos_as_xyz
  1  'x, y, z'
loop_
 _atom_site_type_symbol
 _atom_site_label
 _atom_site_symmetry_multiplicity
 _atom_site_fract_x
 _atom_site_fract_y
 _atom_site_fract_z
 _atom_site_occupancy
  Cs  Cs0  1  0.81142800  0.49721800  0.82370300  1
  Cs  Cs1  1  0.50278200  0.18857200  0.67629700  1
  Cs  Cs2  1  0.18857200  0.50278200  0.17629700  1
  Cs  Cs3  1  0.49721800  0.81142800  0.32370300  1
  Mo  Mo0  1  0.61489200  0.38510800  0.75000000  1
  Mo  Mo1  1  0.38510800  0.61489200  0.25000000  1
  Mo  Mo2  1  0.99758800  0.62333400  0.52661200  1
  Mo  Mo3  1  0.37666600  0.00241200  0.97338800  1
  Mo  Mo4  1  0.00241200  0.37666600  0.47338800  1
  Mo  Mo5  1  0.62333400  0.99758800  0.02661200  1
  Mo  Mo6  1  0.21386800  0.71464400  0.90600800  1
  Mo  Mo7  1  0.28535600  0.78613200  0.59399200  1
  Mo  Mo8  1  0.78613200  0.28535600  0.09399200  1
  Mo  Mo9  1  0.71464400  0.21386800  0.40600800  1
  Mo  Mo10  1  0.97918100  0.69524900  0.86312900  1
  Mo  Mo11  1  0.30475100  0.02081900  0.63687100  1
  Mo  Mo12  1  0.02081900  0.30475100  0.13687100  1
  Mo  Mo13  1  0.69524900  0.97918100  0.36312900  1
  O  O0  1  0.99882500  0.94975700  0.64171200  1
  O  O1  1  0.05024300  0.00117500  0.85828800  1
  O  O2  1  0.00117500  0.05024300  0.35828800  1
  O  O3  1  0.94975700  0.99882500  0.14171200  1
  O  O4  1  0.53096200  0.50242400  0.83465200  1
  O  O5  1  0.49757600  0.46903800  0.66534800  1
  O  O6  1  0.46903800  0.49757600  0.16534800  1
  O  O7  1  0.50242400  0.53096200  0.33465200  1
  O  O8  1  0.70985800  0.54961600  0.52062000  1
  O  O9  1  0.45038400  0.29014200  0.97938000  1
  O  O10  1  0.29014200  0.45038400  0.47938000  1
  O  O11  1  0.54961600  0.70985800  0.02062000  1
  O  O12  1  0.94316400  0.79675300  0.95671800  1
  O  O13  1  0.20324700  0.05683600  0.54328200  1
  O  O14  1  0.05683600  0.20324700  0.04328200  1
  O  O15  1  0.79675300  0.94316400  0.45671800  1
  O  O16  1  0.92990800  0.72084100  0.78233700  1
  O  O17  1  0.27915900  0.07009200  0.71766300  1
  O  O18  1  0.07009200  0.27915900  0.21766300  1
  O  O19  1  0.72084100  0.92990800  0.28233700  1
  O  O20  1  0.96098600  0.65417300  0.61737400  1
  O  O21  1  0.34582700  0.03901400  0.88262600  1
  O  O22  1  0.03901400  0.34582700  0.38262600  1
  O  O23  1  0.65417300  0.96098600  0.11737400  1
  O  O24  1  0.22395100  0.62525800  0.82079100  1
  O  O25  1  0.37474200  0.77604900  0.67920900  1
  O  O26  1  0.77604900  0.37474200  0.17920900  1
  O  O27  1  0.62525800  0.22395100  0.32079100  1
  O  O28  1  0.26170500  0.67059000  0.99289100  1
  O  O29  1  0.32941000  0.73829500  0.50710900  1
  O  O30  1  0.73829500  0.32941000  0.00710900  1
  O  O31  1  0.67059000  0.26170500  0.49289100  1
  O  O32  1  0.87896500  0.26994400  0.69742300  1
  O  O33  1  0.73005600  0.12103500  0.80257700  1
  O  O34  1  0.12103500  0.73005600  0.30257700  1
  O  O35  1  0.26994400  0.87896500  0.19742300  1
  O  O36  1  0.14120400  0.40801000  0.91880800  1
  O  O37  1  0.59199000  0.85879600  0.58119200  1
  O  O38  1  0.85879600  0.59199000  0.08119200  1
  O  O39  1  0.40801000  0.14120400  0.41880800  1
  O  O40  1  0.08299400  0.35610800  0.56634400  1
  O  O41  1  0.64389200  0.91700600  0.93365600  1
  O  O42  1  0.91700600  0.64389200  0.43365600  1
  O  O43  1  0.35610800  0.08299400  0.06634400  1
loop_
_geom_bond_atom_site_label_1
_geom_bond_atom_site_label_2
_geom_bond_distance
_geom_bond_site_symmetry_2
Cs0 O4 3.036889 1_555
Cs0 O30 3.091827 1_556
Cs0 O17 3.144829 1_655
Cs0 O1 3.283740 1_655
Cs0 O21 3.315463 1_655
Cs0 O21 3.351191 1_565
Cs0 O16 3.418789 1_555
Cs0 O20 3.577550 1_555
Cs0 O17 3.643571 1_565
Cs1 O5 3.036889 1_555
Cs1 O31 3.091827 1_555
Cs1 O16 3.144829 1_545
Cs1 O0 3.283740 1_545
Cs1 O20 3.315463 1_545
Cs1 O20 3.351191 1_455
Cs1 O17 3.418789 1_555
Cs1 O21 3.577550 1_555
Cs1 O16 3.643571 1_455
Cs2 O6 3.036889 1_555
Cs2 O28 3.091827 1_554
Cs2 O19 3.144829 1_455
Cs2 O3 3.283740 1_455
Cs2 O23 3.315463 1_455
Cs2 O23 3.351191 1_545
Cs2 O18 3.418789 1_555
Cs2 O22 3.577550 1_555
Cs2 O19 3.643571 1_545
Cs3 O7 3.036889 1_555
Cs3 O29 3.091827 1_555
Cs3 O18 3.144829 1_565
Cs3 O2 3.283740 1_565
Cs3 O22 3.315463 1_565
Cs3 O22 3.351191 1_655
Cs3 O19 3.418789 1_555
Cs3 O23 3.577550 1_555
Cs3 O18 3.643571 1_655
Mo0 O33 1.754853 1_555
Mo0 O32 1.754853 1_555
Mo0 O5 1.955363 1_555
Mo0 O4 1.955363 1_555
Mo0 O24 2.320151 1_555
Mo0 O25 2.320151 1_555
Mo1 O34 1.754853 1_555
Mo1 O35 1.754853 1_555
Mo1 O6 1.955363 1_555
Mo1 O7 1.955363 1_555
Mo1 O26 2.320151 1_555
Mo1 O27 2.320151 1_555
Mo2 O10 1.736086 1_655
Mo2 O20 1.740189 1_555
Mo2 O15 1.953401 1_555
Mo2 O40 1.985097 1_655
Mo2 O42 2.253754 1_555
Mo2 O37 2.407596 1_555
Mo3 O11 1.736086 1_546
Mo3 O21 1.740189 1_555
Mo3 O14 1.953401 1_556
Mo3 O41 1.985097 1_545
Mo3 O43 2.253754 1_556
Mo3 O36 2.407596 1_555
Mo4 O8 1.736086 1_455
Mo4 O22 1.740189 1_555
Mo4 O13 1.953401 1_555
Mo4 O42 1.985097 1_455
Mo4 O40 2.253754 1_555
Mo4 O39 2.407596 1_555
Mo5 O9 1.736086 1_564
Mo5 O23 1.740189 1_555
Mo5 O12 1.953401 1_554
Mo5 O43 1.985097 1_565
Mo5 O41 2.253754 1_554
Mo5 O38 2.407596 1_555
Mo6 O1 1.722092 1_565
Mo6 O28 1.730682 1_555
Mo6 O4 1.943170 1_555
Mo6 O12 2.019371 1_455
Mo6 O24 2.270934 1_555
Mo6 O9 2.577479 1_555
Mo7 O0 1.722092 1_455
Mo7 O29 1.730682 1_555
Mo7 O5 1.943170 1_555
Mo7 O13 2.019371 1_565
Mo7 O25 2.270934 1_555
Mo7 O8 2.577479 1_555
Mo8 O3 1.722092 1_545
Mo8 O30 1.730682 1_555
Mo8 O6 1.943170 1_555
Mo8 O14 2.019371 1_655
Mo8 O26 2.270934 1_555
Mo8 O11 2.577479 1_555
Mo9 O2 1.722092 1_655
Mo9 O31 1.730682 1_555
Mo9 O7 1.943170 1_555
Mo9 O15 2.019371 1_545
Mo9 O27 2.270934 1_555
Mo9 O10 2.577479 1_555
Mo10 O16 1.738343 1_555
Mo10 O36 1.755609 1_655
Mo10 O24 1.863180 1_655
Mo10 O41 2.020501 1_555
Mo10 O12 2.324871 1_555
Mo10 O33 2.522290 1_565
Mo11 O17 1.738343 1_555
Mo11 O37 1.755609 1_545
Mo11 O25 1.863180 1_545
Mo11 O40 2.020501 1_555
Mo11 O13 2.324871 1_555
Mo11 O32 2.522290 1_455
Mo12 O18 1.738343 1_555
Mo12 O38 1.755609 1_455
Mo12 O26 1.863180 1_455
Mo12 O43 2.020501 1_555
Mo12 O14 2.324871 1_555
Mo12 O35 2.522290 1_545
Mo13 O19 1.738343 1_555
Mo13 O39 1.755609 1_565
Mo13 O27 1.863180 1_565
Mo13 O42 2.020501 1_555
Mo13 O15 2.324871 1_555
Mo13 O34 2.522290 1_655
