# generated using pymatgen
data_Li4(CdSb)5
_symmetry_space_group_name_H-M   'P 1'
_cell_length_a   19.62981811
_cell_length_b   19.62981811
_cell_length_c   19.62981747
_cell_angle_alpha   13.82626555
_cell_angle_beta   13.82626555
_cell_angle_gamma   13.82626555
_symmetry_Int_Tables_number   1
_chemical_formula_structural   Li4(CdSb)5
_chemical_formula_sum   'Li4 Cd5 Sb5'
_cell_volume   375.92379408
_cell_formula_units_Z   1
loop_
 _symmetry_equiv_pos_site_id
 _symmetry_equiv_pos_as_xyz
  1  'x, y, z'
loop_
 _atom_site_type_symbol
 _atom_site_label
 _atom_site_symmetry_multiplicity
 _atom_site_fract_x
 _atom_site_fract_y
 _atom_site_fract_z
 _atom_site_occupancy
  Li  Li0  1  0.74964100  0.74964100  0.74964100  1
  Li  Li1  1  0.14978100  0.14978100  0.14978100  1
  Li  Li2  1  0.54995600  0.54995600  0.54995600  1
  Li  Li3  1  0.95061300  0.95061300  0.95061300  1
  Cd  Cd0  1  0.04906500  0.04906500  0.04906500  1
  Cd  Cd1  1  0.44910600  0.44910600  0.44910600  1
  Cd  Cd2  1  0.84993400  0.84993400  0.84993400  1
  Cd  Cd3  1  0.24977500  0.24977500  0.24977500  1
  Cd  Cd4  1  0.65134500  0.65134500  0.65134500  1
  Sb  Sb0  1  0.60011500  0.60011500  0.60011500  1
  Sb  Sb1  1  0.80056200  0.80056200  0.80056200  1
  Sb  Sb2  1  0.20005100  0.20005100  0.20005100  1
  Sb  Sb3  1  0.00021500  0.00021500  0.00021500  1
  Sb  Sb4  1  0.39984000  0.39984000  0.39984000  1
loop_
_geom_bond_atom_site_label_1
_geom_bond_atom_site_label_2
_geom_bond_distance
_geom_bond_site_symmetry_2
Li0 Sb4 2.892338 1_655
Li0 Sb4 2.892338 1_565
Li0 Sb4 2.892338 1_556
Li0 Sb1 2.969606 1_555
Li1 Sb1 2.881247 1_544
Li1 Sb1 2.881247 1_454
Li1 Sb1 2.881247 1_445
Li1 Sb2 2.931641 1_555
Li2 Sb2 2.894358 1_565
Li2 Sb2 2.894358 1_655
Li2 Sb2 2.894358 1_556
Li2 Sb0 2.925168 1_555
Li3 Sb3 2.892685 1_666
Li3 Sb0 2.906088 1_565
Li3 Sb0 2.906088 1_655
Li3 Sb0 2.906088 1_556
Cd0 Sb3 2.848830 1_555
Cd0 Sb4 2.911691 1_455
Cd0 Sb4 2.911691 1_545
Cd0 Sb4 2.911692 1_554
Cd0 Li0 3.369558 1_445
Cd0 Li0 3.369558 1_544
Cd0 Li0 3.369558 1_454
Cd1 Sb4 2.873090 1_555
Cd1 Sb1 2.925802 1_455
Cd1 Sb1 2.925802 1_545
Cd1 Sb1 2.925802 1_554
Cd1 Li0 3.331946 1_554
Cd1 Li0 3.331946 1_545
Cd1 Li0 3.331946 1_455
Cd1 Li1 3.372949 1_556
Cd1 Li1 3.372950 1_565
Cd1 Li1 3.372950 1_655
Cd2 Sb1 2.879271 1_555
Cd2 Sb2 2.898509 1_566
Cd2 Sb2 2.898509 1_656
Cd2 Sb2 2.898509 1_665
Cd2 Li2 3.350699 1_556
Cd2 Li2 3.350699 1_565
Cd2 Li2 3.350699 1_655
Cd2 Li1 3.355140 1_665
Cd2 Li1 3.355140 1_656
Cd2 Li1 3.355140 1_566
Cd3 Sb2 2.899799 1_555
Cd3 Sb0 2.902927 1_545
Cd3 Sb0 2.902927 1_455
Cd3 Sb0 2.902927 1_554
Cd3 Li2 3.343840 1_554
Cd3 Li2 3.343840 1_545
Cd3 Li2 3.343840 1_455
Cd3 Li3 3.378547 1_445
Cd3 Li3 3.378548 1_544
Cd3 Li3 3.378548 1_454
Cd4 Sb3 2.874767 1_656
Cd4 Sb3 2.874767 1_566
Cd4 Sb3 2.874767 1_665
Cd4 Sb0 2.987626 1_555
Cd4 Li3 3.374905 1_554
Cd4 Li3 3.374905 1_545
Cd4 Li3 3.374905 1_455
