# generated using pymatgen
data_CsCaP3(HO5)2
_symmetry_space_group_name_H-M   'P 1'
_cell_length_a   9.23046412
_cell_length_b   10.12579808
_cell_length_c   12.47368900
_cell_angle_alpha   90.00003529
_cell_angle_beta   89.99991547
_cell_angle_gamma   117.02022909
_symmetry_Int_Tables_number   1
_chemical_formula_structural   CsCaP3(HO5)2
_chemical_formula_sum   'Cs4 Ca4 P12 H8 O40'
_cell_volume   1038.60506375
_cell_formula_units_Z   4
loop_
 _symmetry_equiv_pos_site_id
 _symmetry_equiv_pos_as_xyz
  1  'x, y, z'
loop_
 _atom_site_type_symbol
 _atom_site_label
 _atom_site_symmetry_multiplicity
 _atom_site_fract_x
 _atom_site_fract_y
 _atom_site_fract_z
 _atom_site_occupancy
  Cs  Cs0  1  0.92297600  0.45336900  0.79131500  1
  Cs  Cs1  1  0.07702600  0.04663300  0.29131600  1
  Cs  Cs2  1  0.07702200  0.54663100  0.20868500  1
  Cs  Cs3  1  0.92297400  0.95336700  0.70868500  1
  Ca  Ca0  1  0.40170700  0.21223400  0.60188100  1
  Ca  Ca1  1  0.59829000  0.28776300  0.10188600  1
  Ca  Ca2  1  0.59828800  0.78776200  0.39811300  1
  Ca  Ca3  1  0.40170900  0.71223700  0.89811800  1
  P  P0  1  0.89776700  0.66230600  0.48129100  1
  P  P1  1  0.10223300  0.83769500  0.98129200  1
  P  P2  1  0.10223300  0.33769500  0.51870800  1
  P  P3  1  0.89776700  0.16230600  0.01871000  1
  P  P4  1  0.31992500  0.63481900  0.61270400  1
  P  P5  1  0.68007800  0.86518200  0.11270400  1
  P  P6  1  0.68007600  0.36518200  0.38729500  1
  P  P7  1  0.31992400  0.13481900  0.88729800  1
  P  P8  1  0.25970700  0.34816700  0.01703800  1
  P  P9  1  0.74029300  0.15183100  0.51703700  1
  P  P10  1  0.74029400  0.65183200  0.98296300  1
  P  P11  1  0.25970700  0.84816800  0.48296200  1
  H  H0  1  0.44474600  0.51548500  0.23667200  1
  H  H1  1  0.55525400  0.98451500  0.73667300  1
  H  H2  1  0.55525400  0.48451500  0.76332700  1
  H  H3  1  0.44474600  0.01548500  0.26332700  1
  H  H4  1  0.35676200  0.47737200  0.34778400  1
  H  H5  1  0.64323800  0.02262800  0.84778500  1
  H  H6  1  0.64323800  0.52262800  0.65221600  1
  H  H7  1  0.35676200  0.97737200  0.15221600  1
  O  O0  1  0.11304700  0.33934000  0.39874500  1
  O  O1  1  0.88695300  0.16066000  0.89874500  1
  O  O2  1  0.88695200  0.66066000  0.60125500  1
  O  O3  1  0.11304800  0.83934100  0.10125500  1
  O  O4  1  0.18176100  0.26335400  0.58300700  1
  O  O5  1  0.81823900  0.23664600  0.08300800  1
  O  O6  1  0.81823900  0.73664600  0.41699300  1
  O  O7  1  0.18176200  0.76335400  0.91699300  1
  O  O8  1  0.15598300  0.50452000  0.56248500  1
  O  O9  1  0.84401800  0.99548000  0.06248500  1
  O  O10  1  0.84401800  0.49548200  0.43751400  1
  O  O11  1  0.15598400  0.00452000  0.93751500  1
  O  O12  1  0.31544400  0.11420000  0.76850300  1
  O  O13  1  0.68455600  0.38580000  0.26850200  1
  O  O14  1  0.68455600  0.88579900  0.23149600  1
  O  O15  1  0.31544600  0.61420100  0.73149700  1
  O  O16  1  0.53386100  0.84682300  0.04983400  1
  O  O17  1  0.46613800  0.65317700  0.54983200  1
  O  O18  1  0.46613800  0.15317700  0.95016700  1
  O  O19  1  0.53386100  0.34682300  0.45016700  1
  O  O20  1  0.71864300  0.22498200  0.40666200  1
  O  O21  1  0.28135700  0.27501700  0.90666300  1
  O  O22  1  0.28135700  0.77501700  0.59333700  1
  O  O23  1  0.71864200  0.72498300  0.09333800  1
  O  O24  1  0.75060100  0.01339500  0.48596900  1
  O  O25  1  0.24939900  0.48660500  0.98597000  1
  O  O26  1  0.24939900  0.98660500  0.51403100  1
  O  O27  1  0.75060200  0.51339600  0.01403200  1
  O  O28  1  0.61935800  0.64575000  0.89938800  1
  O  O29  1  0.38064400  0.85424900  0.39938900  1
  O  O30  1  0.38064400  0.35425000  0.10061200  1
  O  O31  1  0.61935500  0.14575000  0.60061100  1
  O  O32  1  0.08509300  0.22796700  0.06235800  1
  O  O33  1  0.91490700  0.27203300  0.56235700  1
  O  O34  1  0.91490700  0.77203300  0.93764300  1
  O  O35  1  0.08509400  0.72796700  0.43764300  1
  O  O36  1  0.42393000  0.06032700  0.19919700  1
  O  O37  1  0.57606700  0.43967200  0.69919600  1
  O  O38  1  0.57606900  0.93967200  0.80080300  1
  O  O39  1  0.42393000  0.56032800  0.30080300  1
loop_
_geom_bond_atom_site_label_1
_geom_bond_atom_site_label_2
_geom_bond_distance
_geom_bond_site_symmetry_2
Cs0 O1 3.129794 1_555
Cs0 O2 3.281911 1_555
Cs0 O15 3.312428 1_655
Cs0 O7 3.347135 1_655
Cs0 O33 3.377760 1_555
Cs0 O27 3.390808 1_556
Cs1 O0 3.129775 1_555
Cs1 O3 3.281917 1_545
Cs1 O14 3.312436 1_445
Cs1 O6 3.347143 1_445
Cs1 O32 3.377755 1_555
Cs1 O26 3.390790 1_545
Cs2 O3 3.129794 1_555
Cs2 O0 3.281915 1_555
Cs2 O13 3.312393 1_455
Cs2 O5 3.347122 1_455
Cs2 O35 3.377754 1_555
Cs2 O25 3.390798 1_554
Cs3 O2 3.129778 1_555
Cs3 O1 3.281912 1_565
Cs3 O12 3.312430 1_665
Cs3 O4 3.347149 1_665
Cs3 O34 3.377755 1_555
Cs3 O24 3.390801 1_565
Ca0 O12 2.284937 1_555
Ca0 O4 2.323780 1_555
Ca0 O19 2.327251 1_555
Ca0 O26 2.340641 1_545
Ca0 O31 2.391310 1_555
Ca0 O37 2.449441 1_555
Ca1 O13 2.284883 1_555
Ca1 O5 2.323792 1_555
Ca1 O18 2.327288 1_554
Ca1 O27 2.340698 1_555
Ca1 O30 2.391312 1_555
Ca1 O36 2.449402 1_555
Ca2 O14 2.284896 1_555
Ca2 O6 2.323807 1_555
Ca2 O17 2.327279 1_555
Ca2 O24 2.340712 1_565
Ca2 O29 2.391295 1_555
Ca2 O39 2.449380 1_555
Ca3 O15 2.284933 1_555
Ca3 O7 2.323770 1_555
Ca3 O16 2.327258 1_556
Ca3 O25 2.340677 1_555
Ca3 O28 2.391339 1_555
Ca3 O38 2.449420 1_555
H0 O39 0.980964 1_555
H1 O38 0.980951 1_555
H2 O37 0.980953 1_555
H3 O36 0.980949 1_555
H4 O39 0.979905 1_555
H5 O38 0.979915 1_545
H6 O37 0.979904 1_555
H7 O36 0.979900 1_565
O0 P2 1.499295 1_555
O1 P3 1.499320 1_556
O2 P0 1.499308 1_555
O3 P1 1.499296 1_554
O4 P2 1.500297 1_555
O5 P3 1.500281 1_555
O6 P0 1.500283 1_555
O7 P1 1.500302 1_555
O8 P4 1.615247 1_555
O8 P2 1.623685 1_555
O9 P5 1.615231 1_555
O9 P3 1.623688 1_565
O10 P6 1.615251 1_555
O10 P0 1.623678 1_555
O11 P7 1.615226 1_555
O11 P1 1.623684 1_545
O12 P7 1.494397 1_555
O13 P6 1.494371 1_555
O14 P5 1.494358 1_555
O15 P4 1.494371 1_555
O16 P5 1.497715 1_555
O17 P4 1.497698 1_555
O18 P7 1.497688 1_555
O19 P6 1.497711 1_555
O20 P9 1.618215 1_555
O20 P6 1.630844 1_555
O21 P8 1.618209 1_556
O21 P7 1.630820 1_555
O22 P11 1.618215 1_555
O22 P4 1.630830 1_555
O23 P10 1.618220 1_554
O23 P5 1.630815 1_555
O24 P9 1.498464 1_555
O25 P8 1.498484 1_556
O26 P11 1.498477 1_555
O27 P10 1.498467 1_554
O28 P10 1.508055 1_555
O29 P11 1.508045 1_555
O30 P8 1.508050 1_555
O31 P9 1.508060 1_555
O32 P8 1.617503 1_555
O32 P3 1.638207 1_455
O33 P9 1.617510 1_555
O33 P2 1.638209 1_655
O34 P10 1.617500 1_555
O34 P1 1.638211 1_655
O35 P11 1.617497 1_555
O35 P0 1.638214 1_455
