# generated using pymatgen
data_H11CSO8F3
_symmetry_space_group_name_H-M   'P 1'
_cell_length_a   8.12045700
_cell_length_b   8.12115819
_cell_length_c   8.47665865
_cell_angle_alpha   102.79098510
_cell_angle_beta   93.99037296
_cell_angle_gamma   112.29324024
_symmetry_Int_Tables_number   1
_chemical_formula_structural   H11CSO8F3
_chemical_formula_sum   'H22 C2 S2 O16 F6'
_cell_volume   497.03550072
_cell_formula_units_Z   2
loop_
 _symmetry_equiv_pos_site_id
 _symmetry_equiv_pos_as_xyz
  1  'x, y, z'
loop_
 _atom_site_type_symbol
 _atom_site_label
 _atom_site_symmetry_multiplicity
 _atom_site_fract_x
 _atom_site_fract_y
 _atom_site_fract_z
 _atom_site_occupancy
  H  H0  1  0.10871600  0.75450300  0.68410400  1
  H  H1  1  0.89128400  0.24549700  0.31589600  1
  H  H2  1  0.13230800  0.75643300  0.88459800  1
  H  H3  1  0.86769200  0.24356700  0.11540200  1
  H  H4  1  0.94049900  0.59349500  0.74959000  1
  H  H5  1  0.05950100  0.40650500  0.25041000  1
  H  H6  1  0.24008000  0.71906500  0.09761300  1
  H  H7  1  0.75992000  0.28093500  0.90238700  1
  H  H8  1  0.32532000  0.92814500  0.09547000  1
  H  H9  1  0.67468000  0.07185500  0.90453000  1
  H  H10  1  0.32689500  0.57330400  0.27598400  1
  H  H11  1  0.67310500  0.42669600  0.72401600  1
  H  H12  1  0.22317600  0.67800400  0.38020800  1
  H  H13  1  0.77682400  0.32199600  0.61979200  1
  H  H14  1  0.36959200  0.85262500  0.63882600  1
  H  H15  1  0.63040800  0.14737500  0.36117400  1
  H  H16  1  0.26329100  0.95599300  0.56435500  1
  H  H17  1  0.73670900  0.04400700  0.43564500  1
  H  H18  1  0.62950300  0.84573700  0.66143400  1
  H  H19  1  0.37049700  0.15426300  0.33856600  1
  H  H20  1  0.52274700  0.74787700  0.78384400  1
  H  H21  1  0.47725300  0.25212300  0.21615600  1
  C  C0  1  0.81918700  0.74809700  0.18918200  1
  C  C1  1  0.18081300  0.25190300  0.81081800  1
  S  S0  1  0.70489000  0.65444800  0.35356600  1
  S  S1  1  0.29511000  0.34555200  0.64643400  1
  O  O0  1  0.81750700  0.57501400  0.41822700  1
  O  O1  1  0.18249300  0.42498600  0.58177300  1
  O  O2  1  0.52345100  0.52055100  0.26701400  1
  O  O3  1  0.47654900  0.47944900  0.73298600  1
  O  O4  1  0.70337100  0.82095300  0.46496600  1
  O  O5  1  0.29662900  0.17904700  0.53503400  1
  O  O6  1  0.03844000  0.72746000  0.77790100  1
  O  O7  1  0.96156000  0.27254000  0.22209900  1
  O  O8  1  0.27058000  0.79988200  0.02277100  1
  O  O9  1  0.72942000  0.20011800  0.97722900  1
  O  O10  1  0.21527200  0.59600200  0.27029500  1
  O  O11  1  0.78472800  0.40399800  0.72970500  1
  O  O12  1  0.25314400  0.83293300  0.57244100  1
  O  O13  1  0.74685600  0.16706700  0.42755900  1
  O  O14  1  0.56017300  0.86361200  0.75032200  1
  O  O15  1  0.43982700  0.13638800  0.24967800  1
  F  F0  1  0.72631500  0.82764800  0.11697900  1
  F  F1  1  0.27368500  0.17235200  0.88302100  1
  F  F2  1  0.98826800  0.87695000  0.25421400  1
  F  F3  1  0.01173200  0.12305000  0.74578600  1
  F  F4  1  0.83110300  0.61143700  0.07207500  1
  F  F5  1  0.16889700  0.38856300  0.92792500  1
loop_
_geom_bond_atom_site_label_1
_geom_bond_atom_site_label_2
_geom_bond_distance
_geom_bond_site_symmetry_2
H0 O6 1.025398 1_555
H0 O12 1.591169 1_555
H1 O7 1.025398 1_555
H1 O13 1.591169 1_555
H2 O6 1.062138 1_555
H2 O8 1.445839 1_556
H3 O7 1.062138 1_555
H3 O9 1.445839 1_554
H4 O6 1.036880 1_655
H4 O11 1.541214 1_555
H5 O7 1.036880 1_455
H5 O10 1.541214 1_555
H6 O8 0.988682 1_555
H7 O9 0.988682 1_555
H8 O8 0.994345 1_555
H9 O9 0.994345 1_555
H10 O10 0.991231 1_555
H11 O11 0.991231 1_555
H12 O10 1.000090 1_555
H13 O11 1.000090 1_555
H14 O12 1.003879 1_555
H15 O13 1.003879 1_555
H16 O12 0.989398 1_555
H17 O13 0.989398 1_555
H18 O14 0.989125 1_555
H19 O15 0.989125 1_555
H20 O14 0.984927 1_555
H21 O15 0.984927 1_555
C0 F2 1.353973 1_555
C0 F4 1.354078 1_555
C0 F0 1.356918 1_555
C1 F3 1.353973 1_555
C1 F5 1.354078 1_555
C1 F1 1.356918 1_555
O0 S0 1.444739 1_555
O1 S1 1.444739 1_555
O2 S0 1.473868 1_555
O3 S1 1.473868 1_555
O4 S0 1.472825 1_555
O5 S1 1.472825 1_555
