# generated using pymatgen
data_N3Cl
_symmetry_space_group_name_H-M   'P 1'
_cell_length_a   7.01342599
_cell_length_b   7.01342599
_cell_length_c   4.85340100
_cell_angle_alpha   90.00000000
_cell_angle_beta   90.00000000
_cell_angle_gamma   124.25873005
_symmetry_Int_Tables_number   1
_chemical_formula_structural   N3Cl
_chemical_formula_sum   'N6 Cl2'
_cell_volume   197.31112144
_cell_formula_units_Z   2
loop_
 _symmetry_equiv_pos_site_id
 _symmetry_equiv_pos_as_xyz
  1  'x, y, z'
loop_
 _atom_site_type_symbol
 _atom_site_label
 _atom_site_symmetry_multiplicity
 _atom_site_fract_x
 _atom_site_fract_y
 _atom_site_fract_z
 _atom_site_occupancy
  N  N0  1  0.76829100  0.23170900  0.54550900  1
  N  N1  1  0.23170900  0.76829100  0.04550900  1
  N  N2  1  0.68487400  0.31512600  0.40143300  1
  N  N3  1  0.31512600  0.68487400  0.90143300  1
  N  N4  1  0.60171900  0.39828100  0.29829100  1
  N  N5  1  0.39828100  0.60171900  0.79829100  1
  Cl  Cl0  1  0.88300200  0.11699800  0.33526700  1
  Cl  Cl1  1  0.11699800  0.88300200  0.83526700  1
loop_
_geom_bond_atom_site_label_1
_geom_bond_atom_site_label_2
_geom_bond_distance
_geom_bond_site_symmetry_2
N0 N2 1.248540 1_555
N1 N3 1.248540 1_554
N2 N4 1.146198 1_555
N3 N5 1.146198 1_555
Cl0 N0 1.750543 1_555
Cl1 N1 1.750543 1_556
