# generated using pymatgen
data_CaCr2O4
_symmetry_space_group_name_H-M   'P 1'
_cell_length_a   6.30279153
_cell_length_b   6.30279153
_cell_length_c   15.26132063
_cell_angle_alpha   87.86699100
_cell_angle_beta   87.86699100
_cell_angle_gamma   58.92698346
_symmetry_Int_Tables_number   1
_chemical_formula_structural   CaCr2O4
_chemical_formula_sum   'Ca6 Cr12 O24'
_cell_volume   518.79214190
_cell_formula_units_Z   6
loop_
 _symmetry_equiv_pos_site_id
 _symmetry_equiv_pos_as_xyz
  1  'x, y, z'
loop_
 _atom_site_type_symbol
 _atom_site_label
 _atom_site_symmetry_multiplicity
 _atom_site_fract_x
 _atom_site_fract_y
 _atom_site_fract_z
 _atom_site_occupancy
  Ca  Ca0  1  0.83485300  0.83485300  0.95772600  1
  Ca  Ca1  1  0.16640000  0.16640000  0.66937600  1
  Ca  Ca2  1  0.33407900  0.33407900  0.83445700  1
  Ca  Ca3  1  0.83458700  0.83458700  0.33074500  1
  Ca  Ca4  1  0.00059600  0.00059600  0.50008600  1
  Ca  Ca5  1  0.66358900  0.66358900  0.16625200  1
  Cr  Cr0  1  0.82388100  0.33670500  0.83489000  1
  Cr  Cr1  1  0.50598900  0.50598900  0.62227500  1
  Cr  Cr2  1  0.49934900  0.49934900  0.99701500  1
  Cr  Cr3  1  0.33670500  0.82388000  0.83489000  1
  Cr  Cr4  1  0.50248000  0.99826100  0.49971900  1
  Cr  Cr5  1  0.17155600  0.17155600  0.29062000  1
  Cr  Cr6  1  0.99826100  0.50248000  0.49971900  1
  Cr  Cr7  1  0.17159200  0.66308000  0.16572700  1
  Cr  Cr8  1  0.82713700  0.82713700  0.70967900  1
  Cr  Cr9  1  0.66308000  0.17159200  0.16572700  1
  Cr  Cr10  1  0.49461300  0.49461300  0.37664800  1
  Cr  Cr11  1  0.14725300  0.14725300  0.03980700  1
  O  O0  1  0.65879100  0.21961700  0.91774300  1
  O  O1  1  0.51753400  0.51753400  0.75275600  1
  O  O2  1  0.21961700  0.65879100  0.91774300  1
  O  O3  1  0.64171000  0.64171000  0.90919300  1
  O  O4  1  0.35335100  0.83579200  0.57906800  1
  O  O5  1  0.99725600  0.99725600  0.76746800  1
  O  O6  1  0.18589000  0.18589000  0.42204900  1
  O  O7  1  0.50259300  0.98056400  0.75872600  1
  O  O8  1  0.83579200  0.35335100  0.57906800  1
  O  O9  1  0.14833000  0.14833000  0.91313600  1
  O  O10  1  0.33132200  0.33132200  0.56993400  1
  O  O11  1  0.98056400  0.50259300  0.75872600  1
  O  O12  1  0.02344200  0.49684400  0.24315300  1
  O  O13  1  0.66955800  0.66955800  0.42923500  1
  O  O14  1  0.16535700  0.64891500  0.42063800  1
  O  O15  1  0.49684400  0.02344200  0.24315300  1
  O  O16  1  0.85073900  0.85073900  0.10258600  1
  O  O17  1  0.81512400  0.81512400  0.57809200  1
  O  O18  1  0.00434500  0.00434500  0.23495700  1
  O  O19  1  0.64891500  0.16535700  0.42063800  1
  O  O20  1  0.35170000  0.35170000  0.08672400  1
  O  O21  1  0.80866400  0.32334300  0.07757600  1
  O  O22  1  0.48224800  0.48224800  0.24561100  1
  O  O23  1  0.32334300  0.80866400  0.07757600  1
loop_
_geom_bond_atom_site_label_1
_geom_bond_atom_site_label_2
_geom_bond_distance
_geom_bond_site_symmetry_2
Ca0 O0 2.155723 1_565
Ca0 O2 2.155723 1_655
Ca0 O16 2.225037 1_556
Ca0 O3 2.275170 1_555
Ca1 O4 2.277786 1_545
Ca1 O8 2.277786 1_455
Ca1 O11 2.292489 1_455
Ca1 O7 2.292489 1_545
Ca1 O10 2.311849 1_555
Ca1 O5 2.334457 1_445
Ca2 O0 2.219427 1_555
Ca2 O2 2.219427 1_555
Ca2 O11 2.255187 1_455
Ca2 O7 2.255187 1_545
Ca2 O9 2.321335 1_555
Ca2 O1 2.322521 1_555
Ca3 O14 2.274384 1_655
Ca3 O19 2.274384 1_565
Ca3 O12 2.283211 1_655
Ca3 O15 2.283211 1_565
Ca3 O13 2.303716 1_555
Ca3 O18 2.318503 1_665
Ca4 O14 2.278587 1_545
Ca4 O19 2.278587 1_455
Ca4 O8 2.279794 1_455
Ca4 O4 2.279794 1_545
Ca4 O6 2.312368 1_555
Ca4 O17 2.313817 1_445
Ca5 O16 2.234380 1_555
Ca5 O22 2.285150 1_555
Ca5 O15 2.296047 1_565
Ca5 O12 2.296047 1_655
Ca5 O21 2.316506 1_555
Ca5 O23 2.316506 1_555
Cr0 O0 1.962499 1_555
Cr0 O3 2.021546 1_555
Cr0 O11 2.075919 1_555
Cr0 O1 2.097740 1_555
Cr0 O5 2.120622 1_545
Cr0 O9 2.141812 1_655
Cr1 O4 1.887362 1_555
Cr1 O8 1.887362 1_555
Cr1 O1 2.000738 1_555
Cr1 O10 2.108071 1_555
Cr2 O0 1.954819 1_555
Cr2 O2 1.954819 1_555
Cr2 O3 2.014590 1_555
Cr2 O20 2.076219 1_556
Cr2 O21 2.094606 1_556
Cr2 O23 2.094606 1_556
Cr3 O2 1.962494 1_555
Cr3 O3 2.021546 1_555
Cr3 O7 2.075924 1_555
Cr3 O1 2.097736 1_555
Cr3 O5 2.120621 1_455
Cr3 O9 2.141816 1_565
Cr4 O4 2.053051 1_555
Cr4 O19 2.059955 1_565
Cr4 O17 2.090622 1_555
Cr4 O13 2.094676 1_555
Cr4 O6 2.102627 1_565
Cr4 O10 2.112460 1_565
Cr5 O15 1.887791 1_555
Cr5 O12 1.887791 1_555
Cr5 O6 2.018634 1_555
Cr5 O18 2.054956 1_555
Cr6 O8 2.053051 1_555
Cr6 O14 2.059955 1_655
Cr6 O17 2.090622 1_555
Cr6 O13 2.094676 1_555
Cr6 O6 2.102627 1_655
Cr6 O10 2.112460 1_655
Cr7 O16 2.002061 1_455
Cr7 O12 2.049765 1_555
Cr7 O23 2.069994 1_555
Cr7 O20 2.090096 1_555
Cr7 O22 2.095166 1_555
Cr7 O18 2.144691 1_565
Cr8 O7 1.891465 1_555
Cr8 O11 1.891465 1_555
Cr8 O17 2.018131 1_555
Cr8 O5 2.098733 1_555
Cr9 O16 2.002061 1_545
Cr9 O15 2.049765 1_555
Cr9 O21 2.069994 1_555
Cr9 O20 2.090096 1_555
Cr9 O22 2.095166 1_555
Cr9 O18 2.144691 1_655
Cr10 O14 1.888032 1_555
Cr10 O19 1.888032 1_555
Cr10 O22 2.010177 1_555
Cr10 O13 2.112465 1_555
Cr11 O23 1.905091 1_545
Cr11 O21 1.905091 1_455
Cr11 O9 1.932698 1_554
Cr11 O20 2.384318 1_555
