# generated using pymatgen
data_CsGe
_symmetry_space_group_name_H-M   'P 1'
_cell_length_a   13.72652343
_cell_length_b   13.72652343
_cell_length_c   13.72652343
_cell_angle_alpha   90.00000000
_cell_angle_beta   90.00000000
_cell_angle_gamma   90.00000000
_symmetry_Int_Tables_number   1
_chemical_formula_structural   CsGe
_chemical_formula_sum   'Cs32 Ge32'
_cell_volume   2586.31647992
_cell_formula_units_Z   32
loop_
 _symmetry_equiv_pos_site_id
 _symmetry_equiv_pos_as_xyz
  1  'x, y, z'
loop_
 _atom_site_type_symbol
 _atom_site_label
 _atom_site_symmetry_multiplicity
 _atom_site_fract_x
 _atom_site_fract_y
 _atom_site_fract_z
 _atom_site_occupancy
  Cs  Cs0  1  0.33286708  0.33286708  0.33286708  1
  Cs  Cs1  1  0.16713292  0.83286708  0.16713292  1
  Cs  Cs2  1  0.16713292  0.16713292  0.83286708  1
  Cs  Cs3  1  0.83286708  0.16713292  0.16713292  1
  Cs  Cs4  1  0.66713292  0.66713292  0.33286708  1
  Cs  Cs5  1  0.33286708  0.66713292  0.66713292  1
  Cs  Cs6  1  0.66713292  0.33286708  0.66713292  1
  Cs  Cs7  1  0.83286708  0.83286708  0.83286708  1
  Cs  Cs8  1  0.33682776  0.14023570  0.06515777  1
  Cs  Cs9  1  0.16317224  0.56515777  0.35976430  1
  Cs  Cs10  1  0.16317224  0.43484223  0.64023570  1
  Cs  Cs11  1  0.43484223  0.35976430  0.83682776  1
  Cs  Cs12  1  0.56515777  0.35976430  0.16317224  1
  Cs  Cs13  1  0.64023570  0.16317224  0.43484223  1
  Cs  Cs14  1  0.35976430  0.83682776  0.43484223  1
  Cs  Cs15  1  0.06515777  0.33682776  0.14023570  1
  Cs  Cs16  1  0.14023570  0.06515777  0.33682776  1
  Cs  Cs17  1  0.85976430  0.93484223  0.33682776  1
  Cs  Cs18  1  0.06515777  0.66317224  0.85976430  1
  Cs  Cs19  1  0.85976430  0.06515777  0.66317224  1
  Cs  Cs20  1  0.93484223  0.66317224  0.14023570  1
  Cs  Cs21  1  0.93484223  0.33682776  0.85976430  1
  Cs  Cs22  1  0.14023570  0.93484223  0.66317224  1
  Cs  Cs23  1  0.33682776  0.85976430  0.93484223  1
  Cs  Cs24  1  0.66317224  0.14023570  0.93484223  1
  Cs  Cs25  1  0.66317224  0.85976430  0.06515777  1
  Cs  Cs26  1  0.35976430  0.16317224  0.56515777  1
  Cs  Cs27  1  0.64023570  0.83682776  0.56515777  1
  Cs  Cs28  1  0.43484223  0.64023570  0.16317224  1
  Cs  Cs29  1  0.56515777  0.64023570  0.83682776  1
  Cs  Cs30  1  0.83682776  0.43484223  0.35976430  1
  Cs  Cs31  1  0.83682776  0.56515777  0.64023570  1
  Ge  Ge0  1  0.06586836  0.06586836  0.06586836  1
  Ge  Ge1  1  0.43413164  0.56586836  0.43413164  1
  Ge  Ge2  1  0.43413164  0.43413164  0.56586836  1
  Ge  Ge3  1  0.56586836  0.43413164  0.43413164  1
  Ge  Ge4  1  0.93413164  0.93413164  0.06586836  1
  Ge  Ge5  1  0.06586836  0.93413164  0.93413164  1
  Ge  Ge6  1  0.93413164  0.06586836  0.93413164  1
  Ge  Ge7  1  0.56586836  0.56586836  0.56586836  1
  Ge  Ge8  1  0.06084156  0.31470269  0.42810149  1
  Ge  Ge9  1  0.43915744  0.92810149  0.18529731  1
  Ge  Ge10  1  0.43915744  0.07189851  0.81470269  1
  Ge  Ge11  1  0.07189851  0.18529731  0.56084256  1
  Ge  Ge12  1  0.92810149  0.18529731  0.43915744  1
  Ge  Ge13  1  0.81470269  0.43915744  0.07189851  1
  Ge  Ge14  1  0.18529731  0.56084256  0.07189851  1
  Ge  Ge15  1  0.42810149  0.06084156  0.31470269  1
  Ge  Ge16  1  0.31470269  0.42810149  0.06084156  1
  Ge  Ge17  1  0.68529731  0.57189851  0.06084156  1
  Ge  Ge18  1  0.42810149  0.93915744  0.68529731  1
  Ge  Ge19  1  0.68529731  0.42810149  0.93915744  1
  Ge  Ge20  1  0.57189851  0.93915744  0.31470269  1
  Ge  Ge21  1  0.57189851  0.06084156  0.68529731  1
  Ge  Ge22  1  0.31470269  0.57189851  0.93915744  1
  Ge  Ge23  1  0.06084156  0.68529731  0.57189851  1
  Ge  Ge24  1  0.93915744  0.31470269  0.57189851  1
  Ge  Ge25  1  0.93915744  0.68529731  0.42810149  1
  Ge  Ge26  1  0.18529731  0.43915744  0.92810149  1
  Ge  Ge27  1  0.81470269  0.56084256  0.92810149  1
  Ge  Ge28  1  0.07189851  0.81470269  0.43915744  1
  Ge  Ge29  1  0.92810149  0.81470269  0.56084256  1
  Ge  Ge30  1  0.56084256  0.07189851  0.18529731  1
  Ge  Ge31  1  0.56084256  0.92810149  0.81470269  1
loop_
_geom_bond_atom_site_label_1
_geom_bond_atom_site_label_2
_geom_bond_distance
_geom_bond_site_symmetry_2
Cs0 Ge1 3.754113 1_555
Cs0 Ge2 3.754113 1_555
Cs0 Ge3 3.754113 1_555
Cs0 Ge8 3.964029 1_555
Cs0 Ge15 3.964029 1_555
Cs0 Ge16 3.964029 1_555
Cs1 Ge5 3.754113 1_554
Cs1 Ge4 3.754113 1_455
Cs1 Ge0 3.754113 1_565
Cs1 Ge28 3.964016 1_555
Cs1 Ge14 3.964016 1_555
Cs1 Ge9 3.964016 1_555
Cs2 Ge5 3.754113 1_545
Cs2 Ge6 3.754113 1_455
Cs2 Ge0 3.754113 1_556
Cs2 Ge26 3.964016 1_555
Cs2 Ge10 3.964016 1_555
Cs2 Ge11 3.964016 1_555
Cs3 Ge6 3.754113 1_554
Cs3 Ge4 3.754113 1_545
Cs3 Ge0 3.754113 1_655
Cs3 Ge13 3.964016 1_555
Cs3 Ge30 3.964016 1_555
Cs3 Ge12 3.964016 1_555
Cs4 Ge7 3.754113 1_555
Cs4 Ge1 3.754113 1_555
Cs4 Ge3 3.754113 1_555
Cs4 Ge20 3.964016 1_555
Cs4 Ge25 3.964016 1_555
Cs4 Ge17 3.964029 1_555
Cs5 Ge7 3.754113 1_555
Cs5 Ge1 3.754113 1_555
Cs5 Ge2 3.754113 1_555
Cs5 Ge18 3.964016 1_555
Cs5 Ge22 3.964016 1_555
Cs5 Ge23 3.964029 1_555
Cs6 Ge7 3.754113 1_555
Cs6 Ge3 3.754113 1_555
Cs6 Ge2 3.754113 1_555
Cs6 Ge19 3.964016 1_555
Cs6 Ge24 3.964016 1_555
Cs6 Ge21 3.964029 1_555
Cs7 Ge6 3.754113 1_565
Cs7 Ge5 3.754113 1_655
Cs7 Ge4 3.754113 1_556
Cs7 Ge29 3.964016 1_555
Cs7 Ge27 3.964016 1_555
Cs7 Ge31 3.964016 1_555
Cs8 Ge30 3.613131 1_555
Cs8 Ge9 3.629252 1_545
Cs8 Ge15 3.806655 1_555
Cs8 Ge10 3.830391 1_554
Cs8 Ge0 3.856884 1_555
Cs8 Ge16 3.963493 1_555
Cs9 Ge25 3.613131 1_455
Cs9 Ge23 3.629257 1_555
Cs9 Ge28 3.806651 1_555
Cs9 Ge8 3.830396 1_555
Cs9 Ge1 3.856884 1_555
Cs9 Ge14 3.963493 1_555
Cs10 Ge24 3.613131 1_455
Cs10 Ge8 3.629257 1_555
Cs10 Ge11 3.806651 1_555
Cs10 Ge23 3.830396 1_555
Cs10 Ge2 3.856884 1_555
Cs10 Ge26 3.963493 1_555
Cs11 Ge16 3.613119 1_556
Cs11 Ge22 3.629252 1_555
Cs11 Ge26 3.806651 1_555
Cs11 Ge19 3.830391 1_555
Cs11 Ge2 3.856884 1_555
Cs11 Ge10 3.963493 1_555
Cs12 Ge19 3.613131 1_554
Cs12 Ge17 3.629257 1_555
Cs12 Ge13 3.806651 1_555
Cs12 Ge16 3.830396 1_555
Cs12 Ge3 3.856884 1_555
Cs12 Ge30 3.963493 1_555
Cs13 Ge20 3.613131 1_545
Cs13 Ge15 3.629257 1_555
Cs13 Ge30 3.806651 1_555
Cs13 Ge21 3.830396 1_555
Cs13 Ge3 3.856884 1_555
Cs13 Ge12 3.963493 1_555
Cs14 Ge15 3.613119 1_565
Cs14 Ge20 3.629252 1_555
Cs14 Ge9 3.806651 1_555
Cs14 Ge18 3.830391 1_555
Cs14 Ge1 3.856884 1_555
Cs14 Ge28 3.963493 1_555
Cs15 Ge14 3.613131 1_555
Cs15 Ge26 3.629252 1_554
Cs15 Ge16 3.806655 1_555
Cs15 Ge13 3.830391 1_455
Cs15 Ge0 3.856884 1_555
Cs15 Ge8 3.963493 1_555
Cs16 Ge11 3.613131 1_555
Cs16 Ge12 3.629252 1_455
Cs16 Ge8 3.806655 1_555
Cs16 Ge28 3.830391 1_545
Cs16 Ge0 3.856884 1_555
Cs16 Ge15 3.963493 1_555
Cs17 Ge29 3.613131 1_555
Cs17 Ge28 3.629252 1_655
Cs17 Ge25 3.806651 1_555
Cs17 Ge12 3.830391 1_565
Cs17 Ge4 3.856884 1_555
Cs17 Ge20 3.963493 1_555
Cs18 Ge26 3.613131 1_555
Cs18 Ge14 3.629252 1_556
Cs18 Ge22 3.806651 1_555
Cs18 Ge27 3.830391 1_455
Cs18 Ge5 3.856884 1_555
Cs18 Ge23 3.963493 1_555
Cs19 Ge12 3.613131 1_555
Cs19 Ge11 3.629252 1_655
Cs19 Ge24 3.806651 1_555
Cs19 Ge29 3.830391 1_545
Cs19 Ge6 3.856884 1_555
Cs19 Ge21 3.963493 1_555
Cs20 Ge13 3.613131 1_555
Cs20 Ge27 3.629252 1_554
Cs20 Ge17 3.806655 1_555
Cs20 Ge14 3.830391 1_655
Cs20 Ge4 3.856884 1_555
Cs20 Ge25 3.963493 1_555
Cs21 Ge27 3.613131 1_555
Cs21 Ge13 3.629252 1_556
Cs21 Ge19 3.806651 1_555
Cs21 Ge26 3.830391 1_655
Cs21 Ge6 3.856884 1_555
Cs21 Ge24 3.963493 1_555
Cs22 Ge28 3.613131 1_555
Cs22 Ge29 3.629252 1_455
Cs22 Ge23 3.806655 1_555
Cs22 Ge11 3.830391 1_565
Cs22 Ge5 3.856884 1_555
Cs22 Ge18 3.963493 1_555
Cs23 Ge31 3.613131 1_555
Cs23 Ge10 3.629252 1_565
Cs23 Ge18 3.806651 1_555
Cs23 Ge9 3.830391 1_556
Cs23 Ge5 3.856884 1_555
Cs23 Ge22 3.963493 1_555
Cs24 Ge10 3.613131 1_555
Cs24 Ge31 3.629252 1_545
Cs24 Ge21 3.806655 1_555
Cs24 Ge30 3.830391 1_556
Cs24 Ge6 3.856884 1_555
Cs24 Ge19 3.963493 1_555
Cs25 Ge9 3.613131 1_555
Cs25 Ge30 3.629252 1_565
Cs25 Ge20 3.806651 1_555
Cs25 Ge31 3.830391 1_554
Cs25 Ge4 3.856884 1_555
Cs25 Ge17 3.963493 1_555
Cs26 Ge18 3.613131 1_545
Cs26 Ge21 3.629257 1_555
Cs26 Ge10 3.806651 1_555
Cs26 Ge15 3.830396 1_555
Cs26 Ge2 3.856884 1_555
Cs26 Ge11 3.963493 1_555
Cs27 Ge21 3.613119 1_565
Cs27 Ge18 3.629252 1_555
Cs27 Ge31 3.806651 1_555
Cs27 Ge20 3.830391 1_555
Cs27 Ge7 3.856884 1_555
Cs27 Ge29 3.963493 1_555
Cs28 Ge22 3.613131 1_554
Cs28 Ge16 3.629257 1_555
Cs28 Ge14 3.806651 1_555
Cs28 Ge17 3.830396 1_555
Cs28 Ge1 3.856884 1_555
Cs28 Ge9 3.963493 1_555
Cs29 Ge17 3.613119 1_556
Cs29 Ge19 3.629252 1_555
Cs29 Ge27 3.806651 1_555
Cs29 Ge22 3.830391 1_555
Cs29 Ge7 3.856884 1_555
Cs29 Ge31 3.963493 1_555
Cs30 Ge8 3.613119 1_655
Cs30 Ge24 3.629252 1_555
Cs30 Ge12 3.806651 1_555
Cs30 Ge25 3.830391 1_555
Cs30 Ge3 3.856884 1_555
Cs30 Ge13 3.963493 1_555
Cs31 Ge23 3.613119 1_655
Cs31 Ge25 3.629252 1_555
Cs31 Ge29 3.806651 1_555
Cs31 Ge24 3.830391 1_555
Cs31 Ge7 3.856884 1_555
Cs31 Ge27 3.963493 1_555
Ge0 Ge5 2.557304 1_544
Ge0 Ge4 2.557304 1_445
Ge0 Ge6 2.557304 1_454
Ge1 Ge3 2.557304 1_555
Ge1 Ge2 2.557304 1_555
Ge1 Ge7 2.557304 1_555
Ge2 Ge3 2.557304 1_555
Ge2 Ge7 2.557304 1_555
Ge3 Ge7 2.557304 1_555
Ge4 Ge5 2.557304 1_654
Ge4 Ge6 2.557304 1_564
Ge5 Ge6 2.557304 1_465
Ge10 Ge18 2.549152 1_545
Ge10 Ge21 2.549153 1_555
Ge10 Ge31 2.585723 1_545
Ge11 Ge24 2.549152 1_455
Ge11 Ge8 2.549153 1_555
Ge11 Ge12 2.585723 1_455
Ge12 Ge8 2.549142 1_655
Ge12 Ge24 2.549152 1_555
Ge13 Ge19 2.549152 1_554
Ge13 Ge17 2.549153 1_555
Ge13 Ge27 2.585723 1_554
Ge14 Ge22 2.549152 1_554
Ge14 Ge16 2.549153 1_555
Ge14 Ge26 2.585723 1_554
Ge15 Ge9 2.549142 1_545
Ge15 Ge30 2.549153 1_555
Ge15 Ge20 2.585714 1_545
Ge16 Ge26 2.549142 1_554
Ge16 Ge22 2.585714 1_554
Ge17 Ge27 2.549142 1_554
Ge17 Ge19 2.585714 1_554
Ge18 Ge31 2.549152 1_555
Ge18 Ge21 2.585714 1_565
Ge19 Ge27 2.549152 1_555
Ge20 Ge30 2.549152 1_565
Ge20 Ge9 2.549152 1_555
Ge21 Ge31 2.549142 1_545
Ge22 Ge26 2.549152 1_555
Ge23 Ge29 2.549142 1_455
Ge23 Ge28 2.549153 1_555
Ge23 Ge25 2.585714 1_455
Ge24 Ge8 2.585714 1_655
Ge25 Ge29 2.549152 1_555
Ge25 Ge28 2.549152 1_655
Ge28 Ge29 2.585723 1_455
Ge30 Ge9 2.585723 1_545
