# generated using pymatgen
data_Lu(Al5Fe)2
_symmetry_space_group_name_H-M   'P 1'
_cell_length_a   6.68223707
_cell_length_b   6.68223707
_cell_length_c   8.83303788
_cell_angle_alpha   90.00000000
_cell_angle_beta   90.00000000
_cell_angle_gamma   97.34298979
_symmetry_Int_Tables_number   1
_chemical_formula_structural   Lu(Al5Fe)2
_chemical_formula_sum   'Lu2 Al20 Fe4'
_cell_volume   391.18071971
_cell_formula_units_Z   2
loop_
 _symmetry_equiv_pos_site_id
 _symmetry_equiv_pos_as_xyz
  1  'x, y, z'
loop_
 _atom_site_type_symbol
 _atom_site_label
 _atom_site_symmetry_multiplicity
 _atom_site_fract_x
 _atom_site_fract_y
 _atom_site_fract_z
 _atom_site_occupancy
  Lu  Lu0  1  0.87315984  0.12684016  0.75000000  1
  Lu  Lu1  1  0.12684016  0.87315984  0.25000000  1
  Al  Al0  1  0.62599395  0.37400605  0.54883441  1
  Al  Al1  1  0.37400605  0.62599395  0.45116559  1
  Al  Al2  1  0.37400605  0.62599395  0.04883441  1
  Al  Al3  1  0.62599395  0.37400605  0.95116559  1
  Al  Al4  1  0.22733657  0.22733657  0.50000000  1
  Al  Al5  1  0.77266343  0.77266343  0.50000000  1
  Al  Al6  1  0.77266343  0.77266343  0.00000000  1
  Al  Al7  1  0.22733657  0.22733657  0.00000000  1
  Al  Al8  1  0.84307846  0.15692154  0.09664570  1
  Al  Al9  1  0.15692154  0.84307846  0.90335430  1
  Al  Al10  1  0.15692154  0.84307846  0.59664570  1
  Al  Al11  1  0.84307846  0.15692154  0.40335430  1
  Al  Al12  1  0.86593962  0.58433791  0.75000000  1
  Al  Al13  1  0.13406038  0.41566209  0.25000000  1
  Al  Al14  1  0.41566209  0.13406038  0.75000000  1
  Al  Al15  1  0.58433791  0.86593962  0.25000000  1
  Al  Al16  1  0.21914497  0.47784801  0.75000000  1
  Al  Al17  1  0.78085503  0.52215199  0.25000000  1
  Al  Al18  1  0.52215199  0.78085503  0.75000000  1
  Al  Al19  1  0.47784801  0.21914497  0.25000000  1
  Fe  Fe0  1  0.00000000  0.50000000  0.50000000  1
  Fe  Fe1  1  0.00000000  0.50000000  0.00000000  1
  Fe  Fe2  1  0.50000000  0.00000000  0.00000000  1
  Fe  Fe3  1  0.50000000  0.00000000  0.50000000  1
loop_
_geom_bond_atom_site_label_1
_geom_bond_atom_site_label_2
_geom_bond_distance
_geom_bond_site_symmetry_2
Al0 Al11 2.529374 1_555
Al0 Fe3 2.569637 1_555
Al0 Fe0 2.569637 1_655
Al0 Al14 2.669747 1_555
Al0 Al12 2.669747 1_555
Al0 Al1 2.672019 1_555
Al0 Al5 2.752404 1_555
Al0 Al4 2.752404 1_555
Al0 Al17 2.959148 1_555
Al0 Al19 2.959148 1_555
Al0 Lu0 3.051291 1_555
Al1 Al10 2.529374 1_555
Al1 Fe3 2.569637 1_565
Al1 Fe0 2.569637 1_555
Al1 Al15 2.669747 1_555
Al1 Al13 2.669747 1_555
Al1 Al4 2.752404 1_555
Al1 Al5 2.752404 1_555
Al1 Al16 2.959148 1_555
Al1 Al18 2.959148 1_555
Al1 Lu1 3.051291 1_555
Al2 Al9 2.529374 1_554
Al2 Fe1 2.569637 1_555
Al2 Fe2 2.569637 1_565
Al2 Al3 2.672019 1_554
Al2 Al7 2.752404 1_555
Al2 Al6 2.752404 1_555
Al2 Lu1 3.051291 1_555
Al3 Al8 2.529374 1_556
Al3 Fe1 2.569637 1_656
Al3 Fe2 2.569637 1_556
Al3 Al6 2.752404 1_556
Al3 Al7 2.752404 1_556
Al3 Lu0 3.051291 1_555
Al4 Fe0 2.516925 1_555
Al4 Fe3 2.516925 1_555
Al4 Lu0 3.243817 1_455
Al4 Lu1 3.243817 1_545
Al5 Fe0 2.516925 1_655
Al5 Fe3 2.516925 1_565
Al5 Lu1 3.243817 1_655
Al5 Lu0 3.243817 1_565
Al6 Fe2 2.516925 1_565
Al6 Fe1 2.516925 1_655
Al6 Al8 2.689690 1_565
Al6 Al9 2.689690 1_654
Al6 Lu1 3.243817 1_655
Al6 Lu0 3.243817 1_564
Al7 Fe1 2.516925 1_555
Al7 Fe2 2.516925 1_555
Al7 Al9 2.689690 1_544
Al7 Al8 2.689690 1_455
Al7 Lu0 3.243817 1_454
Al7 Lu1 3.243817 1_545
Al8 Fe1 2.543524 1_655
Al8 Fe2 2.543524 1_555
Al8 Lu0 3.076781 1_554
Al8 Lu1 3.153541 1_645
Al9 Fe2 2.543524 1_566
Al9 Fe1 2.543524 1_556
Al9 Lu1 3.076781 1_556
Al9 Lu0 3.153541 1_465
Al10 Fe0 2.543524 1_555
Al10 Fe3 2.543524 1_565
Al10 Al5 2.689690 1_455
Al10 Al4 2.689690 1_565
Al10 Al9 2.709169 1_555
Al10 Al14 2.783094 1_565
Al10 Al12 2.783094 1_455
Al10 Al16 2.867663 1_555
Al10 Al18 2.867663 1_555
Al10 Lu1 3.076781 1_555
Al10 Lu0 3.153541 1_465
Al11 Fe0 2.543524 1_655
Al11 Fe3 2.543524 1_555
Al11 Al5 2.689690 1_545
Al11 Al4 2.689690 1_655
Al11 Al8 2.709169 1_555
Al11 Al13 2.783094 1_655
Al11 Al15 2.783094 1_545
Al11 Al17 2.867663 1_555
Al11 Al19 2.867663 1_555
Al11 Lu0 3.076781 1_555
Al11 Lu1 3.153541 1_645
Al12 Fe1 2.474988 1_656
Al12 Fe0 2.474988 1_655
Al12 Al16 2.550730 1_655
Al12 Al5 2.655008 1_555
Al12 Al6 2.655008 1_556
Al12 Al3 2.669747 1_555
Al12 Al9 2.783094 1_655
Al12 Al18 2.788011 1_555
Al12 Lu0 3.063649 1_555
Al12 Lu0 3.619279 1_565
Al13 Fe1 2.474988 1_555
Al13 Fe0 2.474988 1_555
Al13 Al17 2.550730 1_455
Al13 Al7 2.655008 1_555
Al13 Al4 2.655008 1_555
Al13 Al2 2.669747 1_555
Al13 Al8 2.783094 1_455
Al13 Al19 2.788011 1_555
Al13 Lu1 3.063649 1_555
Al13 Lu1 3.619279 1_545
Al14 Fe3 2.474988 1_555
Al14 Fe2 2.474988 1_556
Al14 Al18 2.550730 1_545
Al14 Al7 2.655008 1_556
Al14 Al4 2.655008 1_555
Al14 Al3 2.669747 1_555
Al14 Al9 2.783094 1_545
Al14 Al16 2.788011 1_555
Al14 Lu0 3.063649 1_555
Al14 Lu0 3.619279 1_455
Al15 Fe3 2.474988 1_565
Al15 Fe2 2.474988 1_565
Al15 Al19 2.550730 1_565
Al15 Al5 2.655008 1_555
Al15 Al6 2.655008 1_555
Al15 Al2 2.669747 1_555
Al15 Al8 2.783094 1_565
Al15 Al17 2.788011 1_555
Al15 Lu1 3.063649 1_555
Al15 Lu1 3.619279 1_655
Al16 Fe1 2.664233 1_556
Al16 Fe0 2.664233 1_555
Al16 Al18 2.674209 1_555
Al16 Al7 2.775793 1_556
Al16 Al4 2.775793 1_555
Al16 Al9 2.867663 1_555
Al16 Al2 2.959148 1_556
Al16 Lu0 3.075783 1_455
Al17 Fe0 2.664233 1_655
Al17 Fe1 2.664233 1_655
Al17 Al19 2.674209 1_555
Al17 Al6 2.775793 1_555
Al17 Al5 2.775793 1_555
Al17 Al8 2.867663 1_555
Al17 Al3 2.959148 1_554
Al17 Lu1 3.075783 1_655
Al18 Fe2 2.664233 1_566
Al18 Fe3 2.664233 1_565
Al18 Al6 2.775793 1_556
Al18 Al5 2.775793 1_555
Al18 Al9 2.867663 1_555
Al18 Al2 2.959148 1_556
Al18 Lu0 3.075783 1_565
Al19 Fe3 2.664233 1_555
Al19 Fe2 2.664233 1_555
Al19 Al7 2.775793 1_555
Al19 Al4 2.775793 1_555
Al19 Al8 2.867663 1_555
Al19 Al3 2.959148 1_554
Al19 Lu1 3.075783 1_545
Fe0 Lu1 3.357426 1_555
Fe0 Lu0 3.357426 1_455
Fe1 Lu1 3.357426 1_555
Fe1 Lu0 3.357426 1_454
Fe2 Lu0 3.357426 1_554
Fe2 Lu1 3.357426 1_545
Fe3 Lu0 3.357426 1_555
Fe3 Lu1 3.357426 1_545
