# generated using pymatgen
data_Tb2Re3Si5
_symmetry_space_group_name_H-M   'P 1'
_cell_length_a   10.95541036
_cell_length_b   10.95541036
_cell_length_c   5.53008068
_cell_angle_alpha   90.00000000
_cell_angle_beta   90.00000000
_cell_angle_gamma   90.00000000
_symmetry_Int_Tables_number   1
_chemical_formula_structural   Tb2Re3Si5
_chemical_formula_sum   'Tb8 Re12 Si20'
_cell_volume   663.72590264
_cell_formula_units_Z   4
loop_
 _symmetry_equiv_pos_site_id
 _symmetry_equiv_pos_as_xyz
  1  'x, y, z'
loop_
 _atom_site_type_symbol
 _atom_site_label
 _atom_site_symmetry_multiplicity
 _atom_site_fract_x
 _atom_site_fract_y
 _atom_site_fract_z
 _atom_site_occupancy
  Tb  Tb0  1  0.57809582  0.73747352  0.50000000  1
  Tb  Tb1  1  0.42190418  0.26252648  0.50000000  1
  Tb  Tb2  1  0.07809582  0.76252648  0.00000000  1
  Tb  Tb3  1  0.92190418  0.23747352  0.00000000  1
  Tb  Tb4  1  0.26252648  0.57809582  0.50000000  1
  Tb  Tb5  1  0.73747352  0.42190418  0.50000000  1
  Tb  Tb6  1  0.23747352  0.07809582  0.00000000  1
  Tb  Tb7  1  0.76252648  0.92190418  0.00000000  1
  Re  Re0  1  0.87539425  0.85215407  0.50000000  1
  Re  Re1  1  0.12460575  0.14784593  0.50000000  1
  Re  Re2  1  0.37539425  0.64784593  0.00000000  1
  Re  Re3  1  0.62460575  0.35215407  0.00000000  1
  Re  Re4  1  0.14784593  0.87539425  0.50000000  1
  Re  Re5  1  0.85215407  0.12460575  0.50000000  1
  Re  Re6  1  0.35215407  0.37539425  0.00000000  1
  Re  Re7  1  0.64784593  0.62460575  0.00000000  1
  Re  Re8  1  0.50000000  0.00000000  0.25000000  1
  Re  Re9  1  0.00000000  0.50000000  0.75000000  1
  Re  Re10  1  0.00000000  0.50000000  0.25000000  1
  Re  Re11  1  0.50000000  0.00000000  0.75000000  1
  Si  Si0  1  0.67186705  0.17186705  0.25000000  1
  Si  Si1  1  0.32813295  0.82813295  0.25000000  1
  Si  Si2  1  0.17186705  0.32813295  0.75000000  1
  Si  Si3  1  0.82813295  0.67186705  0.75000000  1
  Si  Si4  1  0.82813295  0.67186705  0.25000000  1
  Si  Si5  1  0.17186705  0.32813295  0.25000000  1
  Si  Si6  1  0.67186705  0.17186705  0.75000000  1
  Si  Si7  1  0.32813295  0.82813295  0.75000000  1
  Si  Si8  1  0.50000000  0.50000000  0.25064881  1
  Si  Si9  1  0.00000000  0.00000000  0.75064881  1
  Si  Si10  1  0.50000000  0.50000000  0.74935119  1
  Si  Si11  1  0.00000000  0.00000000  0.24935119  1
  Si  Si12  1  0.68563800  0.97381637  0.50000000  1
  Si  Si13  1  0.31436200  0.02618363  0.50000000  1
  Si  Si14  1  0.18563800  0.52618363  0.00000000  1
  Si  Si15  1  0.81436200  0.47381637  0.00000000  1
  Si  Si16  1  0.02618363  0.68563800  0.50000000  1
  Si  Si17  1  0.97381637  0.31436200  0.50000000  1
  Si  Si18  1  0.47381637  0.18563800  0.00000000  1
  Si  Si19  1  0.52618363  0.81436200  0.00000000  1
loop_
_geom_bond_atom_site_label_1
_geom_bond_atom_site_label_2
_geom_bond_distance
_geom_bond_site_symmetry_2
Re0 Si16 2.461070 1_655
Re0 Si3 2.465874 1_555
Re0 Si4 2.465874 1_555
Re0 Si12 2.469446 1_555
Re0 Si11 2.531459 1_665
Re0 Si9 2.531459 1_665
Re0 Tb7 3.123832 1_556
Re0 Tb7 3.123832 1_555
Re1 Si17 2.461070 1_455
Re1 Si5 2.465874 1_555
Re1 Si2 2.465874 1_555
Re1 Si13 2.469446 1_555
Re1 Si11 2.531459 1_555
Re1 Si9 2.531459 1_555
Re1 Tb6 3.123832 1_556
Re1 Tb6 3.123832 1_555
Re2 Si19 2.461070 1_555
Re2 Si1 2.465874 1_555
Re2 Si7 2.465874 1_554
Re2 Si14 2.469446 1_555
Re2 Si8 2.531459 1_555
Re2 Si10 2.531459 1_554
Re2 Tb4 3.123832 1_555
Re2 Tb4 3.123832 1_554
Re3 Si18 2.461070 1_555
Re3 Si6 2.465874 1_554
Re3 Si0 2.465874 1_555
Re3 Si15 2.469446 1_555
Re3 Si10 2.531459 1_554
Re3 Si8 2.531459 1_555
Re3 Tb5 3.123832 1_555
Re3 Tb5 3.123832 1_554
Re4 Si13 2.461070 1_565
Re4 Si7 2.465874 1_555
Re4 Si1 2.465874 1_555
Re4 Si16 2.469446 1_555
Re4 Si11 2.531459 1_565
Re4 Si9 2.531459 1_565
Re4 Tb2 3.123832 1_555
Re4 Tb2 3.123832 1_556
Re5 Si12 2.461070 1_545
Re5 Si6 2.465874 1_555
Re5 Si0 2.465874 1_555
Re5 Si17 2.469446 1_555
Re5 Si9 2.531459 1_655
Re5 Si11 2.531459 1_655
Re5 Tb3 3.123832 1_556
Re5 Tb3 3.123832 1_555
Re6 Si14 2.461070 1_555
Re6 Si2 2.465874 1_554
Re6 Si5 2.465874 1_555
Re6 Si18 2.469446 1_555
Re6 Si8 2.531459 1_555
Re6 Si10 2.531459 1_554
Re6 Tb1 3.123832 1_555
Re6 Tb1 3.123832 1_554
Re7 Si15 2.461070 1_555
Re7 Si4 2.465874 1_555
Re7 Si3 2.465874 1_554
Re7 Si19 2.469446 1_555
Re7 Si10 2.531459 1_554
Re7 Si8 2.531459 1_555
Re7 Tb0 3.123832 1_555
Re7 Tb0 3.123832 1_554
Re8 Si18 2.475833 1_555
Re8 Si12 2.475833 1_545
Re8 Si13 2.475833 1_555
Re8 Si19 2.475833 1_545
Re8 Si0 2.662786 1_555
Re8 Si1 2.662786 1_545
Re8 Tb0 3.303821 1_545
Re8 Tb1 3.303821 1_555
Re8 Tb7 3.303821 1_545
Re8 Tb6 3.303821 1_555
Re9 Si17 2.475833 1_455
Re9 Si16 2.475833 1_555
Re9 Si14 2.475833 1_556
Re9 Si15 2.475833 1_456
Re9 Si2 2.662786 1_555
Re9 Si3 2.662786 1_455
Re9 Tb4 3.303821 1_555
Re9 Tb3 3.303821 1_456
Re9 Tb5 3.303821 1_455
Re9 Tb2 3.303821 1_556
Re10 Si14 2.475833 1_555
Re10 Si17 2.475833 1_455
Re10 Si16 2.475833 1_555
Re10 Si15 2.475833 1_455
Re10 Si5 2.662786 1_555
Re10 Si4 2.662786 1_455
Re10 Re9 2.765040 1_555
Re10 Re9 2.765040 1_554
Re10 Tb4 3.303821 1_555
Re10 Tb5 3.303821 1_455
Re10 Tb2 3.303821 1_555
Re10 Tb3 3.303821 1_455
Re11 Si12 2.475833 1_545
Re11 Si13 2.475833 1_555
Re11 Si18 2.475833 1_556
Re11 Si19 2.475833 1_546
Re11 Si7 2.662786 1_545
Re11 Si6 2.662786 1_555
Re11 Re8 2.765040 1_556
Re11 Re8 2.765040 1_555
Re11 Tb0 3.303821 1_545
Re11 Tb1 3.303821 1_555
Re11 Tb7 3.303821 1_546
Re11 Tb6 3.303821 1_556
Si0 Si12 2.577176 1_545
Si0 Si18 2.577176 1_555
Si0 Si6 2.765040 1_555
Si0 Si6 2.765040 1_554
Si0 Tb3 3.151428 1_555
Si0 Tb5 3.151428 1_555
Si0 Tb7 3.224425 1_545
Si0 Tb1 3.224425 1_555
Si1 Si13 2.577176 1_565
Si1 Si19 2.577176 1_555
Si1 Si7 2.765040 1_555
Si1 Si7 2.765040 1_554
Si1 Tb4 3.151428 1_555
Si1 Tb2 3.151428 1_555
Si1 Tb6 3.224425 1_565
Si1 Tb0 3.224425 1_555
Si2 Si5 2.765040 1_556
Si2 Si5 2.765040 1_555
Si2 Tb1 3.151428 1_555
Si2 Tb6 3.151428 1_556
Si2 Tb3 3.224425 1_456
Si2 Tb4 3.224425 1_555
Si3 Si4 2.765040 1_555
Si3 Si4 2.765040 1_556
Si3 Tb0 3.151428 1_555
Si3 Tb7 3.151428 1_556
Si3 Tb2 3.224425 1_656
Si3 Tb5 3.224425 1_555
Si4 Tb0 3.151428 1_555
Si4 Tb7 3.151428 1_555
Si4 Tb2 3.224425 1_655
Si4 Tb5 3.224425 1_555
Si5 Tb6 3.151428 1_555
Si5 Tb1 3.151428 1_555
Si5 Tb3 3.224425 1_455
Si5 Tb4 3.224425 1_555
Si6 Tb3 3.151428 1_556
Si6 Tb5 3.151428 1_555
Si6 Tb7 3.224425 1_546
Si6 Tb1 3.224425 1_555
Si7 Tb4 3.151428 1_555
Si7 Tb2 3.151428 1_556
Si7 Tb6 3.224425 1_566
Si7 Tb0 3.224425 1_555
Si8 Tb0 3.066249 1_555
Si8 Tb4 3.066249 1_555
Si8 Tb1 3.066249 1_555
Si8 Tb5 3.066249 1_555
Si9 Tb3 3.066249 1_456
Si9 Tb2 3.066249 1_546
Si9 Tb6 3.066249 1_556
Si9 Tb7 3.066249 1_446
Si10 Si8 2.757864 1_555
Si10 Si8 2.772216 1_556
Si10 Tb0 3.066249 1_555
Si10 Tb4 3.066249 1_555
Si10 Tb1 3.066249 1_555
Si10 Tb5 3.066249 1_555
Si11 Si9 2.757864 1_554
Si11 Si9 2.772216 1_555
Si11 Tb3 3.066249 1_455
Si11 Tb7 3.066249 1_445
Si11 Tb6 3.066249 1_555
Si11 Tb2 3.066249 1_545
Si12 Si6 2.577176 1_565
Si12 Tb0 2.844681 1_555
Si12 Tb7 2.945918 1_556
Si12 Tb7 2.945918 1_555
Si13 Si7 2.577176 1_545
Si13 Tb1 2.844681 1_555
Si13 Tb6 2.945918 1_556
Si13 Tb6 2.945918 1_555
Si14 Si2 2.577176 1_554
Si14 Si5 2.577176 1_555
Si14 Tb2 2.844681 1_555
Si14 Tb4 2.945918 1_555
Si14 Tb4 2.945918 1_554
Si15 Si4 2.577176 1_555
Si15 Si3 2.577176 1_554
Si15 Tb3 2.844681 1_555
Si15 Tb5 2.945918 1_555
Si15 Tb5 2.945918 1_554
Si16 Si3 2.577176 1_455
Si16 Si4 2.577176 1_455
Si16 Tb4 2.844681 1_555
Si16 Tb2 2.945918 1_556
Si16 Tb2 2.945918 1_555
Si17 Si5 2.577176 1_655
Si17 Si2 2.577176 1_655
Si17 Tb5 2.844681 1_555
Si17 Tb3 2.945918 1_556
Si17 Tb3 2.945918 1_555
Si18 Si6 2.577176 1_554
Si18 Tb6 2.844681 1_555
Si18 Tb1 2.945918 1_554
Si18 Tb1 2.945918 1_555
Si19 Si7 2.577176 1_554
Si19 Tb7 2.844681 1_555
Si19 Tb0 2.945918 1_555
Si19 Tb0 2.945918 1_554
