# generated using pymatgen
data_Rb2SnHgTe4
_symmetry_space_group_name_H-M   'P 1'
_cell_length_a   7.35137689
_cell_length_b   7.35137689
_cell_length_c   7.35137689
_cell_angle_alpha   105.10524625
_cell_angle_beta   105.10524625
_cell_angle_gamma   118.60798280
_symmetry_Int_Tables_number   1
_chemical_formula_structural   Rb2SnHgTe4
_chemical_formula_sum   'Rb2 Sn1 Hg1 Te4'
_cell_volume   299.91692147
_cell_formula_units_Z   1
loop_
 _symmetry_equiv_pos_site_id
 _symmetry_equiv_pos_as_xyz
  1  'x, y, z'
loop_
 _atom_site_type_symbol
 _atom_site_label
 _atom_site_symmetry_multiplicity
 _atom_site_fract_x
 _atom_site_fract_y
 _atom_site_fract_z
 _atom_site_occupancy
  Rb  Rb0  1  0.50000000  -0.00000000  0.50000000  1
  Rb  Rb1  1  0.00000000  0.50000000  0.50000000  1
  Sn  Sn0  1  0.50000000  0.50000000  0.00000000  1
  Hg  Hg0  1  0.00000000  -0.00000000  0.00000000  1
  Te  Te0  1  0.90653979  0.90653979  0.33838659  1
  Te  Te1  1  0.56815319  0.56815319  0.66161341  1
  Te  Te2  1  0.43184681  0.09346021  0.00000000  1
  Te  Te3  1  0.09346021  0.43184681  -0.00000000  1
loop_
_geom_bond_atom_site_label_1
_geom_bond_atom_site_label_2
_geom_bond_distance
_geom_bond_site_symmetry_2
Rb0 Te1 3.769218 1_555
Rb0 Te2 3.769218 1_556
Rb0 Te3 3.769218 1_545
Rb0 Te0 3.769218 1_545
Rb0 Te0 3.862617 1_445
Rb0 Te3 3.862617 1_656
Rb0 Te2 3.862617 1_555
Rb0 Te1 3.862617 1_545
Rb1 Te1 3.769218 1_555
Rb1 Te2 3.769218 1_455
Rb1 Te3 3.769218 1_556
Rb1 Te0 3.769218 1_455
Rb1 Te0 3.862617 1_445
Rb1 Te2 3.862617 1_566
Rb1 Te3 3.862617 1_555
Rb1 Te1 3.862617 1_455
Sn0 Te1 2.783702 1_554
Sn0 Te0 2.783702 1_555
Sn0 Te2 2.783702 1_555
Sn0 Te3 2.783702 1_555
Hg0 Te0 2.908918 1_445
Hg0 Te1 2.908918 1_444
Hg0 Te2 2.908918 1_555
Hg0 Te3 2.908918 1_555
