# generated using pymatgen
data_BaGe5
_symmetry_space_group_name_H-M   'P 1'
_cell_length_a   8.50513923
_cell_length_b   8.50513923
_cell_length_c   8.50513923
_cell_angle_alpha   146.67036220
_cell_angle_beta   120.55749978
_cell_angle_gamma   69.88374793
_symmetry_Int_Tables_number   1
_chemical_formula_structural   BaGe5
_chemical_formula_sum   'Ba2 Ge10'
_cell_volume   286.81636041
_cell_formula_units_Z   2
loop_
 _symmetry_equiv_pos_site_id
 _symmetry_equiv_pos_as_xyz
  1  'x, y, z'
loop_
 _atom_site_type_symbol
 _atom_site_label
 _atom_site_symmetry_multiplicity
 _atom_site_fract_x
 _atom_site_fract_y
 _atom_site_fract_z
 _atom_site_occupancy
  Ba  Ba0  1  0.21748781  0.96748781  0.25000000  1
  Ba  Ba1  1  0.78251219  0.03251219  0.75000000  1
  Ge  Ge0  1  0.96222648  0.71222648  0.25000000  1
  Ge  Ge1  1  0.03777352  0.28777352  0.75000000  1
  Ge  Ge2  1  0.59457679  0.19298848  0.40158731  1
  Ge  Ge3  1  0.70859883  0.80701152  0.90158731  1
  Ge  Ge4  1  0.40542321  0.80701152  0.59841269  1
  Ge  Ge5  1  0.29140117  0.19298848  0.09841269  1
  Ge  Ge6  1  0.14942583  0.62715037  0.52227546  1
  Ge  Ge7  1  0.39512409  0.37284963  0.02227546  1
  Ge  Ge8  1  0.85057417  0.37284963  0.47772454  1
  Ge  Ge9  1  0.60487591  0.62715037  0.97772454  1
loop_
_geom_bond_atom_site_label_1
_geom_bond_atom_site_label_2
_geom_bond_distance
_geom_bond_site_symmetry_2
Ba0 Ge5 3.394300 1_565
Ba0 Ge2 3.394308 1_565
Ba0 Ge1 3.496932 1_554
Ba0 Ge1 3.496932 1_565
Ba0 Ge0 3.559337 1_455
Ba0 Ge7 3.600394 1_555
Ba0 Ge8 3.600396 1_465
Ba0 Ge8 3.600396 1_454
Ba0 Ge7 3.600398 1_566
Ba0 Ge3 3.693333 1_454
Ba0 Ge4 3.693334 1_555
Ba0 Ge6 3.820166 1_565
Ba0 Ge6 3.820166 1_554
Ba0 Ge9 3.820170 1_565
Ba0 Ge9 3.820173 1_554
Ba1 Ge3 3.394300 1_545
Ba1 Ge4 3.394308 1_545
Ba1 Ge0 3.496932 1_545
Ba1 Ge0 3.496932 1_556
Ba1 Ge1 3.559337 1_655
Ba1 Ge9 3.600394 1_555
Ba1 Ge6 3.600396 1_645
Ba1 Ge6 3.600396 1_656
Ba1 Ge9 3.600398 1_544
Ba1 Ge5 3.693333 1_656
Ba1 Ge2 3.693334 1_555
Ba1 Ge8 3.820166 1_545
Ba1 Ge8 3.820166 1_556
Ba1 Ge7 3.820170 1_545
Ba1 Ge7 3.820173 1_556
Ge0 Ge9 2.584528 1_554
Ge0 Ge6 2.584535 1_655
Ge0 Ge1 2.656803 1_654
Ge0 Ge1 2.656803 1_665
Ge1 Ge7 2.584528 1_556
Ge1 Ge8 2.584535 1_455
Ge2 Ge5 2.556788 1_555
Ge2 Ge8 2.588848 1_555
Ge2 Ge9 2.684025 1_544
Ge2 Ge9 2.684025 1_555
Ge2 Ge3 2.911484 1_544
Ge2 Ge3 2.911488 1_555
Ge3 Ge4 2.556788 1_555
Ge3 Ge9 2.588850 1_555
Ge3 Ge8 2.684025 1_566
Ge3 Ge8 2.684025 1_555
Ge4 Ge6 2.588848 1_555
Ge4 Ge7 2.684025 1_566
Ge4 Ge7 2.684025 1_555
Ge4 Ge5 2.911484 1_566
Ge4 Ge5 2.911488 1_555
Ge5 Ge7 2.588850 1_555
Ge5 Ge6 2.684025 1_544
Ge5 Ge6 2.684025 1_555
