# generated using pymatgen
data_Yb2MgSi2
_symmetry_space_group_name_H-M   'P 1'
_cell_length_a   7.18398500
_cell_length_b   7.18398500
_cell_length_c   4.50466700
_cell_angle_alpha   90.00000000
_cell_angle_beta   90.00000000
_cell_angle_gamma   90.00000000
_symmetry_Int_Tables_number   1
_chemical_formula_structural   Yb2MgSi2
_chemical_formula_sum   'Yb4 Mg2 Si4'
_cell_volume   232.48424435
_cell_formula_units_Z   2
loop_
 _symmetry_equiv_pos_site_id
 _symmetry_equiv_pos_as_xyz
  1  'x, y, z'
loop_
 _atom_site_type_symbol
 _atom_site_label
 _atom_site_symmetry_multiplicity
 _atom_site_fract_x
 _atom_site_fract_y
 _atom_site_fract_z
 _atom_site_occupancy
  Yb  Yb0  1  0.32615600  0.82615600  0.50000000  1
  Yb  Yb1  1  0.82615600  0.67384400  0.50000000  1
  Yb  Yb2  1  0.17384400  0.32615600  0.50000000  1
  Yb  Yb3  1  0.67384400  0.17384400  0.50000000  1
  Mg  Mg0  1  0.50000000  0.50000000  0.00000000  1
  Mg  Mg1  1  0.00000000  0.00000000  0.00000000  1
  Si  Si0  1  0.88190800  0.38190800  0.00000000  1
  Si  Si1  1  0.38190800  0.11809200  0.00000000  1
  Si  Si2  1  0.11809200  0.61809200  0.00000000  1
  Si  Si3  1  0.61809200  0.88190800  0.00000000  1
loop_
_geom_bond_atom_site_label_1
_geom_bond_atom_site_label_2
_geom_bond_distance
_geom_bond_site_symmetry_2
Mg0 Si1 2.871792 1_555
Mg0 Si2 2.871792 1_555
Mg0 Si3 2.871792 1_555
Mg0 Si0 2.871792 1_555
Mg1 Si2 2.871792 1_545
Mg1 Si1 2.871792 1_555
Mg1 Si0 2.871792 1_455
Mg1 Si3 2.871792 1_445
Si0 Si2 2.399556 1_655
Si0 Yb3 3.088921 1_554
Si0 Yb3 3.088921 1_555
Si0 Yb1 3.103537 1_554
Si0 Yb1 3.103537 1_555
Si0 Yb2 3.103537 1_655
Si0 Yb2 3.103537 1_654
Si1 Si3 2.399556 1_545
Si1 Yb2 3.088921 1_554
Si1 Yb2 3.088921 1_555
Si1 Yb0 3.103537 1_544
Si1 Yb0 3.103537 1_545
Si1 Yb3 3.103537 1_554
Si1 Yb3 3.103537 1_555
Si2 Yb0 3.088921 1_555
Si2 Yb0 3.088921 1_554
Si2 Yb2 3.103537 1_555
Si2 Yb1 3.103537 1_455
Si2 Yb1 3.103537 1_454
Si2 Yb2 3.103537 1_554
Si3 Yb1 3.088921 1_554
Si3 Yb1 3.088921 1_555
Si3 Yb0 3.103537 1_555
Si3 Yb3 3.103537 1_565
Si3 Yb3 3.103537 1_564
Si3 Yb0 3.103537 1_554
