# generated using pymatgen
data_H6C(N3O)2
_symmetry_space_group_name_H-M   'P 1'
_cell_length_a   10.48922290
_cell_length_b   10.48922290
_cell_length_c   15.12246873
_cell_angle_alpha   56.55264457
_cell_angle_beta   56.55264457
_cell_angle_gamma   24.57608132
_symmetry_Int_Tables_number   1
_chemical_formula_structural   H6C(N3O)2
_chemical_formula_sum   'H24 C4 N24 O8'
_cell_volume   571.38304951
_cell_formula_units_Z   4
loop_
 _symmetry_equiv_pos_site_id
 _symmetry_equiv_pos_as_xyz
  1  'x, y, z'
loop_
 _atom_site_type_symbol
 _atom_site_label
 _atom_site_symmetry_multiplicity
 _atom_site_fract_x
 _atom_site_fract_y
 _atom_site_fract_z
 _atom_site_occupancy
  H  H0  1  0.70024500  0.92138400  0.60342300  1
  H  H1  1  0.29975500  0.07861600  0.39657700  1
  H  H2  1  0.07861600  0.29975500  0.89657700  1
  H  H3  1  0.92138400  0.70024500  0.10342300  1
  H  H4  1  0.62065000  0.30008700  0.87868600  1
  H  H5  1  0.37935000  0.69991300  0.12131400  1
  H  H6  1  0.69991300  0.37935000  0.62131400  1
  H  H7  1  0.30008700  0.62065000  0.37868600  1
  H  H8  1  0.82114500  0.89380700  0.15756000  1
  H  H9  1  0.17885500  0.10619300  0.84244000  1
  H  H10  1  0.10619300  0.17885500  0.34244000  1
  H  H11  1  0.89380700  0.82114500  0.65756000  1
  H  H12  1  0.94480000  0.02890300  0.66754100  1
  H  H13  1  0.05520000  0.97109700  0.33245900  1
  H  H14  1  0.97109700  0.05520000  0.83245900  1
  H  H15  1  0.02890300  0.94480000  0.16754100  1
  H  H16  1  0.87706800  0.93626400  0.01844400  1
  H  H17  1  0.12293200  0.06373600  0.98155600  1
  H  H18  1  0.06373600  0.12293200  0.48155600  1
  H  H19  1  0.93626400  0.87706800  0.51844400  1
  H  H20  1  0.61435300  0.27005700  0.59569900  1
  H  H21  1  0.38564700  0.72994300  0.40430100  1
  H  H22  1  0.72994300  0.38564700  0.90430100  1
  H  H23  1  0.27005700  0.61435300  0.09569900  1
  C  C0  1  0.33005100  0.30987500  0.90109200  1
  C  C1  1  0.66994900  0.69012500  0.09890800  1
  C  C2  1  0.69012500  0.66994900  0.59890800  1
  C  C3  1  0.30987500  0.33005100  0.40109200  1
  N  N0  1  0.31870100  0.86369000  0.72130200  1
  N  N1  1  0.68129900  0.13631000  0.27869800  1
  N  N2  1  0.13631000  0.68129900  0.77869800  1
  N  N3  1  0.86369000  0.31870100  0.22130200  1
  N  N4  1  0.35218200  0.96235100  0.71842900  1
  N  N5  1  0.64781800  0.03764900  0.28157100  1
  N  N6  1  0.03764900  0.64781800  0.78157100  1
  N  N7  1  0.96235100  0.35218200  0.21842900  1
  N  N8  1  0.52853100  0.67929900  0.64676200  1
  N  N9  1  0.47146900  0.32070100  0.35323800  1
  N  N10  1  0.32070100  0.47146900  0.85323800  1
  N  N11  1  0.67929900  0.52853100  0.14676200  1
  N  N12  1  0.50570800  0.06596700  0.98269300  1
  N  N13  1  0.49429200  0.93403300  0.01730700  1
  N  N14  1  0.93403300  0.49429200  0.51730700  1
  N  N15  1  0.06596700  0.50570800  0.48269300  1
  N  N16  1  0.58246300  0.84505800  0.64260600  1
  N  N17  1  0.41753700  0.15494200  0.35739400  1
  N  N18  1  0.15494200  0.41753700  0.85739400  1
  N  N19  1  0.84505800  0.58246300  0.14260600  1
  N  N20  1  0.78533200  0.94891600  0.59071900  1
  N  N21  1  0.21466800  0.05108400  0.40928100  1
  N  N22  1  0.05108400  0.21466800  0.90928100  1
  N  N23  1  0.94891600  0.78533200  0.09071900  1
  O  O0  1  0.80265300  0.17452600  0.89344100  1
  O  O1  1  0.19734700  0.82547400  0.10655900  1
  O  O2  1  0.82547400  0.19734700  0.60655900  1
  O  O3  1  0.17452600  0.80265300  0.39344100  1
  O  O4  1  0.52555100  0.26944700  0.58707200  1
  O  O5  1  0.47444900  0.73055300  0.41292800  1
  O  O6  1  0.73055300  0.47444900  0.91292800  1
  O  O7  1  0.26944700  0.52555100  0.08707200  1
loop_
_geom_bond_atom_site_label_1
_geom_bond_atom_site_label_2
_geom_bond_distance
_geom_bond_site_symmetry_2
H0 N20 1.065588 1_555
H0 N16 1.728426 1_555
H1 N21 1.065588 1_555
H1 N17 1.728426 1_555
H2 N22 1.065588 1_555
H2 N18 1.728426 1_555
H3 N23 1.065588 1_555
H3 N19 1.728426 1_555
H4 O0 1.000728 1_555
H5 O1 1.000728 1_555
H6 O2 1.000728 1_555
H7 O3 1.000728 1_555
H8 N23 1.055200 1_555
H9 N22 1.055200 1_555
H10 N21 1.055200 1_555
H11 N20 1.055200 1_555
H12 O2 0.996399 1_555
H13 O3 0.996399 1_555
H14 O0 0.996399 1_555
H15 O1 0.996399 1_555
H16 N23 1.048543 1_555
H17 N22 1.048543 1_555
H18 N21 1.048543 1_555
H19 N20 1.048543 1_555
H20 O4 1.015088 1_555
H20 O2 1.644263 1_555
H21 O5 1.015088 1_555
H21 O3 1.644263 1_555
H22 O6 1.015088 1_555
H22 O0 1.644263 1_555
H23 O7 1.015088 1_555
H23 O1 1.644263 1_555
C0 N18 1.352168 1_555
C0 N10 1.352797 1_555
C0 N12 1.384021 1_555
C1 N19 1.352168 1_555
C1 N11 1.352797 1_555
C1 N13 1.384021 1_555
C2 N16 1.352168 1_555
C2 N8 1.352797 1_555
C2 N14 1.384021 1_555
C3 N17 1.352168 1_555
C3 N9 1.352797 1_555
C3 N15 1.384021 1_555
N0 N8 1.334746 1_555
N0 N4 1.338222 1_555
N1 N9 1.334746 1_555
N1 N5 1.338222 1_555
N2 N6 1.338222 1_555
N3 N7 1.338222 1_555
N10 N2 1.334746 1_555
N11 N3 1.334746 1_555
N12 N13 1.279552 1_546
N14 N15 1.279552 1_655
N16 N4 1.326565 1_555
N17 N5 1.326565 1_555
N18 N6 1.326565 1_555
N19 N7 1.326565 1_555
N20 O4 1.424860 1_565
N21 O5 1.424860 1_545
N22 O6 1.424860 1_455
N23 O7 1.424860 1_655
