# generated using pymatgen
data_MgSi
_symmetry_space_group_name_H-M   'P 1'
_cell_length_a   5.48990743
_cell_length_b   5.48990743
_cell_length_c   9.69254099
_cell_angle_alpha   74.27886321
_cell_angle_beta   74.27886321
_cell_angle_gamma   49.44033500
_symmetry_Int_Tables_number   1
_chemical_formula_structural   MgSi
_chemical_formula_sum   'Mg6 Si6'
_cell_volume   211.83179087
_cell_formula_units_Z   6
loop_
 _symmetry_equiv_pos_site_id
 _symmetry_equiv_pos_as_xyz
  1  'x, y, z'
loop_
 _atom_site_type_symbol
 _atom_site_label
 _atom_site_symmetry_multiplicity
 _atom_site_fract_x
 _atom_site_fract_y
 _atom_site_fract_z
 _atom_site_occupancy
  Mg  Mg0  1  0.37470900  0.37470900  0.12496700  1
  Mg  Mg1  1  0.88360900  0.88360900  0.63683900  1
  Mg  Mg2  1  0.82029900  0.82029900  0.34523500  1
  Mg  Mg3  1  0.11639100  0.11639100  0.36316100  1
  Mg  Mg4  1  0.17970100  0.17970100  0.65476500  1
  Mg  Mg5  1  0.62529100  0.62529100  0.87503300  1
  Si  Si0  1  0.66829900  0.66829900  0.15252300  1
  Si  Si1  1  0.56694300  0.56694300  0.59241800  1
  Si  Si2  1  0.33170100  0.33170100  0.84747700  1
  Si  Si3  1  0.90929400  0.90929400  0.93017200  1
  Si  Si4  1  0.09070600  0.09070600  0.06982800  1
  Si  Si5  1  0.43305700  0.43305700  0.40758200  1
loop_
_geom_bond_atom_site_label_1
_geom_bond_atom_site_label_2
_geom_bond_distance
_geom_bond_site_symmetry_2
Mg0 Si2 2.847125 1_554
Mg0 Mg3 2.901601 1_555
Mg0 Mg5 2.915931 1_554
Mg0 Si3 2.926764 1_454
Mg0 Si3 2.926764 1_544
Mg0 Si5 2.965331 1_555
Mg0 Si0 3.018613 1_555
Mg0 Si4 3.035133 1_555
Mg0 Si0 3.041729 1_455
Mg0 Si0 3.041729 1_545
Mg0 Mg2 3.071168 1_545
Mg0 Mg2 3.071168 1_455
Mg0 Si4 3.083893 1_655
Mg0 Si4 3.083893 1_565
Mg1 Si1 2.886152 1_655
Mg1 Si1 2.886152 1_565
Mg1 Mg5 2.901601 1_555
Mg1 Si3 2.929777 1_555
Mg1 Mg3 2.958478 1_665
Mg1 Mg4 3.009514 1_665
Mg1 Si2 3.012705 1_655
Mg1 Si2 3.012705 1_565
Mg1 Mg4 3.037444 1_655
Mg1 Mg4 3.037444 1_565
Mg1 Mg2 3.074386 1_555
Mg1 Si5 3.130148 1_655
Mg1 Si5 3.130148 1_565
Mg2 Si5 2.702978 1_655
Mg2 Si5 2.702978 1_565
Mg2 Si0 2.734318 1_555
Mg2 Si1 2.917780 1_555
Mg2 Mg3 3.009514 1_665
Mg2 Mg3 3.037444 1_655
Mg2 Mg3 3.037444 1_565
Mg2 Si4 3.178718 1_665
Mg3 Si5 2.886152 1_545
Mg3 Si5 2.886152 1_455
Mg3 Si4 2.929777 1_555
Mg3 Si0 3.012705 1_455
Mg3 Si0 3.012705 1_545
Mg3 Mg4 3.074386 1_555
Mg3 Si1 3.130148 1_545
Mg3 Si1 3.130148 1_455
Mg4 Si1 2.702978 1_545
Mg4 Si1 2.702978 1_455
Mg4 Si2 2.734318 1_555
Mg4 Si5 2.917780 1_555
Mg4 Mg5 3.071168 1_455
Mg4 Mg5 3.071168 1_545
Mg4 Si3 3.178718 1_445
Mg5 Si0 2.847125 1_556
Mg5 Si4 2.926764 1_566
Mg5 Si4 2.926764 1_656
Mg5 Si1 2.965331 1_555
Mg5 Si2 3.018613 1_555
Mg5 Si3 3.035133 1_555
Mg5 Si2 3.041729 1_655
Mg5 Si2 3.041729 1_565
Mg5 Si3 3.083893 1_455
Mg5 Si3 3.083893 1_545
Si0 Si4 2.623380 1_655
Si0 Si4 2.623380 1_565
Si0 Si3 2.707689 1_554
Si0 Si5 2.855879 1_555
Si1 Si5 2.533748 1_555
Si1 Si2 2.855879 1_555
Si2 Si3 2.623380 1_455
Si2 Si3 2.623380 1_545
Si2 Si4 2.707689 1_556
Si3 Si4 2.562638 1_666
