# generated using pymatgen
data_TbZnSn2
_symmetry_space_group_name_H-M   'P 1'
_cell_length_a   4.38660900
_cell_length_b   4.38660900
_cell_length_c   9.84207300
_cell_angle_alpha   90.00000000
_cell_angle_beta   90.00000000
_cell_angle_gamma   90.00000000
_symmetry_Int_Tables_number   1
_chemical_formula_structural   TbZnSn2
_chemical_formula_sum   'Tb2 Zn2 Sn4'
_cell_volume   189.38450039
_cell_formula_units_Z   2
loop_
 _symmetry_equiv_pos_site_id
 _symmetry_equiv_pos_as_xyz
  1  'x, y, z'
loop_
 _atom_site_type_symbol
 _atom_site_label
 _atom_site_symmetry_multiplicity
 _atom_site_fract_x
 _atom_site_fract_y
 _atom_site_fract_z
 _atom_site_occupancy
  Tb  Tb0  1  0.00000000  0.50000000  0.24732700  1
  Tb  Tb1  1  0.50000000  0.00000000  0.75267300  1
  Zn  Zn0  1  0.00000000  0.00000000  0.00000000  1
  Zn  Zn1  1  0.50000000  0.50000000  0.00000000  1
  Sn  Sn0  1  0.00000000  0.50000000  0.81464100  1
  Sn  Sn1  1  0.50000000  0.00000000  0.18535900  1
  Sn  Sn2  1  0.00000000  0.00000000  0.50000000  1
  Sn  Sn3  1  0.50000000  0.50000000  0.50000000  1
loop_
_geom_bond_atom_site_label_1
_geom_bond_atom_site_label_2
_geom_bond_distance
_geom_bond_site_symmetry_2
Tb0 Zn0 3.276578 1_555
Tb0 Zn1 3.276578 1_455
Tb0 Zn1 3.276578 1_555
Tb0 Zn0 3.276578 1_565
Tb1 Zn0 3.276578 1_656
Tb1 Zn1 3.276578 1_546
Tb1 Zn0 3.276578 1_556
Tb1 Zn1 3.276578 1_556
Zn0 Zn1 3.101801 1_455
Zn0 Zn1 3.101801 1_445
Zn0 Zn1 3.101801 1_555
Zn0 Zn1 3.101801 1_545
Sn0 Zn1 2.852844 1_556
Sn0 Zn1 2.852844 1_456
Sn0 Zn0 2.852844 1_566
Sn0 Zn0 2.852844 1_556
Sn0 Tb1 3.161193 1_455
Sn0 Tb1 3.161193 1_555
Sn0 Tb1 3.161193 1_465
Sn0 Tb1 3.161193 1_565
Sn1 Zn0 2.852844 1_555
Sn1 Zn1 2.852844 1_555
Sn1 Zn0 2.852844 1_655
Sn1 Zn1 2.852844 1_545
Sn1 Tb0 3.161193 1_555
Sn1 Tb0 3.161193 1_645
Sn1 Tb0 3.161193 1_545
Sn1 Tb0 3.161193 1_655
Sn2 Sn3 3.101801 1_445
Sn2 Sn3 3.101801 1_545
Sn2 Sn3 3.101801 1_555
Sn2 Sn3 3.101801 1_455
Sn2 Tb1 3.315854 1_555
Sn2 Tb1 3.315854 1_455
Sn2 Tb0 3.315854 1_555
Sn2 Tb0 3.315854 1_545
Sn3 Tb1 3.315854 1_555
Sn3 Tb1 3.315854 1_565
Sn3 Tb0 3.315854 1_655
Sn3 Tb0 3.315854 1_555
