# generated using pymatgen
data_Ti2CuNi
_symmetry_space_group_name_H-M   'P 1'
_cell_length_a   5.74743400
_cell_length_b   8.50220000
_cell_length_c   9.04523800
_cell_angle_alpha   90.00000000
_cell_angle_beta   90.00000000
_cell_angle_gamma   90.00000000
_symmetry_Int_Tables_number   1
_chemical_formula_structural   Ti2CuNi
_chemical_formula_sum   'Ti16 Cu8 Ni8'
_cell_volume   442.00309276
_cell_formula_units_Z   8
loop_
 _symmetry_equiv_pos_site_id
 _symmetry_equiv_pos_as_xyz
  1  'x, y, z'
loop_
 _atom_site_type_symbol
 _atom_site_label
 _atom_site_symmetry_multiplicity
 _atom_site_fract_x
 _atom_site_fract_y
 _atom_site_fract_z
 _atom_site_occupancy
  Ti  Ti0_0  1  0.25000000  0.00000000  0.11052650  1
  Ti  Ti0_1  1  0.25000000  0.00000000  0.61052650  1
  Ti  Ti0_2  1  0.25000000  0.50000000  0.11052650  1
  Ti  Ti0_3  1  0.25000000  0.50000000  0.61052650  1
  Ti  Ti0_4  1  0.75000000  0.00000000  0.11052650  1
  Ti  Ti0_5  1  0.75000000  0.00000000  0.61052650  1
  Ti  Ti0_6  1  0.75000000  0.50000000  0.11052650  1
  Ti  Ti0_7  1  0.75000000  0.50000000  0.61052650  1
  Ti  Ti1_0  1  0.25000000  0.25000000  0.38967100  1
  Ti  Ti1_1  1  0.25000000  0.25000000  0.88967100  1
  Ti  Ti1_2  1  0.25000000  0.75000000  0.38967100  1
  Ti  Ti1_3  1  0.25000000  0.75000000  0.88967100  1
  Ti  Ti1_4  1  0.75000000  0.25000000  0.38967100  1
  Ti  Ti1_5  1  0.75000000  0.25000000  0.88967100  1
  Ti  Ti1_6  1  0.75000000  0.75000000  0.38967100  1
  Ti  Ti1_7  1  0.75000000  0.75000000  0.88967100  1
  Cu  Cu0_0  1  0.00000000  0.25000000  0.15504900  1
  Cu  Cu0_1  1  0.00000000  0.25000000  0.65504900  1
  Cu  Cu0_2  1  0.00000000  0.75000000  0.15504900  1
  Cu  Cu0_3  1  0.00000000  0.75000000  0.65504900  1
  Cu  Cu0_4  1  0.50000000  0.25000000  0.15504900  1
  Cu  Cu0_5  1  0.50000000  0.25000000  0.65504900  1
  Cu  Cu0_6  1  0.50000000  0.75000000  0.15504900  1
  Cu  Cu0_7  1  0.50000000  0.75000000  0.65504900  1
  Ni  Ni0_0  1  0.00000000  0.00000000  0.34475350  1
  Ni  Ni0_1  1  0.00000000  0.00000000  0.84475350  1
  Ni  Ni0_2  1  0.00000000  0.50000000  0.34475350  1
  Ni  Ni0_3  1  0.00000000  0.50000000  0.84475350  1
  Ni  Ni0_4  1  0.50000000  0.00000000  0.34475350  1
  Ni  Ni0_5  1  0.50000000  0.00000000  0.84475350  1
  Ni  Ni0_6  1  0.50000000  0.50000000  0.34475350  1
  Ni  Ni0_7  1  0.50000000  0.50000000  0.84475350  1
loop_
_geom_bond_atom_site_label_1
_geom_bond_atom_site_label_2
_geom_bond_distance
_geom_bond_site_symmetry_2
Ti0_0 Ti0_4 2.873717 1_455
Ti0_0 Ti0_4 2.873717 1_555
Ti0_0 Ti1_1 2.916973 1_554
Ti0_0 Ti1_3 2.916973 1_544
Ti0_1 Ti0_5 2.873717 1_455
Ti0_1 Ti0_5 2.873717 1_555
Ti0_1 Ti1_0 2.916973 1_555
Ti0_1 Ti1_2 2.916973 1_545
Ti0_2 Ti0_6 2.873717 1_455
Ti0_2 Ti0_6 2.873717 1_555
Ti0_2 Ti1_3 2.916973 1_554
Ti0_2 Ti1_1 2.916973 1_554
Ti0_3 Ti0_7 2.873717 1_455
Ti0_3 Ti0_7 2.873717 1_555
Ti0_3 Ti1_2 2.916973 1_555
Ti0_3 Ti1_0 2.916973 1_555
Ti0_4 Ti1_5 2.916973 1_554
Ti0_4 Ti1_7 2.916973 1_544
Ti0_5 Ti1_4 2.916973 1_555
Ti0_5 Ti1_6 2.916973 1_545
Ti0_6 Ti1_7 2.916973 1_554
Ti0_6 Ti1_5 2.916973 1_554
Ti0_7 Ti1_6 2.916973 1_555
Ti0_7 Ti1_4 2.916973 1_555
Ti1_0 Ti1_4 2.873717 1_455
Ti1_0 Ti1_4 2.873717 1_555
Ti1_1 Ti1_5 2.873717 1_455
Ti1_1 Ti1_5 2.873717 1_555
Ti1_2 Ti1_6 2.873717 1_455
Ti1_2 Ti1_6 2.873717 1_555
Ti1_3 Ti1_7 2.873717 1_455
Ti1_3 Ti1_7 2.873717 1_555
Cu0_0 Ti1_4 2.562878 1_455
Cu0_0 Ti1_0 2.562878 1_555
Cu0_0 Ti0_0 2.597057 1_555
Cu0_0 Ti0_4 2.597057 1_455
Cu0_0 Ti0_6 2.597057 1_455
Cu0_0 Ti0_2 2.597057 1_555
Cu0_0 Ni0_2 2.731731 1_555
Cu0_0 Ni0_0 2.731731 1_555
Cu0_0 Ti1_5 2.797591 1_454
Cu0_0 Ti1_1 2.797591 1_554
Cu0_0 Cu0_4 2.873717 1_555
Cu0_0 Cu0_4 2.873717 1_455
Cu0_1 Ti1_5 2.562878 1_455
Cu0_1 Ti1_1 2.562878 1_555
Cu0_1 Ti0_7 2.597057 1_455
Cu0_1 Ti0_3 2.597057 1_555
Cu0_1 Ti0_5 2.597057 1_455
Cu0_1 Ti0_1 2.597057 1_555
Cu0_1 Ni0_3 2.731731 1_555
Cu0_1 Ni0_1 2.731731 1_555
Cu0_1 Ti1_4 2.797591 1_455
Cu0_1 Ti1_0 2.797591 1_555
Cu0_1 Cu0_5 2.873717 1_455
Cu0_1 Cu0_5 2.873717 1_555
Cu0_2 Ti1_6 2.562878 1_455
Cu0_2 Ti1_2 2.562878 1_555
Cu0_2 Ti0_6 2.597057 1_455
Cu0_2 Ti0_2 2.597057 1_555
Cu0_2 Ti0_4 2.597057 1_465
Cu0_2 Ti0_0 2.597057 1_565
Cu0_2 Ni0_2 2.731731 1_555
Cu0_2 Ni0_0 2.731731 1_565
Cu0_2 Ti1_7 2.797591 1_454
Cu0_2 Ti1_3 2.797591 1_554
Cu0_2 Cu0_6 2.873717 1_455
Cu0_2 Cu0_6 2.873717 1_555
Cu0_3 Ti1_7 2.562878 1_455
Cu0_3 Ti1_3 2.562878 1_555
Cu0_3 Ti0_7 2.597057 1_455
Cu0_3 Ti0_3 2.597057 1_555
Cu0_3 Ti0_5 2.597057 1_465
Cu0_3 Ti0_1 2.597057 1_565
Cu0_3 Ni0_3 2.731731 1_555
Cu0_3 Ni0_1 2.731731 1_565
Cu0_3 Ti1_6 2.797591 1_455
Cu0_3 Ti1_2 2.797591 1_555
Cu0_3 Cu0_7 2.873717 1_455
Cu0_3 Cu0_7 2.873717 1_555
Cu0_4 Ti1_0 2.562878 1_555
Cu0_4 Ti1_4 2.562878 1_555
Cu0_4 Ti0_0 2.597057 1_555
Cu0_4 Ti0_2 2.597057 1_555
Cu0_4 Ti0_6 2.597057 1_555
Cu0_4 Ti0_4 2.597057 1_555
Cu0_4 Ni0_6 2.731731 1_555
Cu0_4 Ni0_4 2.731731 1_555
Cu0_4 Ti1_1 2.797591 1_554
Cu0_4 Ti1_5 2.797591 1_554
Cu0_5 Ti1_1 2.562878 1_555
Cu0_5 Ti1_5 2.562878 1_555
Cu0_5 Ti0_3 2.597057 1_555
Cu0_5 Ti0_1 2.597057 1_555
Cu0_5 Ti0_5 2.597057 1_555
Cu0_5 Ti0_7 2.597057 1_555
Cu0_5 Ni0_5 2.731731 1_555
Cu0_5 Ni0_7 2.731731 1_555
Cu0_5 Ti1_4 2.797591 1_555
Cu0_5 Ti1_0 2.797591 1_555
Cu0_6 Ti1_2 2.562878 1_555
Cu0_6 Ti1_6 2.562878 1_555
Cu0_6 Ti0_2 2.597057 1_555
Cu0_6 Ti0_6 2.597057 1_555
Cu0_6 Ti0_0 2.597057 1_565
Cu0_6 Ti0_4 2.597057 1_565
Cu0_6 Ni0_6 2.731731 1_555
Cu0_6 Ni0_4 2.731731 1_565
Cu0_6 Ti1_3 2.797591 1_554
Cu0_6 Ti1_7 2.797591 1_554
Cu0_7 Ti1_3 2.562878 1_555
Cu0_7 Ti1_7 2.562878 1_555
Cu0_7 Ti0_3 2.597057 1_555
Cu0_7 Ti0_7 2.597057 1_555
Cu0_7 Ti0_1 2.597057 1_565
Cu0_7 Ti0_5 2.597057 1_565
Cu0_7 Ni0_7 2.731731 1_555
Cu0_7 Ni0_5 2.731731 1_565
Cu0_7 Ti1_2 2.797591 1_555
Cu0_7 Ti1_6 2.797591 1_555
Ni0_0 Ti0_0 2.559921 1_555
Ni0_0 Ti0_4 2.559921 1_455
Ni0_0 Ti1_4 2.597614 1_455
Ni0_0 Ti1_6 2.597614 1_445
Ni0_0 Ti1_0 2.597614 1_555
Ni0_0 Ti1_2 2.597614 1_545
Ni0_0 Ti0_5 2.800657 1_455
Ni0_0 Ti0_1 2.800657 1_555
Ni0_0 Ni0_4 2.873717 1_455
Ni0_0 Ni0_4 2.873717 1_555
Ni0_1 Ti0_5 2.559921 1_455
Ni0_1 Ti0_1 2.559921 1_555
Ni0_1 Ti1_5 2.597614 1_455
Ni0_1 Ti1_7 2.597614 1_445
Ni0_1 Ti1_1 2.597614 1_555
Ni0_1 Ti1_3 2.597614 1_545
Ni0_1 Ti0_4 2.800657 1_456
Ni0_1 Ti0_0 2.800657 1_556
Ni0_1 Ni0_5 2.873717 1_455
Ni0_1 Ni0_5 2.873717 1_555
Ni0_2 Ti0_2 2.559921 1_555
Ni0_2 Ti0_6 2.559921 1_455
Ni0_2 Ti1_6 2.597614 1_455
Ni0_2 Ti1_2 2.597614 1_555
Ni0_2 Ti1_4 2.597614 1_455
Ni0_2 Ti1_0 2.597614 1_555
Ni0_2 Ti0_7 2.800657 1_455
Ni0_2 Ti0_3 2.800657 1_555
Ni0_2 Ni0_6 2.873717 1_555
Ni0_2 Ni0_6 2.873717 1_455
Ni0_3 Ti0_7 2.559921 1_455
Ni0_3 Ti0_3 2.559921 1_555
Ni0_3 Ti1_7 2.597614 1_455
Ni0_3 Ti1_3 2.597614 1_555
Ni0_3 Ti1_5 2.597614 1_455
Ni0_3 Ti1_1 2.597614 1_555
Ni0_3 Ti0_6 2.800657 1_456
Ni0_3 Ti0_2 2.800657 1_556
Ni0_3 Ni0_7 2.873717 1_555
Ni0_3 Ni0_7 2.873717 1_455
Ni0_4 Ti0_0 2.559921 1_555
Ni0_4 Ti0_4 2.559921 1_555
Ni0_4 Ti1_4 2.597614 1_555
Ni0_4 Ti1_0 2.597614 1_555
Ni0_4 Ti1_2 2.597614 1_545
Ni0_4 Ti1_6 2.597614 1_545
Ni0_4 Ti0_5 2.800657 1_555
Ni0_4 Ti0_1 2.800657 1_555
Ni0_5 Ti0_1 2.559921 1_555
Ni0_5 Ti0_5 2.559921 1_555
Ni0_5 Ti1_5 2.597614 1_555
Ni0_5 Ti1_1 2.597614 1_555
Ni0_5 Ti1_3 2.597614 1_545
Ni0_5 Ti1_7 2.597614 1_545
Ni0_5 Ti0_4 2.800657 1_556
Ni0_5 Ti0_0 2.800657 1_556
Ni0_6 Ti0_2 2.559921 1_555
Ni0_6 Ti0_6 2.559921 1_555
Ni0_6 Ti1_2 2.597614 1_555
Ni0_6 Ti1_6 2.597614 1_555
Ni0_6 Ti1_4 2.597614 1_555
Ni0_6 Ti1_0 2.597614 1_555
Ni0_6 Ti0_3 2.800657 1_555
Ni0_6 Ti0_7 2.800657 1_555
Ni0_7 Ti0_3 2.559921 1_555
Ni0_7 Ti0_7 2.559921 1_555
Ni0_7 Ti1_3 2.597614 1_555
Ni0_7 Ti1_7 2.597614 1_555
Ni0_7 Ti1_5 2.597614 1_555
Ni0_7 Ti1_1 2.597614 1_555
Ni0_7 Ti0_2 2.800657 1_556
Ni0_7 Ti0_6 2.800657 1_556
