# generated using pymatgen
data_Ti4CrTe8
_symmetry_space_group_name_H-M   'P 1'
_cell_length_a   7.63638176
_cell_length_b   7.63638176
_cell_length_c   9.31536126
_cell_angle_alpha   52.52201548
_cell_angle_beta   52.52201548
_cell_angle_gamma   60.48587044
_symmetry_Int_Tables_number   1
_chemical_formula_structural   Ti4CrTe8
_chemical_formula_sum   'Ti4 Cr1 Te8'
_cell_volume   335.58331679
_cell_formula_units_Z   1
loop_
 _symmetry_equiv_pos_site_id
 _symmetry_equiv_pos_as_xyz
  1  'x, y, z'
loop_
 _atom_site_type_symbol
 _atom_site_label
 _atom_site_symmetry_multiplicity
 _atom_site_fract_x
 _atom_site_fract_y
 _atom_site_fract_z
 _atom_site_occupancy
  Ti  Ti0  1  0.24828100  0.24828100  0.00895900  1
  Ti  Ti1  1  0.75171900  0.75171900  0.99104100  1
  Ti  Ti2  1  0.76488600  0.23511400  0.50000000  1
  Ti  Ti3  1  0.23511400  0.76488600  0.50000000  1
  Cr  Cr0  1  0.50000000  0.50000000  0.00000000  1
  Te  Te0  1  0.54368600  0.54368600  0.66281000  1
  Te  Te1  1  0.04822500  0.04822500  0.66842700  1
  Te  Te2  1  0.03965300  0.55061500  0.16932700  1
  Te  Te3  1  0.55061500  0.03965300  0.16932700  1
  Te  Te4  1  0.44938500  0.96034700  0.83067300  1
  Te  Te5  1  0.96034700  0.44938500  0.83067300  1
  Te  Te6  1  0.95177500  0.95177500  0.33157300  1
  Te  Te7  1  0.45631400  0.45631400  0.33719000  1
loop_
_geom_bond_atom_site_label_1
_geom_bond_atom_site_label_2
_geom_bond_distance
_geom_bond_site_symmetry_2
Cr0 Te7 2.765519 1_555
Cr0 Te0 2.765519 1_554
Cr0 Te5 2.766001 1_554
Cr0 Te4 2.766001 1_554
Cr0 Te2 2.766001 1_555
Cr0 Te3 2.766001 1_555
Te0 Ti0 2.808076 1_556
Te0 Ti2 2.831194 1_555
Te0 Ti3 2.831194 1_555
Te1 Ti3 2.746585 1_545
Te1 Ti2 2.746585 1_455
Te1 Ti1 2.788391 1_445
Te2 Ti0 2.788720 1_555
Te2 Ti2 2.789277 1_455
Te2 Ti1 2.822125 1_454
Te3 Ti0 2.788720 1_555
Te3 Ti3 2.789277 1_545
Te3 Ti1 2.822125 1_544
Te4 Ti1 2.788720 1_555
Te4 Ti2 2.789277 1_565
Te4 Ti0 2.822125 1_566
Te5 Ti1 2.788720 1_555
Te5 Ti3 2.789277 1_655
Te5 Ti0 2.822125 1_656
Te6 Ti3 2.746585 1_655
Te6 Ti2 2.746585 1_565
Te6 Ti0 2.788391 1_665
Te7 Ti1 2.808076 1_554
Te7 Ti2 2.831194 1_555
Te7 Ti3 2.831194 1_555
