# generated using pymatgen
data_Ba6Mg(P2O7)3
_symmetry_space_group_name_H-M   'P 1'
_cell_length_a   7.25522500
_cell_length_b   9.76093659
_cell_length_c   9.36563259
_cell_angle_alpha   118.66832591
_cell_angle_beta   90.00000000
_cell_angle_gamma   90.00000000
_symmetry_Int_Tables_number   1
_chemical_formula_structural   Ba6Mg(P2O7)3
_chemical_formula_sum   'Ba6 Mg1 P6 O21'
_cell_volume   581.94617530
_cell_formula_units_Z   1
loop_
 _symmetry_equiv_pos_site_id
 _symmetry_equiv_pos_as_xyz
  1  'x, y, z'
loop_
 _atom_site_type_symbol
 _atom_site_label
 _atom_site_symmetry_multiplicity
 _atom_site_fract_x
 _atom_site_fract_y
 _atom_site_fract_z
 _atom_site_occupancy
  Ba  Ba0  1  0.50000000  0.38802990  0.38267813  1
  Ba  Ba1  1  0.50000000  0.99995298  0.58200730  1
  Ba  Ba2  1  0.50000000  0.61196580  0.99463399  1
  Ba  Ba3  1  0.00000000  0.31394247  0.03613133  1
  Ba  Ba4  1  0.00000000  0.68606938  0.72222320  1
  Ba  Ba5  1  0.00000000  0.00000056  0.29502215  1
  Mg  Mg0  1  0.00000000  0.99998956  0.67242410  1
  P  P0  1  0.21848709  0.66061764  0.32260176  1
  P  P1  1  0.78151291  0.66061764  0.32260176  1
  P  P2  1  0.21849990  0.33942689  0.66195876  1
  P  P3  1  0.78150010  0.33942689  0.66195876  1
  P  P4  1  0.28583934  0.99998031  0.98661160  1
  P  P5  1  0.71416066  0.99998031  0.98661160  1
  O  O0  1  0.29597644  0.50460490  0.18968143  1
  O  O1  1  0.23826181  0.67407109  0.49108861  1
  O  O2  1  0.29047248  0.80024765  0.30647648  1
  O  O3  1  0.70402356  0.50460490  0.18968143  1
  O  O4  1  0.76173819  0.67407109  0.49108861  1
  O  O5  1  0.70952752  0.80024765  0.30647648  1
  O  O6  1  0.23829001  0.32608249  0.81705218  1
  O  O7  1  0.29048322  0.19974169  0.50625576  1
  O  O8  1  0.29598855  0.49540074  0.68495329  1
  O  O9  1  0.76170999  0.32608249  0.81705218  1
  O  O10  1  0.70951678  0.19974169  0.50625576  1
  O  O11  1  0.70401145  0.49540074  0.68495329  1
  O  O12  1  0.24568950  0.85034917  0.99632530  1
  O  O13  1  0.24567475  0.14957278  0.14598435  1
  O  O14  1  0.19075972  0.00001551  0.83915953  1
  O  O15  1  0.75431050  0.85034917  0.99632530  1
  O  O16  1  0.75432525  0.14957278  0.14598435  1
  O  O17  1  0.80924028  0.00001551  0.83915953  1
  O  O18  1  0.00000000  0.35574137  0.62377201  1
  O  O19  1  0.00000000  0.64428723  0.26809455  1
  O  O20  1  0.50000000  0.99999908  0.93688813  1
loop_
_geom_bond_atom_site_label_1
_geom_bond_atom_site_label_2
_geom_bond_distance
_geom_bond_site_symmetry_2
Ba0 O11 2.908094 1_555
Ba0 O8 2.908094 1_555
Ba0 O0 2.954061 1_555
Ba0 O3 2.954061 1_555
Ba0 O13 2.964083 1_555
Ba0 O16 2.964083 1_555
Ba0 O7 3.011461 1_555
Ba0 O10 3.011461 1_555
Ba0 O4 3.116481 1_555
Ba0 O1 3.116481 1_555
Ba1 O5 2.818407 1_555
Ba1 O2 2.818407 1_555
Ba1 O10 2.818594 1_565
Ba1 O7 2.818594 1_565
Ba2 O0 2.909127 1_556
Ba2 O3 2.909127 1_556
Ba2 O8 2.954861 1_555
Ba2 O11 2.954861 1_555
Ba2 O15 2.963683 1_555
Ba2 O12 2.963683 1_555
Ba2 O5 3.011374 1_556
Ba2 O2 3.011374 1_556
Ba2 O6 3.115330 1_555
Ba2 O9 3.115330 1_555
Ba3 O9 2.728770 1_454
Ba3 O6 2.728770 1_554
Ba3 O3 2.752257 1_455
Ba3 O0 2.752257 1_555
Ba3 O16 2.897146 1_455
Ba3 O13 2.897146 1_555
Ba3 O19 2.897528 1_555
Ba3 O17 3.047028 1_454
Ba3 O14 3.047028 1_554
Ba4 O1 2.728497 1_555
Ba4 O4 2.728497 1_455
Ba4 O8 2.752062 1_555
Ba4 O11 2.752062 1_455
Ba4 O12 2.896422 1_555
Ba4 O15 2.896422 1_455
Ba4 O18 2.897213 1_555
Ba4 O14 3.047196 1_565
Ba4 O17 3.047196 1_465
Ba5 O2 2.907772 1_545
Ba5 O5 2.907772 1_445
Ba5 O10 2.907895 1_455
Ba5 O7 2.907895 1_555
Ba5 O16 3.035157 1_455
Ba5 O13 3.035157 1_555
Ba5 O12 3.035836 1_544
Ba5 O15 3.035836 1_444
Mg0 O17 2.086535 1_465
Mg0 O14 2.086535 1_565
O0 P0 1.538146 1_555
O1 P0 1.526121 1_555
O2 P0 1.533172 1_555
O3 P1 1.538146 1_555
O4 P1 1.526121 1_555
O5 P1 1.533172 1_555
O6 P2 1.526110 1_555
O7 P2 1.533160 1_555
O8 P2 1.538088 1_555
O9 P3 1.526110 1_555
O10 P3 1.533160 1_555
O11 P3 1.538088 1_555
O12 P4 1.534208 1_555
O13 P4 1.534199 1_544
O14 P4 1.543834 1_545
O15 P5 1.534208 1_555
O16 P5 1.534199 1_544
O17 P5 1.543834 1_545
O18 P2 1.649539 1_555
O18 P3 1.649539 1_455
O19 P0 1.649458 1_555
O19 P1 1.649458 1_455
O20 P4 1.622096 1_555
O20 P5 1.622096 1_555
