# generated using pymatgen
data_RbYMg14
_symmetry_space_group_name_H-M   'P 1'
_cell_length_a   6.65795803
_cell_length_b   6.68550529
_cell_length_c   10.65097394
_cell_angle_alpha   90.00000000
_cell_angle_beta   90.00000000
_cell_angle_gamma   120.13696767
_symmetry_Int_Tables_number   1
_chemical_formula_structural   RbYMg14
_chemical_formula_sum   'Rb1 Y1 Mg14'
_cell_volume   410.00975033
_cell_formula_units_Z   1
loop_
 _symmetry_equiv_pos_site_id
 _symmetry_equiv_pos_as_xyz
  1  'x, y, z'
loop_
 _atom_site_type_symbol
 _atom_site_label
 _atom_site_symmetry_multiplicity
 _atom_site_fract_x
 _atom_site_fract_y
 _atom_site_fract_z
 _atom_site_occupancy
  Rb  Rb0  1  0.16541521  0.83270711  0.12500000  1
  Y  Y0  1  0.17628954  0.33814427  0.12500000  1
  Mg  Mg0  1  0.16381176  0.33190538  0.62500000  1
  Mg  Mg1  1  0.16649732  0.83324816  0.62500000  1
  Mg  Mg2  1  0.66371699  0.32899042  0.12500000  1
  Mg  Mg3  1  0.66833101  0.33364412  0.62500000  1
  Mg  Mg4  1  0.66371699  0.83472557  0.12500000  1
  Mg  Mg5  1  0.66833101  0.83468589  0.62500000  1
  Mg  Mg6  1  0.33977778  0.17882271  0.38997628  1
  Mg  Mg7  1  0.33977778  0.17882271  0.86002372  1
  Mg  Mg8  1  0.33977778  0.66095606  0.38997628  1
  Mg  Mg9  1  0.33977778  0.66095606  0.86002372  1
  Mg  Mg10  1  0.83299332  0.16649716  0.37577819  1
  Mg  Mg11  1  0.83299332  0.16649716  0.87422181  1
  Mg  Mg12  1  0.81939621  0.65969860  0.38656473  1
  Mg  Mg13  1  0.81939621  0.65969860  0.86343527  1
loop_
_geom_bond_atom_site_label_1
_geom_bond_atom_site_label_2
_geom_bond_distance
_geom_bond_site_symmetry_2
Rb0 Y0 3.343339 1_565
Rb0 Y0 3.343339 1_555
Mg0 Mg6 3.144863 1_555
Mg0 Mg7 3.144863 1_555
Mg0 Mg8 3.144870 1_555
Mg0 Mg9 3.144870 1_555
Mg0 Mg11 3.267197 1_455
Mg0 Mg10 3.267197 1_455
Mg0 Mg5 3.304741 1_445
Mg0 Mg3 3.304742 1_455
Mg0 Mg1 3.342788 1_555
Mg0 Mg1 3.342788 1_545
Mg0 Mg5 3.353247 1_555
Mg0 Mg3 3.353247 1_555
Mg1 Mg8 3.202866 1_555
Mg1 Mg9 3.202866 1_555
Mg1 Mg6 3.202873 1_565
Mg1 Mg7 3.202873 1_565
Mg1 Mg13 3.231690 1_455
Mg1 Mg12 3.231690 1_455
Mg1 Mg3 3.321606 1_455
Mg1 Mg5 3.321607 1_455
Mg1 Mg3 3.336372 1_565
Mg1 Mg5 3.336372 1_555
Mg2 Y0 3.276425 1_555
Mg2 Mg4 3.304410 1_545
Mg2 Rb0 3.310917 1_545
Mg2 Rb0 3.347081 1_655
Mg2 Mg4 3.381095 1_555
Mg2 Y0 3.382375 1_655
Mg2 Mg7 3.383853 1_554
Mg2 Mg6 3.383853 1_555
Mg3 Mg6 3.138326 1_555
Mg3 Mg7 3.138326 1_555
Mg3 Mg5 3.335788 1_545
Mg3 Mg5 3.349717 1_555
Mg4 Y0 3.276424 1_555
Mg4 Rb0 3.310918 1_555
Mg4 Rb0 3.347081 1_655
Mg4 Y0 3.382375 1_665
Mg4 Mg9 3.383853 1_554
Mg4 Mg8 3.383853 1_555
Mg5 Mg8 3.138326 1_555
Mg5 Mg9 3.138326 1_555
Mg6 Mg8 3.223305 1_555
Mg6 Y0 3.383592 1_555
Mg6 Rb0 3.459744 1_545
Mg6 Mg8 3.462200 1_545
Mg7 Mg9 3.223305 1_555
Mg7 Y0 3.383592 1_556
Mg7 Rb0 3.459744 1_546
Mg7 Mg9 3.462200 1_545
Mg8 Y0 3.383598 1_555
Mg8 Rb0 3.459737 1_555
Mg9 Y0 3.383598 1_556
Mg9 Rb0 3.459737 1_556
Mg10 Mg3 3.275197 1_555
Mg10 Mg5 3.275204 1_545
Mg10 Mg2 3.288494 1_555
Mg10 Mg4 3.288501 1_545
Mg10 Y0 3.322911 1_655
Mg10 Mg8 3.329380 1_545
Mg10 Mg6 3.329380 1_555
Mg10 Mg8 3.336968 1_655
Mg10 Mg6 3.336968 1_655
Mg10 Mg12 3.345643 1_555
Mg10 Mg12 3.345643 1_545
Mg11 Mg3 3.275197 1_555
Mg11 Mg5 3.275204 1_545
Mg11 Mg2 3.288494 1_556
Mg11 Mg4 3.288501 1_546
Mg11 Y0 3.322911 1_656
Mg11 Mg9 3.329380 1_545
Mg11 Mg7 3.329380 1_555
Mg11 Mg9 3.336968 1_655
Mg11 Mg7 3.336968 1_655
Mg11 Mg13 3.345643 1_555
Mg11 Mg13 3.345643 1_545
Mg12 Mg5 3.164039 1_555
Mg12 Mg3 3.164046 1_555
Mg12 Mg6 3.197715 1_555
Mg12 Mg8 3.197715 1_555
Mg12 Mg4 3.379764 1_555
Mg12 Mg2 3.379771 1_555
Mg12 Rb0 3.425039 1_655
Mg12 Mg6 3.460656 1_665
Mg12 Mg8 3.460656 1_655
Mg13 Mg5 3.164039 1_555
Mg13 Mg3 3.164046 1_555
Mg13 Mg7 3.197715 1_555
Mg13 Mg9 3.197715 1_555
Mg13 Mg4 3.379764 1_556
Mg13 Mg2 3.379771 1_556
Mg13 Rb0 3.425039 1_656
Mg13 Mg7 3.460656 1_665
Mg13 Mg9 3.460656 1_655
