# generated using pymatgen
data_MgTi3V5O16
_symmetry_space_group_name_H-M   'P 1'
_cell_length_a   5.92684016
_cell_length_b   5.91217695
_cell_length_c   9.41454795
_cell_angle_alpha   91.08274104
_cell_angle_beta   89.57586270
_cell_angle_gamma   119.92432761
_symmetry_Int_Tables_number   1
_chemical_formula_structural   MgTi3V5O16
_chemical_formula_sum   'Mg1 Ti3 V5 O16'
_cell_volume   285.85952182
_cell_formula_units_Z   1
loop_
 _symmetry_equiv_pos_site_id
 _symmetry_equiv_pos_as_xyz
  1  'x, y, z'
loop_
 _atom_site_type_symbol
 _atom_site_label
 _atom_site_symmetry_multiplicity
 _atom_site_fract_x
 _atom_site_fract_y
 _atom_site_fract_z
 _atom_site_occupancy
  Mg  Mg0  1  0.82396400  0.63621300  0.44944100  1
  Ti  Ti0  1  0.16357900  0.82098800  0.18438900  1
  Ti  Ti1  1  0.17628400  0.32465800  0.21914400  1
  Ti  Ti2  1  0.32062500  0.12301900  0.70843900  1
  V  V0  1  0.34458200  0.67631300  0.48656900  1
  V  V1  1  0.66833400  0.85591300  0.20993000  1
  V  V2  1  0.67371200  0.32512000  0.98768100  1
  V  V3  1  0.85866400  0.19453000  0.70274000  1
  V  V4  1  0.77765000  0.65623200  0.74614100  1
  O  O0  1  0.14795900  0.82584700  0.59277900  1
  O  O1  1  0.05265600  0.53607100  0.33667700  1
  O  O2  1  0.33513600  0.65761000  0.10233500  1
  O  O3  1  0.00549700  0.99247000  0.31685700  1
  O  O4  1  0.00335800  0.01339100  0.81240700  1
  O  O5  1  0.15994400  0.34139700  0.60485700  1
  O  O6  1  0.49862600  0.96059900  0.32966300  1
  O  O7  1  0.49255200  0.52596200  0.33918400  1
  O  O8  1  0.33770400  0.16330800  0.10606800  1
  O  O9  1  0.67804300  0.83405100  0.59959300  1
  O  O10  1  0.50246400  0.47465700  0.84926600  1
  O  O11  1  0.52322100  0.04084000  0.82053600  1
  O  O12  1  0.66478700  0.35732400  0.60607700  1
  O  O13  1  0.83068600  0.66814400  0.10645800  1
  O  O14  1  0.94244000  0.48257200  0.83994700  1
  O  O15  1  0.85086600  0.17963500  0.10854300  1
loop_
_geom_bond_atom_site_label_1
_geom_bond_atom_site_label_2
_geom_bond_distance
_geom_bond_site_symmetry_2
Mg0 O1 2.017506 1_655
Mg0 O7 2.021821 1_555
Mg0 O12 2.074280 1_555
Mg0 O0 2.144448 1_655
Mg0 O3 2.229453 1_655
Mg0 O9 2.245669 1_555
O0 Ti2 1.862818 1_565
O0 V0 2.028967 1_555
O0 V4 2.391481 1_455
O1 Ti1 2.042797 1_555
O1 V0 2.057446 1_555
O1 Ti0 2.073083 1_555
O2 Ti0 1.871813 1_555
O2 V1 1.993803 1_555
O2 Ti1 2.046475 1_555
O3 Ti1 1.949116 1_565
O3 V1 2.011931 1_455
O3 Ti0 2.084140 1_555
O4 Ti2 1.922183 1_555
O4 V4 1.944693 1_445
O4 V3 1.979774 1_455
O5 V3 1.802946 1_455
O5 V0 2.064422 1_555
O5 Ti2 2.193827 1_555
O6 V1 1.800936 1_555
O6 V0 2.093670 1_555
O6 Ti0 2.203947 1_555
O7 Ti1 1.990478 1_555
O7 V0 2.048840 1_555
O7 V1 2.101139 1_555
O8 Ti0 1.914682 1_545
O8 Ti1 1.953370 1_555
O8 V2 2.056701 1_554
O9 V4 2.010812 1_555
O9 V0 2.015618 1_555
O9 V3 2.071710 1_565
O10 V4 1.739023 1_555
O10 V2 2.113823 1_555
O10 Ti2 2.218760 1_555
O11 Ti2 1.847110 1_555
O11 V3 2.052121 1_555
O11 V2 2.126433 1_555
O12 V4 2.013661 1_555
O12 Ti2 2.051967 1_555
O12 V3 2.055941 1_555
O13 Ti0 1.861497 1_655
O13 V1 2.029342 1_555
O13 V2 2.067873 1_554
O14 V4 1.958442 1_555
O14 V2 1.968407 1_555
O14 V3 1.974316 1_555
O15 V1 1.931954 1_545
O15 Ti1 1.971129 1_655
O15 V2 2.023042 1_554
