# generated using pymatgen
data_Fe3Te
_symmetry_space_group_name_H-M   'P 1'
_cell_length_a   4.26012744
_cell_length_b   4.26012744
_cell_length_c   4.26012744
_cell_angle_alpha   60.00000000
_cell_angle_beta   60.00000000
_cell_angle_gamma   60.00000000
_symmetry_Int_Tables_number   1
_chemical_formula_structural   Fe3Te
_chemical_formula_sum   'Fe3 Te1'
_cell_volume   54.67046586
_cell_formula_units_Z   1
loop_
 _symmetry_equiv_pos_site_id
 _symmetry_equiv_pos_as_xyz
  1  'x, y, z'
loop_
 _atom_site_type_symbol
 _atom_site_label
 _atom_site_symmetry_multiplicity
 _atom_site_fract_x
 _atom_site_fract_y
 _atom_site_fract_z
 _atom_site_occupancy
  Fe  Fe0  1  0.75000000  0.75000000  0.75000000  1
  Fe  Fe1  1  0.25000000  0.25000000  0.25000000  1
  Fe  Fe2  1  0.00000000  0.00000000  0.00000000  1
  Te  Te0  1  0.50000000  0.50000000  0.50000000  1
loop_
_geom_bond_atom_site_label_1
_geom_bond_atom_site_label_2
_geom_bond_distance
_geom_bond_site_symmetry_2
Fe0 Te0 2.608785 1_565
Fe0 Fe2 2.608785 1_566
Fe0 Te0 2.608785 1_655
Fe0 Fe2 2.608785 1_656
Fe0 Fe2 2.608785 1_665
Fe0 Te0 2.608785 1_556
Fe0 Fe2 2.608785 1_666
Fe0 Te0 2.608785 1_555
Fe1 Fe2 2.608785 1_555
Fe1 Te0 2.608785 1_554
Fe1 Fe2 2.608785 1_556
Fe1 Fe2 2.608785 1_565
Fe1 Fe2 2.608785 1_655
Fe1 Te0 2.608785 1_455
Fe1 Te0 2.608785 1_545
Fe1 Te0 2.608785 1_555
Fe2 Te0 3.012365 1_545
Fe2 Te0 3.012365 1_445
Fe2 Te0 3.012365 1_554
Fe2 Te0 3.012365 1_544
Fe2 Te0 3.012365 1_455
Fe2 Te0 3.012365 1_454
