# generated using pymatgen
data_KNaNbOF5
_symmetry_space_group_name_H-M   'P 1'
_cell_length_a   5.99062000
_cell_length_b   8.29056100
_cell_length_c   12.10158500
_cell_angle_alpha   90.00000000
_cell_angle_beta   90.00000000
_cell_angle_gamma   90.00000000
_symmetry_Int_Tables_number   1
_chemical_formula_structural   KNaNbOF5
_chemical_formula_sum   'K4 Na4 Nb4 O4 F20'
_cell_volume   601.03248648
_cell_formula_units_Z   4
loop_
 _symmetry_equiv_pos_site_id
 _symmetry_equiv_pos_as_xyz
  1  'x, y, z'
loop_
 _atom_site_type_symbol
 _atom_site_label
 _atom_site_symmetry_multiplicity
 _atom_site_fract_x
 _atom_site_fract_y
 _atom_site_fract_z
 _atom_site_occupancy
  K  K0  1  0.03190100  0.29922600  0.03876700  1
  K  K1  1  0.96809900  0.79922600  0.96123300  1
  K  K2  1  0.46809900  0.29922600  0.53876700  1
  K  K3  1  0.53190100  0.79922600  0.46123300  1
  Na  Na0  1  0.04834600  0.04640200  0.36176400  1
  Na  Na1  1  0.95165400  0.54640200  0.63823600  1
  Na  Na2  1  0.45165400  0.04640200  0.86176400  1
  Na  Na3  1  0.54834600  0.54640200  0.13823600  1
  Nb  Nb0  1  0.54077400  0.03905500  0.15172700  1
  Nb  Nb1  1  0.45922600  0.53905500  0.84827300  1
  Nb  Nb2  1  0.95922600  0.03905500  0.65172700  1
  Nb  Nb3  1  0.04077400  0.53905500  0.34827300  1
  O  O0  1  0.40105900  0.99952300  0.27822800  1
  O  O1  1  0.59894100  0.49952300  0.72177200  1
  O  O2  1  0.09894100  0.99952300  0.77822800  1
  O  O3  1  0.90105900  0.49952300  0.22177200  1
  F  F0  1  0.28505500  0.00361700  0.04723800  1
  F  F1  1  0.71494500  0.50361700  0.95276200  1
  F  F2  1  0.21494500  0.00361700  0.54723800  1
  F  F3  1  0.78505500  0.50361700  0.45276200  1
  F  F4  1  0.46435300  0.27186800  0.13937800  1
  F  F5  1  0.53564700  0.77186800  0.86062200  1
  F  F6  1  0.03564700  0.27186800  0.63937800  1
  F  F7  1  0.96435300  0.77186800  0.36062200  1
  F  F8  1  0.33551100  0.60199400  0.28838300  1
  F  F9  1  0.66448900  0.10199400  0.71161700  1
  F  F10  1  0.16448900  0.60199400  0.78838300  1
  F  F11  1  0.83551100  0.10199400  0.21161700  1
  F  F12  1  0.14814100  0.31523300  0.37266200  1
  F  F13  1  0.85185900  0.81523300  0.62733800  1
  F  F14  1  0.35185900  0.31523300  0.87266200  1
  F  F15  1  0.64814100  0.81523300  0.12733800  1
  F  F16  1  0.28271600  0.57573100  0.00314700  1
  F  F17  1  0.71728400  0.07573100  0.99685300  1
  F  F18  1  0.21728400  0.57573100  0.50314700  1
  F  F19  1  0.78271600  0.07573100  0.49685300  1
loop_
_geom_bond_atom_site_label_1
_geom_bond_atom_site_label_2
_geom_bond_distance
_geom_bond_site_symmetry_2
K0 O3 2.876902 1_455
K1 O2 2.876902 1_655
K2 O1 2.876902 1_555
K3 O0 2.876902 1_555
Na0 O0 2.374373 1_545
Na1 O1 2.374373 1_555
Na2 O2 2.374373 1_545
Na3 O3 2.374373 1_555
Nb0 O0 1.775244 1_545
Nb1 O1 1.775244 1_555
Nb2 O2 1.775244 1_645
Nb3 O3 1.775244 1_455
F0 Nb0 2.007984 1_555
F0 Na2 2.481894 1_554
F0 K1 2.749535 1_444
F0 K0 2.883865 1_555
F1 Nb1 2.007984 1_555
F1 Na3 2.481894 1_556
F1 K0 2.749535 1_656
F1 K1 2.883865 1_555
F2 Nb2 2.007984 1_455
F2 Na0 2.481894 1_555
F2 K3 2.749535 1_545
F2 K2 2.883865 1_555
F3 Nb3 2.007984 1_655
F3 Na1 2.481894 1_555
F3 K2 2.749535 1_555
F3 K3 2.883865 1_555
F4 Nb0 1.989322 1_555
F4 Na3 2.331037 1_555
F4 K0 2.871476 1_555
F5 Nb1 1.989322 1_555
F5 Na2 2.331037 1_565
F5 K1 2.871476 1_555
F6 Nb2 1.989322 1_455
F6 Na1 2.331037 1_455
F6 K2 2.871476 1_555
F7 Nb3 1.989322 1_655
F7 Na0 2.331037 1_665
F7 K3 2.871476 1_555
F8 Nb3 1.978662 1_555
F8 Na3 2.267075 1_555
F8 K3 2.904025 1_555
F9 Nb2 1.978662 1_555
F9 Na2 2.267075 1_555
F9 K2 2.904025 1_555
F10 Nb1 1.978662 1_555
F10 Na1 2.267075 1_455
F10 K1 2.904025 1_455
F11 Nb0 1.978662 1_555
F11 Na0 2.267075 1_655
F11 K0 2.904025 1_655
F12 Nb3 1.985976 1_555
F12 Na0 2.311313 1_555
F12 K2 2.780677 1_555
F13 Nb2 1.985976 1_565
F13 Na1 2.311313 1_555
F13 K3 2.780677 1_555
F14 Nb1 1.985976 1_555
F14 Na2 2.311313 1_555
F14 K0 2.780677 1_556
F15 Nb0 1.985976 1_565
F15 Na3 2.311313 1_555
F15 K1 2.780677 1_554
F16 Nb1 2.173307 1_554
F16 Na3 2.294311 1_555
F16 K1 2.691245 1_454
F16 K0 2.774607 1_555
F17 Nb0 2.173307 1_556
F17 Na2 2.294311 1_555
F17 K0 2.691245 1_656
F17 K1 2.774607 1_545
F18 Nb3 2.173307 1_555
F18 Na1 2.294311 1_455
F18 K3 2.691245 1_555
F18 K2 2.774607 1_555
F19 Nb2 2.173307 1_555
F19 Na0 2.294311 1_655
F19 K2 2.691245 1_555
F19 K3 2.774607 1_545
