# generated using pymatgen
data_TbGa2Ni3
_symmetry_space_group_name_H-M   'P 1'
_cell_length_a   4.04205541
_cell_length_b   8.71456000
_cell_length_c   8.71421445
_cell_angle_alpha   60.01292136
_cell_angle_beta   90.00001427
_cell_angle_gamma   90.00005641
_symmetry_Int_Tables_number   1
_chemical_formula_structural   TbGa2Ni3
_chemical_formula_sum   'Tb3 Ga6 Ni9'
_cell_volume   265.86620360
_cell_formula_units_Z   3
loop_
 _symmetry_equiv_pos_site_id
 _symmetry_equiv_pos_as_xyz
  1  'x, y, z'
loop_
 _atom_site_type_symbol
 _atom_site_label
 _atom_site_symmetry_multiplicity
 _atom_site_fract_x
 _atom_site_fract_y
 _atom_site_fract_z
 _atom_site_occupancy
  Tb  Tb0  1  0.50000035  0.33336042  0.33333324  1
  Tb  Tb1  1  0.50000044  0.66668447  0.66660838  1
  Tb  Tb2  1  0.00000055  0.99995412  0.00009474  1
  Ga  Ga0  1  0.49999749  0.72842132  0.27155839  1
  Ga  Ga1  1  0.50000075  0.27167801  0.00001177  1
  Ga  Ga2  1  0.50000097  0.99996113  0.72836501  1
  Ga  Ga3  1  0.00000059  0.47728059  0.52269768  1
  Ga  Ga4  1  0.00000038  0.52284046  0.99993560  1
  Ga  Ga5  1  0.00000021  0.00004806  0.47712964  1
  Ni  Ni0  1  0.99999790  0.20191109  0.17139558  1
  Ni  Ni1  1  0.00000476  0.17164816  0.62692308  1
  Ni  Ni2  1  1.00000212  0.62680358  0.20190466  1
  Ni  Ni3  1  0.99999724  0.82853142  0.79826782  1
  Ni  Ni4  1  1.00000495  0.37314090  0.82833950  1
  Ni  Ni5  1  0.99999381  0.79797424  0.37323821  1
  Ni  Ni6  1  0.49999587  0.29013962  0.70985387  1
  Ni  Ni7  1  0.50000127  0.70963002  1.00009032  1
  Ni  Ni8  1  0.50000035  -0.00010562  0.29034850  1
loop_
_geom_bond_atom_site_label_1
_geom_bond_atom_site_label_2
_geom_bond_distance
_geom_bond_site_symmetry_2
Ga0 Ni5 2.402879 1_555
Ga0 Ni5 2.402906 1_455
Ga0 Ni2 2.402999 1_455
Ga0 Ni2 2.403032 1_555
Ga0 Ni7 2.451584 1_554
Ga0 Ni8 2.451712 1_565
Ga0 Tb2 3.111972 1_555
Ga0 Tb2 3.111986 1_655
Ga0 Tb1 3.207679 1_555
Ga0 Tb0 3.207794 1_555
Ga1 Ni0 2.403532 1_555
Ga1 Ni0 2.403551 1_455
Ga1 Ni4 2.404588 1_454
Ga1 Ni4 2.404616 1_554
Ga1 Ni6 2.452050 1_554
Ga1 Ni8 2.453737 1_555
Ga1 Tb2 3.112883 1_545
Ga1 Tb2 3.112885 1_645
Ga1 Tb0 3.207270 1_555
Ga1 Tb1 3.208323 1_554
Ga2 Ni3 2.403690 1_555
Ga2 Ni3 2.403713 1_455
Ga2 Ni1 2.404660 1_565
Ga2 Ni1 2.404684 1_665
Ga2 Ni6 2.452138 1_565
Ga2 Ni7 2.453494 1_555
Ga2 Tb2 3.113102 1_656
Ga2 Tb2 3.113105 1_556
Ga2 Tb1 3.207385 1_555
Ga2 Tb0 3.208404 1_565
Ga3 Ni1 2.345371 1_555
Ga3 Ni4 2.345477 1_455
Ga3 Ni5 2.422439 1_455
Ga3 Ni2 2.423084 1_455
Ga3 Ni6 2.597173 1_555
Ga3 Ni6 2.597201 1_455
Ga3 Tb0 3.232558 1_455
Ga3 Tb0 3.232559 1_555
Ga3 Tb1 3.232760 1_555
Ga3 Tb1 3.232763 1_455
Ga4 Ni3 2.346340 1_455
Ga4 Ni2 2.347841 1_456
Ga4 Ni0 2.424293 1_456
Ga4 Ni4 2.426495 1_455
Ga4 Ni7 2.595465 1_455
Ga4 Ni7 2.595468 1_555
Ga4 Tb1 3.233171 1_555
Ga4 Tb1 3.233171 1_455
Ga4 Tb0 3.233640 1_456
Ga4 Tb0 3.233641 1_556
Ga5 Ni0 2.346867 1_455
Ga5 Ni5 2.348264 1_445
Ga5 Ni3 2.425760 1_445
Ga5 Ni1 2.427226 1_555
Ga5 Ni8 2.595376 1_455
Ga5 Ni8 2.595378 1_555
Ga5 Tb0 3.233188 1_555
Ga5 Tb0 3.233191 1_455
Ga5 Tb1 3.233517 1_445
Ga5 Tb1 3.233521 1_545
Ni0 Ni8 2.536562 1_555
Ni0 Ni8 2.536580 1_655
Ni0 Ni4 2.589290 1_554
Ni0 Tb2 2.819921 1_645
Ni0 Tb0 3.000666 1_555
Ni0 Tb0 3.000678 1_655
Ni1 Ni6 2.533550 1_555
Ni1 Ni6 2.533609 1_455
Ni1 Ni3 2.589850 1_445
Ni1 Tb2 2.819549 1_546
Ni1 Tb0 3.001979 1_555
Ni1 Tb0 3.002004 1_455
Ni2 Ni7 2.535645 1_654
Ni2 Ni7 2.535651 1_554
Ni2 Ni5 2.584670 1_555
Ni2 Tb2 2.819699 1_655
Ni2 Tb0 3.001335 1_655
Ni2 Tb0 3.001342 1_555
Ni3 Ni7 2.535670 1_555
Ni3 Ni7 2.535697 1_655
Ni3 Tb2 2.819796 1_656
Ni3 Tb1 3.001278 1_555
Ni3 Tb1 3.001298 1_655
Ni4 Ni6 2.533815 1_655
Ni4 Ni6 2.533872 1_555
Ni4 Tb2 2.819759 1_646
Ni4 Tb1 3.001796 1_655
Ni4 Tb1 3.001823 1_555
Ni5 Ni8 2.536143 1_565
Ni5 Ni8 2.536182 1_665
Ni5 Tb2 2.819612 1_655
Ni5 Tb1 3.000884 1_555
Ni5 Tb1 3.000921 1_655
Ni6 Tb0 3.109988 1_555
Ni6 Tb1 3.110246 1_555
Ni6 Tb2 3.237740 1_546
Ni6 Tb2 3.237766 1_646
Ni7 Tb0 3.109103 1_556
Ni7 Tb1 3.110025 1_555
Ni7 Tb2 3.238173 1_656
Ni7 Tb2 3.238180 1_556
Ni8 Tb1 3.108907 1_545
Ni8 Tb0 3.110194 1_555
Ni8 Tb2 3.237400 1_545
Ni8 Tb2 3.237402 1_645
