# generated using pymatgen
data_LaSi10
_symmetry_space_group_name_H-M   'P 1'
_cell_length_a   9.49965873
_cell_length_b   9.49965873
_cell_length_c   4.83543000
_cell_angle_alpha   90.00000000
_cell_angle_beta   90.00000000
_cell_angle_gamma   120.00000509
_symmetry_Int_Tables_number   1
_chemical_formula_structural   LaSi10
_chemical_formula_sum   'La2 Si20'
_cell_volume   377.90419918
_cell_formula_units_Z   2
loop_
 _symmetry_equiv_pos_site_id
 _symmetry_equiv_pos_as_xyz
  1  'x, y, z'
loop_
 _atom_site_type_symbol
 _atom_site_label
 _atom_site_symmetry_multiplicity
 _atom_site_fract_x
 _atom_site_fract_y
 _atom_site_fract_z
 _atom_site_occupancy
  La  La0  1  0.33333300  0.66666700  0.25000000  1
  La  La1  1  0.66666700  0.33333300  0.75000000  1
  Si  Si0  1  0.00000000  0.00000000  0.25000000  1
  Si  Si1  1  0.00000000  0.00000000  0.75000000  1
  Si  Si2  1  0.04554700  0.52277400  0.75000000  1
  Si  Si3  1  0.47722600  0.52277400  0.75000000  1
  Si  Si4  1  0.47722600  0.95445300  0.75000000  1
  Si  Si5  1  0.95445300  0.47722600  0.25000000  1
  Si  Si6  1  0.52277400  0.47722600  0.25000000  1
  Si  Si7  1  0.52277400  0.04554700  0.25000000  1
  Si  Si8  1  0.18318900  0.81681100  0.75000000  1
  Si  Si9  1  0.18318900  0.36637800  0.75000000  1
  Si  Si10  1  0.63362200  0.81681100  0.75000000  1
  Si  Si11  1  0.81681100  0.18318900  0.25000000  1
  Si  Si12  1  0.81681100  0.63362200  0.25000000  1
  Si  Si13  1  0.36637800  0.18318900  0.25000000  1
  Si  Si14  1  0.14456700  0.85543300  0.25000000  1
  Si  Si15  1  0.14456700  0.28913500  0.25000000  1
  Si  Si16  1  0.71086500  0.85543300  0.25000000  1
  Si  Si17  1  0.85543300  0.14456700  0.75000000  1
  Si  Si18  1  0.85543300  0.71086500  0.75000000  1
  Si  Si19  1  0.28913500  0.14456700  0.75000000  1
loop_
_geom_bond_atom_site_label_1
_geom_bond_atom_site_label_2
_geom_bond_distance
_geom_bond_site_symmetry_2
La0 Si16 3.105935 1_555
La0 Si15 3.105935 1_555
La0 Si14 3.105935 1_555
La0 Si7 3.117025 1_565
La0 Si5 3.117025 1_455
La0 Si6 3.117042 1_555
La0 Si4 3.383914 1_555
La0 Si4 3.383914 1_554
La0 Si2 3.383914 1_554
La0 Si2 3.383914 1_555
La0 Si3 3.383914 1_555
La0 Si3 3.383914 1_554
La0 Si8 3.456658 1_555
La0 Si8 3.456658 1_554
La0 Si9 3.456664 1_555
La0 Si10 3.456664 1_555
La0 Si10 3.456664 1_554
La0 Si9 3.456664 1_554
La1 Si18 3.105935 1_555
La1 Si19 3.105935 1_555
La1 Si17 3.105935 1_555
La1 Si4 3.117025 1_545
La1 Si2 3.117025 1_655
La1 Si3 3.117042 1_555
La1 Si5 3.383914 1_555
La1 Si5 3.383914 1_556
La1 Si7 3.383914 1_555
La1 Si7 3.383914 1_556
La1 Si6 3.383914 1_555
La1 Si6 3.383914 1_556
La1 Si11 3.456658 1_556
La1 Si11 3.456658 1_555
La1 Si13 3.456664 1_555
La1 Si12 3.456664 1_556
La1 Si12 3.456664 1_555
La1 Si13 3.456664 1_556
Si0 Si14 2.378690 1_545
Si0 Si15 2.378698 1_555
Si0 Si16 2.378698 1_445
Si0 Si1 2.417715 1_555
Si0 Si1 2.417715 1_554
Si1 Si17 2.378690 1_455
Si1 Si19 2.378698 1_555
Si1 Si18 2.378698 1_445
Si2 Si8 2.420666 1_555
Si2 Si9 2.420674 1_555
Si2 Si5 2.531202 1_456
Si2 Si5 2.531202 1_455
Si3 Si9 2.420666 1_555
Si3 Si6 2.531207 1_556
Si3 Si6 2.531207 1_555
Si4 Si8 2.420666 1_555
Si4 Si7 2.531202 1_565
Si4 Si7 2.531202 1_566
Si10 Si3 2.420666 1_555
Si10 Si4 2.420674 1_555
Si10 Si16 2.499835 1_555
Si10 Si16 2.499835 1_556
Si10 Si17 2.752020 1_565
Si10 Si18 2.752028 1_555
Si11 Si7 2.420666 1_555
Si11 Si5 2.420666 1_555
Si11 Si17 2.499837 1_554
Si11 Si17 2.499837 1_555
Si11 Si16 2.752019 1_545
Si11 Si15 2.752019 1_655
Si12 Si6 2.420666 1_555
Si12 Si5 2.420674 1_555
Si12 Si18 2.499835 1_554
Si12 Si18 2.499835 1_555
Si12 Si14 2.752020 1_655
Si12 Si16 2.752028 1_555
Si13 Si6 2.420666 1_555
Si13 Si7 2.420674 1_555
Si13 Si19 2.499835 1_554
Si13 Si19 2.499835 1_555
Si13 Si14 2.752020 1_545
Si13 Si15 2.752028 1_555
Si14 Si8 2.499837 1_555
Si14 Si8 2.499837 1_554
Si15 Si9 2.499835 1_554
Si15 Si9 2.499835 1_555
Si17 Si9 2.752020 1_655
Si18 Si8 2.752019 1_655
Si19 Si8 2.752019 1_545
Si19 Si9 2.752028 1_555
