# generated using pymatgen
data_V(MoS2)2
_symmetry_space_group_name_H-M   'P 1'
_cell_length_a   10.29554879
_cell_length_b   21.38652642
_cell_length_c   10.75285741
_cell_angle_alpha   45.42516313
_cell_angle_beta   56.51140361
_cell_angle_gamma   39.80456430
_symmetry_Int_Tables_number   1
_chemical_formula_structural   V(MoS2)2
_chemical_formula_sum   'V8 Mo16 S32'
_cell_volume   1079.26416411
_cell_formula_units_Z   8
loop_
 _symmetry_equiv_pos_site_id
 _symmetry_equiv_pos_as_xyz
  1  'x, y, z'
loop_
 _atom_site_type_symbol
 _atom_site_label
 _atom_site_symmetry_multiplicity
 _atom_site_fract_x
 _atom_site_fract_y
 _atom_site_fract_z
 _atom_site_occupancy
  V  V0  1  0.21819700  0.33166200  0.15106000  1
  V  V1  1  0.23557100  0.08529500  0.01424400  1
  V  V2  1  0.58264800  0.30317200  0.30171700  1
  V  V3  1  0.84480600  0.88622000  0.49421900  1
  V  V4  1  0.84004500  0.08851500  0.94281000  1
  V  V5  1  0.22820300  0.62243500  0.93141500  1
  V  V6  1  0.61371900  0.84031000  0.26393800  1
  V  V7  1  0.80533100  0.58160700  0.97550800  1
  Mo  Mo0  1  0.98494300  0.19423400  0.31468800  1
  Mo  Mo1  1  0.98320000  0.34289200  0.47329600  1
  Mo  Mo2  1  0.60731800  0.10886300  0.55091300  1
  Mo  Mo3  1  0.10353900  0.63762300  0.28452800  1
  Mo  Mo4  1  0.69085000  0.13020500  0.25998500  1
  Mo  Mo5  1  0.24609300  0.33935400  0.74735900  1
  Mo  Mo6  1  0.34044900  0.93575500  0.92024400  1
  Mo  Mo7  1  0.79144100  0.40256500  0.10527900  1
  Mo  Mo8  1  0.55422200  0.68048300  0.44872600  1
  Mo  Mo9  1  0.11312700  0.13679300  0.55928200  1
  Mo  Mo10  1  0.68755600  0.58503300  0.26847200  1
  Mo  Mo11  1  0.83386700  0.24587600  0.03708000  1
  Mo  Mo12  1  0.21859000  0.91997000  0.81499400  1
  Mo  Mo13  1  0.70966300  0.93461300  0.97276700  1
  Mo  Mo14  1  0.12270700  0.66102700  0.46180400  1
  Mo  Mo15  1  0.76560000  0.85104600  0.79599500  1
  S  S0  1  0.99584500  0.07333600  0.07022300  1
  S  S1  1  0.09531500  0.23991600  0.02115100  1
  S  S2  1  0.03474600  0.25939300  0.76733200  1
  S  S3  1  0.27855600  0.99153500  0.51691600  1
  S  S4  1  0.31548100  0.18686800  0.43856700  1
  S  S5  1  0.04525800  0.48658700  0.14555000  1
  S  S6  1  0.46413600  0.01948400  0.14968600  1
  S  S7  1  0.03714000  0.43191400  0.92202900  1
  S  S8  1  0.34543000  0.28613300  0.55002400  1
  S  S9  1  0.27257600  0.49175400  0.23267900  1
  S  S10  1  0.98987400  0.77169700  0.96360900  1
  S  S11  1  0.49888900  0.31767500  0.00690400  1
  S  S12  1  0.05614100  0.69338000  0.72999600  1
  S  S13  1  0.54174100  0.20424200  0.85332500  1
  S  S14  1  0.28527000  0.47786700  0.55008100  1
  S  S15  1  0.93512100  0.95142600  0.51312700  1
  S  S16  1  0.33986600  0.69658500  0.34892900  1
  S  S17  1  0.77912600  0.14921900  0.53857900  1
  S  S18  1  0.40305000  0.60286000  0.06609100  1
  S  S19  1  0.93966400  0.93535200  0.98326800  1
  S  S20  1  0.60031200  0.43324200  0.98476100  1
  S  S21  1  0.38308800  0.69253600  0.68193300  1
  S  S22  1  0.81753900  0.25943700  0.65083900  1
  S  S23  1  0.39302300  0.86302400  0.20894100  1
  S  S24  1  0.74273000  0.45231200  0.27805600  1
  S  S25  1  0.64948100  0.74532000  0.98026100  1
  S  S26  1  0.47151900  0.71956800  0.88089800  1
  S  S27  1  0.84242000  0.49251800  0.49781600  1
  S  S28  1  0.81567900  0.65195200  0.46449200  1
  S  S29  1  0.46476800  0.02535800  0.81002000  1
  S  S30  1  0.78129300  0.80025400  0.48923200  1
  S  S31  1  0.66723600  0.03771200  0.23436200  1
loop_
_geom_bond_atom_site_label_1
_geom_bond_atom_site_label_2
_geom_bond_distance
_geom_bond_site_symmetry_2
Mo0 S17 2.337585 1_555
Mo0 S1 2.372241 1_655
Mo0 S3 2.558633 1_645
Mo1 S4 2.403586 1_655
Mo1 S2 2.436668 1_655
Mo1 S24 2.439492 1_555
Mo1 S22 2.457693 1_555
Mo1 S27 2.458965 1_555
Mo1 S5 2.757181 1_655
Mo2 S29 2.374081 1_555
Mo2 S17 2.411937 1_555
Mo2 S15 2.416519 1_545
Mo2 S8 2.432035 1_555
Mo2 S4 2.597183 1_555
Mo3 S14 2.388966 1_555
Mo3 S28 2.393755 1_455
Mo3 S9 2.469933 1_555
Mo3 S18 2.552329 1_555
Mo3 S10 2.628882 1_454
Mo4 S31 2.371868 1_555
Mo4 S11 2.414886 1_555
Mo4 S0 2.459242 1_555
Mo4 S15 2.554293 1_545
Mo4 S4 2.823568 1_555
Mo5 S13 2.145907 1_555
Mo5 S14 2.347095 1_555
Mo5 S8 2.459830 1_555
Mo5 S7 2.508197 1_555
Mo5 S1 2.615403 1_556
Mo6 S29 2.370978 1_565
Mo6 S25 2.406980 1_555
Mo6 S23 2.476292 1_556
Mo6 S0 2.855346 1_466
Mo7 S20 2.370456 1_554
Mo7 S24 2.400319 1_555
Mo7 S7 2.424556 1_654
Mo7 S1 2.697976 1_655
Mo7 S18 2.743050 1_555
Mo8 S21 2.189258 1_555
Mo8 S23 2.298090 1_555
Mo8 S28 2.341329 1_555
Mo8 S27 2.380280 1_555
Mo8 S16 2.658505 1_555
Mo9 S22 2.272516 1_455
Mo9 S4 2.380049 1_555
Mo9 S3 2.399973 1_545
Mo10 S27 2.276307 1_555
Mo10 S24 2.359386 1_555
Mo10 S16 2.369004 1_555
Mo10 S25 2.423404 1_554
Mo10 S5 2.522626 1_655
Mo10 V7 2.715069 1_554
Mo11 S20 2.383158 1_554
Mo11 S0 2.424749 1_555
Mo11 S2 2.428121 1_654
Mo11 S1 2.507150 1_655
Mo11 S11 2.599252 1_555
Mo11 V1 2.683122 1_655
Mo11 V2 2.862084 1_555
Mo12 S19 2.297560 1_455
Mo12 S3 2.319288 1_555
Mo12 Mo6 2.392232 1_555
Mo12 S26 2.505464 1_555
Mo13 S10 2.279527 1_555
Mo13 V6 2.372854 1_556
Mo13 S29 2.402015 1_565
Mo13 S6 2.407067 1_566
Mo13 S19 2.444470 1_555
Mo14 S30 2.305647 1_455
Mo14 S16 2.317813 1_555
Mo14 S14 2.346726 1_555
Mo14 S12 3.025917 1_555
Mo15 S25 2.391315 1_555
Mo15 S10 2.395533 1_555
Mo15 S29 2.458926 1_565
Mo15 S12 2.517987 1_655
Mo15 V3 2.521223 1_555
Mo15 S15 2.763918 1_555
S0 V4 2.357163 1_554
S0 V1 2.373528 1_655
S1 V1 2.432142 1_555
S2 V1 2.353897 1_556
S4 V0 2.315940 1_555
S5 V0 2.220004 1_555
S5 V7 2.372873 1_454
S6 V6 2.230986 1_545
S6 V1 2.335695 1_555
S7 V7 2.367671 1_455
S7 V0 2.377056 1_556
S8 V2 2.456031 1_555
S9 V5 2.340232 1_554
S9 V2 2.374587 1_555
S10 V5 2.215790 1_655
S11 V0 2.285369 1_555
S12 V5 2.371203 1_555
S12 V3 2.407056 1_455
S13 V4 2.173261 1_555
S15 V3 2.334436 1_555
S17 V2 2.258477 1_555
S18 S26 2.206756 1_554
S18 V5 2.526033 1_554
S19 V4 2.302416 1_565
S20 V2 2.484414 1_556
S20 V5 2.593814 1_555
S21 V5 2.300894 1_555
S22 V4 2.581624 1_555
S23 V6 2.265443 1_555
S23 V1 2.746563 1_565
S24 V7 2.538188 1_554
S25 V7 2.522867 1_555
S26 V7 2.369975 1_555
S28 V6 2.255267 1_555
S29 V1 2.370456 1_556
S30 V3 2.415539 1_555
S30 V6 3.001264 1_555
S31 V3 2.340065 1_545
S31 V4 2.491560 1_554
