# generated using pymatgen
data_BaSrNdNbO6
_symmetry_space_group_name_H-M   'P 1'
_cell_length_a   8.58880928
_cell_length_b   8.61226777
_cell_length_c   8.60107935
_cell_angle_alpha   90.00000000
_cell_angle_beta   90.00000000
_cell_angle_gamma   90.00000000
_symmetry_Int_Tables_number   1
_chemical_formula_structural   BaSrNdNbO6
_chemical_formula_sum   'Ba4 Sr4 Nd4 Nb4 O24'
_cell_volume   636.21431654
_cell_formula_units_Z   4
loop_
 _symmetry_equiv_pos_site_id
 _symmetry_equiv_pos_as_xyz
  1  'x, y, z'
loop_
 _atom_site_type_symbol
 _atom_site_label
 _atom_site_symmetry_multiplicity
 _atom_site_fract_x
 _atom_site_fract_y
 _atom_site_fract_z
 _atom_site_occupancy
  Ba  Ba0  1  -0.00000000  -0.00000000  0.00000000  1
  Ba  Ba1  1  0.50000000  0.50000000  0.50000000  1
  Ba  Ba2  1  0.50000000  0.50000000  0.00000000  1
  Ba  Ba3  1  -0.00000000  -0.00000000  0.50000000  1
  Sr  Sr0  1  -0.00000000  0.50000000  0.50000000  1
  Sr  Sr1  1  0.50000000  -0.00000000  0.50000000  1
  Sr  Sr2  1  0.50000000  -0.00000000  0.00000000  1
  Sr  Sr3  1  -0.00000000  0.50000000  0.00000000  1
  Nd  Nd0  1  0.25000000  0.25000000  0.25000000  1
  Nd  Nd1  1  0.75000000  0.75000000  0.25000000  1
  Nd  Nd2  1  0.75000000  0.25000000  0.75000000  1
  Nd  Nd3  1  0.25000000  0.75000000  0.75000000  1
  Nb  Nb0  1  0.75000000  0.75000000  0.75000000  1
  Nb  Nb1  1  0.25000000  0.25000000  0.75000000  1
  Nb  Nb2  1  0.25000000  0.75000000  0.25000000  1
  Nb  Nb3  1  0.75000000  0.25000000  0.25000000  1
  O  O0  1  0.98078831  0.21676772  0.27880348  1
  O  O1  1  0.01921169  0.78323228  0.27880348  1
  O  O2  1  0.01921169  0.21676772  0.72119652  1
  O  O3  1  0.98078831  0.78323228  0.72119652  1
  O  O4  1  0.28320473  0.98078216  0.20790289  1
  O  O5  1  0.28320473  0.01921784  0.79209711  1
  O  O6  1  0.71679527  0.01921784  0.20790289  1
  O  O7  1  0.71679527  0.98078216  0.79209711  1
  O  O8  1  0.21145950  0.28732567  0.98075637  1
  O  O9  1  0.78854050  0.28732567  0.01924363  1
  O  O10  1  0.21145950  0.71267433  0.01924363  1
  O  O11  1  0.78854050  0.71267433  0.98075637  1
  O  O12  1  0.51921169  0.28323228  0.22119652  1
  O  O13  1  0.48078831  0.71676772  0.22119652  1
  O  O14  1  0.48078831  0.28323228  0.77880348  1
  O  O15  1  0.51921169  0.71676772  0.77880348  1
  O  O16  1  0.21679527  0.51921784  0.29209711  1
  O  O17  1  0.21679527  0.48078216  0.70790289  1
  O  O18  1  0.78320473  0.48078216  0.29209711  1
  O  O19  1  0.78320473  0.51921784  0.70790289  1
  O  O20  1  0.28854050  0.21267433  0.51924363  1
  O  O21  1  0.71145950  0.21267433  0.48075637  1
  O  O22  1  0.28854050  0.78732567  0.48075637  1
  O  O23  1  0.71145950  0.78732567  0.51924363  1
loop_
_geom_bond_atom_site_label_1
_geom_bond_atom_site_label_2
_geom_bond_distance
_geom_bond_site_symmetry_2
Ba0 O6 3.023498 1_455
Ba0 O4 3.023498 1_545
Ba0 O5 3.023498 1_554
Ba0 O7 3.023498 1_444
Ba0 O2 3.043494 1_554
Ba0 O1 3.043494 1_545
Ba0 O0 3.043494 1_455
Ba0 O3 3.043494 1_444
Ba0 O11 3.073955 1_444
Ba0 O10 3.073955 1_545
Ba0 O8 3.073955 1_554
Ba0 O9 3.073955 1_455
Ba1 O18 3.023498 1_555
Ba1 O16 3.023498 1_555
Ba1 O19 3.023498 1_555
Ba1 O17 3.023498 1_555
Ba1 O14 3.043494 1_555
Ba1 O12 3.043494 1_555
Ba1 O13 3.043494 1_555
Ba1 O15 3.043494 1_555
Ba1 O22 3.073955 1_555
Ba1 O20 3.073955 1_555
Ba1 O23 3.073955 1_555
Ba1 O21 3.073955 1_555
Ba2 O15 2.670583 1_554
Ba2 O13 2.670583 1_555
Ba2 O12 2.670583 1_555
Ba2 O14 2.670583 1_554
Ba2 O9 3.086058 1_555
Ba2 O10 3.086058 1_555
Ba2 O11 3.086058 1_554
Ba2 O8 3.086058 1_554
Ba3 O0 2.670583 1_455
Ba3 O1 2.670583 1_545
Ba3 O2 2.670583 1_555
Ba3 O3 2.670583 1_445
Ba3 O20 3.086058 1_555
Ba3 O21 3.086058 1_455
Ba3 O23 3.086058 1_445
Ba3 O22 3.086058 1_545
Nd0 O12 2.342988 1_555
Nd0 O0 2.342988 1_455
Nd0 O20 2.361307 1_555
Nd0 O8 2.361307 1_554
Nd0 O4 2.363944 1_545
Nd0 O16 2.363944 1_555
Nd1 O1 2.342988 1_655
Nd1 O13 2.342988 1_555
Nd1 O11 2.361307 1_554
Nd1 O23 2.361307 1_555
Nd1 O18 2.363944 1_555
Nd1 O6 2.363944 1_565
Nd2 O2 2.342988 1_655
Nd2 O14 2.342988 1_555
Nd2 O21 2.361307 1_555
Nd2 O9 2.361307 1_556
Nd2 O19 2.363944 1_555
Nd2 O7 2.363944 1_545
Nd3 O15 2.342988 1_555
Nd3 O3 2.342988 1_455
Nd3 O22 2.361307 1_555
Nd3 O10 2.361307 1_556
Nd3 O17 2.363944 1_555
Nd3 O5 2.363944 1_565
Nb0 O15 2.018017 1_555
Nb0 O3 2.018017 1_555
Nb0 O23 2.037684 1_555
Nb0 O11 2.037684 1_555
Nb0 O7 2.040299 1_555
Nb0 O19 2.040299 1_555
Nb1 O14 2.018017 1_555
Nb1 O2 2.018017 1_555
Nb1 O8 2.037684 1_555
Nb1 O20 2.037684 1_555
Nb1 O5 2.040299 1_555
Nb1 O17 2.040299 1_555
Nb2 O1 2.018017 1_555
Nb2 O13 2.018017 1_555
Nb2 O10 2.037684 1_555
Nb2 O22 2.037684 1_555
Nb2 O4 2.040299 1_555
Nb2 O16 2.040299 1_555
Nb3 O0 2.018017 1_555
Nb3 O12 2.018017 1_555
Nb3 O9 2.037684 1_555
Nb3 O21 2.037684 1_555
Nb3 O6 2.040299 1_555
Nb3 O18 2.040299 1_555
O0 Sr0 3.097885 1_655
O1 Sr0 3.097885 1_555
O2 Sr0 3.097885 1_555
O3 Sr0 3.097885 1_655
O4 Sr2 2.586911 1_565
O5 Sr2 2.586911 1_556
O6 Sr2 2.586911 1_555
O7 Sr2 2.586911 1_566
O8 Sr3 2.584708 1_556
O9 Sr3 2.584708 1_655
O10 Sr3 2.584708 1_555
O11 Sr3 2.584708 1_656
O12 Sr2 3.097885 1_555
O13 Sr2 3.097885 1_565
O14 Sr2 3.097885 1_556
O15 Sr2 3.097885 1_566
O16 Sr0 2.586911 1_555
O17 Sr0 2.586911 1_555
O18 Sr0 2.586911 1_655
O19 Sr0 2.586911 1_655
O20 Sr1 2.584708 1_555
O21 Sr1 2.584708 1_555
O22 Sr1 2.584708 1_565
O23 Sr1 2.584708 1_565
