# generated using pymatgen
data_Fe2Si5
_symmetry_space_group_name_H-M   'P 1'
_cell_length_a   5.36990600
_cell_length_b   5.36990600
_cell_length_c   51.76912400
_cell_angle_alpha   90.00000000
_cell_angle_beta   90.00000000
_cell_angle_gamma   90.00000000
_symmetry_Int_Tables_number   1
_chemical_formula_structural   Fe2Si5
_chemical_formula_sum   'Fe32 Si80'
_cell_volume   1492.80878830
_cell_formula_units_Z   16
loop_
 _symmetry_equiv_pos_site_id
 _symmetry_equiv_pos_as_xyz
  1  'x, y, z'
loop_
 _atom_site_type_symbol
 _atom_site_label
 _atom_site_symmetry_multiplicity
 _atom_site_fract_x
 _atom_site_fract_y
 _atom_site_fract_z
 _atom_site_occupancy
  Fe  Fe0_0  1  0.00000000  0.00000000  0.10091100  1
  Fe  Fe0_1  1  0.00000000  0.00000000  0.60091100  1
  Fe  Fe0_2  1  0.00000000  0.50000000  0.10091100  1
  Fe  Fe0_3  1  0.00000000  0.50000000  0.60091100  1
  Fe  Fe0_4  1  0.50000000  0.00000000  0.10091100  1
  Fe  Fe0_5  1  0.50000000  0.00000000  0.60091100  1
  Fe  Fe0_6  1  0.50000000  0.50000000  0.10091100  1
  Fe  Fe0_7  1  0.50000000  0.50000000  0.60091100  1
  Fe  Fe1_0  1  0.00000000  0.00000000  0.20008900  1
  Fe  Fe1_1  1  0.00000000  0.00000000  0.70008900  1
  Fe  Fe1_2  1  0.00000000  0.50000000  0.20008900  1
  Fe  Fe1_3  1  0.00000000  0.50000000  0.70008900  1
  Fe  Fe1_4  1  0.50000000  0.00000000  0.20008900  1
  Fe  Fe1_5  1  0.50000000  0.00000000  0.70008900  1
  Fe  Fe1_6  1  0.50000000  0.50000000  0.20008900  1
  Fe  Fe1_7  1  0.50000000  0.50000000  0.70008900  1
  Fe  Fe2_0  1  0.00000000  0.00000000  0.29991100  1
  Fe  Fe2_1  1  0.00000000  0.00000000  0.79991100  1
  Fe  Fe2_2  1  0.00000000  0.50000000  0.29991100  1
  Fe  Fe2_3  1  0.00000000  0.50000000  0.79991100  1
  Fe  Fe2_4  1  0.50000000  0.00000000  0.29991100  1
  Fe  Fe2_5  1  0.50000000  0.00000000  0.79991100  1
  Fe  Fe2_6  1  0.50000000  0.50000000  0.29991100  1
  Fe  Fe2_7  1  0.50000000  0.50000000  0.79991100  1
  Fe  Fe3_0  1  0.00000000  0.00000000  0.39908900  1
  Fe  Fe3_1  1  0.00000000  0.00000000  0.89908900  1
  Fe  Fe3_2  1  0.00000000  0.50000000  0.39908900  1
  Fe  Fe3_3  1  0.00000000  0.50000000  0.89908900  1
  Fe  Fe3_4  1  0.50000000  0.00000000  0.39908900  1
  Fe  Fe3_5  1  0.50000000  0.00000000  0.89908900  1
  Fe  Fe3_6  1  0.50000000  0.50000000  0.39908900  1
  Fe  Fe3_7  1  0.50000000  0.50000000  0.89908900  1
  Si  Si0_0  1  0.25000000  0.25000000  0.07281400  1
  Si  Si0_1  1  0.25000000  0.25000000  0.57281400  1
  Si  Si0_2  1  0.25000000  0.75000000  0.07281400  1
  Si  Si0_3  1  0.25000000  0.75000000  0.57281400  1
  Si  Si0_4  1  0.75000000  0.25000000  0.07281400  1
  Si  Si0_5  1  0.75000000  0.25000000  0.57281400  1
  Si  Si0_6  1  0.75000000  0.75000000  0.07281400  1
  Si  Si0_7  1  0.75000000  0.75000000  0.57281400  1
  Si  Si1_0  1  0.25000000  0.25000000  0.17268500  1
  Si  Si1_1  1  0.25000000  0.25000000  0.67268500  1
  Si  Si1_2  1  0.25000000  0.75000000  0.17268500  1
  Si  Si1_3  1  0.25000000  0.75000000  0.67268500  1
  Si  Si1_4  1  0.75000000  0.25000000  0.17268500  1
  Si  Si1_5  1  0.75000000  0.25000000  0.67268500  1
  Si  Si1_6  1  0.75000000  0.75000000  0.17268500  1
  Si  Si1_7  1  0.75000000  0.75000000  0.67268500  1
  Si  Si2_0  1  0.25000000  0.25000000  0.27266950  1
  Si  Si2_1  1  0.25000000  0.25000000  0.77266950  1
  Si  Si2_2  1  0.25000000  0.75000000  0.27266950  1
  Si  Si2_3  1  0.25000000  0.75000000  0.77266950  1
  Si  Si2_4  1  0.75000000  0.25000000  0.27266950  1
  Si  Si2_5  1  0.75000000  0.25000000  0.77266950  1
  Si  Si2_6  1  0.75000000  0.75000000  0.27266950  1
  Si  Si2_7  1  0.75000000  0.75000000  0.77266950  1
  Si  Si3_0  1  0.25000000  0.25000000  0.37240950  1
  Si  Si3_1  1  0.25000000  0.25000000  0.87240950  1
  Si  Si3_2  1  0.25000000  0.75000000  0.37240950  1
  Si  Si3_3  1  0.25000000  0.75000000  0.87240950  1
  Si  Si3_4  1  0.75000000  0.25000000  0.37240950  1
  Si  Si3_5  1  0.75000000  0.25000000  0.87240950  1
  Si  Si3_6  1  0.75000000  0.75000000  0.37240950  1
  Si  Si3_7  1  0.75000000  0.75000000  0.87240950  1
  Si  Si4_0  1  0.25000000  0.25000000  0.47317550  1
  Si  Si4_1  1  0.25000000  0.25000000  0.97317550  1
  Si  Si4_2  1  0.25000000  0.75000000  0.47317550  1
  Si  Si4_3  1  0.25000000  0.75000000  0.97317550  1
  Si  Si4_4  1  0.75000000  0.25000000  0.47317550  1
  Si  Si4_5  1  0.75000000  0.25000000  0.97317550  1
  Si  Si4_6  1  0.75000000  0.75000000  0.47317550  1
  Si  Si4_7  1  0.75000000  0.75000000  0.97317550  1
  Si  Si5_0  1  0.25000000  0.25000000  0.02682450  1
  Si  Si5_1  1  0.25000000  0.25000000  0.52682450  1
  Si  Si5_2  1  0.25000000  0.75000000  0.02682450  1
  Si  Si5_3  1  0.25000000  0.75000000  0.52682450  1
  Si  Si5_4  1  0.75000000  0.25000000  0.02682450  1
  Si  Si5_5  1  0.75000000  0.25000000  0.52682450  1
  Si  Si5_6  1  0.75000000  0.75000000  0.02682450  1
  Si  Si5_7  1  0.75000000  0.75000000  0.52682450  1
  Si  Si6_0  1  0.25000000  0.25000000  0.12759050  1
  Si  Si6_1  1  0.25000000  0.25000000  0.62759050  1
  Si  Si6_2  1  0.25000000  0.75000000  0.12759050  1
  Si  Si6_3  1  0.25000000  0.75000000  0.62759050  1
  Si  Si6_4  1  0.75000000  0.25000000  0.12759050  1
  Si  Si6_5  1  0.75000000  0.25000000  0.62759050  1
  Si  Si6_6  1  0.75000000  0.75000000  0.12759050  1
  Si  Si6_7  1  0.75000000  0.75000000  0.62759050  1
  Si  Si7_0  1  0.25000000  0.25000000  0.22733050  1
  Si  Si7_1  1  0.25000000  0.25000000  0.72733050  1
  Si  Si7_2  1  0.25000000  0.75000000  0.22733050  1
  Si  Si7_3  1  0.25000000  0.75000000  0.72733050  1
  Si  Si7_4  1  0.75000000  0.25000000  0.22733050  1
  Si  Si7_5  1  0.75000000  0.25000000  0.72733050  1
  Si  Si7_6  1  0.75000000  0.75000000  0.22733050  1
  Si  Si7_7  1  0.75000000  0.75000000  0.72733050  1
  Si  Si8_0  1  0.25000000  0.25000000  0.32731500  1
  Si  Si8_1  1  0.25000000  0.25000000  0.82731500  1
  Si  Si8_2  1  0.25000000  0.75000000  0.32731500  1
  Si  Si8_3  1  0.25000000  0.75000000  0.82731500  1
  Si  Si8_4  1  0.75000000  0.25000000  0.32731500  1
  Si  Si8_5  1  0.75000000  0.25000000  0.82731500  1
  Si  Si8_6  1  0.75000000  0.75000000  0.32731500  1
  Si  Si8_7  1  0.75000000  0.75000000  0.82731500  1
  Si  Si9_0  1  0.25000000  0.25000000  0.42718600  1
  Si  Si9_1  1  0.25000000  0.25000000  0.92718600  1
  Si  Si9_2  1  0.25000000  0.75000000  0.42718600  1
  Si  Si9_3  1  0.25000000  0.75000000  0.92718600  1
  Si  Si9_4  1  0.75000000  0.25000000  0.42718600  1
  Si  Si9_5  1  0.75000000  0.25000000  0.92718600  1
  Si  Si9_6  1  0.75000000  0.75000000  0.42718600  1
  Si  Si9_7  1  0.75000000  0.75000000  0.92718600  1
loop_
_geom_bond_atom_site_label_1
_geom_bond_atom_site_label_2
_geom_bond_distance
_geom_bond_site_symmetry_2
Fe0_0 Si6_2 2.347792 1_545
Fe0_0 Si6_6 2.347792 1_445
Fe0_0 Si6_4 2.347792 1_455
Fe0_0 Si6_0 2.347792 1_555
Fe0_0 Si0_6 2.391699 1_445
Fe0_0 Si0_0 2.391699 1_555
Fe0_0 Si0_4 2.391699 1_455
Fe0_0 Si0_2 2.391699 1_545
Fe0_1 Si6_3 2.347792 1_545
Fe0_1 Si6_5 2.347792 1_455
Fe0_1 Si6_7 2.347792 1_445
Fe0_1 Si6_1 2.347792 1_555
Fe0_1 Si0_5 2.391699 1_455
Fe0_1 Si0_1 2.391699 1_555
Fe0_1 Si0_3 2.391699 1_545
Fe0_1 Si0_7 2.391699 1_445
Fe0_2 Si6_6 2.347792 1_455
Fe0_2 Si6_2 2.347792 1_555
Fe0_2 Si6_4 2.347792 1_455
Fe0_2 Si6_0 2.347792 1_555
Fe0_2 Si0_2 2.391699 1_555
Fe0_2 Si0_6 2.391699 1_455
Fe0_2 Si0_0 2.391699 1_555
Fe0_2 Si0_4 2.391699 1_455
Fe0_3 Si6_3 2.347792 1_555
Fe0_3 Si6_5 2.347792 1_455
Fe0_3 Si6_7 2.347792 1_455
Fe0_3 Si6_1 2.347792 1_555
Fe0_3 Si0_5 2.391699 1_455
Fe0_3 Si0_7 2.391699 1_455
Fe0_3 Si0_1 2.391699 1_555
Fe0_3 Si0_3 2.391699 1_555
Fe0_4 Si6_4 2.347792 1_555
Fe0_4 Si6_2 2.347792 1_545
Fe0_4 Si6_0 2.347792 1_555
Fe0_4 Si6_6 2.347792 1_545
Fe0_4 Si0_6 2.391699 1_545
Fe0_4 Si0_0 2.391699 1_555
Fe0_4 Si0_4 2.391699 1_555
Fe0_4 Si0_2 2.391699 1_545
Fe0_5 Si6_5 2.347792 1_555
Fe0_5 Si6_3 2.347792 1_545
Fe0_5 Si6_7 2.347792 1_545
Fe0_5 Si6_1 2.347792 1_555
Fe0_5 Si0_5 2.391699 1_555
Fe0_5 Si0_7 2.391699 1_545
Fe0_5 Si0_1 2.391699 1_555
Fe0_5 Si0_3 2.391699 1_545
Fe0_6 Si6_4 2.347792 1_555
Fe0_6 Si6_0 2.347792 1_555
Fe0_6 Si6_2 2.347792 1_555
Fe0_6 Si6_6 2.347792 1_555
Fe0_6 Si0_2 2.391699 1_555
Fe0_6 Si0_6 2.391699 1_555
Fe0_6 Si0_0 2.391699 1_555
Fe0_6 Si0_4 2.391699 1_555
Fe0_7 Si6_5 2.347792 1_555
Fe0_7 Si6_3 2.347792 1_555
Fe0_7 Si6_7 2.347792 1_555
Fe0_7 Si6_1 2.347792 1_555
Fe0_7 Si0_5 2.391699 1_555
Fe0_7 Si0_1 2.391699 1_555
Fe0_7 Si0_3 2.391699 1_555
Fe0_7 Si0_7 2.391699 1_555
Fe1_0 Si7_4 2.365025 1_455
Fe1_0 Si7_6 2.365025 1_445
Fe1_0 Si7_0 2.365025 1_555
Fe1_0 Si7_2 2.365025 1_545
Fe1_0 Si1_6 2.370051 1_445
Fe1_0 Si1_0 2.370051 1_555
Fe1_0 Si1_2 2.370051 1_545
Fe1_0 Si1_4 2.370051 1_455
Fe1_1 Si7_5 2.365025 1_455
Fe1_1 Si7_3 2.365025 1_545
Fe1_1 Si7_7 2.365025 1_445
Fe1_1 Si7_1 2.365025 1_555
Fe1_1 Si1_3 2.370051 1_545
Fe1_1 Si1_7 2.370051 1_445
Fe1_1 Si1_5 2.370051 1_455
Fe1_1 Si1_1 2.370051 1_555
Fe1_2 Si7_4 2.365025 1_455
Fe1_2 Si7_2 2.365025 1_555
Fe1_2 Si7_0 2.365025 1_555
Fe1_2 Si7_6 2.365025 1_455
Fe1_2 Si1_0 2.370051 1_555
Fe1_2 Si1_2 2.370051 1_555
Fe1_2 Si1_6 2.370051 1_455
Fe1_2 Si1_4 2.370051 1_455
Fe1_3 Si7_7 2.365025 1_455
Fe1_3 Si7_5 2.365025 1_455
Fe1_3 Si7_3 2.365025 1_555
Fe1_3 Si7_1 2.365025 1_555
Fe1_3 Si1_3 2.370051 1_555
Fe1_3 Si1_5 2.370051 1_455
Fe1_3 Si1_1 2.370051 1_555
Fe1_3 Si1_7 2.370051 1_455
Fe1_4 Si7_6 2.365025 1_545
Fe1_4 Si7_0 2.365025 1_555
Fe1_4 Si7_2 2.365025 1_545
Fe1_4 Si7_4 2.365025 1_555
Fe1_4 Si1_0 2.370051 1_555
Fe1_4 Si1_4 2.370051 1_555
Fe1_4 Si1_2 2.370051 1_545
Fe1_4 Si1_6 2.370051 1_545
Fe1_5 Si7_5 2.365025 1_555
Fe1_5 Si7_3 2.365025 1_545
Fe1_5 Si7_7 2.365025 1_545
Fe1_5 Si7_1 2.365025 1_555
Fe1_5 Si1_3 2.370051 1_545
Fe1_5 Si1_7 2.370051 1_545
Fe1_5 Si1_1 2.370051 1_555
Fe1_5 Si1_5 2.370051 1_555
Fe1_6 Si7_2 2.365025 1_555
Fe1_6 Si7_6 2.365025 1_555
Fe1_6 Si7_0 2.365025 1_555
Fe1_6 Si7_4 2.365025 1_555
Fe1_6 Si1_0 2.370051 1_555
Fe1_6 Si1_4 2.370051 1_555
Fe1_6 Si1_2 2.370051 1_555
Fe1_6 Si1_6 2.370051 1_555
Fe1_7 Si7_5 2.365025 1_555
Fe1_7 Si7_3 2.365025 1_555
Fe1_7 Si7_7 2.365025 1_555
Fe1_7 Si7_1 2.365025 1_555
Fe1_7 Si1_3 2.370051 1_555
Fe1_7 Si1_1 2.370051 1_555
Fe1_7 Si1_7 2.370051 1_555
Fe1_7 Si1_5 2.370051 1_555
Fe2_0 Si2_4 2.365025 1_455
Fe2_0 Si2_2 2.365025 1_545
Fe2_0 Si2_6 2.365025 1_445
Fe2_0 Si2_0 2.365025 1_555
Fe2_0 Si8_4 2.370051 1_455
Fe2_0 Si8_0 2.370051 1_555
Fe2_0 Si8_2 2.370051 1_545
Fe2_0 Si8_6 2.370051 1_445
Fe2_1 Si2_1 2.365025 1_555
Fe2_1 Si2_5 2.365025 1_455
Fe2_1 Si2_3 2.365025 1_545
Fe2_1 Si2_7 2.365025 1_445
Fe2_1 Si8_7 2.370051 1_445
Fe2_1 Si8_1 2.370051 1_555
Fe2_1 Si8_3 2.370051 1_545
Fe2_1 Si8_5 2.370051 1_455
Fe2_2 Si2_4 2.365025 1_455
Fe2_2 Si2_6 2.365025 1_455
Fe2_2 Si2_2 2.365025 1_555
Fe2_2 Si2_0 2.365025 1_555
Fe2_2 Si8_2 2.370051 1_555
Fe2_2 Si8_4 2.370051 1_455
Fe2_2 Si8_0 2.370051 1_555
Fe2_2 Si8_6 2.370051 1_455
Fe2_3 Si2_1 2.365025 1_555
Fe2_3 Si2_5 2.365025 1_455
Fe2_3 Si2_7 2.365025 1_455
Fe2_3 Si2_3 2.365025 1_555
Fe2_3 Si8_7 2.370051 1_455
Fe2_3 Si8_1 2.370051 1_555
Fe2_3 Si8_5 2.370051 1_455
Fe2_3 Si8_3 2.370051 1_555
Fe2_4 Si2_4 2.365025 1_555
Fe2_4 Si2_2 2.365025 1_545
Fe2_4 Si2_6 2.365025 1_545
Fe2_4 Si2_0 2.365025 1_555
Fe2_4 Si8_4 2.370051 1_555
Fe2_4 Si8_0 2.370051 1_555
Fe2_4 Si8_6 2.370051 1_545
Fe2_4 Si8_2 2.370051 1_545
Fe2_5 Si2_1 2.365025 1_555
Fe2_5 Si2_5 2.365025 1_555
Fe2_5 Si2_3 2.365025 1_545
Fe2_5 Si2_7 2.365025 1_545
Fe2_5 Si8_1 2.370051 1_555
Fe2_5 Si8_5 2.370051 1_555
Fe2_5 Si8_3 2.370051 1_545
Fe2_5 Si8_7 2.370051 1_545
Fe2_6 Si2_4 2.365025 1_555
Fe2_6 Si2_2 2.365025 1_555
Fe2_6 Si2_6 2.365025 1_555
Fe2_6 Si2_0 2.365025 1_555
Fe2_6 Si8_4 2.370051 1_555
Fe2_6 Si8_2 2.370051 1_555
Fe2_6 Si8_0 2.370051 1_555
Fe2_6 Si8_6 2.370051 1_555
Fe2_7 Si2_1 2.365025 1_555
Fe2_7 Si2_5 2.365025 1_555
Fe2_7 Si2_3 2.365025 1_555
Fe2_7 Si2_7 2.365025 1_555
Fe2_7 Si8_1 2.370051 1_555
Fe2_7 Si8_5 2.370051 1_555
Fe2_7 Si8_7 2.370051 1_555
Fe2_7 Si8_3 2.370051 1_555
Fe3_0 Si3_2 2.347792 1_545
Fe3_0 Si3_4 2.347792 1_455
Fe3_0 Si3_6 2.347792 1_445
Fe3_0 Si3_0 2.347792 1_555
Fe3_0 Si9_2 2.391699 1_545
Fe3_0 Si9_4 2.391699 1_455
Fe3_0 Si9_6 2.391699 1_445
Fe3_0 Si9_0 2.391699 1_555
Fe3_1 Si3_3 2.347792 1_545
Fe3_1 Si3_7 2.347792 1_445
Fe3_1 Si3_1 2.347792 1_555
Fe3_1 Si3_5 2.347792 1_455
Fe3_1 Si9_3 2.391699 1_545
Fe3_1 Si9_7 2.391699 1_445
Fe3_1 Si9_1 2.391699 1_555
Fe3_1 Si9_5 2.391699 1_455
Fe3_2 Si3_4 2.347792 1_455
Fe3_2 Si3_2 2.347792 1_555
Fe3_2 Si3_6 2.347792 1_455
Fe3_2 Si3_0 2.347792 1_555
Fe3_2 Si9_2 2.391699 1_555
Fe3_2 Si9_4 2.391699 1_455
Fe3_2 Si9_6 2.391699 1_455
Fe3_2 Si9_0 2.391699 1_555
Fe3_3 Si3_3 2.347792 1_555
Fe3_3 Si3_7 2.347792 1_455
Fe3_3 Si3_1 2.347792 1_555
Fe3_3 Si3_5 2.347792 1_455
Fe3_3 Si9_3 2.391699 1_555
Fe3_3 Si9_1 2.391699 1_555
Fe3_3 Si9_5 2.391699 1_455
Fe3_3 Si9_7 2.391699 1_455
Fe3_4 Si3_2 2.347792 1_545
Fe3_4 Si3_6 2.347792 1_545
Fe3_4 Si3_0 2.347792 1_555
Fe3_4 Si3_4 2.347792 1_555
Fe3_4 Si9_2 2.391699 1_545
Fe3_4 Si9_4 2.391699 1_555
Fe3_4 Si9_6 2.391699 1_545
Fe3_4 Si9_0 2.391699 1_555
Fe3_5 Si3_3 2.347792 1_545
Fe3_5 Si3_1 2.347792 1_555
Fe3_5 Si3_7 2.347792 1_545
Fe3_5 Si3_5 2.347792 1_555
Fe3_5 Si9_3 2.391699 1_545
Fe3_5 Si9_1 2.391699 1_555
Fe3_5 Si9_7 2.391699 1_545
Fe3_5 Si9_5 2.391699 1_555
Fe3_6 Si3_2 2.347792 1_555
Fe3_6 Si3_6 2.347792 1_555
Fe3_6 Si3_0 2.347792 1_555
Fe3_6 Si3_4 2.347792 1_555
Fe3_6 Si9_2 2.391699 1_555
Fe3_6 Si9_4 2.391699 1_555
Fe3_6 Si9_6 2.391699 1_555
Fe3_6 Si9_0 2.391699 1_555
Fe3_7 Si3_3 2.347792 1_555
Fe3_7 Si3_1 2.347792 1_555
Fe3_7 Si3_7 2.347792 1_555
Fe3_7 Si3_5 2.347792 1_555
Fe3_7 Si9_3 2.391699 1_555
Fe3_7 Si9_7 2.391699 1_555
Fe3_7 Si9_1 2.391699 1_555
Fe3_7 Si9_5 2.391699 1_555
Si0_0 Si5_0 2.380836 1_555
Si0_1 Si5_1 2.380836 1_555
Si0_2 Si5_2 2.380836 1_555
Si0_3 Si5_3 2.380836 1_555
Si0_4 Si5_4 2.380836 1_555
Si0_5 Si5_5 2.380836 1_555
Si0_6 Si5_6 2.380836 1_555
Si0_7 Si5_7 2.380836 1_555
Si1_0 Si6_0 2.334503 1_555
Si1_1 Si6_1 2.334503 1_555
Si1_2 Si6_2 2.334503 1_555
Si1_3 Si6_3 2.334503 1_555
Si1_4 Si6_4 2.334503 1_555
Si1_5 Si6_5 2.334503 1_555
Si1_6 Si6_6 2.334503 1_555
Si1_7 Si6_7 2.334503 1_555
Si2_0 Si7_0 2.347160 1_555
Si2_1 Si7_1 2.347160 1_555
Si2_2 Si7_2 2.347160 1_555
Si2_3 Si7_3 2.347160 1_555
Si2_4 Si7_4 2.347160 1_555
Si2_5 Si7_5 2.347160 1_555
Si2_6 Si7_6 2.347160 1_555
Si2_7 Si7_7 2.347160 1_555
Si3_0 Si8_0 2.334503 1_555
Si3_1 Si8_1 2.334503 1_555
Si3_2 Si8_2 2.334503 1_555
Si3_3 Si8_3 2.334503 1_555
Si3_4 Si8_4 2.334503 1_555
Si3_5 Si8_5 2.334503 1_555
Si3_6 Si8_6 2.334503 1_555
Si3_7 Si8_7 2.334503 1_555
Si4_0 Si9_0 2.380836 1_555
Si4_0 Si4_2 2.684953 1_545
Si4_0 Si4_4 2.684953 1_455
Si4_0 Si4_2 2.684953 1_555
Si4_0 Si4_4 2.684953 1_555
Si4_0 Si5_1 2.777362 1_555
Si4_1 Si9_1 2.380836 1_555
Si4_1 Si4_5 2.684953 1_555
Si4_1 Si4_5 2.684953 1_455
Si4_1 Si4_3 2.684953 1_545
Si4_1 Si4_3 2.684953 1_555
Si4_1 Si5_0 2.777362 1_556
Si4_2 Si9_2 2.380836 1_555
Si4_2 Si4_6 2.684953 1_555
Si4_2 Si4_6 2.684953 1_455
Si4_2 Si5_3 2.777362 1_555
Si4_3 Si9_3 2.380836 1_555
Si4_3 Si4_7 2.684953 1_555
Si4_3 Si4_7 2.684953 1_455
Si4_3 Si5_2 2.777362 1_556
Si4_4 Si9_4 2.380836 1_555
Si4_4 Si4_6 2.684953 1_555
Si4_4 Si4_6 2.684953 1_545
Si4_4 Si5_5 2.777362 1_555
Si4_5 Si9_5 2.380836 1_555
Si4_5 Si4_7 2.684953 1_555
Si4_5 Si4_7 2.684953 1_545
Si4_5 Si5_4 2.777362 1_556
Si4_6 Si9_6 2.380836 1_555
Si4_6 Si5_7 2.777362 1_555
Si4_7 Si9_7 2.380836 1_555
Si4_7 Si5_6 2.777362 1_556
Si5_0 Si5_4 2.684953 1_555
Si5_0 Si5_4 2.684953 1_455
Si5_0 Si5_2 2.684953 1_555
Si5_0 Si5_2 2.684953 1_545
Si5_1 Si5_3 2.684953 1_545
Si5_1 Si5_5 2.684953 1_455
Si5_1 Si5_3 2.684953 1_555
Si5_1 Si5_5 2.684953 1_555
Si5_2 Si5_6 2.684953 1_555
Si5_2 Si5_6 2.684953 1_455
Si5_3 Si5_7 2.684953 1_455
Si5_3 Si5_7 2.684953 1_555
Si5_4 Si5_6 2.684953 1_545
Si5_4 Si5_6 2.684953 1_555
Si5_5 Si5_7 2.684953 1_545
Si5_5 Si5_7 2.684953 1_555
