# generated using pymatgen
data_Cd2BO4
_symmetry_space_group_name_H-M   'P 1'
_cell_length_a   10.00194764
_cell_length_b   10.00194764
_cell_length_c   10.00194764
_cell_angle_alpha   60.00000000
_cell_angle_beta   60.00000000
_cell_angle_gamma   60.00000000
_symmetry_Int_Tables_number   1
_chemical_formula_structural   Cd2BO4
_chemical_formula_sum   'Cd16 B8 O32'
_cell_volume   707.52001810
_cell_formula_units_Z   8
loop_
 _symmetry_equiv_pos_site_id
 _symmetry_equiv_pos_as_xyz
  1  'x, y, z'
loop_
 _atom_site_type_symbol
 _atom_site_label
 _atom_site_symmetry_multiplicity
 _atom_site_fract_x
 _atom_site_fract_y
 _atom_site_fract_z
 _atom_site_occupancy
  Cd  Cd0  1  0.04540000  0.45460000  0.04540000  1
  Cd  Cd1  1  0.45460000  0.04540000  0.45460000  1
  Cd  Cd2  1  0.20460000  0.79540000  0.20460000  1
  Cd  Cd3  1  0.79540000  0.20460000  0.79540000  1
  Cd  Cd4  1  0.04540000  0.04540000  0.45460000  1
  Cd  Cd5  1  0.45460000  0.45460000  0.04540000  1
  Cd  Cd6  1  0.20460000  0.20460000  0.79540000  1
  Cd  Cd7  1  0.79540000  0.79540000  0.20460000  1
  Cd  Cd8  1  0.45460000  0.04540000  0.04540000  1
  Cd  Cd9  1  0.04540000  0.45460000  0.45460000  1
  Cd  Cd10  1  0.79540000  0.20460000  0.20460000  1
  Cd  Cd11  1  0.20460000  0.79540000  0.79540000  1
  Cd  Cd12  1  0.12500000  0.62500000  0.62500000  1
  Cd  Cd13  1  0.62500000  0.12500000  0.62500000  1
  Cd  Cd14  1  0.62500000  0.62500000  0.12500000  1
  Cd  Cd15  1  0.62500000  0.62500000  0.62500000  1
  B  B0  1  0.44268800  0.85243700  0.85243700  1
  B  B1  1  0.85243700  0.44268800  0.85243700  1
  B  B2  1  0.85243700  0.85243700  0.44268800  1
  B  B3  1  0.85243700  0.85243700  0.85243700  1
  B  B4  1  0.80731200  0.39756300  0.39756300  1
  B  B5  1  0.39756300  0.80731200  0.39756300  1
  B  B6  1  0.39756300  0.39756300  0.80731200  1
  B  B7  1  0.39756300  0.39756300  0.39756300  1
  O  O0  1  0.99487900  0.71745600  0.84742500  1
  O  O1  1  0.71745600  0.99487900  0.44024100  1
  O  O2  1  0.84742500  0.44024100  0.99487900  1
  O  O3  1  0.44024100  0.84742500  0.71745600  1
  O  O4  1  0.25512100  0.53254400  0.40257500  1
  O  O5  1  0.53254400  0.25512100  0.80975900  1
  O  O6  1  0.40257500  0.80975900  0.25512100  1
  O  O7  1  0.80975900  0.40257500  0.53254400  1
  O  O8  1  0.84742500  0.99487900  0.71745600  1
  O  O9  1  0.44024100  0.71745600  0.99487900  1
  O  O10  1  0.99487900  0.84742500  0.44024100  1
  O  O11  1  0.71745600  0.44024100  0.84742500  1
  O  O12  1  0.40257500  0.25512100  0.53254400  1
  O  O13  1  0.80975900  0.53254400  0.25512100  1
  O  O14  1  0.25512100  0.40257500  0.80975900  1
  O  O15  1  0.53254400  0.80975900  0.40257500  1
  O  O16  1  0.71745600  0.84742500  0.99487900  1
  O  O17  1  0.99487900  0.44024100  0.71745600  1
  O  O18  1  0.44024100  0.99487900  0.84742500  1
  O  O19  1  0.84742500  0.71745600  0.44024100  1
  O  O20  1  0.53254400  0.40257500  0.25512100  1
  O  O21  1  0.25512100  0.80975900  0.53254400  1
  O  O22  1  0.80975900  0.25512100  0.40257500  1
  O  O23  1  0.40257500  0.53254400  0.80975900  1
  O  O24  1  0.53201500  0.15599500  0.15599500  1
  O  O25  1  0.15599500  0.53201500  0.15599500  1
  O  O26  1  0.15599500  0.15599500  0.53201500  1
  O  O27  1  0.15599500  0.15599500  0.15599500  1
  O  O28  1  0.71798500  0.09400500  0.09400500  1
  O  O29  1  0.09400500  0.71798500  0.09400500  1
  O  O30  1  0.09400500  0.09400500  0.71798500  1
  O  O31  1  0.09400500  0.09400500  0.09400500  1
loop_
_geom_bond_atom_site_label_1
_geom_bond_atom_site_label_2
_geom_bond_distance
_geom_bond_site_symmetry_2
Cd0 O13 2.327375 1_455
Cd0 O14 2.327378 1_554
Cd0 O2 2.356784 1_454
Cd0 O0 2.356790 1_454
Cd0 O27 2.446090 1_555
Cd0 O25 2.446090 1_555
Cd1 O12 2.327371 1_555
Cd1 O15 2.327381 1_545
Cd1 O3 2.356791 1_545
Cd1 O1 2.356794 1_545
Cd1 O24 2.446090 1_555
Cd1 O26 2.446090 1_555
Cd2 O9 2.327375 1_554
Cd2 O10 2.327378 1_455
Cd2 O6 2.356784 1_555
Cd2 O4 2.356790 1_555
Cd2 O29 2.446090 1_555
Cd2 O31 2.446090 1_565
Cd3 O8 2.327371 1_545
Cd3 O11 2.327381 1_555
Cd3 O7 2.356791 1_555
Cd3 O5 2.356794 1_555
Cd3 O30 2.446090 1_655
Cd3 O28 2.446090 1_556
Cd4 O21 2.327375 1_545
Cd4 O22 2.327378 1_455
Cd4 O10 2.356784 1_445
Cd4 O8 2.356790 1_445
Cd4 O26 2.446090 1_555
Cd4 O27 2.446090 1_555
Cd5 O20 2.327371 1_555
Cd5 O23 2.327381 1_554
Cd5 O11 2.356791 1_554
Cd5 O9 2.356794 1_554
Cd5 O24 2.446090 1_555
Cd5 O25 2.446090 1_555
Cd6 O17 2.327375 1_455
Cd6 O18 2.327378 1_545
Cd6 O14 2.356784 1_555
Cd6 O12 2.356790 1_555
Cd6 O30 2.446090 1_555
Cd6 O31 2.446090 1_556
Cd7 O16 2.327371 1_554
Cd7 O19 2.327381 1_555
Cd7 O15 2.356791 1_555
Cd7 O13 2.356794 1_555
Cd7 O29 2.446090 1_655
Cd7 O28 2.446090 1_565
Cd8 O5 2.327375 1_554
Cd8 O6 2.327378 1_545
Cd8 O18 2.356784 1_544
Cd8 O16 2.356790 1_544
Cd8 O24 2.446090 1_555
Cd8 O27 2.446090 1_555
Cd9 O4 2.327371 1_555
Cd9 O7 2.327381 1_455
Cd9 O19 2.356791 1_455
Cd9 O17 2.356794 1_455
Cd9 O26 2.446090 1_555
Cd9 O25 2.446090 1_555
Cd10 O1 2.327375 1_545
Cd10 O2 2.327378 1_554
Cd10 O22 2.356784 1_555
Cd10 O20 2.356790 1_555
Cd10 O28 2.446090 1_555
Cd10 O31 2.446090 1_655
Cd11 O0 2.327371 1_455
Cd11 O3 2.327381 1_555
Cd11 O23 2.356791 1_555
Cd11 O21 2.356794 1_555
Cd11 O30 2.446090 1_565
Cd11 O29 2.446090 1_556
Cd12 O21 2.335920 1_555
Cd12 O17 2.335920 1_455
Cd12 O14 2.335922 1_555
Cd12 O10 2.335922 1_455
Cd12 O0 2.335928 1_455
Cd12 O4 2.335928 1_555
Cd13 O5 2.335920 1_555
Cd13 O1 2.335920 1_545
Cd13 O22 2.335922 1_555
Cd13 O18 2.335922 1_545
Cd13 O12 2.335928 1_555
Cd13 O8 2.335928 1_545
Cd14 O13 2.335920 1_555
Cd14 O9 2.335920 1_554
Cd14 O6 2.335922 1_555
Cd14 O2 2.335922 1_554
Cd14 O20 2.335928 1_555
Cd14 O16 2.335928 1_554
Cd15 O7 2.335927 1_555
Cd15 O19 2.335927 1_555
Cd15 O11 2.335927 1_555
Cd15 O23 2.335927 1_555
Cd15 O15 2.335927 1_555
Cd15 O3 2.335927 1_555
B0 O3 1.388437 1_555
B0 O9 1.388448 1_555
B0 O18 1.388457 1_555
B1 O11 1.388437 1_555
B1 O17 1.388448 1_555
B1 O2 1.388457 1_555
B2 O19 1.388437 1_555
B2 O1 1.388448 1_555
B2 O10 1.388457 1_555
B3 O0 1.388447 1_555
B3 O16 1.388447 1_555
B3 O8 1.388447 1_555
B4 O7 1.388437 1_555
B4 O13 1.388448 1_555
B4 O22 1.388457 1_555
B5 O15 1.388437 1_555
B5 O21 1.388448 1_555
B5 O6 1.388457 1_555
B6 O23 1.388437 1_555
B6 O5 1.388448 1_555
B6 O14 1.388457 1_555
B7 O4 1.388447 1_555
B7 O20 1.388447 1_555
B7 O12 1.388447 1_555
O24 O28 1.518734 1_555
O25 O29 1.518734 1_555
O26 O30 1.518734 1_555
O27 O31 1.518734 1_555
