# generated using pymatgen
data_Mg3Bi2
_symmetry_space_group_name_H-M   'P 1'
_cell_length_a   11.78992981
_cell_length_b   11.78992981
_cell_length_c   11.78992981
_cell_angle_alpha   109.47122063
_cell_angle_beta   109.47122063
_cell_angle_gamma   109.47122063
_symmetry_Int_Tables_number   1
_chemical_formula_structural   Mg3Bi2
_chemical_formula_sum   'Mg24 Bi16'
_cell_volume   1261.57120585
_cell_formula_units_Z   8
loop_
 _symmetry_equiv_pos_site_id
 _symmetry_equiv_pos_as_xyz
  1  'x, y, z'
loop_
 _atom_site_type_symbol
 _atom_site_label
 _atom_site_symmetry_multiplicity
 _atom_site_fract_x
 _atom_site_fract_y
 _atom_site_fract_z
 _atom_site_occupancy
  Mg  Mg0  1  0.99471228  0.73993188  0.98005004  1
  Mg  Mg1  1  0.74011816  0.76006812  0.25478041  1
  Mg  Mg2  1  0.50528772  0.98533776  0.24521959  1
  Mg  Mg3  1  0.75988184  0.51466224  0.51994996  1
  Mg  Mg4  1  0.73993188  0.98005004  0.99471228  1
  Mg  Mg5  1  0.76006812  0.25478041  0.74011816  1
  Mg  Mg6  1  0.98533776  0.24521959  0.50528772  1
  Mg  Mg7  1  0.51466224  0.51994996  0.75988184  1
  Mg  Mg8  1  0.98005004  0.99471228  0.73993188  1
  Mg  Mg9  1  0.25478041  0.74011816  0.76006812  1
  Mg  Mg10  1  0.24521959  0.50528772  0.98533776  1
  Mg  Mg11  1  0.51994996  0.75988184  0.51466224  1
  Mg  Mg12  1  0.00528772  0.26006812  0.01994996  1
  Mg  Mg13  1  0.25988184  0.23993188  0.74521859  1
  Mg  Mg14  1  0.49471228  0.01466224  0.75478141  1
  Mg  Mg15  1  0.24011816  0.48533776  0.48005004  1
  Mg  Mg16  1  0.26006812  0.01994996  0.00528772  1
  Mg  Mg17  1  0.23993188  0.74521859  0.25988184  1
  Mg  Mg18  1  0.01466224  0.75478141  0.49471228  1
  Mg  Mg19  1  0.48533776  0.48005004  0.24011816  1
  Mg  Mg20  1  0.01994996  0.00528772  0.26006812  1
  Mg  Mg21  1  0.74521859  0.25988184  0.23993188  1
  Mg  Mg22  1  0.75478141  0.49471228  0.01466224  1
  Mg  Mg23  1  0.48005004  0.24011816  0.48533776  1
  Bi  Bi0  1  0.00000000  0.50000000  0.00000000  1
  Bi  Bi1  1  0.00000000  0.00000000  0.50000000  1
  Bi  Bi2  1  0.50000000  0.00000000  0.00000000  1
  Bi  Bi3  1  0.50000000  0.50000000  0.50000000  1
  Bi  Bi4  1  0.26342612  0.75000000  0.51342612  1
  Bi  Bi5  1  0.23657388  0.25000000  0.98657388  1
  Bi  Bi6  1  0.75000000  0.51342612  0.26342612  1
  Bi  Bi7  1  0.25000000  0.98657388  0.23657388  1
  Bi  Bi8  1  0.51342612  0.26342612  0.75000000  1
  Bi  Bi9  1  0.98657388  0.23657388  0.25000000  1
  Bi  Bi10  1  0.73657388  0.25000000  0.48657388  1
  Bi  Bi11  1  0.76342612  0.75000000  0.01342612  1
  Bi  Bi12  1  0.25000000  0.48657388  0.73657388  1
  Bi  Bi13  1  0.75000000  0.01342612  0.76342612  1
  Bi  Bi14  1  0.48657388  0.73657388  0.25000000  1
  Bi  Bi15  1  0.01342612  0.76342612  0.75000000  1
loop_
_geom_bond_atom_site_label_1
_geom_bond_atom_site_label_2
_geom_bond_distance
_geom_bond_site_symmetry_2
Bi0 Mg22 2.934706 1_455
Bi0 Mg17 2.934714 1_555
Bi0 Mg10 2.934717 1_554
Bi0 Mg5 2.934718 1_454
Bi0 Mg12 2.934718 1_555
Bi0 Mg0 2.934718 1_454
Bi1 Mg18 2.934706 1_545
Bi1 Mg13 2.934714 1_555
Bi1 Mg6 2.934717 1_455
Bi1 Mg1 2.934718 1_445
Bi1 Mg20 2.934718 1_555
Bi1 Mg8 2.934718 1_445
Bi2 Mg14 2.934706 1_554
Bi2 Mg21 2.934714 1_555
Bi2 Mg2 2.934717 1_545
Bi2 Mg9 2.934718 1_544
Bi2 Mg16 2.934718 1_555
Bi2 Mg4 2.934718 1_544
Bi3 Mg3 2.934718 1_555
Bi3 Mg15 2.934718 1_555
Bi3 Mg7 2.934718 1_555
Bi3 Mg11 2.934718 1_555
Bi3 Mg23 2.934718 1_555
Bi3 Mg19 2.934718 1_555
Bi4 Mg17 2.888057 1_555
Bi4 Mg18 2.888066 1_555
Bi4 Mg15 2.916269 1_555
Bi4 Mg14 2.916273 1_565
Bi4 Mg9 2.982507 1_555
Bi4 Mg11 2.982507 1_555
Bi5 Mg19 2.888061 1_556
Bi5 Mg16 2.888061 1_556
Bi5 Mg12 2.916269 1_556
Bi5 Mg13 2.916281 1_555
Bi5 Mg8 2.982507 1_445
Bi5 Mg10 2.982507 1_555
Bi6 Mg21 2.888057 1_555
Bi6 Mg22 2.888066 1_555
Bi6 Mg19 2.916269 1_555
Bi6 Mg18 2.916273 1_655
Bi6 Mg1 2.982507 1_555
Bi6 Mg3 2.982507 1_555
Bi7 Mg23 2.888061 1_565
Bi7 Mg20 2.888061 1_565
Bi7 Mg16 2.916269 1_565
Bi7 Mg17 2.916281 1_555
Bi7 Mg0 2.982507 1_454
Bi7 Mg2 2.982507 1_555
Bi8 Mg13 2.888057 1_555
Bi8 Mg14 2.888066 1_555
Bi8 Mg23 2.916269 1_555
Bi8 Mg22 2.916273 1_556
Bi8 Mg5 2.982507 1_555
Bi8 Mg7 2.982507 1_555
Bi9 Mg15 2.888061 1_655
Bi9 Mg12 2.888061 1_655
Bi9 Mg20 2.916269 1_655
Bi9 Mg21 2.916281 1_555
Bi9 Mg4 2.982507 1_544
Bi9 Mg6 2.982507 1_555
Bi10 Mg5 2.888061 1_555
Bi10 Mg6 2.888061 1_555
Bi10 Mg3 2.916269 1_555
Bi10 Mg2 2.916269 1_545
Bi10 Mg21 2.982503 1_555
Bi10 Mg23 2.982507 1_555
Bi11 Mg7 2.888061 1_554
Bi11 Mg4 2.888061 1_554
Bi11 Mg0 2.916269 1_554
Bi11 Mg1 2.916269 1_555
Bi11 Mg20 2.982507 1_665
Bi11 Mg22 2.982510 1_555
Bi12 Mg9 2.888061 1_555
Bi12 Mg10 2.888061 1_555
Bi12 Mg7 2.916269 1_555
Bi12 Mg6 2.916269 1_455
Bi12 Mg13 2.982503 1_555
Bi12 Mg15 2.982507 1_555
Bi13 Mg11 2.888061 1_545
Bi13 Mg8 2.888061 1_545
Bi13 Mg4 2.916269 1_545
Bi13 Mg5 2.916269 1_555
Bi13 Mg12 2.982507 1_656
Bi13 Mg14 2.982510 1_555
Bi14 Mg1 2.888061 1_555
Bi14 Mg2 2.888061 1_555
Bi14 Mg11 2.916269 1_555
Bi14 Mg10 2.916269 1_554
Bi14 Mg17 2.982503 1_555
Bi14 Mg19 2.982507 1_555
Bi15 Mg3 2.888061 1_455
Bi15 Mg0 2.888061 1_455
Bi15 Mg8 2.916269 1_455
Bi15 Mg9 2.916269 1_555
Bi15 Mg16 2.982507 1_566
Bi15 Mg18 2.982510 1_555
