# generated using pymatgen
data_MnV(Co2Si)2
_symmetry_space_group_name_H-M   'P 1'
_cell_length_a   6.87182292
_cell_length_b   6.87182292
_cell_length_c   6.87182247
_cell_angle_alpha   33.60739597
_cell_angle_beta   33.60739597
_cell_angle_gamma   33.60740424
_symmetry_Int_Tables_number   1
_chemical_formula_structural   MnV(Co2Si)2
_chemical_formula_sum   'Mn1 V1 Co4 Si2'
_cell_volume   88.55812649
_cell_formula_units_Z   1
loop_
 _symmetry_equiv_pos_site_id
 _symmetry_equiv_pos_as_xyz
  1  'x, y, z'
loop_
 _atom_site_type_symbol
 _atom_site_label
 _atom_site_symmetry_multiplicity
 _atom_site_fract_x
 _atom_site_fract_y
 _atom_site_fract_z
 _atom_site_occupancy
  Mn  Mn0  1  0.00000000  0.00000000  -0.00000000  1
  V  V0  1  0.50000000  0.50000000  0.50000000  1
  Co  Co0  1  0.62382103  0.62382103  0.62382103  1
  Co  Co1  1  0.12565289  0.12565289  0.12565289  1
  Co  Co2  1  0.87434711  0.87434711  0.87434711  1
  Co  Co3  1  0.37617897  0.37617897  0.37617897  1
  Si  Si0  1  0.25077631  0.25077631  0.25077631  1
  Si  Si1  1  0.74922369  0.74922369  0.74922369  1
loop_
_geom_bond_atom_site_label_1
_geom_bond_atom_site_label_2
_geom_bond_distance
_geom_bond_site_symmetry_2
Mn0 Si1 2.799279 1_445
Mn0 Si0 2.799279 1_554
Mn0 Si1 2.799279 1_454
Mn0 Si0 2.799279 1_545
Mn0 Si1 2.799279 1_544
Mn0 Si0 2.799279 1_455
Co0 V0 2.406205 1_555
Co0 Si0 2.420256 1_556
Co0 Si0 2.420256 1_655
Co0 Si0 2.420256 1_565
Co0 Si1 2.436940 1_555
Co0 Mn0 2.440359 1_665
Co0 Mn0 2.440360 1_566
Co0 Mn0 2.440360 1_656
Co1 V0 2.428444 1_554
Co1 V0 2.428445 1_455
Co1 V0 2.428445 1_545
Co1 Si0 2.431514 1_555
Co1 Mn0 2.441803 1_555
Co1 Si1 2.442023 1_445
Co1 Si1 2.442023 1_454
Co1 Si1 2.442023 1_544
Co2 V0 2.428444 1_556
Co2 V0 2.428445 1_655
Co2 V0 2.428445 1_565
Co2 Si1 2.431514 1_555
Co2 Mn0 2.441803 1_666
Co2 Si0 2.442023 1_665
Co2 Si0 2.442023 1_656
Co2 Si0 2.442023 1_566
Co3 V0 2.406205 1_555
Co3 Si1 2.420256 1_554
Co3 Si1 2.420256 1_545
Co3 Si1 2.420256 1_455
Co3 Si0 2.436940 1_555
Co3 Mn0 2.440359 1_556
Co3 Mn0 2.440360 1_565
Co3 Mn0 2.440360 1_655
Si0 V0 2.816679 1_554
Si0 V0 2.816680 1_455
Si0 V0 2.816680 1_545
Si1 V0 2.816679 1_556
Si1 V0 2.816680 1_655
Si1 V0 2.816680 1_565
