# generated using pymatgen
data_NaTi3F7
_symmetry_space_group_name_H-M   'P 1'
_cell_length_a   7.27291809
_cell_length_b   7.27291809
_cell_length_c   7.68833963
_cell_angle_alpha   58.79453314
_cell_angle_beta   58.79453314
_cell_angle_gamma   60.09178783
_symmetry_Int_Tables_number   1
_chemical_formula_structural   NaTi3F7
_chemical_formula_sum   'Na2 Ti6 F14'
_cell_volume   282.40053650
_cell_formula_units_Z   2
loop_
 _symmetry_equiv_pos_site_id
 _symmetry_equiv_pos_as_xyz
  1  'x, y, z'
loop_
 _atom_site_type_symbol
 _atom_site_label
 _atom_site_symmetry_multiplicity
 _atom_site_fract_x
 _atom_site_fract_y
 _atom_site_fract_z
 _atom_site_occupancy
  Na  Na0  1  0.50000000  0.50000000  0.00000000  1
  Na  Na1  1  0.50000000  0.50000000  0.50000000  1
  Ti  Ti0  1  0.50000000  0.00000000  0.00000000  1
  Ti  Ti1  1  0.00000000  0.50000000  0.50000000  1
  Ti  Ti2  1  0.00000000  0.00000000  0.50000000  1
  Ti  Ti3  1  0.00000000  0.00000000  0.00000000  1
  Ti  Ti4  1  0.00000000  0.50000000  0.00000000  1
  Ti  Ti5  1  0.50000000  0.00000000  0.50000000  1
  F  F0  1  0.86318300  0.13681700  0.25000000  1
  F  F1  1  0.13681700  0.86318300  0.75000000  1
  F  F2  1  0.35737600  0.33933000  0.42469700  1
  F  F3  1  0.66067000  0.64262400  0.07530300  1
  F  F4  1  0.64262400  0.66067000  0.57530300  1
  F  F5  1  0.33933000  0.35737600  0.92469700  1
  F  F6  1  0.37306900  0.95709000  0.82874800  1
  F  F7  1  0.04291000  0.62693100  0.67125200  1
  F  F8  1  0.14482900  0.68852200  0.17943100  1
  F  F9  1  0.31147800  0.85517100  0.32056900  1
  F  F10  1  0.85517100  0.31147800  0.82056900  1
  F  F11  1  0.68852200  0.14482900  0.67943100  1
  F  F12  1  0.95709000  0.37306900  0.32874800  1
  F  F13  1  0.62693100  0.04291000  0.17125200  1
loop_
_geom_bond_atom_site_label_1
_geom_bond_atom_site_label_2
_geom_bond_distance
_geom_bond_site_symmetry_2
F0 Ti3 2.165018 1_655
F0 Ti2 2.165018 1_655
F0 Ti4 2.653276 1_655
F0 Ti5 2.653276 1_555
F1 Ti3 2.165018 1_566
F1 Ti2 2.165018 1_565
F1 Ti5 2.653276 1_565
F1 Ti4 2.653276 1_556
F2 Ti5 2.022542 1_555
F2 Ti1 2.137586 1_555
F2 Na1 2.304069 1_555
F2 Na0 2.616958 1_555
F3 Ti4 2.022542 1_655
F3 Ti0 2.137586 1_565
F3 Na0 2.304069 1_555
F3 Na1 2.616958 1_555
F4 Ti5 2.022542 1_565
F4 Ti1 2.137586 1_655
F4 Na1 2.304069 1_555
F4 Na0 2.616958 1_556
F5 Ti4 2.022542 1_556
F5 Ti0 2.137586 1_556
F5 Na0 2.304069 1_556
F5 Na1 2.616958 1_555
F6 Ti5 2.095264 1_565
F6 Ti0 2.157716 1_566
F6 Ti3 2.252215 1_566
F6 Na0 2.701999 1_556
F7 Ti4 2.095264 1_556
F7 Ti1 2.157716 1_555
F7 Ti2 2.252215 1_565
F7 Na1 2.701999 1_555
F8 Ti3 2.008061 1_565
F8 Ti1 2.076617 1_555
F8 Na0 2.278397 1_555
F9 Ti2 2.008061 1_565
F9 Ti0 2.076617 1_565
F9 Na1 2.278397 1_555
F10 Ti3 2.008061 1_656
F10 Ti1 2.076617 1_655
F10 Na0 2.278397 1_556
F11 Ti2 2.008061 1_655
F11 Ti0 2.076617 1_556
F11 Na1 2.278397 1_555
F12 Ti4 2.095264 1_655
F12 Ti1 2.157716 1_655
F12 Ti2 2.252215 1_655
F12 Na1 2.701999 1_555
F13 Ti5 2.095264 1_555
F13 Ti0 2.157716 1_555
F13 Ti3 2.252215 1_655
F13 Na0 2.701999 1_555
