# generated using pymatgen
data_Na3CoN2
_symmetry_space_group_name_H-M   'P 1'
_cell_length_a   9.29923800
_cell_length_b   10.73783458
_cell_length_c   10.73783517
_cell_angle_alpha   90.00000072
_cell_angle_beta   125.26438951
_cell_angle_gamma   54.73560826
_symmetry_Int_Tables_number   1
_chemical_formula_structural   Na3CoN2
_chemical_formula_sum   'Na24 Co8 N16'
_cell_volume   619.04206815
_cell_formula_units_Z   8
loop_
 _symmetry_equiv_pos_site_id
 _symmetry_equiv_pos_as_xyz
  1  'x, y, z'
loop_
 _atom_site_type_symbol
 _atom_site_label
 _atom_site_symmetry_multiplicity
 _atom_site_fract_x
 _atom_site_fract_y
 _atom_site_fract_z
 _atom_site_occupancy
  Na  Na0  1  0.18670400  0.06651500  0.95173500  1
  Na  Na1  1  0.81329600  0.75321900  0.54826500  1
  Na  Na2  1  0.81329600  0.43348500  0.76503200  1
  Na  Na3  1  0.18670400  0.74678100  0.73496800  1
  Na  Na4  1  0.28323300  0.76503200  0.30148400  1
  Na  Na5  1  0.71676700  0.73496800  0.01825000  1
  Na  Na6  1  0.28323300  0.95173500  0.48175000  1
  Na  Na7  1  0.71676700  0.54826500  0.19851600  1
  Na  Na8  1  0.68026600  0.01825000  0.74678100  1
  Na  Na9  1  0.68026600  0.30148400  0.43348500  1
  Na  Na10  1  0.31973400  0.19851600  0.75321900  1
  Na  Na11  1  0.31973400  0.48175000  0.06651500  1
  Na  Na12  1  0.81329600  0.93348500  0.04826500  1
  Na  Na13  1  0.18670400  0.24678100  0.45173500  1
  Na  Na14  1  0.18670400  0.56651500  0.23496800  1
  Na  Na15  1  0.81329600  0.25321900  0.26503200  1
  Na  Na16  1  0.71676700  0.23496800  0.69851600  1
  Na  Na17  1  0.28323300  0.26503200  0.98175000  1
  Na  Na18  1  0.71676700  0.04826500  0.51825000  1
  Na  Na19  1  0.28323300  0.45173500  0.80148400  1
  Na  Na20  1  0.31973400  0.98175000  0.25321900  1
  Na  Na21  1  0.31973400  0.69851600  0.56651500  1
  Na  Na22  1  0.68026600  0.80148400  0.24678100  1
  Na  Na23  1  0.68026600  0.51825000  0.93348500  1
  Co  Co0  1  0.20432100  0.00000000  0.70432100  1
  Co  Co1  1  0.79567900  0.70432100  0.79567900  1
  Co  Co2  1  0.79567900  0.50000000  0.50000000  1
  Co  Co3  1  0.20432100  0.79567900  0.00000000  1
  Co  Co4  1  0.79567900  0.00000000  0.29567900  1
  Co  Co5  1  0.20432100  0.29567900  0.20432100  1
  Co  Co6  1  0.20432100  0.50000000  0.50000000  1
  Co  Co7  1  0.79567900  0.20432100  0.00000000  1
  N  N0  1  0.00000000  0.00000000  0.50000000  1
  N  N1  1  0.00000000  0.50000000  0.00000000  1
  N  N2  1  0.00000000  0.50000000  0.50000000  1
  N  N3  1  0.00000000  0.00000000  0.00000000  1
  N  N4  1  0.50000000  0.92697100  0.75000000  1
  N  N5  1  0.50000000  0.57302900  0.25000000  1
  N  N6  1  0.00000000  0.25000000  0.67697100  1
  N  N7  1  0.00000000  0.75000000  0.82302900  1
  N  N8  1  0.64605900  0.67697100  0.57302900  1
  N  N9  1  0.35394100  0.82302900  0.92697100  1
  N  N10  1  0.50000000  0.07302900  0.25000000  1
  N  N11  1  0.50000000  0.42697100  0.75000000  1
  N  N12  1  0.00000000  0.75000000  0.32302900  1
  N  N13  1  0.00000000  0.25000000  0.17697100  1
  N  N14  1  0.35394100  0.32302900  0.42697100  1
  N  N15  1  0.64605900  0.17697100  0.07302900  1
loop_
_geom_bond_atom_site_label_1
_geom_bond_atom_site_label_2
_geom_bond_distance
_geom_bond_site_symmetry_2
Co0 N0 1.900030 1_555
Co0 N6 2.090155 1_555
Co0 N4 2.090155 1_545
Co0 N9 2.090160 1_545
Co1 N1 1.900030 1_656
Co1 N8 2.090154 1_555
Co1 N4 2.090155 1_555
Co1 N7 2.090155 1_655
Co2 N2 1.900030 1_655
Co2 N8 2.090151 1_555
Co2 N6 2.090155 1_655
Co2 N5 2.090155 1_555
Co3 N3 1.900029 1_565
Co3 N9 2.090146 1_554
Co3 N5 2.090155 1_555
Co3 N7 2.090155 1_554
Co4 N0 1.900030 1_655
Co4 N12 2.090155 1_645
Co4 N10 2.090155 1_555
Co4 N15 2.090160 1_555
Co5 N1 1.900030 1_555
Co5 N14 2.090154 1_555
Co5 N10 2.090155 1_555
Co5 N13 2.090155 1_555
Co6 N2 1.900030 1_555
Co6 N14 2.090151 1_555
Co6 N12 2.090155 1_555
Co6 N11 2.090155 1_555
Co7 N3 1.900029 1_655
Co7 N15 2.090146 1_555
Co7 N11 2.090155 1_554
Co7 N13 2.090155 1_655
N0 Na6 2.502792 1_545
N0 Na18 2.502792 1_455
N0 Na15 2.502794 1_455
N0 Na3 2.502794 1_545
N0 Na9 2.502801 1_455
N0 Na21 2.502801 1_545
N1 Na17 2.502792 1_554
N1 Na5 2.502792 1_455
N1 Na14 2.502794 1_555
N1 Na2 2.502794 1_454
N1 Na11 2.502801 1_555
N1 Na23 2.502801 1_454
N2 Na19 2.502799 1_555
N2 Na7 2.502799 1_455
N2 Na13 2.502801 1_555
N2 Na1 2.502801 1_455
N2 Na22 2.502801 1_455
N2 Na10 2.502801 1_555
N3 Na16 2.502799 1_454
N3 Na4 2.502799 1_545
N3 Na0 2.502801 1_554
N3 Na12 2.502801 1_445
N3 Na20 2.502801 1_545
N3 Na8 2.502801 1_454
N4 Na5 2.259964 1_556
N4 Na6 2.259964 1_555
N4 Na10 2.395015 1_565
N4 Na8 2.395015 1_565
N5 Na4 2.259972 1_555
N5 Na7 2.259972 1_555
N5 Na9 2.395015 1_555
N5 Na11 2.395015 1_555
N6 Na10 2.259963 1_555
N6 Na9 2.259963 1_455
N6 Na0 2.395015 1_555
N6 Na2 2.395024 1_455
N7 Na8 2.259963 1_465
N7 Na11 2.259963 1_556
N7 Na1 2.395016 1_455
N7 Na3 2.395024 1_555
N8 Na1 2.259954 1_555
N8 Na2 2.259973 1_555
N8 Na4 2.395020 1_555
N8 Na6 2.395024 1_555
N9 Na0 2.259962 1_565
N9 Na3 2.259965 1_555
N9 Na7 2.395015 1_556
N9 Na5 2.395029 1_556
N10 Na17 2.259964 1_554
N10 Na18 2.259964 1_555
N10 Na22 2.395015 1_545
N10 Na20 2.395015 1_545
N11 Na16 2.259972 1_555
N11 Na19 2.259972 1_555
N11 Na21 2.395015 1_555
N11 Na23 2.395015 1_555
N12 Na22 2.259963 1_455
N12 Na21 2.259963 1_555
N12 Na12 2.395015 1_455
N12 Na14 2.395024 1_555
N13 Na20 2.259963 1_545
N13 Na23 2.259963 1_454
N13 Na13 2.395016 1_555
N13 Na15 2.395024 1_455
N14 Na13 2.259954 1_555
N14 Na14 2.259973 1_555
N14 Na16 2.395020 1_555
N14 Na18 2.395024 1_555
N15 Na12 2.259962 1_545
N15 Na15 2.259965 1_555
N15 Na19 2.395015 1_554
N15 Na17 2.395029 1_554
