# generated using pymatgen
data_TiCrCuS4
_symmetry_space_group_name_H-M   'P 1'
_cell_length_a   5.85443300
_cell_length_b   6.84777300
_cell_length_c   12.33087400
_cell_angle_alpha   90.00000000
_cell_angle_beta   90.00000000
_cell_angle_gamma   90.00000000
_symmetry_Int_Tables_number   1
_chemical_formula_structural   TiCrCuS4
_chemical_formula_sum   'Ti4 Cr4 Cu4 S16'
_cell_volume   494.34262056
_cell_formula_units_Z   4
loop_
 _symmetry_equiv_pos_site_id
 _symmetry_equiv_pos_as_xyz
  1  'x, y, z'
loop_
 _atom_site_type_symbol
 _atom_site_label
 _atom_site_symmetry_multiplicity
 _atom_site_fract_x
 _atom_site_fract_y
 _atom_site_fract_z
 _atom_site_occupancy
  Ti  Ti0  1  0.50000000  0.25000000  0.25000000  1
  Ti  Ti1  1  0.50000000  0.75000000  0.75000000  1
  Ti  Ti2  1  0.50000000  0.75000000  0.25000000  1
  Ti  Ti3  1  0.50000000  0.25000000  0.75000000  1
  Cr  Cr0  1  0.99525900  0.00000000  0.24601200  1
  Cr  Cr1  1  0.99525900  0.00000000  0.75398800  1
  Cr  Cr2  1  0.00474100  0.50000000  0.25398800  1
  Cr  Cr3  1  0.00474100  0.50000000  0.74601200  1
  Cu  Cu0  1  0.35656200  0.00000000  0.00000000  1
  Cu  Cu1  1  0.64343800  0.50000000  0.50000000  1
  Cu  Cu2  1  0.03277200  0.00000000  0.50000000  1
  Cu  Cu3  1  0.96722800  0.50000000  0.00000000  1
  S  S0  1  0.83871100  0.25109000  0.36533700  1
  S  S1  1  0.83871100  0.74891000  0.63466300  1
  S  S2  1  0.16128900  0.75109000  0.13466300  1
  S  S3  1  0.16128900  0.24891000  0.86533700  1
  S  S4  1  0.16128900  0.24891000  0.13466300  1
  S  S5  1  0.16128900  0.75109000  0.86533700  1
  S  S6  1  0.83871100  0.74891000  0.36533700  1
  S  S7  1  0.83871100  0.25109000  0.63466300  1
  S  S8  1  0.66053100  0.00000000  0.13510500  1
  S  S9  1  0.66053100  0.00000000  0.86489500  1
  S  S10  1  0.33946900  0.50000000  0.36489500  1
  S  S11  1  0.33946900  0.50000000  0.63510500  1
  S  S12  1  0.32252100  0.00000000  0.36175600  1
  S  S13  1  0.32252100  0.00000000  0.63824400  1
  S  S14  1  0.67747900  0.50000000  0.13824400  1
  S  S15  1  0.67747900  0.50000000  0.86175600  1
loop_
_geom_bond_atom_site_label_1
_geom_bond_atom_site_label_2
_geom_bond_distance
_geom_bond_site_symmetry_2
Cr0 S12 2.389094 1_655
Cr0 S8 2.389660 1_555
Cr0 S2 2.394842 1_645
Cr0 S4 2.394842 1_655
Cr0 S0 2.441577 1_555
Cr0 S6 2.441577 1_545
Cr1 S13 2.389094 1_655
Cr1 S9 2.389660 1_555
Cr1 S5 2.394842 1_645
Cr1 S3 2.394842 1_655
Cr1 S7 2.441577 1_555
Cr1 S1 2.441577 1_545
Cr2 S14 2.389094 1_455
Cr2 S10 2.389660 1_555
Cr2 S6 2.394842 1_455
Cr2 S0 2.394842 1_455
Cr2 S4 2.441577 1_555
Cr2 S2 2.441577 1_555
Cr3 S15 2.389094 1_455
Cr3 S11 2.389660 1_555
Cr3 S1 2.394842 1_455
Cr3 S7 2.394842 1_455
Cr3 S5 2.441577 1_555
Cr3 S3 2.441577 1_555
Cu0 S8 2.437681 1_555
Cu0 S9 2.437681 1_554
Cu0 S5 2.639978 1_544
Cu0 S3 2.639978 1_554
Cu0 S4 2.639978 1_555
Cu0 S2 2.639978 1_545
Cu1 S10 2.437681 1_555
Cu1 S11 2.437681 1_555
Cu1 S0 2.639978 1_555
Cu1 S6 2.639978 1_555
Cu1 S1 2.639978 1_555
Cu1 S7 2.639978 1_555
Cu2 S12 2.404867 1_555
Cu2 S13 2.404867 1_555
Cu2 S0 2.646587 1_455
Cu2 S7 2.646587 1_455
Cu2 S1 2.646587 1_445
Cu2 S6 2.646587 1_445
Cu3 S15 2.404867 1_554
Cu3 S14 2.404867 1_555
Cu3 S3 2.646587 1_654
Cu3 S5 2.646587 1_654
Cu3 S4 2.646587 1_655
Cu3 S2 2.646587 1_655
S0 Ti0 2.440258 1_555
S1 Ti1 2.440258 1_555
S2 Ti2 2.440258 1_555
S3 Ti3 2.440258 1_555
S4 Ti0 2.440258 1_555
S5 Ti1 2.440258 1_555
S6 Ti2 2.440258 1_555
S7 Ti3 2.440258 1_555
S8 Ti0 2.412717 1_555
S8 Ti2 2.412717 1_545
S9 Ti3 2.412717 1_555
S9 Ti1 2.412717 1_545
S10 Ti0 2.412717 1_555
S10 Ti2 2.412717 1_555
S11 Ti1 2.412717 1_555
S11 Ti3 2.412717 1_555
S12 Ti0 2.430920 1_555
S12 Ti2 2.430920 1_545
S13 Ti1 2.430920 1_545
S13 Ti3 2.430920 1_555
S14 Ti2 2.430920 1_555
S14 Ti0 2.430920 1_555
S15 Ti3 2.430920 1_555
S15 Ti1 2.430920 1_555
