# generated using pymatgen
data_YCo2(B2Rh)2
_symmetry_space_group_name_H-M   'P 1'
_cell_length_a   5.21898600
_cell_length_b   5.21898600
_cell_length_c   7.24045800
_cell_angle_alpha   90.00000000
_cell_angle_beta   90.00000000
_cell_angle_gamma   90.00000000
_symmetry_Int_Tables_number   1
_chemical_formula_structural   YCo2(B2Rh)2
_chemical_formula_sum   'Y2 Co4 B8 Rh4'
_cell_volume   197.21425456
_cell_formula_units_Z   2
loop_
 _symmetry_equiv_pos_site_id
 _symmetry_equiv_pos_as_xyz
  1  'x, y, z'
loop_
 _atom_site_type_symbol
 _atom_site_label
 _atom_site_symmetry_multiplicity
 _atom_site_fract_x
 _atom_site_fract_y
 _atom_site_fract_z
 _atom_site_occupancy
  Y  Y0  1  0.50000000  0.00000000  0.25646900  1
  Y  Y1  1  0.00000000  0.50000000  0.75646900  1
  Co  Co0  1  0.75200100  0.50000000  0.10729000  1
  Co  Co1  1  0.24799900  0.50000000  0.10729000  1
  Co  Co2  1  0.50000000  0.75200100  0.60729000  1
  Co  Co3  1  0.50000000  0.24799900  0.60729000  1
  B  B0  1  0.33594000  0.50000000  0.40474000  1
  B  B1  1  0.66406000  0.50000000  0.40474000  1
  B  B2  1  0.50000000  0.33594000  0.90474000  1
  B  B3  1  0.50000000  0.66406000  0.90474000  1
  B  B4  1  0.18354000  0.00000000  0.59423200  1
  B  B5  1  0.81646000  0.00000000  0.59423200  1
  B  B6  1  0.00000000  0.18354000  0.09423200  1
  B  B7  1  0.00000000  0.81646000  0.09423200  1
  Rh  Rh0  1  0.74696900  0.00000000  0.89050400  1
  Rh  Rh1  1  0.25303100  0.00000000  0.89050400  1
  Rh  Rh2  1  0.00000000  0.74696900  0.39050400  1
  Rh  Rh3  1  0.00000000  0.25303100  0.39050400  1
loop_
_geom_bond_atom_site_label_1
_geom_bond_atom_site_label_2
_geom_bond_distance
_geom_bond_site_symmetry_2
Co0 Y1 2.850851 1_654
Co0 Y0 3.115421 1_555
Co0 Y0 3.115421 1_565
Co1 Y1 2.850851 1_554
Co1 Y0 3.115421 1_555
Co1 Y0 3.115421 1_565
Co2 Y0 2.850851 1_565
Co2 Y1 3.115421 1_555
Co2 Y1 3.115421 1_655
Co3 Y0 2.850851 1_555
Co3 Y1 3.115421 1_555
Co3 Y1 3.115421 1_655
B0 B1 1.712454 1_555
B0 Co2 2.147937 1_555
B0 Co3 2.147937 1_555
B0 Rh2 2.178509 1_555
B0 Rh3 2.178509 1_555
B0 Co1 2.202035 1_555
B0 Y0 2.948743 1_555
B0 Y0 2.948743 1_565
B0 Y1 3.091847 1_555
B1 Co2 2.147937 1_555
B1 Co3 2.147937 1_555
B1 Rh3 2.178509 1_655
B1 Rh2 2.178509 1_655
B1 Co0 2.202035 1_555
B1 Y0 2.948743 1_555
B1 Y0 2.948743 1_565
B1 Y1 3.091847 1_655
B2 B3 1.712454 1_555
B2 Co0 2.147937 1_556
B2 Co1 2.147937 1_556
B2 Rh1 2.178509 1_555
B2 Rh0 2.178509 1_555
B2 Co3 2.202035 1_555
B2 Y1 2.948743 1_555
B2 Y1 2.948743 1_655
B2 Y0 3.091847 1_556
B3 Co0 2.147937 1_556
B3 Co1 2.147937 1_556
B3 Rh0 2.178509 1_565
B3 Rh1 2.178509 1_565
B3 Co2 2.202035 1_555
B3 Y1 2.948743 1_555
B3 Y1 2.948743 1_655
B3 Y0 3.091847 1_566
B4 B5 1.915785 1_455
B4 Co3 2.100463 1_555
B4 Co2 2.100463 1_545
B4 Rh1 2.175587 1_555
B4 Rh2 2.199392 1_545
B4 Rh3 2.199392 1_555
B4 Y0 2.951024 1_555
B4 Y1 3.017758 1_545
B4 Y1 3.017758 1_555
B5 Co3 2.100463 1_555
B5 Co2 2.100463 1_545
B5 Rh0 2.175587 1_555
B5 Rh3 2.199392 1_655
B5 Rh2 2.199392 1_645
B5 Y0 2.951024 1_555
B5 Y1 3.017758 1_655
B5 Y1 3.017758 1_645
B6 B7 1.915785 1_545
B6 Co1 2.100463 1_555
B6 Co0 2.100463 1_455
B6 Rh3 2.175587 1_555
B6 Rh1 2.199392 1_554
B6 Rh0 2.199392 1_454
B6 Y1 2.951024 1_554
B6 Y0 3.017758 1_455
B6 Y0 3.017758 1_555
B7 Co1 2.100463 1_555
B7 Co0 2.100463 1_455
B7 Rh2 2.175587 1_555
B7 Rh1 2.199392 1_564
B7 Rh0 2.199392 1_464
B7 Y1 2.951024 1_554
B7 Y0 3.017758 1_465
B7 Y0 3.017758 1_565
Rh0 Y0 2.946614 1_556
Rh0 Y1 3.081423 1_655
Rh0 Y1 3.081423 1_645
Rh1 Y0 2.946614 1_556
Rh1 Y1 3.081423 1_555
Rh1 Y1 3.081423 1_545
Rh2 Y1 2.946614 1_555
Rh2 Y0 3.081423 1_565
Rh2 Y0 3.081423 1_465
Rh3 Y1 2.946614 1_555
Rh3 Y0 3.081423 1_455
Rh3 Y0 3.081423 1_555
