# generated using pymatgen
data_K2Na4Be2O5
_symmetry_space_group_name_H-M   'P 1'
_cell_length_a   5.99768500
_cell_length_b   5.99768500
_cell_length_c   10.12044100
_cell_angle_alpha   90.00000000
_cell_angle_beta   90.00000000
_cell_angle_gamma   90.00000000
_symmetry_Int_Tables_number   1
_chemical_formula_structural   K2Na4Be2O5
_chemical_formula_sum   'K4 Na8 Be4 O10'
_cell_volume   364.05478439
_cell_formula_units_Z   2
loop_
 _symmetry_equiv_pos_site_id
 _symmetry_equiv_pos_as_xyz
  1  'x, y, z'
loop_
 _atom_site_type_symbol
 _atom_site_label
 _atom_site_symmetry_multiplicity
 _atom_site_fract_x
 _atom_site_fract_y
 _atom_site_fract_z
 _atom_site_occupancy
  K  K0  1  0.31973900  0.31973900  0.00000000  1
  K  K1  1  0.18026100  0.81973900  0.50000000  1
  K  K2  1  0.81973900  0.18026100  0.50000000  1
  K  K3  1  0.68026100  0.68026100  0.00000000  1
  Na  Na0  1  0.50000000  0.00000000  0.75000000  1
  Na  Na1  1  0.50000000  0.00000000  0.25000000  1
  Na  Na2  1  0.00000000  0.50000000  0.75000000  1
  Na  Na3  1  0.00000000  0.50000000  0.25000000  1
  Na  Na4  1  0.00000000  0.00000000  0.22559900  1
  Na  Na5  1  0.50000000  0.50000000  0.72559900  1
  Na  Na6  1  0.50000000  0.50000000  0.27440100  1
  Na  Na7  1  0.00000000  0.00000000  0.77440100  1
  Be  Be0  1  0.68697300  0.68697300  0.50000000  1
  Be  Be1  1  0.31302700  0.31302700  0.50000000  1
  Be  Be2  1  0.81302700  0.18697300  0.00000000  1
  Be  Be3  1  0.18697300  0.81302700  0.00000000  1
  O  O0  1  0.22634900  0.22634900  0.36320300  1
  O  O1  1  0.27365100  0.72634900  0.86320300  1
  O  O2  1  0.77365100  0.77365100  0.63679700  1
  O  O3  1  0.72634900  0.27365100  0.13679700  1
  O  O4  1  0.27365100  0.72634900  0.13679700  1
  O  O5  1  0.22634900  0.22634900  0.63679700  1
  O  O6  1  0.77365100  0.77365100  0.36320300  1
  O  O7  1  0.00000000  0.00000000  0.00000000  1
  O  O8  1  0.72634900  0.27365100  0.86320300  1
  O  O9  1  0.50000000  0.50000000  0.50000000  1
loop_
_geom_bond_atom_site_label_1
_geom_bond_atom_site_label_2
_geom_bond_distance
_geom_bond_site_symmetry_2
K0 O7 2.712029 1_555
K0 O8 2.817880 1_554
K0 O1 2.817880 1_554
K0 O3 2.817880 1_555
K0 O4 2.817880 1_555
K1 O9 2.712029 1_555
K1 O5 2.817880 1_565
K1 O0 2.817880 1_565
K1 O2 2.817880 1_455
K1 O6 2.817880 1_455
K2 O9 2.712029 1_555
K2 O5 2.817880 1_655
K2 O0 2.817880 1_655
K2 O2 2.817880 1_545
K2 O6 2.817880 1_545
K3 O7 2.712029 1_665
K3 O8 2.817880 1_554
K3 O1 2.817880 1_554
K3 O3 2.817880 1_555
K3 O4 2.817880 1_555
Na0 O5 2.418536 1_555
Na0 O1 2.418536 1_545
Na0 O8 2.418536 1_555
Na0 O2 2.418536 1_545
Na1 O0 2.418536 1_555
Na1 O3 2.418536 1_555
Na1 O6 2.418536 1_545
Na1 O4 2.418536 1_545
Na2 O5 2.418536 1_555
Na2 O1 2.418536 1_555
Na2 O8 2.418536 1_455
Na2 O2 2.418536 1_455
Na3 O0 2.418536 1_555
Na3 O3 2.418536 1_455
Na3 O4 2.418536 1_555
Na3 O6 2.418536 1_455
Na4 O7 2.283161 1_555
Na4 O0 2.371785 1_555
Na4 O6 2.371785 1_445
Na4 O3 2.489024 1_455
Na4 O4 2.489024 1_545
Na5 O9 2.283161 1_555
Na5 O1 2.371785 1_555
Na5 O8 2.371785 1_555
Na5 O5 2.489024 1_555
Na5 O2 2.489024 1_555
Na6 O9 2.283161 1_555
Na6 O3 2.371785 1_555
Na6 O4 2.371785 1_555
Na6 O6 2.489024 1_555
Na6 O0 2.489024 1_555
Na7 O7 2.283161 1_556
Na7 O5 2.371785 1_555
Na7 O2 2.371785 1_445
Na7 O1 2.489024 1_545
Na7 O8 2.489024 1_455
Be0 O2 1.567551 1_555
Be0 O6 1.567551 1_555
Be0 O9 1.585906 1_555
Be1 O5 1.567551 1_555
Be1 O0 1.567551 1_555
Be1 O9 1.585906 1_555
Be2 O8 1.567551 1_554
Be2 O3 1.567551 1_555
Be2 O7 1.585906 1_655
Be3 O1 1.567551 1_554
Be3 O4 1.567551 1_555
Be3 O7 1.585906 1_565
