# generated using pymatgen
data_Ca(WO2)2
_symmetry_space_group_name_H-M   'P 1'
_cell_length_a   5.57331730
_cell_length_b   5.57331730
_cell_length_c   10.51292700
_cell_angle_alpha   90.00000000
_cell_angle_beta   90.00000000
_cell_angle_gamma   145.99579196
_symmetry_Int_Tables_number   1
_chemical_formula_structural   Ca(WO2)2
_chemical_formula_sum   'Ca2 W4 O8'
_cell_volume   182.62495536
_cell_formula_units_Z   2
loop_
 _symmetry_equiv_pos_site_id
 _symmetry_equiv_pos_as_xyz
  1  'x, y, z'
loop_
 _atom_site_type_symbol
 _atom_site_label
 _atom_site_symmetry_multiplicity
 _atom_site_fract_x
 _atom_site_fract_y
 _atom_site_fract_z
 _atom_site_occupancy
  Ca  Ca0  1  0.61515100  0.38484900  0.75000000  1
  Ca  Ca1  1  0.38484900  0.61515100  0.25000000  1
  W  W0  1  0.13235000  0.86765000  0.07145900  1
  W  W1  1  0.86765000  0.13235000  0.92854100  1
  W  W2  1  0.13235000  0.86765000  0.42854100  1
  W  W3  1  0.86765000  0.13235000  0.57145900  1
  O  O0  1  0.76332000  0.23668000  0.38959500  1
  O  O1  1  0.23668000  0.76332000  0.61040500  1
  O  O2  1  0.23668000  0.76332000  0.88959500  1
  O  O3  1  0.76332000  0.23668000  0.11040500  1
  O  O4  1  0.03412500  0.96587500  0.25000000  1
  O  O5  1  0.96587500  0.03412500  0.75000000  1
  O  O6  1  0.50000000  0.50000000  0.00000000  1
  O  O7  1  0.50000000  0.50000000  0.50000000  1
loop_
_geom_bond_atom_site_label_1
_geom_bond_atom_site_label_2
_geom_bond_distance
_geom_bond_site_symmetry_2
Ca0 O5 2.277667 1_455
Ca0 O5 2.277667 1_565
Ca0 O2 2.547097 1_545
Ca0 O1 2.547097 1_655
Ca0 O1 2.547097 1_545
Ca0 O2 2.547097 1_655
Ca0 O7 2.900729 1_555
Ca0 O6 2.900729 1_556
Ca1 O4 2.277667 1_545
Ca1 O4 2.277667 1_655
Ca1 O3 2.547097 1_565
Ca1 O0 2.547097 1_565
Ca1 O3 2.547097 1_455
Ca1 O0 2.547097 1_455
Ca1 O7 2.900729 1_555
Ca1 O6 2.900729 1_555
O0 W2 2.184603 1_545
O0 W2 2.184603 1_655
O0 W3 2.211836 1_555
O1 W3 2.184603 1_565
O1 W3 2.184603 1_455
O1 W2 2.211836 1_555
O2 W1 2.184603 1_455
O2 W1 2.184603 1_565
O2 W0 2.211836 1_556
O3 W0 2.184603 1_655
O3 W0 2.184603 1_545
O3 W1 2.211836 1_554
O4 W2 2.149267 1_555
O4 W0 2.149267 1_555
O5 W1 2.149267 1_555
O5 W3 2.149267 1_555
O6 W1 2.282654 1_454
O6 W1 2.282654 1_564
O6 W0 2.282654 1_655
O6 W0 2.282654 1_545
O7 W3 2.282654 1_455
O7 W3 2.282654 1_565
O7 W2 2.282654 1_545
O7 W2 2.282654 1_655
