# generated using pymatgen
data_Ti3O
_symmetry_space_group_name_H-M   'P 1'
_cell_length_a   10.92681232
_cell_length_b   12.39319603
_cell_length_c   10.67671259
_cell_angle_alpha   90.83643734
_cell_angle_beta   87.43812070
_cell_angle_gamma   83.63747214
_symmetry_Int_Tables_number   1
_chemical_formula_structural   Ti3O
_chemical_formula_sum   'Ti75 O25'
_cell_volume   1435.20053704
_cell_formula_units_Z   25
loop_
 _symmetry_equiv_pos_site_id
 _symmetry_equiv_pos_as_xyz
  1  'x, y, z'
loop_
 _atom_site_type_symbol
 _atom_site_label
 _atom_site_symmetry_multiplicity
 _atom_site_fract_x
 _atom_site_fract_y
 _atom_site_fract_z
 _atom_site_occupancy
  Ti  Ti0  1  0.54263359  0.93374745  0.49067455  1
  Ti  Ti1  1  0.13456120  0.04845153  0.60304741  1
  Ti  Ti2  1  0.69147961  0.53123301  0.56609950  1
  Ti  Ti3  1  0.85313661  0.65263781  0.14836403  1
  Ti  Ti4  1  0.50849979  0.29988109  0.59995672  1
  Ti  Ti5  1  0.16087092  0.31050186  0.94545622  1
  Ti  Ti6  1  0.57301705  0.55066326  0.34444878  1
  Ti  Ti7  1  0.98733874  0.25214478  0.17182548  1
  Ti  Ti8  1  0.69995733  0.79230046  0.83894173  1
  Ti  Ti9  1  0.23197913  0.81805517  0.19086123  1
  Ti  Ti10  1  0.03356607  0.75816831  0.74392356  1
  Ti  Ti11  1  0.76178916  0.92011946  0.62520909  1
  Ti  Ti12  1  0.11970195  0.53070452  0.79138857  1
  Ti  Ti13  1  0.08966898  0.63215370  0.27087534  1
  Ti  Ti14  1  0.26499034  0.35999437  0.66350290  1
  Ti  Ti15  1  0.90275655  0.25467279  0.41930283  1
  Ti  Ti16  1  0.96923011  0.69249918  0.49230810  1
  Ti  Ti17  1  0.95113016  0.85037457  0.27652435  1
  Ti  Ti18  1  0.68944692  0.55888324  0.87052468  1
  Ti  Ti19  1  0.87401078  0.04613873  0.13735083  1
  Ti  Ti20  1  0.29474449  0.68067867  0.71435693  1
  Ti  Ti21  1  0.74938507  0.33600001  0.67211788  1
  Ti  Ti22  1  0.30367957  0.47808123  0.98451707  1
  Ti  Ti23  1  0.98926019  0.90573190  0.55352339  1
  Ti  Ti24  1  0.96120113  0.17718122  0.93567773  1
  Ti  Ti25  1  0.22498733  0.87905630  0.83682883  1
  Ti  Ti26  1  0.05047379  0.48195714  0.07980183  1
  Ti  Ti27  1  0.71980742  0.73893644  0.39074579  1
  Ti  Ti28  1  0.93754090  0.98417711  0.81870489  1
  Ti  Ti29  1  0.19175171  0.56740064  0.51075501  1
  Ti  Ti30  1  0.24926236  0.14617421  0.15420028  1
  Ti  Ti31  1  0.62407394  0.11563154  0.72918425  1
  Ti  Ti32  1  0.86810208  0.61234991  0.70583661  1
  Ti  Ti33  1  0.37113673  0.11398256  0.60914383  1
  Ti  Ti34  1  0.87414215  0.49517007  0.34422759  1
  Ti  Ti35  1  0.69715405  0.01390706  0.94885309  1
  Ti  Ti36  1  0.34843865  0.57611238  0.22185062  1
  Ti  Ti37  1  0.65798425  0.97823090  0.26426209  1
  Ti  Ti38  1  0.06622880  0.24739673  0.71338894  1
  Ti  Ti39  1  0.58286902  0.62014254  0.11930473  1
  Ti  Ti40  1  0.41539781  0.69008917  0.92854813  1
  Ti  Ti41  1  0.11739064  0.38976596  0.30648143  1
  Ti  Ti42  1  0.65949287  0.15246045  0.46588991  1
  Ti  Ti43  1  0.33143463  0.98426497  0.34079688  1
  Ti  Ti44  1  0.91473136  0.39707321  0.85529968  1
  Ti  Ti45  1  0.39426853  0.69003171  0.44432835  1
  Ti  Ti46  1  0.42419805  0.24306927  0.89821728  1
  Ti  Ti47  1  0.69434477  0.25268922  0.94281179  1
  Ti  Ti48  1  0.91212084  0.60711217  0.92790405  1
  Ti  Ti49  1  0.43817801  0.51398583  0.59627134  1
  Ti  Ti50  1  0.87410313  0.12863236  0.63704156  1
  Ti  Ti51  1  0.17157340  0.22911723  0.45505893  1
  Ti  Ti52  1  0.89108084  0.84193013  0.01025276  1
  Ti  Ti53  1  0.26197351  0.09242188  0.86800192  1
  Ti  Ti54  1  0.42805468  0.18261817  0.35537187  1
  Ti  Ti55  1  0.53787496  0.73827755  0.64268030  1
  Ti  Ti56  1  0.47580617  0.93501570  0.77789830  1
  Ti  Ti57  1  0.39264227  0.93543562  0.04772880  1
  Ti  Ti58  1  0.16429040  0.79888223  0.42202156  1
  Ti  Ti59  1  0.77627150  0.43618993  0.11165814  1
  Ti  Ti60  1  0.51821391  0.14096096  0.10789547  1
  Ti  Ti61  1  0.65124629  0.82308110  0.07928079  1
  Ti  Ti62  1  0.72831399  0.21810517  0.20954999  1
  Ti  Ti63  1  0.12509505  0.69756996  0.98091107  1
  Ti  Ti64  1  0.09357274  -0.00603559  0.04252588  1
  Ti  Ti65  1  0.49405496  0.80687229  0.26957727  1
  Ti  Ti66  1  0.84970058  0.03038047  0.40454300  1
  Ti  Ti67  1  0.33052369  0.87403971  0.57429674  1
  Ti  Ti68  1  0.08693453  0.02840495  0.32243120  1
  Ti  Ti69  1  0.52698710  0.40696709  0.11823177  1
  Ti  Ti70  1  0.99586298  0.41952478  0.57353395  1
  Ti  Ti71  1  0.52548988  0.43697898  0.82575476  1
  Ti  Ti72  1  0.66153333  0.36757147  0.39505307  1
  Ti  Ti73  1  0.32434363  0.32204385  0.15629842  1
  Ti  Ti74  1  0.36250042  0.40128875  0.40477616  1
  O  O0  1  0.02902805  0.75771441  0.13811217  1
  O  O1  1  0.81802891  0.39906026  0.50331062  1
  O  O2  1  0.58172035  0.27812928  0.77413614  1
  O  O3  1  0.44273643  0.10313522  0.78171885  1
  O  O4  1  0.82466096  0.34376364  0.26572589  1
  O  O5  1  0.59190561  0.13747586  0.27854082  1
  O  O6  1  0.07894531  0.91358885  0.71020812  1
  O  O7  1  0.22203092  0.50829793  0.33454942  1
  O  O8  1  0.28879342  0.98800330  0.71041243  1
  O  O9  1  0.19339926  0.58290380  0.11138286  1
  O  O10  1  0.38206946  0.09749349  0.00998457  1
  O  O11  1  0.26214690  0.60552152  0.87892146  1
  O  O12  1  0.56334624  0.90722025  0.93685655  1
  O  O13  1  0.66447301  0.81259481  0.54816331  1
  O  O14  1  0.05544387  0.86145516  0.92664424  1
  O  O15  1  0.90109151  0.68221652  0.31815911  1
  O  O16  1  0.22875046  0.98455719  0.17340766  1
  O  O17  1  0.59759996  0.69714526  0.95433270  1
  O  O18  1  0.34656415  0.26117615  0.51262223  1
  O  O19  1  0.46658671  0.60016581  0.76037940  1
  O  O20  1  0.28040919  0.80443577  0.00443808  1
  O  O21  1  0.04053535  0.59045467  0.62988256  1
  O  O22  1  0.68791418  0.65467155  0.71735318  1
  O  O23  1  0.82327768  0.61487118  0.51319963  1
  O  O24  1  0.72832305  0.39538457  0.86766420  1
loop_
_geom_bond_atom_site_label_1
_geom_bond_atom_site_label_2
_geom_bond_distance
_geom_bond_site_symmetry_2
Ti0 Ti65 2.918081 1_555
Ti1 Ti38 2.730007 1_555
Ti1 Ti50 2.913601 1_455
Ti2 Ti6 2.748678 1_555
Ti3 Ti48 2.453376 1_554
Ti5 Ti53 2.898316 1_555
Ti5 Ti73 2.947075 1_556
Ti5 Ti7 3.147231 1_456
Ti6 Ti72 2.443820 1_555
Ti6 Ti69 3.072361 1_555
Ti6 Ti74 3.159010 1_555
Ti6 Ti65 3.315751 1_555
Ti10 Ti48 3.090152 1_455
Ti11 Ti66 2.919471 1_565
Ti11 Ti50 2.984471 1_565
Ti12 Ti48 2.711816 1_455
Ti12 Ti5 3.206372 1_555
Ti13 Ti58 2.816433 1_555
Ti14 Ti38 2.745504 1_555
Ti14 Ti5 3.261148 1_555
Ti15 Ti50 2.844599 1_555
Ti15 Ti66 2.905201 1_555
Ti16 Ti58 2.711627 1_655
Ti17 Ti66 2.701995 1_565
Ti17 Ti58 2.875474 1_655
Ti17 Ti19 2.927162 1_565
Ti18 Ti48 2.664115 1_555
Ti19 Ti64 2.572695 1_655
Ti19 Ti62 2.600208 1_555
Ti19 Ti52 2.837891 1_545
Ti19 Ti66 2.864754 1_555
Ti19 Ti37 2.881637 1_545
Ti19 Ti35 2.905107 1_554
Ti19 Ti24 2.905698 1_554
Ti19 Ti7 2.983472 1_555
Ti19 Ti68 3.110689 1_655
Ti20 Ti45 3.043888 1_555
Ti21 Ti50 2.784254 1_555
Ti22 Ti73 2.682936 1_556
Ti22 Ti5 2.770083 1_555
Ti22 Ti69 2.939421 1_556
Ti23 Ti58 2.554772 1_655
Ti23 Ti66 2.647333 1_565
Ti23 Ti50 3.011135 1_565
Ti24 Ti7 2.712256 1_556
Ti24 Ti28 2.725184 1_545
Ti24 Ti38 2.782990 1_655
Ti24 Ti64 2.836283 1_656
Ti24 Ti44 2.867290 1_555
Ti24 Ti5 2.883616 1_655
Ti24 Ti47 2.959257 1_555
Ti24 Ti50 3.431641 1_555
Ti26 Ti48 2.663508 1_454
Ti26 Ti5 2.686240 1_554
Ti27 Ti65 2.885157 1_555
Ti27 Ti6 3.021257 1_555
Ti28 Ti50 2.719186 1_565
Ti29 Ti45 2.888958 1_555
Ti29 Ti58 3.021843 1_555
Ti30 Ti73 2.412611 1_555
Ti30 Ti5 3.152214 1_554
Ti31 Ti50 2.884380 1_555
Ti32 Ti48 2.440591 1_555
Ti34 Ti6 3.285883 1_555
Ti36 Ti6 2.821742 1_555
Ti36 Ti45 2.837489 1_555
Ti36 Ti69 2.873562 1_555
Ti37 Ti66 2.757103 1_565
Ti37 Ti65 2.925622 1_555
Ti38 Ti70 2.683935 1_455
Ti38 Ti44 2.736787 1_455
Ti38 Ti50 2.835630 1_455
Ti38 Ti5 2.858652 1_555
Ti38 Ti51 2.936605 1_555
Ti38 Ti53 3.238256 1_555
Ti39 Ti6 2.566928 1_555
Ti39 Ti69 2.776694 1_555
Ti39 Ti65 2.850615 1_555
Ti41 Ti73 2.757726 1_555
Ti42 Ti66 2.487989 1_555
Ti42 Ti50 3.028327 1_555
Ti43 Ti65 2.744715 1_555
Ti43 Ti58 3.195722 1_555
Ti44 Ti48 2.701898 1_555
Ti44 Ti5 2.988848 1_655
Ti45 Ti6 2.635829 1_555
Ti45 Ti65 2.648335 1_555
Ti45 Ti67 2.660880 1_555
Ti45 Ti58 2.739140 1_555
Ti45 Ti49 2.750079 1_555
Ti45 Ti55 2.787952 1_555
Ti46 Ti5 2.925200 1_555
Ti46 Ti69 3.392266 1_556
Ti47 Ti69 3.053184 1_556
Ti48 Ti63 2.769482 1_655
Ti48 Ti52 3.008946 1_556
Ti48 Ti8 3.259626 1_555
Ti48 Ti59 3.331281 1_556
Ti49 Ti6 3.071834 1_555
Ti50 Ti66 2.785423 1_555
Ti57 Ti65 3.054569 1_555
Ti58 Ti9 2.566627 1_555
Ti58 Ti67 2.721191 1_555
Ti58 Ti68 3.093882 1_565
Ti59 Ti69 2.785306 1_555
Ti59 Ti6 3.439162 1_555
Ti60 Ti69 3.309040 1_555
Ti61 Ti65 2.625813 1_555
Ti62 Ti69 3.222661 1_555
Ti65 Ti9 3.009423 1_555
Ti66 Ti68 2.696457 1_655
Ti69 Ti73 2.573775 1_555
Ti69 Ti71 3.150706 1_554
Ti69 Ti72 3.377345 1_555
Ti69 Ti74 3.483919 1_555
O0 Ti17 1.961744 1_455
O0 Ti63 2.026581 1_554
O0 Ti13 2.188508 1_555
O0 Ti52 2.258706 1_455
O0 Ti3 2.437559 1_455
O0 Ti9 2.502219 1_555
O1 Ti15 2.091734 1_555
O1 Ti2 2.104215 1_555
O1 Ti21 2.114678 1_555
O1 Ti70 2.153194 1_555
O1 Ti72 2.173422 1_555
O1 Ti34 2.192569 1_555
O2 Ti71 2.055921 1_555
O2 Ti31 2.060469 1_555
O2 Ti4 2.066633 1_555
O2 Ti46 2.210235 1_555
O2 Ti47 2.232890 1_555
O2 Ti21 2.278770 1_555
O3 Ti33 2.034176 1_555
O3 Ti31 2.058128 1_555
O3 Ti56 2.074295 1_545
O3 Ti46 2.105306 1_555
O3 Ti53 2.160225 1_555
O4 Ti62 2.070219 1_555
O4 Ti59 2.072676 1_555
O4 Ti15 2.145924 1_555
O4 Ti34 2.176044 1_555
O4 Ti7 2.194117 1_555
O4 Ti72 2.195981 1_555
O5 Ti54 1.955663 1_555
O5 Ti62 2.004033 1_555
O5 Ti60 2.023712 1_555
O5 Ti37 2.026088 1_545
O5 Ti42 2.175452 1_555
O6 Ti23 1.982750 1_455
O6 Ti28 2.001330 1_455
O6 Ti10 2.074005 1_555
O6 Ti25 2.148406 1_555
O6 Ti1 2.165786 1_565
O7 Ti41 1.986230 1_555
O7 Ti29 2.008897 1_555
O7 Ti36 2.049438 1_555
O7 Ti74 2.087482 1_555
O7 Ti13 2.129880 1_555
O8 Ti67 2.013156 1_555
O8 Ti25 2.075710 1_555
O8 Ti53 2.097559 1_565
O8 Ti1 2.152513 1_565
O8 Ti33 2.165608 1_565
O8 Ti56 2.230273 1_555
O9 Ti13 2.049568 1_555
O9 Ti36 2.101901 1_555
O9 Ti22 2.104788 1_554
O9 Ti63 2.105385 1_554
O9 Ti26 2.141398 1_555
O10 Ti60 1.973883 1_555
O10 Ti57 2.045932 1_545
O10 Ti53 2.053607 1_554
O10 Ti30 2.102322 1_555
O10 Ti46 2.255806 1_554
O11 Ti22 1.977463 1_555
O11 Ti20 2.036391 1_555
O11 Ti63 2.041823 1_555
O11 Ti12 2.140175 1_555
O11 Ti40 2.152989 1_555
O12 Ti56 2.000777 1_555
O12 Ti61 2.068092 1_556
O12 Ti35 2.083883 1_565
O12 Ti57 2.156077 1_556
O12 Ti8 2.166875 1_555
O13 Ti27 1.940536 1_555
O13 Ti11 1.985798 1_555
O13 Ti55 1.991210 1_555
O13 Ti0 2.015061 1_555
O14 Ti52 2.010024 1_456
O14 Ti25 2.082309 1_555
O14 Ti64 2.130633 1_566
O14 Ti63 2.184331 1_555
O14 Ti28 2.247365 1_455
O14 Ti10 2.353323 1_555
O15 Ti3 1.950250 1_555
O15 Ti16 2.040976 1_555
O15 Ti13 2.121363 1_655
O15 Ti27 2.134659 1_555
O15 Ti17 2.257773 1_555
O15 Ti34 2.387590 1_555
O16 Ti30 2.052190 1_565
O16 Ti9 2.071147 1_555
O16 Ti64 2.073427 1_565
O16 Ti43 2.152077 1_555
O16 Ti68 2.189931 1_565
O16 Ti57 2.213109 1_555
O17 Ti39 2.024050 1_556
O17 Ti40 2.033212 1_555
O17 Ti18 2.058587 1_555
O17 Ti8 2.090690 1_555
O17 Ti61 2.184281 1_556
O18 Ti54 2.045969 1_555
O18 Ti33 2.105435 1_555
O18 Ti51 2.111390 1_555
O18 Ti14 2.112213 1_555
O18 Ti74 2.116327 1_555
O18 Ti4 2.133781 1_555
O19 Ti49 2.091536 1_555
O19 Ti20 2.108156 1_555
O19 Ti40 2.119493 1_555
O19 Ti71 2.187339 1_555
O19 Ti55 2.320871 1_555
O20 Ti9 2.036271 1_555
O20 Ti40 2.058327 1_554
O20 Ti25 2.108412 1_554
O20 Ti57 2.196220 1_555
O20 Ti63 2.285569 1_554
O21 Ti32 2.006222 1_455
O21 Ti29 2.031344 1_555
O21 Ti12 2.073324 1_555
O21 Ti16 2.074143 1_455
O21 Ti70 2.303458 1_455
O21 Ti10 2.385633 1_555
O22 Ti32 1.978459 1_555
O22 Ti18 2.034378 1_555
O22 Ti55 2.039972 1_555
O22 Ti8 2.147605 1_555
O22 Ti2 2.204249 1_555
O23 Ti2 1.934589 1_555
O23 Ti16 1.957856 1_555
O23 Ti32 2.135309 1_555
O23 Ti27 2.270950 1_555
O23 Ti34 2.326747 1_555
O24 Ti47 2.017255 1_555
O24 Ti18 2.023219 1_555
O24 Ti44 2.037672 1_555
O24 Ti21 2.197300 1_555
O24 Ti71 2.284773 1_555
O24 Ti59 2.731083 1_556
