# generated using pymatgen
data_Mg29Pd4
_symmetry_space_group_name_H-M   'P 1'
_cell_length_a   14.29819299
_cell_length_b   14.29819299
_cell_length_c   14.29819299
_cell_angle_alpha   60.00000000
_cell_angle_beta   60.00000000
_cell_angle_gamma   60.00000000
_symmetry_Int_Tables_number   1
_chemical_formula_structural   Mg29Pd4
_chemical_formula_sum   'Mg87 Pd12'
_cell_volume   2066.94283646
_cell_formula_units_Z   3
loop_
 _symmetry_equiv_pos_site_id
 _symmetry_equiv_pos_as_xyz
  1  'x, y, z'
loop_
 _atom_site_type_symbol
 _atom_site_label
 _atom_site_symmetry_multiplicity
 _atom_site_fract_x
 _atom_site_fract_y
 _atom_site_fract_z
 _atom_site_occupancy
  Mg  Mg0  1  0.05831778  0.83976694  0.83976694  1
  Mg  Mg1  1  0.26214834  0.83976694  0.83976694  1
  Mg  Mg2  1  0.83976694  0.26214834  0.05831778  1
  Mg  Mg3  1  0.83976694  0.83976694  0.05831778  1
  Mg  Mg4  1  0.83976694  0.05831778  0.26214834  1
  Mg  Mg5  1  0.83976694  0.83976694  0.26214834  1
  Mg  Mg6  1  0.26214834  0.05831778  0.83976694  1
  Mg  Mg7  1  0.05831778  0.26214834  0.83976694  1
  Mg  Mg8  1  0.83976694  0.05831778  0.83976694  1
  Mg  Mg9  1  0.05831778  0.83976694  0.26214834  1
  Mg  Mg10  1  0.26214834  0.83976694  0.05831778  1
  Mg  Mg11  1  0.83976694  0.26214834  0.83976694  1
  Mg  Mg12  1  0.20878833  0.47892818  0.47892818  1
  Mg  Mg13  1  0.83335531  0.47892818  0.47892818  1
  Mg  Mg14  1  0.47892818  0.83335531  0.20878833  1
  Mg  Mg15  1  0.47892818  0.47892818  0.20878833  1
  Mg  Mg16  1  0.47892818  0.20878833  0.83335531  1
  Mg  Mg17  1  0.47892818  0.47892818  0.83335531  1
  Mg  Mg18  1  0.83335531  0.20878833  0.47892818  1
  Mg  Mg19  1  0.20878833  0.83335531  0.47892818  1
  Mg  Mg20  1  0.47892818  0.20878833  0.47892818  1
  Mg  Mg21  1  0.20878833  0.47892818  0.83335531  1
  Mg  Mg22  1  0.83335531  0.47892818  0.20878833  1
  Mg  Mg23  1  0.47892818  0.83335531  0.47892818  1
  Mg  Mg24  1  0.57786996  0.22951544  0.22951544  1
  Mg  Mg25  1  0.96309917  0.22951544  0.22951544  1
  Mg  Mg26  1  0.22951544  0.96309917  0.57786996  1
  Mg  Mg27  1  0.22951544  0.22951544  0.57786996  1
  Mg  Mg28  1  0.22951544  0.57786996  0.96309917  1
  Mg  Mg29  1  0.22951544  0.22951544  0.96309917  1
  Mg  Mg30  1  0.96309917  0.57786996  0.22951544  1
  Mg  Mg31  1  0.57786996  0.96309917  0.22951544  1
  Mg  Mg32  1  0.22951544  0.57786996  0.22951544  1
  Mg  Mg33  1  0.57786996  0.22951544  0.96309917  1
  Mg  Mg34  1  0.96309917  0.22951544  0.57786996  1
  Mg  Mg35  1  0.22951544  0.96309917  0.22951544  1
  Mg  Mg36  1  0.85526095  0.85526095  0.64473905  1
  Mg  Mg37  1  0.64473905  0.64473905  0.85526095  1
  Mg  Mg38  1  0.85526095  0.64473905  0.85526095  1
  Mg  Mg39  1  0.64473905  0.85526095  0.64473905  1
  Mg  Mg40  1  0.64473905  0.85526095  0.85526095  1
  Mg  Mg41  1  0.85526095  0.64473905  0.64473905  1
  Mg  Mg42  1  0.63065983  0.98185791  0.98185791  1
  Mg  Mg43  1  0.40562436  0.98185791  0.98185791  1
  Mg  Mg44  1  0.98185791  0.40562436  0.63065983  1
  Mg  Mg45  1  0.98185791  0.98185791  0.63065983  1
  Mg  Mg46  1  0.98185791  0.63065983  0.40562436  1
  Mg  Mg47  1  0.98185791  0.98185791  0.40562436  1
  Mg  Mg48  1  0.40562436  0.63065983  0.98185791  1
  Mg  Mg49  1  0.63065983  0.40562436  0.98185791  1
  Mg  Mg50  1  0.98185791  0.63065983  0.98185791  1
  Mg  Mg51  1  0.63065983  0.98185791  0.40562436  1
  Mg  Mg52  1  0.40562436  0.98185791  0.63065983  1
  Mg  Mg53  1  0.98185791  0.40562436  0.98185791  1
  Mg  Mg54  1  0.08427236  0.08427236  0.08427236  1
  Mg  Mg55  1  0.74718292  0.08427236  0.08427236  1
  Mg  Mg56  1  0.08427236  0.74718292  0.08427236  1
  Mg  Mg57  1  0.08427236  0.08427236  0.74718292  1
  Mg  Mg58  1  0.44636807  0.44636807  0.44636807  1
  Mg  Mg59  1  0.66089579  0.44636807  0.44636807  1
  Mg  Mg60  1  0.44636807  0.66089579  0.44636807  1
  Mg  Mg61  1  0.44636807  0.44636807  0.66089579  1
  Mg  Mg62  1  0.37167973  0.37167973  0.12832027  1
  Mg  Mg63  1  0.12832027  0.12832027  0.37167973  1
  Mg  Mg64  1  0.37167973  0.12832027  0.37167973  1
  Mg  Mg65  1  0.12832027  0.37167973  0.12832027  1
  Mg  Mg66  1  0.12832027  0.37167973  0.37167973  1
  Mg  Mg67  1  0.37167973  0.12832027  0.12832027  1
  Mg  Mg68  1  0.68385093  0.68385093  0.31614907  1
  Mg  Mg69  1  0.31614907  0.31614907  0.68385093  1
  Mg  Mg70  1  0.68385093  0.31614907  0.68385093  1
  Mg  Mg71  1  0.31614907  0.68385093  0.31614907  1
  Mg  Mg72  1  0.31614907  0.68385093  0.68385093  1
  Mg  Mg73  1  0.68385093  0.31614907  0.31614907  1
  Mg  Mg74  1  -0.00000000  0.00000000  -0.00000000  1
  Mg  Mg75  1  0.06981491  0.71566844  0.71566844  1
  Mg  Mg76  1  0.49884820  0.71566844  0.71566844  1
  Mg  Mg77  1  0.71566844  0.49884820  0.06981491  1
  Mg  Mg78  1  0.71566844  0.71566844  0.06981491  1
  Mg  Mg79  1  0.71566844  0.06981491  0.49884820  1
  Mg  Mg80  1  0.71566844  0.71566844  0.49884820  1
  Mg  Mg81  1  0.49884820  0.06981491  0.71566844  1
  Mg  Mg82  1  0.06981491  0.49884820  0.71566844  1
  Mg  Mg83  1  0.71566844  0.06981491  0.71566844  1
  Mg  Mg84  1  0.06981491  0.71566844  0.49884820  1
  Mg  Mg85  1  0.49884820  0.71566844  0.06981491  1
  Mg  Mg86  1  0.71566844  0.49884820  0.71566844  1
  Pd  Pd0  1  0.58204378  0.58204378  0.58204378  1
  Pd  Pd1  1  0.25386866  0.58204378  0.58204378  1
  Pd  Pd2  1  0.58204378  0.25386866  0.58204378  1
  Pd  Pd3  1  0.58204378  0.58204378  0.25386866  1
  Pd  Pd4  1  0.34318705  0.34318705  0.34318705  1
  Pd  Pd5  1  0.97043886  0.34318705  0.34318705  1
  Pd  Pd6  1  0.34318705  0.97043886  0.34318705  1
  Pd  Pd7  1  0.34318705  0.34318705  0.97043886  1
  Pd  Pd8  1  0.85133671  0.85133671  0.85133671  1
  Pd  Pd9  1  0.44598986  0.85133671  0.85133671  1
  Pd  Pd10  1  0.85133671  0.44598986  0.85133671  1
  Pd  Pd11  1  0.85133671  0.85133671  0.44598986  1
loop_
_geom_bond_atom_site_label_1
_geom_bond_atom_site_label_2
_geom_bond_distance
_geom_bond_site_symmetry_2
Mg0 Pd8 2.803806 1_455
Mg0 Mg57 3.207837 1_565
Mg0 Mg56 3.207837 1_556
Mg1 Pd9 2.803806 1_555
Mg1 Mg57 3.207837 1_565
Mg1 Mg56 3.207837 1_556
Mg2 Pd10 2.803806 1_554
Mg2 Mg54 3.207837 1_655
Mg2 Mg55 3.207837 1_555
Mg3 Pd8 2.803806 1_554
Mg3 Mg56 3.207837 1_655
Mg3 Mg55 3.207837 1_565
Mg4 Pd11 2.803806 1_545
Mg4 Mg54 3.207837 1_655
Mg4 Mg55 3.207837 1_555
Mg5 Pd11 2.803806 1_555
Mg5 Mg56 3.207837 1_655
Mg5 Mg55 3.207837 1_565
Mg6 Pd9 2.803806 1_545
Mg7 Pd10 2.803806 1_455
Mg8 Pd8 2.803806 1_545
Mg9 Pd11 2.803806 1_455
Mg10 Pd9 2.803806 1_554
Mg10 Mg54 3.207837 1_565
Mg10 Mg56 3.207837 1_555
Mg11 Pd10 2.803806 1_555
Mg11 Mg57 3.207837 1_655
Mg11 Mg55 3.207837 1_556
Mg12 Pd4 2.744848 1_555
Mg12 Pd1 2.972776 1_555
Mg13 Pd5 2.744848 1_555
Mg13 Pd0 2.972776 1_555
Mg14 Pd6 2.744848 1_555
Mg14 Pd3 2.972776 1_555
Mg15 Pd4 2.744848 1_555
Mg15 Pd3 2.972776 1_555
Mg16 Pd7 2.744848 1_555
Mg16 Pd2 2.972776 1_555
Mg17 Pd7 2.744848 1_555
Mg17 Pd0 2.972776 1_555
Mg18 Pd5 2.744848 1_555
Mg18 Pd2 2.972776 1_555
Mg19 Pd6 2.744848 1_555
Mg19 Pd1 2.972776 1_555
Mg20 Pd4 2.744848 1_555
Mg20 Pd2 2.972776 1_555
Mg21 Pd7 2.744848 1_555
Mg21 Pd1 2.972776 1_555
Mg22 Pd5 2.744848 1_555
Mg22 Pd3 2.972776 1_555
Mg23 Pd6 2.744848 1_555
Mg23 Pd0 2.972776 1_555
Mg24 Pd4 2.876966 1_555
Mg24 Mg55 2.957012 1_555
Mg25 Pd5 2.876966 1_555
Mg25 Mg54 2.957012 1_655
Mg26 Pd6 2.876966 1_555
Mg26 Mg57 2.957012 1_565
Mg27 Pd4 2.876966 1_555
Mg27 Mg57 2.957012 1_555
Mg28 Pd7 2.876966 1_555
Mg28 Mg56 2.957012 1_556
Mg29 Pd7 2.876966 1_555
Mg29 Mg54 2.957012 1_556
Mg30 Pd5 2.876966 1_555
Mg30 Mg56 2.957012 1_655
Mg31 Pd6 2.876966 1_555
Mg31 Mg55 2.957012 1_565
Mg32 Pd4 2.876966 1_555
Mg32 Mg56 2.957012 1_555
Mg33 Pd7 2.876966 1_555
Mg33 Mg55 2.957012 1_556
Mg34 Pd5 2.876966 1_555
Mg34 Mg57 2.957012 1_655
Mg35 Pd6 2.876966 1_555
Mg35 Mg54 2.957012 1_565
Mg36 Pd8 2.898950 1_555
Mg36 Pd11 2.898950 1_555
Mg37 Pd9 2.898950 1_555
Mg37 Pd10 2.898950 1_555
Mg38 Pd8 2.898950 1_555
Mg38 Pd10 2.898950 1_555
Mg39 Pd11 2.898950 1_555
Mg39 Pd9 2.898950 1_555
Mg40 Pd8 2.898950 1_555
Mg40 Pd9 2.898950 1_555
Mg41 Pd11 2.898950 1_555
Mg41 Pd10 2.898950 1_555
Mg42 Pd8 2.937213 1_555
Mg43 Pd9 2.937213 1_555
Mg44 Pd10 2.937213 1_555
Mg45 Pd8 2.937213 1_555
Mg46 Pd11 2.937213 1_555
Mg47 Pd11 2.937213 1_555
Mg48 Pd9 2.937213 1_555
Mg49 Pd10 2.937213 1_555
Mg50 Pd8 2.937213 1_555
Mg51 Pd11 2.937213 1_555
Mg52 Pd9 2.937213 1_555
Mg53 Pd10 2.937213 1_555
Mg54 Mg74 2.951494 1_555
Mg54 Mg6 3.207837 1_554
Mg54 Mg9 3.207837 1_545
Mg54 Mg7 3.207837 1_554
Mg55 Mg74 2.951494 1_655
Mg55 Mg8 3.207837 1_554
Mg56 Mg74 2.951494 1_565
Mg56 Mg9 3.207837 1_555
Mg57 Mg74 2.951494 1_556
Mg57 Mg8 3.207837 1_455
Mg57 Mg6 3.207837 1_555
Mg57 Mg7 3.207837 1_555
Mg58 Pd3 2.861237 1_555
Mg58 Pd1 2.861237 1_555
Mg58 Pd2 2.861237 1_555
Mg59 Pd3 2.861237 1_555
Mg59 Pd2 2.861237 1_555
Mg59 Pd0 2.861237 1_555
Mg60 Pd3 2.861237 1_555
Mg60 Pd1 2.861237 1_555
Mg60 Pd0 2.861237 1_555
Mg61 Pd1 2.861237 1_555
Mg61 Pd2 2.861237 1_555
Mg61 Pd0 2.861237 1_555
Mg62 Pd7 2.726383 1_554
Mg62 Pd4 2.726384 1_555
Mg63 Pd5 2.726383 1_455
Mg63 Pd6 2.726383 1_545
Mg64 Pd6 2.726383 1_545
Mg64 Pd4 2.726384 1_555
Mg65 Pd5 2.726383 1_455
Mg65 Pd7 2.726383 1_554
Mg66 Pd5 2.726383 1_455
Mg66 Pd4 2.726384 1_555
Mg67 Pd6 2.726383 1_545
Mg67 Pd7 2.726383 1_554
Mg68 Pd3 3.121270 1_555
Mg68 Pd0 3.121270 1_555
Mg69 Pd1 3.121270 1_555
Mg69 Pd2 3.121270 1_555
Mg70 Pd2 3.121270 1_555
Mg70 Pd0 3.121270 1_555
Mg71 Pd3 3.121270 1_555
Mg71 Pd1 3.121270 1_555
Mg72 Pd1 3.121270 1_555
Mg72 Pd0 3.121270 1_555
Mg73 Pd3 3.121270 1_555
Mg73 Pd2 3.121270 1_555
Mg75 Pd1 2.796538 1_555
Mg75 Pd8 2.987920 1_455
Mg76 Pd0 2.796538 1_555
Mg76 Pd9 2.987920 1_555
Mg77 Pd3 2.796538 1_555
Mg77 Pd10 2.987920 1_554
Mg78 Pd3 2.796538 1_555
Mg78 Pd8 2.987920 1_554
Mg79 Pd2 2.796538 1_555
Mg79 Pd11 2.987920 1_545
Mg80 Pd0 2.796538 1_555
Mg80 Pd11 2.987920 1_555
Mg81 Pd2 2.796538 1_555
Mg81 Pd9 2.987920 1_545
Mg82 Pd1 2.796538 1_555
Mg82 Pd10 2.987920 1_455
Mg83 Pd2 2.796538 1_555
Mg83 Pd8 2.987920 1_545
Mg84 Pd1 2.796538 1_555
Mg84 Pd11 2.987920 1_455
Mg85 Pd3 2.796538 1_555
Mg85 Pd9 2.987920 1_554
Mg86 Pd0 2.796538 1_555
Mg86 Pd10 2.987920 1_555
