# generated using pymatgen
data_ErTc2
_symmetry_space_group_name_H-M   'P 1'
_cell_length_a   5.31930937
_cell_length_b   5.31930937
_cell_length_c   8.80044831
_cell_angle_alpha   90.00000000
_cell_angle_beta   90.00000000
_cell_angle_gamma   120.00447263
_symmetry_Int_Tables_number   1
_chemical_formula_structural   ErTc2
_chemical_formula_sum   'Er4 Tc8'
_cell_volume   215.63852475
_cell_formula_units_Z   4
loop_
 _symmetry_equiv_pos_site_id
 _symmetry_equiv_pos_as_xyz
  1  'x, y, z'
loop_
 _atom_site_type_symbol
 _atom_site_label
 _atom_site_symmetry_multiplicity
 _atom_site_fract_x
 _atom_site_fract_y
 _atom_site_fract_z
 _atom_site_occupancy
  Er  Er0  1  0.66666330  0.33333670  0.56286965  1
  Er  Er1  1  0.33333670  0.66666330  0.43713035  1
  Er  Er2  1  0.33333670  0.66666330  0.06286965  1
  Er  Er3  1  0.66666330  0.33333670  0.93713035  1
  Tc  Tc0  1  -0.00000000  0.00000000  0.50000000  1
  Tc  Tc1  1  -0.00000000  0.00000000  -0.00000000  1
  Tc  Tc2  1  0.17168713  0.34336688  0.75000000  1
  Tc  Tc3  1  0.17168140  0.82831860  0.75000000  1
  Tc  Tc4  1  0.65663312  0.82831287  0.75000000  1
  Tc  Tc5  1  0.82831287  0.65663312  0.25000000  1
  Tc  Tc6  1  0.82831860  0.17168140  0.25000000  1
  Tc  Tc7  1  0.34336688  0.17168713  0.25000000  1
loop_
_geom_bond_atom_site_label_1
_geom_bond_atom_site_label_2
_geom_bond_distance
_geom_bond_site_symmetry_2
Er0 Tc0 3.120394 1_665
Er0 Tc0 3.120394 1_555
Er0 Tc0 3.120644 1_655
Er0 Tc3 3.128418 1_655
Er0 Tc3 3.128418 1_545
Er0 Tc2 3.128534 1_555
Er0 Tc4 3.128534 1_555
Er0 Tc2 3.128606 1_655
Er0 Tc4 3.128606 1_545
Er0 Tc7 3.130341 1_555
Er0 Tc5 3.130341 1_555
Er0 Tc6 3.130420 1_555
Er0 Er1 3.264277 1_545
Er0 Er1 3.264277 1_655
Er0 Er1 3.264385 1_555
Er0 Er3 3.293662 1_555
Er1 Tc0 3.120394 1_555
Er1 Tc0 3.120394 1_665
Er1 Tc0 3.120644 1_565
Er1 Tc6 3.128418 1_565
Er1 Tc6 3.128418 1_455
Er1 Tc7 3.128534 1_555
Er1 Tc5 3.128534 1_555
Er1 Tc5 3.128606 1_455
Er1 Tc7 3.128606 1_565
Er1 Tc4 3.130341 1_555
Er1 Tc2 3.130341 1_555
Er1 Tc3 3.130420 1_555
Er1 Er2 3.293662 1_555
Er2 Tc1 3.120394 1_665
Er2 Tc1 3.120394 1_555
Er2 Tc1 3.120644 1_565
Er2 Tc6 3.128418 1_565
Er2 Tc6 3.128418 1_455
Er2 Tc7 3.128534 1_555
Er2 Tc5 3.128534 1_555
Er2 Tc5 3.128606 1_455
Er2 Tc7 3.128606 1_565
Er2 Tc4 3.130341 1_554
Er2 Tc2 3.130341 1_554
Er2 Tc3 3.130420 1_554
Er2 Er3 3.264277 1_564
Er2 Er3 3.264277 1_454
Er2 Er3 3.264385 1_554
Er3 Tc1 3.120394 1_666
Er3 Tc1 3.120394 1_556
Er3 Tc1 3.120644 1_656
Er3 Tc3 3.128418 1_655
Er3 Tc3 3.128418 1_545
Er3 Tc2 3.128534 1_555
Er3 Tc4 3.128534 1_555
Er3 Tc2 3.128606 1_655
Er3 Tc4 3.128606 1_545
Er3 Tc7 3.130341 1_556
Er3 Tc5 3.130341 1_556
Er3 Tc6 3.130420 1_556
Tc0 Tc7 2.709663 1_555
Tc0 Tc2 2.709663 1_555
Tc0 Tc4 2.709663 1_445
Tc0 Tc5 2.709663 1_445
Tc0 Tc3 2.709715 1_545
Tc0 Tc6 2.709715 1_455
Tc1 Tc7 2.709663 1_555
Tc1 Tc2 2.709663 1_554
Tc1 Tc4 2.709663 1_444
Tc1 Tc5 2.709663 1_445
Tc1 Tc3 2.709715 1_544
Tc1 Tc6 2.709715 1_455
Tc2 Tc4 2.579403 1_555
Tc2 Tc3 2.579623 1_555
Tc2 Tc4 2.739546 1_445
Tc2 Tc3 2.739686 1_545
Tc3 Tc4 2.579623 1_555
Tc3 Tc4 2.739686 1_455
Tc5 Tc7 2.579403 1_555
Tc5 Tc6 2.579623 1_555
Tc5 Tc7 2.739546 1_665
Tc5 Tc6 2.739686 1_565
Tc6 Tc7 2.579623 1_555
Tc6 Tc7 2.739686 1_655
