# generated using pymatgen
data_LuTiGe
_symmetry_space_group_name_H-M   'P 1'
_cell_length_a   3.98496358
_cell_length_b   3.98496461
_cell_length_c   7.51817995
_cell_angle_alpha   90.00000000
_cell_angle_beta   90.00000000
_cell_angle_gamma   90.00000000
_symmetry_Int_Tables_number   1
_chemical_formula_structural   LuTiGe
_chemical_formula_sum   'Lu2 Ti2 Ge2'
_cell_volume   119.38823778
_cell_formula_units_Z   2
loop_
 _symmetry_equiv_pos_site_id
 _symmetry_equiv_pos_as_xyz
  1  'x, y, z'
loop_
 _atom_site_type_symbol
 _atom_site_label
 _atom_site_symmetry_multiplicity
 _atom_site_fract_x
 _atom_site_fract_y
 _atom_site_fract_z
 _atom_site_occupancy
  Lu  Lu0  1  0.75000000  0.75000000  0.34693080  1
  Lu  Lu1  1  0.25000000  0.25000000  0.65307020  1
  Ti  Ti0  1  0.25000000  0.75000000  0.99999900  1
  Ti  Ti1  1  0.75000000  0.25000000  -0.00000000  1
  Ge  Ge0  1  0.25000000  0.25000000  0.25176279  1
  Ge  Ge1  1  0.75000000  0.75000000  0.74823721  1
loop_
_geom_bond_atom_site_label_1
_geom_bond_atom_site_label_2
_geom_bond_distance
_geom_bond_site_symmetry_2
Ge0 Ti1 2.748212 1_555
Ge0 Ti1 2.748212 1_455
Ge0 Ti0 2.748217 1_554
Ge0 Ti0 2.748217 1_544
Ge0 Lu0 2.907214 1_555
Ge0 Lu0 2.907214 1_545
Ge0 Lu0 2.907214 1_445
Ge0 Lu0 2.907214 1_455
Ge0 Lu1 3.017101 1_555
Ge1 Ti0 2.748207 1_555
Ge1 Ti0 2.748207 1_655
Ge1 Ti1 2.748212 1_556
Ge1 Ti1 2.748212 1_566
Ge1 Lu1 2.907213 1_655
Ge1 Lu1 2.907213 1_665
Ge1 Lu1 2.907213 1_565
Ge1 Lu1 2.907213 1_555
Ge1 Lu0 3.017094 1_555
