# generated using pymatgen
data_Sr5P3O13
_symmetry_space_group_name_H-M   'P 1'
_cell_length_a   9.78633209
_cell_length_b   9.78633372
_cell_length_c   7.29167655
_cell_angle_alpha   89.99998408
_cell_angle_beta   89.99998897
_cell_angle_gamma   119.99997943
_symmetry_Int_Tables_number   1
_chemical_formula_structural   Sr5P3O13
_chemical_formula_sum   'Sr10 P6 O26'
_cell_volume   604.78092933
_cell_formula_units_Z   2
loop_
 _symmetry_equiv_pos_site_id
 _symmetry_equiv_pos_as_xyz
  1  'x, y, z'
loop_
 _atom_site_type_symbol
 _atom_site_label
 _atom_site_symmetry_multiplicity
 _atom_site_fract_x
 _atom_site_fract_y
 _atom_site_fract_z
 _atom_site_occupancy
  Sr  Sr0  1  0.66666671  0.33333325  -0.00012097  1
  Sr  Sr1  1  0.33333335  0.66666713  0.00012199  1
  Sr  Sr2  1  0.33333336  0.66666694  0.49987842  1
  Sr  Sr3  1  0.66666675  0.33333330  0.50012082  1
  Sr  Sr4  1  0.75401426  0.01475354  0.74999997  1
  Sr  Sr5  1  0.24598596  0.98524758  0.25000006  1
  Sr  Sr6  1  0.26073855  0.24598520  0.75000023  1
  Sr  Sr7  1  0.73926228  0.75401501  0.24999993  1
  Sr  Sr8  1  0.98524530  0.73926031  0.74999991  1
  Sr  Sr9  1  0.01475344  0.26073832  0.25000012  1
  P  P0  1  0.59963648  0.63319141  0.75000004  1
  P  P1  1  0.40036335  0.36680789  0.24999992  1
  P  P2  1  0.03355387  0.40036272  0.74999995  1
  P  P3  1  0.96644464  0.59963636  0.25000005  1
  P  P4  1  0.36680738  0.96644498  0.75000015  1
  P  P5  1  0.63319348  0.03355526  0.25000052  1
  O  O0  1  0.85345118  0.33348326  0.74999995  1
  O  O1  1  0.14655337  0.66651704  0.25000007  1
  O  O2  1  0.48003202  0.14654882  0.75000006  1
  O  O3  1  0.51996333  0.85344480  0.25000010  1
  O  O4  1  0.66651603  0.51996826  0.74999992  1
  O  O5  1  0.33348381  0.48003532  0.25000011  1
  O  O6  1  0.99999933  -0.00000055  0.74999990  1
  O  O7  1  0.00000070  0.00000017  0.25000003  1
  O  O8  1  0.41750130  0.53882582  0.74999994  1
  O  O9  1  0.58250461  0.46118025  0.25000006  1
  O  O10  1  0.12132412  0.58249726  0.75000006  1
  O  O11  1  0.87867491  0.41749416  0.24999986  1
  O  O12  1  0.46117384  0.87867598  0.75000012  1
  O  O13  1  0.53882007  0.12132516  0.24999999  1
  O  O14  1  0.65366105  0.73926017  0.92140657  1
  O  O15  1  0.34633647  0.26073879  0.07858606  1
  O  O16  1  0.08559891  0.34633951  0.92140523  1
  O  O17  1  0.34633668  0.26073906  0.42141421  1
  O  O18  1  0.91440136  0.65366312  0.07858409  1
  O  O19  1  0.65366097  0.73925994  0.57859359  1
  O  O20  1  0.26073900  0.91440059  0.92140783  1
  O  O21  1  0.91440118  0.65366310  0.42141571  1
  O  O22  1  0.73926341  0.08559880  0.07858344  1
  O  O23  1  0.08559887  0.34633962  0.57859467  1
  O  O24  1  0.73926436  0.08559973  0.42141691  1
  O  O25  1  0.26073899  0.91440061  0.57859243  1
loop_
_geom_bond_atom_site_label_1
_geom_bond_atom_site_label_2
_geom_bond_distance
_geom_bond_site_symmetry_2
O0 P2 1.543161 1_655
O0 Sr0 2.580404 1_556
O0 Sr3 2.580404 1_555
O0 Sr4 2.764234 1_555
O1 P3 1.543215 1_455
O1 Sr1 2.580367 1_555
O1 Sr2 2.580370 1_555
O1 Sr5 2.764251 1_555
O2 P4 1.543173 1_545
O2 Sr0 2.580405 1_556
O2 Sr3 2.580406 1_555
O2 Sr6 2.764235 1_555
O3 P5 1.543231 1_565
O3 Sr1 2.580361 1_555
O3 Sr2 2.580362 1_555
O3 Sr7 2.764239 1_555
O4 P0 1.543161 1_555
O4 Sr0 2.580410 1_556
O4 Sr3 2.580411 1_555
O4 Sr8 2.764229 1_555
O5 P1 1.543200 1_555
O5 Sr1 2.580382 1_555
O5 Sr2 2.580382 1_555
O5 Sr9 2.764247 1_555
O6 Sr4 2.482637 1_555
O6 Sr8 2.482637 1_545
O6 Sr6 2.482641 1_655
O7 Sr5 2.482631 1_545
O7 Sr9 2.482633 1_555
O7 Sr7 2.482634 1_445
O8 P0 1.543972 1_555
O8 Sr6 2.483950 1_555
O8 Sr2 2.569144 1_555
O8 Sr1 2.569148 1_556
O9 P1 1.544024 1_555
O9 Sr7 2.483900 1_555
O9 Sr3 2.569145 1_555
O9 Sr0 2.569147 1_555
O10 P2 1.543967 1_555
O10 Sr8 2.483960 1_455
O10 Sr2 2.569144 1_555
O10 Sr1 2.569146 1_556
O11 P3 1.544032 1_555
O11 Sr9 2.483895 1_655
O11 Sr3 2.569141 1_555
O11 Sr0 2.569142 1_555
O12 P4 1.543974 1_555
O12 Sr4 2.483948 1_565
O12 Sr1 2.569144 1_556
O12 Sr2 2.569146 1_555
O13 P5 1.544041 1_555
O13 Sr5 2.483894 1_545
O13 Sr0 2.569140 1_555
O13 Sr3 2.569141 1_555
O14 P0 1.539584 1_555
O14 Sr7 2.518425 1_556
O14 Sr4 2.673502 1_565
O14 Sr1 2.904181 1_556
O15 P1 1.539629 1_555
O15 Sr6 2.518364 1_554
O15 Sr5 2.673514 1_545
O15 Sr0 2.904189 1_555
O16 P2 1.539573 1_555
O16 Sr9 2.518434 1_556
O16 Sr6 2.673500 1_555
O16 Sr1 2.904183 1_556
O17 P1 1.539630 1_555
O17 Sr6 2.518366 1_555
O17 Sr5 2.673517 1_545
O17 Sr3 2.904187 1_555
O18 P3 1.539646 1_555
O18 Sr8 2.518351 1_554
O18 Sr7 2.673516 1_555
O18 Sr0 2.904181 1_555
O19 P0 1.539582 1_555
O19 Sr7 2.518427 1_555
O19 Sr4 2.673504 1_565
O19 Sr2 2.904180 1_555
O20 P4 1.539588 1_555
O20 Sr5 2.518416 1_556
O20 Sr8 2.673510 1_455
O20 Sr1 2.904176 1_556
O21 P3 1.539645 1_555
O21 Sr8 2.518352 1_555
O21 Sr7 2.673514 1_555
O21 Sr3 2.904180 1_555
O22 P5 1.539651 1_555
O22 Sr4 2.518346 1_554
O22 Sr9 2.673514 1_655
O22 Sr0 2.904187 1_555
O23 P2 1.539573 1_555
O23 Sr9 2.518433 1_555
O23 Sr6 2.673503 1_555
O23 Sr2 2.904180 1_555
O24 P5 1.539653 1_555
O24 Sr4 2.518343 1_555
O24 Sr9 2.673506 1_655
O24 Sr3 2.904184 1_555
O25 P4 1.539589 1_555
O25 Sr5 2.518416 1_555
O25 Sr8 2.673507 1_455
O25 Sr2 2.904179 1_555
