# generated using pymatgen
data_Fe2Mo4O7
_symmetry_space_group_name_H-M   'P 1'
_cell_length_a   9.62835964
_cell_length_b   9.62835964
_cell_length_c   6.24735365
_cell_angle_alpha   71.28936377
_cell_angle_beta   71.28936377
_cell_angle_gamma   38.64002151
_symmetry_Int_Tables_number   1
_chemical_formula_structural   Fe2Mo4O7
_chemical_formula_sum   'Fe4 Mo8 O14'
_cell_volume   340.10807932
_cell_formula_units_Z   2
loop_
 _symmetry_equiv_pos_site_id
 _symmetry_equiv_pos_as_xyz
  1  'x, y, z'
loop_
 _atom_site_type_symbol
 _atom_site_label
 _atom_site_symmetry_multiplicity
 _atom_site_fract_x
 _atom_site_fract_y
 _atom_site_fract_z
 _atom_site_occupancy
  Fe  Fe0  1  0.55408300  0.55408300  0.70120200  1
  Fe  Fe1  1  0.44572700  0.44572700  0.30930500  1
  Fe  Fe2  1  0.00160500  0.00160500  0.00186300  1
  Fe  Fe3  1  0.00090900  0.00090900  0.50808500  1
  Mo  Mo0  1  0.38452100  0.88074200  0.12061600  1
  Mo  Mo1  1  0.88074200  0.38452100  0.12061600  1
  Mo  Mo2  1  0.61952600  0.12058500  0.88466900  1
  Mo  Mo3  1  0.12058500  0.61952600  0.88466900  1
  Mo  Mo4  1  0.24957600  0.24957600  0.73040800  1
  Mo  Mo5  1  0.75149200  0.75149200  0.24655800  1
  Mo  Mo6  1  0.75200400  0.75200400  0.72052700  1
  Mo  Mo7  1  0.25092800  0.25092800  0.24794100  1
  O  O0  1  0.22384100  0.76142200  0.76486300  1
  O  O1  1  0.24671900  0.76679700  0.25228900  1
  O  O2  1  0.76679700  0.24671900  0.25228900  1
  O  O3  1  0.76142200  0.22384100  0.76486300  1
  O  O4  1  0.12784900  0.12784900  0.34939300  1
  O  O5  1  0.87315800  0.87315800  0.65674300  1
  O  O6  1  0.87499700  0.87499700  0.10304300  1
  O  O7  1  0.13043900  0.13043900  0.89878400  1
  O  O8  1  0.37762200  0.37762200  0.12369400  1
  O  O9  1  0.62902600  0.62902600  0.89104100  1
  O  O10  1  0.62686700  0.62686700  0.36309300  1
  O  O11  1  0.37546600  0.37546600  0.63048800  1
  O  O12  1  0.49953500  0.00813000  0.48239000  1
  O  O13  1  0.00813000  0.49953500  0.48239000  1
loop_
_geom_bond_atom_site_label_1
_geom_bond_atom_site_label_2
_geom_bond_distance
_geom_bond_site_symmetry_2
Fe0 O3 2.008926 1_555
Fe0 O0 2.008926 1_555
Fe0 O10 2.076474 1_555
Fe0 O9 2.087921 1_555
Fe1 O2 1.957804 1_555
Fe1 O1 1.957804 1_555
Fe1 O8 1.962656 1_555
Fe1 O11 1.978550 1_555
Fe2 O0 2.133729 1_544
Fe2 O3 2.133729 1_454
Fe2 O6 2.168939 1_445
Fe2 O7 2.207022 1_554
Fe2 O1 2.212061 1_545
Fe2 O2 2.212061 1_455
Fe3 O3 2.145178 1_455
Fe3 O0 2.145178 1_545
Fe3 O4 2.179298 1_555
Fe3 O5 2.187737 1_445
Fe3 O1 2.187866 1_545
Fe3 O2 2.187866 1_455
Mo0 O7 2.129569 1_564
Mo0 O4 2.131005 1_565
Mo0 O9 2.150312 1_554
Mo0 O1 2.153007 1_555
Mo0 O10 2.167130 1_555
Mo1 O7 2.129569 1_654
Mo1 O4 2.131005 1_655
Mo1 O9 2.150312 1_554
Mo1 O2 2.153007 1_555
Mo1 O10 2.167130 1_555
Mo2 O3 2.098471 1_555
Mo2 O6 2.121354 1_546
Mo2 O5 2.126916 1_545
Mo2 O8 2.216858 1_556
Mo2 O11 2.225135 1_555
Mo3 O0 2.098471 1_555
Mo3 O6 2.121354 1_456
Mo3 O5 2.126916 1_455
Mo3 O8 2.216858 1_556
Mo3 O11 2.225135 1_555
Mo4 O7 2.060435 1_555
Mo4 O11 2.156940 1_555
Mo4 O13 2.185332 1_555
Mo4 O12 2.185332 1_555
Mo5 O6 2.114944 1_555
Mo5 O10 2.130268 1_555
Mo5 O13 2.199976 1_655
Mo5 O12 2.199976 1_565
Mo6 O5 2.099899 1_555
Mo6 O9 2.123809 1_555
Mo6 O12 2.192172 1_565
Mo6 O13 2.192172 1_655
Mo7 O4 2.107236 1_555
Mo7 O13 2.156620 1_555
Mo7 O12 2.156620 1_555
Mo7 O8 2.165226 1_555
