# generated using pymatgen
data_CaHf8(N2O)4
_symmetry_space_group_name_H-M   'P 1'
_cell_length_a   5.52829496
_cell_length_b   5.51555745
_cell_length_c   10.82895220
_cell_angle_alpha   90.49417714
_cell_angle_beta   74.36998209
_cell_angle_gamma   59.69663541
_symmetry_Int_Tables_number   1
_chemical_formula_structural   CaHf8(N2O)4
_chemical_formula_sum   'Ca1 Hf8 N8 O4'
_cell_volume   270.35312675
_cell_formula_units_Z   1
loop_
 _symmetry_equiv_pos_site_id
 _symmetry_equiv_pos_as_xyz
  1  'x, y, z'
loop_
 _atom_site_type_symbol
 _atom_site_label
 _atom_site_symmetry_multiplicity
 _atom_site_fract_x
 _atom_site_fract_y
 _atom_site_fract_z
 _atom_site_occupancy
  Ca  Ca0  1  0.49647100  0.22325300  0.75089400  1
  Hf  Hf0  1  0.13843500  0.43618100  0.29169200  1
  Hf  Hf1  1  0.12848600  0.89860400  0.78885000  1
  Hf  Hf2  1  0.34397700  0.35394700  0.00957200  1
  Hf  Hf3  1  0.65867200  0.19372400  0.49233200  1
  Hf  Hf4  1  0.34908100  0.84244600  0.47359100  1
  Hf  Hf5  1  0.84174100  0.08593100  0.20954000  1
  Hf  Hf6  1  0.66013200  0.68143900  0.02751100  1
  Hf  Hf7  1  0.85268400  0.55034900  0.71283000  1
  N  N0  1  0.45595500  0.11662800  0.36862700  1
  N  N1  1  0.55079400  0.39002000  0.13094800  1
  N  N2  1  0.25429000  0.55907100  0.63049600  1
  N  N3  1  0.74938000  0.43577100  0.37045300  1
  N  N4  1  0.44868600  0.61021000  0.87449500  1
  N  N5  1  0.93149000  0.68412400  0.13234400  1
  N  N6  1  0.94979100  0.16376300  0.62436400  1
  N  N7  1  0.74134800  0.92235100  0.88118500  1
  O  O0  1  0.25701400  0.06833500  0.13157300  1
  O  O1  1  0.07241900  0.81650000  0.37582100  1
  O  O2  1  0.05059000  0.30342000  0.87470200  1
  O  O3  1  0.57804300  0.84955300  0.61720300  1
loop_
_geom_bond_atom_site_label_1
_geom_bond_atom_site_label_2
_geom_bond_distance
_geom_bond_site_symmetry_2
Ca0 O2 2.275552 1_555
Ca0 O3 2.281758 1_545
Ca0 N7 2.319489 1_545
Ca0 N2 2.324392 1_555
Ca0 N6 2.361707 1_555
Ca0 N4 2.368052 1_555
Hf0 N3 2.090429 1_455
Hf0 O1 2.092534 1_555
Hf0 N0 2.138455 1_555
Hf0 O0 2.353125 1_555
Hf0 N1 2.357964 1_555
Hf0 N5 2.383744 1_455
Hf1 N7 2.039406 1_455
Hf1 N4 2.142988 1_555
Hf1 O2 2.193911 1_565
Hf1 N2 2.217863 1_555
Hf1 N6 2.413012 1_465
Hf1 O3 2.555067 1_555
Hf2 N1 2.027125 1_555
Hf2 N5 2.101856 1_455
Hf2 N4 2.208523 1_554
Hf2 O0 2.217222 1_555
Hf2 N7 2.333535 1_544
Hf2 O2 2.562606 1_554
Hf3 N3 2.031019 1_555
Hf3 N0 2.123979 1_555
Hf3 O1 2.179374 1_645
Hf3 N2 2.212776 1_555
Hf3 N6 2.374299 1_555
Hf3 O3 2.490803 1_545
Hf4 N0 2.120721 1_565
Hf4 O1 2.138115 1_555
Hf4 N6 2.177011 1_465
Hf4 N3 2.188974 1_555
Hf4 O3 2.265389 1_555
Hf4 N2 2.448889 1_555
Hf5 N1 2.040663 1_555
Hf5 N5 2.119288 1_545
Hf5 O0 2.173022 1_655
Hf5 N0 2.279438 1_555
Hf5 N3 2.342779 1_555
Hf5 O1 2.539300 1_645
Hf6 N5 2.116414 1_555
Hf6 O0 2.143872 1_565
Hf6 N7 2.175556 1_554
Hf6 N1 2.202325 1_555
Hf6 O2 2.284466 1_654
Hf6 N4 2.400487 1_554
Hf7 N6 2.069995 1_555
Hf7 O3 2.109293 1_555
Hf7 N2 2.183664 1_655
Hf7 N4 2.302388 1_555
Hf7 O2 2.386518 1_655
Hf7 N7 2.443116 1_555
