# generated using pymatgen
data_Mg3Si4(AgO7)2
_symmetry_space_group_name_H-M   'P 1'
_cell_length_a   9.66001708
_cell_length_b   9.66001708
_cell_length_c   10.28758885
_cell_angle_alpha   58.13954561
_cell_angle_beta   58.13954561
_cell_angle_gamma   47.20792911
_symmetry_Int_Tables_number   1
_chemical_formula_structural   Mg3Si4(AgO7)2
_chemical_formula_sum   'Mg6 Si8 Ag4 O28'
_cell_volume   575.84365534
_cell_formula_units_Z   2
loop_
 _symmetry_equiv_pos_site_id
 _symmetry_equiv_pos_as_xyz
  1  'x, y, z'
loop_
 _atom_site_type_symbol
 _atom_site_label
 _atom_site_symmetry_multiplicity
 _atom_site_fract_x
 _atom_site_fract_y
 _atom_site_fract_z
 _atom_site_occupancy
  Mg  Mg0  1  0.05556500  0.28185500  0.12405700  1
  Mg  Mg1  1  0.71814500  0.94443500  0.37594300  1
  Mg  Mg2  1  0.28185500  0.05556500  0.62405700  1
  Mg  Mg3  1  0.38879900  0.61120100  0.75000000  1
  Mg  Mg4  1  0.94443500  0.71814500  0.87594300  1
  Mg  Mg5  1  0.61120100  0.38879900  0.25000000  1
  Si  Si0  1  0.56799600  0.04809000  0.70642700  1
  Si  Si1  1  0.04809000  0.56799600  0.20642700  1
  Si  Si2  1  0.48982800  0.27515100  0.11003000  1
  Si  Si3  1  0.27515100  0.48982800  0.61003000  1
  Si  Si4  1  0.95191000  0.43200400  0.79357300  1
  Si  Si5  1  0.51017200  0.72484900  0.88997000  1
  Si  Si6  1  0.72484900  0.51017200  0.38997000  1
  Si  Si7  1  0.43200400  0.95191000  0.29357300  1
  Ag  Ag0  1  0.77660000  0.22340000  0.75000000  1
  Ag  Ag1  1  0.22340000  0.77660000  0.25000000  1
  Ag  Ag2  1  0.00000000  0.00000000  0.00000000  1
  Ag  Ag3  1  0.00000000  0.00000000  0.50000000  1
  O  O0  1  0.80247100  0.35335500  0.30813700  1
  O  O1  1  0.96193400  0.89803100  0.40416000  1
  O  O2  1  0.47504100  0.61861100  0.08234700  1
  O  O3  1  0.89803100  0.96193400  0.90416000  1
  O  O4  1  0.20920200  0.05037500  0.29433800  1
  O  O5  1  0.08970600  0.49840400  0.62672500  1
  O  O6  1  0.61861100  0.47504100  0.58234700  1
  O  O7  1  0.94962500  0.79079800  0.20566200  1
  O  O8  1  0.91029400  0.50159600  0.37327500  1
  O  O9  1  0.57797800  0.72409500  0.28432400  1
  O  O10  1  0.03806600  0.10196900  0.59584000  1
  O  O11  1  0.79079800  0.94962500  0.70566200  1
  O  O12  1  0.50159600  0.91029400  0.87327500  1
  O  O13  1  0.35335500  0.80247100  0.80813700  1
  O  O14  1  0.72409500  0.57797800  0.78432400  1
  O  O15  1  0.05037500  0.20920200  0.79433800  1
  O  O16  1  0.95042200  0.45973400  0.93575200  1
  O  O17  1  0.42202200  0.27590500  0.71567600  1
  O  O18  1  0.54026600  0.04957800  0.56424800  1
  O  O19  1  0.27590500  0.42202200  0.21567600  1
  O  O20  1  0.49840400  0.08970600  0.12672500  1
  O  O21  1  0.10196900  0.03806600  0.09584000  1
  O  O22  1  0.45973400  0.95042200  0.43575200  1
  O  O23  1  0.52495900  0.38138900  0.91765300  1
  O  O24  1  0.04957800  0.54026600  0.06424800  1
  O  O25  1  0.38138900  0.52495900  0.41765300  1
  O  O26  1  0.64664500  0.19752900  0.19186300  1
  O  O27  1  0.19752900  0.64664500  0.69186300  1
loop_
_geom_bond_atom_site_label_1
_geom_bond_atom_site_label_2
_geom_bond_distance
_geom_bond_site_symmetry_2
Mg0 O16 1.982111 1_454
Mg0 O0 2.058979 1_455
Mg0 O4 2.090901 1_555
Mg0 O24 2.198443 1_555
Mg0 O21 2.231878 1_555
Mg1 O18 1.982111 1_565
Mg1 O26 2.058979 1_565
Mg1 O7 2.090901 1_555
Mg1 O22 2.198443 1_555
Mg1 O1 2.231878 1_555
Mg2 O22 1.982111 1_545
Mg2 O13 2.058979 1_545
Mg2 O15 2.090901 1_555
Mg2 O18 2.198443 1_555
Mg2 O10 2.231878 1_555
Mg3 O13 1.994929 1_555
Mg3 O27 1.994929 1_555
Mg3 O23 2.004636 1_555
Mg3 O6 2.004636 1_555
Mg4 O24 1.982111 1_656
Mg4 O27 2.058979 1_655
Mg4 O11 2.090901 1_555
Mg4 O16 2.198443 1_555
Mg4 O3 2.231878 1_555
Mg5 O0 1.994929 1_555
Mg5 O26 1.994929 1_555
Mg5 O25 2.004636 1_555
Mg5 O2 2.004636 1_555
Ag0 O10 1.995076 1_655
Ag0 O3 1.995076 1_545
Ag0 O23 2.127246 1_555
Ag0 O6 2.127246 1_555
Ag1 O21 1.995076 1_565
Ag1 O1 1.995076 1_455
Ag1 O25 2.127246 1_555
Ag1 O2 2.127246 1_555
Ag2 O21 1.994438 1_555
Ag2 O3 1.994438 1_444
Ag2 O15 2.128985 1_554
Ag2 O7 2.128985 1_445
Ag2 O26 2.683697 1_455
Ag2 O13 2.683697 1_544
Ag3 O10 1.994438 1_555
Ag3 O1 1.994438 1_445
Ag3 O4 2.128985 1_555
Ag3 O11 2.128985 1_445
Ag3 O27 2.683697 1_545
Ag3 O0 2.683697 1_455
O0 Si6 1.643894 1_555
O2 Si5 1.644731 1_554
O4 Si7 1.656991 1_545
O5 Si4 1.647784 1_455
O5 Si3 1.653497 1_555
O6 Si6 1.644731 1_555
O7 Si1 1.656991 1_655
O8 Si1 1.647784 1_655
O8 Si6 1.653497 1_555
O9 Si7 1.644280 1_555
O9 Si6 1.654652 1_555
O11 Si0 1.656991 1_565
O12 Si0 1.647784 1_565
O12 Si5 1.653497 1_555
O13 Si5 1.643894 1_555
O14 Si4 1.644280 1_555
O14 Si5 1.654652 1_555
O15 Si4 1.656991 1_455
O16 Si4 1.611708 1_555
O17 Si0 1.644280 1_555
O17 Si3 1.654652 1_555
O18 Si0 1.611708 1_555
O19 Si1 1.644280 1_555
O19 Si2 1.654652 1_555
O20 Si7 1.647784 1_545
O20 Si2 1.653497 1_555
O22 Si7 1.611708 1_555
O23 Si2 1.644731 1_556
O24 Si1 1.611708 1_555
O25 Si3 1.644731 1_555
O26 Si2 1.643894 1_555
O27 Si3 1.643894 1_555
