# generated using pymatgen
data_RbNaMg3Zn2(Si2O5)6
_symmetry_space_group_name_H-M   'P 1'
_cell_length_a   10.27392665
_cell_length_b   10.27393570
_cell_length_c   14.56471465
_cell_angle_alpha   90.00576002
_cell_angle_beta   90.00571827
_cell_angle_gamma   59.99535405
_symmetry_Int_Tables_number   1
_chemical_formula_structural   RbNaMg3Zn2(Si2O5)6
_chemical_formula_sum   'Rb2 Na2 Mg6 Zn4 Si24 O60'
_cell_volume   1331.32957537
_cell_formula_units_Z   2
loop_
 _symmetry_equiv_pos_site_id
 _symmetry_equiv_pos_as_xyz
  1  'x, y, z'
loop_
 _atom_site_type_symbol
 _atom_site_label
 _atom_site_symmetry_multiplicity
 _atom_site_fract_x
 _atom_site_fract_y
 _atom_site_fract_z
 _atom_site_occupancy
  Rb  Rb0  1  0.00009363  0.99990807  0.25000046  1
  Rb  Rb1  1  0.00002331  0.99997924  0.75000053  1
  Na  Na0  1  0.33339702  0.33326685  0.49999661  1
  Na  Na1  1  0.66673322  0.66665905  0.00000064  1
  Mg  Mg0  1  0.33334452  0.33375093  0.24609231  1
  Mg  Mg1  1  0.33332572  0.33332991  0.75366621  1
  Mg  Mg2  1  0.66667402  0.66667976  0.74632386  1
  Mg  Mg3  1  0.66625360  0.66666082  0.25390560  1
  Mg  Mg4  1  0.50034347  0.00002473  0.24997360  1
  Mg  Mg5  1  0.99998368  0.49964920  0.25002811  1
  Zn  Zn0  1  0.50024744  0.49975822  0.24999916  1
  Zn  Zn1  1  0.49966875  0.00000377  0.74998817  1
  Zn  Zn2  1  0.00000120  0.50032314  0.75001259  1
  Zn  Zn3  1  0.50031219  0.49969327  0.75000181  1
  Si  Si0  1  0.35447924  0.88567911  0.39191725  1
  Si  Si1  1  0.88554524  0.75983780  0.39188745  1
  Si  Si2  1  0.76009946  0.35362224  0.39205803  1
  Si  Si3  1  0.35376812  0.88641461  0.60790454  1
  Si  Si4  1  0.88644650  0.75981219  0.60790927  1
  Si  Si5  1  0.75979855  0.35375926  0.60794287  1
  Si  Si6  1  0.24018666  0.11355724  0.89209119  1
  Si  Si7  1  0.64624210  0.24020534  0.89205693  1
  Si  Si8  1  0.11358808  0.64623044  0.89209516  1
  Si  Si9  1  0.24016039  0.11445833  0.10811238  1
  Si  Si10  1  0.64638056  0.23990454  0.10794225  1
  Si  Si11  1  0.11432289  0.64552149  0.10808297  1
  Si  Si12  1  0.64828512  0.11284245  0.60872646  1
  Si  Si13  1  0.11284510  0.23885067  0.60871856  1
  Si  Si14  1  0.23890213  0.64827201  0.60870920  1
  Si  Si15  1  0.64770505  0.11346443  0.39126170  1
  Si  Si16  1  0.11367110  0.23869849  0.39125015  1
  Si  Si17  1  0.23852321  0.64840945  0.39129835  1
  Si  Si18  1  0.76130201  0.88633384  0.10875198  1
  Si  Si19  1  0.35159167  0.76148060  0.10870152  1
  Si  Si20  1  0.88653579  0.35230028  0.10873734  1
  Si  Si21  1  0.76115020  0.88715902  0.89128028  1
  Si  Si22  1  0.35172870  0.76110105  0.89129115  1
  Si  Si23  1  0.88715677  0.35172016  0.89127473  1
  O  O0  1  0.49390390  0.84568740  0.32589401  1
  O  O1  1  0.84554213  0.66041189  0.32583596  1
  O  O2  1  0.66115360  0.49474404  0.32640193  1
  O  O3  1  0.49497164  0.84405163  0.67365732  1
  O  O4  1  0.84409429  0.66096890  0.67363452  1
  O  O5  1  0.66091705  0.49500260  0.67360956  1
  O  O6  1  0.33902930  0.15591499  0.82636870  1
  O  O7  1  0.50500454  0.33909073  0.82638784  1
  O  O8  1  0.15595612  0.50502710  0.82634084  1
  O  O9  1  0.33958553  0.15446813  0.17416066  1
  O  O10  1  0.50526396  0.33885549  0.17360077  1
  O  O11  1  0.15432007  0.50609635  0.17410721  1
  O  O12  1  0.50216899  0.15749570  0.67076198  1
  O  O13  1  0.15748672  0.34034091  0.67074876  1
  O  O14  1  0.34040202  0.50212373  0.67069837  1
  O  O15  1  0.50318287  0.15574256  0.32886574  1
  O  O16  1  0.15569943  0.34115965  0.32889595  1
  O  O17  1  0.34022810  0.50226694  0.32932836  1
  O  O18  1  0.65883406  0.84431186  0.17110460  1
  O  O19  1  0.49773499  0.65978199  0.17067284  1
  O  O20  1  0.84426150  0.49682009  0.17113470  1
  O  O21  1  0.65965441  0.84252133  0.82925187  1
  O  O22  1  0.49787724  0.65960870  0.82930041  1
  O  O23  1  0.84250684  0.49783434  0.82923840  1
  O  O24  1  0.40076672  0.87062362  0.50012511  1
  O  O25  1  0.87063189  0.72873806  0.50010737  1
  O  O26  1  0.72860965  0.40062495  0.50007230  1
  O  O27  1  0.27126247  0.12936747  -0.00010728  1
  O  O28  1  0.59937435  0.27138986  -0.00007178  1
  O  O29  1  0.12937474  0.59923386  -0.00012474  1
  O  O30  1  0.59399829  0.13624642  0.50011088  1
  O  O31  1  0.13618035  0.26968476  0.50011637  1
  O  O32  1  0.26978642  0.59416985  0.50005046  1
  O  O33  1  0.73031699  0.86382818  -0.00011556  1
  O  O34  1  0.40583333  0.73021634  -0.00005017  1
  O  O35  1  0.86374908  0.40601087  0.99988937  1
  O  O36  1  0.27606315  0.78276236  0.37099816  1
  O  O37  1  0.78187639  0.94104088  0.37067842  1
  O  O38  1  0.94109537  0.27715552  0.37061233  1
  O  O39  1  0.27642187  0.78269638  0.62915763  1
  O  O40  1  0.78273694  0.94088993  0.62921030  1
  O  O41  1  0.94088684  0.27641736  0.62913962  1
  O  O42  1  0.05910944  0.21726635  0.87078999  1
  O  O43  1  0.72358298  0.05911727  0.87086015  1
  O  O44  1  0.21730517  0.72357948  0.87084312  1
  O  O45  1  0.05895825  0.21812653  0.12932205  1
  O  O46  1  0.72284539  0.05890888  0.12938896  1
  O  O47  1  0.21723941  0.72393861  0.12900176  1
  O  O48  1  0.72442168  0.21690255  0.62944006  1
  O  O49  1  0.21688115  0.05865883  0.62951311  1
  O  O50  1  0.05870362  0.72440025  0.62946710  1
  O  O51  1  0.72463952  0.21684973  0.37066300  1
  O  O52  1  0.21770931  0.05857336  0.37043877  1
  O  O53  1  0.05844492  0.72372092  0.37039769  1
  O  O54  1  0.94142673  0.78229097  0.12956214  1
  O  O55  1  0.27627849  0.94155888  0.12960355  1
  O  O56  1  0.78315344  0.27536276  0.12933699  1
  O  O57  1  0.94134186  0.78311876  0.87048725  1
  O  O58  1  0.27559781  0.94130048  0.87053283  1
  O  O59  1  0.78310029  0.27557967  0.87056006  1
loop_
_geom_bond_atom_site_label_1
_geom_bond_atom_site_label_2
_geom_bond_distance
_geom_bond_site_symmetry_2
Na0 O30 2.417740 1_555
Na0 O31 2.419905 1_555
Na0 O32 2.420775 1_555
Na1 O35 2.418059 1_554
Na1 O33 2.419443 1_555
Na1 O34 2.420897 1_555
Mg0 O10 2.080938 1_555
Mg0 O11 2.088116 1_555
Mg0 O9 2.091879 1_555
Mg0 O17 2.143407 1_555
Mg0 O15 2.156662 1_555
Mg0 O16 2.157029 1_555
Mg1 O8 2.082753 1_555
Mg1 O7 2.083366 1_555
Mg1 O6 2.083423 1_555
Mg1 O12 2.143926 1_555
Mg1 O13 2.144000 1_555
Mg1 O14 2.144627 1_555
Mg2 O3 2.082727 1_555
Mg2 O5 2.083279 1_555
Mg2 O4 2.083340 1_555
Mg2 O23 2.144014 1_555
Mg2 O21 2.144075 1_555
Mg2 O22 2.144698 1_555
Mg3 O2 2.080931 1_555
Mg3 O0 2.088167 1_555
Mg3 O1 2.091887 1_555
Mg3 O19 2.143380 1_555
Mg3 O20 2.156647 1_555
Mg3 O18 2.157017 1_555
Mg4 O9 1.960551 1_555
Mg4 O0 1.961290 1_545
Mg4 O18 1.981145 1_545
Mg4 O15 1.981646 1_555
Mg5 O1 1.960522 1_555
Mg5 O11 1.961319 1_655
Mg5 O16 1.981144 1_655
Mg5 O20 1.981648 1_555
O0 Si0 1.599048 1_555
O1 Si1 1.599205 1_555
O2 Si2 1.604982 1_555
O2 Zn0 1.971872 1_555
O3 Si3 1.606067 1_555
O3 Zn1 1.970389 1_565
O4 Si4 1.605979 1_555
O4 Zn2 1.970578 1_655
O5 Si5 1.605634 1_555
O5 Zn3 1.970720 1_555
O6 Si6 1.605983 1_555
O6 Zn1 1.970586 1_555
O7 Si7 1.605627 1_555
O7 Zn3 1.970644 1_555
O8 Si8 1.606070 1_555
O8 Zn2 1.970421 1_555
O9 Si9 1.599210 1_555
O10 Si10 1.604979 1_555
O10 Zn0 1.971798 1_555
O11 Si11 1.599051 1_555
O12 Si12 1.609904 1_555
O12 Zn1 1.998058 1_555
O13 Si13 1.609919 1_555
O13 Zn2 1.998113 1_555
O14 Si14 1.609726 1_555
O14 Zn3 1.998114 1_555
O15 Si15 1.604365 1_555
O16 Si16 1.604442 1_555
O17 Si17 1.609864 1_555
O17 Zn0 1.999112 1_555
O18 Si18 1.604444 1_555
O19 Si19 1.609869 1_555
O19 Zn0 1.999111 1_555
O20 Si20 1.604365 1_555
O21 Si21 1.609924 1_555
O21 Zn1 1.998115 1_565
O22 Si22 1.609725 1_555
O22 Zn3 1.998099 1_555
O23 Si23 1.609903 1_555
O23 Zn2 1.998024 1_655
O24 Si3 1.626476 1_555
O24 Si0 1.631023 1_555
O25 Si4 1.626430 1_555
O25 Si1 1.630663 1_555
O26 Si5 1.627460 1_555
O26 Si2 1.629880 1_555
O27 Si6 1.626421 1_554
O27 Si9 1.630657 1_555
O28 Si7 1.627471 1_554
O28 Si10 1.629882 1_555
O29 Si8 1.626483 1_554
O29 Si11 1.631023 1_555
O30 Si12 1.654462 1_555
O30 Si15 1.656362 1_555
O31 Si13 1.654065 1_555
O31 Si16 1.656028 1_555
O32 Si14 1.654612 1_555
O32 Si17 1.656393 1_555
O33 Si21 1.654079 1_554
O33 Si18 1.656035 1_555
O34 Si22 1.654618 1_554
O34 Si19 1.656392 1_555
O35 Si23 1.654458 1_555
O35 Si20 1.656355 1_556
O36 Si17 1.635249 1_555
O36 Si0 1.646741 1_555
O36 Rb0 3.129728 1_555
O37 Si15 1.638862 1_565
O37 Si1 1.646989 1_555
O37 Rb0 3.136642 1_655
O38 Si16 1.639933 1_655
O38 Si2 1.646699 1_555
O38 Rb0 3.136757 1_645
O39 Si14 1.636146 1_555
O39 Si3 1.646143 1_555
O39 Rb1 3.131316 1_555
O40 Si12 1.636295 1_565
O40 Si4 1.646206 1_555
O40 Rb1 3.130745 1_655
O41 Si13 1.636071 1_655
O41 Si5 1.646055 1_555
O41 Rb1 3.131935 1_645
O42 Si23 1.636303 1_455
O42 Si6 1.646201 1_555
O42 Rb1 3.130727 1_545
O43 Si21 1.636068 1_545
O43 Si7 1.646055 1_555
O43 Rb1 3.131936 1_645
O44 Si22 1.636148 1_555
O44 Si8 1.646152 1_555
O44 Rb1 3.131321 1_555
O45 Si20 1.638865 1_455
O45 Si9 1.646981 1_555
O45 Rb0 3.136644 1_545
O46 Si18 1.639927 1_545
O46 Si10 1.646703 1_555
O46 Rb0 3.136753 1_645
O47 Si19 1.635256 1_555
O47 Si11 1.646747 1_555
O47 Rb0 3.129735 1_555
O48 Si12 1.637730 1_555
O48 Si5 1.648745 1_555
O48 Rb1 3.123474 1_645
O49 Si13 1.637815 1_555
O49 Si3 1.649054 1_545
O49 Rb1 3.122703 1_545
O50 Si14 1.637828 1_555
O50 Si4 1.648921 1_455
O50 Rb1 3.123071 1_555
O51 Si15 1.637918 1_555
O51 Si2 1.648114 1_555
O51 Rb0 3.123593 1_645
O52 Si16 1.637282 1_555
O52 Si0 1.652658 1_545
O52 Rb0 3.128213 1_545
O53 Si17 1.637827 1_555
O53 Si1 1.652863 1_455
O53 Rb0 3.128158 1_555
O54 Si18 1.637278 1_555
O54 Si11 1.652670 1_655
O54 Rb0 3.128235 1_655
O55 Si19 1.637831 1_555
O55 Si9 1.652863 1_565
O55 Rb0 3.128138 1_555
O56 Si20 1.637919 1_555
O56 Si10 1.648105 1_555
O56 Rb0 3.123602 1_645
O57 Si21 1.637811 1_555
O57 Si8 1.649069 1_655
O57 Rb1 3.122731 1_655
O58 Si22 1.637837 1_555
O58 Si6 1.648922 1_565
O58 Rb1 3.123028 1_555
O59 Si23 1.637732 1_555
O59 Si7 1.648740 1_555
O59 Rb1 3.123458 1_645
