# generated using pymatgen
data_Li9Mn2Co5O16
_symmetry_space_group_name_H-M   'P 1'
_cell_length_a   2.98373300
_cell_length_b   5.06281971
_cell_length_c   19.10541814
_cell_angle_alpha   92.61153527
_cell_angle_beta   92.65135702
_cell_angle_gamma   91.26643813
_symmetry_Int_Tables_number   1
_chemical_formula_structural   Li9Mn2Co5O16
_chemical_formula_sum   'Li9 Mn2 Co5 O16'
_cell_volume   287.91525620
_cell_formula_units_Z   1
loop_
 _symmetry_equiv_pos_site_id
 _symmetry_equiv_pos_as_xyz
  1  'x, y, z'
loop_
 _atom_site_type_symbol
 _atom_site_label
 _atom_site_symmetry_multiplicity
 _atom_site_fract_x
 _atom_site_fract_y
 _atom_site_fract_z
 _atom_site_occupancy
  Li  Li0  1  0.01143000  0.60610500  0.87365900  1
  Li  Li1  1  0.49222900  0.75437500  0.74958200  1
  Li  Li2  1  0.99781900  0.87433300  0.62613600  1
  Li  Li3  1  0.49752900  0.00026900  0.50118600  1
  Li  Li4  1  0.00062100  0.12567100  0.37495900  1
  Li  Li5  1  0.50292200  0.24808600  0.25045000  1
  Li  Li6  1  0.99190400  0.38143500  0.12665800  1
  Li  Li7  1  0.50418400  0.49175200  0.99554700  1
  Li  Li8  1  0.48830800  0.14092700  0.87662400  1
  Mn  Mn0  1  0.00523900  0.00444200  0.99630500  1
  Mn  Mn1  1  0.50745300  0.62613900  0.37590700  1
  Co  Co0  1  0.99753700  0.24960500  0.75494200  1
  Co  Co1  1  0.49313300  0.36946300  0.62583400  1
  Co  Co2  1  0.99007600  0.49895200  0.50160200  1
  Co  Co3  1  0.00115200  0.75091300  0.24830900  1
  Co  Co4  1  0.50769200  0.86841600  0.12395000  1
  O  O0  1  0.48696800  0.83779900  0.94510700  1
  O  O1  1  0.99993900  0.97156000  0.80444600  1
  O  O2  1  0.53522100  0.08200200  0.68724300  1
  O  O3  1  0.98689100  0.20946700  0.56232600  1
  O  O4  1  0.52740900  0.33209600  0.43896200  1
  O  O5  1  0.04408400  0.45445200  0.31038500  1
  O  O6  1  0.48949800  0.58223300  0.18640900  1
  O  O7  1  0.03813300  0.71148100  0.06438100  1
  O  O8  1  0.47236200  0.43097100  0.80743500  1
  O  O9  1  0.00491000  0.52903900  0.68892400  1
  O  O10  1  0.45704000  0.66566600  0.56352800  1
  O  O11  1  0.97086000  0.79302700  0.44016800  1
  O  O12  1  0.51456900  0.91873500  0.31177500  1
  O  O13  1  0.96581500  0.04278700  0.18571200  1
  O  O14  1  0.52363600  0.15093100  0.05806500  1
  O  O15  1  0.99344400  0.29687400  0.94348200  1
loop_
_geom_bond_atom_site_label_1
_geom_bond_atom_site_label_2
_geom_bond_distance
_geom_bond_site_symmetry_2
Li0 O8 2.095499 1_555
Li0 O15 2.103973 1_455
Li0 O8 2.149541 1_455
Li0 O0 2.203150 1_555
Li0 O1 2.322649 1_455
Li0 O0 2.412665 1_455
Li1 O8 2.018112 1_555
Li1 O1 2.068101 1_555
Li1 O2 2.090709 1_565
Li1 O9 2.099773 1_555
Li1 O1 2.138723 1_455
Li1 O9 2.259471 1_655
Li2 O2 2.115405 1_565
Li2 O10 2.127144 1_655
Li2 O3 2.133880 1_565
Li2 O2 2.163318 1_665
Li2 O9 2.164699 1_655
Li2 O10 2.186618 1_555
Li3 O3 2.068647 1_555
Li3 O4 2.104459 1_555
Li3 O10 2.119229 1_545
Li3 O11 2.135613 1_545
Li3 O11 2.139042 1_445
Li3 O3 2.220553 1_455
Li4 O12 2.076945 1_445
Li4 O5 2.121797 1_555
Li4 O11 2.142683 1_445
Li4 O4 2.165535 1_455
Li4 O4 2.165900 1_555
Li4 O12 2.243538 1_545
Li5 O12 2.081141 1_545
Li5 O5 2.091972 1_555
Li5 O6 2.132523 1_555
Li5 O13 2.149894 1_555
Li5 O5 2.157628 1_655
Li5 O13 2.191857 1_455
Li6 O6 2.052238 1_655
Li6 O13 2.096920 1_555
Li6 O7 2.100716 1_655
Li6 O14 2.156521 1_555
Li6 O6 2.168807 1_555
Li6 O14 2.394004 1_655
Li7 O15 1.997269 1_455
Li7 O0 2.038131 1_555
Li7 O15 2.050018 1_555
Li7 O14 2.143192 1_556
Li7 O7 2.237180 1_556
Li7 O7 2.258251 1_656
Li8 O8 2.019931 1_555
Li8 O15 2.050363 1_555
Li8 O0 2.061641 1_545
Li8 O1 2.100312 1_445
Li8 O15 2.137587 1_455
Li8 O1 2.261009 1_545
Mn0 O15 1.829449 1_455
Mn0 O0 1.946042 1_445
Mn0 O0 1.960370 1_545
Mn0 O14 2.008850 1_556
Mn0 O7 2.017814 1_546
Mn0 O14 2.032597 1_456
Mn1 O11 1.956990 1_555
Mn1 O4 1.957480 1_555
Mn1 O12 1.965346 1_555
Mn1 O5 1.980330 1_555
Mn1 O11 2.220745 1_455
Mn1 O5 2.243688 1_655
Co0 O1 1.731277 1_545
Co0 O8 1.892948 1_655
Co0 O9 1.938197 1_655
Co0 O2 1.994732 1_555
Co0 O8 2.104626 1_555
Co0 O2 2.262496 1_655
Co1 O2 1.913218 1_555
Co1 O10 1.958425 1_555
Co1 O3 2.024039 1_455
Co1 O9 2.030712 1_655
Co1 O9 2.086477 1_555
Co1 O3 2.104131 1_555
Co2 O3 1.910346 1_555
Co2 O11 1.937621 1_555
Co2 O4 1.937795 1_555
Co2 O10 1.938548 1_655
Co2 O10 2.187259 1_555
Co2 O4 2.204893 1_655
Co3 O13 1.944550 1_465
Co3 O5 1.957657 1_555
Co3 O6 2.035151 1_455
Co3 O12 2.053198 1_555
Co3 O6 2.091275 1_555
Co3 O12 2.103213 1_455
Co4 O7 1.900083 1_555
Co4 O6 1.919971 1_555
Co4 O13 1.934604 1_565
Co4 O14 1.949145 1_565
Co4 O7 2.138056 1_655
Co4 O13 2.220471 1_465
