# generated using pymatgen
data_ErThRe4
_symmetry_space_group_name_H-M   'P 1'
_cell_length_a   5.39354476
_cell_length_b   5.39354476
_cell_length_c   9.15813000
_cell_angle_alpha   90.00000000
_cell_angle_beta   90.00000000
_cell_angle_gamma   120.00000934
_symmetry_Int_Tables_number   1
_chemical_formula_structural   ErThRe4
_chemical_formula_sum   'Er2 Th2 Re8'
_cell_volume   230.72038597
_cell_formula_units_Z   2
loop_
 _symmetry_equiv_pos_site_id
 _symmetry_equiv_pos_as_xyz
  1  'x, y, z'
loop_
 _atom_site_type_symbol
 _atom_site_label
 _atom_site_symmetry_multiplicity
 _atom_site_fract_x
 _atom_site_fract_y
 _atom_site_fract_z
 _atom_site_occupancy
  Er  Er0  1  0.66666700  0.33333300  0.43799600  1
  Er  Er1  1  0.33333300  0.66666700  0.56200400  1
  Th  Th0  1  0.33333300  0.66666700  0.93929000  1
  Th  Th1  1  0.66666700  0.33333300  0.06071000  1
  Re  Re0  1  0.00000000  0.00000000  0.50000000  1
  Re  Re1  1  0.00000000  0.00000000  0.00000000  1
  Re  Re2  1  0.65968200  0.82984100  0.25932800  1
  Re  Re3  1  0.17015900  0.82984100  0.25932800  1
  Re  Re4  1  0.17015900  0.34031800  0.25932800  1
  Re  Re5  1  0.34031800  0.17015900  0.74067200  1
  Re  Re6  1  0.82984100  0.17015900  0.74067200  1
  Re  Re7  1  0.82984100  0.65968200  0.74067200  1
loop_
_geom_bond_atom_site_label_1
_geom_bond_atom_site_label_2
_geom_bond_distance
_geom_bond_site_symmetry_2
Er0 Re2 3.154520 1_545
Er0 Re4 3.154520 1_655
Er0 Re3 3.154521 1_545
Er0 Re3 3.154521 1_655
Er0 Re4 3.154524 1_555
Er0 Re2 3.154524 1_555
Er0 Re6 3.163438 1_555
Er0 Re5 3.163440 1_555
Er0 Re7 3.163440 1_555
Er0 Re0 3.165312 1_655
Er0 Re0 3.165316 1_665
Er0 Re0 3.165316 1_555
Er0 Th1 3.455234 1_555
Er1 Re7 3.154520 1_455
Er1 Re5 3.154520 1_565
Er1 Re6 3.154521 1_565
Er1 Re6 3.154521 1_455
Er1 Re5 3.154524 1_555
Er1 Re7 3.154524 1_555
Er1 Re3 3.163438 1_555
Er1 Re4 3.163440 1_555
Er1 Re2 3.163440 1_555
Er1 Re0 3.165312 1_565
Er1 Re0 3.165316 1_555
Er1 Re0 3.165316 1_665
Er1 Th0 3.455234 1_555
Th0 Th1 3.306547 1_456
Th0 Th1 3.306547 1_566
Th0 Th1 3.306556 1_556
Re0 Re5 2.717523 1_555
Re0 Re7 2.717523 1_445
Re0 Re4 2.717523 1_555
Re0 Re2 2.717523 1_445
Re0 Re6 2.717523 1_455
Re0 Re3 2.717523 1_545
Re1 Re2 2.857846 1_445
Re1 Re4 2.857846 1_555
Re1 Re5 2.857846 1_554
Re1 Re7 2.857846 1_444
Re1 Re6 2.857846 1_454
Re1 Re3 2.857846 1_545
Re1 Th0 3.163207 1_544
Re1 Th1 3.163207 1_455
Re1 Th1 3.163212 1_445
Re1 Th0 3.163212 1_554
Re1 Th1 3.163212 1_555
Re1 Th0 3.163212 1_444
Re2 Re4 2.640264 1_555
Re2 Re3 2.640264 1_555
Re2 Re4 2.753280 1_665
Re2 Re3 2.753281 1_655
Re2 Th1 3.253042 1_565
Re2 Th1 3.253046 1_555
Re2 Th0 3.303655 1_554
Re3 Re4 2.640264 1_555
Re3 Re4 2.753281 1_565
Re3 Th1 3.253044 1_565
Re3 Th1 3.253044 1_455
Re3 Th0 3.303653 1_554
Re4 Th1 3.253042 1_455
Re4 Th1 3.253046 1_555
Re4 Th0 3.303655 1_554
Re5 Re7 2.640264 1_555
Re5 Re6 2.640264 1_555
Re5 Re7 2.753280 1_445
Re5 Re6 2.753281 1_455
Re5 Th0 3.253042 1_545
Re5 Th0 3.253046 1_555
Re5 Th1 3.303655 1_556
Re6 Re7 2.640264 1_555
Re6 Re7 2.753281 1_545
Re6 Th0 3.253044 1_655
Re6 Th0 3.253044 1_545
Re6 Th1 3.303653 1_556
Re7 Th0 3.253042 1_655
Re7 Th0 3.253046 1_555
Re7 Th1 3.303655 1_556
