# generated using pymatgen
data_NaSe2
_symmetry_space_group_name_H-M   'P 1'
_cell_length_a   9.43549015
_cell_length_b   9.43548998
_cell_length_c   9.43548941
_cell_angle_alpha   101.08664555
_cell_angle_beta   113.81929891
_cell_angle_gamma   113.81929052
_symmetry_Int_Tables_number   1
_chemical_formula_structural   NaSe2
_chemical_formula_sum   'Na8 Se16'
_cell_volume   636.48516915
_cell_formula_units_Z   8
loop_
 _symmetry_equiv_pos_site_id
 _symmetry_equiv_pos_as_xyz
  1  'x, y, z'
loop_
 _atom_site_type_symbol
 _atom_site_label
 _atom_site_symmetry_multiplicity
 _atom_site_fract_x
 _atom_site_fract_y
 _atom_site_fract_z
 _atom_site_occupancy
  Na  Na0  1  0.51053766  0.87500000  0.88553766  1
  Na  Na1  1  0.98946234  0.11446234  0.62500000  1
  Na  Na2  1  0.01053766  0.63553766  0.12500000  1
  Na  Na3  1  0.48946234  0.37500000  0.36446234  1
  Na  Na4  1  0.50000000  0.95272269  0.45272269  1
  Na  Na5  1  0.50000000  0.54727731  0.04727831  1
  Na  Na6  1  0.00000000  0.79727731  0.79727731  1
  Na  Na7  1  -0.00000000  0.20272169  0.20272169  1
  Se  Se0  1  0.26986914  0.53726989  0.55197529  1
  Se  Se1  1  0.98529461  0.44802471  0.71789385  1
  Se  Se2  1  0.01470539  0.73259825  0.46273011  1
  Se  Se3  1  0.48529461  0.46789385  0.69802471  1
  Se  Se4  1  0.51470539  0.21273011  0.98259825  1
  Se  Se5  1  0.73013086  0.28210615  0.26740175  1
  Se  Se6  1  0.76986914  0.30197529  0.78726989  1
  Se  Se7  1  0.23013086  0.01740175  0.53210615  1
  Se  Se8  1  0.20590288  0.03036134  0.27437931  1
  Se  Se9  1  0.79409712  0.06847642  0.82445646  1
  Se  Se10  1  0.70590288  0.02437931  0.28036134  1
  Se  Se11  1  0.24401997  0.17554354  0.96963866  1
  Se  Se12  1  0.75598003  0.72562069  0.93152358  1
  Se  Se13  1  0.74401997  0.71963866  0.42554354  1
  Se  Se14  1  0.25598003  0.68152358  0.97562069  1
  Se  Se15  1  0.29409712  0.57445646  0.31847642  1
loop_
_geom_bond_atom_site_label_1
_geom_bond_atom_site_label_2
_geom_bond_distance
_geom_bond_site_symmetry_2
Na0 Se14 2.920312 1_555
Na0 Se9 2.920313 1_565
Na0 Se12 3.098089 1_555
Na0 Se10 3.098105 1_566
Na0 Se4 3.121269 1_565
Na0 Se0 3.121270 1_555
Na1 Se11 2.920298 1_655
Na1 Se10 2.920299 1_555
Na1 Se9 3.098089 1_555
Na1 Se13 3.098104 1_545
Na1 Se7 3.121265 1_655
Na1 Se1 3.121270 1_555
Na2 Se12 2.920312 1_454
Na2 Se15 2.920312 1_555
Na2 Se14 3.098089 1_554
Na2 Se8 3.098106 1_565
Na2 Se2 3.121269 1_555
Na2 Se6 3.121270 1_454
Na3 Se13 2.920298 1_555
Na3 Se8 2.920300 1_555
Na3 Se15 3.098089 1_555
Na3 Se11 3.098104 1_554
Na3 Se5 3.121265 1_555
Na3 Se3 3.121270 1_555
Na4 Se10 2.964864 1_565
Na4 Se15 2.964881 1_555
Na4 Se9 3.068052 1_565
Na4 Se8 3.068066 1_565
Na4 Se6 3.168155 1_565
Na4 Se7 3.168160 1_565
Na5 Se13 2.964873 1_555
Na5 Se14 2.964880 1_554
Na5 Se11 3.068044 1_554
Na5 Se12 3.068060 1_554
Na5 Se4 3.168156 1_554
Na5 Se3 3.168164 1_554
Na6 Se11 2.964880 1_565
Na6 Se12 2.964881 1_455
Na6 Se13 3.068046 1_455
Na6 Se14 3.068052 1_555
Na6 Se2 3.168155 1_555
Na6 Se1 3.168155 1_455
Na7 Se8 2.964857 1_555
Na7 Se9 2.964873 1_454
Na7 Se15 3.068057 1_555
Na7 Se10 3.068070 1_455
Na7 Se0 3.168165 1_555
Na7 Se5 3.168169 1_455
Se0 Se3 2.370302 1_555
Se0 Se15 2.380897 1_555
Se1 Se6 2.370302 1_555
Se1 Se14 2.380897 1_655
Se2 Se7 2.370316 1_565
Se4 Se5 2.370316 1_556
Se6 Se9 2.380898 1_555
Se7 Se8 2.380900 1_555
Se10 Se5 2.380900 1_555
Se11 Se4 2.380894 1_555
Se12 Se3 2.380897 1_555
Se13 Se2 2.380894 1_655
