# generated using pymatgen
data_LiFe(SiO3)2
_symmetry_space_group_name_H-M   'P 1'
_cell_length_a   8.80175700
_cell_length_b   5.33480500
_cell_length_c   9.37432554
_cell_angle_alpha   78.07247249
_cell_angle_beta   90.00000000
_cell_angle_gamma   90.00000000
_symmetry_Int_Tables_number   1
_chemical_formula_structural   LiFe(SiO3)2
_chemical_formula_sum   'Li4 Fe4 Si8 O24'
_cell_volume   430.67409533
_cell_formula_units_Z   4
loop_
 _symmetry_equiv_pos_site_id
 _symmetry_equiv_pos_as_xyz
  1  'x, y, z'
loop_
 _atom_site_type_symbol
 _atom_site_label
 _atom_site_symmetry_multiplicity
 _atom_site_fract_x
 _atom_site_fract_y
 _atom_site_fract_z
 _atom_site_occupancy
  Li  Li0  1  0.00261200  0.99066200  0.24767000  1
  Li  Li1  1  0.50261200  0.50933800  0.75233000  1
  Li  Li2  1  0.99738800  0.00933800  0.75233000  1
  Li  Li3  1  0.49738800  0.49066200  0.24767000  1
  Fe  Fe0  1  0.64728100  0.98754800  0.25031200  1
  Fe  Fe1  1  0.85271900  0.48754800  0.25031200  1
  Fe  Fe2  1  0.35271900  0.01245200  0.74968800  1
  Fe  Fe3  1  0.14728100  0.51245200  0.74968800  1
  Si  Si0  1  0.66135200  0.77091000  0.95218000  1
  Si  Si1  1  0.66090000  0.20912000  0.54739700  1
  Si  Si2  1  0.16090000  0.29088000  0.45260300  1
  Si  Si3  1  0.33910000  0.79088000  0.45260300  1
  Si  Si4  1  0.83910000  0.70912000  0.54739700  1
  Si  Si5  1  0.16135200  0.72909000  0.04782000  1
  Si  Si6  1  0.83864800  0.27091000  0.95218000  1
  Si  Si7  1  0.33864800  0.22909000  0.04782000  1
  O  O0  1  0.49687800  0.22919800  0.62239900  1
  O  O1  1  0.77092400  0.41873300  0.60324200  1
  O  O2  1  0.27092400  0.08126700  0.39675800  1
  O  O3  1  0.22907600  0.58126700  0.39675800  1
  O  O4  1  0.72907600  0.91873300  0.60324200  1
  O  O5  1  0.23353000  0.97373600  0.10715500  1
  O  O6  1  0.73353000  0.52626400  0.89284500  1
  O  O7  1  0.76647000  0.02626400  0.89284500  1
  O  O8  1  0.26647000  0.47373600  0.10715500  1
  O  O9  1  0.83594700  0.77231500  0.36645600  1
  O  O10  1  0.99687800  0.27080200  0.37760100  1
  O  O11  1  0.50312200  0.77080200  0.37760100  1
  O  O12  1  0.33379500  0.29440300  0.86732000  1
  O  O13  1  0.83379500  0.20559700  0.13268000  1
  O  O14  1  0.66620500  0.70559700  0.13268000  1
  O  O15  1  0.16620500  0.79440300  0.86732000  1
  O  O16  1  0.16405300  0.22768500  0.63354400  1
  O  O17  1  0.33594700  0.72768500  0.63354400  1
  O  O18  1  0.99317400  0.69778500  0.11792500  1
  O  O19  1  0.66405300  0.27231500  0.36645600  1
  O  O20  1  0.50682600  0.19778500  0.11792500  1
  O  O21  1  0.00682600  0.30221500  0.88207500  1
  O  O22  1  0.49317400  0.80221500  0.88207500  1
  O  O23  1  0.00312200  0.72919800  0.62239900  1
loop_
_geom_bond_atom_site_label_1
_geom_bond_atom_site_label_2
_geom_bond_distance
_geom_bond_site_symmetry_2
Li0 O13 2.042966 1_465
Li0 O9 2.052460 1_455
Li0 O10 2.114720 1_465
Li0 O18 2.170933 1_455
Li0 O5 2.433806 1_555
Li1 O12 2.042966 1_555
Li1 O17 2.052460 1_555
Li1 O0 2.114720 1_555
Li1 O22 2.170933 1_555
Li1 O6 2.433806 1_555
Li2 O15 2.042966 1_645
Li2 O16 2.052460 1_655
Li2 O23 2.114720 1_645
Li2 O21 2.170933 1_655
Li2 O7 2.433806 1_555
Li3 O14 2.042966 1_555
Li3 O19 2.052460 1_555
Li3 O11 2.114720 1_555
Li3 O20 2.170933 1_555
Li3 O8 2.433806 1_555
Fe0 O20 1.936769 1_565
Fe0 O11 1.949496 1_555
Fe0 O14 2.047393 1_555
Fe0 O19 2.049099 1_565
Fe0 O13 2.175762 1_565
Fe0 O9 2.178225 1_555
Fe1 O18 1.936769 1_555
Fe1 O10 1.949496 1_555
Fe1 O13 2.047393 1_555
Fe1 O9 2.049099 1_555
Fe1 O14 2.175762 1_555
Fe1 O19 2.178225 1_555
Fe2 O22 1.936769 1_545
Fe2 O0 1.949496 1_555
Fe2 O12 2.047393 1_555
Fe2 O17 2.049099 1_545
Fe2 O15 2.175762 1_545
Fe2 O16 2.178225 1_555
Fe3 O21 1.936769 1_555
Fe3 O23 1.949496 1_555
Fe3 O15 2.047393 1_555
Fe3 O16 2.049099 1_555
Fe3 O12 2.175762 1_555
Fe3 O17 2.178225 1_555
O0 Si1 1.618999 1_555
O1 Si4 1.642805 1_555
O1 Si1 1.644481 1_555
O2 Si3 1.642805 1_545
O2 Si2 1.644481 1_555
O3 Si2 1.642805 1_555
O3 Si3 1.644481 1_555
O4 Si1 1.642805 1_565
O4 Si4 1.644481 1_555
O5 Si7 1.645595 1_565
O5 Si5 1.648163 1_555
O6 Si6 1.645595 1_555
O6 Si0 1.648163 1_555
O7 Si0 1.645595 1_545
O7 Si6 1.648163 1_555
O8 Si5 1.645595 1_555
O8 Si7 1.648163 1_555
O9 Si4 1.659865 1_555
O10 Si2 1.618999 1_655
O11 Si3 1.618999 1_555
O12 Si7 1.656085 1_556
O13 Si6 1.656085 1_554
O14 Si0 1.656085 1_554
O15 Si5 1.656085 1_556
O16 Si2 1.659865 1_555
O17 Si3 1.659865 1_555
O18 Si5 1.614185 1_655
O19 Si1 1.659865 1_555
O20 Si7 1.614185 1_555
O21 Si6 1.614185 1_455
O22 Si0 1.614185 1_555
O23 Si4 1.618999 1_455
