# generated using pymatgen
data_Mg3Ga
_symmetry_space_group_name_H-M   'P 1'
_cell_length_a   6.56212052
_cell_length_b   9.68960848
_cell_length_c   10.20955578
_cell_angle_alpha   90.00000000
_cell_angle_beta   90.00000000
_cell_angle_gamma   90.00000000
_symmetry_Int_Tables_number   1
_chemical_formula_structural   Mg3Ga
_chemical_formula_sum   'Mg24 Ga8'
_cell_volume   649.16826043
_cell_formula_units_Z   8
loop_
 _symmetry_equiv_pos_site_id
 _symmetry_equiv_pos_as_xyz
  1  'x, y, z'
loop_
 _atom_site_type_symbol
 _atom_site_label
 _atom_site_symmetry_multiplicity
 _atom_site_fract_x
 _atom_site_fract_y
 _atom_site_fract_z
 _atom_site_occupancy
  Mg  Mg0_0  1  0.00000000  0.00000000  0.33982658  1
  Mg  Mg0_1  1  0.00000000  0.00000000  0.83982658  1
  Mg  Mg0_2  1  0.00000000  0.50000000  0.33982658  1
  Mg  Mg0_3  1  0.00000000  0.50000000  0.83982658  1
  Mg  Mg0_4  1  0.50000000  0.00000000  0.33982658  1
  Mg  Mg0_5  1  0.50000000  0.00000000  0.83982658  1
  Mg  Mg0_6  1  0.50000000  0.50000000  0.33982658  1
  Mg  Mg0_7  1  0.50000000  0.50000000  0.83982658  1
  Mg  Mg1_0  1  0.00000000  0.25000000  0.15762807  1
  Mg  Mg1_1  1  0.00000000  0.25000000  0.65762807  1
  Mg  Mg1_2  1  0.00000000  0.75000000  0.15762807  1
  Mg  Mg1_3  1  0.00000000  0.75000000  0.65762807  1
  Mg  Mg1_4  1  0.50000000  0.25000000  0.15762807  1
  Mg  Mg1_5  1  0.50000000  0.25000000  0.65762807  1
  Mg  Mg1_6  1  0.50000000  0.75000000  0.15762807  1
  Mg  Mg1_7  1  0.50000000  0.75000000  0.65762807  1
  Mg  Mg2_0  1  0.25000000  0.25000000  0.41408196  1
  Mg  Mg2_1  1  0.25000000  0.25000000  0.91408196  1
  Mg  Mg2_2  1  0.25000000  0.75000000  0.41408196  1
  Mg  Mg2_3  1  0.25000000  0.75000000  0.91408196  1
  Mg  Mg2_4  1  0.75000000  0.25000000  0.41408196  1
  Mg  Mg2_5  1  0.75000000  0.25000000  0.91408196  1
  Mg  Mg2_6  1  0.75000000  0.75000000  0.41408196  1
  Mg  Mg2_7  1  0.75000000  0.75000000  0.91408196  1
  Ga  Ga0_0  1  0.25000000  0.00000000  0.08846340  1
  Ga  Ga0_1  1  0.25000000  0.00000000  0.58846339  1
  Ga  Ga0_2  1  0.25000000  0.50000000  0.08846340  1
  Ga  Ga0_3  1  0.25000000  0.50000000  0.58846339  1
  Ga  Ga0_4  1  0.75000000  0.00000000  0.08846340  1
  Ga  Ga0_5  1  0.75000000  0.00000000  0.58846339  1
  Ga  Ga0_6  1  0.75000000  0.50000000  0.08846340  1
  Ga  Ga0_7  1  0.75000000  0.50000000  0.58846339  1
loop_
_geom_bond_atom_site_label_1
_geom_bond_atom_site_label_2
_geom_bond_distance
_geom_bond_site_symmetry_2
Mg0_0 Mg2_0 3.022269 1_555
Mg0_0 Mg2_4 3.022269 1_455
Mg0_0 Mg2_6 3.022269 1_445
Mg0_0 Mg2_2 3.022269 1_545
Mg0_0 Mg1_0 3.054218 1_555
Mg0_0 Mg1_2 3.054218 1_545
Mg0_0 Mg0_4 3.281060 1_455
Mg0_0 Mg0_4 3.281060 1_555
Mg0_1 Mg2_5 3.022269 1_455
Mg0_1 Mg2_1 3.022269 1_555
Mg0_1 Mg2_3 3.022269 1_545
Mg0_1 Mg2_7 3.022269 1_445
Mg0_1 Mg1_1 3.054218 1_555
Mg0_1 Mg1_3 3.054218 1_545
Mg0_1 Mg0_5 3.281060 1_455
Mg0_1 Mg0_5 3.281060 1_555
Mg0_2 Mg2_0 3.022269 1_555
Mg0_2 Mg2_4 3.022269 1_455
Mg0_2 Mg2_6 3.022269 1_455
Mg0_2 Mg2_2 3.022269 1_555
Mg0_2 Mg1_0 3.054218 1_555
Mg0_2 Mg1_2 3.054218 1_555
Mg0_2 Mg0_6 3.281060 1_555
Mg0_2 Mg0_6 3.281060 1_455
Mg0_3 Mg2_5 3.022269 1_455
Mg0_3 Mg2_1 3.022269 1_555
Mg0_3 Mg2_7 3.022269 1_455
Mg0_3 Mg2_3 3.022269 1_555
Mg0_3 Mg1_1 3.054218 1_555
Mg0_3 Mg1_3 3.054218 1_555
Mg0_3 Mg0_7 3.281060 1_455
Mg0_3 Mg0_7 3.281060 1_555
Mg0_4 Mg2_0 3.022269 1_555
Mg0_4 Mg2_4 3.022269 1_555
Mg0_4 Mg2_2 3.022269 1_545
Mg0_4 Mg2_6 3.022269 1_545
Mg0_4 Mg1_4 3.054218 1_555
Mg0_4 Mg1_6 3.054218 1_545
Mg0_5 Mg2_5 3.022269 1_555
Mg0_5 Mg2_1 3.022269 1_555
Mg0_5 Mg2_7 3.022269 1_545
Mg0_5 Mg2_3 3.022269 1_545
Mg0_5 Mg1_5 3.054218 1_555
Mg0_5 Mg1_7 3.054218 1_545
Mg0_6 Mg2_0 3.022269 1_555
Mg0_6 Mg2_4 3.022269 1_555
Mg0_6 Mg2_6 3.022269 1_555
Mg0_6 Mg2_2 3.022269 1_555
Mg0_6 Mg1_4 3.054218 1_555
Mg0_6 Mg1_6 3.054218 1_555
Mg0_7 Mg2_5 3.022269 1_555
Mg0_7 Mg2_1 3.022269 1_555
Mg0_7 Mg2_7 3.022269 1_555
Mg0_7 Mg2_3 3.022269 1_555
Mg0_7 Mg1_5 3.054218 1_555
Mg0_7 Mg1_7 3.054218 1_555
Mg1_0 Mg2_1 2.978928 1_554
Mg1_0 Mg2_5 2.978928 1_454
Mg1_0 Mg2_0 3.089778 1_555
Mg1_0 Mg2_4 3.089778 1_455
Mg1_0 Mg1_4 3.281060 1_455
Mg1_0 Mg1_4 3.281060 1_555
Mg1_1 Mg2_4 2.978928 1_455
Mg1_1 Mg2_0 2.978928 1_555
Mg1_1 Mg2_5 3.089778 1_455
Mg1_1 Mg2_1 3.089778 1_555
Mg1_1 Mg1_5 3.281060 1_555
Mg1_1 Mg1_5 3.281060 1_455
Mg1_2 Mg2_7 2.978928 1_454
Mg1_2 Mg2_3 2.978928 1_554
Mg1_2 Mg2_2 3.089778 1_555
Mg1_2 Mg2_6 3.089778 1_455
Mg1_2 Mg1_6 3.281060 1_455
Mg1_2 Mg1_6 3.281060 1_555
Mg1_3 Mg2_2 2.978928 1_555
Mg1_3 Mg2_6 2.978928 1_455
Mg1_3 Mg2_7 3.089778 1_455
Mg1_3 Mg2_3 3.089778 1_555
Mg1_3 Mg1_7 3.281060 1_455
Mg1_3 Mg1_7 3.281060 1_555
Mg1_4 Mg2_1 2.978928 1_554
Mg1_4 Mg2_5 2.978928 1_554
Mg1_4 Mg2_0 3.089778 1_555
Mg1_4 Mg2_4 3.089778 1_555
Mg1_5 Mg2_4 2.978928 1_555
Mg1_5 Mg2_0 2.978928 1_555
Mg1_5 Mg2_1 3.089778 1_555
Mg1_5 Mg2_5 3.089778 1_555
Mg1_6 Mg2_3 2.978928 1_554
Mg1_6 Mg2_7 2.978928 1_554
Mg1_6 Mg2_2 3.089778 1_555
Mg1_6 Mg2_6 3.089778 1_555
Mg1_7 Mg2_6 2.978928 1_555
Mg1_7 Mg2_2 2.978928 1_555
Mg1_7 Mg2_7 3.089778 1_555
Mg1_7 Mg2_3 3.089778 1_555
Mg2_0 Mg2_4 3.281060 1_455
Mg2_0 Mg2_4 3.281060 1_555
Mg2_1 Mg2_5 3.281060 1_455
Mg2_1 Mg2_5 3.281060 1_555
Mg2_2 Mg2_6 3.281060 1_555
Mg2_2 Mg2_6 3.281060 1_455
Mg2_3 Mg2_7 3.281060 1_555
Mg2_3 Mg2_7 3.281060 1_455
Ga0_0 Mg2_1 3.006277 1_554
Ga0_0 Mg2_3 3.006277 1_544
Ga0_0 Mg1_0 3.009652 1_555
Ga0_0 Mg1_4 3.009652 1_555
Ga0_0 Mg1_2 3.009652 1_545
Ga0_0 Mg1_6 3.009652 1_545
Ga0_0 Mg0_1 3.022445 1_554
Ga0_0 Mg0_5 3.022445 1_554
Ga0_0 Mg0_0 3.045861 1_555
Ga0_0 Mg0_4 3.045861 1_555
Ga0_1 Mg2_0 3.006277 1_555
Ga0_1 Mg2_2 3.006277 1_545
Ga0_1 Mg1_5 3.009652 1_555
Ga0_1 Mg1_1 3.009652 1_555
Ga0_1 Mg1_3 3.009652 1_545
Ga0_1 Mg1_7 3.009652 1_545
Ga0_1 Mg0_0 3.022445 1_555
Ga0_1 Mg0_4 3.022445 1_555
Ga0_1 Mg0_1 3.045861 1_555
Ga0_1 Mg0_5 3.045861 1_555
Ga0_2 Mg2_1 3.006277 1_554
Ga0_2 Mg2_3 3.006277 1_554
Ga0_2 Mg1_0 3.009652 1_555
Ga0_2 Mg1_4 3.009652 1_555
Ga0_2 Mg1_6 3.009652 1_555
Ga0_2 Mg1_2 3.009652 1_555
Ga0_2 Mg0_7 3.022445 1_554
Ga0_2 Mg0_3 3.022445 1_554
Ga0_2 Mg0_6 3.045861 1_555
Ga0_2 Mg0_2 3.045861 1_555
Ga0_3 Mg2_0 3.006277 1_555
Ga0_3 Mg2_2 3.006277 1_555
Ga0_3 Mg1_5 3.009652 1_555
Ga0_3 Mg1_1 3.009652 1_555
Ga0_3 Mg1_3 3.009652 1_555
Ga0_3 Mg1_7 3.009652 1_555
Ga0_3 Mg0_2 3.022445 1_555
Ga0_3 Mg0_6 3.022445 1_555
Ga0_3 Mg0_3 3.045861 1_555
Ga0_3 Mg0_7 3.045861 1_555
Ga0_4 Mg2_5 3.006277 1_554
Ga0_4 Mg2_7 3.006277 1_544
Ga0_4 Mg1_4 3.009652 1_555
Ga0_4 Mg1_0 3.009652 1_655
Ga0_4 Mg1_2 3.009652 1_645
Ga0_4 Mg1_6 3.009652 1_545
Ga0_4 Mg0_1 3.022445 1_654
Ga0_4 Mg0_5 3.022445 1_554
Ga0_4 Mg0_4 3.045861 1_555
Ga0_4 Mg0_0 3.045861 1_655
Ga0_5 Mg2_4 3.006277 1_555
Ga0_5 Mg2_6 3.006277 1_545
Ga0_5 Mg1_1 3.009652 1_655
Ga0_5 Mg1_5 3.009652 1_555
Ga0_5 Mg1_3 3.009652 1_645
Ga0_5 Mg1_7 3.009652 1_545
Ga0_5 Mg0_4 3.022445 1_555
Ga0_5 Mg0_0 3.022445 1_655
Ga0_5 Mg0_1 3.045861 1_655
Ga0_5 Mg0_5 3.045861 1_555
Ga0_6 Mg2_5 3.006277 1_554
Ga0_6 Mg2_7 3.006277 1_554
Ga0_6 Mg1_4 3.009652 1_555
Ga0_6 Mg1_0 3.009652 1_655
Ga0_6 Mg1_6 3.009652 1_555
Ga0_6 Mg1_2 3.009652 1_655
Ga0_6 Mg0_7 3.022445 1_554
Ga0_6 Mg0_3 3.022445 1_654
Ga0_6 Mg0_6 3.045861 1_555
Ga0_6 Mg0_2 3.045861 1_655
Ga0_7 Mg2_4 3.006277 1_555
Ga0_7 Mg2_6 3.006277 1_555
Ga0_7 Mg1_1 3.009652 1_655
Ga0_7 Mg1_5 3.009652 1_555
Ga0_7 Mg1_7 3.009652 1_555
Ga0_7 Mg1_3 3.009652 1_655
Ga0_7 Mg0_2 3.022445 1_655
Ga0_7 Mg0_6 3.022445 1_555
Ga0_7 Mg0_7 3.045861 1_555
Ga0_7 Mg0_3 3.045861 1_655
