# generated using pymatgen
data_Cr3(FeO6)2
_symmetry_space_group_name_H-M   'P 1'
_cell_length_a   6.69826900
_cell_length_b   8.49094892
_cell_length_c   9.92509227
_cell_angle_alpha   107.57466121
_cell_angle_beta   104.57947600
_cell_angle_gamma   103.09675991
_symmetry_Int_Tables_number   1
_chemical_formula_structural   Cr3(FeO6)2
_chemical_formula_sum   'Cr6 Fe4 O24'
_cell_volume   492.00121853
_cell_formula_units_Z   2
loop_
 _symmetry_equiv_pos_site_id
 _symmetry_equiv_pos_as_xyz
  1  'x, y, z'
loop_
 _atom_site_type_symbol
 _atom_site_label
 _atom_site_symmetry_multiplicity
 _atom_site_fract_x
 _atom_site_fract_y
 _atom_site_fract_z
 _atom_site_occupancy
  Cr  Cr0  1  0.88365800  0.89457100  0.66171900  1
  Cr  Cr1  1  0.11634200  0.10542900  0.33828100  1
  Cr  Cr2  1  0.21769500  0.66551800  0.26054300  1
  Cr  Cr3  1  0.78230500  0.33448200  0.73945700  1
  Cr  Cr4  1  0.59718100  0.25695900  0.13453100  1
  Cr  Cr5  1  0.40281900  0.74304100  0.86546900  1
  Fe  Fe0  1  0.37645100  0.95827900  0.60694200  1
  Fe  Fe1  1  0.62354900  0.04172100  0.39305800  1
  Fe  Fe2  1  0.05016900  0.21259200  0.01828300  1
  Fe  Fe3  1  0.94983100  0.78740800  0.98171700  1
  O  O0  1  0.07442400  0.05384600  0.14899800  1
  O  O1  1  0.92557600  0.94615400  0.85100200  1
  O  O2  1  0.57055000  0.13498700  0.24064500  1
  O  O3  1  0.42945000  0.86501300  0.75935500  1
  O  O4  1  0.17995300  0.45285500  0.18214600  1
  O  O5  1  0.82004700  0.54714500  0.81785400  1
  O  O6  1  0.97922500  0.28215500  0.84098200  1
  O  O7  1  0.02077500  0.71784500  0.15901800  1
  O  O8  1  0.23916800  0.79972200  0.96296200  1
  O  O9  1  0.76083200  0.20027800  0.03703800  1
  O  O10  1  0.89239800  0.00265300  0.36118400  1
  O  O11  1  0.10760200  0.99734700  0.63881600  1
  O  O12  1  0.54355000  0.21774700  0.73590900  1
  O  O13  1  0.45645000  0.78225300  0.26409100  1
  O  O14  1  0.34465800  0.22018000  0.01730700  1
  O  O15  1  0.65534200  0.77982000  0.98269300  1
  O  O16  1  0.33308100  0.05005100  0.42927600  1
  O  O17  1  0.66691900  0.94994900  0.57072400  1
  O  O18  1  0.22245400  0.71961500  0.43826900  1
  O  O19  1  0.77754600  0.28038500  0.56173100  1
  O  O20  1  0.70332900  0.45859300  0.24338500  1
  O  O21  1  0.29667100  0.54140700  0.75661500  1
  O  O22  1  0.16587000  0.31005800  0.41303500  1
  O  O23  1  0.83413000  0.68994200  0.58696500  1
loop_
_geom_bond_atom_site_label_1
_geom_bond_atom_site_label_2
_geom_bond_distance
_geom_bond_site_symmetry_2
Cr0 O23 1.586122 1_555
Cr0 O11 1.661790 1_655
Cr0 O1 1.726791 1_555
Cr0 O17 1.746463 1_555
Cr1 O22 1.586122 1_555
Cr1 O10 1.661790 1_455
Cr1 O0 1.726791 1_555
Cr1 O16 1.746463 1_555
Cr2 O13 1.665375 1_555
Cr2 O4 1.665995 1_555
Cr2 O18 1.673101 1_555
Cr2 O7 1.679108 1_555
Cr3 O12 1.665375 1_555
Cr3 O5 1.665995 1_555
Cr3 O19 1.673101 1_555
Cr3 O6 1.679108 1_555
Cr4 O20 1.596406 1_555
Cr4 O9 1.691565 1_555
Cr4 O14 1.691940 1_555
Cr4 O2 1.697992 1_555
Cr5 O21 1.596406 1_555
Cr5 O8 1.691565 1_555
Cr5 O15 1.691940 1_555
Cr5 O3 1.697992 1_555
Fe0 O3 1.903140 1_555
Fe0 O11 1.986768 1_555
Fe0 O18 2.026774 1_555
Fe0 O12 2.050163 1_565
Fe0 O17 2.078178 1_555
Fe0 O16 2.115534 1_565
Fe1 O2 1.903140 1_555
Fe1 O10 1.986768 1_555
Fe1 O19 2.026774 1_555
Fe1 O13 2.050163 1_545
Fe1 O16 2.078178 1_555
Fe1 O17 2.115534 1_545
Fe2 O14 1.961546 1_555
Fe2 O9 1.975649 1_455
Fe2 O6 2.001307 1_454
Fe2 O4 2.010832 1_555
Fe2 O0 2.139054 1_555
Fe2 O1 2.179352 1_444
Fe3 O15 1.961546 1_555
Fe3 O8 1.975649 1_655
Fe3 O7 2.001307 1_656
Fe3 O5 2.010832 1_555
Fe3 O1 2.139054 1_555
Fe3 O0 2.179352 1_666
