# generated using pymatgen
data_Li4Co5SnO12
_symmetry_space_group_name_H-M   'P 1'
_cell_length_a   5.05566755
_cell_length_b   10.95411815
_cell_length_c   8.83132401
_cell_angle_alpha   65.30039106
_cell_angle_beta   89.24620648
_cell_angle_gamma   84.06086861
_symmetry_Int_Tables_number   1
_chemical_formula_structural   Li4Co5SnO12
_chemical_formula_sum   'Li8 Co10 Sn2 O24'
_cell_volume   441.70648922
_cell_formula_units_Z   2
loop_
 _symmetry_equiv_pos_site_id
 _symmetry_equiv_pos_as_xyz
  1  'x, y, z'
loop_
 _atom_site_type_symbol
 _atom_site_label
 _atom_site_symmetry_multiplicity
 _atom_site_fract_x
 _atom_site_fract_y
 _atom_site_fract_z
 _atom_site_occupancy
  Li  Li0  1  0.05380600  0.74771200  0.46183500  1
  Li  Li1  1  0.54395300  0.74533700  0.96364300  1
  Li  Li2  1  0.44683100  0.25211400  0.70601200  1
  Li  Li3  1  0.95150500  0.25379400  0.21100000  1
  Li  Li4  1  0.54843400  0.74620400  0.28899400  1
  Li  Li5  1  0.05321500  0.74789300  0.79397000  1
  Li  Li6  1  0.95610400  0.25466900  0.53636800  1
  Li  Li7  1  0.44609400  0.25227100  0.03813900  1
  Co  Co0  1  0.24968100  0.50006800  0.41197400  1
  Co  Co1  1  0.74786700  0.50416900  0.91783900  1
  Co  Co2  1  0.75215400  0.49583900  0.58218000  1
  Co  Co3  1  0.25033700  0.49993500  0.08798100  1
  Co  Co4  1  0.49990400  0.99985100  0.16691500  1
  Co  Co5  1  0.99966600  0.00029700  0.66662600  1
  Co  Co6  1  0.50035100  0.99972500  0.83335700  1
  Co  Co7  1  0.00009900  0.00012600  0.33309800  1
  Co  Co8  1  0.75000600  0.50000300  0.25001300  1
  Co  Co9  1  0.24999000  0.49999100  0.74998600  1
  Sn  Sn0  1  0.99930100  0.00004700  0.00002900  1
  Sn  Sn1  1  0.50066300  0.99994600  0.49996500  1
  O  O0  1  0.93329300  0.60595600  0.69493000  1
  O  O1  1  0.41565300  0.60470400  0.20397400  1
  O  O2  1  0.56670600  0.39403600  0.80506800  1
  O  O3  1  0.08433300  0.39530300  0.29601100  1
  O  O4  1  0.33406200  0.10636500  0.94581900  1
  O  O5  1  0.83546900  0.10637300  0.44551200  1
  O  O6  1  0.66453500  0.89362600  0.05447800  1
  O  O7  1  0.16593900  0.89363700  0.55418200  1
  O  O8  1  0.30029500  0.10655700  0.62363800  1
  O  O9  1  0.79895000  0.10681800  0.12367200  1
  O  O10  1  0.20014300  0.89304500  0.23273700  1
  O  O11  1  0.70100700  0.89347800  0.73225900  1
  O  O12  1  0.79899800  0.10652400  0.76774100  1
  O  O13  1  0.29985700  0.10694800  0.26725900  1
  O  O14  1  0.70105200  0.89317800  0.37632900  1
  O  O15  1  0.19970800  0.89344700  0.87635200  1
  O  O16  1  0.10303700  0.38953200  0.62463400  1
  O  O17  1  0.61986100  0.39592100  0.14513000  1
  O  O18  1  0.62059100  0.39243100  0.46429100  1
  O  O19  1  0.10329400  0.39597600  0.96637900  1
  O  O20  1  0.39671500  0.60404900  0.53363900  1
  O  O21  1  0.87945900  0.60754500  0.03574400  1
  O  O22  1  0.88012100  0.60411300  0.35489700  1
  O  O23  1  0.39696400  0.61044600  0.87540000  1
loop_
_geom_bond_atom_site_label_1
_geom_bond_atom_site_label_2
_geom_bond_distance
_geom_bond_site_symmetry_2
Li0 O0 2.124006 1_455
Li0 O20 2.124732 1_555
Li0 O10 2.165133 1_555
Li0 O14 2.175225 1_455
Li0 O7 2.197910 1_555
Li0 O22 2.384626 1_455
Li1 O21 2.063057 1_556
Li1 O23 2.132534 1_555
Li1 O15 2.158977 1_555
Li1 O1 2.176400 1_556
Li1 O11 2.211809 1_555
Li1 O6 2.227227 1_556
Li2 O16 2.095412 1_555
Li2 O4 2.165642 1_555
Li2 O12 2.172997 1_555
Li2 O8 2.201889 1_555
Li2 O2 2.212450 1_555
Li2 O18 2.275784 1_555
Li3 O17 2.074150 1_555
Li3 O5 2.147144 1_555
Li3 O3 2.149113 1_655
Li3 O13 2.169067 1_655
Li3 O19 2.252431 1_654
Li3 O9 2.256549 1_555
Li4 O22 2.074086 1_555
Li4 O6 2.147282 1_555
Li4 O1 2.148984 1_555
Li4 O10 2.168810 1_555
Li4 O20 2.252334 1_555
Li4 O14 2.256704 1_555
Li5 O23 2.095419 1_555
Li5 O7 2.165437 1_555
Li5 O11 2.173129 1_455
Li5 O15 2.201814 1_555
Li5 O0 2.212583 1_455
Li5 O21 2.276190 1_456
Li6 O18 2.062910 1_555
Li6 O16 2.132277 1_655
Li6 O8 2.158778 1_655
Li6 O3 2.176430 1_655
Li6 O12 2.211877 1_555
Li6 O5 2.227516 1_555
Li7 O2 2.124076 1_554
Li7 O19 2.124568 1_554
Li7 O13 2.165007 1_555
Li7 O9 2.175552 1_555
Li7 O4 2.197386 1_554
Li7 O17 2.385608 1_555
Co0 O1 1.947050 1_555
Co0 O16 1.947199 1_555
Co0 O22 2.036628 1_455
Co0 O20 2.055099 1_555
Co0 O18 2.056700 1_555
Co0 O3 2.065879 1_555
Co1 O23 1.966841 1_555
Co1 O21 1.992154 1_556
Co1 O19 1.993051 1_655
Co1 O17 1.997371 1_556
Co1 O0 2.081037 1_555
Co1 O2 2.131407 1_555
Co2 O16 1.966887 1_655
Co2 O18 1.992275 1_555
Co2 O20 1.993179 1_555
Co2 O22 1.997304 1_555
Co2 O2 2.080992 1_555
Co2 O0 2.131079 1_555
Co3 O23 1.946603 1_554
Co3 O3 1.947301 1_555
Co3 O17 2.036365 1_555
Co3 O19 2.054501 1_554
Co3 O21 2.056450 1_455
Co3 O1 2.066033 1_555
Co4 O6 1.943231 1_555
Co4 O10 1.943918 1_555
Co4 O9 1.944739 1_565
Co4 O13 1.945293 1_565
Co4 O4 1.952832 1_564
Co4 O14 1.953819 1_555
Co5 O11 1.939270 1_545
Co5 O12 1.944458 1_555
Co5 O8 1.946958 1_655
Co5 O5 1.949156 1_555
Co5 O7 1.949933 1_645
Co5 O15 1.953422 1_645
Co6 O12 1.939091 1_565
Co6 O11 1.944487 1_555
Co6 O15 1.947132 1_555
Co6 O6 1.949211 1_556
Co6 O4 1.949914 1_565
Co6 O8 1.953382 1_565
Co7 O5 1.943261 1_455
Co7 O13 1.944008 1_555
Co7 O14 1.944625 1_445
Co7 O10 1.945262 1_545
Co7 O7 1.952711 1_545
Co7 O9 1.953927 1_455
Co8 O3 1.888083 1_655
Co8 O1 1.888188 1_555
Co8 O17 1.909085 1_555
Co8 O22 1.909285 1_555
Co8 O21 1.913325 1_555
Co8 O18 1.913385 1_555
Co9 O0 1.819763 1_455
Co9 O2 1.819797 1_555
Co9 O20 1.953883 1_555
Co9 O19 1.954016 1_555
Co9 O16 2.137435 1_555
Co9 O23 2.137858 1_555
O4 Sn0 2.090576 1_456
O5 Sn1 2.091393 1_545
O6 Sn0 2.091183 1_565
O7 Sn1 2.090359 1_555
O8 Sn1 2.091629 1_545
O9 Sn0 2.092668 1_555
O10 Sn0 2.103302 1_465
O11 Sn1 2.098879 1_555
O12 Sn0 2.098758 1_556
O13 Sn1 2.103209 1_545
O14 Sn1 2.092678 1_555
O15 Sn0 2.091651 1_466
