# generated using pymatgen
data_AlB2H18C4N
_symmetry_space_group_name_H-M   'P 1'
_cell_length_a   8.32843838
_cell_length_b   8.32843838
_cell_length_c   16.70065287
_cell_angle_alpha   91.88738148
_cell_angle_beta   91.88738148
_cell_angle_gamma   112.65763650
_symmetry_Int_Tables_number   1
_chemical_formula_structural   AlB2H18C4N
_chemical_formula_sum   'Al4 B8 H72 C16 N4'
_cell_volume   1067.11558673
_cell_formula_units_Z   4
loop_
 _symmetry_equiv_pos_site_id
 _symmetry_equiv_pos_as_xyz
  1  'x, y, z'
loop_
 _atom_site_type_symbol
 _atom_site_label
 _atom_site_symmetry_multiplicity
 _atom_site_fract_x
 _atom_site_fract_y
 _atom_site_fract_z
 _atom_site_occupancy
  Al  Al0  1  0.75606100  0.51578000  0.29527200  1
  Al  Al1  1  0.48422000  0.24393900  0.20472800  1
  Al  Al2  1  0.24393900  0.48422000  0.70472800  1
  Al  Al3  1  0.51578000  0.75606100  0.79527200  1
  B  B0  1  0.72822100  0.73795500  0.36103900  1
  B  B1  1  0.26204500  0.27177900  0.13896100  1
  B  B2  1  0.27177900  0.26204500  0.63896100  1
  B  B3  1  0.73795500  0.72822100  0.86103900  1
  B  B4  1  0.03442100  0.56245600  0.31629600  1
  B  B5  1  0.43754300  0.96557900  0.18370400  1
  B  B6  1  0.96557900  0.43754400  0.68370400  1
  B  B7  1  0.56245600  0.03442100  0.81629600  1
  H  H0  1  0.77967500  0.63214600  0.39421200  1
  H  H1  1  0.36785400  0.22032500  0.10578800  1
  H  H2  1  0.22032500  0.36785400  0.60578800  1
  H  H3  1  0.63214600  0.77967500  0.89421200  1
  H  H4  1  0.85142700  0.87403300  0.35759800  1
  H  H5  1  0.12596700  0.14857300  0.14240200  1
  H  H6  1  0.14857300  0.12596700  0.64240200  1
  H  H7  1  0.87403300  0.85142700  0.85759800  1
  H  H8  1  0.67472200  0.68595200  0.28929900  1
  H  H9  1  0.31404800  0.32527800  0.21070100  1
  H  H10  1  0.32527800  0.31404800  0.71070100  1
  H  H11  1  0.68595200  0.67472200  0.78929900  1
  H  H12  1  0.60109800  0.73657100  0.39380700  1
  H  H13  1  0.26342900  0.39890200  0.10619300  1
  H  H14  1  0.39890200  0.26342900  0.60619300  1
  H  H15  1  0.73657100  0.60109800  0.89380700  1
  H  H16  1  0.98254100  0.66737800  0.28253800  1
  H  H17  1  0.33262200  0.01745900  0.21746200  1
  H  H18  1  0.01745900  0.33262200  0.71746200  1
  H  H19  1  0.66737800  0.98254100  0.78253800  1
  H  H20  1  0.90695500  0.42155100  0.32710300  1
  H  H21  1  0.57844900  0.09304500  0.17289700  1
  H  H22  1  0.09304500  0.57844900  0.67289700  1
  H  H23  1  0.42155100  0.90695500  0.82710300  1
  H  H24  1  0.12351100  0.52313900  0.27064000  1
  H  H25  1  0.47686100  0.87648900  0.22936000  1
  H  H26  1  0.87648900  0.47686100  0.72936000  1
  H  H27  1  0.52313900  0.12351100  0.77064000  1
  H  H28  1  0.09463100  0.62461200  0.38205800  1
  H  H29  1  0.37538800  0.90536900  0.11794200  1
  H  H30  1  0.90536900  0.37538800  0.61794200  1
  H  H31  1  0.62461200  0.09463100  0.88205800  1
  H  H32  1  0.47743800  0.39474400  0.42667900  1
  H  H33  1  0.60525600  0.52256200  0.07332100  1
  H  H34  1  0.52256200  0.60525600  0.57332100  1
  H  H35  1  0.39474400  0.47743800  0.92667900  1
  H  H36  1  0.38991800  0.44376100  0.33843300  1
  H  H37  1  0.55623900  0.61008200  0.16156700  1
  H  H38  1  0.61008200  0.55623900  0.66156700  1
  H  H39  1  0.44376100  0.38991800  0.83843300  1
  H  H40  1  0.26480000  0.08041400  0.41013100  1
  H  H41  1  0.91958600  0.73520000  0.08986900  1
  H  H42  1  0.73520000  0.91958600  0.58986900  1
  H  H43  1  0.08041400  0.26480000  0.91013100  1
  H  H44  1  0.17890100  0.12699000  0.31908800  1
  H  H45  1  0.87301000  0.82109900  0.18091200  1
  H  H46  1  0.82109900  0.87301000  0.68091200  1
  H  H47  1  0.12699000  0.17890100  0.81908800  1
  H  H48  1  0.16377200  0.23218800  0.41080000  1
  H  H49  1  0.76781200  0.83622800  0.08920000  1
  H  H50  1  0.83622800  0.76781200  0.58920000  1
  H  H51  1  0.23218800  0.16377200  0.91080000  1
  H  H52  1  0.70404300  0.14914500  0.32363400  1
  H  H53  1  0.85085500  0.29595700  0.17636600  1
  H  H54  1  0.29595700  0.85085500  0.67636600  1
  H  H55  1  0.14914500  0.70404300  0.82363400  1
  H  H56  1  0.49436300  0.04709500  0.35793000  1
  H  H57  1  0.95290500  0.50563700  0.14207000  1
  H  H58  1  0.50563700  0.95290500  0.64207000  1
  H  H59  1  0.04709500  0.49436300  0.85793000  1
  H  H60  1  0.58189800  0.21951400  0.48885500  1
  H  H61  1  0.78048600  0.41810200  0.01114500  1
  H  H62  1  0.41810200  0.78048600  0.51114500  1
  H  H63  1  0.21951400  0.58189800  0.98885500  1
  H  H64  1  0.72827500  0.11975700  0.46421400  1
  H  H65  1  0.88024400  0.27172500  0.03578600  1
  H  H66  1  0.27172500  0.88024300  0.53578600  1
  H  H67  1  0.11975700  0.72827500  0.96421400  1
  H  H68  1  0.78982400  0.34643000  0.45377300  1
  H  H69  1  0.65357000  0.21017600  0.04622700  1
  H  H70  1  0.21017600  0.65357000  0.54622700  1
  H  H71  1  0.34643000  0.78982400  0.95377300  1
  C  C0  1  0.41884000  0.34006400  0.36712500  1
  C  C1  1  0.65993600  0.58116000  0.13287500  1
  C  C2  1  0.58116000  0.65993600  0.63287500  1
  C  C3  1  0.34006400  0.41884000  0.86712500  1
  C  C4  1  0.24816900  0.18492200  0.37658300  1
  C  C5  1  0.81507800  0.75183100  0.12341700  1
  C  C6  1  0.75183100  0.81507800  0.62341700  1
  C  C7  1  0.18492200  0.24816900  0.87658300  1
  C  C8  1  0.60661300  0.17222500  0.36008300  1
  C  C9  1  0.82777500  0.39338700  0.13991700  1
  C  C10  1  0.39338700  0.82777500  0.63991700  1
  C  C11  1  0.17222500  0.60661300  0.86008300  1
  C  C12  1  0.67989100  0.21944900  0.44647500  1
  C  C13  1  0.78055100  0.32010900  0.05352500  1
  C  C14  1  0.32010900  0.78055100  0.55352500  1
  C  C15  1  0.21944900  0.67989100  0.94647500  1
  N  N0  1  0.55308300  0.30437800  0.31995300  1
  N  N1  1  0.69562200  0.44691700  0.18004700  1
  N  N2  1  0.44691700  0.69562200  0.68004700  1
  N  N3  1  0.30437800  0.55308300  0.81995300  1
loop_
_geom_bond_atom_site_label_1
_geom_bond_atom_site_label_2
_geom_bond_distance
_geom_bond_site_symmetry_2
Al0 H20 1.794749 1_555
Al0 H8 1.795012 1_555
Al0 H16 1.845658 1_555
Al0 H0 1.853238 1_555
Al0 N1 1.981524 1_555
Al0 N0 1.981946 1_555
Al1 H21 1.794749 1_555
Al1 H9 1.795012 1_555
Al1 H17 1.845658 1_555
Al1 H1 1.853238 1_555
Al1 N0 1.981524 1_555
Al1 N1 1.981946 1_555
Al2 H22 1.794749 1_555
Al2 H10 1.795012 1_555
Al2 H18 1.845658 1_555
Al2 H2 1.853238 1_555
Al2 N3 1.981524 1_555
Al2 N2 1.981946 1_555
Al3 H23 1.794749 1_555
Al3 H11 1.795012 1_555
Al3 H19 1.845658 1_555
Al3 H3 1.853238 1_555
Al3 N2 1.981524 1_555
Al3 N3 1.981946 1_555
B0 H12 1.204040 1_555
B0 H4 1.205334 1_555
B0 H0 1.254826 1_555
B0 H8 1.266309 1_555
B1 H13 1.204040 1_555
B1 H5 1.205334 1_555
B1 H1 1.254826 1_555
B1 H9 1.266309 1_555
B2 H14 1.204040 1_555
B2 H6 1.205334 1_555
B2 H2 1.254826 1_555
B2 H10 1.266309 1_555
B3 H15 1.204040 1_555
B3 H7 1.205334 1_555
B3 H3 1.254826 1_555
B3 H11 1.266309 1_555
B4 H24 1.202976 1_555
B4 H28 1.204949 1_555
B4 H16 1.255162 1_455
B4 H20 1.266274 1_455
B5 H25 1.202980 1_555
B5 H29 1.204947 1_555
B5 H17 1.255155 1_565
B5 H21 1.266279 1_565
B6 H26 1.202976 1_555
B6 H30 1.204949 1_555
B6 H18 1.255162 1_655
B6 H22 1.266274 1_655
B7 H27 1.202976 1_555
B7 H31 1.204949 1_555
B7 H19 1.255162 1_545
B7 H23 1.266274 1_545
C0 H32 1.096236 1_555
C0 H36 1.101555 1_555
C0 N0 1.502523 1_555
C1 H33 1.096236 1_555
C1 H37 1.101555 1_555
C1 N1 1.502523 1_555
C2 H34 1.096236 1_555
C2 H38 1.101555 1_555
C2 N2 1.502523 1_555
C3 H35 1.096236 1_555
C3 H39 1.101555 1_555
C3 N3 1.502523 1_555
C4 H48 1.095625 1_555
C4 H44 1.098243 1_555
C4 H40 1.100255 1_555
C5 H49 1.095625 1_555
C5 H45 1.098243 1_555
C5 H41 1.100255 1_555
C6 H50 1.095625 1_555
C6 H46 1.098243 1_555
C6 H42 1.100255 1_555
C7 H51 1.095625 1_555
C7 H47 1.098243 1_555
C7 H43 1.100255 1_555
C8 H56 1.098190 1_555
C8 H52 1.100420 1_555
C8 N0 1.505409 1_555
C9 H57 1.098190 1_555
C9 H53 1.100420 1_555
C9 N1 1.505409 1_555
C10 H58 1.098190 1_555
C10 H54 1.100420 1_555
C10 N2 1.505409 1_555
C11 H59 1.098190 1_555
C11 H55 1.100420 1_555
C11 N3 1.505409 1_555
C12 H60 1.097895 1_555
C12 H64 1.098006 1_555
C12 H68 1.099866 1_555
C13 H61 1.097895 1_555
C13 H65 1.098013 1_555
C13 H69 1.099866 1_555
C14 H62 1.097895 1_555
C14 H66 1.098006 1_555
C14 H70 1.099866 1_555
C15 H63 1.097895 1_555
C15 H67 1.098006 1_555
C15 H71 1.099866 1_555
