# generated using pymatgen
data_ZnFe4CuO8
_symmetry_space_group_name_H-M   'P 1'
_cell_length_a   6.01153122
_cell_length_b   6.01153122
_cell_length_c   6.01153209
_cell_angle_alpha   60.29081072
_cell_angle_beta   60.29081072
_cell_angle_gamma   60.29080919
_symmetry_Int_Tables_number   1
_chemical_formula_structural   ZnFe4CuO8
_chemical_formula_sum   'Zn1 Fe4 Cu1 O8'
_cell_volume   154.62837801
_cell_formula_units_Z   1
loop_
 _symmetry_equiv_pos_site_id
 _symmetry_equiv_pos_as_xyz
  1  'x, y, z'
loop_
 _atom_site_type_symbol
 _atom_site_label
 _atom_site_symmetry_multiplicity
 _atom_site_fract_x
 _atom_site_fract_y
 _atom_site_fract_z
 _atom_site_occupancy
  Zn  Zn0  1  0.99856400  0.99856400  0.99856400  1
  Fe  Fe0  1  0.37387700  0.37387700  0.87844600  1
  Fe  Fe1  1  0.87844600  0.37387700  0.37387700  1
  Fe  Fe2  1  0.37387700  0.87844600  0.37387700  1
  Fe  Fe3  1  0.75172400  0.75172400  0.75172400  1
  Cu  Cu0  1  0.37379000  0.37379000  0.37379000  1
  O  O0  1  0.13464200  0.13464200  0.13464200  1
  O  O1  1  0.13043300  0.13043300  0.59488600  1
  O  O2  1  0.59488600  0.13043300  0.13043300  1
  O  O3  1  0.13043300  0.59488600  0.13043300  1
  O  O4  1  0.61845100  0.61845100  0.61845100  1
  O  O5  1  0.62328500  0.62328500  0.14430800  1
  O  O6  1  0.14430800  0.62328500  0.62328500  1
  O  O7  1  0.62328500  0.14430800  0.62328500  1
loop_
_geom_bond_atom_site_label_1
_geom_bond_atom_site_label_2
_geom_bond_distance
_geom_bond_site_symmetry_2
Fe0 O2 2.017890 1_556
Fe0 O3 2.017890 1_556
Fe0 O0 2.041530 1_556
Fe0 O6 2.067159 1_555
Fe0 O7 2.067159 1_555
Fe0 O4 2.086475 1_555
Fe1 O3 2.017890 1_655
Fe1 O1 2.017890 1_655
Fe1 O0 2.041530 1_655
Fe1 O7 2.067159 1_555
Fe1 O5 2.067159 1_555
Fe1 O4 2.086475 1_555
Fe2 O2 2.017890 1_565
Fe2 O1 2.017890 1_565
Fe2 O0 2.041530 1_565
Fe2 O6 2.067159 1_555
Fe2 O5 2.067159 1_555
Fe2 O4 2.086475 1_555
Fe3 O7 1.934073 1_565
Fe3 O6 1.934073 1_655
Fe3 O5 1.934073 1_556
Fe3 O4 1.958145 1_555
Cu0 O1 2.076954 1_555
Cu0 O2 2.076954 1_555
Cu0 O3 2.076954 1_555
Cu0 O5 2.128423 1_555
Cu0 O6 2.128423 1_555
Cu0 O7 2.128423 1_555
O0 Zn0 1.999359 1_444
O1 Zn0 1.988747 1_445
O2 Zn0 1.988747 1_544
O3 Zn0 1.988747 1_454
