# generated using pymatgen
data_TaVO5
_symmetry_space_group_name_H-M   'P 1'
_cell_length_a   5.54156063
_cell_length_b   13.77549060
_cell_length_c   13.77153537
_cell_angle_alpha   119.27851316
_cell_angle_beta   90.00000000
_cell_angle_gamma   90.00000000
_symmetry_Int_Tables_number   1
_chemical_formula_structural   TaVO5
_chemical_formula_sum   'Ta8 V8 O40'
_cell_volume   916.98845310
_cell_formula_units_Z   8
loop_
 _symmetry_equiv_pos_site_id
 _symmetry_equiv_pos_as_xyz
  1  'x, y, z'
loop_
 _atom_site_type_symbol
 _atom_site_label
 _atom_site_symmetry_multiplicity
 _atom_site_fract_x
 _atom_site_fract_y
 _atom_site_fract_z
 _atom_site_occupancy
  Ta  Ta0  1  0.24696218  0.64267177  0.20090193  1
  Ta  Ta1  1  0.74696218  0.85732823  0.29909807  1
  Ta  Ta2  1  0.75303782  0.35732823  0.79909807  1
  Ta  Ta3  1  0.25303782  0.14267177  0.70090193  1
  Ta  Ta4  1  0.24768888  0.29941308  0.35738079  1
  Ta  Ta5  1  0.74768888  0.20058692  0.14261921  1
  Ta  Ta6  1  0.75231112  0.70058692  0.64261921  1
  Ta  Ta7  1  0.25231112  0.79941308  0.85738079  1
  V  V0  1  0.25648460  0.59283924  0.43805612  1
  V  V1  1  0.75648460  0.90716076  0.06194388  1
  V  V2  1  0.74351540  0.40716076  0.56194388  1
  V  V3  1  0.24351540  0.09283924  0.93805612  1
  V  V4  1  0.24354308  0.06184844  0.40695602  1
  V  V5  1  0.74354308  0.43815156  0.09304398  1
  V  V6  1  0.75645692  0.93815156  0.59304398  1
  V  V7  1  0.25645692  0.56184844  0.90695602  1
  O  O0  1  0.51009466  0.25333149  0.25588457  1
  O  O1  1  0.01009466  0.24666851  0.24411543  1
  O  O2  1  0.48990534  0.74666851  0.74411543  1
  O  O3  1  0.98990534  0.75333149  0.75588457  1
  O  O4  1  0.00987818  0.75583517  0.25288781  1
  O  O5  1  0.50987818  0.74416483  0.24711219  1
  O  O6  1  0.99012182  0.24416483  0.74711219  1
  O  O7  1  0.49012182  0.25583517  0.75288781  1
  O  O8  1  0.48358794  0.36304897  0.48813297  1
  O  O9  1  0.98358794  0.13695103  0.01186703  1
  O  O10  1  0.51641206  0.63695103  0.51186703  1
  O  O11  1  0.01641206  0.86304897  0.98813297  1
  O  O12  1  0.98454727  0.35420487  0.47596139  1
  O  O13  1  0.48454727  0.14579513  0.02403861  1
  O  O14  1  0.01545273  0.64579513  0.52403861  1
  O  O15  1  0.51545273  0.85420487  0.97596139  1
  O  O16  1  0.98535106  0.52370403  0.14614451  1
  O  O17  1  0.48535106  0.97629597  0.35385549  1
  O  O18  1  0.01464894  0.47629597  0.85385549  1
  O  O19  1  0.51464894  0.02370403  0.64614451  1
  O  O20  1  0.48424232  0.51211716  0.13845002  1
  O  O21  1  0.98424232  0.98788284  0.36154998  1
  O  O22  1  0.51575768  0.48788284  0.86154998  1
  O  O23  1  0.01575768  0.01211716  0.63845002  1
  O  O24  1  0.25138488  0.16161489  0.36538010  1
  O  O25  1  0.75138488  0.33838511  0.13461990  1
  O  O26  1  0.74861512  0.83838511  0.63461990  1
  O  O27  1  0.24861512  0.66161489  0.86538010  1
  O  O28  1  0.24916658  0.63578852  0.33931562  1
  O  O29  1  0.74916658  0.86421148  0.16068438  1
  O  O30  1  0.75083342  0.36421148  0.66068438  1
  O  O31  1  0.25083342  0.13578852  0.83931562  1
  O  O32  1  0.24611290  0.62634840  0.04995073  1
  O  O33  1  0.74611290  0.87365160  0.45004927  1
  O  O34  1  0.75388710  0.37365160  0.95004927  1
  O  O35  1  0.25388710  0.12634840  0.54995073  1
  O  O36  1  0.24473675  0.44986886  0.37247169  1
  O  O37  1  0.74473675  0.05013114  0.12752831  1
  O  O38  1  0.75526325  0.55013114  0.62752831  1
  O  O39  1  0.25526325  0.94986886  0.87247169  1
loop_
_geom_bond_atom_site_label_1
_geom_bond_atom_site_label_2
_geom_bond_distance
_geom_bond_site_symmetry_2
O0 Ta5 1.893679 1_555
O0 Ta4 1.898247 1_555
O1 Ta4 1.893679 1_555
O1 Ta5 1.898247 1_455
O2 Ta7 1.893679 1_555
O2 Ta6 1.898247 1_555
O3 Ta6 1.893679 1_555
O3 Ta7 1.898247 1_655
O4 Ta0 1.891338 1_555
O4 Ta1 1.900578 1_455
O5 Ta1 1.891338 1_555
O5 Ta0 1.900578 1_555
O6 Ta2 1.891338 1_555
O6 Ta3 1.900578 1_655
O7 Ta3 1.891338 1_555
O7 Ta2 1.900578 1_555
O8 V2 1.695024 1_555
O8 Ta4 2.043475 1_555
O9 V3 1.695024 1_654
O9 Ta5 2.043475 1_555
O10 V0 1.695024 1_555
O10 Ta6 2.043475 1_555
O11 V1 1.695024 1_456
O11 Ta7 2.043475 1_555
O12 V2 1.695129 1_555
O12 Ta4 2.038943 1_655
O13 V3 1.695129 1_554
O13 Ta5 2.038943 1_555
O14 V0 1.695129 1_555
O14 Ta6 2.038943 1_455
O15 V1 1.695129 1_556
O15 Ta7 2.038943 1_555
O16 V5 1.695969 1_555
O16 Ta0 2.036515 1_655
O17 V4 1.695969 1_565
O17 Ta1 2.036515 1_555
O18 V7 1.695969 1_555
O18 Ta2 2.036515 1_455
O19 V6 1.695969 1_545
O19 Ta3 2.036515 1_555
O20 V5 1.694336 1_555
O20 Ta0 2.046995 1_555
O21 V4 1.694336 1_665
O21 Ta1 2.046995 1_555
O22 V7 1.694336 1_555
O22 Ta2 2.046995 1_555
O23 V6 1.694336 1_445
O23 Ta3 2.046995 1_555
O24 V4 1.728634 1_555
O24 Ta4 1.954584 1_555
O25 V5 1.728634 1_555
O25 Ta5 1.954584 1_555
O26 V6 1.728634 1_555
O26 Ta6 1.954584 1_555
O27 V7 1.728634 1_555
O27 Ta7 1.954584 1_555
O28 V0 1.728493 1_555
O28 Ta0 1.954330 1_555
O29 V1 1.728493 1_555
O29 Ta1 1.954330 1_555
O30 V2 1.728493 1_555
O30 Ta2 1.954330 1_555
O31 V3 1.728493 1_555
O31 Ta3 1.954330 1_555
O32 V7 1.720262 1_554
O32 Ta0 1.978611 1_555
O33 V6 1.720262 1_555
O33 Ta1 1.978611 1_555
O34 V5 1.720262 1_556
O34 Ta2 1.978611 1_555
O35 V4 1.720262 1_555
O35 Ta3 1.978611 1_555
O36 V0 1.720170 1_555
O36 Ta4 1.979351 1_555
O37 V1 1.720170 1_545
O37 Ta5 1.979351 1_555
O38 V2 1.720170 1_555
O38 Ta6 1.979351 1_555
O39 V3 1.720170 1_565
O39 Ta7 1.979351 1_555
