# generated using pymatgen
data_CeCdCu
_symmetry_space_group_name_H-M   'P 1'
_cell_length_a   9.60631453
_cell_length_b   9.60631453
_cell_length_c   6.53317000
_cell_angle_alpha   90.00000000
_cell_angle_beta   90.00000000
_cell_angle_gamma   119.99998990
_symmetry_Int_Tables_number   1
_chemical_formula_structural   CeCdCu
_chemical_formula_sum   'Ce8 Cd8 Cu8'
_cell_volume   522.11748790
_cell_formula_units_Z   8
loop_
 _symmetry_equiv_pos_site_id
 _symmetry_equiv_pos_as_xyz
  1  'x, y, z'
loop_
 _atom_site_type_symbol
 _atom_site_label
 _atom_site_symmetry_multiplicity
 _atom_site_fract_x
 _atom_site_fract_y
 _atom_site_fract_z
 _atom_site_occupancy
  Ce  Ce0_0  1  0.33333350  0.16666650  0.25000000  1
  Ce  Ce0_1  1  0.33333350  0.16666650  0.75000000  1
  Ce  Ce0_2  1  0.33333350  0.66666650  0.25000000  1
  Ce  Ce0_3  1  0.33333350  0.66666650  0.75000000  1
  Ce  Ce0_4  1  0.83333350  0.16666650  0.25000000  1
  Ce  Ce0_5  1  0.83333350  0.16666650  0.75000000  1
  Ce  Ce0_6  1  0.83333350  0.66666650  0.25000000  1
  Ce  Ce0_7  1  0.83333350  0.66666650  0.75000000  1
  Cd  Cd0_0  1  0.00000000  0.00000000  0.00000000  1
  Cd  Cd0_1  1  0.00000000  0.00000000  0.50000000  1
  Cd  Cd0_2  1  0.00000000  0.50000000  0.00000000  1
  Cd  Cd0_3  1  0.00000000  0.50000000  0.50000000  1
  Cd  Cd0_4  1  0.50000000  0.00000000  0.00000000  1
  Cd  Cd0_5  1  0.50000000  0.00000000  0.50000000  1
  Cd  Cd0_6  1  0.50000000  0.50000000  0.00000000  1
  Cd  Cd0_7  1  0.50000000  0.50000000  0.50000000  1
  Cu  Cu0_0  1  0.16666650  0.33333350  0.00000000  1
  Cu  Cu0_1  1  0.16666650  0.33333350  0.50000000  1
  Cu  Cu0_2  1  0.16666650  0.83333350  0.00000000  1
  Cu  Cu0_3  1  0.16666650  0.83333350  0.50000000  1
  Cu  Cu0_4  1  0.66666650  0.33333350  0.00000000  1
  Cu  Cu0_5  1  0.66666650  0.33333350  0.50000000  1
  Cu  Cu0_6  1  0.66666650  0.83333350  0.00000000  1
  Cu  Cu0_7  1  0.66666650  0.83333350  0.50000000  1
loop_
_geom_bond_atom_site_label_1
_geom_bond_atom_site_label_2
_geom_bond_distance
_geom_bond_site_symmetry_2
Ce0_0 Cu0_4 3.218344 1_555
Ce0_0 Cu0_5 3.218344 1_555
Ce0_0 Cu0_2 3.218344 1_545
Ce0_0 Cu0_3 3.218344 1_545
Ce0_0 Cu0_0 3.218351 1_555
Ce0_0 Cu0_1 3.218351 1_555
Ce0_1 Cu0_4 3.218344 1_556
Ce0_1 Cu0_5 3.218344 1_555
Ce0_1 Cu0_2 3.218344 1_546
Ce0_1 Cu0_3 3.218344 1_545
Ce0_1 Cu0_0 3.218351 1_556
Ce0_1 Cu0_1 3.218351 1_555
Ce0_2 Cu0_6 3.218344 1_555
Ce0_2 Cu0_7 3.218344 1_555
Ce0_2 Cu0_0 3.218344 1_555
Ce0_2 Cu0_1 3.218344 1_555
Ce0_2 Cu0_3 3.218351 1_555
Ce0_2 Cu0_2 3.218351 1_555
Ce0_3 Cu0_6 3.218344 1_556
Ce0_3 Cu0_7 3.218344 1_555
Ce0_3 Cu0_0 3.218344 1_556
Ce0_3 Cu0_1 3.218344 1_555
Ce0_3 Cu0_2 3.218351 1_556
Ce0_3 Cu0_3 3.218351 1_555
Ce0_4 Cu0_6 3.218344 1_545
Ce0_4 Cu0_7 3.218344 1_545
Ce0_4 Cu0_1 3.218344 1_655
Ce0_4 Cu0_0 3.218344 1_655
Ce0_4 Cu0_5 3.218351 1_555
Ce0_4 Cu0_4 3.218351 1_555
Ce0_5 Cu0_6 3.218344 1_546
Ce0_5 Cu0_0 3.218344 1_656
Ce0_5 Cu0_7 3.218344 1_545
Ce0_5 Cu0_1 3.218344 1_655
Ce0_5 Cu0_4 3.218351 1_556
Ce0_5 Cu0_5 3.218351 1_555
Ce0_6 Cu0_5 3.218344 1_555
Ce0_6 Cu0_4 3.218344 1_555
Ce0_6 Cu0_2 3.218344 1_655
Ce0_6 Cu0_3 3.218344 1_655
Ce0_6 Cu0_6 3.218351 1_555
Ce0_6 Cu0_7 3.218351 1_555
Ce0_7 Cu0_2 3.218344 1_656
Ce0_7 Cu0_4 3.218344 1_556
Ce0_7 Cu0_5 3.218344 1_555
Ce0_7 Cu0_3 3.218344 1_655
Ce0_7 Cu0_6 3.218351 1_556
Ce0_7 Cu0_7 3.218351 1_555
Cd0_0 Cu0_2 2.773101 1_545
Cd0_0 Cu0_0 2.773106 1_555
Cd0_0 Cu0_6 2.773106 1_445
Cd0_0 Ce0_5 3.218343 1_454
Cd0_0 Ce0_4 3.218343 1_455
Cd0_0 Ce0_7 3.218347 1_444
Cd0_0 Ce0_1 3.218347 1_554
Cd0_0 Ce0_6 3.218347 1_445
Cd0_0 Ce0_0 3.218347 1_555
Cd0_0 Cd0_1 3.266585 1_555
Cd0_0 Cd0_1 3.266585 1_554
Cd0_1 Cu0_3 2.773101 1_545
Cd0_1 Cu0_1 2.773106 1_555
Cd0_1 Cu0_7 2.773106 1_445
Cd0_1 Ce0_4 3.218343 1_455
Cd0_1 Ce0_5 3.218343 1_455
Cd0_1 Ce0_6 3.218347 1_445
Cd0_1 Ce0_0 3.218347 1_555
Cd0_1 Ce0_7 3.218347 1_445
Cd0_1 Ce0_1 3.218347 1_555
Cd0_2 Cu0_0 2.773101 1_555
Cd0_2 Cu0_4 2.773106 1_455
Cd0_2 Cu0_2 2.773106 1_555
Cd0_2 Ce0_7 3.218343 1_454
Cd0_2 Ce0_6 3.218343 1_455
Cd0_2 Ce0_3 3.218347 1_554
Cd0_2 Ce0_5 3.218347 1_454
Cd0_2 Ce0_2 3.218347 1_555
Cd0_2 Ce0_4 3.218347 1_455
Cd0_2 Cd0_3 3.266585 1_555
Cd0_2 Cd0_3 3.266585 1_554
Cd0_3 Cu0_1 2.773101 1_555
Cd0_3 Cu0_5 2.773106 1_455
Cd0_3 Cu0_3 2.773106 1_555
Cd0_3 Ce0_6 3.218343 1_455
Cd0_3 Ce0_7 3.218343 1_455
Cd0_3 Ce0_2 3.218347 1_555
Cd0_3 Ce0_4 3.218347 1_455
Cd0_3 Ce0_5 3.218347 1_455
Cd0_3 Ce0_3 3.218347 1_555
Cd0_4 Cu0_6 2.773101 1_545
Cd0_4 Cu0_4 2.773106 1_555
Cd0_4 Cu0_2 2.773106 1_545
Cd0_4 Ce0_1 3.218343 1_554
Cd0_4 Ce0_0 3.218343 1_555
Cd0_4 Ce0_3 3.218347 1_544
Cd0_4 Ce0_5 3.218347 1_554
Cd0_4 Ce0_2 3.218347 1_545
Cd0_4 Ce0_4 3.218347 1_555
Cd0_4 Cd0_5 3.266585 1_555
Cd0_4 Cd0_5 3.266585 1_554
Cd0_5 Cu0_7 2.773101 1_545
Cd0_5 Cu0_5 2.773106 1_555
Cd0_5 Cu0_3 2.773106 1_545
Cd0_5 Ce0_0 3.218343 1_555
Cd0_5 Ce0_1 3.218343 1_555
Cd0_5 Ce0_2 3.218347 1_545
Cd0_5 Ce0_4 3.218347 1_555
Cd0_5 Ce0_3 3.218347 1_545
Cd0_5 Ce0_5 3.218347 1_555
Cd0_6 Cu0_4 2.773101 1_555
Cd0_6 Cu0_0 2.773106 1_555
Cd0_6 Cu0_6 2.773106 1_555
Cd0_6 Ce0_3 3.218343 1_554
Cd0_6 Ce0_2 3.218343 1_555
Cd0_6 Ce0_7 3.218347 1_554
Cd0_6 Ce0_1 3.218347 1_554
Cd0_6 Ce0_6 3.218347 1_555
Cd0_6 Ce0_0 3.218347 1_555
Cd0_6 Cd0_7 3.266585 1_555
Cd0_6 Cd0_7 3.266585 1_554
Cd0_7 Cu0_5 2.773101 1_555
Cd0_7 Cu0_1 2.773106 1_555
Cd0_7 Cu0_7 2.773106 1_555
Cd0_7 Ce0_2 3.218343 1_555
Cd0_7 Ce0_3 3.218343 1_555
Cd0_7 Ce0_6 3.218347 1_555
Cd0_7 Ce0_0 3.218347 1_555
Cd0_7 Ce0_7 3.218347 1_555
Cd0_7 Ce0_1 3.218347 1_555
