# generated using pymatgen
data_Zr3Tl2OF12
_symmetry_space_group_name_H-M   'P 1'
_cell_length_a   11.13369604
_cell_length_b   11.13369604
_cell_length_c   11.13369605
_cell_angle_alpha   41.36660418
_cell_angle_beta   41.36660418
_cell_angle_gamma   41.36660380
_symmetry_Int_Tables_number   1
_chemical_formula_structural   Zr3Tl2OF12
_chemical_formula_sum   'Zr6 Tl4 O2 F24'
_cell_volume   544.56674647
_cell_formula_units_Z   2
loop_
 _symmetry_equiv_pos_site_id
 _symmetry_equiv_pos_as_xyz
  1  'x, y, z'
loop_
 _atom_site_type_symbol
 _atom_site_label
 _atom_site_symmetry_multiplicity
 _atom_site_fract_x
 _atom_site_fract_y
 _atom_site_fract_z
 _atom_site_occupancy
  Zr  Zr0  1  0.42433600  0.42433600  0.97087700  1
  Zr  Zr1  1  0.97087700  0.42433600  0.42433600  1
  Zr  Zr2  1  0.42433600  0.97087700  0.42433600  1
  Zr  Zr3  1  0.57566400  0.02912300  0.57566400  1
  Zr  Zr4  1  0.57566400  0.57566400  0.02912300  1
  Zr  Zr5  1  0.02912300  0.57566400  0.57566400  1
  Tl  Tl0  1  0.85996300  0.85996300  0.85996300  1
  Tl  Tl1  1  0.14003700  0.14003700  0.14003700  1
  Tl  Tl2  1  0.50000000  0.50000000  0.50000000  1
  Tl  Tl3  1  0.00000000  0.00000000  0.00000000  1
  O  O0  1  0.71314900  0.71314900  0.71314900  1
  O  O1  1  0.28685100  0.28685100  0.28685100  1
  F  F0  1  0.70715400  0.70715400  0.37174600  1
  F  F1  1  0.37174600  0.70715400  0.70715400  1
  F  F2  1  0.70715400  0.37174600  0.70715400  1
  F  F3  1  0.29284600  0.62825400  0.29284600  1
  F  F4  1  0.29284600  0.29284600  0.62825400  1
  F  F5  1  0.62825400  0.29284600  0.29284600  1
  F  F6  1  0.90951400  0.90951400  0.40417000  1
  F  F7  1  0.40417000  0.90951400  0.90951400  1
  F  F8  1  0.64736800  0.35263200  0.00000000  1
  F  F9  1  0.35263200  0.00000000  0.64736800  1
  F  F10  1  0.00000000  0.64736800  0.35263200  1
  F  F11  1  0.35263200  0.64736800  0.00000000  1
  F  F12  1  0.64736800  0.00000000  0.35263200  1
  F  F13  1  0.00000000  0.35263200  0.64736800  1
  F  F14  1  0.91693900  0.35165900  0.35165900  1
  F  F15  1  0.35165900  0.35165900  0.91693900  1
  F  F16  1  0.35165900  0.91693900  0.35165900  1
  F  F17  1  0.64834100  0.08306100  0.64834100  1
  F  F18  1  0.08306100  0.64834100  0.64834100  1
  F  F19  1  0.64834100  0.64834100  0.08306100  1
  F  F20  1  0.59583000  0.09048600  0.09048600  1
  F  F21  1  0.09048600  0.09048600  0.59583000  1
  F  F22  1  0.09048600  0.59583000  0.09048600  1
  F  F23  1  0.90951400  0.40417000  0.90951400  1
loop_
_geom_bond_atom_site_label_1
_geom_bond_atom_site_label_2
_geom_bond_distance
_geom_bond_site_symmetry_2
O0 Zr5 2.100833 1_655
O0 Zr3 2.100833 1_565
O0 Zr4 2.100833 1_556
O1 Zr2 2.100833 1_545
O1 Zr1 2.100833 1_455
O1 Zr0 2.100833 1_554
F0 Zr2 2.194264 1_555
F0 Zr1 2.194264 1_555
F1 Zr0 2.194264 1_555
F1 Zr2 2.194264 1_555
F2 Zr0 2.194264 1_555
F2 Zr1 2.194264 1_555
F3 Zr4 2.194264 1_555
F3 Zr5 2.194264 1_555
F4 Zr5 2.194264 1_555
F4 Zr3 2.194264 1_555
F5 Zr4 2.194264 1_555
F5 Zr3 2.194264 1_555
F6 Zr5 2.229172 1_655
F6 Zr3 2.229172 1_565
F7 Zr4 2.229172 1_556
F7 Zr3 2.229172 1_565
F8 Zr4 2.180148 1_555
F8 Zr0 2.180148 1_554
F8 Tl3 2.773413 1_655
F9 Zr3 2.180148 1_555
F9 Zr2 2.180148 1_545
F9 Tl3 2.773413 1_556
F10 Zr1 2.180148 1_455
F10 Zr5 2.180148 1_555
F10 Tl3 2.773413 1_565
F11 Zr4 2.180148 1_555
F11 Zr0 2.180148 1_554
F11 Tl3 2.773413 1_565
F12 Zr2 2.180148 1_545
F12 Zr3 2.180148 1_555
F12 Tl3 2.773413 1_655
F13 Zr5 2.180148 1_555
F13 Zr1 2.180148 1_455
F13 Tl3 2.773413 1_556
F14 Zr1 2.027718 1_555
F15 Zr0 2.027718 1_555
F16 Zr2 2.027718 1_555
F17 Zr3 2.027718 1_555
F18 Zr5 2.027718 1_555
F19 Zr4 2.027718 1_555
F20 Zr0 2.229172 1_554
F20 Zr2 2.229172 1_545
F21 Zr2 2.229172 1_545
F21 Zr1 2.229172 1_455
F22 Zr0 2.229172 1_554
F22 Zr1 2.229172 1_455
F23 Zr4 2.229172 1_556
F23 Zr5 2.229172 1_655
