# generated using pymatgen
data_Ca2Mg
_symmetry_space_group_name_H-M   'P 1'
_cell_length_a   7.08750329
_cell_length_b   7.08750329
_cell_length_c   7.08750367
_cell_angle_alpha   53.39751140
_cell_angle_beta   53.39751140
_cell_angle_gamma   53.39750466
_symmetry_Int_Tables_number   1
_chemical_formula_structural   Ca2Mg
_chemical_formula_sum   'Ca4 Mg2'
_cell_volume   212.84017190
_cell_formula_units_Z   2
loop_
 _symmetry_equiv_pos_site_id
 _symmetry_equiv_pos_as_xyz
  1  'x, y, z'
loop_
 _atom_site_type_symbol
 _atom_site_label
 _atom_site_symmetry_multiplicity
 _atom_site_fract_x
 _atom_site_fract_y
 _atom_site_fract_z
 _atom_site_occupancy
  Ca  Ca0  1  0.00000000  0.67148200  0.32851800  1
  Ca  Ca1  1  0.67148200  0.32851800  0.00000000  1
  Ca  Ca2  1  0.50000000  0.50000000  0.50000000  1
  Ca  Ca3  1  0.32851800  0.00000000  0.67148200  1
  Mg  Mg0  1  0.83341700  0.83341700  0.83341700  1
  Mg  Mg1  1  0.16658300  0.16658300  0.16658300  1
loop_
_geom_bond_atom_site_label_1
_geom_bond_atom_site_label_2
_geom_bond_distance
_geom_bond_site_symmetry_2
Ca0 Ca1 3.623924 1_465
Ca0 Ca3 3.623924 1_564
Ca0 Mg1 3.680545 1_565
Ca0 Mg0 3.680545 1_454
Ca0 Ca1 3.703887 1_555
Ca0 Ca3 3.703887 1_465
Ca0 Ca3 3.703887 1_555
Ca0 Ca1 3.703888 1_456
Ca0 Ca2 3.708226 1_555
Ca0 Ca2 3.708226 1_455
Ca0 Mg1 3.709469 1_555
Ca0 Mg0 3.709469 1_455
Ca1 Ca3 3.623924 1_654
Ca1 Mg1 3.680545 1_655
Ca1 Mg0 3.680545 1_544
Ca1 Ca3 3.703887 1_564
Ca1 Ca3 3.703888 1_555
Ca1 Ca2 3.708227 1_554
Ca1 Ca2 3.708227 1_555
Ca1 Mg1 3.709469 1_555
Ca1 Mg0 3.709469 1_554
Ca2 Mg1 3.677043 1_565
Ca2 Mg1 3.677043 1_655
Ca2 Mg0 3.677043 1_545
Ca2 Mg0 3.677043 1_455
Ca2 Mg1 3.677043 1_556
Ca2 Mg0 3.677043 1_554
Ca2 Ca3 3.708226 1_565
Ca2 Ca3 3.708226 1_555
Ca3 Mg0 3.680545 1_445
Ca3 Mg1 3.680545 1_556
Ca3 Mg0 3.709469 1_545
Ca3 Mg1 3.709469 1_555
