# generated using pymatgen
data_TlCo(BrN)6
_symmetry_space_group_name_H-M   'P 1'
_cell_length_a   10.83150000
_cell_length_b   10.83150000
_cell_length_c   10.83150000
_cell_angle_alpha   90.00000000
_cell_angle_beta   90.00000000
_cell_angle_gamma   90.00000000
_symmetry_Int_Tables_number   1
_chemical_formula_structural   TlCo(BrN)6
_chemical_formula_sum   'Tl4 Co4 Br24 N24'
_cell_volume   1270.76666016
_cell_formula_units_Z   4
loop_
 _symmetry_equiv_pos_site_id
 _symmetry_equiv_pos_as_xyz
  1  'x, y, z'
loop_
 _atom_site_type_symbol
 _atom_site_label
 _atom_site_symmetry_multiplicity
 _atom_site_fract_x
 _atom_site_fract_y
 _atom_site_fract_z
 _atom_site_occupancy
  Tl  Tl0  1  0.50000000  0.50000000  0.00000000  1
  Tl  Tl1  1  0.50000000  0.00000000  0.50000000  1
  Tl  Tl2  1  0.00000000  0.50000000  0.50000000  1
  Tl  Tl3  1  0.00000000  0.00000000  0.00000000  1
  Co  Co0  1  0.00000000  0.00000000  0.50000000  1
  Co  Co1  1  0.00000000  0.50000000  0.00000000  1
  Co  Co2  1  0.50000000  0.00000000  0.00000000  1
  Co  Co3  1  0.50000000  0.50000000  0.50000000  1
  Br  Br0  1  0.55545300  0.73383100  0.31306100  1
  Br  Br1  1  0.44454700  0.23383100  0.18693900  1
  Br  Br2  1  0.94454700  0.26616900  0.81306100  1
  Br  Br3  1  0.05545300  0.76616900  0.68693900  1
  Br  Br4  1  0.31306100  0.55545300  0.73383100  1
  Br  Br5  1  0.18693900  0.44454700  0.23383100  1
  Br  Br6  1  0.81306100  0.94454700  0.26616900  1
  Br  Br7  1  0.68693900  0.05545300  0.76616900  1
  Br  Br8  1  0.73383100  0.31306100  0.55545300  1
  Br  Br9  1  0.23383100  0.18693900  0.44454700  1
  Br  Br10  1  0.26616900  0.81306100  0.94454700  1
  Br  Br11  1  0.76616900  0.68693900  0.05545300  1
  Br  Br12  1  0.44454700  0.26616900  0.68693900  1
  Br  Br13  1  0.55545300  0.76616900  0.81306100  1
  Br  Br14  1  0.05545300  0.73383100  0.18693900  1
  Br  Br15  1  0.94454700  0.23383100  0.31306100  1
  Br  Br16  1  0.68693900  0.44454700  0.26616900  1
  Br  Br17  1  0.81306100  0.55545300  0.76616900  1
  Br  Br18  1  0.18693900  0.05545300  0.73383100  1
  Br  Br19  1  0.31306100  0.94454700  0.23383100  1
  Br  Br20  1  0.26616900  0.68693900  0.44454700  1
  Br  Br21  1  0.76616900  0.81306100  0.55545300  1
  Br  Br22  1  0.73383100  0.18693900  0.05545300  1
  Br  Br23  1  0.23383100  0.31306100  0.94454700  1
  N  N0  1  0.45128200  0.59391200  0.64109400  1
  N  N1  1  0.54871800  0.09391100  0.85890600  1
  N  N2  1  0.04871800  0.40608800  0.14109400  1
  N  N3  1  0.95128200  0.90608800  0.35890600  1
  N  N4  1  0.64109400  0.45128200  0.59391200  1
  N  N5  1  0.85890600  0.54871800  0.09391100  1
  N  N6  1  0.14109400  0.04871800  0.40608800  1
  N  N7  1  0.35890600  0.95128200  0.90608800  1
  N  N8  1  0.59391200  0.64109400  0.45128200  1
  N  N9  1  0.09391100  0.85890600  0.54871800  1
  N  N10  1  0.40608800  0.14109400  0.04871800  1
  N  N11  1  0.90608800  0.35890600  0.95128200  1
  N  N12  1  0.54871800  0.40608800  0.35890600  1
  N  N13  1  0.45128200  0.90608800  0.14109400  1
  N  N14  1  0.95128200  0.59391200  0.85890600  1
  N  N15  1  0.04871800  0.09391100  0.64109400  1
  N  N16  1  0.35890600  0.54871800  0.40608800  1
  N  N17  1  0.14109400  0.45128200  0.90608800  1
  N  N18  1  0.85890600  0.95128200  0.59391200  1
  N  N19  1  0.64109400  0.04871800  0.09391100  1
  N  N20  1  0.40608800  0.35890600  0.54871800  1
  N  N21  1  0.90608800  0.14109400  0.45128200  1
  N  N22  1  0.59391200  0.85890600  0.95128200  1
  N  N23  1  0.09391100  0.64109400  0.04871800  1
loop_
_geom_bond_atom_site_label_1
_geom_bond_atom_site_label_2
_geom_bond_distance
_geom_bond_site_symmetry_2
Co0 N9 1.910163 1_545
Co0 N15 1.910163 1_555
Co0 N3 1.910169 1_445
Co0 N21 1.910169 1_455
Co0 N6 1.910169 1_555
Co0 N18 1.910169 1_445
Co1 N5 1.910163 1_455
Co1 N23 1.910163 1_555
Co1 N17 1.910169 1_554
Co1 N11 1.910169 1_454
Co1 N2 1.910169 1_555
Co1 N14 1.910169 1_454
Co2 N1 1.910163 1_554
Co2 N19 1.910163 1_555
Co2 N13 1.910169 1_545
Co2 N7 1.910169 1_544
Co2 N10 1.910169 1_555
Co2 N22 1.910169 1_544
Co3 N12 1.910169 1_555
Co3 N16 1.910169 1_555
Co3 N20 1.910169 1_555
Co3 N4 1.910169 1_555
Co3 N8 1.910169 1_555
Co3 N0 1.910169 1_555
Br0 N8 1.850390 1_555
Br1 N10 1.850390 1_555
Br2 N11 1.850390 1_555
Br3 N9 1.850387 1_555
Br4 N0 1.850390 1_555
Br5 N2 1.850390 1_555
Br6 N3 1.850390 1_555
Br7 N1 1.850387 1_555
Br8 N4 1.850390 1_555
Br9 N6 1.850390 1_555
Br10 N7 1.850390 1_555
Br11 N5 1.850387 1_555
Br12 N20 1.850390 1_555
Br13 N22 1.850390 1_555
Br14 N23 1.850387 1_555
Br15 N21 1.850390 1_555
Br16 N12 1.850390 1_555
Br17 N14 1.850390 1_555
Br18 N15 1.850387 1_555
Br19 N13 1.850390 1_555
Br20 N16 1.850390 1_555
Br21 N18 1.850390 1_555
Br22 N19 1.850387 1_555
Br23 N17 1.850390 1_555
