# generated using pymatgen
data_HoLu3
_symmetry_space_group_name_H-M   'P 1'
_cell_length_a   7.08695997
_cell_length_b   7.08694943
_cell_length_c   5.46813777
_cell_angle_alpha   90.00125720
_cell_angle_beta   89.99839410
_cell_angle_gamma   119.99968030
_symmetry_Int_Tables_number   1
_chemical_formula_structural   HoLu3
_chemical_formula_sum   'Ho2 Lu6'
_cell_volume   237.84322885
_cell_formula_units_Z   2
loop_
 _symmetry_equiv_pos_site_id
 _symmetry_equiv_pos_as_xyz
  1  'x, y, z'
loop_
 _atom_site_type_symbol
 _atom_site_label
 _atom_site_symmetry_multiplicity
 _atom_site_fract_x
 _atom_site_fract_y
 _atom_site_fract_z
 _atom_site_occupancy
  Ho  Ho0  1  0.33332517  0.66665203  0.74997478  1
  Ho  Ho1  1  0.66667584  0.33334867  0.25002486  1
  Lu  Lu0  1  0.16619326  0.33240191  0.24999943  1
  Lu  Lu1  1  0.66757995  0.83378680  0.24998112  1
  Lu  Lu2  1  0.16622129  0.83381140  0.24999114  1
  Lu  Lu3  1  0.83380987  0.66760164  0.74999910  1
  Lu  Lu4  1  0.33241462  0.16620913  0.75001490  1
  Lu  Lu5  1  0.83378401  0.16618842  0.75000967  1
loop_
_geom_bond_atom_site_label_1
_geom_bond_atom_site_label_2
_geom_bond_distance
_geom_bond_site_symmetry_2
Ho0 Lu0 3.418008 1_555
Ho0 Lu1 3.418090 1_555
Ho0 Lu2 3.418150 1_555
Ho0 Lu2 3.418198 1_556
Ho0 Lu1 3.418210 1_556
Ho0 Lu0 3.418254 1_556
Ho0 Lu4 3.543391 1_555
Ho0 Lu3 3.543415 1_455
Ho0 Lu5 3.543482 1_565
Ho0 Lu5 3.543516 1_455
Ho0 Lu3 3.543555 1_555
Ho0 Lu4 3.543567 1_565
Ho1 Lu3 3.418014 1_555
Ho1 Lu4 3.418098 1_555
Ho1 Lu5 3.418174 1_555
Ho1 Lu5 3.418212 1_554
Ho1 Lu4 3.418249 1_554
Ho1 Lu3 3.418269 1_554
Ho1 Lu1 3.543380 1_555
Ho1 Lu0 3.543420 1_655
Ho1 Lu2 3.543470 1_545
Ho1 Lu2 3.543528 1_655
Ho1 Lu0 3.543550 1_555
Ho1 Lu1 3.543578 1_545
Lu0 Lu4 3.411260 1_554
Lu0 Lu5 3.411351 1_454
Lu0 Lu5 3.411376 1_455
Lu0 Lu4 3.411490 1_555
Lu0 Lu2 3.533585 1_545
Lu0 Lu1 3.533673 1_445
Lu0 Lu1 3.553316 1_555
Lu0 Lu2 3.553364 1_555
Lu1 Lu5 3.411224 1_564
Lu1 Lu3 3.411252 1_554
Lu1 Lu5 3.411444 1_565
Lu1 Lu3 3.411504 1_555
Lu1 Lu2 3.533764 1_655
Lu1 Lu2 3.553196 1_555
Lu2 Lu4 3.411230 1_564
Lu2 Lu3 3.411369 1_454
Lu2 Lu3 3.411374 1_455
Lu2 Lu4 3.411409 1_565
Lu3 Lu5 3.533551 1_565
Lu3 Lu4 3.533616 1_665
Lu3 Lu4 3.553373 1_555
Lu3 Lu5 3.553399 1_555
Lu4 Lu5 3.533702 1_455
Lu4 Lu5 3.553258 1_555
