# generated using pymatgen
data_Mg2Ga3WS8
_symmetry_space_group_name_H-M   'P 1'
_cell_length_a   7.33220206
_cell_length_b   7.42297661
_cell_length_c   7.33232800
_cell_angle_alpha   60.40365983
_cell_angle_beta   59.99887080
_cell_angle_gamma   60.40351292
_symmetry_Int_Tables_number   1
_chemical_formula_structural   Mg2Ga3WS8
_chemical_formula_sum   'Mg2 Ga3 W1 S8'
_cell_volume   283.89528290
_cell_formula_units_Z   1
loop_
 _symmetry_equiv_pos_site_id
 _symmetry_equiv_pos_as_xyz
  1  'x, y, z'
loop_
 _atom_site_type_symbol
 _atom_site_label
 _atom_site_symmetry_multiplicity
 _atom_site_fract_x
 _atom_site_fract_y
 _atom_site_fract_z
 _atom_site_occupancy
  Mg  Mg0  1  0.87395300  0.87813000  0.87396800  1
  Mg  Mg1  1  0.12603300  0.12192700  0.12601600  1
  Ga  Ga0  1  0.50000300  0.50001500  0.49997200  1
  Ga  Ga1  1  0.50000400  0.49998500  0.99999800  1
  Ga  Ga2  1  0.00000000  0.49998300  0.50002100  1
  W  W0  1  0.50000100  0.99999400  0.50001100  1
  S  S0  1  0.73628800  0.74171300  0.73627900  1
  S  S1  1  0.26371200  0.25828300  0.71428500  1
  S  S2  1  0.26027900  0.71916100  0.26028300  1
  S  S3  1  0.71428400  0.25828300  0.26371700  1
  S  S4  1  0.73971300  0.28083600  0.73970900  1
  S  S5  1  0.28571600  0.74170300  0.73628600  1
  S  S6  1  0.26371600  0.25827000  0.26373700  1
  S  S7  1  0.73630100  0.74171100  0.28572000  1
loop_
_geom_bond_atom_site_label_1
_geom_bond_atom_site_label_2
_geom_bond_distance
_geom_bond_site_symmetry_2
Mg0 S4 2.455525 1_565
Mg0 S7 2.470121 1_556
Mg0 S5 2.470141 1_655
Mg0 S0 2.470236 1_555
Mg1 S2 2.455890 1_545
Mg1 S1 2.469992 1_554
Mg1 S3 2.470053 1_455
Mg1 S6 2.470088 1_555
Ga0 S3 2.500591 1_555
Ga0 S7 2.500619 1_555
Ga0 S5 2.500661 1_555
Ga0 S1 2.500749 1_555
Ga0 S2 2.503077 1_555
Ga0 S4 2.503249 1_555
Ga1 S6 2.500665 1_556
Ga1 S3 2.500691 1_556
Ga1 S5 2.500695 1_555
Ga1 S0 2.500700 1_555
Ga1 S4 2.503170 1_555
Ga1 S2 2.503285 1_556
Ga2 S1 2.500568 1_555
Ga2 S0 2.500592 1_455
Ga2 S6 2.500634 1_555
Ga2 S7 2.500683 1_455
Ga2 S4 2.503131 1_455
Ga2 S2 2.503244 1_555
S0 W0 2.473502 1_555
S1 W0 2.473507 1_545
S3 W0 2.473538 1_545
S5 W0 2.473559 1_555
S6 W0 2.473518 1_545
S7 W0 2.473557 1_555
