# generated using pymatgen
data_LiLaMg14
_symmetry_space_group_name_H-M   'P 1'
_cell_length_a   6.60303630
_cell_length_b   6.51794109
_cell_length_c   10.39417539
_cell_angle_alpha   90.00000000
_cell_angle_beta   90.00000000
_cell_angle_gamma   119.57460554
_symmetry_Int_Tables_number   1
_chemical_formula_structural   LiLaMg14
_chemical_formula_sum   'Li1 La1 Mg14'
_cell_volume   389.06351108
_cell_formula_units_Z   1
loop_
 _symmetry_equiv_pos_site_id
 _symmetry_equiv_pos_as_xyz
  1  'x, y, z'
loop_
 _atom_site_type_symbol
 _atom_site_label
 _atom_site_symmetry_multiplicity
 _atom_site_fract_x
 _atom_site_fract_y
 _atom_site_fract_z
 _atom_site_occupancy
  Li  Li0  1  0.17721791  0.33860846  0.12500000  1
  La  La0  1  0.16167125  0.83083513  0.12500000  1
  Mg  Mg0  1  0.16544326  0.33272113  0.62500000  1
  Mg  Mg1  1  0.16576379  0.83288140  0.62500000  1
  Mg  Mg2  1  0.65659843  0.33772407  0.12500000  1
  Mg  Mg3  1  0.66705381  0.33292769  0.62500000  1
  Mg  Mg4  1  0.65659843  0.81887336  0.12500000  1
  Mg  Mg5  1  0.66705381  0.83412513  0.62500000  1
  Mg  Mg6  1  0.33748676  0.17358736  0.38265233  1
  Mg  Mg7  1  0.33748676  0.17358736  0.86734767  1
  Mg  Mg8  1  0.33748676  0.66390039  0.38265233  1
  Mg  Mg9  1  0.33748676  0.66390039  0.86734767  1
  Mg  Mg10  1  0.83719338  0.16859719  0.36894682  1
  Mg  Mg11  1  0.83719338  0.16859719  0.88105318  1
  Mg  Mg12  1  0.82913276  0.66456688  0.38332142  1
  Mg  Mg13  1  0.82913276  0.66456688  0.86667858  1
loop_
_geom_bond_atom_site_label_1
_geom_bond_atom_site_label_2
_geom_bond_distance
_geom_bond_site_symmetry_2
Li0 Mg4 3.168216 1_555
Li0 Mg2 3.168216 1_555
Li0 Mg10 3.200366 1_455
Li0 Mg11 3.200366 1_454
Li0 Mg6 3.251546 1_555
Li0 Mg7 3.251546 1_554
Li0 Mg9 3.251552 1_554
Li0 Mg8 3.251552 1_555
Li0 Mg4 3.434828 1_445
Li0 Mg2 3.434828 1_455
La0 Li0 3.260193 1_565
La0 Li0 3.260193 1_555
La0 Mg12 3.294895 1_455
La0 Mg13 3.294895 1_454
La0 Mg2 3.297231 1_455
La0 Mg4 3.297231 1_455
La0 Mg2 3.307198 1_565
La0 Mg4 3.307198 1_555
La0 Mg8 3.309175 1_555
La0 Mg9 3.309175 1_554
La0 Mg7 3.309181 1_564
La0 Mg6 3.309181 1_565
Mg0 Mg6 3.142427 1_555
Mg0 Mg7 3.142427 1_555
Mg0 Mg9 3.142433 1_555
Mg0 Mg8 3.142433 1_555
Mg0 Mg1 3.258971 1_545
Mg0 Mg1 3.258971 1_555
Mg0 Mg11 3.261414 1_455
Mg0 Mg10 3.261414 1_455
Mg0 Mg5 3.291548 1_445
Mg0 Mg3 3.291548 1_455
Mg0 Mg5 3.311488 1_555
Mg0 Mg3 3.311488 1_555
Mg1 Mg12 3.169797 1_455
Mg1 Mg13 3.169797 1_455
Mg1 Mg8 3.174426 1_555
Mg1 Mg9 3.174426 1_555
Mg1 Mg7 3.174433 1_565
Mg1 Mg6 3.174433 1_565
Mg1 Mg3 3.297008 1_455
Mg1 Mg5 3.297009 1_455
Mg1 Mg3 3.306042 1_565
Mg1 Mg5 3.306043 1_555
Mg2 Mg4 3.136103 1_555
Mg2 Mg7 3.245207 1_554
Mg2 Mg6 3.245207 1_555
Mg2 Mg4 3.381838 1_545
Mg3 Mg6 3.150977 1_555
Mg3 Mg7 3.150977 1_555
Mg3 Mg5 3.251166 1_545
Mg3 Mg5 3.266775 1_555
Mg4 Mg9 3.245207 1_554
Mg4 Mg8 3.245207 1_555
Mg5 Mg8 3.150977 1_555
Mg5 Mg9 3.150977 1_555
Mg6 Mg8 3.195831 1_555
Mg6 Mg8 3.322110 1_545
Mg7 Mg9 3.195831 1_555
Mg7 Mg9 3.322110 1_545
Mg10 Mg2 3.219346 1_555
Mg10 Mg4 3.219352 1_545
Mg10 Mg12 3.262722 1_545
Mg10 Mg12 3.262722 1_555
Mg10 Mg3 3.268110 1_555
Mg10 Mg5 3.268116 1_545
Mg10 Mg8 3.290609 1_655
Mg10 Mg6 3.290609 1_655
Mg10 Mg8 3.318813 1_545
Mg10 Mg6 3.318814 1_555
Mg11 Mg2 3.219346 1_556
Mg11 Mg4 3.219352 1_546
Mg11 Mg13 3.262722 1_545
Mg11 Mg13 3.262722 1_555
Mg11 Mg3 3.268110 1_555
Mg11 Mg5 3.268116 1_545
Mg11 Mg9 3.290609 1_655
Mg11 Mg7 3.290609 1_655
Mg11 Mg9 3.318813 1_545
Mg11 Mg7 3.318814 1_555
Mg12 Mg5 3.137623 1_555
Mg12 Mg3 3.137630 1_555
Mg12 Mg6 3.244222 1_555
Mg12 Mg8 3.244222 1_555
Mg12 Mg4 3.263422 1_555
Mg12 Mg2 3.263428 1_555
Mg12 Mg6 3.358833 1_665
Mg12 Mg8 3.358833 1_655
Mg13 Mg5 3.137623 1_555
Mg13 Mg3 3.137630 1_555
Mg13 Mg7 3.244222 1_555
Mg13 Mg9 3.244222 1_555
Mg13 Mg4 3.263422 1_556
Mg13 Mg2 3.263428 1_556
Mg13 Mg7 3.358833 1_665
Mg13 Mg9 3.358833 1_655
