# generated using pymatgen
data_Sm2Ga2Fe15C2
_symmetry_space_group_name_H-M   'P 1'
_cell_length_a   6.51570516
_cell_length_b   6.51570516
_cell_length_c   6.57866807
_cell_angle_alpha   82.83415126
_cell_angle_beta   82.83415126
_cell_angle_gamma   83.00070752
_symmetry_Int_Tables_number   1
_chemical_formula_structural   Sm2Ga2Fe15C2
_chemical_formula_sum   'Sm2 Ga2 Fe15 C2'
_cell_volume   273.34003885
_cell_formula_units_Z   1
loop_
 _symmetry_equiv_pos_site_id
 _symmetry_equiv_pos_as_xyz
  1  'x, y, z'
loop_
 _atom_site_type_symbol
 _atom_site_label
 _atom_site_symmetry_multiplicity
 _atom_site_fract_x
 _atom_site_fract_y
 _atom_site_fract_z
 _atom_site_occupancy
  Sm  Sm0  1  0.34304200  0.34304200  0.33124100  1
  Sm  Sm1  1  0.65501700  0.65501700  0.66820700  1
  Ga  Ga0  1  0.33678700  0.84321300  0.33681000  1
  Ga  Ga1  1  0.84321300  0.33678700  0.33681000  1
  Fe  Fe0  1  0.09536800  0.09536800  0.08935600  1
  Fe  Fe1  1  0.90313000  0.90313000  0.90565300  1
  Fe  Fe2  1  0.28619700  0.00072900  0.71131900  1
  Fe  Fe3  1  0.99236400  0.71159700  0.28727900  1
  Fe  Fe4  1  0.71813600  0.28290500  0.99626000  1
  Fe  Fe5  1  0.00072900  0.28619700  0.71131900  1
  Fe  Fe6  1  0.28290500  0.71813600  0.99626000  1
  Fe  Fe7  1  0.71159700  0.99236400  0.28727900  1
  Fe  Fe8  1  0.00200200  0.50005800  0.99809500  1
  Fe  Fe9  1  0.50005800  0.00200200  0.99809500  1
  Fe  Fe10  1  0.99718100  0.99718100  0.50762700  1
  Fe  Fe11  1  0.66273500  0.66273500  0.13609900  1
  Fe  Fe12  1  0.65713300  0.14793100  0.66525800  1
  Fe  Fe13  1  0.14793100  0.65713300  0.66525800  1
  Fe  Fe14  1  0.34320300  0.34320300  0.85405000  1
  C  C0  1  0.51010800  0.01116300  0.50886300  1
  C  C1  1  0.01116300  0.51010800  0.50886300  1
loop_
_geom_bond_atom_site_label_1
_geom_bond_atom_site_label_2
_geom_bond_distance
_geom_bond_site_symmetry_2
Fe0 Fe1 2.395005 1_444
Fe0 Fe8 2.643612 1_554
Fe0 Fe9 2.643612 1_554
Fe0 Fe14 2.645717 1_554
Fe0 Ga1 2.676858 1_455
Fe0 Ga0 2.676858 1_545
Fe0 Fe4 2.714135 1_454
Fe0 Fe6 2.714135 1_544
Fe0 Fe5 2.745103 1_554
Fe0 Fe2 2.745103 1_554
Fe0 Fe10 2.758915 1_445
Fe0 Fe3 2.788766 1_445
Fe0 Fe7 2.788766 1_445
Fe0 Sm0 3.107525 1_555
Fe1 Fe11 2.572602 1_556
Fe1 Fe10 2.626476 1_555
Fe1 Fe8 2.639931 1_655
Fe1 Fe9 2.639931 1_565
Fe1 Fe12 2.644686 1_565
Fe1 Fe13 2.644686 1_655
Fe1 Fe4 2.719041 1_565
Fe1 Fe6 2.719041 1_655
Fe1 Fe7 2.757575 1_556
Fe1 Fe3 2.757575 1_556
Fe1 Fe5 2.767045 1_665
Fe1 Fe2 2.767045 1_665
Fe1 Sm1 3.092583 1_555
Fe2 Fe6 2.458287 1_545
Fe2 Fe9 2.482670 1_555
Fe3 Fe8 2.475140 1_654
Fe3 Fe6 2.519134 1_654
Fe4 Fe9 2.448093 1_555
Fe4 Fe5 2.458287 1_655
Fe4 Fe8 2.463880 1_655
Fe4 Fe7 2.519134 1_546
Fe4 Ga1 2.555021 1_556
Fe4 Sm1 3.062397 1_555
Fe4 Sm0 3.101844 1_556
Fe5 Fe8 2.482670 1_555
Fe6 Fe8 2.448093 1_555
Fe6 Fe9 2.463880 1_565
Fe6 Ga0 2.555021 1_556
Fe6 Sm1 3.062397 1_555
Fe6 Sm0 3.101844 1_556
Fe7 Fe9 2.475140 1_564
Fe8 Ga1 2.503823 1_456
Fe8 Sm0 3.299908 1_556
Fe8 Sm1 3.310870 1_455
Fe9 Ga0 2.503823 1_546
Fe9 Sm0 3.299908 1_556
Fe9 Sm1 3.310870 1_545
Fe10 Fe5 2.447513 1_665
Fe10 Fe2 2.447513 1_665
Fe10 Fe12 2.469775 1_565
Fe10 Fe13 2.469775 1_655
Fe10 Fe3 2.502670 1_555
Fe10 Fe7 2.502670 1_555
Fe10 Ga1 2.507086 1_565
Fe10 Ga0 2.507086 1_655
Fe10 Sm1 3.330613 1_555
Fe10 Sm0 3.381740 1_665
Fe11 Fe9 2.450038 1_564
Fe11 Fe8 2.450038 1_654
Fe11 Fe3 2.545972 1_555
Fe11 Fe7 2.545972 1_555
Fe11 Ga0 2.591499 1_555
Fe11 Ga1 2.591499 1_555
Fe11 Fe6 2.714589 1_554
Fe11 Fe4 2.714589 1_554
Fe11 Sm1 3.091545 1_554
Fe11 Sm0 3.170053 1_555
Fe11 Sm1 3.488807 1_555
Fe12 Fe9 2.429949 1_555
Fe12 Fe4 2.540090 1_555
Fe12 Fe14 2.543920 1_555
Fe13 Fe8 2.429949 1_555
Fe13 Fe6 2.540090 1_555
Fe13 Fe14 2.543920 1_555
Fe14 Fe8 2.459118 1_555
Fe14 Fe9 2.459118 1_555
Fe14 Fe5 2.609753 1_555
Fe14 Fe2 2.609753 1_555
Fe14 Fe4 2.691136 1_555
Fe14 Fe6 2.691136 1_555
Fe14 Sm1 3.084939 1_555
Fe14 Sm0 3.139020 1_556
Fe14 Sm0 3.439649 1_555
C0 Fe7 1.841584 1_545
C0 Fe2 1.850366 1_555
C0 Fe12 1.858255 1_555
C0 Ga0 2.164050 1_545
C0 Sm0 2.517880 1_555
C0 Sm1 2.545847 1_545
C1 Fe3 1.841584 1_455
C1 Fe5 1.850366 1_555
C1 Fe13 1.858255 1_555
C1 Ga1 2.164050 1_455
C1 Sm0 2.517880 1_555
C1 Sm1 2.545847 1_455
