# generated using pymatgen
data_Mg2SiNi3
_symmetry_space_group_name_H-M   'P 1'
_cell_length_a   4.63921646
_cell_length_b   4.63921607
_cell_length_c   4.63921670
_cell_angle_alpha   64.46476676
_cell_angle_beta   64.46478266
_cell_angle_gamma   64.46477017
_symmetry_Int_Tables_number   1
_chemical_formula_structural   Mg2SiNi3
_chemical_formula_sum   'Mg2 Si1 Ni3'
_cell_volume   77.51772961
_cell_formula_units_Z   1
loop_
 _symmetry_equiv_pos_site_id
 _symmetry_equiv_pos_as_xyz
  1  'x, y, z'
loop_
 _atom_site_type_symbol
 _atom_site_label
 _atom_site_symmetry_multiplicity
 _atom_site_fract_x
 _atom_site_fract_y
 _atom_site_fract_z
 _atom_site_occupancy
  Mg  Mg0  1  0.12531100  0.12531100  0.12531100  1
  Mg  Mg1  1  0.87468900  0.87468900  0.87468900  1
  Si  Si0  1  0.50000000  0.50000000  0.50000000  1
  Ni  Ni0  1  0.50000000  0.50000000  0.00000000  1
  Ni  Ni1  1  0.50000000  0.00000000  0.50000000  1
  Ni  Ni2  1  -0.00000000  0.50000000  0.50000000  1
loop_
_geom_bond_atom_site_label_1
_geom_bond_atom_site_label_2
_geom_bond_distance
_geom_bond_site_symmetry_2
Mg0 Ni1 2.691402 1_555
Mg0 Ni0 2.691402 1_555
Mg0 Ni2 2.691402 1_555
Mg0 Mg1 2.748082 1_444
Mg0 Ni2 2.830261 1_545
Mg0 Ni0 2.830262 1_455
Mg0 Ni2 2.830262 1_554
Mg0 Ni0 2.830262 1_545
Mg0 Ni1 2.830262 1_455
Mg0 Ni1 2.830262 1_554
Mg0 Si0 2.892891 1_545
Mg0 Si0 2.892892 1_554
Mg0 Si0 2.892892 1_455
Mg0 Mg1 2.997618 1_454
Mg0 Mg1 2.997619 1_544
Mg0 Mg1 2.997619 1_445
Mg1 Ni1 2.691402 1_565
Mg1 Ni0 2.691402 1_556
Mg1 Ni2 2.691402 1_655
Mg1 Ni2 2.830261 1_665
Mg1 Ni0 2.830262 1_656
Mg1 Ni2 2.830262 1_656
Mg1 Ni0 2.830262 1_566
Mg1 Ni1 2.830262 1_665
Mg1 Ni1 2.830262 1_566
Mg1 Si0 2.892891 1_565
Mg1 Si0 2.892892 1_556
Mg1 Si0 2.892892 1_655
Ni0 Si0 2.319608 1_555
Ni0 Si0 2.319608 1_554
Ni0 Ni1 2.474347 1_564
Ni0 Ni1 2.474347 1_555
Ni0 Ni2 2.474347 1_654
Ni0 Ni2 2.474347 1_555
Ni1 Si0 2.319608 1_555
Ni1 Si0 2.319608 1_545
Ni1 Ni2 2.474347 1_645
Ni1 Ni2 2.474347 1_555
Ni2 Si0 2.319608 1_555
Ni2 Si0 2.319608 1_455
