# generated using pymatgen
data_MgTiBO4
_symmetry_space_group_name_H-M   'P 1'
_cell_length_a   3.12797500
_cell_length_b   9.45306100
_cell_length_c   9.51101200
_cell_angle_alpha   90.00000000
_cell_angle_beta   90.00000000
_cell_angle_gamma   90.00000000
_symmetry_Int_Tables_number   1
_chemical_formula_structural   MgTiBO4
_chemical_formula_sum   'Mg4 Ti4 B4 O16'
_cell_volume   281.23052872
_cell_formula_units_Z   4
loop_
 _symmetry_equiv_pos_site_id
 _symmetry_equiv_pos_as_xyz
  1  'x, y, z'
loop_
 _atom_site_type_symbol
 _atom_site_label
 _atom_site_symmetry_multiplicity
 _atom_site_fract_x
 _atom_site_fract_y
 _atom_site_fract_z
 _atom_site_occupancy
  Mg  Mg0  1  0.00000000  0.60231400  0.44144600  1
  Mg  Mg1  1  0.00000000  0.10231400  0.55855400  1
  Mg  Mg2  1  0.00000000  0.62303500  0.81614600  1
  Mg  Mg3  1  0.00000000  0.12303500  0.18385400  1
  Ti  Ti0  1  0.50000000  0.39978000  0.05670400  1
  Ti  Ti1  1  0.50000000  0.89978000  0.94329600  1
  Ti  Ti2  1  0.50000000  0.38797100  0.68040000  1
  Ti  Ti3  1  0.50000000  0.88797100  0.31960000  1
  B  B0  1  0.00000000  0.67060500  0.12747400  1
  B  B1  1  0.00000000  0.17060500  0.87252600  1
  B  B2  1  0.50000000  0.33407900  0.37444700  1
  B  B3  1  0.50000000  0.83407900  0.62555300  1
  O  O0  1  0.00000000  0.52456200  0.11900600  1
  O  O1  1  0.00000000  0.02456200  0.88099400  1
  O  O2  1  0.50000000  0.47746300  0.38143900  1
  O  O3  1  0.50000000  0.97746300  0.61856100  1
  O  O4  1  0.00000000  0.50640800  0.63347800  1
  O  O5  1  0.00000000  0.00640800  0.36652200  1
  O  O6  1  0.50000000  0.47486600  0.86892100  1
  O  O7  1  0.50000000  0.97486600  0.13107900  1
  O  O8  1  0.00000000  0.74546200  0.00097200  1
  O  O9  1  0.00000000  0.24546200  0.99902800  1
  O  O10  1  0.50000000  0.25357800  0.49895000  1
  O  O11  1  0.50000000  0.75357800  0.50105000  1
  O  O12  1  0.00000000  0.73557900  0.25708500  1
  O  O13  1  0.00000000  0.23557900  0.74291500  1
  O  O14  1  0.50000000  0.26429900  0.24262400  1
  O  O15  1  0.50000000  0.76429900  0.75737600  1
loop_
_geom_bond_atom_site_label_1
_geom_bond_atom_site_label_2
_geom_bond_distance
_geom_bond_site_symmetry_2
Mg0 O4 2.039053 1_555
Mg0 O2 2.040763 1_455
Mg0 O2 2.040763 1_555
Mg0 O12 2.159079 1_555
Mg0 O11 2.193641 1_555
Mg0 O11 2.193641 1_455
Mg1 O5 2.039053 1_555
Mg1 O3 2.040763 1_445
Mg1 O3 2.040763 1_545
Mg1 O13 2.159079 1_555
Mg1 O10 2.193641 1_455
Mg1 O10 2.193641 1_555
Mg2 O4 2.057639 1_555
Mg2 O8 2.104642 1_556
Mg2 O15 2.131133 1_555
Mg2 O15 2.131133 1_455
Mg2 O6 2.158663 1_455
Mg2 O6 2.158663 1_555
Mg3 O5 2.057639 1_555
Mg3 O9 2.104642 1_554
Mg3 O14 2.131133 1_455
Mg3 O14 2.131133 1_555
Mg3 O7 2.158663 1_545
Mg3 O7 2.158663 1_445
B0 O12 1.377270 1_555
B0 O0 1.382901 1_555
B0 O8 1.395828 1_555
B1 O13 1.377270 1_555
B1 O1 1.382901 1_555
B1 O9 1.395828 1_555
B2 O2 1.357048 1_555
B2 O10 1.407587 1_555
B2 O14 1.416707 1_555
B3 O3 1.357048 1_555
B3 O11 1.407587 1_555
B3 O15 1.416707 1_555
O0 Ti0 2.046599 1_555
O0 Ti0 2.046599 1_455
O1 Ti1 2.046599 1_545
O1 Ti1 2.046599 1_445
O4 Ti2 1.974514 1_555
O4 Ti2 1.974514 1_455
O5 Ti3 1.974514 1_445
O5 Ti3 1.974514 1_545
O6 Ti0 1.921880 1_556
O6 Ti2 1.972227 1_555
O7 Ti1 1.921880 1_554
O7 Ti3 1.972227 1_555
O8 Ti1 2.207941 1_454
O8 Ti1 2.207941 1_554
O9 Ti0 2.207941 1_456
O9 Ti0 2.207941 1_556
O10 Ti2 2.142959 1_555
O11 Ti3 2.142959 1_555
O12 Ti3 2.207901 1_555
O12 Ti3 2.207901 1_455
O13 Ti2 2.207901 1_555
O13 Ti2 2.207901 1_455
O14 Ti0 2.183359 1_555
O15 Ti1 2.183359 1_555
