# generated using pymatgen
data_Ba4Li(RhO3)4
_symmetry_space_group_name_H-M   'P 1'
_cell_length_a   5.77772441
_cell_length_b   5.77772506
_cell_length_c   10.46282251
_cell_angle_alpha   90.00000000
_cell_angle_beta   90.00000000
_cell_angle_gamma   120.00000185
_symmetry_Int_Tables_number   1
_chemical_formula_structural   Ba4Li(RhO3)4
_chemical_formula_sum   'Ba4 Li1 Rh4 O12'
_cell_volume   302.47757040
_cell_formula_units_Z   1
loop_
 _symmetry_equiv_pos_site_id
 _symmetry_equiv_pos_as_xyz
  1  'x, y, z'
loop_
 _atom_site_type_symbol
 _atom_site_label
 _atom_site_symmetry_multiplicity
 _atom_site_fract_x
 _atom_site_fract_y
 _atom_site_fract_z
 _atom_site_occupancy
  Ba  Ba0  1  0.66666700  0.33333300  0.75729616  1
  Ba  Ba1  1  0.33333300  0.66666700  0.30686522  1
  Ba  Ba2  1  -0.00000000  -0.00000000  0.53190522  1
  Ba  Ba3  1  -0.00000000  -0.00000000  0.02027266  1
  Li  Li0  1  0.33333300  0.66666700  0.07279753  1
  Rh  Rh0  1  0.33333300  0.66666700  0.86360402  1
  Rh  Rh1  1  0.66666700  0.33333300  0.37737371  1
  Rh  Rh2  1  0.66666700  0.33333300  0.11002851  1
  Rh  Rh3  1  0.33333300  0.66666700  0.60806831  1
  O  O0  1  0.18213828  0.36427756  0.73649314  1
  O  O1  1  0.81409179  0.18590821  0.24407228  1
  O  O2  1  0.37181742  0.18590821  0.24407228  1
  O  O3  1  0.63572244  0.81786172  0.73649314  1
  O  O4  1  0.18213828  0.81786172  0.73649314  1
  O  O5  1  0.81409179  0.62818258  0.24407228  1
  O  O6  1  0.50270302  0.00540605  0.49817124  1
  O  O7  1  0.49622887  0.50377113  0.99477623  1
  O  O8  1  0.49622887  0.99245774  0.99477623  1
  O  O9  1  0.50270302  0.49729698  0.49817124  1
  O  O10  1  0.99459395  0.49729698  0.49817124  1
  O  O11  1  0.00754226  0.50377113  0.99477623  1
loop_
_geom_bond_atom_site_label_1
_geom_bond_atom_site_label_2
_geom_bond_distance
_geom_bond_site_symmetry_2
Ba0 O0 2.901179 1_655
Ba0 O3 2.901180 1_545
Ba0 O4 2.901184 1_655
Ba0 O4 2.901185 1_545
Ba0 O0 2.901191 1_555
Ba0 O3 2.901191 1_555
Ba0 O11 3.013792 1_655
Ba0 O8 3.013792 1_545
Ba0 O7 3.013795 1_555
Ba0 O10 3.169041 1_555
Ba0 O6 3.169041 1_555
Ba0 O9 3.169044 1_555
Ba1 Li0 2.449009 1_555
Ba1 O10 2.622824 1_455
Ba1 O6 2.622824 1_565
Ba1 O9 2.622827 1_555
Ba1 O5 2.968873 1_455
Ba1 O2 2.968874 1_565
Ba1 O1 2.968878 1_455
Ba1 O1 2.968879 1_565
Ba1 O5 2.968885 1_555
Ba1 O2 2.968885 1_555
Ba2 O4 2.811462 1_545
Ba2 O3 2.811465 1_445
Ba2 O0 2.811465 1_555
Ba2 O6 2.910469 1_555
Ba2 O6 2.910469 1_455
Ba2 O9 2.910469 1_555
Ba2 O9 2.910469 1_445
Ba2 O10 2.910470 1_445
Ba2 O10 2.910470 1_455
Ba3 O8 2.901398 1_444
Ba3 O8 2.901398 1_544
Ba3 O7 2.901398 1_444
Ba3 O7 2.901398 1_554
Ba3 O11 2.901399 1_544
Ba3 O11 2.901399 1_554
Ba3 O1 2.990689 1_455
Ba3 O2 2.990692 1_555
Ba3 O5 2.990692 1_445
Li0 O11 1.823117 1_554
Li0 O8 1.823117 1_554
Li0 O7 1.823122 1_554
Li0 Rh0 2.188755 1_554
O0 Rh0 2.014464 1_555
O0 Rh3 2.023567 1_555
O1 Rh1 2.030222 1_555
O1 Rh2 2.035565 1_555
O2 Rh1 2.030222 1_555
O2 Rh2 2.035565 1_555
O3 Rh0 2.014464 1_555
O3 Rh3 2.023566 1_555
O4 Rh0 2.014464 1_555
O4 Rh3 2.023567 1_555
O5 Rh1 2.030222 1_555
O5 Rh2 2.035565 1_555
O6 Rh3 2.048150 1_545
O6 Rh1 2.071168 1_555
O7 Rh2 2.088845 1_556
O7 Rh0 2.130952 1_555
O8 Rh2 2.088841 1_566
O8 Rh0 2.130948 1_555
O9 Rh3 2.048154 1_555
O9 Rh1 2.071172 1_555
O10 Rh3 2.048150 1_655
O10 Rh1 2.071168 1_555
O11 Rh2 2.088841 1_456
O11 Rh0 2.130948 1_555
