# generated using pymatgen
data_Sr2MgHg
_symmetry_space_group_name_H-M   'P 1'
_cell_length_a   14.89661558
_cell_length_b   13.32182153
_cell_length_c   13.32182220
_cell_angle_alpha   57.24194457
_cell_angle_beta   56.00601928
_cell_angle_gamma   56.00601861
_symmetry_Int_Tables_number   1
_chemical_formula_structural   Sr2MgHg
_chemical_formula_sum   'Sr2 Mg1 Hg1'
_cell_volume   1713.95716152
_cell_formula_units_Z   1
loop_
 _symmetry_equiv_pos_site_id
 _symmetry_equiv_pos_as_xyz
  1  'x, y, z'
loop_
 _atom_site_type_symbol
 _atom_site_label
 _atom_site_symmetry_multiplicity
 _atom_site_fract_x
 _atom_site_fract_y
 _atom_site_fract_z
 _atom_site_occupancy
  Sr  Sr0  1  0.74337504  0.00000000  1.00000000  1
  Sr  Sr1  1  0.25662496  1.00000000  0.00000000  1
  Mg  Mg0  1  0.00000000  0.00000000  0.00000000  1
  Hg  Hg0  1  0.50000000  0.00000000  0.00000000  1
loop_
_geom_bond_atom_site_label_1
_geom_bond_atom_site_label_2
_geom_bond_distance
_geom_bond_site_symmetry_2
Mg0 Sr1 3.822843 1_545
Mg0 Sr0 3.822843 1_454
Hg0 Sr1 3.625464 1_545
Hg0 Sr0 3.625464 1_554
