# generated using pymatgen
data_Li9Mn2Co5O16
_symmetry_space_group_name_H-M   'P 1'
_cell_length_a   2.90065900
_cell_length_b   5.16296800
_cell_length_c   19.52455185
_cell_angle_alpha   84.59949490
_cell_angle_beta   90.00000000
_cell_angle_gamma   90.00000000
_symmetry_Int_Tables_number   1
_chemical_formula_structural   Li9Mn2Co5O16
_chemical_formula_sum   'Li9 Mn2 Co5 O16'
_cell_volume   291.10195228
_cell_formula_units_Z   1
loop_
 _symmetry_equiv_pos_site_id
 _symmetry_equiv_pos_as_xyz
  1  'x, y, z'
loop_
 _atom_site_type_symbol
 _atom_site_label
 _atom_site_symmetry_multiplicity
 _atom_site_fract_x
 _atom_site_fract_y
 _atom_site_fract_z
 _atom_site_occupancy
  Li  Li0  1  0.50000000  0.11711900  0.12220600  1
  Li  Li1  1  0.50000000  0.36980800  0.37239600  1
  Li  Li2  1  0.50000000  0.63019200  0.62760400  1
  Li  Li3  1  0.50000000  0.88288100  0.87779400  1
  Li  Li4  1  0.00000000  0.61289100  0.11926400  1
  Li  Li5  1  0.00000000  0.87893600  0.37202800  1
  Li  Li6  1  0.00000000  0.12106400  0.62797200  1
  Li  Li7  1  0.00000000  0.38710900  0.88073600  1
  Li  Li8  1  0.50000000  0.50000000  0.00000000  1
  Mn  Mn0  1  0.00000000  0.00000000  0.00000000  1
  Mn  Mn1  1  0.00000000  0.50000000  0.50000000  1
  Co  Co0  1  0.00000000  0.24839200  0.24899800  1
  Co  Co1  1  0.00000000  0.75160800  0.75100200  1
  Co  Co2  1  0.50000000  0.74731300  0.24952500  1
  Co  Co3  1  0.50000000  0.00000000  0.50000000  1
  Co  Co4  1  0.50000000  0.25268700  0.75047500  1
  O  O0  1  0.50000000  0.82993200  0.05541800  1
  O  O1  1  0.50000000  0.06780300  0.30721400  1
  O  O2  1  0.50000000  0.32681500  0.55586000  1
  O  O3  1  0.50000000  0.56965600  0.80706000  1
  O  O4  1  0.00000000  0.28137200  0.05797100  1
  O  O5  1  0.00000000  0.56490200  0.30903800  1
  O  O6  1  0.00000000  0.83299200  0.55832300  1
  O  O7  1  0.00000000  0.07034700  0.80682700  1
  O  O8  1  0.50000000  0.43034400  0.19294000  1
  O  O9  1  0.50000000  0.67318500  0.44414000  1
  O  O10  1  0.50000000  0.93219700  0.69278600  1
  O  O11  1  0.50000000  0.17006800  0.94458200  1
  O  O12  1  0.00000000  0.92965300  0.19317300  1
  O  O13  1  0.00000000  0.16700800  0.44167700  1
  O  O14  1  0.00000000  0.43509800  0.69096200  1
  O  O15  1  0.00000000  0.71862800  0.94202900  1
loop_
_geom_bond_atom_site_label_1
_geom_bond_atom_site_label_2
_geom_bond_distance
_geom_bond_site_symmetry_2
Li0 O4 2.048251 1_555
Li0 O4 2.048251 1_655
Li0 O0 2.064677 1_545
Li0 O12 2.169722 1_545
Li0 O12 2.169722 1_645
Li0 O8 2.223272 1_555
Li1 O5 2.100893 1_555
Li1 O5 2.100893 1_655
Li1 O1 2.103425 1_555
Li1 O13 2.182410 1_555
Li1 O13 2.182410 1_655
Li1 O9 2.197391 1_555
Li2 O14 2.100893 1_655
Li2 O14 2.100893 1_555
Li2 O10 2.103425 1_555
Li2 O6 2.182410 1_555
Li2 O6 2.182410 1_655
Li2 O2 2.197391 1_555
Li3 O15 2.048251 1_655
Li3 O15 2.048251 1_555
Li3 O11 2.064677 1_565
Li3 O7 2.169722 1_565
Li3 O7 2.169722 1_665
Li3 O3 2.223272 1_555
Li4 O0 2.156416 1_455
Li4 O0 2.156416 1_555
Li4 O4 2.178841 1_555
Li4 O8 2.192211 1_455
Li4 O8 2.192211 1_555
Li4 O12 2.280621 1_555
Li5 O1 2.103195 1_565
Li5 O1 2.103195 1_465
Li5 O13 2.107611 1_565
Li5 O5 2.125240 1_555
Li5 O9 2.220971 1_455
Li5 O9 2.220971 1_555
Li6 O10 2.103195 1_545
Li6 O10 2.103195 1_445
Li6 O6 2.107611 1_545
Li6 O14 2.125240 1_555
Li6 O2 2.220971 1_455
Li6 O2 2.220971 1_555
Li7 O11 2.156416 1_555
Li7 O11 2.156416 1_455
Li7 O15 2.178841 1_555
Li7 O3 2.192211 1_455
Li7 O3 2.192211 1_555
Li7 O7 2.280621 1_555
Li8 O4 2.101949 1_555
Li8 O4 2.101949 1_655
Li8 O15 2.101949 1_554
Li8 O15 2.101949 1_654
Li8 O0 2.102227 1_555
Li8 O11 2.102227 1_554
Mn0 O4 1.923795 1_555
Mn0 O15 1.923795 1_544
Mn0 O0 1.966304 1_445
Mn0 O0 1.966304 1_545
Mn0 O11 1.966304 1_454
Mn0 O11 1.966304 1_554
Mn1 O9 1.977092 1_555
Mn1 O9 1.977092 1_455
Mn1 O2 1.977092 1_555
Mn1 O2 1.977092 1_455
Mn1 O6 2.149642 1_555
Mn1 O13 2.149642 1_555
Co0 O8 1.997588 1_455
Co0 O8 1.997588 1_555
Co0 O1 2.016246 1_455
Co0 O1 2.016246 1_555
Co0 O12 2.057612 1_545
Co0 O5 2.098845 1_555
Co1 O3 1.997588 1_455
Co1 O3 1.997588 1_555
Co1 O10 2.016246 1_455
Co1 O10 2.016246 1_555
Co1 O7 2.057612 1_565
Co1 O14 2.098845 1_555
Co2 O12 2.001323 1_655
Co2 O12 2.001323 1_555
Co2 O5 2.033367 1_555
Co2 O5 2.033367 1_655
Co2 O8 2.058892 1_555
Co2 O1 2.087452 1_565
Co3 O13 1.989680 1_555
Co3 O6 1.989680 1_545
Co3 O13 1.989680 1_655
Co3 O6 1.989680 1_645
Co3 O2 2.093562 1_555
Co3 O9 2.093562 1_545
Co4 O7 2.001323 1_655
Co4 O7 2.001323 1_555
Co4 O14 2.033367 1_655
Co4 O14 2.033367 1_555
Co4 O3 2.058892 1_555
Co4 O10 2.087452 1_545
