# generated using pymatgen
data_Mg14CrSb
_symmetry_space_group_name_H-M   'P 1'
_cell_length_a   6.32801318
_cell_length_b   6.32801268
_cell_length_c   10.35471184
_cell_angle_alpha   90.00000000
_cell_angle_beta   90.00000000
_cell_angle_gamma   120.00000262
_symmetry_Int_Tables_number   1
_chemical_formula_structural   Mg14CrSb
_chemical_formula_sum   'Mg14 Cr1 Sb1'
_cell_volume   359.09003501
_cell_formula_units_Z   1
loop_
 _symmetry_equiv_pos_site_id
 _symmetry_equiv_pos_as_xyz
  1  'x, y, z'
loop_
 _atom_site_type_symbol
 _atom_site_label
 _atom_site_symmetry_multiplicity
 _atom_site_fract_x
 _atom_site_fract_y
 _atom_site_fract_z
 _atom_site_occupancy
  Mg  Mg0  1  0.16713206  0.83356553  0.12500000  1
  Mg  Mg1  1  0.16462290  0.83231095  0.62500000  1
  Mg  Mg2  1  0.66643447  0.33286794  0.12500000  1
  Mg  Mg3  1  0.66768905  0.33537710  0.62500000  1
  Mg  Mg4  1  0.66643447  0.83356553  0.12500000  1
  Mg  Mg5  1  0.66768905  0.83231095  0.62500000  1
  Mg  Mg6  1  0.33223687  0.16776313  0.36890617  1
  Mg  Mg7  1  0.33223687  0.16776313  0.88109383  1
  Mg  Mg8  1  0.33223687  0.66447475  0.36890617  1
  Mg  Mg9  1  0.33223687  0.66447475  0.88109383  1
  Mg  Mg10  1  0.83552525  0.16776313  0.36890617  1
  Mg  Mg11  1  0.83552525  0.16776313  0.88109383  1
  Mg  Mg12  1  0.83333300  0.66666700  0.37427231  1
  Mg  Mg13  1  0.83333300  0.66666700  0.87572769  1
  Cr  Cr0  1  0.16666700  0.33333300  0.12500000  1
  Sb  Sb0  1  0.16666700  0.33333300  0.62500000  1
loop_
_geom_bond_atom_site_label_1
_geom_bond_atom_site_label_2
_geom_bond_distance
_geom_bond_site_symmetry_2
Mg0 Mg8 3.119771 1_555
Mg0 Mg9 3.119771 1_554
Mg0 Mg7 3.119777 1_564
Mg0 Mg6 3.119777 1_565
Mg0 Mg2 3.159592 1_565
Mg0 Mg4 3.159592 1_555
Mg0 Mg13 3.163639 1_454
Mg0 Mg12 3.163639 1_455
Mg0 Mg2 3.168421 1_455
Mg0 Mg4 3.168421 1_455
Mg1 Sb0 3.164026 1_565
Mg1 Sb0 3.164026 1_555
Mg1 Mg12 3.168046 1_455
Mg1 Mg13 3.168046 1_455
Mg1 Mg9 3.226674 1_555
Mg1 Mg8 3.226674 1_555
Mg1 Mg7 3.226680 1_565
Mg1 Mg6 3.226680 1_565
Mg2 Mg6 3.119777 1_555
Mg2 Mg7 3.119777 1_554
Mg2 Mg4 3.159592 1_545
Mg2 Mg4 3.168421 1_555
Mg3 Sb0 3.164026 1_655
Mg3 Sb0 3.164026 1_555
Mg3 Mg7 3.226680 1_555
Mg3 Mg6 3.226680 1_555
Mg4 Mg8 3.119777 1_555
Mg4 Mg9 3.119777 1_554
Mg5 Sb0 3.164026 1_665
Mg5 Sb0 3.164026 1_555
Mg5 Mg9 3.226680 1_555
Mg5 Mg8 3.226680 1_555
Mg6 Mg8 3.143197 1_555
Mg6 Mg8 3.184815 1_545
Mg6 Sb0 3.213274 1_555
Mg7 Mg9 3.143197 1_555
Mg7 Mg9 3.184815 1_545
Mg7 Sb0 3.213274 1_555
Mg8 Sb0 3.213280 1_555
Mg9 Sb0 3.213280 1_555
Mg10 Mg2 3.119771 1_555
Mg10 Mg4 3.119777 1_545
Mg10 Mg8 3.143197 1_655
Mg10 Mg6 3.143198 1_655
Mg10 Mg12 3.164517 1_555
Mg10 Mg12 3.164517 1_545
Mg10 Mg8 3.184815 1_545
Mg10 Mg6 3.184816 1_555
Mg10 Sb0 3.213280 1_655
Mg10 Mg3 3.226674 1_555
Mg10 Mg5 3.226680 1_545
Mg11 Mg2 3.119771 1_556
Mg11 Mg4 3.119777 1_546
Mg11 Mg9 3.143197 1_655
Mg11 Mg7 3.143198 1_655
Mg11 Mg13 3.164517 1_555
Mg11 Mg13 3.164517 1_545
Mg11 Mg9 3.184815 1_545
Mg11 Mg7 3.184816 1_555
Mg11 Sb0 3.213280 1_655
Mg11 Mg3 3.226674 1_555
Mg11 Mg5 3.226680 1_545
Mg12 Mg4 3.163632 1_555
Mg12 Mg2 3.163639 1_555
Mg12 Mg6 3.164517 1_665
Mg12 Mg6 3.164517 1_555
Mg12 Mg8 3.164517 1_655
Mg12 Mg8 3.164517 1_555
Mg12 Mg5 3.168039 1_555
Mg12 Mg3 3.168046 1_555
Mg13 Mg4 3.163632 1_556
Mg13 Mg2 3.163639 1_556
Mg13 Mg7 3.164517 1_665
Mg13 Mg7 3.164517 1_555
Mg13 Mg9 3.164517 1_655
Mg13 Mg9 3.164517 1_555
Mg13 Mg5 3.168039 1_555
Mg13 Mg3 3.168046 1_555
Cr0 Mg6 3.109943 1_555
Cr0 Mg7 3.109943 1_554
Cr0 Mg8 3.109950 1_555
Cr0 Mg9 3.109950 1_554
Cr0 Mg11 3.109950 1_454
Cr0 Mg10 3.109950 1_455
Cr0 Mg0 3.164007 1_555
Cr0 Mg4 3.164007 1_555
Cr0 Mg4 3.164007 1_445
Cr0 Mg0 3.164007 1_545
Cr0 Mg2 3.164008 1_455
Cr0 Mg2 3.164008 1_555
