# generated using pymatgen
data_Li3Tm3(TeO6)2
_symmetry_space_group_name_H-M   'P 1'
_cell_length_a   10.65924656
_cell_length_b   10.65924656
_cell_length_c   10.65924656
_cell_angle_alpha   109.47122063
_cell_angle_beta   109.47122063
_cell_angle_gamma   109.47122063
_symmetry_Int_Tables_number   1
_chemical_formula_structural   Li3Tm3(TeO6)2
_chemical_formula_sum   'Li12 Tm12 Te8 O48'
_cell_volume   932.30418383
_cell_formula_units_Z   4
loop_
 _symmetry_equiv_pos_site_id
 _symmetry_equiv_pos_as_xyz
  1  'x, y, z'
loop_
 _atom_site_type_symbol
 _atom_site_label
 _atom_site_symmetry_multiplicity
 _atom_site_fract_x
 _atom_site_fract_y
 _atom_site_fract_z
 _atom_site_occupancy
  Li  Li0  1  0.62500000  0.37500000  0.75000000  1
  Li  Li1  1  0.37500000  0.62500000  0.25000000  1
  Li  Li2  1  0.87500000  0.12500000  0.25000000  1
  Li  Li3  1  0.37500000  0.75000000  0.62500000  1
  Li  Li4  1  0.62500000  0.25000000  0.37500000  1
  Li  Li5  1  0.12500000  0.87500000  0.75000000  1
  Li  Li6  1  0.12500000  0.25000000  0.87500000  1
  Li  Li7  1  0.87500000  0.75000000  0.12500000  1
  Li  Li8  1  0.75000000  0.62500000  0.37500000  1
  Li  Li9  1  0.25000000  0.37500000  0.62500000  1
  Li  Li10  1  0.25000000  0.87500000  0.12500000  1
  Li  Li11  1  0.75000000  0.12500000  0.87500000  1
  Tm  Tm0  1  0.87500000  0.62500000  0.75000000  1
  Tm  Tm1  1  0.12500000  0.37500000  0.25000000  1
  Tm  Tm2  1  0.62500000  0.87500000  0.25000000  1
  Tm  Tm3  1  0.62500000  0.75000000  0.87500000  1
  Tm  Tm4  1  0.87500000  0.25000000  0.62500000  1
  Tm  Tm5  1  0.37500000  0.12500000  0.75000000  1
  Tm  Tm6  1  0.37500000  0.25000000  0.12500000  1
  Tm  Tm7  1  0.12500000  0.75000000  0.37500000  1
  Tm  Tm8  1  0.75000000  0.87500000  0.62500000  1
  Tm  Tm9  1  0.25000000  0.12500000  0.37500000  1
  Tm  Tm10  1  0.25000000  0.62500000  0.87500000  1
  Tm  Tm11  1  0.75000000  0.37500000  0.12500000  1
  Te  Te0  1  -0.00000000  0.00000000  0.00000000  1
  Te  Te1  1  0.50000000  0.00000000  0.50000000  1
  Te  Te2  1  0.50000000  0.50000000  0.00000000  1
  Te  Te3  1  -0.00000000  0.00000000  0.50000000  1
  Te  Te4  1  -0.00000000  0.50000000  0.50000000  1
  Te  Te5  1  0.50000000  0.50000000  0.50000000  1
  Te  Te6  1  0.50000000  0.00000000  0.00000000  1
  Te  Te7  1  -0.00000000  0.50000000  0.00000000  1
  O  O0  1  0.70098419  0.62278133  0.52895111  1
  O  O1  1  0.29901581  0.37721867  0.47104889  1
  O  O2  1  0.79901581  0.82796691  0.42179714  1
  O  O3  1  0.40616977  0.87721867  0.07820286  1
  O  O4  1  0.62278133  0.52895111  0.70098419  1
  O  O5  1  0.70098419  0.07820286  0.67203309  1
  O  O6  1  0.20098419  0.17203309  0.57820286  1
  O  O7  1  0.59383023  0.12278133  0.92179714  1
  O  O8  1  0.37721867  0.47104889  0.29901581  1
  O  O9  1  0.29901581  0.92179714  0.32796691  1
  O  O10  1  0.09383023  0.67203309  0.97104889  1
  O  O11  1  0.82796691  0.42179714  0.79901581  1
  O  O12  1  0.79901581  0.97104889  0.87721867  1
  O  O13  1  0.90616977  0.32796691  0.02895111  1
  O  O14  1  0.17203309  0.57820286  0.20098419  1
  O  O15  1  0.20098419  0.02895111  0.12278133  1
  O  O16  1  0.87721867  0.07820286  0.40616977  1
  O  O17  1  0.40616977  0.52895111  0.82796691  1
  O  O18  1  0.12278133  0.92179714  0.59383023  1
  O  O19  1  0.59383023  0.47104889  0.17203309  1
  O  O20  1  0.67203309  0.97104889  0.09383023  1
  O  O21  1  0.09383023  0.42179714  0.62278133  1
  O  O22  1  0.32796691  0.02895111  0.90616977  1
  O  O23  1  0.90616977  0.57820286  0.37721867  1
  O  O24  1  0.52895111  0.70098419  0.62278133  1
  O  O25  1  0.62278133  0.09383023  0.42179714  1
  O  O26  1  0.47104889  0.29901581  0.37721867  1
  O  O27  1  0.37721867  0.90616977  0.57820286  1
  O  O28  1  0.07820286  0.40616977  0.87721867  1
  O  O29  1  0.87721867  0.79901581  0.97104889  1
  O  O30  1  0.92179714  0.59383023  0.12278133  1
  O  O31  1  0.12278133  0.20098419  0.02895111  1
  O  O32  1  0.97104889  0.09383023  0.67203309  1
  O  O33  1  0.67203309  0.70098419  0.07820286  1
  O  O34  1  0.02895111  0.90616977  0.32796691  1
  O  O35  1  0.32796691  0.29901581  0.92179714  1
  O  O36  1  0.42179714  0.79901581  0.82796691  1
  O  O37  1  0.82796691  0.40616977  0.52895111  1
  O  O38  1  0.57820286  0.20098419  0.17203309  1
  O  O39  1  0.17203309  0.59383023  0.47104889  1
  O  O40  1  0.07820286  0.67203309  0.70098419  1
  O  O41  1  0.92179714  0.32796691  0.29901581  1
  O  O42  1  0.97104889  0.87721867  0.79901581  1
  O  O43  1  0.02895111  0.12278133  0.20098419  1
  O  O44  1  0.42179714  0.62278133  0.09383023  1
  O  O45  1  0.57820286  0.37721867  0.90616977  1
  O  O46  1  0.52895111  0.82796691  0.40616977  1
  O  O47  1  0.47104889  0.17203309  0.59383023  1
loop_
_geom_bond_atom_site_label_1
_geom_bond_atom_site_label_2
_geom_bond_distance
_geom_bond_site_symmetry_2
Li0 O11 1.885642 1_555
Li0 O45 1.885642 1_555
Li0 O47 1.885642 1_555
Li0 O4 1.885642 1_555
Li1 O44 1.885642 1_555
Li1 O14 1.885642 1_555
Li1 O46 1.885642 1_555
Li1 O8 1.885642 1_555
Li2 O16 1.885642 1_555
Li2 O41 1.885642 1_555
Li2 O20 1.885642 1_545
Li2 O43 1.885642 1_655
Li3 O36 1.885642 1_555
Li3 O27 1.885642 1_555
Li3 O39 1.885642 1_555
Li3 O24 1.885642 1_555
Li4 O38 1.885642 1_555
Li4 O25 1.885642 1_555
Li4 O37 1.885642 1_555
Li4 O26 1.885642 1_555
Li5 O40 1.885642 1_555
Li5 O18 1.885642 1_555
Li5 O22 1.885642 1_565
Li5 O42 1.885642 1_455
Li6 O28 1.885642 1_555
Li6 O35 1.885642 1_555
Li6 O32 1.885642 1_455
Li6 O31 1.885642 1_556
Li7 O30 1.885642 1_555
Li7 O33 1.885642 1_555
Li7 O34 1.885642 1_655
Li7 O29 1.885642 1_554
Li8 O23 1.885642 1_555
Li8 O2 1.885642 1_555
Li8 O19 1.885642 1_555
Li8 O0 1.885642 1_555
Li9 O6 1.885642 1_555
Li9 O21 1.885642 1_555
Li9 O17 1.885642 1_555
Li9 O1 1.885642 1_555
Li10 O9 1.885642 1_555
Li10 O3 1.885642 1_555
Li10 O10 1.885642 1_554
Li10 O15 1.885642 1_565
Li11 O5 1.885642 1_555
Li11 O7 1.885642 1_555
Li11 O13 1.885642 1_556
Li11 O12 1.885642 1_545
O0 Te5 1.954097 1_555
O0 Tm8 2.328297 1_555
O0 Tm0 2.452106 1_555
O1 Te5 1.954097 1_555
O1 Tm9 2.328297 1_555
O1 Tm1 2.452106 1_555
O2 Te3 1.954097 1_665
O2 Tm8 2.328297 1_555
O2 Tm2 2.452106 1_555
O3 Te6 1.954097 1_565
O3 Tm10 2.328297 1_554
O3 Tm2 2.452106 1_555
O4 Te5 1.954097 1_555
O4 Tm0 2.328297 1_555
O4 Tm3 2.452106 1_555
O5 Te1 1.954097 1_555
O5 Tm8 2.328297 1_545
O5 Tm4 2.452106 1_555
O6 Te3 1.954097 1_555
O6 Tm9 2.328297 1_555
O6 Tm5 2.452106 1_555
O7 Te6 1.954097 1_556
O7 Tm11 2.328297 1_556
O7 Tm5 2.452106 1_555
O8 Te5 1.954097 1_555
O8 Tm1 2.328297 1_555
O8 Tm6 2.452106 1_555
O9 Te1 1.954097 1_565
O9 Tm9 2.328297 1_565
O9 Tm7 2.452106 1_555
O10 Te7 1.954098 1_556
O10 Tm10 2.328297 1_555
O10 Tm0 2.452106 1_455
O11 Te7 1.954097 1_656
O11 Tm0 2.328297 1_555
O11 Tm4 2.452106 1_555
O12 Te0 1.954097 1_666
O12 Tm8 2.328297 1_555
O12 Tm3 2.452106 1_555
O13 Te7 1.954098 1_655
O13 Tm11 2.328297 1_555
O13 Tm1 2.452106 1_655
O14 Te7 1.954097 1_555
O14 Tm1 2.328297 1_555
O14 Tm7 2.452106 1_555
O15 Te0 1.954097 1_555
O15 Tm9 2.328297 1_555
O15 Tm6 2.452106 1_555
O16 Te3 1.954097 1_655
O16 Tm2 2.328297 1_545
O16 Tm4 2.452106 1_555
O17 Te2 1.954098 1_556
O17 Tm10 2.328297 1_555
O17 Tm3 2.452106 1_555
O18 Te3 1.954097 1_565
O18 Tm5 2.328297 1_565
O18 Tm7 2.452106 1_555
O19 Te2 1.954098 1_555
O19 Tm11 2.328297 1_555
O19 Tm6 2.452106 1_555
O20 Te6 1.954098 1_565
O20 Tm2 2.328297 1_555
O20 Tm3 2.452106 1_554
O21 Te4 1.954097 1_555
O21 Tm10 2.328297 1_555
O21 Tm4 2.452106 1_455
O22 Te6 1.954098 1_556
O22 Tm5 2.328297 1_555
O22 Tm6 2.452106 1_556
O23 Te4 1.954097 1_655
O23 Tm11 2.328297 1_555
O23 Tm7 2.452106 1_655
O24 Te5 1.954097 1_555
O24 Tm3 2.328297 1_555
O24 Tm8 2.452106 1_555
O25 Te1 1.954097 1_555
O25 Tm4 2.328297 1_555
O25 Tm2 2.452106 1_545
O26 Te5 1.954097 1_555
O26 Tm6 2.328297 1_555
O26 Tm9 2.452106 1_555
O27 Te1 1.954097 1_565
O27 Tm7 2.328297 1_555
O27 Tm5 2.452106 1_565
O28 Te7 1.954097 1_556
O28 Tm4 2.328297 1_455
O28 Tm10 2.452106 1_555
O29 Te0 1.954097 1_666
O29 Tm3 2.328297 1_555
O29 Tm0 2.452106 1_555
O30 Te7 1.954097 1_655
O30 Tm7 2.328297 1_655
O30 Tm11 2.452106 1_555
O31 Te0 1.954097 1_555
O31 Tm6 2.328297 1_555
O31 Tm1 2.452106 1_555
O32 Te3 1.954098 1_655
O32 Tm4 2.328297 1_555
O32 Tm8 2.452106 1_545
O33 Te2 1.954097 1_555
O33 Tm3 2.328297 1_554
O33 Tm2 2.452106 1_555
O34 Te3 1.954098 1_565
O34 Tm7 2.328297 1_555
O34 Tm9 2.452106 1_565
O35 Te2 1.954097 1_556
O35 Tm6 2.328297 1_556
O35 Tm5 2.452106 1_555
O36 Te6 1.954097 1_566
O36 Tm3 2.328297 1_555
O36 Tm10 2.452106 1_555
O37 Te4 1.954098 1_655
O37 Tm4 2.328297 1_555
O37 Tm0 2.452106 1_555
O38 Te6 1.954097 1_555
O38 Tm6 2.328297 1_555
O38 Tm11 2.452106 1_555
O39 Te4 1.954098 1_555
O39 Tm7 2.328297 1_555
O39 Tm1 2.452106 1_555
O40 Te4 1.954097 1_555
O40 Tm0 2.328297 1_455
O40 Tm10 2.452106 1_555
O41 Te4 1.954097 1_655
O41 Tm1 2.328297 1_655
O41 Tm11 2.452106 1_555
O42 Te0 1.954097 1_666
O42 Tm0 2.328297 1_555
O42 Tm8 2.452106 1_555
O43 Te0 1.954097 1_555
O43 Tm1 2.328297 1_555
O43 Tm9 2.452106 1_555
O44 Te2 1.954097 1_555
O44 Tm2 2.328297 1_555
O44 Tm10 2.452106 1_554
O45 Te2 1.954097 1_556
O45 Tm5 2.328297 1_555
O45 Tm11 2.452106 1_556
O46 Te1 1.954098 1_565
O46 Tm2 2.328297 1_555
O46 Tm8 2.452106 1_555
O47 Te1 1.954098 1_555
O47 Tm5 2.328297 1_555
O47 Tm9 2.452106 1_555
