# generated using pymatgen
data_ZrZn3N4
_symmetry_space_group_name_H-M   'P 1'
_cell_length_a   5.35826500
_cell_length_b   5.84417100
_cell_length_c   6.70740500
_cell_angle_alpha   90.00000000
_cell_angle_beta   90.00000000
_cell_angle_gamma   90.00000000
_symmetry_Int_Tables_number   1
_chemical_formula_structural   ZrZn3N4
_chemical_formula_sum   'Zr2 Zn6 N8'
_cell_volume   210.03981812
_cell_formula_units_Z   2
loop_
 _symmetry_equiv_pos_site_id
 _symmetry_equiv_pos_as_xyz
  1  'x, y, z'
loop_
 _atom_site_type_symbol
 _atom_site_label
 _atom_site_symmetry_multiplicity
 _atom_site_fract_x
 _atom_site_fract_y
 _atom_site_fract_z
 _atom_site_occupancy
  Zr  Zr0  1  0.77404500  0.33295200  0.00000000  1
  Zr  Zr1  1  0.27404500  0.66704800  0.50000000  1
  Zn  Zn0  1  0.27338100  0.16427400  0.25001800  1
  Zn  Zn1  1  0.77338100  0.83572600  0.24998200  1
  Zn  Zn2  1  0.77338100  0.83572600  0.75001800  1
  Zn  Zn3  1  0.27338100  0.16427400  0.74998200  1
  Zn  Zn4  1  0.27354300  0.67591000  0.00000000  1
  Zn  Zn5  1  0.77354300  0.32409000  0.50000000  1
  N  N0  1  0.89517300  0.16157300  0.74577700  1
  N  N1  1  0.39517300  0.83842700  0.75422300  1
  N  N2  1  0.39517300  0.83842700  0.24577700  1
  N  N3  1  0.89517300  0.16157300  0.25422300  1
  N  N4  1  0.89535100  0.67404600  0.00000000  1
  N  N5  1  0.39535100  0.32595400  0.50000000  1
  N  N6  1  0.38069300  0.33797100  0.00000000  1
  N  N7  1  0.88069300  0.66202900  0.50000000  1
loop_
_geom_bond_atom_site_label_1
_geom_bond_atom_site_label_2
_geom_bond_distance
_geom_bond_site_symmetry_2
N0 Zn5 2.011084 1_555
N0 Zn2 2.013223 1_545
N0 Zn3 2.026796 1_655
N0 Zr0 2.081349 1_556
N1 Zn4 2.011084 1_556
N1 Zn3 2.013223 1_565
N1 Zn2 2.026796 1_555
N1 Zr1 2.081349 1_555
N2 Zn4 2.011084 1_555
N2 Zn0 2.013223 1_565
N2 Zn1 2.026796 1_555
N2 Zr1 2.081349 1_555
N3 Zn5 2.011084 1_555
N3 Zn1 2.013223 1_545
N3 Zn0 2.026796 1_655
N3 Zr0 2.081349 1_555
N4 Zn4 2.026482 1_655
N4 Zn1 2.032574 1_555
N4 Zn2 2.032574 1_554
N4 Zr0 2.096706 1_555
N5 Zn5 2.026482 1_555
N5 Zn3 2.032574 1_555
N5 Zn0 2.032574 1_555
N5 Zr1 2.096706 1_555
N6 Zn0 2.042872 1_555
N6 Zn3 2.042872 1_554
N6 Zn4 2.056734 1_555
N6 Zr0 2.107888 1_555
N7 Zn2 2.042872 1_555
N7 Zn1 2.042872 1_555
N7 Zn5 2.056734 1_555
N7 Zr1 2.107888 1_655
