# generated using pymatgen
data_Na4Mo(NO)2
_symmetry_space_group_name_H-M   'P 1'
_cell_length_a   5.91738400
_cell_length_b   5.95144133
_cell_length_c   8.98466992
_cell_angle_alpha   82.81308883
_cell_angle_beta   71.51611535
_cell_angle_gamma   68.88208380
_symmetry_Int_Tables_number   1
_chemical_formula_structural   Na4Mo(NO)2
_chemical_formula_sum   'Na8 Mo2 N4 O4'
_cell_volume   279.91502436
_cell_formula_units_Z   2
loop_
 _symmetry_equiv_pos_site_id
 _symmetry_equiv_pos_as_xyz
  1  'x, y, z'
loop_
 _atom_site_type_symbol
 _atom_site_label
 _atom_site_symmetry_multiplicity
 _atom_site_fract_x
 _atom_site_fract_y
 _atom_site_fract_z
 _atom_site_occupancy
  Na  Na0  1  0.24048400  0.76152700  0.98511300  1
  Na  Na1  1  0.75951600  0.23847300  0.01488700  1
  Na  Na2  1  0.05646800  0.75765800  0.40247100  1
  Na  Na3  1  0.94353200  0.24234200  0.59752900  1
  Na  Na4  1  0.47910500  0.73989300  0.55725900  1
  Na  Na5  1  0.52089500  0.26010700  0.44274100  1
  Na  Na6  1  0.61282800  0.72350500  0.18372200  1
  Na  Na7  1  0.38717200  0.27649500  0.81627800  1
  Mo  Mo0  1  0.84173000  0.71979900  0.76218100  1
  Mo  Mo1  1  0.15827000  0.28020100  0.23781900  1
  N  N0  1  0.29527700  0.03771400  0.36226900  1
  N  N1  1  0.15674400  0.54324600  0.64586100  1
  N  N2  1  0.84325600  0.45675400  0.35413900  1
  N  N3  1  0.70472300  0.96228600  0.63773100  1
  O  O0  1  0.64018300  0.51558600  0.81430100  1
  O  O1  1  0.15026700  0.15633000  0.05475400  1
  O  O2  1  0.35981700  0.48441400  0.18569900  1
  O  O3  1  0.84973300  0.84367000  0.94524600  1
loop_
_geom_bond_atom_site_label_1
_geom_bond_atom_site_label_2
_geom_bond_distance
_geom_bond_site_symmetry_2
Na0 O3 2.319588 1_455
Na0 O1 2.334424 1_566
Na0 O2 2.385488 1_556
Na0 O0 2.420260 1_555
Na1 O1 2.319588 1_655
Na1 O3 2.334424 1_544
Na1 O0 2.385488 1_554
Na1 O2 2.420260 1_555
Na2 O2 2.476328 1_555
Na3 O0 2.476328 1_555
Na4 O0 2.780575 1_555
Na5 O2 2.780575 1_555
Na6 O3 2.345627 1_554
Na6 O2 2.403844 1_555
Na7 O1 2.345627 1_556
Na7 O0 2.403844 1_555
Mo0 N1 1.816359 1_655
Mo0 N3 1.821580 1_555
Mo0 O3 1.904983 1_555
Mo0 O0 1.914861 1_555
Mo1 N2 1.816359 1_455
Mo1 N0 1.821580 1_555
Mo1 O1 1.904983 1_555
Mo1 O2 1.914861 1_555
N0 Na6 2.430731 1_545
N0 Na2 2.475540 1_545
N0 Na5 2.486313 1_555
N0 Na3 2.512205 1_455
N0 Na4 2.536968 1_545
N1 Na7 2.424810 1_555
N1 Na4 2.460643 1_555
N1 Na2 2.518207 1_555
N1 Na5 2.544167 1_555
N1 Na3 2.675331 1_455
N2 Na6 2.424810 1_555
N2 Na5 2.460643 1_555
N2 Na3 2.518207 1_555
N2 Na4 2.544167 1_555
N2 Na2 2.675331 1_655
N3 Na7 2.430731 1_565
N3 Na3 2.475540 1_565
N3 Na4 2.486313 1_555
N3 Na2 2.512205 1_655
N3 Na5 2.536968 1_565
