# generated using pymatgen
data_Cs2ReO4
_symmetry_space_group_name_H-M   'P 1'
_cell_length_a   6.64105400
_cell_length_b   8.66819800
_cell_length_c   11.80796300
_cell_angle_alpha   90.00000000
_cell_angle_beta   90.00000000
_cell_angle_gamma   90.00000000
_symmetry_Int_Tables_number   1
_chemical_formula_structural   Cs2ReO4
_chemical_formula_sum   'Cs8 Re4 O16'
_cell_volume   679.73685564
_cell_formula_units_Z   4
loop_
 _symmetry_equiv_pos_site_id
 _symmetry_equiv_pos_as_xyz
  1  'x, y, z'
loop_
 _atom_site_type_symbol
 _atom_site_label
 _atom_site_symmetry_multiplicity
 _atom_site_fract_x
 _atom_site_fract_y
 _atom_site_fract_z
 _atom_site_occupancy
  Cs  Cs0  1  0.25000000  0.99085500  0.79227800  1
  Cs  Cs1  1  0.75000000  0.50914500  0.29227800  1
  Cs  Cs2  1  0.75000000  0.00914500  0.20772200  1
  Cs  Cs3  1  0.25000000  0.49085500  0.70772200  1
  Cs  Cs4  1  0.25000000  0.67170400  0.08549200  1
  Cs  Cs5  1  0.75000000  0.82829600  0.58549200  1
  Cs  Cs6  1  0.75000000  0.32829600  0.91450800  1
  Cs  Cs7  1  0.25000000  0.17170400  0.41450800  1
  Re  Re0  1  0.25000000  0.22452200  0.07938100  1
  Re  Re1  1  0.75000000  0.27547800  0.57938100  1
  Re  Re2  1  0.75000000  0.77547800  0.92061900  1
  Re  Re3  1  0.25000000  0.72452200  0.42061900  1
  O  O0  1  0.02867100  0.29959100  0.15001800  1
  O  O1  1  0.97132900  0.20040900  0.65001800  1
  O  O2  1  0.52867100  0.70040900  0.84998200  1
  O  O3  1  0.47132900  0.79959100  0.34998200  1
  O  O4  1  0.97132900  0.70040900  0.84998200  1
  O  O5  1  0.02867100  0.79959100  0.34998200  1
  O  O6  1  0.47132900  0.29959100  0.15001800  1
  O  O7  1  0.52867100  0.20040900  0.65001800  1
  O  O8  1  0.25000000  0.01684800  0.08093400  1
  O  O9  1  0.75000000  0.48315200  0.58093400  1
  O  O10  1  0.75000000  0.98315200  0.91906600  1
  O  O11  1  0.25000000  0.51684800  0.41906600  1
  O  O12  1  0.25000000  0.29533700  0.93445800  1
  O  O13  1  0.75000000  0.20466300  0.43445800  1
  O  O14  1  0.75000000  0.70466300  0.06554200  1
  O  O15  1  0.25000000  0.79533700  0.56554200  1
loop_
_geom_bond_atom_site_label_1
_geom_bond_atom_site_label_2
_geom_bond_distance
_geom_bond_site_symmetry_2
Cs0 O1 3.089695 1_465
Cs0 O7 3.089695 1_565
Cs0 O12 3.128021 1_565
Cs0 O15 3.168626 1_555
Cs0 O2 3.198088 1_555
Cs0 O4 3.198088 1_455
Cs0 O8 3.415878 1_566
Cs0 O10 3.643033 1_455
Cs0 O10 3.643033 1_555
Cs1 O6 3.089695 1_555
Cs1 O0 3.089695 1_655
Cs1 O13 3.128021 1_555
Cs1 O14 3.168626 1_555
Cs1 O5 3.198088 1_655
Cs1 O3 3.198088 1_555
Cs1 O9 3.415878 1_555
Cs1 O11 3.643033 1_655
Cs1 O11 3.643033 1_555
Cs2 O5 3.089695 1_645
Cs2 O3 3.089695 1_545
Cs2 O14 3.128021 1_545
Cs2 O13 3.168626 1_555
Cs2 O0 3.198088 1_655
Cs2 O6 3.198088 1_555
Cs2 O10 3.415878 1_544
Cs2 O8 3.643033 1_555
Cs2 O8 3.643033 1_655
Cs3 O2 3.089695 1_555
Cs3 O4 3.089695 1_455
Cs3 O15 3.128021 1_555
Cs3 O12 3.168626 1_555
Cs3 O1 3.198088 1_455
Cs3 O7 3.198088 1_555
Cs3 O11 3.415878 1_555
Cs3 O9 3.643033 1_455
Cs3 O9 3.643033 1_555
Cs4 O8 2.992261 1_565
Cs4 O14 3.341110 1_455
Cs4 O14 3.341110 1_555
Cs4 O2 3.349665 1_554
Cs4 O4 3.349665 1_454
Cs4 O5 3.625334 1_555
Cs4 O3 3.625334 1_555
Cs4 O0 3.625627 1_555
Cs4 O6 3.625627 1_555
Cs4 O12 3.718056 1_554
Cs5 O9 2.992261 1_555
Cs5 O15 3.341110 1_655
Cs5 O15 3.341110 1_555
Cs5 O5 3.349665 1_655
Cs5 O3 3.349665 1_555
Cs5 O4 3.625334 1_555
Cs5 O2 3.625334 1_555
Cs5 O7 3.625627 1_565
Cs5 O1 3.625627 1_565
Cs5 O13 3.718056 1_565
Cs6 O10 2.992261 1_545
Cs6 O12 3.341110 1_555
Cs6 O12 3.341110 1_655
Cs6 O0 3.349665 1_656
Cs6 O6 3.349665 1_556
Cs6 O7 3.625334 1_555
Cs6 O1 3.625334 1_555
Cs6 O4 3.625627 1_555
Cs6 O2 3.625627 1_555
Cs6 O14 3.718056 1_556
Cs7 O11 2.992261 1_555
Cs7 O13 3.341110 1_455
Cs7 O13 3.341110 1_555
Cs7 O1 3.349665 1_455
Cs7 O7 3.349665 1_555
Cs7 O0 3.625334 1_555
Cs7 O6 3.625334 1_555
Cs7 O5 3.625627 1_545
Cs7 O3 3.625627 1_545
Cs7 O15 3.718056 1_545
O0 Re0 1.810966 1_555
O1 Re1 1.810966 1_555
O2 Re2 1.810966 1_555
O3 Re3 1.810966 1_555
O4 Re2 1.810966 1_555
O5 Re3 1.810966 1_555
O6 Re0 1.810966 1_555
O7 Re1 1.810966 1_555
O8 Re0 1.800253 1_555
O9 Re1 1.800253 1_555
O10 Re2 1.800253 1_555
O11 Re3 1.800253 1_555
O12 Re0 1.818009 1_556
O13 Re1 1.818009 1_555
O14 Re2 1.818009 1_554
O15 Re3 1.818009 1_555
