# generated using pymatgen
data_Nd2Ga2Fe15
_symmetry_space_group_name_H-M   'P 1'
_cell_length_a   6.46801533
_cell_length_b   6.46801533
_cell_length_c   6.46801529
_cell_angle_alpha   82.75554972
_cell_angle_beta   82.75554972
_cell_angle_gamma   82.75555047
_symmetry_Int_Tables_number   1
_chemical_formula_structural   Nd2Ga2Fe15
_chemical_formula_sum   'Nd2 Ga2 Fe15'
_cell_volume   264.61306105
_cell_formula_units_Z   1
loop_
 _symmetry_equiv_pos_site_id
 _symmetry_equiv_pos_as_xyz
  1  'x, y, z'
loop_
 _atom_site_type_symbol
 _atom_site_label
 _atom_site_symmetry_multiplicity
 _atom_site_fract_x
 _atom_site_fract_y
 _atom_site_fract_z
 _atom_site_occupancy
  Nd  Nd0  1  0.65158100  0.65158100  0.65158100  1
  Nd  Nd1  1  0.34841900  0.34841900  0.34841900  1
  Ga  Ga0  1  0.89646700  0.89646700  0.89646700  1
  Ga  Ga1  1  0.10353300  0.10353300  0.10353300  1
  Fe  Fe0  1  0.00000000  0.00000000  0.50000000  1
  Fe  Fe1  1  0.00000000  0.50000000  0.00000000  1
  Fe  Fe2  1  0.50000000  0.00000000  0.00000000  1
  Fe  Fe3  1  0.28973700  0.71026300  0.00000000  1
  Fe  Fe4  1  0.71026300  0.00000000  0.28973700  1
  Fe  Fe5  1  0.00000000  0.28973700  0.71026300  1
  Fe  Fe6  1  0.28973700  0.00000000  0.71026300  1
  Fe  Fe7  1  0.00000000  0.71026300  0.28973700  1
  Fe  Fe8  1  0.71026300  0.28973700  0.00000000  1
  Fe  Fe9  1  0.34067900  0.34067900  0.84355700  1
  Fe  Fe10  1  0.34067900  0.84355700  0.34067900  1
  Fe  Fe11  1  0.84355700  0.34067900  0.34067900  1
  Fe  Fe12  1  0.65932100  0.65932100  0.15644300  1
  Fe  Fe13  1  0.65932100  0.15644300  0.65932100  1
  Fe  Fe14  1  0.15644300  0.65932100  0.65932100  1
loop_
_geom_bond_atom_site_label_1
_geom_bond_atom_site_label_2
_geom_bond_distance
_geom_bond_site_symmetry_2
Ga0 Ga1 2.595842 1_666
Ga0 Nd0 3.069965 1_555
Ga1 Nd1 3.069965 1_555
Fe0 Fe5 2.450368 1_555
Fe0 Fe6 2.450368 1_555
Fe0 Fe4 2.450368 1_455
Fe0 Fe7 2.450368 1_545
Fe0 Fe11 2.463585 1_455
Fe0 Fe10 2.463585 1_545
Fe0 Fe14 2.463585 1_545
Fe0 Fe13 2.463585 1_455
Fe0 Ga0 2.592237 1_445
Fe0 Ga1 2.592237 1_555
Fe0 Nd1 3.359294 1_555
Fe0 Nd0 3.359294 1_445
Fe1 Fe3 2.450368 1_555
Fe1 Fe8 2.450368 1_455
Fe1 Fe7 2.450368 1_555
Fe1 Fe5 2.450368 1_554
Fe1 Fe11 2.463585 1_455
Fe1 Fe14 2.463585 1_554
Fe1 Fe9 2.463585 1_554
Fe1 Fe12 2.463585 1_455
Fe1 Ga1 2.592237 1_555
Fe1 Ga0 2.592237 1_454
Fe1 Nd1 3.359294 1_555
Fe1 Nd0 3.359294 1_454
Fe2 Fe8 2.450368 1_555
Fe2 Fe3 2.450368 1_545
Fe2 Fe4 2.450368 1_555
Fe2 Fe6 2.450368 1_554
Fe2 Fe9 2.463585 1_554
Fe2 Ga0 2.592237 1_544
Fe2 Ga1 2.592237 1_555
Fe2 Nd1 3.359294 1_555
Fe2 Nd0 3.359294 1_544
Fe3 Fe7 2.477537 1_555
Fe3 Fe6 2.477537 1_564
Fe3 Fe9 2.678459 1_554
Fe3 Ga0 2.796925 1_454
Fe3 Ga1 2.796925 1_565
Fe3 Nd1 3.059688 1_555
Fe3 Nd0 3.059688 1_554
Fe4 Fe8 2.477537 1_555
Fe4 Fe7 2.477537 1_645
Fe4 Ga0 2.796925 1_544
Fe4 Ga1 2.796925 1_655
Fe4 Nd0 3.059688 1_545
Fe4 Nd1 3.059688 1_555
Fe5 Fe8 2.477537 1_456
Fe5 Fe6 2.477537 1_555
Fe5 Fe9 2.537960 1_555
Fe5 Ga0 2.796925 1_445
Fe5 Ga1 2.796925 1_556
Fe5 Nd1 3.059688 1_555
Fe5 Nd0 3.059688 1_455
Fe6 Fe9 2.537960 1_555
Fe6 Ga0 2.796925 1_445
Fe6 Ga1 2.796925 1_556
Fe6 Nd1 3.059688 1_555
Fe6 Nd0 3.059688 1_545
Fe7 Ga0 2.796925 1_454
Fe7 Ga1 2.796925 1_565
Fe7 Nd0 3.059688 1_455
Fe7 Nd1 3.059688 1_555
Fe8 Fe9 2.678459 1_554
Fe8 Ga0 2.796925 1_544
Fe8 Ga1 2.796925 1_655
Fe8 Nd1 3.059688 1_555
Fe8 Nd0 3.059688 1_554
Fe9 Ga1 2.612545 1_556
Fe9 Nd0 3.064276 1_555
Fe9 Nd1 3.190794 1_555
Fe9 Nd1 3.278918 1_556
Fe10 Fe2 2.463585 1_565
Fe10 Fe14 2.491382 1_555
Fe10 Fe12 2.491382 1_555
Fe10 Fe3 2.537960 1_555
Fe10 Fe7 2.537960 1_555
Fe10 Ga1 2.612546 1_565
Fe10 Fe6 2.678459 1_565
Fe10 Fe4 2.678459 1_565
Fe10 Nd0 3.064276 1_555
Fe10 Nd1 3.190794 1_555
Fe10 Nd1 3.278918 1_565
Fe11 Fe13 2.491382 1_555
Fe11 Fe12 2.491382 1_555
Fe11 Fe8 2.537960 1_555
Fe11 Fe4 2.537960 1_555
Fe11 Ga1 2.612546 1_655
Fe11 Fe5 2.678459 1_655
Fe11 Fe7 2.678459 1_655
Fe11 Nd0 3.064276 1_555
Fe11 Nd1 3.190794 1_555
Fe11 Nd1 3.278918 1_655
Fe12 Fe2 2.463585 1_565
Fe12 Fe4 2.537960 1_565
Fe12 Fe7 2.537960 1_655
Fe12 Ga0 2.612545 1_554
Fe12 Fe8 2.678459 1_555
Fe12 Fe3 2.678459 1_555
Fe12 Nd1 3.064276 1_555
Fe12 Nd0 3.190794 1_555
Fe12 Nd0 3.278918 1_554
Fe13 Fe2 2.463585 1_556
Fe13 Fe9 2.491382 1_555
Fe13 Fe8 2.537960 1_556
Fe13 Fe5 2.537960 1_655
Fe13 Ga0 2.612546 1_545
Fe13 Fe4 2.678459 1_555
Fe13 Fe6 2.678459 1_555
Fe13 Nd1 3.064276 1_555
Fe13 Nd0 3.190794 1_555
Fe13 Nd0 3.278918 1_545
Fe14 Fe9 2.491382 1_555
Fe14 Fe3 2.537960 1_556
Fe14 Fe6 2.537960 1_565
Fe14 Ga0 2.612546 1_455
Fe14 Fe7 2.678459 1_555
Fe14 Fe5 2.678459 1_555
Fe14 Nd1 3.064276 1_555
Fe14 Nd0 3.190794 1_555
Fe14 Nd0 3.278918 1_455
