# generated using pymatgen
data_Th14Au51
_symmetry_space_group_name_H-M   'P 1'
_cell_length_a   9.24253160
_cell_length_b   12.82545525
_cell_length_c   12.82495864
_cell_angle_alpha   119.99974655
_cell_angle_beta   90.00000000
_cell_angle_gamma   90.00000000
_symmetry_Int_Tables_number   1
_chemical_formula_structural   Th14Au51
_chemical_formula_sum   'Th14 Au51'
_cell_volume   1316.59271554
_cell_formula_units_Z   1
loop_
 _symmetry_equiv_pos_site_id
 _symmetry_equiv_pos_as_xyz
  1  'x, y, z'
loop_
 _atom_site_type_symbol
 _atom_site_label
 _atom_site_symmetry_multiplicity
 _atom_site_fract_x
 _atom_site_fract_y
 _atom_site_fract_z
 _atom_site_occupancy
  Th  Th0  1  0.29879812  0.00000632  0.00000981  1
  Th  Th1  1  0.70120188  0.00000632  0.00000981  1
  Th  Th2  1  -0.00000000  0.27174964  0.88811648  1
  Th  Th3  1  -0.00000000  0.11186872  0.38363109  1
  Th  Th4  1  -0.00000000  0.61635992  0.72824653  1
  Th  Th5  1  -0.00000000  0.71470519  0.11348378  1
  Th  Th6  1  -0.00000000  0.88653970  0.60121753  1
  Th  Th7  1  -0.00000000  0.39876864  0.28529522  1
  Th  Th8  1  0.50000000  0.68159498  0.53428385  1
  Th  Th9  1  0.50000000  0.46571207  0.14730019  1
  Th  Th10  1  0.50000000  0.85270667  0.31841368  1
  Th  Th11  1  0.50000000  0.32137120  0.46850041  1
  Th  Th12  1  0.50000000  0.53149002  0.85288137  1
  Th  Th13  1  0.50000000  0.14711364  0.67860845  1
  Au  Au0  1  0.15142070  0.62416802  0.50872018  1
  Au  Au1  1  0.15142011  0.49127385  0.11543904  1
  Au  Au2  1  0.15141960  0.88455879  0.37583210  1
  Au  Au3  1  0.15073179  0.38249624  0.49832714  1
  Au  Au4  1  0.15073155  0.50167274  0.88418304  1
  Au  Au5  1  0.15073017  0.11582780  0.61749121  1
  Au  Au6  1  0.84926821  0.38249624  0.49832714  1
  Au  Au7  1  0.84926845  0.50167274  0.88418304  1
  Au  Au8  1  0.84926983  0.11582780  0.61749121  1
  Au  Au9  1  0.84857930  0.62416802  0.50872018  1
  Au  Au10  1  0.84857989  0.49127385  0.11543904  1
  Au  Au11  1  0.84858040  0.88455879  0.37583210  1
  Au  Au12  1  0.33906895  0.34066349  0.90027804  1
  Au  Au13  1  0.33906895  0.09970983  0.44038599  1
  Au  Au14  1  0.33907493  0.55960247  0.65932252  1
  Au  Au15  1  0.33805561  0.65429541  0.09928616  1
  Au  Au16  1  0.33805683  0.90072840  0.55500635  1
  Au  Au17  1  0.33805878  0.44499046  0.34571372  1
  Au  Au18  1  0.66194439  0.65429541  0.09928616  1
  Au  Au19  1  0.66194317  0.90072840  0.55500635  1
  Au  Au20  1  0.66194122  0.44499046  0.34571372  1
  Au  Au21  1  0.66093105  0.34066349  0.90027804  1
  Au  Au22  1  0.66093105  0.09970983  0.44038599  1
  Au  Au23  1  0.66092507  0.55960247  0.65932252  1
  Au  Au24  1  -0.00000000  0.66666783  0.33332942  1
  Au  Au25  1  -0.00000000  0.33332478  0.66666599  1
  Au  Au26  1  0.30403808  0.66667363  0.33332736  1
  Au  Au27  1  0.30409629  0.33332264  0.66666641  1
  Au  Au28  1  0.69590371  0.33332264  0.66666641  1
  Au  Au29  1  0.69596192  0.66667363  0.33332736  1
  Au  Au30  1  0.22859800  0.80880994  0.73388304  1
  Au  Au31  1  0.22860144  0.26611712  0.07491436  1
  Au  Au32  1  0.22860008  0.92508335  0.19120586  1
  Au  Au33  1  0.23219106  0.19389210  0.27273191  1
  Au  Au34  1  0.23219454  0.72727609  0.92117780  1
  Au  Au35  1  0.23219268  0.07883457  0.80610134  1
  Au  Au36  1  0.76780894  0.19389210  0.27273191  1
  Au  Au37  1  0.76780546  0.72727609  0.92117780  1
  Au  Au38  1  0.76780732  0.07883457  0.80610134  1
  Au  Au39  1  0.77140200  0.80880994  0.73388304  1
  Au  Au40  1  0.77139856  0.26611712  0.07491436  1
  Au  Au41  1  0.77139992  0.92508335  0.19120586  1
  Au  Au42  1  0.50000000  0.17681943  0.94360499  1
  Au  Au43  1  0.50000000  0.05639260  0.23321102  1
  Au  Au44  1  0.50000000  0.76679315  0.82318584  1
  Au  Au45  1  0.50000000  0.81811637  0.05798009  1
  Au  Au46  1  0.50000000  0.94203433  0.76014509  1
  Au  Au47  1  0.50000000  0.23985660  0.18188973  1
  Au  Au48  1  -0.00000000  0.97317374  0.86411879  1
  Au  Au49  1  -0.00000000  0.13587423  0.10904832  1
  Au  Au50  1  -0.00000000  0.89095898  0.02684038  1
loop_
_geom_bond_atom_site_label_1
_geom_bond_atom_site_label_2
_geom_bond_distance
_geom_bond_site_symmetry_2
Au0 Au30 2.759939 1_555
Au0 Au17 2.796944 1_555
Au0 Au9 2.799021 1_455
Au0 Au24 2.922590 1_555
Au0 Au26 2.927967 1_555
Au0 Au14 3.003971 1_555
Au0 Au3 3.035109 1_555
Au0 Th4 3.190167 1_555
Au0 Th7 3.200442 1_555
Au0 Th6 3.270706 1_555
Au0 Th8 3.284539 1_555
Au1 Au31 2.759926 1_555
Au1 Au15 2.796993 1_555
Au1 Au10 2.799010 1_455
Au1 Au24 2.922621 1_555
Au1 Au26 2.927945 1_555
Au1 Au12 3.003911 1_554
Au1 Au4 3.034739 1_554
Au1 Th2 3.190136 1_554
Au1 Th5 3.200440 1_555
Au1 Th7 3.270491 1_555
Au1 Th9 3.284532 1_555
Au2 Au32 2.759754 1_555
Au2 Au24 2.922663 1_555
Au2 Au26 2.927913 1_555
Au2 Au5 3.034909 1_565
Au2 Th3 3.190030 1_565
Au2 Th6 3.200178 1_555
Au2 Th5 3.270359 1_555
Au2 Th10 3.284525 1_555
Au3 Au6 2.786287 1_455
Au3 Au33 2.791138 1_555
Au3 Th7 3.165297 1_555
Au3 Th4 3.284488 1_555
Au3 Th11 3.298758 1_555
Au3 Th3 3.323599 1_555
Au4 Au7 2.786282 1_455
Au4 Th5 3.165325 1_556
Au4 Th2 3.284505 1_555
Au4 Th12 3.298744 1_555
Au4 Th4 3.323489 1_555
Au5 Au8 2.786257 1_455
Au5 Th6 3.165197 1_545
Au5 Th3 3.284292 1_555
Au5 Th13 3.298750 1_555
Au5 Th2 3.323459 1_555
Au6 Au9 3.035109 1_555
Au6 Th7 3.165297 1_655
Au6 Th4 3.284488 1_655
Au6 Th11 3.298758 1_555
Au6 Th3 3.323599 1_655
Au7 Th5 3.165325 1_656
Au7 Th2 3.284505 1_655
Au7 Th12 3.298744 1_555
Au7 Th4 3.323489 1_655
Au8 Th6 3.165197 1_645
Au8 Th3 3.284292 1_655
Au8 Th13 3.298750 1_555
Au8 Th2 3.323459 1_655
Au9 Th4 3.190167 1_655
Au9 Th7 3.200442 1_655
Au9 Th6 3.270706 1_655
Au9 Th8 3.284539 1_555
Au10 Au40 2.759926 1_555
Au10 Au18 2.796993 1_555
Au10 Au24 2.922621 1_655
Au10 Au29 2.927945 1_555
Au10 Au21 3.003911 1_554
Au10 Au7 3.034739 1_554
Au10 Th2 3.190136 1_654
Au10 Th5 3.200440 1_655
Au10 Th7 3.270491 1_655
Au10 Th9 3.284532 1_555
Au11 Au41 2.759754 1_555
Au11 Au19 2.796864 1_555
Au11 Au2 2.799001 1_655
Au11 Au24 2.922663 1_655
Au11 Au29 2.927913 1_555
Au11 Au22 3.003873 1_565
Au11 Au8 3.034909 1_565
Au11 Th3 3.190030 1_665
Au11 Th6 3.200178 1_655
Au11 Th5 3.270359 1_655
Au11 Th10 3.284525 1_555
Au12 Au4 2.786260 1_555
Au12 Au42 2.846855 1_555
Au12 Au27 2.967767 1_555
Au12 Au21 2.974821 1_555
Au12 Au31 3.018968 1_556
Au12 Th13 3.065869 1_555
Au12 Au35 3.107306 1_555
Au12 Th9 3.120933 1_556
Au12 Th12 3.171675 1_555
Au12 Th2 3.238629 1_555
Au13 Au5 2.786115 1_555
Au13 Au43 2.846861 1_555
Au13 Au27 2.967907 1_555
Au13 Au22 2.974821 1_555
Au13 Au2 3.003873 1_545
Au13 Au32 3.018927 1_545
Au13 Th11 3.065856 1_555
Au13 Au33 3.107295 1_555
Au13 Th10 3.120840 1_545
Au13 Th13 3.171555 1_555
Au13 Th3 3.238624 1_555
Au14 Au3 2.786229 1_555
Au14 Au44 2.847035 1_555
Au14 Au27 2.968022 1_555
Au14 Au23 2.974710 1_555
Au14 Au30 3.019337 1_555
Au14 Th12 3.065858 1_555
Au14 Au34 3.107509 1_555
Au14 Th8 3.121029 1_555
Au14 Th11 3.171689 1_555
Au14 Th4 3.238704 1_555
Au15 Au45 2.836994 1_555
Au15 Au26 2.942271 1_555
Au15 Au4 3.006592 1_554
Au15 Au34 3.031369 1_554
Au15 Th10 3.076093 1_555
Au15 Th12 3.119331 1_554
Au15 Th9 3.155760 1_555
Au15 Th5 3.202312 1_555
Au15 Au32 3.221892 1_555
Au16 Au2 2.796864 1_555
Au16 Au46 2.837044 1_555
Au16 Au26 2.942535 1_555
Au16 Au5 3.006622 1_565
Au16 Au35 3.031431 1_565
Au16 Th8 3.076174 1_555
Au16 Th13 3.119228 1_565
Au16 Th10 3.155591 1_555
Au16 Th6 3.202298 1_555
Au16 Au30 3.221892 1_555
Au17 Au47 2.837036 1_555
Au17 Au26 2.942698 1_555
Au17 Au3 3.006614 1_555
Au17 Au33 3.031589 1_555
Au17 Th9 3.076097 1_555
Au17 Th11 3.119366 1_555
Au17 Th8 3.155749 1_555
Au17 Th7 3.202361 1_555
Au17 Au31 3.221914 1_555
Au18 Au45 2.836994 1_555
Au18 Au29 2.942271 1_555
Au18 Au7 3.006592 1_554
Au18 Au37 3.031369 1_554
Au18 Th10 3.076093 1_555
Au18 Th12 3.119331 1_554
Au18 Th9 3.155760 1_555
Au18 Th5 3.202312 1_655
Au18 Au41 3.221892 1_555
Au19 Au46 2.837044 1_555
Au19 Au29 2.942535 1_555
Au19 Au8 3.006622 1_565
Au19 Au38 3.031431 1_565
Au19 Th8 3.076174 1_555
Au19 Th13 3.119228 1_565
Au19 Th10 3.155591 1_555
Au19 Th6 3.202298 1_655
Au19 Au39 3.221892 1_555
Au20 Au9 2.796944 1_555
Au20 Au47 2.837036 1_555
Au20 Au29 2.942698 1_555
Au20 Au6 3.006614 1_555
Au20 Au36 3.031589 1_555
Au20 Th9 3.076097 1_555
Au20 Th11 3.119366 1_555
Au20 Th8 3.155749 1_555
Au20 Th7 3.202361 1_655
Au20 Au40 3.221914 1_555
Au21 Au7 2.786260 1_555
Au21 Au42 2.846855 1_555
Au21 Au28 2.967767 1_555
Au21 Au40 3.018968 1_556
Au21 Th13 3.065869 1_555
Au21 Au38 3.107306 1_555
Au21 Th9 3.120933 1_556
Au21 Th12 3.171675 1_555
Au21 Th2 3.238629 1_655
Au22 Au8 2.786115 1_555
Au22 Au43 2.846861 1_555
Au22 Au28 2.967907 1_555
Au22 Au41 3.018927 1_545
Au22 Th11 3.065856 1_555
Au22 Au36 3.107295 1_555
Au22 Th10 3.120840 1_545
Au22 Th13 3.171555 1_555
Au22 Th3 3.238624 1_655
Au23 Au6 2.786229 1_555
Au23 Au44 2.847035 1_555
Au23 Au28 2.968022 1_555
Au23 Au9 3.003971 1_555
Au23 Au39 3.019337 1_555
Au23 Th12 3.065858 1_555
Au23 Au37 3.107509 1_555
Au23 Th8 3.121029 1_555
Au23 Th11 3.171689 1_555
Au23 Th4 3.238704 1_655
Au24 Au26 2.810082 1_555
Au24 Au29 2.810082 1_455
Au24 Au9 2.922590 1_455
Au24 Th5 3.172746 1_555
Au24 Th6 3.172941 1_555
Au24 Th7 3.173085 1_555
Au25 Au28 2.810620 1_455
Au25 Au27 2.810620 1_555
Au25 Au5 2.891473 1_555
Au25 Au8 2.891473 1_455
Au25 Au3 2.891556 1_555
Au25 Au6 2.891556 1_455
Au25 Au7 2.891654 1_455
Au25 Au4 2.891654 1_555
Au25 Th2 3.306462 1_555
Au25 Th3 3.306592 1_555
Au25 Th4 3.306683 1_555
Au26 Th8 3.076696 1_555
Au26 Th10 3.076706 1_555
Au26 Th9 3.076744 1_555
Au27 Au5 2.903265 1_555
Au27 Au3 2.903379 1_555
Au27 Au4 2.903462 1_555
Au27 Th13 3.061247 1_555
Au27 Th11 3.061282 1_555
Au27 Th12 3.061344 1_555
Au28 Au8 2.903265 1_555
Au28 Au6 2.903379 1_555
Au28 Au7 2.903462 1_555
Au28 Th13 3.061247 1_555
Au28 Th11 3.061282 1_555
Au28 Th12 3.061344 1_555
Au29 Au9 2.927967 1_555
Au29 Th8 3.076696 1_555
Au29 Th10 3.076706 1_555
Au29 Th9 3.076744 1_555
Au30 Au48 2.859491 1_555
Au30 Au44 2.917461 1_555
Au30 Au46 2.957999 1_555
Au30 Au34 3.062069 1_555
Au30 Au35 3.105648 1_565
Au30 Th0 3.116695 1_566
Au30 Th6 3.170002 1_555
Au30 Th4 3.222287 1_555
Au30 Th8 3.366097 1_555
Au31 Au49 2.859610 1_555
Au31 Au42 2.917377 1_554
Au31 Au47 2.958021 1_555
Au31 Au35 3.061892 1_554
Au31 Au33 3.105737 1_555
Au31 Th0 3.116671 1_555
Au31 Th7 3.169888 1_555
Au31 Th2 3.222065 1_554
Au31 Th9 3.366090 1_555
Au32 Au50 2.859487 1_555
Au32 Au43 2.917422 1_565
Au32 Au45 2.957977 1_555
Au32 Au33 3.061953 1_565
Au32 Au34 3.105585 1_554
Au32 Th0 3.116611 1_565
Au32 Th5 3.169929 1_555
Au32 Th3 3.222012 1_565
Au32 Th10 3.365981 1_555
Au33 Au49 2.829116 1_555
Au33 Au47 2.918638 1_555
Au33 Au43 2.932535 1_555
Au33 Th3 3.038291 1_555
Au33 Th0 3.177835 1_555
Au33 Th11 3.316431 1_555
Au33 Th7 3.333544 1_555
Au34 Au4 2.791296 1_555
Au34 Au50 2.829178 1_556
Au34 Au45 2.918585 1_556
Au34 Au44 2.932547 1_555
Au34 Th4 3.038378 1_555
Au34 Th0 3.178039 1_566
Au34 Th12 3.316589 1_555
Au34 Th5 3.333458 1_556
Au35 Au5 2.791203 1_555
Au35 Au48 2.829118 1_545
Au35 Au46 2.918622 1_545
Au35 Au42 2.932526 1_555
Au35 Th2 3.038290 1_555
Au35 Th0 3.178025 1_556
Au35 Th13 3.316466 1_555
Au35 Th6 3.333473 1_545
Au36 Au6 2.791138 1_555
Au36 Au49 2.829116 1_655
Au36 Au47 2.918638 1_555
Au36 Au43 2.932535 1_555
Au36 Th3 3.038291 1_655
Au36 Au41 3.061953 1_545
Au36 Au40 3.105737 1_555
Au36 Th1 3.177835 1_555
Au36 Th11 3.316431 1_555
Au36 Th7 3.333544 1_655
Au37 Au7 2.791296 1_555
Au37 Au50 2.829178 1_656
Au37 Au45 2.918585 1_556
Au37 Au44 2.932547 1_555
Au37 Th4 3.038378 1_655
Au37 Au39 3.062069 1_555
Au37 Au41 3.105585 1_556
Au37 Th1 3.178039 1_566
Au37 Th12 3.316589 1_555
Au37 Th5 3.333458 1_656
Au38 Au8 2.791203 1_555
Au38 Au48 2.829118 1_645
Au38 Au46 2.918622 1_545
Au38 Au42 2.932526 1_555
Au38 Th2 3.038290 1_655
Au38 Au40 3.061892 1_556
Au38 Au39 3.105648 1_545
Au38 Th1 3.178025 1_556
Au38 Th13 3.316466 1_555
Au38 Th6 3.333473 1_645
Au39 Au9 2.759939 1_555
Au39 Au48 2.859491 1_655
Au39 Au44 2.917461 1_555
Au39 Au46 2.957999 1_555
Au39 Th1 3.116695 1_566
Au39 Th6 3.170002 1_655
Au39 Th4 3.222287 1_655
Au39 Th8 3.366097 1_555
Au40 Au49 2.859610 1_655
Au40 Au42 2.917377 1_554
Au40 Au47 2.958021 1_555
Au40 Th1 3.116671 1_555
Au40 Th7 3.169888 1_655
Au40 Th2 3.222065 1_654
Au40 Th9 3.366090 1_555
Au41 Au50 2.859487 1_655
Au41 Au43 2.917422 1_565
Au41 Au45 2.957977 1_555
Au41 Th1 3.116611 1_565
Au41 Th5 3.169929 1_655
Au41 Th3 3.222012 1_665
Au41 Th10 3.365981 1_555
Au42 Au46 2.741989 1_545
Au42 Au47 2.742633 1_556
Au42 Th13 3.224999 1_555
Au42 Th0 3.280912 1_556
Au42 Th1 3.280912 1_556
Au42 Th9 3.297518 1_556
Au43 Au47 2.742006 1_555
Au43 Au45 2.742598 1_545
Au43 Th11 3.224951 1_555
Au43 Th0 3.280724 1_555
Au43 Th1 3.280724 1_555
Au43 Th10 3.297431 1_545
Au44 Au45 2.742018 1_556
Au44 Au46 2.742673 1_555
Au44 Th12 3.225199 1_555
Au44 Th0 3.280916 1_566
Au44 Th1 3.280916 1_566
Au44 Th8 3.297510 1_555
Au45 Th10 3.141813 1_555
Au45 Th12 3.280733 1_554
Au45 Th0 3.344746 1_565
Au45 Th1 3.344746 1_565
Au46 Th8 3.142042 1_555
Au46 Th13 3.280558 1_565
Au46 Th0 3.344712 1_566
Au46 Th1 3.344712 1_566
Au47 Th9 3.142077 1_555
Au47 Th11 3.280462 1_555
Au47 Th1 3.344648 1_555
Au47 Th0 3.344648 1_555
Au48 Th6 2.976004 1_555
Au48 Th1 3.191039 1_466
Au48 Th0 3.191039 1_566
Au49 Th7 2.975999 1_555
Au49 Th1 3.190926 1_455
Au49 Th0 3.190926 1_555
Au50 Th5 2.976015 1_555
Au50 Th1 3.190988 1_465
Au50 Th0 3.190988 1_565
