# generated using pymatgen
data_Nb8Co2Sb4Pd
_symmetry_space_group_name_H-M   'P 1'
_cell_length_a   4.94191100
_cell_length_b   7.87519621
_cell_length_c   7.87519621
_cell_angle_alpha   95.64981112
_cell_angle_beta   108.28623623
_cell_angle_gamma   71.71376377
_symmetry_Int_Tables_number   1
_chemical_formula_structural   Nb8Co2Sb4Pd
_chemical_formula_sum   'Nb8 Co2 Sb4 Pd1'
_cell_volume   276.31752327
_cell_formula_units_Z   1
loop_
 _symmetry_equiv_pos_site_id
 _symmetry_equiv_pos_as_xyz
  1  'x, y, z'
loop_
 _atom_site_type_symbol
 _atom_site_label
 _atom_site_symmetry_multiplicity
 _atom_site_fract_x
 _atom_site_fract_y
 _atom_site_fract_z
 _atom_site_occupancy
  Nb  Nb0  1  0.41477600  0.87588600  0.71729000  1
  Nb  Nb1  1  0.57337200  0.12411400  0.28271000  1
  Nb  Nb2  1  0.92662800  0.28271000  0.12411400  1
  Nb  Nb3  1  0.08522400  0.71729000  0.87588600  1
  Nb  Nb4  1  0.70933800  0.71729000  0.12411400  1
  Nb  Nb5  1  0.30251400  0.28271000  0.87588600  1
  Nb  Nb6  1  0.79066200  0.12411400  0.71729000  1
  Nb  Nb7  1  0.19748600  0.87588600  0.28271000  1
  Co  Co0  1  0.25000000  0.00000000  0.00000000  1
  Co  Co1  1  0.75000000  0.00000000  0.00000000  1
  Sb  Sb0  1  0.37396300  0.50000000  0.19611100  1
  Sb  Sb1  1  0.67785100  0.50000000  0.80388900  1
  Sb  Sb2  1  0.82214900  0.80388900  0.50000000  1
  Sb  Sb3  1  0.12603700  0.19611100  0.50000000  1
  Pd  Pd0  1  0.25000000  0.50000000  0.50000000  1
loop_
_geom_bond_atom_site_label_1
_geom_bond_atom_site_label_2
_geom_bond_distance
_geom_bond_site_symmetry_2
Nb0 Sb1 2.888605 1_555
Nb0 Sb3 2.895382 1_565
Nb0 Sb2 2.925263 1_555
Nb0 Sb2 3.087573 1_455
Nb1 Sb0 2.888605 1_555
Nb1 Sb2 2.895382 1_545
Nb1 Sb3 2.925258 1_655
Nb1 Sb3 3.087577 1_555
Nb2 Sb3 2.888605 1_655
Nb2 Sb1 2.895382 1_554
Nb2 Sb0 2.925258 1_555
Nb2 Sb0 3.087577 1_655
Nb3 Sb2 2.888605 1_455
Nb3 Sb0 2.895382 1_556
Nb3 Sb1 2.925263 1_455
Nb3 Sb1 3.087573 1_555
Nb4 Sb2 2.888605 1_555
Nb4 Sb1 2.895382 1_554
Nb4 Sb0 2.925259 1_555
Nb4 Sb0 3.087577 1_655
Nb5 Sb3 2.888605 1_555
Nb5 Sb0 2.895382 1_556
Nb5 Sb1 2.925262 1_455
Nb5 Sb1 3.087573 1_555
Nb6 Sb1 2.888605 1_555
Nb6 Sb2 2.895382 1_545
Nb6 Sb3 2.925259 1_655
Nb6 Sb3 3.087577 1_555
Nb7 Sb0 2.888605 1_555
Nb7 Sb3 2.895382 1_565
Nb7 Sb2 2.925262 1_555
Nb7 Sb2 3.087573 1_455
Co0 Co1 2.470956 1_555
Co0 Co1 2.470956 1_455
Co0 Nb2 2.604813 1_455
Co0 Nb1 2.604813 1_555
Co0 Nb3 2.604813 1_544
Co0 Nb0 2.604813 1_544
Co0 Nb4 2.632447 1_545
Co0 Nb6 2.632447 1_454
Co0 Nb5 2.632447 1_554
Co0 Nb7 2.632447 1_545
Co1 Nb5 2.604813 1_554
Co1 Nb7 2.604813 1_645
Co1 Nb4 2.604813 1_545
Co1 Nb6 2.604813 1_554
Co1 Nb3 2.632447 1_644
Co1 Nb0 2.632447 1_544
Co1 Nb1 2.632447 1_555
Co1 Nb2 2.632447 1_555
Pd0 Sb2 2.650026 1_455
Pd0 Sb1 2.650026 1_555
Pd0 Sb3 2.650029 1_555
Pd0 Sb0 2.650029 1_555
