# generated using pymatgen
data_TaFe(PbO3)2
_symmetry_space_group_name_H-M   'P 1'
_cell_length_a   5.62801702
_cell_length_b   5.62801702
_cell_length_c   5.62801702
_cell_angle_alpha   60.00000000
_cell_angle_beta   60.00000000
_cell_angle_gamma   60.00000000
_symmetry_Int_Tables_number   1
_chemical_formula_structural   TaFe(PbO3)2
_chemical_formula_sum   'Ta1 Fe1 Pb2 O6'
_cell_volume   126.05242607
_cell_formula_units_Z   1
loop_
 _symmetry_equiv_pos_site_id
 _symmetry_equiv_pos_as_xyz
  1  'x, y, z'
loop_
 _atom_site_type_symbol
 _atom_site_label
 _atom_site_symmetry_multiplicity
 _atom_site_fract_x
 _atom_site_fract_y
 _atom_site_fract_z
 _atom_site_occupancy
  Ta  Ta0  1  0.00000000  0.00000000  0.00000000  1
  Fe  Fe0  1  0.50000000  0.50000000  0.50000000  1
  Pb  Pb0  1  0.75000000  0.75000000  0.75000000  1
  Pb  Pb1  1  0.25000000  0.25000000  0.25000000  1
  O  O0  1  0.25313000  0.74687000  0.74687000  1
  O  O1  1  0.74687000  0.25313000  0.25313000  1
  O  O2  1  0.74687000  0.25313000  0.74687000  1
  O  O3  1  0.25313000  0.74687000  0.25313000  1
  O  O4  1  0.74687000  0.74687000  0.25313000  1
  O  O5  1  0.25313000  0.25313000  0.74687000  1
loop_
_geom_bond_atom_site_label_1
_geom_bond_atom_site_label_2
_geom_bond_distance
_geom_bond_site_symmetry_2
Fe0 O1 1.964892 1_555
Fe0 O5 1.964892 1_555
Fe0 O3 1.964892 1_555
Fe0 O0 1.964892 1_555
Fe0 O2 1.964892 1_555
Fe0 O4 1.964892 1_555
O0 Ta0 2.014717 1_566
O0 Pb0 2.814119 1_555
O0 Pb1 2.814119 1_556
O0 Pb1 2.814119 1_565
O0 Pb0 2.814119 1_455
O1 Ta0 2.014717 1_655
O1 Pb1 2.814119 1_655
O1 Pb0 2.814119 1_554
O1 Pb0 2.814119 1_545
O1 Pb1 2.814119 1_555
O2 Ta0 2.014717 1_656
O2 Pb1 2.814119 1_655
O2 Pb0 2.814119 1_555
O2 Pb1 2.814119 1_556
O2 Pb0 2.814119 1_545
O3 Ta0 2.014717 1_565
O3 Pb1 2.814119 1_565
O3 Pb0 2.814119 1_554
O3 Pb1 2.814119 1_555
O3 Pb0 2.814119 1_455
O4 Ta0 2.014717 1_665
O4 Pb0 2.814119 1_555
O4 Pb1 2.814119 1_565
O4 Pb1 2.814119 1_655
O4 Pb0 2.814119 1_554
O5 Ta0 2.014717 1_556
O5 Pb1 2.814119 1_556
O5 Pb0 2.814119 1_545
O5 Pb0 2.814119 1_455
O5 Pb1 2.814119 1_555
