# generated using pymatgen
data_Ho2Ni22C3
_symmetry_space_group_name_H-M   'P 1'
_cell_length_a   9.35548341
_cell_length_b   9.35548341
_cell_length_c   14.50080828
_cell_angle_alpha   90.00000000
_cell_angle_beta   90.00000000
_cell_angle_gamma   105.63332353
_symmetry_Int_Tables_number   1
_chemical_formula_structural   Ho2Ni22C3
_chemical_formula_sum   'Ho8 Ni88 C12'
_cell_volume   1222.23205305
_cell_formula_units_Z   4
loop_
 _symmetry_equiv_pos_site_id
 _symmetry_equiv_pos_as_xyz
  1  'x, y, z'
loop_
 _atom_site_type_symbol
 _atom_site_label
 _atom_site_symmetry_multiplicity
 _atom_site_fract_x
 _atom_site_fract_y
 _atom_site_fract_z
 _atom_site_occupancy
  Ho  Ho0  1  0.81507536  0.68492464  0.25000000  1
  Ho  Ho1  1  0.68492464  0.81507536  0.75000000  1
  Ho  Ho2  1  0.18492464  0.31507536  0.75000000  1
  Ho  Ho3  1  0.31507536  0.18492464  0.25000000  1
  Ho  Ho4  1  0.70682286  0.29317714  0.52840340  1
  Ho  Ho5  1  0.29317714  0.70682286  0.47159660  1
  Ho  Ho6  1  0.79317714  0.20682286  0.02840340  1
  Ho  Ho7  1  0.20682286  0.79317714  0.97159660  1
  Ni  Ni0  1  0.92860046  0.43000025  0.18146854  1
  Ni  Ni1  1  0.43000025  0.92860046  0.81853146  1
  Ni  Ni2  1  0.93000025  0.42860046  0.68146854  1
  Ni  Ni3  1  0.42860046  0.93000025  0.31853146  1
  Ni  Ni4  1  0.07139954  0.56999975  0.81853146  1
  Ni  Ni5  1  0.56999975  0.07139954  0.18146854  1
  Ni  Ni6  1  0.06999975  0.57139954  0.31853146  1
  Ni  Ni7  1  0.57139954  0.06999975  0.68146854  1
  Ni  Ni8  1  0.56103343  0.43896657  0.34211077  1
  Ni  Ni9  1  0.43896657  0.56103343  0.65788923  1
  Ni  Ni10  1  0.93896657  0.06103343  0.84211077  1
  Ni  Ni11  1  0.06103343  0.93896657  0.15788923  1
  Ni  Ni12  1  0.00869881  0.76885783  0.42142476  1
  Ni  Ni13  1  0.76885783  0.00869881  0.57857524  1
  Ni  Ni14  1  0.26885783  0.50869881  0.92142476  1
  Ni  Ni15  1  0.50869881  0.26885783  0.07857524  1
  Ni  Ni16  1  0.99130119  0.23114217  0.57857524  1
  Ni  Ni17  1  0.23114217  0.99130119  0.42142476  1
  Ni  Ni18  1  0.73114217  0.49130119  0.07857524  1
  Ni  Ni19  1  0.49130119  0.73114217  0.92142476  1
  Ni  Ni20  1  0.75246546  0.59754544  0.45033294  1
  Ni  Ni21  1  0.59754544  0.75246546  0.54966706  1
  Ni  Ni22  1  0.09754544  0.25246546  0.95033294  1
  Ni  Ni23  1  0.25246546  0.09754544  0.04966706  1
  Ni  Ni24  1  0.24753454  0.40245456  0.54966706  1
  Ni  Ni25  1  0.40245456  0.24753454  0.45033294  1
  Ni  Ni26  1  0.90245456  0.74753454  0.04966706  1
  Ni  Ni27  1  0.74753454  0.90245456  0.95033294  1
  Ni  Ni28  1  0.14065907  0.21174523  0.42679819  1
  Ni  Ni29  1  0.21174523  0.14065907  0.57320181  1
  Ni  Ni30  1  0.71174523  0.64065907  0.92679819  1
  Ni  Ni31  1  0.64065907  0.71174523  0.07320181  1
  Ni  Ni32  1  0.85934093  0.78825477  0.57320181  1
  Ni  Ni33  1  0.78825477  0.85934093  0.42679819  1
  Ni  Ni34  1  0.28825477  0.35934093  0.07320181  1
  Ni  Ni35  1  0.35934093  0.28825477  0.92679819  1
  Ni  Ni36  1  0.82056325  0.39582784  0.34374873  1
  Ni  Ni37  1  0.39582784  0.82056325  0.65625127  1
  Ni  Ni38  1  0.89582784  0.32056325  0.84374873  1
  Ni  Ni39  1  0.32056325  0.89582784  0.15625127  1
  Ni  Ni40  1  0.17943675  0.60417216  0.65625127  1
  Ni  Ni41  1  0.60417216  0.17943675  0.34374873  1
  Ni  Ni42  1  0.10417216  0.67943675  0.15625127  1
  Ni  Ni43  1  0.67943675  0.10417216  0.84374873  1
  Ni  Ni44  1  0.94919721  0.79712148  0.86950440  1
  Ni  Ni45  1  0.79712148  0.94919721  0.13049560  1
  Ni  Ni46  1  0.29712148  0.44919721  0.36950440  1
  Ni  Ni47  1  0.44919721  0.29712148  0.63049560  1
  Ni  Ni48  1  0.05080279  0.20287852  0.13049560  1
  Ni  Ni49  1  0.20287852  0.05080279  0.86950440  1
  Ni  Ni50  1  0.70287852  0.55080279  0.63049560  1
  Ni  Ni51  1  0.55080279  0.70287852  0.36950440  1
  Ni  Ni52  1  0.04639804  0.29299005  0.29847658  1
  Ni  Ni53  1  0.29299005  0.04639804  0.70152342  1
  Ni  Ni54  1  0.79299005  0.54639804  0.79847658  1
  Ni  Ni55  1  0.54639804  0.79299005  0.20152342  1
  Ni  Ni56  1  0.95360196  0.70700995  0.70152342  1
  Ni  Ni57  1  0.70700995  0.95360196  0.29847658  1
  Ni  Ni58  1  0.20700995  0.45360196  0.20152342  1
  Ni  Ni59  1  0.45360196  0.20700995  0.79847658  1
  Ni  Ni60  1  0.81915981  0.18084019  0.23270694  1
  Ni  Ni61  1  0.18084019  0.81915981  0.76729306  1
  Ni  Ni62  1  0.68084019  0.31915981  0.73270694  1
  Ni  Ni63  1  0.31915981  0.68084019  0.26729306  1
  Ni  Ni64  1  0.85538359  0.14461641  0.41381876  1
  Ni  Ni65  1  0.14461641  0.85538359  0.58618124  1
  Ni  Ni66  1  0.64461641  0.35538359  0.91381876  1
  Ni  Ni67  1  0.35538359  0.64461641  0.08618124  1
  Ni  Ni68  1  0.99792803  0.00207197  0.32515524  1
  Ni  Ni69  1  0.00207197  0.99792803  0.67484476  1
  Ni  Ni70  1  0.50207197  0.49792803  0.82515524  1
  Ni  Ni71  1  0.49792803  0.50207197  0.17484476  1
  Ni  Ni72  1  0.65839801  0.34160199  0.21172258  1
  Ni  Ni73  1  0.34160199  0.65839801  0.78827742  1
  Ni  Ni74  1  0.84160199  0.15839801  0.71172258  1
  Ni  Ni75  1  0.15839801  0.84160199  0.28827742  1
  Ni  Ni76  1  -0.00000000  0.00000000  0.50000000  1
  Ni  Ni77  1  0.50000000  0.50000000  0.00000000  1
  Ni  Ni78  1  0.09273681  0.47167816  0.04816046  1
  Ni  Ni79  1  0.47167816  0.09273681  0.95183954  1
  Ni  Ni80  1  0.97167816  0.59273681  0.54816046  1
  Ni  Ni81  1  0.59273681  0.97167816  0.45183954  1
  Ni  Ni82  1  0.90726319  0.52832184  0.95183954  1
  Ni  Ni83  1  0.52832184  0.90726319  0.04816046  1
  Ni  Ni84  1  0.02832184  0.40726319  0.45183954  1
  Ni  Ni85  1  0.40726319  0.02832184  0.54816046  1
  Ni  Ni86  1  0.50000000  0.50000000  0.50000000  1
  Ni  Ni87  1  -0.00000000  0.00000000  0.00000000  1
  C  C0  1  0.94502233  0.05497767  0.21111420  1
  C  C1  1  0.05497767  0.94502233  0.78888580  1
  C  C2  1  0.55497767  0.44502233  0.71111420  1
  C  C3  1  0.44502233  0.55497767  0.28888580  1
  C  C4  1  0.93173095  0.55760204  0.41616886  1
  C  C5  1  0.55760204  0.93173095  0.58383114  1
  C  C6  1  0.05760204  0.43173095  0.91616886  1
  C  C7  1  0.43173095  0.05760204  0.08383114  1
  C  C8  1  0.06826905  0.44239796  0.58383114  1
  C  C9  1  0.44239796  0.06826905  0.41616886  1
  C  C10  1  0.94239796  0.56826905  0.08383114  1
  C  C11  1  0.56826905  0.94239796  0.91616886  1
loop_
_geom_bond_atom_site_label_1
_geom_bond_atom_site_label_2
_geom_bond_distance
_geom_bond_site_symmetry_2
Ho0 Ni6 3.027988 1_655
Ho0 Ni0 3.027988 1_555
Ho0 Ni20 3.031873 1_555
Ho0 Ni26 3.031873 1_555
Ho0 Ni57 3.033830 1_555
Ho0 Ni55 3.033830 1_555
Ho0 Ni36 3.039838 1_555
Ho0 Ni42 3.039838 1_655
Ho0 Ni12 3.051308 1_655
Ho0 Ni18 3.051308 1_555
Ho0 Ni45 3.060680 1_555
Ho0 Ni51 3.060680 1_555
Ho0 Ni31 3.085268 1_555
Ho0 Ni33 3.085268 1_555
Ho0 Ni8 3.127303 1_555
Ho0 Ni11 3.127303 1_655
Ho0 Ni71 3.190923 1_555
Ho0 Ni68 3.190923 1_565
Ho0 Ni72 3.199344 1_555
Ho0 Ni75 3.199344 1_655
Ho1 Ni7 3.027988 1_565
Ho1 Ni1 3.027988 1_555
Ho1 Ni21 3.031873 1_555
Ho1 Ni27 3.031873 1_555
Ho1 Ni54 3.033830 1_555
Ho1 Ni56 3.033830 1_555
Ho1 Ni37 3.039838 1_555
Ho1 Ni43 3.039838 1_565
Ho1 Ni13 3.051308 1_565
Ho1 Ni19 3.051308 1_555
Ho1 Ni44 3.060680 1_555
Ho1 Ni50 3.060680 1_555
Ho1 Ni30 3.085268 1_555
Ho1 Ni32 3.085268 1_555
Ho1 Ni9 3.127303 1_555
Ho1 Ni10 3.127303 1_565
Ho1 Ni69 3.190923 1_655
Ho1 Ni70 3.190923 1_555
Ho1 Ni74 3.199344 1_565
Ho1 Ni73 3.199344 1_555
Ho2 Ni2 3.027988 1_455
Ho2 Ni4 3.027988 1_555
Ho2 Ni22 3.031873 1_555
Ho2 Ni24 3.031873 1_555
Ho2 Ni53 3.033830 1_555
Ho2 Ni59 3.033830 1_555
Ho2 Ni40 3.039838 1_555
Ho2 Ni38 3.039838 1_455
Ho2 Ni16 3.051308 1_455
Ho2 Ni14 3.051308 1_555
Ho2 Ni49 3.060680 1_555
Ho2 Ni47 3.060680 1_555
Ho2 Ni29 3.085268 1_555
Ho2 Ni35 3.085268 1_555
Ho2 Ni10 3.127303 1_455
Ho2 Ni9 3.127303 1_555
Ho2 Ni69 3.190923 1_545
Ho2 Ni70 3.190923 1_555
Ho2 Ni74 3.199344 1_455
Ho2 Ni73 3.199344 1_555
Ho3 Ni3 3.027988 1_545
Ho3 Ni5 3.027988 1_555
Ho3 Ni25 3.031873 1_555
Ho3 Ni23 3.031873 1_555
Ho3 Ni52 3.033830 1_555
Ho3 Ni58 3.033830 1_555
Ho3 Ni39 3.039838 1_545
Ho3 Ni41 3.039838 1_555
Ho3 Ni17 3.051308 1_545
Ho3 Ni15 3.051308 1_555
Ho3 Ni46 3.060680 1_555
Ho3 Ni48 3.060680 1_555
Ho3 Ni34 3.085268 1_555
Ho3 Ni28 3.085268 1_555
Ho3 Ni11 3.127303 1_545
Ho3 Ni8 3.127303 1_555
Ho3 Ni71 3.190923 1_555
Ho3 Ni68 3.190923 1_455
Ho3 Ni72 3.199344 1_555
Ho3 Ni75 3.199344 1_545
Ho4 Ni64 2.768634 1_555
Ho4 Ni50 2.837263 1_555
Ho4 Ni47 2.837263 1_555
Ho4 Ni86 3.110525 1_555
Ho4 Ni74 3.332146 1_555
Ho5 Ni65 2.768634 1_555
Ho5 Ni51 2.837263 1_555
Ho5 Ni46 2.837263 1_555
Ho5 Ni86 3.110525 1_555
Ho5 Ni75 3.332146 1_555
Ho6 Ni66 2.768634 1_554
Ho6 Ni45 2.837263 1_545
Ho6 Ni48 2.837263 1_655
Ho6 Ni87 3.110525 1_655
Ho6 Ni72 3.332146 1_555
Ho7 Ni67 2.768634 1_556
Ho7 Ni44 2.837263 1_455
Ho7 Ni49 2.837263 1_565
Ho7 Ni87 3.110525 1_566
Ho7 Ni73 3.332146 1_555
Ni0 Ni72 2.477866 1_555
Ni0 Ni52 2.549057 1_655
Ni0 Ni58 2.570523 1_655
Ni1 Ni73 2.477866 1_555
Ni1 Ni53 2.549057 1_565
Ni1 Ni59 2.570523 1_565
Ni2 Ni74 2.477866 1_555
Ni2 Ni54 2.549057 1_555
Ni2 Ni56 2.570523 1_555
Ni3 Ni75 2.477866 1_555
Ni3 Ni55 2.549057 1_555
Ni3 Ni57 2.570523 1_555
Ni4 Ni73 2.477866 1_555
Ni4 Ni56 2.549057 1_455
Ni4 Ni54 2.570523 1_455
Ni5 Ni72 2.477866 1_555
Ni5 Ni57 2.549057 1_545
Ni5 Ni55 2.570523 1_545
Ni6 Ni75 2.477866 1_555
Ni7 Ni74 2.477866 1_555
Ni8 Ni86 2.463677 1_555
Ni10 Ni74 2.383593 1_555
Ni10 Ni87 2.463677 1_656
Ni11 Ni75 2.383593 1_555
Ni11 Ni87 2.463677 1_565
Ni12 Ni75 2.374586 1_555
Ni12 Ni33 2.432470 1_455
Ni12 Ni76 2.464932 1_565
Ni12 Ni32 2.639318 1_455
Ni12 Ni65 2.724926 1_555
Ni13 Ni74 2.374586 1_555
Ni13 Ni32 2.432470 1_545
Ni13 Ni76 2.464932 1_655
Ni13 Ni33 2.639318 1_545
Ni13 Ni64 2.724926 1_555
Ni14 Ni73 2.374586 1_555
Ni14 Ni35 2.432470 1_555
Ni14 Ni77 2.464932 1_556
Ni14 Ni34 2.639318 1_556
Ni14 Ni67 2.724926 1_556
Ni15 Ni72 2.374586 1_555
Ni15 Ni34 2.432470 1_555
Ni15 Ni77 2.464932 1_555
Ni15 Ni35 2.639318 1_554
Ni15 Ni66 2.724926 1_554
Ni16 Ni74 2.374586 1_555
Ni16 Ni29 2.432470 1_655
Ni16 Ni76 2.464932 1_655
Ni16 Ni28 2.639318 1_655
Ni16 Ni64 2.724926 1_555
Ni17 Ni75 2.374586 1_555
Ni17 Ni28 2.432470 1_565
Ni17 Ni76 2.464932 1_565
Ni17 Ni29 2.639318 1_565
Ni17 Ni65 2.724926 1_555
Ni18 Ni72 2.374586 1_555
Ni18 Ni31 2.432470 1_555
Ni18 Ni77 2.464932 1_555
Ni18 Ni30 2.639318 1_554
Ni18 Ni66 2.724926 1_554
Ni19 Ni73 2.374586 1_555
Ni19 Ni30 2.432470 1_555
Ni19 Ni77 2.464932 1_556
Ni19 Ni31 2.639318 1_556
Ni19 Ni67 2.724926 1_556
Ni20 Ni86 2.401781 1_555
Ni20 Ni33 2.405263 1_555
Ni20 Ni32 2.529032 1_555
Ni21 Ni86 2.401781 1_555
Ni21 Ni32 2.405263 1_555
Ni21 Ni33 2.529032 1_555
Ni22 Ni87 2.401781 1_556
Ni22 Ni35 2.405263 1_555
Ni22 Ni34 2.529032 1_556
Ni23 Ni87 2.401781 1_555
Ni23 Ni34 2.405263 1_555
Ni23 Ni35 2.529032 1_554
Ni24 Ni86 2.401781 1_555
Ni24 Ni29 2.405263 1_555
Ni24 Ni28 2.529032 1_555
Ni25 Ni86 2.401781 1_555
Ni25 Ni28 2.405263 1_555
Ni25 Ni29 2.529032 1_555
Ni26 Ni87 2.401781 1_665
Ni26 Ni31 2.405263 1_555
Ni26 Ni30 2.529032 1_554
Ni27 Ni87 2.401781 1_666
Ni27 Ni30 2.405263 1_555
Ni27 Ni31 2.529032 1_556
Ni28 Ni52 2.275766 1_555
Ni28 Ni76 2.318993 1_555
Ni28 Ni84 2.370302 1_555
Ni28 Ni29 2.372752 1_555
Ni28 Ni46 2.452609 1_555
Ni28 Ni68 2.528161 1_455
Ni28 Ni64 2.578652 1_455
Ni29 Ni53 2.275766 1_555
Ni29 Ni76 2.318993 1_555
Ni29 Ni85 2.370302 1_555
Ni29 Ni47 2.452609 1_555
Ni29 Ni69 2.528161 1_545
Ni29 Ni65 2.578652 1_545
Ni30 Ni54 2.275766 1_555
Ni30 Ni77 2.318993 1_556
Ni30 Ni82 2.370302 1_555
Ni30 Ni31 2.372752 1_556
Ni30 Ni44 2.452609 1_555
Ni30 Ni70 2.528161 1_555
Ni30 Ni66 2.578652 1_555
Ni31 Ni55 2.275766 1_555
Ni31 Ni77 2.318993 1_555
Ni31 Ni83 2.370302 1_555
Ni31 Ni45 2.452609 1_555
Ni31 Ni71 2.528161 1_555
Ni31 Ni67 2.578652 1_555
Ni32 Ni56 2.275766 1_555
Ni32 Ni76 2.318993 1_665
Ni32 Ni80 2.370302 1_555
Ni32 Ni33 2.372752 1_555
Ni32 Ni50 2.452609 1_555
Ni32 Ni69 2.528161 1_655
Ni32 Ni65 2.578652 1_655
Ni33 Ni57 2.275766 1_555
Ni33 Ni76 2.318993 1_665
Ni33 Ni81 2.370302 1_555
Ni33 Ni51 2.452609 1_555
Ni33 Ni68 2.528161 1_565
Ni33 Ni64 2.578652 1_565
Ni34 Ni58 2.275766 1_555
Ni34 Ni77 2.318993 1_555
Ni34 Ni78 2.370302 1_555
Ni34 Ni35 2.372752 1_554
Ni34 Ni48 2.452609 1_555
Ni34 Ni71 2.528161 1_555
Ni34 Ni67 2.578652 1_555
Ni35 Ni59 2.275766 1_555
Ni35 Ni77 2.318993 1_556
Ni35 Ni79 2.370302 1_555
Ni35 Ni49 2.452609 1_555
Ni35 Ni70 2.528161 1_555
Ni35 Ni66 2.578652 1_555
Ni36 Ni72 2.410291 1_555
Ni36 Ni52 2.629838 1_655
Ni36 Ni64 2.659815 1_555
Ni37 Ni73 2.410291 1_555
Ni37 Ni53 2.629838 1_565
Ni37 Ni65 2.659815 1_555
Ni38 Ni74 2.410291 1_555
Ni38 Ni54 2.629838 1_555
Ni38 Ni66 2.659815 1_555
Ni39 Ni75 2.410291 1_555
Ni39 Ni55 2.629838 1_555
Ni39 Ni67 2.659815 1_555
Ni40 Ni73 2.410291 1_555
Ni40 Ni56 2.629838 1_455
Ni40 Ni65 2.659815 1_555
Ni41 Ni72 2.410291 1_555
Ni41 Ni57 2.629838 1_545
Ni41 Ni64 2.659815 1_555
Ni42 Ni75 2.410291 1_555
Ni42 Ni58 2.629838 1_555
Ni42 Ni67 2.659815 1_555
Ni43 Ni74 2.410291 1_555
Ni43 Ni59 2.629838 1_555
Ni43 Ni66 2.659815 1_555
Ni44 Ni56 2.581578 1_555
Ni44 Ni54 2.617444 1_555
Ni44 Ni87 2.631154 1_666
Ni45 Ni57 2.581578 1_555
Ni45 Ni55 2.617444 1_555
Ni45 Ni87 2.631154 1_665
Ni46 Ni58 2.581578 1_555
Ni46 Ni52 2.617444 1_555
Ni46 Ni86 2.631154 1_555
Ni47 Ni59 2.581578 1_555
Ni47 Ni53 2.617444 1_555
Ni47 Ni86 2.631154 1_555
Ni48 Ni52 2.581578 1_555
Ni48 Ni58 2.617444 1_555
Ni48 Ni87 2.631154 1_555
Ni49 Ni53 2.581578 1_555
Ni49 Ni59 2.617444 1_555
Ni49 Ni87 2.631154 1_556
Ni50 Ni54 2.581578 1_555
Ni50 Ni56 2.617444 1_555
Ni50 Ni86 2.631154 1_555
Ni51 Ni55 2.581578 1_555
Ni51 Ni57 2.617444 1_555
Ni51 Ni86 2.631154 1_555
Ni52 Ni58 2.296804 1_555
Ni52 Ni60 2.308202 1_455
Ni52 Ni84 2.492919 1_555
Ni52 Ni64 2.565312 1_455
Ni52 Ni6 2.570523 1_555
Ni52 Ni68 2.664143 1_455
Ni53 Ni59 2.296804 1_555
Ni53 Ni61 2.308202 1_545
Ni53 Ni85 2.492919 1_555
Ni53 Ni65 2.565312 1_545
Ni53 Ni7 2.570523 1_555
Ni53 Ni69 2.664143 1_545
Ni54 Ni56 2.296804 1_555
Ni54 Ni62 2.308202 1_555
Ni54 Ni82 2.492919 1_555
Ni54 Ni66 2.565312 1_555
Ni54 Ni70 2.664143 1_555
Ni55 Ni57 2.296804 1_555
Ni55 Ni63 2.308202 1_555
Ni55 Ni83 2.492919 1_555
Ni55 Ni67 2.565312 1_555
Ni55 Ni71 2.664143 1_555
Ni56 Ni61 2.308202 1_655
Ni56 Ni80 2.492919 1_555
Ni56 Ni65 2.565312 1_655
Ni56 Ni69 2.664143 1_655
Ni57 Ni60 2.308202 1_565
Ni57 Ni81 2.492919 1_555
Ni57 Ni64 2.565312 1_565
Ni57 Ni68 2.664143 1_565
Ni58 Ni63 2.308202 1_555
Ni58 Ni78 2.492919 1_555
Ni58 Ni6 2.549057 1_555
Ni58 Ni67 2.565312 1_555
Ni58 Ni71 2.664143 1_555
Ni59 Ni62 2.308202 1_555
Ni59 Ni79 2.492919 1_555
Ni59 Ni7 2.549057 1_555
Ni59 Ni66 2.565312 1_555
Ni59 Ni70 2.664143 1_555
Ni60 Ni72 2.415739 1_555
Ni60 Ni64 2.681208 1_555
Ni61 Ni73 2.415739 1_555
Ni61 Ni65 2.681208 1_555
Ni62 Ni74 2.415739 1_555
Ni62 Ni66 2.681208 1_555
Ni63 Ni75 2.415739 1_555
Ni63 Ni67 2.681208 1_555
Ni64 Ni68 2.483612 1_555
Ni64 Ni76 2.491844 1_655
Ni64 Ni81 2.610891 1_545
Ni64 Ni84 2.610891 1_655
Ni65 Ni69 2.483612 1_555
Ni65 Ni76 2.491844 1_565
Ni65 Ni80 2.610891 1_455
Ni65 Ni85 2.610891 1_565
Ni66 Ni70 2.483612 1_555
Ni66 Ni77 2.491844 1_556
Ni66 Ni82 2.610891 1_555
Ni66 Ni79 2.610891 1_555
Ni67 Ni71 2.483612 1_555
Ni67 Ni77 2.491844 1_555
Ni67 Ni83 2.610891 1_555
Ni67 Ni78 2.610891 1_555
Ni68 Ni75 2.451191 1_645
Ni68 Ni76 2.535578 1_655
Ni69 Ni74 2.451191 1_465
Ni69 Ni76 2.535578 1_565
Ni70 Ni73 2.451191 1_555
Ni70 Ni77 2.535578 1_556
Ni71 Ni72 2.451191 1_555
Ni71 Ni77 2.535578 1_555
Ni72 Ni8 2.383593 1_555
Ni73 Ni9 2.383593 1_555
Ni86 Ni9 2.463677 1_555
C0 Ni68 1.832126 1_555
C0 Ni45 1.876851 1_545
C0 Ni48 1.876851 1_655
C0 Ni11 1.893801 1_645
C0 Ni60 1.902196 1_555
C0 Ni52 2.514840 1_655
C0 Ni57 2.514840 1_545
C1 Ni69 1.832126 1_555
C1 Ni44 1.876851 1_455
C1 Ni49 1.876851 1_565
C1 Ni10 1.893801 1_465
C1 Ni61 1.902196 1_555
C1 Ni53 2.514840 1_565
C1 Ni56 2.514840 1_455
C2 Ni70 1.832126 1_555
C2 Ni47 1.876851 1_555
C2 Ni50 1.876851 1_555
C2 Ni9 1.893801 1_555
C2 Ni62 1.902196 1_555
C2 Ni59 2.514840 1_555
C2 Ni54 2.514840 1_555
C3 Ni71 1.832126 1_555
C3 Ni46 1.876851 1_555
C3 Ni51 1.876851 1_555
C3 Ni8 1.893801 1_555
C3 Ni63 1.902196 1_555
C3 Ni58 2.514840 1_555
C3 Ni55 2.514840 1_555
C4 Ni20 1.880310 1_555
C4 Ni6 1.898564 1_655
C4 Ni36 1.904397 1_555
C4 Ni12 1.914014 1_655
C4 Ni84 1.935813 1_655
C4 Ni80 1.960828 1_555
C4 Ho0 3.019387 1_555
C5 Ni21 1.880310 1_555
C5 Ni7 1.898564 1_565
C5 Ni37 1.904397 1_555
C5 Ni13 1.914014 1_565
C5 Ni85 1.935813 1_565
C5 Ni81 1.960828 1_555
C5 Ho1 3.019387 1_555
C6 Ni22 1.880310 1_555
C6 Ni4 1.898564 1_555
C6 Ni38 1.904397 1_455
C6 Ni14 1.914014 1_555
C6 Ni82 1.935813 1_455
C6 Ni78 1.960828 1_556
C6 Ho2 3.019387 1_555
C7 Ni23 1.880310 1_555
C7 Ni5 1.898564 1_555
C7 Ni39 1.904397 1_545
C7 Ni15 1.914014 1_555
C7 Ni83 1.935813 1_545
C7 Ni79 1.960828 1_554
C7 Ho3 3.019387 1_555
C8 Ni24 1.880310 1_555
C8 Ni2 1.898564 1_455
C8 Ni40 1.904397 1_555
C8 Ni16 1.914014 1_455
C8 Ni80 1.935813 1_455
C8 Ni84 1.960828 1_555
C8 Ho2 3.019387 1_555
C9 Ni25 1.880310 1_555
C9 Ni3 1.898564 1_545
C9 Ni41 1.904397 1_555
C9 Ni17 1.914014 1_545
C9 Ni81 1.935813 1_545
C9 Ni85 1.960828 1_555
C9 Ho3 3.019387 1_555
C10 Ni26 1.880310 1_555
C10 Ni0 1.898564 1_555
C10 Ni42 1.904397 1_655
C10 Ni18 1.914014 1_555
C10 Ni78 1.935813 1_655
C10 Ni82 1.960828 1_554
C10 Ho0 3.019387 1_555
C11 Ni27 1.880310 1_555
C11 Ni1 1.898564 1_555
C11 Ni43 1.904397 1_565
C11 Ni19 1.914014 1_555
C11 Ni79 1.935813 1_565
C11 Ni83 1.960828 1_556
C11 Ho1 3.019387 1_555
