# generated using pymatgen
data_LaCrAsO
_symmetry_space_group_name_H-M   'P 1'
_cell_length_a   4.18024606
_cell_length_b   10.05009683
_cell_length_c   8.23643958
_cell_angle_alpha   67.02408940
_cell_angle_beta   90.01054120
_cell_angle_gamma   89.98808300
_symmetry_Int_Tables_number   1
_chemical_formula_structural   LaCrAsO
_chemical_formula_sum   'La4 Cr4 As4 O4'
_cell_volume   318.57751929
_cell_formula_units_Z   4
loop_
 _symmetry_equiv_pos_site_id
 _symmetry_equiv_pos_as_xyz
  1  'x, y, z'
loop_
 _atom_site_type_symbol
 _atom_site_label
 _atom_site_symmetry_multiplicity
 _atom_site_fract_x
 _atom_site_fract_y
 _atom_site_fract_z
 _atom_site_occupancy
  La  La0  1  0.25019100  0.12869400  0.31310700  1
  La  La1  1  0.25014600  0.12890100  0.81266200  1
  La  La2  1  0.75034900  0.87111000  0.68660200  1
  La  La3  1  0.75022200  0.87135800  0.18631400  1
  Cr  Cr0  1  0.75154800  0.50763200  0.12434600  1
  Cr  Cr1  1  0.24850400  0.49119600  0.87648600  1
  Cr  Cr2  1  0.75058500  0.50858000  0.62434400  1
  Cr  Cr3  1  0.24828900  0.49254200  0.37628100  1
  As  As0  1  0.25042400  0.67340900  0.02781200  1
  As  As1  1  0.25011600  0.67435800  0.52658200  1
  As  As2  1  0.74958200  0.32569400  0.97392000  1
  As  As3  1  0.74926900  0.32652300  0.47261600  1
  O  O0  1  0.75017600  0.00069200  0.37492900  1
  O  O1  1  0.75020000  0.00081400  0.87468700  1
  O  O2  1  0.25019900  0.99935700  0.12453100  1
  O  O3  1  0.25020000  0.99914000  0.62477900  1
loop_
_geom_bond_atom_site_label_1
_geom_bond_atom_site_label_2
_geom_bond_distance
_geom_bond_site_symmetry_2
La0 O3 2.382383 1_545
La0 O2 2.382891 1_545
La0 O0 2.402008 1_555
La0 O0 2.402746 1_455
La1 O3 2.381370 1_545
La1 O2 2.383772 1_546
La1 O1 2.402651 1_555
La1 O1 2.402888 1_455
La2 O1 2.382348 1_565
La2 O0 2.382425 1_565
La2 O3 2.402277 1_655
La2 O3 2.402732 1_555
La3 O1 2.381938 1_564
La3 O0 2.383145 1_565
La3 O2 2.402132 1_555
La3 O2 2.402593 1_655
As0 Cr1 2.586299 1_554
As0 Cr0 2.593234 1_455
As0 Cr0 2.600005 1_555
As0 Cr3 2.732947 1_555
As0 La2 3.442768 1_454
As0 La2 3.443517 1_554
As0 La3 3.472093 1_555
As0 La3 3.472900 1_455
As1 Cr3 2.576323 1_555
As1 Cr2 2.596028 1_455
As1 Cr2 2.598387 1_555
As1 Cr1 2.748211 1_555
As1 La3 3.435907 1_455
As1 La3 3.437574 1_555
As1 La2 3.470674 1_455
As1 La2 3.472050 1_555
As2 Cr0 2.578204 1_556
As2 Cr1 2.592374 1_655
As2 Cr1 2.598836 1_555
As2 Cr2 2.745356 1_555
As2 La0 3.430502 1_556
As2 La0 3.432476 1_656
As2 La1 3.476490 1_555
As2 La1 3.479123 1_655
As3 Cr2 2.587400 1_555
As3 Cr3 2.594901 1_655
As3 Cr3 2.600699 1_555
As3 Cr0 2.732276 1_555
As3 La1 3.435615 1_555
As3 La1 3.438944 1_655
As3 La0 3.474395 1_555
As3 La0 3.478823 1_655
