# generated using pymatgen
data_YMo3Se2ClO8
_symmetry_space_group_name_H-M   'P 1'
_cell_length_a   6.74570900
_cell_length_b   7.20450278
_cell_length_c   10.80697134
_cell_angle_alpha   86.37257662
_cell_angle_beta   89.64978592
_cell_angle_gamma   89.15430316
_symmetry_Int_Tables_number   1
_chemical_formula_structural   YMo3Se2ClO8
_chemical_formula_sum   'Y2 Mo6 Se4 Cl2 O16'
_cell_volume   524.09679294
_cell_formula_units_Z   2
loop_
 _symmetry_equiv_pos_site_id
 _symmetry_equiv_pos_as_xyz
  1  'x, y, z'
loop_
 _atom_site_type_symbol
 _atom_site_label
 _atom_site_symmetry_multiplicity
 _atom_site_fract_x
 _atom_site_fract_y
 _atom_site_fract_z
 _atom_site_occupancy
  Y  Y0  1  0.74761600  0.73762700  0.26257900  1
  Y  Y1  1  0.24428800  0.26180000  0.74751200  1
  Mo  Mo0  1  0.49825200  0.99806400  0.99982000  1
  Mo  Mo1  1  0.50064400  0.01134100  0.49445600  1
  Mo  Mo2  1  0.99534900  0.98725300  0.99848100  1
  Mo  Mo3  1  0.26089800  0.75862200  0.75411600  1
  Mo  Mo4  1  0.77743700  0.24196200  0.23492600  1
  Mo  Mo5  1  0.00187500  0.00547700  0.50059600  1
  Se  Se0  1  0.26506900  0.62360700  0.14311500  1
  Se  Se1  1  0.73086000  0.36612000  0.85933800  1
  Se  Se2  1  0.24877100  0.59894100  0.43574500  1
  Se  Se3  1  0.76211400  0.41579100  0.55797800  1
  Cl  Cl0  1  0.81693600  0.79667200  0.85195400  1
  Cl  Cl1  1  0.13686100  0.18975700  0.17687000  1
  O  O0  1  0.74934800  0.02877600  0.12097900  1
  O  O1  1  0.66703500  0.46274400  0.17809000  1
  O  O2  1  0.21614100  0.58322200  0.59751400  1
  O  O3  1  0.44684900  0.80312800  0.15759400  1
  O  O4  1  0.54609200  0.28457300  0.56499300  1
  O  O5  1  0.95104100  0.25500700  0.59865700  1
  O  O6  1  0.24786500  0.96040600  0.88258800  1
  O  O7  1  0.03072100  0.75583500  0.13527300  1
  O  O8  1  0.05716300  0.75994300  0.39866300  1
  O  O9  1  0.96066800  0.22486000  0.86876000  1
  O  O10  1  0.75385800  0.02271600  0.37028700  1
  O  O11  1  0.25469300  0.99417500  0.62126200  1
  O  O12  1  0.55135500  0.18668300  0.83997400  1
  O  O13  1  0.46593300  0.73458700  0.42206600  1
  O  O14  1  0.30657200  0.51615800  0.83189700  1
  O  O15  1  0.80770000  0.43415400  0.39391900  1
loop_
_geom_bond_atom_site_label_1
_geom_bond_atom_site_label_2
_geom_bond_distance
_geom_bond_site_symmetry_2
Mo0 O6 2.148192 1_555
Mo0 O12 2.160741 1_565
Mo0 O3 2.168869 1_556
Mo0 O0 2.169620 1_566
Mo1 O11 2.145399 1_545
Mo1 O10 2.164998 1_555
Mo1 O4 2.181885 1_555
Mo1 O13 2.203584 1_545
Mo2 O6 2.121901 1_655
Mo2 O0 2.145788 1_566
Mo2 O9 2.153822 1_565
Mo2 O7 2.168582 1_656
Mo3 O14 1.911649 1_555
Mo3 O6 2.073378 1_555
Mo3 O11 2.152536 1_555
Mo3 O2 2.200076 1_555
Mo4 O1 1.819064 1_555
Mo4 O0 2.040112 1_555
Mo4 O10 2.091029 1_555
Mo4 O15 2.285811 1_555
Mo5 O11 2.150651 1_545
Mo5 O5 2.165858 1_455
Mo5 O8 2.168837 1_545
Mo5 O10 2.190483 1_455
Cl0 Mo2 2.487653 1_555
Cl0 Mo0 3.072374 1_555
Cl0 Mo3 3.183691 1_655
Cl1 Mo4 2.529424 1_455
Cl1 Mo2 2.678779 1_444
O0 Y0 2.517152 1_545
O1 Y0 2.306034 1_555
O2 Se2 1.757434 1_555
O2 Y1 2.746264 1_555
O3 Se0 1.809886 1_555
O3 Y0 2.357637 1_555
O4 Se3 1.747339 1_555
O4 Y1 2.825282 1_555
O5 Se3 1.748751 1_555
O5 Y1 2.560284 1_655
O6 Y1 2.538551 1_565
O7 Se0 1.833230 1_555
O7 Y0 2.347248 1_455
O8 Se2 1.754979 1_555
O8 Y0 2.574154 1_455
O9 Se1 1.841608 1_555
O9 Y1 2.321301 1_655
O10 Y0 2.425065 1_545
O11 Y1 2.431411 1_565
O12 Se1 1.806875 1_555
O12 Y1 2.346437 1_555
O13 Se2 1.773187 1_555
O13 Y0 2.556984 1_555
O14 Y1 2.145970 1_555
O15 Se3 1.794542 1_555
O15 Y0 2.558779 1_555
