# generated using pymatgen
data_Sr2InHg
_symmetry_space_group_name_H-M   'P 1'
_cell_length_a   12.90857972
_cell_length_b   12.90857972
_cell_length_c   12.90857972
_cell_angle_alpha   118.42655999
_cell_angle_beta   117.11487905
_cell_angle_gamma   93.91014843
_symmetry_Int_Tables_number   1
_chemical_formula_structural   Sr2InHg
_chemical_formula_sum   'Sr2 In1 Hg1'
_cell_volume   1568.03165992
_cell_formula_units_Z   1
loop_
 _symmetry_equiv_pos_site_id
 _symmetry_equiv_pos_as_xyz
  1  'x, y, z'
loop_
 _atom_site_type_symbol
 _atom_site_label
 _atom_site_symmetry_multiplicity
 _atom_site_fract_x
 _atom_site_fract_y
 _atom_site_fract_z
 _atom_site_occupancy
  Sr  Sr0  1  0.75960000  0.00000000  0.75960000  1
  Sr  Sr1  1  0.24040000  0.00000000  0.24040000  1
  In  In0  1  0.00000000  0.00000000  0.00000000  1
  Hg  Hg0  1  0.50000000  0.00000000  0.50000000  1
loop_
_geom_bond_atom_site_label_1
_geom_bond_atom_site_label_2
_geom_bond_distance
_geom_bond_site_symmetry_2
In0 Sr0 3.237552 1_454
In0 Sr1 3.237552 1_555
Hg0 Sr1 3.496125 1_555
Hg0 Sr0 3.496125 1_555
