# generated using pymatgen
data_KMg14WO16
_symmetry_space_group_name_H-M   'P 1'
_cell_length_a   4.39411300
_cell_length_b   8.64224700
_cell_length_c   8.78790700
_cell_angle_alpha   90.00000000
_cell_angle_beta   90.00000000
_cell_angle_gamma   90.00000000
_symmetry_Int_Tables_number   1
_chemical_formula_structural   KMg14WO16
_chemical_formula_sum   'K1 Mg14 W1 O16'
_cell_volume   333.72085525
_cell_formula_units_Z   1
loop_
 _symmetry_equiv_pos_site_id
 _symmetry_equiv_pos_as_xyz
  1  'x, y, z'
loop_
 _atom_site_type_symbol
 _atom_site_label
 _atom_site_symmetry_multiplicity
 _atom_site_fract_x
 _atom_site_fract_y
 _atom_site_fract_z
 _atom_site_occupancy
  K  K0  1  0.00000000  0.00000000  0.00000000  1
  Mg  Mg0  1  0.00000000  0.50000000  0.00000000  1
  Mg  Mg1  1  0.00000000  0.50000000  0.50000000  1
  Mg  Mg2  1  0.50000000  0.00000000  0.23874800  1
  Mg  Mg3  1  0.50000000  0.00000000  0.76125200  1
  Mg  Mg4  1  0.50000000  0.50000000  0.24783800  1
  Mg  Mg5  1  0.50000000  0.50000000  0.75216200  1
  Mg  Mg6  1  0.50000000  0.25236000  0.00000000  1
  Mg  Mg7  1  0.50000000  0.25692700  0.50000000  1
  Mg  Mg8  1  0.50000000  0.74764000  0.00000000  1
  Mg  Mg9  1  0.50000000  0.74307300  0.50000000  1
  Mg  Mg10  1  0.00000000  0.25530200  0.24372500  1
  Mg  Mg11  1  0.00000000  0.25530200  0.75627500  1
  Mg  Mg12  1  0.00000000  0.74469800  0.24372500  1
  Mg  Mg13  1  0.00000000  0.74469800  0.75627500  1
  W  W0  1  0.00000000  0.00000000  0.50000000  1
  O  O0  1  0.00000000  0.27590900  0.00000000  1
  O  O1  1  0.00000000  0.25436400  0.50000000  1
  O  O2  1  0.00000000  0.72409100  0.00000000  1
  O  O3  1  0.00000000  0.74563600  0.50000000  1
  O  O4  1  0.50000000  0.24937500  0.25215400  1
  O  O5  1  0.50000000  0.24937500  0.74784600  1
  O  O6  1  0.50000000  0.75062500  0.25215400  1
  O  O7  1  0.50000000  0.75062500  0.74784600  1
  O  O8  1  0.50000000  0.00000000  0.00000000  1
  O  O9  1  0.50000000  0.00000000  0.50000000  1
  O  O10  1  0.50000000  0.50000000  0.00000000  1
  O  O11  1  0.50000000  0.50000000  0.50000000  1
  O  O12  1  0.00000000  0.00000000  0.26387600  1
  O  O13  1  0.00000000  0.00000000  0.73612400  1
  O  O14  1  0.00000000  0.50000000  0.25780500  1
  O  O15  1  0.00000000  0.50000000  0.74219500  1
loop_
_geom_bond_atom_site_label_1
_geom_bond_atom_site_label_2
_geom_bond_distance
_geom_bond_site_symmetry_2
K0 O8 2.197056 1_555
K0 O8 2.197056 1_455
K0 O13 2.318918 1_554
K0 O12 2.318918 1_555
K0 O0 2.384474 1_555
K0 O2 2.384474 1_545
Mg0 O2 1.936650 1_555
Mg0 O0 1.936650 1_555
Mg0 O10 2.197056 1_455
Mg0 O10 2.197056 1_555
Mg0 O14 2.265566 1_555
Mg0 O15 2.265566 1_554
Mg1 O3 2.122847 1_555
Mg1 O1 2.122847 1_555
Mg1 O15 2.128387 1_555
Mg1 O14 2.128387 1_555
Mg1 O11 2.197056 1_555
Mg1 O11 2.197056 1_455
Mg2 O8 2.098095 1_555
Mg2 O4 2.158378 1_555
Mg2 O6 2.158378 1_545
Mg2 O12 2.208126 1_655
Mg2 O12 2.208126 1_555
Mg2 O9 2.295858 1_555
Mg3 O8 2.098095 1_556
Mg3 O5 2.158378 1_555
Mg3 O7 2.158378 1_545
Mg3 O13 2.208126 1_555
Mg3 O13 2.208126 1_655
Mg3 O9 2.295858 1_555
Mg4 O6 2.166295 1_555
Mg4 O4 2.166295 1_555
Mg4 O10 2.177977 1_555
Mg4 O14 2.198802 1_555
Mg4 O14 2.198802 1_655
Mg4 O11 2.215976 1_555
Mg5 O7 2.166295 1_555
Mg5 O5 2.166295 1_555
Mg5 O10 2.177977 1_556
Mg5 O15 2.198802 1_555
Mg5 O15 2.198802 1_655
Mg5 O11 2.215976 1_555
Mg6 O10 2.140166 1_555
Mg6 O8 2.180957 1_555
Mg6 O0 2.206462 1_555
Mg6 O0 2.206462 1_655
Mg6 O5 2.216056 1_554
Mg6 O4 2.216056 1_555
Mg7 O11 2.100697 1_555
Mg7 O4 2.179025 1_555
Mg7 O5 2.179025 1_555
Mg7 O1 2.197168 1_555
Mg7 O1 2.197168 1_655
Mg7 O9 2.220427 1_555
Mg8 O10 2.140166 1_555
Mg8 O8 2.180957 1_565
Mg8 O2 2.206462 1_655
Mg8 O2 2.206462 1_555
Mg8 O6 2.216056 1_555
Mg8 O7 2.216056 1_554
Mg9 O11 2.100697 1_555
Mg9 O6 2.179025 1_555
Mg9 O7 2.179025 1_555
Mg9 O3 2.197168 1_655
Mg9 O3 2.197168 1_555
Mg9 O9 2.220427 1_565
Mg10 O14 2.118357 1_555
Mg10 O0 2.149224 1_555
Mg10 O4 2.198902 1_455
Mg10 O4 2.198902 1_555
Mg10 O12 2.213478 1_555
Mg10 O1 2.252135 1_555
Mg11 O15 2.118357 1_555
Mg11 O0 2.149224 1_556
Mg11 O5 2.198902 1_455
Mg11 O5 2.198902 1_555
Mg11 O13 2.213478 1_555
Mg11 O1 2.252135 1_555
Mg12 O14 2.118357 1_555
Mg12 O2 2.149224 1_555
Mg12 O6 2.198902 1_455
Mg12 O6 2.198902 1_555
Mg12 O12 2.213478 1_565
Mg12 O3 2.252135 1_555
Mg13 O15 2.118357 1_555
Mg13 O2 2.149224 1_556
Mg13 O7 2.198902 1_455
Mg13 O7 2.198902 1_555
Mg13 O13 2.213478 1_565
Mg13 O3 2.252135 1_555
O1 W0 2.198277 1_555
O3 W0 2.198277 1_565
O9 W0 2.197056 1_555
O9 W0 2.197056 1_655
O12 W0 2.075036 1_555
O13 W0 2.075036 1_555
