# generated using pymatgen
data_Rb2RuNCl5O3
_symmetry_space_group_name_H-M   'P 1'
_cell_length_a   6.73013900
_cell_length_b   11.70859000
_cell_length_c   16.25054668
_cell_angle_alpha   78.37779922
_cell_angle_beta   90.00000000
_cell_angle_gamma   90.00000000
_symmetry_Int_Tables_number   1
_chemical_formula_structural   Rb2RuNCl5O3
_chemical_formula_sum   'Rb8 Ru4 N4 Cl20 O12'
_cell_volume   1254.29541569
_cell_formula_units_Z   4
loop_
 _symmetry_equiv_pos_site_id
 _symmetry_equiv_pos_as_xyz
  1  'x, y, z'
loop_
 _atom_site_type_symbol
 _atom_site_label
 _atom_site_symmetry_multiplicity
 _atom_site_fract_x
 _atom_site_fract_y
 _atom_site_fract_z
 _atom_site_occupancy
  Rb  Rb0  1  0.46815600  0.54525900  0.16051600  1
  Rb  Rb1  1  0.96815600  0.45474100  0.33948400  1
  Rb  Rb2  1  0.53184400  0.45474100  0.83948400  1
  Rb  Rb3  1  0.03184400  0.54525900  0.66051600  1
  Rb  Rb4  1  0.37202600  0.17351200  0.42376600  1
  Rb  Rb5  1  0.87202600  0.82648800  0.07623400  1
  Rb  Rb6  1  0.62797400  0.82648800  0.57623400  1
  Rb  Rb7  1  0.12797400  0.17351200  0.92376600  1
  Ru  Ru0  1  0.17154800  0.77599600  0.40967200  1
  Ru  Ru1  1  0.67154800  0.22400400  0.09032800  1
  Ru  Ru2  1  0.82845200  0.22400400  0.59032800  1
  Ru  Ru3  1  0.32845200  0.77599600  0.90967200  1
  N  N0  1  0.50748300  0.09057400  0.13996800  1
  N  N1  1  0.00748300  0.90942600  0.36003200  1
  N  N2  1  0.49251700  0.90942600  0.86003200  1
  N  N3  1  0.99251700  0.09057400  0.63996800  1
  Cl  Cl0  1  0.35868200  0.83717800  0.04312100  1
  Cl  Cl1  1  0.85868200  0.16282200  0.45687900  1
  Cl  Cl2  1  0.64131800  0.16282200  0.95687900  1
  Cl  Cl3  1  0.14131800  0.83717800  0.54312100  1
  Cl  Cl4  1  0.17541100  0.73621500  0.27205800  1
  Cl  Cl5  1  0.67541100  0.26378500  0.22794200  1
  Cl  Cl6  1  0.82458900  0.26378500  0.72794200  1
  Cl  Cl7  1  0.32458900  0.73621500  0.77205800  1
  Cl  Cl8  1  0.36560300  0.32614000  0.05882700  1
  Cl  Cl9  1  0.86560300  0.67386000  0.44117300  1
  Cl  Cl10  1  0.63439700  0.67386000  0.94117300  1
  Cl  Cl11  1  0.13439700  0.32614000  0.55882700  1
  Cl  Cl12  1  0.94736700  0.09268000  0.12499100  1
  Cl  Cl13  1  0.44736700  0.90732000  0.37500900  1
  Cl  Cl14  1  0.05263300  0.90732000  0.87500900  1
  Cl  Cl15  1  0.55263300  0.09268000  0.62499100  1
  Cl  Cl16  1  0.96897700  0.55464100  0.13635000  1
  Cl  Cl17  1  0.46897700  0.44535900  0.36365000  1
  Cl  Cl18  1  0.03102300  0.44535900  0.86365000  1
  Cl  Cl19  1  0.53102300  0.55464100  0.63635000  1
  O  O0  1  0.31559500  0.65651800  0.45092700  1
  O  O1  1  0.81559500  0.34348200  0.04907300  1
  O  O2  1  0.68440500  0.34348200  0.54907300  1
  O  O3  1  0.18440500  0.65651800  0.95092700  1
  O  O4  1  0.41023700  0.01316500  0.17269000  1
  O  O5  1  0.91023700  0.98683500  0.32731000  1
  O  O6  1  0.58976300  0.98683500  0.82731000  1
  O  O7  1  0.08976300  0.01316500  0.67269000  1
  O  O8  1  0.16178700  0.25993400  0.26379200  1
  O  O9  1  0.66178700  0.74006600  0.23620800  1
  O  O10  1  0.83821300  0.74006600  0.73620800  1
  O  O11  1  0.33821300  0.25993400  0.76379200  1
loop_
_geom_bond_atom_site_label_1
_geom_bond_atom_site_label_2
_geom_bond_distance
_geom_bond_site_symmetry_2
N0 O4 1.156887 1_555
N0 Ru1 1.950097 1_555
N1 O5 1.156887 1_455
N1 Ru0 1.950097 1_555
N2 O6 1.156887 1_555
N2 Ru3 1.950097 1_555
N3 O7 1.156887 1_655
N3 Ru2 1.950097 1_555
Cl0 Ru3 2.425571 1_554
Cl0 Rb5 3.317443 1_455
Cl0 Rb5 3.494890 1_555
Cl0 Rb0 3.638338 1_555
Cl1 Ru2 2.425571 1_555
Cl1 Rb4 3.317443 1_555
Cl1 Rb4 3.494890 1_655
Cl1 Rb1 3.638338 1_555
Cl2 Ru1 2.425571 1_556
Cl2 Rb7 3.317443 1_655
Cl2 Rb7 3.494890 1_555
Cl2 Rb2 3.638338 1_555
Cl3 Ru0 2.425571 1_555
Cl3 Rb6 3.317443 1_555
Cl3 Rb6 3.494890 1_455
Cl3 Rb3 3.638338 1_555
Cl4 Ru0 2.374524 1_555
Cl4 Rb1 3.542970 1_455
Cl4 Rb0 3.714719 1_555
Cl4 Rb5 3.749360 1_455
Cl5 Ru1 2.374524 1_555
Cl5 Rb0 3.542970 1_555
Cl5 Rb1 3.714719 1_555
Cl5 Rb4 3.749360 1_555
Cl6 Ru2 2.374524 1_555
Cl6 Rb3 3.542970 1_655
Cl6 Rb2 3.714719 1_555
Cl6 Rb7 3.749360 1_655
Cl7 Ru3 2.374524 1_555
Cl7 Rb2 3.542970 1_555
Cl7 Rb3 3.714719 1_555
Cl7 Rb6 3.749360 1_555
Cl8 Ru1 2.384364 1_555
Cl8 Rb0 3.390798 1_555
Cl8 Rb7 3.485515 1_554
Cl8 Rb2 3.749904 1_554
Cl9 Ru0 2.384364 1_655
Cl9 Rb1 3.390798 1_555
Cl9 Rb6 3.485515 1_555
Cl9 Rb3 3.749904 1_655
Cl10 Ru3 2.384364 1_555
Cl10 Rb2 3.390798 1_555
Cl10 Rb5 3.485515 1_556
Cl10 Rb0 3.749904 1_556
Cl11 Ru2 2.384364 1_455
Cl11 Rb3 3.390798 1_555
Cl11 Rb4 3.485515 1_555
Cl11 Rb1 3.749904 1_455
Cl12 Ru1 2.403840 1_555
Cl12 Rb5 3.404982 1_545
Cl12 Rb7 3.437913 1_654
Cl13 Ru0 2.403840 1_555
Cl13 Rb4 3.404982 1_565
Cl13 Rb6 3.437913 1_555
Cl14 Ru3 2.403840 1_555
Cl14 Rb7 3.404982 1_565
Cl14 Rb5 3.437913 1_456
Cl15 Ru2 2.403840 1_555
Cl15 Rb6 3.404982 1_545
Cl15 Rb4 3.437913 1_555
Cl16 Rb5 3.202874 1_555
Cl16 Rb1 3.272511 1_555
Cl16 Rb0 3.381633 1_655
Cl16 Rb0 3.392612 1_555
Cl17 Rb4 3.202874 1_555
Cl17 Rb0 3.272511 1_555
Cl17 Rb1 3.381633 1_555
Cl17 Rb1 3.392612 1_455
Cl18 Rb7 3.202874 1_555
Cl18 Rb3 3.272511 1_555
Cl18 Rb2 3.381633 1_455
Cl18 Rb2 3.392612 1_555
Cl19 Rb6 3.202874 1_555
Cl19 Rb2 3.272511 1_555
Cl19 Rb3 3.381633 1_555
Cl19 Rb3 3.392612 1_655
O0 Ru0 1.722905 1_555
O1 Ru1 1.722905 1_555
O2 Ru2 1.722905 1_555
O3 Ru3 1.722905 1_555
O8 Rb4 2.953696 1_555
O8 Rb1 3.089372 1_455
O9 Rb5 2.953696 1_555
O9 Rb0 3.089372 1_555
O10 Rb6 2.953696 1_555
O10 Rb3 3.089372 1_655
O11 Rb7 2.953696 1_555
O11 Rb2 3.089372 1_555
