# generated using pymatgen
data_Cu5(SO9)2
_symmetry_space_group_name_H-M   'P 1'
_cell_length_a   5.39783358
_cell_length_b   5.77135527
_cell_length_c   11.59080521
_cell_angle_alpha   94.37624076
_cell_angle_beta   102.99212469
_cell_angle_gamma   89.26048987
_symmetry_Int_Tables_number   1
_chemical_formula_structural   Cu5(SO9)2
_chemical_formula_sum   'Cu5 S2 O18'
_cell_volume   350.81360018
_cell_formula_units_Z   1
loop_
 _symmetry_equiv_pos_site_id
 _symmetry_equiv_pos_as_xyz
  1  'x, y, z'
loop_
 _atom_site_type_symbol
 _atom_site_label
 _atom_site_symmetry_multiplicity
 _atom_site_fract_x
 _atom_site_fract_y
 _atom_site_fract_z
 _atom_site_occupancy
  Cu  Cu0  1  0.00000000  0.00000000  0.00000000  1
  Cu  Cu1  1  0.00000000  0.50000000  0.00000000  1
  Cu  Cu2  1  0.49667100  0.24983700  0.99931100  1
  Cu  Cu3  1  0.50332900  0.75016300  0.00068900  1
  Cu  Cu4  1  0.00000000  0.50000000  0.50000000  1
  S  S0  1  0.70112600  0.17525200  0.71330700  1
  S  S1  1  0.29887400  0.82474800  0.28669300  1
  O  O0  1  0.13642100  0.26152500  0.08550800  1
  O  O1  1  0.86357900  0.73847500  0.91449200  1
  O  O2  1  0.28890700  0.49636900  0.93550800  1
  O  O3  1  0.71109300  0.50363100  0.06449200  1
  O  O4  1  0.28894100  0.98688500  0.93543400  1
  O  O5  1  0.71105900  0.01311500  0.06456600  1
  O  O6  1  0.74163600  0.23630400  0.84517600  1
  O  O7  1  0.25836400  0.76369600  0.15482400  1
  O  O8  1  0.91302600  0.01284600  0.69734200  1
  O  O9  1  0.08697400  0.98715400  0.30265800  1
  O  O10  1  0.71734500  0.38687900  0.65056600  1
  O  O11  1  0.28265500  0.61312100  0.34943400  1
  O  O12  1  0.45158400  0.06041700  0.66861500  1
  O  O13  1  0.54841600  0.93958300  0.33138500  1
  O  O14  1  0.87180900  0.79433800  0.51077500  1
  O  O15  1  0.12819100  0.20566200  0.48922500  1
  O  O16  1  0.24483900  0.59908100  0.62091600  1
  O  O17  1  0.75516100  0.40091900  0.37908400  1
loop_
_geom_bond_atom_site_label_1
_geom_bond_atom_site_label_2
_geom_bond_distance
_geom_bond_site_symmetry_2
Cu0 O0 1.809677 1_555
Cu0 O1 1.809677 1_444
Cu0 O5 1.873883 1_455
Cu0 O4 1.873883 1_544
Cu0 O7 2.494861 1_545
Cu0 O6 2.494861 1_454
Cu1 O0 1.809052 1_555
Cu1 O1 1.809052 1_454
Cu1 O2 1.874056 1_554
Cu1 O3 1.874056 1_455
Cu1 O7 2.448289 1_555
Cu1 O6 2.448289 1_454
Cu2 O5 1.871126 1_556
Cu2 O3 1.880837 1_556
Cu2 O2 1.890904 1_555
Cu2 O4 1.899398 1_545
Cu2 O0 2.375704 1_556
Cu2 O6 2.446324 1_555
Cu3 O4 1.871126 1_554
Cu3 O2 1.880837 1_554
Cu3 O3 1.890904 1_555
Cu3 O5 1.899398 1_565
Cu3 O1 2.375704 1_554
Cu3 O7 2.446324 1_555
Cu4 O16 1.761315 1_555
Cu4 O17 1.761315 1_455
Cu4 O14 1.831998 1_455
Cu4 O15 1.831998 1_555
O6 S0 1.509206 1_555
O7 S1 1.509206 1_555
O8 S0 1.504023 1_555
O9 S1 1.504023 1_555
O10 S0 1.481622 1_555
O11 S1 1.481622 1_555
O12 S0 1.476099 1_555
O13 S1 1.476099 1_555
