# generated using pymatgen
data_Ba3Al2O12
_symmetry_space_group_name_H-M   'P 1'
_cell_length_a   12.39376230
_cell_length_b   12.39376230
_cell_length_c   12.39376230
_cell_angle_alpha   109.47122063
_cell_angle_beta   109.47122063
_cell_angle_gamma   109.47122063
_symmetry_Int_Tables_number   1
_chemical_formula_structural   Ba3Al2O12
_chemical_formula_sum   'Ba12 Al8 O48'
_cell_volume   1465.50598666
_cell_formula_units_Z   4
loop_
 _symmetry_equiv_pos_site_id
 _symmetry_equiv_pos_as_xyz
  1  'x, y, z'
loop_
 _atom_site_type_symbol
 _atom_site_label
 _atom_site_symmetry_multiplicity
 _atom_site_fract_x
 _atom_site_fract_y
 _atom_site_fract_z
 _atom_site_occupancy
  Ba  Ba0  1  0.12500000  0.37500000  0.75000000  1
  Ba  Ba1  1  0.37500000  0.12500000  0.25000000  1
  Ba  Ba2  1  0.37500000  0.75000000  0.12500000  1
  Ba  Ba3  1  0.12500000  0.25000000  0.37500000  1
  Ba  Ba4  1  0.75000000  0.12500000  0.37500000  1
  Ba  Ba5  1  0.25000000  0.37500000  0.12500000  1
  Ba  Ba6  1  0.87500000  0.62500000  0.25000000  1
  Ba  Ba7  1  0.62500000  0.87500000  0.75000000  1
  Ba  Ba8  1  0.62500000  0.25000000  0.87500000  1
  Ba  Ba9  1  0.87500000  0.75000000  0.62500000  1
  Ba  Ba10  1  0.25000000  0.87500000  0.62500000  1
  Ba  Ba11  1  0.75000000  0.62500000  0.87500000  1
  Al  Al0  1  0.00000000  0.50000000  0.00000000  1
  Al  Al1  1  0.00000000  0.00000000  0.50000000  1
  Al  Al2  1  0.50000000  0.00000000  0.00000000  1
  Al  Al3  1  0.50000000  0.50000000  0.50000000  1
  Al  Al4  1  0.50000000  0.50000000  0.00000000  1
  Al  Al5  1  0.50000000  0.00000000  0.50000000  1
  Al  Al6  1  0.00000000  0.50000000  0.50000000  1
  Al  Al7  1  0.00000000  0.00000000  0.00000000  1
  O  O0  1  0.39189700  0.56399000  0.93569700  1
  O  O1  1  0.12829300  0.45620000  0.56430300  1
  O  O2  1  0.37170700  0.93601000  0.32790700  1
  O  O3  1  0.10810300  0.04380000  0.17209300  1
  O  O4  1  0.56399000  0.93569700  0.39189700  1
  O  O5  1  0.45620000  0.56430300  0.12829300  1
  O  O6  1  0.93601000  0.32790700  0.37170700  1
  O  O7  1  0.04380000  0.17209300  0.10810300  1
  O  O8  1  0.93569700  0.39189700  0.56399000  1
  O  O9  1  0.56430300  0.12829300  0.45620000  1
  O  O10  1  0.32790700  0.37170700  0.93601000  1
  O  O11  1  0.17209300  0.10810300  0.04380000  1
  O  O12  1  0.60810300  0.43601000  0.06430300  1
  O  O13  1  0.87170700  0.54380000  0.43569700  1
  O  O14  1  0.62829300  0.06399000  0.67209300  1
  O  O15  1  0.89189700  0.95620000  0.82790700  1
  O  O16  1  0.43601000  0.06430300  0.60810300  1
  O  O17  1  0.54380000  0.43569700  0.87170700  1
  O  O18  1  0.06399000  0.67209300  0.62829300  1
  O  O19  1  0.95620000  0.82790700  0.89189700  1
  O  O20  1  0.06430300  0.60810300  0.43601000  1
  O  O21  1  0.43569700  0.87170700  0.54380000  1
  O  O22  1  0.67209300  0.62829300  0.06399000  1
  O  O23  1  0.82790700  0.89189700  0.95620000  1
  O  O24  1  0.89189700  0.43569700  0.06399000  1
  O  O25  1  0.62829300  0.06430300  0.95620000  1
  O  O26  1  0.87170700  0.82790700  0.43601000  1
  O  O27  1  0.60810300  0.67209300  0.54380000  1
  O  O28  1  0.06399000  0.89189700  0.43569700  1
  O  O29  1  0.95620000  0.62829300  0.06430300  1
  O  O30  1  0.43601000  0.87170700  0.82790700  1
  O  O31  1  0.54380000  0.60810300  0.67209300  1
  O  O32  1  0.43569700  0.06399000  0.89189700  1
  O  O33  1  0.06430300  0.95620000  0.62829300  1
  O  O34  1  0.82790700  0.43601000  0.87170700  1
  O  O35  1  0.67209300  0.54380000  0.60810300  1
  O  O36  1  0.10810300  0.56430300  0.93601000  1
  O  O37  1  0.37170700  0.93569700  0.04380000  1
  O  O38  1  0.12829300  0.17209300  0.56399000  1
  O  O39  1  0.39189700  0.32790700  0.45620000  1
  O  O40  1  0.93601000  0.10810300  0.56430300  1
  O  O41  1  0.04380000  0.37170700  0.93569700  1
  O  O42  1  0.56399000  0.12829300  0.17209300  1
  O  O43  1  0.45620000  0.39189700  0.32790700  1
  O  O44  1  0.56430300  0.93601000  0.10810300  1
  O  O45  1  0.93569700  0.04380000  0.37170700  1
  O  O46  1  0.17209300  0.56399000  0.12829300  1
  O  O47  1  0.32790700  0.45620000  0.39189700  1
loop_
_geom_bond_atom_site_label_1
_geom_bond_atom_site_label_2
_geom_bond_distance
_geom_bond_site_symmetry_2
Ba0 O0 2.809025 1_555
Ba0 O40 2.809025 1_455
Ba0 O1 2.809025 1_555
Ba0 O41 2.809025 1_555
Ba0 O8 2.811877 1_455
Ba0 O10 2.811877 1_555
Ba0 O36 2.811877 1_555
Ba0 O38 2.811877 1_555
Ba1 O2 2.809025 1_545
Ba1 O43 2.809025 1_555
Ba1 O3 2.809025 1_555
Ba1 O42 2.809025 1_555
Ba1 O11 2.811877 1_555
Ba1 O9 2.811877 1_555
Ba1 O39 2.811877 1_555
Ba1 O37 2.811877 1_545
Ba2 O36 2.809025 1_554
Ba2 O37 2.809025 1_555
Ba2 O5 2.809025 1_555
Ba2 O4 2.809025 1_555
Ba2 O46 2.811877 1_555
Ba2 O44 2.811877 1_555
Ba2 O0 2.811877 1_554
Ba2 O2 2.811877 1_555
Ba3 O38 2.809025 1_555
Ba3 O6 2.809025 1_455
Ba3 O7 2.809025 1_555
Ba3 O39 2.809025 1_555
Ba3 O45 2.811877 1_455
Ba3 O47 2.811877 1_555
Ba3 O1 2.811877 1_555
Ba3 O3 2.811877 1_555
Ba4 O8 2.809025 1_555
Ba4 O44 2.809025 1_545
Ba4 O9 2.809025 1_555
Ba4 O45 2.809025 1_555
Ba4 O42 2.811877 1_555
Ba4 O40 2.811877 1_555
Ba4 O6 2.811877 1_555
Ba4 O4 2.811877 1_545
Ba5 O10 2.809025 1_554
Ba5 O11 2.809025 1_555
Ba5 O46 2.809025 1_555
Ba5 O47 2.809025 1_555
Ba5 O43 2.811877 1_555
Ba5 O5 2.811877 1_555
Ba5 O41 2.811877 1_554
Ba5 O7 2.811877 1_555
Ba6 O12 2.809025 1_555
Ba6 O13 2.809025 1_555
Ba6 O28 2.809025 1_655
Ba6 O29 2.809025 1_555
Ba6 O26 2.811877 1_555
Ba6 O22 2.811877 1_555
Ba6 O20 2.811877 1_655
Ba6 O24 2.811877 1_555
Ba7 O14 2.809025 1_565
Ba7 O30 2.809025 1_555
Ba7 O15 2.809025 1_555
Ba7 O31 2.809025 1_555
Ba7 O23 2.811877 1_555
Ba7 O27 2.811877 1_555
Ba7 O21 2.811877 1_555
Ba7 O25 2.811877 1_565
Ba8 O25 2.809025 1_555
Ba8 O16 2.809025 1_555
Ba8 O24 2.809025 1_556
Ba8 O17 2.809025 1_555
Ba8 O34 2.811877 1_555
Ba8 O14 2.811877 1_555
Ba8 O12 2.811877 1_556
Ba8 O32 2.811877 1_555
Ba9 O18 2.809025 1_655
Ba9 O26 2.809025 1_555
Ba9 O27 2.809025 1_555
Ba9 O19 2.809025 1_555
Ba9 O15 2.811877 1_555
Ba9 O35 2.811877 1_555
Ba9 O33 2.811877 1_655
Ba9 O13 2.811877 1_555
Ba10 O21 2.809025 1_555
Ba10 O20 2.809025 1_555
Ba10 O32 2.809025 1_565
Ba10 O33 2.809025 1_555
Ba10 O18 2.811877 1_555
Ba10 O30 2.811877 1_555
Ba10 O28 2.811877 1_555
Ba10 O16 2.811877 1_565
Ba11 O34 2.809025 1_555
Ba11 O22 2.809025 1_556
Ba11 O23 2.809025 1_555
Ba11 O35 2.809025 1_555
Ba11 O31 2.811877 1_555
Ba11 O19 2.811877 1_555
Ba11 O17 2.811877 1_555
Ba11 O29 2.811877 1_556
Al0 O24 1.864693 1_455
Al0 O29 1.864693 1_455
Al0 O36 1.864693 1_554
Al0 O46 1.864693 1_555
Al0 O41 1.864693 1_554
Al0 O34 1.864693 1_454
Al1 O28 1.864693 1_545
Al1 O33 1.864693 1_545
Al1 O45 1.864693 1_455
Al1 O40 1.864693 1_455
Al1 O38 1.864693 1_555
Al1 O26 1.864693 1_445
Al2 O32 1.864693 1_554
Al2 O25 1.864693 1_554
Al2 O37 1.864693 1_545
Al2 O44 1.864693 1_545
Al2 O42 1.864693 1_555
Al2 O30 1.864693 1_544
Al3 O39 1.864693 1_555
Al3 O47 1.864693 1_555
Al3 O43 1.864693 1_555
Al3 O27 1.864693 1_555
Al3 O31 1.864693 1_555
Al3 O35 1.864693 1_555
Al4 O17 1.864693 1_554
Al4 O12 1.864693 1_555
Al4 O5 1.864693 1_555
Al4 O10 1.864693 1_554
Al4 O0 1.864693 1_554
Al4 O22 1.864693 1_555
Al5 O16 1.864693 1_555
Al5 O21 1.864693 1_545
Al5 O2 1.864693 1_545
Al5 O9 1.864693 1_555
Al5 O4 1.864693 1_545
Al5 O14 1.864693 1_555
Al6 O20 1.864693 1_555
Al6 O13 1.864693 1_455
Al6 O8 1.864693 1_455
Al6 O1 1.864693 1_555
Al6 O6 1.864693 1_455
Al6 O18 1.864693 1_555
Al7 O11 1.864693 1_555
Al7 O3 1.864693 1_555
Al7 O7 1.864693 1_555
Al7 O23 1.864693 1_444
Al7 O15 1.864693 1_444
Al7 O19 1.864693 1_444
