# generated using pymatgen
data_Th3In5
_symmetry_space_group_name_H-M   'P 1'
_cell_length_a   6.61431302
_cell_length_b   6.61441141
_cell_length_c   10.40213339
_cell_angle_alpha   90.00023303
_cell_angle_beta   90.00087502
_cell_angle_gamma   102.33857712
_symmetry_Int_Tables_number   1
_chemical_formula_structural   Th3In5
_chemical_formula_sum   'Th6 In10'
_cell_volume   444.57939427
_cell_formula_units_Z   2
loop_
 _symmetry_equiv_pos_site_id
 _symmetry_equiv_pos_as_xyz
  1  'x, y, z'
loop_
 _atom_site_type_symbol
 _atom_site_label
 _atom_site_symmetry_multiplicity
 _atom_site_fract_x
 _atom_site_fract_y
 _atom_site_fract_z
 _atom_site_occupancy
  Th  Th0  1  0.63245965  0.63245965  0.24988030  1
  Th  Th1  1  0.36753457  0.36753457  0.75011901  1
  Th  Th2  1  0.79359226  0.20640045  0.50003913  1
  Th  Th3  1  0.79357152  0.20641246  -0.00003608  1
  Th  Th4  1  0.20639945  0.79359126  0.50004013  1
  Th  Th5  1  0.20641246  0.79357252  -0.00003608  1
  In  In0  1  0.01853317  0.01853317  0.24995733  1
  In  In1  1  0.98145050  0.98145150  0.75004434  1
  In  In2  1  0.30729619  0.30729719  0.05084168  1
  In  In3  1  0.69270531  0.69270431  0.94914699  1
  In  In4  1  0.30736826  0.30736826  0.44920699  1
  In  In5  1  0.69262600  0.69262600  0.55079116  1
  In  In6  1  0.07488035  0.49206924  0.24998252  1
  In  In7  1  0.50795693  0.92514114  0.75002153  1
  In  In8  1  0.92514214  0.50795693  0.75002153  1
  In  In9  1  0.49206924  0.07488135  0.24998252  1
loop_
_geom_bond_atom_site_label_1
_geom_bond_atom_site_label_2
_geom_bond_distance
_geom_bond_site_symmetry_2
In0 In9 3.074111 1_555
In0 In6 3.074158 1_555
In0 In2 3.166567 1_555
In0 In4 3.167879 1_555
In0 Th0 3.202362 1_445
In0 Th3 3.363178 1_455
In0 Th5 3.363201 1_545
In0 Th4 3.363796 1_545
In0 Th2 3.363808 1_455
In0 In9 3.580402 1_455
In0 In6 3.580450 1_545
In1 In7 3.073856 1_555
In1 In8 3.073910 1_555
In1 In3 3.166369 1_555
In1 In5 3.167840 1_555
In1 Th1 3.202445 1_665
In1 Th5 3.362585 1_656
In1 Th3 3.362608 1_566
In1 Th2 3.363171 1_565
In1 Th4 3.363190 1_655
In1 In7 3.580604 1_655
In1 In8 3.580643 1_565
In2 In9 2.991803 1_555
In2 In6 2.991817 1_555
In2 Th1 3.167818 1_554
In2 Th3 3.361881 1_455
In2 Th5 3.361935 1_545
In2 In3 3.367334 1_554
In2 Th0 3.400145 1_555
In2 Th3 3.462336 1_555
In2 Th5 3.462369 1_555
In3 In7 2.991692 1_555
In3 In8 2.991705 1_555
In3 Th0 3.167937 1_556
In3 Th5 3.361671 1_656
In3 Th3 3.361731 1_566
In3 Th1 3.400126 1_555
In3 Th5 3.462309 1_556
In3 Th3 3.462333 1_556
In4 In6 2.992437 1_555
In4 In9 2.992459 1_555
In4 Th1 3.169654 1_555
In4 Th2 3.362142 1_455
In4 Th4 3.362194 1_545
In4 In5 3.365757 1_555
In4 Th0 3.401551 1_555
In4 Th2 3.462135 1_555
In4 Th4 3.462181 1_555
In5 In8 2.992482 1_555
In5 In7 2.992504 1_555
In5 Th0 3.169642 1_555
In5 Th4 3.361994 1_655
In5 Th2 3.362046 1_565
In5 Th1 3.401558 1_555
In5 Th4 3.462016 1_555
In5 Th2 3.462062 1_555
In6 Th0 3.253755 1_455
In6 Th5 3.279693 1_555
In6 Th4 3.280037 1_555
In6 Th3 3.506165 1_455
In6 Th2 3.506489 1_455
In6 Th0 3.605558 1_555
In7 Th1 3.253718 1_565
In7 Th5 3.279242 1_556
In7 Th4 3.279541 1_555
In7 Th3 3.505354 1_566
In7 Th2 3.505742 1_565
In7 Th1 3.605793 1_555
In8 Th1 3.253677 1_655
In8 Th3 3.279249 1_556
In8 Th2 3.279570 1_555
In8 Th5 3.505355 1_656
In8 Th4 3.505727 1_655
In8 Th1 3.605747 1_555
In9 Th0 3.253797 1_545
In9 Th3 3.279683 1_555
In9 Th2 3.280008 1_555
In9 Th5 3.506164 1_545
In9 Th4 3.506504 1_545
In9 Th0 3.605604 1_555
