# generated using pymatgen
data_Zr3Zn2
_symmetry_space_group_name_H-M   'P 1'
_cell_length_a   7.57040197
_cell_length_b   7.57040197
_cell_length_c   6.85102200
_cell_angle_alpha   90.00000000
_cell_angle_beta   90.00000000
_cell_angle_gamma   90.00000000
_symmetry_Int_Tables_number   1
_chemical_formula_structural   Zr3Zn2
_chemical_formula_sum   'Zr12 Zn8'
_cell_volume   392.63882584
_cell_formula_units_Z   4
loop_
 _symmetry_equiv_pos_site_id
 _symmetry_equiv_pos_as_xyz
  1  'x, y, z'
loop_
 _atom_site_type_symbol
 _atom_site_label
 _atom_site_symmetry_multiplicity
 _atom_site_fract_x
 _atom_site_fract_y
 _atom_site_fract_z
 _atom_site_occupancy
  Zr  Zr0  1  0.50000000  0.00000000  0.25000000  1
  Zr  Zr1  1  0.50000000  0.00000000  0.75000000  1
  Zr  Zr2  1  0.00000000  0.50000000  0.25000000  1
  Zr  Zr3  1  0.00000000  0.50000000  0.75000000  1
  Zr  Zr4  1  0.70456841  0.29527458  0.00008747  1
  Zr  Zr5  1  0.29543159  0.70472542  0.00008747  1
  Zr  Zr6  1  0.79527458  0.79543159  0.49991253  1
  Zr  Zr7  1  0.20472542  0.20456841  0.49991253  1
  Zr  Zr8  1  0.14813309  0.14815916  0.00005093  1
  Zr  Zr9  1  0.85186691  0.85184084  0.00005093  1
  Zr  Zr10  1  0.64815916  0.35186691  0.49994907  1
  Zr  Zr11  1  0.35184084  0.64813309  0.49994907  1
  Zn  Zn0  1  0.37808259  0.37850282  0.19530174  1
  Zn  Zn1  1  0.62191093  0.62148568  0.80478136  1
  Zn  Zn2  1  0.62191741  0.62149718  0.19530174  1
  Zn  Zn3  1  0.87851432  0.12191093  0.69521864  1
  Zn  Zn4  1  0.87850282  0.12191741  0.30469826  1
  Zn  Zn5  1  0.37808907  0.37851432  0.80478136  1
  Zn  Zn6  1  0.12149718  0.87808259  0.30469826  1
  Zn  Zn7  1  0.12148568  0.87808907  0.69521864  1
loop_
_geom_bond_atom_site_label_1
_geom_bond_atom_site_label_2
_geom_bond_distance
_geom_bond_site_symmetry_2
Zn0 Zn2 2.606041 1_555
Zn0 Zn5 2.675464 1_554
Zn0 Zr7 2.794874 1_555
Zn0 Zr8 2.803675 1_555
Zn0 Zr5 2.877376 1_555
Zn0 Zr4 2.880039 1_555
Zn0 Zr11 2.926120 1_555
Zn0 Zr10 2.928682 1_555
Zn0 Zr2 3.029659 1_555
Zn0 Zr0 3.033631 1_555
Zn1 Zn5 2.605848 1_555
Zn1 Zn2 2.675464 1_556
Zn1 Zr6 2.796258 1_555
Zn1 Zr9 2.803821 1_556
Zn1 Zr4 2.877604 1_556
Zn1 Zr5 2.880308 1_556
Zn1 Zr10 2.926967 1_555
Zn1 Zr11 2.929557 1_555
Zn1 Zr3 3.029749 1_655
Zn1 Zr1 3.033768 1_565
Zn2 Zr6 2.794874 1_555
Zn2 Zr9 2.803675 1_555
Zn2 Zr4 2.877376 1_555
Zn2 Zr5 2.880039 1_555
Zn2 Zr10 2.926120 1_555
Zn2 Zr11 2.928682 1_555
Zn2 Zr2 3.029659 1_655
Zn2 Zr0 3.033631 1_565
Zn3 Zn7 2.605848 1_645
Zn3 Zn4 2.675464 1_555
Zn3 Zr4 2.796258 1_556
Zn3 Zr10 2.803821 1_555
Zn3 Zr7 2.877604 1_655
Zn3 Zr6 2.880308 1_545
Zn3 Zr8 2.926967 1_656
Zn3 Zr9 2.929557 1_546
Zn3 Zr3 3.029749 1_655
Zn3 Zr1 3.033768 1_555
Zn4 Zn6 2.606041 1_645
Zn4 Zr4 2.794874 1_555
Zn4 Zr10 2.803675 1_555
Zn4 Zr7 2.877376 1_655
Zn4 Zr6 2.880039 1_545
Zn4 Zr8 2.926120 1_655
Zn4 Zr9 2.928682 1_545
Zn4 Zr2 3.029659 1_655
Zn4 Zr0 3.033631 1_555
Zn5 Zr7 2.796258 1_555
Zn5 Zr8 2.803821 1_556
Zn5 Zr5 2.877604 1_556
Zn5 Zr4 2.880308 1_556
Zn5 Zr11 2.926967 1_555
Zn5 Zr10 2.929557 1_555
Zn5 Zr3 3.029749 1_555
Zn5 Zr1 3.033768 1_555
Zn6 Zn7 2.675464 1_555
Zn6 Zr5 2.794874 1_555
Zn6 Zr11 2.803675 1_555
Zn6 Zr6 2.877376 1_455
Zn6 Zr7 2.880039 1_565
Zn6 Zr9 2.926120 1_455
Zn6 Zr8 2.928682 1_565
Zn6 Zr2 3.029659 1_555
Zn6 Zr0 3.033631 1_565
Zn7 Zr5 2.796258 1_556
Zn7 Zr11 2.803821 1_555
Zn7 Zr6 2.877604 1_455
Zn7 Zr7 2.880308 1_565
Zn7 Zr9 2.926967 1_456
Zn7 Zr8 2.929557 1_566
Zn7 Zr3 3.029749 1_555
Zn7 Zr1 3.033768 1_565
