# generated using pymatgen
data_Cr
_symmetry_space_group_name_H-M   'P 1'
_cell_length_a   4.55639800
_cell_length_b   8.59945100
_cell_length_c   8.59945100
_cell_angle_alpha   90.00000000
_cell_angle_beta   90.00000000
_cell_angle_gamma   90.00000000
_symmetry_Int_Tables_number   1
_chemical_formula_structural   Cr
_chemical_formula_sum   Cr28
_cell_volume   336.94817230
_cell_formula_units_Z   28
loop_
 _symmetry_equiv_pos_site_id
 _symmetry_equiv_pos_as_xyz
  1  'x, y, z'
loop_
 _atom_site_type_symbol
 _atom_site_label
 _atom_site_symmetry_multiplicity
 _atom_site_fract_x
 _atom_site_fract_y
 _atom_site_fract_z
 _atom_site_occupancy
  Cr  Cr0  1  0.50000000  0.10286200  0.89713800  1
  Cr  Cr1  1  0.50000000  0.89713800  0.10286200  1
  Cr  Cr2  1  0.00000000  0.39713800  0.39713800  1
  Cr  Cr3  1  0.00000000  0.60286200  0.60286200  1
  Cr  Cr4  1  0.50000000  0.37384400  0.96538200  1
  Cr  Cr5  1  0.50000000  0.62615600  0.03461800  1
  Cr  Cr6  1  0.00000000  0.12615600  0.46538200  1
  Cr  Cr7  1  0.00000000  0.87384400  0.53461800  1
  Cr  Cr8  1  0.50000000  0.96538200  0.37384400  1
  Cr  Cr9  1  0.50000000  0.03461800  0.62615600  1
  Cr  Cr10  1  0.00000000  0.46538200  0.12615600  1
  Cr  Cr11  1  0.00000000  0.53461800  0.87384400  1
  Cr  Cr12  1  0.50000000  0.44495900  0.25567600  1
  Cr  Cr13  1  0.50000000  0.55504100  0.74432400  1
  Cr  Cr14  1  0.00000000  0.05504100  0.75567600  1
  Cr  Cr15  1  0.00000000  0.94495900  0.24432400  1
  Cr  Cr16  1  0.50000000  0.25567600  0.44495900  1
  Cr  Cr17  1  0.50000000  0.74432400  0.55504100  1
  Cr  Cr18  1  0.00000000  0.75567600  0.05504100  1
  Cr  Cr19  1  0.00000000  0.24432400  0.94495900  1
  Cr  Cr20  1  0.24578900  0.31277400  0.68722600  1
  Cr  Cr21  1  0.24578900  0.68722600  0.31277400  1
  Cr  Cr22  1  0.74578900  0.18722600  0.18722600  1
  Cr  Cr23  1  0.74578900  0.81277400  0.81277400  1
  Cr  Cr24  1  0.75421100  0.68722600  0.31277400  1
  Cr  Cr25  1  0.75421100  0.31277400  0.68722600  1
  Cr  Cr26  1  0.25421100  0.81277400  0.81277400  1
  Cr  Cr27  1  0.25421100  0.18722600  0.18722600  1
loop_
_geom_bond_atom_site_label_1
_geom_bond_atom_site_label_2
_geom_bond_distance
_geom_bond_site_symmetry_2
Cr0 Cr9 2.403058 1_555
Cr0 Cr4 2.403058 1_555
Cr0 Cr1 2.501904 1_546
Cr0 Cr19 2.615180 1_655
Cr0 Cr14 2.615180 1_555
Cr0 Cr14 2.615180 1_655
Cr0 Cr19 2.615180 1_555
Cr0 Cr25 2.803320 1_555
Cr0 Cr20 2.803320 1_555
Cr0 Cr22 2.829054 1_556
Cr0 Cr27 2.829054 1_556
Cr0 Cr23 2.829054 1_545
Cr0 Cr26 2.829054 1_545
Cr1 Cr5 2.403058 1_555
Cr1 Cr8 2.403058 1_555
Cr1 Cr15 2.615180 1_555
Cr1 Cr18 2.615180 1_655
Cr1 Cr18 2.615180 1_555
Cr1 Cr15 2.615180 1_655
Cr1 Cr24 2.803320 1_555
Cr1 Cr21 2.803320 1_555
Cr1 Cr27 2.829054 1_565
Cr1 Cr22 2.829054 1_565
Cr1 Cr26 2.829054 1_554
Cr1 Cr23 2.829054 1_554
Cr2 Cr6 2.403058 1_555
Cr2 Cr3 2.501904 1_555
Cr2 Cr27 2.803320 1_555
Cr2 Cr22 2.803320 1_455
Cr2 Cr21 2.829054 1_555
Cr2 Cr24 2.829054 1_455
Cr2 Cr20 2.829054 1_555
Cr2 Cr25 2.829054 1_455
Cr3 Cr7 2.403058 1_555
Cr4 Cr5 2.249952 1_556
Cr6 Cr7 2.249952 1_545
Cr6 Cr9 2.778729 1_555
Cr6 Cr8 2.778729 1_545
Cr6 Cr9 2.778729 1_455
Cr6 Cr8 2.778729 1_445
Cr7 Cr8 2.778729 1_555
Cr7 Cr8 2.778729 1_455
Cr7 Cr9 2.778729 1_465
Cr7 Cr9 2.778729 1_565
Cr8 Cr9 2.249952 1_565
Cr10 Cr11 2.249952 1_554
Cr10 Cr2 2.403058 1_555
Cr10 Cr19 2.457984 1_554
Cr10 Cr12 2.541965 1_555
Cr10 Cr12 2.541965 1_455
Cr10 Cr18 2.570185 1_555
Cr10 Cr22 2.709066 1_455
Cr10 Cr27 2.709066 1_555
Cr10 Cr21 2.732963 1_555
Cr10 Cr24 2.732963 1_455
Cr10 Cr4 2.778729 1_554
Cr10 Cr4 2.778729 1_454
Cr10 Cr5 2.778729 1_455
Cr10 Cr5 2.778729 1_555
Cr11 Cr3 2.403058 1_555
Cr11 Cr18 2.457984 1_556
Cr11 Cr13 2.541965 1_555
Cr11 Cr13 2.541965 1_455
Cr11 Cr19 2.570185 1_555
Cr11 Cr23 2.709066 1_455
Cr11 Cr26 2.709066 1_555
Cr11 Cr20 2.732963 1_555
Cr11 Cr25 2.732963 1_455
Cr11 Cr4 2.778729 1_455
Cr11 Cr4 2.778729 1_555
Cr11 Cr5 2.778729 1_556
Cr11 Cr5 2.778729 1_456
Cr12 Cr16 2.301958 1_555
Cr12 Cr24 2.433747 1_555
Cr12 Cr21 2.433747 1_555
Cr12 Cr5 2.457984 1_555
Cr12 Cr27 2.552049 1_555
Cr12 Cr22 2.552049 1_555
Cr12 Cr4 2.570185 1_554
Cr12 Cr2 2.615180 1_655
Cr12 Cr2 2.615180 1_555
Cr13 Cr17 2.301958 1_555
Cr13 Cr20 2.433747 1_555
Cr13 Cr25 2.433747 1_555
Cr13 Cr4 2.457984 1_555
Cr13 Cr26 2.552049 1_555
Cr13 Cr23 2.552049 1_555
Cr13 Cr5 2.570185 1_556
Cr13 Cr3 2.615180 1_655
Cr13 Cr3 2.615180 1_555
Cr14 Cr19 2.301958 1_555
Cr14 Cr23 2.433747 1_445
Cr14 Cr26 2.433747 1_545
Cr14 Cr7 2.457984 1_545
Cr14 Cr9 2.541965 1_455
Cr14 Cr9 2.541965 1_555
Cr14 Cr25 2.552049 1_455
Cr14 Cr20 2.552049 1_555
Cr14 Cr6 2.570185 1_555
Cr15 Cr18 2.301958 1_555
Cr15 Cr27 2.433747 1_565
Cr15 Cr22 2.433747 1_465
Cr15 Cr6 2.457984 1_565
Cr15 Cr8 2.541965 1_455
Cr15 Cr8 2.541965 1_555
Cr15 Cr21 2.552049 1_555
Cr15 Cr24 2.552049 1_455
Cr15 Cr7 2.570185 1_555
Cr16 Cr20 2.433747 1_555
Cr16 Cr25 2.433747 1_555
Cr16 Cr9 2.457984 1_555
Cr16 Cr6 2.541965 1_655
Cr16 Cr6 2.541965 1_555
Cr16 Cr27 2.552049 1_555
Cr16 Cr22 2.552049 1_555
Cr16 Cr8 2.570185 1_545
Cr16 Cr2 2.615180 1_655
Cr16 Cr2 2.615180 1_555
Cr17 Cr24 2.433747 1_555
Cr17 Cr21 2.433747 1_555
Cr17 Cr8 2.457984 1_555
Cr17 Cr7 2.541965 1_555
Cr17 Cr7 2.541965 1_655
Cr17 Cr26 2.552049 1_555
Cr17 Cr23 2.552049 1_555
Cr17 Cr9 2.570185 1_565
Cr17 Cr3 2.615180 1_655
Cr17 Cr3 2.615180 1_555
Cr18 Cr23 2.433747 1_454
Cr18 Cr26 2.433747 1_554
Cr18 Cr5 2.541965 1_555
Cr18 Cr5 2.541965 1_455
Cr18 Cr21 2.552049 1_555
Cr18 Cr24 2.552049 1_455
Cr19 Cr27 2.433747 1_556
Cr19 Cr22 2.433747 1_456
Cr19 Cr4 2.541965 1_455
Cr19 Cr4 2.541965 1_555
Cr19 Cr20 2.552049 1_555
Cr19 Cr25 2.552049 1_455
Cr20 Cr25 2.239825 1_455
Cr20 Cr25 2.316573 1_555
Cr20 Cr4 2.709066 1_555
Cr20 Cr9 2.709066 1_555
Cr20 Cr6 2.732963 1_555
Cr20 Cr3 2.829054 1_555
Cr21 Cr24 2.239825 1_455
Cr21 Cr24 2.316573 1_555
Cr21 Cr8 2.709066 1_555
Cr21 Cr5 2.709066 1_555
Cr21 Cr7 2.732963 1_555
Cr21 Cr3 2.829054 1_555
Cr22 Cr27 2.239825 1_555
Cr22 Cr27 2.316573 1_655
Cr22 Cr6 2.709066 1_655
Cr22 Cr4 2.732963 1_554
Cr22 Cr8 2.732963 1_545
Cr23 Cr26 2.239825 1_555
Cr23 Cr26 2.316573 1_655
Cr23 Cr7 2.709066 1_655
Cr23 Cr5 2.732963 1_556
Cr23 Cr9 2.732963 1_565
Cr23 Cr3 2.803320 1_655
Cr24 Cr8 2.709066 1_555
Cr24 Cr5 2.709066 1_555
Cr24 Cr7 2.732963 1_655
Cr24 Cr3 2.829054 1_655
Cr25 Cr4 2.709066 1_555
Cr25 Cr9 2.709066 1_555
Cr25 Cr6 2.732963 1_655
Cr25 Cr3 2.829054 1_655
Cr26 Cr7 2.709066 1_555
Cr26 Cr9 2.732963 1_565
Cr26 Cr5 2.732963 1_556
Cr26 Cr3 2.803320 1_555
Cr27 Cr6 2.709066 1_555
Cr27 Cr4 2.732963 1_554
Cr27 Cr8 2.732963 1_545
