# generated using pymatgen
data_MgZn2
_symmetry_space_group_name_H-M   'P 1'
_cell_length_a   15.08718589
_cell_length_b   15.08718589
_cell_length_c   9.46863600
_cell_angle_alpha   90.00000000
_cell_angle_beta   90.00000000
_cell_angle_gamma   157.29104154
_symmetry_Int_Tables_number   1
_chemical_formula_structural   MgZn2
_chemical_formula_sum   'Mg16 Zn32'
_cell_volume   832.04684202
_cell_formula_units_Z   16
loop_
 _symmetry_equiv_pos_site_id
 _symmetry_equiv_pos_as_xyz
  1  'x, y, z'
loop_
 _atom_site_type_symbol
 _atom_site_label
 _atom_site_symmetry_multiplicity
 _atom_site_fract_x
 _atom_site_fract_y
 _atom_site_fract_z
 _atom_site_occupancy
  Mg  Mg0_0  1  0.14186350  0.35813650  0.12500000  1
  Mg  Mg0_1  1  0.14186350  0.35813650  0.62500000  1
  Mg  Mg0_2  1  0.14186350  0.85813650  0.12500000  1
  Mg  Mg0_3  1  0.14186350  0.85813650  0.62500000  1
  Mg  Mg0_4  1  0.64186350  0.35813650  0.12500000  1
  Mg  Mg0_5  1  0.64186350  0.35813650  0.62500000  1
  Mg  Mg0_6  1  0.64186350  0.85813650  0.12500000  1
  Mg  Mg0_7  1  0.64186350  0.85813650  0.62500000  1
  Mg  Mg1_0  1  0.35813650  0.14186350  0.37500000  1
  Mg  Mg1_1  1  0.35813650  0.14186350  0.87500000  1
  Mg  Mg1_2  1  0.35813650  0.64186350  0.37500000  1
  Mg  Mg1_3  1  0.35813650  0.64186350  0.87500000  1
  Mg  Mg1_4  1  0.85813650  0.14186350  0.37500000  1
  Mg  Mg1_5  1  0.85813650  0.14186350  0.87500000  1
  Mg  Mg1_6  1  0.85813650  0.64186350  0.37500000  1
  Mg  Mg1_7  1  0.85813650  0.64186350  0.87500000  1
  Zn  Zn0_0  1  0.30379550  0.19620450  0.12500000  1
  Zn  Zn0_1  1  0.30379550  0.19620450  0.62500000  1
  Zn  Zn0_2  1  0.30379550  0.69620450  0.12500000  1
  Zn  Zn0_3  1  0.30379550  0.69620450  0.62500000  1
  Zn  Zn0_4  1  0.80379550  0.19620450  0.12500000  1
  Zn  Zn0_5  1  0.80379550  0.19620450  0.62500000  1
  Zn  Zn0_6  1  0.80379550  0.69620450  0.12500000  1
  Zn  Zn0_7  1  0.80379550  0.69620450  0.62500000  1
  Zn  Zn1_0  1  0.47555400  0.02444600  0.12500000  1
  Zn  Zn1_1  1  0.47555400  0.02444600  0.62500000  1
  Zn  Zn1_2  1  0.47555400  0.52444600  0.12500000  1
  Zn  Zn1_3  1  0.47555400  0.52444600  0.62500000  1
  Zn  Zn1_4  1  0.97555400  0.02444600  0.12500000  1
  Zn  Zn1_5  1  0.97555400  0.02444600  0.62500000  1
  Zn  Zn1_6  1  0.97555400  0.52444600  0.12500000  1
  Zn  Zn1_7  1  0.97555400  0.52444600  0.62500000  1
  Zn  Zn2_0  1  0.02444600  0.47555400  0.37500000  1
  Zn  Zn2_1  1  0.02444600  0.47555400  0.87500000  1
  Zn  Zn2_2  1  0.02444600  0.97555400  0.37500000  1
  Zn  Zn2_3  1  0.02444600  0.97555400  0.87500000  1
  Zn  Zn2_4  1  0.52444600  0.47555400  0.37500000  1
  Zn  Zn2_5  1  0.52444600  0.47555400  0.87500000  1
  Zn  Zn2_6  1  0.52444600  0.97555400  0.37500000  1
  Zn  Zn2_7  1  0.52444600  0.97555400  0.87500000  1
  Zn  Zn3_0  1  0.19620450  0.30379550  0.37500000  1
  Zn  Zn3_1  1  0.19620450  0.30379550  0.87500000  1
  Zn  Zn3_2  1  0.19620450  0.80379550  0.37500000  1
  Zn  Zn3_3  1  0.19620450  0.80379550  0.87500000  1
  Zn  Zn3_4  1  0.69620450  0.30379550  0.37500000  1
  Zn  Zn3_5  1  0.69620450  0.30379550  0.87500000  1
  Zn  Zn3_6  1  0.69620450  0.80379550  0.37500000  1
  Zn  Zn3_7  1  0.69620450  0.80379550  0.87500000  1
loop_
_geom_bond_atom_site_label_1
_geom_bond_atom_site_label_2
_geom_bond_distance
_geom_bond_site_symmetry_2
Mg0_0 Zn3_0 2.861444 1_555
Mg0_0 Zn3_1 2.861444 1_554
Mg0_0 Zn1_2 2.887166 1_555
Mg0_0 Zn1_4 2.887166 1_455
Mg0_0 Mg1_4 2.967276 1_455
Mg0_0 Mg1_5 2.967276 1_454
Mg0_0 Mg1_2 2.967276 1_555
Mg0_0 Mg1_3 2.967276 1_554
Mg0_0 Mg0_6 2.970342 1_445
Mg0_0 Mg0_6 2.970342 1_555
Mg0_0 Zn0_4 2.998961 1_455
Mg0_0 Zn0_2 2.998961 1_555
Mg0_1 Zn3_0 2.861444 1_555
Mg0_1 Zn3_1 2.861444 1_555
Mg0_1 Zn1_3 2.887166 1_555
Mg0_1 Zn1_5 2.887166 1_455
Mg0_1 Mg1_4 2.967276 1_455
Mg0_1 Mg1_5 2.967276 1_455
Mg0_1 Mg1_2 2.967276 1_555
Mg0_1 Mg1_3 2.967276 1_555
Mg0_1 Mg0_7 2.970342 1_445
Mg0_1 Mg0_7 2.970342 1_555
Mg0_1 Zn0_5 2.998961 1_455
Mg0_1 Zn0_3 2.998961 1_555
Mg0_2 Zn3_3 2.861444 1_554
Mg0_2 Zn3_2 2.861444 1_555
Mg0_2 Zn1_0 2.887166 1_565
Mg0_2 Zn1_6 2.887166 1_455
Mg0_2 Mg1_1 2.967276 1_564
Mg0_2 Mg1_0 2.967276 1_565
Mg0_2 Mg1_6 2.967276 1_455
Mg0_2 Mg1_7 2.967276 1_454
Mg0_2 Mg0_4 2.970342 1_455
Mg0_2 Mg0_4 2.970342 1_565
Mg0_2 Zn0_6 2.998961 1_455
Mg0_2 Zn0_0 2.998961 1_565
Mg0_3 Zn3_3 2.861444 1_555
Mg0_3 Zn3_2 2.861444 1_555
Mg0_3 Zn1_1 2.887166 1_565
Mg0_3 Zn1_7 2.887166 1_455
Mg0_3 Mg1_1 2.967276 1_565
Mg0_3 Mg1_0 2.967276 1_565
Mg0_3 Mg1_7 2.967276 1_455
Mg0_3 Mg1_6 2.967276 1_455
Mg0_3 Mg0_5 2.970342 1_455
Mg0_3 Mg0_5 2.970342 1_565
Mg0_3 Zn0_7 2.998961 1_455
Mg0_3 Zn0_1 2.998961 1_565
Mg0_4 Zn3_4 2.861444 1_555
Mg0_4 Zn3_5 2.861444 1_554
Mg0_4 Zn1_0 2.887166 1_555
Mg0_4 Zn1_6 2.887166 1_555
Mg0_4 Mg1_1 2.967276 1_554
Mg0_4 Mg1_0 2.967276 1_555
Mg0_4 Mg1_7 2.967276 1_554
Mg0_4 Mg1_6 2.967276 1_555
Mg0_4 Zn0_0 2.998961 1_555
Mg0_4 Zn0_6 2.998961 1_555
Mg0_5 Zn3_4 2.861444 1_555
Mg0_5 Zn3_5 2.861444 1_555
Mg0_5 Zn1_1 2.887166 1_555
Mg0_5 Zn1_7 2.887166 1_555
Mg0_5 Mg1_7 2.967276 1_555
Mg0_5 Mg1_1 2.967276 1_555
Mg0_5 Mg1_0 2.967276 1_555
Mg0_5 Mg1_6 2.967276 1_555
Mg0_5 Zn0_1 2.998961 1_555
Mg0_5 Zn0_7 2.998961 1_555
Mg0_6 Zn3_6 2.861444 1_555
Mg0_6 Zn3_7 2.861444 1_554
Mg0_6 Zn1_2 2.887166 1_555
Mg0_6 Zn1_4 2.887166 1_565
Mg0_6 Mg1_4 2.967276 1_565
Mg0_6 Mg1_5 2.967276 1_564
Mg0_6 Mg1_2 2.967276 1_555
Mg0_6 Mg1_3 2.967276 1_554
Mg0_6 Zn0_2 2.998961 1_555
Mg0_6 Zn0_4 2.998961 1_565
Mg0_7 Zn3_6 2.861444 1_555
Mg0_7 Zn3_7 2.861444 1_555
Mg0_7 Zn1_5 2.887166 1_565
Mg0_7 Zn1_3 2.887166 1_555
Mg0_7 Mg1_4 2.967276 1_565
Mg0_7 Mg1_5 2.967276 1_565
Mg0_7 Mg1_2 2.967276 1_555
Mg0_7 Mg1_3 2.967276 1_555
Mg0_7 Zn0_3 2.998961 1_555
Mg0_7 Zn0_5 2.998961 1_565
Mg1_0 Zn0_1 2.861444 1_555
Mg1_0 Zn0_0 2.861444 1_555
Mg1_0 Zn2_2 2.887166 1_545
Mg1_0 Zn2_4 2.887166 1_555
Mg1_0 Mg1_6 2.970342 1_555
Mg1_0 Mg1_6 2.970342 1_445
Mg1_0 Zn3_2 2.998961 1_545
Mg1_0 Zn3_4 2.998961 1_555
Mg1_1 Zn0_1 2.861444 1_555
Mg1_1 Zn0_0 2.861444 1_556
Mg1_1 Zn2_3 2.887166 1_545
Mg1_1 Zn2_5 2.887166 1_555
Mg1_1 Mg1_7 2.970342 1_445
Mg1_1 Mg1_7 2.970342 1_555
Mg1_1 Zn3_3 2.998961 1_545
Mg1_1 Zn3_5 2.998961 1_555
Mg1_2 Zn0_2 2.861444 1_555
Mg1_2 Zn0_3 2.861444 1_555
Mg1_2 Zn2_0 2.887166 1_555
Mg1_2 Zn2_6 2.887166 1_555
Mg1_2 Mg1_4 2.970342 1_565
Mg1_2 Mg1_4 2.970342 1_455
Mg1_2 Zn3_0 2.998961 1_555
Mg1_2 Zn3_6 2.998961 1_555
Mg1_3 Zn0_3 2.861444 1_555
Mg1_3 Zn0_2 2.861444 1_556
Mg1_3 Zn2_1 2.887166 1_555
Mg1_3 Zn2_7 2.887166 1_555
Mg1_3 Mg1_5 2.970342 1_565
Mg1_3 Mg1_5 2.970342 1_455
Mg1_3 Zn3_1 2.998961 1_555
Mg1_3 Zn3_7 2.998961 1_555
Mg1_4 Zn0_5 2.861444 1_555
Mg1_4 Zn0_4 2.861444 1_555
Mg1_4 Zn2_6 2.887166 1_545
Mg1_4 Zn2_0 2.887166 1_655
Mg1_4 Zn3_0 2.998961 1_655
Mg1_4 Zn3_6 2.998961 1_545
Mg1_5 Zn0_4 2.861444 1_556
Mg1_5 Zn0_5 2.861444 1_555
Mg1_5 Zn2_7 2.887166 1_545
Mg1_5 Zn2_1 2.887166 1_655
Mg1_5 Zn3_1 2.998961 1_655
Mg1_5 Zn3_7 2.998961 1_545
Mg1_6 Zn0_6 2.861444 1_555
Mg1_6 Zn0_7 2.861444 1_555
Mg1_6 Zn2_4 2.887166 1_555
Mg1_6 Zn2_2 2.887166 1_655
Mg1_6 Zn3_2 2.998961 1_655
Mg1_6 Zn3_4 2.998961 1_555
Mg1_7 Zn0_6 2.861444 1_556
Mg1_7 Zn0_7 2.861444 1_555
Mg1_7 Zn2_5 2.887166 1_555
Mg1_7 Zn2_3 2.887166 1_655
Mg1_7 Zn3_3 2.998961 1_655
Mg1_7 Zn3_5 2.998961 1_555
Zn0_0 Zn1_2 2.750178 1_555
Zn0_0 Zn1_4 2.750178 1_455
Zn0_0 Zn2_4 2.926272 1_555
Zn0_0 Zn2_5 2.926272 1_554
Zn0_0 Zn2_2 2.926272 1_545
Zn0_0 Zn2_3 2.926272 1_544
Zn0_0 Zn0_6 2.970342 1_445
Zn0_0 Zn0_6 2.970342 1_555
Zn0_1 Zn1_3 2.750178 1_555
Zn0_1 Zn1_5 2.750178 1_455
Zn0_1 Zn2_4 2.926272 1_555
Zn0_1 Zn2_5 2.926272 1_555
Zn0_1 Zn2_2 2.926272 1_545
Zn0_1 Zn2_3 2.926272 1_545
Zn0_1 Zn0_7 2.970342 1_555
Zn0_1 Zn0_7 2.970342 1_445
Zn0_2 Zn1_6 2.750178 1_455
Zn0_2 Zn1_0 2.750178 1_565
Zn0_2 Zn2_0 2.926272 1_555
Zn0_2 Zn2_1 2.926272 1_554
Zn0_2 Zn2_6 2.926272 1_555
Zn0_2 Zn2_7 2.926272 1_554
Zn0_2 Zn0_4 2.970342 1_565
Zn0_2 Zn0_4 2.970342 1_455
Zn0_3 Zn1_7 2.750178 1_455
Zn0_3 Zn1_1 2.750178 1_565
Zn0_3 Zn2_0 2.926272 1_555
Zn0_3 Zn2_1 2.926272 1_555
Zn0_3 Zn2_6 2.926272 1_555
Zn0_3 Zn2_7 2.926272 1_555
Zn0_3 Zn0_5 2.970342 1_565
Zn0_3 Zn0_5 2.970342 1_455
Zn0_4 Zn1_6 2.750178 1_555
Zn0_4 Zn1_0 2.750178 1_555
Zn0_4 Zn2_0 2.926272 1_655
Zn0_4 Zn2_1 2.926272 1_654
Zn0_4 Zn2_6 2.926272 1_545
Zn0_4 Zn2_7 2.926272 1_544
Zn0_5 Zn1_7 2.750178 1_555
Zn0_5 Zn1_1 2.750178 1_555
Zn0_5 Zn2_0 2.926272 1_655
Zn0_5 Zn2_1 2.926272 1_655
Zn0_5 Zn2_6 2.926272 1_545
Zn0_5 Zn2_7 2.926272 1_545
Zn0_6 Zn1_2 2.750178 1_555
Zn0_6 Zn1_4 2.750178 1_565
Zn0_6 Zn2_2 2.926272 1_655
Zn0_6 Zn2_5 2.926272 1_554
Zn0_6 Zn2_3 2.926272 1_654
Zn0_6 Zn2_4 2.926272 1_555
Zn0_7 Zn1_3 2.750178 1_555
Zn0_7 Zn1_5 2.750178 1_565
Zn0_7 Zn2_5 2.926272 1_555
Zn0_7 Zn2_2 2.926272 1_655
Zn0_7 Zn2_3 2.926272 1_655
Zn0_7 Zn2_4 2.926272 1_555
Zn1_0 Zn2_7 2.774085 1_544
Zn1_0 Zn2_6 2.774085 1_545
Zn1_0 Zn3_3 2.926272 1_544
Zn1_0 Zn3_2 2.926272 1_545
Zn1_0 Zn3_5 2.926272 1_554
Zn1_0 Zn3_4 2.926272 1_555
Zn1_0 Zn1_6 2.970342 1_445
Zn1_0 Zn1_6 2.970342 1_555
Zn1_1 Zn2_6 2.774085 1_545
Zn1_1 Zn2_7 2.774085 1_545
Zn1_1 Zn3_2 2.926272 1_545
Zn1_1 Zn3_3 2.926272 1_545
Zn1_1 Zn3_4 2.926272 1_555
Zn1_1 Zn3_5 2.926272 1_555
Zn1_1 Zn1_7 2.970342 1_445
Zn1_1 Zn1_7 2.970342 1_555
Zn1_2 Zn2_4 2.774085 1_555
Zn1_2 Zn2_5 2.774085 1_554
Zn1_2 Zn3_0 2.926272 1_555
Zn1_2 Zn3_1 2.926272 1_554
Zn1_2 Zn3_6 2.926272 1_555
Zn1_2 Zn3_7 2.926272 1_554
Zn1_2 Zn1_4 2.970342 1_455
Zn1_2 Zn1_4 2.970342 1_565
Zn1_3 Zn2_4 2.774085 1_555
Zn1_3 Zn2_5 2.774085 1_555
Zn1_3 Zn3_1 2.926272 1_555
Zn1_3 Zn3_0 2.926272 1_555
Zn1_3 Zn3_6 2.926272 1_555
Zn1_3 Zn3_7 2.926272 1_555
Zn1_3 Zn1_5 2.970342 1_455
Zn1_3 Zn1_5 2.970342 1_565
Zn1_4 Zn2_3 2.774085 1_644
Zn1_4 Zn2_2 2.774085 1_645
Zn1_4 Zn3_6 2.926272 1_545
Zn1_4 Zn3_7 2.926272 1_544
Zn1_4 Zn3_0 2.926272 1_655
Zn1_4 Zn3_1 2.926272 1_654
Zn1_5 Zn2_3 2.774085 1_645
Zn1_5 Zn2_2 2.774085 1_645
Zn1_5 Zn3_7 2.926272 1_545
Zn1_5 Zn3_6 2.926272 1_545
Zn1_5 Zn3_1 2.926272 1_655
Zn1_5 Zn3_0 2.926272 1_655
Zn1_6 Zn2_0 2.774085 1_655
Zn1_6 Zn2_1 2.774085 1_654
Zn1_6 Zn3_3 2.926272 1_654
Zn1_6 Zn3_2 2.926272 1_655
Zn1_6 Zn3_4 2.926272 1_555
Zn1_6 Zn3_5 2.926272 1_554
Zn1_7 Zn2_0 2.774085 1_655
Zn1_7 Zn2_1 2.774085 1_655
Zn1_7 Zn3_3 2.926272 1_655
Zn1_7 Zn3_5 2.926272 1_555
Zn1_7 Zn3_2 2.926272 1_655
Zn1_7 Zn3_4 2.926272 1_555
Zn2_0 Zn3_4 2.750178 1_455
Zn2_0 Zn3_2 2.750178 1_555
Zn2_0 Zn2_6 2.970342 1_555
Zn2_0 Zn2_6 2.970342 1_445
Zn2_1 Zn3_5 2.750178 1_455
Zn2_1 Zn3_3 2.750178 1_555
Zn2_1 Zn2_7 2.970342 1_555
Zn2_1 Zn2_7 2.970342 1_445
Zn2_2 Zn3_6 2.750178 1_455
Zn2_2 Zn3_0 2.750178 1_565
Zn2_2 Zn2_4 2.970342 1_455
Zn2_2 Zn2_4 2.970342 1_565
Zn2_3 Zn3_7 2.750178 1_455
Zn2_3 Zn3_1 2.750178 1_565
Zn2_3 Zn2_5 2.970342 1_565
Zn2_3 Zn2_5 2.970342 1_455
Zn2_4 Zn3_0 2.750178 1_555
Zn2_4 Zn3_6 2.750178 1_555
Zn2_5 Zn3_1 2.750178 1_555
Zn2_5 Zn3_7 2.750178 1_555
Zn2_6 Zn3_2 2.750178 1_555
Zn2_6 Zn3_4 2.750178 1_565
Zn2_7 Zn3_3 2.750178 1_555
Zn2_7 Zn3_5 2.750178 1_565
Zn3_0 Zn3_6 2.970342 1_445
Zn3_0 Zn3_6 2.970342 1_555
Zn3_1 Zn3_7 2.970342 1_555
Zn3_1 Zn3_7 2.970342 1_445
Zn3_2 Zn3_4 2.970342 1_455
Zn3_2 Zn3_4 2.970342 1_565
Zn3_3 Zn3_5 2.970342 1_455
Zn3_3 Zn3_5 2.970342 1_565
