# generated using pymatgen
data_Ni4Se3N2
_symmetry_space_group_name_H-M   'P 1'
_cell_length_a   6.01368900
_cell_length_b   10.11648300
_cell_length_c   8.36611400
_cell_angle_alpha   90.00000000
_cell_angle_beta   90.00000000
_cell_angle_gamma   90.00000000
_symmetry_Int_Tables_number   1
_chemical_formula_structural   Ni4Se3N2
_chemical_formula_sum   'Ni16 Se12 N8'
_cell_volume   508.97247776
_cell_formula_units_Z   4
loop_
 _symmetry_equiv_pos_site_id
 _symmetry_equiv_pos_as_xyz
  1  'x, y, z'
loop_
 _atom_site_type_symbol
 _atom_site_label
 _atom_site_symmetry_multiplicity
 _atom_site_fract_x
 _atom_site_fract_y
 _atom_site_fract_z
 _atom_site_occupancy
  Ni  Ni0  1  0.45737900  0.25000000  0.83283400  1
  Ni  Ni1  1  0.95737900  0.25000000  0.66716600  1
  Ni  Ni2  1  0.54262100  0.75000000  0.16716600  1
  Ni  Ni3  1  0.04262100  0.75000000  0.33283400  1
  Ni  Ni4  1  0.77785200  0.25000000  0.40776100  1
  Ni  Ni5  1  0.27785200  0.25000000  0.09223900  1
  Ni  Ni6  1  0.22214800  0.75000000  0.59223900  1
  Ni  Ni7  1  0.72214800  0.75000000  0.90776100  1
  Ni  Ni8  1  0.70529300  0.45793000  0.06820200  1
  Ni  Ni9  1  0.20529300  0.04207000  0.43179800  1
  Ni  Ni10  1  0.29470700  0.95793000  0.93179800  1
  Ni  Ni11  1  0.79470700  0.54207000  0.56820200  1
  Ni  Ni12  1  0.29470700  0.54207000  0.93179800  1
  Ni  Ni13  1  0.79470700  0.95793000  0.56820200  1
  Ni  Ni14  1  0.70529300  0.04207000  0.06820200  1
  Ni  Ni15  1  0.20529300  0.45793000  0.43179800  1
  Se  Se0  1  0.88019800  0.25000000  0.14505500  1
  Se  Se1  1  0.38019800  0.25000000  0.35494500  1
  Se  Se2  1  0.11980200  0.75000000  0.85494500  1
  Se  Se3  1  0.61980200  0.75000000  0.64505500  1
  Se  Se4  1  0.56220500  0.55630500  0.32551100  1
  Se  Se5  1  0.06220500  0.94369500  0.17448900  1
  Se  Se6  1  0.43779500  0.05630500  0.67448900  1
  Se  Se7  1  0.93779500  0.44369500  0.82551100  1
  Se  Se8  1  0.43779500  0.44369500  0.67448900  1
  Se  Se9  1  0.93779500  0.05630500  0.82551100  1
  Se  Se10  1  0.56220500  0.94369500  0.32551100  1
  Se  Se11  1  0.06220500  0.55630500  0.17448900  1
  N  N0  1  0.56181000  0.61993800  0.00755900  1
  N  N1  1  0.06181000  0.88006200  0.49244100  1
  N  N2  1  0.43819000  0.11993800  0.99244100  1
  N  N3  1  0.93819000  0.38006200  0.50755900  1
  N  N4  1  0.43819000  0.38006200  0.99244100  1
  N  N5  1  0.93819000  0.11993800  0.50755900  1
  N  N6  1  0.56181000  0.88006200  0.00755900  1
  N  N7  1  0.06181000  0.61993800  0.49244100  1
loop_
_geom_bond_atom_site_label_1
_geom_bond_atom_site_label_2
_geom_bond_distance
_geom_bond_site_symmetry_2
Ni0 Se6 2.368222 1_555
Ni0 Se8 2.368222 1_555
Ni1 Se9 2.368222 1_555
Ni1 Se7 2.368222 1_555
Ni2 Se4 2.368222 1_555
Ni2 Se10 2.368222 1_555
Ni3 Se5 2.368222 1_555
Ni3 Se11 2.368222 1_555
Ni4 Se0 2.282381 1_555
Ni4 Se1 2.431848 1_555
Ni5 Se1 2.282381 1_555
Ni5 Se0 2.431848 1_455
Ni6 Se2 2.282381 1_555
Ni6 Se3 2.431848 1_555
Ni7 Se3 2.282381 1_555
Ni7 Se2 2.431848 1_655
Ni8 Se0 2.438141 1_555
Ni8 Se7 2.469440 1_554
Ni8 Se4 2.522874 1_555
Ni8 Se11 2.527446 1_655
Ni9 Se1 2.438141 1_555
Ni9 Se6 2.469440 1_555
Ni9 Se5 2.522874 1_545
Ni9 Se10 2.527446 1_545
Ni10 Se2 2.438141 1_555
Ni10 Se5 2.469440 1_556
Ni10 Se6 2.522874 1_565
Ni10 Se9 2.527446 1_465
Ni11 Se3 2.438141 1_555
Ni11 Se4 2.469440 1_555
Ni11 Se7 2.522874 1_555
Ni11 Se8 2.527446 1_555
Ni12 Se2 2.438141 1_555
Ni12 Se11 2.469440 1_556
Ni12 Se8 2.522874 1_555
Ni12 Se7 2.527446 1_455
Ni13 Se3 2.438141 1_555
Ni13 Se10 2.469440 1_555
Ni13 Se9 2.522874 1_565
Ni13 Se6 2.527446 1_565
Ni14 Se0 2.438141 1_555
Ni14 Se9 2.469440 1_554
Ni14 Se10 2.522874 1_545
Ni14 Se5 2.527446 1_645
Ni15 Se1 2.438141 1_555
Ni15 Se8 2.469440 1_555
Ni15 Se11 2.522874 1_555
Ni15 Se4 2.527446 1_555
N0 Ni7 1.832504 1_554
N0 Ni2 1.878182 1_555
N0 Ni12 1.898000 1_554
N0 Ni8 1.920441 1_555
N1 Ni6 1.832504 1_555
N1 Ni3 1.878182 1_555
N1 Ni13 1.898000 1_455
N1 Ni9 1.920441 1_565
N2 Ni5 1.832504 1_556
N2 Ni0 1.878182 1_555
N2 Ni14 1.898000 1_556
N2 Ni10 1.920441 1_545
N3 Ni4 1.832504 1_555
N3 Ni1 1.878182 1_555
N3 Ni15 1.898000 1_655
N3 Ni11 1.920441 1_555
N4 Ni5 1.832504 1_556
N4 Ni0 1.878182 1_555
N4 Ni8 1.898000 1_556
N4 Ni12 1.920441 1_555
N5 Ni4 1.832504 1_555
N5 Ni1 1.878182 1_555
N5 Ni9 1.898000 1_655
N5 Ni13 1.920441 1_545
N6 Ni7 1.832504 1_554
N6 Ni2 1.878182 1_555
N6 Ni10 1.898000 1_554
N6 Ni14 1.920441 1_565
N7 Ni6 1.832504 1_555
N7 Ni3 1.878182 1_555
N7 Ni11 1.898000 1_455
N7 Ni15 1.920441 1_555
