# generated using pymatgen
data_Fe5(O4F)2
_symmetry_space_group_name_H-M   'P 1'
_cell_length_a   4.63942100
_cell_length_b   7.60918456
_cell_length_c   9.74552719
_cell_angle_alpha   70.63665025
_cell_angle_beta   88.49324932
_cell_angle_gamma   89.27774326
_symmetry_Int_Tables_number   1
_chemical_formula_structural   Fe5(O4F)2
_chemical_formula_sum   'Fe10 O16 F4'
_cell_volume   324.46310176
_cell_formula_units_Z   2
loop_
 _symmetry_equiv_pos_site_id
 _symmetry_equiv_pos_as_xyz
  1  'x, y, z'
loop_
 _atom_site_type_symbol
 _atom_site_label
 _atom_site_symmetry_multiplicity
 _atom_site_fract_x
 _atom_site_fract_y
 _atom_site_fract_z
 _atom_site_occupancy
  Fe  Fe0  1  0.48570000  0.69388800  0.90918700  1
  Fe  Fe1  1  0.53339800  0.90547000  0.30843800  1
  Fe  Fe2  1  0.49083400  0.11425200  0.70291800  1
  Fe  Fe3  1  0.47370100  0.28955500  0.09352300  1
  Fe  Fe4  1  0.48688900  0.49718200  0.48811900  1
  Fe  Fe5  1  0.99970500  0.40103600  0.80496300  1
  Fe  Fe6  1  0.04210600  0.80627300  0.59897400  1
  Fe  Fe7  1  0.01467000  0.19595400  0.40961500  1
  Fe  Fe8  1  0.99282100  0.59833000  0.19778600  1
  Fe  Fe9  1  0.98239000  0.00118200  0.98928100  1
  O  O0  1  0.18333200  0.22760000  0.97478300  1
  O  O1  1  0.21359800  0.04176100  0.58639900  1
  O  O2  1  0.17970300  0.43937700  0.37106400  1
  O  O3  1  0.19426200  0.64173800  0.77827900  1
  O  O4  1  0.30823100  0.93770200  0.87902600  1
  O  O5  1  0.29895900  0.35599900  0.66916400  1
  O  O6  1  0.28935800  0.52784700  0.08303400  1
  O  O7  1  0.31171300  0.13601800  0.27972700  1
  O  O8  1  0.32142100  0.73711100  0.47376800  1
  O  O9  1  0.69229800  0.26661000  0.51978100  1
  O  O10  1  0.69608200  0.66129700  0.31941700  1
  O  O11  1  0.69495100  0.05826800  0.12379400  1
  O  O12  1  0.68373600  0.45768300  0.92657000  1
  O  O13  1  0.83131600  0.96160400  0.43083700  1
  O  O14  1  0.79432200  0.16563400  0.81522800  1
  O  O15  1  0.80707900  0.75983800  0.02366800  1
  F  F0  1  0.19976200  0.84032900  0.17875100  1
  F  F1  1  0.70262400  0.85749600  0.72256800  1
  F  F2  1  0.80281000  0.56989100  0.61919800  1
  F  F3  1  0.79222700  0.35307500  0.22213800  1
loop_
_geom_bond_atom_site_label_1
_geom_bond_atom_site_label_2
_geom_bond_distance
_geom_bond_site_symmetry_2
Fe0 O4 1.954170 1_555
Fe0 O6 1.955728 1_556
Fe0 O12 1.966692 1_555
Fe0 O3 2.013250 1_555
Fe0 O15 2.048729 1_556
Fe1 O11 1.927509 1_565
Fe1 O8 1.945270 1_555
Fe1 O7 1.964113 1_565
Fe1 O10 1.967279 1_555
Fe1 O13 1.988756 1_555
Fe2 O14 1.926659 1_555
Fe2 O1 1.938582 1_555
Fe2 O5 1.963991 1_555
Fe2 O4 1.972644 1_545
Fe2 O9 1.992627 1_555
Fe3 O7 1.940943 1_555
Fe3 O12 1.949675 1_554
Fe3 O0 1.958534 1_554
Fe3 O11 1.965717 1_555
Fe3 O6 1.967793 1_555
Fe4 O9 1.922460 1_555
Fe4 O5 1.926947 1_555
Fe4 O8 1.934666 1_555
Fe4 O10 1.946694 1_555
Fe4 O2 1.989958 1_555
Fe5 O0 1.950351 1_655
Fe5 O3 1.987568 1_655
Fe5 O12 1.992652 1_555
Fe5 O5 1.997147 1_655
Fe5 O14 2.011367 1_555
Fe6 O3 1.926426 1_555
Fe6 O1 1.934952 1_565
Fe6 O8 1.941794 1_555
Fe6 O13 1.951713 1_455
Fe7 O2 1.928052 1_555
Fe7 O13 1.931494 1_445
Fe7 O1 1.978000 1_555
Fe7 O9 1.989132 1_455
Fe7 O7 1.996177 1_555
Fe8 O6 1.931113 1_655
Fe8 O2 1.939704 1_655
Fe8 O15 1.949264 1_555
Fe8 O10 1.950408 1_555
Fe9 O0 1.931177 1_655
Fe9 O15 1.939467 1_546
Fe9 O14 1.961424 1_555
Fe9 O4 1.978248 1_645
Fe9 O11 1.989110 1_556
F0 Fe8 2.038548 1_455
F0 Fe9 2.119616 1_464
F0 Fe1 2.185547 1_555
F1 Fe6 2.068672 1_655
F1 Fe0 2.074679 1_555
F1 Fe2 2.128968 1_565
F2 Fe5 2.068255 1_555
F2 Fe6 2.076142 1_655
F2 Fe4 2.161884 1_555
F3 Fe8 2.035574 1_555
F3 Fe7 2.110007 1_655
F3 Fe3 2.122651 1_555
