# generated using pymatgen
data_LuB2C
_symmetry_space_group_name_H-M   'P 1'
_cell_length_a   6.68904771
_cell_length_b   6.68904771
_cell_length_c   7.13910137
_cell_angle_alpha   90.00000000
_cell_angle_beta   90.00000000
_cell_angle_gamma   90.00000000
_symmetry_Int_Tables_number   1
_chemical_formula_structural   LuB2C
_chemical_formula_sum   'Lu8 B16 C8'
_cell_volume   319.42737744
_cell_formula_units_Z   8
loop_
 _symmetry_equiv_pos_site_id
 _symmetry_equiv_pos_as_xyz
  1  'x, y, z'
loop_
 _atom_site_type_symbol
 _atom_site_label
 _atom_site_symmetry_multiplicity
 _atom_site_fract_x
 _atom_site_fract_y
 _atom_site_fract_z
 _atom_site_occupancy
  Lu  Lu0  1  0.30825723  0.80825723  0.75000000  1
  Lu  Lu1  1  0.19174277  0.30825723  0.25000000  1
  Lu  Lu2  1  0.80825723  0.69174277  0.25000000  1
  Lu  Lu3  1  0.69174277  0.19174277  0.75000000  1
  Lu  Lu4  1  0.69174277  0.19174277  0.25000000  1
  Lu  Lu5  1  0.80825723  0.69174277  0.75000000  1
  Lu  Lu6  1  0.19174277  0.30825723  0.75000000  1
  Lu  Lu7  1  0.30825723  0.80825723  0.25000000  1
  B  B0  1  0.15320604  0.03390858  0.00000000  1
  B  B1  1  0.53390858  0.65320604  0.50000000  1
  B  B2  1  0.84679396  0.96609142  -0.00000000  1
  B  B3  1  0.34679396  0.53390858  0.00000000  1
  B  B4  1  0.65320604  0.46609142  -0.00000000  1
  B  B5  1  0.03390858  0.84679396  0.50000000  1
  B  B6  1  0.96609142  0.15320604  0.50000000  1
  B  B7  1  0.46609142  0.34679396  0.50000000  1
  B  B8  1  0.09709358  0.59243359  0.00000000  1
  B  B9  1  0.40756641  0.09709358  0.50000000  1
  B  B10  1  0.59243359  0.90290642  0.50000000  1
  B  B11  1  0.59709358  0.90756641  -0.00000000  1
  B  B12  1  0.40290642  0.09243359  0.00000000  1
  B  B13  1  0.90290642  0.40756641  -0.00000000  1
  B  B14  1  0.09243359  0.59709358  0.50000000  1
  B  B15  1  0.90756641  0.40290642  0.50000000  1
  C  C0  1  0.17816320  0.04009845  0.50000000  1
  C  C1  1  0.67816320  0.45990155  0.50000000  1
  C  C2  1  0.32183680  0.54009845  0.50000000  1
  C  C3  1  0.95990155  0.17816320  0.00000000  1
  C  C4  1  0.04009845  0.82183680  -0.00000000  1
  C  C5  1  0.54009845  0.67816320  0.00000000  1
  C  C6  1  0.82183680  0.95990155  0.50000000  1
  C  C7  1  0.45990155  0.32183680  -0.00000000  1
loop_
_geom_bond_atom_site_label_1
_geom_bond_atom_site_label_2
_geom_bond_distance
_geom_bond_site_symmetry_2
B0 C4 1.607708 1_545
B0 C3 1.613379 1_455
B0 Lu7 2.557217 1_545
B0 Lu0 2.557217 1_544
B0 Lu1 2.572854 1_555
B0 Lu6 2.572854 1_554
B1 C2 1.607708 1_555
B1 C1 1.613379 1_555
B1 Lu7 2.557217 1_555
B1 Lu0 2.557217 1_555
B1 Lu5 2.572854 1_555
B1 Lu2 2.572854 1_555
B2 C3 1.607708 1_565
B2 C4 1.613379 1_655
B2 Lu3 2.557217 1_564
B2 Lu4 2.557217 1_565
B2 Lu2 2.572854 1_555
B2 Lu5 2.572854 1_554
B3 C7 1.607708 1_555
B3 C5 1.613379 1_555
B3 Lu1 2.557217 1_555
B3 Lu6 2.557217 1_554
B3 Lu0 2.572854 1_554
B3 Lu7 2.572854 1_555
B4 C5 1.607708 1_555
B4 C7 1.613379 1_555
B4 Lu5 2.557217 1_554
B4 Lu2 2.557217 1_555
B4 Lu4 2.572854 1_555
B4 Lu3 2.572854 1_554
B5 C6 1.607708 1_455
B5 C0 1.613379 1_565
B5 Lu2 2.557217 1_455
B5 Lu5 2.557217 1_455
B5 Lu7 2.572854 1_555
B5 Lu0 2.572854 1_555
B6 C0 1.607708 1_655
B6 C6 1.613379 1_545
B6 Lu6 2.557217 1_655
B6 Lu1 2.557217 1_655
B6 Lu3 2.572854 1_555
B6 Lu4 2.572854 1_555
B7 C1 1.607708 1_555
B7 C2 1.613379 1_555
B7 Lu3 2.557217 1_555
B7 Lu4 2.557217 1_555
B7 Lu1 2.572854 1_555
B7 Lu6 2.572854 1_555
B8 C4 1.581140 1_555
B8 Lu1 2.683199 1_555
B8 Lu6 2.683199 1_554
B8 Lu7 2.695306 1_555
B8 Lu0 2.695306 1_554
B8 Lu2 2.712835 1_455
B8 Lu5 2.712835 1_454
B9 C0 1.581140 1_555
B9 Lu3 2.683199 1_555
B9 Lu4 2.683199 1_555
B9 Lu1 2.695306 1_555
B9 Lu6 2.695306 1_555
B9 Lu0 2.712835 1_545
B9 Lu7 2.712835 1_545
B10 C6 1.581140 1_555
B10 Lu7 2.683199 1_555
B10 Lu0 2.683199 1_555
B10 Lu2 2.695306 1_555
B10 Lu5 2.695306 1_555
B10 Lu3 2.712835 1_565
B10 Lu4 2.712835 1_565
B11 C5 1.581140 1_555
B11 Lu3 2.683199 1_564
B11 Lu4 2.683199 1_565
B11 Lu5 2.695306 1_554
B11 Lu2 2.695306 1_555
B11 Lu7 2.712835 1_555
B11 Lu0 2.712835 1_554
B12 C7 1.581140 1_555
B12 Lu7 2.683199 1_545
B12 Lu0 2.683199 1_544
B12 Lu1 2.695306 1_555
B12 Lu6 2.695306 1_554
B12 Lu3 2.712835 1_554
B12 Lu4 2.712835 1_555
B13 C3 1.581140 1_555
B13 Lu2 2.683199 1_555
B13 Lu5 2.683199 1_554
B13 Lu4 2.695306 1_555
B13 Lu3 2.695306 1_554
B13 Lu6 2.712835 1_654
B13 Lu1 2.712835 1_655
B14 C2 1.581140 1_555
B14 Lu2 2.683199 1_455
B14 Lu5 2.683199 1_455
B14 Lu0 2.695306 1_555
B14 Lu7 2.695306 1_555
B14 Lu6 2.712835 1_555
B14 Lu1 2.712835 1_555
B15 C1 1.581140 1_555
B15 Lu1 2.683199 1_655
B15 Lu6 2.683199 1_655
B15 Lu4 2.695306 1_555
B15 Lu3 2.695306 1_555
B15 Lu2 2.712835 1_555
B15 Lu5 2.712835 1_555
C0 Lu0 2.519455 1_545
C0 Lu7 2.519455 1_545
C0 Lu6 2.532021 1_555
C0 Lu1 2.532021 1_555
C1 Lu5 2.519455 1_555
C1 Lu2 2.519455 1_555
C1 Lu4 2.532021 1_555
C1 Lu3 2.532021 1_555
C2 Lu6 2.519455 1_555
C2 Lu1 2.519455 1_555
C2 Lu7 2.532021 1_555
C2 Lu0 2.532021 1_555
C3 Lu6 2.519455 1_654
C3 Lu1 2.519455 1_655
C3 Lu4 2.532021 1_555
C3 Lu3 2.532021 1_554
C4 Lu5 2.519455 1_454
C4 Lu2 2.519455 1_455
C4 Lu0 2.532021 1_554
C4 Lu7 2.532021 1_555
C5 Lu7 2.519455 1_555
C5 Lu0 2.519455 1_554
C5 Lu2 2.532021 1_555
C5 Lu5 2.532021 1_554
C6 Lu3 2.519455 1_565
C6 Lu4 2.519455 1_565
C6 Lu2 2.532021 1_555
C6 Lu5 2.532021 1_555
C7 Lu3 2.519455 1_554
C7 Lu4 2.519455 1_555
C7 Lu6 2.532021 1_554
C7 Lu1 2.532021 1_555
