# generated using pymatgen
data_NbCr3(AgS4)2
_symmetry_space_group_name_H-M   'P 1'
_cell_length_a   11.91181734
_cell_length_b   3.46317000
_cell_length_c   12.26382606
_cell_angle_alpha   90.00000000
_cell_angle_beta   91.44076378
_cell_angle_gamma   90.00000000
_symmetry_Int_Tables_number   1
_chemical_formula_structural   NbCr3(AgS4)2
_chemical_formula_sum   'Nb2 Cr6 Ag4 S16'
_cell_volume   505.75536250
_cell_formula_units_Z   2
loop_
 _symmetry_equiv_pos_site_id
 _symmetry_equiv_pos_as_xyz
  1  'x, y, z'
loop_
 _atom_site_type_symbol
 _atom_site_label
 _atom_site_symmetry_multiplicity
 _atom_site_fract_x
 _atom_site_fract_y
 _atom_site_fract_z
 _atom_site_occupancy
  Nb  Nb0  1  0.14886700  0.25000000  0.71983100  1
  Nb  Nb1  1  0.85113300  0.75000000  0.28016900  1
  Cr  Cr0  1  0.11195500  0.25000000  0.08057300  1
  Cr  Cr1  1  0.88804500  0.75000000  0.91942700  1
  Cr  Cr2  1  0.39928300  0.75000000  0.57206700  1
  Cr  Cr3  1  0.60071700  0.25000000  0.42793300  1
  Cr  Cr4  1  0.34953900  0.75000000  0.20988900  1
  Cr  Cr5  1  0.65046100  0.25000000  0.79011100  1
  Ag  Ag0  1  0.14617600  0.75000000  0.40376800  1
  Ag  Ag1  1  0.85382400  0.25000000  0.59623200  1
  Ag  Ag2  1  0.37457900  0.25000000  0.92205400  1
  Ag  Ag3  1  0.62542100  0.75000000  0.07794600  1
  S  S0  1  0.04787300  0.75000000  0.61508700  1
  S  S1  1  0.95212700  0.25000000  0.38491300  1
  S  S2  1  0.45164700  0.25000000  0.12725000  1
  S  S3  1  0.54835300  0.75000000  0.87275000  1
  S  S4  1  0.03005000  0.25000000  0.88324100  1
  S  S5  1  0.96995000  0.75000000  0.11675900  1
  S  S6  1  0.46597200  0.75000000  0.38517600  1
  S  S7  1  0.53402800  0.25000000  0.61482400  1
  S  S8  1  0.21188400  0.25000000  0.24997700  1
  S  S9  1  0.78811600  0.75000000  0.75002300  1
  S  S10  1  0.29780700  0.75000000  0.74997400  1
  S  S11  1  0.70219300  0.25000000  0.25002600  1
  S  S12  1  0.23759000  0.75000000  0.04161800  1
  S  S13  1  0.76241000  0.25000000  0.95838200  1
  S  S14  1  0.26480900  0.25000000  0.53655200  1
  S  S15  1  0.73519100  0.75000000  0.46344800  1
loop_
_geom_bond_atom_site_label_1
_geom_bond_atom_site_label_2
_geom_bond_distance
_geom_bond_site_symmetry_2
Nb0 S0 2.453169 1_545
Nb0 S0 2.453169 1_555
Nb0 S4 2.482322 1_555
Nb0 S10 2.499931 1_545
Nb0 S10 2.499931 1_555
Nb0 S14 2.667517 1_555
Nb1 S1 2.453169 1_565
Nb1 S1 2.453169 1_555
Nb1 S5 2.482322 1_555
Nb1 S11 2.499931 1_555
Nb1 S11 2.499931 1_565
Nb1 S15 2.667517 1_555
Cr0 S12 2.345679 1_545
Cr0 S12 2.345679 1_555
Cr0 S8 2.368273 1_555
Cr0 S5 2.468679 1_445
Cr0 S5 2.468679 1_455
Cr0 S4 2.586456 1_554
Cr1 S13 2.345679 1_555
Cr1 S13 2.345679 1_565
Cr1 S9 2.368273 1_555
Cr1 S4 2.468679 1_655
Cr1 S4 2.468679 1_665
Cr1 S5 2.586456 1_556
Cr2 S14 2.391415 1_555
Cr2 S14 2.391415 1_565
Cr2 S7 2.409820 1_555
Cr2 S7 2.409820 1_565
Cr2 S6 2.444559 1_555
Cr2 S10 2.520728 1_555
Cr3 S15 2.391415 1_555
Cr3 S15 2.391415 1_545
Cr3 S6 2.409820 1_545
Cr3 S6 2.409820 1_555
Cr3 S7 2.444559 1_555
Cr3 S11 2.520728 1_555
Cr4 S2 2.359420 1_555
Cr4 S2 2.359420 1_565
Cr4 S12 2.428686 1_555
Cr4 S8 2.443218 1_555
Cr4 S8 2.443218 1_565
Cr4 S6 2.528795 1_555
Cr5 S3 2.359420 1_555
Cr5 S3 2.359420 1_545
Cr5 S13 2.428686 1_555
Cr5 S9 2.443218 1_555
Cr5 S9 2.443218 1_545
Cr5 S7 2.528795 1_555
Ag0 S8 2.691187 1_555
Ag0 S8 2.691187 1_565
Ag0 S14 2.744345 1_565
Ag0 S14 2.744345 1_555
Ag0 S0 2.870549 1_555
Ag0 S1 2.892732 1_455
Ag0 S1 2.892732 1_465
Ag1 S9 2.691187 1_555
Ag1 S9 2.691187 1_545
Ag1 S15 2.744345 1_555
Ag1 S15 2.744345 1_545
Ag1 S1 2.870549 1_555
Ag1 S0 2.892732 1_655
Ag1 S0 2.892732 1_645
Ag2 S2 2.656934 1_556
Ag2 S3 2.776992 1_545
Ag2 S3 2.776992 1_555
Ag2 S12 2.816294 1_546
Ag2 S12 2.816294 1_556
Ag2 S10 2.862036 1_555
Ag2 S10 2.862036 1_545
Ag3 S3 2.656934 1_554
Ag3 S2 2.776992 1_555
Ag3 S2 2.776992 1_565
Ag3 S13 2.816294 1_564
Ag3 S13 2.816294 1_554
Ag3 S11 2.862036 1_555
Ag3 S11 2.862036 1_565
