# generated using pymatgen
data_Hf2Ga3Co
_symmetry_space_group_name_H-M   'P 1'
_cell_length_a   6.30437200
_cell_length_b   7.67530972
_cell_length_c   7.68787755
_cell_angle_alpha   64.03365130
_cell_angle_beta   66.56183854
_cell_angle_gamma   66.63607771
_symmetry_Int_Tables_number   1
_chemical_formula_structural   Hf2Ga3Co
_chemical_formula_sum   'Hf6 Ga9 Co3'
_cell_volume   295.48771902
_cell_formula_units_Z   3
loop_
 _symmetry_equiv_pos_site_id
 _symmetry_equiv_pos_as_xyz
  1  'x, y, z'
loop_
 _atom_site_type_symbol
 _atom_site_label
 _atom_site_symmetry_multiplicity
 _atom_site_fract_x
 _atom_site_fract_y
 _atom_site_fract_z
 _atom_site_occupancy
  Hf  Hf0  1  0.04802300  0.97925500  0.47206500  1
  Hf  Hf1  1  0.50588500  0.02809300  0.50880800  1
  Hf  Hf2  1  0.50607200  0.52853800  0.04309900  1
  Hf  Hf3  1  0.08661100  0.44928500  0.96963000  1
  Hf  Hf4  1  0.96227600  0.74961100  0.24778400  1
  Hf  Hf5  1  0.95044500  0.24187400  0.75262200  1
  Ga  Ga0  1  0.17309200  0.33648100  0.33592200  1
  Ga  Ga1  1  0.85050900  0.65379600  0.66300400  1
  Ga  Ga2  1  0.17333200  0.83522800  0.83874100  1
  Ga  Ga3  1  0.83595300  0.15788000  0.15444800  1
  Ga  Ga4  1  0.45618900  0.78542100  0.25807100  1
  Ga  Ga5  1  0.47550700  0.23263600  0.75067400  1
  Ga  Ga6  1  0.72174900  0.87365300  0.89630300  1
  Ga  Ga7  1  0.47866300  0.61411600  0.63275100  1
  Ga  Ga8  1  0.72221200  0.38908100  0.36847000  1
  Co  Co0  1  0.26506600  0.50393300  0.49670000  1
  Co  Co1  1  0.24366200  0.00018100  0.00143900  1
  Co  Co2  1  0.48475500  0.14093800  0.10946800  1
loop_
_geom_bond_atom_site_label_1
_geom_bond_atom_site_label_2
_geom_bond_distance
_geom_bond_site_symmetry_2
Hf0 Hf1 3.186208 1_565
Hf0 Hf1 3.195383 1_465
Hf0 Hf4 3.245076 1_455
Hf0 Hf5 3.295708 1_465
Hf2 Hf3 3.232183 1_554
Hf2 Hf4 3.246731 1_455
Hf2 Hf3 3.312816 1_654
Hf2 Hf5 3.480410 1_554
Hf3 Hf5 3.256297 1_455
Hf3 Hf4 3.471403 1_456
Ga0 Ga8 2.630197 1_455
Ga0 Hf1 2.701046 1_555
Ga0 Hf2 2.727004 1_555
Ga0 Hf3 2.772854 1_554
Ga0 Hf4 2.787926 1_455
Ga0 Hf0 2.789253 1_545
Ga0 Hf5 2.820350 1_455
Ga1 Ga7 2.589289 1_555
Ga1 Ga6 2.670035 1_555
Ga1 Hf5 2.779473 1_555
Ga1 Hf0 2.783392 1_655
Ga1 Hf4 2.791623 1_555
Ga1 Hf3 2.816788 1_655
Ga1 Hf2 2.885523 1_556
Ga1 Hf1 2.914621 1_565
Ga2 Ga7 2.535899 1_555
Ga2 Ga6 2.614196 1_455
Ga2 Hf5 2.757966 1_465
Ga2 Hf4 2.765232 1_456
Ga2 Hf2 2.806525 1_556
Ga2 Hf1 2.821985 1_565
Ga2 Hf0 2.853551 1_555
Ga2 Hf3 2.884946 1_555
Ga3 Ga8 2.641859 1_555
Ga3 Hf5 2.707578 1_554
Ga3 Hf4 2.734006 1_545
Ga3 Hf1 2.738975 1_555
Ga3 Hf2 2.782528 1_555
Ga3 Hf3 2.784371 1_654
Ga3 Hf0 2.800217 1_645
Ga4 Ga6 2.557829 1_554
Ga4 Ga7 2.628017 1_555
Ga4 Hf0 2.698264 1_555
Ga4 Ga8 2.758983 1_555
Ga4 Hf2 2.943784 1_555
Ga4 Hf4 3.063372 1_555
Ga5 Ga6 2.558109 1_545
Ga5 Ga7 2.665095 1_555
Ga5 Ga8 2.692717 1_555
Ga5 Hf3 2.746651 1_555
Ga5 Hf1 2.827259 1_555
Ga5 Hf5 3.029090 1_555
Ga6 Hf2 3.026066 1_556
Ga6 Hf0 3.032465 1_655
Ga6 Hf3 3.114353 1_655
Ga6 Hf4 3.220116 1_556
Ga6 Hf5 3.243075 1_565
Ga6 Hf1 3.314368 1_565
Ga7 Ga8 2.820772 1_555
Ga7 Hf1 2.946938 1_565
Ga7 Hf3 2.989252 1_555
Ga7 Hf2 2.990411 1_556
Ga7 Hf0 3.217560 1_555
Ga8 Hf2 2.910261 1_555
Ga8 Hf0 2.954806 1_645
Ga8 Hf3 2.981689 1_654
Ga8 Hf1 3.147943 1_555
Ga8 Hf4 3.281004 1_555
Ga8 Hf5 3.352318 1_555
Co0 Ga1 2.456312 1_455
Co0 Ga0 2.463377 1_555
Co0 Ga5 2.493535 1_555
Co0 Ga4 2.514078 1_555
Co0 Ga7 2.533924 1_555
Co0 Ga8 2.557486 1_555
Co0 Hf4 2.784380 1_455
Co0 Hf5 2.906073 1_455
Co0 Hf2 3.152910 1_555
Co0 Hf3 3.231981 1_555
Co0 Hf0 3.295395 1_555
Co1 Ga2 2.374273 1_544
Co1 Ga3 2.414419 1_455
Co1 Ga5 2.418873 1_554
Co1 Ga4 2.430681 1_545
Co1 Ga6 2.666202 1_544
Co1 Co2 2.694335 1_555
Co1 Hf4 2.697437 1_445
Co1 Hf5 2.739212 1_454
Co1 Hf3 3.109590 1_554
Co1 Hf2 3.255793 1_545
Co1 Hf0 3.276586 1_545
Co2 Ga3 2.432170 1_555
Co2 Ga4 2.505926 1_545
Co2 Ga0 2.524285 1_555
Co2 Ga5 2.550036 1_554
Co2 Ga6 2.773390 1_544
Co2 Hf2 2.839375 1_555
Co2 Hf1 2.845807 1_555
Co2 Hf3 2.874758 1_554
Co2 Hf0 3.235193 1_545
