# generated using pymatgen
data_LaMg6Zn
_symmetry_space_group_name_H-M   'P 1'
_cell_length_a   6.92081130
_cell_length_b   6.92081130
_cell_length_c   5.12359300
_cell_angle_alpha   90.00000000
_cell_angle_beta   90.00000000
_cell_angle_gamma   126.39926499
_symmetry_Int_Tables_number   1
_chemical_formula_structural   LaMg6Zn
_chemical_formula_sum   'La1 Mg6 Zn1'
_cell_volume   197.52921031
_cell_formula_units_Z   1
loop_
 _symmetry_equiv_pos_site_id
 _symmetry_equiv_pos_as_xyz
  1  'x, y, z'
loop_
 _atom_site_type_symbol
 _atom_site_label
 _atom_site_symmetry_multiplicity
 _atom_site_fract_x
 _atom_site_fract_y
 _atom_site_fract_z
 _atom_site_occupancy
  La  La0  1  0.31342700  0.68657300  0.50000000  1
  Mg  Mg0  1  0.31865300  0.18367100  0.50000000  1
  Mg  Mg1  1  0.81632900  0.68134700  0.50000000  1
  Mg  Mg2  1  0.16605100  0.32027800  0.00000000  1
  Mg  Mg3  1  0.67972200  0.83394900  0.00000000  1
  Mg  Mg4  1  0.68974100  0.31025900  0.00000000  1
  Mg  Mg5  1  0.15038600  0.84961400  0.00000000  1
  Zn  Zn0  1  0.86569500  0.13430500  0.50000000  1
loop_
_geom_bond_atom_site_label_1
_geom_bond_atom_site_label_2
_geom_bond_distance
_geom_bond_site_symmetry_2
La0 Zn0 3.186595 1_565
La0 Zn0 3.186595 1_455
La0 Mg5 3.258889 1_556
La0 Mg5 3.258889 1_555
La0 Mg3 3.310731 1_555
La0 Mg3 3.310731 1_556
La0 Mg2 3.310731 1_555
La0 Mg2 3.310731 1_556
La0 Mg0 3.418983 1_565
La0 Mg1 3.418983 1_455
La0 Mg1 3.502073 1_555
La0 Mg0 3.502073 1_555
Mg0 Zn0 2.944965 1_455
Mg0 Mg1 3.105974 1_555
Mg0 Mg2 3.123633 1_555
Mg0 Mg2 3.123633 1_556
Mg0 Mg1 3.134982 1_445
Mg0 Mg5 3.173124 1_545
Mg0 Mg5 3.173124 1_546
Mg0 Mg4 3.354966 1_556
Mg0 Mg4 3.354966 1_555
Mg1 Zn0 2.944965 1_565
Mg1 Mg3 3.123633 1_555
Mg1 Mg3 3.123633 1_556
Mg1 Mg5 3.173124 1_655
Mg1 Mg5 3.173124 1_656
Mg1 Mg4 3.354966 1_556
Mg1 Mg4 3.354966 1_555
Mg2 Mg3 3.035158 1_445
Mg2 Zn0 3.060248 1_455
Mg2 Zn0 3.060248 1_454
Mg2 Mg5 3.194235 1_545
Mg2 Mg3 3.205798 1_555
Mg2 Mg4 3.255783 1_455
Mg3 Zn0 3.060248 1_565
Mg3 Zn0 3.060248 1_564
Mg3 Mg5 3.194235 1_655
Mg3 Mg4 3.255783 1_565
Mg4 Mg5 3.158132 1_655
Mg4 Mg5 3.158132 1_545
Mg4 Zn0 3.359842 1_554
Mg4 Zn0 3.359842 1_555
