# generated using pymatgen
data_Zn2Ni11O13
_symmetry_space_group_name_H-M   'P 1'
_cell_length_a   3.00033893
_cell_length_b   19.67506716
_cell_length_c   4.23952400
_cell_angle_alpha   96.18554446
_cell_angle_beta   90.00015284
_cell_angle_gamma   85.62704098
_symmetry_Int_Tables_number   1
_chemical_formula_structural   Zn2Ni11O13
_chemical_formula_sum   'Zn2 Ni11 O13'
_cell_volume   248.07718098
_cell_formula_units_Z   1
loop_
 _symmetry_equiv_pos_site_id
 _symmetry_equiv_pos_as_xyz
  1  'x, y, z'
loop_
 _atom_site_type_symbol
 _atom_site_label
 _atom_site_symmetry_multiplicity
 _atom_site_fract_x
 _atom_site_fract_y
 _atom_site_fract_z
 _atom_site_occupancy
  Zn  Zn0  1  0.69227800  0.61543100  0.30770300  1
  Zn  Zn1  1  0.00002100  0.99995200  0.99997700  1
  Ni  Ni0  1  0.53860900  0.92272100  0.46134000  1
  Ni  Ni1  1  0.61498700  0.77003700  0.38502200  1
  Ni  Ni2  1  0.76966400  0.46067500  0.23033900  1
  Ni  Ni3  1  0.84613300  0.30769000  0.15387600  1
  Ni  Ni4  1  0.92264500  0.15471000  0.07737200  1
  Ni  Ni5  1  0.07732800  0.84534400  0.92265600  1
  Ni  Ni6  1  0.23098500  0.53806200  0.76902300  1
  Ni  Ni7  1  0.15368200  0.69267700  0.84631800  1
  Ni  Ni8  1  0.38457900  0.23083400  0.61541900  1
  Ni  Ni9  1  0.46137200  0.07731200  0.53867700  1
  Ni  Ni10  1  0.30773400  0.38454200  0.69225700  1
  O  O0  1  0.30791200  0.38415800  0.19209000  1
  O  O1  1  0.07671000  0.84656800  0.42328500  1
  O  O2  1  0.46051100  0.07900400  0.03951900  1
  O  O3  1  0.15287600  0.69426000  0.34713900  1
  O  O4  1  0.38437500  0.23122500  0.11560700  1
  O  O5  1  0.23181100  0.53638000  0.26818700  1
  O  O6  1  0.53942300  0.92112700  0.96054800  1
  O  O7  1  0.84614200  0.30769400  0.65384600  1
  O  O8  1  0.99995400  0.00009200  0.50004800  1
  O  O9  1  0.61560200  0.76881700  0.88441700  1
  O  O10  1  0.92300700  0.15399600  0.57699700  1
  O  O11  1  0.69236000  0.61529500  0.80763600  1
  O  O12  1  0.76929800  0.46139600  0.73070300  1
loop_
_geom_bond_atom_site_label_1
_geom_bond_atom_site_label_2
_geom_bond_distance
_geom_bond_site_symmetry_2
Ni0 O1 2.110954 1_555
Ni0 O1 2.111056 1_655
Ni0 O6 2.119968 1_554
Ni0 O6 2.120011 1_555
Ni0 O8 2.127719 1_465
Ni0 O8 2.127850 1_565
Ni1 O3 2.105852 1_555
Ni1 O3 2.105852 1_655
Ni1 O1 2.116175 1_655
Ni1 O1 2.116222 1_555
Ni1 O9 2.119874 1_554
Ni1 O9 2.119917 1_555
Ni2 O5 2.104867 1_655
Ni2 O5 2.104867 1_555
Ni2 O0 2.115982 1_655
Ni2 O0 2.116029 1_555
Ni2 O12 2.119794 1_554
Ni2 O12 2.119823 1_555
Ni3 O4 2.115271 1_555
Ni3 O0 2.115303 1_555
Ni3 O4 2.115310 1_655
Ni3 O0 2.115360 1_655
Ni3 O7 2.119626 1_555
Ni3 O7 2.119898 1_554
Ni4 O2 2.104854 1_555
Ni4 O2 2.104908 1_655
Ni4 O4 2.115953 1_655
Ni4 O4 2.116004 1_555
Ni4 O10 2.119732 1_555
Ni4 O10 2.119884 1_554
Ni5 O6 2.105907 1_555
Ni5 O6 2.105962 1_455
Ni5 O9 2.116122 1_455
Ni5 O9 2.116165 1_555
Ni5 O1 2.119825 1_555
Ni5 O1 2.119968 1_556
Ni6 O12 2.118013 1_555
Ni6 O12 2.118100 1_455
Ni6 O5 2.119994 1_555
Ni6 O5 2.120037 1_556
Ni6 O11 2.125860 1_555
Ni6 O11 2.125894 1_455
Ni7 O9 2.110806 1_555
Ni7 O9 2.110847 1_455
Ni7 O3 2.119862 1_555
Ni7 O3 2.120112 1_556
Ni7 O11 2.127908 1_555
Ni7 O11 2.127965 1_455
Ni8 O4 2.119744 1_556
Ni8 O4 2.119808 1_555
Ni8 O10 2.120407 1_455
Ni8 O10 2.120444 1_555
Ni8 O7 2.120715 1_555
Ni8 O7 2.120743 1_455
Ni9 O10 2.118256 1_555
Ni9 O10 2.118352 1_455
Ni9 O2 2.120002 1_556
Ni9 O2 2.120036 1_555
Ni9 O8 2.125637 1_555
Ni9 O8 2.125757 1_455
Ni10 O0 2.119669 1_555
Ni10 O0 2.119881 1_556
Ni10 O7 2.120528 1_555
Ni10 O7 2.120598 1_455
Ni10 O12 2.120628 1_555
Ni10 O12 2.120664 1_455
O2 Zn1 2.151124 1_644
O2 Zn1 2.151193 1_544
O3 Zn0 2.148016 1_555
O3 Zn0 2.148071 1_455
O5 Zn0 2.151130 1_555
O5 Zn0 2.151159 1_455
O6 Zn1 2.147965 1_555
O6 Zn1 2.148011 1_655
O8 Zn1 2.119760 1_645
O8 Zn1 2.119768 1_644
O11 Zn0 2.119759 1_556
O11 Zn0 2.119768 1_555
