# generated using pymatgen
data_Li9Mn2Co5O16
_symmetry_space_group_name_H-M   'P 1'
_cell_length_a   5.86410500
_cell_length_b   5.00219600
_cell_length_c   9.81018241
_cell_angle_alpha   79.26865896
_cell_angle_beta   90.00000000
_cell_angle_gamma   90.00000000
_symmetry_Int_Tables_number   1
_chemical_formula_structural   Li9Mn2Co5O16
_chemical_formula_sum   'Li9 Mn2 Co5 O16'
_cell_volume   282.73331539
_cell_formula_units_Z   1
loop_
 _symmetry_equiv_pos_site_id
 _symmetry_equiv_pos_as_xyz
  1  'x, y, z'
loop_
 _atom_site_type_symbol
 _atom_site_label
 _atom_site_symmetry_multiplicity
 _atom_site_fract_x
 _atom_site_fract_y
 _atom_site_fract_z
 _atom_site_occupancy
  Li  Li0  1  0.24740400  0.73820800  0.75223400  1
  Li  Li1  1  0.50000000  0.74121200  0.24727900  1
  Li  Li2  1  0.75259600  0.73820800  0.75223400  1
  Li  Li3  1  0.50000000  0.25878800  0.75272100  1
  Li  Li4  1  0.75259600  0.26179200  0.24776600  1
  Li  Li5  1  0.00000000  0.25988600  0.75343200  1
  Li  Li6  1  0.00000000  0.74011400  0.24656800  1
  Li  Li7  1  0.24740400  0.26179200  0.24776600  1
  Li  Li8  1  0.00000000  0.50000000  0.00000000  1
  Mn  Mn0  1  0.24650200  0.00000000  0.00000000  1
  Mn  Mn1  1  0.75349800  0.00000000  0.00000000  1
  Co  Co0  1  0.50000000  0.00000000  0.50000000  1
  Co  Co1  1  0.00000000  0.00000000  0.50000000  1
  Co  Co2  1  0.75050600  0.50000000  0.50000000  1
  Co  Co3  1  0.24949400  0.50000000  0.50000000  1
  Co  Co4  1  0.50000000  0.50000000  0.00000000  1
  O  O0  1  0.00000000  0.89993100  0.88837100  1
  O  O1  1  0.25316900  0.86339300  0.38391600  1
  O  O2  1  0.50000000  0.86922000  0.89279900  1
  O  O3  1  0.26452700  0.35892000  0.88946900  1
  O  O4  1  0.50000000  0.36299200  0.38369600  1
  O  O5  1  0.73547300  0.35892000  0.88946900  1
  O  O6  1  0.74683100  0.86339300  0.38391600  1
  O  O7  1  0.00000000  0.36793200  0.38173800  1
  O  O8  1  0.50000000  0.63700800  0.61630400  1
  O  O9  1  0.73547300  0.64108000  0.11053100  1
  O  O10  1  0.00000000  0.63206800  0.61826200  1
  O  O11  1  0.74683100  0.13660700  0.61608400  1
  O  O12  1  0.00000000  0.10006900  0.11162900  1
  O  O13  1  0.25316900  0.13660700  0.61608400  1
  O  O14  1  0.26452700  0.64108000  0.11053100  1
  O  O15  1  0.50000000  0.13078000  0.10720100  1
loop_
_geom_bond_atom_site_label_1
_geom_bond_atom_site_label_2
_geom_bond_distance
_geom_bond_site_symmetry_2
Li0 O10 2.091397 1_555
Li0 O3 2.114476 1_555
Li0 O8 2.116594 1_555
Li0 O13 2.182975 1_565
Li0 O2 2.204922 1_555
Li0 O0 2.223792 1_555
Li1 O9 2.051223 1_555
Li1 O14 2.051223 1_555
Li1 O4 2.104156 1_555
Li1 O6 2.137868 1_555
Li1 O1 2.137868 1_555
Li1 O15 2.165306 1_565
Li2 O10 2.091397 1_655
Li2 O5 2.114476 1_555
Li2 O8 2.116594 1_555
Li2 O11 2.182975 1_565
Li2 O2 2.204922 1_555
Li2 O0 2.223792 1_655
Li3 O5 2.051223 1_555
Li3 O3 2.051223 1_555
Li3 O8 2.104156 1_555
Li3 O11 2.137868 1_555
Li3 O13 2.137868 1_555
Li3 O2 2.165306 1_545
Li4 O7 2.091397 1_655
Li4 O9 2.114476 1_555
Li4 O4 2.116594 1_555
Li4 O6 2.182975 1_545
Li4 O15 2.204922 1_555
Li4 O12 2.223792 1_655
Li5 O0 2.026516 1_545
Li5 O10 2.074860 1_555
Li5 O3 2.163076 1_555
Li5 O5 2.163076 1_455
Li5 O13 2.170089 1_555
Li5 O11 2.170089 1_455
Li6 O12 2.026516 1_565
Li6 O7 2.074860 1_555
Li6 O14 2.163076 1_555
Li6 O9 2.163076 1_455
Li6 O1 2.170089 1_555
Li6 O6 2.170089 1_455
Li7 O7 2.091397 1_555
Li7 O14 2.114476 1_555
Li7 O4 2.116594 1_555
Li7 O1 2.182975 1_545
Li7 O15 2.204922 1_555
Li7 O12 2.223792 1_555
Li8 O14 2.089267 1_555
Li8 O9 2.089267 1_455
Li8 O3 2.089267 1_554
Li8 O5 2.089267 1_454
Li8 O0 2.094162 1_554
Li8 O12 2.094162 1_555
Mn0 O14 1.919729 1_545
Mn0 O3 1.919729 1_554
Mn0 O12 1.934803 1_555
Mn0 O0 1.934803 1_544
Mn0 O15 1.999990 1_555
Mn0 O2 1.999990 1_544
Mn1 O9 1.919729 1_545
Mn1 O5 1.919729 1_554
Mn1 O12 1.934803 1_655
Mn1 O0 1.934803 1_644
Mn1 O15 1.999990 1_555
Mn1 O2 1.999990 1_544
Co0 O8 1.956336 1_545
Co0 O4 1.956336 1_555
Co0 O11 2.036840 1_555
Co0 O6 2.036840 1_545
Co0 O13 2.036840 1_555
Co0 O1 2.036840 1_545
Co1 O10 1.984473 1_545
Co1 O7 1.984473 1_555
Co1 O13 2.063418 1_555
Co1 O1 2.063418 1_545
Co1 O11 2.063418 1_455
Co1 O6 2.063418 1_445
Co2 O6 1.957215 1_555
Co2 O11 1.957215 1_555
Co2 O10 2.051439 1_655
Co2 O7 2.051439 1_655
Co2 O4 2.054419 1_555
Co2 O8 2.054419 1_555
Co3 O13 1.957215 1_555
Co3 O1 1.957215 1_555
Co3 O10 2.051439 1_555
Co3 O7 2.051439 1_555
Co3 O4 2.054419 1_555
Co3 O8 2.054419 1_555
Co4 O15 1.947751 1_555
Co4 O2 1.947751 1_554
Co4 O9 1.966084 1_555
Co4 O14 1.966084 1_555
Co4 O5 1.966084 1_554
Co4 O3 1.966084 1_554
