# generated using pymatgen
data_Gd3Ga
_symmetry_space_group_name_H-M   'P 1'
_cell_length_a   4.75902099
_cell_length_b   4.75906081
_cell_length_c   4.75902840
_cell_angle_alpha   90.00000000
_cell_angle_beta   90.00000000
_cell_angle_gamma   90.00000000
_symmetry_Int_Tables_number   1
_chemical_formula_structural   Gd3Ga
_chemical_formula_sum   'Gd3 Ga1'
_cell_volume   107.78471331
_cell_formula_units_Z   1
loop_
 _symmetry_equiv_pos_site_id
 _symmetry_equiv_pos_as_xyz
  1  'x, y, z'
loop_
 _atom_site_type_symbol
 _atom_site_label
 _atom_site_symmetry_multiplicity
 _atom_site_fract_x
 _atom_site_fract_y
 _atom_site_fract_z
 _atom_site_occupancy
  Gd  Gd0  1  0.00000000  0.50000000  0.50000000  1
  Gd  Gd1  1  0.50000000  -0.00000000  0.50000000  1
  Gd  Gd2  1  0.50000000  0.50000000  -0.00000000  1
  Ga  Ga0  1  0.00000000  -0.00000000  0.00000000  1
loop_
_geom_bond_atom_site_label_1
_geom_bond_atom_site_label_2
_geom_bond_distance
_geom_bond_site_symmetry_2
Gd0 Gd2 3.365139 1_455
Gd0 Gd2 3.365139 1_456
Gd0 Gd2 3.365139 1_555
Gd0 Gd2 3.365139 1_556
Gd0 Gd1 3.365150 1_565
Gd0 Gd1 3.365150 1_455
Gd0 Gd1 3.365150 1_465
Gd0 Gd1 3.365150 1_555
Gd1 Gd2 3.365153 1_555
Gd1 Gd2 3.365153 1_556
Gd1 Gd2 3.365153 1_546
Gd1 Gd2 3.365153 1_545
Ga0 Gd1 3.365139 1_454
Ga0 Gd1 3.365139 1_554
Ga0 Gd1 3.365139 1_455
Ga0 Gd1 3.365139 1_555
Ga0 Gd2 3.365150 1_445
Ga0 Gd2 3.365150 1_455
Ga0 Gd2 3.365150 1_555
Ga0 Gd2 3.365150 1_545
Ga0 Gd0 3.365153 1_555
Ga0 Gd0 3.365153 1_554
Ga0 Gd0 3.365153 1_544
Ga0 Gd0 3.365153 1_545
