# generated using pymatgen
data_Mn(IO2)2
_symmetry_space_group_name_H-M   'P 1'
_cell_length_a   7.21555400
_cell_length_b   5.94421700
_cell_length_c   8.52589269
_cell_angle_alpha   50.55677495
_cell_angle_beta   90.00000000
_cell_angle_gamma   90.00000000
_symmetry_Int_Tables_number   1
_chemical_formula_structural   Mn(IO2)2
_chemical_formula_sum   'Mn2 I4 O8'
_cell_volume   282.39997030
_cell_formula_units_Z   2
loop_
 _symmetry_equiv_pos_site_id
 _symmetry_equiv_pos_as_xyz
  1  'x, y, z'
loop_
 _atom_site_type_symbol
 _atom_site_label
 _atom_site_symmetry_multiplicity
 _atom_site_fract_x
 _atom_site_fract_y
 _atom_site_fract_z
 _atom_site_occupancy
  Mn  Mn0  1  0.50000000  0.00000000  0.50000000  1
  Mn  Mn1  1  0.00000000  0.00000000  0.00000000  1
  I  I0  1  0.88528000  0.69005500  0.51524100  1
  I  I1  1  0.38528000  0.30994500  0.98475900  1
  I  I2  1  0.11472000  0.30994500  0.48475900  1
  I  I3  1  0.61472000  0.69005500  0.01524100  1
  O  O0  1  0.61666000  0.96372700  0.71178100  1
  O  O1  1  0.11666000  0.03627300  0.78821900  1
  O  O2  1  0.38334000  0.03627300  0.28821900  1
  O  O3  1  0.88334000  0.96372700  0.21178100  1
  O  O4  1  0.37766900  0.63904500  0.68665900  1
  O  O5  1  0.87766900  0.36095500  0.81334100  1
  O  O6  1  0.62233100  0.36095500  0.31334100  1
  O  O7  1  0.12233100  0.63904500  0.18665900  1
loop_
_geom_bond_atom_site_label_1
_geom_bond_atom_site_label_2
_geom_bond_distance
_geom_bond_site_symmetry_2
Mn0 O2 1.876340 1_555
Mn0 O0 1.876340 1_545
Mn0 O6 1.891224 1_555
Mn0 O4 1.891224 1_545
Mn1 O3 1.876340 1_445
Mn1 O1 1.876340 1_554
Mn1 O5 1.891224 1_454
Mn1 O7 1.891224 1_545
I0 O5 1.992991 1_555
I0 O3 1.998150 1_555
I1 O4 1.992991 1_555
I1 O2 1.998150 1_556
I2 O7 1.992991 1_555
I2 O1 1.998150 1_555
I3 O6 1.992991 1_555
I3 O0 1.998150 1_554
