# generated using pymatgen
data_Al2HgS4
_symmetry_space_group_name_H-M   'P 1'
_cell_length_a   7.29547997
_cell_length_b   7.29547912
_cell_length_c   7.29548039
_cell_angle_alpha   59.99998897
_cell_angle_beta   59.99999407
_cell_angle_gamma   59.99998592
_symmetry_Int_Tables_number   1
_chemical_formula_structural   Al2HgS4
_chemical_formula_sum   'Al4 Hg2 S8'
_cell_volume   274.56582679
_cell_formula_units_Z   2
loop_
 _symmetry_equiv_pos_site_id
 _symmetry_equiv_pos_as_xyz
  1  'x, y, z'
loop_
 _atom_site_type_symbol
 _atom_site_label
 _atom_site_symmetry_multiplicity
 _atom_site_fract_x
 _atom_site_fract_y
 _atom_site_fract_z
 _atom_site_occupancy
  Al  Al0  1  0.12500000  0.62499992  0.62500001  1
  Al  Al1  1  0.62499995  0.12500008  0.62499997  1
  Al  Al2  1  0.62500000  0.62499994  0.12500000  1
  Al  Al3  1  0.62500006  0.62499997  0.62500004  1
  Hg  Hg0  1  0.25000001  0.25000004  0.25000004  1
  Hg  Hg1  1  -0.00000006  0.99999926  -0.00000010  1
  S  S0  1  0.82952131  0.39015964  0.39015957  1
  S  S1  1  0.39015962  0.82952128  0.39015956  1
  S  S2  1  0.39015960  0.39015959  0.82952125  1
  S  S3  1  0.39015959  0.39015959  0.39015963  1
  S  S4  1  0.42047870  0.85984044  0.85984044  1
  S  S5  1  0.85984052  0.42047850  0.85984047  1
  S  S6  1  0.85984040  0.85984041  0.42047876  1
  S  S7  1  0.85984031  0.85984034  0.85984035  1
loop_
_geom_bond_atom_site_label_1
_geom_bond_atom_site_label_2
_geom_bond_distance
_geom_bond_site_symmetry_2
Al0 S3 2.433009 1_555
Al0 S7 2.433010 1_455
Al0 S2 2.433010 1_555
Al0 S6 2.433010 1_455
Al0 S5 2.433010 1_455
Al0 S1 2.433011 1_555
Al1 S3 2.433009 1_555
Al1 S7 2.433010 1_545
Al1 S2 2.433010 1_555
Al1 S6 2.433010 1_545
Al1 S4 2.433010 1_545
Al1 S0 2.433010 1_555
Al2 S7 2.433009 1_554
Al2 S3 2.433010 1_555
Al2 S4 2.433010 1_554
Al2 S0 2.433010 1_555
Al2 S1 2.433010 1_555
Al2 S5 2.433011 1_554
Al3 S6 2.433010 1_555
Al3 S0 2.433010 1_555
Al3 S2 2.433010 1_555
Al3 S4 2.433010 1_555
Al3 S5 2.433010 1_555
Al3 S1 2.433010 1_555
Hg0 S1 2.504680 1_545
Hg0 S0 2.504680 1_455
Hg0 S3 2.504680 1_555
Hg0 S2 2.504680 1_554
Hg1 S7 2.504677 1_454
Hg1 S4 2.504680 1_554
Hg1 S6 2.504681 1_455
Hg1 S5 2.504682 1_464
