# generated using pymatgen
data_LiB5O13
_symmetry_space_group_name_H-M   'P 1'
_cell_length_a   9.09289678
_cell_length_b   9.09289678
_cell_length_c   13.28322429
_cell_angle_alpha   81.29176687
_cell_angle_beta   81.29176687
_cell_angle_gamma   115.10728274
_symmetry_Int_Tables_number   1
_chemical_formula_structural   LiB5O13
_chemical_formula_sum   'Li4 B20 O52'
_cell_volume   954.07667494
_cell_formula_units_Z   4
loop_
 _symmetry_equiv_pos_site_id
 _symmetry_equiv_pos_as_xyz
  1  'x, y, z'
loop_
 _atom_site_type_symbol
 _atom_site_label
 _atom_site_symmetry_multiplicity
 _atom_site_fract_x
 _atom_site_fract_y
 _atom_site_fract_z
 _atom_site_occupancy
  Li  Li0  1  0.14871400  0.85128600  0.25000000  1
  Li  Li1  1  0.85128600  0.14871400  0.75000000  1
  Li  Li2  1  0.60302800  0.39697200  0.25000000  1
  Li  Li3  1  0.39697200  0.60302800  0.75000000  1
  B  B0  1  0.16578900  0.35121200  0.16816400  1
  B  B1  1  0.64878800  0.83421100  0.33183600  1
  B  B2  1  0.83421100  0.64878800  0.83183600  1
  B  B3  1  0.35121200  0.16578900  0.66816400  1
  B  B4  1  0.97784800  0.31471300  0.04618900  1
  B  B5  1  0.68528700  0.02215200  0.45381100  1
  B  B6  1  0.02215200  0.68528700  0.95381100  1
  B  B7  1  0.31471300  0.97784800  0.54618900  1
  B  B8  1  0.27466700  0.43294300  0.97459000  1
  B  B9  1  0.56705700  0.72533300  0.52541000  1
  B  B10  1  0.72533300  0.56705700  0.02541000  1
  B  B11  1  0.43294300  0.27466700  0.47459000  1
  B  B12  1  0.15981300  0.38701600  0.34589600  1
  B  B13  1  0.61298400  0.84018700  0.15410400  1
  B  B14  1  0.84018700  0.61298400  0.65410400  1
  B  B15  1  0.38701600  0.15981300  0.84589600  1
  B  B16  1  0.12750700  0.12681500  0.32266200  1
  B  B17  1  0.87318500  0.87249300  0.17733800  1
  B  B18  1  0.87249300  0.87318500  0.67733800  1
  B  B19  1  0.12681500  0.12750700  0.82266200  1
  O  O0  1  0.82001800  0.27434500  0.03291300  1
  O  O1  1  0.72565500  0.17998200  0.46708700  1
  O  O2  1  0.17998200  0.72565500  0.96708700  1
  O  O3  1  0.27434500  0.82001800  0.53291300  1
  O  O4  1  0.11076700  0.36284300  0.95906100  1
  O  O5  1  0.63715700  0.88923300  0.54093900  1
  O  O6  1  0.88923300  0.63715700  0.04093900  1
  O  O7  1  0.36284300  0.11076700  0.45906100  1
  O  O8  1  0.39543200  0.49606000  0.88376000  1
  O  O9  1  0.50394000  0.60456800  0.61624000  1
  O  O10  1  0.60456800  0.50394000  0.11624000  1
  O  O11  1  0.49606000  0.39543200  0.38376000  1
  O  O12  1  0.00187300  0.31107900  0.14535700  1
  O  O13  1  0.68892100  0.99812700  0.35464300  1
  O  O14  1  0.99812700  0.68892100  0.85464300  1
  O  O15  1  0.31107900  0.00187300  0.64535700  1
  O  O16  1  0.30146100  0.43704400  0.07321000  1
  O  O17  1  0.56295600  0.69853900  0.42679000  1
  O  O18  1  0.69853900  0.56295600  0.92679000  1
  O  O19  1  0.43704400  0.30146100  0.57321000  1
  O  O20  1  0.19087300  0.45773900  0.24484800  1
  O  O21  1  0.54226100  0.80912700  0.25515200  1
  O  O22  1  0.80912700  0.54226100  0.75515200  1
  O  O23  1  0.45773900  0.19087300  0.74484800  1
  O  O24  1  0.16916800  0.19446600  0.21643500  1
  O  O25  1  0.80553400  0.83083200  0.28356500  1
  O  O26  1  0.83083200  0.80553400  0.78356500  1
  O  O27  1  0.19446600  0.16916800  0.71643500  1
  O  O28  1  0.16936300  0.49277500  0.42302300  1
  O  O29  1  0.50722500  0.83063700  0.07697700  1
  O  O30  1  0.83063700  0.50722500  0.57697700  1
  O  O31  1  0.49277500  0.16936300  0.92302300  1
  O  O32  1  0.11744900  0.22622400  0.39292800  1
  O  O33  1  0.77377600  0.88255100  0.10707200  1
  O  O34  1  0.88255100  0.77377600  0.60707200  1
  O  O35  1  0.22622400  0.11744900  0.89292800  1
  O  O36  1  0.09763200  0.96523300  0.35378100  1
  O  O37  1  0.03476700  0.90236800  0.14621900  1
  O  O38  1  0.90236800  0.03476700  0.64621900  1
  O  O39  1  0.96523300  0.09763200  0.85378100  1
  O  O40  1  0.35380400  0.80095100  0.11617900  1
  O  O41  1  0.19904900  0.64619600  0.38382100  1
  O  O42  1  0.64619600  0.19904900  0.88382100  1
  O  O43  1  0.80095100  0.35380400  0.61617900  1
  O  O44  1  0.90728300  0.58215600  0.34363800  1
  O  O45  1  0.41784400  0.09271700  0.15636200  1
  O  O46  1  0.09271700  0.41784400  0.65636200  1
  O  O47  1  0.58215600  0.90728300  0.84363800  1
  O  O48  1  0.84878800  0.45470000  0.31089400  1
  O  O49  1  0.54530000  0.15121200  0.18910600  1
  O  O50  1  0.15121200  0.54530000  0.68910600  1
  O  O51  1  0.45470000  0.84878800  0.81089400  1
loop_
_geom_bond_atom_site_label_1
_geom_bond_atom_site_label_2
_geom_bond_distance
_geom_bond_site_symmetry_2
Li0 O37 1.958744 1_555
Li0 O36 1.958744 1_555
Li0 O45 2.459166 1_565
Li0 O44 2.459166 1_455
Li0 O40 2.610339 1_555
Li0 O41 2.610339 1_555
Li1 O38 1.958744 1_555
Li1 O39 1.958744 1_555
Li1 O46 2.459166 1_655
Li1 O47 2.459166 1_545
Li1 O42 2.610339 1_555
Li1 O43 2.610339 1_555
Li2 O11 1.886993 1_555
Li2 O10 1.886993 1_555
Li2 O49 2.367279 1_555
Li2 O48 2.367279 1_555
Li3 O8 1.886993 1_555
Li3 O9 1.886993 1_555
Li3 O51 2.367279 1_555
Li3 O50 2.367279 1_555
B0 O16 1.461356 1_555
B0 O12 1.468019 1_555
B0 O20 1.486433 1_555
B0 O24 1.486568 1_555
B1 O17 1.461356 1_555
B1 O13 1.468019 1_555
B1 O21 1.486433 1_555
B1 O25 1.486568 1_555
B2 O18 1.461356 1_555
B2 O14 1.468019 1_555
B2 O22 1.486433 1_555
B2 O26 1.486568 1_555
B3 O19 1.461356 1_555
B3 O15 1.468019 1_555
B3 O23 1.486433 1_555
B3 O27 1.486568 1_555
B4 O12 1.365321 1_655
B4 O0 1.369171 1_555
B4 O4 1.402113 1_654
B5 O13 1.365321 1_545
B5 O1 1.369171 1_555
B5 O5 1.402113 1_545
B6 O14 1.365321 1_455
B6 O2 1.369171 1_555
B6 O6 1.402113 1_456
B7 O15 1.365321 1_565
B7 O3 1.369171 1_555
B7 O7 1.402113 1_565
B8 O8 1.358386 1_555
B8 O16 1.371332 1_556
B8 O4 1.413032 1_555
B9 O9 1.358386 1_555
B9 O17 1.371332 1_555
B9 O5 1.413032 1_555
B10 O10 1.358386 1_555
B10 O18 1.371332 1_554
B10 O6 1.413032 1_555
B11 O11 1.358386 1_555
B11 O19 1.371332 1_555
B11 O7 1.413032 1_555
B12 O20 1.328397 1_555
B12 O32 1.359746 1_555
B12 O28 1.495431 1_555
B13 O21 1.328397 1_555
B13 O33 1.359746 1_555
B13 O29 1.495431 1_555
B14 O22 1.328397 1_555
B14 O34 1.359746 1_555
B14 O30 1.495431 1_555
B15 O23 1.328397 1_555
B15 O35 1.359746 1_555
B15 O31 1.495431 1_555
B16 O36 1.358948 1_545
B16 O24 1.374950 1_555
B16 O32 1.412928 1_555
B17 O37 1.358948 1_655
B17 O25 1.374950 1_555
B17 O33 1.412928 1_555
B18 O38 1.358948 1_565
B18 O26 1.374950 1_555
B18 O34 1.412928 1_555
B19 O39 1.358948 1_455
B19 O27 1.374950 1_555
B19 O35 1.412928 1_555
O28 O41 1.306930 1_555
O29 O40 1.306930 1_555
O30 O43 1.306930 1_555
O31 O42 1.306930 1_555
O44 O48 1.230774 1_555
O45 O49 1.230774 1_555
O46 O50 1.230774 1_555
O47 O51 1.230774 1_555
