# generated using pymatgen
data_SrTbEuCoO6
_symmetry_space_group_name_H-M   'P 1'
_cell_length_a   9.38578096
_cell_length_b   9.35747748
_cell_length_c   9.41178221
_cell_angle_alpha   90.00000000
_cell_angle_beta   90.00000000
_cell_angle_gamma   90.00000000
_symmetry_Int_Tables_number   1
_chemical_formula_structural   SrTbEuCoO6
_chemical_formula_sum   'Sr4 Tb4 Eu4 Co4 O24'
_cell_volume   826.61079819
_cell_formula_units_Z   4
loop_
 _symmetry_equiv_pos_site_id
 _symmetry_equiv_pos_as_xyz
  1  'x, y, z'
loop_
 _atom_site_type_symbol
 _atom_site_label
 _atom_site_symmetry_multiplicity
 _atom_site_fract_x
 _atom_site_fract_y
 _atom_site_fract_z
 _atom_site_occupancy
  Sr  Sr0  1  -0.00000000  0.50000000  0.50000000  1
  Sr  Sr1  1  0.50000000  0.00000000  0.50000000  1
  Sr  Sr2  1  0.50000000  0.50000000  -0.00000000  1
  Sr  Sr3  1  0.50000000  0.00000000  -0.00000000  1
  Tb  Tb0  1  0.25054013  0.24934022  0.24962130  1
  Tb  Tb1  1  0.74945987  0.75065978  0.24962130  1
  Tb  Tb2  1  0.74945987  0.24934022  0.75037870  1
  Tb  Tb3  1  0.25054013  0.75065978  0.75037870  1
  Eu  Eu0  1  -0.00000000  0.50000000  -0.00000000  1
  Eu  Eu1  1  -0.00000000  0.00000000  0.50000000  1
  Eu  Eu2  1  -0.00000000  0.00000000  -0.00000000  1
  Eu  Eu3  1  0.50000000  0.50000000  0.50000000  1
  Co  Co0  1  0.74645159  0.75070217  0.74915482  1
  Co  Co1  1  0.25354841  0.24929783  0.74915482  1
  Co  Co2  1  0.25354841  0.75070217  0.25084518  1
  Co  Co3  1  0.74645159  0.24929783  0.25084518  1
  O  O0  1  0.97970392  0.22641418  0.26976870  1
  O  O1  1  0.02029608  0.77358582  0.26976870  1
  O  O2  1  0.02029608  0.22641418  0.73023130  1
  O  O3  1  0.97970392  0.77358582  0.73023130  1
  O  O4  1  0.26648449  0.97867222  0.22908499  1
  O  O5  1  0.26648449  0.02132778  0.77091501  1
  O  O6  1  0.73351551  0.02132778  0.22908499  1
  O  O7  1  0.73351551  0.97867222  0.77091501  1
  O  O8  1  0.22397388  0.27165678  0.97945593  1
  O  O9  1  0.77602612  0.27165678  0.02054407  1
  O  O10  1  0.22397388  0.72834322  0.02054407  1
  O  O11  1  0.77602612  0.72834322  0.97945593  1
  O  O12  1  0.52219581  0.27190606  0.23207155  1
  O  O13  1  0.47780419  0.72809394  0.23207155  1
  O  O14  1  0.47780419  0.27190606  0.76792845  1
  O  O15  1  0.52219581  0.72809394  0.76792845  1
  O  O16  1  0.22951020  0.52089127  0.26974136  1
  O  O17  1  0.22951020  0.47910873  0.73025864  1
  O  O18  1  0.77048980  0.47910873  0.26974136  1
  O  O19  1  0.77048980  0.52089127  0.73025864  1
  O  O20  1  0.26972080  0.23025467  0.52114670  1
  O  O21  1  0.73027920  0.23025467  0.47885330  1
  O  O22  1  0.26972080  0.76974533  0.47885330  1
  O  O23  1  0.73027920  0.76974533  0.52114670  1
loop_
_geom_bond_atom_site_label_1
_geom_bond_atom_site_label_2
_geom_bond_distance
_geom_bond_site_symmetry_2
Eu0 O9 3.003675 1_455
Eu0 O11 3.003675 1_454
Eu0 O10 3.003675 1_555
Eu0 O8 3.003675 1_554
Eu0 O19 3.335227 1_454
Eu0 O17 3.335227 1_554
Eu0 O18 3.335227 1_455
Eu0 O16 3.335227 1_555
Eu1 O2 3.036516 1_555
Eu1 O3 3.036516 1_445
Eu1 O0 3.036516 1_455
Eu1 O1 3.036516 1_545
Eu1 O23 3.330259 1_445
Eu1 O22 3.330259 1_545
Eu1 O21 3.330259 1_455
Eu1 O20 3.330259 1_555
Eu2 O11 3.304297 1_444
Eu2 O9 3.304297 1_455
Eu2 O10 3.304297 1_545
Eu2 O8 3.304297 1_554
Eu2 O5 3.308234 1_554
Eu2 O7 3.308234 1_444
Eu2 O6 3.308234 1_455
Eu2 O4 3.308234 1_545
Eu2 O0 3.312337 1_455
Eu2 O1 3.312337 1_545
Eu2 O2 3.312337 1_554
Eu2 O3 3.312337 1_444
Eu3 O14 3.310270 1_555
Eu3 O12 3.310270 1_555
Eu3 O15 3.310270 1_555
Eu3 O13 3.310270 1_555
Eu3 O20 3.329010 1_555
Eu3 O23 3.329010 1_555
Eu3 O21 3.329010 1_555
Eu3 O22 3.329010 1_555
Eu3 O16 3.343654 1_555
Eu3 O18 3.343654 1_555
Eu3 O19 3.343654 1_555
Eu3 O17 3.343654 1_555
Co0 O15 2.122787 1_555
Co0 O7 2.146470 1_555
Co0 O23 2.158692 1_555
Co0 O19 2.169555 1_555
Co0 O11 2.195238 1_555
Co0 O3 2.206901 1_555
Co1 O14 2.122787 1_555
Co1 O5 2.146470 1_555
Co1 O20 2.158692 1_555
Co1 O17 2.169555 1_555
Co1 O8 2.195238 1_555
Co1 O2 2.206901 1_555
Co2 O13 2.122787 1_555
Co2 O4 2.146470 1_555
Co2 O22 2.158692 1_555
Co2 O16 2.169555 1_555
Co2 O10 2.195238 1_555
Co2 O1 2.206901 1_555
Co3 O12 2.122787 1_555
Co3 O6 2.146470 1_555
Co3 O21 2.158692 1_555
Co3 O18 2.169555 1_555
Co3 O9 2.195238 1_555
Co3 O0 2.206901 1_555
O0 Tb0 2.558084 1_655
O1 Tb1 2.558084 1_455
O2 Tb2 2.558084 1_455
O3 Tb3 2.558084 1_655
O4 Tb0 2.544538 1_565
O4 Sr3 3.080949 1_565
O5 Tb3 2.544538 1_545
O5 Sr3 3.080949 1_556
O6 Tb1 2.544538 1_545
O6 Sr3 3.080949 1_555
O7 Tb2 2.544538 1_565
O7 Sr3 3.080949 1_566
O8 Tb0 2.563454 1_556
O9 Tb2 2.563454 1_554
O10 Tb3 2.563454 1_554
O11 Tb1 2.563454 1_556
O12 Tb0 2.563756 1_555
O12 Sr2 3.061005 1_555
O13 Tb1 2.563756 1_555
O13 Sr2 3.061005 1_555
O14 Tb2 2.563756 1_555
O14 Sr2 3.061005 1_556
O15 Tb3 2.563756 1_555
O15 Sr2 3.061005 1_556
O16 Tb0 2.555713 1_555
O16 Sr0 3.061865 1_555
O17 Tb3 2.555713 1_555
O17 Sr0 3.061865 1_555
O18 Tb1 2.555713 1_555
O18 Sr0 3.061865 1_655
O19 Tb2 2.555713 1_555
O19 Sr0 3.061865 1_655
O20 Tb0 2.568089 1_555
O20 Sr1 3.058326 1_555
O21 Tb2 2.568089 1_555
O21 Sr1 3.058326 1_555
O22 Tb3 2.568089 1_555
O22 Sr1 3.058326 1_565
O23 Tb1 2.568089 1_555
O23 Sr1 3.058326 1_565
