# generated using pymatgen
data_YbPm3
_symmetry_space_group_name_H-M   'P 1'
_cell_length_a   6.35827835
_cell_length_b   6.35827835
_cell_length_c   6.35827835
_cell_angle_alpha   131.88193621
_cell_angle_beta   131.88193621
_cell_angle_gamma   70.41555984
_symmetry_Int_Tables_number   1
_chemical_formula_structural   YbPm3
_chemical_formula_sum   'Yb1 Pm3'
_cell_volume   139.62715295
_cell_formula_units_Z   1
loop_
 _symmetry_equiv_pos_site_id
 _symmetry_equiv_pos_as_xyz
  1  'x, y, z'
loop_
 _atom_site_type_symbol
 _atom_site_label
 _atom_site_symmetry_multiplicity
 _atom_site_fract_x
 _atom_site_fract_y
 _atom_site_fract_z
 _atom_site_occupancy
  Yb  Yb0  1  0.00000000  0.00000000  0.00000000  1
  Pm  Pm0  1  0.75000000  0.25000000  0.50000000  1
  Pm  Pm1  1  0.25000000  0.75000000  0.50000000  1
  Pm  Pm2  1  0.50000000  0.50000000  0.00000000  1
loop_
_geom_bond_atom_site_label_1
_geom_bond_atom_site_label_2
_geom_bond_distance
_geom_bond_site_symmetry_2
Pm0 Pm1 3.665823 1_544
Pm0 Pm1 3.665823 1_555
Pm0 Pm1 3.665823 1_656
Pm0 Pm1 3.665823 1_645
Pm0 Pm2 3.669672 1_656
Pm0 Yb0 3.669672 1_555
Pm0 Pm2 3.669672 1_555
Pm0 Pm2 3.669672 1_545
Pm0 Yb0 3.669672 1_655
Pm0 Yb0 3.669672 1_656
Pm0 Yb0 3.669672 1_666
Pm0 Pm2 3.669672 1_556
Pm1 Yb0 3.669672 1_666
Pm1 Pm2 3.669672 1_455
Pm1 Yb0 3.669672 1_555
Pm1 Pm2 3.669672 1_555
Pm1 Pm2 3.669672 1_566
Pm1 Yb0 3.669672 1_566
Pm1 Yb0 3.669672 1_565
Pm1 Pm2 3.669672 1_556
Pm2 Yb0 3.665823 1_554
Pm2 Yb0 3.665823 1_655
Pm2 Yb0 3.665823 1_565
Pm2 Yb0 3.665823 1_666
