# generated using pymatgen
data_U3H2OF12
_symmetry_space_group_name_H-M   'P 1'
_cell_length_a   8.54712228
_cell_length_b   8.54712228
_cell_length_c   8.62333605
_cell_angle_alpha   63.25457760
_cell_angle_beta   63.25457760
_cell_angle_gamma   88.39241910
_symmetry_Int_Tables_number   1
_chemical_formula_structural   U3H2OF12
_chemical_formula_sum   'U6 H4 O2 F24'
_cell_volume   490.20986414
_cell_formula_units_Z   2
loop_
 _symmetry_equiv_pos_site_id
 _symmetry_equiv_pos_as_xyz
  1  'x, y, z'
loop_
 _atom_site_type_symbol
 _atom_site_label
 _atom_site_symmetry_multiplicity
 _atom_site_fract_x
 _atom_site_fract_y
 _atom_site_fract_z
 _atom_site_occupancy
  U  U0  1  0.20503900  0.82934800  0.92824900  1
  U  U1  1  0.82934800  0.20503900  0.92824900  1
  U  U2  1  0.32046600  0.97911300  0.32154400  1
  U  U3  1  0.97911300  0.32046600  0.32154400  1
  U  U4  1  0.41107500  0.41107500  0.44116200  1
  U  U5  1  0.78256100  0.78256100  0.76829800  1
  H  H0  1  0.46785700  0.33614700  0.79675900  1
  H  H1  1  0.33614700  0.46785700  0.79675900  1
  H  H2  1  0.78672200  0.65409200  0.47534700  1
  H  H3  1  0.65409200  0.78672200  0.47534700  1
  O  O0  1  0.42963100  0.42963100  0.71050300  1
  O  O1  1  0.73431900  0.73431900  0.52722500  1
  F  F0  1  0.38417800  0.68692300  0.39624700  1
  F  F1  1  0.68692300  0.38417800  0.39624700  1
  F  F2  1  0.28280700  0.89584700  0.11281200  1
  F  F3  1  0.89584700  0.28280700  0.11281200  1
  F  F4  1  0.32239300  0.85830000  0.61264200  1
  F  F5  1  0.85830000  0.32239300  0.61264200  1
  F  F6  1  0.49245500  0.78459900  0.84217300  1
  F  F7  1  0.78459900  0.49245500  0.84217300  1
  F  F8  1  0.34994100  0.11874500  0.69806100  1
  F  F9  1  0.11874500  0.34994100  0.69806100  1
  F  F10  1  0.62791700  0.98524900  0.24017100  1
  F  F11  1  0.98524900  0.62791700  0.24017100  1
  F  F12  1  0.44548500  0.22196200  0.31503700  1
  F  F13  1  0.22196200  0.44548500  0.31503700  1
  F  F14  1  0.53450500  0.19117400  0.98751400  1
  F  F15  1  0.19117400  0.53450500  0.98751400  1
  F  F16  1  0.97730000  0.74932000  0.88454500  1
  F  F17  1  0.74932000  0.97730000  0.88454500  1
  F  F18  1  0.05169700  0.78724100  0.51843400  1
  F  F19  1  0.78724100  0.05169700  0.51843400  1
  F  F20  1  0.99974500  0.99974500  0.99790900  1
  F  F21  1  0.08201400  0.08201400  0.52975500  1
  F  F22  1  0.18045200  0.18045200  0.17407000  1
  F  F23  1  0.60243000  0.60243000  0.11080000  1
loop_
_geom_bond_atom_site_label_1
_geom_bond_atom_site_label_2
_geom_bond_distance
_geom_bond_site_symmetry_2
H0 O0 0.983667 1_555
H1 O0 0.983667 1_555
H2 O1 0.974405 1_555
H3 O1 0.974405 1_555
O0 U4 2.471715 1_555
O1 U5 2.492832 1_555
F0 U4 2.233711 1_555
F0 U2 2.395805 1_555
F1 U4 2.233711 1_555
F1 U3 2.395805 1_555
F2 U0 2.255091 1_554
F2 U2 2.353140 1_555
F3 U1 2.255091 1_554
F3 U3 2.353140 1_555
F4 U2 2.251904 1_555
F4 U0 2.329183 1_555
F5 U3 2.251904 1_555
F5 U1 2.329183 1_555
F6 U5 2.267210 1_555
F6 U0 2.300793 1_555
F7 U5 2.267210 1_555
F7 U1 2.300793 1_555
F8 U0 2.265465 1_545
F8 U4 2.339453 1_555
F9 U1 2.265465 1_455
F9 U4 2.339453 1_555
F10 U1 2.278950 1_564
F10 U2 2.390718 1_555
F11 U0 2.278950 1_654
F11 U3 2.390718 1_555
F12 U4 2.269313 1_555
F12 U2 2.327868 1_545
F13 U4 2.269313 1_555
F13 U3 2.327868 1_455
F14 U1 2.330018 1_555
F14 U2 2.381824 1_546
F15 U0 2.330018 1_555
F15 U3 2.381824 1_456
F16 U5 2.252754 1_555
F16 U0 2.316422 1_655
F17 U5 2.252754 1_555
F17 U1 2.316422 1_565
F18 U2 2.245899 1_555
F18 U5 2.324271 1_455
F19 U3 2.245899 1_555
F19 U5 2.324271 1_545
F20 U1 2.292637 1_565
F20 U0 2.292637 1_655
F21 U2 2.485593 1_545
F21 U3 2.485593 1_455
F21 U5 2.867619 1_445
F22 U2 2.301149 1_545
F22 U3 2.301149 1_455
F23 U4 2.286590 1_555
F23 U5 2.326254 1_554
