# generated using pymatgen
data_Li4Mn7(PO4)6
_symmetry_space_group_name_H-M   'P 1'
_cell_length_a   9.07241362
_cell_length_b   9.07241362
_cell_length_c   6.70955236
_cell_angle_alpha   80.90333330
_cell_angle_beta   80.90333330
_cell_angle_gamma   103.54865105
_symmetry_Int_Tables_number   1
_chemical_formula_structural   Li4Mn7(PO4)6
_chemical_formula_sum   'Li4 Mn7 P6 O24'
_cell_volume   519.06452953
_cell_formula_units_Z   1
loop_
 _symmetry_equiv_pos_site_id
 _symmetry_equiv_pos_as_xyz
  1  'x, y, z'
loop_
 _atom_site_type_symbol
 _atom_site_label
 _atom_site_symmetry_multiplicity
 _atom_site_fract_x
 _atom_site_fract_y
 _atom_site_fract_z
 _atom_site_occupancy
  Li  Li0  1  0.78786000  0.78786000  0.43941600  1
  Li  Li1  1  0.58624600  0.35597800  0.52069900  1
  Li  Li2  1  0.35597800  0.58624600  0.52069900  1
  Li  Li3  1  0.11568700  0.11568700  0.61426700  1
  Mn  Mn0  1  0.99529700  0.35743100  0.18646300  1
  Mn  Mn1  1  0.35743100  0.99529700  0.18646300  1
  Mn  Mn2  1  0.64291200  0.34248100  0.01739900  1
  Mn  Mn3  1  0.34248100  0.64291200  0.01739900  1
  Mn  Mn4  1  0.98911800  0.98911800  0.01467000  1
  Mn  Mn5  1  0.63564200  0.99687600  0.80526900  1
  Mn  Mn6  1  0.99687600  0.63564200  0.80526900  1
  P  P0  1  0.89229800  0.27791000  0.71119900  1
  P  P1  1  0.27791000  0.89229800  0.71119900  1
  P  P2  1  0.66980500  0.66980500  0.07770400  1
  P  P3  1  0.31202000  0.31202000  0.90239400  1
  P  P4  1  0.70838600  0.08432400  0.29379500  1
  P  P5  1  0.08432400  0.70838600  0.29379500  1
  O  O0  1  0.57931200  0.75391700  0.93607800  1
  O  O1  1  0.75391700  0.57931200  0.93607800  1
  O  O2  1  0.78976300  0.78976300  0.14832200  1
  O  O3  1  0.94498500  0.37934900  0.86845100  1
  O  O4  1  0.37934900  0.94498500  0.86845100  1
  O  O5  1  0.88916700  0.10240300  0.77494800  1
  O  O6  1  0.10240300  0.88916700  0.77494800  1
  O  O7  1  0.71626200  0.27448000  0.72208800  1
  O  O8  1  0.27448000  0.71626200  0.72208800  1
  O  O9  1  0.55308800  0.55308800  0.25848500  1
  O  O10  1  0.41895000  0.41895000  0.70543700  1
  O  O11  1  0.11451000  0.88613400  0.21168700  1
  O  O12  1  0.88613400  0.11451000  0.21168700  1
  O  O13  1  0.68475500  0.24828600  0.31291600  1
  O  O14  1  0.24828600  0.68475500  0.31291600  1
  O  O15  1  0.66652800  0.96098600  0.49533200  1
  O  O16  1  0.96098600  0.66652800  0.49533200  1
  O  O17  1  0.18613800  0.18613800  0.85390600  1
  O  O18  1  0.60984800  0.03089300  0.13386600  1
  O  O19  1  0.03089300  0.60984800  0.13386600  1
  O  O20  1  0.41025400  0.23498400  0.03932300  1
  O  O21  1  0.23498400  0.41025400  0.03932300  1
  O  O22  1  0.33820800  0.00152800  0.50034900  1
  O  O23  1  0.00152800  0.33820800  0.50034900  1
loop_
_geom_bond_atom_site_label_1
_geom_bond_atom_site_label_2
_geom_bond_distance
_geom_bond_site_symmetry_2
Li0 O2 1.947761 1_555
Li0 O16 2.164554 1_555
Li0 O15 2.164554 1_555
Li1 O13 2.035376 1_555
Li1 O10 2.049818 1_555
Li1 O7 2.088199 1_555
Li1 O9 2.410028 1_555
Li2 O14 2.035376 1_555
Li2 O10 2.049818 1_555
Li2 O8 2.088199 1_555
Li2 O9 2.410028 1_555
Li3 O17 1.964892 1_555
Li3 O6 2.131311 1_545
Li3 O5 2.131311 1_455
Li3 O23 2.544505 1_555
Li3 O22 2.544505 1_555
Mn0 O23 2.096454 1_655
Mn0 O21 2.148544 1_655
Mn0 O12 2.161703 1_555
Mn0 O19 2.198861 1_655
Mn0 O3 2.239859 1_554
Mn0 O13 2.703571 1_555
Mn1 O22 2.096454 1_565
Mn1 O20 2.148544 1_565
Mn1 O11 2.161703 1_555
Mn1 O18 2.198861 1_565
Mn1 O4 2.239859 1_554
Mn1 O14 2.703571 1_555
Mn2 O20 2.078475 1_555
Mn2 O1 2.090509 1_554
Mn2 O13 2.158720 1_555
Mn2 O7 2.216160 1_554
Mn3 O21 2.078475 1_555
Mn3 O0 2.090509 1_554
Mn3 O14 2.158720 1_555
Mn3 O8 2.216160 1_554
Mn4 O12 2.120727 1_565
Mn4 O11 2.120727 1_655
Mn4 O2 2.188171 1_555
Mn4 O17 2.199354 1_664
Mn4 O5 2.200176 1_564
Mn4 O6 2.200176 1_654
Mn5 O15 2.140472 1_555
Mn5 O0 2.146798 1_555
Mn5 O4 2.218153 1_555
Mn5 O5 2.237644 1_565
Mn5 O18 2.257593 1_566
Mn5 O7 2.398511 1_565
Mn6 O16 2.140472 1_555
Mn6 O1 2.146798 1_555
Mn6 O3 2.218153 1_555
Mn6 O6 2.237644 1_655
Mn6 O19 2.257593 1_656
Mn6 O8 2.398511 1_655
O0 P2 1.571702 1_556
O1 P2 1.571702 1_556
O2 P2 1.537689 1_555
O3 P0 1.564939 1_555
O4 P1 1.564939 1_555
O5 P0 1.574390 1_555
O6 P1 1.574390 1_555
O7 P0 1.579887 1_555
O8 P1 1.579887 1_555
O9 P2 1.541493 1_555
O10 P3 1.541717 1_555
O11 P5 1.563154 1_555
O12 P4 1.563154 1_555
O13 P4 1.573608 1_555
O14 P5 1.573608 1_555
O15 P4 1.544314 1_565
O16 P5 1.544314 1_655
O17 P3 1.529140 1_555
O18 P4 1.565367 1_555
O19 P5 1.565367 1_555
O20 P3 1.573060 1_554
O21 P3 1.573060 1_554
O22 P1 1.529932 1_545
O23 P0 1.529932 1_455
