# generated using pymatgen
data_La2(SeO8)3
_symmetry_space_group_name_H-M   'P 1'
_cell_length_a   11.29496305
_cell_length_b   11.29496305
_cell_length_c   10.88198055
_cell_angle_alpha   76.49010528
_cell_angle_beta   76.49010528
_cell_angle_gamma   122.12458725
_symmetry_Int_Tables_number   1
_chemical_formula_structural   La2(SeO8)3
_chemical_formula_sum   'La4 Se6 O48'
_cell_volume   1029.61162947
_cell_formula_units_Z   2
loop_
 _symmetry_equiv_pos_site_id
 _symmetry_equiv_pos_as_xyz
  1  'x, y, z'
loop_
 _atom_site_type_symbol
 _atom_site_label
 _atom_site_symmetry_multiplicity
 _atom_site_fract_x
 _atom_site_fract_y
 _atom_site_fract_z
 _atom_site_occupancy
  La  La0  1  0.91102400  0.77001900  0.60362000  1
  La  La1  1  0.22998100  0.08897600  0.89638000  1
  La  La2  1  0.08897600  0.22998100  0.39638000  1
  La  La3  1  0.77001900  0.91102400  0.10362000  1
  Se  Se0  1  0.07211500  0.92788500  0.25000000  1
  Se  Se1  1  0.92788500  0.07211500  0.75000000  1
  Se  Se2  1  0.89208600  0.68014800  0.98075000  1
  Se  Se3  1  0.31985200  0.10791400  0.51925000  1
  Se  Se4  1  0.10791400  0.31985200  0.01925000  1
  Se  Se5  1  0.68014800  0.89208600  0.48075000  1
  O  O0  1  0.98614900  0.75240300  0.37228000  1
  O  O1  1  0.24759700  0.01385100  0.12772000  1
  O  O2  1  0.01385100  0.24759700  0.62772000  1
  O  O3  1  0.75240300  0.98614900  0.87228000  1
  O  O4  1  0.92918500  0.97384600  0.65433900  1
  O  O5  1  0.02615400  0.07081500  0.84566100  1
  O  O6  1  0.07081500  0.02615400  0.34566100  1
  O  O7  1  0.97384600  0.92918500  0.15433900  1
  O  O8  1  0.81540200  0.50141800  0.08627700  1
  O  O9  1  0.49858200  0.18459800  0.41372300  1
  O  O10  1  0.18459800  0.49858200  0.91372300  1
  O  O11  1  0.50141800  0.81540200  0.58627700  1
  O  O12  1  0.91660300  0.69481600  0.81773500  1
  O  O13  1  0.30518400  0.08339700  0.68226500  1
  O  O14  1  0.08339700  0.30518400  0.18226500  1
  O  O15  1  0.69481600  0.91660300  0.31773500  1
  O  O16  1  0.72817200  0.77629200  0.53005100  1
  O  O17  1  0.22370800  0.27182800  0.96994900  1
  O  O18  1  0.27182800  0.22370800  0.46994900  1
  O  O19  1  0.77629200  0.72817200  0.03005100  1
  O  O20  1  0.18630400  0.93303600  0.52997900  1
  O  O21  1  0.06696400  0.81369600  0.97002100  1
  O  O22  1  0.81369600  0.06696400  0.47002100  1
  O  O23  1  0.93303600  0.18630400  0.02997900  1
  O  O24  1  0.54344300  0.35124700  0.69510800  1
  O  O25  1  0.64875300  0.45655700  0.80489200  1
  O  O26  1  0.45655700  0.64875300  0.30489200  1
  O  O27  1  0.35124700  0.54344300  0.19510800  1
  O  O28  1  0.05143500  0.58045000  0.60506900  1
  O  O29  1  0.41955000  0.94856500  0.89493100  1
  O  O30  1  0.94856500  0.41955000  0.39493100  1
  O  O31  1  0.58045000  0.05143500  0.10506900  1
  O  O32  1  0.59683600  0.53188100  0.80540300  1
  O  O33  1  0.46811900  0.40316400  0.69459700  1
  O  O34  1  0.40316400  0.46811900  0.19459700  1
  O  O35  1  0.53188100  0.59683600  0.30540300  1
  O  O36  1  0.59164500  0.40835500  0.25000000  1
  O  O37  1  0.40835500  0.59164500  0.75000000  1
  O  O38  1  0.75876300  0.24123700  0.25000000  1
  O  O39  1  0.24123700  0.75876300  0.75000000  1
  O  O40  1  0.63936200  0.18008900  0.00263700  1
  O  O41  1  0.81991100  0.36063800  0.49736300  1
  O  O42  1  0.36063800  0.81991100  0.99736300  1
  O  O43  1  0.18008900  0.63936200  0.50263700  1
  O  O44  1  0.00632600  0.47706000  0.72345000  1
  O  O45  1  0.52294000  0.99367400  0.77655000  1
  O  O46  1  0.99367400  0.52294000  0.27655000  1
  O  O47  1  0.47706000  0.00632600  0.22345000  1
loop_
_geom_bond_atom_site_label_1
_geom_bond_atom_site_label_2
_geom_bond_distance
_geom_bond_site_symmetry_2
La0 O12 2.314126 1_555
La0 O20 2.399541 1_655
La0 O4 2.406499 1_555
La0 O16 2.411035 1_555
La0 O0 2.551985 1_555
La0 O6 2.791464 1_665
La0 O32 2.845697 1_555
La0 O25 2.880772 1_555
La0 O28 3.272226 1_655
La1 O13 2.314126 1_555
La1 O21 2.399541 1_545
La1 O5 2.406499 1_555
La1 O17 2.411035 1_555
La1 O1 2.551985 1_556
La1 O7 2.791464 1_446
La1 O33 2.845697 1_555
La1 O24 2.880772 1_555
La1 O29 3.272226 1_545
La2 O14 2.314126 1_555
La2 O22 2.399541 1_455
La2 O6 2.406499 1_555
La2 O18 2.411035 1_555
La2 O2 2.551985 1_555
La2 O4 2.791464 1_445
La2 O34 2.845697 1_555
La2 O27 2.880772 1_555
La2 O30 3.272226 1_455
La3 O15 2.314126 1_555
La3 O23 2.399541 1_565
La3 O7 2.406499 1_555
La3 O19 2.411035 1_555
La3 O3 2.551985 1_554
La3 O5 2.791464 1_664
La3 O35 2.845697 1_555
La3 O26 2.880772 1_555
La3 O31 3.272226 1_565
O0 Se0 1.661099 1_655
O1 Se0 1.661099 1_545
O2 Se1 1.661099 1_455
O3 Se1 1.661099 1_565
O4 Se1 1.692889 1_565
O5 Se1 1.692889 1_455
O6 Se0 1.692889 1_545
O7 Se0 1.692889 1_655
O8 Se2 1.654326 1_554
O9 Se3 1.654326 1_555
O10 Se4 1.654326 1_556
O11 Se5 1.654326 1_555
O12 Se2 1.683841 1_555
O13 Se3 1.683841 1_555
O14 Se4 1.683841 1_555
O15 Se5 1.683841 1_555
O16 Se5 1.689751 1_555
O17 Se4 1.689751 1_556
O18 Se3 1.689751 1_555
O19 Se2 1.689751 1_554
O20 Se3 1.682778 1_565
O21 Se2 1.682778 1_455
O22 Se5 1.682778 1_545
O23 Se4 1.682778 1_655
O24 O33 1.264517 1_555
O24 O25 2.019920 1_555
O25 O32 1.264517 1_555
O26 O35 1.264517 1_555
O26 O27 2.019920 1_555
O27 O34 1.264517 1_555
O28 O44 1.280818 1_555
O28 O43 1.290413 1_555
O29 O45 1.280818 1_555
O29 O42 1.290413 1_555
O30 O46 1.280818 1_555
O30 O41 1.290413 1_555
O31 O47 1.280818 1_555
O31 O40 1.290413 1_555
