# generated using pymatgen
data_Sm4Mo4O11
_symmetry_space_group_name_H-M   'P 1'
_cell_length_a   6.07845900
_cell_length_b   11.09417300
_cell_length_c   16.47181800
_cell_angle_alpha   90.00000000
_cell_angle_beta   90.00000000
_cell_angle_gamma   90.00000000
_symmetry_Int_Tables_number   1
_chemical_formula_structural   Sm4Mo4O11
_chemical_formula_sum   'Sm16 Mo16 O44'
_cell_volume   1110.78488279
_cell_formula_units_Z   4
loop_
 _symmetry_equiv_pos_site_id
 _symmetry_equiv_pos_as_xyz
  1  'x, y, z'
loop_
 _atom_site_type_symbol
 _atom_site_label
 _atom_site_symmetry_multiplicity
 _atom_site_fract_x
 _atom_site_fract_y
 _atom_site_fract_z
 _atom_site_occupancy
  Sm  Sm0  1  0.00000000  0.61392800  0.57802600  1
  Sm  Sm1  1  0.00000000  0.38607200  0.42197500  1
  Sm  Sm2  1  0.00000000  0.11392800  0.92197500  1
  Sm  Sm3  1  0.00000000  0.88607200  0.07802500  1
  Sm  Sm4  1  0.00000000  0.40153100  0.73665500  1
  Sm  Sm5  1  0.00000000  0.59846900  0.26334500  1
  Sm  Sm6  1  0.00000000  0.90153100  0.76334500  1
  Sm  Sm7  1  0.00000000  0.09846900  0.23665500  1
  Sm  Sm8  1  0.49999900  0.42079000  0.59853800  1
  Sm  Sm9  1  0.49999900  0.57921000  0.40146200  1
  Sm  Sm10  1  0.49999900  0.92079000  0.90146200  1
  Sm  Sm11  1  0.49999900  0.07921000  0.09853800  1
  Sm  Sm12  1  0.49999900  0.18079900  0.77494900  1
  Sm  Sm13  1  0.49999900  0.81920100  0.22505100  1
  Sm  Sm14  1  0.49999900  0.68079900  0.72505100  1
  Sm  Sm15  1  0.49999900  0.31920100  0.27494900  1
  Mo  Mo0  1  0.00000000  0.90816700  0.56591100  1
  Mo  Mo1  1  0.00000000  0.09183400  0.43408900  1
  Mo  Mo2  1  0.00000000  0.40816600  0.93408900  1
  Mo  Mo3  1  0.00000000  0.59183400  0.06591100  1
  Mo  Mo4  1  0.49999900  0.89441100  0.57735200  1
  Mo  Mo5  1  0.49999900  0.10558900  0.42264800  1
  Mo  Mo6  1  0.49999900  0.39441100  0.92264800  1
  Mo  Mo7  1  0.49999900  0.60558900  0.07735200  1
  Mo  Mo8  1  0.24740200  0.85861200  0.40998500  1
  Mo  Mo9  1  0.24740200  0.14138800  0.59001600  1
  Mo  Mo10  1  0.75259900  0.35861200  0.09001500  1
  Mo  Mo11  1  0.75259900  0.64138800  0.90998400  1
  Mo  Mo12  1  0.75259900  0.14138800  0.59001600  1
  Mo  Mo13  1  0.75259900  0.85861200  0.40998500  1
  Mo  Mo14  1  0.24740200  0.64138800  0.90998400  1
  Mo  Mo15  1  0.24740200  0.35861200  0.09001500  1
  O  O0  1  0.24653800  0.00000000  0.00000000  1
  O  O1  1  0.75346300  0.50000000  0.50000000  1
  O  O2  1  0.75346300  0.00000000  0.00000000  1
  O  O3  1  0.24653800  0.50000000  0.50000000  1
  O  O4  1  0.00000000  0.23388700  0.52184100  1
  O  O5  1  0.00000000  0.76611300  0.47815900  1
  O  O6  1  0.00000000  0.73388700  0.97815900  1
  O  O7  1  0.00000000  0.26611300  0.02184100  1
  O  O8  1  0.00000000  0.04516300  0.65572500  1
  O  O9  1  0.00000000  0.95483700  0.34427500  1
  O  O10  1  0.00000000  0.54516300  0.84427500  1
  O  O11  1  0.00000000  0.45483700  0.15572500  1
  O  O12  1  0.49999900  0.22951200  0.52225400  1
  O  O13  1  0.49999900  0.77048800  0.47774600  1
  O  O14  1  0.49999900  0.72951200  0.97774600  1
  O  O15  1  0.49999900  0.27048800  0.02225400  1
  O  O16  1  0.49999900  0.05037300  0.65481900  1
  O  O17  1  0.49999900  0.94962700  0.34518100  1
  O  O18  1  0.76404900  0.30837700  0.86043600  1
  O  O19  1  0.49999900  0.44962700  0.15481900  1
  O  O20  1  0.24985400  0.96207200  0.17268600  1
  O  O21  1  0.24985400  0.03792800  0.82731300  1
  O  O22  1  0.75014600  0.46207200  0.32731300  1
  O  O23  1  0.75014600  0.53792800  0.67268600  1
  O  O24  1  0.75014600  0.03792800  0.82731300  1
  O  O25  1  0.75014600  0.96207200  0.17268600  1
  O  O26  1  0.24985400  0.53792800  0.67268600  1
  O  O27  1  0.24985400  0.46207200  0.32731300  1
  O  O28  1  0.23595200  0.69162300  0.13956400  1
  O  O29  1  0.23595200  0.30837700  0.86043600  1
  O  O30  1  0.76404900  0.19162300  0.36043600  1
  O  O31  1  0.76404900  0.80837700  0.63956400  1
  O  O32  1  0.26269600  0.22304000  0.17639400  1
  O  O33  1  0.26269600  0.77696000  0.82360600  1
  O  O34  1  0.73730300  0.72304000  0.32360500  1
  O  O35  1  0.73730300  0.27696000  0.67639400  1
  O  O36  1  0.73730300  0.77696000  0.82360600  1
  O  O37  1  0.73730300  0.22304000  0.17639400  1
  O  O38  1  0.26269600  0.27696000  0.67639400  1
  O  O39  1  0.26269600  0.72304000  0.32360500  1
  O  O40  1  0.23595200  0.19162300  0.36043600  1
  O  O41  1  0.23595200  0.80837700  0.63956400  1
  O  O42  1  0.76404900  0.69162300  0.13956400  1
  O  O43  1  0.49999900  0.55037300  0.84518100  1
loop_
_geom_bond_atom_site_label_1
_geom_bond_atom_site_label_2
_geom_bond_distance
_geom_bond_site_symmetry_2
Mo0 O8 2.120988 1_565
Mo0 O5 2.138450 1_555
Mo0 O31 2.180476 1_455
Mo0 O41 2.180480 1_555
Mo1 O9 2.120996 1_545
Mo1 O4 2.138442 1_555
Mo1 O30 2.180471 1_455
Mo1 O40 2.180475 1_555
Mo2 O10 2.120996 1_555
Mo2 O7 2.138442 1_556
Mo2 O18 2.180471 1_455
Mo2 O29 2.180475 1_555
Mo3 O11 2.120996 1_555
Mo3 O6 2.138442 1_554
Mo3 O42 2.180471 1_455
Mo3 O28 2.180475 1_555
Mo4 O41 2.130058 1_555
Mo4 O31 2.130072 1_555
Mo4 O13 2.140563 1_555
Mo4 O16 2.149899 1_565
Mo5 O40 2.130058 1_555
Mo5 O30 2.130072 1_555
Mo5 O12 2.140563 1_555
Mo5 O17 2.149899 1_545
Mo6 O29 2.130058 1_555
Mo6 O18 2.130072 1_555
Mo6 O15 2.140563 1_556
Mo6 O43 2.149899 1_555
Mo7 O28 2.130058 1_555
Mo7 O42 2.130072 1_555
Mo7 O14 2.140563 1_554
Mo7 O19 2.149899 1_555
Mo8 O39 2.072510 1_555
Mo8 O17 2.125194 1_555
Mo8 O13 2.135196 1_555
Mo8 O9 2.138370 1_555
Mo8 O5 2.139062 1_555
Mo9 O38 2.072487 1_555
Mo9 O16 2.125186 1_555
Mo9 O12 2.135205 1_555
Mo9 O8 2.138362 1_555
Mo9 O4 2.139071 1_555
Mo10 O37 2.072499 1_555
Mo10 O19 2.125207 1_555
Mo10 O15 2.135209 1_555
Mo10 O11 2.138366 1_655
Mo10 O7 2.139058 1_655
Mo11 O36 2.072488 1_555
Mo11 O43 2.125199 1_555
Mo11 O14 2.135218 1_555
Mo11 O10 2.138358 1_655
Mo11 O6 2.139066 1_655
Mo12 O35 2.072488 1_555
Mo12 O16 2.125199 1_555
Mo12 O12 2.135218 1_555
Mo12 O8 2.138358 1_655
Mo12 O4 2.139066 1_655
Mo13 O34 2.072511 1_555
Mo13 O17 2.125207 1_555
Mo13 O13 2.135209 1_555
Mo13 O9 2.138366 1_655
Mo13 O5 2.139058 1_655
Mo14 O33 2.072487 1_555
Mo14 O43 2.125186 1_555
Mo14 O14 2.135205 1_555
Mo14 O10 2.138362 1_555
Mo14 O6 2.139071 1_555
Mo15 O32 2.072499 1_555
Mo15 O19 2.125194 1_555
Mo15 O15 2.135196 1_555
Mo15 O11 2.138370 1_555
Mo15 O7 2.139062 1_555
O0 Sm3 2.344147 1_545
O0 Sm2 2.344147 1_554
O0 Sm10 2.404225 1_544
O0 Sm11 2.404225 1_555
O1 Sm1 2.344143 1_655
O1 Sm0 2.344152 1_655
O1 Sm8 2.404237 1_555
O1 Sm9 2.404237 1_555
O2 Sm2 2.344143 1_654
O2 Sm3 2.344143 1_645
O2 Sm10 2.404237 1_544
O2 Sm11 2.404237 1_555
O3 Sm1 2.344147 1_555
O3 Sm0 2.344156 1_555
O3 Sm9 2.404225 1_555
O3 Sm8 2.404225 1_555
O4 Sm1 2.357228 1_555
O5 Sm0 2.357239 1_555
O6 Sm3 2.357228 1_556
O7 Sm2 2.357228 1_554
O8 Sm6 2.383617 1_545
O9 Sm7 2.383617 1_565
O10 Sm4 2.383617 1_555
O11 Sm5 2.383617 1_555
O12 Sm8 2.466185 1_555
O13 Sm9 2.466185 1_555
O14 Sm10 2.466185 1_555
O15 Sm11 2.466185 1_555
O16 Sm12 2.451368 1_555
O17 Sm13 2.451368 1_555
O18 Sm12 2.561675 1_555
O18 Sm4 2.698544 1_655
O18 Sm2 2.781765 1_655
O19 Sm15 2.451368 1_555
O20 Sm3 2.334239 1_555
O20 Sm11 2.343595 1_565
O20 Sm13 2.359710 1_555
O20 Sm7 2.388848 1_565
O21 Sm2 2.334250 1_555
O21 Sm10 2.343604 1_545
O21 Sm12 2.359704 1_555
O21 Sm6 2.388841 1_545
O22 Sm1 2.334250 1_655
O22 Sm9 2.343612 1_555
O22 Sm15 2.359712 1_555
O22 Sm5 2.388841 1_655
O23 Sm0 2.334228 1_655
O23 Sm8 2.343603 1_555
O23 Sm14 2.359718 1_555
O23 Sm4 2.388848 1_655
O24 Sm2 2.334250 1_655
O24 Sm10 2.343612 1_545
O24 Sm12 2.359712 1_555
O24 Sm6 2.388841 1_645
O25 Sm3 2.334239 1_655
O25 Sm11 2.343603 1_565
O25 Sm13 2.359718 1_555
O25 Sm7 2.388848 1_665
O26 Sm0 2.334228 1_555
O26 Sm8 2.343595 1_555
O26 Sm14 2.359710 1_555
O26 Sm4 2.388848 1_555
O27 Sm1 2.334250 1_555
O27 Sm9 2.343604 1_555
O27 Sm15 2.359704 1_555
O27 Sm5 2.388841 1_555
O28 Sm13 2.561664 1_555
O28 Sm5 2.698548 1_555
O28 Sm3 2.781769 1_555
O29 Sm12 2.561664 1_555
O29 Sm4 2.698548 1_555
O29 Sm2 2.781769 1_555
O30 Sm15 2.561675 1_555
O30 Sm7 2.698544 1_655
O30 Sm1 2.781765 1_655
O31 Sm14 2.561675 1_555
O31 Sm6 2.698544 1_655
O31 Sm0 2.781759 1_655
O32 Sm7 2.333443 1_555
O32 Sm15 2.419526 1_555
O32 Sm11 2.504282 1_555
O33 Sm6 2.333443 1_555
O33 Sm14 2.419526 1_555
O33 Sm10 2.504282 1_555
O34 Sm5 2.333440 1_655
O34 Sm13 2.419518 1_555
O34 Sm9 2.504294 1_555
O35 Sm4 2.333447 1_655
O35 Sm12 2.419529 1_555
O35 Sm8 2.504285 1_555
O36 Sm6 2.333447 1_655
O36 Sm14 2.419529 1_555
O36 Sm10 2.504285 1_555
O37 Sm7 2.333447 1_655
O37 Sm15 2.419529 1_555
O37 Sm11 2.504285 1_555
O38 Sm4 2.333443 1_555
O38 Sm12 2.419526 1_555
O38 Sm8 2.504282 1_555
O39 Sm5 2.333436 1_555
O39 Sm13 2.419515 1_555
O39 Sm9 2.504290 1_555
O40 Sm15 2.561664 1_555
O40 Sm7 2.698548 1_555
O40 Sm1 2.781769 1_555
O41 Sm14 2.561664 1_555
O41 Sm6 2.698548 1_555
O41 Sm0 2.781763 1_555
O42 Sm13 2.561675 1_555
O42 Sm5 2.698544 1_655
O42 Sm3 2.781765 1_655
O43 Sm14 2.451368 1_555
