# generated using pymatgen
data_Pr4AlCo25
_symmetry_space_group_name_H-M   'P 1'
_cell_length_a   21.54116052
_cell_length_b   21.54116052
_cell_length_c   3.99363500
_cell_angle_alpha   90.00000000
_cell_angle_beta   90.00000000
_cell_angle_gamma   166.95511366
_symmetry_Int_Tables_number   1
_chemical_formula_structural   Pr4AlCo25
_chemical_formula_sum   'Pr4 Al1 Co25'
_cell_volume   418.27863129
_cell_formula_units_Z   1
loop_
 _symmetry_equiv_pos_site_id
 _symmetry_equiv_pos_as_xyz
  1  'x, y, z'
loop_
 _atom_site_type_symbol
 _atom_site_label
 _atom_site_symmetry_multiplicity
 _atom_site_fract_x
 _atom_site_fract_y
 _atom_site_fract_z
 _atom_site_occupancy
  Pr  Pr0  1  0.40384100  0.59615900  0.00000000  1
  Pr  Pr1  1  0.80083400  0.19916600  0.00000000  1
  Pr  Pr2  1  0.19916600  0.80083400  0.00000000  1
  Pr  Pr3  1  0.59615900  0.40384100  0.00000000  1
  Al  Al0  1  0.00000000  0.00000000  0.00000000  1
  Co  Co0  1  0.94359000  0.05641000  0.00000000  1
  Co  Co1  1  0.33581100  0.66418900  0.00000000  1
  Co  Co2  1  0.73341000  0.26659000  0.00000000  1
  Co  Co3  1  0.13358500  0.86641500  0.00000000  1
  Co  Co4  1  0.52888700  0.47111300  0.00000000  1
  Co  Co5  1  0.47111300  0.52888700  0.00000000  1
  Co  Co6  1  0.86641500  0.13358500  0.00000000  1
  Co  Co7  1  0.26659000  0.73341000  0.00000000  1
  Co  Co8  1  0.66418900  0.33581100  0.00000000  1
  Co  Co9  1  0.05641000  0.94359000  0.00000000  1
  Co  Co10  1  0.90230500  0.09769500  0.50000000  1
  Co  Co11  1  0.30110000  0.69890000  0.50000000  1
  Co  Co12  1  0.69890000  0.30110000  0.50000000  1
  Co  Co13  1  0.09769500  0.90230500  0.50000000  1
  Co  Co14  1  0.50000000  0.50000000  0.50000000  1
  Co  Co15  1  0.70976900  0.80286500  0.50000000  1
  Co  Co16  1  0.10425600  0.39955900  0.50000000  1
  Co  Co17  1  0.50000000  0.00000000  0.50000000  1
  Co  Co18  1  0.89574400  0.60044100  0.50000000  1
  Co  Co19  1  0.29023100  0.19713500  0.50000000  1
  Co  Co20  1  0.19713500  0.29023100  0.50000000  1
  Co  Co21  1  0.60044100  0.89574400  0.50000000  1
  Co  Co22  1  0.00000000  0.50000000  0.50000000  1
  Co  Co23  1  0.39955900  0.10425600  0.50000000  1
  Co  Co24  1  0.80286500  0.70976900  0.50000000  1
loop_
_geom_bond_atom_site_label_1
_geom_bond_atom_site_label_2
_geom_bond_distance
_geom_bond_site_symmetry_2
Al0 Co0 2.414544 1_455
Al0 Co9 2.414544 1_545
Al0 Co5 2.741573 1_445
Al0 Co4 2.741573 1_555
Al0 Co4 2.741573 1_445
Al0 Co5 2.741573 1_555
Al0 Co20 3.062541 1_554
Al0 Co19 3.062541 1_555
Al0 Co20 3.062541 1_555
Al0 Co19 3.062541 1_554
Al0 Co15 3.062541 1_445
Al0 Co15 3.062541 1_444
Al0 Co24 3.062541 1_445
Al0 Co24 3.062541 1_444
Co0 Co15 2.363816 1_545
Co0 Co15 2.363816 1_544
Co0 Co20 2.363816 1_654
Co0 Co20 2.363816 1_655
Co0 Co10 2.666471 1_554
Co0 Co10 2.666471 1_555
Co0 Co5 2.715741 1_655
Co0 Co5 2.715741 1_545
Co0 Pr0 2.980289 1_545
Co0 Pr0 2.980289 1_655
Co1 Co21 2.441811 1_555
Co1 Co21 2.441811 1_554
Co1 Co16 2.441811 1_555
Co1 Co16 2.441811 1_554
Co1 Co11 2.488923 1_554
Co1 Co11 2.488923 1_555
Co1 Co6 2.775494 1_565
Co1 Co6 2.775494 1_455
Co1 Pr1 2.868588 1_565
Co1 Pr1 2.868588 1_455
Co1 Pr0 2.911920 1_555
Co2 Co22 2.447117 1_655
Co2 Co22 2.447117 1_654
Co2 Pr2 2.852339 1_545
Co2 Pr2 2.852339 1_655
Co2 Pr1 2.885981 1_555
Co3 Co8 2.775494 1_565
Co3 Co8 2.775494 1_455
Co3 Pr2 2.807094 1_555
Co3 Pr3 2.924665 1_565
Co3 Pr3 2.924665 1_455
Co4 Co5 2.472928 1_555
Co4 Co9 2.715741 1_545
Co4 Co9 2.715741 1_655
Co4 Pr3 2.879475 1_555
Co5 Pr0 2.879475 1_555
Co6 Pr1 2.807094 1_555
Co6 Pr0 2.924665 1_655
Co6 Pr0 2.924665 1_545
Co7 Pr1 2.852339 1_455
Co7 Pr1 2.852339 1_565
Co7 Pr2 2.885981 1_555
Co8 Pr2 2.868588 1_655
Co8 Pr2 2.868588 1_545
Co8 Pr3 2.911920 1_555
Co9 Pr3 2.980289 1_455
Co9 Pr3 2.980289 1_565
Co10 Co21 2.468228 1_545
Co10 Co16 2.468228 1_655
Co10 Co15 2.493001 1_545
Co10 Co20 2.493001 1_655
Co10 Co6 2.519373 1_555
Co10 Co6 2.519373 1_556
Co10 Pr0 3.158953 1_656
Co10 Pr0 3.158953 1_655
Co10 Pr0 3.158953 1_546
Co10 Pr0 3.158953 1_545
Co11 Co7 2.483797 1_556
Co11 Co7 2.483797 1_555
Co11 Co17 2.506180 1_565
Co11 Co22 2.506180 1_555
Co11 Co16 2.507196 1_555
Co11 Co21 2.507196 1_555
Co11 Pr1 3.158289 1_456
Co11 Pr1 3.158289 1_455
Co11 Pr1 3.158289 1_566
Co11 Pr1 3.158289 1_565
Co12 Co2 2.483797 1_555
Co12 Co2 2.483797 1_556
Co12 Co8 2.488923 1_556
Co12 Co8 2.488923 1_555
Co12 Co17 2.506180 1_555
Co12 Co22 2.506180 1_655
Co12 Co23 2.507196 1_555
Co12 Co18 2.507196 1_555
Co12 Pr2 3.158289 1_546
Co12 Pr2 3.158289 1_545
Co12 Pr2 3.158289 1_655
Co12 Pr2 3.158289 1_656
Co13 Co18 2.468228 1_455
Co13 Co23 2.468228 1_565
Co13 Co24 2.493001 1_455
Co13 Co19 2.493001 1_565
Co13 Co3 2.519373 1_556
Co13 Co3 2.519373 1_555
Co13 Co9 2.666471 1_555
Co13 Co9 2.666471 1_556
Co13 Pr3 3.158953 1_566
Co13 Pr3 3.158953 1_565
Co13 Pr3 3.158953 1_456
Co13 Pr3 3.158953 1_455
Co14 Co4 2.348643 1_556
Co14 Co4 2.348643 1_555
Co14 Co5 2.348643 1_555
Co14 Co5 2.348643 1_556
Co14 Co19 2.354393 1_555
Co14 Co20 2.354393 1_555
Co14 Co15 2.354393 1_555
Co14 Co24 2.354393 1_555
Co15 Co20 2.385083 1_665
Co15 Co5 2.476326 1_556
Co15 Co5 2.476326 1_555
Co15 Co20 2.508741 1_555
Co15 Pr0 3.173338 1_556
Co15 Pr0 3.173338 1_555
Co16 Co6 2.422720 1_455
Co16 Co6 2.422720 1_456
Co16 Co21 2.428242 1_555
Co16 Co21 2.465582 1_445
Co16 Pr0 3.212357 1_555
Co16 Pr0 3.212357 1_556
Co16 Pr1 3.220105 1_456
Co16 Pr1 3.220105 1_455
Co17 Co22 2.446912 1_655
Co17 Co22 2.446912 1_545
Co17 Co2 2.447117 1_556
Co17 Co7 2.447117 1_545
Co17 Co2 2.447117 1_555
Co17 Co7 2.447117 1_546
Co17 Pr1 3.196645 1_556
Co17 Pr1 3.196645 1_555
Co17 Pr2 3.196645 1_546
Co17 Pr2 3.196645 1_545
Co18 Co3 2.422720 1_656
Co18 Co3 2.422720 1_655
Co18 Co23 2.428242 1_555
Co18 Co8 2.441811 1_555
Co18 Co8 2.441811 1_556
Co18 Co23 2.465582 1_665
Co18 Pr3 3.212357 1_556
Co18 Pr3 3.212357 1_555
Co18 Pr2 3.220105 1_656
Co18 Pr2 3.220105 1_655
Co19 Co9 2.363816 1_546
Co19 Co9 2.363816 1_545
Co19 Co24 2.385083 1_445
Co19 Co4 2.476326 1_556
Co19 Co4 2.476326 1_555
Co19 Co24 2.508741 1_555
Co19 Pr3 3.173338 1_555
Co19 Pr3 3.173338 1_556
Co20 Co5 2.476326 1_555
Co20 Co5 2.476326 1_556
Co20 Pr0 3.173338 1_555
Co20 Pr0 3.173338 1_556
Co21 Co6 2.422720 1_565
Co21 Co6 2.422720 1_566
Co21 Pr0 3.212357 1_555
Co21 Pr0 3.212357 1_556
Co21 Pr1 3.220105 1_566
Co21 Pr1 3.220105 1_565
Co22 Co7 2.447117 1_556
Co22 Co7 2.447117 1_555
Co22 Pr2 3.196645 1_556
Co22 Pr1 3.196645 1_456
Co22 Pr1 3.196645 1_455
Co22 Pr2 3.196645 1_555
Co23 Co3 2.422720 1_546
Co23 Co3 2.422720 1_545
Co23 Co8 2.441811 1_556
Co23 Co8 2.441811 1_555
Co23 Pr3 3.212357 1_556
Co23 Pr3 3.212357 1_555
Co23 Pr2 3.220105 1_546
Co23 Pr2 3.220105 1_545
Co24 Co9 2.363816 1_656
Co24 Co9 2.363816 1_655
Co24 Co4 2.476326 1_556
Co24 Co4 2.476326 1_555
Co24 Pr3 3.173338 1_556
Co24 Pr3 3.173338 1_555
