# generated using pymatgen
data_MnH9C4(NO2)3
_symmetry_space_group_name_H-M   'P 1'
_cell_length_a   8.76695300
_cell_length_b   12.21354800
_cell_length_c   9.14940700
_cell_angle_alpha   90.00000000
_cell_angle_beta   90.00000000
_cell_angle_gamma   90.00000000
_symmetry_Int_Tables_number   1
_chemical_formula_structural   MnH9C4(NO2)3
_chemical_formula_sum   'Mn4 H36 C16 N12 O24'
_cell_volume   979.67825587
_cell_formula_units_Z   4
loop_
 _symmetry_equiv_pos_site_id
 _symmetry_equiv_pos_as_xyz
  1  'x, y, z'
loop_
 _atom_site_type_symbol
 _atom_site_label
 _atom_site_symmetry_multiplicity
 _atom_site_fract_x
 _atom_site_fract_y
 _atom_site_fract_z
 _atom_site_occupancy
  Mn  Mn0  1  0.24902000  0.75000000  0.25000000  1
  Mn  Mn1  1  0.25098000  0.25000000  0.25000000  1
  Mn  Mn2  1  0.75098000  0.25000000  0.75000000  1
  Mn  Mn3  1  0.74902000  0.75000000  0.75000000  1
  H  H0  1  0.25000000  0.50000000  0.18692400  1
  H  H1  1  0.25000000  0.00000000  0.31307600  1
  H  H2  1  0.75000000  0.50000000  0.81307600  1
  H  H3  1  0.75000000  0.00000000  0.68692400  1
  H  H4  1  0.59038600  0.72507400  0.42665400  1
  H  H5  1  0.90961400  0.27492600  0.42665400  1
  H  H6  1  0.59038600  0.77492600  0.07334600  1
  H  H7  1  0.90961400  0.22507400  0.07334600  1
  H  H8  1  0.40961400  0.27492600  0.57334600  1
  H  H9  1  0.09038600  0.72507400  0.57334600  1
  H  H10  1  0.40961400  0.22507400  0.92665400  1
  H  H11  1  0.09038600  0.77492600  0.92665400  1
  H  H12  1  0.32765600  0.57596400  0.57587000  1
  H  H13  1  0.17234400  0.42403600  0.57587000  1
  H  H14  1  0.32765600  0.92403600  0.92413000  1
  H  H15  1  0.17234400  0.07596400  0.92413000  1
  H  H16  1  0.67234400  0.42403600  0.42413000  1
  H  H17  1  0.82765600  0.57596400  0.42413000  1
  H  H18  1  0.67234400  0.07596400  0.07587000  1
  H  H19  1  0.82765600  0.92403600  0.07587000  1
  H  H20  1  0.40635400  0.62318200  0.74510400  1
  H  H21  1  0.09364600  0.37681800  0.74510400  1
  H  H22  1  0.40635400  0.87681800  0.75489600  1
  H  H23  1  0.09364600  0.12318200  0.75489600  1
  H  H24  1  0.59364600  0.37681800  0.25489600  1
  H  H25  1  0.90635400  0.62318200  0.25489600  1
  H  H26  1  0.59364600  0.12318200  0.24510400  1
  H  H27  1  0.90635400  0.87681800  0.24510400  1
  H  H28  1  0.18884000  0.44186400  0.96231000  1
  H  H29  1  0.31116000  0.55813600  0.96231000  1
  H  H30  1  0.18884000  0.05813600  0.53769000  1
  H  H31  1  0.31116000  0.94186400  0.53769000  1
  H  H32  1  0.81116000  0.55813600  0.03769000  1
  H  H33  1  0.68884000  0.44186400  0.03769000  1
  H  H34  1  0.81116000  0.94186400  0.46231000  1
  H  H35  1  0.68884000  0.05813600  0.46231000  1
  C  C0  1  0.25000000  0.50000000  0.30785700  1
  C  C1  1  0.25000000  0.00000000  0.19214300  1
  C  C2  1  0.75000000  0.50000000  0.69214300  1
  C  C3  1  0.75000000  0.00000000  0.80785700  1
  C  C4  1  0.51536700  0.78251200  0.48758600  1
  C  C5  1  0.98463300  0.21748800  0.48758600  1
  C  C6  1  0.51536700  0.71748800  0.01241400  1
  C  C7  1  0.98463300  0.28251200  0.01241400  1
  C  C8  1  0.48463300  0.21748800  0.51241400  1
  C  C9  1  0.01536700  0.78251200  0.51241400  1
  C  C10  1  0.48463300  0.28251200  0.98758600  1
  C  C11  1  0.01536700  0.71748800  0.98758600  1
  C  C12  1  0.25000000  0.50000000  0.76044900  1
  C  C13  1  0.25000000  0.00000000  0.73955100  1
  C  C14  1  0.75000000  0.50000000  0.23955100  1
  C  C15  1  0.75000000  0.00000000  0.26044900  1
  N  N0  1  0.33516500  0.57258200  0.68756100  1
  N  N1  1  0.16483500  0.42741800  0.68756100  1
  N  N2  1  0.33516500  0.92741800  0.81243900  1
  N  N3  1  0.16483500  0.07258200  0.81243900  1
  N  N4  1  0.66483500  0.42741800  0.31243900  1
  N  N5  1  0.83516500  0.57258200  0.31243900  1
  N  N6  1  0.66483500  0.07258200  0.18756100  1
  N  N7  1  0.83516500  0.92741800  0.18756100  1
  N  N8  1  0.25000000  0.50000000  0.90671700  1
  N  N9  1  0.25000000  0.00000000  0.59328300  1
  N  N10  1  0.75000000  0.50000000  0.09328300  1
  N  N11  1  0.75000000  0.00000000  0.40671700  1
  O  O0  1  0.25763800  0.59191000  0.37251500  1
  O  O1  1  0.24236200  0.40809000  0.37251500  1
  O  O2  1  0.25763800  0.90809000  0.12748500  1
  O  O3  1  0.24236200  0.09191000  0.12748500  1
  O  O4  1  0.74236200  0.40809000  0.62748500  1
  O  O5  1  0.75763800  0.59191000  0.62748500  1
  O  O6  1  0.74236200  0.09191000  0.87251500  1
  O  O7  1  0.75763800  0.90809000  0.87251500  1
  O  O8  1  0.39547300  0.81724300  0.42439900  1
  O  O9  1  0.10452700  0.18275700  0.42439900  1
  O  O10  1  0.39547300  0.68275700  0.07560100  1
  O  O11  1  0.10452700  0.31724300  0.07560100  1
  O  O12  1  0.60452700  0.18275700  0.57560100  1
  O  O13  1  0.89547300  0.81724300  0.57560100  1
  O  O14  1  0.60452700  0.31724300  0.92439900  1
  O  O15  1  0.89547300  0.68275700  0.92439900  1
  O  O16  1  0.55399800  0.80935800  0.61624000  1
  O  O17  1  0.94600200  0.19064200  0.61624000  1
  O  O18  1  0.55399800  0.69064200  0.88376000  1
  O  O19  1  0.94600200  0.30935800  0.88376000  1
  O  O20  1  0.44600200  0.19064200  0.38376000  1
  O  O21  1  0.05399800  0.80935800  0.38376000  1
  O  O22  1  0.44600200  0.30935800  0.11624000  1
  O  O23  1  0.05399800  0.69064200  0.11624000  1
loop_
_geom_bond_atom_site_label_1
_geom_bond_atom_site_label_2
_geom_bond_distance
_geom_bond_site_symmetry_2
Mn0 O8 2.206604 1_555
Mn0 O10 2.206604 1_555
Mn0 O21 2.224089 1_555
Mn0 O23 2.224089 1_555
Mn0 O0 2.233911 1_555
Mn0 O2 2.233911 1_555
Mn1 O11 2.206604 1_555
Mn1 O9 2.206604 1_555
Mn1 O22 2.224089 1_555
Mn1 O20 2.224089 1_555
Mn1 O3 2.233911 1_555
Mn1 O1 2.233911 1_555
Mn2 O14 2.206604 1_555
Mn2 O12 2.206604 1_555
Mn2 O17 2.224089 1_555
Mn2 O19 2.224089 1_555
Mn2 O6 2.233911 1_555
Mn2 O4 2.233911 1_555
Mn3 O15 2.206604 1_555
Mn3 O13 2.206604 1_555
Mn3 O18 2.224089 1_555
Mn3 O16 2.224089 1_555
Mn3 O7 2.233911 1_555
Mn3 O5 2.233911 1_555
H12 N0 1.024857 1_555
H13 N1 1.024857 1_555
H14 N2 1.024857 1_555
H15 N3 1.024857 1_555
H16 N4 1.024857 1_555
H17 N5 1.024857 1_555
H18 N6 1.024857 1_555
H19 N7 1.024857 1_555
H20 N0 1.024027 1_555
H21 N1 1.024027 1_555
H22 N2 1.024027 1_555
H23 N3 1.024027 1_555
H24 N4 1.024027 1_555
H25 N5 1.024027 1_555
H26 N6 1.024027 1_555
H27 N7 1.024027 1_555
H28 N8 1.024881 1_555
H29 N8 1.024881 1_555
H30 N9 1.024881 1_555
H31 N9 1.024881 1_565
H32 N10 1.024881 1_555
H33 N10 1.024881 1_555
H34 N11 1.024881 1_565
H35 N11 1.024881 1_555
C0 H0 1.106465 1_555
C0 O1 1.270656 1_555
C0 O0 1.270656 1_555
C1 H1 1.106465 1_555
C1 O3 1.270656 1_555
C1 O2 1.270656 1_545
C2 H2 1.106465 1_555
C2 O4 1.270656 1_555
C2 O5 1.270656 1_555
C3 H3 1.106465 1_555
C3 O6 1.270656 1_555
C3 O7 1.270656 1_545
C4 H4 1.111523 1_555
C4 O16 1.267988 1_555
C4 O8 1.272393 1_555
C5 H5 1.111523 1_555
C5 O17 1.267988 1_555
C5 O9 1.272393 1_655
C6 H6 1.111523 1_555
C6 O18 1.267988 1_554
C6 O10 1.272393 1_555
C7 H7 1.111523 1_555
C7 O19 1.267988 1_554
C7 O11 1.272393 1_655
C8 H8 1.111523 1_555
C8 O20 1.267988 1_555
C8 O12 1.272393 1_555
C9 H9 1.111523 1_555
C9 O21 1.267988 1_555
C9 O13 1.272393 1_455
C10 H10 1.111523 1_555
C10 O22 1.267988 1_556
C10 O14 1.272393 1_555
C11 H11 1.111523 1_555
C11 O23 1.267988 1_556
C11 O15 1.272393 1_455
C12 N1 1.337181 1_555
C12 N0 1.337181 1_555
C12 N8 1.338265 1_555
C13 N3 1.337181 1_555
C13 N2 1.337181 1_545
C13 N9 1.338265 1_555
C14 N4 1.337181 1_555
C14 N5 1.337181 1_555
C14 N10 1.338265 1_555
C15 N6 1.337181 1_555
C15 N7 1.337181 1_545
C15 N11 1.338265 1_555
