# generated using pymatgen
data_Mg6AlW
_symmetry_space_group_name_H-M   'P 1'
_cell_length_a   4.82345500
_cell_length_b   6.11858800
_cell_length_c   10.67678400
_cell_angle_alpha   90.00000000
_cell_angle_beta   90.00000000
_cell_angle_gamma   90.00000000
_symmetry_Int_Tables_number   1
_chemical_formula_structural   Mg6AlW
_chemical_formula_sum   'Mg12 Al2 W2'
_cell_volume   315.10108490
_cell_formula_units_Z   2
loop_
 _symmetry_equiv_pos_site_id
 _symmetry_equiv_pos_as_xyz
  1  'x, y, z'
loop_
 _atom_site_type_symbol
 _atom_site_label
 _atom_site_symmetry_multiplicity
 _atom_site_fract_x
 _atom_site_fract_y
 _atom_site_fract_z
 _atom_site_occupancy
  Mg  Mg0  1  0.00000000  0.26194500  0.08660900  1
  Mg  Mg1  1  0.00000000  0.73805500  0.08660900  1
  Mg  Mg2  1  0.00000000  0.00000000  0.33299400  1
  Mg  Mg3  1  0.50000000  0.74608300  0.41864300  1
  Mg  Mg4  1  0.50000000  0.25391700  0.41864300  1
  Mg  Mg5  1  0.50000000  0.00000000  0.16690700  1
  Mg  Mg6  1  0.00000000  0.76194500  0.58660900  1
  Mg  Mg7  1  0.00000000  0.23805500  0.58660900  1
  Mg  Mg8  1  0.00000000  0.50000000  0.83299400  1
  Mg  Mg9  1  0.50000000  0.24608300  0.91864300  1
  Mg  Mg10  1  0.50000000  0.75391700  0.91864300  1
  Mg  Mg11  1  0.50000000  0.50000000  0.66690700  1
  Al  Al0  1  0.00000000  0.50000000  0.31229700  1
  Al  Al1  1  0.00000000  0.00000000  0.81229700  1
  W  W0  1  0.50000000  0.50000000  0.17729800  1
  W  W1  1  0.50000000  0.00000000  0.67729800  1
loop_
_geom_bond_atom_site_label_1
_geom_bond_atom_site_label_2
_geom_bond_distance
_geom_bond_site_symmetry_2
Mg0 W0 2.979184 1_455
Mg0 W0 2.979184 1_555
Mg0 Mg9 3.006976 1_554
Mg0 Mg9 3.006976 1_454
Mg0 Mg8 3.074688 1_554
Mg0 Mg2 3.080391 1_555
Mg1 W0 2.979184 1_455
Mg1 W0 2.979184 1_555
Mg1 Mg10 3.006976 1_554
Mg1 Mg10 3.006976 1_454
Mg1 Mg8 3.074688 1_554
Mg1 Mg2 3.080391 1_565
Mg2 Mg5 2.993482 1_455
Mg2 Mg5 2.993482 1_555
Mg2 Mg3 3.011042 1_545
Mg2 Mg4 3.011042 1_455
Mg2 Mg3 3.011042 1_445
Mg2 Mg4 3.011042 1_555
Mg2 Mg7 3.074688 1_555
Mg2 Mg6 3.074688 1_545
Mg3 W0 2.984445 1_555
Mg3 Mg6 3.006976 1_555
Mg3 Mg6 3.006976 1_655
Mg3 Mg4 3.011361 1_555
Mg3 Mg5 3.104450 1_565
Mg3 Mg4 3.107227 1_565
Mg3 W1 3.168623 1_565
Mg4 W0 2.984445 1_555
Mg4 Mg7 3.006976 1_655
Mg4 Mg7 3.006976 1_555
Mg4 Mg5 3.104450 1_555
Mg4 W1 3.168623 1_555
Mg5 Mg9 3.048455 1_554
Mg5 W0 3.061305 1_545
Mg5 W0 3.061305 1_555
Mg6 W1 2.979184 1_565
Mg6 W1 2.979184 1_465
Mg6 Mg8 3.080391 1_555
Mg7 W1 2.979184 1_555
Mg7 W1 2.979184 1_455
Mg7 Mg8 3.080391 1_555
Mg8 Mg9 3.011042 1_455
Mg8 Mg9 3.011042 1_555
Mg9 W1 2.984445 1_555
Mg9 W0 3.168623 1_556
Mg10 W1 2.984445 1_565
Mg10 Mg8 3.011042 1_655
Mg10 Mg8 3.011042 1_555
Mg10 Mg9 3.011361 1_565
Mg10 Mg5 3.048455 1_566
Mg10 Mg11 3.104450 1_555
Mg10 Mg9 3.107227 1_555
Mg10 W0 3.168623 1_556
Mg11 Mg8 2.993482 1_555
Mg11 Mg8 2.993482 1_655
Mg11 Mg3 3.048455 1_555
Mg11 Mg4 3.048455 1_555
Mg11 W1 3.061305 1_565
Mg11 W1 3.061305 1_555
Mg11 Mg9 3.104450 1_555
Al0 W0 2.809615 1_455
Al0 W0 2.809615 1_555
Al0 Mg0 2.815643 1_555
Al0 Mg1 2.815643 1_555
Al0 Mg3 3.061489 1_455
Al0 Mg4 3.061489 1_455
Al0 Mg3 3.061489 1_555
Al0 Mg4 3.061489 1_555
Al0 Mg2 3.067264 1_555
Al0 Mg2 3.067264 1_565
Al1 W1 2.809615 1_555
Al1 W1 2.809615 1_455
Al1 Mg7 2.815643 1_555
Al1 Mg6 2.815643 1_545
Al1 Mg9 3.061489 1_455
Al1 Mg9 3.061489 1_555
Al1 Mg10 3.061489 1_445
Al1 Mg10 3.061489 1_545
Al1 Mg8 3.067264 1_555
Al1 Mg8 3.067264 1_545
