# generated using pymatgen
data_Li(CrS2)2
_symmetry_space_group_name_H-M   'P 1'
_cell_length_a   5.40784300
_cell_length_b   8.15001800
_cell_length_c   12.93078500
_cell_angle_alpha   90.00000000
_cell_angle_beta   90.00000000
_cell_angle_gamma   90.00000000
_symmetry_Int_Tables_number   1
_chemical_formula_structural   Li(CrS2)2
_chemical_formula_sum   'Li4 Cr8 S16'
_cell_volume   569.91164814
_cell_formula_units_Z   4
loop_
 _symmetry_equiv_pos_site_id
 _symmetry_equiv_pos_as_xyz
  1  'x, y, z'
loop_
 _atom_site_type_symbol
 _atom_site_label
 _atom_site_symmetry_multiplicity
 _atom_site_fract_x
 _atom_site_fract_y
 _atom_site_fract_z
 _atom_site_occupancy
  Li  Li0  1  0.23094300  0.25000000  0.39655700  1
  Li  Li1  1  0.76905700  0.75000000  0.60344300  1
  Li  Li2  1  0.26905700  0.75000000  0.89655700  1
  Li  Li3  1  0.73094300  0.25000000  0.10344300  1
  Cr  Cr0  1  0.02236100  0.75000000  0.26783700  1
  Cr  Cr1  1  0.97763900  0.25000000  0.73216300  1
  Cr  Cr2  1  0.47763900  0.25000000  0.76783700  1
  Cr  Cr3  1  0.52236100  0.75000000  0.23216300  1
  Cr  Cr4  1  0.13382800  0.25000000  0.92351300  1
  Cr  Cr5  1  0.86617200  0.75000000  0.07648700  1
  Cr  Cr6  1  0.36617200  0.75000000  0.42351300  1
  Cr  Cr7  1  0.63382800  0.25000000  0.57648700  1
  S  S0  1  0.21968000  0.45536600  0.82183300  1
  S  S1  1  0.78032000  0.54463400  0.17816700  1
  S  S2  1  0.28032000  0.54463400  0.32183300  1
  S  S3  1  0.71968000  0.45536600  0.67816700  1
  S  S4  1  0.71968000  0.04463400  0.67816700  1
  S  S5  1  0.28032000  0.95536600  0.32183300  1
  S  S6  1  0.78032000  0.95536600  0.17816700  1
  S  S7  1  0.21968000  0.04463400  0.82183300  1
  S  S8  1  0.73969300  0.25000000  0.42069900  1
  S  S9  1  0.26030700  0.75000000  0.57930100  1
  S  S10  1  0.76030700  0.75000000  0.92069900  1
  S  S11  1  0.23969300  0.25000000  0.07930100  1
  S  S12  1  0.26142800  0.75000000  0.09342100  1
  S  S13  1  0.73857200  0.25000000  0.90657900  1
  S  S14  1  0.23857200  0.25000000  0.59342100  1
  S  S15  1  0.76142800  0.75000000  0.40657900  1
loop_
_geom_bond_atom_site_label_1
_geom_bond_atom_site_label_2
_geom_bond_distance
_geom_bond_site_symmetry_2
Li0 S14 2.545940 1_555
Li0 S5 2.602120 1_545
Li0 S2 2.602120 1_555
Li0 S8 2.674882 1_455
Li0 S8 2.768894 1_555
Li1 S15 2.545940 1_555
Li1 S3 2.602120 1_555
Li1 S4 2.602120 1_565
Li1 S9 2.674882 1_655
Li1 S9 2.768894 1_555
Li2 S12 2.545940 1_556
Li2 S0 2.602120 1_555
Li2 S7 2.602120 1_565
Li2 S10 2.674882 1_555
Li2 S10 2.768894 1_455
Li3 S13 2.545940 1_554
Li3 S1 2.602120 1_555
Li3 S6 2.602120 1_545
Li3 S11 2.674882 1_555
Li3 S11 2.768894 1_655
Cr0 S15 2.282488 1_455
Cr0 S5 2.287995 1_555
Cr0 S2 2.287995 1_555
Cr0 S1 2.420561 1_455
Cr0 S6 2.420561 1_455
Cr0 S12 2.599609 1_555
Cr1 S14 2.282488 1_655
Cr1 S3 2.287995 1_555
Cr1 S4 2.287995 1_555
Cr1 S7 2.420561 1_655
Cr1 S0 2.420561 1_655
Cr1 S13 2.599609 1_555
Cr2 S13 2.282488 1_555
Cr2 S7 2.287995 1_555
Cr2 S0 2.287995 1_555
Cr2 S3 2.420561 1_555
Cr2 S4 2.420561 1_555
Cr2 S14 2.599609 1_555
Cr3 S12 2.282488 1_555
Cr3 S6 2.287995 1_555
Cr3 S1 2.287995 1_555
Cr3 S2 2.420561 1_555
Cr3 S5 2.420561 1_555
Cr3 S15 2.599609 1_555
Cr4 S11 2.094233 1_556
Cr4 S13 2.148669 1_455
Cr4 S7 2.178451 1_555
Cr4 S0 2.178451 1_555
Cr5 S10 2.094233 1_554
Cr5 S12 2.148669 1_655
Cr5 S1 2.178451 1_555
Cr5 S6 2.178451 1_555
Cr6 S9 2.094233 1_555
Cr6 S15 2.148669 1_555
Cr6 S2 2.178451 1_555
Cr6 S5 2.178451 1_555
Cr7 S8 2.094233 1_555
Cr7 S14 2.148669 1_555
Cr7 S4 2.178451 1_555
Cr7 S3 2.178451 1_555
