# generated using pymatgen
data_CaTi2O4
_symmetry_space_group_name_H-M   'P 1'
_cell_length_a   6.28540259
_cell_length_b   6.27654238
_cell_length_c   6.28114469
_cell_angle_alpha   90.08346790
_cell_angle_beta   119.99503401
_cell_angle_gamma   119.91856399
_symmetry_Int_Tables_number   1
_chemical_formula_structural   CaTi2O4
_chemical_formula_sum   'Ca2 Ti4 O8'
_cell_volume   175.31840938
_cell_formula_units_Z   2
loop_
 _symmetry_equiv_pos_site_id
 _symmetry_equiv_pos_as_xyz
  1  'x, y, z'
loop_
 _atom_site_type_symbol
 _atom_site_label
 _atom_site_symmetry_multiplicity
 _atom_site_fract_x
 _atom_site_fract_y
 _atom_site_fract_z
 _atom_site_occupancy
  Ca  Ca0  1  0.24927600  0.12500900  0.87505900  1
  Ca  Ca1  1  0.75069900  0.87499200  0.12490900  1
  Ti  Ti0  1  0.50012800  0.99999900  0.49990200  1
  Ti  Ti1  1  0.50011500  0.50010600  0.50020900  1
  Ti  Ti2  1  0.99987200  0.50010300  0.00001400  1
  Ti  Ti3  1  0.99989700  0.49980700  0.49989300  1
  O  O0  1  0.03523800  0.73340500  0.26734200  1
  O  O1  1  0.46582900  0.73341600  0.69797500  1
  O  O2  1  0.46483700  0.73216900  0.26626400  1
  O  O3  1  0.96468200  0.69816400  0.73323900  1
  O  O4  1  0.53504800  0.26764100  0.73360700  1
  O  O5  1  0.53406600  0.26663200  0.30199800  1
  O  O6  1  0.03543200  0.30182600  0.26671000  1
  O  O7  1  0.96488200  0.26673300  0.73287800  1
loop_
_geom_bond_atom_site_label_1
_geom_bond_atom_site_label_2
_geom_bond_distance
_geom_bond_site_symmetry_2
Ca0 O7 2.185506 1_455
Ca0 O3 2.188652 1_445
Ca0 O5 2.189054 1_556
Ca0 O4 2.193412 1_555
Ca1 O0 2.185550 1_655
Ca1 O6 2.188599 1_665
Ca1 O1 2.189031 1_554
Ca1 O2 2.193378 1_555
O0 Ti2 2.075590 1_455
O0 Ti0 2.078395 1_555
O0 Ti3 2.082889 1_455
O1 Ti0 2.075667 1_555
O1 Ti1 2.076308 1_555
O1 Ti3 2.083871 1_455
O2 Ti2 2.078266 1_455
O2 Ti0 2.079444 1_555
O2 Ti1 2.081492 1_555
O3 Ti2 2.076514 1_556
O3 Ti1 2.077138 1_555
O3 Ti3 2.083546 1_555
O4 Ti2 2.077784 1_556
O4 Ti0 2.080344 1_545
O4 Ti1 2.080928 1_555
O5 Ti0 2.075211 1_545
O5 Ti1 2.077313 1_555
O5 Ti3 2.083513 1_555
O6 Ti2 2.077031 1_455
O6 Ti1 2.077549 1_555
O6 Ti3 2.082761 1_455
O7 Ti2 2.076494 1_556
O7 Ti0 2.077927 1_545
O7 Ti3 2.082590 1_555
