# generated using pymatgen
data_MnNiAs
_symmetry_space_group_name_H-M   'P 1'
_cell_length_a   6.16658400
_cell_length_b   3.77855900
_cell_length_c   6.98659000
_cell_angle_alpha   90.00000000
_cell_angle_beta   90.00000000
_cell_angle_gamma   90.00000000
_symmetry_Int_Tables_number   1
_chemical_formula_structural   MnNiAs
_chemical_formula_sum   'Mn4 Ni4 As4'
_cell_volume   162.79314656
_cell_formula_units_Z   4
loop_
 _symmetry_equiv_pos_site_id
 _symmetry_equiv_pos_as_xyz
  1  'x, y, z'
loop_
 _atom_site_type_symbol
 _atom_site_label
 _atom_site_symmetry_multiplicity
 _atom_site_fract_x
 _atom_site_fract_y
 _atom_site_fract_z
 _atom_site_occupancy
  Mn  Mn0  1  0.02311900  0.25000000  0.32093100  1
  Mn  Mn1  1  0.52311900  0.25000000  0.17906900  1
  Mn  Mn2  1  0.97688100  0.75000000  0.67906900  1
  Mn  Mn3  1  0.47688100  0.75000000  0.82093100  1
  Ni  Ni0  1  0.14231500  0.25000000  0.94158100  1
  Ni  Ni1  1  0.64231500  0.25000000  0.55841900  1
  Ni  Ni2  1  0.85768500  0.75000000  0.05841900  1
  Ni  Ni3  1  0.35768500  0.75000000  0.44158100  1
  As  As0  1  0.25827900  0.25000000  0.62334600  1
  As  As1  1  0.75827900  0.25000000  0.87665400  1
  As  As2  1  0.74172100  0.75000000  0.37665400  1
  As  As3  1  0.24172100  0.75000000  0.12334600  1
loop_
_geom_bond_atom_site_label_1
_geom_bond_atom_site_label_2
_geom_bond_distance
_geom_bond_site_symmetry_2
Mn0 Ni0 2.750399 1_554
Mn0 Ni2 2.823809 1_455
Mn0 Ni2 2.823809 1_445
Mn0 Ni1 2.875304 1_455
Mn0 Ni3 2.921714 1_555
Mn0 Ni3 2.921714 1_545
Mn1 Ni1 2.750399 1_555
Mn1 Ni3 2.823809 1_555
Mn1 Ni3 2.823809 1_545
Mn1 Ni0 2.875304 1_554
Mn1 Ni2 2.921714 1_545
Mn1 Ni2 2.921714 1_555
Mn2 Ni2 2.750399 1_556
Mn2 Ni0 2.823809 1_665
Mn2 Ni0 2.823809 1_655
Mn2 Ni3 2.875304 1_655
Mn2 Ni1 2.921714 1_555
Mn2 Ni1 2.921714 1_565
Mn3 Ni3 2.750399 1_555
Mn3 Ni1 2.823809 1_555
Mn3 Ni1 2.823809 1_565
Mn3 Ni2 2.875304 1_556
Mn3 Ni0 2.921714 1_565
Mn3 Ni0 2.921714 1_555
As0 Ni0 2.335547 1_555
As0 Ni3 2.357505 1_545
As0 Ni3 2.357505 1_555
As0 Ni1 2.411243 1_555
As0 Mn0 2.562620 1_555
As0 Mn2 2.594626 1_455
As0 Mn2 2.594626 1_445
As0 Mn3 2.700405 1_545
As0 Mn3 2.700405 1_555
As1 Ni1 2.335547 1_555
As1 Ni2 2.357505 1_546
As1 Ni2 2.357505 1_556
As1 Ni0 2.411243 1_655
As1 Mn1 2.562620 1_556
As1 Mn3 2.594626 1_555
As1 Mn3 2.594626 1_545
As1 Mn2 2.700405 1_555
As1 Mn2 2.700405 1_545
As2 Ni2 2.335547 1_555
As2 Ni1 2.357505 1_565
As2 Ni1 2.357505 1_555
As2 Ni3 2.411243 1_555
As2 Mn2 2.562620 1_555
As2 Mn0 2.594626 1_665
As2 Mn0 2.594626 1_655
As2 Mn1 2.700405 1_555
As2 Mn1 2.700405 1_565
As3 Ni3 2.335547 1_555
As3 Ni0 2.357505 1_564
As3 Ni0 2.357505 1_554
As3 Ni2 2.411243 1_455
As3 Mn3 2.562620 1_554
As3 Mn1 2.594626 1_565
As3 Mn1 2.594626 1_555
As3 Mn0 2.700405 1_565
As3 Mn0 2.700405 1_555
