# generated using pymatgen
data_Sc3Bi
_symmetry_space_group_name_H-M   'P 1'
_cell_length_a   6.52834422
_cell_length_b   6.52834422
_cell_length_c   5.17358100
_cell_angle_alpha   90.00000000
_cell_angle_beta   90.00000000
_cell_angle_gamma   120.00000221
_symmetry_Int_Tables_number   1
_chemical_formula_structural   Sc3Bi
_chemical_formula_sum   'Sc6 Bi2'
_cell_volume   190.95365060
_cell_formula_units_Z   2
loop_
 _symmetry_equiv_pos_site_id
 _symmetry_equiv_pos_as_xyz
  1  'x, y, z'
loop_
 _atom_site_type_symbol
 _atom_site_label
 _atom_site_symmetry_multiplicity
 _atom_site_fract_x
 _atom_site_fract_y
 _atom_site_fract_z
 _atom_site_occupancy
  Sc  Sc0  1  0.16491400  0.32982800  0.25000000  1
  Sc  Sc1  1  0.67017200  0.83508600  0.25000000  1
  Sc  Sc2  1  0.16491400  0.83508600  0.25000000  1
  Sc  Sc3  1  0.83508600  0.67017200  0.75000000  1
  Sc  Sc4  1  0.32982800  0.16491400  0.75000000  1
  Sc  Sc5  1  0.83508600  0.16491400  0.75000000  1
  Bi  Bi0  1  0.33333300  0.66666700  0.75000000  1
  Bi  Bi1  1  0.66666700  0.33333300  0.25000000  1
loop_
_geom_bond_atom_site_label_1
_geom_bond_atom_site_label_2
_geom_bond_distance
_geom_bond_site_symmetry_2
Sc0 Sc5 3.188854 1_455
Sc0 Sc5 3.188854 1_454
Sc0 Sc4 3.188854 1_555
Sc0 Sc4 3.188854 1_554
Sc0 Sc1 3.229846 1_445
Sc0 Sc2 3.229846 1_545
Sc0 Sc1 3.298498 1_555
Sc0 Sc2 3.298498 1_555
Sc1 Sc5 3.188854 1_565
Sc1 Sc5 3.188854 1_564
Sc1 Sc3 3.188854 1_555
Sc1 Sc3 3.188854 1_554
Sc1 Sc2 3.229846 1_655
Sc1 Sc2 3.298498 1_555
Sc2 Sc3 3.188854 1_455
Sc2 Sc4 3.188854 1_565
Sc2 Sc4 3.188854 1_564
Sc2 Sc3 3.188854 1_454
Sc3 Sc4 3.229846 1_665
Sc3 Sc5 3.229846 1_565
Sc3 Sc4 3.298498 1_555
Sc3 Sc5 3.298498 1_555
Sc4 Sc5 3.229846 1_455
Sc4 Sc5 3.298498 1_555
Bi0 Sc2 3.212190 1_555
Bi0 Sc2 3.212190 1_556
Bi0 Sc0 3.212194 1_555
Bi0 Sc0 3.212194 1_556
Bi0 Sc1 3.212194 1_556
Bi0 Sc1 3.212194 1_555
Bi0 Sc3 3.264229 1_455
Bi0 Sc4 3.264229 1_565
Bi0 Sc5 3.264232 1_565
Bi0 Sc5 3.264232 1_455
Bi0 Sc4 3.264236 1_555
Bi0 Sc3 3.264236 1_555
Bi1 Sc5 3.212190 1_555
Bi1 Sc5 3.212190 1_554
Bi1 Sc3 3.212194 1_554
Bi1 Sc3 3.212194 1_555
Bi1 Sc4 3.212194 1_555
Bi1 Sc4 3.212194 1_554
Bi1 Sc0 3.264229 1_655
Bi1 Sc1 3.264229 1_545
Bi1 Sc2 3.264232 1_545
Bi1 Sc2 3.264232 1_655
Bi1 Sc1 3.264236 1_555
Bi1 Sc0 3.264236 1_555
