# generated using pymatgen
data_Zn(WO2)2
_symmetry_space_group_name_H-M   'P 1'
_cell_length_a   5.59268900
_cell_length_b   6.75345686
_cell_length_c   10.55852282
_cell_angle_alpha   106.70314488
_cell_angle_beta   90.29461118
_cell_angle_gamma   89.94724699
_symmetry_Int_Tables_number   1
_chemical_formula_structural   Zn(WO2)2
_chemical_formula_sum   'Zn4 W8 O16'
_cell_volume   381.96364396
_cell_formula_units_Z   4
loop_
 _symmetry_equiv_pos_site_id
 _symmetry_equiv_pos_as_xyz
  1  'x, y, z'
loop_
 _atom_site_type_symbol
 _atom_site_label
 _atom_site_symmetry_multiplicity
 _atom_site_fract_x
 _atom_site_fract_y
 _atom_site_fract_z
 _atom_site_occupancy
  Zn  Zn0  1  0.88066800  0.74629600  0.24991400  1
  Zn  Zn1  1  0.11972200  0.23703900  0.75144000  1
  Zn  Zn2  1  0.58508100  0.74687900  0.74941200  1
  Zn  Zn3  1  0.41731900  0.24457800  0.25064500  1
  W  W0  1  0.51485600  0.25853800  0.51904700  1
  W  W1  1  0.51207000  0.24434100  0.98288800  1
  W  W2  1  0.48751400  0.74240700  0.48108700  1
  W  W3  1  0.48477700  0.75870800  0.01710800  1
  W  W4  1  0.00108300  0.50099400  0.50094100  1
  W  W5  1  0.99891300  0.00238400  0.00141400  1
  W  W6  1  0.00039900  0.00072900  0.49873700  1
  W  W7  1  0.99934500  0.50158000  0.99872200  1
  O  O0  1  0.87500600  0.29988600  0.61444100  1
  O  O1  1  0.87108200  0.20074800  0.88619600  1
  O  O2  1  0.12618400  0.69987100  0.38562400  1
  O  O3  1  0.12741100  0.80108100  0.11418200  1
  O  O4  1  0.19317200  0.21302200  0.40070900  1
  O  O5  1  0.19253500  0.29010000  0.10036900  1
  O  O6  1  0.80875500  0.78924500  0.59926600  1
  O  O7  1  0.80576000  0.71468800  0.90018900  1
  O  O8  1  0.64904500  0.44033400  0.39204600  1
  O  O9  1  0.64652500  0.06010100  0.10896900  1
  O  O10  1  0.33246200  0.04899500  0.60964800  1
  O  O11  1  0.33004300  0.45019800  0.88904200  1
  O  O12  1  0.35524200  0.56117600  0.60852200  1
  O  O13  1  0.34858100  0.94351100  0.89145400  1
  O  O14  1  0.66740000  0.95087800  0.38871500  1
  O  O15  1  0.66905000  0.55169200  0.10927600  1
loop_
_geom_bond_atom_site_label_1
_geom_bond_atom_site_label_2
_geom_bond_distance
_geom_bond_site_symmetry_2
O0 Zn1 2.115924 1_655
O0 W6 2.157192 1_655
O0 W4 2.173480 1_655
O0 W0 2.228900 1_555
O1 Zn1 2.059029 1_655
O1 W7 2.158746 1_555
O1 W5 2.170668 1_556
O1 W1 2.237769 1_555
O2 Zn0 2.067390 1_455
O2 W6 2.158866 1_565
O2 W4 2.174044 1_555
O2 W2 2.235133 1_555
O3 Zn0 2.102643 1_455
O3 W7 2.160237 1_454
O3 W5 2.168461 1_465
O3 W3 2.231231 1_555
O4 Zn3 2.083843 1_555
O4 W0 2.156266 1_555
O4 W4 2.209327 1_555
O4 W6 2.270790 1_555
O5 Zn3 2.109905 1_555
O5 W1 2.151551 1_554
O5 W5 2.205685 1_455
O5 W7 2.285910 1_454
O6 Zn2 2.107543 1_555
O6 W2 2.153122 1_555
O6 W4 2.206873 1_655
O6 W6 2.280628 1_665
O7 Zn2 2.069575 1_555
O7 W3 2.155409 1_556
O7 W5 2.209654 1_566
O7 W7 2.274223 1_555
O8 Zn3 2.122497 1_555
O8 W2 2.182797 1_555
O8 W0 2.197072 1_555
O8 W4 2.252460 1_655
O9 Zn3 2.092499 1_555
O9 W3 2.182115 1_545
O9 W1 2.196797 1_554
O9 W5 2.256715 1_555
O10 Zn1 2.047525 1_555
O10 W6 2.164686 1_555
O10 W0 2.179251 1_555
O10 W2 2.296701 1_545
O11 Zn1 2.085679 1_555
O11 W7 2.161476 1_455
O11 W1 2.174825 1_555
O11 W3 2.300029 1_556
O12 Zn2 2.085418 1_555
O12 W0 2.182222 1_555
O12 W2 2.194139 1_555
O12 W4 2.256456 1_555
O13 Zn2 2.152790 1_555
O13 W1 2.182317 1_565
O13 W3 2.199477 1_556
O13 W5 2.255420 1_466
O14 Zn0 2.080950 1_555
O14 W6 2.164555 1_665
O14 W2 2.178890 1_555
O14 W0 2.303016 1_565
O15 Zn0 2.048402 1_555
O15 W7 2.164098 1_554
O15 W3 2.175513 1_555
O15 W1 2.293277 1_554
