# generated using pymatgen
data_CoNi
_symmetry_space_group_name_H-M   'P 1'
_cell_length_a   8.61134801
_cell_length_b   8.61134801
_cell_length_c   8.61134619
_cell_angle_alpha   33.09930224
_cell_angle_beta   33.09930224
_cell_angle_gamma   33.09930205
_symmetry_Int_Tables_number   1
_chemical_formula_structural   CoNi
_chemical_formula_sum   'Co8 Ni8'
_cell_volume   169.49716672
_cell_formula_units_Z   8
loop_
 _symmetry_equiv_pos_site_id
 _symmetry_equiv_pos_as_xyz
  1  'x, y, z'
loop_
 _atom_site_type_symbol
 _atom_site_label
 _atom_site_symmetry_multiplicity
 _atom_site_fract_x
 _atom_site_fract_y
 _atom_site_fract_z
 _atom_site_occupancy
  Co  Co0_0  1  0.00000000  0.00000000  0.00000000  1
  Co  Co0_1  1  0.00000000  0.00000000  0.50000000  1
  Co  Co0_2  1  0.00000000  0.50000000  0.00000000  1
  Co  Co0_3  1  0.00000000  0.50000000  0.50000000  1
  Co  Co0_4  1  0.50000000  0.00000000  0.00000000  1
  Co  Co0_5  1  0.50000000  0.00000000  0.50000000  1
  Co  Co0_6  1  0.50000000  0.50000000  0.00000000  1
  Co  Co0_7  1  0.50000000  0.50000000  0.50000000  1
  Ni  Ni0_0  1  0.25000000  0.25000000  0.25000000  1
  Ni  Ni0_1  1  0.25000000  0.25000000  0.75000000  1
  Ni  Ni0_2  1  0.25000000  0.75000000  0.25000000  1
  Ni  Ni0_3  1  0.25000000  0.75000000  0.75000000  1
  Ni  Ni0_4  1  0.75000000  0.25000000  0.25000000  1
  Ni  Ni0_5  1  0.75000000  0.25000000  0.75000000  1
  Ni  Ni0_6  1  0.75000000  0.75000000  0.25000000  1
  Ni  Ni0_7  1  0.75000000  0.75000000  0.75000000  1
loop_
_geom_bond_atom_site_label_1
_geom_bond_atom_site_label_2
_geom_bond_distance
_geom_bond_site_symmetry_2
Co0_0 Co0_5 2.452909 1_554
Co0_0 Co0_3 2.452909 1_554
Co0_0 Co0_3 2.452909 1_545
Co0_0 Co0_5 2.452909 1_455
Co0_0 Co0_6 2.452909 1_545
Co0_0 Co0_6 2.452909 1_455
Co0_0 Ni0_2 2.477680 1_545
Co0_0 Ni0_4 2.477680 1_455
Co0_0 Ni0_5 2.477680 1_454
Co0_0 Ni0_3 2.477680 1_544
Co0_0 Ni0_1 2.477680 1_554
Co0_0 Ni0_6 2.477680 1_445
Co0_1 Co0_2 2.452909 1_555
Co0_1 Co0_4 2.452909 1_456
Co0_1 Co0_4 2.452909 1_555
Co0_1 Co0_2 2.452909 1_546
Co0_1 Co0_7 2.452909 1_545
Co0_1 Co0_7 2.452909 1_455
Co0_1 Ni0_3 2.477680 1_545
Co0_1 Ni0_5 2.477680 1_455
Co0_1 Ni0_4 2.477680 1_455
Co0_1 Ni0_2 2.477680 1_545
Co0_1 Ni0_0 2.477680 1_555
Co0_1 Ni0_7 2.477680 1_445
Co0_2 Co0_7 2.452909 1_455
Co0_2 Co0_7 2.452909 1_554
Co0_2 Co0_4 2.452909 1_555
Co0_2 Co0_4 2.452909 1_465
Co0_2 Ni0_1 2.477680 1_554
Co0_2 Ni0_6 2.477680 1_455
Co0_2 Ni0_0 2.477680 1_555
Co0_2 Ni0_7 2.477680 1_454
Co0_2 Ni0_3 2.477680 1_554
Co0_2 Ni0_4 2.477680 1_455
Co0_3 Co0_6 2.452909 1_555
Co0_3 Co0_6 2.452909 1_456
Co0_3 Co0_5 2.452909 1_555
Co0_3 Co0_5 2.452909 1_465
Co0_3 Ni0_0 2.477680 1_555
Co0_3 Ni0_6 2.477680 1_455
Co0_3 Ni0_7 2.477680 1_455
Co0_3 Ni0_1 2.477680 1_555
Co0_3 Ni0_5 2.477680 1_455
Co0_3 Ni0_2 2.477680 1_555
Co0_4 Co0_7 2.452909 1_545
Co0_4 Co0_7 2.452909 1_554
Co0_4 Ni0_1 2.477680 1_554
Co0_4 Ni0_6 2.477680 1_545
Co0_4 Ni0_7 2.477680 1_544
Co0_4 Ni0_0 2.477680 1_555
Co0_4 Ni0_5 2.477680 1_554
Co0_4 Ni0_2 2.477680 1_545
Co0_5 Co0_6 2.452909 1_555
Co0_5 Co0_6 2.452909 1_546
Co0_5 Ni0_0 2.477680 1_555
Co0_5 Ni0_6 2.477680 1_545
Co0_5 Ni0_7 2.477680 1_545
Co0_5 Ni0_1 2.477680 1_555
Co0_5 Ni0_3 2.477680 1_545
Co0_5 Ni0_4 2.477680 1_555
Co0_6 Ni0_3 2.477680 1_554
Co0_6 Ni0_5 2.477680 1_554
Co0_6 Ni0_4 2.477680 1_555
Co0_6 Ni0_2 2.477680 1_555
Co0_6 Ni0_0 2.477680 1_555
Co0_6 Ni0_7 2.477680 1_554
Co0_7 Ni0_2 2.477680 1_555
Co0_7 Ni0_4 2.477680 1_555
Co0_7 Ni0_5 2.477680 1_555
Co0_7 Ni0_3 2.477680 1_555
Co0_7 Ni0_1 2.477680 1_555
Co0_7 Ni0_6 2.477680 1_555
Ni0_0 Ni0_3 2.452909 1_554
Ni0_0 Ni0_3 2.452909 1_545
Ni0_0 Ni0_5 2.452909 1_455
Ni0_0 Ni0_5 2.452909 1_554
Ni0_0 Ni0_6 2.452909 1_455
Ni0_0 Ni0_6 2.452909 1_545
Ni0_1 Ni0_2 2.452909 1_546
Ni0_1 Ni0_4 2.452909 1_456
Ni0_1 Ni0_2 2.452909 1_555
Ni0_1 Ni0_4 2.452909 1_555
Ni0_1 Ni0_7 2.452909 1_455
Ni0_1 Ni0_7 2.452909 1_545
Ni0_2 Ni0_7 2.452909 1_455
Ni0_2 Ni0_7 2.452909 1_554
Ni0_2 Ni0_4 2.452909 1_555
Ni0_2 Ni0_4 2.452909 1_465
Ni0_3 Ni0_6 2.452909 1_555
Ni0_3 Ni0_6 2.452909 1_456
Ni0_3 Ni0_5 2.452909 1_465
Ni0_3 Ni0_5 2.452909 1_555
Ni0_4 Ni0_7 2.452909 1_554
Ni0_4 Ni0_7 2.452909 1_545
Ni0_5 Ni0_6 2.452909 1_555
Ni0_5 Ni0_6 2.452909 1_546
