# generated using pymatgen
data_Dy(NO5)3
_symmetry_space_group_name_H-M   'P 1'
_cell_length_a   7.62399351
_cell_length_b   9.13159179
_cell_length_c   12.41129516
_cell_angle_alpha   69.19533493
_cell_angle_beta   87.69119739
_cell_angle_gamma   61.60774449
_symmetry_Int_Tables_number   1
_chemical_formula_structural   Dy(NO5)3
_chemical_formula_sum   'Dy2 N6 O30'
_cell_volume   701.82269230
_cell_formula_units_Z   2
loop_
 _symmetry_equiv_pos_site_id
 _symmetry_equiv_pos_as_xyz
  1  'x, y, z'
loop_
 _atom_site_type_symbol
 _atom_site_label
 _atom_site_symmetry_multiplicity
 _atom_site_fract_x
 _atom_site_fract_y
 _atom_site_fract_z
 _atom_site_occupancy
  Dy  Dy0  1  0.93477400  0.63596300  0.71735900  1
  Dy  Dy1  1  0.06522600  0.36403700  0.28264100  1
  N  N0  1  0.91333500  0.84420000  0.48974700  1
  N  N1  1  0.08666500  0.15580000  0.51025300  1
  N  N2  1  0.84406700  0.73718300  0.18587200  1
  N  N3  1  0.15593300  0.26281700  0.81412800  1
  N  N4  1  0.92240200  0.84743000  0.83112500  1
  N  N5  1  0.07759800  0.15257000  0.16887500  1
  O  O0  1  0.56912000  0.64664600  0.47698900  1
  O  O1  1  0.43088000  0.35335400  0.52301100  1
  O  O2  1  0.09545900  0.35532300  0.70155100  1
  O  O3  1  0.90454100  0.64467700  0.29844900  1
  O  O4  1  0.47116100  0.58774200  0.71550400  1
  O  O5  1  0.52883900  0.41225800  0.28449600  1
  O  O6  1  0.75841100  0.86049600  0.79069400  1
  O  O7  1  0.24158900  0.13950400  0.20930600  1
  O  O8  1  0.08300200  0.71607600  0.55966000  1
  O  O9  1  0.91699800  0.28392400  0.44034000  1
  O  O10  1  0.09039900  0.71376100  0.82120000  1
  O  O11  1  0.90960100  0.28623900  0.17880000  1
  O  O12  1  0.72527100  0.89648600  0.14471500  1
  O  O13  1  0.27472900  0.10351400  0.85528500  1
  O  O14  1  0.55500900  0.66291900  0.96363100  1
  O  O15  1  0.44499100  0.33708100  0.03636900  1
  O  O16  1  0.07852300  0.36089200  0.87687000  1
  O  O17  1  0.92147700  0.63910800  0.12313000  1
  O  O18  1  0.75201200  0.85223400  0.53184100  1
  O  O19  1  0.24798800  0.14776600  0.46815900  1
  O  O20  1  0.90982900  0.94708400  0.39445900  1
  O  O21  1  0.09017100  0.05291600  0.60554100  1
  O  O22  1  0.56012900  0.24823000  0.61046900  1
  O  O23  1  0.43987100  0.75177000  0.38953100  1
  O  O24  1  0.92366200  0.94759400  0.87314600  1
  O  O25  1  0.07633800  0.05240600  0.12685400  1
  O  O26  1  0.63196100  0.56596100  0.75281500  1
  O  O27  1  0.36803900  0.43403900  0.24718500  1
  O  O28  1  0.59190700  0.27060400  0.98936700  1
  O  O29  1  0.40809300  0.72939600  0.01063300  1
loop_
_geom_bond_atom_site_label_1
_geom_bond_atom_site_label_2
_geom_bond_distance
_geom_bond_site_symmetry_2
Dy0 O10 2.269067 1_655
Dy0 O8 2.287791 1_655
Dy0 O6 2.333564 1_555
Dy0 O16 2.335407 1_655
Dy0 O2 2.336407 1_655
Dy0 O18 2.356827 1_555
Dy0 O26 2.655915 1_555
Dy1 O11 2.269067 1_455
Dy1 O9 2.287791 1_455
Dy1 O7 2.333564 1_555
Dy1 O17 2.335407 1_455
Dy1 O3 2.336407 1_455
Dy1 O19 2.356827 1_555
Dy1 O27 2.655915 1_555
N0 O20 1.213014 1_555
N0 O18 1.296413 1_555
N0 O8 1.313397 1_655
N1 O21 1.213014 1_555
N1 O19 1.296413 1_555
N1 O9 1.313397 1_455
N2 O12 1.205735 1_555
N2 O17 1.308619 1_555
N2 O3 1.312047 1_555
N3 O13 1.205735 1_555
N3 O16 1.308619 1_555
N3 O2 1.312047 1_555
N4 O24 1.206777 1_555
N4 O6 1.302059 1_555
N4 O10 1.323953 1_655
N5 O25 1.206777 1_555
N5 O7 1.302059 1_555
N5 O11 1.323953 1_455
O0 O23 1.231721 1_555
O1 O22 1.231721 1_555
O14 O29 1.231129 1_556
O15 O28 1.231129 1_554
O26 O4 1.226927 1_555
O27 O5 1.226927 1_555
