# generated using pymatgen
data_Li9Mn7O16
_symmetry_space_group_name_H-M   'P 1'
_cell_length_a   10.25716543
_cell_length_b   10.25716543
_cell_length_c   5.25524256
_cell_angle_alpha   83.41509472
_cell_angle_beta   83.41509472
_cell_angle_gamma   32.80961909
_symmetry_Int_Tables_number   1
_chemical_formula_structural   Li9Mn7O16
_chemical_formula_sum   'Li9 Mn7 O16'
_cell_volume   297.44079883
_cell_formula_units_Z   1
loop_
 _symmetry_equiv_pos_site_id
 _symmetry_equiv_pos_as_xyz
  1  'x, y, z'
loop_
 _atom_site_type_symbol
 _atom_site_label
 _atom_site_symmetry_multiplicity
 _atom_site_fract_x
 _atom_site_fract_y
 _atom_site_fract_z
 _atom_site_occupancy
  Li  Li0  1  0.25955200  0.74044800  0.50000000  1
  Li  Li1  1  0.62035500  0.62035500  0.25184800  1
  Li  Li2  1  0.00000000  0.50000000  0.00000000  1
  Li  Li3  1  0.37964500  0.37964500  0.74815200  1
  Li  Li4  1  0.74044800  0.25955200  0.50000000  1
  Li  Li5  1  0.12372100  0.12372100  0.24201400  1
  Li  Li6  1  0.50000000  0.00000000  0.00000000  1
  Li  Li7  1  0.87627900  0.87627900  0.75798600  1
  Li  Li8  1  0.50000000  0.50000000  0.00000000  1
  Mn  Mn0  1  0.00000000  0.00000000  0.00000000  1
  Mn  Mn1  1  0.62464900  0.13226100  0.23373900  1
  Mn  Mn2  1  0.37535100  0.86773900  0.76626100  1
  Mn  Mn3  1  0.74984300  0.74984300  0.49935400  1
  Mn  Mn4  1  0.13226100  0.62464900  0.23373900  1
  Mn  Mn5  1  0.86773900  0.37535100  0.76626100  1
  Mn  Mn6  1  0.25015700  0.25015700  0.50064600  1
  O  O0  1  0.17622400  0.70524100  0.88370600  1
  O  O1  1  0.56983400  0.56983400  0.63003800  1
  O  O2  1  0.94431300  0.43996000  0.38858100  1
  O  O3  1  0.31866100  0.31866100  0.12676200  1
  O  O4  1  0.70524100  0.17622400  0.88370600  1
  O  O5  1  0.05968700  0.05968700  0.66741300  1
  O  O6  1  0.43996000  0.94431300  0.38858100  1
  O  O7  1  0.81978100  0.81978100  0.13461700  1
  O  O8  1  0.29475900  0.82377600  0.11629400  1
  O  O9  1  0.68133900  0.68133900  0.87323800  1
  O  O10  1  0.05568700  0.56004000  0.61141900  1
  O  O11  1  0.43016600  0.43016600  0.36996200  1
  O  O12  1  0.82377600  0.29475900  0.11629400  1
  O  O13  1  0.18021900  0.18021900  0.86538300  1
  O  O14  1  0.56004000  0.05568700  0.61141900  1
  O  O15  1  0.94031300  0.94031300  0.33258700  1
loop_
_geom_bond_atom_site_label_1
_geom_bond_atom_site_label_2
_geom_bond_distance
_geom_bond_site_symmetry_2
Li0 O1 2.126233 1_555
Li0 O11 2.126233 1_555
Li0 O15 2.159187 1_455
Li0 O5 2.159187 1_565
Li0 O8 2.209892 1_555
Li0 O0 2.209892 1_555
Li1 O1 2.113318 1_555
Li1 O8 2.122708 1_555
Li1 O12 2.122708 1_555
Li1 O9 2.197325 1_554
Li1 O6 2.211127 1_555
Li1 O2 2.211127 1_555
Li2 O9 2.140709 1_454
Li2 O3 2.140709 1_555
Li2 O7 2.171739 1_455
Li2 O13 2.171739 1_554
Li2 O10 2.216074 1_554
Li2 O2 2.216074 1_455
Li3 O11 2.113318 1_555
Li3 O0 2.122708 1_555
Li3 O4 2.122708 1_555
Li3 O3 2.197325 1_556
Li3 O10 2.211127 1_555
Li3 O14 2.211127 1_555
Li4 O1 2.126233 1_555
Li4 O11 2.126233 1_555
Li4 O5 2.159187 1_655
Li4 O15 2.159187 1_545
Li4 O12 2.209892 1_555
Li4 O4 2.209892 1_555
Li5 O12 2.026619 1_455
Li5 O8 2.026619 1_545
Li5 O13 2.151190 1_554
Li5 O2 2.171513 1_455
Li5 O6 2.171513 1_545
Li5 O5 2.431504 1_555
Li6 O9 2.140709 1_544
Li6 O3 2.140709 1_555
Li6 O7 2.171739 1_545
Li6 O13 2.171739 1_554
Li6 O14 2.216074 1_554
Li6 O6 2.216074 1_545
Li7 O0 2.026619 1_655
Li7 O4 2.026619 1_565
Li7 O7 2.151190 1_556
Li7 O10 2.171513 1_655
Li7 O14 2.171513 1_565
Li7 O15 2.431504 1_555
Li8 O0 2.062225 1_554
Li8 O8 2.062225 1_555
Li8 O12 2.062225 1_555
Li8 O4 2.062225 1_554
Li8 O1 2.242742 1_554
Li8 O11 2.242742 1_555
Mn0 O12 1.940559 1_455
Mn0 O8 1.940559 1_545
Mn0 O0 1.940559 1_544
Mn0 O4 1.940559 1_454
Mn0 O5 1.985882 1_554
Mn0 O15 1.985882 1_445
Mn1 O11 1.938242 1_555
Mn1 O3 1.973165 1_555
Mn1 O7 1.977544 1_545
Mn1 O15 2.016232 1_545
Mn1 O4 2.087600 1_554
Mn1 O14 2.282816 1_555
Mn2 O1 1.938242 1_555
Mn2 O9 1.973165 1_555
Mn2 O13 1.977544 1_565
Mn2 O5 2.016232 1_565
Mn2 O8 2.087600 1_556
Mn2 O6 2.282816 1_555
Mn3 O14 1.967961 1_565
Mn3 O10 1.967961 1_655
Mn3 O2 1.980200 1_555
Mn3 O6 1.980200 1_555
Mn3 O7 2.222068 1_555
Mn3 O9 2.246048 1_555
Mn4 O11 1.938242 1_555
Mn4 O3 1.973165 1_555
Mn4 O7 1.977544 1_455
Mn4 O15 2.016232 1_455
Mn4 O0 2.087600 1_554
Mn4 O10 2.282816 1_555
Mn5 O1 1.938242 1_555
Mn5 O9 1.973165 1_555
Mn5 O13 1.977544 1_655
Mn5 O5 2.016232 1_655
Mn5 O12 2.087600 1_556
Mn5 O2 2.282816 1_555
Mn6 O2 1.967961 1_455
Mn6 O6 1.967961 1_545
Mn6 O10 1.980200 1_555
Mn6 O14 1.980200 1_555
Mn6 O13 2.222068 1_555
Mn6 O3 2.246048 1_555
