# generated using pymatgen
data_Fe2B
_symmetry_space_group_name_H-M   'P 1'
_cell_length_a   4.17552053
_cell_length_b   4.17551904
_cell_length_c   4.17550685
_cell_angle_alpha   104.86836428
_cell_angle_beta   104.86837743
_cell_angle_gamma   119.13067382
_symmetry_Int_Tables_number   1
_chemical_formula_structural   Fe2B
_chemical_formula_sum   'Fe4 B2'
_cell_volume   54.82899441
_cell_formula_units_Z   2
loop_
 _symmetry_equiv_pos_site_id
 _symmetry_equiv_pos_as_xyz
  1  'x, y, z'
loop_
 _atom_site_type_symbol
 _atom_site_label
 _atom_site_symmetry_multiplicity
 _atom_site_fract_x
 _atom_site_fract_y
 _atom_site_fract_z
 _atom_site_occupancy
  Fe  Fe0  1  0.16755223  0.66755223  0.83510346  1
  Fe  Fe1  1  0.33244977  0.16754923  0.49999900  1
  Fe  Fe2  1  0.83244877  0.33244877  0.16489754  1
  Fe  Fe3  1  0.66754923  0.83244977  0.49999900  1
  B  B0  1  0.75000000  0.75000000  0.00000100  1
  B  B1  1  0.25000000  0.25000000  0.00000100  1
loop_
_geom_bond_atom_site_label_1
_geom_bond_atom_site_label_2
_geom_bond_distance
_geom_bond_site_symmetry_2
B0 B1 2.115132 1_555
B0 B1 2.115132 1_665
B0 Fe3 2.170513 1_555
B0 Fe1 2.170515 1_665
B0 Fe2 2.170520 1_555
B0 Fe0 2.170521 1_554
B0 Fe2 2.170522 1_565
B0 Fe1 2.170525 1_554
B0 Fe0 2.170525 1_654
B0 Fe3 2.170527 1_554
B1 Fe1 2.170513 1_555
B1 Fe3 2.170515 1_555
B1 Fe0 2.170520 1_544
B1 Fe2 2.170521 1_455
B1 Fe2 2.170523 1_555
B1 Fe0 2.170524 1_554
B1 Fe3 2.170525 1_444
B1 Fe1 2.170527 1_554
