# generated using pymatgen
data_Cu2ClO3
_symmetry_space_group_name_H-M   'P 1'
_cell_length_a   5.71803900
_cell_length_b   6.30704600
_cell_length_c   8.60386600
_cell_angle_alpha   90.00000000
_cell_angle_beta   90.00000000
_cell_angle_gamma   90.00000000
_symmetry_Int_Tables_number   1
_chemical_formula_structural   Cu2ClO3
_chemical_formula_sum   'Cu8 Cl4 O12'
_cell_volume   310.28926420
_cell_formula_units_Z   4
loop_
 _symmetry_equiv_pos_site_id
 _symmetry_equiv_pos_as_xyz
  1  'x, y, z'
loop_
 _atom_site_type_symbol
 _atom_site_label
 _atom_site_symmetry_multiplicity
 _atom_site_fract_x
 _atom_site_fract_y
 _atom_site_fract_z
 _atom_site_occupancy
  Cu  Cu0  1  0.50000000  0.00000000  0.50000000  1
  Cu  Cu1  1  0.00000000  0.50000000  0.00000000  1
  Cu  Cu2  1  0.50000000  0.50000000  0.50000000  1
  Cu  Cu3  1  0.00000000  0.00000000  0.00000000  1
  Cu  Cu4  1  0.31061800  0.75000000  0.76094600  1
  Cu  Cu5  1  0.81061800  0.75000000  0.73905400  1
  Cu  Cu6  1  0.68938200  0.25000000  0.23905400  1
  Cu  Cu7  1  0.18938200  0.25000000  0.26094600  1
  Cl  Cl0  1  0.13910500  0.25000000  0.55105000  1
  Cl  Cl1  1  0.63910500  0.25000000  0.94895000  1
  Cl  Cl2  1  0.86089500  0.75000000  0.44895000  1
  Cl  Cl3  1  0.36089500  0.75000000  0.05105000  1
  O  O0  1  0.32698700  0.75000000  0.50548500  1
  O  O1  1  0.82698700  0.75000000  0.99451500  1
  O  O2  1  0.67301300  0.25000000  0.49451500  1
  O  O3  1  0.17301300  0.25000000  0.00548500  1
  O  O4  1  0.05774100  0.94377400  0.78711000  1
  O  O5  1  0.55774100  0.55622600  0.71289000  1
  O  O6  1  0.94225900  0.44377400  0.21289000  1
  O  O7  1  0.44225900  0.05622600  0.28711000  1
  O  O8  1  0.94225900  0.05622600  0.21289000  1
  O  O9  1  0.44225900  0.44377400  0.28711000  1
  O  O10  1  0.05774100  0.55622600  0.78711000  1
  O  O11  1  0.55774100  0.94377400  0.71289000  1
loop_
_geom_bond_atom_site_label_1
_geom_bond_atom_site_label_2
_geom_bond_distance
_geom_bond_site_symmetry_2
Cu0 O0 1.862017 1_545
Cu0 O2 1.862017 1_555
Cu0 O7 1.894678 1_555
Cu0 O11 1.894678 1_545
Cu1 O1 1.862017 1_454
Cu1 O3 1.862017 1_555
Cu1 O6 1.894678 1_455
Cu1 O10 1.894678 1_554
Cu2 O2 1.862017 1_555
Cu2 O0 1.862017 1_555
Cu2 O9 1.894678 1_555
Cu2 O5 1.894678 1_555
Cu3 O1 1.862017 1_444
Cu3 O3 1.862017 1_555
Cu3 O8 1.894678 1_455
Cu3 O4 1.894678 1_544
Cu4 O4 1.906596 1_555
Cu4 O10 1.906596 1_555
Cu4 O5 1.913458 1_555
Cu4 O11 1.913458 1_555
Cu4 O0 2.199944 1_555
Cu5 O5 1.906596 1_555
Cu5 O11 1.906596 1_555
Cu5 O10 1.913458 1_655
Cu5 O4 1.913458 1_655
Cu5 O1 2.199944 1_555
Cu6 O6 1.906596 1_555
Cu6 O8 1.906596 1_555
Cu6 O9 1.913458 1_555
Cu6 O7 1.913458 1_555
Cu6 O2 2.199944 1_555
Cu7 O9 1.906596 1_555
Cu7 O7 1.906596 1_555
Cu7 O8 1.913458 1_455
Cu7 O6 1.913458 1_455
Cu7 O3 2.199944 1_555
Cl0 Cu7 2.512517 1_555
Cl0 Cu2 2.633931 1_555
Cl0 Cu0 2.633931 1_555
Cl1 Cu6 2.512517 1_556
Cl1 Cu1 2.633931 1_656
Cl1 Cu3 2.633931 1_656
Cl2 Cu5 2.512517 1_555
Cl2 Cu0 2.633931 1_565
Cl2 Cu2 2.633931 1_555
Cl3 Cu4 2.512517 1_554
Cl3 Cu3 2.633931 1_565
Cl3 Cu1 2.633931 1_555
