# generated using pymatgen
data_Dy3C4
_symmetry_space_group_name_H-M   'P 1'
_cell_length_a   8.09202345
_cell_length_b   8.09202345
_cell_length_c   15.93816728
_cell_angle_alpha   90.00000000
_cell_angle_beta   90.00000000
_cell_angle_gamma   90.00000000
_symmetry_Int_Tables_number   1
_chemical_formula_structural   Dy3C4
_chemical_formula_sum   'Dy30 C40'
_cell_volume   1043.64463758
_cell_formula_units_Z   10
loop_
 _symmetry_equiv_pos_site_id
 _symmetry_equiv_pos_as_xyz
  1  'x, y, z'
loop_
 _atom_site_type_symbol
 _atom_site_label
 _atom_site_symmetry_multiplicity
 _atom_site_fract_x
 _atom_site_fract_y
 _atom_site_fract_z
 _atom_site_occupancy
  Dy  Dy0  1  0.09977590  0.28836147  0.14666552  1
  Dy  Dy1  1  0.90022410  0.71163853  0.85333448  1
  Dy  Dy2  1  0.90022410  0.71163853  0.14666552  1
  Dy  Dy3  1  0.71163853  0.09977590  0.14666552  1
  Dy  Dy4  1  0.40022410  0.78836147  0.35333448  1
  Dy  Dy5  1  0.09977590  0.28836147  0.85333448  1
  Dy  Dy6  1  0.28836147  0.90022410  0.85333448  1
  Dy  Dy7  1  0.59977590  0.21163853  0.64666552  1
  Dy  Dy8  1  0.28836147  0.90022410  0.14666552  1
  Dy  Dy9  1  0.59977590  0.21163853  0.35333448  1
  Dy  Dy10  1  0.71163853  0.09977590  0.85333448  1
  Dy  Dy11  1  0.40022410  0.78836147  0.64666552  1
  Dy  Dy12  1  0.78836147  0.59977590  0.35333448  1
  Dy  Dy13  1  0.21163853  0.40022410  0.64666552  1
  Dy  Dy14  1  0.21163853  0.40022410  0.35333448  1
  Dy  Dy15  1  0.78836147  0.59977590  0.64666552  1
  Dy  Dy16  1  0.40463750  0.20298876  0.00000000  1
  Dy  Dy17  1  0.59536250  0.79701124  0.00000000  1
  Dy  Dy18  1  0.79701124  0.40463750  0.00000000  1
  Dy  Dy19  1  0.09536250  0.70298876  0.50000000  1
  Dy  Dy20  1  0.20298876  0.59536250  0.00000000  1
  Dy  Dy21  1  0.90463750  0.29701124  0.50000000  1
  Dy  Dy22  1  0.70298876  0.90463750  0.50000000  1
  Dy  Dy23  1  0.29701124  0.09536250  0.50000000  1
  Dy  Dy24  1  -0.00000000  -0.00000000  0.00000000  1
  Dy  Dy25  1  0.50000000  0.50000000  0.50000000  1
  Dy  Dy26  1  -0.00000000  -0.00000000  0.31271919  1
  Dy  Dy27  1  -0.00000000  -0.00000000  0.68728081  1
  Dy  Dy28  1  0.50000000  0.50000000  0.18728081  1
  Dy  Dy29  1  0.50000000  0.50000000  0.81271919  1
  C  C0  1  0.30620213  0.09883547  0.32698571  1
  C  C1  1  0.69379787  0.90116453  0.67301429  1
  C  C2  1  0.69379787  0.90116453  0.32698571  1
  C  C3  1  0.90116453  0.30620213  0.32698571  1
  C  C4  1  0.19379787  0.59883547  0.17301429  1
  C  C5  1  0.30620213  0.09883547  0.67301429  1
  C  C6  1  0.09883547  0.69379787  0.67301429  1
  C  C7  1  0.80620213  0.40116453  0.82698571  1
  C  C8  1  0.09883547  0.69379787  0.32698571  1
  C  C9  1  0.80620213  0.40116453  0.17301429  1
  C  C10  1  0.90116453  0.30620213  0.67301429  1
  C  C11  1  0.19379787  0.59883547  0.82698571  1
  C  C12  1  0.59883547  0.80620213  0.17301429  1
  C  C13  1  0.40116453  0.19379787  0.82698571  1
  C  C14  1  0.40116453  0.19379787  0.17301429  1
  C  C15  1  0.59883547  0.80620213  0.82698571  1
  C  C16  1  0.10555223  0.30425769  0.00000000  1
  C  C17  1  0.89444777  0.69574231  0.00000000  1
  C  C18  1  0.69574231  0.10555223  0.00000000  1
  C  C19  1  0.39444777  0.80425769  0.50000000  1
  C  C20  1  0.30425769  0.89444777  0.00000000  1
  C  C21  1  0.60555223  0.19574231  0.50000000  1
  C  C22  1  0.80425769  0.60555223  0.50000000  1
  C  C23  1  0.19574231  0.39444777  0.50000000  1
  C  C24  1  -0.00000000  -0.00000000  0.45914591  1
  C  C25  1  -0.00000000  -0.00000000  0.54085409  1
  C  C26  1  0.50000000  0.50000000  0.04085409  1
  C  C27  1  0.50000000  0.50000000  0.95914591  1
  C  C28  1  0.15016441  0.65016441  0.25000000  1
  C  C29  1  0.84983559  0.34983559  0.75000000  1
  C  C30  1  0.84983559  0.34983559  0.25000000  1
  C  C31  1  0.34983559  0.15016441  0.25000000  1
  C  C32  1  0.15016441  0.65016441  0.75000000  1
  C  C33  1  0.65016441  0.84983559  0.75000000  1
  C  C34  1  0.65016441  0.84983559  0.25000000  1
  C  C35  1  0.34983559  0.15016441  0.75000000  1
  C  C36  1  -0.00000000  -0.00000000  0.15680282  1
  C  C37  1  -0.00000000  -0.00000000  0.84319718  1
  C  C38  1  0.50000000  0.50000000  0.34319718  1
  C  C39  1  0.50000000  0.50000000  0.65680282  1
loop_
_geom_bond_atom_site_label_1
_geom_bond_atom_site_label_2
_geom_bond_distance
_geom_bond_site_symmetry_2
C0 C31 1.342663 1_555
C0 Dy9 2.579356 1_555
C0 Dy14 2.590341 1_555
C0 Dy26 2.613583 1_555
C0 Dy4 2.658418 1_545
C0 Dy23 2.758677 1_555
C1 C33 1.342663 1_555
C1 Dy11 2.579356 1_555
C1 Dy15 2.590341 1_555
C1 Dy27 2.613583 1_665
C1 Dy7 2.658418 1_565
C1 Dy22 2.758677 1_555
C2 C34 1.342663 1_555
C2 Dy4 2.579356 1_555
C2 Dy12 2.590341 1_555
C2 Dy26 2.613583 1_665
C2 Dy9 2.658418 1_565
C2 Dy22 2.758677 1_555
C3 C30 1.342663 1_555
C3 Dy12 2.579356 1_555
C3 Dy9 2.590341 1_555
C3 Dy26 2.613583 1_655
C3 Dy14 2.658418 1_655
C3 Dy21 2.758677 1_555
C4 Dy2 2.579356 1_455
C4 Dy8 2.590341 1_555
C4 Dy28 2.613583 1_555
C4 Dy0 2.658418 1_555
C4 Dy20 2.758677 1_555
C5 Dy7 2.579356 1_555
C5 Dy13 2.590341 1_555
C5 Dy27 2.613583 1_555
C5 Dy11 2.658418 1_545
C5 Dy23 2.758677 1_555
C6 Dy13 2.579356 1_555
C6 Dy11 2.590341 1_555
C6 Dy27 2.613583 1_565
C6 Dy15 2.658418 1_455
C6 Dy19 2.758677 1_555
C7 Dy5 2.579356 1_655
C7 Dy10 2.590341 1_555
C7 Dy29 2.613583 1_555
C7 Dy1 2.658418 1_555
C7 Dy18 2.758677 1_556
C8 Dy14 2.579356 1_555
C8 Dy4 2.590341 1_555
C8 Dy26 2.613583 1_565
C8 Dy12 2.658418 1_455
C8 Dy19 2.758677 1_555
C9 Dy0 2.579356 1_655
C9 Dy3 2.590341 1_555
C9 Dy28 2.613583 1_555
C9 Dy2 2.658418 1_555
C9 Dy18 2.758677 1_555
C10 C29 1.342663 1_555
C10 Dy15 2.579356 1_555
C10 Dy7 2.590341 1_555
C10 Dy27 2.613583 1_655
C10 Dy13 2.658418 1_655
C10 Dy21 2.758677 1_555
C11 C32 1.342663 1_555
C11 Dy1 2.579356 1_455
C11 Dy6 2.590341 1_555
C11 Dy29 2.613583 1_555
C11 Dy5 2.658418 1_555
C11 Dy20 2.758677 1_556
C12 C34 1.342663 1_555
C12 Dy3 2.579356 1_565
C12 Dy2 2.590341 1_555
C12 Dy28 2.613583 1_555
C12 Dy8 2.658418 1_555
C12 Dy17 2.758677 1_555
C13 C35 1.342663 1_555
C13 Dy6 2.579356 1_545
C13 Dy5 2.590341 1_555
C13 Dy29 2.613583 1_555
C13 Dy10 2.658418 1_555
C13 Dy16 2.758677 1_556
C14 C31 1.342663 1_555
C14 Dy8 2.579356 1_545
C14 Dy0 2.590341 1_555
C14 Dy28 2.613583 1_555
C14 Dy3 2.658418 1_555
C14 Dy16 2.758677 1_555
C15 C33 1.342663 1_555
C15 Dy10 2.579356 1_565
C15 Dy1 2.590341 1_555
C15 Dy29 2.613583 1_555
C15 Dy6 2.658418 1_555
C15 Dy17 2.758677 1_556
C16 Dy5 2.341583 1_554
C16 Dy0 2.341583 1_555
C16 Dy20 2.484078 1_555
C16 Dy16 2.555176 1_555
C16 Dy24 2.606009 1_555
C16 Dy18 2.625530 1_455
C17 Dy2 2.341583 1_555
C17 Dy1 2.341583 1_554
C17 Dy18 2.484078 1_555
C17 Dy17 2.555176 1_555
C17 Dy24 2.606009 1_665
C17 Dy20 2.625530 1_655
C18 Dy3 2.341583 1_555
C18 Dy10 2.341583 1_554
C18 Dy16 2.484078 1_555
C18 Dy18 2.555176 1_555
C18 Dy24 2.606009 1_655
C18 Dy17 2.625530 1_545
C19 Dy4 2.341583 1_555
C19 Dy11 2.341583 1_555
C19 Dy23 2.484078 1_565
C19 Dy19 2.555176 1_555
C19 Dy25 2.606009 1_555
C19 Dy22 2.625530 1_555
C20 Dy6 2.341583 1_554
C20 Dy8 2.341583 1_555
C20 Dy17 2.484078 1_555
C20 Dy20 2.555176 1_555
C20 Dy24 2.606009 1_565
C20 Dy16 2.625530 1_565
C21 Dy7 2.341583 1_555
C21 Dy9 2.341583 1_555
C21 Dy22 2.484078 1_545
C21 Dy21 2.555176 1_555
C21 Dy25 2.606009 1_555
C21 Dy23 2.625530 1_555
C22 Dy15 2.341583 1_555
C22 Dy12 2.341583 1_555
C22 Dy19 2.484078 1_655
C22 Dy22 2.555176 1_555
C22 Dy25 2.606009 1_555
C22 Dy21 2.625530 1_555
C23 Dy13 2.341583 1_555
C23 Dy14 2.341583 1_555
C23 Dy21 2.484078 1_455
C23 Dy23 2.555176 1_555
C23 Dy25 2.606009 1_555
C23 Dy19 2.625530 1_555
C24 C25 1.302279 1_555
C24 Dy26 2.333774 1_555
C24 Dy23 2.606895 1_555
C24 Dy21 2.606895 1_455
C24 Dy22 2.606895 1_445
C24 Dy19 2.606895 1_545
C25 Dy27 2.333774 1_555
C25 Dy23 2.606895 1_555
C25 Dy21 2.606895 1_455
C25 Dy22 2.606895 1_445
C25 Dy19 2.606895 1_545
C26 C27 1.302279 1_554
C26 Dy28 2.333774 1_555
C26 Dy20 2.606895 1_555
C26 Dy17 2.606895 1_555
C26 Dy18 2.606895 1_555
C26 Dy16 2.606895 1_555
C27 Dy29 2.333774 1_555
C27 Dy16 2.606895 1_556
C27 Dy20 2.606895 1_556
C27 Dy17 2.606895 1_556
C27 Dy18 2.606895 1_556
C28 C8 1.342663 1_555
C28 C4 1.342663 1_555
C28 Dy14 2.655285 1_555
C28 Dy2 2.655285 1_455
C28 Dy8 2.838586 1_555
C28 Dy4 2.838586 1_555
C29 C7 1.342663 1_555
C29 Dy5 2.655285 1_655
C29 Dy15 2.655285 1_555
C29 Dy7 2.838586 1_555
C29 Dy10 2.838586 1_555
C30 C9 1.342663 1_555
C30 Dy0 2.655285 1_655
C30 Dy12 2.655285 1_555
C30 Dy9 2.838586 1_555
C30 Dy3 2.838586 1_555
C31 Dy8 2.655285 1_545
C31 Dy9 2.655285 1_555
C31 Dy0 2.838586 1_555
C31 Dy14 2.838586 1_555
C32 C6 1.342663 1_555
C32 Dy13 2.655285 1_555
C32 Dy1 2.655285 1_455
C32 Dy6 2.838586 1_555
C32 Dy11 2.838586 1_555
C33 Dy11 2.655285 1_555
C33 Dy10 2.655285 1_565
C33 Dy15 2.838586 1_555
C33 Dy1 2.838586 1_555
C34 Dy4 2.655285 1_555
C34 Dy3 2.655285 1_565
C34 Dy2 2.838586 1_555
C34 Dy12 2.838586 1_555
C35 C5 1.342663 1_555
C35 Dy7 2.655285 1_555
C35 Dy6 2.655285 1_545
C35 Dy5 2.838586 1_555
C35 Dy13 2.838586 1_555
C36 Dy3 2.474443 1_455
C36 Dy0 2.474443 1_555
C36 Dy2 2.474443 1_445
C36 Dy8 2.474443 1_545
C36 Dy26 2.485021 1_555
C36 Dy24 2.499150 1_555
C37 Dy6 2.474443 1_545
C37 Dy1 2.474443 1_445
C37 Dy10 2.474443 1_455
C37 Dy5 2.474443 1_555
C37 Dy27 2.485021 1_555
C37 Dy24 2.499150 1_556
C38 Dy12 2.474443 1_555
C38 Dy14 2.474443 1_555
C38 Dy4 2.474443 1_555
C38 Dy9 2.474443 1_555
C38 Dy28 2.485021 1_555
C38 Dy25 2.499150 1_555
C39 Dy15 2.474443 1_555
C39 Dy7 2.474443 1_555
C39 Dy13 2.474443 1_555
C39 Dy11 2.474443 1_555
C39 Dy29 2.485021 1_555
C39 Dy25 2.499150 1_555
