# generated using pymatgen
data_Li9Mn2Co5O16
_symmetry_space_group_name_H-M   'P 1'
_cell_length_a   2.92229700
_cell_length_b   9.77264500
_cell_length_c   10.33805875
_cell_angle_alpha   80.03851978
_cell_angle_beta   90.00000000
_cell_angle_gamma   90.00000000
_symmetry_Int_Tables_number   1
_chemical_formula_structural   Li9Mn2Co5O16
_chemical_formula_sum   'Li9 Mn2 Co5 O16'
_cell_volume   290.78922611
_cell_formula_units_Z   1
loop_
 _symmetry_equiv_pos_site_id
 _symmetry_equiv_pos_as_xyz
  1  'x, y, z'
loop_
 _atom_site_type_symbol
 _atom_site_label
 _atom_site_symmetry_multiplicity
 _atom_site_fract_x
 _atom_site_fract_y
 _atom_site_fract_z
 _atom_site_occupancy
  Li  Li0  1  0.50000000  0.00306300  0.24804900  1
  Li  Li1  1  0.50000000  0.00611400  0.74662600  1
  Li  Li2  1  0.00000000  0.75023300  0.37278600  1
  Li  Li3  1  0.00000000  0.73832200  0.88413700  1
  Li  Li4  1  0.50000000  0.49849300  0.47838400  1
  Li  Li5  1  0.50000000  0.49673500  0.02310300  1
  Li  Li6  1  0.00000000  0.25692500  0.13347700  1
  Li  Li7  1  0.00000000  0.25593200  0.61195400  1
  Li  Li8  1  0.00000000  0.49921600  0.25048000  1
  Mn  Mn0  1  0.00000000  0.99353500  0.99967900  1
  Mn  Mn1  1  0.50000000  0.75143000  0.62563700  1
  Co  Co0  1  0.00000000  0.01255200  0.49386500  1
  Co  Co1  1  0.50000000  0.72875300  0.14269600  1
  Co  Co2  1  0.00000000  0.49589000  0.75249700  1
  Co  Co3  1  0.50000000  0.27003500  0.35839600  1
  Co  Co4  1  0.50000000  0.25062700  0.87559300  1
  O  O0  1  0.50000000  0.10807300  0.05091700  1
  O  O1  1  0.50000000  0.11617000  0.55857800  1
  O  O2  1  0.00000000  0.87840400  0.16711900  1
  O  O3  1  0.00000000  0.85977800  0.68268900  1
  O  O4  1  0.50000000  0.63851700  0.30734900  1
  O  O5  1  0.50000000  0.62591300  0.79504000  1
  O  O6  1  0.00000000  0.36465500  0.93139500  1
  O  O7  1  0.00000000  0.36865300  0.43519800  1
  O  O8  1  0.50000000  0.87672300  0.45664100  1
  O  O9  1  0.50000000  0.88844600  0.94085100  1
  O  O10  1  0.00000000  0.64012200  0.57157800  1
  O  O11  1  0.00000000  0.63343600  0.06400300  1
  O  O12  1  0.50000000  0.37928900  0.70011900  1
  O  O13  1  0.50000000  0.36667600  0.19375000  1
  O  O14  1  0.00000000  0.12467600  0.31967900  1
  O  O15  1  0.00000000  0.12261300  0.82773700  1
loop_
_geom_bond_atom_site_label_1
_geom_bond_atom_site_label_2
_geom_bond_distance
_geom_bond_site_symmetry_2
Li0 O14 2.097687 1_555
Li0 O14 2.097687 1_655
Li0 O0 2.117276 1_555
Li0 O2 2.161415 1_645
Li0 O2 2.161415 1_545
Li0 O8 2.292050 1_545
Li1 O1 2.052492 1_555
Li1 O15 2.112952 1_555
Li1 O15 2.112952 1_655
Li1 O9 2.134292 1_545
Li1 O3 2.223522 1_545
Li1 O3 2.223522 1_645
Li2 O4 2.009990 1_455
Li2 O4 2.009990 1_555
Li2 O10 2.148573 1_555
Li2 O8 2.187524 1_555
Li2 O8 2.187524 1_455
Li2 O2 2.273379 1_555
Li3 O11 1.961848 1_556
Li3 O5 2.130776 1_455
Li3 O5 2.130776 1_555
Li3 O3 2.211509 1_555
Li3 O9 2.220073 1_455
Li3 O9 2.220073 1_555
Li4 O7 2.034781 1_655
Li4 O7 2.034781 1_555
Li4 O4 2.040062 1_555
Li4 O10 2.332432 1_655
Li4 O10 2.332432 1_555
Li4 O12 2.384928 1_555
Li5 O13 1.987959 1_555
Li5 O11 2.072167 1_555
Li5 O11 2.072167 1_655
Li5 O6 2.263469 1_554
Li5 O6 2.263469 1_654
Li5 O5 2.474431 1_554
Li6 O13 1.976060 1_555
Li6 O13 1.976060 1_455
Li6 O14 2.124881 1_555
Li6 O6 2.170700 1_554
Li6 O0 2.325742 1_455
Li6 O0 2.325742 1_555
Li7 O7 1.963706 1_555
Li7 O1 2.136756 1_455
Li7 O1 2.136756 1_555
Li7 O12 2.190694 1_555
Li7 O12 2.190694 1_455
Li7 O15 2.380823 1_555
Li8 O13 2.102247 1_455
Li8 O13 2.102247 1_555
Li8 O7 2.105165 1_555
Li8 O11 2.135911 1_555
Li8 O4 2.147264 1_455
Li8 O4 2.147264 1_555
Mn0 O2 1.894330 1_556
Mn0 O9 1.943100 1_455
Mn0 O9 1.943100 1_555
Mn0 O0 1.968144 1_466
Mn0 O0 1.968144 1_566
Mn0 O15 1.993772 1_565
Mn1 O8 1.952301 1_555
Mn1 O3 1.954494 1_555
Mn1 O3 1.954494 1_655
Mn1 O5 1.956644 1_555
Mn1 O10 1.959811 1_655
Mn1 O10 1.959811 1_555
Co0 O14 1.939249 1_555
Co0 O1 1.960180 1_455
Co0 O1 1.960180 1_555
Co0 O8 2.054699 1_445
Co0 O8 2.054699 1_545
Co0 O3 2.243064 1_545
Co1 O4 1.776452 1_555
Co1 O11 1.981580 1_555
Co1 O11 1.981580 1_655
Co1 O2 2.113131 1_655
Co1 O2 2.113131 1_555
Co1 O9 2.379734 1_554
Co2 O12 1.984968 1_455
Co2 O12 1.984968 1_555
Co2 O5 2.033799 1_555
Co2 O5 2.033799 1_455
Co2 O6 2.060268 1_555
Co2 O10 2.138432 1_555
Co3 O13 1.798057 1_555
Co3 O7 1.989708 1_655
Co3 O7 1.989708 1_555
Co3 O14 2.123633 1_555
Co3 O14 2.123633 1_655
Co3 O1 2.338207 1_555
Co4 O6 1.982914 1_555
Co4 O6 1.982914 1_655
Co4 O12 2.020556 1_555
Co4 O15 2.039349 1_655
Co4 O15 2.039349 1_555
Co4 O0 2.086241 1_556
