# generated using pymatgen
data_Tb2(B2Rh3)3
_symmetry_space_group_name_H-M   'P 1'
_cell_length_a   5.57182822
_cell_length_b   5.57182822
_cell_length_c   8.52615582
_cell_angle_alpha   90.00000000
_cell_angle_beta   90.00000000
_cell_angle_gamma   119.99999601
_symmetry_Int_Tables_number   1
_chemical_formula_structural   Tb2(B2Rh3)3
_chemical_formula_sum   'Tb2 B6 Rh9'
_cell_volume   229.23416873
_cell_formula_units_Z   1
loop_
 _symmetry_equiv_pos_site_id
 _symmetry_equiv_pos_as_xyz
  1  'x, y, z'
loop_
 _atom_site_type_symbol
 _atom_site_label
 _atom_site_symmetry_multiplicity
 _atom_site_fract_x
 _atom_site_fract_y
 _atom_site_fract_z
 _atom_site_occupancy
  Tb  Tb0  1  -0.00000000  -0.00000000  0.70653994  1
  Tb  Tb1  1  0.00000000  0.00000000  0.29346006  1
  B  B0  1  0.66666700  0.33333300  0.00000000  1
  B  B1  1  0.33333300  0.66666700  0.00000000  1
  B  B2  1  0.66666700  0.33333300  0.66747258  1
  B  B3  1  0.33333300  0.66666700  0.66747258  1
  B  B4  1  0.33333300  0.66666700  0.33252742  1
  B  B5  1  0.66666700  0.33333300  0.33252742  1
  Rh  Rh0  1  0.50000000  0.50000000  0.83598183  1
  Rh  Rh1  1  0.50000000  -0.00000000  0.83598183  1
  Rh  Rh2  1  -0.00000000  0.50000000  0.83598183  1
  Rh  Rh3  1  0.50000000  0.50000000  0.16401817  1
  Rh  Rh4  1  0.50000000  0.00000000  0.16401817  1
  Rh  Rh5  1  0.00000000  0.50000000  0.16401817  1
  Rh  Rh6  1  0.50000000  0.50000000  0.50000000  1
  Rh  Rh7  1  0.50000000  0.00000000  0.50000000  1
  Rh  Rh8  1  0.00000000  0.50000000  0.50000000  1
loop_
_geom_bond_atom_site_label_1
_geom_bond_atom_site_label_2
_geom_bond_distance
_geom_bond_site_symmetry_2
B0 Rh2 2.131372 1_654
B0 Rh1 2.131372 1_554
B0 Rh5 2.131372 1_655
B0 Rh4 2.131372 1_555
B0 Rh3 2.131376 1_555
B0 Rh0 2.131376 1_554
B1 Rh2 2.131372 1_554
B1 Rh1 2.131372 1_564
B1 Rh5 2.131372 1_555
B1 Rh4 2.131372 1_565
B1 Rh3 2.131376 1_555
B1 Rh0 2.131376 1_554
B2 Rh8 2.150812 1_655
B2 Rh7 2.150812 1_555
B2 Rh6 2.150815 1_555
B2 Rh2 2.156690 1_655
B2 Rh1 2.156690 1_555
B2 Rh0 2.156693 1_555
B3 Rh7 2.150812 1_565
B3 Rh8 2.150812 1_555
B3 Rh6 2.150815 1_555
B3 Rh2 2.156690 1_555
B3 Rh1 2.156690 1_565
B3 Rh0 2.156693 1_555
B4 Rh7 2.150812 1_565
B4 Rh8 2.150812 1_555
B4 Rh6 2.150815 1_555
B4 Rh4 2.156690 1_565
B4 Rh5 2.156690 1_555
B4 Rh3 2.156693 1_555
B5 Rh8 2.150812 1_655
B5 Rh7 2.150812 1_555
B5 Rh6 2.150815 1_555
B5 Rh4 2.156690 1_555
B5 Rh5 2.156690 1_655
B5 Rh3 2.156693 1_555
Rh0 Tb0 2.996555 1_665
Rh0 Tb0 2.996555 1_555
Rh1 Tb0 2.996555 1_555
Rh1 Tb0 2.996555 1_655
Rh2 Tb0 2.996555 1_555
Rh2 Tb0 2.996555 1_565
Rh3 Tb1 2.996555 1_555
Rh3 Tb1 2.996555 1_665
Rh4 Tb1 2.996555 1_555
Rh4 Tb1 2.996555 1_655
Rh5 Tb1 2.996555 1_565
Rh5 Tb1 2.996555 1_555
