# generated using pymatgen
data_Co2SiGe
_symmetry_space_group_name_H-M   'P 1'
_cell_length_a   4.53578900
_cell_length_b   4.53406600
_cell_length_c   4.53970388
_cell_angle_alpha   89.28156639
_cell_angle_beta   90.00000000
_cell_angle_gamma   90.00000000
_symmetry_Int_Tables_number   1
_chemical_formula_structural   Co2SiGe
_chemical_formula_sum   'Co4 Si2 Ge2'
_cell_volume   93.35424345
_cell_formula_units_Z   2
loop_
 _symmetry_equiv_pos_site_id
 _symmetry_equiv_pos_as_xyz
  1  'x, y, z'
loop_
 _atom_site_type_symbol
 _atom_site_label
 _atom_site_symmetry_multiplicity
 _atom_site_fract_x
 _atom_site_fract_y
 _atom_site_fract_z
 _atom_site_occupancy
  Co  Co0  1  0.63821100  0.35641200  0.60395000  1
  Co  Co1  1  0.13821100  0.64358800  0.39605000  1
  Co  Co2  1  0.35933700  0.13560100  0.11767100  1
  Co  Co3  1  0.85933700  0.86439900  0.88232900  1
  Si  Si0  1  0.66001500  0.84366600  0.41237800  1
  Si  Si1  1  0.16001500  0.15633400  0.58762200  1
  Ge  Ge0  1  0.34243600  0.66137400  0.90580100  1
  Ge  Ge1  1  0.84243600  0.33862600  0.09419900  1
loop_
_geom_bond_atom_site_label_1
_geom_bond_atom_site_label_2
_geom_bond_distance
_geom_bond_site_symmetry_2
Co0 Si1 2.352589 1_555
Co0 Si0 2.366155 1_555
Co0 Ge0 2.374237 1_555
Co0 Ge1 2.411079 1_556
Co0 Si0 2.494321 1_545
Co0 Ge1 2.494875 1_555
Co0 Si1 2.536107 1_655
Co1 Si0 2.352589 1_455
Co1 Si1 2.366155 1_555
Co1 Ge1 2.374237 1_455
Co1 Ge0 2.411079 1_554
Co1 Si1 2.494321 1_565
Co1 Ge0 2.494875 1_555
Co1 Si0 2.536107 1_555
Co2 Si0 2.314640 1_545
Co2 Si1 2.320084 1_555
Co2 Ge0 2.367722 1_544
Co2 Ge1 2.378609 1_555
Co2 Ge1 2.520556 1_455
Co2 Ge0 2.560550 1_554
Co2 Si1 2.571117 1_554
Co3 Si1 2.314640 1_665
Co3 Si0 2.320084 1_555
Co3 Ge1 2.367722 1_566
Co3 Ge0 2.378609 1_655
Co3 Ge0 2.520556 1_555
Co3 Ge1 2.560550 1_556
Co3 Si0 2.571117 1_556
Si0 Si1 2.795405 1_565
Si0 Si1 2.795405 1_665
Ge0 Si1 2.779585 1_565
Ge0 Si0 2.780152 1_555
Ge0 Si0 2.845071 1_556
Ge0 Si1 2.845619 1_555
Ge1 Si0 2.779585 1_545
Ge1 Si1 2.780152 1_655
Ge1 Si1 2.845071 1_654
Ge1 Si0 2.845619 1_555
