# generated using pymatgen
data_SrMg
_symmetry_space_group_name_H-M   'P 1'
_cell_length_a   14.58743315
_cell_length_b   14.58743315
_cell_length_c   16.64805965
_cell_angle_alpha   74.20887086
_cell_angle_beta   74.20887086
_cell_angle_gamma   32.07972241
_symmetry_Int_Tables_number   1
_chemical_formula_structural   SrMg
_chemical_formula_sum   'Sr24 Mg24'
_cell_volume   1804.46682445
_cell_formula_units_Z   24
loop_
 _symmetry_equiv_pos_site_id
 _symmetry_equiv_pos_as_xyz
  1  'x, y, z'
loop_
 _atom_site_type_symbol
 _atom_site_label
 _atom_site_symmetry_multiplicity
 _atom_site_fract_x
 _atom_site_fract_y
 _atom_site_fract_z
 _atom_site_occupancy
  Sr  Sr0_0  1  0.30670900  0.30670900  0.11640950  1
  Sr  Sr0_1  1  0.30670900  0.30670900  0.61640950  1
  Sr  Sr0_2  1  0.30670900  0.80670900  0.11640950  1
  Sr  Sr0_3  1  0.30670900  0.80670900  0.61640950  1
  Sr  Sr0_4  1  0.80670900  0.30670900  0.11640950  1
  Sr  Sr0_5  1  0.80670900  0.30670900  0.61640950  1
  Sr  Sr0_6  1  0.80670900  0.80670900  0.11640950  1
  Sr  Sr0_7  1  0.80670900  0.80670900  0.61640950  1
  Sr  Sr1_0  1  0.16349000  0.16349000  0.16641850  1
  Sr  Sr1_1  1  0.16349000  0.16349000  0.66641850  1
  Sr  Sr1_2  1  0.16349000  0.66349000  0.16641850  1
  Sr  Sr1_3  1  0.16349000  0.66349000  0.66641850  1
  Sr  Sr1_4  1  0.66349000  0.16349000  0.16641850  1
  Sr  Sr1_5  1  0.66349000  0.16349000  0.66641850  1
  Sr  Sr1_6  1  0.66349000  0.66349000  0.16641850  1
  Sr  Sr1_7  1  0.66349000  0.66349000  0.66641850  1
  Sr  Sr2_0  1  0.47685300  0.47685300  0.31771200  1
  Sr  Sr2_1  1  0.47685300  0.47685300  0.81771200  1
  Sr  Sr2_2  1  0.47685300  0.97685300  0.31771200  1
  Sr  Sr2_3  1  0.47685300  0.97685300  0.81771200  1
  Sr  Sr2_4  1  0.97685300  0.47685300  0.31771200  1
  Sr  Sr2_5  1  0.97685300  0.47685300  0.81771200  1
  Sr  Sr2_6  1  0.97685300  0.97685300  0.31771200  1
  Sr  Sr2_7  1  0.97685300  0.97685300  0.81771200  1
  Mg  Mg0_0  1  0.00289500  0.00289500  0.00067900  1
  Mg  Mg0_1  1  0.00289500  0.00289500  0.50067900  1
  Mg  Mg0_2  1  0.00289500  0.50289500  0.00067900  1
  Mg  Mg0_3  1  0.00289500  0.50289500  0.50067900  1
  Mg  Mg0_4  1  0.50289500  0.00289500  0.00067900  1
  Mg  Mg0_5  1  0.50289500  0.00289500  0.50067900  1
  Mg  Mg0_6  1  0.50289500  0.50289500  0.00067900  1
  Mg  Mg0_7  1  0.50289500  0.50289500  0.50067900  1
  Mg  Mg1_0  1  0.33251950  0.33251950  0.35424000  1
  Mg  Mg1_1  1  0.33251950  0.33251950  0.85424000  1
  Mg  Mg1_2  1  0.33251950  0.83251950  0.35424000  1
  Mg  Mg1_3  1  0.33251950  0.83251950  0.85424000  1
  Mg  Mg1_4  1  0.83251950  0.33251950  0.35424000  1
  Mg  Mg1_5  1  0.83251950  0.33251950  0.85424000  1
  Mg  Mg1_6  1  0.83251950  0.83251950  0.35424000  1
  Mg  Mg1_7  1  0.83251950  0.83251950  0.85424000  1
  Mg  Mg2_0  1  0.13420050  0.13420050  0.46120750  1
  Mg  Mg2_1  1  0.13420050  0.13420050  0.96120750  1
  Mg  Mg2_2  1  0.13420050  0.63420050  0.46120750  1
  Mg  Mg2_3  1  0.13420050  0.63420050  0.96120750  1
  Mg  Mg2_4  1  0.63420050  0.13420050  0.46120750  1
  Mg  Mg2_5  1  0.63420050  0.13420050  0.96120750  1
  Mg  Mg2_6  1  0.63420050  0.63420050  0.46120750  1
  Mg  Mg2_7  1  0.63420050  0.63420050  0.96120750  1
loop_
_geom_bond_atom_site_label_1
_geom_bond_atom_site_label_2
_geom_bond_distance
_geom_bond_site_symmetry_2
Sr0_0 Sr1_0 3.863402 1_555
Sr0_0 Sr1_4 3.889793 1_555
Sr0_0 Sr1_2 3.889793 1_555
Sr0_0 Sr2_4 4.007073 1_455
Sr0_0 Sr2_2 4.007073 1_545
Sr0_0 Sr0_6 4.030596 1_545
Sr0_0 Sr0_6 4.030596 1_455
Sr0_1 Sr1_1 3.863402 1_555
Sr0_1 Sr1_5 3.889793 1_555
Sr0_1 Sr1_3 3.889793 1_555
Sr0_1 Sr2_5 4.007073 1_455
Sr0_1 Sr2_3 4.007073 1_545
Sr0_1 Sr0_7 4.030596 1_545
Sr0_1 Sr0_7 4.030596 1_455
Sr0_2 Sr1_2 3.863402 1_555
Sr0_2 Sr1_6 3.889793 1_555
Sr0_2 Sr1_0 3.889793 1_565
Sr0_2 Sr2_0 4.007073 1_555
Sr0_2 Sr2_6 4.007073 1_455
Sr0_2 Sr0_4 4.030596 1_555
Sr0_2 Sr0_4 4.030596 1_465
Sr0_3 Sr1_3 3.863402 1_555
Sr0_3 Sr1_1 3.889793 1_565
Sr0_3 Sr1_7 3.889793 1_555
Sr0_3 Sr2_7 4.007073 1_455
Sr0_3 Sr2_1 4.007073 1_555
Sr0_3 Sr0_5 4.030596 1_465
Sr0_3 Sr0_5 4.030596 1_555
Sr0_4 Sr1_4 3.863402 1_555
Sr0_4 Sr1_6 3.889793 1_555
Sr0_4 Sr1_0 3.889793 1_655
Sr0_4 Sr2_0 4.007073 1_555
Sr0_4 Sr2_6 4.007073 1_545
Sr0_5 Sr1_5 3.863402 1_555
Sr0_5 Sr1_1 3.889793 1_655
Sr0_5 Sr1_7 3.889793 1_555
Sr0_5 Sr2_1 4.007073 1_555
Sr0_5 Sr2_7 4.007073 1_545
Sr0_6 Sr1_6 3.863402 1_555
Sr0_6 Sr1_2 3.889793 1_655
Sr0_6 Sr1_4 3.889793 1_565
Sr0_6 Sr2_2 4.007073 1_555
Sr0_6 Sr2_4 4.007073 1_555
Sr0_7 Sr1_7 3.863402 1_555
Sr0_7 Sr1_5 3.889793 1_565
Sr0_7 Sr1_3 3.889793 1_655
Sr0_7 Sr2_3 4.007073 1_555
Sr0_7 Sr2_5 4.007073 1_555
Sr1_0 Sr2_2 4.011997 1_545
Sr1_0 Sr2_4 4.011997 1_455
Sr1_0 Sr1_6 4.030596 1_545
Sr1_0 Sr1_6 4.030596 1_455
Sr1_1 Sr2_5 4.011997 1_455
Sr1_1 Sr2_3 4.011997 1_545
Sr1_1 Sr1_7 4.030596 1_545
Sr1_1 Sr1_7 4.030596 1_455
Sr1_2 Sr2_6 4.011997 1_455
Sr1_2 Sr2_0 4.011997 1_555
Sr1_2 Sr1_4 4.030596 1_555
Sr1_2 Sr1_4 4.030596 1_465
Sr1_3 Sr2_7 4.011997 1_455
Sr1_3 Sr2_1 4.011997 1_555
Sr1_3 Sr1_5 4.030596 1_465
Sr1_3 Sr1_5 4.030596 1_555
Sr1_4 Sr2_6 4.011997 1_545
Sr1_4 Sr2_0 4.011997 1_555
Sr1_5 Sr2_7 4.011997 1_545
Sr1_5 Sr2_1 4.011997 1_555
Sr1_6 Sr2_4 4.011997 1_555
Sr1_6 Sr2_2 4.011997 1_555
Sr1_7 Sr2_3 4.011997 1_555
Sr1_7 Sr2_5 4.011997 1_555
Sr2_0 Sr2_6 4.030596 1_545
Sr2_0 Sr2_6 4.030596 1_455
Sr2_1 Sr2_7 4.030596 1_545
Sr2_1 Sr2_7 4.030596 1_455
Sr2_2 Sr2_4 4.030596 1_555
Sr2_2 Sr2_4 4.030596 1_465
Sr2_3 Sr2_5 4.030596 1_555
Sr2_3 Sr2_5 4.030596 1_465
Mg0_0 Sr2_7 3.327336 1_444
Mg0_0 Sr0_4 3.420040 1_455
Mg0_0 Sr0_2 3.420040 1_545
Mg0_0 Mg1_5 3.450657 1_454
Mg0_0 Mg1_3 3.450657 1_544
Mg0_0 Mg2_1 3.551976 1_554
Mg0_0 Sr1_2 3.747255 1_545
Mg0_0 Sr1_4 3.747255 1_455
Mg0_1 Sr2_6 3.327336 1_445
Mg0_1 Sr0_3 3.420040 1_545
Mg0_1 Sr0_5 3.420040 1_455
Mg0_1 Mg1_4 3.450657 1_455
Mg0_1 Mg1_2 3.450657 1_545
Mg0_1 Mg2_0 3.551976 1_555
Mg0_1 Sr1_3 3.747255 1_545
Mg0_1 Sr1_5 3.747255 1_455
Mg0_2 Sr2_5 3.327336 1_454
Mg0_2 Sr0_6 3.420040 1_455
Mg0_2 Sr0_0 3.420040 1_555
Mg0_2 Mg1_1 3.450657 1_554
Mg0_2 Mg1_7 3.450657 1_454
Mg0_2 Mg2_3 3.551976 1_554
Mg0_2 Sr1_0 3.747255 1_555
Mg0_2 Sr1_6 3.747255 1_455
Mg0_3 Sr2_4 3.327336 1_455
Mg0_3 Sr0_1 3.420040 1_555
Mg0_3 Sr0_7 3.420040 1_455
Mg0_3 Mg1_0 3.450657 1_555
Mg0_3 Mg1_6 3.450657 1_455
Mg0_3 Mg2_2 3.551976 1_555
Mg0_3 Sr1_7 3.747255 1_455
Mg0_3 Sr1_1 3.747255 1_555
Mg0_4 Sr2_3 3.327336 1_544
Mg0_4 Sr0_0 3.420040 1_555
Mg0_4 Sr0_6 3.420040 1_545
Mg0_4 Mg1_1 3.450657 1_554
Mg0_4 Mg1_7 3.450657 1_544
Mg0_4 Mg2_5 3.551976 1_554
Mg0_4 Sr1_0 3.747255 1_555
Mg0_4 Sr1_6 3.747255 1_545
Mg0_5 Sr2_2 3.327336 1_545
Mg0_5 Sr0_1 3.420040 1_555
Mg0_5 Sr0_7 3.420040 1_545
Mg0_5 Mg1_0 3.450657 1_555
Mg0_5 Mg1_6 3.450657 1_545
Mg0_5 Mg2_4 3.551976 1_555
Mg0_5 Sr1_7 3.747255 1_545
Mg0_5 Sr1_1 3.747255 1_555
Mg0_6 Sr2_1 3.327336 1_554
Mg0_6 Sr0_2 3.420040 1_555
Mg0_6 Sr0_4 3.420040 1_555
Mg0_6 Mg1_5 3.450657 1_554
Mg0_6 Mg1_3 3.450657 1_554
Mg0_6 Mg2_7 3.551976 1_554
Mg0_6 Sr1_2 3.747255 1_555
Mg0_6 Sr1_4 3.747255 1_555
Mg0_7 Sr2_0 3.327336 1_555
Mg0_7 Sr0_3 3.420040 1_555
Mg0_7 Sr0_5 3.420040 1_555
Mg0_7 Mg1_4 3.450657 1_555
Mg0_7 Mg1_2 3.450657 1_555
Mg0_7 Mg2_6 3.551976 1_555
Mg0_7 Sr1_3 3.747255 1_555
Mg0_7 Sr1_5 3.747255 1_555
Mg1_0 Mg2_4 3.285410 1_555
Mg1_0 Mg2_2 3.285410 1_555
Mg1_0 Sr2_4 3.772228 1_455
Mg1_0 Sr2_2 3.772228 1_545
Mg1_0 Sr1_4 3.869482 1_555
Mg1_0 Sr1_2 3.869482 1_555
Mg1_0 Sr2_0 3.918435 1_555
Mg1_1 Mg2_5 3.285410 1_555
Mg1_1 Mg2_3 3.285410 1_555
Mg1_1 Sr2_5 3.772228 1_455
Mg1_1 Sr2_3 3.772228 1_545
Mg1_1 Sr1_5 3.869482 1_555
Mg1_1 Sr1_3 3.869482 1_555
Mg1_1 Sr2_1 3.918435 1_555
Mg1_2 Mg2_0 3.285410 1_565
Mg1_2 Mg2_6 3.285410 1_555
Mg1_2 Sr2_0 3.772228 1_555
Mg1_2 Sr2_6 3.772228 1_455
Mg1_2 Sr1_6 3.869482 1_555
Mg1_2 Sr1_0 3.869482 1_565
Mg1_2 Sr2_2 3.918435 1_555
Mg1_3 Mg2_1 3.285410 1_565
Mg1_3 Mg2_7 3.285410 1_555
Mg1_3 Sr2_1 3.772228 1_555
Mg1_3 Sr2_7 3.772228 1_455
Mg1_3 Sr1_1 3.869482 1_565
Mg1_3 Sr1_7 3.869482 1_555
Mg1_3 Sr2_3 3.918435 1_555
Mg1_4 Mg2_0 3.285410 1_655
Mg1_4 Mg2_6 3.285410 1_555
Mg1_4 Sr2_0 3.772228 1_555
Mg1_4 Sr2_6 3.772228 1_545
Mg1_4 Sr1_6 3.869482 1_555
Mg1_4 Sr1_0 3.869482 1_655
Mg1_4 Sr2_4 3.918435 1_555
Mg1_5 Mg2_1 3.285410 1_655
Mg1_5 Mg2_7 3.285410 1_555
Mg1_5 Sr2_1 3.772228 1_555
Mg1_5 Sr2_7 3.772228 1_545
Mg1_5 Sr1_1 3.869482 1_655
Mg1_5 Sr1_7 3.869482 1_555
Mg1_5 Sr2_5 3.918435 1_555
Mg1_6 Mg2_2 3.285410 1_655
Mg1_6 Mg2_4 3.285410 1_565
Mg1_6 Sr2_4 3.772228 1_555
Mg1_6 Sr2_2 3.772228 1_555
Mg1_6 Sr1_2 3.869482 1_655
Mg1_6 Sr1_4 3.869482 1_565
Mg1_6 Sr2_6 3.918435 1_555
Mg1_7 Mg2_5 3.285410 1_565
Mg1_7 Mg2_3 3.285410 1_655
Mg1_7 Sr2_5 3.772228 1_555
Mg1_7 Sr2_3 3.772228 1_555
Mg1_7 Sr1_5 3.869482 1_565
Mg1_7 Sr1_3 3.869482 1_655
Mg1_7 Sr2_7 3.918435 1_555
Mg2_0 Sr0_3 3.504172 1_545
Mg2_0 Sr0_5 3.504172 1_455
Mg2_0 Sr2_4 3.605940 1_455
Mg2_0 Sr2_2 3.605940 1_545
Mg2_0 Sr1_1 3.732947 1_555
Mg2_1 Sr0_4 3.504172 1_456
Mg2_1 Sr0_2 3.504172 1_546
Mg2_1 Sr2_3 3.605940 1_545
Mg2_1 Sr2_5 3.605940 1_455
Mg2_1 Sr1_0 3.732947 1_556
Mg2_2 Sr0_7 3.504172 1_455
Mg2_2 Sr0_1 3.504172 1_555
Mg2_2 Sr2_6 3.605940 1_455
Mg2_2 Sr2_0 3.605940 1_555
Mg2_2 Sr1_3 3.732947 1_555
Mg2_3 Sr0_0 3.504172 1_556
Mg2_3 Sr0_6 3.504172 1_456
Mg2_3 Sr2_7 3.605940 1_455
Mg2_3 Sr2_1 3.605940 1_555
Mg2_3 Sr1_2 3.732947 1_556
Mg2_4 Sr0_7 3.504172 1_545
Mg2_4 Sr0_1 3.504172 1_555
Mg2_4 Sr2_6 3.605940 1_545
Mg2_4 Sr2_0 3.605940 1_555
Mg2_4 Sr1_5 3.732947 1_555
Mg2_5 Sr0_0 3.504172 1_556
Mg2_5 Sr0_6 3.504172 1_546
Mg2_5 Sr2_7 3.605940 1_545
Mg2_5 Sr2_1 3.605940 1_555
Mg2_5 Sr1_4 3.732947 1_556
Mg2_6 Sr0_5 3.504172 1_555
Mg2_6 Sr0_3 3.504172 1_555
Mg2_6 Sr2_2 3.605940 1_555
Mg2_6 Sr2_4 3.605940 1_555
Mg2_6 Sr1_7 3.732947 1_555
Mg2_7 Sr0_2 3.504172 1_556
Mg2_7 Sr0_4 3.504172 1_556
Mg2_7 Sr2_3 3.605940 1_555
Mg2_7 Sr2_5 3.605940 1_555
Mg2_7 Sr1_6 3.732947 1_556
