# generated using pymatgen
data_NaGdTi2O6
_symmetry_space_group_name_H-M   'P 1'
_cell_length_a   5.38140300
_cell_length_b   5.53402600
_cell_length_c   7.66614500
_cell_angle_alpha   90.00000000
_cell_angle_beta   90.00000000
_cell_angle_gamma   90.00000000
_symmetry_Int_Tables_number   1
_chemical_formula_structural   NaGdTi2O6
_chemical_formula_sum   'Na2 Gd2 Ti4 O12'
_cell_volume   228.30411591
_cell_formula_units_Z   2
loop_
 _symmetry_equiv_pos_site_id
 _symmetry_equiv_pos_as_xyz
  1  'x, y, z'
loop_
 _atom_site_type_symbol
 _atom_site_label
 _atom_site_symmetry_multiplicity
 _atom_site_fract_x
 _atom_site_fract_y
 _atom_site_fract_z
 _atom_site_occupancy
  Na  Na0  1  0.49552100  0.72113500  0.50000000  1
  Na  Na1  1  0.99552100  0.27886500  0.00000000  1
  Gd  Gd0  1  0.01544200  0.18893300  0.50000000  1
  Gd  Gd1  1  0.51544200  0.81106700  0.00000000  1
  Ti  Ti0  1  0.51215800  0.26261500  0.75254400  1
  Ti  Ti1  1  0.01215800  0.73738500  0.25254400  1
  Ti  Ti2  1  0.51215800  0.26261500  0.24745600  1
  Ti  Ti3  1  0.01215800  0.73738500  0.74745600  1
  O  O0  1  0.92431700  0.77117300  0.50000000  1
  O  O1  1  0.59149900  0.27081900  0.50000000  1
  O  O2  1  0.09149900  0.72918100  0.00000000  1
  O  O3  1  0.42431700  0.22882700  0.00000000  1
  O  O4  1  0.19868400  0.45278000  0.70156500  1
  O  O5  1  0.27576800  0.96610100  0.28906600  1
  O  O6  1  0.77576800  0.03389900  0.21093400  1
  O  O7  1  0.69868400  0.54722000  0.79843500  1
  O  O8  1  0.77576800  0.03389900  0.78906600  1
  O  O9  1  0.69868400  0.54722000  0.20156500  1
  O  O10  1  0.19868400  0.45278000  0.29843500  1
  O  O11  1  0.27576800  0.96610100  0.71093400  1
loop_
_geom_bond_atom_site_label_1
_geom_bond_atom_site_label_2
_geom_bond_distance
_geom_bond_site_symmetry_2
Na0 O0 2.324080 1_555
Na0 O11 2.418911 1_555
Na0 O5 2.418911 1_555
Na0 O1 2.545021 1_555
Na0 O10 2.672991 1_555
Na0 O4 2.672991 1_555
Na0 O7 2.712169 1_555
Na0 O9 2.712169 1_555
Na1 O3 2.324080 1_655
Na1 O6 2.418911 1_555
Na1 O8 2.418911 1_554
Na1 O2 2.545021 1_655
Na1 O7 2.672991 1_554
Na1 O9 2.672991 1_555
Na1 O4 2.712169 1_654
Na1 O10 2.712169 1_655
Gd0 O1 2.325979 1_455
Gd0 O10 2.343526 1_555
Gd0 O4 2.343526 1_555
Gd0 O0 2.363330 1_445
Gd0 O11 2.469434 1_545
Gd0 O5 2.469434 1_545
Gd0 O8 2.703773 1_455
Gd0 O6 2.703773 1_455
Gd1 O2 2.325979 1_555
Gd1 O7 2.343526 1_554
Gd1 O9 2.343526 1_555
Gd1 O3 2.363330 1_565
Gd1 O6 2.469434 1_565
Gd1 O8 2.469434 1_564
Gd1 O5 2.703773 1_555
Gd1 O11 2.703773 1_554
O0 Ti3 1.963963 1_655
O0 Ti1 1.963963 1_655
O1 Ti0 1.983080 1_555
O1 Ti2 1.983080 1_555
O2 Ti3 1.983080 1_554
O2 Ti1 1.983080 1_555
O3 Ti2 1.963963 1_555
O3 Ti0 1.963963 1_554
O4 Ti3 1.900523 1_555
O4 Ti0 2.026318 1_555
O5 Ti1 1.921676 1_555
O5 Ti2 2.100624 1_565
O6 Ti2 1.921676 1_555
O6 Ti1 2.100624 1_645
O7 Ti0 1.900523 1_555
O7 Ti3 2.026318 1_655
O8 Ti0 1.921676 1_555
O8 Ti3 2.100624 1_645
O9 Ti2 1.900523 1_555
O9 Ti1 2.026318 1_655
O10 Ti1 1.900523 1_555
O10 Ti2 2.026318 1_555
O11 Ti3 1.921676 1_555
O11 Ti0 2.100624 1_565
