# generated using pymatgen
data_V4WC5
_symmetry_space_group_name_H-M   'P 1'
_cell_length_a   12.30170617
_cell_length_b   12.30170617
_cell_length_c   12.30170590
_cell_angle_alpha   13.87578789
_cell_angle_beta   13.87578789
_cell_angle_gamma   13.87578909
_symmetry_Int_Tables_number   1
_chemical_formula_structural   V4WC5
_chemical_formula_sum   'V4 W1 C5'
_cell_volume   93.17660846
_cell_formula_units_Z   1
loop_
 _symmetry_equiv_pos_site_id
 _symmetry_equiv_pos_as_xyz
  1  'x, y, z'
loop_
 _atom_site_type_symbol
 _atom_site_label
 _atom_site_symmetry_multiplicity
 _atom_site_fract_x
 _atom_site_fract_y
 _atom_site_fract_z
 _atom_site_occupancy
  V  V0  1  0.59768300  0.59768300  0.59768300  1
  V  V1  1  0.19971200  0.19971200  0.19971200  1
  V  V2  1  0.80028800  0.80028800  0.80028800  1
  V  V3  1  0.40231700  0.40231700  0.40231700  1
  W  W0  1  0.00000000  0.00000000  0.00000000  1
  C  C0  1  0.10118200  0.10118200  0.10118200  1
  C  C1  1  0.89881800  0.89881800  0.89881800  1
  C  C2  1  0.50000000  0.50000000  0.50000000  1
  C  C3  1  0.70259000  0.70259000  0.70259000  1
  C  C4  1  0.29741000  0.29741000  0.29741000  1
loop_
_geom_bond_atom_site_label_1
_geom_bond_atom_site_label_2
_geom_bond_distance
_geom_bond_site_symmetry_2
C0 V3 2.080545 1_554
C0 V3 2.080545 1_545
C0 V3 2.080545 1_455
C0 V2 2.085539 1_445
C0 V2 2.085539 1_454
C0 V2 2.085539 1_544
C1 V0 2.080545 1_556
C1 V0 2.080545 1_655
C1 V0 2.080545 1_565
C1 V1 2.085539 1_665
C1 V1 2.085539 1_656
C1 V1 2.085539 1_566
C2 V1 2.098206 1_556
C2 V2 2.098206 1_554
C2 V1 2.098206 1_565
C2 V1 2.098206 1_655
C2 V2 2.098206 1_545
C2 V2 2.098206 1_455
C3 V3 2.098522 1_556
C3 V3 2.098522 1_565
C3 V3 2.098522 1_655
C3 W0 2.160452 1_665
C3 W0 2.160452 1_566
C3 W0 2.160452 1_656
C4 V0 2.098522 1_554
C4 V0 2.098522 1_545
C4 V0 2.098522 1_455
C4 W0 2.160452 1_556
C4 W0 2.160452 1_565
C4 W0 2.160452 1_655
