# generated using pymatgen
data_Li4TiCo5O12
_symmetry_space_group_name_H-M   'P 1'
_cell_length_a   4.91550817
_cell_length_b   10.79635615
_cell_length_c   8.52407929
_cell_angle_alpha   113.49901514
_cell_angle_beta   89.70972636
_cell_angle_gamma   85.70497462
_symmetry_Int_Tables_number   1
_chemical_formula_structural   Li4TiCo5O12
_chemical_formula_sum   'Li8 Ti2 Co10 O24'
_cell_volume   413.38599820
_cell_formula_units_Z   2
loop_
 _symmetry_equiv_pos_site_id
 _symmetry_equiv_pos_as_xyz
  1  'x, y, z'
loop_
 _atom_site_type_symbol
 _atom_site_label
 _atom_site_symmetry_multiplicity
 _atom_site_fract_x
 _atom_site_fract_y
 _atom_site_fract_z
 _atom_site_occupancy
  Li  Li0  1  0.03824100  0.74075500  0.20359300  1
  Li  Li1  1  0.53531700  0.74465800  0.70624800  1
  Li  Li2  1  0.46169100  0.25609700  0.96041300  1
  Li  Li3  1  0.96341200  0.25882200  0.46202100  1
  Li  Li4  1  0.53674700  0.74510300  0.03691400  1
  Li  Li5  1  0.04421200  0.74407900  0.54034800  1
  Li  Li6  1  0.96388200  0.25510300  0.79240300  1
  Li  Li7  1  0.46262100  0.25584300  0.29378300  1
  Ti  Ti0  1  0.98726500  0.00693400  0.00214200  1
  Ti  Ti1  1  0.49718300  0.99307900  0.50107000  1
  Co  Co0  1  0.25017800  0.49983000  0.91484100  1
  Co  Co1  1  0.75016300  0.50000100  0.41499400  1
  Co  Co2  1  0.74981900  0.50008300  0.08463800  1
  Co  Co3  1  0.25006000  0.49994900  0.58471600  1
  Co  Co4  1  0.00391200  0.99879600  0.66723500  1
  Co  Co5  1  0.49766700  0.00105300  0.16583500  1
  Co  Co6  1  0.49898600  0.00004600  0.83342300  1
  Co  Co7  1  0.00213000  0.00002300  0.33346500  1
  Co  Co8  1  0.75006300  0.50006800  0.75042400  1
  Co  Co9  1  0.25014600  0.50010500  0.25042000  1
  O  O0  1  0.40306800  0.60170800  0.80336700  1
  O  O1  1  0.90309700  0.60165300  0.30329100  1
  O  O2  1  0.59650800  0.39866300  0.20083200  1
  O  O3  1  0.09656800  0.39808000  0.70076700  1
  O  O4  1  0.82681500  0.10460700  0.55328500  1
  O  O5  1  0.32062200  0.10700400  0.05299300  1
  O  O6  1  0.19168100  0.88384700  0.45304800  1
  O  O7  1  0.67390400  0.89234400  0.94482300  1
  O  O8  1  0.31189000  0.10754200  0.72560300  1
  O  O9  1  0.79895800  0.11452700  0.21824100  1
  O  O10  1  0.18680500  0.89439400  0.11838300  1
  O  O11  1  0.69516900  0.89157500  0.61815300  1
  O  O12  1  0.80949400  0.10918800  0.88049700  1
  O  O13  1  0.31187600  0.10703100  0.38423600  1
  O  O14  1  0.68854800  0.89356600  0.27378900  1
  O  O15  1  0.18985500  0.89392300  0.77789600  1
  O  O16  1  0.10568100  0.39905100  0.02743600  1
  O  O17  1  0.60591000  0.39911300  0.52760300  1
  O  O18  1  0.60039100  0.39911700  0.86894400  1
  O  O19  1  0.10088400  0.39900100  0.36891100  1
  O  O20  1  0.39411500  0.60124200  0.12891800  1
  O  O21  1  0.89448200  0.60086300  0.62902800  1
  O  O22  1  0.89990500  0.60090500  0.97038800  1
  O  O23  1  0.40007900  0.60062900  0.47063800  1
loop_
_geom_bond_atom_site_label_1
_geom_bond_atom_site_label_2
_geom_bond_distance
_geom_bond_site_symmetry_2
Li0 O22 2.113678 1_454
Li0 O20 2.136221 1_555
Li0 O1 2.140187 1_455
Li0 O14 2.193657 1_455
Li0 O10 2.224665 1_555
Li0 O6 2.246795 1_555
Li1 O23 2.138059 1_555
Li1 O15 2.155998 1_555
Li1 O0 2.157205 1_555
Li1 O21 2.173269 1_555
Li1 O7 2.175536 1_555
Li1 O11 2.197225 1_555
Li2 O18 2.137603 1_555
Li2 O12 2.150104 1_555
Li2 O16 2.157076 1_556
Li2 O2 2.158512 1_556
Li2 O8 2.180030 1_555
Li2 O5 2.206642 1_556
Li3 O19 2.117225 1_655
Li3 O3 2.133383 1_655
Li3 O17 2.147295 1_555
Li3 O13 2.181910 1_655
Li3 O9 2.241104 1_555
Li3 O4 2.241247 1_555
Li4 O0 2.121212 1_554
Li4 O20 2.155890 1_555
Li4 O10 2.172337 1_555
Li4 O7 2.179013 1_554
Li4 O22 2.191187 1_554
Li4 O14 2.194621 1_555
Li5 O6 2.100028 1_555
Li5 O21 2.144941 1_455
Li5 O1 2.150560 1_455
Li5 O11 2.157865 1_455
Li5 O23 2.159027 1_555
Li5 O15 2.192184 1_555
Li6 O3 2.127324 1_655
Li6 O16 2.146695 1_656
Li6 O8 2.155703 1_655
Li6 O12 2.176741 1_555
Li6 O4 2.187534 1_555
Li6 O18 2.190597 1_555
Li7 O9 2.074518 1_555
Li7 O2 2.135287 1_555
Li7 O17 2.140093 1_555
Li7 O19 2.179026 1_555
Li7 O5 2.198748 1_555
Li7 O13 2.210248 1_555
Co0 O16 1.884440 1_556
Co0 O20 1.888147 1_556
Co0 O0 1.904616 1_555
Co0 O3 1.909543 1_555
Co0 O18 1.916350 1_555
Co0 O22 1.917749 1_455
Co1 O17 1.884979 1_555
Co1 O21 1.887358 1_555
Co1 O1 1.904164 1_555
Co1 O2 1.909197 1_555
Co1 O23 1.915027 1_555
Co1 O19 1.919740 1_655
Co2 O22 1.906814 1_554
Co2 O18 1.908800 1_554
Co2 O2 1.930995 1_555
Co2 O1 1.937027 1_555
Co2 O16 1.941345 1_655
Co2 O20 1.941890 1_555
Co3 O23 1.904362 1_555
Co3 O19 1.908921 1_555
Co3 O3 1.934364 1_555
Co3 O0 1.936868 1_555
Co3 O21 1.940247 1_455
Co3 O17 1.940444 1_555
Co4 O11 1.923959 1_455
Co4 O15 1.926814 1_555
Co4 O12 1.929350 1_465
Co4 O8 1.930228 1_565
Co4 O6 1.931282 1_555
Co4 O4 1.936691 1_465
Co5 O10 1.929489 1_545
Co5 O5 1.930762 1_555
Co5 O9 1.932830 1_555
Co5 O13 1.933023 1_555
Co5 O7 1.935205 1_544
Co5 O14 1.941928 1_545
Co6 O15 1.918681 1_545
Co6 O5 1.927002 1_556
Co6 O7 1.931868 1_545
Co6 O8 1.933052 1_555
Co6 O11 1.941074 1_545
Co6 O12 1.943611 1_555
Co7 O10 1.909603 1_545
Co7 O4 1.918132 1_455
Co7 O13 1.926556 1_555
Co7 O14 1.939789 1_445
Co7 O9 2.069689 1_455
Co7 O6 2.081959 1_545
Co8 O3 1.905976 1_655
Co8 O0 1.906310 1_555
Co8 O18 1.934033 1_555
Co8 O22 1.936381 1_555
Co8 O21 1.940421 1_555
Co8 O17 1.943193 1_555
Co9 O2 1.902903 1_555
Co9 O1 1.906123 1_455
Co9 O19 1.934326 1_555
Co9 O23 1.937502 1_555
Co9 O20 1.943167 1_555
Co9 O16 1.945087 1_555
O4 Ti1 2.036051 1_545
O5 Ti0 1.984720 1_455
O6 Ti1 1.923524 1_555
O7 Ti0 1.988191 1_566
O8 Ti1 1.986821 1_545
O9 Ti0 1.927318 1_555
O10 Ti0 2.052199 1_465
O11 Ti1 1.966318 1_555
O12 Ti0 1.958338 1_556
O13 Ti1 2.038012 1_545
O14 Ti1 1.990667 1_555
O15 Ti0 2.018165 1_466
