# generated using pymatgen
data_SrMg6Zr
_symmetry_space_group_name_H-M   'P 1'
_cell_length_a   5.27548100
_cell_length_b   6.95215600
_cell_length_c   11.21416900
_cell_angle_alpha   90.00000000
_cell_angle_beta   90.00000000
_cell_angle_gamma   90.00000000
_symmetry_Int_Tables_number   1
_chemical_formula_structural   SrMg6Zr
_chemical_formula_sum   'Sr2 Mg12 Zr2'
_cell_volume   411.29049091
_cell_formula_units_Z   2
loop_
 _symmetry_equiv_pos_site_id
 _symmetry_equiv_pos_as_xyz
  1  'x, y, z'
loop_
 _atom_site_type_symbol
 _atom_site_label
 _atom_site_symmetry_multiplicity
 _atom_site_fract_x
 _atom_site_fract_y
 _atom_site_fract_z
 _atom_site_occupancy
  Sr  Sr0  1  0.50000000  0.50000000  0.14399100  1
  Sr  Sr1  1  0.50000000  0.00000000  0.64399100  1
  Mg  Mg0  1  0.00000000  0.22998200  0.09189300  1
  Mg  Mg1  1  0.00000000  0.77001800  0.09189300  1
  Mg  Mg2  1  0.00000000  0.50000000  0.85157200  1
  Mg  Mg3  1  0.50000000  0.22931600  0.90331400  1
  Mg  Mg4  1  0.50000000  0.77068400  0.90331400  1
  Mg  Mg5  1  0.50000000  0.50000000  0.65995800  1
  Mg  Mg6  1  0.00000000  0.72998200  0.59189300  1
  Mg  Mg7  1  0.00000000  0.27001800  0.59189300  1
  Mg  Mg8  1  0.00000000  0.00000000  0.35157200  1
  Mg  Mg9  1  0.50000000  0.72931600  0.40331400  1
  Mg  Mg10  1  0.50000000  0.27068400  0.40331400  1
  Mg  Mg11  1  0.50000000  0.00000000  0.15995800  1
  Zr  Zr0  1  0.00000000  0.50000000  0.35406400  1
  Zr  Zr1  1  0.00000000  0.00000000  0.85406400  1
loop_
_geom_bond_atom_site_label_1
_geom_bond_atom_site_label_2
_geom_bond_distance
_geom_bond_site_symmetry_2
Sr0 Zr0 3.536586 1_655
Sr0 Zr0 3.536586 1_555
Sr1 Zr1 3.536586 1_555
Sr1 Zr1 3.536586 1_655
Mg0 Zr1 3.109593 1_554
Mg0 Mg11 3.177527 1_455
Mg0 Mg11 3.177527 1_555
Mg0 Mg1 3.197741 1_545
Mg0 Mg2 3.284347 1_554
Mg0 Sr0 3.289820 1_555
Mg0 Sr0 3.289820 1_455
Mg0 Mg8 3.322141 1_555
Mg0 Mg3 3.380812 1_454
Mg0 Mg3 3.380812 1_554
Mg0 Zr0 3.488221 1_555
Mg1 Zr1 3.109593 1_564
Mg1 Mg11 3.177527 1_465
Mg1 Mg11 3.177527 1_565
Mg1 Mg2 3.284347 1_554
Mg1 Sr0 3.289820 1_555
Mg1 Sr0 3.289820 1_455
Mg1 Mg8 3.322141 1_565
Mg1 Mg4 3.380812 1_554
Mg1 Mg4 3.380812 1_454
Mg1 Zr0 3.488221 1_555
Mg2 Mg4 3.291758 1_455
Mg2 Mg4 3.291758 1_555
Mg2 Mg3 3.291758 1_455
Mg2 Mg3 3.291758 1_555
Mg2 Mg6 3.322141 1_555
Mg2 Mg7 3.322141 1_555
Mg2 Mg5 3.402202 1_455
Mg2 Mg5 3.402202 1_555
Mg2 Zr1 3.476190 1_565
Mg2 Zr1 3.476190 1_555
Mg3 Zr1 3.131184 1_555
Mg3 Zr1 3.131184 1_655
Mg3 Mg4 3.188481 1_545
Mg3 Sr0 3.290269 1_556
Mg3 Mg5 3.314958 1_555
Mg3 Sr1 3.316414 1_555
Mg4 Zr1 3.131184 1_665
Mg4 Zr1 3.131184 1_565
Mg4 Sr0 3.290269 1_556
Mg4 Mg5 3.314958 1_555
Mg4 Sr1 3.316414 1_565
Mg5 Mg7 3.177527 1_655
Mg5 Mg6 3.177527 1_555
Mg5 Mg6 3.177527 1_655
Mg5 Mg7 3.177527 1_555
Mg5 Mg9 3.290102 1_555
Mg5 Sr1 3.480687 1_555
Mg5 Sr1 3.480687 1_565
Mg6 Zr0 3.109593 1_555
Mg6 Mg7 3.197741 1_555
Mg6 Mg8 3.284347 1_565
Mg6 Sr1 3.289820 1_465
Mg6 Sr1 3.289820 1_565
Mg6 Mg9 3.380812 1_555
Mg6 Mg9 3.380812 1_455
Mg6 Zr1 3.488221 1_565
Mg7 Zr0 3.109593 1_555
Mg7 Mg8 3.284347 1_555
Mg7 Sr1 3.289820 1_455
Mg7 Sr1 3.289820 1_555
Mg7 Zr1 3.488221 1_555
Mg8 Mg9 3.291758 1_545
Mg8 Mg9 3.291758 1_445
Mg8 Zr0 3.476190 1_545
Mg8 Zr0 3.476190 1_555
Mg9 Zr0 3.131184 1_655
Mg9 Zr0 3.131184 1_555
Mg9 Sr1 3.290269 1_565
Mg9 Sr0 3.316414 1_555
Mg10 Zr0 3.131184 1_655
Mg10 Zr0 3.131184 1_555
Mg10 Mg9 3.188481 1_555
Mg10 Mg5 3.290102 1_555
Mg10 Sr1 3.290269 1_555
Mg10 Mg8 3.291758 1_555
Mg10 Mg8 3.291758 1_655
Mg10 Mg11 3.314958 1_555
Mg10 Sr0 3.316414 1_555
Mg10 Mg7 3.380812 1_555
Mg10 Mg7 3.380812 1_655
Mg11 Mg3 3.290102 1_554
Mg11 Mg4 3.290102 1_544
Mg11 Mg9 3.314958 1_545
Mg11 Mg8 3.402202 1_555
Mg11 Mg8 3.402202 1_655
Mg11 Sr0 3.480687 1_545
Mg11 Sr0 3.480687 1_555
