# generated using pymatgen
data_Mg2Ir3
_symmetry_space_group_name_H-M   'P 1'
_cell_length_a   5.18434330
_cell_length_b   8.52179881
_cell_length_c   9.65621151
_cell_angle_alpha   96.64981847
_cell_angle_beta   105.57181444
_cell_angle_gamma   90.00000000
_symmetry_Int_Tables_number   1
_chemical_formula_structural   Mg2Ir3
_chemical_formula_sum   'Mg10 Ir15'
_cell_volume   407.97170779
_cell_formula_units_Z   5
loop_
 _symmetry_equiv_pos_site_id
 _symmetry_equiv_pos_as_xyz
  1  'x, y, z'
loop_
 _atom_site_type_symbol
 _atom_site_label
 _atom_site_symmetry_multiplicity
 _atom_site_fract_x
 _atom_site_fract_y
 _atom_site_fract_z
 _atom_site_occupancy
  Mg  Mg0  1  0.28039004  0.08446018  0.56077908  1
  Mg  Mg1  1  0.71960996  0.91553982  0.43922092  1
  Mg  Mg2  1  0.55491410  0.38408297  0.10982920  1
  Mg  Mg3  1  0.44508590  0.61591703  0.89017080  1
  Mg  Mg4  1  0.29098487  0.44418787  0.58197074  1
  Mg  Mg5  1  0.70901513  0.55581213  0.41802926  1
  Mg  Mg6  1  0.42182875  0.00240288  0.84365551  1
  Mg  Mg7  1  0.57817125  0.99759712  0.15634449  1
  Mg  Mg8  1  0.01988705  0.18143133  0.03977511  1
  Mg  Mg9  1  0.98011295  0.81856867  0.96022489  1
  Ir  Ir0  1  0.86828076  0.02773626  0.73656051  1
  Ir  Ir1  1  0.13171924  0.97226374  0.26343949  1
  Ir  Ir2  1  0.41857776  0.22946336  0.33642904  1
  Ir  Ir3  1  0.58142224  0.77053664  0.66357096  1
  Ir  Ir4  1  0.08214871  0.77053664  0.66357096  1
  Ir  Ir5  1  0.91785129  0.22946336  0.33642904  1
  Ir  Ir6  1  -0.00000000  0.50000000  0.00000000  1
  Ir  Ir7  1  0.21565436  0.74097427  0.43130771  1
  Ir  Ir8  1  0.78434564  0.25902573  0.56869229  1
  Ir  Ir9  1  0.13580810  0.46642890  0.27161420  1
  Ir  Ir10  1  0.86419190  0.53357110  0.72838580  1
  Ir  Ir11  1  0.64287136  0.29565935  0.81860216  1
  Ir  Ir12  1  0.35712864  0.70434065  0.18139784  1
  Ir  Ir13  1  0.82426920  0.70434065  0.18139784  1
  Ir  Ir14  1  0.17573080  0.29565935  0.81860216  1
loop_
_geom_bond_atom_site_label_1
_geom_bond_atom_site_label_2
_geom_bond_distance
_geom_bond_site_symmetry_2
Mg0 Mg6 2.802652 1_555
Mg0 Mg4 3.048119 1_555
Mg0 Mg1 3.111056 1_545
Mg0 Mg1 3.111065 1_445
Mg1 Mg7 2.802652 1_555
Mg1 Mg5 3.048119 1_555
Ir0 Ir4 2.567468 1_645
Ir0 Ir3 2.567471 1_545
Ir0 Ir8 2.657631 1_555
Ir0 Ir14 2.698941 1_655
Ir0 Ir11 2.698943 1_555
Ir0 Mg6 2.794641 1_555
Ir0 Mg6 2.794645 1_655
Ir0 Mg1 2.815661 1_545
Ir0 Mg9 2.897798 1_545
Ir0 Mg8 2.963471 1_656
Ir0 Mg0 3.133135 1_655
Ir0 Mg0 3.133135 1_555
Ir1 Ir5 2.567468 1_465
Ir1 Ir2 2.567471 1_565
Ir1 Ir7 2.657631 1_555
Ir1 Ir13 2.698941 1_455
Ir1 Ir12 2.698943 1_555
Ir1 Mg7 2.794641 1_555
Ir1 Mg7 2.794645 1_455
Ir1 Mg0 2.815661 1_565
Ir1 Mg8 2.897798 1_565
Ir1 Mg9 2.963471 1_454
Ir1 Mg1 3.133135 1_455
Ir1 Mg1 3.133135 1_555
Ir2 Ir8 2.505026 1_555
Ir2 Ir9 2.533529 1_555
Ir2 Ir5 2.588405 1_555
Ir2 Ir5 2.595938 1_455
Ir2 Mg7 2.754886 1_545
Ir2 Mg0 2.861222 1_555
Ir2 Mg2 2.919178 1_555
Ir2 Mg8 3.032335 1_555
Ir2 Mg4 3.040520 1_555
Ir2 Mg5 3.078631 1_555
Ir2 Mg1 3.218822 1_545
Ir3 Ir7 2.505026 1_555
Ir3 Ir4 2.588405 1_555
Ir3 Ir4 2.595938 1_655
Ir3 Mg6 2.754886 1_565
Ir3 Mg1 2.861222 1_555
Ir3 Mg3 2.919178 1_555
Ir3 Mg9 3.032335 1_555
Ir3 Mg5 3.040520 1_555
Ir3 Mg4 3.078631 1_555
Ir3 Mg0 3.218822 1_565
Ir4 Ir7 2.505028 1_555
Ir4 Mg6 2.754891 1_565
Ir4 Mg1 2.861224 1_455
Ir4 Mg3 2.919180 1_555
Ir4 Mg9 3.032332 1_455
Ir4 Mg5 3.040518 1_455
Ir4 Mg4 3.078629 1_555
Ir4 Mg0 3.218824 1_565
Ir5 Ir8 2.505028 1_555
Ir5 Ir9 2.533534 1_655
Ir5 Mg7 2.754891 1_545
Ir5 Mg0 2.861224 1_655
Ir5 Mg2 2.919180 1_555
Ir5 Mg8 3.032332 1_655
Ir5 Mg4 3.040518 1_655
Ir5 Mg5 3.078629 1_555
Ir5 Mg1 3.218824 1_545
Ir6 Ir9 2.576587 1_555
Ir6 Mg9 2.783593 1_454
Ir6 Mg8 2.783593 1_555
Ir6 Mg3 2.996906 1_454
Ir6 Mg2 2.996906 1_555
Ir6 Mg3 2.996910 1_554
Ir6 Mg2 2.996910 1_455
Ir7 Ir9 2.616251 1_555
Ir7 Mg1 2.985198 1_555
Ir7 Mg1 2.985207 1_455
Ir7 Mg0 3.028341 1_565
Ir7 Mg5 3.029450 1_555
Ir7 Mg5 3.029450 1_455
Ir7 Mg4 3.035262 1_555
Ir8 Mg0 2.985198 1_555
Ir8 Mg0 2.985207 1_655
Ir8 Mg1 3.028341 1_545
Ir8 Mg4 3.029450 1_555
Ir8 Mg4 3.029450 1_655
Ir8 Mg5 3.035262 1_555
Ir9 Mg4 2.915730 1_555
Ir9 Mg5 2.984116 1_555
Ir9 Mg5 2.984121 1_455
Ir9 Mg2 3.036863 1_555
Ir9 Mg2 3.036876 1_455
Ir9 Mg8 3.047928 1_555
Ir10 Ir3 2.533529 1_555
Ir10 Ir4 2.533534 1_655
Ir10 Ir6 2.576587 1_656
Ir10 Ir8 2.616251 1_555
Ir10 Ir11 2.670512 1_555
Ir10 Ir14 2.670518 1_655
Ir10 Mg5 2.915730 1_555
Ir10 Mg4 2.984116 1_555
Ir10 Mg4 2.984121 1_655
Ir10 Mg3 3.036863 1_555
Ir10 Mg3 3.036876 1_655
Ir10 Mg9 3.047928 1_555
Ir11 Ir14 2.421817 1_555
Ir11 Ir6 2.660981 1_656
Ir11 Ir8 2.689731 1_555
Ir11 Mg8 2.751258 1_656
Ir11 Ir14 2.762526 1_655
Ir11 Mg6 2.811757 1_555
Ir11 Mg4 2.929678 1_555
Ir11 Mg2 2.980207 1_556
Ir11 Mg3 2.986809 1_555
Ir11 Mg0 3.069077 1_555
Ir12 Ir13 2.421817 1_555
Ir12 Ir6 2.660981 1_555
Ir12 Ir9 2.670512 1_555
Ir12 Ir7 2.689731 1_555
Ir12 Mg9 2.751258 1_454
Ir12 Ir13 2.762526 1_455
Ir12 Mg7 2.811757 1_555
Ir12 Mg5 2.929678 1_555
Ir12 Mg3 2.980207 1_554
Ir12 Mg2 2.986809 1_555
Ir12 Mg1 3.069077 1_555
Ir13 Ir6 2.660981 1_655
Ir13 Ir9 2.670518 1_655
Ir13 Ir7 2.689734 1_655
Ir13 Mg9 2.751260 1_554
Ir13 Mg7 2.811762 1_555
Ir13 Mg5 2.929676 1_555
Ir13 Mg3 2.980205 1_554
Ir13 Mg2 2.986811 1_555
Ir13 Mg1 3.069079 1_555
Ir14 Ir6 2.660981 1_556
Ir14 Ir8 2.689734 1_455
Ir14 Mg8 2.751260 1_556
Ir14 Mg6 2.811762 1_555
Ir14 Mg4 2.929676 1_555
Ir14 Mg2 2.980205 1_556
Ir14 Mg3 2.986811 1_555
Ir14 Mg0 3.069079 1_555
