# generated using pymatgen
data_Co4GeP4(H6O11)2
_symmetry_space_group_name_H-M   'P 1'
_cell_length_a   6.53432172
_cell_length_b   7.62538385
_cell_length_c   16.56105800
_cell_angle_alpha   90.00000000
_cell_angle_beta   90.00000000
_cell_angle_gamma   97.61993819
_symmetry_Int_Tables_number   1
_chemical_formula_structural   Co4GeP4(H6O11)2
_chemical_formula_sum   'Co8 Ge2 P8 H24 O44'
_cell_volume   817.89624145
_cell_formula_units_Z   2
loop_
 _symmetry_equiv_pos_site_id
 _symmetry_equiv_pos_as_xyz
  1  'x, y, z'
loop_
 _atom_site_type_symbol
 _atom_site_label
 _atom_site_symmetry_multiplicity
 _atom_site_fract_x
 _atom_site_fract_y
 _atom_site_fract_z
 _atom_site_occupancy
  Co  Co0  1  0.80650400  0.23658400  0.35459700  1
  Co  Co1  1  0.30650400  0.73658400  0.14540300  1
  Co  Co2  1  0.19349600  0.76341600  0.64540300  1
  Co  Co3  1  0.69349600  0.26341600  0.85459700  1
  Co  Co4  1  0.56809800  0.47282400  0.23196100  1
  Co  Co5  1  0.06809800  0.97282400  0.26803900  1
  Co  Co6  1  0.43190200  0.52717600  0.76803900  1
  Co  Co7  1  0.93190200  0.02717600  0.73196100  1
  Ge  Ge0  1  0.50000000  0.00000000  0.50000000  1
  Ge  Ge1  1  0.00000000  0.50000000  0.00000000  1
  P  P0  1  0.32263700  0.28026400  0.38925400  1
  P  P1  1  0.82263700  0.78026400  0.11074600  1
  P  P2  1  0.67736300  0.71973600  0.61074600  1
  P  P3  1  0.17736300  0.21973600  0.88925400  1
  P  P4  1  0.54147900  0.86875400  0.31147400  1
  P  P5  1  0.04147900  0.36875400  0.18852600  1
  P  P6  1  0.45852100  0.13124600  0.68852600  1
  P  P7  1  0.95852100  0.63124600  0.81147400  1
  H  H0  1  0.59622300  0.33022700  0.09404400  1
  H  H1  1  0.09622300  0.83022700  0.40595600  1
  H  H2  1  0.40377700  0.66977300  0.90595600  1
  H  H3  1  0.90377700  0.16977300  0.59404400  1
  H  H4  1  0.57180100  0.16407400  0.15151100  1
  H  H5  1  0.07180100  0.66407400  0.34848900  1
  H  H6  1  0.42819900  0.83592600  0.84848900  1
  H  H7  1  0.92819900  0.33592600  0.65151100  1
  H  H8  1  0.77720000  0.49277900  0.48613000  1
  H  H9  1  0.27720000  0.99277900  0.01387000  1
  H  H10  1  0.22280000  0.50722100  0.51387000  1
  H  H11  1  0.72280000  0.00722100  0.98613000  1
  H  H12  1  0.75503100  0.56970700  0.39930200  1
  H  H13  1  0.25503100  0.06970700  0.10069800  1
  H  H14  1  0.24496900  0.43029300  0.60069800  1
  H  H15  1  0.74496900  0.93029300  0.89930200  1
  H  H16  1  0.76010600  0.23303900  0.49824100  1
  H  H17  1  0.26010600  0.73303900  0.00175900  1
  H  H18  1  0.23989400  0.76696100  0.50175900  1
  H  H19  1  0.73989400  0.26696100  0.99824100  1
  H  H20  1  0.40209100  0.56555900  0.37560600  1
  H  H21  1  0.90209100  0.06555900  0.12439400  1
  H  H22  1  0.59790900  0.43444100  0.62439400  1
  H  H23  1  0.09790900  0.93444100  0.87560600  1
  O  O0  1  0.52887400  0.28111200  0.14332500  1
  O  O1  1  0.02887400  0.78111200  0.35667500  1
  O  O2  1  0.47112600  0.71888800  0.85667500  1
  O  O3  1  0.97112600  0.21888800  0.64332500  1
  O  O4  1  0.82087300  0.48121400  0.42942100  1
  O  O5  1  0.32087300  0.98121400  0.07057900  1
  O  O6  1  0.17912700  0.51878600  0.57057900  1
  O  O7  1  0.67912700  0.01878600  0.92942100  1
  O  O8  1  0.11915700  0.18073300  0.35690900  1
  O  O9  1  0.61915700  0.68073300  0.14309100  1
  O  O10  1  0.88084300  0.81926700  0.64309100  1
  O  O11  1  0.38084300  0.31926700  0.85690900  1
  O  O12  1  0.50141800  0.28604700  0.32805900  1
  O  O13  1  0.00141800  0.78604700  0.17194100  1
  O  O14  1  0.49858200  0.71395300  0.67194100  1
  O  O15  1  0.99858200  0.21395300  0.82805900  1
  O  O16  1  0.57238300  0.66918200  0.31821700  1
  O  O17  1  0.07238300  0.16918200  0.18178300  1
  O  O18  1  0.42761700  0.33081800  0.68178300  1
  O  O19  1  0.92761700  0.83081800  0.81821700  1
  O  O20  1  0.74589000  0.99121900  0.29517400  1
  O  O21  1  0.24589000  0.49121900  0.20482600  1
  O  O22  1  0.25411000  0.00878100  0.70482600  1
  O  O23  1  0.75411000  0.50878100  0.79517400  1
  O  O24  1  0.87532900  0.39634200  0.25376900  1
  O  O25  1  0.37532900  0.89634200  0.24623100  1
  O  O26  1  0.12467100  0.60365800  0.74623100  1
  O  O27  1  0.62467100  0.10365800  0.75376900  1
  O  O28  1  0.76196900  0.12005300  0.47087200  1
  O  O29  1  0.26196900  0.62005300  0.02912800  1
  O  O30  1  0.23803100  0.87994700  0.52912800  1
  O  O31  1  0.73803100  0.37994700  0.97087200  1
  O  O32  1  0.29026600  0.48320400  0.40621500  1
  O  O33  1  0.79026600  0.98320400  0.09378500  1
  O  O34  1  0.70973400  0.51679600  0.59378500  1
  O  O35  1  0.20973400  0.01679600  0.90621500  1
  O  O36  1  0.37912400  0.21231100  0.47372000  1
  O  O37  1  0.87912400  0.71231100  0.02628000  1
  O  O38  1  0.62087600  0.78768900  0.52628000  1
  O  O39  1  0.12087600  0.28768900  0.97372000  1
  O  O40  1  0.44370500  0.91412000  0.39387400  1
  O  O41  1  0.94370500  0.41412000  0.10612600  1
  O  O42  1  0.55629500  0.08588000  0.60612600  1
  O  O43  1  0.05629500  0.58588000  0.89387400  1
loop_
_geom_bond_atom_site_label_1
_geom_bond_atom_site_label_2
_geom_bond_distance
_geom_bond_site_symmetry_2
Co0 O24 2.080697 1_555
Co0 O20 2.104629 1_545
Co0 O12 2.123438 1_555
Co0 O28 2.124567 1_555
Co0 O8 2.141807 1_655
Co0 O4 2.231054 1_555
Co1 O25 2.080697 1_555
Co1 O21 2.104629 1_555
Co1 O13 2.123438 1_555
Co1 O29 2.124567 1_555
Co1 O9 2.141807 1_555
Co1 O5 2.231054 1_555
Co2 O26 2.080697 1_555
Co2 O22 2.104629 1_565
Co2 O14 2.123438 1_555
Co2 O30 2.124567 1_555
Co2 O10 2.141807 1_455
Co2 O6 2.231054 1_555
Co3 O27 2.080697 1_555
Co3 O23 2.104629 1_555
Co3 O15 2.123438 1_555
Co3 O31 2.124567 1_555
Co3 O11 2.141807 1_555
Co3 O7 2.231054 1_555
Co4 O0 2.063530 1_555
Co4 O16 2.066924 1_555
Co4 O12 2.141628 1_555
Co4 O9 2.156531 1_555
Co4 O21 2.175476 1_555
Co4 O24 2.193470 1_555
Co5 O1 2.063530 1_555
Co5 O17 2.066924 1_565
Co5 O13 2.141628 1_555
Co5 O8 2.156531 1_565
Co5 O20 2.175476 1_455
Co5 O25 2.193470 1_555
Co6 O2 2.063530 1_555
Co6 O18 2.066924 1_555
Co6 O14 2.141628 1_555
Co6 O11 2.156531 1_555
Co6 O23 2.175476 1_555
Co6 O26 2.193470 1_555
Co7 O3 2.063530 1_555
Co7 O19 2.066924 1_545
Co7 O15 2.141628 1_555
Co7 O10 2.156531 1_545
Co7 O22 2.175476 1_655
Co7 O27 2.193470 1_555
Ge0 O28 1.893511 1_555
Ge0 O30 1.893511 1_545
Ge0 O40 1.894543 1_545
Ge0 O42 1.894543 1_555
Ge0 O36 1.942524 1_555
Ge0 O38 1.942524 1_545
Ge1 O29 1.893511 1_555
Ge1 O31 1.893511 1_454
Ge1 O41 1.894543 1_455
Ge1 O43 1.894543 1_554
Ge1 O39 1.942524 1_554
Ge1 O37 1.942524 1_455
H0 O0 0.977916 1_555
H1 O1 0.977916 1_555
H2 O2 0.977916 1_555
H3 O3 0.977916 1_555
H4 O0 0.979761 1_555
H5 O1 0.979761 1_555
H6 O2 0.979761 1_555
H7 O3 0.979761 1_555
H8 O4 0.988895 1_555
H9 O5 0.988895 1_555
H10 O6 0.988895 1_555
H11 O7 0.988895 1_555
H12 O4 0.982977 1_555
H13 O5 0.982977 1_545
H14 O6 0.982977 1_555
H15 O7 0.982977 1_565
H16 O28 0.975019 1_555
H17 O29 0.975019 1_555
H18 O30 0.975019 1_555
H19 O31 0.975019 1_555
H20 O32 1.031292 1_555
H20 O16 1.591440 1_555
H21 O33 1.031292 1_545
H21 O17 1.591440 1_655
H22 O34 1.031292 1_555
H22 O18 1.591440 1_555
H23 O35 1.031292 1_565
H23 O19 1.591440 1_455
O8 P0 1.537266 1_555
O9 P1 1.537266 1_555
O10 P2 1.537266 1_555
O11 P3 1.537266 1_555
O12 P0 1.542755 1_555
O13 P1 1.542755 1_455
O14 P2 1.542755 1_555
O15 P3 1.542755 1_655
O16 P4 1.565459 1_555
O17 P5 1.565459 1_555
O18 P6 1.565459 1_555
O19 P7 1.565459 1_555
O20 P4 1.548612 1_555
O21 P5 1.548612 1_555
O22 P6 1.548612 1_555
O23 P7 1.548612 1_555
O24 P5 1.565563 1_655
O25 P4 1.565563 1_555
O26 P7 1.565563 1_455
O27 P6 1.565563 1_555
O32 P0 1.614061 1_555
O33 P1 1.614061 1_555
O34 P2 1.614061 1_555
O35 P3 1.614061 1_555
O36 P0 1.553135 1_555
O37 P1 1.553135 1_555
O38 P2 1.553135 1_555
O39 P3 1.553135 1_555
O40 P4 1.564825 1_555
O41 P5 1.564825 1_655
O42 P6 1.564825 1_555
O43 P7 1.564825 1_455
