# generated using pymatgen
data_TePb2O5
_symmetry_space_group_name_H-M   'P 1'
_cell_length_a   5.75560293
_cell_length_b   7.14384130
_cell_length_c   7.29504169
_cell_angle_alpha   63.01515702
_cell_angle_beta   66.76599643
_cell_angle_gamma   66.24436536
_symmetry_Int_Tables_number   1
_chemical_formula_structural   TePb2O5
_chemical_formula_sum   'Te2 Pb4 O10'
_cell_volume   236.26261613
_cell_formula_units_Z   2
loop_
 _symmetry_equiv_pos_site_id
 _symmetry_equiv_pos_as_xyz
  1  'x, y, z'
loop_
 _atom_site_type_symbol
 _atom_site_label
 _atom_site_symmetry_multiplicity
 _atom_site_fract_x
 _atom_site_fract_y
 _atom_site_fract_z
 _atom_site_occupancy
  Te  Te0  1  -0.00000000  0.50000000  0.50000000  1
  Te  Te1  1  -0.00000000  0.00000000  0.00000000  1
  Pb  Pb0  1  0.66791063  0.18271793  0.49913994  1
  Pb  Pb1  1  0.34977050  0.31728207  0.00086006  1
  Pb  Pb2  1  0.33208937  0.81728207  0.50086006  1
  Pb  Pb3  1  0.65022950  0.68271793  -0.00086006  1
  O  O0  1  0.35270188  0.51778019  0.37179559  1
  O  O1  1  0.24227866  0.98221981  0.12820441  1
  O  O2  1  0.64729812  0.48221981  0.62820441  1
  O  O3  1  0.75772134  0.01778019  0.87179559  1
  O  O4  1  0.05601630  0.29872411  0.37067804  1
  O  O5  1  0.72541845  0.20127589  0.12932196  1
  O  O6  1  0.94398370  0.70127589  0.62932196  1
  O  O7  1  0.27458155  0.79872411  0.87067804  1
  O  O8  1  0.12538339  0.25000000  0.75000000  1
  O  O9  1  0.87461661  0.75000000  0.25000000  1
loop_
_geom_bond_atom_site_label_1
_geom_bond_atom_site_label_2
_geom_bond_distance
_geom_bond_site_symmetry_2
O0 Te0 1.900997 1_555
O0 Pb0 2.386821 1_555
O0 Pb3 2.599431 1_555
O0 Pb2 2.648386 1_555
O1 Te1 1.901002 1_565
O1 Pb1 2.386824 1_565
O1 Pb2 2.599433 1_555
O1 Pb3 2.648379 1_555
O2 Te0 1.900997 1_655
O2 Pb2 2.386821 1_555
O2 Pb1 2.599431 1_556
O2 Pb0 2.648386 1_555
O3 Te1 1.901002 1_656
O3 Pb3 2.386824 1_546
O3 Pb0 2.599433 1_555
O3 Pb1 2.648379 1_556
O4 Te0 1.918085 1_555
O4 Pb0 2.385342 1_455
O4 Pb1 2.532137 1_555
O5 Te1 1.918085 1_655
O5 Pb1 2.385331 1_555
O5 Pb0 2.532134 1_555
O6 Te0 1.918085 1_655
O6 Pb2 2.385342 1_655
O6 Pb3 2.532137 1_556
O7 Te1 1.918085 1_566
O7 Pb3 2.385331 1_556
O7 Pb2 2.532134 1_555
O8 Te1 2.020059 1_556
O8 Te0 2.020059 1_555
O9 Te0 2.020059 1_655
O9 Te1 2.020059 1_665
