# generated using pymatgen
data_GdAgSn2
_symmetry_space_group_name_H-M   'P 1'
_cell_length_a   4.64421788
_cell_length_b   4.64421891
_cell_length_c   4.40823494
_cell_angle_alpha   90.00000000
_cell_angle_beta   90.00000000
_cell_angle_gamma   90.00000000
_symmetry_Int_Tables_number   1
_chemical_formula_structural   GdAgSn2
_chemical_formula_sum   'Gd1 Ag1 Sn2'
_cell_volume   95.08018128
_cell_formula_units_Z   1
loop_
 _symmetry_equiv_pos_site_id
 _symmetry_equiv_pos_as_xyz
  1  'x, y, z'
loop_
 _atom_site_type_symbol
 _atom_site_label
 _atom_site_symmetry_multiplicity
 _atom_site_fract_x
 _atom_site_fract_y
 _atom_site_fract_z
 _atom_site_occupancy
  Gd  Gd0  1  -0.00000000  0.00000000  -0.00000000  1
  Ag  Ag0  1  0.50000000  0.50000000  -0.00000000  1
  Sn  Sn0  1  0.00000000  0.50000000  0.50000000  1
  Sn  Sn1  1  0.50000000  0.00000000  0.50000000  1
loop_
_geom_bond_atom_site_label_1
_geom_bond_atom_site_label_2
_geom_bond_distance
_geom_bond_site_symmetry_2
Gd0 Sn1 3.201613 1_554
Gd0 Sn1 3.201613 1_455
Gd0 Sn1 3.201613 1_454
Gd0 Sn1 3.201613 1_555
Gd0 Sn0 3.201613 1_545
Gd0 Sn0 3.201613 1_554
Gd0 Sn0 3.201613 1_544
Gd0 Sn0 3.201613 1_555
Ag0 Sn0 3.201613 1_555
Ag0 Sn0 3.201613 1_655
Ag0 Sn0 3.201613 1_654
Ag0 Sn0 3.201613 1_554
Ag0 Sn1 3.201613 1_555
Ag0 Sn1 3.201613 1_564
Ag0 Sn1 3.201613 1_554
Ag0 Sn1 3.201613 1_565
Ag0 Gd0 3.283958 1_665
Ag0 Gd0 3.283958 1_655
Ag0 Gd0 3.283958 1_555
Ag0 Gd0 3.283958 1_565
Sn0 Sn1 3.283958 1_565
Sn0 Sn1 3.283958 1_465
Sn0 Sn1 3.283958 1_555
Sn0 Sn1 3.283958 1_455
