# generated using pymatgen
data_NiSn3(ClO)6
_symmetry_space_group_name_H-M   'P 1'
_cell_length_a   9.08516664
_cell_length_b   6.87862579
_cell_length_c   11.83803330
_cell_angle_alpha   76.74006058
_cell_angle_beta   108.71998834
_cell_angle_gamma   120.56467482
_symmetry_Int_Tables_number   1
_chemical_formula_structural   NiSn3(ClO)6
_chemical_formula_sum   'Ni1 Sn3 Cl6 O6'
_cell_volume   601.32088693
_cell_formula_units_Z   1
loop_
 _symmetry_equiv_pos_site_id
 _symmetry_equiv_pos_as_xyz
  1  'x, y, z'
loop_
 _atom_site_type_symbol
 _atom_site_label
 _atom_site_symmetry_multiplicity
 _atom_site_fract_x
 _atom_site_fract_y
 _atom_site_fract_z
 _atom_site_occupancy
  Ni  Ni0  1  0.00000000  0.00000000  0.00000000  1
  Sn  Sn0  1  0.00000000  0.00000000  0.50000000  1
  Sn  Sn1  1  0.50000000  0.50000000  0.00000000  1
  Sn  Sn2  1  0.00000000  0.50000000  0.00000000  1
  Cl  Cl0  1  0.75520300  0.99093000  0.56021400  1
  Cl  Cl1  1  0.24479700  0.00907000  0.43978600  1
  Cl  Cl2  1  0.47600100  0.67775400  0.78811700  1
  Cl  Cl3  1  0.52399900  0.32224600  0.21188300  1
  Cl  Cl4  1  0.82765900  0.26349000  0.79795300  1
  Cl  Cl5  1  0.17234100  0.73651000  0.20204700  1
  O  O0  1  0.02191100  0.27693900  0.88297900  1
  O  O1  1  0.97808900  0.72306100  0.11702100  1
  O  O2  1  0.04638400  0.86176500  0.88357200  1
  O  O3  1  0.95361600  0.13823500  0.11642800  1
  O  O4  1  0.80983100  0.97634800  0.04443800  1
  O  O5  1  0.19016900  0.02365200  0.95556200  1
loop_
_geom_bond_atom_site_label_1
_geom_bond_atom_site_label_2
_geom_bond_distance
_geom_bond_site_symmetry_2
Ni0 O4 1.883209 1_445
Ni0 O5 1.883209 1_554
Ni0 O0 2.041644 1_554
Ni0 O1 2.041644 1_445
Ni0 O3 2.088762 1_455
Ni0 O2 2.088762 1_544
Cl0 Sn0 2.512836 1_665
Cl1 Sn0 2.512836 1_555
Cl2 Sn1 2.519363 1_556
Cl3 Sn1 2.519363 1_555
Cl4 O0 1.694903 1_655
Cl4 Sn2 2.758568 1_656
Cl5 O1 1.694903 1_455
Cl5 Sn2 2.758568 1_555
O0 Sn2 2.403254 1_556
O1 Sn2 2.403254 1_655
O2 O5 1.383503 1_565
O2 Sn2 2.450011 1_556
O3 O4 1.383503 1_545
O3 Sn2 2.450011 1_655
