# generated using pymatgen
data_Eu5P3O13
_symmetry_space_group_name_H-M   'P 1'
_cell_length_a   7.28909605
_cell_length_b   9.74744930
_cell_length_c   9.74744930
_cell_angle_alpha   120.00000073
_cell_angle_beta   90.00000000
_cell_angle_gamma   90.00000000
_symmetry_Int_Tables_number   1
_chemical_formula_structural   Eu5P3O13
_chemical_formula_sum   'Eu10 P6 O26'
_cell_volume   599.77211617
_cell_formula_units_Z   2
loop_
 _symmetry_equiv_pos_site_id
 _symmetry_equiv_pos_as_xyz
  1  'x, y, z'
loop_
 _atom_site_type_symbol
 _atom_site_label
 _atom_site_symmetry_multiplicity
 _atom_site_fract_x
 _atom_site_fract_y
 _atom_site_fract_z
 _atom_site_occupancy
  Eu  Eu0  1  0.00059464  0.66666700  0.33333300  1
  Eu  Eu1  1  0.99940536  0.33333300  0.66666700  1
  Eu  Eu2  1  0.50059464  0.33333300  0.66666700  1
  Eu  Eu3  1  0.49940536  0.66666700  0.33333300  1
  Eu  Eu4  1  0.75000000  0.77459282  0.00983873  1
  Eu  Eu5  1  0.25000000  0.22540718  0.99016127  1
  Eu  Eu6  1  0.75000000  0.23524590  0.22540718  1
  Eu  Eu7  1  0.25000000  0.76475410  0.77459282  1
  Eu  Eu8  1  0.75000000  0.99016127  0.76475410  1
  Eu  Eu9  1  0.25000000  0.00983873  0.23524590  1
  P  P0  1  0.75000000  0.59948244  0.63049169  1
  P  P1  1  0.25000000  0.40051756  0.36950831  1
  P  P2  1  0.75000000  0.03100925  0.40051756  1
  P  P3  1  0.25000000  0.96899075  0.59948244  1
  P  P4  1  0.75000000  0.36950831  0.96899075  1
  P  P5  1  0.25000000  0.63049169  0.03100925  1
  O  O0  1  0.75000000  0.84825201  0.32851272  1
  O  O1  1  0.25000000  0.15174799  0.67148728  1
  O  O2  1  0.75000000  0.48026071  0.15174799  1
  O  O3  1  0.25000000  0.51973929  0.84825201  1
  O  O4  1  0.75000000  0.67148728  0.51973929  1
  O  O5  1  0.25000000  0.32851272  0.48026071  1
  O  O6  1  0.75000000  -0.00000000  -0.00000000  1
  O  O7  1  0.25000000  -0.00000000  -0.00000000  1
  O  O8  1  0.75000000  0.41500534  0.53459304  1
  O  O9  1  0.25000000  0.58499466  0.46540696  1
  O  O10  1  0.75000000  0.11958770  0.58499466  1
  O  O11  1  0.25000000  0.88041230  0.41500534  1
  O  O12  1  0.75000000  0.46540696  0.88041230  1
  O  O13  1  0.25000000  0.53459304  0.11958770  1
  O  O14  1  0.92319770  0.65401139  0.73845507  1
  O  O15  1  0.07680230  0.34598861  0.26154493  1
  O  O16  1  0.92319770  0.08444368  0.34598861  1
  O  O17  1  0.42319770  0.34598861  0.26154493  1
  O  O18  1  0.07680230  0.91555632  0.65401139  1
  O  O19  1  0.57680230  0.65401139  0.73845507  1
  O  O20  1  0.92319770  0.26154493  0.91555632  1
  O  O21  1  0.42319770  0.91555632  0.65401139  1
  O  O22  1  0.07680230  0.73845507  0.08444368  1
  O  O23  1  0.57680230  0.08444368  0.34598861  1
  O  O24  1  0.42319770  0.73845507  0.08444368  1
  O  O25  1  0.57680230  0.26154493  0.91555632  1
loop_
_geom_bond_atom_site_label_1
_geom_bond_atom_site_label_2
_geom_bond_distance
_geom_bond_site_symmetry_2
Eu0 O0 2.560222 1_455
Eu0 O2 2.560226 1_455
Eu0 O4 2.560229 1_455
Eu0 O11 2.573108 1_555
Eu0 O13 2.573109 1_555
Eu0 O9 2.573114 1_555
Eu0 O22 2.895080 1_555
Eu0 O18 2.895086 1_555
Eu0 O15 2.895089 1_555
Eu1 O1 2.560222 1_655
Eu1 O3 2.560226 1_655
Eu1 O5 2.560229 1_655
Eu1 O10 2.573108 1_555
Eu1 O12 2.573109 1_555
Eu1 O8 2.573114 1_555
Eu1 O20 2.895080 1_555
Eu1 O16 2.895086 1_555
Eu1 O14 2.895089 1_555
Eu2 O1 2.560222 1_555
Eu2 O3 2.560226 1_555
Eu2 O5 2.560229 1_555
Eu2 O10 2.573108 1_555
Eu2 O12 2.573109 1_555
Eu2 O8 2.573114 1_555
Eu2 O25 2.895080 1_555
Eu2 O23 2.895086 1_555
Eu2 O19 2.895089 1_555
Eu3 O0 2.560222 1_555
Eu3 O2 2.560226 1_555
Eu3 O4 2.560229 1_555
Eu3 O11 2.573108 1_555
Eu3 O13 2.573109 1_555
Eu3 O9 2.573114 1_555
Eu3 O24 2.895080 1_555
Eu3 O21 2.895086 1_555
Eu3 O17 2.895089 1_555
Eu4 O6 2.246632 1_565
Eu4 O22 2.565822 1_655
Eu4 O24 2.565822 1_555
Eu4 O19 2.619864 1_554
Eu4 O14 2.619864 1_554
Eu4 O12 2.621507 1_554
Eu4 O0 2.816752 1_555
Eu5 O7 2.246632 1_556
Eu5 O25 2.565822 1_555
Eu5 O20 2.565822 1_455
Eu5 O17 2.619864 1_556
Eu5 O15 2.619864 1_556
Eu5 O13 2.621507 1_556
Eu5 O1 2.816752 1_555
Eu6 O6 2.246632 1_555
Eu6 O15 2.565822 1_655
Eu6 O17 2.565822 1_555
Eu6 O16 2.619864 1_555
Eu6 O23 2.619864 1_555
Eu6 O8 2.621507 1_555
Eu6 O2 2.816752 1_555
Eu7 O7 2.246632 1_566
Eu7 O19 2.565822 1_555
Eu7 O14 2.565822 1_455
Eu7 O21 2.619864 1_555
Eu7 O18 2.619864 1_555
Eu7 O9 2.621507 1_555
Eu7 O3 2.816752 1_555
Eu8 O6 2.246632 1_566
Eu8 O18 2.565822 1_655
Eu8 O21 2.565822 1_555
Eu8 O25 2.619864 1_565
Eu8 O20 2.619864 1_565
Eu8 O10 2.621507 1_565
Eu8 O4 2.816752 1_555
Eu9 O7 2.246632 1_555
Eu9 O23 2.565822 1_555
Eu9 O16 2.565822 1_455
Eu9 O24 2.619864 1_545
Eu9 O22 2.619864 1_545
Eu9 O11 2.621507 1_545
Eu9 O5 2.816752 1_555
O0 P2 1.554267 1_565
O1 P3 1.554267 1_545
O2 P4 1.554267 1_554
O3 P5 1.554267 1_556
O4 P0 1.554267 1_555
O5 P1 1.554267 1_555
O8 P0 1.557679 1_555
O9 P1 1.557679 1_555
O10 P2 1.557679 1_555
O11 P3 1.557679 1_555
O12 P4 1.557679 1_555
O13 P5 1.557679 1_555
O14 P0 1.557058 1_555
O15 P1 1.557058 1_555
O16 P2 1.557058 1_555
O17 P1 1.557058 1_555
O18 P3 1.557058 1_555
O19 P0 1.557058 1_555
O20 P4 1.557058 1_555
O21 P3 1.557058 1_555
O22 P5 1.557058 1_555
O23 P2 1.557058 1_555
O24 P5 1.557058 1_555
O25 P4 1.557058 1_555
