# generated using pymatgen
data_YbCeCd2
_symmetry_space_group_name_H-M   'P 1'
_cell_length_a   5.31796548
_cell_length_b   5.31796548
_cell_length_c   5.31796548
_cell_angle_alpha   60.00000000
_cell_angle_beta   60.00000000
_cell_angle_gamma   60.00000000
_symmetry_Int_Tables_number   1
_chemical_formula_structural   YbCeCd2
_chemical_formula_sum   'Yb1 Ce1 Cd2'
_cell_volume   106.34609387
_cell_formula_units_Z   1
loop_
 _symmetry_equiv_pos_site_id
 _symmetry_equiv_pos_as_xyz
  1  'x, y, z'
loop_
 _atom_site_type_symbol
 _atom_site_label
 _atom_site_symmetry_multiplicity
 _atom_site_fract_x
 _atom_site_fract_y
 _atom_site_fract_z
 _atom_site_occupancy
  Yb  Yb0  1  0.00000000  0.00000000  0.00000000  1
  Ce  Ce0  1  0.50000000  0.50000000  0.50000000  1
  Cd  Cd0  1  0.75000000  0.75000000  0.75000000  1
  Cd  Cd1  1  0.25000000  0.25000000  0.25000000  1
loop_
_geom_bond_atom_site_label_1
_geom_bond_atom_site_label_2
_geom_bond_distance
_geom_bond_site_symmetry_2
Cd0 Ce0 3.256575 1_555
Cd0 Ce0 3.256575 1_655
Cd0 Ce0 3.256575 1_556
Cd0 Ce0 3.256575 1_565
Cd0 Yb0 3.256575 1_566
Cd0 Yb0 3.256575 1_666
Cd0 Yb0 3.256575 1_656
Cd0 Yb0 3.256575 1_665
Cd1 Ce0 3.256575 1_455
Cd1 Yb0 3.256575 1_555
Cd1 Ce0 3.256575 1_555
Cd1 Ce0 3.256575 1_545
Cd1 Yb0 3.256575 1_556
Cd1 Ce0 3.256575 1_554
Cd1 Yb0 3.256575 1_655
Cd1 Yb0 3.256575 1_565
