# generated using pymatgen
data_MgAg4(RuO3)4
_symmetry_space_group_name_H-M   'P 1'
_cell_length_a   7.23679891
_cell_length_b   7.23243524
_cell_length_c   7.23679891
_cell_angle_alpha   60.01994454
_cell_angle_beta   90.00749220
_cell_angle_gamma   119.98005546
_symmetry_Int_Tables_number   1
_chemical_formula_structural   MgAg4(RuO3)4
_chemical_formula_sum   'Mg1 Ag4 Ru4 O12'
_cell_volume   268.01093785
_cell_formula_units_Z   1
loop_
 _symmetry_equiv_pos_site_id
 _symmetry_equiv_pos_as_xyz
  1  'x, y, z'
loop_
 _atom_site_type_symbol
 _atom_site_label
 _atom_site_symmetry_multiplicity
 _atom_site_fract_x
 _atom_site_fract_y
 _atom_site_fract_z
 _atom_site_occupancy
  Mg  Mg0  1  0.12911800  0.25000000  0.12911800  1
  Ag  Ag0  1  0.58017900  0.55329600  0.97358600  1
  Ag  Ag1  1  0.97457600  0.94878500  0.97457600  1
  Ag  Ag2  1  0.97457600  0.55121500  0.97457600  1
  Ag  Ag3  1  0.97358600  0.94670400  0.58017900  1
  Ru  Ru0  1  0.50031600  0.00059700  0.99912200  1
  Ru  Ru1  1  0.50019400  0.00031900  0.50019400  1
  Ru  Ru2  1  0.50019400  0.49968100  0.50019400  1
  Ru  Ru3  1  0.99912200  0.49940300  0.50031600  1
  O  O0  1  0.82335900  0.24992900  0.42664600  1
  O  O1  1  0.57086400  0.14241800  0.17870000  1
  O  O2  1  0.57086400  0.74974600  0.17870000  1
  O  O3  1  0.82301300  0.25000000  0.82301300  1
  O  O4  1  0.82335900  0.64678400  0.42664600  1
  O  O5  1  0.42605400  0.25000000  0.42605400  1
  O  O6  1  0.57095400  0.75000000  0.57095400  1
  O  O7  1  0.17861200  0.75000000  0.17861200  1
  O  O8  1  0.17870000  0.35758200  0.57086400  1
  O  O9  1  0.42664600  0.25007100  0.82335900  1
  O  O10  1  0.42664600  0.85321600  0.82335900  1
  O  O11  1  0.17870000  0.75025400  0.57086400  1
loop_
_geom_bond_atom_site_label_1
_geom_bond_atom_site_label_2
_geom_bond_distance
_geom_bond_site_symmetry_2
Ag0 O1 2.535755 1_556
Ag0 O2 2.535761 1_556
Ag0 O6 2.543722 1_555
Ag0 Mg0 2.666706 1_556
Ag0 O5 2.674897 1_556
Ag0 O9 2.678279 1_555
Ag0 O10 2.678284 1_555
Ag1 O7 2.535136 1_656
Ag1 O2 2.542199 1_556
Ag1 O8 2.542199 1_665
Ag1 O9 2.672455 1_665
Ag1 O4 2.672455 1_556
Ag1 O3 2.674267 1_565
Ag1 Mg0 2.692063 1_666
Ag2 O7 2.535136 1_656
Ag2 O1 2.542199 1_556
Ag2 O11 2.542199 1_655
Ag2 O10 2.672455 1_655
Ag2 O0 2.672455 1_556
Ag2 O3 2.674267 1_555
Ag2 Mg0 2.692063 1_656
Ag3 O8 2.535755 1_665
Ag3 O11 2.535761 1_655
Ag3 O6 2.543722 1_555
Ag3 Mg0 2.666706 1_665
Ag3 O5 2.674897 1_665
Ag3 O0 2.678279 1_565
Ag3 O4 2.678284 1_555
O0 Ru3 1.955810 1_555
O0 Ru1 1.957645 1_555
O1 Ru0 1.951992 1_554
O1 Ru1 1.953499 1_555
O2 Ru0 1.951992 1_564
O2 Ru2 1.953499 1_555
O3 Ru0 1.955754 1_555
O3 Ru3 1.955754 1_555
O4 Ru3 1.955810 1_555
O4 Ru2 1.957645 1_555
O5 Ru1 1.958721 1_555
O5 Ru2 1.958721 1_555
O6 Ru1 1.949867 1_565
O6 Ru2 1.949867 1_555
O7 Ru0 1.955303 1_564
O7 Ru3 1.955303 1_455
O8 Ru3 1.951992 1_455
O8 Ru2 1.953499 1_555
O9 Ru0 1.955810 1_555
O9 Ru2 1.957645 1_555
O10 Ru0 1.955810 1_565
O10 Ru1 1.957645 1_565
O11 Ru3 1.951992 1_455
O11 Ru1 1.953499 1_565
