# generated using pymatgen
data_Sc2VO5
_symmetry_space_group_name_H-M   'P 1'
_cell_length_a   9.13703537
_cell_length_b   9.13754782
_cell_length_c   9.13754561
_cell_angle_alpha   129.52026289
_cell_angle_beta   129.51991179
_cell_angle_gamma   74.17518647
_symmetry_Int_Tables_number   1
_chemical_formula_structural   Sc2VO5
_chemical_formula_sum   'Sc10 V5 O25'
_cell_volume   442.61605409
_cell_formula_units_Z   5
loop_
 _symmetry_equiv_pos_site_id
 _symmetry_equiv_pos_as_xyz
  1  'x, y, z'
loop_
 _atom_site_type_symbol
 _atom_site_label
 _atom_site_symmetry_multiplicity
 _atom_site_fract_x
 _atom_site_fract_y
 _atom_site_fract_z
 _atom_site_occupancy
  Sc  Sc0  1  0.05989091  0.55973435  0.50005190  1
  Sc  Sc1  1  0.44020382  0.94019561  0.49997526  1
  Sc  Sc2  1  0.94446054  0.69083635  0.15417227  1
  Sc  Sc3  1  0.53662662  0.79021281  0.84575398  1
  Sc  Sc4  1  0.20979352  0.05558915  0.74645178  1
  Sc  Sc5  1  0.30914668  0.46336810  0.25362566  1
  Sc  Sc6  1  0.89792550  0.20711670  0.95192579  1
  Sc  Sc7  1  0.25519934  0.94600813  0.04807815  1
  Sc  Sc8  1  0.05399826  0.10207274  0.30919334  1
  Sc  Sc9  1  0.79289618  0.74480346  0.69080618  1
  V  V0  1  0.62201200  0.31445426  0.10375625  1
  V  V1  1  0.21070643  0.51819976  0.89619273  1
  V  V2  1  0.48179079  0.37797324  0.69249189  1
  V  V3  1  0.68555114  0.78926581  0.30753342  1
  V  V4  1  0.74997407  0.24999324  0.49997620  1
  O  O0  1  0.75065968  0.59054233  0.34630530  1
  O  O1  1  0.24419023  0.40435205  0.65370126  1
  O  O2  1  0.59565329  0.24931000  0.83984529  1
  O  O3  1  0.40955131  0.75579295  0.16016273  1
  O  O4  1  0.05085675  0.49699860  0.23179327  1
  O  O5  1  0.26512971  0.81910822  0.76815111  1
  O  O6  1  0.18090258  0.94909420  0.44608861  1
  O  O7  1  0.50301912  0.73484303  0.55391413  1
  O  O8  1  0.88696895  0.27967760  0.22463104  1
  O  O9  1  0.05508522  0.66235208  0.77540373  1
  O  O10  1  0.33765748  0.11301958  0.39269624  1
  O  O11  1  0.72033837  0.94493606  0.60727349  1
  O  O12  1  0.36461006  0.36460915  -0.00000092  1
  O  O13  1  0.63539434  0.63538665  0.00000851  1
  O  O14  1  0.82562558  0.82561291  -0.00000639  1
  O  O15  1  0.17437157  0.17438386  -0.00000047  1
  O  O16  1  -0.00000249  0.00000096  0.00000062  1
  O  O17  1  0.51595609  0.06642978  0.92951938  1
  O  O18  1  0.13693012  0.58645280  0.07048705  1
  O  O19  1  0.41350090  0.48408414  0.55047871  1
  O  O20  1  0.93346718  0.86314951  0.44950518  1
  O  O21  1  0.65549893  0.39481576  0.41101550  1
  O  O22  1  0.98379517  0.24449133  0.58899506  1
  O  O23  1  0.75548903  0.34452220  0.73933972  1
  O  O24  1  0.60517505  0.01621156  0.26070705  1
loop_
_geom_bond_atom_site_label_1
_geom_bond_atom_site_label_2
_geom_bond_distance
_geom_bond_site_symmetry_2
O0 V3 1.933409 1_555
O0 V0 1.960571 1_555
O0 Sc0 2.248070 1_655
O0 Sc9 2.269015 1_555
O1 V2 1.934121 1_555
O1 V1 1.959849 1_555
O1 Sc0 2.246504 1_555
O1 Sc8 2.268971 1_555
O2 V0 1.933848 1_556
O2 V2 1.960168 1_555
O2 Sc1 2.247287 1_545
O2 Sc6 2.268778 1_555
O3 V1 1.934300 1_554
O3 V3 1.959853 1_555
O3 Sc1 2.247404 1_555
O3 Sc7 2.269205 1_555
O4 Sc0 2.079392 1_555
O4 Sc6 2.087654 1_454
O4 Sc2 2.089853 1_455
O4 Sc5 2.187954 1_555
O5 Sc0 2.079181 1_555
O5 Sc7 2.087721 1_556
O5 Sc3 2.090126 1_555
O5 Sc4 2.187712 1_565
O6 Sc1 2.079315 1_555
O6 Sc8 2.087732 1_565
O6 Sc4 2.090044 1_565
O6 Sc2 2.187785 1_455
O7 Sc1 2.079164 1_555
O7 Sc9 2.087630 1_555
O7 Sc5 2.090017 1_555
O7 Sc3 2.187920 1_555
O8 V0 1.950850 1_555
O8 Sc8 2.074664 1_655
O8 Sc0 2.080066 1_655
O8 Sc6 2.199441 1_554
O9 V1 1.951018 1_555
O9 Sc9 2.074659 1_455
O9 Sc0 2.080186 1_555
O9 Sc7 2.199286 1_556
O10 V2 1.951091 1_555
O10 Sc7 2.074633 1_545
O10 Sc1 2.080122 1_545
O10 Sc8 2.199330 1_555
O11 V3 1.950943 1_555
O11 Sc6 2.074745 1_565
O11 Sc1 2.080201 1_555
O11 Sc9 2.199450 1_555
O12 V1 1.940908 1_554
O12 V0 1.941026 1_555
O12 Sc4 2.241284 1_554
O12 Sc5 2.241807 1_555
O13 V3 1.940928 1_555
O13 V2 1.941040 1_554
O13 Sc2 2.241639 1_555
O13 Sc3 2.241710 1_554
O14 Sc2 2.052410 1_555
O14 Sc3 2.052537 1_554
O14 Sc8 2.237471 1_665
O14 Sc9 2.237550 1_554
O15 Sc4 2.052473 1_554
O15 Sc5 2.052563 1_555
O15 Sc6 2.237324 1_454
O15 Sc7 2.237510 1_545
O16 Sc9 2.053843 1_444
O16 Sc7 2.053857 1_545
O16 Sc6 2.053892 1_454
O16 Sc8 2.053932 1_555
O17 V0 1.803371 1_556
O17 Sc3 2.111196 1_545
O17 Sc4 2.149017 1_555
O18 V1 1.803533 1_554
O18 Sc2 2.110818 1_455
O18 Sc5 2.149470 1_555
O19 V2 1.803941 1_555
O19 Sc5 2.110925 1_555
O19 Sc3 2.148912 1_555
O20 V3 1.802605 1_555
O20 Sc4 2.111678 1_665
O20 Sc2 2.150052 1_555
O21 V4 1.734965 1_555
O21 V0 2.218289 1_555
O21 Sc9 2.457394 1_555
O21 Sc5 2.597812 1_555
O22 V4 1.735018 1_555
O22 V1 2.217971 1_655
O22 Sc8 2.457464 1_655
O22 Sc4 2.597905 1_655
O23 V4 1.735369 1_555
O23 V2 2.217614 1_555
O23 Sc6 2.457416 1_555
O23 Sc2 2.597605 1_556
O24 V4 1.734867 1_555
O24 V3 2.218448 1_545
O24 Sc7 2.457102 1_545
O24 Sc3 2.598295 1_544
