# generated using pymatgen
data_Cr3N4
_symmetry_space_group_name_H-M   'P 1'
_cell_length_a   13.54091888
_cell_length_b   13.54091888
_cell_length_c   9.40598500
_cell_angle_alpha   90.00000000
_cell_angle_beta   90.00000000
_cell_angle_gamma   120.00000432
_symmetry_Int_Tables_number   1
_chemical_formula_structural   Cr3N4
_chemical_formula_sum   'Cr18 N24'
_cell_volume   1493.58921034
_cell_formula_units_Z   6
loop_
 _symmetry_equiv_pos_site_id
 _symmetry_equiv_pos_as_xyz
  1  'x, y, z'
loop_
 _atom_site_type_symbol
 _atom_site_label
 _atom_site_symmetry_multiplicity
 _atom_site_fract_x
 _atom_site_fract_y
 _atom_site_fract_z
 _atom_site_occupancy
  Cr  Cr0  1  0.97822500  0.20291400  0.25000000  1
  Cr  Cr1  1  0.79708600  0.77531100  0.25000000  1
  Cr  Cr2  1  0.22468900  0.02177500  0.25000000  1
  Cr  Cr3  1  0.02177500  0.79708600  0.75000000  1
  Cr  Cr4  1  0.20291400  0.22468900  0.75000000  1
  Cr  Cr5  1  0.77531100  0.97822500  0.75000000  1
  Cr  Cr6  1  0.98126200  0.18658100  0.91492100  1
  Cr  Cr7  1  0.81341900  0.79468200  0.91492100  1
  Cr  Cr8  1  0.20531800  0.01873800  0.91492100  1
  Cr  Cr9  1  0.01873800  0.81341900  0.41492100  1
  Cr  Cr10  1  0.18658100  0.20531800  0.41492100  1
  Cr  Cr11  1  0.79468200  0.98126200  0.41492100  1
  Cr  Cr12  1  0.98126200  0.18658100  0.58507900  1
  Cr  Cr13  1  0.81341900  0.79468200  0.58507900  1
  Cr  Cr14  1  0.20531800  0.01873800  0.58507900  1
  Cr  Cr15  1  0.01873800  0.81341900  0.08507900  1
  Cr  Cr16  1  0.18658100  0.20531800  0.08507900  1
  Cr  Cr17  1  0.79468200  0.98126200  0.08507900  1
  N  N0  1  0.99987400  0.32773700  0.25000000  1
  N  N1  1  0.67226300  0.67213700  0.25000000  1
  N  N2  1  0.32786300  0.00012600  0.25000000  1
  N  N3  1  0.00012600  0.67226300  0.75000000  1
  N  N4  1  0.32773700  0.32786300  0.75000000  1
  N  N5  1  0.67213700  0.99987400  0.75000000  1
  N  N6  1  0.90216500  0.13219100  0.41905000  1
  N  N7  1  0.86780900  0.76997400  0.41905000  1
  N  N8  1  0.23002600  0.09783500  0.41905000  1
  N  N9  1  0.09783500  0.86780900  0.91905000  1
  N  N10  1  0.13219100  0.23002600  0.91905000  1
  N  N11  1  0.76997400  0.90216500  0.91905000  1
  N  N12  1  0.90216500  0.13219100  0.08095000  1
  N  N13  1  0.86780900  0.76997400  0.08095000  1
  N  N14  1  0.23002600  0.09783500  0.08095000  1
  N  N15  1  0.09783500  0.86780900  0.58095000  1
  N  N16  1  0.13219100  0.23002600  0.58095000  1
  N  N17  1  0.76997400  0.90216500  0.58095000  1
  N  N18  1  0.90612300  0.12724300  0.75000000  1
  N  N19  1  0.87275700  0.77888000  0.75000000  1
  N  N20  1  0.22112000  0.09387700  0.75000000  1
  N  N21  1  0.09387700  0.87275700  0.25000000  1
  N  N22  1  0.12724300  0.22112000  0.25000000  1
  N  N23  1  0.77888000  0.90612300  0.25000000  1
loop_
_geom_bond_atom_site_label_1
_geom_bond_atom_site_label_2
_geom_bond_distance
_geom_bond_site_symmetry_2
Cr0 N0 1.564382 1_555
Cr0 N12 1.876138 1_555
Cr0 N6 1.876138 1_555
Cr0 N22 1.906569 1_655
Cr1 N1 1.564381 1_555
Cr1 N13 1.876138 1_555
Cr1 N7 1.876138 1_555
Cr1 N23 1.906569 1_555
Cr2 N2 1.564382 1_555
Cr2 N14 1.876138 1_555
Cr2 N8 1.876138 1_555
Cr2 N21 1.906569 1_545
Cr3 N3 1.564382 1_555
Cr3 N15 1.876138 1_555
Cr3 N9 1.876138 1_555
Cr3 N19 1.906569 1_455
Cr4 N4 1.564381 1_555
Cr4 N16 1.876138 1_555
Cr4 N10 1.876138 1_555
Cr4 N20 1.906569 1_555
Cr5 N5 1.564382 1_555
Cr5 N17 1.876138 1_555
Cr5 N11 1.876138 1_555
Cr5 N18 1.906569 1_565
Cr6 N18 1.808218 1_555
Cr6 N10 1.822657 1_655
Cr6 N12 1.827442 1_556
Cr7 N19 1.808222 1_555
Cr7 N11 1.822644 1_555
Cr7 N13 1.827447 1_556
Cr8 N20 1.808215 1_555
Cr8 N9 1.822654 1_545
Cr8 N14 1.827441 1_556
Cr9 N21 1.808218 1_555
Cr9 N7 1.822657 1_455
Cr9 N15 1.827442 1_555
Cr10 N22 1.808222 1_555
Cr10 N8 1.822644 1_555
Cr10 N16 1.827447 1_555
Cr11 N23 1.808215 1_555
Cr11 N6 1.822654 1_565
Cr11 N17 1.827441 1_555
Cr12 N18 1.808218 1_555
Cr12 N16 1.822657 1_655
Cr12 N6 1.827442 1_555
Cr13 N19 1.808222 1_555
Cr13 N17 1.822644 1_555
Cr13 N7 1.827447 1_555
Cr14 N20 1.808215 1_555
Cr14 N15 1.822654 1_545
Cr14 N8 1.827441 1_555
Cr15 N21 1.808218 1_555
Cr15 N13 1.822657 1_455
Cr15 N9 1.827442 1_554
Cr16 N22 1.808222 1_555
Cr16 N14 1.822644 1_555
Cr16 N10 1.827447 1_554
Cr17 N23 1.808215 1_555
Cr17 N12 1.822654 1_565
Cr17 N11 1.827441 1_554
