# generated using pymatgen
data_Mn2Ga2S5
_symmetry_space_group_name_H-M   'P 1'
_cell_length_a   3.72795498
_cell_length_b   3.72795498
_cell_length_c   15.33345600
_cell_angle_alpha   90.00000000
_cell_angle_beta   90.00000000
_cell_angle_gamma   120.00001740
_symmetry_Int_Tables_number   1
_chemical_formula_structural   Mn2Ga2S5
_chemical_formula_sum   'Mn2 Ga2 S5'
_cell_volume   184.54909719
_cell_formula_units_Z   1
loop_
 _symmetry_equiv_pos_site_id
 _symmetry_equiv_pos_as_xyz
  1  'x, y, z'
loop_
 _atom_site_type_symbol
 _atom_site_label
 _atom_site_symmetry_multiplicity
 _atom_site_fract_x
 _atom_site_fract_y
 _atom_site_fract_z
 _atom_site_occupancy
  Mn  Mn0  1  0.66666700  0.33333300  0.59810100  1
  Mn  Mn1  1  0.33333300  0.66666700  0.40189900  1
  Ga  Ga0  1  0.66666700  0.33333300  0.17139600  1
  Ga  Ga1  1  0.33333300  0.66666700  0.82860400  1
  S  S0  1  0.00000000  0.00000000  0.50000000  1
  S  S1  1  0.66666700  0.33333300  0.31689000  1
  S  S2  1  0.33333300  0.66666700  0.68311000  1
  S  S3  1  0.66666700  0.33333300  0.89410800  1
  S  S4  1  0.33333300  0.66666700  0.10589200  1
loop_
_geom_bond_atom_site_label_1
_geom_bond_atom_site_label_2
_geom_bond_distance
_geom_bond_site_symmetry_2
Mn0 S2 2.516268 1_545
Mn0 S2 2.516268 1_655
Mn0 S2 2.516274 1_555
Mn0 S0 2.625879 1_655
Mn0 S0 2.625881 1_665
Mn0 S0 2.625881 1_555
Mn1 S1 2.516268 1_455
Mn1 S1 2.516268 1_565
Mn1 S1 2.516274 1_555
Mn1 S0 2.625879 1_565
Mn1 S0 2.625881 1_665
Mn1 S0 2.625881 1_555
Ga0 S1 2.230926 1_555
Ga0 S4 2.375155 1_545
Ga0 S4 2.375155 1_655
Ga0 S4 2.375162 1_555
Ga1 S2 2.230926 1_555
Ga1 S3 2.375155 1_455
Ga1 S3 2.375155 1_565
Ga1 S3 2.375162 1_555
