# generated using pymatgen
data_MnCO3
_symmetry_space_group_name_H-M   'P 1'
_cell_length_a   4.86317207
_cell_length_b   6.19728265
_cell_length_c   7.70673788
_cell_angle_alpha   73.72312781
_cell_angle_beta   89.75279227
_cell_angle_gamma   89.68064922
_symmetry_Int_Tables_number   1
_chemical_formula_structural   MnCO3
_chemical_formula_sum   'Mn4 C4 O12'
_cell_volume   222.95507446
_cell_formula_units_Z   4
loop_
 _symmetry_equiv_pos_site_id
 _symmetry_equiv_pos_as_xyz
  1  'x, y, z'
loop_
 _atom_site_type_symbol
 _atom_site_label
 _atom_site_symmetry_multiplicity
 _atom_site_fract_x
 _atom_site_fract_y
 _atom_site_fract_z
 _atom_site_occupancy
  Mn  Mn0  1  0.31523600  0.24994100  0.50308900  1
  Mn  Mn1  1  0.68477100  0.75014100  0.49681700  1
  Mn  Mn2  1  0.31516300  0.24976500  0.00302000  1
  Mn  Mn3  1  0.68487400  0.75022600  0.99704300  1
  C  C0  1  0.81324800  0.24978800  0.25021600  1
  C  C1  1  0.81327800  0.24978400  0.75019800  1
  C  C2  1  0.18671400  0.75019600  0.24980100  1
  C  C3  1  0.18674900  0.75020900  0.74979300  1
  O  O0  1  0.08049100  0.24926300  0.25260600  1
  O  O1  1  0.08051300  0.24927100  0.75260300  1
  O  O2  1  0.91947600  0.75075100  0.24742500  1
  O  O3  1  0.91950200  0.75071800  0.74744600  1
  O  O4  1  0.67531600  0.11627200  0.38062800  1
  O  O5  1  0.67536500  0.11629100  0.88063300  1
  O  O6  1  0.32461100  0.88369500  0.11936900  1
  O  O7  1  0.32462900  0.88374100  0.61935700  1
  O  O8  1  0.31940900  0.61636200  0.38291600  1
  O  O9  1  0.31944500  0.61634100  0.88292700  1
  O  O10  1  0.68060500  0.38363800  0.11705800  1
  O  O11  1  0.68060700  0.38360500  0.61705300  1
loop_
_geom_bond_atom_site_label_1
_geom_bond_atom_site_label_2
_geom_bond_distance
_geom_bond_site_symmetry_2
Mn0 O7 2.194232 1_545
Mn0 O8 2.199134 1_555
Mn0 O1 2.231001 1_555
Mn0 O4 2.247490 1_555
Mn0 O11 2.247777 1_555
Mn0 O0 2.247970 1_555
Mn1 O4 2.193771 1_565
Mn1 O11 2.199850 1_555
Mn1 O2 2.230237 1_555
Mn1 O7 2.247834 1_555
Mn1 O8 2.247845 1_555
Mn1 O3 2.248751 1_555
Mn2 O6 2.193569 1_545
Mn2 O9 2.199939 1_554
Mn2 O0 2.231599 1_555
Mn2 O1 2.247016 1_554
Mn2 O5 2.247071 1_554
Mn2 O10 2.248960 1_555
Mn3 O5 2.193602 1_565
Mn3 O10 2.199927 1_556
Mn3 O3 2.231578 1_555
Mn3 O2 2.246711 1_556
Mn3 O6 2.247042 1_556
Mn3 O9 2.249245 1_555
C0 O4 1.295737 1_555
C0 O10 1.296101 1_555
C0 O0 1.299832 1_655
C1 O5 1.295734 1_555
C1 O11 1.296032 1_555
C1 O1 1.299795 1_655
C2 O6 1.295696 1_555
C2 O8 1.295982 1_555
C2 O2 1.299804 1_455
C3 O7 1.295758 1_555
C3 O9 1.296162 1_555
C3 O3 1.299846 1_455
