# generated using pymatgen
data_TmGaPt
_symmetry_space_group_name_H-M   'P 1'
_cell_length_a   4.37284574
_cell_length_b   6.80435700
_cell_length_c   7.57680929
_cell_angle_alpha   90.00000000
_cell_angle_beta   90.00000000
_cell_angle_gamma   90.00000000
_symmetry_Int_Tables_number   1
_chemical_formula_structural   TmGaPt
_chemical_formula_sum   'Tm4 Ga4 Pt4'
_cell_volume   225.44344102
_cell_formula_units_Z   4
loop_
 _symmetry_equiv_pos_site_id
 _symmetry_equiv_pos_as_xyz
  1  'x, y, z'
loop_
 _atom_site_type_symbol
 _atom_site_label
 _atom_site_symmetry_multiplicity
 _atom_site_fract_x
 _atom_site_fract_y
 _atom_site_fract_z
 _atom_site_occupancy
  Tm  Tm0  1  0.75000000  0.51393698  0.19864036  1
  Tm  Tm1  1  0.75000000  0.01393698  0.30135964  1
  Tm  Tm2  1  0.25000000  0.48606302  0.80135964  1
  Tm  Tm3  1  0.25000000  0.98606302  0.69864036  1
  Ga  Ga0  1  0.75000000  0.17305329  0.92458744  1
  Ga  Ga1  1  0.75000000  0.67305329  0.57541256  1
  Ga  Ga2  1  0.25000000  0.82694671  0.07541256  1
  Ga  Ga3  1  0.25000000  0.32694671  0.42458744  1
  Pt  Pt0  1  0.75000000  0.27489532  0.59812022  1
  Pt  Pt1  1  0.75000000  0.77489532  0.90187978  1
  Pt  Pt2  1  0.25000000  0.72510468  0.40187978  1
  Pt  Pt3  1  0.25000000  0.22510468  0.09812022  1
loop_
_geom_bond_atom_site_label_1
_geom_bond_atom_site_label_2
_geom_bond_distance
_geom_bond_site_symmetry_2
Ga0 Pt0 2.568814 1_555
Ga0 Pt3 2.575781 1_656
Ga0 Pt3 2.575781 1_556
Ga0 Pt1 2.714667 1_545
Ga0 Tm1 3.053145 1_556
Ga0 Tm3 3.054524 1_645
Ga0 Tm3 3.054524 1_545
Ga0 Tm0 3.113147 1_556
Ga0 Tm2 3.191922 1_655
Ga0 Tm2 3.191922 1_555
Ga1 Pt1 2.568814 1_555
Ga1 Pt2 2.575781 1_555
Ga1 Pt2 2.575781 1_655
Ga1 Pt0 2.714667 1_555
Ga1 Tm0 3.053145 1_555
Ga1 Tm2 3.054524 1_655
Ga1 Tm2 3.054524 1_555
Ga1 Tm1 3.113147 1_565
Ga1 Tm3 3.191922 1_655
Ga1 Tm3 3.191922 1_555
Ga2 Pt2 2.568814 1_555
Ga2 Pt1 2.575781 1_554
Ga2 Pt1 2.575781 1_454
Ga2 Pt3 2.714667 1_565
Ga2 Tm3 3.053145 1_554
Ga2 Tm1 3.054524 1_565
Ga2 Tm1 3.054524 1_465
Ga2 Tm2 3.113147 1_554
Ga2 Tm0 3.191922 1_555
Ga2 Tm0 3.191922 1_455
Ga3 Pt3 2.568814 1_555
Ga3 Pt0 2.575781 1_455
Ga3 Pt0 2.575781 1_555
Ga3 Pt2 2.714667 1_555
Ga3 Tm2 3.053145 1_555
Ga3 Tm0 3.054524 1_455
Ga3 Tm0 3.054524 1_555
Ga3 Tm3 3.113147 1_545
Ga3 Tm1 3.191922 1_555
Ga3 Tm1 3.191922 1_455
Pt0 Tm1 2.865081 1_555
Pt0 Tm2 3.035840 1_655
Pt0 Tm2 3.035840 1_555
Pt0 Tm3 3.036937 1_545
Pt0 Tm3 3.036937 1_645
Pt1 Tm0 2.865081 1_556
Pt1 Tm3 3.035840 1_555
Pt1 Tm3 3.035840 1_655
Pt1 Tm2 3.036937 1_555
Pt1 Tm2 3.036937 1_655
Pt2 Tm3 2.865081 1_555
Pt2 Tm0 3.035840 1_455
Pt2 Tm0 3.035840 1_555
Pt2 Tm1 3.036937 1_565
Pt2 Tm1 3.036937 1_465
Pt3 Tm2 2.865081 1_554
Pt3 Tm1 3.035840 1_555
Pt3 Tm1 3.035840 1_455
Pt3 Tm0 3.036937 1_455
Pt3 Tm0 3.036937 1_555
