# generated using pymatgen
data_NdGa4Os
_symmetry_space_group_name_H-M   'P 1'
_cell_length_a   7.63344426
_cell_length_b   8.73834276
_cell_length_c   9.68131509
_cell_angle_alpha   90.00000000
_cell_angle_beta   90.00000000
_cell_angle_gamma   90.00000000
_symmetry_Int_Tables_number   1
_chemical_formula_structural   NdGa4Os
_chemical_formula_sum   'Nd6 Ga24 Os6'
_cell_volume   645.77907638
_cell_formula_units_Z   6
loop_
 _symmetry_equiv_pos_site_id
 _symmetry_equiv_pos_as_xyz
  1  'x, y, z'
loop_
 _atom_site_type_symbol
 _atom_site_label
 _atom_site_symmetry_multiplicity
 _atom_site_fract_x
 _atom_site_fract_y
 _atom_site_fract_z
 _atom_site_occupancy
  Nd  Nd0  1  0.32047569  0.50000000  0.75000000  1
  Nd  Nd1  1  0.67952431  0.50000000  0.25000000  1
  Nd  Nd2  1  0.83942054  0.24908852  0.75000000  1
  Nd  Nd3  1  0.16057946  0.75091148  0.25000000  1
  Nd  Nd4  1  0.83942054  0.75091148  0.75000000  1
  Nd  Nd5  1  0.16057946  0.24908852  0.25000000  1
  Ga  Ga0  1  0.17924317  0.23649870  0.57505413  1
  Ga  Ga1  1  0.82075683  0.76350130  0.42494587  1
  Ga  Ga2  1  0.17924317  0.76350130  0.92494587  1
  Ga  Ga3  1  0.82075683  0.23649870  0.42494587  1
  Ga  Ga4  1  0.82075683  0.23649870  0.07505413  1
  Ga  Ga5  1  0.17924317  0.76350130  0.57505413  1
  Ga  Ga6  1  0.82075683  0.76350130  0.07505413  1
  Ga  Ga7  1  0.17924317  0.23649870  0.92494587  1
  Ga  Ga8  1  0.13139011  0.00000000  0.75000000  1
  Ga  Ga9  1  0.86860989  0.00000000  0.25000000  1
  Ga  Ga10  1  0.33908837  0.00000000  0.06155362  1
  Ga  Ga11  1  0.66091163  0.00000000  0.93844638  1
  Ga  Ga12  1  0.33908837  0.00000000  0.43844638  1
  Ga  Ga13  1  0.66091163  0.00000000  0.56155362  1
  Ga  Ga14  1  0.45190457  0.15608117  0.75000000  1
  Ga  Ga15  1  0.54809543  0.84391883  0.25000000  1
  Ga  Ga16  1  0.45190457  0.84391883  0.75000000  1
  Ga  Ga17  1  0.54809543  0.15608117  0.25000000  1
  Ga  Ga18  1  0.65751379  0.50000000  0.58422265  1
  Ga  Ga19  1  0.34248621  0.50000000  0.41577735  1
  Ga  Ga20  1  0.65751379  0.50000000  0.91577735  1
  Ga  Ga21  1  0.34248621  0.50000000  0.08422265  1
  Ga  Ga22  1  -0.00000000  0.50000000  0.50000000  1
  Ga  Ga23  1  -0.00000000  0.50000000  -0.00000000  1
  Os  Os0  1  0.50000000  0.25856063  0.50000000  1
  Os  Os1  1  0.50000000  0.74143937  0.50000000  1
  Os  Os2  1  0.50000000  0.74143937  -0.00000000  1
  Os  Os3  1  0.50000000  0.25856063  -0.00000000  1
  Os  Os4  1  -0.00000000  0.00000000  0.50000000  1
  Os  Os5  1  -0.00000000  0.00000000  -0.00000000  1
loop_
_geom_bond_atom_site_label_1
_geom_bond_atom_site_label_2
_geom_bond_distance
_geom_bond_site_symmetry_2
Nd0 Os0 3.491007 1_555
Nd0 Os3 3.491007 1_556
Nd0 Os2 3.491007 1_556
Nd0 Os1 3.491007 1_555
Nd1 Os0 3.491007 1_555
Nd1 Os3 3.491007 1_555
Nd1 Os2 3.491007 1_555
Nd1 Os1 3.491007 1_555
Ga0 Os0 2.561288 1_555
Ga0 Os4 2.582815 1_555
Ga0 Ga8 2.696838 1_555
Ga0 Ga12 2.740218 1_555
Ga0 Ga14 2.773887 1_555
Ga0 Ga22 2.775225 1_555
Ga0 Nd0 3.054951 1_555
Ga0 Nd2 3.099946 1_455
Ga0 Nd5 3.152095 1_555
Ga1 Os1 2.561288 1_555
Ga1 Os4 2.582815 1_665
Ga1 Ga9 2.696838 1_565
Ga1 Ga13 2.740218 1_565
Ga1 Ga15 2.773887 1_555
Ga1 Ga22 2.775225 1_655
Ga1 Nd1 3.054951 1_555
Ga1 Nd3 3.099946 1_655
Ga1 Nd4 3.152095 1_555
Ga2 Os2 2.561288 1_556
Ga2 Os5 2.582815 1_566
Ga2 Ga8 2.696838 1_565
Ga2 Ga23 2.775225 1_556
Ga2 Nd0 3.054951 1_555
Ga2 Nd4 3.099946 1_455
Ga2 Nd3 3.152095 1_556
Ga3 Os0 2.561288 1_555
Ga3 Os4 2.582815 1_655
Ga3 Ga9 2.696838 1_555
Ga3 Nd1 3.054951 1_555
Ga3 Nd5 3.099946 1_655
Ga3 Nd2 3.152095 1_555
Ga4 Os3 2.561288 1_555
Ga4 Os5 2.582815 1_655
Ga4 Ga9 2.696838 1_555
Ga4 Nd1 3.054951 1_555
Ga4 Nd5 3.099946 1_655
Ga4 Nd2 3.152095 1_554
Ga5 Os1 2.561288 1_555
Ga5 Os4 2.582815 1_565
Ga5 Ga8 2.696838 1_565
Ga5 Nd0 3.054951 1_555
Ga5 Nd4 3.099946 1_455
Ga5 Nd3 3.152095 1_555
Ga6 Os2 2.561288 1_555
Ga6 Os5 2.582815 1_665
Ga6 Ga9 2.696838 1_565
Ga6 Nd1 3.054951 1_555
Ga6 Nd3 3.099946 1_655
Ga6 Nd4 3.152095 1_554
Ga7 Os3 2.561288 1_556
Ga7 Os5 2.582815 1_556
Ga7 Ga8 2.696838 1_555
Ga7 Nd0 3.054951 1_555
Ga7 Nd2 3.099946 1_455
Ga7 Nd5 3.152095 1_556
Ga8 Os4 2.619908 1_555
Ga8 Os5 2.619908 1_556
Ga8 Nd4 3.115274 1_445
Ga8 Nd2 3.115274 1_455
Ga9 Os4 2.619908 1_655
Ga9 Os5 2.619908 1_655
Ga9 Nd3 3.115274 1_645
Ga9 Nd5 3.115274 1_655
Ga10 Os2 2.639832 1_545
Ga10 Os3 2.639832 1_555
Ga10 Os5 2.656125 1_555
Ga10 Ga11 2.730470 1_554
Ga10 Ga7 2.740218 1_554
Ga10 Ga2 2.740218 1_544
Ga10 Ga15 2.781026 1_545
Ga10 Ga17 2.781026 1_555
Ga10 Nd3 3.150068 1_545
Ga10 Nd5 3.150068 1_555
Ga11 Os3 2.639832 1_556
Ga11 Os2 2.639832 1_546
Ga11 Os5 2.656125 1_656
Ga11 Ga4 2.740218 1_556
Ga11 Ga6 2.740218 1_546
Ga11 Ga14 2.781026 1_555
Ga11 Ga16 2.781026 1_545
Ga11 Nd4 3.150068 1_545
Ga11 Nd2 3.150068 1_555
Ga12 Os0 2.639832 1_555
Ga12 Os1 2.639832 1_545
Ga12 Os4 2.656125 1_555
Ga12 Ga13 2.730470 1_555
Ga12 Ga5 2.740218 1_545
Ga12 Ga15 2.781026 1_545
Ga12 Ga17 2.781026 1_555
Ga12 Nd3 3.150068 1_545
Ga12 Nd5 3.150068 1_555
Ga13 Os0 2.639832 1_555
Ga13 Os1 2.639832 1_545
Ga13 Os4 2.656125 1_655
Ga13 Ga3 2.740218 1_555
Ga13 Ga14 2.781026 1_555
Ga13 Ga16 2.781026 1_545
Ga13 Nd4 3.150068 1_545
Ga13 Nd2 3.150068 1_555
Ga14 Os3 2.606665 1_556
Ga14 Os0 2.606665 1_555
Ga14 Ga16 2.727782 1_545
Ga14 Ga7 2.773887 1_555
Ga14 Ga8 2.801106 1_555
Ga14 Nd2 3.067699 1_555
Ga14 Nd0 3.168317 1_555
Ga15 Os1 2.606665 1_555
Ga15 Os2 2.606665 1_555
Ga15 Ga17 2.727782 1_565
Ga15 Ga6 2.773887 1_555
Ga15 Ga9 2.801106 1_565
Ga15 Nd3 3.067699 1_555
Ga15 Nd1 3.168317 1_555
Ga16 Os2 2.606665 1_556
Ga16 Os1 2.606665 1_555
Ga16 Ga5 2.773887 1_555
Ga16 Ga2 2.773887 1_555
Ga16 Ga8 2.801106 1_565
Ga16 Nd4 3.067699 1_555
Ga16 Nd0 3.168317 1_555
Ga17 Os0 2.606665 1_555
Ga17 Os3 2.606665 1_555
Ga17 Ga3 2.773887 1_555
Ga17 Ga4 2.773887 1_555
Ga17 Ga9 2.801106 1_555
Ga17 Nd5 3.067699 1_555
Ga17 Nd1 3.168317 1_555
Ga18 Os0 2.561587 1_555
Ga18 Os1 2.561587 1_555
Ga18 Ga22 2.738554 1_655
Ga18 Nd0 3.032316 1_555
Ga18 Nd2 3.051436 1_555
Ga18 Nd4 3.051436 1_555
Ga18 Nd1 3.240074 1_555
Ga19 Os0 2.561587 1_555
Ga19 Os1 2.561587 1_555
Ga19 Ga22 2.738554 1_555
Ga19 Nd1 3.032316 1_555
Ga19 Nd5 3.051436 1_555
Ga19 Nd3 3.051436 1_555
Ga19 Nd0 3.240074 1_555
Ga20 Os3 2.561587 1_556
Ga20 Os2 2.561587 1_556
Ga20 Ga23 2.738554 1_656
Ga20 Nd0 3.032316 1_555
Ga20 Nd4 3.051436 1_555
Ga20 Nd2 3.051436 1_555
Ga20 Nd1 3.240074 1_556
Ga21 Os3 2.561587 1_555
Ga21 Os2 2.561587 1_555
Ga21 Ga23 2.738554 1_555
Ga21 Nd1 3.032316 1_555
Ga21 Nd5 3.051436 1_555
Ga21 Nd3 3.051436 1_555
Ga21 Nd0 3.240074 1_554
Ga22 Ga5 2.775225 1_555
Ga22 Ga3 2.775225 1_455
Ga22 Nd1 3.441299 1_455
Ga22 Nd0 3.441299 1_555
Ga22 Nd5 3.488236 1_555
Ga22 Nd4 3.488236 1_455
Ga22 Nd3 3.488236 1_555
Ga22 Nd2 3.488236 1_455
Ga23 Ga6 2.775225 1_455
Ga23 Ga4 2.775225 1_455
Ga23 Ga7 2.775225 1_554
Ga23 Nd1 3.441299 1_455
Ga23 Nd0 3.441299 1_554
Ga23 Nd5 3.488236 1_555
Ga23 Nd4 3.488236 1_454
Ga23 Nd3 3.488236 1_555
Ga23 Nd2 3.488236 1_454
