# generated using pymatgen
data_CsMn2(PO3)6
_symmetry_space_group_name_H-M   'P 1'
_cell_length_a   6.39317706
_cell_length_b   8.67009493
_cell_length_c   8.67009493
_cell_angle_alpha   104.04043205
_cell_angle_beta   104.23634629
_cell_angle_gamma   104.23634629
_symmetry_Int_Tables_number   1
_chemical_formula_structural   CsMn2(PO3)6
_chemical_formula_sum   'Cs1 Mn2 P6 O18'
_cell_volume   427.37515160
_cell_formula_units_Z   1
loop_
 _symmetry_equiv_pos_site_id
 _symmetry_equiv_pos_as_xyz
  1  'x, y, z'
loop_
 _atom_site_type_symbol
 _atom_site_label
 _atom_site_symmetry_multiplicity
 _atom_site_fract_x
 _atom_site_fract_y
 _atom_site_fract_z
 _atom_site_occupancy
  Cs  Cs0  1  0.53462500  0.94521700  0.94521700  1
  Mn  Mn0  1  0.00240100  0.77535200  0.22558700  1
  Mn  Mn1  1  0.00240100  0.22558700  0.77535200  1
  P  P0  1  0.09917600  0.40642700  0.18539400  1
  P  P1  1  0.09917600  0.18539400  0.40642700  1
  P  P2  1  0.89994800  0.59339900  0.81405100  1
  P  P3  1  0.89994800  0.81405100  0.59339900  1
  P  P4  1  0.49957700  0.71396900  0.28515800  1
  P  P5  1  0.49957700  0.28515800  0.71396900  1
  O  O0  1  0.10154600  0.34920400  0.34920400  1
  O  O1  1  0.89820600  0.64984000  0.64984000  1
  O  O2  1  0.36592800  0.51792300  0.23721400  1
  O  O3  1  0.36592800  0.23721400  0.51792300  1
  O  O4  1  0.63345300  0.48156100  0.76233300  1
  O  O5  1  0.63345300  0.76233300  0.48156100  1
  O  O6  1  0.95205000  0.51712700  0.17900200  1
  O  O7  1  0.95205000  0.17900200  0.51712700  1
  O  O8  1  0.05054900  0.48556600  0.82179800  1
  O  O9  1  0.05054900  0.82179800  0.48556600  1
  O  O10  1  0.04678800  0.25642500  0.03562200  1
  O  O11  1  0.04678800  0.03562200  0.25642500  1
  O  O12  1  0.94807700  0.74372800  0.96222300  1
  O  O13  1  0.94807700  0.96222300  0.74372800  1
  O  O14  1  0.66173500  0.73487400  0.18565400  1
  O  O15  1  0.66173500  0.18565400  0.73487400  1
  O  O16  1  0.33927900  0.26449500  0.81465800  1
  O  O17  1  0.33927900  0.81465800  0.26449500  1
loop_
_geom_bond_atom_site_label_1
_geom_bond_atom_site_label_2
_geom_bond_distance
_geom_bond_site_symmetry_2
Cs0 O14 3.173671 1_556
Cs0 O15 3.173671 1_565
Cs0 O10 3.461525 1_666
Cs0 O11 3.461525 1_666
Cs0 O13 3.502117 1_555
Cs0 O12 3.502117 1_555
Cs0 O17 3.609605 1_556
Cs0 O16 3.609605 1_565
Cs0 O13 3.782886 1_455
Cs0 O12 3.782886 1_455
Mn0 O17 2.023445 1_555
Mn0 O14 2.044671 1_455
Mn0 O6 2.102847 1_455
Mn0 O9 2.120135 1_555
Mn0 O11 2.144547 1_565
Mn0 O12 2.160789 1_454
Mn1 O16 2.023445 1_555
Mn1 O15 2.044671 1_455
Mn1 O7 2.102847 1_455
Mn1 O8 2.120135 1_555
Mn1 O10 2.144547 1_556
Mn1 O13 2.160789 1_445
O0 P0 1.611982 1_555
O0 P1 1.611982 1_555
O1 P2 1.612299 1_555
O1 P3 1.612299 1_555
O2 P4 1.600042 1_555
O2 P0 1.626734 1_555
O3 P5 1.600042 1_555
O3 P1 1.626734 1_555
O4 P5 1.602563 1_555
O4 P2 1.626278 1_555
O5 P4 1.602563 1_555
O5 P3 1.626278 1_555
O6 P0 1.501058 1_655
O7 P1 1.501058 1_655
O8 P2 1.499004 1_455
O9 P3 1.499004 1_455
O10 P0 1.497393 1_555
O11 P1 1.497393 1_555
O12 P2 1.496563 1_555
O13 P3 1.496563 1_555
O14 P4 1.508383 1_555
O15 P5 1.508383 1_555
O16 P5 1.506668 1_555
O17 P4 1.506668 1_555
