# generated using pymatgen
data_Ca2Ta2TiO8
_symmetry_space_group_name_H-M   'P 1'
_cell_length_a   9.92121875
_cell_length_b   9.92121875
_cell_length_c   5.46956763
_cell_angle_alpha   88.72132524
_cell_angle_beta   88.72132524
_cell_angle_gamma   37.35005015
_symmetry_Int_Tables_number   1
_chemical_formula_structural   Ca2Ta2TiO8
_chemical_formula_sum   'Ca4 Ta4 Ti2 O16'
_cell_volume   326.53097643
_cell_formula_units_Z   2
loop_
 _symmetry_equiv_pos_site_id
 _symmetry_equiv_pos_as_xyz
  1  'x, y, z'
loop_
 _atom_site_type_symbol
 _atom_site_label
 _atom_site_symmetry_multiplicity
 _atom_site_fract_x
 _atom_site_fract_y
 _atom_site_fract_z
 _atom_site_occupancy
  Ca  Ca0  1  0.88670000  0.52677500  0.75546900  1
  Ca  Ca1  1  0.47322500  0.11330000  0.74453100  1
  Ca  Ca2  1  0.11330000  0.47322500  0.24453100  1
  Ca  Ca3  1  0.52677500  0.88670000  0.25546900  1
  Ta  Ta0  1  0.03536600  0.74281200  0.76102100  1
  Ta  Ta1  1  0.25718800  0.96463400  0.73897800  1
  Ta  Ta2  1  0.96463400  0.25718800  0.23897800  1
  Ta  Ta3  1  0.74281200  0.03536600  0.26102200  1
  Ti  Ti0  1  0.61575600  0.38424400  0.75000000  1
  Ti  Ti1  1  0.38424400  0.61575600  0.25000000  1
  O  O0  1  0.06793000  0.79418700  0.09831300  1
  O  O1  1  0.20581300  0.93207000  0.40168700  1
  O  O2  1  0.93207000  0.20581300  0.90168700  1
  O  O3  1  0.79418700  0.06793000  0.59831300  1
  O  O4  1  0.29836800  0.59077500  0.58285100  1
  O  O5  1  0.40922500  0.70163200  0.91714900  1
  O  O6  1  0.70163200  0.40922500  0.41714900  1
  O  O7  1  0.59077500  0.29836800  0.08285100  1
  O  O8  1  0.88076700  0.76027500  0.49424400  1
  O  O9  1  0.23972500  0.11923300  0.00575600  1
  O  O10  1  0.47061700  0.16019000  0.33956600  1
  O  O11  1  0.83981000  0.52938300  0.16043400  1
  O  O12  1  0.52938300  0.83981000  0.66043400  1
  O  O13  1  0.16019000  0.47061700  0.83956600  1
  O  O14  1  0.76027500  0.88076700  0.99424400  1
  O  O15  1  0.11923300  0.23972500  0.50575600  1
loop_
_geom_bond_atom_site_label_1
_geom_bond_atom_site_label_2
_geom_bond_distance
_geom_bond_site_symmetry_2
Ca0 O15 2.210309 1_655
Ca0 O12 2.233522 1_555
Ca0 O11 2.249593 1_556
Ca0 O13 2.350537 1_655
Ca0 O8 2.655332 1_555
Ca0 O9 2.818039 1_656
Ca0 O2 2.933554 1_555
Ca0 O14 2.956554 1_555
Ca1 O14 2.210309 1_545
Ca1 O13 2.233522 1_555
Ca1 O10 2.249593 1_555
Ca1 O12 2.350537 1_545
Ca1 O9 2.655332 1_556
Ca1 O8 2.818039 1_545
Ca1 O3 2.933554 1_555
Ca1 O15 2.956554 1_555
Ca2 O8 2.210309 1_455
Ca2 O10 2.233522 1_555
Ca2 O13 2.249593 1_554
Ca2 O11 2.350537 1_455
Ca2 O15 2.655332 1_555
Ca2 O14 2.818039 1_454
Ca2 O0 2.933554 1_555
Ca2 O9 2.956554 1_555
Ca3 O9 2.210309 1_565
Ca3 O11 2.233522 1_555
Ca3 O12 2.249593 1_555
Ca3 O10 2.350537 1_565
Ca3 O14 2.655332 1_554
Ca3 O15 2.818039 1_565
Ca3 O1 2.933554 1_555
Ca3 O8 2.956554 1_555
O0 Ta0 2.024350 1_554
O0 Ta3 2.148892 1_465
O0 Ti1 2.211037 1_555
O1 Ta1 2.024345 1_555
O1 Ta2 2.148892 1_465
O1 Ti1 2.211037 1_555
O2 Ta2 2.024345 1_556
O2 Ta1 2.148892 1_645
O2 Ti0 2.211037 1_555
O3 Ta3 2.024345 1_555
O3 Ta0 2.148890 1_645
O3 Ti0 2.211037 1_555
O4 Ta0 1.930785 1_555
O4 Ti1 2.085206 1_555
O4 Ti0 2.176339 1_555
O5 Ta1 1.930788 1_555
O5 Ti1 2.085206 1_556
O5 Ti0 2.176339 1_555
O6 Ta2 1.930788 1_555
O6 Ti0 2.085206 1_555
O6 Ti1 2.176339 1_555
O7 Ta3 1.930788 1_555
O7 Ti0 2.085206 1_554
O7 Ti1 2.176339 1_555
O8 Ta0 2.043975 1_655
O8 Ta3 2.220997 1_565
O9 Ta1 2.043979 1_544
O9 Ta2 2.220997 1_455
O10 Ta3 1.914630 1_555
O11 Ta2 1.914630 1_555
O12 Ta1 1.914630 1_555
O13 Ta0 1.914631 1_555
O14 Ta3 2.043979 1_566
O14 Ta0 2.221000 1_655
O15 Ta2 2.043979 1_455
O15 Ta1 2.220997 1_545
