# generated using pymatgen
data_BaCe2MnS5
_symmetry_space_group_name_H-M   'P 1'
_cell_length_a   8.79436843
_cell_length_b   8.79436843
_cell_length_c   8.79436843
_cell_angle_alpha   126.84701184
_cell_angle_beta   126.84701184
_cell_angle_gamma   78.50041644
_symmetry_Int_Tables_number   1
_chemical_formula_structural   BaCe2MnS5
_chemical_formula_sum   'Ba2 Ce4 Mn2 S10'
_cell_volume   421.70693236
_cell_formula_units_Z   2
loop_
 _symmetry_equiv_pos_site_id
 _symmetry_equiv_pos_as_xyz
  1  'x, y, z'
loop_
 _atom_site_type_symbol
 _atom_site_label
 _atom_site_symmetry_multiplicity
 _atom_site_fract_x
 _atom_site_fract_y
 _atom_site_fract_z
 _atom_site_occupancy
  Ba  Ba0  1  0.75000000  0.75000000  0.00000000  1
  Ba  Ba1  1  0.25000000  0.25000000  0.00000000  1
  Ce  Ce0  1  0.84133500  0.65866500  0.50000000  1
  Ce  Ce1  1  0.65866500  0.15866500  0.81733000  1
  Ce  Ce2  1  0.34133500  0.84133500  0.18267000  1
  Ce  Ce3  1  0.15866500  0.34133500  0.50000000  1
  Mn  Mn0  1  0.25000000  0.75000000  0.50000000  1
  Mn  Mn1  1  0.75000000  0.25000000  0.50000000  1
  S  S0  1  0.98271600  0.48271600  0.19802700  1
  S  S1  1  0.71531200  0.21531200  0.19802700  1
  S  S2  1  0.01728400  0.51728400  0.80197300  1
  S  S3  1  0.51728400  0.71531200  0.50000000  1
  S  S4  1  0.21531200  0.01728400  0.50000000  1
  S  S5  1  0.48271600  0.28468800  0.50000000  1
  S  S6  1  0.78468800  0.98271600  0.50000000  1
  S  S7  1  0.28468800  0.78468800  0.80197300  1
  S  S8  1  0.00000000  0.00000000  0.00000000  1
  S  S9  1  0.50000000  0.50000000  0.00000000  1
loop_
_geom_bond_atom_site_label_1
_geom_bond_atom_site_label_2
_geom_bond_distance
_geom_bond_site_symmetry_2
Ba0 S0 3.385789 1_555
Ba0 S2 3.385789 1_654
Ba0 S3 3.385794 1_554
Ba0 S4 3.385794 1_665
Ba0 S5 3.385794 1_554
Ba0 S6 3.385794 1_555
Ba0 S7 3.385796 1_554
Ba0 S1 3.385796 1_565
Ba0 S9 3.405137 1_555
Ba0 S8 3.405137 1_665
Ba1 S0 3.385789 1_455
Ba1 S2 3.385789 1_554
Ba1 S4 3.385794 1_554
Ba1 S3 3.385794 1_555
Ba1 S5 3.385794 1_555
Ba1 S6 3.385794 1_444
Ba1 S1 3.385796 1_555
Ba1 S7 3.385796 1_544
Ba1 S8 3.405137 1_555
Ba1 S9 3.405137 1_555
Ce0 S3 2.793493 1_555
Ce0 S6 2.793493 1_555
Ce0 S8 2.961991 1_666
Ce0 S9 2.961991 1_555
Ce0 S1 3.042591 1_555
Ce0 S7 3.042591 1_655
Ce0 S2 3.042599 1_655
Ce0 S0 3.042599 1_555
Ce1 S1 2.793485 1_556
Ce1 S0 2.793494 1_556
Ce1 S9 2.961991 1_556
Ce1 S8 2.961991 1_656
Ce1 S6 3.042592 1_545
Ce1 S4 3.042592 1_555
Ce1 S3 3.042592 1_545
Ce1 S5 3.042592 1_555
Ce2 S7 2.793485 1_554
Ce2 S2 2.793494 1_554
Ce2 S9 2.961991 1_555
Ce2 S8 2.961991 1_565
Ce2 S6 3.042592 1_555
Ce2 S3 3.042592 1_555
Ce2 S4 3.042592 1_565
Ce2 S5 3.042592 1_565
Ce3 S5 2.793493 1_555
Ce3 S4 2.793493 1_555
Ce3 S9 2.961991 1_556
Ce3 S8 2.961991 1_555
Ce3 S7 3.042591 1_555
Ce3 S1 3.042591 1_455
Ce3 S2 3.042599 1_555
Ce3 S0 3.042599 1_455
Mn0 S0 2.309207 1_455
Mn0 S3 2.309208 1_555
Mn0 S4 2.309208 1_565
Mn0 S7 2.309217 1_555
Mn1 S2 2.309207 1_655
Mn1 S5 2.309208 1_555
Mn1 S6 2.309208 1_545
Mn1 S1 2.309217 1_555
