# generated using pymatgen
data_SbTeRh
_symmetry_space_group_name_H-M   'P 1'
_cell_length_a   6.44668078
_cell_length_b   6.44668078
_cell_length_c   6.44668078
_cell_angle_alpha   90.00000000
_cell_angle_beta   90.00000000
_cell_angle_gamma   90.00000000
_symmetry_Int_Tables_number   1
_chemical_formula_structural   SbTeRh
_chemical_formula_sum   'Sb4 Te4 Rh4'
_cell_volume   267.92207460
_cell_formula_units_Z   4
loop_
 _symmetry_equiv_pos_site_id
 _symmetry_equiv_pos_as_xyz
  1  'x, y, z'
loop_
 _atom_site_type_symbol
 _atom_site_label
 _atom_site_symmetry_multiplicity
 _atom_site_fract_x
 _atom_site_fract_y
 _atom_site_fract_z
 _atom_site_occupancy
  Sb  Sb0  1  0.12673073  0.87326927  0.37326927  1
  Sb  Sb1  1  0.87326927  0.37326927  0.12673073  1
  Sb  Sb2  1  0.37326927  0.12673073  0.87326927  1
  Sb  Sb3  1  0.62673073  0.62673073  0.62673073  1
  Te  Te0  1  0.87394142  0.12605858  0.62605858  1
  Te  Te1  1  0.12605858  0.62605858  0.87394142  1
  Te  Te2  1  0.62605858  0.87394142  0.12605858  1
  Te  Te3  1  0.37394142  0.37394142  0.37394142  1
  Rh  Rh0  1  0.50205790  0.49794210  0.99794210  1
  Rh  Rh1  1  0.49794210  0.99794210  0.50205790  1
  Rh  Rh2  1  0.99794210  0.50205790  0.49794210  1
  Rh  Rh3  1  0.00205790  0.00205790  0.00205790  1
loop_
_geom_bond_atom_site_label_1
_geom_bond_atom_site_label_2
_geom_bond_distance
_geom_bond_site_symmetry_2
Sb0 Te0 2.822640 1_465
Sb1 Te1 2.822640 1_654
Sb2 Te2 2.822640 1_546
Sb3 Te3 2.822640 1_555
Rh0 Sb3 2.657469 1_555
Rh0 Sb2 2.657469 1_555
Rh0 Sb1 2.657469 1_556
Rh0 Te1 2.682667 1_555
Rh0 Te2 2.682667 1_556
Rh0 Te3 2.682667 1_556
Rh1 Sb3 2.657469 1_555
Rh1 Sb0 2.657469 1_555
Rh1 Sb2 2.657469 1_565
Rh1 Te2 2.682667 1_555
Rh1 Te0 2.682667 1_565
Rh1 Te3 2.682667 1_565
Rh2 Sb3 2.657469 1_555
Rh2 Sb1 2.657469 1_555
Rh2 Sb0 2.657469 1_655
Rh2 Te0 2.682667 1_555
Rh2 Te1 2.682667 1_655
Rh2 Te3 2.682667 1_655
Rh3 Sb1 2.657469 1_455
Rh3 Sb0 2.657469 1_545
Rh3 Sb2 2.657469 1_554
Rh3 Te0 2.682667 1_454
Rh3 Te1 2.682667 1_544
Rh3 Te2 2.682667 1_445
