# generated using pymatgen
data_HoThOs2
_symmetry_space_group_name_H-M   'P 1'
_cell_length_a   4.93133299
_cell_length_b   4.93133299
_cell_length_c   4.93133299
_cell_angle_alpha   60.00000000
_cell_angle_beta   60.00000000
_cell_angle_gamma   60.00000000
_symmetry_Int_Tables_number   1
_chemical_formula_structural   HoThOs2
_chemical_formula_sum   'Ho1 Th1 Os2'
_cell_volume   84.79651256
_cell_formula_units_Z   1
loop_
 _symmetry_equiv_pos_site_id
 _symmetry_equiv_pos_as_xyz
  1  'x, y, z'
loop_
 _atom_site_type_symbol
 _atom_site_label
 _atom_site_symmetry_multiplicity
 _atom_site_fract_x
 _atom_site_fract_y
 _atom_site_fract_z
 _atom_site_occupancy
  Ho  Ho0  1  0.50000000  0.50000000  0.50000000  1
  Th  Th0  1  0.00000000  0.00000000  0.00000000  1
  Os  Os0  1  0.25000000  0.25000000  0.25000000  1
  Os  Os1  1  0.75000000  0.75000000  0.75000000  1
loop_
_geom_bond_atom_site_label_1
_geom_bond_atom_site_label_2
_geom_bond_distance
_geom_bond_site_symmetry_2
Ho0 Os0 3.019812 1_556
Ho0 Os0 3.019812 1_555
Ho0 Os1 3.019812 1_554
Ho0 Os1 3.019812 1_555
Ho0 Os1 3.019812 1_545
Ho0 Os0 3.019812 1_565
Ho0 Os0 3.019812 1_655
Ho0 Os1 3.019812 1_455
Os0 Th0 3.019812 1_556
Os0 Th0 3.019812 1_555
Os0 Th0 3.019812 1_655
Os0 Th0 3.019812 1_565
Os1 Th0 3.019812 1_665
Os1 Th0 3.019812 1_566
Os1 Th0 3.019812 1_656
Os1 Th0 3.019812 1_666
