# generated using pymatgen
data_K4MgZn4H16(Br3O2)4
_symmetry_space_group_name_H-M   'P 1'
_cell_length_a   7.49762931
_cell_length_b   12.88560193
_cell_length_c   13.34040273
_cell_angle_alpha   88.73125072
_cell_angle_beta   131.89818455
_cell_angle_gamma   93.91895836
_symmetry_Int_Tables_number   1
_chemical_formula_structural   K4MgZn4H16(Br3O2)4
_chemical_formula_sum   'K4 Mg1 Zn4 H16 Br12 O8'
_cell_volume   956.60018375
_cell_formula_units_Z   1
loop_
 _symmetry_equiv_pos_site_id
 _symmetry_equiv_pos_as_xyz
  1  'x, y, z'
loop_
 _atom_site_type_symbol
 _atom_site_label
 _atom_site_symmetry_multiplicity
 _atom_site_fract_x
 _atom_site_fract_y
 _atom_site_fract_z
 _atom_site_occupancy
  K  K0  1  0.41319544  0.80626798  0.02993099  1
  K  K1  1  0.73967890  0.34348943  0.50264701  1
  K  K2  1  0.63560756  0.17845766  0.97770376  1
  K  K3  1  0.30842115  0.68124709  0.51205293  1
  Mg  Mg0  1  0.82376877  0.99622074  0.83491612  1
  Zn  Zn0  1  0.35106715  0.97421058  0.67708812  1
  Zn  Zn1  1  0.52708747  0.42752477  0.76044344  1
  Zn  Zn2  1  0.50107270  0.08032475  0.27095209  1
  Zn  Zn3  1  0.47888581  0.56599197  0.24623572  1
  H  H0  1  0.78979169  0.26126253  0.80736977  1
  H  H1  1  0.21086511  0.76364277  0.69608397  1
  H  H2  1  0.21771748  0.71878633  0.20474771  1
  H  H3  1  0.78400190  0.24188212  0.28414675  1
  H  H4  1  0.94743027  0.34043531  0.93577715  1
  H  H5  1  0.99575239  0.81360976  0.56175229  1
  H  H6  1  0.06289375  0.64722946  0.06677697  1
  H  H7  1  0.92237278  0.18414765  0.42668117  1
  H  H8  1  0.88687777  0.14023328  0.70786218  1
  H  H9  1  0.09584653  0.65230909  0.77578997  1
  H  H10  1  0.11799651  0.84920088  0.24712961  1
  H  H11  1  0.95287043  0.35012462  0.22480575  1
  H  H12  1  0.61326293  0.12276378  0.63569494  1
  H  H13  1  0.33870479  0.61157132  0.83623065  1
  H  H14  1  0.39370123  0.84137516  0.34621810  1
  H  H15  1  0.69351754  0.37916202  0.14912615  1
  Br  Br0  1  0.29871613  0.39461230  0.52572722  1
  Br  Br1  1  0.82677800  0.93451882  0.02682125  1
  Br  Br2  1  0.70025970  0.59946379  0.48170739  1
  Br  Br3  1  0.26915452  0.09592107  0.02625673  1
  Br  Br4  1  0.31179613  0.41061771  0.83594707  1
  Br  Br5  1  0.88602805  0.85687666  0.73733197  1
  Br  Br6  1  0.73325901  0.59636296  0.19663899  1
  Br  Br7  1  0.32329403  0.12619393  0.35788479  1
  Br  Br8  1  0.10212306  0.14212467  0.65557832  1
  Br  Br9  1  0.75819388  0.59236674  0.83507611  1
  Br  Br10  1  0.68651767  0.91744410  0.33356531  1
  Br  Br11  1  0.26341740  0.39567610  0.17139092  1
  O  O0  1  0.16811687  0.80524558  0.61936692  1
  O  O1  1  0.78246866  0.31077350  0.86022085  1
  O  O2  1  0.76377587  0.20060812  0.34111174  1
  O  O3  1  0.22639756  0.67540705  0.14591402  1
  O  O4  1  0.26000670  0.67622554  0.81800838  1
  O  O5  1  0.77454313  0.13596445  0.72568559  1
  O  O6  1  0.79152009  0.31919876  0.18053616  1
  O  O7  1  0.24346748  0.80126012  0.31012797  1
loop_
_geom_bond_atom_site_label_1
_geom_bond_atom_site_label_2
_geom_bond_distance
_geom_bond_site_symmetry_2
K0 O4 2.780208 1_554
K0 O3 3.107219 1_555
K1 O2 2.967708 1_555
K2 O6 2.771276 1_556
K2 O1 2.916448 1_555
K3 O7 2.837484 1_555
K3 O0 2.837521 1_555
Mg0 O5 2.181371 1_565
Mg0 Zn0 2.645170 1_555
H0 O1 0.991738 1_555
H1 O0 0.999303 1_555
H2 O3 1.012579 1_555
H3 O2 1.004167 1_555
H4 O1 0.989528 1_555
H5 O0 0.980404 1_655
H6 O3 0.988314 1_555
H7 O2 0.986323 1_555
H8 O5 1.014641 1_555
H9 O4 0.978293 1_555
H10 O7 0.986604 1_555
H11 O6 0.980491 1_555
H12 O5 0.987121 1_555
H13 O4 0.983855 1_555
H14 O7 0.987358 1_555
H15 O6 0.982110 1_555
Br0 Zn1 2.390582 1_555
Br0 K1 3.622962 1_555
Br0 K3 3.692071 1_555
Br1 Mg0 2.649882 1_554
Br1 K2 3.410915 1_564
Br1 K0 3.437527 1_555
Br2 Zn3 2.409775 1_555
Br2 K1 3.320677 1_555
Br2 K3 3.454852 1_555
Br3 Zn2 2.481406 1_555
Br3 Mg0 2.737038 1_444
Br3 K2 3.323630 1_554
Br4 Zn1 2.404441 1_555
Br4 K2 3.609688 1_555
Br4 K1 3.620433 1_455
Br5 Mg0 2.483195 1_555
Br5 K0 3.304160 1_656
Br5 K3 3.806137 1_555
Br6 Zn3 2.408364 1_555
Br6 K0 3.393099 1_555
Br6 K3 3.580752 1_655
Br7 Zn2 2.381934 1_555
Br7 K1 3.508254 1_555
Br8 H8 2.142150 1_455
Br8 Zn0 2.838450 1_545
Br8 K2 3.400079 1_555
Br8 K1 3.406469 1_455
Br9 Zn1 2.406623 1_555
Br9 K3 3.486219 1_555
Br10 Zn2 2.409570 1_565
Br10 K0 3.380558 1_555
Br11 Zn3 2.425114 1_555
Br11 K1 3.442703 1_555
O0 Zn0 2.338811 1_555
O1 Zn1 2.145297 1_555
O2 Zn2 2.083874 1_555
O3 Zn3 2.063976 1_555
