# generated using pymatgen
data_Ba4La4Co8O23
_symmetry_space_group_name_H-M   'P 1'
_cell_length_a   8.90329124
_cell_length_b   8.90329124
_cell_length_c   8.74611857
_cell_angle_alpha   65.88601530
_cell_angle_beta   65.88601530
_cell_angle_gamma   52.82965291
_symmetry_Int_Tables_number   1
_chemical_formula_structural   Ba4La4Co8O23
_chemical_formula_sum   'Ba4 La4 Co8 O23'
_cell_volume   491.61401686
_cell_formula_units_Z   1
loop_
 _symmetry_equiv_pos_site_id
 _symmetry_equiv_pos_as_xyz
  1  'x, y, z'
loop_
 _atom_site_type_symbol
 _atom_site_label
 _atom_site_symmetry_multiplicity
 _atom_site_fract_x
 _atom_site_fract_y
 _atom_site_fract_z
 _atom_site_occupancy
  Ba  Ba0  1  0.50000000  0.00000000  0.00000000  1
  Ba  Ba1  1  0.00000000  0.50000000  0.00000000  1
  Ba  Ba2  1  0.25460400  0.74539600  0.00000000  1
  Ba  Ba3  1  0.74539600  0.25460400  0.00000000  1
  La  La0  1  0.38496900  0.86474300  0.49979600  1
  La  La1  1  0.86474300  0.38496900  0.49979600  1
  La  La2  1  0.13525700  0.61503100  0.50020400  1
  La  La3  1  0.61503100  0.13525700  0.50020400  1
  Co  Co0  1  0.68929300  0.68929300  0.74957200  1
  Co  Co1  1  0.18686600  0.18686600  0.74594900  1
  Co  Co2  1  0.43805100  0.43805100  0.74641200  1
  Co  Co3  1  0.93722100  0.93722100  0.75234000  1
  Co  Co4  1  0.81313400  0.81313400  0.25405100  1
  Co  Co5  1  0.31070700  0.31070700  0.25042800  1
  Co  Co6  1  0.56194900  0.56194900  0.25358800  1
  Co  Co7  1  0.06277900  0.06277900  0.24766000  1
  O  O0  1  0.56377800  0.56377800  0.73066900  1
  O  O1  1  0.06604500  0.06604500  0.70882100  1
  O  O2  1  0.32155600  0.32155600  0.73040800  1
  O  O3  1  0.82874000  0.82874000  0.71038200  1
  O  O4  1  0.45684600  0.93000600  0.72870200  1
  O  O5  1  0.93000600  0.45684600  0.72870200  1
  O  O6  1  0.18301300  0.71048100  0.71178600  1
  O  O7  1  0.71048100  0.18301300  0.71178600  1
  O  O8  1  0.67844400  0.67844400  0.26959200  1
  O  O9  1  0.17126000  0.17126000  0.28961800  1
  O  O10  1  0.43622200  0.43622200  0.26933100  1
  O  O11  1  0.93395500  0.93395500  0.29117900  1
  O  O12  1  0.54315400  0.06999400  0.27129800  1
  O  O13  1  0.06999400  0.54315400  0.27129800  1
  O  O14  1  0.28951900  0.81698700  0.28821400  1
  O  O15  1  0.81698700  0.28951900  0.28821400  1
  O  O16  1  0.87192100  0.87192100  0.02322700  1
  O  O17  1  0.37491600  0.37491600  0.99491200  1
  O  O18  1  0.62508400  0.62508400  0.00508800  1
  O  O19  1  0.12807900  0.12807900  0.97677300  1
  O  O20  1  0.74988700  0.74988700  0.48585500  1
  O  O21  1  0.50000000  0.50000000  0.50000000  1
  O  O22  1  0.25011300  0.25011300  0.51414500  1
loop_
_geom_bond_atom_site_label_1
_geom_bond_atom_site_label_2
_geom_bond_distance
_geom_bond_site_symmetry_2
Ba0 O17 2.794907 1_554
Ba0 O18 2.794907 1_545
Ba0 O16 2.846757 1_545
Ba0 O19 2.846757 1_554
Ba0 O2 2.885983 1_554
Ba0 O8 2.885983 1_545
Ba0 O12 2.899768 1_555
Ba0 O4 2.899768 1_544
Ba0 O7 2.999118 1_554
Ba0 O14 2.999118 1_545
Ba0 O3 3.002169 1_544
Ba0 O9 3.002169 1_555
Ba1 O17 2.794907 1_554
Ba1 O18 2.794907 1_455
Ba1 O16 2.846757 1_455
Ba1 O19 2.846757 1_554
Ba1 O8 2.885983 1_455
Ba1 O2 2.885983 1_554
Ba1 O13 2.899768 1_555
Ba1 O5 2.899768 1_454
Ba1 O6 2.999118 1_554
Ba1 O15 2.999118 1_455
Ba1 O3 3.002169 1_454
Ba1 O9 3.002169 1_555
Ba2 O18 2.800167 1_555
Ba2 O17 2.800167 1_554
Ba2 O19 2.811121 1_564
Ba2 O16 2.811121 1_455
Ba2 O10 2.859417 1_555
Ba2 O0 2.859417 1_554
Ba2 O13 2.910737 1_555
Ba2 O4 2.910737 1_554
Ba2 O14 3.008268 1_555
Ba2 O6 3.008268 1_554
Ba2 O11 3.035696 1_455
Ba2 O1 3.035696 1_564
Ba3 O18 2.800167 1_555
Ba3 O17 2.800167 1_554
Ba3 O19 2.811121 1_654
Ba3 O16 2.811121 1_545
Ba3 O0 2.859417 1_554
Ba3 O10 2.859417 1_555
Ba3 O12 2.910737 1_555
Ba3 O5 2.910737 1_554
Ba3 O15 3.008268 1_555
Ba3 O7 3.008268 1_554
Ba3 O11 3.035696 1_545
Ba3 O1 3.035696 1_654
La0 O14 2.586876 1_555
La0 O6 2.595453 1_555
La0 O8 2.612528 1_555
La0 O0 2.615857 1_555
La0 O1 2.627379 1_565
La0 O9 2.632738 1_565
La0 O12 2.672611 1_565
La0 O4 2.683662 1_555
La0 O20 2.716595 1_555
La0 O21 2.751813 1_555
La0 O22 2.912093 1_565
La1 O15 2.586876 1_555
La1 O7 2.595453 1_555
La1 O8 2.612528 1_555
La1 O0 2.615857 1_555
La1 O1 2.627379 1_655
La1 O9 2.632738 1_655
La1 O13 2.672611 1_655
La1 O5 2.683662 1_555
La1 O20 2.716595 1_555
La1 O21 2.751813 1_555
La1 O22 2.912093 1_655
La2 O6 2.586876 1_555
La2 O14 2.595453 1_555
La2 O2 2.612528 1_555
La2 O10 2.615857 1_555
La2 O11 2.627379 1_455
La2 O3 2.632738 1_455
La2 O5 2.672611 1_455
La2 O13 2.683662 1_555
La2 O22 2.716595 1_555
La2 O21 2.751813 1_555
La2 O20 2.912093 1_455
La3 O7 2.586876 1_555
La3 O15 2.595453 1_555
La3 O2 2.612528 1_555
La3 O10 2.615857 1_555
La3 O11 2.627379 1_545
La3 O3 2.632738 1_545
La3 O4 2.672611 1_545
La3 O12 2.683662 1_555
La3 O22 2.716595 1_555
La3 O21 2.751813 1_555
La3 O20 2.912093 1_545
Co0 O5 1.881189 1_555
Co0 O4 1.881189 1_555
Co0 O18 1.988702 1_556
Co0 O20 2.054321 1_555
Co0 O0 2.082276 1_555
Co0 O3 2.089852 1_555
Co1 O19 1.796594 1_555
Co1 O22 1.806089 1_555
Co1 O2 2.089469 1_555
Co1 O5 2.091317 1_455
Co1 O4 2.091317 1_545
Co1 O1 2.094954 1_555
Co2 O21 1.917846 1_555
Co2 O2 1.925691 1_555
Co2 O17 1.934152 1_555
Co2 O0 1.946083 1_555
Co2 O6 2.106495 1_555
Co2 O7 2.106495 1_555
Co3 O7 1.898049 1_565
Co3 O6 1.898049 1_655
Co3 O1 1.911046 1_665
Co3 O3 1.925304 1_555
Co3 O16 2.108699 1_556
Co4 O16 1.796594 1_555
Co4 O20 1.806089 1_555
Co4 O8 2.089469 1_555
Co4 O13 2.091317 1_655
Co4 O12 2.091317 1_565
Co4 O11 2.094954 1_555
Co5 O12 1.881189 1_555
Co5 O13 1.881189 1_555
Co5 O17 1.988702 1_554
Co5 O22 2.054321 1_555
Co5 O10 2.082276 1_555
Co5 O9 2.089852 1_555
Co6 O21 1.917846 1_555
Co6 O8 1.925691 1_555
Co6 O18 1.934152 1_555
Co6 O10 1.946083 1_555
Co6 O15 2.106495 1_555
Co6 O14 2.106495 1_555
Co7 O15 1.898049 1_455
Co7 O14 1.898049 1_545
Co7 O11 1.911046 1_445
Co7 O9 1.925304 1_555
Co7 O19 2.108699 1_554
