# generated using pymatgen
data_KSnAuSe3
_symmetry_space_group_name_H-M   'P 1'
_cell_length_a   8.55751200
_cell_length_b   8.55751200
_cell_length_c   20.29680600
_cell_angle_alpha   90.00000000
_cell_angle_beta   90.00000000
_cell_angle_gamma   90.00000000
_symmetry_Int_Tables_number   1
_chemical_formula_structural   KSnAuSe3
_chemical_formula_sum   'K8 Sn8 Au8 Se24'
_cell_volume   1486.35563624
_cell_formula_units_Z   8
loop_
 _symmetry_equiv_pos_site_id
 _symmetry_equiv_pos_as_xyz
  1  'x, y, z'
loop_
 _atom_site_type_symbol
 _atom_site_label
 _atom_site_symmetry_multiplicity
 _atom_site_fract_x
 _atom_site_fract_y
 _atom_site_fract_z
 _atom_site_occupancy
  K  K0  1  0.50000000  0.50000000  0.24558300  1
  K  K1  1  0.50000000  0.50000000  0.74558300  1
  K  K2  1  0.00000000  0.00000000  0.39942300  1
  K  K3  1  0.00000000  0.00000000  0.89942300  1
  K  K4  1  0.00000000  0.00000000  0.60105100  1
  K  K5  1  0.00000000  0.00000000  0.10105100  1
  K  K6  1  0.50000000  0.50000000  0.44923000  1
  K  K7  1  0.50000000  0.50000000  0.94923000  1
  Sn  Sn0  1  0.00000000  0.50000000  0.08893500  1
  Sn  Sn1  1  0.50000000  0.00000000  0.08893500  1
  Sn  Sn2  1  0.00000000  0.50000000  0.58893500  1
  Sn  Sn3  1  0.50000000  0.00000000  0.58893500  1
  Sn  Sn4  1  0.00000000  0.50000000  0.91187500  1
  Sn  Sn5  1  0.50000000  0.00000000  0.91187500  1
  Sn  Sn6  1  0.00000000  0.50000000  0.41187500  1
  Sn  Sn7  1  0.50000000  0.00000000  0.41187500  1
  Au  Au0  1  0.99847100  0.68296300  0.24966500  1
  Au  Au1  1  0.00152900  0.31703700  0.24966500  1
  Au  Au2  1  0.31703700  0.99847100  0.24966500  1
  Au  Au3  1  0.68296300  0.00152900  0.24966500  1
  Au  Au4  1  0.00152900  0.68296300  0.74966500  1
  Au  Au5  1  0.99847100  0.31703700  0.74966500  1
  Au  Au6  1  0.68296300  0.99847100  0.74966500  1
  Au  Au7  1  0.31703700  0.00152900  0.74966500  1
  Se  Se0  1  0.33338500  0.15286000  0.49987600  1
  Se  Se1  1  0.66661500  0.84714000  0.49987600  1
  Se  Se2  1  0.84714000  0.33338500  0.49987600  1
  Se  Se3  1  0.15286000  0.66661500  0.49987600  1
  Se  Se4  1  0.66661500  0.15286000  0.99987600  1
  Se  Se5  1  0.33338500  0.84714000  0.99987600  1
  Se  Se6  1  0.15286000  0.33338500  0.99987600  1
  Se  Se7  1  0.84714000  0.66661500  0.99987600  1
  Se  Se8  1  0.32335400  0.81637100  0.34422400  1
  Se  Se9  1  0.67664600  0.18362900  0.34422400  1
  Se  Se10  1  0.18362900  0.32335400  0.34422400  1
  Se  Se11  1  0.81637100  0.67664600  0.34422400  1
  Se  Se12  1  0.67664600  0.81637100  0.84422400  1
  Se  Se13  1  0.32335400  0.18362900  0.84422400  1
  Se  Se14  1  0.81637100  0.32335400  0.84422400  1
  Se  Se15  1  0.18362900  0.67664600  0.84422400  1
  Se  Se16  1  0.67772500  0.18239400  0.65623300  1
  Se  Se17  1  0.32227500  0.81760600  0.65623300  1
  Se  Se18  1  0.81760600  0.67772500  0.65623300  1
  Se  Se19  1  0.18239400  0.32227500  0.65623300  1
  Se  Se20  1  0.32227500  0.18239400  0.15623300  1
  Se  Se21  1  0.67772500  0.81760600  0.15623300  1
  Se  Se22  1  0.18239400  0.67772500  0.15623300  1
  Se  Se23  1  0.81760600  0.32227500  0.15623300  1
loop_
_geom_bond_atom_site_label_1
_geom_bond_atom_site_label_2
_geom_bond_distance
_geom_bond_site_symmetry_2
K0 Se22 3.604028 1_555
K0 Se20 3.604028 1_555
K0 Se23 3.604028 1_555
K0 Se21 3.604028 1_555
K0 Se8 3.690964 1_555
K0 Se11 3.690964 1_555
K0 Se9 3.690964 1_555
K0 Se10 3.690964 1_555
K1 Se19 3.604028 1_555
K1 Se16 3.604028 1_555
K1 Se17 3.604028 1_555
K1 Se18 3.604028 1_555
K1 Se12 3.690964 1_555
K1 Se14 3.690964 1_555
K1 Se15 3.690964 1_555
K1 Se13 3.690964 1_555
K2 Se10 3.373634 1_555
K2 Se8 3.373634 1_545
K2 Se9 3.373634 1_455
K2 Se11 3.373634 1_445
K2 Se0 3.742652 1_555
K2 Se2 3.742652 1_455
K2 Se3 3.742652 1_545
K2 Se1 3.742652 1_445
K3 Se13 3.373634 1_555
K3 Se14 3.373634 1_455
K3 Se15 3.373634 1_545
K3 Se12 3.373634 1_445
K3 Se5 3.742652 1_545
K3 Se6 3.742652 1_555
K3 Se7 3.742652 1_445
K3 Se4 3.742652 1_455
K4 Se17 3.361029 1_545
K4 Se18 3.361029 1_445
K4 Se19 3.361029 1_555
K4 Se16 3.361029 1_455
K4 Se0 3.750655 1_555
K4 Se2 3.750655 1_455
K4 Se3 3.750655 1_545
K4 Se1 3.750655 1_445
K5 Se22 3.361029 1_545
K5 Se23 3.361029 1_455
K5 Se21 3.361029 1_445
K5 Se20 3.361029 1_555
K5 Se6 3.750655 1_554
K5 Se5 3.750655 1_544
K5 Se7 3.750655 1_444
K5 Se4 3.750655 1_454
K6 Se3 3.451725 1_555
K6 Se1 3.451725 1_555
K6 Se2 3.451725 1_555
K6 Se0 3.451725 1_555
K6 Se8 3.762606 1_555
K6 Se11 3.762606 1_555
K6 Se9 3.762606 1_555
K6 Se10 3.762606 1_555
K7 Se7 3.451725 1_555
K7 Se4 3.451725 1_555
K7 Se5 3.451725 1_555
K7 Se6 3.451725 1_555
K7 Se14 3.762606 1_555
K7 Se12 3.762606 1_555
K7 Se15 3.762606 1_555
K7 Se13 3.762606 1_555
Au0 Se22 2.464846 1_655
Au0 Se11 2.472811 1_555
Au1 Se23 2.464846 1_455
Au1 Se10 2.472811 1_555
Au2 Se20 2.464846 1_565
Au2 Se8 2.472811 1_555
Au3 Se21 2.464846 1_545
Au3 Se9 2.472811 1_555
Au4 Se18 2.464846 1_455
Au4 Se15 2.472811 1_555
Au5 Se19 2.464846 1_655
Au5 Se14 2.472811 1_555
Au6 Se16 2.464846 1_565
Au6 Se12 2.472811 1_555
Au7 Se17 2.464846 1_545
Au7 Se13 2.472811 1_555
Se0 Sn7 2.633317 1_555
Se0 Sn3 2.647929 1_555
Se1 Sn7 2.633317 1_565
Se1 Sn3 2.647929 1_565
Se2 Sn6 2.633317 1_655
Se2 Sn2 2.647929 1_655
Se3 Sn6 2.633317 1_555
Se3 Sn2 2.647929 1_555
Se4 Sn5 2.633317 1_555
Se4 Sn1 2.647929 1_556
Se5 Sn5 2.633317 1_565
Se5 Sn1 2.647929 1_566
Se6 Sn4 2.633317 1_555
Se6 Sn0 2.647929 1_556
Se7 Sn4 2.633317 1_655
Se7 Sn0 2.647929 1_656
Se8 Sn7 2.576783 1_565
Se9 Sn7 2.576783 1_555
Se10 Sn6 2.576783 1_555
Se11 Sn6 2.576783 1_655
Se12 Sn5 2.576783 1_565
Se13 Sn5 2.576783 1_555
Se14 Sn4 2.576783 1_655
Se15 Sn4 2.576783 1_555
Se16 Sn3 2.571980 1_555
Se17 Sn3 2.571980 1_565
Se18 Sn2 2.571980 1_655
Se19 Sn2 2.571980 1_555
Se20 Sn1 2.571980 1_555
Se21 Sn1 2.571980 1_565
Se22 Sn0 2.571980 1_555
Se23 Sn0 2.571980 1_655
