# generated using pymatgen
data_TiMoS3
_symmetry_space_group_name_H-M   'P 1'
_cell_length_a   3.27685500
_cell_length_b   6.15715500
_cell_length_c   8.74822668
_cell_angle_alpha   74.75831358
_cell_angle_beta   90.00000000
_cell_angle_gamma   90.00000000
_symmetry_Int_Tables_number   1
_chemical_formula_structural   TiMoS3
_chemical_formula_sum   'Ti2 Mo2 S6'
_cell_volume   170.29664917
_cell_formula_units_Z   2
loop_
 _symmetry_equiv_pos_site_id
 _symmetry_equiv_pos_as_xyz
  1  'x, y, z'
loop_
 _atom_site_type_symbol
 _atom_site_label
 _atom_site_symmetry_multiplicity
 _atom_site_fract_x
 _atom_site_fract_y
 _atom_site_fract_z
 _atom_site_occupancy
  Ti  Ti0  1  0.25000000  0.73653000  0.00569900  1
  Ti  Ti1  1  0.75000000  0.26347000  0.99430100  1
  Mo  Mo0  1  0.25000000  0.88192800  0.62502400  1
  Mo  Mo1  1  0.75000000  0.11807200  0.37497600  1
  S  S0  1  0.25000000  0.02087000  0.17023100  1
  S  S1  1  0.75000000  0.97913000  0.82976900  1
  S  S2  1  0.25000000  0.49611500  0.82247300  1
  S  S3  1  0.75000000  0.50388500  0.17752700  1
  S  S4  1  0.25000000  0.27538500  0.51272300  1
  S  S5  1  0.75000000  0.72461500  0.48727700  1
loop_
_geom_bond_atom_site_label_1
_geom_bond_atom_site_label_2
_geom_bond_distance
_geom_bond_site_symmetry_2
Mo0 S4 2.362769 1_565
Mo0 S5 2.385048 1_555
Mo0 S5 2.385048 1_455
Mo0 S2 2.543477 1_555
Mo0 S1 2.610460 1_455
Mo0 S1 2.610460 1_555
Mo1 S5 2.362769 1_545
Mo1 S4 2.385048 1_655
Mo1 S4 2.385048 1_555
Mo1 S3 2.543477 1_555
Mo1 S0 2.610460 1_555
Mo1 S0 2.610460 1_655
S0 Ti1 2.464886 1_554
S0 Ti1 2.464886 1_454
S0 Ti0 2.541995 1_545
S1 Ti0 2.464886 1_656
S1 Ti0 2.464886 1_556
S1 Ti1 2.541995 1_565
S2 Ti1 2.421521 1_455
S2 Ti1 2.421521 1_555
S2 Ti0 2.451131 1_556
S3 Ti0 2.421521 1_555
S3 Ti0 2.421521 1_655
S3 Ti1 2.451131 1_554
