# generated using pymatgen
data_TaNiP
_symmetry_space_group_name_H-M   'P 1'
_cell_length_a   3.55882622
_cell_length_b   6.08794129
_cell_length_c   7.06799845
_cell_angle_alpha   90.00000000
_cell_angle_beta   90.00000000
_cell_angle_gamma   90.00000000
_symmetry_Int_Tables_number   1
_chemical_formula_structural   TaNiP
_chemical_formula_sum   'Ta4 Ni4 P4'
_cell_volume   153.13472494
_cell_formula_units_Z   4
loop_
 _symmetry_equiv_pos_site_id
 _symmetry_equiv_pos_as_xyz
  1  'x, y, z'
loop_
 _atom_site_type_symbol
 _atom_site_label
 _atom_site_symmetry_multiplicity
 _atom_site_fract_x
 _atom_site_fract_y
 _atom_site_fract_z
 _atom_site_occupancy
  Ta  Ta0  1  0.25000000  0.02140357  0.83484245  1
  Ta  Ta1  1  0.25000000  0.52140357  0.66515755  1
  Ta  Ta2  1  0.75000000  0.97859643  0.16515755  1
  Ta  Ta3  1  0.75000000  0.47859643  0.33484245  1
  Ni  Ni0  1  0.25000000  0.15060500  0.43013154  1
  Ni  Ni1  1  0.25000000  0.65060500  0.06986846  1
  Ni  Ni2  1  0.75000000  0.84939500  0.56986846  1
  Ni  Ni3  1  0.75000000  0.34939500  0.93013154  1
  P  P0  1  0.25000000  0.28394667  0.12283004  1
  P  P1  1  0.25000000  0.78394667  0.37716996  1
  P  P2  1  0.75000000  0.71605333  0.87716996  1
  P  P3  1  0.75000000  0.21605333  0.62283004  1
loop_
_geom_bond_atom_site_label_1
_geom_bond_atom_site_label_2
_geom_bond_distance
_geom_bond_site_symmetry_2
Ni0 P1 2.263364 1_545
Ni0 P3 2.275982 1_455
Ni0 P3 2.275982 1_555
Ni0 P0 2.318748 1_555
Ni1 P0 2.263364 1_555
Ni1 P2 2.275982 1_454
Ni1 P2 2.275982 1_554
Ni1 P1 2.318748 1_555
Ni2 P3 2.263364 1_565
Ni2 P1 2.275982 1_555
Ni2 P1 2.275982 1_655
Ni2 P2 2.318748 1_555
Ni3 P2 2.263364 1_555
Ni3 P0 2.275982 1_556
Ni3 P0 2.275982 1_656
Ni3 P3 2.318748 1_555
P0 Ta0 2.588041 1_554
P0 Ta2 2.590661 1_445
P0 Ta2 2.590661 1_545
P0 Ta3 2.610764 1_455
P0 Ta3 2.610764 1_555
P1 Ta1 2.588041 1_555
P1 Ta3 2.590661 1_455
P1 Ta3 2.590661 1_555
P1 Ta2 2.610764 1_455
P1 Ta2 2.610764 1_555
P2 Ta2 2.588041 1_556
P2 Ta0 2.590661 1_565
P2 Ta0 2.590661 1_665
P2 Ta1 2.610764 1_555
P2 Ta1 2.610764 1_655
P3 Ta3 2.588041 1_555
P3 Ta1 2.590661 1_655
P3 Ta1 2.590661 1_555
P3 Ta0 2.610764 1_655
P3 Ta0 2.610764 1_555
