# generated using pymatgen
data_CsNb3VCl11
_symmetry_space_group_name_H-M   'P 1'
_cell_length_a   6.95418700
_cell_length_b   13.69658300
_cell_length_c   17.33412300
_cell_angle_alpha   90.00000000
_cell_angle_beta   90.00000000
_cell_angle_gamma   90.00000000
_symmetry_Int_Tables_number   1
_chemical_formula_structural   CsNb3VCl11
_chemical_formula_sum   'Cs4 Nb12 V4 Cl44'
_cell_volume   1651.05093832
_cell_formula_units_Z   4
loop_
 _symmetry_equiv_pos_site_id
 _symmetry_equiv_pos_as_xyz
  1  'x, y, z'
loop_
 _atom_site_type_symbol
 _atom_site_label
 _atom_site_symmetry_multiplicity
 _atom_site_fract_x
 _atom_site_fract_y
 _atom_site_fract_z
 _atom_site_occupancy
  Cs  Cs0  1  0.25000000  0.99572500  0.25868800  1
  Cs  Cs1  1  0.75000000  0.00427500  0.74131200  1
  Cs  Cs2  1  0.75000000  0.50427500  0.75868800  1
  Cs  Cs3  1  0.25000000  0.49572500  0.24131200  1
  Nb  Nb0  1  0.04418600  0.74801800  0.51244700  1
  Nb  Nb1  1  0.95581400  0.25198200  0.48755300  1
  Nb  Nb2  1  0.95581400  0.75198200  0.01244700  1
  Nb  Nb3  1  0.54418600  0.25198200  0.48755300  1
  Nb  Nb4  1  0.04418600  0.24801800  0.98755300  1
  Nb  Nb5  1  0.45581400  0.74801800  0.51244700  1
  Nb  Nb6  1  0.45581400  0.24801800  0.98755300  1
  Nb  Nb7  1  0.54418600  0.75198200  0.01244700  1
  Nb  Nb8  1  0.25000000  0.69053100  0.64746900  1
  Nb  Nb9  1  0.75000000  0.30946900  0.35253100  1
  Nb  Nb10  1  0.75000000  0.80946900  0.14746900  1
  Nb  Nb11  1  0.25000000  0.19053100  0.85253100  1
  V  V0  1  0.25000000  0.68026700  0.83582100  1
  V  V1  1  0.75000000  0.31973300  0.16417900  1
  V  V2  1  0.75000000  0.81973300  0.33582100  1
  V  V3  1  0.25000000  0.18026700  0.66417900  1
  Cl  Cl0  1  0.25000000  0.82089000  0.92816300  1
  Cl  Cl1  1  0.75000000  0.17911000  0.07183700  1
  Cl  Cl2  1  0.75000000  0.67911000  0.42816300  1
  Cl  Cl3  1  0.25000000  0.32089000  0.57183700  1
  Cl  Cl4  1  0.25000000  0.85614600  0.59004200  1
  Cl  Cl5  1  0.75000000  0.14385400  0.40995800  1
  Cl  Cl6  1  0.75000000  0.64385400  0.09004200  1
  Cl  Cl7  1  0.25000000  0.35614600  0.90995800  1
  Cl  Cl8  1  0.01354100  0.75363900  0.74685700  1
  Cl  Cl9  1  0.98645900  0.24636100  0.25314300  1
  Cl  Cl10  1  0.98645900  0.74636100  0.24685700  1
  Cl  Cl11  1  0.51354100  0.24636100  0.25314300  1
  Cl  Cl12  1  0.01354100  0.25363900  0.75314300  1
  Cl  Cl13  1  0.48645900  0.75363900  0.74685700  1
  Cl  Cl14  1  0.48645900  0.25363900  0.75314300  1
  Cl  Cl15  1  0.51354100  0.74636100  0.24685700  1
  Cl  Cl16  1  0.49968200  0.61021400  0.92023100  1
  Cl  Cl17  1  0.50031800  0.38978600  0.07976900  1
  Cl  Cl18  1  0.50031800  0.88978600  0.42023100  1
  Cl  Cl19  1  0.99968200  0.38978600  0.07976900  1
  Cl  Cl20  1  0.49968200  0.11021400  0.57976900  1
  Cl  Cl21  1  0.00031800  0.61021400  0.92023100  1
  Cl  Cl22  1  0.00031800  0.11021400  0.57976900  1
  Cl  Cl23  1  0.99968200  0.88978600  0.42023100  1
  Cl  Cl24  1  0.25000000  0.54246900  0.74557400  1
  Cl  Cl25  1  0.75000000  0.45753100  0.25442600  1
  Cl  Cl26  1  0.75000000  0.95753100  0.24557400  1
  Cl  Cl27  1  0.25000000  0.04246900  0.75442600  1
  Cl  Cl28  1  0.00765000  0.59090800  0.58048200  1
  Cl  Cl29  1  0.99235000  0.40909200  0.41951800  1
  Cl  Cl30  1  0.99235000  0.90909200  0.08048200  1
  Cl  Cl31  1  0.50765000  0.40909200  0.41951800  1
  Cl  Cl32  1  0.00765000  0.09090800  0.91951800  1
  Cl  Cl33  1  0.49235000  0.59090800  0.58048200  1
  Cl  Cl34  1  0.49235000  0.09090800  0.91951800  1
  Cl  Cl35  1  0.50765000  0.90909200  0.08048200  1
  Cl  Cl36  1  0.25000000  0.16039200  0.07994100  1
  Cl  Cl37  1  0.75000000  0.83960800  0.92005900  1
  Cl  Cl38  1  0.75000000  0.33960800  0.57994100  1
  Cl  Cl39  1  0.25000000  0.66039200  0.42005900  1
  Cl  Cl40  1  0.25000000  0.67943300  0.08305100  1
  Cl  Cl41  1  0.75000000  0.32056700  0.91694900  1
  Cl  Cl42  1  0.75000000  0.82056700  0.58305100  1
  Cl  Cl43  1  0.25000000  0.17943300  0.41694900  1
loop_
_geom_bond_atom_site_label_1
_geom_bond_atom_site_label_2
_geom_bond_distance
_geom_bond_site_symmetry_2
Cl0 V0 2.504361 1_555
Cl0 Nb7 2.685266 1_556
Cl0 Nb2 2.685266 1_456
Cl1 V1 2.504361 1_555
Cl1 Nb4 2.685266 1_654
Cl1 Nb6 2.685266 1_554
Cl2 V2 2.504361 1_555
Cl2 Nb0 2.685266 1_655
Cl2 Nb5 2.685266 1_555
Cl3 V3 2.504361 1_555
Cl3 Nb3 2.685266 1_555
Cl3 Nb1 2.685266 1_455
Cl4 Nb5 2.459874 1_555
Cl4 Nb0 2.459874 1_555
Cl4 Nb8 2.477170 1_555
Cl5 Nb1 2.459874 1_555
Cl5 Nb3 2.459874 1_555
Cl5 Nb9 2.477170 1_555
Cl6 Nb2 2.459874 1_555
Cl6 Nb7 2.459874 1_555
Cl6 Nb10 2.477170 1_555
Cl7 Nb6 2.459874 1_555
Cl7 Nb4 2.459874 1_555
Cl7 Nb11 2.477170 1_555
Cl8 V0 2.468201 1_555
Cl8 Nb8 2.533607 1_555
Cl8 Cs2 3.881506 1_455
Cl8 Cs1 3.892632 1_465
Cl9 V1 2.468201 1_555
Cl9 Nb9 2.533607 1_555
Cl9 Cs3 3.881506 1_655
Cl9 Cs0 3.892632 1_645
Cl10 V2 2.468201 1_555
Cl10 Nb10 2.533607 1_555
Cl10 Cs0 3.881506 1_655
Cl10 Cs3 3.892632 1_655
Cl11 V1 2.468201 1_555
Cl11 Nb9 2.533607 1_555
Cl11 Cs3 3.881506 1_555
Cl11 Cs0 3.892632 1_545
Cl12 V3 2.468201 1_555
Cl12 Nb11 2.533607 1_555
Cl12 Cs1 3.881506 1_455
Cl12 Cs2 3.892632 1_455
Cl13 V0 2.468201 1_555
Cl13 Nb8 2.533607 1_555
Cl13 Cs2 3.881506 1_555
Cl13 Cs1 3.892632 1_565
Cl14 V3 2.468201 1_555
Cl14 Nb11 2.533607 1_555
Cl14 Cs1 3.881506 1_555
Cl14 Cs2 3.892632 1_555
Cl15 V2 2.468201 1_555
Cl15 Nb10 2.533607 1_555
Cl15 Cs0 3.881506 1_555
Cl15 Cs3 3.892632 1_555
Cl16 V0 2.465026 1_555
Cl16 Nb7 2.534024 1_556
Cl16 Cs2 3.602333 1_555
Cl17 V1 2.465026 1_555
Cl17 Nb6 2.534024 1_554
Cl17 Cs3 3.602333 1_555
Cl18 V2 2.465026 1_555
Cl18 Nb5 2.534024 1_555
Cl18 Cs0 3.602333 1_555
Cl19 V1 2.465026 1_555
Cl19 Nb4 2.534024 1_654
Cl19 Cs3 3.602333 1_655
Cl20 V3 2.465026 1_555
Cl20 Nb3 2.534024 1_555
Cl20 Cs1 3.602333 1_555
Cl21 V0 2.465026 1_555
Cl21 Nb2 2.534024 1_456
Cl21 Cs2 3.602333 1_455
Cl22 V3 2.465026 1_555
Cl22 Nb1 2.534024 1_455
Cl22 Cs1 3.602333 1_455
Cl23 V2 2.465026 1_555
Cl23 Nb0 2.534024 1_655
Cl23 Cs0 3.602333 1_655
Cl24 V0 2.451394 1_555
Cl24 Nb8 2.646597 1_555
Cl24 Cs2 3.523566 1_555
Cl24 Cs2 3.523566 1_455
Cl25 V1 2.451394 1_555
Cl25 Nb9 2.646597 1_555
Cl25 Cs3 3.523566 1_655
Cl25 Cs3 3.523566 1_555
Cl26 V2 2.451394 1_555
Cl26 Nb10 2.646597 1_555
Cl26 Cs0 3.523566 1_555
Cl26 Cs0 3.523566 1_655
Cl27 V3 2.451394 1_555
Cl27 Nb11 2.646597 1_555
Cl27 Cs1 3.523566 1_455
Cl27 Cs1 3.523566 1_555
Cl28 Nb8 2.459784 1_555
Cl28 Nb0 2.466964 1_555
Cl28 Cs2 3.763046 1_455
Cl29 Nb9 2.459784 1_555
Cl29 Nb1 2.466964 1_555
Cl29 Cs3 3.763046 1_655
Cl30 Nb10 2.459784 1_555
Cl30 Nb2 2.466964 1_555
Cl30 Cs0 3.763046 1_655
Cl31 Nb9 2.459784 1_555
Cl31 Nb3 2.466964 1_555
Cl31 Cs3 3.763046 1_555
Cl32 Nb11 2.459784 1_555
Cl32 Nb4 2.466964 1_555
Cl32 Cs1 3.763046 1_455
Cl33 Nb8 2.459784 1_555
Cl33 Nb5 2.466964 1_555
Cl33 Cs2 3.763046 1_555
Cl34 Nb11 2.459784 1_555
Cl34 Nb6 2.466964 1_555
Cl34 Cs1 3.763046 1_555
Cl35 Nb10 2.459784 1_555
Cl35 Nb7 2.466964 1_555
Cl35 Cs0 3.763046 1_555
Cl36 Nb6 2.460416 1_554
Cl36 Nb4 2.460416 1_554
Cl36 Cs0 3.832354 1_545
Cl37 Nb2 2.460416 1_556
Cl37 Nb7 2.460416 1_556
Cl37 Cs1 3.832354 1_565
Cl38 Nb1 2.460416 1_555
Cl38 Nb3 2.460416 1_555
Cl38 Cs2 3.832354 1_555
Cl39 Nb5 2.460416 1_555
Cl39 Nb0 2.460416 1_555
Cl39 Cs3 3.832354 1_555
Cl40 Nb7 2.582753 1_555
Cl40 Nb2 2.582753 1_455
Cl40 Cs3 3.722486 1_555
Cl41 Nb4 2.582753 1_655
Cl41 Nb6 2.582753 1_555
Cl41 Cs2 3.722486 1_555
Cl42 Nb0 2.582753 1_655
Cl42 Nb5 2.582753 1_555
Cl42 Cs1 3.722486 1_565
Cl43 Nb3 2.582753 1_555
Cl43 Nb1 2.582753 1_455
Cl43 Cs0 3.722486 1_545
