# generated using pymatgen
data_ZrFeSi2
_symmetry_space_group_name_H-M   'P 1'
_cell_length_a   5.13535000
_cell_length_b   9.77765984
_cell_length_c   14.22722500
_cell_angle_alpha   90.00000000
_cell_angle_beta   90.00000000
_cell_angle_gamma   105.22476669
_symmetry_Int_Tables_number   1
_chemical_formula_structural   ZrFeSi2
_chemical_formula_sum   'Zr12 Fe12 Si24'
_cell_volume   689.30092413
_cell_formula_units_Z   12
loop_
 _symmetry_equiv_pos_site_id
 _symmetry_equiv_pos_as_xyz
  1  'x, y, z'
loop_
 _atom_site_type_symbol
 _atom_site_label
 _atom_site_symmetry_multiplicity
 _atom_site_fract_x
 _atom_site_fract_y
 _atom_site_fract_z
 _atom_site_occupancy
  Zr  Zr0  1  0.20236500  0.40472900  0.81726900  1
  Zr  Zr1  1  0.79763500  0.59527100  0.18273100  1
  Zr  Zr2  1  0.29763500  0.59527100  0.31726900  1
  Zr  Zr3  1  0.70236500  0.40472900  0.68273100  1
  Zr  Zr4  1  0.46501700  0.93003300  0.82480000  1
  Zr  Zr5  1  0.53498300  0.06996700  0.17520000  1
  Zr  Zr6  1  0.03498300  0.06996700  0.32480000  1
  Zr  Zr7  1  0.96501700  0.93003300  0.67520000  1
  Zr  Zr8  1  0.12378500  0.24756900  0.58236800  1
  Zr  Zr9  1  0.87621600  0.75243100  0.41763200  1
  Zr  Zr10  1  0.37621500  0.75243100  0.08236800  1
  Zr  Zr11  1  0.62378400  0.24756900  0.91763200  1
  Fe  Fe0  1  0.00000000  0.50000000  0.50000000  1
  Fe  Fe1  1  0.50000000  0.50000000  0.50000000  1
  Fe  Fe2  1  0.00000000  0.50000000  0.00000000  1
  Fe  Fe3  1  0.50000000  0.50000000  0.00000000  1
  Fe  Fe4  1  0.08759500  0.67519000  0.75000000  1
  Fe  Fe5  1  0.41240500  0.32481000  0.25000000  1
  Fe  Fe6  1  0.91240500  0.32481000  0.25000000  1
  Fe  Fe7  1  0.58759500  0.67519000  0.75000000  1
  Fe  Fe8  1  0.04026700  0.08053300  0.87689300  1
  Fe  Fe9  1  0.95973300  0.91946700  0.12310700  1
  Fe  Fe10  1  0.45973300  0.91946700  0.37689300  1
  Fe  Fe11  1  0.54026700  0.08053300  0.62310700  1
  Si  Si0  1  0.24418500  0.00000000  0.50000000  1
  Si  Si1  1  0.74418500  0.00000000  0.00000000  1
  Si  Si2  1  0.75581500  0.00000000  0.50000000  1
  Si  Si3  1  0.25581500  0.00000000  0.00000000  1
  Si  Si4  1  0.83344000  0.16688100  0.75000000  1
  Si  Si5  1  0.66656000  0.83311900  0.25000000  1
  Si  Si6  1  0.16656000  0.83311900  0.25000000  1
  Si  Si7  1  0.33344000  0.16688100  0.75000000  1
  Si  Si8  1  0.33132400  0.66264900  0.89721800  1
  Si  Si9  1  0.66867600  0.33735100  0.10278200  1
  Si  Si10  1  0.16867600  0.33735100  0.39721800  1
  Si  Si11  1  0.83132400  0.66264900  0.60278200  1
  Si  Si12  1  0.41090200  0.82180400  0.64435900  1
  Si  Si13  1  0.58909800  0.17819600  0.35564100  1
  Si  Si14  1  0.08909800  0.17819600  0.14435900  1
  Si  Si15  1  0.91090200  0.82180400  0.85564100  1
  Si  Si16  1  0.26496000  0.52992100  0.64336100  1
  Si  Si17  1  0.73504000  0.47007900  0.35663900  1
  Si  Si18  1  0.23504000  0.47007900  0.14336100  1
  Si  Si19  1  0.76496000  0.52992100  0.85663900  1
  Si  Si20  1  0.35965900  0.71931800  0.49287800  1
  Si  Si21  1  0.64034100  0.28068200  0.50712200  1
  Si  Si22  1  0.14034100  0.28068200  0.99287800  1
  Si  Si23  1  0.85965900  0.71931800  0.00712200  1
loop_
_geom_bond_atom_site_label_1
_geom_bond_atom_site_label_2
_geom_bond_distance
_geom_bond_site_symmetry_2
Fe0 Si16 2.426522 1_555
Fe0 Si17 2.426522 1_455
Fe0 Si20 2.437192 1_555
Fe0 Si21 2.437192 1_455
Fe0 Si10 2.478164 1_555
Fe0 Si11 2.478164 1_455
Fe0 Fe1 2.567675 1_455
Fe0 Fe1 2.567675 1_555
Fe0 Zr9 2.948445 1_455
Fe0 Zr8 2.948447 1_555
Fe0 Zr3 3.035599 1_455
Fe0 Zr2 3.035599 1_555
Fe1 Si16 2.426524 1_555
Fe1 Si17 2.426524 1_555
Fe1 Si20 2.437192 1_555
Fe1 Si21 2.437192 1_555
Fe1 Si10 2.478162 1_555
Fe1 Si11 2.478162 1_555
Fe1 Zr8 2.948445 1_555
Fe1 Zr9 2.948447 1_555
Fe1 Zr2 3.035601 1_555
Fe1 Zr3 3.035601 1_555
Fe2 Si19 2.426524 1_454
Fe2 Si18 2.426524 1_555
Fe2 Si22 2.437192 1_554
Fe2 Si23 2.437192 1_455
Fe2 Si9 2.478162 1_455
Fe2 Si8 2.478162 1_554
Fe2 Fe3 2.567675 1_455
Fe2 Fe3 2.567675 1_555
Fe2 Zr10 2.948445 1_555
Fe2 Zr11 2.948447 1_454
Fe2 Zr0 3.035601 1_554
Fe2 Zr1 3.035601 1_455
Fe3 Si19 2.426522 1_554
Fe3 Si18 2.426522 1_555
Fe3 Si22 2.437192 1_554
Fe3 Si23 2.437192 1_555
Fe3 Si9 2.478164 1_555
Fe3 Si8 2.478164 1_554
Fe3 Zr11 2.948445 1_554
Fe3 Zr10 2.948447 1_555
Fe3 Zr0 3.035599 1_554
Fe3 Zr1 3.035599 1_555
Fe4 Si12 2.412572 1_555
Fe4 Si15 2.412572 1_455
Fe4 Si16 2.414216 1_555
Fe4 Si19 2.414218 1_455
Fe4 Si8 2.459507 1_555
Fe4 Si11 2.459510 1_455
Fe4 Fe7 2.567675 1_555
Fe4 Fe7 2.567675 1_455
Fe4 Zr7 2.926000 1_455
Fe4 Zr4 2.926002 1_555
Fe4 Zr3 3.012501 1_455
Fe4 Zr0 3.012503 1_555
Fe5 Si13 2.412572 1_555
Fe5 Si14 2.412572 1_555
Fe5 Si18 2.414216 1_555
Fe5 Si17 2.414218 1_555
Fe5 Si10 2.459507 1_555
Fe5 Si9 2.459510 1_555
Fe5 Fe6 2.567675 1_555
Fe5 Fe6 2.567675 1_455
Fe5 Zr5 2.926000 1_555
Fe5 Zr6 2.926002 1_555
Fe5 Zr1 3.012501 1_555
Fe5 Zr2 3.012503 1_555
Fe6 Si14 2.412572 1_655
Fe6 Si13 2.412572 1_555
Fe6 Si17 2.414216 1_555
Fe6 Si18 2.414218 1_655
Fe6 Si9 2.459507 1_555
Fe6 Si10 2.459510 1_655
Fe6 Zr6 2.926000 1_655
Fe6 Zr5 2.926002 1_555
Fe6 Zr2 3.012501 1_655
Fe6 Zr1 3.012503 1_555
Fe7 Si12 2.412572 1_555
Fe7 Si15 2.412572 1_555
Fe7 Si19 2.414216 1_555
Fe7 Si16 2.414218 1_555
Fe7 Si11 2.459507 1_555
Fe7 Si8 2.459510 1_555
Fe7 Zr4 2.926000 1_555
Fe7 Zr7 2.926002 1_555
Fe7 Zr0 3.012501 1_555
Fe7 Zr3 3.012503 1_555
Fe8 Si3 2.317483 1_556
Fe8 Si1 2.317486 1_456
Fe8 Si7 2.360321 1_555
Fe8 Si4 2.360327 1_455
Fe8 Si15 2.459632 1_445
Fe8 Si22 2.507722 1_555
Fe8 Zr11 3.067952 1_555
Fe8 Zr11 3.067961 1_455
Fe9 Si1 2.317483 1_565
Fe9 Si3 2.317486 1_665
Fe9 Si5 2.360321 1_555
Fe9 Si6 2.360327 1_655
Fe9 Si14 2.459632 1_665
Fe9 Si23 2.507722 1_555
Fe9 Zr10 3.067956 1_555
Fe9 Zr10 3.067956 1_655
Fe10 Si0 2.317483 1_565
Fe10 Si2 2.317486 1_565
Fe10 Si6 2.360321 1_555
Fe10 Si5 2.360327 1_555
Fe10 Si13 2.459632 1_565
Fe10 Si20 2.507722 1_555
Fe10 Zr9 3.067952 1_455
Fe10 Zr9 3.067961 1_555
Fe11 Si2 2.317483 1_555
Fe11 Si0 2.317486 1_555
Fe11 Si4 2.360321 1_555
Fe11 Si7 2.360327 1_555
Fe11 Si12 2.459632 1_545
Fe11 Si21 2.507722 1_555
Fe11 Zr8 3.067956 1_655
Fe11 Zr8 3.067956 1_555
Si0 Si2 2.507951 1_455
Si0 Si2 2.627399 1_555
Si0 Zr7 2.867279 1_445
Si0 Zr6 2.867281 1_555
Si0 Zr8 2.898476 1_555
Si0 Zr9 2.898476 1_445
Si1 Si3 2.507951 1_555
Si1 Si3 2.627399 1_655
Si1 Zr4 2.867279 1_544
Si1 Zr5 2.867281 1_555
Si1 Zr11 2.898478 1_554
Si1 Zr10 2.898478 1_545
Si2 Zr6 2.867279 1_655
Si2 Zr7 2.867281 1_545
Si2 Zr8 2.898478 1_655
Si2 Zr9 2.898478 1_545
Si3 Zr5 2.867279 1_555
Si3 Zr4 2.867281 1_544
Si3 Zr11 2.898476 1_554
Si3 Zr10 2.898476 1_545
Si4 Si7 2.567675 1_555
Si4 Si7 2.567675 1_655
Si4 Zr3 2.756737 1_555
Si4 Zr0 2.756742 1_655
Si4 Zr4 2.788174 1_545
Si4 Zr7 2.788179 1_545
Si4 Zr11 2.813480 1_555
Si4 Zr8 2.813483 1_655
Si5 Si6 2.567675 1_655
Si5 Si6 2.567675 1_555
Si5 Zr1 2.756737 1_555
Si5 Zr2 2.756742 1_555
Si5 Zr6 2.788174 1_665
Si5 Zr5 2.788179 1_565
Si5 Zr9 2.813480 1_555
Si5 Zr10 2.813483 1_555
Si6 Zr2 2.756737 1_555
Si6 Zr1 2.756742 1_455
Si6 Zr5 2.788174 1_565
Si6 Zr6 2.788179 1_565
Si6 Zr10 2.813478 1_555
Si6 Zr9 2.813480 1_455
Si7 Zr0 2.756737 1_555
Si7 Zr3 2.756742 1_555
Si7 Zr7 2.788174 1_445
Si7 Zr4 2.788179 1_545
Si7 Zr8 2.813478 1_555
Si7 Zr11 2.813480 1_555
Si8 Zr0 2.686069 1_555
Si8 Zr4 2.724924 1_555
Si8 Zr10 2.767010 1_556
Si9 Zr1 2.686069 1_555
Si9 Zr5 2.724924 1_555
Si9 Zr11 2.767010 1_554
Si10 Zr2 2.686069 1_555
Si10 Zr6 2.724924 1_555
Si10 Zr8 2.767010 1_555
Si11 Zr3 2.686069 1_555
Si11 Zr7 2.724924 1_555
Si11 Zr9 2.767010 1_555
Si12 Si20 2.362116 1_555
Si12 Zr4 2.762789 1_555
Si12 Zr7 2.797872 1_455
Si12 Zr7 2.797877 1_555
Si13 Si21 2.362116 1_555
Si13 Zr5 2.762789 1_555
Si13 Zr6 2.797872 1_655
Si13 Zr6 2.797877 1_555
Si14 Si22 2.362116 1_554
Si14 Zr6 2.762789 1_555
Si14 Zr5 2.797872 1_555
Si14 Zr5 2.797877 1_455
Si15 Si23 2.362116 1_556
Si15 Zr7 2.762789 1_555
Si15 Zr4 2.797872 1_555
Si15 Zr4 2.797877 1_655
Si16 Zr0 2.741689 1_555
Si16 Zr8 2.801624 1_555
Si16 Zr3 2.881271 1_455
Si16 Zr3 2.881280 1_555
Si17 Zr1 2.741689 1_555
Si17 Zr9 2.801624 1_555
Si17 Zr2 2.881271 1_655
Si17 Zr2 2.881280 1_555
Si18 Zr2 2.741689 1_555
Si18 Zr10 2.801624 1_555
Si18 Zr1 2.881271 1_555
Si18 Zr1 2.881280 1_455
Si19 Zr3 2.741689 1_555
Si19 Zr11 2.801624 1_555
Si19 Zr0 2.881271 1_555
Si19 Zr0 2.881280 1_655
Si20 Zr2 2.758948 1_555
Si20 Zr9 2.799392 1_455
Si20 Zr9 2.799397 1_555
Si21 Zr3 2.758948 1_555
Si21 Zr8 2.799392 1_555
Si21 Zr8 2.799397 1_655
Si22 Zr0 2.758948 1_555
Si22 Zr11 2.799392 1_555
Si22 Zr11 2.799397 1_455
Si23 Zr1 2.758948 1_555
Si23 Zr10 2.799392 1_655
Si23 Zr10 2.799397 1_555
