# generated using pymatgen
data_Rb2Mo3SeO12
_symmetry_space_group_name_H-M   'P 1'
_cell_length_a   7.29654645
_cell_length_b   7.29654645
_cell_length_c   12.03066108
_cell_angle_alpha   90.00000000
_cell_angle_beta   90.00000000
_cell_angle_gamma   119.99999201
_symmetry_Int_Tables_number   1
_chemical_formula_structural   Rb2Mo3SeO12
_chemical_formula_sum   'Rb4 Mo6 Se2 O24'
_cell_volume   554.69578003
_cell_formula_units_Z   2
loop_
 _symmetry_equiv_pos_site_id
 _symmetry_equiv_pos_as_xyz
  1  'x, y, z'
loop_
 _atom_site_type_symbol
 _atom_site_label
 _atom_site_symmetry_multiplicity
 _atom_site_fract_x
 _atom_site_fract_y
 _atom_site_fract_z
 _atom_site_occupancy
  Rb  Rb0  1  0.33333300  0.66666700  0.94836418  1
  Rb  Rb1  1  0.66666700  0.33333300  0.44836418  1
  Rb  Rb2  1  0.66666700  0.33333300  0.06467217  1
  Rb  Rb3  1  0.33333300  0.66666700  0.56467217  1
  Mo  Mo0  1  0.79498014  0.13441213  0.73079046  1
  Mo  Mo1  1  0.86558787  0.66056801  0.73079046  1
  Mo  Mo2  1  0.33943199  0.20501986  0.73079046  1
  Mo  Mo3  1  0.20501986  0.86558787  0.23079046  1
  Mo  Mo4  1  0.13441213  0.33943199  0.23079046  1
  Mo  Mo5  1  0.66056801  0.79498014  0.23079046  1
  Se  Se0  1  -0.00000000  -0.00000000  0.49882166  1
  Se  Se1  1  -0.00000000  -0.00000000  0.99882166  1
  O  O0  1  0.79598599  0.20070453  0.86699267  1
  O  O1  1  0.79929547  0.59528145  0.86699267  1
  O  O2  1  0.40471855  0.20401401  0.86699267  1
  O  O3  1  0.20401401  0.79929547  0.36699267  1
  O  O4  1  0.20070453  0.40471855  0.36699267  1
  O  O5  1  0.59528145  0.79598599  0.36699267  1
  O  O6  1  0.88154593  0.12762969  0.55953557  1
  O  O7  1  0.87237031  0.75391725  0.55953557  1
  O  O8  1  0.24608275  0.11845407  0.55953557  1
  O  O9  1  0.11845407  0.87237031  0.05953557  1
  O  O10  1  0.12762969  0.24608275  0.05953557  1
  O  O11  1  0.75391725  0.88154593  0.05953557  1
  O  O12  1  0.53958639  0.08667929  0.68397871  1
  O  O13  1  0.91332071  0.45290610  0.68397871  1
  O  O14  1  0.54709390  0.46041361  0.68397871  1
  O  O15  1  0.46041361  0.91332071  0.18397871  1
  O  O16  1  0.08667929  0.54709390  0.18397871  1
  O  O17  1  0.45290610  0.53958639  0.18397871  1
  O  O18  1  0.74814679  0.87037694  0.74354125  1
  O  O19  1  0.12962306  0.87777085  0.74354125  1
  O  O20  1  0.12222915  0.25185321  0.74354125  1
  O  O21  1  0.25185321  0.12962306  0.24354125  1
  O  O22  1  0.87037694  0.12222915  0.24354125  1
  O  O23  1  0.87777085  0.74814679  0.24354125  1
loop_
_geom_bond_atom_site_label_1
_geom_bond_atom_site_label_2
_geom_bond_distance
_geom_bond_site_symmetry_2
Mo0 O0 1.707482 1_555
Mo0 O18 1.787048 1_545
Mo0 O12 1.806114 1_555
Mo0 O20 2.100770 1_655
Mo0 O13 2.111080 1_555
Mo0 O6 2.162762 1_555
Mo1 O1 1.707482 1_555
Mo1 O19 1.787050 1_655
Mo1 O13 1.806121 1_555
Mo1 O18 2.100777 1_555
Mo1 O14 2.111081 1_555
Mo1 O7 2.162765 1_555
Mo2 O2 1.707482 1_555
Mo2 O20 1.787055 1_555
Mo2 O14 1.806116 1_555
Mo2 O19 2.100771 1_545
Mo2 O12 2.111087 1_555
Mo2 O8 2.162764 1_555
Mo3 O3 1.707482 1_555
Mo3 O21 1.787048 1_565
Mo3 O15 1.806114 1_555
Mo3 O23 2.100770 1_455
Mo3 O16 2.111080 1_555
Mo3 O9 2.162762 1_555
Mo4 O4 1.707482 1_555
Mo4 O22 1.787050 1_455
Mo4 O16 1.806121 1_555
Mo4 O21 2.100777 1_555
Mo4 O17 2.111081 1_555
Mo4 O10 2.162765 1_555
Mo5 O5 1.707482 1_555
Mo5 O23 1.787055 1_555
Mo5 O17 1.806116 1_555
Mo5 O22 2.100771 1_565
Mo5 O15 2.111087 1_555
Mo5 O11 2.162764 1_555
O0 Rb2 2.897566 1_556
O1 Rb2 2.897569 1_556
O2 Rb2 2.897569 1_556
O3 Rb3 2.897566 1_555
O4 Rb3 2.897569 1_555
O5 Rb3 2.897569 1_555
O6 Se0 1.718336 1_655
O6 Rb1 2.975412 1_555
O7 Se0 1.718330 1_665
O7 Rb1 2.975423 1_555
O8 Se0 1.718330 1_555
O8 Rb1 2.975423 1_555
O9 Se1 1.718336 1_564
O9 Rb0 2.975412 1_554
O10 Se1 1.718330 1_554
O10 Rb0 2.975423 1_554
O11 Se1 1.718330 1_664
O11 Rb0 2.975423 1_554
O12 Rb3 3.017441 1_545
O13 Rb3 3.017441 1_655
O14 Rb3 3.017452 1_555
O15 Rb2 3.017441 1_565
O16 Rb2 3.017441 1_455
O17 Rb2 3.017452 1_555
