# generated using pymatgen
data_MgAl(Bi3O5)4
_symmetry_space_group_name_H-M   'P 1'
_cell_length_a   8.99253013
_cell_length_b   8.98975872
_cell_length_c   8.98900456
_cell_angle_alpha   108.47524051
_cell_angle_beta   108.55081522
_cell_angle_gamma   108.60741344
_symmetry_Int_Tables_number   1
_chemical_formula_structural   MgAl(Bi3O5)4
_chemical_formula_sum   'Mg1 Al1 Bi12 O20'
_cell_volume   577.79243157
_cell_formula_units_Z   1
loop_
 _symmetry_equiv_pos_site_id
 _symmetry_equiv_pos_as_xyz
  1  'x, y, z'
loop_
 _atom_site_type_symbol
 _atom_site_label
 _atom_site_symmetry_multiplicity
 _atom_site_fract_x
 _atom_site_fract_y
 _atom_site_fract_z
 _atom_site_occupancy
  Mg  Mg0  1  0.82904031  0.83056192  0.82912386  1
  Al  Al0  1  0.07517885  0.07577252  0.07547893  1
  Bi  Bi0  1  0.79069106  0.62390705  0.45179309  1
  Bi  Bi1  1  0.19457414  0.70660271  0.86420084  1
  Bi  Bi2  1  0.83421033  0.31399218  0.12185181  1
  Bi  Bi3  1  0.62558268  0.45230190  0.79065683  1
  Bi  Bi4  1  0.15255707  0.30963249  0.49902699  1
  Bi  Bi5  1  0.70642109  0.86382658  0.19444415  1
  Bi  Bi6  1  0.31489110  0.12283893  0.83498483  1
  Bi  Bi7  1  0.30910602  0.49909351  0.15256730  1
  Bi  Bi8  1  0.45107081  0.79196856  0.62433737  1
  Bi  Bi9  1  0.12130085  0.83455127  0.31308233  1
  Bi  Bi10  1  0.49889964  0.15127086  0.30905466  1
  Bi  Bi11  1  0.86479604  0.19438234  0.70703814  1
  O  O0  1  0.25795983  0.25841375  0.25854900  1
  O  O1  1  0.84940119  0.04086122  0.02801508  1
  O  O2  1  0.02735083  0.84985025  0.03991709  1
  O  O3  1  0.04036074  0.02936096  0.84998906  1
  O  O4  1  0.62719234  0.73347287  0.35308290  1
  O  O5  1  0.35921967  0.73875593  0.11240845  1
  O  O6  1  0.61588792  0.22516593  0.86947425  1
  O  O7  1  0.73338484  0.35172508  0.62634070  1
  O  O8  1  0.36119124  0.24778742  0.61002395  1
  O  O9  1  0.73822050  0.11179695  0.35846735  1
  O  O10  1  0.22644502  0.87044208  0.61639647  1
  O  O11  1  0.24628638  0.60946912  0.36087325  1
  O  O12  1  0.35298351  0.62806008  0.73392472  1
  O  O13  1  0.86914706  0.61632979  0.22531332  1
  O  O14  1  0.60916267  0.36037604  0.24673318  1
  O  O15  1  0.11241793  0.35959672  0.73862919  1
  O  O16  1  0.62828858  0.62711554  0.62759052  1
  O  O17  1  0.39022309  0.99437318  0.99954735  1
  O  O18  1  0.99932781  0.39067002  0.99412179  1
  O  O19  1  0.99437187  0.99996025  0.39010425  1
loop_
_geom_bond_atom_site_label_1
_geom_bond_atom_site_label_2
_geom_bond_distance
_geom_bond_site_symmetry_2
Mg0 O16 1.896827 1_555
Mg0 O1 2.057338 1_566
Mg0 O3 2.057606 1_665
Mg0 O2 2.060336 1_656
Al0 O0 1.717487 1_555
Al0 O2 1.831848 1_545
Al0 O3 1.832316 1_554
Al0 O1 1.833034 1_455
Bi0 O14 2.127141 1_555
Bi0 O4 2.137091 1_555
Bi0 O13 2.345993 1_555
Bi0 O16 2.469256 1_555
Bi1 O5 2.114212 1_556
Bi1 O17 2.237571 1_555
Bi1 O12 2.253525 1_555
Bi1 O15 2.705207 1_555
Bi1 O2 2.805790 1_556
Bi2 O6 2.157806 1_554
Bi2 O18 2.220664 1_554
Bi2 O1 2.394529 1_555
Bi2 O13 2.453152 1_555
Bi2 O14 2.686435 1_555
Bi3 O8 2.128720 1_555
Bi3 O7 2.136103 1_555
Bi3 O6 2.349784 1_555
Bi3 O16 2.465188 1_555
Bi4 O8 2.156547 1_555
Bi4 O15 2.226167 1_555
Bi4 O19 2.364575 1_445
Bi4 O12 2.521191 1_555
Bi4 O0 2.595102 1_555
Bi5 O9 2.113475 1_565
Bi5 O19 2.238700 1_555
Bi5 O4 2.255456 1_555
Bi5 O5 2.706562 1_555
Bi5 O1 2.802002 1_565
Bi6 O10 2.161020 1_545
Bi6 O17 2.219283 1_545
Bi6 O3 2.403900 1_555
Bi6 O6 2.442337 1_555
Bi6 O8 2.683490 1_555
Bi7 O11 2.159400 1_555
Bi7 O5 2.225338 1_555
Bi7 O18 2.366753 1_454
Bi7 O4 2.517245 1_555
Bi7 O0 2.598201 1_555
Bi8 O11 2.127435 1_555
Bi8 O12 2.136118 1_555
Bi8 O10 2.330779 1_555
Bi8 O16 2.498364 1_555
Bi9 O13 2.157436 1_455
Bi9 O19 2.219633 1_455
Bi9 O2 2.393801 1_555
Bi9 O10 2.457501 1_555
Bi9 O11 2.690184 1_555
Bi10 O14 2.159179 1_555
Bi10 O9 2.221211 1_555
Bi10 O17 2.363924 1_544
Bi10 O7 2.513775 1_555
Bi10 O0 2.609846 1_555
Bi11 O15 2.112995 1_655
Bi11 O18 2.236498 1_555
Bi11 O7 2.257199 1_555
Bi11 O9 2.716882 1_555
Bi11 O3 2.785045 1_655
