# generated using pymatgen
data_Na11(Ru4O9)4
_symmetry_space_group_name_H-M   'P 1'
_cell_length_a   5.73123300
_cell_length_b   11.55086535
_cell_length_c   11.97488059
_cell_angle_alpha   73.81456995
_cell_angle_beta   83.22349175
_cell_angle_gamma   75.66076700
_symmetry_Int_Tables_number   1
_chemical_formula_structural   Na11(Ru4O9)4
_chemical_formula_sum   'Na11 Ru16 O36'
_cell_volume   736.58473356
_cell_formula_units_Z   1
loop_
 _symmetry_equiv_pos_site_id
 _symmetry_equiv_pos_as_xyz
  1  'x, y, z'
loop_
 _atom_site_type_symbol
 _atom_site_label
 _atom_site_symmetry_multiplicity
 _atom_site_fract_x
 _atom_site_fract_y
 _atom_site_fract_z
 _atom_site_occupancy
  Na  Na0  1  0.97600000  0.91762000  0.27066100  1
  Na  Na1  1  0.48622900  0.89093100  0.27089500  1
  Na  Na2  1  0.50999600  0.10984200  0.73212500  1
  Na  Na3  1  0.01658400  0.10245100  0.72822900  1
  Na  Na4  1  0.48102000  0.39891100  0.29100200  1
  Na  Na5  1  0.97505100  0.40243300  0.28760800  1
  Na  Na6  1  0.02550700  0.59631800  0.70497000  1
  Na  Na7  1  0.52397700  0.59546700  0.70450700  1
  Na  Na8  1  0.36342500  0.19255300  0.13937300  1
  Na  Na9  1  0.63161200  0.81022400  0.85160900  1
  Na  Na10  1  0.12852400  0.80950200  0.85900000  1
  Ru  Ru0  1  0.36230500  0.69214200  0.11803200  1
  Ru  Ru1  1  0.88836700  0.68570600  0.11973600  1
  Ru  Ru2  1  0.10006200  0.31135900  0.88289800  1
  Ru  Ru3  1  0.64811700  0.31071800  0.88015300  1
  Ru  Ru4  1  0.33194900  0.62396600  0.42556700  1
  Ru  Ru5  1  0.82911400  0.62567800  0.42778100  1
  Ru  Ru6  1  0.16836400  0.37603300  0.57482600  1
  Ru  Ru7  1  0.67001000  0.37439900  0.57147200  1
  Ru  Ru8  1  0.95128500  0.86956900  0.54579300  1
  Ru  Ru9  1  0.40855900  0.86540000  0.54867300  1
  Ru  Ru10  1  0.54964800  0.12864200  0.45892800  1
  Ru  Ru11  1  0.09198500  0.13322300  0.45541300  1
  Ru  Ru12  1  0.52494900  0.99899200  0.99836900  1
  Ru  Ru13  1  0.97814000  0.00002800  0.00094200  1
  Ru  Ru14  1  0.27584700  0.50072800  0.99741300  1
  Ru  Ru15  1  0.72548700  0.50475500  0.99870200  1
  O  O0  1  0.06547700  0.82022800  0.06106900  1
  O  O1  1  0.58719200  0.81208800  0.05881800  1
  O  O2  1  0.42732800  0.18912200  0.93546300  1
  O  O3  1  0.92141600  0.17634400  0.93780500  1
  O  O4  1  0.79342100  0.97819900  0.87344100  1
  O  O5  1  0.28648500  0.98072200  0.89285700  1
  O  O6  1  0.70431500  0.01571500  0.12378100  1
  O  O7  1  0.22269000  0.01160500  0.10454900  1
  O  O8  1  0.02328100  0.72270200  0.47921200  1
  O  O9  1  0.51312200  0.72458500  0.47675100  1
  O  O10  1  0.47644000  0.27380600  0.52561700  1
  O  O11  1  0.98616600  0.27575300  0.52437100  1
  O  O12  1  0.17254100  0.96052900  0.42162600  1
  O  O13  1  0.66151800  0.94903500  0.43887100  1
  O  O14  1  0.32831800  0.03760100  0.58295000  1
  O  O15  1  0.83963300  0.04812700  0.56690300  1
  O  O16  1  0.19500700  0.54546100  0.15558900  1
  O  O17  1  0.67694300  0.55764900  0.15362200  1
  O  O18  1  0.32100800  0.43470300  0.84971400  1
  O  O19  1  0.80620200  0.46003400  0.84242700  1
  O  O20  1  0.18760100  0.78320200  0.67273600  1
  O  O21  1  0.68828400  0.79941300  0.65500100  1
  O  O22  1  0.31298700  0.21410200  0.33173200  1
  O  O23  1  0.81048400  0.19688500  0.35591600  1
  O  O24  1  0.14523300  0.49928700  0.40977800  1
  O  O25  1  0.65041200  0.49876100  0.40762200  1
  O  O26  1  0.35457900  0.50113200  0.59095700  1
  O  O27  1  0.84896400  0.50187000  0.59033400  1
  O  O28  1  0.31288800  0.72604000  0.26859000  1
  O  O29  1  0.82623500  0.72260100  0.26976800  1
  O  O30  1  0.17480200  0.27403400  0.73244400  1
  O  O31  1  0.68767800  0.27454800  0.72917100  1
  O  O32  1  0.94700500  0.62902500  0.96243000  1
  O  O33  1  0.43607700  0.64808100  0.95194900  1
  O  O34  1  0.56550900  0.35860100  0.04150400  1
  O  O35  1  0.05179500  0.38152500  0.03395600  1
loop_
_geom_bond_atom_site_label_1
_geom_bond_atom_site_label_2
_geom_bond_distance
_geom_bond_site_symmetry_2
Na0 O6 2.337389 1_565
Na0 O7 2.454987 1_665
Na0 O12 2.457477 1_655
Na0 O28 2.555088 1_655
Na0 O13 2.581540 1_555
Na0 O29 2.604718 1_555
Na0 O8 2.846450 1_655
Na1 O28 2.363973 1_555
Na1 O6 2.387551 1_565
Na1 O29 2.389488 1_555
Na1 O7 2.512265 1_565
Na1 O12 2.542374 1_555
Na1 O13 2.658817 1_555
Na1 O9 2.663605 1_555
Na1 O1 2.880161 1_555
Na2 O30 2.342030 1_555
Na2 O31 2.360375 1_555
Na2 O4 2.409393 1_545
Na2 O5 2.516765 1_545
Na2 O14 2.582995 1_555
Na2 O10 2.657069 1_555
Na2 O15 2.688673 1_555
Na2 O2 2.783522 1_555
Na3 O31 2.378343 1_455
Na3 O30 2.389481 1_555
Na3 O4 2.390082 1_445
Na3 O14 2.471795 1_555
Na3 O5 2.520565 1_545
Na3 O15 2.570543 1_455
Na3 O11 2.683309 1_455
Na3 O3 2.822213 1_455
Na4 O16 2.429919 1_555
Na4 O25 2.448566 1_555
Na4 O22 2.459528 1_555
Na4 O17 2.496283 1_555
Na4 O24 2.497812 1_555
Na4 O23 2.601499 1_555
Na4 O10 2.778515 1_555
Na5 O16 2.433736 1_655
Na5 O25 2.449536 1_555
Na5 O24 2.476463 1_655
Na5 O17 2.496748 1_555
Na5 O22 2.505278 1_655
Na5 O23 2.653335 1_555
Na5 O11 2.804854 1_555
Na6 O27 2.409948 1_455
Na6 O19 2.411332 1_455
Na6 O26 2.414936 1_555
Na6 O20 2.473069 1_555
Na6 O18 2.584631 1_555
Na6 O21 2.615589 1_455
Na6 O8 2.690453 1_555
Na7 O26 2.374948 1_555
Na7 O19 2.393314 1_555
Na7 O27 2.394355 1_555
Na7 O20 2.491219 1_555
Na7 O18 2.572458 1_555
Na7 O21 2.641264 1_555
Na7 O9 2.719018 1_555
Na8 O22 2.361860 1_555
Na8 O34 2.433201 1_555
Na8 O2 2.435938 1_554
Na8 O6 2.484764 1_555
Na8 O7 2.567753 1_555
Na8 O35 2.571553 1_555
Na9 O21 2.372222 1_555
Na9 O33 2.382144 1_555
Na9 O4 2.433969 1_555
Na9 O1 2.469845 1_556
Na9 O5 2.533223 1_555
Na9 O32 2.559850 1_555
Na10 O20 2.308807 1_555
Na10 O33 2.345314 1_555
Na10 O4 2.402341 1_455
Na10 O0 2.437157 1_556
Na10 O32 2.508556 1_455
Na10 O5 2.513150 1_555
O0 Ru13 1.954158 1_465
O0 Ru1 1.985627 1_455
O0 Ru0 2.003200 1_555
O1 Ru1 2.024355 1_555
O1 Ru12 2.029862 1_554
O1 Ru0 2.050537 1_555
O2 Ru3 2.043664 1_555
O2 Ru12 2.066923 1_545
O2 Ru2 2.092653 1_555
O3 Ru13 1.922678 1_556
O3 Ru3 1.947500 1_555
O3 Ru2 1.993278 1_655
O4 Ru12 2.034024 1_555
O4 Ru13 2.060048 1_566
O5 Ru12 2.051299 1_555
O5 Ru13 2.067332 1_466
O6 Ru12 1.993458 1_544
O6 Ru13 2.030381 1_555
O7 Ru12 2.024178 1_544
O7 Ru13 2.029108 1_455
O8 Ru4 1.995948 1_555
O8 Ru8 2.003383 1_455
O8 Ru5 2.009463 1_455
O9 Ru9 1.980623 1_555
O9 Ru4 1.987389 1_555
O9 Ru5 2.006721 1_555
O10 Ru10 1.986030 1_555
O10 Ru6 1.992175 1_555
O10 Ru7 2.005076 1_555
O11 Ru11 1.976184 1_655
O11 Ru6 1.983763 1_655
O11 Ru7 1.998529 1_555
O12 Ru9 2.041855 1_555
O12 Ru8 2.065616 1_455
O12 Ru11 2.074999 1_565
O13 Ru9 2.073567 1_555
O13 Ru8 2.081214 1_555
O13 Ru10 2.086957 1_565
O14 Ru11 2.047870 1_555
O14 Ru10 2.065448 1_555
O14 Ru9 2.072171 1_545
O15 Ru8 2.079914 1_545
O15 Ru11 2.087396 1_655
O15 Ru10 2.090463 1_555
O16 Ru0 2.066479 1_555
O16 Ru1 2.068158 1_455
O16 Ru14 2.071074 1_554
O17 Ru1 2.063492 1_555
O17 Ru0 2.066749 1_555
O17 Ru15 2.078017 1_554
O18 Ru3 2.058852 1_555
O18 Ru2 2.061677 1_555
O18 Ru14 2.079188 1_555
O19 Ru15 2.049180 1_555
O19 Ru3 2.059780 1_555
O19 Ru2 2.077631 1_655
O20 Ru9 2.019273 1_555
O20 Ru8 2.027694 1_455
O21 Ru9 2.026755 1_555
O21 Ru8 2.046448 1_555
O22 Ru11 2.010640 1_555
O22 Ru10 2.029848 1_555
O23 Ru11 1.985138 1_655
O23 Ru10 1.996045 1_555
O24 Ru4 2.053735 1_555
O24 Ru5 2.057534 1_455
O24 Ru6 2.085762 1_555
O25 Ru4 2.059678 1_555
O25 Ru5 2.062943 1_555
O25 Ru7 2.080067 1_555
O26 Ru6 2.057300 1_555
O26 Ru7 2.060483 1_555
O26 Ru4 2.086934 1_555
O27 Ru6 2.061669 1_655
O27 Ru7 2.063728 1_555
O27 Ru5 2.065652 1_555
O28 Ru4 1.919562 1_555
O28 Ru0 1.924096 1_555
O29 Ru5 1.910825 1_555
O29 Ru1 1.933120 1_555
O30 Ru6 1.925390 1_555
O30 Ru2 1.942887 1_555
O31 Ru7 1.918252 1_555
O31 Ru3 1.942227 1_555
O32 Ru15 2.070233 1_555
O32 Ru14 2.092945 1_655
O32 Ru1 2.125834 1_556
O33 Ru15 2.036596 1_555
O33 Ru14 2.043603 1_555
O33 Ru0 2.156959 1_556
O34 Ru14 2.025729 1_554
O34 Ru15 2.031452 1_554
O34 Ru3 2.124496 1_554
O35 Ru14 2.035557 1_554
O35 Ru15 2.057800 1_454
O35 Ru2 2.143294 1_554
