# generated using pymatgen
data_Ba2Ce2Ti2Fe(Si4O13)2
_symmetry_space_group_name_H-M   'P 1'
_cell_length_a   7.27385096
_cell_length_b   7.27385096
_cell_length_c   11.81045200
_cell_angle_alpha   75.99939410
_cell_angle_beta   75.99939410
_cell_angle_gamma   85.71101656
_symmetry_Int_Tables_number   1
_chemical_formula_structural   Ba2Ce2Ti2Fe(Si4O13)2
_chemical_formula_sum   'Ba2 Ce2 Ti2 Fe1 Si8 O26'
_cell_volume   588.21556736
_cell_formula_units_Z   1
loop_
 _symmetry_equiv_pos_site_id
 _symmetry_equiv_pos_as_xyz
  1  'x, y, z'
loop_
 _atom_site_type_symbol
 _atom_site_label
 _atom_site_symmetry_multiplicity
 _atom_site_fract_x
 _atom_site_fract_y
 _atom_site_fract_z
 _atom_site_occupancy
  Ba  Ba0  1  0.00219500  0.49943600  0.99879300  1
  Ba  Ba1  1  0.50056400  0.99780500  0.00120700  1
  Ce  Ce0  1  0.81800300  0.82357900  0.45387100  1
  Ce  Ce1  1  0.17642100  0.18199700  0.54612900  1
  Ti  Ti0  1  0.95509000  0.95114800  0.12765700  1
  Ti  Ti1  1  0.04885200  0.04491000  0.87234300  1
  Fe  Fe0  1  0.60599000  0.39401000  0.50000000  1
  Si  Si0  1  0.19469300  0.19897200  0.24434400  1
  Si  Si1  1  0.80102800  0.80530700  0.75565600  1
  Si  Si2  1  0.62657200  0.62175400  0.23868500  1
  Si  Si3  1  0.37824600  0.37342800  0.76131500  1
  Si  Si4  1  0.19389500  0.58829500  0.28580800  1
  Si  Si5  1  0.59671500  0.19861500  0.28337700  1
  Si  Si6  1  0.80138500  0.40328500  0.71662300  1
  Si  Si7  1  0.41170500  0.80610500  0.71419200  1
  O  O0  1  0.13239000  0.86761000  0.00000000  1
  O  O1  1  0.87035900  0.12964100  0.00000000  1
  O  O2  1  0.09198600  0.09958600  0.38065000  1
  O  O3  1  0.90041400  0.90801400  0.61935000  1
  O  O4  1  0.76352700  0.76708000  0.13024500  1
  O  O5  1  0.23292000  0.23647300  0.86975500  1
  O  O6  1  0.17840800  0.47708700  0.42241800  1
  O  O7  1  0.51457000  0.20582600  0.42314400  1
  O  O8  1  0.79417400  0.48543000  0.57685600  1
  O  O9  1  0.52291400  0.82159200  0.57758200  1
  O  O10  1  0.16218900  0.43439600  0.20723600  1
  O  O11  1  0.42915000  0.15980000  0.21899400  1
  O  O12  1  0.84020000  0.57085000  0.78100600  1
  O  O13  1  0.56560400  0.83781100  0.79276400  1
  O  O14  1  0.68493600  0.40972500  0.20737500  1
  O  O15  1  0.40926300  0.67822400  0.21936900  1
  O  O16  1  0.32177600  0.59073700  0.78063100  1
  O  O17  1  0.59027500  0.31506400  0.79262500  1
  O  O18  1  0.04189100  0.76247900  0.26701600  1
  O  O19  1  0.76066500  0.03674700  0.26852000  1
  O  O20  1  0.96325300  0.23933500  0.73148000  1
  O  O21  1  0.23752100  0.95810900  0.73298400  1
  O  O22  1  0.65424800  0.62210900  0.36964400  1
  O  O23  1  0.37789100  0.34575200  0.63035600  1
  O  O24  1  0.13572600  0.13360500  0.13556800  1
  O  O25  1  0.86639500  0.86427400  0.86443200  1
loop_
_geom_bond_atom_site_label_1
_geom_bond_atom_site_label_2
_geom_bond_distance
_geom_bond_site_symmetry_2
Ba0 O10 2.894658 1_556
Ba0 O0 2.910895 1_556
Ba0 O5 2.913850 1_555
Ba0 O1 2.918159 1_456
Ba0 O14 2.918314 1_456
Ba0 O25 2.977435 1_455
Ba0 O4 2.977742 1_456
Ba0 O24 2.987716 1_556
Ba0 O16 2.998066 1_555
Ba0 O12 3.000463 1_455
Ba1 O13 2.894658 1_554
Ba1 O0 2.910895 1_555
Ba1 O4 2.913850 1_555
Ba1 O1 2.918159 1_565
Ba1 O17 2.918314 1_564
Ba1 O24 2.977435 1_565
Ba1 O5 2.977742 1_564
Ba1 O25 2.987716 1_554
Ba1 O15 2.998066 1_555
Ba1 O11 3.000463 1_565
Ce0 O9 2.284538 1_555
Ce0 O3 2.399765 1_555
Ce0 O19 2.464324 1_565
Ce0 O22 2.468947 1_555
Ce0 O18 2.519350 1_655
Ce0 O8 2.530405 1_555
Ce0 O2 2.770309 1_665
Ce1 O6 2.284544 1_555
Ce1 O2 2.399765 1_555
Ce1 O20 2.464324 1_455
Ce1 O23 2.468947 1_555
Ce1 O21 2.519350 1_545
Ce1 O7 2.530405 1_555
Ce1 O3 2.770309 1_445
Fe0 O23 1.958552 1_555
Fe0 O22 1.958552 1_555
Fe0 O8 2.041861 1_555
Fe0 O7 2.041861 1_555
O0 Ti0 1.921147 1_455
O0 Ti1 1.921147 1_564
O1 Ti1 1.929096 1_654
O1 Ti0 1.929096 1_545
O2 Si0 1.614944 1_555
O3 Si1 1.614944 1_555
O4 Si2 1.623322 1_555
O4 Ti0 1.993425 1_555
O5 Si3 1.623322 1_555
O5 Ti1 1.993425 1_555
O6 Si4 1.601361 1_555
O7 Si5 1.626217 1_555
O8 Si6 1.626217 1_555
O9 Si7 1.601363 1_555
O10 Si0 1.675369 1_555
O10 Si4 1.676982 1_555
O11 Si5 1.657493 1_555
O11 Si0 1.673550 1_555
O12 Si6 1.657493 1_555
O12 Si1 1.673550 1_555
O13 Si1 1.675369 1_555
O13 Si7 1.676982 1_555
O14 Si5 1.666510 1_555
O14 Si2 1.672608 1_555
O15 Si2 1.658710 1_555
O15 Si4 1.675657 1_555
O16 Si3 1.658710 1_555
O16 Si7 1.675657 1_555
O17 Si6 1.666510 1_555
O17 Si3 1.672608 1_555
O18 Si4 1.627923 1_555
O18 Ti0 2.066698 1_455
O19 Si5 1.621091 1_555
O19 Ti0 2.094402 1_545
O20 Si6 1.621091 1_555
O20 Ti1 2.094402 1_655
O21 Si7 1.627923 1_555
O21 Ti1 2.066698 1_565
O22 Si2 1.607929 1_555
O23 Si3 1.607929 1_555
O24 Si0 1.628854 1_555
O24 Ti0 1.968935 1_445
O25 Si1 1.628854 1_555
O25 Ti1 1.968935 1_665
