# generated using pymatgen
data_SmZnNi
_symmetry_space_group_name_H-M   'P 1'
_cell_length_a   7.06428501
_cell_length_b   7.06428501
_cell_length_c   3.79939114
_cell_angle_alpha   90.00000000
_cell_angle_beta   90.00000000
_cell_angle_gamma   119.99998300
_symmetry_Int_Tables_number   1
_chemical_formula_structural   SmZnNi
_chemical_formula_sum   'Sm3 Zn3 Ni3'
_cell_volume   164.20301849
_cell_formula_units_Z   3
loop_
 _symmetry_equiv_pos_site_id
 _symmetry_equiv_pos_as_xyz
  1  'x, y, z'
loop_
 _atom_site_type_symbol
 _atom_site_label
 _atom_site_symmetry_multiplicity
 _atom_site_fract_x
 _atom_site_fract_y
 _atom_site_fract_z
 _atom_site_occupancy
  Sm  Sm0  1  0.41139547  0.41139547  0.50000000  1
  Sm  Sm1  1  0.58860453  0.00000000  0.50000000  1
  Sm  Sm2  1  0.00000000  0.58860453  0.50000000  1
  Zn  Zn0  1  0.76468990  0.76468990  0.00000000  1
  Zn  Zn1  1  0.23531010  -0.00000000  0.00000000  1
  Zn  Zn2  1  -0.00000000  0.23531010  -0.00000000  1
  Ni  Ni0  1  0.66666700  0.33333300  0.00000000  1
  Ni  Ni1  1  0.33333300  0.66666700  -0.00000000  1
  Ni  Ni2  1  -0.00000000  -0.00000000  0.50000000  1
loop_
_geom_bond_atom_site_label_1
_geom_bond_atom_site_label_2
_geom_bond_distance
_geom_bond_site_symmetry_2
Sm0 Zn0 3.136515 1_555
Sm0 Zn0 3.136515 1_556
Sm0 Zn2 3.160248 1_556
Sm0 Zn1 3.160248 1_555
Sm0 Zn1 3.160248 1_556
Sm0 Zn2 3.160248 1_555
Sm1 Zn1 3.136515 1_555
Sm1 Zn1 3.136515 1_556
Sm1 Zn0 3.160248 1_545
Sm1 Zn0 3.160248 1_546
Sm1 Zn2 3.160248 1_656
Sm1 Zn2 3.160248 1_655
Sm2 Zn2 3.136515 1_555
Sm2 Zn2 3.136515 1_556
Sm2 Zn0 3.160248 1_455
Sm2 Zn0 3.160248 1_456
Sm2 Zn1 3.160248 1_566
Sm2 Zn1 3.160248 1_565
Zn0 Zn1 2.879184 1_665
Zn0 Zn2 2.879184 1_665
Zn1 Zn2 2.879184 1_555
Ni0 Zn2 2.766762 1_655
Ni0 Zn1 2.766768 1_555
Ni0 Zn0 2.766770 1_555
Ni0 Sm1 2.856448 1_555
Ni0 Sm1 2.856448 1_554
Ni0 Sm2 2.856450 1_654
Ni0 Sm2 2.856450 1_655
Ni0 Sm0 2.856453 1_554
Ni0 Sm0 2.856453 1_555
Ni1 Zn1 2.766762 1_565
Ni1 Zn2 2.766768 1_555
Ni1 Zn0 2.766770 1_555
Ni1 Sm2 2.856448 1_555
Ni1 Sm2 2.856448 1_554
Ni1 Sm1 2.856450 1_565
Ni1 Sm1 2.856450 1_564
Ni1 Sm0 2.856453 1_554
Ni1 Sm0 2.856453 1_555
Ni2 Zn1 2.524297 1_555
Ni2 Zn2 2.524297 1_555
Ni2 Zn2 2.524297 1_556
Ni2 Zn1 2.524297 1_556
Ni2 Zn0 2.524298 1_446
Ni2 Zn0 2.524298 1_445
Ni2 Sm1 2.906215 1_455
Ni2 Sm2 2.906215 1_545
Ni2 Sm0 2.906216 1_555
