# generated using pymatgen
data_K2Sc2P2WO12
_symmetry_space_group_name_H-M   'P 1'
_cell_length_a   10.54104700
_cell_length_b   10.57396257
_cell_length_c   10.58540178
_cell_angle_alpha   89.63127818
_cell_angle_beta   89.47694028
_cell_angle_gamma   89.85999479
_symmetry_Int_Tables_number   1
_chemical_formula_structural   K2Sc2P2WO12
_chemical_formula_sum   'K8 Sc8 P8 W4 O48'
_cell_volume   1179.77866879
_cell_formula_units_Z   4
loop_
 _symmetry_equiv_pos_site_id
 _symmetry_equiv_pos_as_xyz
  1  'x, y, z'
loop_
 _atom_site_type_symbol
 _atom_site_label
 _atom_site_symmetry_multiplicity
 _atom_site_fract_x
 _atom_site_fract_y
 _atom_site_fract_z
 _atom_site_occupancy
  K  K0  1  0.79466200  0.31128900  0.19424200  1
  K  K1  1  0.30341400  0.19974100  0.79598800  1
  K  K2  1  0.22016100  0.79075500  0.30430400  1
  K  K3  1  0.69787600  0.69876700  0.70046900  1
  K  K4  1  0.56270400  0.08307800  0.42903500  1
  K  K5  1  0.06142800  0.41045000  0.55600000  1
  K  K6  1  0.44437100  0.55466900  0.08888000  1
  K  K7  1  0.90748400  0.94353200  0.92338000  1
  Sc  Sc0  1  0.06575000  0.56756600  0.93493500  1
  Sc  Sc1  1  0.58652500  0.91091300  0.08298200  1
  Sc  Sc2  1  0.91040500  0.10737300  0.60070800  1
  Sc  Sc3  1  0.41570000  0.40740700  0.39852500  1
  Sc  Sc4  1  0.37756500  0.87717800  0.62157000  1
  Sc  Sc5  1  0.84769500  0.62202800  0.34832800  1
  Sc  Sc6  1  0.65567200  0.34934000  0.86297000  1
  Sc  Sc7  1  0.15389500  0.16546200  0.14582600  1
  P  P0  1  0.76392500  0.62354300  0.04002800  1
  P  P1  1  0.54493100  0.72776600  0.36580100  1
  P  P2  1  0.62915200  0.04445400  0.77378800  1
  P  P3  1  0.72113600  0.37429800  0.54238400  1
  P  P4  1  0.96261100  0.26825700  0.88200900  1
  P  P5  1  0.12602800  0.46007900  0.23613700  1
  P  P6  1  0.22610300  0.13196900  0.45517400  1
  P  P7  1  0.46526700  0.22521000  0.12029900  1
  W  W0  1  0.37147500  0.54637000  0.72650600  1
  W  W1  1  0.26789500  0.87160200  0.95093400  1
  W  W2  1  0.04529000  0.77231700  0.62759400  1
  W  W3  1  0.87726600  0.95565900  0.27891600  1
  O  O0  1  0.42732500  0.70968800  0.73370800  1
  O  O1  1  0.26227900  0.92912000  0.78838400  1
  O  O2  1  0.20928200  0.76424000  0.57084800  1
  O  O3  1  0.93584200  0.79442300  0.26910500  1
  O  O4  1  0.76386900  0.57274000  0.17905000  1
  O  O5  1  0.68744900  0.72698700  0.40339800  1
  O  O6  1  0.58581900  0.18414300  0.77956700  1
  O  O7  1  0.72005200  0.41820100  0.68196600  1
  O  O8  1  0.82234600  0.26372700  0.92839200  1
  O  O9  1  0.08058400  0.32031200  0.23624200  1
  O  O10  1  0.22207400  0.08910100  0.31531000  1
  O  O11  1  0.32487100  0.23191700  0.07430400  1
  O  O12  1  0.34266100  0.49241600  0.56831700  1
  O  O13  1  0.42579400  0.83201600  0.00236900  1
  O  O14  1  0.99451600  0.93175100  0.66077300  1
  O  O15  1  0.84779200  0.00466300  0.43952700  1
  O  O16  1  0.90304700  0.64457600  0.99735600  1
  O  O17  1  0.49230300  0.59224000  0.35005000  1
  O  O18  1  0.64327600  0.98602200  0.90764000  1
  O  O19  1  0.58576100  0.35388500  0.49113500  1
  O  O20  1  0.00130700  0.40707600  0.85886900  1
  O  O21  1  0.14332800  0.50550100  0.09774600  1
  O  O22  1  0.09043100  0.14972600  0.51094500  1
  O  O23  1  0.50412700  0.08510600  0.13793800  1
  O  O24  1  0.22735800  0.52366300  0.81592200  1
  O  O25  1  0.17480600  0.73206000  0.97583700  1
  O  O26  1  0.02122300  0.68290800  0.77042600  1
  O  O27  1  0.73454500  0.98319100  0.18951400  1
  O  O28  1  0.69549000  0.75270500  0.02920600  1
  O  O29  1  0.52385100  0.80464300  0.24243200  1
  O  O30  1  0.75830000  0.02965000  0.70430800  1
  O  O31  1  0.79941800  0.24968600  0.52797000  1
  O  O32  1  0.97924300  0.19835500  0.75451600  1
  O  O33  1  0.25484100  0.47576000  0.30271900  1
  O  O34  1  0.30297200  0.25570700  0.47048700  1
  O  O35  1  0.47873800  0.29735900  0.24773700  1
  O  O36  1  0.48411500  0.44604800  0.80571900  1
  O  O37  1  0.19699700  0.98730000  0.05369200  1
  O  O38  1  0.94272200  0.69807900  0.51462500  1
  O  O39  1  0.98865200  0.05787300  0.20016800  1
  O  O40  1  0.69719300  0.52604100  0.95464800  1
  O  O41  1  0.47059400  0.79957200  0.47246900  1
  O  O42  1  0.52763300  0.97007700  0.69717500  1
  O  O43  1  0.79298600  0.47396200  0.45927400  1
  O  O44  1  0.05008200  0.20303400  0.97922700  1
  O  O45  1  0.02421500  0.53901300  0.30701100  1
  O  O46  1  0.29960000  0.02672800  0.52986100  1
  O  O47  1  0.55190300  0.29593600  0.02441100  1
loop_
_geom_bond_atom_site_label_1
_geom_bond_atom_site_label_2
_geom_bond_distance
_geom_bond_site_symmetry_2
K0 O4 2.786562 1_555
K0 O8 2.874006 1_554
K0 O9 3.052355 1_655
K0 O47 3.145808 1_555
K0 O43 3.300117 1_555
K0 O39 3.367357 1_555
K0 O35 3.376282 1_555
K1 O1 2.896990 1_545
K1 O11 2.978554 1_556
K1 O6 2.984550 1_555
K2 O2 2.834881 1_555
K2 O3 3.023590 1_455
K2 O10 3.157719 1_565
K2 O41 3.199257 1_555
K2 O29 3.265125 1_555
K2 O33 3.349991 1_555
K2 O37 3.369669 1_555
K2 O45 3.373068 1_555
K3 O0 2.872457 1_555
K3 O7 2.982873 1_555
K3 O5 3.159716 1_555
K3 O38 3.230893 1_555
K3 O40 3.242145 1_555
K4 O19 2.953198 1_555
K4 O46 3.021866 1_555
K4 O42 3.091936 1_545
K4 O35 3.092809 1_555
K4 O15 3.118229 1_555
K4 O23 3.148085 1_555
K4 O41 3.182630 1_545
K4 O31 3.243364 1_555
K4 O27 3.281208 1_545
K4 O34 3.314254 1_555
K5 O22 2.816289 1_555
K5 O45 2.986418 1_555
K5 O43 3.088864 1_455
K5 O12 3.094745 1_555
K5 O34 3.152151 1_555
K5 O32 3.179859 1_455
K5 O20 3.262332 1_555
K5 O31 3.263435 1_455
K5 O38 3.313877 1_455
K6 O17 2.845467 1_555
K6 O40 3.024122 1_554
K6 O47 3.038103 1_555
K6 O13 3.073000 1_555
K6 O33 3.116505 1_555
K6 O35 3.210762 1_555
K6 O21 3.217295 1_555
K6 O29 3.228226 1_555
K6 O36 3.240056 1_554
K7 O18 2.826199 1_555
K7 O14 2.922633 1_555
K7 O30 2.951634 1_565
K7 O44 3.193036 1_665
K7 O28 3.204252 1_556
K7 O16 3.252144 1_555
K7 O39 3.297669 1_566
K7 O32 3.309207 1_565
K7 O27 3.369420 1_556
K7 O37 3.394440 1_656
K7 O26 3.414568 1_655
O0 W0 1.828149 1_555
O0 Sc4 2.191000 1_555
O1 W1 1.822712 1_555
O1 Sc4 2.206019 1_555
O2 W2 1.826831 1_555
O2 Sc4 2.212925 1_555
O3 W3 1.815129 1_555
O3 Sc5 2.205434 1_555
O4 P0 1.563330 1_555
O4 Sc5 2.075184 1_555
O5 P1 1.557607 1_555
O5 Sc5 2.099046 1_555
O6 P2 1.546437 1_555
O6 Sc6 2.100208 1_555
O7 P3 1.551526 1_555
O7 Sc6 2.149999 1_555
O8 P4 1.554422 1_555
O8 Sc6 2.095764 1_555
O9 P5 1.554689 1_555
O9 Sc7 2.048094 1_555
O10 P6 1.552121 1_555
O10 Sc7 2.095031 1_555
O11 P7 1.563471 1_555
O11 Sc7 2.071124 1_555
O12 W0 1.801136 1_555
O12 Sc3 2.150172 1_555
O13 W1 1.803372 1_554
O13 Sc1 2.082586 1_555
O14 W2 1.803238 1_655
O14 Sc2 2.150796 1_565
O15 W3 1.804544 1_545
O15 Sc2 2.138698 1_555
O16 P0 1.546706 1_556
O16 Sc0 2.005123 1_655
O17 P1 1.548491 1_555
O17 Sc3 2.173086 1_555
O18 P2 1.550351 1_565
O18 Sc1 2.096824 1_556
O19 P3 1.547367 1_555
O19 Sc3 2.124801 1_555
O20 P4 1.541910 1_455
O20 Sc0 2.005702 1_555
O21 P5 1.548041 1_555
O21 Sc0 2.019441 1_554
O22 P6 1.553620 1_555
O22 Sc2 2.161082 1_455
O23 P7 1.546685 1_555
O23 Sc1 2.117118 1_545
O24 W0 1.798311 1_555
O24 Sc0 2.160800 1_555
O25 W1 1.790764 1_555
O25 Sc0 2.136085 1_555
O26 W2 1.794400 1_555
O26 Sc0 2.173711 1_555
O27 W3 1.806642 1_555
O27 Sc1 2.083101 1_555
O28 P0 1.547085 1_555
O28 Sc1 2.105422 1_555
O29 P1 1.551234 1_555
O29 Sc1 2.122927 1_555
O30 P2 1.549475 1_555
O30 Sc2 2.100360 1_555
O31 P3 1.560561 1_555
O31 Sc2 2.054006 1_555
O32 P4 1.551218 1_555
O32 Sc2 2.036656 1_555
O33 P5 1.545314 1_555
O33 Sc3 2.107601 1_555
O34 P6 1.550822 1_555
O34 Sc3 2.131279 1_555
O35 P7 1.561796 1_555
O35 Sc3 2.084243 1_555
O36 W0 1.799650 1_555
O36 Sc6 2.164768 1_555
O37 W1 1.798937 1_554
O37 Sc7 2.172086 1_565
O38 W2 1.804154 1_655
O38 Sc5 2.191603 1_555
O39 W3 1.793963 1_545
O39 Sc7 2.154548 1_655
O40 P0 1.549741 1_556
O40 Sc6 2.158575 1_555
O41 P1 1.567610 1_555
O41 Sc4 2.027437 1_555
O42 P2 1.565095 1_565
O42 Sc4 2.036806 1_555
O43 P3 1.561400 1_555
O43 Sc5 2.032592 1_555
O44 P4 1.545930 1_455
O44 Sc7 2.118822 1_556
O45 P5 1.549274 1_555
O45 Sc5 2.099080 1_455
O46 P6 1.568200 1_555
O46 Sc4 2.026548 1_545
O47 P7 1.549251 1_555
O47 Sc6 2.095762 1_554
