# generated using pymatgen
data_BP(H3N)3
_symmetry_space_group_name_H-M   'P 1'
_cell_length_a   9.67592700
_cell_length_b   6.25451400
_cell_length_c   9.71787723
_cell_angle_alpha   78.65079318
_cell_angle_beta   90.00000000
_cell_angle_gamma   90.00000000
_symmetry_Int_Tables_number   1
_chemical_formula_structural   BP(H3N)3
_chemical_formula_sum   'B4 P4 H36 N12'
_cell_volume   576.60877293
_cell_formula_units_Z   4
loop_
 _symmetry_equiv_pos_site_id
 _symmetry_equiv_pos_as_xyz
  1  'x, y, z'
loop_
 _atom_site_type_symbol
 _atom_site_label
 _atom_site_symmetry_multiplicity
 _atom_site_fract_x
 _atom_site_fract_y
 _atom_site_fract_z
 _atom_site_occupancy
  B  B0  1  0.95764100  0.55698100  0.26063800  1
  B  B1  1  0.45764100  0.94301900  0.73936200  1
  B  B2  1  0.04235900  0.44301900  0.73936200  1
  B  B3  1  0.54235900  0.05698100  0.26063800  1
  P  P0  1  0.04880800  0.82959200  0.24557300  1
  P  P1  1  0.54880800  0.67040800  0.75442700  1
  P  P2  1  0.95119200  0.17040800  0.75442700  1
  P  P3  1  0.45119200  0.32959200  0.24557300  1
  H  H0  1  0.25678600  0.81456200  0.13970400  1
  H  H1  1  0.75678600  0.68543800  0.86029600  1
  H  H2  1  0.74321400  0.18543800  0.86029600  1
  H  H3  1  0.24321400  0.31456200  0.13970400  1
  H  H4  1  0.13557000  0.92405200  0.02401800  1
  H  H5  1  0.63557000  0.57594800  0.97598200  1
  H  H6  1  0.86443000  0.07594800  0.97598200  1
  H  H7  1  0.36443000  0.42405200  0.02401800  1
  H  H8  1  0.96464200  0.18618100  0.19933400  1
  H  H9  1  0.46464200  0.31381900  0.80066600  1
  H  H10  1  0.03535800  0.81381900  0.80066600  1
  H  H11  1  0.53535800  0.68618100  0.19933400  1
  H  H12  1  0.83689000  0.99990200  0.23834200  1
  H  H13  1  0.33689000  0.50009800  0.76165800  1
  H  H14  1  0.16311000  0.00009800  0.76165800  1
  H  H15  1  0.66311000  0.49990200  0.23834200  1
  H  H16  1  0.19093500  0.96706300  0.40344900  1
  H  H17  1  0.69093500  0.53293700  0.59655100  1
  H  H18  1  0.80906500  0.03293700  0.59655100  1
  H  H19  1  0.30906500  0.46706300  0.40344900  1
  H  H20  1  0.09844700  0.74490400  0.48292900  1
  H  H21  1  0.59844700  0.75509600  0.51707100  1
  H  H22  1  0.90155300  0.25509600  0.51707100  1
  H  H23  1  0.40155300  0.24490400  0.48292900  1
  H  H24  1  0.86117900  0.55512000  0.34218600  1
  H  H25  1  0.36117900  0.94488000  0.65781400  1
  H  H26  1  0.13882100  0.44488000  0.65781400  1
  H  H27  1  0.63882100  0.05512000  0.34218600  1
  H  H28  1  0.04434800  0.41914100  0.30408700  1
  H  H29  1  0.54434800  0.08085900  0.69591300  1
  H  H30  1  0.95565200  0.58085900  0.69591300  1
  H  H31  1  0.45565200  0.91914100  0.30408700  1
  H  H32  1  0.91982500  0.55198300  0.14182600  1
  H  H33  1  0.41982500  0.94801700  0.85817400  1
  H  H34  1  0.08017500  0.44801700  0.85817400  1
  H  H35  1  0.58017500  0.05198300  0.14182600  1
  N  N0  1  0.17111500  0.91225400  0.12496400  1
  N  N1  1  0.67111500  0.58774600  0.87503600  1
  N  N2  1  0.82888500  0.08774600  0.87503600  1
  N  N3  1  0.32888500  0.41225400  0.12496400  1
  N  N4  1  0.93364400  0.02997100  0.19716600  1
  N  N5  1  0.43364400  0.47002900  0.80283400  1
  N  N6  1  0.06635600  0.97002900  0.80283400  1
  N  N7  1  0.56635600  0.52997100  0.19716600  1
  N  N8  1  0.13942300  0.82990500  0.39184100  1
  N  N9  1  0.63942300  0.67009500  0.60815900  1
  N  N10  1  0.86057700  0.17009500  0.60815900  1
  N  N11  1  0.36057700  0.32990500  0.39184100  1
loop_
_geom_bond_atom_site_label_1
_geom_bond_atom_site_label_2
_geom_bond_distance
_geom_bond_site_symmetry_2
B0 H28 1.217431 1_655
B0 H32 1.217444 1_555
B0 H24 1.222979 1_555
B0 P0 1.899612 1_655
B1 H29 1.217431 1_565
B1 H33 1.217444 1_555
B1 H25 1.222979 1_555
B1 P1 1.899612 1_555
B2 H30 1.217431 1_455
B2 H34 1.217444 1_555
B2 H26 1.222979 1_555
B2 P2 1.899612 1_455
B3 H31 1.217431 1_545
B3 H35 1.217444 1_555
B3 H27 1.222979 1_555
B3 P3 1.899612 1_555
H0 N0 1.023017 1_555
H1 N1 1.023017 1_555
H2 N2 1.023017 1_555
H3 N3 1.023017 1_555
H4 N0 1.028381 1_555
H5 N1 1.028381 1_555
H6 N2 1.028381 1_555
H7 N3 1.028381 1_555
H8 N4 1.026192 1_555
H9 N5 1.026192 1_555
H10 N6 1.026192 1_555
H11 N7 1.026192 1_555
H12 N4 1.020935 1_565
H13 N5 1.020935 1_555
H14 N6 1.020935 1_545
H15 N7 1.020935 1_555
H16 N8 1.017427 1_555
H17 N9 1.017427 1_555
H18 N10 1.017427 1_555
H19 N11 1.017427 1_555
H20 N8 1.018906 1_555
H21 N9 1.018906 1_555
H22 N10 1.018906 1_555
H23 N11 1.018906 1_555
N0 P0 1.674232 1_555
N1 P1 1.674232 1_555
N2 P2 1.674232 1_555
N3 P3 1.674232 1_555
N4 P0 1.673814 1_645
N5 P1 1.673814 1_555
N6 P2 1.673814 1_465
N7 P3 1.673814 1_555
N8 P0 1.670410 1_555
N9 P1 1.670410 1_555
N10 P2 1.670410 1_555
N11 P3 1.670410 1_555
