# generated using pymatgen
data_Rb2Cr(BrCl)2
_symmetry_space_group_name_H-M   'P 1'
_cell_length_a   9.30368473
_cell_length_b   9.30368473
_cell_length_c   9.30368473
_cell_angle_alpha   148.30097122
_cell_angle_beta   148.30097122
_cell_angle_gamma   45.44126738
_symmetry_Int_Tables_number   1
_chemical_formula_structural   Rb2Cr(BrCl)2
_chemical_formula_sum   'Rb2 Cr1 Br2 Cl2'
_cell_volume   221.62786103
_cell_formula_units_Z   1
loop_
 _symmetry_equiv_pos_site_id
 _symmetry_equiv_pos_as_xyz
  1  'x, y, z'
loop_
 _atom_site_type_symbol
 _atom_site_label
 _atom_site_symmetry_multiplicity
 _atom_site_fract_x
 _atom_site_fract_y
 _atom_site_fract_z
 _atom_site_occupancy
  Rb  Rb0  1  0.63554200  0.63554200  0.00000000  1
  Rb  Rb1  1  0.36445800  0.36445800  0.00000000  1
  Cr  Cr0  1  0.00000000  0.00000000  0.00000000  1
  Br  Br0  1  0.84686300  0.84686300  0.00000000  1
  Br  Br1  1  0.15313700  0.15313700  0.00000000  1
  Cl  Cl0  1  0.50000000  0.00000000  0.50000000  1
  Cl  Cl1  1  0.00000000  0.50000000  0.50000000  1
loop_
_geom_bond_atom_site_label_1
_geom_bond_atom_site_label_2
_geom_bond_distance
_geom_bond_site_symmetry_2
Br0 Cr0 2.628355 1_665
Br0 Rb1 3.606106 1_554
Br0 Rb1 3.606106 1_565
Br0 Rb1 3.606106 1_655
Br0 Rb1 3.606106 1_666
Br0 Rb0 3.626991 1_555
Br1 Cr0 2.628355 1_555
Br1 Rb0 3.606106 1_545
Br1 Rb0 3.606106 1_444
Br1 Rb0 3.606106 1_455
Br1 Rb0 3.606106 1_556
Br1 Rb1 3.626991 1_555
Cl0 Cr0 2.540945 1_555
Cl0 Cr0 2.540945 1_656
Cl0 Rb1 3.445050 1_556
Cl0 Rb0 3.445050 1_556
Cl0 Rb1 3.445050 1_545
Cl0 Rb0 3.445050 1_545
Cl1 Cr0 2.540945 1_555
Cl1 Cr0 2.540945 1_566
Cl1 Rb1 3.445050 1_556
Cl1 Rb1 3.445050 1_455
Cl1 Rb0 3.445050 1_455
Cl1 Rb0 3.445050 1_556
