# generated using pymatgen
data_TmCoB4
_symmetry_space_group_name_H-M   'P 1'
_cell_length_a   3.32462740
_cell_length_b   5.84311622
_cell_length_c   11.31704365
_cell_angle_alpha   90.00000000
_cell_angle_beta   90.00000000
_cell_angle_gamma   90.00000000
_symmetry_Int_Tables_number   1
_chemical_formula_structural   TmCoB4
_chemical_formula_sum   'Tm4 Co4 B16'
_cell_volume   219.84697552
_cell_formula_units_Z   4
loop_
 _symmetry_equiv_pos_site_id
 _symmetry_equiv_pos_as_xyz
  1  'x, y, z'
loop_
 _atom_site_type_symbol
 _atom_site_label
 _atom_site_symmetry_multiplicity
 _atom_site_fract_x
 _atom_site_fract_y
 _atom_site_fract_z
 _atom_site_occupancy
  Tm  Tm0  1  0.50000000  0.37181130  0.14986001  1
  Tm  Tm1  1  0.50000000  0.62818870  0.85013999  1
  Tm  Tm2  1  0.50000000  0.12818870  0.64986001  1
  Tm  Tm3  1  0.50000000  0.87181130  0.35013999  1
  Co  Co0  1  0.50000000  0.36452257  0.41030659  1
  Co  Co1  1  0.50000000  0.63547743  0.58969341  1
  Co  Co2  1  0.50000000  0.13547743  0.91030659  1
  Co  Co3  1  0.50000000  0.86452257  0.08969341  1
  B  B0  1  0.00000000  0.11159749  0.04639607  1
  B  B1  1  0.00000000  0.88840251  0.95360393  1
  B  B2  1  0.00000000  0.38840251  0.54639607  1
  B  B3  1  0.00000000  0.61159749  0.45360393  1
  B  B4  1  0.00000000  0.13841172  0.46778771  1
  B  B5  1  0.00000000  0.86158828  0.53221229  1
  B  B6  1  0.00000000  0.36158828  0.96778771  1
  B  B7  1  0.00000000  0.63841172  0.03221229  1
  B  B8  1  0.00000000  0.02264790  0.19120068  1
  B  B9  1  0.00000000  0.97735210  0.80879932  1
  B  B10  1  0.00000000  0.47735210  0.69120068  1
  B  B11  1  0.00000000  0.52264790  0.30879932  1
  B  B12  1  0.00000000  0.21637037  0.31517878  1
  B  B13  1  -0.00000000  0.78362963  0.68482122  1
  B  B14  1  -0.00000000  0.28362963  0.81517878  1
  B  B15  1  0.00000000  0.71637037  0.18482122  1
loop_
_geom_bond_atom_site_label_1
_geom_bond_atom_site_label_2
_geom_bond_distance
_geom_bond_site_symmetry_2
B0 B1 1.674394 1_544
B0 B6 1.710302 1_554
B0 B8 1.719205 1_555
B0 Co3 2.255575 1_545
B0 Co3 2.255575 1_445
B0 Co2 2.270409 1_454
B0 Co2 2.270409 1_554
B0 Tm0 2.538918 1_555
B0 Tm0 2.538918 1_455
B1 B7 1.710302 1_556
B1 B9 1.719205 1_555
B1 Co2 2.255575 1_565
B1 Co2 2.255575 1_465
B1 Co3 2.270409 1_456
B1 Co3 2.270409 1_556
B1 Tm1 2.538918 1_555
B1 Tm1 2.538918 1_455
B2 B3 1.674394 1_555
B2 B4 1.710302 1_555
B2 Co1 2.255575 1_555
B2 Co1 2.255575 1_455
B2 Co0 2.270409 1_455
B2 Co0 2.270409 1_555
B2 Tm2 2.538918 1_555
B2 Tm2 2.538918 1_455
B3 B5 1.710302 1_555
B3 Co0 2.255575 1_455
B3 Co0 2.255575 1_555
B3 Co1 2.270409 1_555
B3 Co1 2.270409 1_455
B3 Tm3 2.538918 1_455
B3 Tm3 2.538918 1_555
B4 B5 1.774239 1_545
B4 Co0 2.220812 1_555
B4 Co0 2.220812 1_455
B4 Tm3 2.638683 1_545
B4 Tm3 2.638683 1_445
B4 Tm2 2.648131 1_455
B4 Tm2 2.648131 1_555
B5 Co1 2.220812 1_455
B5 Co1 2.220812 1_555
B5 Tm2 2.638683 1_465
B5 Tm2 2.638683 1_565
B5 Tm3 2.648131 1_455
B5 Tm3 2.648131 1_555
B6 B7 1.774239 1_556
B6 Co2 2.220812 1_455
B6 Co2 2.220812 1_555
B6 Tm1 2.638683 1_555
B6 Tm1 2.638683 1_455
B6 Tm0 2.648131 1_456
B6 Tm0 2.648131 1_556
B7 Co3 2.220812 1_555
B7 Co3 2.220812 1_455
B7 Tm0 2.638683 1_455
B7 Tm0 2.638683 1_555
B7 Tm1 2.648131 1_554
B7 Tm1 2.648131 1_454
B8 Co3 2.221850 1_545
B8 Co3 2.221850 1_445
B8 Tm3 2.602975 1_445
B8 Tm3 2.602975 1_545
B8 Tm0 2.672938 1_455
B8 Tm0 2.672938 1_555
B9 Co2 2.221850 1_565
B9 Co2 2.221850 1_465
B9 Tm2 2.602975 1_465
B9 Tm2 2.602975 1_565
B9 Tm1 2.672938 1_555
B9 Tm1 2.672938 1_455
B10 B2 1.719205 1_555
B10 B13 1.791071 1_555
B10 B14 1.802745 1_555
B10 Co1 2.221850 1_455
B10 Co1 2.221850 1_555
B10 Tm1 2.602975 1_455
B10 Tm1 2.602975 1_555
B10 Tm2 2.672938 1_555
B10 Tm2 2.672938 1_455
B11 B3 1.719205 1_555
B11 B12 1.791071 1_555
B11 B15 1.802745 1_555
B11 Co0 2.221850 1_555
B11 Co0 2.221850 1_455
B11 Tm0 2.602975 1_555
B11 Tm0 2.602975 1_455
B11 Tm3 2.672938 1_555
B11 Tm3 2.672938 1_455
B12 B4 1.786144 1_555
B12 B8 1.802745 1_555
B12 Co0 2.161404 1_555
B12 Co0 2.161404 1_455
B12 Tm3 2.640682 1_545
B12 Tm3 2.640682 1_445
B12 Tm0 2.662435 1_455
B12 Tm0 2.662435 1_555
B13 B5 1.786144 1_555
B13 B9 1.802745 1_555
B13 Co1 2.161404 1_455
B13 Co1 2.161404 1_555
B13 Tm2 2.640682 1_565
B13 Tm2 2.640682 1_465
B13 Tm1 2.662435 1_555
B13 Tm1 2.662435 1_455
B14 B6 1.786144 1_555
B14 B9 1.791071 1_545
B14 Co2 2.161404 1_555
B14 Co2 2.161404 1_455
B14 Tm1 2.640682 1_555
B14 Tm1 2.640682 1_455
B14 Tm2 2.662435 1_455
B14 Tm2 2.662435 1_555
B15 B7 1.786144 1_555
B15 B8 1.791071 1_565
B15 Co3 2.161404 1_455
B15 Co3 2.161404 1_555
B15 Tm0 2.640682 1_455
B15 Tm0 2.640682 1_555
B15 Tm3 2.662435 1_555
B15 Tm3 2.662435 1_455
