# generated using pymatgen
data_Cs
_symmetry_space_group_name_H-M   'P 1'
_cell_length_a   13.61523719
_cell_length_b   13.61523719
_cell_length_c   13.61523719
_cell_angle_alpha   90.00000000
_cell_angle_beta   90.00000000
_cell_angle_gamma   90.00000000
_symmetry_Int_Tables_number   1
_chemical_formula_structural   Cs
_chemical_formula_sum   Cs20
_cell_volume   2523.92028814
_cell_formula_units_Z   20
loop_
 _symmetry_equiv_pos_site_id
 _symmetry_equiv_pos_as_xyz
  1  'x, y, z'
loop_
 _atom_site_type_symbol
 _atom_site_label
 _atom_site_symmetry_multiplicity
 _atom_site_fract_x
 _atom_site_fract_y
 _atom_site_fract_z
 _atom_site_occupancy
  Cs  Cs0  1  0.87500000  0.70362744  0.04637256  1
  Cs  Cs1  1  0.06203893  0.06203893  0.06203893  1
  Cs  Cs2  1  0.20362744  0.45362744  0.12500000  1
  Cs  Cs3  1  0.81203793  0.31203893  0.18796107  1
  Cs  Cs4  1  0.45362744  0.12500000  0.20362744  1
  Cs  Cs5  1  0.54637356  0.62500000  0.29637256  1
  Cs  Cs6  1  0.18796107  0.81203793  0.31203893  1
  Cs  Cs7  1  0.79637356  0.95362744  0.37500000  1
  Cs  Cs8  1  0.93796107  0.56203893  0.43796107  1
  Cs  Cs9  1  0.12500000  0.20362744  0.45362744  1
  Cs  Cs10  1  0.62500000  0.29637256  0.54637356  1
  Cs  Cs11  1  0.43796107  0.93796107  0.56203893  1
  Cs  Cs12  1  0.29637256  0.54637356  0.62500000  1
  Cs  Cs13  1  0.68796107  0.68796107  0.68796107  1
  Cs  Cs14  1  0.04637256  0.87500000  0.70362744  1
  Cs  Cs15  1  0.95362744  0.37500000  0.79637356  1
  Cs  Cs16  1  0.31203893  0.18796107  0.81203793  1
  Cs  Cs17  1  0.70362744  0.04637256  0.87500000  1
  Cs  Cs18  1  0.56203893  0.43796107  0.93796107  1
  Cs  Cs19  1  0.37500000  0.79637356  0.95362744  1
loop_
_geom_bond_atom_site_label_1
_geom_bond_atom_site_label_2
_geom_bond_distance
_geom_bond_site_symmetry_2
Cs0 Cs1 5.508500 1_665
Cs0 Cs13 5.508500 1_554
Cs1 Cs3 5.109922 1_455
Cs1 Cs16 5.109922 1_554
Cs1 Cs6 5.109922 1_545
Cs1 Cs17 5.508500 1_454
Cs1 Cs14 5.508500 1_544
Cs2 Cs6 5.508488 1_555
Cs3 Cs8 5.109917 1_555
Cs3 Cs4 5.508488 1_555
Cs3 Cs7 5.508499 1_545
Cs5 Cs6 5.508506 1_555
Cs6 Cs8 5.109904 1_455
Cs8 Cs9 5.508500 1_655
Cs10 Cs11 5.508500 1_545
Cs10 Cs3 5.508506 1_555
Cs11 Cs16 5.109904 1_565
Cs11 Cs13 5.109913 1_555
Cs11 Cs6 5.109917 1_555
Cs11 Cs4 5.508500 1_565
Cs11 Cs7 5.508512 1_555
Cs12 Cs8 5.508500 1_455
Cs12 Cs16 5.508506 1_555
Cs13 Cs8 5.109913 1_555
Cs13 Cs18 5.109913 1_555
Cs13 Cs17 5.508500 1_565
Cs13 Cs14 5.508500 1_655
Cs15 Cs16 5.508499 1_655
Cs15 Cs8 5.508512 1_555
Cs16 Cs18 5.109917 1_555
Cs16 Cs9 5.508488 1_555
Cs18 Cs3 5.109904 1_556
Cs18 Cs5 5.508500 1_556
Cs18 Cs2 5.508500 1_556
Cs18 Cs19 5.508512 1_555
Cs19 Cs6 5.508499 1_556
