# generated using pymatgen
data_Te3MoWSe
_symmetry_space_group_name_H-M   'P 1'
_cell_length_a   3.49503963
_cell_length_b   3.49503963
_cell_length_c   40.60914700
_cell_angle_alpha   90.00000000
_cell_angle_beta   90.00000000
_cell_angle_gamma   119.99999300
_symmetry_Int_Tables_number   1
_chemical_formula_structural   Te3MoWSe
_chemical_formula_sum   'Te6 Mo2 W2 Se2'
_cell_volume   429.59452577
_cell_formula_units_Z   2
loop_
 _symmetry_equiv_pos_site_id
 _symmetry_equiv_pos_as_xyz
  1  'x, y, z'
loop_
 _atom_site_type_symbol
 _atom_site_label
 _atom_site_symmetry_multiplicity
 _atom_site_fract_x
 _atom_site_fract_y
 _atom_site_fract_z
 _atom_site_occupancy
  Te  Te0  1  0.00000000  0.00000000  0.32696900  1
  Te  Te1  1  0.33333300  0.66666700  0.04880100  1
  Te  Te2  1  0.33333300  0.66666700  0.42428700  1
  Te  Te3  1  0.33333300  0.66666700  0.13909100  1
  Te  Te4  1  0.33333300  0.66666700  0.51504600  1
  Te  Te5  1  0.00000000  0.00000000  0.23663700  1
  Mo  Mo0  1  0.00000000  0.00000000  0.09392400  1
  Mo  Mo1  1  0.33333300  0.66666700  0.28180000  1
  W  W0  1  0.00000000  0.00000000  0.46967400  1
  W  W1  1  0.33333300  0.66666700  0.65751200  1
  Se  Se0  1  0.00000000  0.00000000  0.69749600  1
  Se  Se1  1  0.00000000  0.00000000  0.61751100  1
loop_
_geom_bond_atom_site_label_1
_geom_bond_atom_site_label_2
_geom_bond_distance
_geom_bond_site_symmetry_2
Te2 W0 2.732925 1_565
Te2 W0 2.732927 1_555
Te2 W0 2.732927 1_665
Te4 W0 2.732514 1_565
Te4 W0 2.732516 1_555
Te4 W0 2.732516 1_665
Mo0 Te1 2.725706 1_545
Mo0 Te1 2.725708 1_445
Mo0 Te1 2.725708 1_555
Mo0 Te3 2.726907 1_545
Mo0 Te3 2.726910 1_445
Mo0 Te3 2.726910 1_555
Mo1 Te5 2.726798 1_565
Mo1 Te5 2.726801 1_665
Mo1 Te5 2.726801 1_555
Mo1 Te0 2.726962 1_565
Mo1 Te0 2.726964 1_555
Mo1 Te0 2.726964 1_665
Se0 W1 2.590022 1_545
Se0 W1 2.590024 1_445
Se0 W1 2.590024 1_555
Se1 W1 2.590455 1_545
Se1 W1 2.590457 1_445
Se1 W1 2.590457 1_555
