# generated using pymatgen
data_Li9Co7O16
_symmetry_space_group_name_H-M   'P 1'
_cell_length_a   2.97186900
_cell_length_b   5.06022609
_cell_length_c   19.00736230
_cell_angle_alpha   92.80202331
_cell_angle_beta   91.45309924
_cell_angle_gamma   90.75393712
_symmetry_Int_Tables_number   1
_chemical_formula_structural   Li9Co7O16
_chemical_formula_sum   'Li9 Co7 O16'
_cell_volume   285.37573785
_cell_formula_units_Z   1
loop_
 _symmetry_equiv_pos_site_id
 _symmetry_equiv_pos_as_xyz
  1  'x, y, z'
loop_
 _atom_site_type_symbol
 _atom_site_label
 _atom_site_symmetry_multiplicity
 _atom_site_fract_x
 _atom_site_fract_y
 _atom_site_fract_z
 _atom_site_occupancy
  Li  Li0  1  0.99978200  0.62471500  0.87517500  1
  Li  Li1  1  0.49555600  0.75243500  0.74982800  1
  Li  Li2  1  0.99753700  0.87454400  0.62582300  1
  Li  Li3  1  0.49873200  0.00043100  0.50116900  1
  Li  Li4  1  0.99985600  0.12642500  0.37554000  1
  Li  Li5  1  0.50183800  0.24863400  0.24838500  1
  Li  Li6  1  0.99825900  0.37596800  0.12407700  1
  Li  Li7  1  0.50377900  0.49754100  0.00043400  1
  Li  Li8  1  0.49977000  0.12512600  0.87521500  1
  Co  Co0  1  0.99848300  0.00010700  0.99509500  1
  Co  Co1  1  0.99930500  0.24872500  0.75519000  1
  Co  Co2  1  0.49404600  0.37048900  0.62559800  1
  Co  Co3  1  0.99897700  0.49345500  0.50052400  1
  Co  Co4  1  0.51376400  0.62341200  0.37461600  1
  Co  Co5  1  0.00794300  0.75647100  0.24909000  1
  Co  Co6  1  0.48957900  0.88198800  0.12431200  1
  O  O0  1  0.53177100  0.82101000  0.94191300  1
  O  O1  1  0.99954900  0.96927200  0.80510700  1
  O  O2  1  0.54211800  0.08225500  0.68747700  1
  O  O3  1  0.98955500  0.20735900  0.56300200  1
  O  O4  1  0.53607900  0.32451500  0.44026700  1
  O  O5  1  0.02401500  0.46241800  0.31251800  1
  O  O6  1  0.45926400  0.58976000  0.18754300  1
  O  O7  1  0.98701900  0.72073900  0.06119600  1
  O  O8  1  0.46584600  0.42862000  0.80848900  1
  O  O9  1  0.00180900  0.52990200  0.68909900  1
  O  O10  1  0.45032400  0.66636700  0.56302200  1
  O  O11  1  0.00614600  0.78389100  0.43685000  1
  O  O12  1  0.55420500  0.91851100  0.30835600  1
  O  O13  1  0.99554900  0.04567100  0.18714100  1
  O  O14  1  0.45935700  0.16891200  0.06278400  1
  O  O15  1  0.00019400  0.28033900  0.94516500  1
loop_
_geom_bond_atom_site_label_1
_geom_bond_atom_site_label_2
_geom_bond_distance
_geom_bond_site_symmetry_2
Li0 O8 2.124133 1_655
Li0 O0 2.129067 1_555
Li0 O0 2.197521 1_655
Li0 O8 2.200621 1_555
Li0 O15 2.243462 1_655
Li0 O1 2.245138 1_555
Li1 O8 2.028730 1_555
Li1 O1 2.077392 1_555
Li1 O2 2.098747 1_565
Li1 O1 2.118775 1_455
Li1 O9 2.120632 1_555
Li1 O9 2.206714 1_655
Li2 O2 2.075405 1_565
Li2 O10 2.083532 1_655
Li2 O3 2.111594 1_565
Li2 O9 2.166327 1_655
Li2 O2 2.199080 1_665
Li2 O10 2.216477 1_555
Li3 O4 2.056466 1_555
Li3 O3 2.087569 1_555
Li3 O10 2.111149 1_545
Li3 O11 2.138760 1_545
Li3 O3 2.186112 1_455
Li3 O11 2.230520 1_645
Li4 O12 2.058611 1_545
Li4 O4 2.102340 1_555
Li4 O5 2.128622 1_655
Li4 O11 2.135399 1_645
Li4 O4 2.189942 1_655
Li4 O12 2.339372 1_645
Li5 O12 2.073197 1_545
Li5 O13 2.104142 1_455
Li5 O6 2.127570 1_555
Li5 O13 2.138248 1_555
Li5 O5 2.161483 1_555
Li5 O5 2.189840 1_655
Li6 O6 2.062083 1_655
Li6 O14 2.081404 1_655
Li6 O13 2.103905 1_555
Li6 O7 2.162567 1_555
Li6 O14 2.182170 1_555
Li6 O6 2.281979 1_555
Li7 O0 2.025467 1_554
Li7 O15 2.077367 1_554
Li7 O14 2.093349 1_555
Li7 O7 2.101806 1_555
Li7 O15 2.120478 1_654
Li7 O7 2.230705 1_455
Li8 O8 2.040896 1_555
Li8 O0 2.042773 1_545
Li8 O15 2.088838 1_655
Li8 O1 2.091314 1_445
Li8 O15 2.148855 1_555
Li8 O1 2.152260 1_545
Co0 O15 1.744465 1_655
Co0 O0 1.890285 1_545
Co0 O7 1.937194 1_546
Co0 O14 2.008309 1_656
Co0 O0 2.093900 1_645
Co0 O14 2.232746 1_556
Co1 O1 1.740988 1_545
Co1 O8 1.892813 1_655
Co1 O9 1.943578 1_655
Co1 O2 1.996832 1_555
Co1 O8 2.097058 1_555
Co1 O2 2.236841 1_655
Co2 O2 1.922432 1_555
Co2 O10 1.960763 1_555
Co2 O3 2.031201 1_455
Co2 O9 2.040839 1_655
Co2 O9 2.067102 1_555
Co2 O3 2.071313 1_555
Co3 O3 1.917189 1_555
Co3 O4 1.930925 1_555
Co3 O10 1.939747 1_655
Co3 O11 1.949241 1_655
Co3 O4 2.150193 1_655
Co3 O10 2.206696 1_555
Co4 O5 1.990699 1_555
Co4 O11 1.996737 1_655
Co4 O12 2.004315 1_555
Co4 O4 2.008014 1_555
Co4 O11 2.088858 1_555
Co4 O5 2.094176 1_655
Co5 O13 1.922788 1_465
Co5 O12 1.943054 1_455
Co5 O5 1.960653 1_555
Co5 O6 1.972830 1_555
Co5 O12 2.087753 1_555
Co5 O6 2.123587 1_455
Co6 O14 1.909946 1_565
Co6 O6 1.953199 1_555
Co6 O7 2.029042 1_455
Co6 O13 2.037810 1_565
Co6 O13 2.071712 1_465
Co6 O7 2.077601 1_555
