# generated using pymatgen
data_Li7Mn4CoO12
_symmetry_space_group_name_H-M   'P 1'
_cell_length_a   5.81719100
_cell_length_b   5.92250973
_cell_length_c   7.72878202
_cell_angle_alpha   76.81931850
_cell_angle_beta   68.09253940
_cell_angle_gamma   60.77913578
_symmetry_Int_Tables_number   1
_chemical_formula_structural   Li7Mn4CoO12
_chemical_formula_sum   'Li7 Mn4 Co1 O12'
_cell_volume   215.26209451
_cell_formula_units_Z   1
loop_
 _symmetry_equiv_pos_site_id
 _symmetry_equiv_pos_as_xyz
  1  'x, y, z'
loop_
 _atom_site_type_symbol
 _atom_site_label
 _atom_site_symmetry_multiplicity
 _atom_site_fract_x
 _atom_site_fract_y
 _atom_site_fract_z
 _atom_site_occupancy
  Li  Li0  1  0.99768000  0.50512100  0.00751200  1
  Li  Li1  1  0.99656600  0.16979000  0.33720200  1
  Li  Li2  1  0.00155500  0.82766400  0.65573100  1
  Li  Li3  1  0.50043200  0.00046600  0.99930500  1
  Li  Li4  1  0.50244500  0.66576400  0.33856000  1
  Li  Li5  1  0.50255700  0.33186700  0.66196400  1
  Li  Li6  1  0.99443600  0.66880500  0.33672500  1
  Mn  Mn0  1  0.00197500  0.99567800  0.00104000  1
  Mn  Mn1  1  0.50142600  0.16309400  0.33634100  1
  Mn  Mn2  1  0.99876500  0.33974100  0.66182700  1
  Mn  Mn3  1  0.49175200  0.50914700  0.00320100  1
  Co  Co0  1  0.50495000  0.82686100  0.66367300  1
  O  O0  1  0.24797700  0.13960000  0.81892800  1
  O  O1  1  0.26024900  0.81132700  0.14389300  1
  O  O2  1  0.26102800  0.46205900  0.49205700  1
  O  O3  1  0.72286100  0.67548000  0.83963400  1
  O  O4  1  0.71950000  0.34772700  0.17359600  1
  O  O5  1  0.72599300  0.00237200  0.50117000  1
  O  O6  1  0.74232000  0.87175300  0.17244100  1
  O  O7  1  0.74365700  0.51846500  0.52089200  1
  O  O8  1  0.74699400  0.19648800  0.84860100  1
  O  O9  1  0.27568500  0.33113900  0.16326800  1
  O  O10  1  0.28223500  0.98644100  0.49085700  1
  O  O11  1  0.27696200  0.65315100  0.83157800  1
loop_
_geom_bond_atom_site_label_1
_geom_bond_atom_site_label_2
_geom_bond_distance
_geom_bond_site_symmetry_2
Li0 O9 2.094354 1_655
Li0 O11 2.110811 1_654
Li0 O4 2.124231 1_555
Li0 O3 2.152493 1_554
Li0 O6 2.290504 1_555
Li0 O0 2.389267 1_654
Li1 O10 2.115116 1_645
Li1 O5 2.128093 1_555
Li1 O4 2.135869 1_555
Li1 O9 2.157992 1_655
Li1 O7 2.292704 1_555
Li1 O1 2.376777 1_645
Li2 O5 2.076785 1_465
Li2 O10 2.138697 1_555
Li2 O3 2.140994 1_455
Li2 O11 2.202169 1_555
Li2 O2 2.280427 1_555
Li2 O8 2.421960 1_465
Li3 O6 2.060152 1_546
Li3 O1 2.061029 1_546
Li3 O3 2.088504 1_545
Li3 O8 2.126997 1_555
Li3 O9 2.132171 1_556
Li3 O0 2.145129 1_555
Li4 O10 2.037750 1_555
Li4 O4 2.083156 1_555
Li4 O7 2.106073 1_555
Li4 O2 2.143231 1_555
Li4 O6 2.166740 1_555
Li4 O1 2.190030 1_555
Li5 O2 2.037238 1_555
Li5 O7 2.049360 1_555
Li5 O5 2.113313 1_555
Li5 O11 2.115919 1_555
Li5 O8 2.153022 1_555
Li5 O0 2.153460 1_555
Li6 O7 2.021816 1_555
Li6 O6 2.044577 1_555
Li6 O2 2.051951 1_655
Li6 O1 2.074997 1_655
Li6 O5 2.146784 1_565
Li6 O9 2.205616 1_655
Mn0 O6 1.928966 1_455
Mn0 O1 1.937742 1_555
Mn0 O0 1.973901 1_564
Mn0 O8 1.986280 1_464
Mn0 O11 2.206697 1_554
Mn0 O4 2.261358 1_465
Mn1 O5 1.926205 1_555
Mn1 O10 1.934678 1_545
Mn1 O2 1.958950 1_555
Mn1 O6 1.963925 1_545
Mn1 O4 1.980797 1_555
Mn1 O9 1.982892 1_555
Mn2 O7 1.912050 1_555
Mn2 O2 1.930237 1_655
Mn2 O0 1.990068 1_655
Mn2 O8 2.006412 1_555
Mn2 O3 2.214196 1_555
Mn2 O10 2.260447 1_645
Mn3 O1 1.908004 1_555
Mn3 O11 1.930905 1_554
Mn3 O9 1.939169 1_555
Mn3 O3 1.957777 1_554
Mn3 O4 1.973504 1_555
Mn3 O8 2.015425 1_554
Co0 O7 1.944592 1_555
Co0 O5 1.953411 1_565
Co0 O10 1.968711 1_555
Co0 O3 1.970013 1_555
Co0 O11 1.985051 1_555
Co0 O0 2.019116 1_565
