# generated using pymatgen
data_Yb2Fe3Cu
_symmetry_space_group_name_H-M   'P 1'
_cell_length_a   5.18000562
_cell_length_b   5.18000562
_cell_length_c   5.18000557
_cell_angle_alpha   58.58100135
_cell_angle_beta   58.58100135
_cell_angle_gamma   58.58099600
_symmetry_Int_Tables_number   1
_chemical_formula_structural   Yb2Fe3Cu
_chemical_formula_sum   'Yb2 Fe3 Cu1'
_cell_volume   95.09351044
_cell_formula_units_Z   1
loop_
 _symmetry_equiv_pos_site_id
 _symmetry_equiv_pos_as_xyz
  1  'x, y, z'
loop_
 _atom_site_type_symbol
 _atom_site_label
 _atom_site_symmetry_multiplicity
 _atom_site_fract_x
 _atom_site_fract_y
 _atom_site_fract_z
 _atom_site_occupancy
  Yb  Yb0  1  0.12345855  0.12345855  0.12345855  1
  Yb  Yb1  1  0.87654145  0.87654145  0.87654145  1
  Fe  Fe0  1  0.50000000  0.00000000  0.50000000  1
  Fe  Fe1  1  0.00000000  0.50000000  0.50000000  1
  Fe  Fe2  1  0.50000000  0.50000000  0.00000000  1
  Cu  Cu0  1  0.50000000  0.50000000  0.50000000  1
loop_
_geom_bond_atom_site_label_1
_geom_bond_atom_site_label_2
_geom_bond_distance
_geom_bond_site_symmetry_2
Fe0 Fe1 2.534255 1_645
Fe0 Fe1 2.534255 1_555
Fe0 Fe2 2.534255 1_546
Fe0 Fe2 2.534255 1_555
Fe0 Yb0 2.988073 1_556
Fe0 Yb1 2.988073 1_544
Fe0 Yb0 2.988073 1_655
Fe0 Yb1 2.988073 1_445
Fe0 Yb1 3.063203 1_545
Fe0 Yb0 3.063203 1_555
Fe1 Fe2 2.534255 1_456
Fe1 Fe2 2.534255 1_555
Fe1 Yb0 2.988073 1_556
Fe1 Yb1 2.988073 1_454
Fe1 Yb0 2.988073 1_565
Fe1 Yb1 2.988073 1_445
Fe1 Yb1 3.063203 1_455
Fe1 Yb0 3.063203 1_555
Fe2 Yb0 2.988073 1_565
Fe2 Yb0 2.988073 1_655
Fe2 Yb1 2.988073 1_544
Fe2 Yb1 2.988073 1_454
Fe2 Yb1 3.063203 1_554
Fe2 Yb0 3.063203 1_555
Cu0 Fe2 2.590003 1_556
Cu0 Fe2 2.590003 1_555
Cu0 Fe1 2.590003 1_655
Cu0 Fe0 2.590003 1_555
Cu0 Fe0 2.590003 1_565
Cu0 Fe1 2.590003 1_555
Cu0 Yb1 2.978293 1_545
Cu0 Yb1 2.978293 1_455
Cu0 Yb0 2.978293 1_565
Cu0 Yb0 2.978293 1_655
Cu0 Yb1 2.978293 1_554
Cu0 Yb0 2.978293 1_556
