# generated using pymatgen
data_Mg10FeO11
_symmetry_space_group_name_H-M   'P 1'
_cell_length_a   5.22315692
_cell_length_b   25.25472081
_cell_length_c   6.75583438
_cell_angle_alpha   96.13037985
_cell_angle_beta   104.95754138
_cell_angle_gamma   90.19455884
_symmetry_Int_Tables_number   1
_chemical_formula_structural   Mg10FeO11
_chemical_formula_sum   'Mg40 Fe4 O44'
_cell_volume   855.59491908
_cell_formula_units_Z   4
loop_
 _symmetry_equiv_pos_site_id
 _symmetry_equiv_pos_as_xyz
  1  'x, y, z'
loop_
 _atom_site_type_symbol
 _atom_site_label
 _atom_site_symmetry_multiplicity
 _atom_site_fract_x
 _atom_site_fract_y
 _atom_site_fract_z
 _atom_site_occupancy
  Mg  Mg0  1  0.86217400  0.04559500  0.58884100  1
  Mg  Mg1  1  0.61540700  0.29544700  0.34140200  1
  Mg  Mg2  1  0.36118800  0.54506000  0.09078200  1
  Mg  Mg3  1  0.11207500  0.79554600  0.83889700  1
  Mg  Mg4  1  0.74816900  0.24991400  0.74952500  1
  Mg  Mg5  1  0.50238500  0.50026800  0.50008700  1
  Mg  Mg6  1  0.25157900  0.74997300  0.25199600  1
  Mg  Mg7  1  0.00146900  0.99998800  0.00212300  1
  Mg  Mg8  1  0.29519600  0.06826600  0.38865500  1
  Mg  Mg9  1  0.04432000  0.31850300  0.13621500  1
  Mg  Mg10  1  0.79522400  0.56814400  0.88694100  1
  Mg  Mg11  1  0.54535600  0.81828500  0.63854600  1
  Mg  Mg12  1  0.31906700  0.22686800  0.95477900  1
  Mg  Mg13  1  0.06850700  0.47726500  0.70374700  1
  Mg  Mg14  1  0.81850600  0.72726100  0.45239900  1
  Mg  Mg15  1  0.56837200  0.97728100  0.20245600  1
  Mg  Mg16  1  0.72704800  0.09109600  0.18378000  1
  Mg  Mg17  1  0.47862100  0.34097200  0.93206100  1
  Mg  Mg18  1  0.22712800  0.59068000  0.68183100  1
  Mg  Mg19  1  0.97704200  0.84116000  0.43372500  1
  Mg  Mg20  1  0.88519700  0.20436500  0.15843800  1
  Mg  Mg21  1  0.63644500  0.45472000  0.90892600  1
  Mg  Mg22  1  0.38650900  0.70440300  0.65761500  1
  Mg  Mg23  1  0.13657400  0.95440500  0.40721000  1
  Mg  Mg24  1  0.59143900  0.13631000  0.77286700  1
  Mg  Mg25  1  0.34201400  0.38593700  0.52307800  1
  Mg  Mg26  1  0.09432100  0.63609300  0.27347900  1
  Mg  Mg27  1  0.84152100  0.88629100  0.02283200  1
  Mg  Mg28  1  0.02124000  0.15967600  0.56778100  1
  Mg  Mg29  1  0.76945900  0.40924400  0.31741000  1
  Mg  Mg30  1  0.52255200  0.65900800  0.06816200  1
  Mg  Mg31  1  0.27211900  0.90928000  0.81813000  1
  Mg  Mg32  1  0.16117500  0.11363500  0.97704500  1
  Mg  Mg33  1  0.91084900  0.36406900  0.72652400  1
  Mg  Mg34  1  0.66182400  0.61404800  0.47927800  1
  Mg  Mg35  1  0.41167800  0.86368800  0.22746400  1
  Mg  Mg36  1  0.45204500  0.18133200  0.36394900  1
  Mg  Mg37  1  0.20235300  0.43131600  0.11203100  1
  Mg  Mg38  1  0.95261800  0.68177000  0.86380900  1
  Mg  Mg39  1  0.70192100  0.93185100  0.61344200  1
  Fe  Fe0  1  0.93199100  0.52268500  0.29549500  1
  Fe  Fe1  1  0.68186900  0.77271500  0.04553700  1
  Fe  Fe2  1  0.43189900  0.02279400  0.79542100  1
  Fe  Fe3  1  0.18194800  0.27277600  0.54548300  1
  O  O0  1  0.93185600  0.02280200  0.29540400  1
  O  O1  1  0.68173800  0.27271300  0.04551000  1
  O  O2  1  0.43180300  0.52266000  0.79542600  1
  O  O3  1  0.18188800  0.77275500  0.54541300  1
  O  O4  1  0.24886600  0.25011200  0.24797300  1
  O  O5  1  0.00068100  0.49915600  0.99309700  1
  O  O6  1  0.75178900  0.74929500  0.74344200  1
  O  O7  1  0.50201600  0.99927900  0.49313600  1
  O  O8  1  0.36158300  0.04625300  0.09778200  1
  O  O9  1  0.11470000  0.29523800  0.84292500  1
  O  O10  1  0.86294600  0.54619800  0.59769100  1
  O  O11  1  0.61185600  0.79626400  0.34758900  1
  O  O12  1  0.79702700  0.06821900  0.88706000  1
  O  O13  1  0.55628900  0.31917900  0.63874900  1
  O  O14  1  0.30574700  0.56928500  0.38870500  1
  O  O15  1  0.04697900  0.81812900  0.13688900  1
  O  O16  1  0.80739200  0.22617900  0.45206800  1
  O  O17  1  0.55801300  0.47601900  0.20192000  1
  O  O18  1  0.31664500  0.72740900  0.95411700  1
  O  O19  1  0.06646300  0.97740300  0.70414000  1
  O  O20  1  0.65810300  0.11344300  0.47820400  1
  O  O21  1  0.40748800  0.36322000  0.22675600  1
  O  O22  1  0.16044800  0.61350600  0.97810600  1
  O  O23  1  0.90858800  0.86368500  0.72800100  1
  O  O24  1  0.95484100  0.18199900  0.86440100  1
  O  O25  1  0.70361600  0.43205400  0.61241200  1
  O  O26  1  0.45637000  0.68199800  0.36273200  1
  O  O27  1  0.20505600  0.93187900  0.11301000  1
  O  O28  1  0.22078800  0.09247200  0.67875200  1
  O  O29  1  0.97350600  0.34242700  0.42785000  1
  O  O30  1  0.72794500  0.59083800  0.18174500  1
  O  O31  1  0.47128300  0.84235200  0.92909300  1
  O  O32  1  0.39015200  0.20321100  0.66288000  1
  O  O33  1  0.13599200  0.45445600  0.40925200  1
  O  O34  1  0.89233700  0.70291700  0.16210300  1
  O  O35  1  0.64240300  0.95318800  0.91192900  1
  O  O36  1  0.52269400  0.15879800  0.06818300  1
  O  O37  1  0.27269800  0.40844800  0.81606100  1
  O  O38  1  0.02419900  0.65880500  0.56857000  1
  O  O39  1  0.77413700  0.90882000  0.31838300  1
  O  O40  1  0.08966500  0.13684200  0.27248300  1
  O  O41  1  0.84081000  0.38652700  0.02251600  1
  O  O42  1  0.59069700  0.63680800  0.77477200  1
  O  O43  1  0.33950700  0.88678300  0.52257200  1
loop_
_geom_bond_atom_site_label_1
_geom_bond_atom_site_label_2
_geom_bond_distance
_geom_bond_site_symmetry_2
Mg0 O20 2.122619 1_555
Mg0 O7 2.126188 1_545
Mg0 O28 2.126740 1_655
Mg0 O0 2.126951 1_555
Mg0 O19 2.140356 1_645
Mg0 O12 2.147248 1_555
Mg1 O29 2.126090 1_555
Mg1 O16 2.128136 1_555
Mg1 O13 2.134070 1_555
Mg1 O1 2.135273 1_555
Mg1 O21 2.137844 1_555
Mg1 O4 2.140453 1_555
Mg2 O5 2.122596 1_554
Mg2 O22 2.132639 1_554
Mg2 O14 2.132663 1_555
Mg2 O17 2.134043 1_555
Mg2 O2 2.139584 1_554
Mg2 O30 2.146953 1_555
Mg3 O6 2.125854 1_455
Mg3 O3 2.127526 1_555
Mg3 O23 2.128128 1_455
Mg3 O31 2.128301 1_555
Mg3 O18 2.139610 1_555
Mg3 O15 2.145511 1_556
Mg4 O32 2.122059 1_555
Mg4 O13 2.128097 1_555
Mg4 O16 2.135001 1_555
Mg4 O1 2.136359 1_556
Mg4 O24 2.138650 1_555
Mg4 O9 2.140270 1_655
Mg5 O10 2.123145 1_555
Mg5 O25 2.127945 1_555
Mg5 O14 2.133660 1_555
Mg5 O17 2.134711 1_555
Mg5 O2 2.139371 1_555
Mg5 O33 2.145836 1_555
Mg6 O11 2.126351 1_555
Mg6 O3 2.126795 1_555
Mg6 O26 2.127099 1_555
Mg6 O34 2.131748 1_455
Mg6 O15 2.139834 1_555
Mg6 O18 2.144643 1_554
Mg7 O8 2.125336 1_565
Mg7 O0 2.125896 1_465
Mg7 O35 2.127624 1_454
Mg7 O27 2.127682 1_555
Mg7 O12 2.141003 1_464
Mg7 O19 2.145248 1_554
Mg8 O8 2.100141 1_555
Mg8 O28 2.122419 1_555
Mg8 O20 2.122888 1_555
Mg8 O0 2.128455 1_455
Mg8 O7 2.140663 1_545
Mg8 O40 2.153090 1_555
Mg9 O21 2.118169 1_555
Mg9 O29 2.123002 1_455
Mg9 O1 2.129337 1_455
Mg9 O9 2.129597 1_554
Mg9 O41 2.131656 1_455
Mg9 O4 2.137603 1_555
Mg10 O10 2.092302 1_555
Mg10 O2 2.128991 1_555
Mg10 O30 2.130135 1_556
Mg10 O22 2.135119 1_655
Mg10 O5 2.140970 1_655
Mg10 O42 2.144271 1_555
Mg11 O11 2.100954 1_555
Mg11 O31 2.123875 1_555
Mg11 O23 2.127120 1_555
Mg11 O3 2.129835 1_555
Mg11 O6 2.140680 1_555
Mg11 O43 2.151673 1_555
Mg12 O32 2.124029 1_555
Mg12 O24 2.124614 1_455
Mg12 O4 2.128503 1_556
Mg12 O1 2.130423 1_556
Mg12 O36 2.132256 1_556
Mg12 O9 2.136971 1_555
Mg13 O5 2.092937 1_555
Mg13 O2 2.127327 1_555
Mg13 O33 2.129089 1_555
Mg13 O25 2.131783 1_455
Mg13 O10 2.139818 1_455
Mg13 O37 2.147137 1_555
Mg14 O6 2.102023 1_555
Mg14 O26 2.120692 1_555
Mg14 O34 2.123076 1_555
Mg14 O3 2.129004 1_655
Mg14 O11 2.141270 1_555
Mg14 O38 2.150873 1_655
Mg15 O7 2.098774 1_555
Mg15 O35 2.123779 1_554
Mg15 O27 2.127504 1_555
Mg15 O0 2.129779 1_565
Mg15 O8 2.140646 1_565
Mg15 O39 2.150603 1_555
Mg16 O40 2.128959 1_655
Mg16 O20 2.129789 1_555
Mg16 O8 2.129840 1_555
Mg16 O36 2.130696 1_555
Mg16 O0 2.135811 1_555
Mg16 O12 2.148972 1_554
Mg17 O41 2.124648 1_556
Mg17 O37 2.130136 1_555
Mg17 O9 2.134343 1_555
Mg17 O1 2.135308 1_556
Mg17 O21 2.135836 1_556
Mg17 O13 2.139541 1_555
Mg18 O10 2.119984 1_455
Mg18 O38 2.131639 1_555
Mg18 O2 2.133840 1_555
Mg18 O42 2.137925 1_555
Mg18 O22 2.138862 1_555
Mg18 O14 2.138914 1_555
Mg19 O39 2.126157 1_555
Mg19 O43 2.126725 1_655
Mg19 O23 2.128537 1_555
Mg19 O11 2.129295 1_555
Mg19 O3 2.138401 1_655
Mg19 O15 2.150288 1_655
Mg20 O40 2.123764 1_655
Mg20 O36 2.126139 1_555
Mg20 O24 2.128891 1_554
Mg20 O4 2.133423 1_655
Mg20 O1 2.136829 1_555
Mg20 O16 2.141968 1_555
Mg21 O5 2.119635 1_655
Mg21 O2 2.131859 1_555
Mg21 O41 2.136860 1_556
Mg21 O17 2.137273 1_556
Mg21 O37 2.140534 1_555
Mg21 O25 2.140752 1_555
Mg22 O38 2.125737 1_555
Mg22 O6 2.129681 1_555
Mg22 O42 2.131493 1_555
Mg22 O26 2.134945 1_555
Mg22 O3 2.137863 1_555
Mg22 O18 2.147884 1_555
Mg23 O43 2.125450 1_555
Mg23 O39 2.126119 1_455
Mg23 O27 2.128115 1_555
Mg23 O7 2.130140 1_555
Mg23 O0 2.138202 1_465
Mg23 O19 2.151121 1_555
Mg24 O32 2.095004 1_555
Mg24 O20 2.128673 1_555
Mg24 O24 2.131532 1_555
Mg24 O36 2.135672 1_556
Mg24 O12 2.138596 1_555
Mg24 O28 2.139540 1_555
Mg25 O37 2.122043 1_555
Mg25 O29 2.126386 1_455
Mg25 O25 2.129419 1_555
Mg25 O13 2.132707 1_555
Mg25 O21 2.136151 1_555
Mg25 O33 2.147879 1_555
Mg26 O34 2.097802 1_455
Mg26 O14 2.126407 1_555
Mg26 O26 2.128574 1_555
Mg26 O22 2.130885 1_554
Mg26 O38 2.138140 1_555
Mg26 O30 2.138688 1_455
Mg27 O35 2.092213 1_554
Mg27 O23 2.129482 1_554
Mg27 O27 2.130802 1_655
Mg27 O39 2.134447 1_555
Mg27 O31 2.138971 1_554
Mg27 O15 2.139540 1_655
Mg28 O28 2.099845 1_555
Mg28 O16 2.126479 1_455
Mg28 O32 2.128420 1_555
Mg28 O40 2.136347 1_555
Mg28 O20 2.137428 1_455
Mg28 O24 2.138358 1_455
Mg29 O29 2.100157 1_555
Mg29 O17 2.126322 1_555
Mg29 O25 2.128862 1_555
Mg29 O21 2.129762 1_555
Mg29 O33 2.138817 1_655
Mg29 O41 2.139559 1_555
Mg30 O42 2.120827 1_554
Mg30 O22 2.123609 1_554
Mg30 O26 2.127593 1_555
Mg30 O34 2.136661 1_555
Mg30 O30 2.138559 1_555
Mg30 O18 2.145579 1_554
Mg31 O31 2.093102 1_555
Mg31 O27 2.129758 1_556
Mg31 O23 2.130875 1_455
Mg31 O43 2.134365 1_555
Mg31 O35 2.138794 1_555
Mg31 O19 2.138990 1_555
Mg32 O36 2.116793 1_556
Mg32 O8 2.127131 1_556
Mg32 O28 2.130423 1_555
Mg32 O12 2.131221 1_455
Mg32 O24 2.142742 1_455
Mg32 O40 2.145510 1_556
Mg33 O13 2.083691 1_555
Mg33 O37 2.108266 1_655
Mg33 O25 2.139719 1_555
Mg33 O29 2.140996 1_555
Mg33 O41 2.142661 1_556
Mg33 O9 2.155484 1_655
Mg34 O14 2.088526 1_555
Mg34 O38 2.115289 1_655
Mg34 O10 2.133282 1_555
Mg34 O26 2.140400 1_555
Mg34 O42 2.143098 1_555
Mg34 O30 2.147411 1_555
Mg35 O39 2.120399 1_555
Mg35 O11 2.126139 1_555
Mg35 O31 2.131572 1_554
Mg35 O15 2.135388 1_555
Mg35 O27 2.143513 1_555
Mg35 O43 2.144345 1_555
Mg36 O16 2.086476 1_555
Mg36 O40 2.111956 1_555
Mg36 O20 2.135437 1_555
Mg36 O32 2.142010 1_555
Mg36 O36 2.142847 1_555
Mg36 O4 2.152053 1_555
Mg37 O17 2.085966 1_555
Mg37 O41 2.112133 1_455
Mg37 O5 2.135390 1_554
Mg37 O21 2.138873 1_555
Mg37 O37 2.144918 1_554
Mg37 O33 2.145611 1_555
Mg38 O42 2.115953 1_555
Mg38 O6 2.130194 1_555
Mg38 O34 2.131736 1_556
Mg38 O18 2.133549 1_655
Mg38 O38 2.143334 1_655
Mg38 O22 2.147347 1_655
Mg39 O43 2.119393 1_555
Mg39 O7 2.126077 1_555
Mg39 O35 2.132148 1_555
Mg39 O19 2.134628 1_655
Mg39 O23 2.143303 1_555
Mg39 O39 2.143850 1_555
Fe0 O30 2.135666 1_555
Fe0 O33 2.137209 1_655
Fe0 O10 2.184796 1_555
Fe0 O5 2.185405 1_654
Fe0 O14 2.187264 1_655
Fe0 O17 2.189053 1_555
Fe1 O18 2.134410 1_554
Fe1 O15 2.135294 1_655
Fe1 O6 2.185610 1_554
Fe1 O11 2.186094 1_555
Fe1 O31 2.187133 1_554
Fe1 O34 2.190573 1_555
Fe2 O12 2.135513 1_555
Fe2 O19 2.136392 1_545
Fe2 O35 2.186432 1_545
Fe2 O7 2.187660 1_545
Fe2 O8 2.188329 1_556
Fe2 O28 2.189620 1_555
Fe3 O9 2.146013 1_555
Fe3 O4 2.146597 1_555
Fe3 O32 2.182545 1_555
Fe3 O29 2.185399 1_455
Fe3 O13 2.187258 1_555
Fe3 O16 2.190638 1_455
