# generated using pymatgen
data_MgCdAg2
_symmetry_space_group_name_H-M   'P 1'
_cell_length_a   6.44857506
_cell_length_b   6.44857506
_cell_length_c   14.14252362
_cell_angle_alpha   90.00000000
_cell_angle_beta   90.00000000
_cell_angle_gamma   90.00000000
_symmetry_Int_Tables_number   1
_chemical_formula_structural   MgCdAg2
_chemical_formula_sum   'Mg8 Cd8 Ag16'
_cell_volume   588.10440362
_cell_formula_units_Z   8
loop_
 _symmetry_equiv_pos_site_id
 _symmetry_equiv_pos_as_xyz
  1  'x, y, z'
loop_
 _atom_site_type_symbol
 _atom_site_label
 _atom_site_symmetry_multiplicity
 _atom_site_fract_x
 _atom_site_fract_y
 _atom_site_fract_z
 _atom_site_occupancy
  Mg  Mg0_0  1  0.25000000  0.25000000  0.00000000  1
  Mg  Mg0_1  1  0.25000000  0.25000000  0.50000000  1
  Mg  Mg0_2  1  0.25000000  0.75000000  0.00000000  1
  Mg  Mg0_3  1  0.25000000  0.75000000  0.50000000  1
  Mg  Mg0_4  1  0.75000000  0.25000000  0.00000000  1
  Mg  Mg0_5  1  0.75000000  0.25000000  0.50000000  1
  Mg  Mg0_6  1  0.75000000  0.75000000  0.00000000  1
  Mg  Mg0_7  1  0.75000000  0.75000000  0.50000000  1
  Cd  Cd0_0  1  0.25000000  0.25000000  0.25000000  1
  Cd  Cd0_1  1  0.25000000  0.25000000  0.75000000  1
  Cd  Cd0_2  1  0.25000000  0.75000000  0.25000000  1
  Cd  Cd0_3  1  0.25000000  0.75000000  0.75000000  1
  Cd  Cd0_4  1  0.75000000  0.25000000  0.25000000  1
  Cd  Cd0_5  1  0.75000000  0.25000000  0.75000000  1
  Cd  Cd0_6  1  0.75000000  0.75000000  0.25000000  1
  Cd  Cd0_7  1  0.75000000  0.75000000  0.75000000  1
  Ag  Ag0_0  1  0.00000000  0.00000000  0.38024941  1
  Ag  Ag0_1  1  0.00000000  0.00000000  0.88024941  1
  Ag  Ag0_2  1  0.00000000  0.50000000  0.38024941  1
  Ag  Ag0_3  1  0.00000000  0.50000000  0.88024941  1
  Ag  Ag0_4  1  0.50000000  0.00000000  0.38024941  1
  Ag  Ag0_5  1  0.50000000  0.00000000  0.88024941  1
  Ag  Ag0_6  1  0.50000000  0.50000000  0.38024941  1
  Ag  Ag0_7  1  0.50000000  0.50000000  0.88024941  1
  Ag  Ag1_0  1  0.00000000  0.00000000  0.11975059  1
  Ag  Ag1_1  1  0.00000000  0.00000000  0.61975059  1
  Ag  Ag1_2  1  0.00000000  0.50000000  0.11975059  1
  Ag  Ag1_3  1  0.00000000  0.50000000  0.61975059  1
  Ag  Ag1_4  1  0.50000000  0.00000000  0.11975059  1
  Ag  Ag1_5  1  0.50000000  0.00000000  0.61975059  1
  Ag  Ag1_6  1  0.50000000  0.50000000  0.11975059  1
  Ag  Ag1_7  1  0.50000000  0.50000000  0.61975059  1
loop_
_geom_bond_atom_site_label_1
_geom_bond_atom_site_label_2
_geom_bond_distance
_geom_bond_site_symmetry_2
Cd0_0 Cd0_2 3.224288 1_555
Cd0_0 Cd0_4 3.224288 1_555
Cd0_0 Cd0_4 3.224288 1_455
Cd0_0 Cd0_2 3.224288 1_545
Cd0_1 Cd0_3 3.224288 1_555
Cd0_1 Cd0_5 3.224288 1_555
Cd0_1 Cd0_5 3.224288 1_455
Cd0_1 Cd0_3 3.224288 1_545
Cd0_2 Cd0_6 3.224288 1_555
Cd0_2 Cd0_6 3.224288 1_455
Cd0_3 Cd0_7 3.224288 1_555
Cd0_3 Cd0_7 3.224288 1_455
Cd0_4 Cd0_6 3.224288 1_555
Cd0_4 Cd0_6 3.224288 1_545
Cd0_5 Cd0_7 3.224288 1_555
Cd0_5 Cd0_7 3.224288 1_545
Ag0_0 Mg0_5 2.840108 1_455
Ag0_0 Mg0_1 2.840108 1_555
Ag0_0 Mg0_3 2.840108 1_545
Ag0_0 Mg0_7 2.840108 1_445
Ag0_0 Cd0_0 2.931072 1_555
Ag0_0 Cd0_6 2.931072 1_445
Ag0_0 Cd0_4 2.931072 1_455
Ag0_0 Cd0_2 2.931072 1_545
Ag0_1 Mg0_0 2.840108 1_556
Ag0_1 Mg0_4 2.840108 1_456
Ag0_1 Mg0_2 2.840108 1_546
Ag0_1 Mg0_6 2.840108 1_446
Ag0_1 Cd0_1 2.931072 1_555
Ag0_1 Cd0_3 2.931072 1_545
Ag0_1 Cd0_5 2.931072 1_455
Ag0_1 Cd0_7 2.931072 1_445
Ag0_2 Mg0_3 2.840108 1_555
Ag0_2 Mg0_5 2.840108 1_455
Ag0_2 Mg0_1 2.840108 1_555
Ag0_2 Mg0_7 2.840108 1_455
Ag0_2 Cd0_2 2.931072 1_555
Ag0_2 Cd0_0 2.931072 1_555
Ag0_2 Cd0_6 2.931072 1_455
Ag0_2 Cd0_4 2.931072 1_455
Ag0_3 Mg0_2 2.840108 1_556
Ag0_3 Mg0_0 2.840108 1_556
Ag0_3 Mg0_6 2.840108 1_456
Ag0_3 Mg0_4 2.840108 1_456
Ag0_3 Cd0_3 2.931072 1_555
Ag0_3 Cd0_1 2.931072 1_555
Ag0_3 Cd0_7 2.931072 1_455
Ag0_3 Cd0_5 2.931072 1_455
Ag0_4 Mg0_5 2.840108 1_555
Ag0_4 Mg0_7 2.840108 1_545
Ag0_4 Mg0_1 2.840108 1_555
Ag0_4 Mg0_3 2.840108 1_545
Ag0_4 Cd0_4 2.931072 1_555
Ag0_4 Cd0_0 2.931072 1_555
Ag0_4 Cd0_6 2.931072 1_545
Ag0_4 Cd0_2 2.931072 1_545
Ag0_5 Mg0_4 2.840108 1_556
Ag0_5 Mg0_0 2.840108 1_556
Ag0_5 Mg0_6 2.840108 1_546
Ag0_5 Mg0_2 2.840108 1_546
Ag0_5 Cd0_5 2.931072 1_555
Ag0_5 Cd0_1 2.931072 1_555
Ag0_5 Cd0_7 2.931072 1_545
Ag0_5 Cd0_3 2.931072 1_545
Ag0_6 Mg0_5 2.840108 1_555
Ag0_6 Mg0_3 2.840108 1_555
Ag0_6 Mg0_7 2.840108 1_555
Ag0_6 Mg0_1 2.840108 1_555
Ag0_6 Cd0_4 2.931072 1_555
Ag0_6 Cd0_2 2.931072 1_555
Ag0_6 Cd0_6 2.931072 1_555
Ag0_6 Cd0_0 2.931072 1_555
Ag0_7 Mg0_2 2.840108 1_556
Ag0_7 Mg0_4 2.840108 1_556
Ag0_7 Mg0_6 2.840108 1_556
Ag0_7 Mg0_0 2.840108 1_556
Ag0_7 Cd0_3 2.931072 1_555
Ag0_7 Cd0_7 2.931072 1_555
Ag0_7 Cd0_5 2.931072 1_555
Ag0_7 Cd0_1 2.931072 1_555
Ag1_0 Mg0_2 2.840108 1_545
Ag1_0 Mg0_0 2.840108 1_555
Ag1_0 Mg0_4 2.840108 1_455
Ag1_0 Mg0_6 2.840108 1_445
Ag1_0 Cd0_0 2.931072 1_555
Ag1_0 Cd0_6 2.931072 1_445
Ag1_0 Cd0_4 2.931072 1_455
Ag1_0 Cd0_2 2.931072 1_545
Ag1_1 Mg0_5 2.840108 1_455
Ag1_1 Mg0_1 2.840108 1_555
Ag1_1 Mg0_3 2.840108 1_545
Ag1_1 Mg0_7 2.840108 1_445
Ag1_1 Cd0_1 2.931072 1_555
Ag1_1 Cd0_3 2.931072 1_545
Ag1_1 Cd0_7 2.931072 1_445
Ag1_1 Cd0_5 2.931072 1_455
Ag1_2 Mg0_2 2.840108 1_555
Ag1_2 Mg0_6 2.840108 1_455
Ag1_2 Mg0_0 2.840108 1_555
Ag1_2 Mg0_4 2.840108 1_455
Ag1_2 Cd0_2 2.931072 1_555
Ag1_2 Cd0_0 2.931072 1_555
Ag1_2 Cd0_6 2.931072 1_455
Ag1_2 Cd0_4 2.931072 1_455
Ag1_3 Mg0_3 2.840108 1_555
Ag1_3 Mg0_5 2.840108 1_455
Ag1_3 Mg0_1 2.840108 1_555
Ag1_3 Mg0_7 2.840108 1_455
Ag1_3 Cd0_1 2.931072 1_555
Ag1_3 Cd0_3 2.931072 1_555
Ag1_3 Cd0_7 2.931072 1_455
Ag1_3 Cd0_5 2.931072 1_455
Ag1_4 Mg0_4 2.840108 1_555
Ag1_4 Mg0_2 2.840108 1_545
Ag1_4 Mg0_0 2.840108 1_555
Ag1_4 Mg0_6 2.840108 1_545
Ag1_4 Cd0_4 2.931072 1_555
Ag1_4 Cd0_0 2.931072 1_555
Ag1_4 Cd0_6 2.931072 1_545
Ag1_4 Cd0_2 2.931072 1_545
Ag1_5 Mg0_5 2.840108 1_555
Ag1_5 Mg0_7 2.840108 1_545
Ag1_5 Mg0_1 2.840108 1_555
Ag1_5 Mg0_3 2.840108 1_545
Ag1_5 Cd0_1 2.931072 1_555
Ag1_5 Cd0_5 2.931072 1_555
Ag1_5 Cd0_7 2.931072 1_545
Ag1_5 Cd0_3 2.931072 1_545
Ag1_6 Mg0_2 2.840108 1_555
Ag1_6 Mg0_6 2.840108 1_555
Ag1_6 Mg0_4 2.840108 1_555
Ag1_6 Mg0_0 2.840108 1_555
Ag1_6 Cd0_4 2.931072 1_555
Ag1_6 Cd0_2 2.931072 1_555
Ag1_6 Cd0_6 2.931072 1_555
Ag1_6 Cd0_0 2.931072 1_555
Ag1_7 Mg0_5 2.840108 1_555
Ag1_7 Mg0_3 2.840108 1_555
Ag1_7 Mg0_7 2.840108 1_555
Ag1_7 Mg0_1 2.840108 1_555
Ag1_7 Cd0_1 2.931072 1_555
Ag1_7 Cd0_3 2.931072 1_555
Ag1_7 Cd0_7 2.931072 1_555
Ag1_7 Cd0_5 2.931072 1_555
