# generated using pymatgen
data_K4Mo6Se2O33
_symmetry_space_group_name_H-M   'P 1'
_cell_length_a   8.81344200
_cell_length_b   10.11730342
_cell_length_c   10.17343222
_cell_angle_alpha   66.19413421
_cell_angle_beta   76.27218996
_cell_angle_gamma   76.76841277
_symmetry_Int_Tables_number   1
_chemical_formula_structural   K4Mo6Se2O33
_chemical_formula_sum   'K4 Mo6 Se2 O33'
_cell_volume   797.16485489
_cell_formula_units_Z   1
loop_
 _symmetry_equiv_pos_site_id
 _symmetry_equiv_pos_as_xyz
  1  'x, y, z'
loop_
 _atom_site_type_symbol
 _atom_site_label
 _atom_site_symmetry_multiplicity
 _atom_site_fract_x
 _atom_site_fract_y
 _atom_site_fract_z
 _atom_site_occupancy
  K  K0  1  0.50439900  0.71046800  0.28826000  1
  K  K1  1  0.49518700  0.29043000  0.71245100  1
  K  K2  1  0.93506000  0.87295800  0.85771700  1
  K  K3  1  0.06647900  0.12237600  0.14320500  1
  Mo  Mo0  1  0.32440400  0.43687600  0.09741400  1
  Mo  Mo1  1  0.32537500  0.09676800  0.44017800  1
  Mo  Mo2  1  0.67605800  0.56392200  0.90295800  1
  Mo  Mo3  1  0.67545800  0.90427000  0.56028300  1
  Mo  Mo4  1  0.63923000  0.29719100  0.29478900  1
  Mo  Mo5  1  0.36204200  0.70322200  0.70550800  1
  Se  Se0  1  0.57696100  0.10357400  0.10433500  1
  Se  Se1  1  0.42308400  0.89688200  0.89622300  1
  O  O0  1  0.84709800  0.60770500  0.91909200  1
  O  O1  1  0.84647800  0.92543000  0.59965700  1
  O  O2  1  0.15255700  0.39364000  0.08209000  1
  O  O3  1  0.15393800  0.07547100  0.40163000  1
  O  O4  1  0.41104600  0.55074100  0.89401800  1
  O  O5  1  0.41246800  0.89406300  0.55312900  1
  O  O6  1  0.59031800  0.44942400  0.10578700  1
  O  O7  1  0.58791800  0.10685500  0.44728300  1
  O  O8  1  0.32603500  0.99397300  0.99463600  1
  O  O9  1  0.67378700  0.00648700  0.00603500  1
  O  O10  1  0.53704400  0.74677200  0.99342000  1
  O  O11  1  0.53836100  0.99561300  0.74656400  1
  O  O12  1  0.46319100  0.25391500  0.00713000  1
  O  O13  1  0.46115200  0.00519200  0.25404400  1
  O  O14  1  0.61645700  0.72221500  0.72111100  1
  O  O15  1  0.38390800  0.27853900  0.27945300  1
  O  O16  1  0.28902900  0.84147700  0.84175200  1
  O  O17  1  0.71117200  0.15900700  0.15861300  1
  O  O18  1  0.99662900  0.22271100  0.77691900  1
  O  O19  1  0.97127200  0.77639700  0.19012100  1
  O  O20  1  0.89827900  0.67642000  0.21273600  1
  O  O21  1  0.91627200  0.22916900  0.68360300  1
  O  O22  1  0.07236400  0.32813400  0.74542800  1
  O  O23  1  0.11542900  0.69228300  0.40714300  1
  O  O24  1  0.44312200  0.59765400  0.59790700  1
  O  O25  1  0.55795800  0.40345400  0.40163500  1
  O  O26  1  0.16172100  0.71472300  0.71638300  1
  O  O27  1  0.83958700  0.28466900  0.28417900  1
  O  O28  1  0.74244700  0.42491200  0.83603200  1
  O  O29  1  0.74249600  0.83580500  0.42287400  1
  O  O30  1  0.26037300  0.57647600  0.16327900  1
  O  O31  1  0.25951700  0.16479500  0.57822900  1
  O  O32  1  0.09293800  0.56474000  0.47256900  1
loop_
_geom_bond_atom_site_label_1
_geom_bond_atom_site_label_2
_geom_bond_distance
_geom_bond_site_symmetry_2
K0 O13 2.804003 1_565
K0 O25 2.810047 1_555
K0 O10 2.822104 1_554
K0 O24 2.844313 1_555
K0 O23 3.374931 1_555
K1 O11 2.805264 1_545
K1 O24 2.811890 1_555
K1 O12 2.820596 1_556
K1 O25 2.855287 1_555
K2 O1 2.727962 1_555
K2 O0 2.750048 1_555
K2 O26 2.766220 1_655
K2 O9 2.824320 1_566
K2 O16 3.034250 1_655
K2 O19 3.192898 1_556
K2 O21 3.296318 1_565
K2 O20 3.323476 1_556
K2 O18 3.436670 1_565
K3 O3 2.741998 1_555
K3 O27 2.790797 1_455
K3 O8 2.790849 1_544
K3 O2 2.801055 1_555
K3 O17 3.041501 1_455
Mo0 O2 1.726255 1_555
Mo0 O30 1.726828 1_555
Mo0 O4 1.979987 1_554
Mo0 O15 1.988069 1_555
Mo0 O12 2.359895 1_555
Mo0 O6 2.399083 1_555
Mo1 O3 1.726752 1_555
Mo1 O31 1.730210 1_555
Mo1 O5 1.977647 1_545
Mo1 O15 1.981975 1_555
Mo1 O7 2.358653 1_555
Mo1 O13 2.389455 1_555
Mo2 O0 1.725508 1_555
Mo2 O28 1.729497 1_555
Mo2 O6 1.975304 1_556
Mo2 O14 1.986855 1_555
Mo2 O10 2.360521 1_555
Mo2 O4 2.394703 1_555
Mo3 O1 1.726750 1_555
Mo3 O29 1.727836 1_555
Mo3 O7 1.978050 1_565
Mo3 O14 1.985409 1_555
Mo3 O5 2.363066 1_555
Mo3 O11 2.391933 1_555
Mo4 O27 1.721638 1_555
Mo4 O25 1.752651 1_555
Mo4 O6 1.988442 1_555
Mo4 O7 1.993371 1_555
Mo4 O17 2.239798 1_555
Mo4 O15 2.347006 1_555
Mo5 O26 1.722346 1_555
Mo5 O24 1.752970 1_555
Mo5 O4 1.985976 1_555
Mo5 O5 1.994537 1_555
Mo5 O16 2.240892 1_555
Mo5 O14 2.341090 1_555
O8 Se1 1.643709 1_555
O9 Se0 1.642375 1_555
O10 Se1 1.689323 1_555
O11 Se1 1.688431 1_555
O12 Se0 1.689703 1_555
O13 Se0 1.689866 1_555
O16 Se1 1.697617 1_555
O17 Se0 1.697735 1_555
O18 O22 1.278423 1_655
O18 O21 1.286450 1_555
O19 O20 1.236805 1_555
O23 O32 1.228227 1_555
