# generated using pymatgen
data_SnH4SNO4F
_symmetry_space_group_name_H-M   'P 1'
_cell_length_a   14.12438700
_cell_length_b   5.05482900
_cell_length_c   9.14508062
_cell_angle_alpha   86.24432339
_cell_angle_beta   90.00000000
_cell_angle_gamma   90.00000000
_symmetry_Int_Tables_number   1
_chemical_formula_structural   SnH4SNO4F
_chemical_formula_sum   'Sn4 H16 S4 N4 O16 F4'
_cell_volume   651.52328006
_cell_formula_units_Z   4
loop_
 _symmetry_equiv_pos_site_id
 _symmetry_equiv_pos_as_xyz
  1  'x, y, z'
loop_
 _atom_site_type_symbol
 _atom_site_label
 _atom_site_symmetry_multiplicity
 _atom_site_fract_x
 _atom_site_fract_y
 _atom_site_fract_z
 _atom_site_occupancy
  Sn  Sn0  1  0.26516700  0.88567800  0.46169500  1
  Sn  Sn1  1  0.76516700  0.11432200  0.03830500  1
  Sn  Sn2  1  0.73483300  0.11432200  0.53830500  1
  Sn  Sn3  1  0.23483300  0.88567800  0.96169500  1
  H  H0  1  0.04964900  0.24764000  0.88057000  1
  H  H1  1  0.54964900  0.75236000  0.61943000  1
  H  H2  1  0.95035100  0.75236000  0.11943000  1
  H  H3  1  0.45035100  0.24764000  0.38057000  1
  H  H4  1  0.11592400  0.41491300  0.75057400  1
  H  H5  1  0.61592400  0.58508700  0.74942600  1
  H  H6  1  0.88407600  0.58508700  0.24942600  1
  H  H7  1  0.38407600  0.41491300  0.25057400  1
  H  H8  1  0.93640100  0.35960800  0.73875700  1
  H  H9  1  0.43640100  0.64039200  0.76124300  1
  H  H10  1  0.06359900  0.64039200  0.26124300  1
  H  H11  1  0.56359900  0.35960800  0.23875700  1
  H  H12  1  0.08715200  0.09560400  0.73317300  1
  H  H13  1  0.58715200  0.90439600  0.76682700  1
  H  H14  1  0.91284800  0.90439600  0.26682700  1
  H  H15  1  0.41284800  0.09560400  0.23317300  1
  S  S0  1  0.37110100  0.26984900  0.71587200  1
  S  S1  1  0.87110100  0.73015100  0.78412800  1
  S  S2  1  0.62889900  0.73015100  0.28412800  1
  S  S3  1  0.12889900  0.26984900  0.21587200  1
  N  N0  1  0.10279600  0.23535400  0.80561400  1
  N  N1  1  0.60279600  0.76464600  0.69438600  1
  N  N2  1  0.89720400  0.76464600  0.19438600  1
  N  N3  1  0.39720400  0.23535400  0.30561400  1
  O  O0  1  0.28843700  0.23975900  0.62054800  1
  O  O1  1  0.78843700  0.76024100  0.87945200  1
  O  O2  1  0.71156300  0.76024100  0.37945200  1
  O  O3  1  0.21156300  0.23975900  0.12054800  1
  O  O4  1  0.12867600  0.58761900  0.23559200  1
  O  O5  1  0.62867600  0.41238100  0.26440800  1
  O  O6  1  0.87132400  0.41238100  0.76440800  1
  O  O7  1  0.37132400  0.58761900  0.73559200  1
  O  O8  1  0.14482800  0.14674400  0.36546700  1
  O  O9  1  0.64482800  0.85325600  0.13453300  1
  O  O10  1  0.85517200  0.85325600  0.63453300  1
  O  O11  1  0.35517200  0.14674400  0.86546700  1
  O  O12  1  0.46174700  0.20354000  0.65476600  1
  O  O13  1  0.96174700  0.79646000  0.84523400  1
  O  O14  1  0.53825300  0.79646000  0.34523400  1
  O  O15  1  0.03825300  0.20354000  0.15476600  1
  F  F0  1  0.16152500  0.78210400  0.61370300  1
  F  F1  1  0.66152500  0.21789600  0.88629700  1
  F  F2  1  0.83847500  0.21789600  0.38629700  1
  F  F3  1  0.33847500  0.78210400  0.11370300  1
loop_
_geom_bond_atom_site_label_1
_geom_bond_atom_site_label_2
_geom_bond_distance
_geom_bond_site_symmetry_2
H0 N0 1.021185 1_555
H1 N1 1.021185 1_555
H2 N2 1.021185 1_555
H3 N3 1.021185 1_555
H4 N0 1.025524 1_555
H5 N1 1.025524 1_555
H6 N2 1.025524 1_555
H7 N3 1.025524 1_555
H8 O6 0.989578 1_555
H9 O7 0.989578 1_555
H10 O4 0.989578 1_555
H11 O5 0.989578 1_555
H12 N0 1.023733 1_555
H13 N1 1.023733 1_555
H14 N2 1.023733 1_555
H15 N3 1.023733 1_555
O0 S0 1.470947 1_555
O0 Sn0 2.400523 1_545
O1 S1 1.470947 1_555
O1 Sn1 2.400523 1_566
O2 S2 1.470947 1_555
O2 Sn2 2.400523 1_565
O3 S3 1.470947 1_555
O3 Sn3 2.400523 1_544
O4 S3 1.628065 1_555
O5 S2 1.628065 1_555
O6 S1 1.628065 1_555
O7 S0 1.628065 1_555
O8 S3 1.482533 1_555
O8 Sn0 2.291894 1_545
O9 S2 1.482533 1_555
O9 Sn1 2.291894 1_565
O10 S1 1.482533 1_555
O10 Sn2 2.291894 1_565
O11 S0 1.482533 1_555
O11 Sn3 2.291894 1_545
O12 S0 1.445123 1_555
O13 S1 1.445123 1_555
O14 S2 1.445123 1_555
O15 S3 1.445123 1_555
F0 Sn0 2.062559 1_555
F1 Sn1 2.062559 1_556
F2 Sn2 2.062559 1_555
F3 Sn3 2.062559 1_554
