# generated using pymatgen
data_SrTlPS4
_symmetry_space_group_name_H-M   'P 1'
_cell_length_a   6.63047161
_cell_length_b   8.70901811
_cell_length_c   12.71888910
_cell_angle_alpha   90.00000000
_cell_angle_beta   90.00000000
_cell_angle_gamma   90.00000000
_symmetry_Int_Tables_number   1
_chemical_formula_structural   SrTlPS4
_chemical_formula_sum   'Sr4 Tl4 P4 S16'
_cell_volume   734.45094522
_cell_formula_units_Z   4
loop_
 _symmetry_equiv_pos_site_id
 _symmetry_equiv_pos_as_xyz
  1  'x, y, z'
loop_
 _atom_site_type_symbol
 _atom_site_label
 _atom_site_symmetry_multiplicity
 _atom_site_fract_x
 _atom_site_fract_y
 _atom_site_fract_z
 _atom_site_occupancy
  Sr  Sr0  1  0.25000000  0.60821609  0.13569130  1
  Sr  Sr1  1  0.75000000  0.39178391  0.86430870  1
  Sr  Sr2  1  0.75000000  0.10821609  0.36430870  1
  Sr  Sr3  1  0.25000000  0.89178391  0.63569130  1
  Tl  Tl0  1  0.75000000  0.87861707  0.89079672  1
  Tl  Tl1  1  0.25000000  0.12138293  0.10920328  1
  Tl  Tl2  1  0.25000000  0.37861707  0.60920328  1
  Tl  Tl3  1  0.75000000  0.62138293  0.39079672  1
  P  P0  1  0.75000000  0.12760506  0.64867274  1
  P  P1  1  0.25000000  0.62760506  0.85132726  1
  P  P2  1  0.75000000  0.37239494  0.14867274  1
  P  P3  1  0.25000000  0.87239494  0.35132726  1
  S  S0  1  0.49545197  0.63816894  0.75389606  1
  S  S1  1  0.99545197  0.36183106  0.24610394  1
  S  S2  1  0.50454803  0.13816894  0.74610394  1
  S  S3  1  0.00454803  0.86183106  0.25389606  1
  S  S4  1  0.99545197  0.13816894  0.74610394  1
  S  S5  1  0.50454803  0.36183106  0.24610394  1
  S  S6  1  0.49545197  0.86183106  0.25389606  1
  S  S7  1  0.00454803  0.63816894  0.75389606  1
  S  S8  1  0.25000000  0.68620215  0.44755295  1
  S  S9  1  0.75000000  0.31379785  0.55244705  1
  S  S10  1  0.75000000  0.18620215  0.05244705  1
  S  S11  1  0.25000000  0.81379785  0.94755295  1
  S  S12  1  0.25000000  0.07494787  0.43163085  1
  S  S13  1  0.75000000  0.92505213  0.56836915  1
  S  S14  1  0.75000000  0.57494787  0.06836915  1
  S  S15  1  0.25000000  0.42505213  0.93163085  1
loop_
_geom_bond_atom_site_label_1
_geom_bond_atom_site_label_2
_geom_bond_distance
_geom_bond_site_symmetry_2
P0 S9 2.031585 1_555
P0 S13 2.038389 1_545
P0 S2 2.047622 1_555
P0 S4 2.047622 1_555
P1 S11 2.031585 1_555
P1 S15 2.038389 1_555
P1 S0 2.047622 1_555
P1 S7 2.047622 1_555
P2 S10 2.031585 1_555
P2 S14 2.038389 1_555
P2 S1 2.047622 1_555
P2 S5 2.047622 1_555
P3 S8 2.031585 1_555
P3 S12 2.038389 1_565
P3 S6 2.047622 1_555
P3 S3 2.047622 1_555
S0 Sr1 3.070024 1_555
S0 Sr3 3.128493 1_555
S0 Tl0 3.203991 1_555
S1 Sr0 3.070024 1_655
S1 Sr2 3.128493 1_555
S1 Tl1 3.203991 1_655
S2 Sr3 3.070024 1_545
S2 Sr1 3.128493 1_555
S2 Tl2 3.203991 1_555
S3 Sr2 3.070024 1_465
S3 Sr0 3.128493 1_555
S3 Tl3 3.203991 1_455
S4 Sr3 3.070024 1_645
S4 Sr1 3.128493 1_555
S4 Tl2 3.203991 1_655
S5 Sr0 3.070024 1_555
S5 Sr2 3.128493 1_555
S5 Tl1 3.203991 1_555
S6 Sr2 3.070024 1_565
S6 Sr0 3.128493 1_555
S6 Tl3 3.203991 1_555
S7 Sr1 3.070024 1_455
S7 Sr3 3.128493 1_555
S7 Tl0 3.203991 1_455
S8 Sr3 2.988580 1_555
S9 Sr2 2.988580 1_555
S10 Sr1 2.988580 1_554
S11 Sr0 2.988580 1_556
S12 Sr3 3.046442 1_545
S12 Sr2 3.436265 1_455
S12 Sr2 3.436265 1_555
S13 Sr2 3.046442 1_565
S13 Sr3 3.436265 1_555
S13 Sr3 3.436265 1_655
S14 Sr1 3.046442 1_554
S14 Sr0 3.436265 1_555
S14 Sr0 3.436265 1_655
S15 Sr0 3.046442 1_556
S15 Sr1 3.436265 1_555
S15 Sr1 3.436265 1_455
