# generated using pymatgen
data_Ba6Mg(IrO3)6
_symmetry_space_group_name_H-M   'P 1'
_cell_length_a   5.99776143
_cell_length_b   5.77545167
_cell_length_c   14.84452412
_cell_angle_alpha   90.99849379
_cell_angle_beta   89.77229191
_cell_angle_gamma   120.57920637
_symmetry_Int_Tables_number   1
_chemical_formula_structural   Ba6Mg(IrO3)6
_chemical_formula_sum   'Ba6 Mg1 Ir6 O18'
_cell_volume   442.62367706
_cell_formula_units_Z   1
loop_
 _symmetry_equiv_pos_site_id
 _symmetry_equiv_pos_as_xyz
  1  'x, y, z'
loop_
 _atom_site_type_symbol
 _atom_site_label
 _atom_site_symmetry_multiplicity
 _atom_site_fract_x
 _atom_site_fract_y
 _atom_site_fract_z
 _atom_site_occupancy
  Ba  Ba0  1  0.97757438  0.00840258  0.74589213  1
  Ba  Ba1  1  0.02229666  0.99145036  0.25433071  1
  Ba  Ba2  1  0.26472201  0.69283437  0.87722003  1
  Ba  Ba3  1  0.33422307  0.67151959  0.59029118  1
  Ba  Ba4  1  0.73557662  0.30739503  0.12270545  1
  Ba  Ba5  1  0.66532620  0.32836443  0.40967349  1
  Mg  Mg0  1  0.50005902  0.50013912  0.99992594  1
  Ir  Ir0  1  0.00008890  0.99991299  0.00004430  1
  Ir  Ir1  1  0.99932389  0.99997839  0.50010103  1
  Ir  Ir2  1  0.35116837  0.68489017  0.15950530  1
  Ir  Ir3  1  0.33317027  0.65773835  0.35133218  1
  Ir  Ir4  1  0.64924982  0.31521330  0.84049462  1
  Ir  Ir5  1  0.66692586  0.34247551  0.64855574  1
  O  O0  1  0.09834967  0.28726994  0.40627619  1
  O  O1  1  0.70270731  0.78263031  0.09356224  1
  O  O2  1  0.90168242  0.71287665  0.59367608  1
  O  O3  1  0.29714915  0.21722940  0.90648325  1
  O  O4  1  0.24668306  0.94577798  0.08518801  1
  O  O5  1  0.12353758  0.81443163  0.41203656  1
  O  O6  1  0.75362970  0.05415413  0.91496569  1
  O  O7  1  0.87620981  0.18535670  0.58812980  1
  O  O8  1  0.62974332  0.78567309  0.44714104  1
  O  O9  1  0.17060120  0.40161786  0.05134971  1
  O  O10  1  0.36991197  0.21453441  0.55221807  1
  O  O11  1  0.83001916  0.59821871  0.94893748  1
  O  O12  1  0.52324195  0.48818478  0.74560412  1
  O  O13  1  0.47660649  0.51126568  0.25442320  1
  O  O14  1  0.48988792  0.03307687  0.73704214  1
  O  O15  1  0.94303899  0.46476563  0.74795301  1
  O  O16  1  0.50998286  0.96702525  0.26292799  1
  O  O17  1  0.05731138  0.53559979  0.25201329  1
loop_
_geom_bond_atom_site_label_1
_geom_bond_atom_site_label_2
_geom_bond_distance
_geom_bond_site_symmetry_2
Ba0 O2 2.703575 1_545
Ba0 O15 2.746523 1_555
Ba0 O7 2.761434 1_555
Ba0 O12 2.849918 1_545
Ba0 O3 2.897496 1_655
Ba0 O6 2.912782 1_555
Ba0 O14 3.003525 1_555
Ba0 O14 3.005193 1_655
Ba0 O12 3.026975 1_655
Ba0 O15 3.040305 1_545
Ba1 O0 2.701018 1_565
Ba1 O17 2.745171 1_555
Ba1 O5 2.760597 1_555
Ba1 O13 2.848582 1_565
Ba1 O1 2.899688 1_455
Ba1 O4 2.914856 1_555
Ba1 O16 3.002562 1_555
Ba1 O16 3.005724 1_455
Ba1 O13 3.027872 1_455
Ba1 O17 3.042054 1_565
Ba2 O15 2.548590 1_455
Ba2 O11 2.603525 1_455
Ba2 O6 2.648321 1_565
Ba2 O14 2.726785 1_565
Ba2 O3 2.890924 1_555
Ba2 O3 2.958810 1_565
Ba2 O12 3.062432 1_555
Ba3 O8 2.630933 1_555
Ba3 O2 2.723759 1_455
Ba3 O7 2.753331 1_455
Ba3 O14 2.802092 1_565
Ba3 O10 2.802319 1_555
Ba3 O12 3.008181 1_555
Ba3 O7 3.092275 1_565
Ba3 O10 3.094916 1_565
Ba3 O15 3.100229 1_455
Ba3 O5 3.231688 1_555
Ba3 O2 3.288936 1_555
Ba3 O0 3.318603 1_555
Ba4 O17 2.549290 1_655
Ba4 O9 2.603726 1_655
Ba4 O4 2.647958 1_545
Ba4 O16 2.727976 1_545
Ba4 O1 2.889982 1_555
Ba4 O1 2.959485 1_545
Ba4 O13 3.062432 1_555
Ba5 O10 2.623463 1_555
Ba5 O0 2.725782 1_655
Ba5 O5 2.753613 1_655
Ba5 O16 2.801405 1_545
Ba5 O8 2.802144 1_555
Ba5 O13 3.005065 1_555
Ba5 O8 3.091581 1_545
Ba5 O5 3.091911 1_545
Ba5 O17 3.102929 1_655
Ba5 O7 3.235039 1_555
Ba5 O0 3.286738 1_555
Ba5 O2 3.319377 1_555
Mg0 O9 1.915793 1_556
Mg0 O11 1.916439 1_555
Mg0 O3 1.996528 1_555
Mg0 O1 1.996987 1_556
Ir0 O6 2.092380 1_464
Ir0 O4 2.093285 1_555
Ir0 O3 2.108202 1_564
Ir0 O1 2.108782 1_455
Ir0 O11 2.129629 1_454
Ir0 O9 2.130488 1_565
Ir1 O2 2.026754 1_555
Ir1 O0 2.029031 1_665
Ir1 O7 2.036431 1_565
Ir1 O5 2.041590 1_655
Ir1 O8 2.062040 1_555
Ir1 O10 2.062120 1_665
Ir2 O17 2.052170 1_555
Ir2 O16 2.065116 1_555
Ir2 O13 2.093354 1_555
Ir2 O1 2.124689 1_555
Ir2 O9 2.132296 1_555
Ir2 O4 2.214548 1_555
Ir3 O16 2.044706 1_555
Ir3 O17 2.050468 1_555
Ir3 O0 2.052424 1_555
Ir3 O13 2.052664 1_555
Ir3 O5 2.081386 1_555
Ir3 O8 2.092601 1_555
Ir4 O15 2.052238 1_555
Ir4 O14 2.065652 1_555
Ir4 O12 2.092609 1_555
Ir4 O3 2.127558 1_555
Ir4 O11 2.134844 1_555
Ir4 O6 2.216141 1_555
Ir5 O14 2.046004 1_555
Ir5 O2 2.051698 1_555
Ir5 O15 2.052200 1_555
Ir5 O12 2.052327 1_555
Ir5 O7 2.079725 1_555
Ir5 O10 2.099695 1_555
