# generated using pymatgen
data_Li2Fe(PS3)2
_symmetry_space_group_name_H-M   'P 1'
_cell_length_a   5.85618750
_cell_length_b   5.85618750
_cell_length_c   6.56544800
_cell_angle_alpha   90.00000000
_cell_angle_beta   90.00000000
_cell_angle_gamma   119.99999435
_symmetry_Int_Tables_number   1
_chemical_formula_structural   Li2Fe(PS3)2
_chemical_formula_sum   'Li2 Fe1 P2 S6'
_cell_volume   194.99567054
_cell_formula_units_Z   1
loop_
 _symmetry_equiv_pos_site_id
 _symmetry_equiv_pos_as_xyz
  1  'x, y, z'
loop_
 _atom_site_type_symbol
 _atom_site_label
 _atom_site_symmetry_multiplicity
 _atom_site_fract_x
 _atom_site_fract_y
 _atom_site_fract_z
 _atom_site_occupancy
  Li  Li0  1  0.00000000  0.00000000  0.00000000  1
  Li  Li1  1  0.00000000  0.00000000  0.50000000  1
  Fe  Fe0  1  0.66666700  0.33333300  0.50000000  1
  P  P0  1  0.33333300  0.66666700  0.66558800  1
  P  P1  1  0.33333300  0.66666700  0.33441200  1
  S  S0  1  0.97582800  0.33992400  0.73222300  1
  S  S1  1  0.36409700  0.02417200  0.73222300  1
  S  S2  1  0.66007600  0.63590300  0.73222300  1
  S  S3  1  0.66007600  0.02417200  0.26777700  1
  S  S4  1  0.36409700  0.33992400  0.26777700  1
  S  S5  1  0.97582800  0.63590300  0.26777700  1
loop_
_geom_bond_atom_site_label_1
_geom_bond_atom_site_label_2
_geom_bond_distance
_geom_bond_site_symmetry_2
Li0 S3 2.712080 1_455
Li0 S0 2.712080 1_454
Li0 S2 2.712083 1_444
Li0 S4 2.712083 1_555
Li0 S5 2.712085 1_445
Li0 S1 2.712085 1_554
Li1 S3 2.566924 1_455
Li1 S0 2.566924 1_455
Li1 S2 2.566927 1_445
Li1 S4 2.566927 1_555
Li1 S5 2.566929 1_445
Li1 S1 2.566929 1_555
Fe0 S2 2.352464 1_555
Fe0 S4 2.352464 1_555
Fe0 S0 2.352464 1_555
Fe0 S3 2.352464 1_555
Fe0 S5 2.352464 1_555
Fe0 S1 2.352464 1_555
P0 S1 2.056672 1_565
P0 S0 2.056677 1_455
P0 S2 2.056683 1_555
P0 P1 2.174319 1_555
P1 S5 2.056672 1_455
P1 S3 2.056677 1_565
P1 S4 2.056683 1_555
