# generated using pymatgen
data_Ta4Co2N
_symmetry_space_group_name_H-M   'P 1'
_cell_length_a   8.19350366
_cell_length_b   8.19350366
_cell_length_c   8.19350366
_cell_angle_alpha   60.00000000
_cell_angle_beta   60.00000000
_cell_angle_gamma   60.00000000
_symmetry_Int_Tables_number   1
_chemical_formula_structural   Ta4Co2N
_chemical_formula_sum   'Ta16 Co8 N4'
_cell_volume   388.95016349
_cell_formula_units_Z   4
loop_
 _symmetry_equiv_pos_site_id
 _symmetry_equiv_pos_as_xyz
  1  'x, y, z'
loop_
 _atom_site_type_symbol
 _atom_site_label
 _atom_site_symmetry_multiplicity
 _atom_site_fract_x
 _atom_site_fract_y
 _atom_site_fract_z
 _atom_site_occupancy
  Ta  Ta0  1  0.12500000  0.62500000  0.62500000  1
  Ta  Ta1  1  0.62500000  0.12500000  0.62500000  1
  Ta  Ta2  1  0.62500000  0.62500000  0.12500000  1
  Ta  Ta3  1  0.62500000  0.62500000  0.62500000  1
  Ta  Ta4  1  0.81265800  0.81265800  0.18734200  1
  Ta  Ta5  1  0.18734200  0.18734200  0.81265800  1
  Ta  Ta6  1  0.81265800  0.18734200  0.81265800  1
  Ta  Ta7  1  0.18734200  0.81265800  0.18734200  1
  Ta  Ta8  1  0.18734200  0.81265800  0.81265800  1
  Ta  Ta9  1  0.81265800  0.18734200  0.18734200  1
  Ta  Ta10  1  0.43734200  0.43734200  0.06265800  1
  Ta  Ta11  1  0.06265800  0.06265800  0.43734200  1
  Ta  Ta12  1  0.43734200  0.06265800  0.43734200  1
  Ta  Ta13  1  0.06265800  0.43734200  0.06265800  1
  Ta  Ta14  1  0.06265800  0.43734200  0.43734200  1
  Ta  Ta15  1  0.43734200  0.06265800  0.06265800  1
  Co  Co0  1  0.74106900  0.41964400  0.41964400  1
  Co  Co1  1  0.41964400  0.74106900  0.41964400  1
  Co  Co2  1  0.41964400  0.41964400  0.74106900  1
  Co  Co3  1  0.41964400  0.41964400  0.41964400  1
  Co  Co4  1  0.50893100  0.83035600  0.83035600  1
  Co  Co5  1  0.83035600  0.50893100  0.83035600  1
  Co  Co6  1  0.83035600  0.83035600  0.50893100  1
  Co  Co7  1  0.83035600  0.83035600  0.83035600  1
  N  N0  1  0.62500000  0.12500000  0.12500000  1
  N  N1  1  0.12500000  0.62500000  0.12500000  1
  N  N2  1  0.12500000  0.12500000  0.62500000  1
  N  N3  1  0.12500000  0.12500000  0.12500000  1
loop_
_geom_bond_atom_site_label_1
_geom_bond_atom_site_label_2
_geom_bond_distance
_geom_bond_site_symmetry_2
Co0 Ta3 2.489455 1_555
Co0 Ta1 2.489462 1_555
Co0 Ta2 2.489462 1_555
Co0 Co3 2.633597 1_555
Co0 Co1 2.633597 1_555
Co0 Co2 2.633597 1_555
Co0 Ta14 2.787503 1_655
Co0 Ta11 2.787508 1_655
Co0 Ta13 2.787508 1_655
Co0 Ta6 2.996588 1_555
Co0 Ta4 2.996588 1_555
Co0 Ta9 2.996595 1_555
Co1 Ta3 2.489455 1_555
Co1 Ta2 2.489462 1_555
Co1 Ta0 2.489462 1_555
Co1 Co3 2.633597 1_555
Co1 Co2 2.633597 1_555
Co1 Ta12 2.787503 1_565
Co1 Ta11 2.787508 1_565
Co1 Ta15 2.787508 1_565
Co1 Ta4 2.996588 1_555
Co1 Ta8 2.996588 1_555
Co1 Ta7 2.996595 1_555
Co2 Ta3 2.489455 1_555
Co2 Ta1 2.489462 1_555
Co2 Ta0 2.489462 1_555
Co2 Co3 2.633597 1_555
Co2 Ta10 2.787503 1_556
Co2 Ta13 2.787508 1_556
Co2 Ta15 2.787508 1_556
Co2 Ta8 2.996588 1_555
Co2 Ta6 2.996588 1_555
Co2 Ta5 2.996595 1_555
Co3 Ta0 2.489457 1_555
Co3 Ta1 2.489457 1_555
Co3 Ta2 2.489457 1_555
Co3 Ta10 2.787511 1_555
Co3 Ta14 2.787511 1_555
Co3 Ta12 2.787511 1_555
Co3 Ta7 2.996592 1_555
Co3 Ta5 2.996592 1_555
Co3 Ta9 2.996592 1_555
Co4 Ta3 2.489455 1_555
Co4 Ta2 2.489462 1_556
Co4 Ta1 2.489462 1_565
Co4 Co7 2.633597 1_555
Co4 Co5 2.633597 1_555
Co4 Co6 2.633597 1_555
Co4 Ta8 2.787503 1_555
Co4 Ta5 2.787508 1_565
Co4 Ta7 2.787508 1_556
Co4 Ta12 2.996588 1_565
Co4 Ta10 2.996588 1_556
Co4 Ta15 2.996595 1_566
Co5 Ta3 2.489455 1_555
Co5 Ta0 2.489462 1_655
Co5 Ta2 2.489462 1_556
Co5 Co7 2.633597 1_555
Co5 Co6 2.633597 1_555
Co5 Ta6 2.787503 1_555
Co5 Ta5 2.787508 1_655
Co5 Ta9 2.787508 1_556
Co5 Ta14 2.996588 1_655
Co5 Ta10 2.996588 1_556
Co5 Ta13 2.996595 1_656
Co6 Ta3 2.489455 1_555
Co6 Ta0 2.489462 1_655
Co6 Ta1 2.489462 1_565
Co6 Co7 2.633597 1_555
Co6 Ta4 2.787503 1_555
Co6 Ta7 2.787508 1_655
Co6 Ta9 2.787508 1_565
Co6 Ta14 2.996588 1_655
Co6 Ta12 2.996588 1_565
Co6 Ta11 2.996595 1_665
Co7 Ta0 2.489457 1_655
Co7 Ta2 2.489457 1_556
Co7 Ta1 2.489457 1_565
Co7 Ta4 2.787511 1_556
Co7 Ta8 2.787511 1_655
Co7 Ta6 2.787511 1_565
Co7 Ta13 2.996592 1_656
Co7 Ta15 2.996592 1_566
Co7 Ta11 2.996592 1_665
N0 Ta9 2.172021 1_555
N0 Ta12 2.172021 1_555
N0 Ta10 2.172021 1_555
N0 Ta6 2.172021 1_554
N0 Ta4 2.172021 1_545
N0 Ta15 2.172021 1_555
N1 Ta7 2.172021 1_555
N1 Ta14 2.172021 1_555
N1 Ta10 2.172021 1_555
N1 Ta4 2.172021 1_455
N1 Ta8 2.172021 1_554
N1 Ta13 2.172021 1_555
N2 Ta5 2.172021 1_555
N2 Ta12 2.172021 1_555
N2 Ta14 2.172021 1_555
N2 Ta6 2.172021 1_455
N2 Ta8 2.172021 1_545
N2 Ta11 2.172021 1_555
N3 Ta11 2.172021 1_555
N3 Ta15 2.172021 1_555
N3 Ta13 2.172021 1_555
N3 Ta5 2.172021 1_554
N3 Ta7 2.172021 1_545
N3 Ta9 2.172021 1_455
