# generated using pymatgen
data_ZnCoNiP2O9
_symmetry_space_group_name_H-M   'P 1'
_cell_length_a   6.23776300
_cell_length_b   7.28007100
_cell_length_c   14.06452700
_cell_angle_alpha   90.00000000
_cell_angle_beta   90.00000000
_cell_angle_gamma   90.00000000
_symmetry_Int_Tables_number   1
_chemical_formula_structural   ZnCoNiP2O9
_chemical_formula_sum   'Zn4 Co4 Ni4 P8 O36'
_cell_volume   638.68926396
_cell_formula_units_Z   4
loop_
 _symmetry_equiv_pos_site_id
 _symmetry_equiv_pos_as_xyz
  1  'x, y, z'
loop_
 _atom_site_type_symbol
 _atom_site_label
 _atom_site_symmetry_multiplicity
 _atom_site_fract_x
 _atom_site_fract_y
 _atom_site_fract_z
 _atom_site_occupancy
  Zn  Zn0  1  0.25000000  0.37797800  0.27504600  1
  Zn  Zn1  1  0.25000000  0.12202200  0.77504600  1
  Zn  Zn2  1  0.75000000  0.62202200  0.72495400  1
  Zn  Zn3  1  0.75000000  0.87797800  0.22495400  1
  Co  Co0  1  0.25000000  0.84902100  0.38194900  1
  Co  Co1  1  0.75000000  0.15097900  0.61805100  1
  Co  Co2  1  0.75000000  0.34902100  0.11805100  1
  Co  Co3  1  0.25000000  0.65097900  0.88194900  1
  Ni  Ni0  1  0.00000000  0.50000000  0.50000000  1
  Ni  Ni1  1  0.00000000  0.00000000  0.00000000  1
  Ni  Ni2  1  0.50000000  0.00000000  0.00000000  1
  Ni  Ni3  1  0.50000000  0.50000000  0.50000000  1
  P  P0  1  0.75000000  0.85456700  0.43339100  1
  P  P1  1  0.25000000  0.14543300  0.56660900  1
  P  P2  1  0.25000000  0.35456700  0.06660900  1
  P  P3  1  0.75000000  0.64543300  0.93339100  1
  P  P4  1  0.25000000  0.88438000  0.19993700  1
  P  P5  1  0.75000000  0.11562000  0.80006300  1
  P  P6  1  0.75000000  0.38438000  0.30006300  1
  P  P7  1  0.25000000  0.61562000  0.69993700  1
  O  O0  1  0.53846900  0.10570700  0.85849000  1
  O  O1  1  0.03846900  0.89429300  0.14151000  1
  O  O2  1  0.46153100  0.60570700  0.64151000  1
  O  O3  1  0.96153100  0.39429300  0.35849000  1
  O  O4  1  0.46153100  0.89429300  0.14151000  1
  O  O5  1  0.96153100  0.10570700  0.85849000  1
  O  O6  1  0.53846900  0.39429300  0.35849000  1
  O  O7  1  0.03846900  0.60570700  0.64151000  1
  O  O8  1  0.75000000  0.83413100  0.98234300  1
  O  O9  1  0.25000000  0.16586900  0.01765700  1
  O  O10  1  0.25000000  0.33413100  0.51765700  1
  O  O11  1  0.75000000  0.66586900  0.48234300  1
  O  O12  1  0.25000000  0.64871700  0.44974900  1
  O  O13  1  0.75000000  0.35128300  0.55025100  1
  O  O14  1  0.75000000  0.14871700  0.05025100  1
  O  O15  1  0.25000000  0.85128300  0.94974900  1
  O  O16  1  0.25000000  0.70388000  0.26101300  1
  O  O17  1  0.75000000  0.29612000  0.73898700  1
  O  O18  1  0.75000000  0.20388000  0.23898700  1
  O  O19  1  0.25000000  0.79612000  0.76101300  1
  O  O20  1  0.93826400  0.63151800  0.86154400  1
  O  O21  1  0.43826400  0.36848200  0.13845600  1
  O  O22  1  0.06173600  0.13151800  0.63845600  1
  O  O23  1  0.56173600  0.86848200  0.36154400  1
  O  O24  1  0.06173600  0.36848200  0.13845600  1
  O  O25  1  0.56173600  0.63151800  0.86154400  1
  O  O26  1  0.93826400  0.86848200  0.36154400  1
  O  O27  1  0.43826400  0.13151800  0.63845600  1
  O  O28  1  0.25000000  0.46016500  0.77776400  1
  O  O29  1  0.75000000  0.53983500  0.22223600  1
  O  O30  1  0.75000000  0.96016500  0.72223600  1
  O  O31  1  0.25000000  0.03983500  0.27776400  1
  O  O32  1  0.25000000  0.50249300  0.99176700  1
  O  O33  1  0.75000000  0.49750700  0.00823300  1
  O  O34  1  0.75000000  0.00249300  0.50823300  1
  O  O35  1  0.25000000  0.99750700  0.49176700  1
loop_
_geom_bond_atom_site_label_1
_geom_bond_atom_site_label_2
_geom_bond_distance
_geom_bond_site_symmetry_2
Co0 O12 1.742335 1_555
Co0 O35 1.885241 1_555
Co0 O26 1.970698 1_455
Co0 O23 1.970698 1_555
Co0 O16 2.002391 1_555
Co0 O31 2.019121 1_565
Co1 O13 1.742335 1_555
Co1 O34 1.885241 1_555
Co1 O22 1.970698 1_655
Co1 O27 1.970698 1_555
Co1 O17 2.002391 1_555
Co1 O30 2.019121 1_545
Co2 O14 1.742335 1_555
Co2 O33 1.885241 1_555
Co2 O21 1.970698 1_555
Co2 O24 1.970698 1_655
Co2 O18 2.002391 1_555
Co2 O29 2.019121 1_555
Co3 O15 1.742335 1_555
Co3 O32 1.885241 1_555
Co3 O25 1.970698 1_555
Co3 O20 1.970698 1_455
Co3 O19 2.002391 1_555
Co3 O28 2.019121 1_555
Ni0 O11 1.987882 1_455
Ni0 O10 1.987882 1_555
Ni0 O13 2.025718 1_455
Ni0 O12 2.025718 1_555
Ni0 O7 2.147318 1_555
Ni0 O3 2.147318 1_455
Ni1 O9 1.987882 1_555
Ni1 O8 1.987882 1_444
Ni1 O14 2.025718 1_455
Ni1 O15 2.025718 1_544
Ni1 O5 2.147318 1_454
Ni1 O1 2.147318 1_545
Ni2 O9 1.987882 1_555
Ni2 O8 1.987882 1_544
Ni2 O14 2.025718 1_555
Ni2 O15 2.025718 1_544
Ni2 O0 2.147318 1_554
Ni2 O4 2.147318 1_545
Ni3 O11 1.987882 1_555
Ni3 O10 1.987882 1_555
Ni3 O13 2.025718 1_555
Ni3 O12 2.025718 1_555
Ni3 O6 2.147318 1_555
Ni3 O2 2.147318 1_555
O0 P5 1.556119 1_555
O0 Zn1 2.151579 1_555
O1 P4 1.556119 1_555
O1 Zn3 2.151579 1_455
O2 P7 1.556119 1_555
O2 Zn2 2.151579 1_555
O3 P6 1.556119 1_555
O3 Zn0 2.151579 1_655
O4 P4 1.556119 1_555
O4 Zn3 2.151579 1_555
O5 P5 1.556119 1_555
O5 Zn1 2.151579 1_655
O6 P6 1.556119 1_555
O6 Zn0 2.151579 1_555
O7 P7 1.556119 1_555
O7 Zn2 2.151579 1_455
O8 P3 1.536607 1_555
O9 P2 1.536607 1_555
O10 P1 1.536607 1_555
O11 P0 1.536607 1_555
O16 P4 1.569912 1_555
O16 Zn0 2.380785 1_555
O17 P5 1.569912 1_555
O17 Zn2 2.380785 1_555
O18 P6 1.569912 1_555
O18 Zn3 2.380785 1_545
O19 P7 1.569912 1_555
O19 Zn1 2.380785 1_565
O20 P3 1.552562 1_555
O20 Zn2 2.252641 1_555
O21 P2 1.552562 1_555
O21 Zn0 2.252641 1_555
O22 P1 1.552562 1_555
O22 Zn1 2.252641 1_555
O23 P0 1.552562 1_555
O23 Zn3 2.252641 1_555
O24 P2 1.552562 1_555
O24 Zn0 2.252641 1_555
O25 P3 1.552562 1_555
O25 Zn2 2.252641 1_555
O26 P0 1.552562 1_555
O26 Zn3 2.252641 1_555
O27 P1 1.552562 1_555
O27 Zn1 2.252641 1_555
O28 P7 1.574467 1_555
O28 Zn1 2.462002 1_555
O29 P6 1.574467 1_555
O29 Zn3 2.462002 1_555
O30 P5 1.574467 1_565
O30 Zn2 2.462002 1_555
O31 P4 1.574467 1_545
O31 Zn0 2.462002 1_555
O32 P2 1.505902 1_556
O33 P3 1.505902 1_554
O34 P0 1.505902 1_545
O35 P1 1.505902 1_565
