# generated using pymatgen
data_KCr12Si8BrO28
_symmetry_space_group_name_H-M   'P 1'
_cell_length_a   9.97571043
_cell_length_b   9.97571043
_cell_length_c   9.97571043
_cell_angle_alpha   115.93856357
_cell_angle_beta   115.93856357
_cell_angle_gamma   97.19148020
_symmetry_Int_Tables_number   1
_chemical_formula_structural   KCr12Si8BrO28
_chemical_formula_sum   'K1 Cr12 Si8 Br1 O28'
_cell_volume   738.75195978
_cell_formula_units_Z   1
loop_
 _symmetry_equiv_pos_site_id
 _symmetry_equiv_pos_as_xyz
  1  'x, y, z'
loop_
 _atom_site_type_symbol
 _atom_site_label
 _atom_site_symmetry_multiplicity
 _atom_site_fract_x
 _atom_site_fract_y
 _atom_site_fract_z
 _atom_site_occupancy
  K  K0  1  0.04056400  0.04056400  0.00000000  1
  Cr  Cr0  1  0.49951400  0.18254900  0.68303500  1
  Cr  Cr1  1  0.49951400  0.81647900  0.31696500  1
  Cr  Cr2  1  0.81647900  0.49951400  0.31696500  1
  Cr  Cr3  1  0.18254900  0.49951400  0.68303500  1
  Cr  Cr4  1  0.28132300  0.05225700  0.77093400  1
  Cr  Cr5  1  0.28132300  0.51038900  0.22906600  1
  Cr  Cr6  1  0.51038900  0.28132300  0.22906600  1
  Cr  Cr7  1  0.05225700  0.28132300  0.77093400  1
  Cr  Cr8  1  0.72024500  0.95034900  0.23010400  1
  Cr  Cr9  1  0.72024500  0.49014100  0.76989600  1
  Cr  Cr10  1  0.49014100  0.72024500  0.76989600  1
  Cr  Cr11  1  0.95034900  0.72024500  0.23010400  1
  Si  Si0  1  0.88970000  0.88970000  0.55470900  1
  Si  Si1  1  0.33499100  0.33499100  0.44529100  1
  Si  Si2  1  0.33499100  0.88970000  0.00000000  1
  Si  Si3  1  0.88970000  0.33499100  0.00000000  1
  Si  Si4  1  0.10927200  0.10927200  0.44299200  1
  Si  Si5  1  0.66628000  0.66628000  0.55700800  1
  Si  Si6  1  0.66628000  0.10927200  0.00000000  1
  Si  Si7  1  0.10927200  0.66628000  0.00000000  1
  Br  Br0  1  0.47377800  0.47377800  0.00000000  1
  O  O0  1  0.82806300  0.82806300  0.65552200  1
  O  O1  1  0.17254100  0.17254100  0.34447800  1
  O  O2  1  0.17254100  0.82806300  0.00000000  1
  O  O3  1  0.82806300  0.17254100  0.00000000  1
  O  O4  1  0.05510400  0.05510400  0.71187800  1
  O  O5  1  0.34322600  0.34322600  0.28812200  1
  O  O6  1  0.34322600  0.05510400  0.00000000  1
  O  O7  1  0.05510400  0.34322600  0.00000000  1
  O  O8  1  0.94402700  0.94402700  0.28933900  1
  O  O9  1  0.65468800  0.65468800  0.71066100  1
  O  O10  1  0.65468800  0.94402700  0.00000000  1
  O  O11  1  0.94402700  0.65468800  0.00000000  1
  O  O12  1  0.25451700  0.07090700  0.56365900  1
  O  O13  1  0.50724800  0.69085800  0.43634100  1
  O  O14  1  0.50724800  0.07090700  0.81639000  1
  O  O15  1  0.25451700  0.69085800  0.18361000  1
  O  O16  1  0.69085800  0.25451700  0.18361000  1
  O  O17  1  0.07090700  0.50724800  0.81639000  1
  O  O18  1  0.07090700  0.25451700  0.56365900  1
  O  O19  1  0.69085800  0.50724800  0.43634100  1
  O  O20  1  0.74440300  0.92777200  0.43412800  1
  O  O21  1  0.49364400  0.31027500  0.56587200  1
  O  O22  1  0.49364400  0.92777200  0.18336900  1
  O  O23  1  0.74440300  0.31027500  0.81663100  1
  O  O24  1  0.31027500  0.74440300  0.81663100  1
  O  O25  1  0.92777200  0.49364400  0.18336900  1
  O  O26  1  0.92777200  0.74440300  0.43412800  1
  O  O27  1  0.31027500  0.49364400  0.56587200  1
loop_
_geom_bond_atom_site_label_1
_geom_bond_atom_site_label_2
_geom_bond_distance
_geom_bond_site_symmetry_2
K0 O0 2.631704 1_444
K0 O3 2.631704 1_455
K0 O1 2.631704 1_555
K0 O2 2.631704 1_545
K0 O5 3.004559 1_555
K0 O6 3.004559 1_555
K0 O7 3.004559 1_555
K0 O4 3.004559 1_554
Cr0 O14 2.060062 1_555
Cr0 O12 2.060062 1_555
Cr0 O21 2.062658 1_555
Cr0 O23 2.062658 1_555
Cr1 O13 2.060062 1_555
Cr1 O15 2.060062 1_555
Cr1 O22 2.062658 1_555
Cr1 O20 2.062658 1_555
Cr2 O19 2.060062 1_555
Cr2 O16 2.060062 1_555
Cr2 O25 2.062658 1_555
Cr2 O26 2.062658 1_555
Cr3 O17 2.060062 1_555
Cr3 O18 2.060062 1_555
Cr3 O27 2.062658 1_555
Cr3 O24 2.062658 1_555
Cr4 O12 2.060789 1_555
Cr4 O14 2.060789 1_555
Cr4 O6 2.075617 1_556
Cr4 O4 2.075617 1_555
Cr5 O15 2.060789 1_555
Cr5 O13 2.060789 1_555
Cr5 O7 2.075617 1_555
Cr5 O5 2.075617 1_555
Cr6 O16 2.060789 1_555
Cr6 O19 2.060789 1_555
Cr6 O5 2.075617 1_555
Cr6 O6 2.075617 1_555
Cr7 O18 2.060789 1_555
Cr7 O17 2.060789 1_555
Cr7 O4 2.075617 1_555
Cr7 O7 2.075617 1_556
Cr8 O22 2.058323 1_555
Cr8 O20 2.058323 1_555
Cr8 O8 2.061684 1_555
Cr8 O10 2.061684 1_555
Cr9 O23 2.058323 1_555
Cr9 O21 2.058323 1_555
Cr9 O11 2.061684 1_556
Cr9 O9 2.061684 1_555
Cr10 O24 2.058323 1_555
Cr10 O27 2.058323 1_555
Cr10 O10 2.061684 1_556
Cr10 O9 2.061684 1_555
Cr11 O25 2.058323 1_555
Cr11 O26 2.058323 1_555
Cr11 O8 2.061684 1_555
Cr11 O11 2.061684 1_555
O0 Si5 1.657708 1_555
O0 Si0 1.659755 1_555
O1 Si4 1.657708 1_555
O1 Si1 1.659755 1_555
O2 Si7 1.657708 1_555
O2 Si2 1.659755 1_555
O3 Si6 1.657708 1_555
O3 Si3 1.659755 1_555
O4 Si0 1.641763 1_445
O5 Si1 1.641763 1_555
O6 Si2 1.641763 1_545
O7 Si3 1.641763 1_455
O8 Si4 1.637983 1_665
O9 Si5 1.637983 1_555
O10 Si6 1.637983 1_565
O11 Si7 1.637983 1_655
O12 Si4 1.646484 1_555
O13 Si5 1.646484 1_555
O14 Si6 1.646484 1_556
O15 Si7 1.646484 1_555
O16 Si6 1.646484 1_555
O17 Si7 1.646484 1_556
O18 Si4 1.646484 1_555
O19 Si5 1.646484 1_555
O20 Si0 1.644472 1_555
O21 Si1 1.644472 1_555
O22 Si2 1.644472 1_555
O23 Si3 1.644472 1_556
O24 Si2 1.644472 1_556
O25 Si3 1.644472 1_555
O26 Si0 1.644472 1_555
O27 Si1 1.644472 1_555
