# generated using pymatgen
data_Cr6CuSi2(Pb5O17)2
_symmetry_space_group_name_H-M   'P 1'
_cell_length_a   9.79662100
_cell_length_b   10.10982153
_cell_length_c   10.11722260
_cell_angle_alpha   65.07001288
_cell_angle_beta   71.67045097
_cell_angle_gamma   68.36945605
_symmetry_Int_Tables_number   1
_chemical_formula_structural   Cr6CuSi2(Pb5O17)2
_chemical_formula_sum   'Cr6 Cu1 Si2 Pb10 O34'
_cell_volume   829.49508151
_cell_formula_units_Z   1
loop_
 _symmetry_equiv_pos_site_id
 _symmetry_equiv_pos_as_xyz
  1  'x, y, z'
loop_
 _atom_site_type_symbol
 _atom_site_label
 _atom_site_symmetry_multiplicity
 _atom_site_fract_x
 _atom_site_fract_y
 _atom_site_fract_z
 _atom_site_occupancy
  Cr  Cr0  1  0.03435900  0.64522500  0.27907800  1
  Cr  Cr1  1  0.96564100  0.35477500  0.72092200  1
  Cr  Cr2  1  0.73534700  0.84576000  0.98172700  1
  Cr  Cr3  1  0.26465300  0.15424000  0.01827300  1
  Cr  Cr4  1  0.77702500  0.16450500  0.51212900  1
  Cr  Cr5  1  0.22297500  0.83549500  0.48787100  1
  Cu  Cu0  1  0.50000000  0.00000000  0.50000000  1
  Si  Si0  1  0.47902200  0.33448400  0.20753500  1
  Si  Si1  1  0.52097800  0.66551600  0.79246500  1
  Pb  Pb0  1  0.36547400  0.73909900  0.15607200  1
  Pb  Pb1  1  0.63452600  0.26090100  0.84392800  1
  Pb  Pb2  1  0.35485800  0.33232000  0.57422200  1
  Pb  Pb3  1  0.64514200  0.66768000  0.42577800  1
  Pb  Pb4  1  0.18154100  0.97223400  0.78456400  1
  Pb  Pb5  1  0.81845900  0.02776600  0.21543600  1
  Pb  Pb6  1  0.14390800  0.25302000  0.32678400  1
  Pb  Pb7  1  0.85609200  0.74698000  0.67321600  1
  Pb  Pb8  1  0.76347100  0.46792500  0.08347400  1
  Pb  Pb9  1  0.23652900  0.53207500  0.91652500  1
  O  O0  1  0.98256500  0.51823000  0.25418100  1
  O  O1  1  0.01743500  0.48177000  0.74581900  1
  O  O2  1  0.18116100  0.56133600  0.36203800  1
  O  O3  1  0.81883900  0.43866400  0.63796200  1
  O  O4  1  0.11461100  0.26357000  0.61881900  1
  O  O5  1  0.88538900  0.73643000  0.38118100  1
  O  O6  1  0.08282700  0.77165800  0.11751500  1
  O  O7  1  0.91717300  0.22834200  0.88248500  1
  O  O8  1  0.64372600  0.72853400  0.13343100  1
  O  O9  1  0.35627400  0.27146600  0.86656900  1
  O  O10  1  0.63143500  0.94475700  0.85633200  1
  O  O11  1  0.36856500  0.05524300  0.14366800  1
  O  O12  1  0.77862400  0.96532300  0.02561000  1
  O  O13  1  0.22137600  0.03467700  0.97439000  1
  O  O14  1  0.88913900  0.73205800  0.91137500  1
  O  O15  1  0.11086100  0.26794200  0.08862500  1
  O  O16  1  0.89259000  0.08696900  0.62728000  1
  O  O17  1  0.10741000  0.91303100  0.37272000  1
  O  O18  1  0.85843600  0.26048500  0.34470500  1
  O  O19  1  0.14156400  0.73951500  0.65529500  1
  O  O20  1  0.73394300  0.02799900  0.49145700  1
  O  O21  1  0.26605700  0.97200100  0.50854300  1
  O  O22  1  0.62070800  0.28157300  0.58019600  1
  O  O23  1  0.37929200  0.71842700  0.41980400  1
  O  O24  1  0.50994900  0.48225000  0.21454000  1
  O  O25  1  0.49005100  0.51775000  0.78546000  1
  O  O26  1  0.43558600  0.21730000  0.38266400  1
  O  O27  1  0.56441400  0.78270000  0.61733600  1
  O  O28  1  0.36207800  0.73984100  0.88793700  1
  O  O29  1  0.63792200  0.26015900  0.11206300  1
  O  O30  1  0.33015000  0.38284300  0.13827600  1
  O  O31  1  0.66985000  0.61715700  0.86172400  1
  O  O32  1  0.40125100  0.05840000  0.65777300  1
  O  O33  1  0.59874900  0.94160000  0.34222700  1
loop_
_geom_bond_atom_site_label_1
_geom_bond_atom_site_label_2
_geom_bond_distance
_geom_bond_site_symmetry_2
Cr0 O6 1.651983 1_555
Cr0 O2 1.658904 1_555
Cr0 O0 1.674097 1_455
Cr0 O5 1.705825 1_455
Cr1 O7 1.651983 1_555
Cr1 O3 1.658904 1_555
Cr1 O1 1.674097 1_655
Cr1 O4 1.705825 1_655
Cr2 O10 1.624256 1_555
Cr2 O12 1.669307 1_556
Cr2 O14 1.684156 1_555
Cr2 O8 1.717615 1_556
Cr3 O11 1.624256 1_555
Cr3 O13 1.669307 1_554
Cr3 O15 1.684156 1_555
Cr3 O9 1.717615 1_554
Cr4 O16 1.630614 1_555
Cr4 O18 1.667955 1_555
Cr4 O20 1.689576 1_555
Cr4 O22 1.705202 1_555
Cr5 O17 1.630614 1_555
Cr5 O19 1.667955 1_555
Cr5 O21 1.689576 1_555
Cr5 O23 1.705202 1_555
Cu0 O33 1.798486 1_545
Cu0 O32 1.798486 1_555
Cu0 O26 1.970850 1_555
Cu0 O27 1.970850 1_545
Cu0 O20 2.381857 1_555
Cu0 O21 2.381857 1_545
O0 Pb6 2.484430 1_655
O1 Pb7 2.484430 1_455
O2 Pb0 2.775089 1_555
O2 Pb2 2.840338 1_555
O3 Pb1 2.775089 1_555
O3 Pb3 2.840338 1_555
O4 Pb2 2.549487 1_555
O4 Pb4 2.649727 1_545
O5 Pb3 2.549487 1_555
O5 Pb5 2.649727 1_565
O6 Pb0 2.797672 1_555
O7 Pb1 2.797672 1_555
O8 Pb0 2.628271 1_555
O8 Pb8 2.654121 1_555
O8 Pb3 2.759060 1_555
O9 Pb1 2.628271 1_555
O9 Pb9 2.654116 1_555
O9 Pb2 2.759060 1_555
O12 Pb5 2.431929 1_565
O12 Pb1 2.862280 1_564
O13 Pb4 2.431929 1_545
O13 Pb0 2.862280 1_546
O14 Pb7 2.466069 1_555
O15 Pb6 2.466069 1_555
O18 Pb6 2.719722 1_655
O18 Pb8 2.772049 1_555
O19 Pb7 2.719722 1_455
O19 Pb9 2.772041 1_555
O20 Pb5 2.652132 1_555
O20 Pb7 2.712641 1_545
O21 Pb4 2.652132 1_555
O21 Pb6 2.712641 1_565
O22 Pb2 2.477440 1_555
O22 Pb1 2.630153 1_555
O23 Pb3 2.477440 1_555
O23 Pb0 2.630153 1_555
O24 Si0 1.662819 1_555
O24 Pb0 2.370260 1_555
O24 Pb8 2.402741 1_555
O25 Si1 1.662819 1_555
O25 Pb1 2.370260 1_555
O25 Pb9 2.402738 1_555
O26 Si0 1.688735 1_555
O26 Pb2 2.447742 1_555
O27 Si1 1.688735 1_555
O27 Pb3 2.447742 1_555
O28 Si1 1.650652 1_555
O28 Pb4 2.402151 1_555
O28 Pb9 2.679030 1_555
O28 Pb0 2.720252 1_556
O29 Si0 1.650652 1_555
O29 Pb5 2.402151 1_555
O29 Pb8 2.679027 1_555
O29 Pb1 2.720252 1_554
O30 Si0 1.638707 1_555
O30 Pb9 2.360363 1_554
O30 Pb6 2.481035 1_555
O31 Si1 1.638707 1_555
O31 Pb8 2.360355 1_556
O31 Pb7 2.481035 1_555
O32 Pb4 2.396028 1_545
O32 Pb2 2.435230 1_555
O33 Pb5 2.396028 1_565
O33 Pb3 2.435230 1_555
