# generated using pymatgen
data_Er3Ga2
_symmetry_space_group_name_H-M   'P 1'
_cell_length_a   10.91366224
_cell_length_b   10.91366346
_cell_length_c   10.91366414
_cell_angle_alpha   116.64630201
_cell_angle_beta   116.64631730
_cell_angle_gamma   95.91408362
_symmetry_Int_Tables_number   1
_chemical_formula_structural   Er3Ga2
_chemical_formula_sum   'Er24 Ga16'
_cell_volume   960.22691088
_cell_formula_units_Z   8
loop_
 _symmetry_equiv_pos_site_id
 _symmetry_equiv_pos_as_xyz
  1  'x, y, z'
loop_
 _atom_site_type_symbol
 _atom_site_label
 _atom_site_symmetry_multiplicity
 _atom_site_fract_x
 _atom_site_fract_y
 _atom_site_fract_z
 _atom_site_occupancy
  Er  Er0  1  0.14644473  0.64644473  0.50000100  1
  Er  Er1  1  0.64644473  0.14644373  0.49999900  1
  Er  Er2  1  0.85355627  0.35355627  0.50000100  1
  Er  Er3  1  0.35355527  0.85355527  0.50000000  1
  Er  Er4  1  0.66812028  0.16811777  0.83623805  1
  Er  Er5  1  0.33187872  0.83188223  0.16376095  1
  Er  Er6  1  0.16811877  0.33187972  0.49999850  1
  Er  Er7  1  0.83188223  0.66812128  0.50000250  1
  Er  Er8  1  0.06694349  0.93181121  0.27028736  1
  Er  Er9  1  0.66152285  0.79665413  0.72971164  1
  Er  Er10  1  0.56694309  0.29665643  0.13513377  1
  Er  Er11  1  0.16152366  0.43181032  0.86486723  1
  Er  Er12  1  0.79665513  0.06694349  0.13513228  1
  Er  Er13  1  0.93181221  0.66152385  0.86486872  1
  Er  Er14  1  0.43181032  0.56694309  0.27028666  1
  Er  Er15  1  0.29665543  0.16152266  0.72971234  1
  Er  Er16  1  0.93305651  0.06818779  0.72971164  1
  Er  Er17  1  0.33847715  0.20334387  0.27028736  1
  Er  Er18  1  0.43305691  0.70334357  0.86486723  1
  Er  Er19  1  0.83847734  0.56818968  0.13513377  1
  Er  Er20  1  0.20334487  0.93305651  0.86486872  1
  Er  Er21  1  0.06818879  0.33847715  0.13513228  1
  Er  Er22  1  0.56818968  0.43305691  0.72971234  1
  Er  Er23  1  0.70334357  0.83847634  0.27028666  1
  Ga  Ga0  1  0.75000136  0.75000136  -0.00000000  1
  Ga  Ga1  1  0.24999864  0.24999864  0.00000000  1
  Ga  Ga2  1  0.00000100  0.99999900  -0.00000000  1
  Ga  Ga3  1  0.49999900  0.50000100  0.00000000  1
  Ga  Ga4  1  0.11735987  0.61735834  0.73471721  1
  Ga  Ga5  1  0.88264113  0.38264366  0.26528379  1
  Ga  Ga6  1  0.61735734  0.88264013  0.49999747  1
  Ga  Ga7  1  0.38264266  0.11735887  0.50000153  1
  Ga  Ga8  1  0.87846300  0.37846364  0.85543945  1
  Ga  Ga9  1  0.52302219  0.02302155  0.14455955  1
  Ga  Ga10  1  0.37846264  0.52302319  0.49999964  1
  Ga  Ga11  1  0.02302255  0.87846300  0.49999936  1
  Ga  Ga12  1  0.12153700  0.62153636  0.14455855  1
  Ga  Ga13  1  0.47697581  0.97697645  0.85543945  1
  Ga  Ga14  1  0.62153736  0.47697681  0.49999936  1
  Ga  Ga15  1  0.97697745  0.12153700  0.50000064  1
loop_
_geom_bond_atom_site_label_1
_geom_bond_atom_site_label_2
_geom_bond_distance
_geom_bond_site_symmetry_2
Er0 Ga4 2.863796 1_555
Er0 Ga5 2.863801 1_455
Er0 Ga10 2.988161 1_555
Er0 Ga11 2.988169 1_555
Er0 Er3 3.027443 1_555
Er0 Er7 3.465410 1_455
Er0 Er6 3.465415 1_555
Er0 Ga13 3.645356 1_555
Er0 Ga12 3.645393 1_555
Er1 Ga6 2.863807 1_545
Er1 Ga7 2.863812 1_555
Er1 Ga9 2.988155 1_555
Er1 Ga8 2.988168 1_555
Er1 Er2 3.027443 1_555
Er1 Er5 3.465411 1_545
Er1 Er4 3.465419 1_555
Er1 Ga15 3.645364 1_555
Er1 Ga14 3.645375 1_555
Er2 Ga4 2.863806 1_655
Er2 Ga5 2.863813 1_555
Er2 Ga14 2.988159 1_555
Er2 Ga15 2.988169 1_555
Er2 Er6 3.465414 1_655
Er2 Er7 3.465419 1_555
Er2 Ga8 3.645358 1_555
Er2 Ga9 3.645389 1_555
Er3 Ga7 2.863807 1_565
Er3 Ga6 2.863812 1_555
Er3 Ga13 2.988161 1_555
Er3 Ga12 2.988172 1_555
Er3 Er4 3.465411 1_565
Er3 Er5 3.465419 1_555
Er3 Ga10 3.645364 1_555
Er3 Ga11 3.645370 1_555
Er4 Ga8 2.938491 1_555
Er4 Ga13 2.938491 1_545
Er4 Ga7 3.323504 1_555
Er4 Ga6 3.323513 1_545
Er4 Ga5 3.477396 1_556
Er4 Er9 3.664583 1_545
Er5 Ga9 2.938470 1_565
Er5 Ga12 2.938477 1_555
Er5 Ga7 3.323504 1_565
Er5 Ga6 3.323513 1_555
Er5 Ga4 3.477379 1_554
Er5 Er8 3.664562 1_555
Er6 Ga10 2.938484 1_555
Er6 Ga15 2.938484 1_455
Er6 Ga4 3.323511 1_555
Er6 Ga5 3.323519 1_455
Er6 Ga7 3.477388 1_555
Er6 Er8 3.643263 1_545
Er7 Ga11 2.938477 1_655
Er7 Ga14 2.938484 1_555
Er7 Ga5 3.323505 1_555
Er7 Ga4 3.323512 1_655
Er7 Ga6 3.477380 1_555
Er7 Er9 3.643262 1_555
Er8 Ga7 2.918497 1_565
Er8 Ga0 2.964248 1_455
Er8 Ga11 3.030414 1_555
Er8 Ga15 3.083385 1_465
Er8 Ga2 3.152305 1_555
Er8 Ga12 3.268913 1_555
Er9 Ga6 2.918508 1_555
Er9 Ga0 2.964244 1_556
Er9 Ga10 3.030401 1_555
Er9 Ga14 3.083373 1_555
Er9 Ga2 3.152327 1_656
Er9 Ga13 3.268918 1_555
Er10 Ga5 2.918488 1_555
Er10 Ga1 2.964264 1_555
Er10 Ga9 3.030425 1_555
Er10 Ga13 3.083395 1_544
Er10 Ga3 3.152330 1_555
Er10 Ga14 3.268883 1_555
Er10 Er4 3.643303 1_554
Er10 Er7 3.664599 1_555
Er11 Ga4 2.918489 1_555
Er11 Ga1 2.964266 1_556
Er11 Ga8 3.030414 1_455
Er11 Ga12 3.083375 1_556
Er11 Ga3 3.152299 1_556
Er11 Ga15 3.268896 1_455
Er11 Er5 3.643291 1_556
Er11 Er6 3.664593 1_555
Er12 Ga5 2.918508 1_555
Er12 Ga0 2.964251 1_545
Er12 Ga9 3.030414 1_555
Er12 Ga13 3.083385 1_544
Er12 Ga2 3.152333 1_645
Er12 Ga15 3.268913 1_555
Er12 Er4 3.643264 1_554
Er12 Er6 3.664579 1_655
Er13 Ga4 2.918498 1_655
Er13 Ga0 2.964252 1_556
Er13 Ga8 3.030403 1_555
Er13 Ga12 3.083365 1_656
Er13 Ga2 3.152302 1_656
Er13 Ga14 3.268917 1_555
Er13 Er5 3.643244 1_656
Er13 Er7 3.664581 1_555
Er14 Ga6 2.918478 1_555
Er14 Ga1 2.964265 1_555
Er14 Ga10 3.030415 1_555
Er14 Ga14 3.083387 1_555
Er14 Ga3 3.152306 1_555
Er14 Ga12 3.268897 1_555
Er14 Er7 3.643291 1_555
Er14 Er5 3.664606 1_555
Er15 Ga7 2.918487 1_555
Er15 Ga1 2.964268 1_556
Er15 Ga11 3.030408 1_545
Er15 Ga15 3.083375 1_455
Er15 Ga3 3.152326 1_556
Er15 Ga13 3.268897 1_545
Er15 Er6 3.643283 1_555
Er15 Er4 3.664602 1_555
Er16 Ga6 2.918497 1_545
Er16 Ga1 2.964251 1_656
Er16 Ga15 3.030409 1_555
Er16 Ga11 3.083374 1_645
Er16 Ga2 3.152319 1_646
Er16 Ga8 3.268922 1_555
Er16 Er7 3.643245 1_545
Er16 Er4 3.664575 1_555
Er17 Ga7 2.918500 1_555
Er17 Ga1 2.964248 1_555
Er17 Ga14 3.030412 1_555
Er17 Ga10 3.083389 1_555
Er17 Ga2 3.152311 1_545
Er17 Ga9 3.268899 1_555
Er17 Er6 3.643273 1_555
Er17 Er5 3.664559 1_545
Er18 Ga4 2.918478 1_555
Er18 Ga0 2.964265 1_556
Er18 Ga13 3.030414 1_555
Er18 Ga9 3.083379 1_566
Er18 Ga3 3.152300 1_556
Er18 Ga10 3.268902 1_555
Er18 Er5 3.643292 1_556
Er18 Er6 3.664592 1_555
Er19 Ga5 2.918469 1_555
Er19 Ga0 2.964275 1_555
Er19 Ga12 3.030420 1_655
Er19 Ga8 3.083393 1_554
Er19 Ga3 3.152330 1_555
Er19 Ga11 3.268891 1_655
Er19 Er4 3.643294 1_554
Er19 Er7 3.664591 1_555
Er20 Ga4 2.918488 1_555
Er20 Ga1 2.964252 1_566
Er20 Ga13 3.030403 1_555
Er20 Ga9 3.083368 1_566
Er20 Ga2 3.152303 1_556
Er20 Ga11 3.268922 1_555
Er20 Er5 3.643245 1_556
Er20 Er7 3.664571 1_455
Er21 Ga5 2.918498 1_455
Er21 Ga1 2.964251 1_555
Er21 Ga12 3.030408 1_555
Er21 Ga8 3.083385 1_454
Er21 Ga2 3.152332 1_545
Er21 Ga10 3.268902 1_555
Er21 Er4 3.643263 1_454
Er21 Er6 3.664581 1_555
Er22 Ga7 2.918486 1_555
Er22 Ga0 2.964267 1_556
Er22 Ga14 3.030415 1_555
Er22 Ga10 3.083387 1_555
Er22 Ga3 3.152327 1_556
Er22 Ga8 3.268896 1_555
Er22 Er6 3.643282 1_555
Er22 Er4 3.664603 1_555
Er23 Ga6 2.918479 1_555
Er23 Ga0 2.964266 1_555
Er23 Ga15 3.030419 1_565
Er23 Ga11 3.083382 1_655
Er23 Ga3 3.152305 1_555
Er23 Ga9 3.268892 1_565
Er23 Er7 3.643284 1_555
Er23 Er5 3.664605 1_555
Ga10 Ga14 2.750420 1_555
Ga11 Ga15 2.750402 1_465
Ga12 Ga8 2.750401 1_454
Ga13 Ga9 2.750413 1_566
