# generated using pymatgen
data_BaCaEuNbO6
_symmetry_space_group_name_H-M   'P 1'
_cell_length_a   5.94591308
_cell_length_b   6.03366340
_cell_length_c   8.47359780
_cell_angle_alpha   90.70629713
_cell_angle_beta   90.58030477
_cell_angle_gamma   90.38149261
_symmetry_Int_Tables_number   1
_chemical_formula_structural   BaCaEuNbO6
_chemical_formula_sum   'Ba2 Ca2 Eu2 Nb2 O12'
_cell_volume   303.95004548
_cell_formula_units_Z   2
loop_
 _symmetry_equiv_pos_site_id
 _symmetry_equiv_pos_as_xyz
  1  'x, y, z'
loop_
 _atom_site_type_symbol
 _atom_site_label
 _atom_site_symmetry_multiplicity
 _atom_site_fract_x
 _atom_site_fract_y
 _atom_site_fract_z
 _atom_site_occupancy
  Ba  Ba0  1  0.50572916  0.53432452  0.25098416  1
  Ba  Ba1  1  0.49427084  0.46567548  0.74901584  1
  Ca  Ca0  1  0.99030517  0.04507428  0.25433599  1
  Ca  Ca1  1  0.00969483  0.95492572  0.74566401  1
  Eu  Eu0  1  0.00000000  0.50000000  0.00000000  1
  Eu  Eu1  1  0.50000000  0.00000000  0.50000000  1
  Nb  Nb0  1  0.50000000  0.00000000  0.00000000  1
  Nb  Nb1  1  0.00000000  0.50000000  0.50000000  1
  O  O0  1  0.22654590  0.18660186  0.93997681  1
  O  O1  1  0.27330203  0.69464786  0.53211981  1
  O  O2  1  0.77345410  0.81339814  0.06002319  1
  O  O3  1  0.72669797  0.30535214  0.46788019  1
  O  O4  1  0.30689806  0.72935778  0.95763890  1
  O  O5  1  0.18060614  0.21993971  0.55347875  1
  O  O6  1  0.69310194  0.27064222  0.04236110  1
  O  O7  1  0.81939386  0.78006029  0.44652125  1
  O  O8  1  0.39169827  0.99686242  0.23062498  1
  O  O9  1  0.06675576  0.44532400  0.26791337  1
  O  O10  1  0.60830173  0.00313758  0.76937502  1
  O  O11  1  0.93324424  0.55467600  0.73208663  1
loop_
_geom_bond_atom_site_label_1
_geom_bond_atom_site_label_2
_geom_bond_distance
_geom_bond_site_symmetry_2
Ba0 O6 2.625194 1_555
Ba0 O3 2.655294 1_555
Ba0 O9 2.666904 1_555
Ba0 O2 2.841011 1_555
Ba0 O7 2.874372 1_555
Ba0 O8 2.883179 1_555
Ba0 O1 2.923755 1_555
Ba0 O4 2.998703 1_554
Ba1 O4 2.625194 1_555
Ba1 O1 2.655294 1_555
Ba1 O11 2.666904 1_555
Ba1 O0 2.841011 1_555
Ba1 O5 2.874372 1_555
Ba1 O10 2.883179 1_555
Ba1 O3 2.923755 1_555
Ba1 O6 2.998703 1_556
Ca0 O8 2.416319 1_645
Ca0 O9 2.455490 1_655
Ca0 O2 2.490744 1_545
Ca0 O7 2.513488 1_545
Ca0 O3 2.866594 1_555
Ca0 O6 2.868697 1_555
Ca0 O5 2.945993 1_655
Ca1 O10 2.416319 1_465
Ca1 O11 2.455490 1_455
Ca1 O0 2.490744 1_565
Ca1 O5 2.513488 1_565
Ca1 O1 2.866594 1_555
Ca1 O4 2.868697 1_555
Ca1 O7 2.945993 1_455
Eu0 O6 2.316393 1_455
Eu0 O4 2.316393 1_554
Eu0 O9 2.328540 1_555
Eu0 O11 2.328540 1_454
Eu0 O0 2.381783 1_554
Eu0 O2 2.381783 1_455
Eu1 O1 2.296108 1_545
Eu1 O3 2.296108 1_555
Eu1 O8 2.365203 1_545
Eu1 O10 2.365203 1_555
Eu1 O5 2.368353 1_555
Eu1 O7 2.368353 1_545
Nb0 O4 2.016417 1_544
Nb0 O6 2.016417 1_555
Nb0 O2 2.047371 1_545
Nb0 O0 2.047371 1_554
Nb0 O10 2.064040 1_554
Nb0 O8 2.064040 1_545
Nb1 O3 2.012922 1_455
Nb1 O1 2.012922 1_555
Nb1 O11 2.033591 1_455
Nb1 O9 2.033591 1_555
Nb1 O7 2.060854 1_455
Nb1 O5 2.060854 1_555
