# generated using pymatgen
data_Hf2Hg
_symmetry_space_group_name_H-M   'P 1'
_cell_length_a   6.66016386
_cell_length_b   6.66016386
_cell_length_c   12.52241996
_cell_angle_alpha   105.42221078
_cell_angle_beta   105.42221078
_cell_angle_gamma   90.00000000
_symmetry_Int_Tables_number   1
_chemical_formula_structural   Hf2Hg
_chemical_formula_sum   'Hf16 Hg8'
_cell_volume   514.68805481
_cell_formula_units_Z   8
loop_
 _symmetry_equiv_pos_site_id
 _symmetry_equiv_pos_as_xyz
  1  'x, y, z'
loop_
 _atom_site_type_symbol
 _atom_site_label
 _atom_site_symmetry_multiplicity
 _atom_site_fract_x
 _atom_site_fract_y
 _atom_site_fract_z
 _atom_site_occupancy
  Hf  Hf0_0  1  0.33286791  0.33286791  0.16573482  1
  Hf  Hf0_1  1  0.33286791  0.33286791  0.66573482  1
  Hf  Hf0_2  1  0.33286791  0.83286791  0.16573482  1
  Hf  Hf0_3  1  0.33286791  0.83286791  0.66573482  1
  Hf  Hf0_4  1  0.83286791  0.33286791  0.16573482  1
  Hf  Hf0_5  1  0.83286791  0.33286791  0.66573482  1
  Hf  Hf0_6  1  0.83286791  0.83286791  0.16573482  1
  Hf  Hf0_7  1  0.83286791  0.83286791  0.66573482  1
  Hf  Hf1_0  1  0.16713209  0.16713209  0.33426519  1
  Hf  Hf1_1  1  0.16713209  0.16713209  0.83426519  1
  Hf  Hf1_2  1  0.16713209  0.66713209  0.33426519  1
  Hf  Hf1_3  1  0.16713209  0.66713209  0.83426519  1
  Hf  Hf1_4  1  0.66713209  0.16713209  0.33426519  1
  Hf  Hf1_5  1  0.66713209  0.16713209  0.83426519  1
  Hf  Hf1_6  1  0.66713209  0.66713209  0.33426519  1
  Hf  Hf1_7  1  0.66713209  0.66713209  0.83426519  1
  Hg  Hg0_0  1  0.00000000  0.00000000  0.00000000  1
  Hg  Hg0_1  1  0.00000000  0.00000000  0.50000000  1
  Hg  Hg0_2  1  0.00000000  0.50000000  0.00000000  1
  Hg  Hg0_3  1  0.00000000  0.50000000  0.50000000  1
  Hg  Hg0_4  1  0.50000000  0.00000000  0.00000000  1
  Hg  Hg0_5  1  0.50000000  0.00000000  0.50000000  1
  Hg  Hg0_6  1  0.50000000  0.50000000  0.00000000  1
  Hg  Hg0_7  1  0.50000000  0.50000000  0.50000000  1
loop_
_geom_bond_atom_site_label_1
_geom_bond_atom_site_label_2
_geom_bond_distance
_geom_bond_site_symmetry_2
Hf0_0 Hg0_6 3.040194 1_555
Hf0_0 Hg0_2 3.040197 1_555
Hf0_0 Hg0_4 3.040197 1_555
Hf0_0 Hg0_0 3.040201 1_555
Hf0_0 Hf1_6 3.060810 1_555
Hf0_0 Hf1_2 3.060818 1_555
Hf0_0 Hf1_4 3.060818 1_555
Hf0_0 Hf1_0 3.060826 1_555
Hf0_0 Hf0_2 3.330082 1_555
Hf0_0 Hf0_4 3.330082 1_555
Hf0_0 Hf0_4 3.330082 1_455
Hf0_0 Hf0_2 3.330082 1_545
Hf0_1 Hg0_7 3.040194 1_555
Hf0_1 Hg0_3 3.040197 1_555
Hf0_1 Hg0_5 3.040197 1_555
Hf0_1 Hg0_1 3.040201 1_555
Hf0_1 Hf1_7 3.060810 1_555
Hf0_1 Hf1_5 3.060818 1_555
Hf0_1 Hf1_3 3.060818 1_555
Hf0_1 Hf1_1 3.060826 1_555
Hf0_1 Hf0_5 3.330082 1_455
Hf0_1 Hf0_3 3.330082 1_555
Hf0_1 Hf0_3 3.330082 1_545
Hf0_1 Hf0_5 3.330082 1_555
Hf0_2 Hg0_4 3.040194 1_565
Hf0_2 Hg0_6 3.040197 1_555
Hf0_2 Hg0_0 3.040197 1_565
Hf0_2 Hg0_2 3.040201 1_555
Hf0_2 Hf1_4 3.060810 1_565
Hf0_2 Hf1_6 3.060818 1_555
Hf0_2 Hf1_0 3.060818 1_565
Hf0_2 Hf1_2 3.060826 1_555
Hf0_2 Hf0_6 3.330082 1_555
Hf0_2 Hf0_6 3.330082 1_455
Hf0_3 Hg0_5 3.040194 1_565
Hf0_3 Hg0_7 3.040197 1_555
Hf0_3 Hg0_1 3.040197 1_565
Hf0_3 Hg0_3 3.040201 1_555
Hf0_3 Hf1_5 3.060810 1_565
Hf0_3 Hf1_1 3.060818 1_565
Hf0_3 Hf1_7 3.060818 1_555
Hf0_3 Hf1_3 3.060826 1_555
Hf0_3 Hf0_7 3.330082 1_455
Hf0_3 Hf0_7 3.330082 1_555
Hf0_4 Hg0_2 3.040194 1_655
Hf0_4 Hg0_6 3.040197 1_555
Hf0_4 Hg0_0 3.040197 1_655
Hf0_4 Hg0_4 3.040201 1_555
Hf0_4 Hf1_2 3.060810 1_655
Hf0_4 Hf1_0 3.060818 1_655
Hf0_4 Hf1_6 3.060818 1_555
Hf0_4 Hf1_4 3.060826 1_555
Hf0_4 Hf0_6 3.330082 1_555
Hf0_4 Hf0_6 3.330082 1_545
Hf0_5 Hg0_3 3.040194 1_655
Hf0_5 Hg0_1 3.040197 1_655
Hf0_5 Hg0_7 3.040197 1_555
Hf0_5 Hg0_5 3.040201 1_555
Hf0_5 Hf1_3 3.060810 1_655
Hf0_5 Hf1_1 3.060818 1_655
Hf0_5 Hf1_7 3.060818 1_555
Hf0_5 Hf1_5 3.060826 1_555
Hf0_5 Hf0_7 3.330082 1_545
Hf0_5 Hf0_7 3.330082 1_555
Hf0_6 Hg0_0 3.040194 1_665
Hf0_6 Hg0_2 3.040197 1_655
Hf0_6 Hg0_4 3.040197 1_565
Hf0_6 Hg0_6 3.040201 1_555
Hf0_6 Hf1_0 3.060810 1_665
Hf0_6 Hf1_2 3.060818 1_655
Hf0_6 Hf1_4 3.060818 1_565
Hf0_6 Hf1_6 3.060826 1_555
Hf0_7 Hg0_1 3.040194 1_665
Hf0_7 Hg0_5 3.040197 1_565
Hf0_7 Hg0_3 3.040197 1_655
Hf0_7 Hg0_7 3.040201 1_555
Hf0_7 Hf1_1 3.060810 1_665
Hf0_7 Hf1_3 3.060818 1_655
Hf0_7 Hf1_5 3.060818 1_565
Hf0_7 Hf1_7 3.060826 1_555
Hf1_0 Hg0_1 3.040194 1_555
Hf1_0 Hg0_3 3.040197 1_555
Hf1_0 Hg0_5 3.040197 1_555
Hf1_0 Hg0_7 3.040201 1_555
Hf1_0 Hf1_4 3.330082 1_555
Hf1_0 Hf1_2 3.330082 1_555
Hf1_0 Hf1_2 3.330082 1_545
Hf1_0 Hf1_4 3.330082 1_455
Hf1_1 Hg0_0 3.040194 1_556
Hf1_1 Hg0_2 3.040197 1_556
Hf1_1 Hg0_4 3.040197 1_556
Hf1_1 Hg0_6 3.040201 1_556
Hf1_1 Hf1_3 3.330082 1_555
Hf1_1 Hf1_5 3.330082 1_555
Hf1_1 Hf1_3 3.330082 1_545
Hf1_1 Hf1_5 3.330082 1_455
Hf1_2 Hg0_3 3.040194 1_555
Hf1_2 Hg0_7 3.040197 1_555
Hf1_2 Hg0_1 3.040197 1_565
Hf1_2 Hg0_5 3.040201 1_565
Hf1_2 Hf1_6 3.330082 1_555
Hf1_2 Hf1_6 3.330082 1_455
Hf1_3 Hg0_2 3.040194 1_556
Hf1_3 Hg0_0 3.040197 1_566
Hf1_3 Hg0_6 3.040197 1_556
Hf1_3 Hg0_4 3.040201 1_566
Hf1_3 Hf1_7 3.330082 1_555
Hf1_3 Hf1_7 3.330082 1_455
Hf1_4 Hg0_5 3.040194 1_555
Hf1_4 Hg0_7 3.040197 1_555
Hf1_4 Hg0_1 3.040197 1_655
Hf1_4 Hg0_3 3.040201 1_655
Hf1_4 Hf1_6 3.330082 1_545
Hf1_4 Hf1_6 3.330082 1_555
Hf1_5 Hg0_4 3.040194 1_556
Hf1_5 Hg0_0 3.040197 1_656
Hf1_5 Hg0_6 3.040197 1_556
Hf1_5 Hg0_2 3.040201 1_656
Hf1_5 Hf1_7 3.330082 1_555
Hf1_5 Hf1_7 3.330082 1_545
Hf1_6 Hg0_7 3.040194 1_555
Hf1_6 Hg0_5 3.040197 1_565
Hf1_6 Hg0_3 3.040197 1_655
Hf1_6 Hg0_1 3.040201 1_665
Hf1_7 Hg0_6 3.040194 1_556
Hf1_7 Hg0_4 3.040197 1_566
Hf1_7 Hg0_2 3.040197 1_656
Hf1_7 Hg0_0 3.040201 1_666
