# generated using pymatgen
data_Mg3Si4
_symmetry_space_group_name_H-M   'P 1'
_cell_length_a   8.15413130
_cell_length_b   8.15413130
_cell_length_c   9.80857921
_cell_angle_alpha   62.89570005
_cell_angle_beta   62.89570005
_cell_angle_gamma   27.45276535
_symmetry_Int_Tables_number   1
_chemical_formula_structural   Mg3Si4
_chemical_formula_sum   'Mg6 Si8'
_cell_volume   265.54313802
_cell_formula_units_Z   2
loop_
 _symmetry_equiv_pos_site_id
 _symmetry_equiv_pos_as_xyz
  1  'x, y, z'
loop_
 _atom_site_type_symbol
 _atom_site_label
 _atom_site_symmetry_multiplicity
 _atom_site_fract_x
 _atom_site_fract_y
 _atom_site_fract_z
 _atom_site_occupancy
  Mg  Mg0  1  0.32265200  0.32265200  0.78701500  1
  Mg  Mg1  1  0.62294000  0.62294000  0.94315100  1
  Mg  Mg2  1  0.59548600  0.59548600  0.59411300  1
  Mg  Mg3  1  0.12769100  0.12769100  0.28055500  1
  Mg  Mg4  1  0.81955400  0.81955400  0.51804200  1
  Mg  Mg5  1  0.97450100  0.97450100  0.88842900  1
  Si  Si0  1  0.22912000  0.22912000  0.43935800  1
  Si  Si1  1  0.75113100  0.75113100  0.05092700  1
  Si  Si2  1  0.95778300  0.95778300  0.60836400  1
  Si  Si3  1  0.47858000  0.47858000  0.43976100  1
  Si  Si4  1  0.17551500  0.17551500  0.71262600  1
  Si  Si5  1  0.39542100  0.39542100  0.24930700  1
  Si  Si6  1  0.33745400  0.33745400  0.06009900  1
  Si  Si7  1  0.99564100  0.99564100  0.17481400  1
loop_
_geom_bond_atom_site_label_1
_geom_bond_atom_site_label_2
_geom_bond_distance
_geom_bond_site_symmetry_2
Mg0 Si4 2.749806 1_555
Mg0 Si6 2.796229 1_556
Mg0 Si2 2.806869 1_455
Mg0 Si2 2.806869 1_545
Mg0 Si1 2.996185 1_456
Mg0 Si1 2.996185 1_546
Mg0 Si3 3.132285 1_555
Mg1 Si1 2.693649 1_556
Mg1 Si4 2.789894 1_565
Mg1 Si4 2.789894 1_655
Mg1 Si7 2.945443 1_546
Mg1 Si7 2.945443 1_456
Mg2 Si0 2.741436 1_565
Mg2 Si0 2.741436 1_655
Mg2 Si4 2.843391 1_565
Mg2 Si4 2.843391 1_655
Mg2 Si2 2.869908 1_455
Mg2 Si2 2.869908 1_545
Mg2 Si3 2.890073 1_555
Mg3 Si0 2.712213 1_555
Mg3 Si7 2.736321 1_445
Mg3 Si3 2.881386 1_455
Mg3 Si3 2.881386 1_545
Mg3 Si1 2.917086 1_455
Mg3 Si1 2.917086 1_545
Mg3 Si6 2.996465 1_555
Mg3 Si2 3.076617 1_445
Mg4 Si2 2.720356 1_555
Mg4 Si0 2.725643 1_565
Mg4 Si0 2.725643 1_655
Mg4 Si4 2.916902 1_655
Mg4 Si4 2.916902 1_565
Mg4 Si3 2.977570 1_565
Mg4 Si3 2.977570 1_655
Mg4 Si5 3.027297 1_565
Mg4 Si5 3.027297 1_655
Mg5 Si6 2.804224 1_656
Mg5 Si6 2.804224 1_566
Mg5 Si4 2.822043 1_665
Mg5 Si2 2.880771 1_555
Mg5 Si7 2.980817 1_556
Mg5 Si1 3.126088 1_556
Si0 Si4 2.402170 1_555
Si0 Si5 2.410265 1_555
Si1 Si6 2.395292 1_655
Si1 Si6 2.395292 1_565
Si2 Si3 2.464962 1_655
Si2 Si3 2.464962 1_565
Si3 Si5 2.744803 1_555
Si5 Si7 2.389614 1_545
Si5 Si7 2.389614 1_455
Si5 Si6 2.426159 1_555
