# generated using pymatgen
data_Ba2CaCu2MoO8
_symmetry_space_group_name_H-M   'P 1'
_cell_length_a   3.93048200
_cell_length_b   3.93048200
_cell_length_c   12.42583700
_cell_angle_alpha   90.00000000
_cell_angle_beta   90.00000000
_cell_angle_gamma   90.00000000
_symmetry_Int_Tables_number   1
_chemical_formula_structural   Ba2CaCu2MoO8
_chemical_formula_sum   'Ba2 Ca1 Cu2 Mo1 O8'
_cell_volume   191.96288830
_cell_formula_units_Z   1
loop_
 _symmetry_equiv_pos_site_id
 _symmetry_equiv_pos_as_xyz
  1  'x, y, z'
loop_
 _atom_site_type_symbol
 _atom_site_label
 _atom_site_symmetry_multiplicity
 _atom_site_fract_x
 _atom_site_fract_y
 _atom_site_fract_z
 _atom_site_occupancy
  Ba  Ba0  1  0.50000000  0.50000000  0.78668200  1
  Ba  Ba1  1  0.50000000  0.50000000  0.21331800  1
  Ca  Ca0  1  0.50000000  0.50000000  0.50000000  1
  Cu  Cu0  1  0.00000000  0.00000000  0.37883600  1
  Cu  Cu1  1  0.00000000  0.00000000  0.62116400  1
  Mo  Mo0  1  0.00000000  0.00000000  0.00000000  1
  O  O0  1  0.50000000  0.00000000  0.62627800  1
  O  O1  1  0.00000000  0.50000000  0.62627800  1
  O  O2  1  0.50000000  0.00000000  0.37372200  1
  O  O3  1  0.00000000  0.50000000  0.37372200  1
  O  O4  1  0.00000000  0.50000000  0.00000000  1
  O  O5  1  0.50000000  0.00000000  0.00000000  1
  O  O6  1  0.00000000  0.00000000  0.15369500  1
  O  O7  1  0.00000000  0.00000000  0.84630500  1
loop_
_geom_bond_atom_site_label_1
_geom_bond_atom_site_label_2
_geom_bond_distance
_geom_bond_site_symmetry_2
Ba0 O1 2.799078 1_655
Ba0 O1 2.799078 1_555
Ba0 O0 2.799078 1_555
Ba0 O0 2.799078 1_565
Ba0 O7 2.876322 1_655
Ba0 O7 2.876322 1_555
Ba0 O7 2.876322 1_565
Ba0 O7 2.876322 1_665
Ba1 O3 2.799078 1_655
Ba1 O2 2.799078 1_565
Ba1 O2 2.799078 1_555
Ba1 O3 2.799078 1_555
Ba1 O6 2.876322 1_665
Ba1 O6 2.876322 1_555
Ba1 O6 2.876322 1_655
Ba1 O6 2.876322 1_565
Ca0 O2 2.514812 1_565
Ca0 O1 2.514812 1_555
Ca0 O0 2.514812 1_555
Ca0 O0 2.514812 1_565
Ca0 O2 2.514812 1_555
Ca0 O1 2.514812 1_655
Ca0 O3 2.514812 1_555
Ca0 O3 2.514812 1_655
Cu0 O2 1.966268 1_555
Cu0 O3 1.966268 1_555
Cu0 O3 1.966268 1_545
Cu0 O2 1.966268 1_455
Cu1 O0 1.966268 1_455
Cu1 O1 1.966268 1_555
Cu1 O1 1.966268 1_545
Cu1 O0 1.966268 1_555
Mo0 O6 1.909789 1_555
Mo0 O7 1.909789 1_554
Mo0 O4 1.965241 1_555
Mo0 O5 1.965241 1_555
Mo0 O5 1.965241 1_455
Mo0 O4 1.965241 1_545
