# generated using pymatgen
data_U(Al5Ru)2
_symmetry_space_group_name_H-M   'P 1'
_cell_length_a   6.81856374
_cell_length_b   6.81856374
_cell_length_c   9.06560082
_cell_angle_alpha   90.00000000
_cell_angle_beta   90.00000000
_cell_angle_gamma   97.52876499
_symmetry_Int_Tables_number   1
_chemical_formula_structural   U(Al5Ru)2
_chemical_formula_sum   'U2 Al20 Ru4'
_cell_volume   417.85173241
_cell_formula_units_Z   2
loop_
 _symmetry_equiv_pos_site_id
 _symmetry_equiv_pos_as_xyz
  1  'x, y, z'
loop_
 _atom_site_type_symbol
 _atom_site_label
 _atom_site_symmetry_multiplicity
 _atom_site_fract_x
 _atom_site_fract_y
 _atom_site_fract_z
 _atom_site_occupancy
  U  U0  1  0.87899802  0.12100198  0.75000000  1
  U  U1  1  0.12100198  0.87899802  0.25000000  1
  Al  Al0  1  0.77475808  0.77475808  0.00000000  1
  Al  Al1  1  0.77475808  0.77475808  0.50000000  1
  Al  Al2  1  0.22524192  0.22524192  0.00000000  1
  Al  Al3  1  0.22524192  0.22524192  0.50000000  1
  Al  Al4  1  0.62344603  0.37655397  0.94888348  1
  Al  Al5  1  0.37655397  0.62344603  0.05111652  1
  Al  Al6  1  0.62344603  0.37655397  0.55111652  1
  Al  Al7  1  0.37655397  0.62344603  0.44888348  1
  Al  Al8  1  0.84218928  0.15781072  0.39940318  1
  Al  Al9  1  0.15781072  0.84218928  0.60059682  1
  Al  Al10  1  0.84218928  0.15781072  0.10059682  1
  Al  Al11  1  0.15781072  0.84218928  0.89940318  1
  Al  Al12  1  0.40765620  0.13863245  0.75000000  1
  Al  Al13  1  0.13863245  0.40765620  0.25000000  1
  Al  Al14  1  0.59234380  0.86136755  0.25000000  1
  Al  Al15  1  0.86136755  0.59234380  0.75000000  1
  Al  Al16  1  0.51951312  0.78125746  0.75000000  1
  Al  Al17  1  0.78125746  0.51951312  0.25000000  1
  Al  Al18  1  0.48048688  0.21874254  0.25000000  1
  Al  Al19  1  0.21874254  0.48048688  0.75000000  1
  Ru  Ru0  1  0.50000000  0.00000000  0.00000000  1
  Ru  Ru1  1  0.00000000  0.50000000  0.00000000  1
  Ru  Ru2  1  0.50000000  0.00000000  0.50000000  1
  Ru  Ru3  1  0.00000000  0.50000000  0.50000000  1
loop_
_geom_bond_atom_site_label_1
_geom_bond_atom_site_label_2
_geom_bond_distance
_geom_bond_site_symmetry_2
Al0 Ru0 2.573439 1_565
Al0 Ru1 2.573439 1_655
Al0 U0 3.282654 1_564
Al0 U1 3.282654 1_655
Al1 Ru3 2.573439 1_655
Al1 Ru2 2.573439 1_565
Al1 U0 3.282654 1_565
Al1 U1 3.282654 1_655
Al2 Ru1 2.573439 1_555
Al2 Ru0 2.573439 1_555
Al2 U0 3.282654 1_454
Al2 U1 3.282654 1_545
Al3 Ru2 2.573439 1_555
Al3 Ru3 2.573439 1_555
Al3 U0 3.282654 1_455
Al3 U1 3.282654 1_545
Al4 Ru0 2.636145 1_556
Al4 Ru1 2.636145 1_656
Al4 U0 3.181046 1_555
Al5 Ru0 2.636145 1_565
Al5 Ru1 2.636145 1_555
Al5 U1 3.181046 1_555
Al6 Ru3 2.636145 1_655
Al6 Ru2 2.636145 1_555
Al6 U0 3.181046 1_555
Al7 Ru3 2.636145 1_555
Al7 Ru2 2.636145 1_565
Al7 U1 3.181046 1_555
Al8 Ru2 2.603008 1_555
Al8 Ru3 2.603008 1_655
Al8 U1 3.163850 1_645
Al8 U0 3.200708 1_555
Al9 Ru2 2.603008 1_565
Al9 Ru3 2.603008 1_555
Al9 U0 3.163850 1_465
Al9 U1 3.200708 1_555
Al10 Ru1 2.603008 1_655
Al10 Ru0 2.603008 1_555
Al10 U1 3.163850 1_645
Al10 U0 3.200708 1_554
Al11 Ru0 2.603008 1_566
Al11 Ru1 2.603008 1_556
Al11 U0 3.163850 1_465
Al11 U1 3.200708 1_556
Al12 Ru0 2.565647 1_556
Al12 Ru2 2.565647 1_555
Al12 U0 3.231823 1_555
Al12 U0 3.590917 1_455
Al13 Ru3 2.565647 1_555
Al13 Ru1 2.565647 1_555
Al13 U1 3.231823 1_555
Al13 U1 3.590917 1_545
Al14 Ru2 2.565647 1_565
Al14 Ru0 2.565647 1_565
Al14 U1 3.231823 1_555
Al14 U1 3.590917 1_655
Al15 Ru1 2.565647 1_656
Al15 Ru3 2.565647 1_655
Al15 U0 3.231823 1_555
Al15 U0 3.590917 1_565
Al16 Ru0 2.725964 1_566
Al16 Ru2 2.725964 1_565
Al16 U0 3.144319 1_565
Al17 Ru3 2.725964 1_655
Al17 Ru1 2.725964 1_655
Al17 U1 3.144319 1_655
Al18 Ru2 2.725964 1_555
Al18 Ru0 2.725964 1_555
Al18 U1 3.144319 1_545
Al19 Ru1 2.725964 1_556
Al19 Ru3 2.725964 1_555
Al19 U0 3.144319 1_455
Ru0 U1 3.454964 1_545
Ru0 U0 3.454964 1_554
Ru1 U0 3.454964 1_454
Ru1 U1 3.454964 1_555
Ru2 U1 3.454964 1_545
Ru2 U0 3.454964 1_555
Ru3 U0 3.454964 1_455
Ru3 U1 3.454964 1_555
