# generated using pymatgen
data_Ce2(SO6)3
_symmetry_space_group_name_H-M   'P 1'
_cell_length_a   8.50318346
_cell_length_b   8.50318346
_cell_length_c   15.72802561
_cell_angle_alpha   86.16433977
_cell_angle_beta   86.16433977
_cell_angle_gamma   47.90915615
_symmetry_Int_Tables_number   1
_chemical_formula_structural   Ce2(SO6)3
_chemical_formula_sum   'Ce4 S6 O36'
_cell_volume   841.63371156
_cell_formula_units_Z   2
loop_
 _symmetry_equiv_pos_site_id
 _symmetry_equiv_pos_as_xyz
  1  'x, y, z'
loop_
 _atom_site_type_symbol
 _atom_site_label
 _atom_site_symmetry_multiplicity
 _atom_site_fract_x
 _atom_site_fract_y
 _atom_site_fract_z
 _atom_site_occupancy
  Ce  Ce0  1  0.84312000  0.82323800  0.63071800  1
  Ce  Ce1  1  0.82323800  0.84312000  0.13071800  1
  Ce  Ce2  1  0.15688000  0.17676200  0.36928200  1
  Ce  Ce3  1  0.17676200  0.15688000  0.86928200  1
  S  S0  1  0.26955600  0.31042700  0.07501900  1
  S  S1  1  0.31042700  0.26955600  0.57501900  1
  S  S2  1  0.73044400  0.68957300  0.92498100  1
  S  S3  1  0.68957300  0.73044400  0.42498100  1
  S  S4  1  0.72018200  0.27981800  0.75000000  1
  S  S5  1  0.27981800  0.72018200  0.25000000  1
  O  O0  1  0.23734500  0.26413000  0.49280000  1
  O  O1  1  0.26413000  0.23734500  0.99280000  1
  O  O2  1  0.76265500  0.73587000  0.50720000  1
  O  O3  1  0.73587000  0.76265500  0.00720000  1
  O  O4  1  0.53908400  0.15756600  0.56815300  1
  O  O5  1  0.15756600  0.53908400  0.06815300  1
  O  O6  1  0.46091600  0.84243400  0.43184700  1
  O  O7  1  0.84243400  0.46091600  0.93184700  1
  O  O8  1  0.27175800  0.15899900  0.63917800  1
  O  O9  1  0.15899900  0.27175800  0.13917800  1
  O  O10  1  0.72824200  0.84100100  0.36082200  1
  O  O11  1  0.84100100  0.72824200  0.86082200  1
  O  O12  1  0.18785600  0.49216600  0.59727000  1
  O  O13  1  0.49216600  0.18785600  0.09727000  1
  O  O14  1  0.81214400  0.50783400  0.40273000  1
  O  O15  1  0.50783400  0.81214400  0.90273000  1
  O  O16  1  0.56208000  0.33919600  0.81567500  1
  O  O17  1  0.33919600  0.56208000  0.31567500  1
  O  O18  1  0.43792000  0.66080400  0.18432500  1
  O  O19  1  0.66080400  0.43792000  0.68432500  1
  O  O20  1  0.92048500  0.21030900  0.78698400  1
  O  O21  1  0.21030900  0.92048500  0.28698400  1
  O  O22  1  0.07951500  0.78969100  0.21301600  1
  O  O23  1  0.78969100  0.07951500  0.71301600  1
  O  O24  1  0.08666600  0.87322600  0.62608400  1
  O  O25  1  0.87322600  0.08666600  0.12608400  1
  O  O26  1  0.91333400  0.12677400  0.37391600  1
  O  O27  1  0.12677400  0.91333400  0.87391600  1
  O  O28  1  0.27693700  0.22227100  0.77587200  1
  O  O29  1  0.22227100  0.27693700  0.27587200  1
  O  O30  1  0.72306300  0.77772900  0.22412800  1
  O  O31  1  0.77772900  0.72306300  0.72412800  1
  O  O32  1  0.00559300  0.03957200  0.53079300  1
  O  O33  1  0.03957200  0.00559300  0.03079300  1
  O  O34  1  0.99440700  0.96042800  0.46920700  1
  O  O35  1  0.96042800  0.99440700  0.96920700  1
loop_
_geom_bond_atom_site_label_1
_geom_bond_atom_site_label_2
_geom_bond_distance
_geom_bond_site_symmetry_2
Ce0 O31 1.884515 1_555
Ce0 O23 2.366869 1_565
Ce0 O24 2.372853 1_655
Ce0 O12 2.392378 1_655
Ce0 O2 2.417949 1_555
Ce0 O4 2.418040 1_565
Ce1 O30 1.884515 1_555
Ce1 O22 2.366869 1_655
Ce1 O25 2.372853 1_565
Ce1 O13 2.392378 1_565
Ce1 O3 2.417949 1_555
Ce1 O5 2.418040 1_655
Ce2 O29 1.884515 1_555
Ce2 O21 2.366869 1_545
Ce2 O26 2.372853 1_455
Ce2 O14 2.392378 1_455
Ce2 O0 2.417949 1_555
Ce2 O6 2.418040 1_545
Ce3 O28 1.884515 1_555
Ce3 O20 2.366869 1_455
Ce3 O27 2.372853 1_545
Ce3 O15 2.392378 1_545
Ce3 O1 2.417949 1_555
Ce3 O7 2.418040 1_455
O0 S1 1.488104 1_555
O1 S0 1.488104 1_556
O2 S3 1.488104 1_555
O3 S2 1.488104 1_554
O4 S1 1.484026 1_555
O5 S0 1.484026 1_555
O6 S3 1.484026 1_555
O7 S2 1.484026 1_555
O8 S1 1.501079 1_555
O9 S0 1.501079 1_555
O10 S3 1.501079 1_555
O11 S2 1.501079 1_555
O12 S1 1.478776 1_555
O13 S0 1.478776 1_555
O14 S3 1.478776 1_555
O15 S2 1.478776 1_555
O16 S4 1.450252 1_555
O17 S5 1.450252 1_555
O18 S5 1.450252 1_555
O19 S4 1.450252 1_555
O20 S4 1.524995 1_555
O21 S5 1.524995 1_555
O22 S5 1.524995 1_555
O23 S4 1.524995 1_555
O24 O32 1.808191 1_565
O25 O33 1.808191 1_655
O26 O34 1.808191 1_545
O27 O35 1.808191 1_455
O32 O34 1.259180 1_445
O33 O35 1.259180 1_444
