# generated using pymatgen
data_Ba5AlRu2O11
_symmetry_space_group_name_H-M   'P 1'
_cell_length_a   5.87861100
_cell_length_b   18.87667300
_cell_length_c   11.22318500
_cell_angle_alpha   90.00000000
_cell_angle_beta   90.00000000
_cell_angle_gamma   90.00000000
_symmetry_Int_Tables_number   1
_chemical_formula_structural   Ba5AlRu2O11
_chemical_formula_sum   'Ba20 Al4 Ru8 O44'
_cell_volume   1245.42132386
_cell_formula_units_Z   4
loop_
 _symmetry_equiv_pos_site_id
 _symmetry_equiv_pos_as_xyz
  1  'x, y, z'
loop_
 _atom_site_type_symbol
 _atom_site_label
 _atom_site_symmetry_multiplicity
 _atom_site_fract_x
 _atom_site_fract_y
 _atom_site_fract_z
 _atom_site_occupancy
  Ba  Ba0  1  0.75000000  0.93276800  0.47184200  1
  Ba  Ba1  1  0.25000000  0.06723200  0.52815800  1
  Ba  Ba2  1  0.25000000  0.56723200  0.97184200  1
  Ba  Ba3  1  0.75000000  0.43276800  0.02815800  1
  Ba  Ba4  1  0.75000000  0.47292100  0.39393100  1
  Ba  Ba5  1  0.25000000  0.52707900  0.60606900  1
  Ba  Ba6  1  0.25000000  0.02707900  0.89393100  1
  Ba  Ba7  1  0.75000000  0.97292100  0.10606900  1
  Ba  Ba8  1  0.75000000  0.63855200  0.19318200  1
  Ba  Ba9  1  0.25000000  0.36144800  0.80681800  1
  Ba  Ba10  1  0.25000000  0.86144800  0.69318200  1
  Ba  Ba11  1  0.75000000  0.13855200  0.30681800  1
  Ba  Ba12  1  0.75000000  0.67271800  0.54829500  1
  Ba  Ba13  1  0.25000000  0.32728200  0.45170500  1
  Ba  Ba14  1  0.25000000  0.82728200  0.04829500  1
  Ba  Ba15  1  0.75000000  0.17271800  0.95170500  1
  Ba  Ba16  1  0.75000000  0.74988300  0.87226800  1
  Ba  Ba17  1  0.25000000  0.25011700  0.12773200  1
  Ba  Ba18  1  0.25000000  0.75011700  0.37226800  1
  Ba  Ba19  1  0.75000000  0.24988300  0.62773200  1
  Al  Al0  1  0.75000000  0.81225000  0.23882700  1
  Al  Al1  1  0.25000000  0.18775000  0.76117300  1
  Al  Al2  1  0.25000000  0.68775000  0.73882700  1
  Al  Al3  1  0.75000000  0.31225000  0.26117300  1
  Ru  Ru0  1  0.75000000  0.93639500  0.79166900  1
  Ru  Ru1  1  0.25000000  0.06360500  0.20833100  1
  Ru  Ru2  1  0.25000000  0.56360500  0.29166900  1
  Ru  Ru3  1  0.75000000  0.43639500  0.70833100  1
  Ru  Ru4  1  0.75000000  0.56094200  0.79315200  1
  Ru  Ru5  1  0.25000000  0.43905800  0.20684800  1
  Ru  Ru6  1  0.25000000  0.93905800  0.29315200  1
  Ru  Ru7  1  0.75000000  0.06094200  0.70684800  1
  O  O0  1  0.98560400  0.98418400  0.67780600  1
  O  O1  1  0.01439600  0.01581600  0.32219400  1
  O  O2  1  0.01439600  0.51581600  0.17780600  1
  O  O3  1  0.48560400  0.01581600  0.32219400  1
  O  O4  1  0.98560400  0.48418400  0.82219400  1
  O  O5  1  0.51439600  0.98418400  0.67780600  1
  O  O6  1  0.51439600  0.48418400  0.82219400  1
  O  O7  1  0.48560400  0.51581600  0.17780600  1
  O  O8  1  0.98456300  0.90063500  0.89540600  1
  O  O9  1  0.01543700  0.09936500  0.10459400  1
  O  O10  1  0.01543700  0.59936500  0.39540600  1
  O  O11  1  0.48456300  0.09936500  0.10459400  1
  O  O12  1  0.98456300  0.40063500  0.60459400  1
  O  O13  1  0.51543700  0.90063500  0.89540600  1
  O  O14  1  0.51543700  0.40063500  0.60459400  1
  O  O15  1  0.48456300  0.59936500  0.39540600  1
  O  O16  1  0.75000000  0.85093200  0.69285000  1
  O  O17  1  0.25000000  0.14906800  0.30715000  1
  O  O18  1  0.25000000  0.64906800  0.19285000  1
  O  O19  1  0.75000000  0.35093200  0.80715000  1
  O  O20  1  0.75000000  0.75066000  0.35623700  1
  O  O21  1  0.25000000  0.24934000  0.64376300  1
  O  O22  1  0.25000000  0.74934000  0.85623700  1
  O  O23  1  0.75000000  0.25066000  0.14376300  1
  O  O24  1  0.75000000  0.77096700  0.09744100  1
  O  O25  1  0.25000000  0.22903300  0.90255900  1
  O  O26  1  0.25000000  0.72903300  0.59744100  1
  O  O27  1  0.75000000  0.27096700  0.40255900  1
  O  O28  1  0.49956100  0.63491000  0.75235200  1
  O  O29  1  0.50043900  0.36509000  0.24764800  1
  O  O30  1  0.50043900  0.86509000  0.25235200  1
  O  O31  1  0.99956100  0.36509000  0.24764800  1
  O  O32  1  0.49956100  0.13491000  0.74764800  1
  O  O33  1  0.00043900  0.63491000  0.75235200  1
  O  O34  1  0.00043900  0.13491000  0.74764800  1
  O  O35  1  0.99956100  0.86509000  0.25235200  1
  O  O36  1  0.75000000  0.53175400  0.61648200  1
  O  O37  1  0.25000000  0.46824600  0.38351800  1
  O  O38  1  0.25000000  0.96824600  0.11648200  1
  O  O39  1  0.75000000  0.03175400  0.88351800  1
  O  O40  1  0.75000000  0.59101800  0.95593900  1
  O  O41  1  0.25000000  0.40898200  0.04406100  1
  O  O42  1  0.25000000  0.90898200  0.45593900  1
  O  O43  1  0.75000000  0.09101800  0.54406100  1
loop_
_geom_bond_atom_site_label_1
_geom_bond_atom_site_label_2
_geom_bond_distance
_geom_bond_site_symmetry_2
Ba0 O3 2.773840 1_565
Ba0 O1 2.773840 1_665
Ba0 O5 2.864202 1_555
Ba0 O0 2.864202 1_555
Ba0 O16 2.922128 1_555
Ba0 O42 2.978754 1_555
Ba0 O42 2.978754 1_655
Ba0 O43 3.095241 1_565
Ba0 O30 3.138889 1_555
Ba0 O35 3.138889 1_555
Ba1 O5 2.773840 1_545
Ba1 O0 2.773840 1_445
Ba1 O3 2.864202 1_555
Ba1 O1 2.864202 1_555
Ba1 O17 2.922128 1_555
Ba1 O43 2.978754 1_455
Ba1 O43 2.978754 1_555
Ba1 O42 3.095241 1_545
Ba1 O34 3.138889 1_555
Ba1 O32 3.138889 1_555
Ba2 O4 2.773840 1_455
Ba2 O6 2.773840 1_555
Ba2 O7 2.864202 1_556
Ba2 O2 2.864202 1_556
Ba2 O18 2.922128 1_556
Ba2 O40 2.978754 1_455
Ba2 O40 2.978754 1_555
Ba2 O41 3.095241 1_556
Ba2 O33 3.138889 1_555
Ba2 O28 3.138889 1_555
Ba3 O2 2.773840 1_655
Ba3 O7 2.773840 1_555
Ba3 O6 2.864202 1_554
Ba3 O4 2.864202 1_554
Ba3 O19 2.922128 1_554
Ba3 O41 2.978754 1_555
Ba3 O41 2.978754 1_655
Ba3 O40 3.095241 1_554
Ba3 O31 3.138889 1_555
Ba3 O29 3.138889 1_555
Ba4 O36 2.733501 1_555
Ba4 O10 2.851691 1_655
Ba4 O15 2.851691 1_555
Ba4 O37 2.942951 1_655
Ba4 O37 2.942951 1_555
Ba4 O7 2.992493 1_555
Ba4 O2 2.992493 1_655
Ba4 O29 2.998483 1_555
Ba4 O31 2.998483 1_555
Ba4 O12 3.058309 1_555
Ba4 O14 3.058309 1_555
Ba5 O37 2.733501 1_555
Ba5 O12 2.851691 1_455
Ba5 O14 2.851691 1_555
Ba5 O36 2.942951 1_455
Ba5 O36 2.942951 1_555
Ba5 O6 2.992493 1_555
Ba5 O4 2.992493 1_455
Ba5 O33 2.998483 1_555
Ba5 O28 2.998483 1_555
Ba5 O10 3.058309 1_555
Ba5 O15 3.058309 1_555
Ba6 O38 2.733501 1_546
Ba6 O13 2.851691 1_545
Ba6 O8 2.851691 1_445
Ba6 O39 2.942951 1_455
Ba6 O39 2.942951 1_555
Ba6 O0 2.992493 1_445
Ba6 O5 2.992493 1_545
Ba6 O32 2.998483 1_555
Ba6 O34 2.998483 1_555
Ba6 O9 3.058309 1_556
Ba6 O11 3.058309 1_556
Ba7 O39 2.733501 1_564
Ba7 O9 2.851691 1_665
Ba7 O11 2.851691 1_565
Ba7 O38 2.942951 1_655
Ba7 O38 2.942951 1_555
Ba7 O3 2.992493 1_565
Ba7 O1 2.992493 1_665
Ba7 O35 2.998483 1_555
Ba7 O30 2.998483 1_555
Ba7 O13 3.058309 1_554
Ba7 O8 3.058309 1_554
Ba8 O24 2.720729 1_555
Ba8 O7 2.795237 1_555
Ba8 O2 2.795237 1_655
Ba8 O20 2.797731 1_555
Ba8 O40 2.809746 1_554
Ba8 O15 2.851861 1_555
Ba8 O10 2.851861 1_655
Ba8 O18 2.946003 1_655
Ba8 O18 2.946003 1_555
Ba9 O25 2.720729 1_555
Ba9 O4 2.795237 1_455
Ba9 O6 2.795237 1_555
Ba9 O21 2.797731 1_555
Ba9 O41 2.809746 1_556
Ba9 O12 2.851861 1_455
Ba9 O14 2.851861 1_555
Ba9 O19 2.946003 1_555
Ba9 O19 2.946003 1_455
Ba10 O26 2.720729 1_555
Ba10 O5 2.795237 1_555
Ba10 O0 2.795237 1_455
Ba10 O22 2.797731 1_555
Ba10 O42 2.809746 1_555
Ba10 O13 2.851861 1_555
Ba10 O8 2.851861 1_455
Ba10 O16 2.946003 1_555
Ba10 O16 2.946003 1_455
Ba11 O27 2.720729 1_555
Ba11 O3 2.795237 1_555
Ba11 O1 2.795237 1_655
Ba11 O23 2.797731 1_555
Ba11 O43 2.809746 1_555
Ba11 O11 2.851861 1_555
Ba11 O9 2.851861 1_655
Ba11 O17 2.946003 1_555
Ba11 O17 2.946003 1_655
Ba12 O20 2.609765 1_555
Ba12 O10 2.701195 1_655
Ba12 O15 2.701195 1_555
Ba12 O36 2.768791 1_555
Ba12 O28 2.814551 1_555
Ba12 O33 2.814551 1_655
Ba12 O26 3.173926 1_655
Ba12 O26 3.173926 1_555
Ba13 O21 2.609765 1_555
Ba13 O12 2.701195 1_455
Ba13 O14 2.701195 1_555
Ba13 O37 2.768791 1_555
Ba13 O29 2.814551 1_555
Ba13 O31 2.814551 1_455
Ba13 O27 3.173926 1_455
Ba13 O27 3.173926 1_555
Ba14 O22 2.609765 1_554
Ba14 O13 2.701195 1_554
Ba14 O8 2.701195 1_454
Ba14 O38 2.768791 1_555
Ba14 O30 2.814551 1_555
Ba14 O35 2.814551 1_455
Ba14 O24 3.173926 1_455
Ba14 O24 3.173926 1_555
Ba15 O23 2.609765 1_556
Ba15 O11 2.701195 1_556
Ba15 O9 2.701195 1_656
Ba15 O39 2.768791 1_555
Ba15 O32 2.814551 1_555
Ba15 O34 2.814551 1_655
Ba15 O25 3.173926 1_655
Ba15 O25 3.173926 1_555
Ba16 O24 2.558306 1_556
Ba16 O16 2.773660 1_555
Ba16 O22 2.944825 1_655
Ba16 O22 2.944825 1_555
Ba16 O28 2.947709 1_555
Ba16 O33 2.947709 1_655
Ba16 O40 3.142432 1_555
Ba16 O13 3.172822 1_555
Ba16 O8 3.172822 1_555
Ba17 O25 2.558306 1_554
Ba17 O17 2.773660 1_555
Ba17 O23 2.944825 1_455
Ba17 O23 2.944825 1_555
Ba17 O31 2.947709 1_455
Ba17 O29 2.947709 1_555
Ba17 O41 3.142432 1_555
Ba17 O9 3.172822 1_555
Ba17 O11 3.172822 1_555
Ba18 O26 2.558306 1_555
Ba18 O18 2.773660 1_555
Ba18 O20 2.944825 1_455
Ba18 O20 2.944825 1_555
Ba18 O35 2.947709 1_455
Ba18 O30 2.947709 1_555
Ba18 O42 3.142432 1_555
Ba18 O10 3.172822 1_555
Ba18 O15 3.172822 1_555
Ba19 O27 2.558306 1_555
Ba19 O19 2.773660 1_555
Ba19 O21 2.944825 1_555
Ba19 O21 2.944825 1_655
Ba19 O32 2.947709 1_555
Ba19 O34 2.947709 1_655
Ba19 O43 3.142432 1_555
Ba19 O14 3.172822 1_555
Ba19 O12 3.172822 1_555
Al0 O20 1.757283 1_555
Al0 O24 1.767830 1_555
Al0 O35 1.780515 1_555
Al0 O30 1.780515 1_555
Al1 O21 1.757283 1_555
Al1 O25 1.767830 1_555
Al1 O32 1.780515 1_555
Al1 O34 1.780515 1_555
Al2 O22 1.757283 1_555
Al2 O26 1.767830 1_555
Al2 O28 1.780515 1_555
Al2 O33 1.780515 1_555
Al3 O23 1.757283 1_555
Al3 O27 1.767830 1_555
Al3 O29 1.780515 1_555
Al3 O31 1.780515 1_555
O0 Ru7 2.030750 1_565
O0 Ru0 2.089286 1_555
O1 Ru6 2.030750 1_545
O1 Ru1 2.089286 1_555
O2 Ru5 2.030750 1_555
O2 Ru2 2.089286 1_555
O3 Ru6 2.030750 1_545
O3 Ru1 2.089286 1_555
O4 Ru4 2.030750 1_555
O4 Ru3 2.089286 1_555
O5 Ru7 2.030750 1_565
O5 Ru0 2.089286 1_555
O6 Ru4 2.030750 1_555
O6 Ru3 2.089286 1_555
O7 Ru5 2.030750 1_555
O7 Ru2 2.089286 1_555
O8 Ru0 1.926796 1_555
O9 Ru1 1.926796 1_555
O10 Ru2 1.926796 1_555
O11 Ru1 1.926796 1_555
O12 Ru3 1.926796 1_555
O13 Ru0 1.926796 1_555
O14 Ru3 1.926796 1_555
O15 Ru2 1.926796 1_555
O16 Ru0 1.957708 1_555
O17 Ru1 1.957708 1_555
O18 Ru2 1.957708 1_555
O19 Ru3 1.957708 1_555
O28 Ru4 2.080077 1_555
O29 Ru5 2.080077 1_555
O30 Ru6 2.080077 1_555
O31 Ru5 2.080077 1_655
O32 Ru7 2.080077 1_555
O33 Ru4 2.080077 1_455
O34 Ru7 2.080077 1_455
O35 Ru6 2.080077 1_655
O36 Ru4 2.057928 1_555
O36 Ru3 2.074330 1_555
O37 Ru5 2.057928 1_555
O37 Ru2 2.074330 1_555
O38 Ru6 2.057928 1_555
O38 Ru1 2.074330 1_565
O39 Ru7 2.057928 1_555
O39 Ru0 2.074330 1_545
O40 Ru4 1.913168 1_555
O41 Ru5 1.913168 1_555
O42 Ru6 1.913168 1_555
O43 Ru7 1.913168 1_555
