# generated using pymatgen
data_FeSiW
_symmetry_space_group_name_H-M   'P 1'
_cell_length_a   4.72861566
_cell_length_b   4.72861566
_cell_length_c   7.64797800
_cell_angle_alpha   90.00000000
_cell_angle_beta   90.00000000
_cell_angle_gamma   117.26507079
_symmetry_Int_Tables_number   1
_chemical_formula_structural   FeSiW
_chemical_formula_sum   'Fe4 Si4 W4'
_cell_volume   152.00782438
_cell_formula_units_Z   4
loop_
 _symmetry_equiv_pos_site_id
 _symmetry_equiv_pos_as_xyz
  1  'x, y, z'
loop_
 _atom_site_type_symbol
 _atom_site_label
 _atom_site_symmetry_multiplicity
 _atom_site_fract_x
 _atom_site_fract_y
 _atom_site_fract_z
 _atom_site_occupancy
  Fe  Fe0  1  0.17068500  0.82931500  0.00000000  1
  Fe  Fe1  1  0.65159300  0.82786400  0.00000000  1
  Fe  Fe2  1  0.17213600  0.34840700  0.00000000  1
  Fe  Fe3  1  0.85189700  0.14810300  0.50000000  1
  Si  Si0  1  0.35534000  0.16407700  0.50000000  1
  Si  Si1  1  0.83592300  0.64466000  0.50000000  1
  Si  Si2  1  0.98863400  0.01136600  0.23674200  1
  Si  Si3  1  0.98863400  0.01136600  0.76325800  1
  W  W0  1  0.33083500  0.66916500  0.31009800  1
  W  W1  1  0.66219500  0.33780500  0.18235300  1
  W  W2  1  0.66219500  0.33780500  0.81764700  1
  W  W3  1  0.33083500  0.66916500  0.68990200  1
loop_
_geom_bond_atom_site_label_1
_geom_bond_atom_site_label_2
_geom_bond_distance
_geom_bond_site_symmetry_2
Fe0 Fe1 2.277180 1_555
Fe0 Fe2 2.277180 1_555
Fe0 Si2 2.332243 1_465
Fe0 Si3 2.332243 1_464
Fe0 Fe1 2.451451 1_455
Fe0 Fe2 2.451451 1_565
Fe0 W0 2.701296 1_555
Fe0 W3 2.701296 1_554
Fe0 W2 2.829841 1_564
Fe0 W1 2.829841 1_565
Fe0 W1 2.829841 1_455
Fe0 W2 2.829841 1_454
Fe1 Si3 2.303073 1_564
Fe1 Si2 2.303073 1_565
Fe1 Fe2 2.360234 1_555
Fe1 Fe2 2.562490 1_665
Fe1 W2 2.724671 1_554
Fe1 W1 2.724671 1_555
Fe1 W0 2.728626 1_555
Fe1 W3 2.728626 1_554
Fe1 W2 2.766079 1_564
Fe1 W1 2.766079 1_565
Fe2 Si3 2.303073 1_454
Fe2 Si2 2.303073 1_455
Fe2 W2 2.724671 1_554
Fe2 W1 2.724671 1_555
Fe2 W3 2.728626 1_554
Fe2 W0 2.728626 1_555
Fe2 W2 2.766079 1_454
Fe2 W1 2.766079 1_455
Fe3 Si2 2.296280 1_555
Fe3 Si3 2.296280 1_555
Fe3 Si1 2.346946 1_545
Fe3 Si0 2.346946 1_655
Fe3 Si0 2.383576 1_555
Fe3 Si1 2.383576 1_555
Fe3 W3 2.862970 1_545
Fe3 W0 2.862970 1_545
Fe3 W0 2.862970 1_655
Fe3 W3 2.862970 1_655
Fe3 W2 2.871992 1_555
Fe3 W1 2.871992 1_555
Si0 Si1 2.365777 1_555
Si0 Si3 2.536680 1_455
Si0 Si2 2.536680 1_455
Si0 Si1 2.556947 1_445
Si0 W3 2.711292 1_545
Si0 W0 2.711292 1_545
Si0 W2 2.754979 1_555
Si0 W1 2.754979 1_555
Si0 W3 2.842649 1_555
Si0 W0 2.842649 1_555
Si1 Si2 2.536680 1_565
Si1 Si3 2.536680 1_565
Si1 W3 2.711292 1_655
Si1 W0 2.711292 1_655
Si1 W2 2.754979 1_555
Si1 W1 2.754979 1_555
Si1 W3 2.842649 1_555
Si1 W0 2.842649 1_555
Si2 W1 2.668621 1_555
Si2 W0 2.819658 1_645
Si2 W0 2.827847 1_545
Si2 W0 2.827847 1_655
Si2 W1 2.862789 1_545
Si2 W1 2.862789 1_655
Si3 W2 2.668621 1_555
Si3 W3 2.819658 1_645
Si3 W3 2.827847 1_545
Si3 W3 2.827847 1_655
Si3 W2 2.862789 1_545
Si3 W2 2.862789 1_655
W0 W1 2.848525 1_555
W0 W3 2.904733 1_555
W0 W1 2.977791 1_565
W0 W1 2.977791 1_455
W1 W2 2.789263 1_554
W2 W3 2.848525 1_555
W2 W3 2.977791 1_545
W2 W3 2.977791 1_655
