# generated using pymatgen
data_Th3Pa
_symmetry_space_group_name_H-M   'P 1'
_cell_length_a   4.93203163
_cell_length_b   4.93203163
_cell_length_c   4.93203163
_cell_angle_alpha   90.00000000
_cell_angle_beta   90.00000000
_cell_angle_gamma   90.00000000
_symmetry_Int_Tables_number   1
_chemical_formula_structural   Th3Pa
_chemical_formula_sum   'Th3 Pa1'
_cell_volume   119.97135375
_cell_formula_units_Z   1
loop_
 _symmetry_equiv_pos_site_id
 _symmetry_equiv_pos_as_xyz
  1  'x, y, z'
loop_
 _atom_site_type_symbol
 _atom_site_label
 _atom_site_symmetry_multiplicity
 _atom_site_fract_x
 _atom_site_fract_y
 _atom_site_fract_z
 _atom_site_occupancy
  Th  Th0  1  0.00000000  0.50000000  0.50000000  1
  Th  Th1  1  0.50000000  0.00000000  0.50000000  1
  Th  Th2  1  0.50000000  0.50000000  0.00000000  1
  Pa  Pa0  1  0.00000000  0.00000000  0.00000000  1
loop_
_geom_bond_atom_site_label_1
_geom_bond_atom_site_label_2
_geom_bond_distance
_geom_bond_site_symmetry_2
Th0 Th1 3.487473 1_455
Th0 Th2 3.487473 1_555
Th0 Th2 3.487473 1_556
Th0 Th1 3.487473 1_465
Th0 Th1 3.487473 1_565
Th0 Th2 3.487473 1_455
Th0 Th2 3.487473 1_456
Th0 Th1 3.487473 1_555
Th1 Th2 3.487473 1_546
Th1 Th2 3.487473 1_555
Th1 Th2 3.487473 1_545
Th1 Th2 3.487473 1_556
Pa0 Th1 3.487473 1_455
Pa0 Th2 3.487473 1_555
Pa0 Th2 3.487473 1_545
Pa0 Th1 3.487473 1_554
Pa0 Th0 3.487473 1_544
Pa0 Th0 3.487473 1_555
Pa0 Th1 3.487473 1_454
Pa0 Th0 3.487473 1_545
Pa0 Th2 3.487473 1_455
Pa0 Th1 3.487473 1_555
Pa0 Th2 3.487473 1_445
Pa0 Th0 3.487473 1_554
