# generated using pymatgen
data_FeBW
_symmetry_space_group_name_H-M   'P 1'
_cell_length_a   5.78353200
_cell_length_b   3.21641000
_cell_length_c   6.74041200
_cell_angle_alpha   90.00000000
_cell_angle_beta   90.00000000
_cell_angle_gamma   90.00000000
_symmetry_Int_Tables_number   1
_chemical_formula_structural   FeBW
_chemical_formula_sum   'Fe4 B4 W4'
_cell_volume   125.38656059
_cell_formula_units_Z   4
loop_
 _symmetry_equiv_pos_site_id
 _symmetry_equiv_pos_as_xyz
  1  'x, y, z'
loop_
 _atom_site_type_symbol
 _atom_site_label
 _atom_site_symmetry_multiplicity
 _atom_site_fract_x
 _atom_site_fract_y
 _atom_site_fract_z
 _atom_site_occupancy
  Fe  Fe0  1  0.14276100  0.25000000  0.44289100  1
  Fe  Fe1  1  0.64276100  0.25000000  0.05710900  1
  Fe  Fe2  1  0.85723900  0.75000000  0.55710900  1
  Fe  Fe3  1  0.35723900  0.75000000  0.94289100  1
  B  B0  1  0.26652900  0.25000000  0.13305000  1
  B  B1  1  0.76652900  0.25000000  0.36695000  1
  B  B2  1  0.73347100  0.75000000  0.86695000  1
  B  B3  1  0.23347100  0.75000000  0.63305000  1
  W  W0  1  0.02988700  0.25000000  0.82404900  1
  W  W1  1  0.52988700  0.25000000  0.67595100  1
  W  W2  1  0.97011300  0.75000000  0.17595100  1
  W  W3  1  0.47011300  0.75000000  0.32404900  1
loop_
_geom_bond_atom_site_label_1
_geom_bond_atom_site_label_2
_geom_bond_distance
_geom_bond_site_symmetry_2
Fe0 Fe2 2.430208 1_455
Fe0 Fe2 2.430208 1_445
Fe0 W3 2.610056 1_555
Fe0 W3 2.610056 1_545
Fe0 W2 2.611663 1_455
Fe0 W2 2.611663 1_445
Fe0 W0 2.650803 1_555
Fe0 W1 2.735089 1_555
Fe1 Fe3 2.430208 1_544
Fe1 Fe3 2.430208 1_554
Fe1 W2 2.610056 1_545
Fe1 W2 2.610056 1_555
Fe1 W3 2.611663 1_545
Fe1 W3 2.611663 1_555
Fe1 W1 2.650803 1_554
Fe1 W0 2.735089 1_654
Fe2 W1 2.610056 1_555
Fe2 W1 2.610056 1_565
Fe2 W0 2.611663 1_655
Fe2 W0 2.611663 1_665
Fe2 W2 2.650803 1_555
Fe2 W3 2.735089 1_555
Fe3 W0 2.610056 1_565
Fe3 W0 2.610056 1_555
Fe3 W1 2.611663 1_565
Fe3 W1 2.611663 1_555
Fe3 W3 2.650803 1_556
Fe3 W2 2.735089 1_456
B0 Fe3 2.122366 1_554
B0 Fe3 2.122366 1_544
B0 Fe0 2.207723 1_555
B0 Fe1 2.235346 1_555
B0 W2 2.368306 1_445
B0 W2 2.368306 1_455
B0 W3 2.372784 1_555
B0 W3 2.372784 1_545
B0 W0 2.492222 1_554
B1 Fe2 2.122366 1_545
B1 Fe2 2.122366 1_555
B1 Fe1 2.207723 1_555
B1 Fe0 2.235346 1_655
B1 W3 2.368306 1_545
B1 W3 2.368306 1_555
B1 W2 2.372784 1_545
B1 W2 2.372784 1_555
B1 W1 2.492222 1_555
B2 Fe1 2.122366 1_566
B2 Fe1 2.122366 1_556
B2 Fe2 2.207723 1_555
B2 Fe3 2.235346 1_555
B2 W0 2.368306 1_655
B2 W0 2.368306 1_665
B2 W1 2.372784 1_565
B2 W1 2.372784 1_555
B2 W2 2.492222 1_556
B3 Fe0 2.122366 1_565
B3 Fe0 2.122366 1_555
B3 Fe3 2.207723 1_555
B3 Fe2 2.235346 1_455
B3 W1 2.368306 1_565
B3 W1 2.368306 1_555
B3 W0 2.372784 1_565
B3 W0 2.372784 1_555
B3 W3 2.492222 1_555
