# generated using pymatgen
data_ZrTi2(PbO3)3
_symmetry_space_group_name_H-M   'P 1'
_cell_length_a   3.98997900
_cell_length_b   4.49244100
_cell_length_c   11.86100000
_cell_angle_alpha   90.00000000
_cell_angle_beta   90.00000000
_cell_angle_gamma   90.00000000
_symmetry_Int_Tables_number   1
_chemical_formula_structural   ZrTi2(PbO3)3
_chemical_formula_sum   'Zr1 Ti2 Pb3 O9'
_cell_volume   212.60540340
_cell_formula_units_Z   1
loop_
 _symmetry_equiv_pos_site_id
 _symmetry_equiv_pos_as_xyz
  1  'x, y, z'
loop_
 _atom_site_type_symbol
 _atom_site_label
 _atom_site_symmetry_multiplicity
 _atom_site_fract_x
 _atom_site_fract_y
 _atom_site_fract_z
 _atom_site_occupancy
  Zr  Zr0  1  0.00000000  0.53636700  0.00000000  1
  Ti  Ti0  1  0.00000000  0.52992200  0.33794300  1
  Ti  Ti1  1  0.00000000  0.52992200  0.66205700  1
  Pb  Pb0  1  0.50000000  0.97794200  0.82484700  1
  Pb  Pb1  1  0.50000000  0.97794200  0.17515300  1
  Pb  Pb2  1  0.50000000  0.97587800  0.50000000  1
  O  O0  1  0.50000000  0.64673300  0.00000000  1
  O  O1  1  0.50000000  0.62440500  0.33773700  1
  O  O2  1  0.50000000  0.62440500  0.66226300  1
  O  O3  1  0.00000000  0.63081400  0.82292800  1
  O  O4  1  0.00000000  0.63081400  0.17707200  1
  O  O5  1  0.00000000  0.63437000  0.50000000  1
  O  O6  1  0.00000000  0.09823600  0.00000000  1
  O  O7  1  0.00000000  0.13902400  0.33707800  1
  O  O8  1  0.00000000  0.13902400  0.66292200  1
loop_
_geom_bond_atom_site_label_1
_geom_bond_atom_site_label_2
_geom_bond_distance
_geom_bond_site_symmetry_2
O0 Zr0 2.055678 1_655
O0 Zr0 2.055678 1_555
O0 Pb1 2.555371 1_555
O0 Pb0 2.555371 1_554
O1 Ti0 2.039646 1_655
O1 Ti0 2.039646 1_555
O1 Pb2 2.489426 1_555
O1 Pb1 2.498255 1_555
O2 Ti1 2.039646 1_555
O2 Ti1 2.039646 1_655
O2 Pb2 2.489426 1_555
O2 Pb0 2.498255 1_555
O3 Ti1 1.961185 1_555
O3 Zr0 2.142681 1_556
O3 Pb0 2.532270 1_455
O3 Pb0 2.532270 1_555
O4 Ti0 1.961185 1_555
O4 Zr0 2.142681 1_555
O4 Pb1 2.532270 1_455
O4 Pb1 2.532270 1_555
O5 Ti0 1.978602 1_555
O5 Ti1 1.978602 1_555
O5 Pb2 2.516698 1_455
O5 Pb2 2.516698 1_555
O6 Zr0 1.968278 1_555
O6 Zr0 2.524163 1_545
O7 Ti0 1.756116 1_555
O8 Ti1 1.756116 1_555
