# generated using pymatgen
data_Yb2Fe4Si9
_symmetry_space_group_name_H-M   'P 1'
_cell_length_a   3.92724977
_cell_length_b   3.92724977
_cell_length_c   16.73566600
_cell_angle_alpha   90.00000000
_cell_angle_beta   90.00000000
_cell_angle_gamma   119.99999610
_symmetry_Int_Tables_number   1
_chemical_formula_structural   Yb2Fe4Si9
_chemical_formula_sum   'Yb2 Fe4 Si9'
_cell_volume   223.53765682
_cell_formula_units_Z   1
loop_
 _symmetry_equiv_pos_site_id
 _symmetry_equiv_pos_as_xyz
  1  'x, y, z'
loop_
 _atom_site_type_symbol
 _atom_site_label
 _atom_site_symmetry_multiplicity
 _atom_site_fract_x
 _atom_site_fract_y
 _atom_site_fract_z
 _atom_site_occupancy
  Yb  Yb0  1  0.33333300  0.66666700  0.24050500  1
  Yb  Yb1  1  0.66666700  0.33333300  0.75949500  1
  Fe  Fe0  1  0.33333300  0.66666700  0.57805500  1
  Fe  Fe1  1  0.66666700  0.33333300  0.42194500  1
  Fe  Fe2  1  0.66666700  0.33333300  0.09686900  1
  Fe  Fe3  1  0.33333300  0.66666700  0.90313100  1
  Si  Si0  1  0.00000000  0.00000000  0.64601800  1
  Si  Si1  1  0.00000000  0.00000000  0.35398200  1
  Si  Si2  1  0.00000000  0.00000000  0.12247400  1
  Si  Si3  1  0.00000000  0.00000000  0.87752600  1
  Si  Si4  1  0.33333300  0.66666700  0.42815000  1
  Si  Si5  1  0.66666700  0.33333300  0.57185000  1
  Si  Si6  1  0.66666700  0.33333300  0.95838600  1
  Si  Si7  1  0.33333300  0.66666700  0.04161400  1
  Si  Si8  1  0.00000000  0.00000000  0.50000000  1
loop_
_geom_bond_atom_site_label_1
_geom_bond_atom_site_label_2
_geom_bond_distance
_geom_bond_site_symmetry_2
Fe0 Si5 2.269773 1_455
Fe0 Si5 2.269773 1_565
Fe0 Si5 2.269780 1_555
Fe0 Si4 2.508760 1_555
Fe0 Si0 2.536687 1_565
Fe0 Si0 2.536690 1_665
Fe0 Si0 2.536690 1_555
Fe0 Si8 2.616775 1_565
Fe0 Si8 2.616778 1_665
Fe0 Si8 2.616778 1_555
Fe1 Si4 2.269773 1_545
Fe1 Si4 2.269773 1_655
Fe1 Si4 2.269780 1_555
Fe1 Si5 2.508760 1_555
Fe1 Si1 2.536687 1_655
Fe1 Si1 2.536690 1_555
Fe1 Si1 2.536690 1_665
Fe1 Si8 2.616775 1_655
Fe1 Si8 2.616778 1_665
Fe1 Si8 2.616778 1_555
Fe2 Si2 2.307534 1_655
Fe2 Si2 2.307537 1_555
Fe2 Si2 2.307537 1_665
Fe2 Si6 2.317605 1_554
Fe2 Si7 2.448716 1_545
Fe2 Si7 2.448716 1_655
Fe2 Si7 2.448722 1_555
Fe2 Yb0 3.304475 1_545
Fe2 Yb0 3.304475 1_655
Fe2 Yb0 3.304479 1_555
Fe3 Si3 2.307534 1_565
Fe3 Si3 2.307537 1_555
Fe3 Si3 2.307537 1_665
Fe3 Si7 2.317605 1_556
Fe3 Si6 2.448716 1_455
Fe3 Si6 2.448716 1_565
Fe3 Si6 2.448722 1_555
Fe3 Yb1 3.304475 1_455
Fe3 Yb1 3.304475 1_565
Fe3 Yb1 3.304479 1_555
Si0 Si8 2.443708 1_555
Si0 Si5 2.584916 1_455
Si0 Si5 2.584919 1_555
Si0 Si5 2.584919 1_445
Si0 Yb1 2.957654 1_455
Si0 Yb1 2.957657 1_445
Si0 Yb1 2.957657 1_555
Si1 Si8 2.443708 1_555
Si1 Si4 2.584916 1_545
Si1 Si4 2.584919 1_445
Si1 Si4 2.584919 1_555
Si1 Yb0 2.957654 1_545
Si1 Yb0 2.957657 1_555
Si1 Yb0 2.957657 1_445
Si2 Si7 2.640523 1_545
Si2 Si7 2.640526 1_555
Si2 Si7 2.640526 1_445
Si2 Yb0 3.007159 1_545
Si2 Yb0 3.007162 1_555
Si2 Yb0 3.007162 1_445
Si3 Si6 2.640523 1_455
Si3 Si6 2.640526 1_555
Si3 Si6 2.640526 1_445
Si3 Yb1 3.007159 1_455
Si3 Yb1 3.007162 1_555
Si3 Yb1 3.007162 1_445
Si4 Si8 2.566513 1_565
Si4 Si8 2.566516 1_555
Si4 Si8 2.566516 1_665
Si4 Yb0 3.140364 1_555
Si5 Si8 2.566513 1_655
Si5 Si8 2.566516 1_665
Si5 Si8 2.566516 1_555
Si5 Yb1 3.140364 1_555
