# generated using pymatgen
data_Zr6Fe2O
_symmetry_space_group_name_H-M   'P 1'
_cell_length_a   5.97917816
_cell_length_b   5.97917816
_cell_length_c   9.18935136
_cell_angle_alpha   89.65406092
_cell_angle_beta   89.65406092
_cell_angle_gamma   32.09788772
_symmetry_Int_Tables_number   1
_chemical_formula_structural   Zr6Fe2O
_chemical_formula_sum   'Zr6 Fe2 O1'
_cell_volume   174.56378092
_cell_formula_units_Z   1
loop_
 _symmetry_equiv_pos_site_id
 _symmetry_equiv_pos_as_xyz
  1  'x, y, z'
loop_
 _atom_site_type_symbol
 _atom_site_label
 _atom_site_symmetry_multiplicity
 _atom_site_fract_x
 _atom_site_fract_y
 _atom_site_fract_z
 _atom_site_occupancy
  Zr  Zr0  1  0.63356500  0.63356500  0.04388400  1
  Zr  Zr1  1  0.36643500  0.36643500  0.95611600  1
  Zr  Zr2  1  0.63363400  0.63363400  0.45768400  1
  Zr  Zr3  1  0.36636600  0.36636600  0.54231600  1
  Zr  Zr4  1  0.04660800  0.04660800  0.74751500  1
  Zr  Zr5  1  0.95339200  0.95339200  0.25248500  1
  Fe  Fe0  1  0.74442400  0.74442400  0.74932200  1
  Fe  Fe1  1  0.25557600  0.25557600  0.25067800  1
  O  O0  1  0.00000000  0.00000000  0.50000000  1
loop_
_geom_bond_atom_site_label_1
_geom_bond_atom_site_label_2
_geom_bond_distance
_geom_bond_site_symmetry_2
Fe0 Zr4 2.810925 1_565
Fe0 Zr4 2.810925 1_655
Fe0 Zr3 2.877734 1_565
Fe0 Zr3 2.877734 1_655
Fe0 Zr1 2.888450 1_565
Fe0 Zr1 2.888450 1_655
Fe0 Zr2 2.974256 1_555
Fe0 Zr0 2.984418 1_556
Fe1 Zr5 2.810925 1_545
Fe1 Zr5 2.810925 1_455
Fe1 Zr2 2.877734 1_545
Fe1 Zr2 2.877734 1_455
Fe1 Zr0 2.888450 1_545
Fe1 Zr0 2.888450 1_455
Fe1 Zr3 2.974256 1_555
Fe1 Zr1 2.984418 1_554
O0 Zr2 2.287937 1_455
O0 Zr2 2.287937 1_545
O0 Zr3 2.287937 1_545
O0 Zr3 2.287937 1_455
O0 Zr4 2.339994 1_555
O0 Zr5 2.339994 1_445
