# generated using pymatgen
data_MgAgSb
_symmetry_space_group_name_H-M   'P 1'
_cell_length_a   9.21145179
_cell_length_b   9.21145179
_cell_length_c   9.21145179
_cell_angle_alpha   90.58306410
_cell_angle_beta   119.66394068
_cell_angle_gamma   119.66394068
_symmetry_Int_Tables_number   1
_chemical_formula_structural   MgAgSb
_chemical_formula_sum   'Mg8 Ag8 Sb8'
_cell_volume   555.45046312
_cell_formula_units_Z   8
loop_
 _symmetry_equiv_pos_site_id
 _symmetry_equiv_pos_as_xyz
  1  'x, y, z'
loop_
 _atom_site_type_symbol
 _atom_site_label
 _atom_site_symmetry_multiplicity
 _atom_site_fract_x
 _atom_site_fract_y
 _atom_site_fract_z
 _atom_site_occupancy
  Mg  Mg0  1  0.81215000  0.42807300  0.67162700  1
  Mg  Mg1  1  0.18785000  0.85947800  0.61592400  1
  Mg  Mg2  1  0.75644600  0.92807300  0.11592400  1
  Mg  Mg3  1  0.24355400  0.35947800  0.17162700  1
  Mg  Mg4  1  0.75644600  0.32837300  0.14052200  1
  Mg  Mg5  1  0.24355400  0.38407600  0.57192700  1
  Mg  Mg6  1  0.81215000  0.88407600  0.64052200  1
  Mg  Mg7  1  0.18785000  0.82837300  0.07192700  1
  Ag  Ag0  1  0.50000000  0.00000000  0.50000000  1
  Ag  Ag1  1  0.50000000  0.50000000  0.00000000  1
  Ag  Ag2  1  0.50000000  0.25000000  0.75000000  1
  Ag  Ag3  1  0.50000000  0.75000000  0.25000000  1
  Ag  Ag4  1  0.50000000  0.21958900  0.28041100  1
  Ag  Ag5  1  0.50000000  0.78041100  0.71958900  1
  Ag  Ag6  1  0.93917700  0.71958900  0.21958900  1
  Ag  Ag7  1  0.06082300  0.28041100  0.78041100  1
  Sb  Sb0  1  0.73774500  0.60398000  0.39765600  1
  Sb  Sb1  1  0.26225500  0.65991100  0.86623500  1
  Sb  Sb2  1  0.20632400  0.10398000  0.36623500  1
  Sb  Sb3  1  0.79367600  0.15991100  0.89765600  1
  Sb  Sb4  1  0.20632400  0.60234400  0.34008900  1
  Sb  Sb5  1  0.79367600  0.13376500  0.39602000  1
  Sb  Sb6  1  0.73774500  0.63376500  0.84008900  1
  Sb  Sb7  1  0.26225500  0.10234400  0.89602000  1
loop_
_geom_bond_atom_site_label_1
_geom_bond_atom_site_label_2
_geom_bond_distance
_geom_bond_site_symmetry_2
Mg0 Sb6 2.957366 1_555
Mg0 Sb1 2.960664 1_655
Mg0 Sb0 2.989086 1_555
Mg0 Sb3 3.241128 1_555
Mg1 Sb7 2.957353 1_565
Mg1 Sb0 2.960665 1_455
Mg1 Sb1 2.989087 1_555
Mg1 Sb2 3.241128 1_565
Mg2 Sb5 2.957358 1_565
Mg2 Sb3 2.960671 1_564
Mg2 Sb2 2.989085 1_665
Mg2 Sb1 3.241128 1_554
Mg3 Sb4 2.957358 1_555
Mg3 Sb2 2.960671 1_555
Mg3 Sb3 2.989085 1_454
Mg3 Sb0 3.241128 1_555
Mg4 Sb3 2.957358 1_554
Mg4 Sb5 2.960671 1_555
Mg4 Sb4 2.989085 1_655
Mg4 Sb7 3.241128 1_554
Mg5 Sb2 2.957358 1_555
Mg5 Sb4 2.960671 1_555
Mg5 Sb5 2.989085 1_455
Mg5 Sb6 3.241128 1_555
Mg6 Sb0 2.957353 1_555
Mg6 Sb7 2.960665 1_665
Mg6 Sb6 2.989087 1_555
Mg6 Sb5 3.241128 1_565
Mg7 Sb1 2.957366 1_554
Mg7 Sb6 2.960664 1_454
Mg7 Sb7 2.989086 1_564
Mg7 Sb4 3.241128 1_555
Ag0 Ag4 2.875095 1_555
Ag0 Ag5 2.875095 1_545
Ag0 Sb3 3.007161 1_555
Ag0 Sb2 3.007161 1_555
Ag0 Sb4 3.007161 1_545
Ag0 Sb5 3.007161 1_555
Ag0 Mg0 3.235217 1_555
Ag0 Mg7 3.235217 1_545
Ag0 Mg6 3.235224 1_545
Ag0 Mg1 3.235224 1_545
Ag0 Ag3 3.240127 1_545
Ag0 Ag2 3.240127 1_555
Ag1 Ag7 2.875089 1_554
Ag1 Ag6 2.875089 1_555
Ag1 Sb1 3.007161 1_554
Ag1 Sb0 3.007161 1_555
Ag1 Sb7 3.007161 1_554
Ag1 Sb6 3.007161 1_554
Ag1 Mg4 3.235217 1_555
Ag1 Mg2 3.235217 1_555
Ag1 Mg3 3.235217 1_555
Ag1 Mg5 3.235217 1_554
Ag1 Ag3 3.240127 1_555
Ag1 Ag2 3.240127 1_554
Ag2 Sb6 2.908554 1_555
Ag2 Sb2 2.908554 1_555
Ag2 Sb3 2.908554 1_555
Ag2 Sb7 2.908554 1_555
Ag2 Mg4 2.981564 1_556
Ag2 Mg5 2.981564 1_555
Ag2 Mg1 2.981565 1_545
Ag2 Mg0 2.981571 1_555
Ag3 Sb5 2.908554 1_565
Ag3 Sb4 2.908554 1_555
Ag3 Sb1 2.908554 1_554
Ag3 Sb0 2.908554 1_555
Ag3 Mg2 2.981564 1_555
Ag3 Mg3 2.981564 1_555
Ag3 Mg6 2.981565 1_555
Ag3 Mg7 2.981571 1_555
Ag4 Sb2 2.891290 1_555
Ag4 Sb5 2.891290 1_555
Ag4 Sb0 2.899200 1_555
Ag4 Sb7 2.899200 1_554
Ag4 Mg3 2.990145 1_555
Ag4 Mg4 2.990145 1_555
Ag4 Mg0 3.013169 1_555
Ag4 Mg7 3.013169 1_545
Ag5 Sb3 2.891290 1_565
Ag5 Sb4 2.891290 1_555
Ag5 Sb6 2.899200 1_555
Ag5 Sb1 2.899200 1_555
Ag5 Mg2 2.990145 1_556
Ag5 Mg5 2.990145 1_555
Ag5 Mg1 3.013177 1_555
Ag5 Mg6 3.013177 1_555
Ag6 Sb0 2.891283 1_555
Ag6 Sb6 2.891291 1_554
Ag6 Sb2 2.899201 1_665
Ag6 Sb4 2.899208 1_655
Ag6 Mg1 2.990145 1_655
Ag6 Mg7 2.990145 1_655
Ag6 Mg2 3.013162 1_555
Ag6 Mg4 3.013170 1_555
Ag7 Sb7 2.891283 1_555
Ag7 Sb1 2.891291 1_555
Ag7 Sb5 2.899201 1_455
Ag7 Sb3 2.899208 1_455
Ag7 Mg0 2.990145 1_455
Ag7 Mg6 2.990145 1_445
Ag7 Mg5 3.013162 1_555
Ag7 Mg3 3.013170 1_556
