# generated using pymatgen
data_SrAg2C4(N2O)2
_symmetry_space_group_name_H-M   'P 1'
_cell_length_a   7.15653500
_cell_length_b   8.27569200
_cell_length_c   18.50076900
_cell_angle_alpha   90.00000000
_cell_angle_beta   90.00000000
_cell_angle_gamma   90.00000000
_symmetry_Int_Tables_number   1
_chemical_formula_structural   SrAg2C4(N2O)2
_chemical_formula_sum   'Sr4 Ag8 C16 N16 O8'
_cell_volume   1095.71321401
_cell_formula_units_Z   4
loop_
 _symmetry_equiv_pos_site_id
 _symmetry_equiv_pos_as_xyz
  1  'x, y, z'
loop_
 _atom_site_type_symbol
 _atom_site_label
 _atom_site_symmetry_multiplicity
 _atom_site_fract_x
 _atom_site_fract_y
 _atom_site_fract_z
 _atom_site_occupancy
  Sr  Sr0  1  0.73342200  0.35336200  0.25000000  1
  Sr  Sr1  1  0.26657800  0.64663800  0.75000000  1
  Sr  Sr2  1  0.76657800  0.35336200  0.75000000  1
  Sr  Sr3  1  0.23342200  0.64663800  0.25000000  1
  Ag  Ag0  1  0.50000000  0.00000000  0.50000000  1
  Ag  Ag1  1  0.50000000  0.00000000  0.00000000  1
  Ag  Ag2  1  0.00000000  0.00000000  0.50000000  1
  Ag  Ag3  1  0.00000000  0.00000000  0.00000000  1
  Ag  Ag4  1  0.75000000  0.61189500  0.50000000  1
  Ag  Ag5  1  0.25000000  0.38810500  0.00000000  1
  Ag  Ag6  1  0.25000000  0.38810500  0.50000000  1
  Ag  Ag7  1  0.75000000  0.61189500  0.00000000  1
  C  C0  1  0.10920100  0.89807200  0.90878000  1
  C  C1  1  0.89079900  0.10192800  0.40878000  1
  C  C2  1  0.39079900  0.89807200  0.09122000  1
  C  C3  1  0.60920100  0.10192800  0.59122000  1
  C  C4  1  0.89079900  0.10192800  0.09122000  1
  C  C5  1  0.10920100  0.89807200  0.59122000  1
  C  C6  1  0.60920100  0.10192800  0.90878000  1
  C  C7  1  0.39079900  0.89807200  0.40878000  1
  C  C8  1  0.12127700  0.40084300  0.90052100  1
  C  C9  1  0.87872300  0.59915700  0.40052100  1
  C  C10  1  0.37872300  0.40084300  0.09947900  1
  C  C11  1  0.62127700  0.59915700  0.59947900  1
  C  C12  1  0.87872300  0.59915700  0.09947900  1
  C  C13  1  0.12127700  0.40084300  0.59947900  1
  C  C14  1  0.62127700  0.59915700  0.90052100  1
  C  C15  1  0.37872300  0.40084300  0.40052100  1
  N  N0  1  0.16983900  0.83504600  0.85721300  1
  N  N1  1  0.83016100  0.16495400  0.35721300  1
  N  N2  1  0.33016100  0.83504600  0.14278700  1
  N  N3  1  0.66983900  0.16495400  0.64278700  1
  N  N4  1  0.83016100  0.16495400  0.14278700  1
  N  N5  1  0.16983900  0.83504600  0.64278700  1
  N  N6  1  0.66983900  0.16495400  0.85721300  1
  N  N7  1  0.33016100  0.83504600  0.35721300  1
  N  N8  1  0.05185700  0.41879100  0.84366300  1
  N  N9  1  0.94814300  0.58120900  0.34366300  1
  N  N10  1  0.44814300  0.41879100  0.15633700  1
  N  N11  1  0.55185700  0.58120900  0.65633700  1
  N  N12  1  0.94814300  0.58120900  0.15633700  1
  N  N13  1  0.05185700  0.41879100  0.65633700  1
  N  N14  1  0.55185700  0.58120900  0.84366300  1
  N  N15  1  0.44814300  0.41879100  0.34366300  1
  O  O0  1  0.60011700  0.65983400  0.25000000  1
  O  O1  1  0.39988300  0.34016600  0.75000000  1
  O  O2  1  0.89988300  0.65983400  0.75000000  1
  O  O3  1  0.10011700  0.34016600  0.25000000  1
  O  O4  1  0.48601300  0.10922200  0.25000000  1
  O  O5  1  0.51398700  0.89077800  0.75000000  1
  O  O6  1  0.01398700  0.10922200  0.75000000  1
  O  O7  1  0.98601300  0.89077800  0.25000000  1
loop_
_geom_bond_atom_site_label_1
_geom_bond_atom_site_label_2
_geom_bond_distance
_geom_bond_site_symmetry_2
Ag0 C3 2.042157 1_555
Ag0 C7 2.042157 1_545
Ag1 C6 2.042157 1_554
Ag1 C2 2.042157 1_545
Ag2 C1 2.042157 1_455
Ag2 C5 2.042157 1_545
Ag3 C0 2.042157 1_544
Ag3 C4 2.042157 1_455
Ag4 C11 2.060814 1_555
Ag4 C9 2.060814 1_555
Ag5 C10 2.060814 1_555
Ag5 C8 2.060814 1_554
Ag6 C13 2.060814 1_555
Ag6 C15 2.060814 1_555
Ag7 C12 2.060814 1_555
Ag7 C14 2.060814 1_554
C0 N0 1.170701 1_555
C1 N1 1.170701 1_555
C2 N2 1.170701 1_555
C3 N3 1.170701 1_555
C4 N4 1.170701 1_555
C5 N5 1.170701 1_555
C6 N6 1.170701 1_555
C7 N7 1.170701 1_555
C8 N8 1.172778 1_555
C9 N9 1.172778 1_555
C10 N10 1.172778 1_555
C11 N11 1.172778 1_555
C12 N12 1.172778 1_555
C13 N13 1.172778 1_555
C14 N14 1.172778 1_555
C15 N15 1.172778 1_555
N0 Sr1 2.616255 1_555
N1 Sr0 2.616255 1_555
N2 Sr3 2.616255 1_555
N3 Sr2 2.616255 1_555
N4 Sr0 2.616255 1_555
N5 Sr1 2.616255 1_555
N6 Sr2 2.616255 1_555
N7 Sr3 2.616255 1_555
N8 Sr2 2.732048 1_455
N8 Sr1 2.986553 1_555
N9 Sr3 2.732048 1_655
N9 Sr0 2.986553 1_555
N10 Sr0 2.732048 1_555
N10 Sr3 2.986553 1_555
N11 Sr1 2.732048 1_555
N11 Sr2 2.986553 1_555
N12 Sr3 2.732048 1_655
N12 Sr0 2.986553 1_555
N13 Sr2 2.732048 1_455
N13 Sr1 2.986553 1_555
N14 Sr1 2.732048 1_555
N14 Sr2 2.986553 1_555
N15 Sr0 2.732048 1_555
N15 Sr3 2.986553 1_555
O0 Sr3 2.626537 1_555
O0 Sr0 2.709755 1_555
O1 Sr2 2.626537 1_555
O1 Sr1 2.709755 1_555
O2 Sr1 2.626537 1_655
O2 Sr2 2.709755 1_555
O3 Sr0 2.626537 1_455
O3 Sr3 2.709755 1_555
O4 Sr0 2.686470 1_555
O5 Sr1 2.686470 1_555
O6 Sr2 2.686470 1_455
O7 Sr3 2.686470 1_655
