# generated using pymatgen
data_Rb2Te
_symmetry_space_group_name_H-M   'P 1'
_cell_length_a   5.54755469
_cell_length_b   9.09956281
_cell_length_c   11.09254080
_cell_angle_alpha   90.00000000
_cell_angle_beta   90.00000000
_cell_angle_gamma   90.00000000
_symmetry_Int_Tables_number   1
_chemical_formula_structural   Rb2Te
_chemical_formula_sum   'Rb8 Te4'
_cell_volume   559.95503519
_cell_formula_units_Z   4
loop_
 _symmetry_equiv_pos_site_id
 _symmetry_equiv_pos_as_xyz
  1  'x, y, z'
loop_
 _atom_site_type_symbol
 _atom_site_label
 _atom_site_symmetry_multiplicity
 _atom_site_fract_x
 _atom_site_fract_y
 _atom_site_fract_z
 _atom_site_occupancy
  Rb  Rb0  1  0.75000000  0.96983441  0.82614375  1
  Rb  Rb1  1  0.25000000  0.03016559  0.17385625  1
  Rb  Rb2  1  0.75000000  0.46983441  0.67385625  1
  Rb  Rb3  1  0.25000000  0.53016559  0.32614375  1
  Rb  Rb4  1  0.75000000  0.85261138  0.42885466  1
  Rb  Rb5  1  0.25000000  0.14738862  0.57114534  1
  Rb  Rb6  1  0.75000000  0.35261138  0.07114534  1
  Rb  Rb7  1  0.25000000  0.64738862  0.92885466  1
  Te  Te0  1  0.75000000  0.75159433  0.11734962  1
  Te  Te1  1  0.25000000  0.24840567  0.88265038  1
  Te  Te2  1  0.75000000  0.25159433  0.38265038  1
  Te  Te3  1  0.25000000  0.74840567  0.61734962  1
loop_
_geom_bond_atom_site_label_1
_geom_bond_atom_site_label_2
_geom_bond_distance
_geom_bond_site_symmetry_2
Rb0 Te0 3.791838 1_556
Rb0 Te1 3.809504 1_665
Rb0 Te1 3.809504 1_565
Rb0 Te3 4.137367 1_555
Rb0 Te3 4.137367 1_655
Rb1 Te1 3.791838 1_554
Rb1 Te0 3.809504 1_445
Rb1 Te0 3.809504 1_545
Rb1 Te2 4.137367 1_455
Rb1 Te2 4.137367 1_555
Rb2 Te2 3.791838 1_555
Rb2 Te3 3.809504 1_555
Rb2 Te3 3.809504 1_655
Rb2 Te1 4.137367 1_655
Rb2 Te1 4.137367 1_555
Rb3 Te3 3.791838 1_555
Rb3 Te2 3.809504 1_455
Rb3 Te2 3.809504 1_555
Rb3 Te0 4.137367 1_555
Rb3 Te0 4.137367 1_455
Rb4 Te0 3.575558 1_555
Rb4 Te3 3.600665 1_555
Rb4 Te3 3.600665 1_655
Rb4 Te2 3.666568 1_565
Rb5 Te1 3.575558 1_555
Rb5 Te2 3.600665 1_555
Rb5 Te2 3.600665 1_455
Rb5 Te3 3.666568 1_545
Rb6 Te2 3.575558 1_555
Rb6 Te1 3.600665 1_554
Rb6 Te1 3.600665 1_654
Rb6 Te0 3.666568 1_555
Rb7 Te3 3.575558 1_555
Rb7 Te0 3.600665 1_556
Rb7 Te0 3.600665 1_456
Rb7 Te1 3.666568 1_555
