# generated using pymatgen
data_KPr5(CCl5)2
_symmetry_space_group_name_H-M   'P 1'
_cell_length_a   8.61575414
_cell_length_b   8.61575414
_cell_length_c   15.21123300
_cell_angle_alpha   90.00000000
_cell_angle_beta   90.00000000
_cell_angle_gamma   120.00000109
_symmetry_Int_Tables_number   1
_chemical_formula_structural   KPr5(CCl5)2
_chemical_formula_sum   'K2 Pr10 C4 Cl20'
_cell_volume   977.87116630
_cell_formula_units_Z   2
loop_
 _symmetry_equiv_pos_site_id
 _symmetry_equiv_pos_as_xyz
  1  'x, y, z'
loop_
 _atom_site_type_symbol
 _atom_site_label
 _atom_site_symmetry_multiplicity
 _atom_site_fract_x
 _atom_site_fract_y
 _atom_site_fract_z
 _atom_site_occupancy
  K  K0  1  0.00000000  0.00000000  0.04910100  1
  K  K1  1  0.00000000  0.00000000  0.54910100  1
  Pr  Pr0  1  0.66666700  0.33333300  0.44988200  1
  Pr  Pr1  1  0.33333300  0.66666700  0.94988200  1
  Pr  Pr2  1  0.33333300  0.66666700  0.54944100  1
  Pr  Pr3  1  0.66666700  0.33333300  0.04944100  1
  Pr  Pr4  1  0.38265300  0.96494400  0.74883800  1
  Pr  Pr5  1  0.03505600  0.41770900  0.74883800  1
  Pr  Pr6  1  0.58229100  0.61734700  0.74883800  1
  Pr  Pr7  1  0.61734700  0.03505600  0.24883800  1
  Pr  Pr8  1  0.96494400  0.58229100  0.24883800  1
  Pr  Pr9  1  0.41770900  0.38265300  0.24883800  1
  C  C0  1  0.33333300  0.66666700  0.70262600  1
  C  C1  1  0.66666700  0.33333300  0.20262600  1
  C  C2  1  0.66666700  0.33333300  0.29755700  1
  C  C3  1  0.33333300  0.66666700  0.79755700  1
  Cl  Cl0  1  0.00553500  0.65290100  0.06320400  1
  Cl  Cl1  1  0.34709900  0.35263400  0.06320400  1
  Cl  Cl2  1  0.64736600  0.99446500  0.06320400  1
  Cl  Cl3  1  0.99446500  0.34709900  0.56320400  1
  Cl  Cl4  1  0.65290100  0.64736600  0.56320400  1
  Cl  Cl5  1  0.35263400  0.00553500  0.56320400  1
  Cl  Cl6  1  0.98472800  0.34334500  0.93319800  1
  Cl  Cl7  1  0.65665500  0.64138200  0.93319800  1
  Cl  Cl8  1  0.35861800  0.01527200  0.93319800  1
  Cl  Cl9  1  0.01527200  0.65665500  0.43319800  1
  Cl  Cl10  1  0.34334500  0.35861800  0.43319800  1
  Cl  Cl11  1  0.64138200  0.98472800  0.43319800  1
  Cl  Cl12  1  0.99125300  0.74792400  0.74923300  1
  Cl  Cl13  1  0.25207600  0.24332800  0.74923300  1
  Cl  Cl14  1  0.75667200  0.00874700  0.74923300  1
  Cl  Cl15  1  0.00874700  0.25207600  0.24923300  1
  Cl  Cl16  1  0.74792400  0.75667200  0.24923300  1
  Cl  Cl17  1  0.24332800  0.99125300  0.24923300  1
  Cl  Cl18  1  0.66666700  0.33333300  0.70518300  1
  Cl  Cl19  1  0.33333300  0.66666700  0.20518300  1
loop_
_geom_bond_atom_site_label_1
_geom_bond_atom_site_label_2
_geom_bond_distance
_geom_bond_site_symmetry_2
C0 C3 1.444018 1_555
C0 Pr2 2.330133 1_555
C0 Pr4 2.487361 1_555
C0 Pr5 2.487364 1_555
C0 Pr6 2.487369 1_555
C1 C2 1.444018 1_555
C1 Pr3 2.330133 1_555
C1 Pr7 2.487361 1_555
C1 Pr8 2.487364 1_555
C1 Pr9 2.487369 1_555
C2 Pr0 2.317051 1_555
C2 Pr7 2.498406 1_555
C2 Pr8 2.498409 1_555
C2 Pr9 2.498414 1_555
C3 Pr1 2.317051 1_555
C3 Pr4 2.498406 1_555
C3 Pr5 2.498409 1_555
C3 Pr6 2.498414 1_555
Cl0 Pr3 2.847820 1_455
Cl0 Pr8 2.872813 1_455
Cl0 K0 3.022270 1_565
Cl0 Pr1 3.259867 1_554
Cl1 Pr3 2.847825 1_555
Cl1 Pr9 2.872813 1_555
Cl1 K0 3.022270 1_555
Cl1 Pr1 3.259874 1_554
Cl2 Pr3 2.847816 1_565
Cl2 Pr7 2.872813 1_565
Cl2 K0 3.022270 1_665
Cl2 Pr1 3.259870 1_554
Cl3 Pr2 2.847820 1_655
Cl3 Pr5 2.872813 1_655
Cl3 K1 3.022270 1_655
Cl3 Pr0 3.259867 1_555
Cl4 Pr2 2.847825 1_555
Cl4 Pr6 2.872813 1_555
Cl4 K1 3.022270 1_665
Cl4 Pr0 3.259874 1_555
Cl5 Pr2 2.847816 1_545
Cl5 Pr4 2.872813 1_545
Cl5 K1 3.022270 1_555
Cl5 Pr0 3.259870 1_555
Cl6 Pr5 2.860951 1_655
Cl6 Pr1 2.911800 1_655
Cl6 Pr3 3.225992 1_556
Cl6 K0 3.502231 1_656
Cl7 Pr6 2.860952 1_555
Cl7 Pr1 2.911810 1_555
Cl7 Pr3 3.225992 1_556
Cl7 K0 3.502235 1_666
Cl8 Pr4 2.860950 1_545
Cl8 Pr1 2.911793 1_545
Cl8 Pr3 3.225992 1_556
Cl8 K0 3.502238 1_556
Cl9 Pr8 2.860951 1_455
Cl9 Pr0 2.911800 1_455
Cl9 Pr2 3.225992 1_555
Cl9 K1 3.502231 1_565
Cl10 Pr9 2.860952 1_555
Cl10 Pr0 2.911810 1_555
Cl10 Pr2 3.225992 1_555
Cl10 K1 3.502235 1_555
Cl11 Pr7 2.860950 1_565
Cl11 Pr0 2.911793 1_565
Cl11 Pr2 3.225992 1_555
Cl11 K1 3.502238 1_665
Cl12 Pr4 2.926193 1_655
Cl12 Pr5 3.051310 1_655
Cl12 Pr6 3.117186 1_555
Cl12 K1 3.718375 1_665
Cl13 Pr5 2.926201 1_555
Cl13 Pr6 3.051315 1_555
Cl13 Pr4 3.117177 1_545
Cl13 K1 3.718373 1_555
Cl14 Pr6 2.926193 1_545
Cl14 Pr4 3.051318 1_545
Cl14 Pr5 3.117184 1_655
Cl14 K1 3.718370 1_655
Cl15 Pr7 2.926193 1_455
Cl15 Pr8 3.051310 1_455
Cl15 Pr9 3.117186 1_555
Cl15 K0 3.718375 1_555
Cl16 Pr8 2.926201 1_555
Cl16 Pr9 3.051315 1_555
Cl16 Pr7 3.117177 1_565
Cl16 K0 3.718373 1_665
Cl17 Pr9 2.926193 1_565
Cl17 Pr7 3.051318 1_565
Cl17 Pr8 3.117184 1_455
Cl17 K0 3.718370 1_565
Cl18 Pr5 2.955680 1_655
Cl18 Pr4 2.955682 1_545
Cl18 Pr6 2.955688 1_555
Cl19 Pr8 2.955680 1_455
Cl19 Pr7 2.955682 1_565
Cl19 Pr9 2.955688 1_555
