# generated using pymatgen
data_AlNiO3
_symmetry_space_group_name_H-M   'P 1'
_cell_length_a   4.56356300
_cell_length_b   4.88114805
_cell_length_c   8.00440309
_cell_angle_alpha   89.98369008
_cell_angle_beta   90.00054052
_cell_angle_gamma   90.00336501
_symmetry_Int_Tables_number   1
_chemical_formula_structural   AlNiO3
_chemical_formula_sum   'Al4 Ni4 O12'
_cell_volume   178.30148622
_cell_formula_units_Z   4
loop_
 _symmetry_equiv_pos_site_id
 _symmetry_equiv_pos_as_xyz
  1  'x, y, z'
loop_
 _atom_site_type_symbol
 _atom_site_label
 _atom_site_symmetry_multiplicity
 _atom_site_fract_x
 _atom_site_fract_y
 _atom_site_fract_z
 _atom_site_occupancy
  Al  Al0  1  0.03195300  0.93292100  0.75011000  1
  Al  Al1  1  0.53195200  0.56710000  0.24995000  1
  Al  Al2  1  0.46801900  0.43289000  0.75005100  1
  Al  Al3  1  0.96802900  0.06708500  0.24988600  1
  Ni  Ni0  1  0.00008400  0.49984000  0.50005000  1
  Ni  Ni1  1  0.50009200  0.00001800  0.49997200  1
  Ni  Ni2  1  0.49999500  0.00007300  0.99999700  1
  Ni  Ni3  1  0.00004800  0.50007100  0.99998300  1
  O  O0  1  0.70341000  0.29166300  0.40320700  1
  O  O1  1  0.20347700  0.20828400  0.59690500  1
  O  O2  1  0.79661200  0.79166700  0.09679200  1
  O  O3  1  0.29653600  0.70830900  0.90308400  1
  O  O4  1  0.29656200  0.70829600  0.59679700  1
  O  O5  1  0.79648400  0.79174400  0.40309200  1
  O  O6  1  0.20335400  0.20835000  0.90321000  1
  O  O7  1  0.70341900  0.29169600  0.09691200  1
  O  O8  1  0.17179700  0.40369900  0.25007200  1
  O  O9  1  0.67177100  0.09629700  0.75026900  1
  O  O10  1  0.32821900  0.90369900  0.24973100  1
  O  O11  1  0.82818800  0.59629900  0.74992800  1
loop_
_geom_bond_atom_site_label_1
_geom_bond_atom_site_label_2
_geom_bond_distance
_geom_bond_site_symmetry_2
Al0 O9 1.826991 1_465
Al0 O11 1.887938 1_455
Al0 O6 1.980368 1_565
Al0 O1 1.980426 1_565
Al0 O3 2.039267 1_555
Al0 O4 2.041390 1_555
Al1 O8 1.826849 1_555
Al1 O10 1.887863 1_555
Al1 O7 1.980168 1_555
Al1 O0 1.980863 1_555
Al1 O2 2.040179 1_555
Al1 O5 2.040319 1_555
Al2 O11 1.826923 1_555
Al2 O9 1.887880 1_555
Al2 O3 1.980222 1_555
Al2 O4 1.980744 1_555
Al2 O6 2.040126 1_555
Al2 O1 2.040266 1_555
Al3 O10 1.827045 1_645
Al3 O8 1.887911 1_655
Al3 O2 1.980330 1_545
Al3 O5 1.980396 1_545
Al3 O7 2.039337 1_555
Al3 O0 2.041332 1_555
Ni0 O4 1.861687 1_555
Ni0 O0 1.861913 1_455
Ni0 O1 1.867457 1_555
Ni0 O5 1.869563 1_455
Ni0 O11 2.199582 1_455
Ni0 O8 2.199681 1_555
Ni1 O5 1.861457 1_545
Ni1 O1 1.862352 1_555
Ni1 O0 1.867243 1_555
Ni1 O4 1.868209 1_545
Ni1 O10 2.202008 1_545
Ni1 O9 2.202059 1_555
Ni2 O6 1.861730 1_555
Ni2 O2 1.862021 1_546
Ni2 O7 1.868229 1_556
Ni2 O3 1.868826 1_545
Ni2 O9 2.197787 1_555
Ni2 O10 2.197987 1_546
Ni3 O3 1.861415 1_555
Ni3 O7 1.862348 1_456
Ni3 O2 1.867894 1_456
Ni3 O6 1.867944 1_555
Ni3 O11 2.200314 1_455
Ni3 O8 2.200531 1_556
