# generated using pymatgen
data_Li7Mn4CoO12
_symmetry_space_group_name_H-M   'P 1'
_cell_length_a   5.09007751
_cell_length_b   14.94886440
_cell_length_c   5.95889836
_cell_angle_alpha   94.71251940
_cell_angle_beta   105.35048118
_cell_angle_gamma   96.67170547
_symmetry_Int_Tables_number   1
_chemical_formula_structural   Li7Mn4CoO12
_chemical_formula_sum   'Li14 Mn8 Co2 O24'
_cell_volume   431.25273764
_cell_formula_units_Z   2
loop_
 _symmetry_equiv_pos_site_id
 _symmetry_equiv_pos_as_xyz
  1  'x, y, z'
loop_
 _atom_site_type_symbol
 _atom_site_label
 _atom_site_symmetry_multiplicity
 _atom_site_fract_x
 _atom_site_fract_y
 _atom_site_fract_z
 _atom_site_occupancy
  Li  Li0  1  0.91672600  0.41665300  0.83327400  1
  Li  Li1  1  0.41662100  0.91669700  0.83328500  1
  Li  Li2  1  0.91670700  0.41664100  0.33334900  1
  Li  Li3  1  0.41665500  0.91669600  0.33329900  1
  Li  Li4  1  0.16664900  0.16667200  0.83336000  1
  Li  Li5  1  0.66666000  0.66667700  0.83335200  1
  Li  Li6  1  0.59423200  0.09075300  0.17719800  1
  Li  Li7  1  0.09419000  0.59075400  0.17718300  1
  Li  Li8  1  0.73913400  0.24258500  0.48949100  1
  Li  Li9  1  0.23911100  0.74259100  0.48948300  1
  Li  Li10  1  0.57594200  0.08847600  0.67073800  1
  Li  Li11  1  0.07591500  0.58846200  0.67074100  1
  Li  Li12  1  0.75742200  0.24483800  0.99593000  1
  Li  Li13  1  0.25736700  0.74485400  0.99590200  1
  Mn  Mn0  1  0.00604100  0.00363800  0.00425600  1
  Mn  Mn1  1  0.50582900  0.50350300  0.00415000  1
  Mn  Mn2  1  0.32736400  0.32967300  0.66239900  1
  Mn  Mn3  1  0.82751800  0.82981900  0.66254700  1
  Mn  Mn4  1  0.00219100  0.00331700  0.50407400  1
  Mn  Mn5  1  0.50206700  0.50324100  0.50403700  1
  Mn  Mn6  1  0.33125100  0.33001200  0.16263900  1
  Mn  Mn7  1  0.83122800  0.83009600  0.16273600  1
  Co  Co0  1  0.66664700  0.66668300  0.33331700  1
  Co  Co1  1  0.16665100  0.16666800  0.33330900  1
  O  O0  1  0.25624500  0.03369400  0.81056800  1
  O  O1  1  0.75617500  0.53361600  0.81057200  1
  O  O2  1  0.07709300  0.29963000  0.85612600  1
  O  O3  1  0.57700300  0.79971600  0.85610300  1
  O  O4  1  0.27846300  0.04681700  0.35525300  1
  O  O5  1  0.77850000  0.54683400  0.35528600  1
  O  O6  1  0.05491600  0.28653200  0.31142500  1
  O  O7  1  0.55476600  0.78652400  0.31139500  1
  O  O8  1  0.43800200  0.21328700  0.17507100  1
  O  O9  1  0.93791600  0.71335100  0.17510900  1
  O  O10  1  0.89534100  0.12004000  0.49163200  1
  O  O11  1  0.39534100  0.62000900  0.49156700  1
  O  O12  1  0.43400900  0.21224700  0.64269900  1
  O  O13  1  0.93375300  0.71234000  0.64250100  1
  O  O14  1  0.89934500  0.12103900  0.02396900  1
  O  O15  1  0.39952300  0.62099200  0.02414500  1
  O  O16  1  0.59123200  0.37618900  0.48178500  1
  O  O17  1  0.09115800  0.87626000  0.48178300  1
  O  O18  1  0.24222400  0.45709500  0.18485300  1
  O  O19  1  0.74218900  0.95717500  0.18485900  1
  O  O20  1  0.60955300  0.37895400  0.01762500  1
  O  O21  1  0.10948000  0.87903300  0.01760700  1
  O  O22  1  0.22383400  0.45426200  0.64901700  1
  O  O23  1  0.72381900  0.95436300  0.64900100  1
loop_
_geom_bond_atom_site_label_1
_geom_bond_atom_site_label_2
_geom_bond_distance
_geom_bond_site_symmetry_2
Li0 O1 2.013857 1_555
Li0 O2 2.014253 1_655
Li0 O22 2.184297 1_655
Li0 O20 2.185258 1_556
Li0 O16 2.284609 1_555
Li0 O18 2.284961 1_656
Li1 O3 2.013706 1_555
Li1 O0 2.013892 1_565
Li1 O21 2.184888 1_556
Li1 O23 2.184971 1_555
Li1 O17 2.284550 1_555
Li1 O19 2.285158 1_556
Li2 O22 2.088892 1_655
Li2 O20 2.089292 1_555
Li2 O16 2.126878 1_555
Li2 O18 2.127299 1_655
Li2 O6 2.149365 1_655
Li2 O5 2.150544 1_555
Li3 O21 2.089174 1_555
Li3 O23 2.089195 1_555
Li3 O17 2.127104 1_555
Li3 O19 2.127243 1_555
Li3 O4 2.149507 1_565
Li3 O7 2.150016 1_555
Li4 O14 2.082428 1_456
Li4 O12 2.082619 1_555
Li4 O2 2.091794 1_555
Li4 O0 2.092161 1_555
Li4 O8 2.143290 1_556
Li4 O10 2.143329 1_455
Li5 O13 2.082820 1_555
Li5 O15 2.082830 1_556
Li5 O3 2.093142 1_555
Li5 O1 2.093219 1_555
Li5 O9 2.143473 1_556
Li5 O11 2.143697 1_555
Li6 O14 2.026319 1_555
Li6 O10 2.059198 1_555
Li6 O8 2.079609 1_555
Li6 O19 2.214236 1_545
Li6 O4 2.216439 1_555
Li6 O0 2.413114 1_554
Li7 O15 2.026395 1_555
Li7 O11 2.059068 1_555
Li7 O9 2.080596 1_455
Li7 O18 2.215550 1_555
Li7 O5 2.216249 1_455
Li7 O1 2.413329 1_454
Li8 O12 2.026421 1_555
Li8 O8 2.059204 1_555
Li8 O10 2.079702 1_555
Li8 O16 2.214481 1_555
Li8 O6 2.216580 1_655
Li8 O2 2.413031 1_655
Li9 O13 2.026458 1_455
Li9 O9 2.059123 1_455
Li9 O11 2.080279 1_555
Li9 O17 2.215511 1_555
Li9 O7 2.216090 1_555
Li9 O3 2.413058 1_555
Li10 O12 2.066569 1_555
Li10 O4 2.072726 1_555
Li10 O0 2.129159 1_555
Li10 O10 2.197268 1_555
Li10 O23 2.227624 1_545
Li10 O14 2.277759 1_556
Li11 O13 2.068655 1_455
Li11 O5 2.072389 1_455
Li11 O1 2.129657 1_455
Li11 O11 2.197625 1_555
Li11 O22 2.228932 1_555
Li11 O15 2.278943 1_556
Li12 O14 2.066942 1_556
Li12 O6 2.072875 1_656
Li12 O2 2.129002 1_655
Li12 O8 2.197472 1_556
Li12 O20 2.227629 1_556
Li12 O12 2.277804 1_555
Li13 O15 2.068417 1_556
Li13 O7 2.072596 1_556
Li13 O3 2.129180 1_555
Li13 O9 2.197759 1_456
Li13 O21 2.228555 1_556
Li13 O13 2.278931 1_455
Mn0 O14 1.900049 1_455
Mn0 O0 1.971396 1_554
Mn0 O21 1.995812 1_545
Mn0 O19 2.028707 1_445
Mn0 O4 2.179153 1_555
Mn0 O23 2.230570 1_444
Mn1 O15 1.900593 1_555
Mn1 O1 1.971620 1_554
Mn1 O20 1.995562 1_555
Mn1 O18 2.027932 1_555
Mn1 O5 2.180556 1_555
Mn1 O22 2.229524 1_554
Mn2 O12 1.900293 1_555
Mn2 O2 1.971802 1_555
Mn2 O22 1.995757 1_555
Mn2 O16 2.029062 1_555
Mn2 O6 2.179013 1_555
Mn2 O20 2.230396 1_556
Mn3 O13 1.900322 1_555
Mn3 O3 1.972154 1_555
Mn3 O23 1.995463 1_555
Mn3 O17 2.028487 1_655
Mn3 O7 2.180695 1_555
Mn3 O21 2.229066 1_656
Mn4 O10 1.888467 1_455
Mn4 O0 1.921177 1_555
Mn4 O4 1.931151 1_555
Mn4 O23 1.949316 1_445
Mn4 O17 2.005125 1_545
Mn4 O19 2.021133 1_445
Mn5 O11 1.888877 1_555
Mn5 O1 1.921467 1_555
Mn5 O5 1.931936 1_555
Mn5 O22 1.949082 1_555
Mn5 O16 2.005398 1_555
Mn5 O18 2.020712 1_555
Mn6 O8 1.888299 1_555
Mn6 O2 1.921477 1_554
Mn6 O6 1.931183 1_555
Mn6 O20 1.949317 1_555
Mn6 O18 2.005587 1_555
Mn6 O16 2.020888 1_555
Mn7 O9 1.888449 1_555
Mn7 O3 1.922147 1_554
Mn7 O7 1.931592 1_555
Mn7 O21 1.949546 1_655
Mn7 O19 2.005525 1_555
Mn7 O17 2.020320 1_655
Co0 O7 1.946003 1_555
Co0 O5 1.946081 1_555
Co0 O9 1.963529 1_555
Co0 O11 1.963880 1_555
Co0 O13 1.990049 1_555
Co0 O15 1.990130 1_555
Co1 O4 1.946021 1_555
Co1 O6 1.946034 1_555
Co1 O8 1.963754 1_555
Co1 O10 1.963983 1_455
Co1 O14 1.991043 1_455
Co1 O12 1.991222 1_555
