# generated using pymatgen
data_GaAgO2
_symmetry_space_group_name_H-M   'P 1'
_cell_length_a   2.99061624
_cell_length_b   2.99061716
_cell_length_c   12.42136296
_cell_angle_alpha   90.00000000
_cell_angle_beta   90.00000000
_cell_angle_gamma   120.00001196
_symmetry_Int_Tables_number   1
_chemical_formula_structural   GaAgO2
_chemical_formula_sum   'Ga2 Ag2 O4'
_cell_volume   96.21024924
_cell_formula_units_Z   2
loop_
 _symmetry_equiv_pos_site_id
 _symmetry_equiv_pos_as_xyz
  1  'x, y, z'
loop_
 _atom_site_type_symbol
 _atom_site_label
 _atom_site_symmetry_multiplicity
 _atom_site_fract_x
 _atom_site_fract_y
 _atom_site_fract_z
 _atom_site_occupancy
  Ga  Ga0  1  -0.00000000  -0.00000000  -0.00000000  1
  Ga  Ga1  1  -0.00000000  -0.00000000  0.50000000  1
  Ag  Ag0  1  0.66666700  0.33333300  0.75000000  1
  Ag  Ag1  1  0.33333300  0.66666700  0.25000000  1
  O  O0  1  0.33333300  0.66666700  0.41899011  1
  O  O1  1  0.66666700  0.33333300  0.91899011  1
  O  O2  1  0.33333300  0.66666700  0.08100989  1
  O  O3  1  0.66666700  0.33333300  0.58100989  1
loop_
_geom_bond_atom_site_label_1
_geom_bond_atom_site_label_2
_geom_bond_distance
_geom_bond_site_symmetry_2
Ga0 O2 1.998450 1_545
Ga0 O1 1.998450 1_454
Ga0 O2 1.998452 1_445
Ga0 O1 1.998452 1_554
Ga0 O2 1.998452 1_555
Ga0 O1 1.998452 1_444
Ga1 O0 1.998450 1_545
Ga1 O3 1.998450 1_455
Ga1 O0 1.998452 1_445
Ga1 O3 1.998452 1_555
Ga1 O0 1.998452 1_555
Ga1 O3 1.998452 1_445
Ag0 O3 2.099087 1_555
Ag0 O1 2.099087 1_555
Ag1 O2 2.099087 1_555
Ag1 O0 2.099087 1_555
