# generated using pymatgen
data_LiAg2(NO2)3
_symmetry_space_group_name_H-M   'P 1'
_cell_length_a   6.45338007
_cell_length_b   6.45338007
_cell_length_c   8.70252218
_cell_angle_alpha   89.45264339
_cell_angle_beta   89.45264339
_cell_angle_gamma   72.31636426
_symmetry_Int_Tables_number   1
_chemical_formula_structural   LiAg2(NO2)3
_chemical_formula_sum   'Li2 Ag4 N6 O12'
_cell_volume   345.27679898
_cell_formula_units_Z   2
loop_
 _symmetry_equiv_pos_site_id
 _symmetry_equiv_pos_as_xyz
  1  'x, y, z'
loop_
 _atom_site_type_symbol
 _atom_site_label
 _atom_site_symmetry_multiplicity
 _atom_site_fract_x
 _atom_site_fract_y
 _atom_site_fract_z
 _atom_site_occupancy
  Li  Li0  1  0.99965800  0.48571900  0.99825800  1
  Li  Li1  1  0.48571900  0.99965800  0.49825800  1
  Ag  Ag0  1  0.88932400  0.33220800  0.55587500  1
  Ag  Ag1  1  0.67079400  0.07437000  0.93664700  1
  Ag  Ag2  1  0.07437000  0.67079400  0.43664700  1
  Ag  Ag3  1  0.33220800  0.88932400  0.05587500  1
  N  N0  1  0.83479000  0.83474200  0.74731200  1
  N  N1  1  0.15327800  0.16099700  0.75040100  1
  N  N2  1  0.16099700  0.15327800  0.25040100  1
  N  N3  1  0.83474200  0.83479000  0.24731200  1
  N  N4  1  0.52903700  0.42345700  0.98518400  1
  N  N5  1  0.42345700  0.52903700  0.48518400  1
  O  O0  1  0.80778600  0.89841600  0.60781900  1
  O  O1  1  0.10046900  0.17955200  0.89252900  1
  O  O2  1  0.17955200  0.10046900  0.39252900  1
  O  O3  1  0.89841600  0.80778600  0.10781900  1
  O  O4  1  0.96867100  0.65194000  0.77194200  1
  O  O5  1  0.33428400  0.02795400  0.71910800  1
  O  O6  1  0.02795400  0.33428400  0.21910800  1
  O  O7  1  0.65194000  0.96867100  0.27194200  1
  O  O8  1  0.51760900  0.32892600  0.50741700  1
  O  O9  1  0.32892600  0.51760900  0.00741700  1
  O  O10  1  0.54147500  0.65154600  0.49890600  1
  O  O11  1  0.65154600  0.54147500  0.99890600  1
loop_
_geom_bond_atom_site_label_1
_geom_bond_atom_site_label_2
_geom_bond_distance
_geom_bond_site_symmetry_2
Li0 O1 2.101443 1_655
Li0 O6 2.131830 1_656
Li0 O11 2.164481 1_555
Li0 O9 2.198429 1_656
Li0 O3 2.203807 1_556
Li0 O4 2.215062 1_555
Li1 O2 2.101443 1_565
Li1 O5 2.131830 1_565
Li1 O10 2.164481 1_555
Li1 O8 2.198429 1_565
Li1 O0 2.203807 1_555
Li1 O7 2.215062 1_555
Ag0 N1 2.421590 1_655
Ag0 O8 2.446013 1_555
Ag0 O2 2.460340 1_655
Ag0 O10 2.592902 1_555
Ag1 N4 2.202075 1_555
Ag1 N0 2.290725 1_545
Ag1 O3 2.407071 1_546
Ag2 N5 2.202075 1_555
Ag2 N3 2.290725 1_455
Ag2 O0 2.407071 1_455
Ag3 N2 2.421590 1_565
Ag3 O9 2.446013 1_555
Ag3 O1 2.460340 1_564
Ag3 O11 2.592902 1_554
N0 O4 1.250433 1_555
N0 O0 1.274315 1_555
N1 O5 1.250951 1_555
N1 O1 1.276839 1_555
N2 O6 1.250951 1_555
N2 O2 1.276839 1_555
N3 O7 1.250433 1_555
N3 O3 1.274315 1_555
N4 O11 1.260441 1_555
N4 O9 1.262968 1_556
N5 O10 1.260441 1_555
N5 O8 1.262968 1_555
