# generated using pymatgen
data_LaYC3
_symmetry_space_group_name_H-M   'P 1'
_cell_length_a   7.40105483
_cell_length_b   7.40105483
_cell_length_c   7.40105483
_cell_angle_alpha   109.47122063
_cell_angle_beta   109.47122063
_cell_angle_gamma   109.47122063
_symmetry_Int_Tables_number   1
_chemical_formula_structural   LaYC3
_chemical_formula_sum   'La4 Y4 C12'
_cell_volume   312.07499677
_cell_formula_units_Z   4
loop_
 _symmetry_equiv_pos_site_id
 _symmetry_equiv_pos_as_xyz
  1  'x, y, z'
loop_
 _atom_site_type_symbol
 _atom_site_label
 _atom_site_symmetry_multiplicity
 _atom_site_fract_x
 _atom_site_fract_y
 _atom_site_fract_z
 _atom_site_occupancy
  La  La0  1  0.89293800  0.89293800  0.89293800  1
  La  La1  1  0.60706200  0.50000000  0.00000000  1
  La  La2  1  0.00000000  0.60706200  0.50000000  1
  La  La3  1  0.50000000  0.00000000  0.60706200  1
  Y  Y0  1  0.10081700  0.50000000  0.00000000  1
  Y  Y1  1  0.39918300  0.39918300  0.39918300  1
  Y  Y2  1  0.00000000  0.10081700  0.50000000  1
  Y  Y3  1  0.50000000  0.00000000  0.10081700  1
  C  C0  1  0.75000000  0.44554700  0.69554700  1
  C  C1  1  0.25000000  0.05445300  0.80445300  1
  C  C2  1  0.25000000  0.21079200  0.96079200  1
  C  C3  1  0.75000000  0.28920800  0.53920800  1
  C  C4  1  0.05445300  0.80445300  0.25000000  1
  C  C5  1  0.44554700  0.69554700  0.75000000  1
  C  C6  1  0.28920800  0.53920800  0.75000000  1
  C  C7  1  0.21079200  0.96079200  0.25000000  1
  C  C8  1  0.69554700  0.75000000  0.44554700  1
  C  C9  1  0.80445300  0.25000000  0.05445300  1
  C  C10  1  0.96079200  0.25000000  0.21079200  1
  C  C11  1  0.53920800  0.75000000  0.28920800  1
loop_
_geom_bond_atom_site_label_1
_geom_bond_atom_site_label_2
_geom_bond_distance
_geom_bond_site_symmetry_2
C0 C3 1.336073 1_555
C0 Y0 2.603414 1_656
C0 Y1 2.603414 1_555
C0 La0 2.761661 1_555
C0 La1 2.761661 1_556
C0 La3 2.900171 1_555
C0 La2 2.900171 1_655
C1 C2 1.336073 1_555
C1 Y3 2.603414 1_556
C1 Y2 2.603414 1_555
C1 La2 2.761661 1_545
C1 La3 2.761661 1_555
C1 La0 2.900171 1_445
C1 La1 2.900171 1_556
C2 La0 2.636851 1_445
C2 La1 2.636851 1_556
C2 Y1 2.694404 1_556
C2 Y0 2.694404 1_556
C3 La3 2.636851 1_555
C3 La2 2.636851 1_655
C3 Y2 2.694404 1_655
C3 Y3 2.694404 1_555
C4 C7 1.336073 1_555
C4 Y2 2.603414 1_565
C4 Y0 2.603414 1_555
C4 La1 2.761661 1_455
C4 La2 2.761661 1_555
C4 La0 2.900171 1_454
C4 La3 2.900171 1_565
C5 C6 1.336073 1_555
C5 Y3 2.603414 1_566
C5 Y1 2.603414 1_555
C5 La0 2.761661 1_555
C5 La3 2.761661 1_565
C5 La2 2.900171 1_555
C5 La1 2.900171 1_556
C6 La2 2.636851 1_555
C6 La1 2.636851 1_556
C6 Y0 2.694404 1_556
C6 Y2 2.694404 1_555
C7 La0 2.636851 1_454
C7 La3 2.636851 1_565
C7 Y1 2.694404 1_565
C7 Y3 2.694404 1_565
C8 Y2 2.603414 1_665
C8 Y1 2.603414 1_555
C8 La2 2.761661 1_655
C8 La0 2.761661 1_555
C8 La3 2.900171 1_565
C8 La1 2.900171 1_555
C9 Y0 2.603414 1_655
C9 Y3 2.603414 1_555
C9 La3 2.761661 1_554
C9 La1 2.761661 1_555
C9 La0 2.900171 1_544
C9 La2 2.900171 1_655
C10 C9 1.336073 1_555
C10 La0 2.636851 1_544
C10 La2 2.636851 1_655
C10 Y1 2.694404 1_655
C10 Y2 2.694404 1_655
C11 C8 1.336073 1_555
C11 La1 2.636851 1_555
C11 La3 2.636851 1_565
C11 Y3 2.694404 1_565
C11 Y0 2.694404 1_555
