# generated using pymatgen
data_HfNF5
_symmetry_space_group_name_H-M   'P 1'
_cell_length_a   8.35537900
_cell_length_b   7.81397000
_cell_length_c   8.33206868
_cell_angle_alpha   63.14054474
_cell_angle_beta   90.00000000
_cell_angle_gamma   90.00000000
_symmetry_Int_Tables_number   1
_chemical_formula_structural   HfNF5
_chemical_formula_sum   'Hf4 N4 F20'
_cell_volume   485.30277784
_cell_formula_units_Z   4
loop_
 _symmetry_equiv_pos_site_id
 _symmetry_equiv_pos_as_xyz
  1  'x, y, z'
loop_
 _atom_site_type_symbol
 _atom_site_label
 _atom_site_symmetry_multiplicity
 _atom_site_fract_x
 _atom_site_fract_y
 _atom_site_fract_z
 _atom_site_occupancy
  Hf  Hf0  1  0.25030400  0.00148500  0.75207600  1
  Hf  Hf1  1  0.74969600  0.99851500  0.24792400  1
  Hf  Hf2  1  0.75030400  0.99851500  0.74792400  1
  Hf  Hf3  1  0.24969600  0.00148500  0.25207600  1
  N  N0  1  0.02405300  0.50452100  0.75082100  1
  N  N1  1  0.97594700  0.49547900  0.24917900  1
  N  N2  1  0.52405300  0.49547900  0.74917900  1
  N  N3  1  0.47594700  0.50452100  0.25082100  1
  F  F0  1  0.27518800  0.27454000  0.62248600  1
  F  F1  1  0.72481200  0.72546000  0.37751400  1
  F  F2  1  0.77518800  0.72546000  0.87751400  1
  F  F3  1  0.22481200  0.27454000  0.12248600  1
  F  F4  1  0.00661900  0.99832800  0.75325100  1
  F  F5  1  0.99338100  0.00167200  0.24674900  1
  F  F6  1  0.50661900  0.00167200  0.74674900  1
  F  F7  1  0.49338100  0.99832800  0.25325100  1
  F  F8  1  0.25191500  0.00137500  0.49881600  1
  F  F9  1  0.74808500  0.99862500  0.50118400  1
  F  F10  1  0.75191500  0.99862500  0.00118400  1
  F  F11  1  0.24808500  0.00137500  0.99881600  1
  F  F12  1  0.99892000  0.68931700  0.63181400  1
  F  F13  1  0.00108000  0.31068300  0.36818600  1
  F  F14  1  0.49892000  0.31068300  0.86818600  1
  F  F15  1  0.50108000  0.68931700  0.13181400  1
  F  F16  1  0.27771500  0.72855500  0.85374600  1
  F  F17  1  0.72228500  0.27144500  0.14625400  1
  F  F18  1  0.77771500  0.27144500  0.64625400  1
  F  F19  1  0.22228500  0.72855500  0.35374600  1
loop_
_geom_bond_atom_site_label_1
_geom_bond_atom_site_label_2
_geom_bond_distance
_geom_bond_site_symmetry_2
F0 Hf0 1.918279 1_555
F1 Hf1 1.918279 1_555
F2 Hf2 1.918279 1_555
F3 Hf3 1.918279 1_555
F4 Hf0 2.036200 1_565
F4 Hf2 2.142056 1_455
F5 Hf1 2.036200 1_545
F5 Hf3 2.142056 1_655
F6 Hf2 2.036200 1_545
F6 Hf0 2.142056 1_555
F7 Hf3 2.036200 1_565
F7 Hf1 2.142056 1_555
F8 Hf3 2.055550 1_555
F8 Hf0 2.110611 1_555
F9 Hf2 2.055550 1_555
F9 Hf1 2.110611 1_555
F10 Hf1 2.055550 1_555
F10 Hf2 2.110611 1_554
F11 Hf0 2.055550 1_555
F11 Hf3 2.110611 1_556
F12 N0 1.348562 1_655
F13 N1 1.348562 1_455
F14 N2 1.348562 1_555
F15 N3 1.348562 1_555
F16 Hf0 1.919858 1_565
F17 Hf1 1.919858 1_545
F18 Hf2 1.919858 1_545
F19 Hf3 1.919858 1_565
