# generated using pymatgen
data_Ba4MgMn4(P2O7)4
_symmetry_space_group_name_H-M   'P 1'
_cell_length_a   5.74158054
_cell_length_b   8.75333689
_cell_length_c   13.28988104
_cell_angle_alpha   91.52520228
_cell_angle_beta   89.17568977
_cell_angle_gamma   90.22809427
_symmetry_Int_Tables_number   1
_chemical_formula_structural   Ba4MgMn4(P2O7)4
_chemical_formula_sum   'Ba4 Mg1 Mn4 P8 O28'
_cell_volume   667.61263145
_cell_formula_units_Z   1
loop_
 _symmetry_equiv_pos_site_id
 _symmetry_equiv_pos_as_xyz
  1  'x, y, z'
loop_
 _atom_site_type_symbol
 _atom_site_label
 _atom_site_symmetry_multiplicity
 _atom_site_fract_x
 _atom_site_fract_y
 _atom_site_fract_z
 _atom_site_occupancy
  Ba  Ba0  1  0.77343688  0.35264157  0.21419552  1
  Ba  Ba1  1  0.70843090  0.86242577  0.27801789  1
  Ba  Ba2  1  0.23084910  0.64289039  0.78510397  1
  Ba  Ba3  1  0.28903799  0.14148306  0.72481247  1
  Mg  Mg0  1  0.25765174  0.44667943  0.53455631  1
  Mn  Mn0  1  0.68105271  0.82764315  0.60831892  1
  Mn  Mn1  1  0.31474508  0.17072211  0.39999508  1
  Mn  Mn2  1  0.80694059  0.34136317  0.89166658  1
  Mn  Mn3  1  0.18232315  0.66543818  0.10207508  1
  P  P0  1  0.30052480  0.30435854  0.02084710  1
  P  P1  1  0.18609492  0.81566055  0.47686293  1
  P  P2  1  0.69973148  0.70055833  0.98103244  1
  P  P3  1  0.79553731  0.18099000  0.52380637  1
  P  P4  1  0.23701984  0.55659157  0.32083713  1
  P  P5  1  0.75496892  0.94719099  0.83211341  1
  P  P6  1  0.77004797  0.44197342  0.67927292  1
  P  P7  1  0.24515381  0.05352649  0.16841011  1
  O  O0  1  0.23698185  0.63793029  0.43393765  1
  O  O1  1  0.26182194  0.13009929  0.05871677  1
  O  O2  1  0.77137791  0.35805269  0.56814616  1
  O  O3  1  0.73921977  0.87424122  0.94303215  1
  O  O4  1  0.47840768  0.58160486  0.27509058  1
  O  O5  1  0.99854241  0.08111745  0.20971294  1
  O  O6  1  0.54891009  0.40654144  0.74058052  1
  O  O7  1  0.99742797  0.91458616  0.78807538  1
  O  O8  1  0.17313607  0.41265561  0.09696503  1
  O  O9  1  0.30543321  0.91734611  0.39940995  1
  O  O10  1  0.83379538  0.59255327  0.90763494  1
  O  O11  1  0.66675598  0.07767699  0.59783621  1
  O  O12  1  0.80949769  0.70319104  0.08603027  1
  O  O13  1  0.68733344  0.18336554  0.41858504  1
  O  O14  1  0.18521491  0.30393254  0.91745773  1
  O  O15  1  0.30487898  0.81651781  0.57958831  1
  O  O16  1  0.56331067  0.87084548  0.76641718  1
  O  O17  1  0.97708288  0.37778519  0.73806631  1
  O  O18  1  0.43097340  0.13040878  0.23677876  1
  O  O19  1  0.04359338  0.62978190  0.25998562  1
  O  O20  1  0.80550879  0.61099765  0.65652315  1
  O  O21  1  0.70127891  0.11663499  0.84856927  1
  O  O22  1  0.43561564  0.67082109  0.98079583  1
  O  O23  1  0.30535443  0.88477631  0.15061976  1
  O  O24  1  0.91972165  0.82665694  0.48048488  1
  O  O25  1  0.56539977  0.33195897  0.01950582  1
  O  O26  1  0.05820446  0.15081156  0.51969561  1
  O  O27  1  0.17595954  0.39068713  0.34616093  1
loop_
_geom_bond_atom_site_label_1
_geom_bond_atom_site_label_2
_geom_bond_distance
_geom_bond_site_symmetry_2
Ba0 O5 2.708803 1_555
Ba0 O4 2.728075 1_555
Ba0 O18 2.779225 1_555
Ba0 O8 2.810862 1_655
Ba0 O25 2.866433 1_555
Ba0 O19 2.929152 1_655
Ba0 O27 2.933837 1_655
Ba0 O13 3.160390 1_555
Ba1 O5 2.699384 1_565
Ba1 O4 2.785435 1_555
Ba1 O19 2.810609 1_655
Ba1 O9 2.836871 1_555
Ba1 O23 2.897383 1_555
Ba1 O18 2.909295 1_565
Ba1 O12 2.926456 1_555
Ba1 O24 2.991946 1_555
Ba1 O13 3.333692 1_565
Ba2 O7 2.733608 1_455
Ba2 O16 2.769352 1_555
Ba2 O17 2.796556 1_455
Ba2 O6 2.810509 1_555
Ba2 O10 2.822479 1_455
Ba2 O22 2.873604 1_555
Ba2 O20 3.008528 1_455
Ba2 O15 3.183210 1_555
Ba3 O7 2.734353 1_445
Ba3 O17 2.741999 1_455
Ba3 O6 2.758411 1_555
Ba3 O11 2.777952 1_555
Ba3 O21 2.913730 1_555
Ba3 O16 2.919272 1_545
Ba3 O14 2.949777 1_555
Ba3 O26 3.051367 1_555
Mg0 O0 2.174876 1_555
Mg0 O27 2.587591 1_555
Mn0 O20 2.146131 1_555
Mn0 O24 2.167137 1_555
Mn0 O11 2.198691 1_565
Mn0 O15 2.200051 1_555
Mn0 O16 2.221157 1_555
Mn1 O13 2.159057 1_555
Mn1 O26 2.162385 1_555
Mn1 O9 2.218126 1_545
Mn1 O27 2.226221 1_555
Mn1 O18 2.279132 1_555
Mn2 O21 2.122777 1_555
Mn2 O25 2.180665 1_556
Mn2 O10 2.208330 1_555
Mn2 O14 2.230474 1_655
Mn2 O17 2.279860 1_555
Mn2 O6 2.589475 1_555
Mn3 O23 2.130203 1_555
Mn3 O22 2.156645 1_554
Mn3 O12 2.181603 1_455
Mn3 O8 2.212368 1_555
Mn3 O19 2.262926 1_555
O0 P4 1.645975 1_555
O0 P1 1.668138 1_555
O1 P7 1.622073 1_555
O1 P0 1.632273 1_555
O2 P6 1.631798 1_555
O2 P3 1.649054 1_555
O3 P5 1.623177 1_555
O3 P2 1.628683 1_555
O4 P4 1.522773 1_555
O5 P7 1.528992 1_655
O6 P6 1.533846 1_555
O7 P5 1.527334 1_555
O8 P0 1.545997 1_555
O9 P1 1.531309 1_555
O10 P2 1.540415 1_555
O11 P3 1.534147 1_555
O12 P2 1.538949 1_554
O13 P3 1.538996 1_555
O14 P0 1.533684 1_556
O15 P1 1.534662 1_555
O16 P5 1.552593 1_555
O17 P6 1.547464 1_555
O18 P7 1.551247 1_555
O19 P4 1.535225 1_555
O20 P6 1.530197 1_555
O21 P5 1.525507 1_545
O22 P2 1.537633 1_555
O23 P7 1.529836 1_565
O24 P1 1.532796 1_655
O25 P0 1.538846 1_555
O26 P3 1.532070 1_455
O27 P4 1.537426 1_555
