# generated using pymatgen
data_Sr6La14Ti3Mn17O60
_symmetry_space_group_name_H-M   'P 1'
_cell_length_a   5.54819225
_cell_length_b   5.55826390
_cell_length_c   55.66915613
_cell_angle_alpha   60.74957067
_cell_angle_beta   60.59692427
_cell_angle_gamma   60.96750560
_symmetry_Int_Tables_number   1
_chemical_formula_structural   Sr6La14Ti3Mn17O60
_chemical_formula_sum   'Sr6 La14 Ti3 Mn17 O60'
_cell_volume   1235.01843765
_cell_formula_units_Z   1
loop_
 _symmetry_equiv_pos_site_id
 _symmetry_equiv_pos_as_xyz
  1  'x, y, z'
loop_
 _atom_site_type_symbol
 _atom_site_label
 _atom_site_symmetry_multiplicity
 _atom_site_fract_x
 _atom_site_fract_y
 _atom_site_fract_z
 _atom_site_occupancy
  Sr  Sr0  1  0.25663665  0.25266972  0.02321899  1
  Sr  Sr1  1  0.24821608  0.25458520  0.12378070  1
  Sr  Sr2  1  0.24650049  0.24184611  0.62678945  1
  Sr  Sr3  1  0.24850429  0.25211086  0.72531339  1
  Sr  Sr4  1  0.25092146  0.25286270  0.82427901  1
  Sr  Sr5  1  0.25010393  0.25593477  0.92325635  1
  La  La0  1  0.25002495  0.25410094  0.22538919  1
  La  La1  1  0.75100927  0.74861427  0.07312360  1
  La  La2  1  0.24918027  0.25304072  0.32562513  1
  La  La3  1  0.75673384  0.76134173  0.17248323  1
  La  La4  1  0.24714439  0.24623151  0.42609469  1
  La  La5  1  0.74937742  0.74881070  0.27613525  1
  La  La6  1  0.24207775  0.24351598  0.52748871  1
  La  La7  1  0.74884028  0.75168129  0.37570606  1
  La  La8  1  0.74785707  0.74623050  0.47626342  1
  La  La9  1  0.74258484  0.73910097  0.57809610  1
  La  La10  1  0.74882798  0.74548783  0.67609488  1
  La  La11  1  0.75073234  0.75075146  0.77462847  1
  La  La12  1  0.74982096  0.75674047  0.87341371  1
  La  La13  1  0.75921412  0.75430557  0.97193945  1
  Ti  Ti0  1  0.00361250  0.99957382  0.99899997  1
  Ti  Ti1  1  0.00464949  0.00530158  0.09820092  1
  Ti  Ti2  1  0.00380246  0.99707263  0.20003415  1
  Mn  Mn0  1  0.50793503  0.49905757  0.04889242  1
  Mn  Mn1  1  0.49556606  0.50731407  0.14967760  1
  Mn  Mn2  1  0.99778311  0.00102895  0.40024297  1
  Mn  Mn3  1  0.50009460  0.50595020  0.24987612  1
  Mn  Mn4  1  0.99634643  0.99804440  0.50057933  1
  Mn  Mn5  1  0.49902964  0.50217681  0.35018153  1
  Mn  Mn6  1  0.99820215  0.00472184  0.29990061  1
  Mn  Mn7  1  0.49890221  0.49689697  0.45047024  1
  Mn  Mn8  1  0.50151951  0.49301869  0.55064274  1
  Mn  Mn9  1  0.00125551  0.00218750  0.79962859  1
  Mn  Mn10  1  0.49730821  0.49367351  0.65083749  1
  Mn  Mn11  1  0.99519473  0.99550698  0.60100823  1
  Mn  Mn12  1  0.99889024  0.00739213  0.89892538  1
  Mn  Mn13  1  0.50078698  0.50248149  0.75003288  1
  Mn  Mn14  1  0.99888377  0.99879720  0.70035170  1
  Mn  Mn15  1  0.49840840  0.50340264  0.84958143  1
  Mn  Mn16  1  0.50208728  0.50312363  0.94898843  1
  O  O0  1  0.17826391  0.32045299  0.07559160  1
  O  O1  1  0.33551988  0.73211916  0.01831067  1
  O  O2  1  0.22267827  0.82302886  0.07065533  1
  O  O3  1  0.77909781  0.15709014  0.03109091  1
  O  O4  1  0.18204417  0.30931896  0.17624488  1
  O  O5  1  0.68952506  0.26454828  0.08008630  1
  O  O6  1  0.29333683  0.77893695  0.11742871  1
  O  O7  1  0.80833191  0.69268037  0.02614700  1
  O  O8  1  0.25002077  0.79371217  0.17018497  1
  O  O9  1  0.73622716  0.20577814  0.13174325  1
  O  O10  1  0.18589124  0.32934426  0.27351932  1
  O  O11  1  0.69583308  0.22166298  0.18363765  1
  O  O12  1  0.33428093  0.74809726  0.21638748  1
  O  O13  1  0.79425636  0.71026030  0.12673780  1
  O  O14  1  0.23765825  0.83813197  0.26798480  1
  O  O15  1  0.77651560  0.15631145  0.23158981  1
  O  O16  1  0.18049592  0.32951794  0.37424217  1
  O  O17  1  0.67607910  0.25837882  0.28217316  1
  O  O18  1  0.32034322  0.75271085  0.31765409  1
  O  O19  1  0.82976088  0.67709950  0.22515332  1
  O  O20  1  0.24577426  0.83055990  0.36808231  1
  O  O21  1  0.75456184  0.17299630  0.33186253  1
  O  O22  1  0.18101433  0.32240733  0.47401476  1
  O  O23  1  0.67848310  0.25007849  0.38249353  1
  O  O24  1  0.31811171  0.75468307  0.41787973  1
  O  O25  1  0.81977314  0.67331960  0.32461626  1
  O  O26  1  0.24539114  0.82113311  0.46850456  1
  O  O27  1  0.75087078  0.17169675  0.43221289  1
  O  O28  1  0.18708906  0.31501456  0.57347802  1
  O  O29  1  0.67943843  0.24678747  0.48249000  1
  O  O30  1  0.31517200  0.75233947  0.51831231  1
  O  O31  1  0.81869281  0.67138376  0.42483127  1
  O  O32  1  0.25399226  0.80846560  0.56909549  1
  O  O33  1  0.74765343  0.17395214  0.53222395  1
  O  O34  1  0.18443310  0.30725493  0.67522577  1
  O  O35  1  0.70647061  0.24745311  0.57969882  1
  O  O36  1  0.30568882  0.74340915  0.61950794  1
  O  O37  1  0.81513821  0.67655739  0.52416246  1
  O  O38  1  0.24761988  0.79170659  0.67093476  1
  O  O39  1  0.74700847  0.18453512  0.63137262  1
  O  O40  1  0.19190470  0.31493362  0.77480418  1
  O  O41  1  0.70379983  0.24613252  0.67974613  1
  O  O42  1  0.31082943  0.75241846  0.71894985  1
  O  O43  1  0.79552256  0.69840014  0.62407444  1
  O  O44  1  0.25381028  0.79938194  0.77021291  1
  O  O45  1  0.75048920  0.19245526  0.73096923  1
  O  O46  1  0.18354842  0.31766938  0.87478888  1
  O  O47  1  0.70838024  0.25484728  0.77929946  1
  O  O48  1  0.31186039  0.74865309  0.81886510  1
  O  O49  1  0.79808458  0.70468132  0.72506279  1
  O  O50  1  0.24271992  0.79838800  0.87026360  1
  O  O51  1  0.75400016  0.19014163  0.83051655  1
  O  O52  1  0.19365224  0.30119725  0.97582635  1
  O  O53  1  0.69612680  0.25303302  0.87934097  1
  O  O54  1  0.29655296  0.76446102  0.91873538  1
  O  O55  1  0.79422709  0.70690474  0.82526601  1
  O  O56  1  0.25856401  0.78580143  0.97095531  1
  O  O57  1  0.73993258  0.19934631  0.93127274  1
  O  O58  1  0.72063908  0.22714812  0.98069114  1
  O  O59  1  0.79225111  0.70240434  0.92662330  1
loop_
_geom_bond_atom_site_label_1
_geom_bond_atom_site_label_2
_geom_bond_distance
_geom_bond_site_symmetry_2
La0 O14 2.368468 1_545
La0 O19 2.375651 1_455
La0 O11 2.425781 1_555
La0 O15 2.761983 1_455
La0 O15 2.865814 1_555
La1 O3 2.334079 1_565
La1 O0 2.413791 1_655
La1 O6 2.529980 1_555
La1 O7 2.630345 1_555
La1 O5 2.692138 1_555
La1 O2 2.771308 1_655
La1 O2 2.818781 1_555
La1 O5 2.915000 1_565
La1 O13 3.007147 1_555
La1 O1 3.178775 1_655
La1 O9 3.180370 1_555
La1 O0 3.227054 1_565
La2 O20 2.382496 1_545
La2 O25 2.395298 1_455
La2 O17 2.415466 1_555
La3 O9 2.400919 1_565
La3 O12 2.416491 1_555
La3 O4 2.478129 1_655
La3 O13 2.595734 1_555
La3 O6 3.049040 1_655
La4 O26 2.388544 1_545
La4 O31 2.406116 1_455
La4 O23 2.431964 1_555
La4 O22 2.724394 1_555
La4 O27 2.787713 1_555
La4 O24 2.798026 1_545
La4 O27 2.813791 1_455
La4 O24 2.826882 1_555
La4 O16 2.873927 1_555
La5 O18 2.367588 1_555
La5 O15 2.403687 1_565
La5 O10 2.414002 1_655
La5 O25 2.716968 1_555
La5 O14 2.769444 1_655
La5 O17 2.784873 1_555
La5 O17 2.824629 1_565
La5 O19 2.846548 1_555
La5 O14 2.861740 1_555
La6 O32 2.395460 1_545
La6 O37 2.428970 1_455
La6 O29 2.488665 1_555
La6 O28 2.629684 1_555
La6 O33 2.767837 1_555
La6 O30 2.814591 1_555
La6 O30 2.822001 1_545
La6 O33 2.822016 1_455
La6 O22 2.956201 1_555
La6 O35 2.966002 1_455
La6 O37 3.215762 1_545
La6 O26 3.284146 1_555
La7 O24 2.390354 1_555
La7 O16 2.406038 1_655
La7 O21 2.419201 1_565
La7 O31 2.740128 1_555
La7 O23 2.792454 1_565
La7 O20 2.795770 1_655
La7 O23 2.819632 1_555
La7 O20 2.820668 1_555
La7 O25 2.894619 1_555
La8 O30 2.392577 1_555
La8 O22 2.416291 1_655
La8 O27 2.436630 1_565
La8 O37 2.688389 1_555
La8 O26 2.783664 1_655
La8 O29 2.791632 1_565
La8 O29 2.814937 1_555
La8 O26 2.830489 1_555
La8 O31 2.902724 1_555
La9 O36 2.387792 1_555
La9 O28 2.455965 1_655
La9 O33 2.515464 1_565
La9 O43 2.607042 1_555
La9 O35 2.776900 1_565
La9 O35 2.791314 1_555
La9 O32 2.806891 1_555
La9 O32 2.815585 1_655
La9 O37 2.999165 1_555
La9 O39 3.059771 1_555
La9 O28 3.195262 1_565
La9 O30 3.283300 1_655
La10 O42 2.429984 1_555
La10 O34 2.462315 1_655
La10 O39 2.493408 1_565
La10 O49 2.761216 1_555
La10 O38 2.764838 1_655
La10 O41 2.770445 1_565
La10 O41 2.806996 1_555
La10 O38 2.810731 1_555
La10 O43 2.908654 1_555
La10 O45 3.099089 1_555
La10 O36 3.148568 1_655
La10 O34 3.173082 1_565
La11 O45 2.470506 1_565
La11 O40 2.470760 1_655
La11 O48 2.470883 1_555
La11 O47 2.754742 1_555
La11 O44 2.758953 1_555
La11 O49 2.767964 1_555
La11 O44 2.813859 1_655
La11 O47 2.826029 1_565
La11 O55 2.829061 1_555
La12 O51 2.425772 1_565
La12 O46 2.459814 1_655
La12 O54 2.542192 1_555
La12 O55 2.707873 1_555
La12 O50 2.768899 1_655
La12 O53 2.793287 1_565
La12 O50 2.795125 1_555
La12 O53 2.801140 1_555
La12 O59 2.943177 1_555
La12 O48 3.105911 1_655
La12 O46 3.175979 1_565
La12 O57 3.196175 1_555
La13 O57 2.400798 1_565
La13 O1 2.493359 1_556
La13 O52 2.507373 1_655
La13 O59 2.585873 1_555
La13 O56 2.723482 1_555
La13 O58 2.791684 1_565
La13 O58 2.824847 1_555
La13 O56 2.832243 1_655
La13 O54 2.998883 1_655
La13 O7 3.000796 1_556
La13 O52 3.138661 1_565
La13 O3 3.345670 1_556
Mn0 O1 1.932001 1_555
Mn0 O7 1.968848 1_555
Mn0 O5 1.990187 1_555
Mn0 O0 2.047257 1_555
Mn0 O3 2.111778 1_555
Mn0 O2 2.167552 1_555
Mn1 O9 1.934647 1_555
Mn1 O8 1.958896 1_555
Mn1 O13 1.994546 1_555
Mn1 O4 2.040990 1_555
Mn1 O6 2.108590 1_555
Mn1 O11 2.178638 1_555
Mn2 O27 1.984592 1_555
Mn2 O20 1.992467 1_645
Mn2 O23 2.008172 1_555
Mn2 O24 2.008736 1_645
Mn2 O31 2.049081 1_545
Mn2 O16 2.056562 1_655
Mn3 O10 1.969842 1_555
Mn3 O17 2.020233 1_555
Mn3 O19 2.020438 1_555
Mn3 O12 2.040469 1_555
Mn3 O14 2.076940 1_555
Mn3 O15 2.161619 1_555
Mn4 O33 1.987527 1_565
Mn4 O30 2.005240 1_655
Mn4 O29 2.008869 1_565
Mn4 O26 2.009714 1_655
Mn4 O37 2.020524 1_555
Mn4 O22 2.046154 1_665
Mn5 O16 1.975867 1_555
Mn5 O25 1.982519 1_555
Mn5 O23 2.032632 1_555
Mn5 O18 2.039463 1_555
Mn5 O20 2.052374 1_555
Mn5 O21 2.069720 1_555
Mn6 O14 1.968543 1_645
Mn6 O21 1.976231 1_555
Mn6 O17 2.020438 1_555
Mn6 O18 2.021111 1_645
Mn6 O25 2.054719 1_545
Mn6 O10 2.056525 1_655
Mn7 O22 1.979231 1_555
Mn7 O31 1.989126 1_555
Mn7 O29 2.023163 1_555
Mn7 O26 2.038488 1_555
Mn7 O27 2.049913 1_555
Mn7 O24 2.049940 1_555
Mn8 O28 1.976583 1_555
Mn8 O35 1.978485 1_555
Mn8 O37 1.994025 1_555
Mn8 O32 2.013269 1_555
Mn8 O33 2.028027 1_555
Mn8 O30 2.057014 1_555
Mn9 O47 1.982660 1_455
Mn9 O44 1.983295 1_545
Mn9 O51 1.994572 1_455
Mn9 O55 1.995246 1_445
Mn9 O40 2.012996 1_555
Mn9 O48 2.020535 1_545
Mn10 O41 1.977880 1_555
Mn10 O38 1.994219 1_555
Mn10 O34 1.996783 1_555
Mn10 O43 2.000574 1_555
Mn10 O39 2.020137 1_555
Mn10 O36 2.030101 1_555
Mn11 O39 1.975655 1_565
Mn11 O43 1.977334 1_555
Mn11 O36 1.995125 1_655
Mn11 O35 1.999875 1_565
Mn11 O32 2.037156 1_655
Mn11 O28 2.051676 1_665
Mn12 O50 1.972844 1_645
Mn12 O46 1.981922 1_655
Mn12 O54 1.983810 1_645
Mn12 O53 1.997985 1_555
Mn12 O59 2.040056 1_545
Mn12 O57 2.072344 1_555
Mn13 O40 1.983403 1_555
Mn13 O49 1.984273 1_555
Mn13 O44 1.992085 1_555
Mn13 O47 1.996959 1_555
Mn13 O45 2.010321 1_555
Mn13 O42 2.013759 1_555
Mn14 O49 1.967543 1_555
Mn14 O34 1.977727 1_665
Mn14 O38 1.998117 1_655
Mn14 O41 2.001118 1_565
Mn14 O45 2.002429 1_565
Mn14 O42 2.004032 1_655
Mn15 O55 1.982330 1_555
Mn15 O53 1.983505 1_555
Mn15 O48 1.985905 1_555
Mn15 O50 2.002463 1_555
Mn15 O46 2.003568 1_555
Mn15 O51 2.025006 1_555
Mn16 O57 1.936945 1_555
Mn16 O59 1.945184 1_555
Mn16 O56 1.996112 1_555
Mn16 O54 2.033234 1_555
Mn16 O52 2.033550 1_555
Mn16 O58 2.142045 1_555
O0 Ti1 1.968028 1_555
O0 Sr1 2.721369 1_555
O0 Sr0 2.915654 1_555
O1 Ti0 2.116984 1_554
O1 Sr0 2.769648 1_555
O1 Sr0 2.839686 1_565
O2 Ti1 1.829882 1_565
O2 Sr0 2.548959 1_565
O3 Ti0 1.947974 1_644
O3 Sr0 2.737266 1_655
O3 Sr0 2.898603 1_555
O4 Ti2 1.969187 1_545
O4 Sr1 2.909383 1_555
O5 Ti1 2.003980 1_655
O5 Sr1 2.463089 1_555
O5 Sr0 3.185673 1_655
O6 Ti1 1.924963 1_565
O6 Sr1 2.713221 1_565
O6 Sr1 2.880283 1_555
O7 Ti0 2.008566 1_654
O7 Sr0 2.506332 1_655
O7 Sr0 3.135382 1_565
O8 Ti2 2.003218 1_555
O8 Sr1 2.601743 1_565
O9 Ti1 2.153698 1_655
O9 Sr1 2.780871 1_655
O9 Sr1 2.819411 1_555
O11 Ti2 1.912756 1_645
O12 Ti2 2.012662 1_555
O13 Ti1 2.016648 1_665
O13 Sr1 2.567932 1_655
O15 Ti2 1.928860 1_645
O19 Ti2 1.990350 1_655
O28 Sr2 2.955135 1_555
O32 Sr2 3.216658 1_555
O34 Sr2 2.728762 1_555
O34 Sr3 2.833271 1_555
O35 Sr2 2.610422 1_555
O36 Sr2 2.774457 1_555
O36 Sr2 2.833944 1_565
O38 Sr2 2.508087 1_565
O38 Sr3 3.047437 1_555
O39 Sr2 2.763239 1_555
O39 Sr2 2.815972 1_655
O40 Sr4 2.767532 1_555
O40 Sr3 2.792023 1_555
O41 Sr3 2.554593 1_555
O41 Sr2 3.006794 1_655
O42 Sr3 2.797943 1_555
O42 Sr3 2.805033 1_565
O43 Sr2 2.560605 1_655
O43 Sr2 3.080428 1_565
O44 Sr3 2.536595 1_565
O44 Sr4 3.058068 1_555
O45 Sr3 2.788677 1_655
O45 Sr3 2.797959 1_555
O46 Sr5 2.735801 1_555
O46 Sr4 2.828962 1_555
O47 Sr4 2.543963 1_555
O47 Sr3 3.028190 1_655
O48 Sr4 2.791387 1_555
O48 Sr4 2.804463 1_565
O49 Sr3 2.543902 1_655
O49 Sr3 3.090392 1_565
O50 Sr4 2.571786 1_565
O50 Sr5 3.016905 1_555
O51 Sr4 2.778098 1_655
O51 Sr4 2.814548 1_555
O52 Ti0 1.962945 1_545
O52 Sr0 2.697013 1_556
O52 Sr5 2.910150 1_555
O53 Sr5 2.481980 1_555
O53 Sr4 3.099374 1_655
O54 Sr5 2.741725 1_565
O54 Sr5 2.840267 1_555
O55 Sr4 2.566017 1_655
O55 Sr4 3.069082 1_565
O56 Ti0 1.965506 1_555
O56 Sr5 2.665319 1_565
O56 Sr0 2.970003 1_556
O57 Sr5 2.792245 1_655
O57 Sr5 2.812078 1_555
O58 Ti0 1.867482 1_645
O58 Sr0 2.498357 1_556
O58 Sr5 3.100286 1_655
O59 Sr5 2.552404 1_655
O59 Sr5 3.091324 1_565
