# generated using pymatgen
data_Pr2CoO4
_symmetry_space_group_name_H-M   'P 1'
_cell_length_a   6.89427015
_cell_length_b   6.89427015
_cell_length_c   6.89427015
_cell_angle_alpha   147.33044935
_cell_angle_beta   147.33044935
_cell_angle_gamma   46.87474594
_symmetry_Int_Tables_number   1
_chemical_formula_structural   Pr2CoO4
_chemical_formula_sum   'Pr2 Co1 O4'
_cell_volume   95.12865919
_cell_formula_units_Z   1
loop_
 _symmetry_equiv_pos_site_id
 _symmetry_equiv_pos_as_xyz
  1  'x, y, z'
loop_
 _atom_site_type_symbol
 _atom_site_label
 _atom_site_symmetry_multiplicity
 _atom_site_fract_x
 _atom_site_fract_y
 _atom_site_fract_z
 _atom_site_occupancy
  Pr  Pr0  1  0.36296200  0.36296200  0.00000000  1
  Pr  Pr1  1  0.63703800  0.63703800  0.00000000  1
  Co  Co0  1  0.00000000  0.00000000  0.00000000  1
  O  O0  1  0.18051000  0.18051000  0.00000000  1
  O  O1  1  0.81949000  0.81949000  0.00000000  1
  O  O2  1  0.50000000  0.00000000  0.50000000  1
  O  O3  1  0.00000000  0.50000000  0.50000000  1
loop_
_geom_bond_atom_site_label_1
_geom_bond_atom_site_label_2
_geom_bond_distance
_geom_bond_site_symmetry_2
Co0 O2 1.939008 1_454
Co0 O3 1.939008 1_544
Co0 O3 1.939008 1_555
Co0 O2 1.939008 1_555
Co0 O1 2.283618 1_445
Co0 O0 2.283618 1_555
O0 Pr0 2.308186 1_555
O0 Pr1 2.796777 1_455
O0 Pr1 2.796777 1_545
O0 Pr1 2.796777 1_444
O0 Pr1 2.796777 1_556
O1 Pr1 2.308186 1_555
O1 Pr0 2.796777 1_655
O1 Pr0 2.796777 1_666
O1 Pr0 2.796777 1_554
O1 Pr0 2.796777 1_565
O2 Pr1 2.601023 1_556
O2 Pr0 2.601023 1_545
O2 Pr1 2.601023 1_545
O2 Pr0 2.601023 1_556
O3 Pr0 2.601023 1_455
O3 Pr1 2.601023 1_556
O3 Pr1 2.601023 1_455
O3 Pr0 2.601023 1_556
