# generated using pymatgen
data_K2Sc2Mo(PO6)2
_symmetry_space_group_name_H-M   'P 1'
_cell_length_a   10.52151600
_cell_length_b   10.54675514
_cell_length_c   10.55927045
_cell_angle_alpha   89.60336185
_cell_angle_beta   89.44821019
_cell_angle_gamma   89.81641208
_symmetry_Int_Tables_number   1
_chemical_formula_structural   K2Sc2Mo(PO6)2
_chemical_formula_sum   'K8 Sc8 Mo4 P8 O48'
_cell_volume   1171.65138994
_cell_formula_units_Z   4
loop_
 _symmetry_equiv_pos_site_id
 _symmetry_equiv_pos_as_xyz
  1  'x, y, z'
loop_
 _atom_site_type_symbol
 _atom_site_label
 _atom_site_symmetry_multiplicity
 _atom_site_fract_x
 _atom_site_fract_y
 _atom_site_fract_z
 _atom_site_occupancy
  K  K0  1  0.56274200  0.08355400  0.42846200  1
  K  K1  1  0.06129700  0.41121600  0.55593900  1
  K  K2  1  0.44456100  0.55394900  0.08813100  1
  K  K3  1  0.90672400  0.94347900  0.92411500  1
  K  K4  1  0.79433100  0.31058200  0.19437400  1
  K  K5  1  0.30573300  0.19969000  0.79548500  1
  K  K6  1  0.22128800  0.79166100  0.30506300  1
  K  K7  1  0.69759800  0.69770400  0.69894000  1
  Sc  Sc0  1  0.37622600  0.87588700  0.62312500  1
  Sc  Sc1  1  0.84700900  0.62350800  0.34778300  1
  Sc  Sc2  1  0.65660000  0.34900100  0.86235400  1
  Sc  Sc3  1  0.15492400  0.16607700  0.14617100  1
  Sc  Sc4  1  0.06622100  0.56842600  0.93406800  1
  Sc  Sc5  1  0.58566500  0.91027900  0.08317500  1
  Sc  Sc6  1  0.91102600  0.10638000  0.60033300  1
  Sc  Sc7  1  0.41564700  0.40779200  0.39914700  1
  Mo  Mo0  1  0.37167600  0.54510000  0.72736100  1
  Mo  Mo1  1  0.26750600  0.87218500  0.95263200  1
  Mo  Mo2  1  0.04392900  0.77194800  0.62701900  1
  Mo  Mo3  1  0.87733200  0.95689700  0.27793400  1
  P  P0  1  0.76366900  0.62311100  0.03937200  1
  P  P1  1  0.54338500  0.72788500  0.36590500  1
  P  P2  1  0.62928700  0.04322300  0.77324700  1
  P  P3  1  0.72163600  0.37409200  0.54170100  1
  P  P4  1  0.96341800  0.26795000  0.88217000  1
  P  P5  1  0.12595000  0.46126400  0.23637900  1
  P  P6  1  0.22657200  0.13217200  0.45612900  1
  P  P7  1  0.46587800  0.22544400  0.12056800  1
  O  O0  1  0.48291300  0.44400000  0.80464500  1
  O  O1  1  0.19925700  0.98659300  0.05600000  1
  O  O2  1  0.94099600  0.70050700  0.51485700  1
  O  O3  1  0.98747600  0.05988600  0.20168400  1
  O  O4  1  0.69731800  0.52563100  0.95321500  1
  O  O5  1  0.46857000  0.79942200  0.47255400  1
  O  O6  1  0.52806200  0.96901100  0.69594800  1
  O  O7  1  0.79294400  0.47362100  0.45763800  1
  O  O8  1  0.05162200  0.20327900  0.97937800  1
  O  O9  1  0.02431300  0.54058500  0.30746900  1
  O  O10  1  0.29982600  0.02698500  0.53148000  1
  O  O11  1  0.55401800  0.29582100  0.02525800  1
  O  O12  1  0.22901700  0.52446800  0.81657100  1
  O  O13  1  0.17318300  0.73490500  0.97510800  1
  O  O14  1  0.02104500  0.68176500  0.76792500  1
  O  O15  1  0.73549900  0.98195200  0.18903100  1
  O  O16  1  0.69390000  0.75173800  0.02918400  1
  O  O17  1  0.52161700  0.80482100  0.24226500  1
  O  O18  1  0.75906300  0.02811100  0.70442700  1
  O  O19  1  0.79991400  0.24911800  0.52785800  1
  O  O20  1  0.97955300  0.19726100  0.75484900  1
  O  O21  1  0.25500100  0.47696100  0.30314500  1
  O  O22  1  0.30312500  0.25648000  0.47205500  1
  O  O23  1  0.47887600  0.29745600  0.24848800  1
  O  O24  1  0.34247800  0.49332100  0.57010600  1
  O  O25  1  0.42413400  0.83102400  0.00157800  1
  O  O26  1  0.99579200  0.93020200  0.66127300  1
  O  O27  1  0.84801400  0.00361400  0.43788100  1
  O  O28  1  0.90276600  0.64505600  0.99632000  1
  O  O29  1  0.49106900  0.59193700  0.34987300  1
  O  O30  1  0.64239400  0.98473900  0.90744400  1
  O  O31  1  0.58576300  0.35330000  0.49126700  1
  O  O32  1  0.00171100  0.40720600  0.85862000  1
  O  O33  1  0.14315400  0.50706700  0.09769400  1
  O  O34  1  0.09048100  0.14990000  0.51126600  1
  O  O35  1  0.50403400  0.08491100  0.13841700  1
  O  O36  1  0.42727100  0.70692200  0.73288400  1
  O  O37  1  0.26362900  0.92937500  0.79137400  1
  O  O38  1  0.20662000  0.76497800  0.57095400  1
  O  O39  1  0.93486700  0.79709000  0.26770000  1
  O  O40  1  0.76393100  0.57174200  0.17843700  1
  O  O41  1  0.68591200  0.72701700  0.40307500  1
  O  O42  1  0.58658900  0.18349600  0.77892200  1
  O  O43  1  0.72090900  0.41873000  0.68138400  1
  O  O44  1  0.82304700  0.26321800  0.92918400  1
  O  O45  1  0.08116700  0.32117400  0.23669000  1
  O  O46  1  0.22357600  0.08982700  0.31590200  1
  O  O47  1  0.32575600  0.23331800  0.07364000  1
loop_
_geom_bond_atom_site_label_1
_geom_bond_atom_site_label_2
_geom_bond_distance
_geom_bond_site_symmetry_2
K0 O31 2.936973 1_555
K0 O10 3.022443 1_555
K0 O23 3.072412 1_555
K0 O6 3.083153 1_545
K0 O27 3.117380 1_555
K0 O35 3.130086 1_555
K0 O5 3.188946 1_545
K0 O19 3.237506 1_555
K0 O15 3.283377 1_545
K0 O22 3.309847 1_555
K1 O34 2.814662 1_555
K1 O9 2.977142 1_555
K1 O7 3.085081 1_455
K1 O24 3.090533 1_555
K1 O22 3.141944 1_555
K1 O20 3.186711 1_455
K1 O32 3.251082 1_555
K1 O19 3.259883 1_455
K1 O2 3.326695 1_455
K2 O29 2.842749 1_555
K2 O4 3.019751 1_554
K2 O11 3.028002 1_555
K2 O25 3.063291 1_555
K2 O21 3.112793 1_555
K2 O23 3.202733 1_555
K2 O33 3.211659 1_555
K2 O17 3.225786 1_555
K2 O0 3.238794 1_554
K3 O30 2.820598 1_555
K3 O26 2.924931 1_555
K3 O18 2.936584 1_565
K4 O40 2.776016 1_555
K4 O44 2.860790 1_554
K4 O45 3.057610 1_655
K4 O11 3.114409 1_555
K4 O7 3.278712 1_555
K4 O3 3.330519 1_555
K4 O23 3.365588 1_555
K5 O37 2.887248 1_545
K5 O42 2.962970 1_555
K5 O47 2.970459 1_556
K6 O38 2.822536 1_555
K6 O39 3.043369 1_455
K6 O46 3.147735 1_565
K6 O5 3.161621 1_555
K6 O17 3.225712 1_555
K6 O1 3.336283 1_555
K6 O21 3.337014 1_555
K6 O9 3.367659 1_555
K7 O36 2.864743 1_555
K7 O43 2.958636 1_555
K7 O41 3.140795 1_555
K7 O2 3.200198 1_555
K7 O4 3.230321 1_555
Mo0 O12 1.777552 1_555
Mo0 O0 1.780744 1_555
Mo0 O24 1.781379 1_555
Mo0 O36 1.807431 1_555
Mo1 O13 1.771280 1_555
Mo1 O1 1.777792 1_556
Mo1 O25 1.783276 1_556
Mo1 O37 1.803289 1_555
Mo2 O14 1.775205 1_555
Mo2 O26 1.781161 1_455
Mo2 O2 1.784826 1_455
Mo2 O38 1.807280 1_555
Mo3 O3 1.774565 1_565
Mo3 O27 1.786308 1_565
Mo3 O15 1.788590 1_555
Mo3 O39 1.792647 1_555
O0 Sc2 2.171642 1_555
O1 Sc3 2.172150 1_565
O2 Sc1 2.192783 1_555
O3 Sc3 2.164617 1_655
O4 P0 1.549769 1_556
O4 Sc2 2.147583 1_555
O5 P1 1.564590 1_555
O5 Sc0 2.026130 1_555
O6 P2 1.563353 1_565
O6 Sc0 2.037707 1_555
O7 P3 1.559494 1_555
O7 Sc1 2.033672 1_555
O8 P4 1.544236 1_455
O8 Sc3 2.112279 1_556
O9 P5 1.547390 1_555
O9 Sc1 2.098952 1_455
O10 P6 1.565869 1_555
O10 Sc0 2.026716 1_545
O11 P7 1.549156 1_555
O11 Sc2 2.095991 1_554
O12 Sc4 2.156401 1_555
O13 Sc4 2.137708 1_555
O14 Sc4 2.171621 1_555
O15 Sc5 2.087911 1_555
O16 P0 1.543993 1_555
O16 Sc5 2.099110 1_555
O17 P1 1.550878 1_555
O17 Sc5 2.114309 1_555
O18 P2 1.548872 1_555
O18 Sc6 2.099533 1_555
O19 P3 1.558971 1_555
O19 Sc6 2.051506 1_555
O20 P4 1.549444 1_555
O20 Sc6 2.036996 1_555
O21 P5 1.545827 1_555
O21 Sc7 2.105128 1_555
O22 P6 1.551872 1_555
O22 Sc7 2.125696 1_555
O23 P7 1.561558 1_555
O23 Sc7 2.080344 1_555
O24 Sc7 2.157881 1_555
O25 Sc5 2.092084 1_555
O26 Sc6 2.155443 1_565
O27 Sc6 2.146866 1_555
O28 P0 1.545960 1_556
O28 Sc4 2.004904 1_655
O29 P1 1.548441 1_555
O29 Sc7 2.158761 1_555
O30 P2 1.548725 1_565
O30 Sc5 2.092293 1_556
O31 P3 1.547162 1_555
O31 Sc7 2.121166 1_555
O32 P4 1.542092 1_455
O32 Sc4 2.005775 1_555
O33 P5 1.547995 1_555
O33 Sc4 2.016753 1_554
O34 P6 1.551757 1_555
O34 Sc6 2.150727 1_455
O35 P7 1.545085 1_555
O35 Sc5 2.113115 1_545
O36 Sc0 2.187366 1_555
O37 Sc0 2.201601 1_555
O38 Sc0 2.213021 1_555
O39 Sc1 2.212578 1_555
O40 P0 1.561683 1_555
O40 Sc1 2.075180 1_555
O41 P1 1.553747 1_555
O41 Sc1 2.093687 1_555
O42 P2 1.546144 1_555
O42 Sc2 2.099448 1_555
O43 P3 1.551306 1_555
O43 Sc2 2.146875 1_555
O44 P4 1.554421 1_555
O44 Sc2 2.094825 1_555
O45 P5 1.552218 1_555
O45 Sc3 2.047140 1_555
O46 P6 1.550177 1_555
O46 Sc3 2.093284 1_555
O47 P7 1.561636 1_555
O47 Sc3 2.072273 1_555
