# generated using pymatgen
data_SmFeGe2O7
_symmetry_space_group_name_H-M   'P 1'
_cell_length_a   6.66708700
_cell_length_b   7.31476600
_cell_length_c   13.07037811
_cell_angle_alpha   62.42148740
_cell_angle_beta   90.00000000
_cell_angle_gamma   90.00000000
_symmetry_Int_Tables_number   1
_chemical_formula_structural   SmFeGe2O7
_chemical_formula_sum   'Sm4 Fe4 Ge8 O28'
_cell_volume   564.99332814
_cell_formula_units_Z   4
loop_
 _symmetry_equiv_pos_site_id
 _symmetry_equiv_pos_as_xyz
  1  'x, y, z'
loop_
 _atom_site_type_symbol
 _atom_site_label
 _atom_site_symmetry_multiplicity
 _atom_site_fract_x
 _atom_site_fract_y
 _atom_site_fract_z
 _atom_site_occupancy
  Sm  Sm0  1  0.14892100  0.24108400  0.02538900  1
  Sm  Sm1  1  0.64892100  0.75891600  0.47461100  1
  Sm  Sm2  1  0.85107900  0.75891600  0.97461100  1
  Sm  Sm3  1  0.35107900  0.24108400  0.52538900  1
  Fe  Fe0  1  0.40439400  0.20920300  0.26975900  1
  Fe  Fe1  1  0.90439400  0.79079700  0.23024100  1
  Fe  Fe2  1  0.59560600  0.79079700  0.73024100  1
  Fe  Fe3  1  0.09560600  0.20920300  0.76975900  1
  Ge  Ge0  1  0.65940700  0.21836500  0.03828100  1
  Ge  Ge1  1  0.15940700  0.78163500  0.46171900  1
  Ge  Ge2  1  0.34059300  0.78163500  0.96171900  1
  Ge  Ge3  1  0.84059300  0.21836500  0.53828100  1
  Ge  Ge4  1  0.41522200  0.69994000  0.22306300  1
  Ge  Ge5  1  0.91522200  0.30006000  0.27693700  1
  Ge  Ge6  1  0.58477800  0.30006000  0.77693700  1
  Ge  Ge7  1  0.08477800  0.69994000  0.72306300  1
  O  O0  1  0.82931300  0.41142600  0.01702600  1
  O  O1  1  0.32931300  0.58857400  0.48297400  1
  O  O2  1  0.17068700  0.58857400  0.98297400  1
  O  O3  1  0.67068700  0.41142600  0.51702600  1
  O  O4  1  0.11346200  0.21865100  0.21852700  1
  O  O5  1  0.61346200  0.78134900  0.28147300  1
  O  O6  1  0.88653800  0.78134900  0.78147300  1
  O  O7  1  0.38653800  0.21865100  0.71852700  1
  O  O8  1  0.37806800  0.43054800  0.31017300  1
  O  O9  1  0.87806800  0.56945200  0.18982700  1
  O  O10  1  0.62193200  0.56945200  0.68982700  1
  O  O11  1  0.12193200  0.43054800  0.81017300  1
  O  O12  1  0.33943400  0.98639200  0.42603100  1
  O  O13  1  0.83943400  0.01360800  0.07396900  1
  O  O14  1  0.66056600  0.01360800  0.57396900  1
  O  O15  1  0.16056600  0.98639200  0.92603100  1
  O  O16  1  0.00100300  0.26056100  0.41854700  1
  O  O17  1  0.50100300  0.73943900  0.08145300  1
  O  O18  1  0.99899700  0.73943900  0.58145300  1
  O  O19  1  0.49899700  0.26056100  0.91854700  1
  O  O20  1  0.45362100  0.20632500  0.12516500  1
  O  O21  1  0.95362100  0.79367500  0.37483500  1
  O  O22  1  0.54637900  0.79367500  0.87483500  1
  O  O23  1  0.04637900  0.20632500  0.62516500  1
  O  O24  1  0.19360700  0.84905000  0.18606800  1
  O  O25  1  0.69360700  0.15095000  0.31393200  1
  O  O26  1  0.80639300  0.15095000  0.81393200  1
  O  O27  1  0.30639300  0.84905000  0.68606800  1
loop_
_geom_bond_atom_site_label_1
_geom_bond_atom_site_label_2
_geom_bond_distance
_geom_bond_site_symmetry_2
Fe0 O20 1.927878 1_555
Fe0 O8 1.929551 1_555
Fe0 O12 1.983290 1_545
Fe0 O25 2.001275 1_555
Fe0 O4 2.042703 1_555
Fe1 O21 1.927878 1_555
Fe1 O9 1.929551 1_555
Fe1 O13 1.983290 1_565
Fe1 O24 2.001275 1_655
Fe1 O5 2.042703 1_555
Fe2 O22 1.927878 1_555
Fe2 O10 1.929551 1_555
Fe2 O14 1.983290 1_565
Fe2 O27 2.001275 1_555
Fe2 O6 2.042703 1_555
Fe3 O23 1.927878 1_555
Fe3 O11 1.929551 1_555
Fe3 O15 1.983290 1_545
Fe3 O26 2.001275 1_455
Fe3 O7 2.042703 1_555
Ge0 O0 1.729566 1_555
Ge0 O20 1.757020 1_555
Ge0 O19 1.800250 1_554
Ge0 O13 1.804041 1_555
Ge1 O1 1.729566 1_555
Ge1 O21 1.757020 1_455
Ge1 O18 1.800250 1_455
Ge1 O12 1.804041 1_555
Ge2 O2 1.729566 1_555
Ge2 O22 1.757020 1_555
Ge2 O17 1.800250 1_556
Ge2 O15 1.804041 1_555
Ge3 O3 1.729566 1_555
Ge3 O23 1.757020 1_655
Ge3 O16 1.800250 1_655
Ge3 O14 1.804041 1_555
Ge4 O5 1.762169 1_555
Ge4 O24 1.765842 1_555
Ge4 O8 1.778571 1_555
Ge4 O17 1.827899 1_555
Ge5 O4 1.762169 1_655
Ge5 O25 1.765842 1_555
Ge5 O9 1.778571 1_555
Ge5 O16 1.827899 1_655
Ge6 O7 1.762169 1_555
Ge6 O26 1.765842 1_555
Ge6 O10 1.778571 1_555
Ge6 O19 1.827899 1_555
Ge7 O6 1.762169 1_455
Ge7 O27 1.765842 1_555
Ge7 O11 1.778571 1_555
Ge7 O18 1.827899 1_455
O0 Sm2 2.341887 1_554
O0 Sm0 2.445184 1_655
O1 Sm3 2.341887 1_555
O1 Sm1 2.445184 1_555
O2 Sm0 2.341887 1_556
O2 Sm2 2.445184 1_455
O3 Sm1 2.341887 1_555
O3 Sm3 2.445184 1_555
O4 Sm0 2.464101 1_555
O5 Sm1 2.464101 1_555
O6 Sm2 2.464101 1_555
O7 Sm3 2.464101 1_555
O8 Sm3 2.501220 1_555
O9 Sm2 2.501220 1_554
O10 Sm1 2.501220 1_555
O11 Sm0 2.501220 1_556
O12 Sm1 2.539902 1_555
O12 Sm3 2.720939 1_565
O13 Sm0 2.539902 1_655
O13 Sm2 2.720939 1_544
O14 Sm3 2.539902 1_555
O14 Sm1 2.720939 1_545
O15 Sm2 2.539902 1_455
O15 Sm0 2.720939 1_566
O16 Sm3 2.689552 1_555
O17 Sm2 2.689552 1_554
O18 Sm1 2.689552 1_555
O19 Sm0 2.689552 1_556
O20 Sm0 2.363296 1_555
O21 Sm1 2.363296 1_555
O22 Sm2 2.363296 1_555
O23 Sm3 2.363296 1_555
O24 Sm0 2.673264 1_565
O25 Sm1 2.673264 1_545
O26 Sm2 2.673264 1_545
O27 Sm3 2.673264 1_565
