# generated using pymatgen
data_Ge9Pd25
_symmetry_space_group_name_H-M   'P 1'
_cell_length_a   7.40906730
_cell_length_b   7.40906663
_cell_length_c   10.66186129
_cell_angle_alpha   90.00000000
_cell_angle_beta   90.00000000
_cell_angle_gamma   119.99999642
_symmetry_Int_Tables_number   1
_chemical_formula_structural   Ge9Pd25
_chemical_formula_sum   'Ge9 Pd25'
_cell_volume   506.86314692
_cell_formula_units_Z   1
loop_
 _symmetry_equiv_pos_site_id
 _symmetry_equiv_pos_as_xyz
  1  'x, y, z'
loop_
 _atom_site_type_symbol
 _atom_site_label
 _atom_site_symmetry_multiplicity
 _atom_site_fract_x
 _atom_site_fract_y
 _atom_site_fract_z
 _atom_site_occupancy
  Ge  Ge0  1  -0.00000000  0.00000000  0.00000000  1
  Ge  Ge1  1  0.66666700  0.33333300  0.02038717  1
  Ge  Ge2  1  0.33333300  0.66666700  0.97961283  1
  Ge  Ge3  1  0.34329316  0.33585001  0.32144559  1
  Ge  Ge4  1  0.99255684  0.65670684  0.32144559  1
  Ge  Ge5  1  0.66414999  0.00744316  0.32144559  1
  Ge  Ge6  1  0.65670684  0.66414999  0.67855441  1
  Ge  Ge7  1  0.00744316  0.34329316  0.67855441  1
  Ge  Ge8  1  0.33585001  0.99255684  0.67855441  1
  Pd  Pd0  1  0.65641276  0.92924133  0.08016585  1
  Pd  Pd1  1  0.07075867  0.72717144  0.08016585  1
  Pd  Pd2  1  0.27282856  0.34358724  0.08016585  1
  Pd  Pd3  1  0.41878077  0.09265234  0.18623758  1
  Pd  Pd4  1  0.90734766  0.32612744  0.18623758  1
  Pd  Pd5  1  0.67387256  0.58121923  0.18623758  1
  Pd  Pd6  1  0.58121923  0.90734766  0.81376242  1
  Pd  Pd7  1  0.09265234  0.67387256  0.81376242  1
  Pd  Pd8  1  0.32612744  0.41878077  0.81376242  1
  Pd  Pd9  1  0.33333300  0.66666700  0.60707884  1
  Pd  Pd10  1  0.66666700  0.33333300  0.39292116  1
  Pd  Pd11  1  0.33333300  0.66666700  0.24231070  1
  Pd  Pd12  1  0.66666700  0.33333300  0.75768930  1
  Pd  Pd13  1  -0.00000000  0.00000000  0.24952493  1
  Pd  Pd14  1  -0.00000000  0.00000000  0.75047507  1
  Pd  Pd15  1  -0.00000000  0.00000000  0.50000000  1
  Pd  Pd16  1  0.72717144  0.65641276  0.91983415  1
  Pd  Pd17  1  0.92924133  0.27282856  0.91983415  1
  Pd  Pd18  1  0.34358724  0.07075867  0.91983415  1
  Pd  Pd19  1  0.37992658  0.30673945  0.56889988  1
  Pd  Pd20  1  0.92681286  0.62007342  0.56889988  1
  Pd  Pd21  1  0.69326055  0.07318714  0.56889988  1
  Pd  Pd22  1  0.62007342  0.69326055  0.43110012  1
  Pd  Pd23  1  0.07318714  0.37992658  0.43110012  1
  Pd  Pd24  1  0.30673945  0.92681286  0.43110012  1
loop_
_geom_bond_atom_site_label_1
_geom_bond_atom_site_label_2
_geom_bond_distance
_geom_bond_site_symmetry_2
Ge0 Pd17 2.480161 1_454
Ge0 Pd1 2.480161 1_545
Ge0 Pd16 2.480161 1_444
Ge0 Pd2 2.480161 1_555
Ge0 Pd0 2.480161 1_445
Ge0 Pd18 2.480161 1_554
Ge0 Pd14 2.660400 1_554
Ge0 Pd13 2.660400 1_555
Ge1 Pd17 2.450942 1_554
Ge1 Pd18 2.450947 1_554
Ge1 Pd16 2.450949 1_554
Ge1 Pd5 2.530754 1_555
Ge1 Pd4 2.530754 1_555
Ge1 Pd3 2.530754 1_555
Ge1 Pd12 2.800848 1_554
Ge1 Pd0 3.024602 1_545
Ge1 Pd1 3.024606 1_655
Ge1 Pd2 3.024609 1_555
Ge2 Pd1 2.450942 1_556
Ge2 Pd0 2.450947 1_556
Ge2 Pd2 2.450949 1_556
Ge2 Pd8 2.530754 1_555
Ge2 Pd7 2.530754 1_555
Ge2 Pd6 2.530754 1_555
Ge2 Pd11 2.800848 1_556
Ge2 Pd18 3.024602 1_565
Ge2 Pd17 3.024606 1_455
Ge2 Pd16 3.024609 1_555
Ge3 Pd23 2.476280 1_555
Ge3 Pd10 2.523113 1_555
Ge3 Pd3 2.577873 1_555
Ge3 Pd11 2.627892 1_555
Ge3 Pd13 2.630603 1_555
Ge3 Pd2 2.631252 1_555
Ge3 Pd5 2.632374 1_555
Ge3 Pd19 2.671980 1_555
Ge3 Pd22 2.674714 1_555
Ge3 Pd15 3.155350 1_555
Ge4 Pd24 2.476280 1_655
Ge4 Pd10 2.523109 1_555
Ge4 Pd5 2.577867 1_555
Ge4 Pd11 2.627885 1_655
Ge4 Pd13 2.630603 1_665
Ge4 Pd1 2.631252 1_655
Ge4 Pd4 2.632375 1_555
Ge4 Pd20 2.671980 1_555
Ge4 Pd23 2.674714 1_655
Ge4 Pd15 3.155350 1_665
Ge5 Pd22 2.476280 1_545
Ge5 Pd10 2.523105 1_555
Ge5 Pd4 2.577869 1_555
Ge5 Pd11 2.627889 1_545
Ge5 Pd13 2.630603 1_655
Ge5 Pd0 2.631252 1_545
Ge5 Pd3 2.632369 1_555
Ge5 Pd21 2.671980 1_555
Ge5 Pd24 2.674714 1_545
Ge5 Pd15 3.155350 1_655
Ge6 Pd20 2.476280 1_555
Ge6 Pd9 2.523113 1_555
Ge6 Pd6 2.577873 1_555
Ge6 Pd12 2.627892 1_555
Ge6 Pd14 2.630603 1_665
Ge6 Pd16 2.631252 1_555
Ge6 Pd8 2.632374 1_555
Ge6 Pd22 2.671980 1_555
Ge6 Pd19 2.674714 1_555
Ge6 Pd15 3.155350 1_665
Ge7 Pd21 2.476280 1_455
Ge7 Pd9 2.523109 1_555
Ge7 Pd8 2.577867 1_555
Ge7 Pd12 2.627885 1_455
Ge7 Pd14 2.630603 1_555
Ge7 Pd17 2.631252 1_455
Ge7 Pd7 2.632375 1_555
Ge7 Pd23 2.671980 1_555
Ge7 Pd20 2.674714 1_455
Ge7 Pd15 3.155350 1_555
Ge8 Pd19 2.476280 1_565
Ge8 Pd9 2.523105 1_555
Ge8 Pd7 2.577869 1_555
Ge8 Pd12 2.627889 1_565
Ge8 Pd14 2.630603 1_565
Ge8 Pd18 2.631252 1_565
Ge8 Pd6 2.632369 1_555
Ge8 Pd24 2.671980 1_555
Ge8 Pd21 2.674714 1_565
Ge8 Pd15 3.155350 1_565
Pd0 Pd11 2.801145 1_555
Pd1 Pd11 2.801141 1_555
Pd11 Pd2 2.801146 1_555
Pd11 Pd24 2.860972 1_555
Pd11 Pd23 2.860975 1_555
Pd11 Pd22 2.860977 1_555
Pd11 Pd3 2.953202 1_565
Pd11 Pd4 2.953207 1_455
Pd11 Pd5 2.953216 1_555
Pd12 Pd17 2.801141 1_555
Pd12 Pd18 2.801145 1_555
Pd12 Pd16 2.801146 1_555
Pd12 Pd21 2.860972 1_555
Pd12 Pd20 2.860975 1_555
Pd12 Pd19 2.860977 1_555
Pd12 Pd6 2.953202 1_545
Pd12 Pd7 2.953207 1_655
Pd12 Pd8 2.953216 1_555
Pd13 Pd15 2.670530 1_555
Pd14 Pd15 2.670530 1_555
Pd15 Pd20 2.689046 1_445
Pd15 Pd23 2.689046 1_555
Pd15 Pd21 2.689046 1_455
Pd15 Pd24 2.689046 1_545
Pd15 Pd19 2.689046 1_555
Pd15 Pd22 2.689046 1_445
