# generated using pymatgen
data_Cs4U(Ge2O5)4
_symmetry_space_group_name_H-M   'P 1'
_cell_length_a   12.43955780
_cell_length_b   7.47961508
_cell_length_c   14.31796536
_cell_angle_alpha   58.65369297
_cell_angle_beta   90.00000000
_cell_angle_gamma   90.00000000
_symmetry_Int_Tables_number   1
_chemical_formula_structural   Cs4U(Ge2O5)4
_chemical_formula_sum   'Cs8 U2 Ge16 O40'
_cell_volume   1137.74001798
_cell_formula_units_Z   2
loop_
 _symmetry_equiv_pos_site_id
 _symmetry_equiv_pos_as_xyz
  1  'x, y, z'
loop_
 _atom_site_type_symbol
 _atom_site_label
 _atom_site_symmetry_multiplicity
 _atom_site_fract_x
 _atom_site_fract_y
 _atom_site_fract_z
 _atom_site_occupancy
  Cs  Cs0  1  0.42170520  0.33128041  0.16929132  1
  Cs  Cs1  1  0.07829480  0.33128041  0.66929132  1
  Cs  Cs2  1  0.57829480  0.66871959  0.83070868  1
  Cs  Cs3  1  0.92170520  0.66871959  0.33070868  1
  Cs  Cs4  1  0.44228505  0.30954638  0.67639107  1
  Cs  Cs5  1  0.05771495  0.30954638  0.17639107  1
  Cs  Cs6  1  0.55771495  0.69045362  0.32360893  1
  Cs  Cs7  1  0.94228505  0.69045362  0.82360893  1
  U  U0  1  0.50000000  0.00000000  0.50000000  1
  U  U1  1  0.00000000  0.00000000  -0.00000000  1
  Ge  Ge0  1  0.10820901  0.96425982  0.50198539  1
  Ge  Ge1  1  0.39179099  0.96425982  0.00198539  1
  Ge  Ge2  1  0.89179099  0.03574018  0.49801461  1
  Ge  Ge3  1  0.60820901  0.03574018  0.99801461  1
  Ge  Ge4  1  0.73524450  0.64442093  0.57369648  1
  Ge  Ge5  1  0.76475550  0.64442093  0.07369648  1
  Ge  Ge6  1  0.26475550  0.35557907  0.42630352  1
  Ge  Ge7  1  0.23524450  0.35557907  0.92630352  1
  Ge  Ge8  1  0.27017977  0.79625852  0.39976604  1
  Ge  Ge9  1  0.22982023  0.79625852  0.89976604  1
  Ge  Ge10  1  0.72982023  0.20374148  0.60023396  1
  Ge  Ge11  1  0.77017977  0.20374148  0.10023396  1
  Ge  Ge12  1  0.27669612  0.75078053  0.69460115  1
  Ge  Ge13  1  0.22330388  0.75078053  0.19460115  1
  Ge  Ge14  1  0.72330388  0.24921947  0.30539885  1
  Ge  Ge15  1  0.77669612  0.24921947  0.80539885  1
  O  O0  1  0.20034239  0.74066572  0.59567241  1
  O  O1  1  0.29965761  0.74066572  0.09567241  1
  O  O2  1  0.79965761  0.25933428  0.40432759  1
  O  O3  1  0.70034239  0.25933428  0.90432759  1
  O  O4  1  0.81032331  0.85904486  0.47742085  1
  O  O5  1  0.68967669  0.85904486  0.97742085  1
  O  O6  1  0.18967669  0.14095514  0.52257915  1
  O  O7  1  0.31032331  0.14095514  0.02257915  1
  O  O8  1  0.15195191  0.93487238  0.38899641  1
  O  O9  1  0.34804809  0.93487238  0.88899641  1
  O  O10  1  0.84804809  0.06512762  0.61100359  1
  O  O11  1  0.65195191  0.06512762  0.11100359  1
  O  O12  1  0.99441281  0.83172650  0.58686189  1
  O  O13  1  0.50558719  0.83172650  0.08686189  1
  O  O14  1  0.00558719  0.16827350  0.41313811  1
  O  O15  1  0.49441281  0.16827350  0.91313811  1
  O  O16  1  0.29726931  0.47884005  0.79599851  1
  O  O17  1  0.20273069  0.47884005  0.29599851  1
  O  O18  1  0.70273069  0.52115995  0.20400149  1
  O  O19  1  0.79726931  0.52115995  0.70400149  1
  O  O20  1  0.74929251  0.47823069  0.51953016  1
  O  O21  1  0.75070749  0.47823069  0.01953016  1
  O  O22  1  0.25070749  0.52176931  0.48046984  1
  O  O23  1  0.24929251  0.52176931  0.98046984  1
  O  O24  1  0.60148831  0.70098304  0.57940976  1
  O  O25  1  0.89851169  0.70098304  0.07940976  1
  O  O26  1  0.39851169  0.29901696  0.42059024  1
  O  O27  1  0.10148831  0.29901696  0.92059024  1
  O  O28  1  0.20503933  0.85252688  0.76387869  1
  O  O29  1  0.29496067  0.85252688  0.26387869  1
  O  O30  1  0.79496067  0.14747312  0.23612131  1
  O  O31  1  0.70503933  0.14747312  0.73612131  1
  O  O32  1  0.39009299  0.87179593  0.42850137  1
  O  O33  1  0.10990701  0.87179593  0.92850137  1
  O  O34  1  0.60990701  0.12820407  0.57149863  1
  O  O35  1  0.89009299  0.12820407  0.07149863  1
  O  O36  1  0.40298014  0.86184614  0.65255652  1
  O  O37  1  0.09701986  0.86184614  0.15255652  1
  O  O38  1  0.59701986  0.13815386  0.34744348  1
  O  O39  1  0.90298014  0.13815386  0.84744348  1
loop_
_geom_bond_atom_site_label_1
_geom_bond_atom_site_label_2
_geom_bond_distance
_geom_bond_site_symmetry_2
Cs0 O1 3.071498 1_555
Cs0 O38 3.084732 1_555
Cs0 O23 3.151410 1_554
Cs0 O7 3.386750 1_555
Cs0 O13 3.449137 1_555
Cs0 O29 3.478090 1_545
Cs0 O26 3.490608 1_555
Cs0 O32 3.531228 1_545
Cs0 O17 3.743331 1_555
Cs0 O11 3.819875 1_555
Cs1 O0 3.071498 1_555
Cs1 O39 3.084732 1_455
Cs1 O22 3.151410 1_555
Cs1 O6 3.386750 1_555
Cs1 O12 3.449137 1_455
Cs1 O28 3.478090 1_545
Cs1 O27 3.490608 1_555
Cs1 O33 3.531228 1_545
Cs1 O16 3.743331 1_555
Cs1 O10 3.819875 1_455
Cs2 O3 3.071498 1_555
Cs2 O36 3.084732 1_555
Cs2 O21 3.151410 1_556
Cs2 O5 3.386750 1_555
Cs2 O15 3.449137 1_555
Cs2 O31 3.478090 1_565
Cs2 O24 3.490608 1_555
Cs2 O34 3.531228 1_565
Cs2 O19 3.743331 1_555
Cs2 O9 3.819875 1_555
Cs3 O2 3.071498 1_555
Cs3 O37 3.084732 1_655
Cs3 O20 3.151410 1_555
Cs3 O4 3.386750 1_555
Cs3 O14 3.449137 1_655
Cs3 O30 3.478090 1_565
Cs3 O25 3.490608 1_555
Cs3 O35 3.531228 1_565
Cs3 O18 3.743331 1_555
Cs3 O8 3.819875 1_655
Cs4 O15 3.049712 1_555
Cs4 O9 3.101382 1_545
Cs4 O16 3.169620 1_555
Cs4 O24 3.192553 1_555
Cs4 O34 3.250000 1_555
Cs4 O22 3.381618 1_555
Cs4 O31 3.435942 1_555
Cs4 O36 3.571801 1_545
Cs5 O14 3.049712 1_555
Cs5 O8 3.101382 1_545
Cs5 O17 3.169620 1_555
Cs5 O25 3.192553 1_455
Cs5 O35 3.250000 1_455
Cs5 O23 3.381618 1_554
Cs5 O30 3.435942 1_455
Cs5 O37 3.571801 1_545
Cs6 O13 3.049712 1_555
Cs6 O11 3.101382 1_565
Cs6 O18 3.169620 1_555
Cs6 O26 3.192553 1_555
Cs6 O32 3.250000 1_555
Cs6 O20 3.381618 1_555
Cs6 O29 3.435942 1_555
Cs6 O38 3.571801 1_565
Cs7 O12 3.049712 1_555
Cs7 O10 3.101382 1_565
Cs7 O19 3.169620 1_555
Cs7 O27 3.192553 1_655
Cs7 O33 3.250000 1_655
Cs7 O21 3.381618 1_556
Cs7 O28 3.435942 1_655
Cs7 O39 3.571801 1_565
Ge0 O12 1.791648 1_455
Ge0 O6 1.807227 1_565
Ge0 O8 1.825257 1_555
Ge0 O14 1.885941 1_565
Ge0 O0 1.890976 1_555
Ge1 O13 1.791648 1_555
Ge1 O7 1.807227 1_565
Ge1 O9 1.825257 1_554
Ge1 O15 1.885941 1_564
Ge1 O1 1.890976 1_555
Ge2 O14 1.791648 1_655
Ge2 O4 1.807227 1_545
Ge2 O10 1.825257 1_555
Ge2 O12 1.885941 1_545
Ge2 O2 1.890976 1_555
Ge3 O15 1.791648 1_555
Ge3 O5 1.807227 1_545
Ge3 O11 1.825257 1_556
Ge3 O13 1.885941 1_546
Ge3 O3 1.890976 1_555
Ge4 O24 1.729201 1_555
Ge4 O4 1.745604 1_555
Ge4 O19 1.771027 1_555
Ge4 O20 1.783303 1_555
Ge5 O25 1.729201 1_555
Ge5 O5 1.745604 1_554
Ge5 O18 1.771027 1_555
Ge5 O21 1.783303 1_555
Ge6 O26 1.729201 1_555
Ge6 O6 1.745604 1_555
Ge6 O17 1.771027 1_555
Ge6 O22 1.783303 1_555
Ge7 O27 1.729201 1_555
Ge7 O7 1.745604 1_556
Ge7 O16 1.771027 1_555
Ge7 O23 1.783303 1_555
Ge8 O32 1.719131 1_555
Ge8 O8 1.759352 1_555
Ge8 O22 1.772217 1_555
Ge8 O29 1.790443 1_555
Ge9 O33 1.719131 1_555
Ge9 O9 1.759352 1_555
Ge9 O23 1.772217 1_555
Ge9 O28 1.790443 1_555
Ge10 O34 1.719131 1_555
Ge10 O10 1.759352 1_555
Ge10 O20 1.772217 1_555
Ge10 O31 1.790443 1_555
Ge11 O35 1.719131 1_555
Ge11 O11 1.759352 1_555
Ge11 O21 1.772217 1_555
Ge11 O30 1.790443 1_555
Ge12 O36 1.732045 1_555
Ge12 O0 1.739455 1_555
Ge12 O28 1.772847 1_555
Ge12 O16 1.799468 1_555
Ge13 O37 1.732045 1_555
Ge13 O1 1.739455 1_555
Ge13 O29 1.772847 1_555
Ge13 O17 1.799468 1_555
Ge14 O38 1.732045 1_555
Ge14 O2 1.739455 1_555
Ge14 O30 1.772847 1_555
Ge14 O18 1.799468 1_555
Ge15 O39 1.732045 1_555
Ge15 O3 1.739455 1_555
Ge15 O31 1.772847 1_555
Ge15 O19 1.799468 1_555
O24 U0 2.289750 1_565
O25 U1 2.289750 1_665
O26 U0 2.289750 1_555
O27 U1 2.289750 1_556
O32 U0 2.204103 1_565
O33 U1 2.204103 1_566
O34 U0 2.204103 1_555
O35 U1 2.204103 1_655
O36 U0 2.224223 1_565
O37 U1 2.224223 1_565
O38 U0 2.224223 1_555
O39 U1 2.224223 1_656
