# generated using pymatgen
data_Pa3Br
_symmetry_space_group_name_H-M   'P 1'
_cell_length_a   5.51588305
_cell_length_b   5.51588305
_cell_length_c   5.51588305
_cell_angle_alpha   131.46356718
_cell_angle_beta   131.46356718
_cell_angle_gamma   71.07759524
_symmetry_Int_Tables_number   1
_chemical_formula_structural   Pa3Br
_chemical_formula_sum   'Pa3 Br1'
_cell_volume   92.27484338
_cell_formula_units_Z   1
loop_
 _symmetry_equiv_pos_site_id
 _symmetry_equiv_pos_as_xyz
  1  'x, y, z'
loop_
 _atom_site_type_symbol
 _atom_site_label
 _atom_site_symmetry_multiplicity
 _atom_site_fract_x
 _atom_site_fract_y
 _atom_site_fract_z
 _atom_site_occupancy
  Pa  Pa0  1  0.75000000  0.25000000  0.50000000  1
  Pa  Pa1  1  0.25000000  0.75000000  0.50000000  1
  Pa  Pa2  1  0.50000000  0.50000000  0.00000000  1
  Br  Br0  1  0.00000000  0.00000000  0.00000000  1
loop_
_geom_bond_atom_site_label_1
_geom_bond_atom_site_label_2
_geom_bond_distance
_geom_bond_site_symmetry_2
Br0 Pa0 3.189993 1_555
Br0 Pa1 3.189993 1_544
Br0 Pa1 3.189993 1_555
Br0 Pa0 3.189993 1_455
Br0 Pa0 3.189993 1_454
Br0 Pa0 3.189993 1_444
Br0 Pa1 3.189993 1_545
Br0 Pa1 3.189993 1_444
Br0 Pa2 3.206130 1_545
Br0 Pa2 3.206130 1_556
Br0 Pa2 3.206130 1_455
Br0 Pa2 3.206130 1_444
