# generated using pymatgen
data_Mo6H24C8N2O19
_symmetry_space_group_name_H-M   'P 1'
_cell_length_a   10.52288635
_cell_length_b   10.52288635
_cell_length_c   15.12846600
_cell_angle_alpha   90.00000000
_cell_angle_beta   90.00000000
_cell_angle_gamma   120.00000219
_symmetry_Int_Tables_number   1
_chemical_formula_structural   Mo6H24C8N2O19
_chemical_formula_sum   'Mo12 H48 C16 N4 O38'
_cell_volume   1450.75900654
_cell_formula_units_Z   2
loop_
 _symmetry_equiv_pos_site_id
 _symmetry_equiv_pos_as_xyz
  1  'x, y, z'
loop_
 _atom_site_type_symbol
 _atom_site_label
 _atom_site_symmetry_multiplicity
 _atom_site_fract_x
 _atom_site_fract_y
 _atom_site_fract_z
 _atom_site_occupancy
  Mo  Mo0  1  0.87322800  0.08251200  0.90971400  1
  Mo  Mo1  1  0.20928400  0.12677200  0.90971400  1
  Mo  Mo2  1  0.91748800  0.79071600  0.90971400  1
  Mo  Mo3  1  0.87322800  0.79071600  0.40971400  1
  Mo  Mo4  1  0.91748800  0.12677200  0.40971400  1
  Mo  Mo5  1  0.20928400  0.08251200  0.40971400  1
  Mo  Mo6  1  0.12677200  0.91748800  0.09028600  1
  Mo  Mo7  1  0.79071600  0.87322800  0.09028600  1
  Mo  Mo8  1  0.08251200  0.20928400  0.09028600  1
  Mo  Mo9  1  0.12677200  0.20928400  0.59028600  1
  Mo  Mo10  1  0.08251200  0.87322800  0.59028600  1
  Mo  Mo11  1  0.79071600  0.91748800  0.59028600  1
  H  H0  1  0.55706500  0.37192800  0.22392000  1
  H  H1  1  0.81486300  0.44293500  0.22392000  1
  H  H2  1  0.62807200  0.18513700  0.22392000  1
  H  H3  1  0.55706500  0.18513700  0.72392000  1
  H  H4  1  0.62807200  0.44293500  0.72392000  1
  H  H5  1  0.81486300  0.37192800  0.72392000  1
  H  H6  1  0.44293500  0.62807200  0.77608000  1
  H  H7  1  0.18513700  0.55706500  0.77608000  1
  H  H8  1  0.37192800  0.81486300  0.77608000  1
  H  H9  1  0.44293500  0.81486300  0.27608000  1
  H  H10  1  0.37192800  0.55706500  0.27608000  1
  H  H11  1  0.18513700  0.62807200  0.27608000  1
  H  H12  1  0.44938800  0.29594000  0.12595200  1
  H  H13  1  0.84655200  0.55061200  0.12595200  1
  H  H14  1  0.70406000  0.15344800  0.12595200  1
  H  H15  1  0.44938800  0.15344800  0.62595200  1
  H  H16  1  0.70406000  0.55061200  0.62595200  1
  H  H17  1  0.84655200  0.29594000  0.62595200  1
  H  H18  1  0.55061200  0.70406000  0.87404800  1
  H  H19  1  0.15344800  0.44938800  0.87404800  1
  H  H20  1  0.29594000  0.84655200  0.87404800  1
  H  H21  1  0.55061200  0.84655200  0.37404800  1
  H  H22  1  0.29594000  0.44938800  0.37404800  1
  H  H23  1  0.15344800  0.70406000  0.37404800  1
  H  H24  1  0.59013000  0.48563000  0.12794700  1
  H  H25  1  0.89550000  0.40987000  0.12794700  1
  H  H26  1  0.51437000  0.10450000  0.12794700  1
  H  H27  1  0.59013000  0.10450000  0.62794700  1
  H  H28  1  0.51437000  0.40987000  0.62794700  1
  H  H29  1  0.89550000  0.48563000  0.62794700  1
  H  H30  1  0.40987000  0.51437000  0.87205300  1
  H  H31  1  0.10450000  0.59013000  0.87205300  1
  H  H32  1  0.48563000  0.89550000  0.87205300  1
  H  H33  1  0.40987000  0.89550000  0.37205300  1
  H  H34  1  0.48563000  0.59013000  0.37205300  1
  H  H35  1  0.10450000  0.51437000  0.37205300  1
  H  H36  1  0.55561000  0.25598300  0.99604700  1
  H  H37  1  0.70037200  0.44439000  0.99604700  1
  H  H38  1  0.74401700  0.29962800  0.99604700  1
  H  H39  1  0.55561000  0.29962800  0.49604700  1
  H  H40  1  0.74401700  0.44439000  0.49604700  1
  H  H41  1  0.70037200  0.25598300  0.49604700  1
  H  H42  1  0.44439000  0.74401700  0.00395300  1
  H  H43  1  0.29962800  0.55561000  0.00395300  1
  H  H44  1  0.25598300  0.70037200  0.00395300  1
  H  H45  1  0.44439000  0.70037200  0.50395300  1
  H  H46  1  0.25598300  0.55561000  0.50395300  1
  H  H47  1  0.29962800  0.74401700  0.50395300  1
  C  C0  1  0.55789400  0.37544600  0.15149700  1
  C  C1  1  0.81755200  0.44210600  0.15149700  1
  C  C2  1  0.62455400  0.18244800  0.15149700  1
  C  C3  1  0.55789400  0.18244800  0.65149700  1
  C  C4  1  0.62455400  0.44210600  0.65149700  1
  C  C5  1  0.81755200  0.37544600  0.65149700  1
  C  C6  1  0.44210600  0.62455400  0.84850300  1
  C  C7  1  0.18244800  0.55789400  0.84850300  1
  C  C8  1  0.37544600  0.81755200  0.84850300  1
  C  C9  1  0.44210600  0.81755200  0.34850300  1
  C  C10  1  0.37544600  0.55789400  0.34850300  1
  C  C11  1  0.18244800  0.62455400  0.34850300  1
  C  C12  1  0.66666700  0.33333300  0.01918700  1
  C  C13  1  0.66666700  0.33333300  0.51918700  1
  C  C14  1  0.33333300  0.66666700  0.98081300  1
  C  C15  1  0.33333300  0.66666700  0.48081300  1
  N  N0  1  0.66666700  0.33333300  0.11838500  1
  N  N1  1  0.66666700  0.33333300  0.61838500  1
  N  N2  1  0.33333300  0.66666700  0.88161500  1
  N  N3  1  0.33333300  0.66666700  0.38161500  1
  O  O0  1  0.77661400  0.14070700  0.84606900  1
  O  O1  1  0.36409300  0.22338600  0.84606900  1
  O  O2  1  0.85929300  0.63590700  0.84606900  1
  O  O3  1  0.77661400  0.63590700  0.34606900  1
  O  O4  1  0.85929300  0.22338600  0.34606900  1
  O  O5  1  0.36409300  0.14070700  0.34606900  1
  O  O6  1  0.22338600  0.85929300  0.15393100  1
  O  O7  1  0.63590700  0.77661400  0.15393100  1
  O  O8  1  0.14070700  0.36409300  0.15393100  1
  O  O9  1  0.22338600  0.36409300  0.65393100  1
  O  O10  1  0.14070700  0.77661400  0.65393100  1
  O  O11  1  0.63590700  0.85929300  0.65393100  1
  O  O12  1  0.95541900  0.23088700  0.00169700  1
  O  O13  1  0.27546800  0.04458100  0.00169700  1
  O  O14  1  0.76911300  0.72453200  0.00169700  1
  O  O15  1  0.95541900  0.72453200  0.50169700  1
  O  O16  1  0.76911300  0.04458100  0.50169700  1
  O  O17  1  0.27546800  0.23088700  0.50169700  1
  O  O18  1  0.04458100  0.76911300  0.99830300  1
  O  O19  1  0.72453200  0.95541900  0.99830300  1
  O  O20  1  0.23088700  0.27546800  0.99830300  1
  O  O21  1  0.04458100  0.27546800  0.49830300  1
  O  O22  1  0.23088700  0.95541900  0.49830300  1
  O  O23  1  0.72453200  0.76911300  0.49830300  1
  O  O24  1  0.06450500  0.16951300  0.85552200  1
  O  O25  1  0.10500800  0.93549500  0.85552200  1
  O  O26  1  0.83048700  0.89499200  0.85552200  1
  O  O27  1  0.06450500  0.89499200  0.35552200  1
  O  O28  1  0.83048700  0.93549500  0.35552200  1
  O  O29  1  0.10500800  0.16951300  0.35552200  1
  O  O30  1  0.93549500  0.83048700  0.14447800  1
  O  O31  1  0.89499200  0.06450500  0.14447800  1
  O  O32  1  0.16951300  0.10500800  0.14447800  1
  O  O33  1  0.93549500  0.10500800  0.64447800  1
  O  O34  1  0.16951300  0.06450500  0.64447800  1
  O  O35  1  0.89499200  0.83048700  0.64447800  1
  O  O36  1  0.00000000  0.00000000  0.00000000  1
  O  O37  1  0.00000000  0.00000000  0.50000000  1
loop_
_geom_bond_atom_site_label_1
_geom_bond_atom_site_label_2
_geom_bond_distance
_geom_bond_site_symmetry_2
Mo0 O0 1.719961 1_555
Mo0 O24 1.928441 1_655
Mo0 O12 1.942127 1_556
Mo0 O26 1.969939 1_545
Mo0 O19 1.985063 1_545
Mo0 O36 2.357410 1_656
Mo1 O1 1.719961 1_555
Mo1 O25 1.928440 1_545
Mo1 O13 1.942127 1_556
Mo1 O24 1.969939 1_555
Mo1 O20 1.985063 1_555
Mo1 O36 2.357410 1_556
Mo2 O2 1.719961 1_555
Mo2 O26 1.928441 1_555
Mo2 O14 1.942127 1_556
Mo2 O25 1.969939 1_655
Mo2 O18 1.985063 1_655
Mo2 O36 2.357410 1_666
Mo3 O3 1.719961 1_555
Mo3 O27 1.928440 1_655
Mo3 O15 1.942127 1_555
Mo3 O28 1.969939 1_555
Mo3 O23 1.985063 1_555
Mo3 O37 2.357410 1_665
Mo4 O4 1.719961 1_555
Mo4 O28 1.928441 1_545
Mo4 O16 1.942127 1_555
Mo4 O29 1.969939 1_655
Mo4 O21 1.985063 1_655
Mo4 O37 2.357410 1_655
Mo5 O5 1.719961 1_555
Mo5 O29 1.928441 1_555
Mo5 O17 1.942127 1_555
Mo5 O27 1.969939 1_545
Mo5 O22 1.985063 1_545
Mo5 O37 2.357410 1_555
Mo6 O6 1.719961 1_555
Mo6 O30 1.928441 1_455
Mo6 O18 1.942127 1_554
Mo6 O32 1.969939 1_565
Mo6 O13 1.985063 1_565
Mo6 O36 2.357410 1_565
Mo7 O7 1.719961 1_555
Mo7 O31 1.928440 1_565
Mo7 O19 1.942127 1_554
Mo7 O30 1.969939 1_555
Mo7 O14 1.985063 1_555
Mo7 O36 2.357410 1_665
Mo8 O8 1.719961 1_555
Mo8 O32 1.928441 1_555
Mo8 O20 1.942127 1_554
Mo8 O31 1.969939 1_455
Mo8 O12 1.985063 1_455
Mo8 O36 2.357410 1_555
Mo9 O9 1.719961 1_555
Mo9 O33 1.928440 1_455
Mo9 O21 1.942127 1_555
Mo9 O34 1.969939 1_555
Mo9 O17 1.985063 1_555
Mo9 O37 2.357410 1_555
Mo10 O10 1.719961 1_555
Mo10 O34 1.928441 1_565
Mo10 O22 1.942127 1_555
Mo10 O35 1.969939 1_455
Mo10 O15 1.985063 1_455
Mo10 O37 2.357410 1_565
Mo11 O11 1.719961 1_555
Mo11 O35 1.928441 1_555
Mo11 O23 1.942127 1_555
Mo11 O33 1.969939 1_565
Mo11 O16 1.985063 1_565
Mo11 O37 2.357410 1_665
C0 H24 1.092258 1_555
C0 H12 1.094412 1_555
C0 H0 1.096162 1_555
C0 N0 1.504883 1_555
C1 H25 1.092258 1_555
C1 H13 1.094412 1_555
C1 H1 1.096162 1_555
C1 N0 1.504876 1_555
C2 H26 1.092258 1_555
C2 H14 1.094412 1_555
C2 H2 1.096162 1_555
C2 N0 1.504873 1_555
C3 H27 1.092258 1_555
C3 H15 1.094412 1_555
C3 H3 1.096162 1_555
C3 N1 1.504876 1_555
C4 H28 1.092258 1_555
C4 H16 1.094412 1_555
C4 H4 1.096162 1_555
C4 N1 1.504883 1_555
C5 H29 1.092258 1_555
C5 H17 1.094412 1_555
C5 H5 1.096162 1_555
C5 N1 1.504873 1_555
C6 H30 1.092258 1_555
C6 H18 1.094412 1_555
C6 H6 1.096162 1_555
C6 N2 1.504883 1_555
C7 H31 1.092258 1_555
C7 H19 1.094412 1_555
C7 H7 1.096162 1_555
C7 N2 1.504876 1_555
C8 H32 1.092258 1_555
C8 H20 1.094412 1_555
C8 H8 1.096162 1_555
C8 N2 1.504873 1_555
C9 H33 1.092258 1_555
C9 H21 1.094412 1_555
C9 H9 1.096162 1_555
C9 N3 1.504876 1_555
C10 H34 1.092258 1_555
C10 H22 1.094412 1_555
C10 H10 1.096162 1_555
C10 N3 1.504883 1_555
C11 H35 1.092258 1_555
C11 H23 1.094412 1_555
C11 H11 1.096162 1_555
C11 N3 1.504873 1_555
C12 H38 1.095234 1_554
C12 H36 1.095248 1_554
C12 H37 1.095253 1_554
C12 N0 1.500714 1_555
C13 H41 1.095234 1_555
C13 H40 1.095248 1_555
C13 H39 1.095253 1_555
C13 N1 1.500714 1_555
C14 H44 1.095234 1_556
C14 H42 1.095248 1_556
C14 H43 1.095253 1_556
C14 N2 1.500714 1_555
C15 H47 1.095234 1_555
C15 H46 1.095248 1_555
C15 H45 1.095253 1_555
C15 N3 1.500714 1_555
