# generated using pymatgen
data_Li9Mn2Co5O16
_symmetry_space_group_name_H-M   'P 1'
_cell_length_a   6.45596214
_cell_length_b   6.44167327
_cell_length_c   7.85919496
_cell_angle_alpha   87.50668581
_cell_angle_beta   113.92324220
_cell_angle_gamma   108.18594265
_symmetry_Int_Tables_number   1
_chemical_formula_structural   Li9Mn2Co5O16
_chemical_formula_sum   'Li9 Mn2 Co5 O16'
_cell_volume   282.53798273
_cell_formula_units_Z   1
loop_
 _symmetry_equiv_pos_site_id
 _symmetry_equiv_pos_as_xyz
  1  'x, y, z'
loop_
 _atom_site_type_symbol
 _atom_site_label
 _atom_site_symmetry_multiplicity
 _atom_site_fract_x
 _atom_site_fract_y
 _atom_site_fract_z
 _atom_site_occupancy
  Li  Li0  1  0.87006316  0.06292392  0.31274942  1
  Li  Li1  1  0.86553084  0.55892118  0.80667050  1
  Li  Li2  1  0.13317231  0.93287139  0.69248323  1
  Li  Li3  1  0.12543736  0.43929351  0.18767730  1
  Li  Li4  1  0.37776991  0.80767354  0.05203347  1
  Li  Li5  1  0.38368738  0.32503470  0.57557942  1
  Li  Li6  1  0.62442751  0.68347458  0.43671771  1
  Li  Li7  1  0.62211673  0.18893899  0.93891180  1
  Li  Li8  1  0.49726278  0.74520244  0.75192463  1
  Mn  Mn0  1  0.99584791  0.00073846  0.99484836  1
  Mn  Mn1  1  0.25302875  0.87257944  0.37855227  1
  Co  Co0  1  0.00741410  0.50549875  0.50973083  1
  Co  Co1  1  0.25260516  0.37840803  0.87351470  1
  Co  Co2  1  0.50064966  0.25161239  0.24866703  1
  Co  Co3  1  0.74334104  0.62074015  0.11641745  1
  Co  Co4  1  0.74965699  0.12613591  0.62337374  1
  O  O0  1  0.71218518  0.90019058  0.04149865  1
  O  O1  1  0.69918530  0.39488623  0.52979106  1
  O  O2  1  0.96264657  0.77735442  0.41664722  1
  O  O3  1  0.95177474  0.27149974  0.91162238  1
  O  O4  1  0.18745177  0.63634280  0.78646872  1
  O  O5  1  0.18839158  0.13846519  0.26204436  1
  O  O6  1  0.45875046  0.52286238  0.16341389  1
  O  O7  1  0.43539499  0.02302601  0.62385900  1
  O  O8  1  0.04114199  0.22822047  0.58771888  1
  O  O9  1  0.05975461  0.73592002  0.10815677  1
  O  O10  1  0.29673951  0.10277194  0.96701375  1
  O  O11  1  0.29345334  0.60066659  0.45878405  1
  O  O12  1  0.54181299  0.97310111  0.33504410  1
  O  O13  1  0.54847606  0.46362302  0.84933318  1
  O  O14  1  0.82744781  0.87376996  0.74095623  1
  O  O15  1  0.79338152  0.35725815  0.21779788  1
loop_
_geom_bond_atom_site_label_1
_geom_bond_atom_site_label_2
_geom_bond_distance
_geom_bond_site_symmetry_2
Li0 O12 2.093638 1_545
Li0 O0 2.108943 1_545
Li0 O8 2.134029 1_655
Li0 O15 2.135407 1_555
Li0 O2 2.137230 1_545
Li0 O5 2.154575 1_655
Li1 O4 2.051107 1_655
Li1 O13 2.105567 1_555
Li1 O3 2.134587 1_555
Li1 O14 2.134883 1_555
Li1 O1 2.145103 1_555
Li1 O9 2.327995 1_656
Li2 O14 2.076994 1_455
Li2 O4 2.098135 1_555
Li2 O2 2.116622 1_455
Li2 O7 2.134007 1_565
Li2 O10 2.145770 1_565
Li2 O8 2.196167 1_565
Li3 O9 2.099613 1_555
Li3 O11 2.100343 1_555
Li3 O5 2.112445 1_555
Li3 O6 2.134814 1_555
Li3 O3 2.146428 1_454
Li3 O15 2.150459 1_455
Li4 O4 2.087576 1_554
Li4 O0 2.088235 1_555
Li4 O6 2.119762 1_555
Li4 O10 2.135506 1_564
Li4 O9 2.178936 1_555
Li4 O12 2.189913 1_555
Li5 O13 2.067754 1_555
Li5 O7 2.068472 1_555
Li5 O11 2.098713 1_555
Li5 O1 2.118722 1_555
Li5 O8 2.143280 1_555
Li5 O5 2.428599 1_555
Li6 O1 2.092668 1_555
Li6 O11 2.112195 1_555
Li6 O6 2.113635 1_555
Li6 O12 2.132959 1_555
Li6 O2 2.145970 1_555
Li6 O14 2.376588 1_555
Li7 O13 1.999446 1_555
Li7 O10 2.099353 1_555
Li7 O3 2.124167 1_555
Li7 O0 2.147617 1_546
Li7 O15 2.166838 1_556
Li7 O7 2.394069 1_555
Li8 O13 2.008397 1_555
Li8 O4 2.028374 1_555
Li8 O14 2.068369 1_555
Li8 O7 2.082987 1_565
Li8 O11 2.206647 1_555
Li8 O0 2.207560 1_556
Mn0 O3 1.900118 1_555
Mn0 O14 1.913123 1_545
Mn0 O0 1.921233 1_546
Mn0 O10 1.946408 1_655
Mn0 O9 1.970384 1_646
Mn0 O5 2.024528 1_656
Mn1 O11 1.894598 1_555
Mn1 O7 1.910933 1_565
Mn1 O2 1.924011 1_455
Mn1 O12 1.938126 1_555
Mn1 O5 1.986420 1_565
Mn1 O9 2.043155 1_555
Co0 O8 1.911190 1_555
Co0 O2 1.928320 1_455
Co0 O11 1.953960 1_555
Co0 O1 1.962634 1_455
Co0 O4 2.071105 1_555
Co0 O15 2.209314 1_455
Co1 O4 1.873392 1_555
Co1 O13 1.901811 1_555
Co1 O10 1.950955 1_555
Co1 O3 1.988677 1_455
Co1 O8 2.173137 1_555
Co1 O6 2.186394 1_556
Co2 O6 1.902983 1_555
Co2 O15 1.910043 1_555
Co2 O12 1.948207 1_545
Co2 O5 1.963241 1_555
Co2 O1 2.125656 1_555
Co2 O10 2.141403 1_554
Co3 O15 1.906766 1_555
Co3 O0 1.914510 1_555
Co3 O6 1.927866 1_555
Co3 O9 1.971005 1_655
Co3 O13 2.064334 1_554
Co3 O2 2.279475 1_555
Co4 O1 1.921234 1_555
Co4 O8 1.921298 1_655
Co4 O7 1.929342 1_555
Co4 O14 1.936871 1_545
Co4 O3 2.176233 1_555
Co4 O12 2.193145 1_545
