# generated using pymatgen
data_Ba2BiIrO6
_symmetry_space_group_name_H-M   'P 1'
_cell_length_a   6.04367900
_cell_length_b   6.05748005
_cell_length_c   6.05869463
_cell_angle_alpha   60.54117024
_cell_angle_beta   60.72345120
_cell_angle_gamma   60.22138201
_symmetry_Int_Tables_number   1
_chemical_formula_structural   Ba2BiIrO6
_chemical_formula_sum   'Ba2 Bi1 Ir1 O6'
_cell_volume   158.58988309
_cell_formula_units_Z   1
loop_
 _symmetry_equiv_pos_site_id
 _symmetry_equiv_pos_as_xyz
  1  'x, y, z'
loop_
 _atom_site_type_symbol
 _atom_site_label
 _atom_site_symmetry_multiplicity
 _atom_site_fract_x
 _atom_site_fract_y
 _atom_site_fract_z
 _atom_site_occupancy
  Ba  Ba0  1  0.75250400  0.24652500  0.74574400  1
  Ba  Ba1  1  0.24749600  0.75347500  0.25425600  1
  Bi  Bi0  1  0.00000000  0.50000000  0.00000000  1
  Ir  Ir0  1  0.50000000  0.00000000  0.50000000  1
  O  O0  1  0.76060000  0.20288900  0.28470000  1
  O  O1  1  0.23940000  0.79711100  0.71530000  1
  O  O2  1  0.75320800  0.72739900  0.31062200  1
  O  O3  1  0.24679200  0.27260100  0.68937800  1
  O  O4  1  0.67915100  0.78283100  0.78259200  1
  O  O5  1  0.32084900  0.21716900  0.21740800  1
loop_
_geom_bond_atom_site_label_1
_geom_bond_atom_site_label_2
_geom_bond_distance
_geom_bond_site_symmetry_2
Ba0 O5 2.770055 1_556
Ba0 O2 2.807667 1_555
Ba0 O1 2.847820 1_645
Ba0 O0 2.907685 1_555
Ba0 O3 2.912644 1_655
Ba0 O4 2.942637 1_545
Ba0 O3 3.157717 1_555
Ba0 O4 3.160095 1_555
Ba0 O0 3.166917 1_556
Ba0 O1 3.233411 1_555
Ba0 O2 3.319162 1_546
Ba0 O5 3.357977 1_655
Ba1 O4 2.770055 1_554
Ba1 O3 2.807667 1_555
Ba1 O0 2.847820 1_465
Ba1 O1 2.907685 1_555
Ba1 O2 2.912644 1_455
Ba1 O5 2.942637 1_565
Ba1 O2 3.157717 1_555
Ba1 O5 3.160095 1_555
Ba1 O1 3.166917 1_554
Ba1 O0 3.233411 1_555
Ba1 O3 3.319162 1_564
Ba1 O4 3.357977 1_455
Bi0 O1 2.323773 1_554
Bi0 O0 2.323773 1_455
Bi0 O4 2.325714 1_454
Bi0 O5 2.325714 1_555
Bi0 O2 2.329703 1_455
Bi0 O3 2.329703 1_554
Ir0 O4 2.004296 1_545
Ir0 O5 2.004296 1_555
Ir0 O3 2.005310 1_555
Ir0 O2 2.005310 1_545
Ir0 O0 2.007241 1_555
Ir0 O1 2.007241 1_545
