# generated using pymatgen
data_Rb3FeO3
_symmetry_space_group_name_H-M   'P 1'
_cell_length_a   14.88762200
_cell_length_b   6.67027000
_cell_length_c   6.84946883
_cell_angle_alpha   61.28513975
_cell_angle_beta   90.00000000
_cell_angle_gamma   90.00000000
_symmetry_Int_Tables_number   1
_chemical_formula_structural   Rb3FeO3
_chemical_formula_sum   'Rb12 Fe4 O12'
_cell_volume   596.53498978
_cell_formula_units_Z   4
loop_
 _symmetry_equiv_pos_site_id
 _symmetry_equiv_pos_as_xyz
  1  'x, y, z'
loop_
 _atom_site_type_symbol
 _atom_site_label
 _atom_site_symmetry_multiplicity
 _atom_site_fract_x
 _atom_site_fract_y
 _atom_site_fract_z
 _atom_site_occupancy
  Rb  Rb0  1  0.22789000  0.29338900  0.55443700  1
  Rb  Rb1  1  0.48486000  0.22529300  0.53063200  1
  Rb  Rb2  1  0.98486000  0.27470700  0.46936800  1
  Rb  Rb3  1  0.72789000  0.20661100  0.44556300  1
  Rb  Rb4  1  0.59083200  0.68772100  0.02859000  1
  Rb  Rb5  1  0.09083200  0.81227900  0.97141000  1
  Rb  Rb6  1  0.90916800  0.18772100  0.02859000  1
  Rb  Rb7  1  0.40916800  0.31227900  0.97141000  1
  Rb  Rb8  1  0.27211000  0.79338900  0.55443700  1
  Rb  Rb9  1  0.01514000  0.72529300  0.53063200  1
  Rb  Rb10  1  0.51514000  0.77470700  0.46936800  1
  Rb  Rb11  1  0.77211000  0.70661100  0.44556300  1
  Fe  Fe0  1  0.32432900  0.73791700  0.07218800  1
  Fe  Fe1  1  0.82432900  0.76208300  0.92781200  1
  Fe  Fe2  1  0.17567100  0.23791700  0.07218800  1
  Fe  Fe3  1  0.67567100  0.26208300  0.92781200  1
  O  O0  1  0.37483000  0.58890500  0.36020800  1
  O  O1  1  0.90992900  0.68149000  0.15957300  1
  O  O2  1  0.74255100  0.98947600  0.95416600  1
  O  O3  1  0.12517000  0.08890500  0.36020800  1
  O  O4  1  0.24255100  0.51052400  0.04583400  1
  O  O5  1  0.59007100  0.18149000  0.15957300  1
  O  O6  1  0.40992900  0.81851000  0.84042700  1
  O  O7  1  0.75744900  0.48947600  0.95416600  1
  O  O8  1  0.87483000  0.91109500  0.63979200  1
  O  O9  1  0.25744900  0.01052400  0.04583400  1
  O  O10  1  0.09007100  0.31851000  0.84042700  1
  O  O11  1  0.62517000  0.41109500  0.63979200  1
loop_
_geom_bond_atom_site_label_1
_geom_bond_atom_site_label_2
_geom_bond_distance
_geom_bond_site_symmetry_2
Fe0 O0 1.887033 1_555
Fe0 O6 1.900788 1_554
Fe0 O9 2.003749 1_565
Fe0 O4 2.019537 1_555
Fe1 O8 1.887033 1_555
Fe1 O1 1.900788 1_556
Fe1 O7 2.003749 1_555
Fe1 O2 2.019537 1_555
Fe2 O3 1.887033 1_555
Fe2 O10 1.900788 1_554
Fe2 O4 2.003749 1_555
Fe2 O9 2.019537 1_555
Fe3 O11 1.887033 1_555
Fe3 O5 1.900788 1_556
Fe3 O2 2.003749 1_545
Fe3 O7 2.019537 1_555
O0 Rb1 2.684765 1_555
O0 Rb10 2.710880 1_555
O0 Rb8 2.777142 1_555
O0 Rb0 2.814441 1_555
O1 Rb2 2.752612 1_555
O1 Rb11 2.896647 1_555
O1 Rb5 2.931746 1_654
O1 Rb6 3.048953 1_565
O1 Rb9 3.116386 1_655
O2 Rb4 2.902951 1_556
O2 Rb6 2.968034 1_566
O2 Rb11 2.996668 1_556
O2 Rb3 3.071313 1_565
O3 Rb9 2.684765 1_545
O3 Rb2 2.710880 1_455
O3 Rb0 2.777142 1_555
O3 Rb8 2.814441 1_545
O4 Rb5 2.902951 1_554
O4 Rb7 2.968034 1_554
O4 Rb8 2.996668 1_554
O4 Rb0 3.071313 1_555
O5 Rb10 2.752612 1_545
O5 Rb3 2.896647 1_555
O5 Rb7 2.931746 1_554
O5 Rb4 3.048953 1_555
O5 Rb1 3.116386 1_555
O6 Rb1 2.752612 1_565
O6 Rb8 2.896647 1_555
O6 Rb4 2.931746 1_556
O6 Rb7 3.048953 1_555
O6 Rb10 3.116386 1_555
O7 Rb6 2.902951 1_556
O7 Rb4 2.968034 1_556
O7 Rb3 2.996668 1_556
O7 Rb11 3.071313 1_555
O8 Rb2 2.684765 1_565
O8 Rb9 2.710880 1_655
O8 Rb11 2.777142 1_555
O8 Rb3 2.814441 1_565
O9 Rb7 2.902951 1_554
O9 Rb5 2.968034 1_544
O9 Rb0 2.996668 1_554
O9 Rb8 3.071313 1_545
O10 Rb9 2.752612 1_555
O10 Rb0 2.896647 1_555
O10 Rb6 2.931746 1_456
O10 Rb5 3.048953 1_545
O10 Rb2 3.116386 1_455
O11 Rb10 2.684765 1_555
O11 Rb1 2.710880 1_555
O11 Rb3 2.777142 1_555
O11 Rb11 2.814441 1_555
