# generated using pymatgen
data_Y5BiPd2
_symmetry_space_group_name_H-M   'P 1'
_cell_length_a   8.82701208
_cell_length_b   8.82701208
_cell_length_c   8.82701208
_cell_angle_alpha   127.31051332
_cell_angle_beta   127.31051332
_cell_angle_gamma   77.74466255
_symmetry_Int_Tables_number   1
_chemical_formula_structural   Y5BiPd2
_chemical_formula_sum   'Y10 Bi2 Pd4'
_cell_volume   421.79721757
_cell_formula_units_Z   2
loop_
 _symmetry_equiv_pos_site_id
 _symmetry_equiv_pos_as_xyz
  1  'x, y, z'
loop_
 _atom_site_type_symbol
 _atom_site_label
 _atom_site_symmetry_multiplicity
 _atom_site_fract_x
 _atom_site_fract_y
 _atom_site_fract_z
 _atom_site_occupancy
  Y  Y0  1  0.00000000  0.00000000  0.00000000  1
  Y  Y1  1  0.50000000  0.50000000  0.00000000  1
  Y  Y2  1  0.79462144  0.29462144  0.80860713  1
  Y  Y3  1  0.20537856  0.70537856  0.19139287  1
  Y  Y4  1  0.48601331  0.98601331  0.19139287  1
  Y  Y5  1  0.29462144  0.48601331  0.50000000  1
  Y  Y6  1  0.01398669  0.20537856  0.50000000  1
  Y  Y7  1  0.51398669  0.01398669  0.80860713  1
  Y  Y8  1  0.70537856  0.51398669  0.50000000  1
  Y  Y9  1  0.98601331  0.79462144  0.50000000  1
  Bi  Bi0  1  0.25000000  0.25000000  0.00000000  1
  Bi  Bi1  1  0.75000000  0.75000000  0.00000000  1
  Pd  Pd0  1  0.13762355  0.63762355  0.77524711  1
  Pd  Pd1  1  0.86237645  0.36237645  0.22475289  1
  Pd  Pd2  1  0.63762355  0.86237645  0.50000000  1
  Pd  Pd3  1  0.36237645  0.13762355  0.50000000  1
loop_
_geom_bond_atom_site_label_1
_geom_bond_atom_site_label_2
_geom_bond_distance
_geom_bond_site_symmetry_2
Bi0 Y3 3.326997 1_555
Bi0 Y2 3.326997 1_454
Bi0 Y6 3.326998 1_554
Bi0 Y9 3.326998 1_444
Bi0 Y5 3.326998 1_555
Bi0 Y8 3.326998 1_555
Bi0 Y4 3.327003 1_545
Bi0 Y7 3.327003 1_554
Bi0 Y1 3.436119 1_555
Bi0 Y0 3.436119 1_555
Bi1 Y3 3.326997 1_655
Bi1 Y2 3.326997 1_554
Bi1 Y8 3.326998 1_554
Bi1 Y6 3.326998 1_665
Bi1 Y9 3.326998 1_555
Bi1 Y5 3.326998 1_554
Bi1 Y4 3.327003 1_555
Bi1 Y7 3.327003 1_564
Bi1 Y1 3.436119 1_555
Bi1 Y0 3.436119 1_665
Pd0 Y6 2.994526 1_555
Pd0 Y8 2.994526 1_455
Pd0 Y5 2.994526 1_555
Pd0 Y9 2.994526 1_455
Pd0 Y4 3.005658 1_556
Pd0 Y3 3.005666 1_556
Pd0 Y0 3.036827 1_566
Pd0 Y1 3.036827 1_556
Pd1 Y9 2.994526 1_555
Pd1 Y5 2.994526 1_655
Pd1 Y8 2.994526 1_555
Pd1 Y6 2.994526 1_655
Pd1 Y7 3.005658 1_554
Pd1 Y2 3.005666 1_554
Pd1 Y1 3.036827 1_555
Pd1 Y0 3.036827 1_655
Pd2 Y7 2.994518 1_565
Pd2 Y4 2.994518 1_555
Pd2 Y2 2.994527 1_565
Pd2 Y3 2.994527 1_555
Pd2 Y8 3.005658 1_555
Pd2 Y9 3.005658 1_555
Pd2 Y0 3.036827 1_666
Pd2 Y1 3.036827 1_555
Pd3 Y4 2.994518 1_545
Pd3 Y7 2.994518 1_555
Pd3 Y2 2.994527 1_555
Pd3 Y3 2.994527 1_545
Pd3 Y5 3.005658 1_555
Pd3 Y6 3.005658 1_555
Pd3 Y1 3.036827 1_556
Pd3 Y0 3.036827 1_555
