# generated using pymatgen
data_Li4Mn3CoO8
_symmetry_space_group_name_H-M   'P 1'
_cell_length_a   3.07249485
_cell_length_b   6.45044259
_cell_length_c   7.98145056
_cell_angle_alpha   92.93909757
_cell_angle_beta   101.07108529
_cell_angle_gamma   76.22481259
_symmetry_Int_Tables_number   1
_chemical_formula_structural   Li4Mn3CoO8
_chemical_formula_sum   'Li4 Mn3 Co1 O8'
_cell_volume   150.77247835
_cell_formula_units_Z   1
loop_
 _symmetry_equiv_pos_site_id
 _symmetry_equiv_pos_as_xyz
  1  'x, y, z'
loop_
 _atom_site_type_symbol
 _atom_site_label
 _atom_site_symmetry_multiplicity
 _atom_site_fract_x
 _atom_site_fract_y
 _atom_site_fract_z
 _atom_site_occupancy
  Li  Li0  1  0.87537100  0.87575000  0.62651000  1
  Li  Li1  1  0.12462900  0.12424600  0.37349100  1
  Li  Li2  1  0.62290500  0.62907200  0.87502700  1
  Li  Li3  1  0.37709100  0.37093000  0.12497500  1
  Mn  Mn0  1  0.50001400  0.49999600  0.49999700  1
  Mn  Mn1  1  0.74923400  0.74992000  0.24842600  1
  Mn  Mn2  1  0.25075000  0.25009100  0.75157600  1
  Co  Co0  1  0.99999800  0.00000100  0.00000100  1
  O  O0  1  0.81998800  0.29418800  0.93368200  1
  O  O1  1  0.18001000  0.70581300  0.06631600  1
  O  O2  1  0.56936400  0.04429800  0.18291100  1
  O  O3  1  0.43064000  0.95570300  0.81709400  1
  O  O4  1  0.31920500  0.79517600  0.43304600  1
  O  O5  1  0.68079900  0.20481700  0.56695200  1
  O  O6  1  0.06986700  0.54595200  0.68519300  1
  O  O7  1  0.93013500  0.45404800  0.31480400  1
loop_
_geom_bond_atom_site_label_1
_geom_bond_atom_site_label_2
_geom_bond_distance
_geom_bond_site_symmetry_2
Li0 O5 2.116348 1_565
Li0 O6 2.119280 1_655
Li0 O3 2.197543 1_555
Li0 O3 2.198266 1_655
Li0 O4 2.213997 1_555
Li0 O4 2.214256 1_655
Li1 O4 2.116361 1_545
Li1 O7 2.119311 1_455
Li1 O2 2.197524 1_555
Li1 O2 2.198228 1_455
Li1 O5 2.213985 1_555
Li1 O5 2.214227 1_455
Li2 O3 2.098604 1_555
Li2 O0 2.150348 1_555
Li2 O1 2.197139 1_556
Li2 O1 2.197341 1_656
Li2 O6 2.198236 1_555
Li2 O6 2.198689 1_655
Li3 O2 2.098615 1_555
Li3 O1 2.150348 1_555
Li3 O0 2.197169 1_554
Li3 O0 2.197356 1_454
Li3 O7 2.198223 1_555
Li3 O7 2.198643 1_455
Mn0 O4 1.925133 1_555
Mn0 O5 1.925136 1_555
Mn0 O7 2.130230 1_555
Mn0 O6 2.130304 1_555
Mn0 O6 2.132275 1_655
Mn0 O7 2.132305 1_455
Mn1 O2 1.917195 1_565
Mn1 O7 1.928064 1_555
Mn1 O1 2.112467 1_655
Mn1 O1 2.114393 1_555
Mn1 O4 2.126543 1_555
Mn1 O4 2.128764 1_655
Mn2 O3 1.917261 1_545
Mn2 O6 1.928009 1_555
Mn2 O0 2.112414 1_455
Mn2 O0 2.114389 1_555
Mn2 O5 2.126608 1_555
Mn2 O5 2.128771 1_455
Co0 O1 1.917771 1_645
Co0 O0 1.917773 1_554
Co0 O3 2.117210 1_644
Co0 O2 2.117211 1_555
Co0 O3 2.118382 1_544
Co0 O2 2.118410 1_655
