# generated using pymatgen
data_LaZnCrCuO6
_symmetry_space_group_name_H-M   'P 1'
_cell_length_a   5.42548100
_cell_length_b   5.43223100
_cell_length_c   9.29301948
_cell_angle_alpha   54.87227846
_cell_angle_beta   90.00000000
_cell_angle_gamma   90.00000000
_symmetry_Int_Tables_number   1
_chemical_formula_structural   LaZnCrCuO6
_chemical_formula_sum   'La2 Zn2 Cr2 Cu2 O12'
_cell_volume   224.00533106
_cell_formula_units_Z   2
loop_
 _symmetry_equiv_pos_site_id
 _symmetry_equiv_pos_as_xyz
  1  'x, y, z'
loop_
 _atom_site_type_symbol
 _atom_site_label
 _atom_site_symmetry_multiplicity
 _atom_site_fract_x
 _atom_site_fract_y
 _atom_site_fract_z
 _atom_site_occupancy
  La  La0  1  0.29087200  0.74941600  0.24776500  1
  La  La1  1  0.70912800  0.74941600  0.74776500  1
  Zn  Zn0  1  0.78145400  0.25451700  0.23541200  1
  Zn  Zn1  1  0.21854600  0.25451700  0.73541200  1
  Cr  Cr0  1  0.23743400  0.98902500  0.49540700  1
  Cr  Cr1  1  0.76256600  0.98902500  0.99540700  1
  Cu  Cu0  1  0.24311700  0.48884600  0.00061200  1
  Cu  Cu1  1  0.75688300  0.48884600  0.50061200  1
  O  O0  1  0.82238100  0.32207700  0.75251800  1
  O  O1  1  0.98189300  0.13859900  0.07082500  1
  O  O2  1  0.03608700  0.76135500  0.45503300  1
  O  O3  1  0.54634900  0.26424600  0.05395600  1
  O  O4  1  0.54370000  0.91438700  0.43913100  1
  O  O5  1  0.27872200  0.61753200  0.74934000  1
  O  O6  1  0.17761900  0.32207700  0.25251800  1
  O  O7  1  0.01810700  0.13859900  0.57082500  1
  O  O8  1  0.96391300  0.76135500  0.95503300  1
  O  O9  1  0.45365100  0.26424600  0.55395600  1
  O  O10  1  0.45630000  0.91438700  0.93913100  1
  O  O11  1  0.72127800  0.61753200  0.24934000  1
loop_
_geom_bond_atom_site_label_1
_geom_bond_atom_site_label_2
_geom_bond_distance
_geom_bond_site_symmetry_2
La0 O6 2.377061 1_555
La0 O2 2.401841 1_555
La0 O11 2.440160 1_555
La0 O1 2.446011 1_465
La0 O10 2.622398 1_554
La0 O3 2.681395 1_565
La0 O9 2.681867 1_555
La0 O4 2.771521 1_555
La1 O0 2.377061 1_555
La1 O8 2.401841 1_555
La1 O5 2.440160 1_555
La1 O7 2.446011 1_665
La1 O4 2.622398 1_555
La1 O9 2.681395 1_565
La1 O3 2.681867 1_556
La1 O10 2.771521 1_555
Cr0 O7 1.795196 1_565
Cr0 O2 1.843282 1_555
Cr0 O4 1.855521 1_555
Cr0 O6 1.942643 1_565
Cr0 O5 2.052074 1_555
Cr0 O9 2.200797 1_565
Cr1 O1 1.795196 1_566
Cr1 O8 1.843282 1_555
Cr1 O10 1.855521 1_555
Cr1 O0 1.942643 1_565
Cr1 O11 2.052074 1_556
Cr1 O3 2.200797 1_566
Cu0 O3 1.935179 1_555
Cu0 O8 1.985921 1_454
Cu0 O6 1.996635 1_555
Cu0 O5 2.024863 1_554
Cu0 O1 2.150745 1_455
Cu0 O10 2.342639 1_554
Cu1 O9 1.935179 1_555
Cu1 O2 1.985921 1_655
Cu1 O0 1.996635 1_555
Cu1 O11 2.024863 1_555
Cu1 O7 2.150745 1_655
Cu1 O4 2.342639 1_555
O0 Zn1 2.201581 1_655
O1 Zn0 2.242072 1_555
O3 Zn0 2.090646 1_555
O4 Zn0 2.153236 1_565
O5 Zn1 2.075039 1_555
O6 Zn0 2.201581 1_455
O7 Zn1 2.242072 1_555
O9 Zn1 2.090646 1_555
O10 Zn1 2.153236 1_565
O11 Zn0 2.075039 1_555
