# generated using pymatgen
data_NbSb
_symmetry_space_group_name_H-M   'P 1'
_cell_length_a   3.56747527
_cell_length_b   3.56747527
_cell_length_c   7.73405200
_cell_angle_alpha   90.00000000
_cell_angle_beta   90.00000000
_cell_angle_gamma   119.99998645
_symmetry_Int_Tables_number   1
_chemical_formula_structural   NbSb
_chemical_formula_sum   'Nb2 Sb2'
_cell_volume   85.24319538
_cell_formula_units_Z   2
loop_
 _symmetry_equiv_pos_site_id
 _symmetry_equiv_pos_as_xyz
  1  'x, y, z'
loop_
 _atom_site_type_symbol
 _atom_site_label
 _atom_site_symmetry_multiplicity
 _atom_site_fract_x
 _atom_site_fract_y
 _atom_site_fract_z
 _atom_site_occupancy
  Nb  Nb0  1  0.00000000  0.00000000  0.00000000  1
  Nb  Nb1  1  0.00000000  0.00000000  0.50000000  1
  Sb  Sb0  1  0.33333300  0.66666700  0.25000000  1
  Sb  Sb1  1  0.66666700  0.33333300  0.75000000  1
loop_
_geom_bond_atom_site_label_1
_geom_bond_atom_site_label_2
_geom_bond_distance
_geom_bond_site_symmetry_2
Nb0 Sb0 2.825023 1_545
Nb0 Sb1 2.825023 1_454
Nb0 Sb0 2.825026 1_445
Nb0 Sb1 2.825026 1_444
Nb0 Sb1 2.825026 1_554
Nb0 Sb0 2.825026 1_555
Nb1 Sb0 2.825023 1_545
Nb1 Sb1 2.825023 1_455
Nb1 Sb0 2.825026 1_445
Nb1 Sb0 2.825026 1_555
Nb1 Sb1 2.825026 1_445
Nb1 Sb1 2.825026 1_555
