# generated using pymatgen
data_Mg14AlW
_symmetry_space_group_name_H-M   'P 1'
_cell_length_a   6.24653113
_cell_length_b   6.24653064
_cell_length_c   9.96343277
_cell_angle_alpha   90.00000000
_cell_angle_beta   90.00000000
_cell_angle_gamma   120.00000255
_symmetry_Int_Tables_number   1
_chemical_formula_structural   Mg14AlW
_chemical_formula_sum   'Mg14 Al1 W1'
_cell_volume   336.68006192
_cell_formula_units_Z   1
loop_
 _symmetry_equiv_pos_site_id
 _symmetry_equiv_pos_as_xyz
  1  'x, y, z'
loop_
 _atom_site_type_symbol
 _atom_site_label
 _atom_site_symmetry_multiplicity
 _atom_site_fract_x
 _atom_site_fract_y
 _atom_site_fract_z
 _atom_site_occupancy
  Mg  Mg0  1  0.16708181  0.83354041  0.12500000  1
  Mg  Mg1  1  0.16776755  0.83388327  0.62500000  1
  Mg  Mg2  1  0.66645959  0.33291819  0.12500000  1
  Mg  Mg3  1  0.66611673  0.33223245  0.62500000  1
  Mg  Mg4  1  0.66645959  0.83354041  0.12500000  1
  Mg  Mg5  1  0.66611673  0.83388327  0.62500000  1
  Mg  Mg6  1  0.32582289  0.17417711  0.37957595  1
  Mg  Mg7  1  0.32582289  0.17417711  0.87042405  1
  Mg  Mg8  1  0.32582289  0.65164679  0.37957595  1
  Mg  Mg9  1  0.32582289  0.65164679  0.87042405  1
  Mg  Mg10  1  0.84835321  0.17417711  0.37957595  1
  Mg  Mg11  1  0.84835321  0.17417711  0.87042405  1
  Mg  Mg12  1  0.83333300  0.66666700  0.37549476  1
  Mg  Mg13  1  0.83333300  0.66666700  0.87450524  1
  Al  Al0  1  0.16666700  0.33333300  0.12500000  1
  W  W0  1  0.16666700  0.33333300  0.62500000  1
loop_
_geom_bond_atom_site_label_1
_geom_bond_atom_site_label_2
_geom_bond_distance
_geom_bond_site_symmetry_2
Mg0 Mg12 3.080367 1_455
Mg0 Mg13 3.080367 1_454
Mg0 Mg2 3.119379 1_565
Mg0 Mg4 3.119379 1_555
Mg0 Mg2 3.127152 1_455
Mg0 Mg4 3.127152 1_455
Mg0 Mg9 3.135987 1_554
Mg0 Mg8 3.135987 1_555
Mg0 Mg7 3.135993 1_564
Mg0 Mg6 3.135993 1_565
Mg1 Mg8 3.061666 1_555
Mg1 Mg9 3.061666 1_555
Mg1 Mg7 3.061673 1_565
Mg1 Mg6 3.061673 1_565
Mg1 Mg13 3.074566 1_455
Mg1 Mg12 3.074566 1_455
Mg1 W0 3.123271 1_555
Mg1 W0 3.123271 1_565
Mg2 Mg4 3.119379 1_545
Mg2 Mg4 3.127152 1_555
Mg2 Mg7 3.135993 1_554
Mg2 Mg6 3.135993 1_555
Mg3 Mg6 3.061673 1_555
Mg3 Mg7 3.061673 1_555
Mg3 W0 3.123271 1_655
Mg3 W0 3.123271 1_555
Mg4 Mg8 3.135993 1_555
Mg4 Mg9 3.135993 1_554
Mg5 Mg8 3.061673 1_555
Mg5 Mg9 3.061673 1_555
Mg5 W0 3.123271 1_555
Mg5 W0 3.123271 1_665
Mg6 Mg8 2.982529 1_555
Mg6 W0 2.990729 1_555
Mg6 Mg8 3.264002 1_545
Mg7 Mg9 2.982529 1_555
Mg7 W0 2.990729 1_555
Mg7 Mg9 3.264002 1_545
Mg8 W0 2.990735 1_555
Mg9 W0 2.990735 1_555
Mg10 Mg8 2.982529 1_655
Mg10 Mg6 2.982529 1_655
Mg10 W0 2.990735 1_655
Mg10 Mg3 3.061666 1_555
Mg10 Mg5 3.061672 1_545
Mg10 Mg12 3.124587 1_555
Mg10 Mg12 3.124587 1_545
Mg10 Mg2 3.135987 1_555
Mg10 Mg4 3.135993 1_545
Mg10 Mg8 3.264002 1_545
Mg10 Mg6 3.264002 1_555
Mg11 Mg9 2.982529 1_655
Mg11 Mg7 2.982529 1_655
Mg11 W0 2.990735 1_655
Mg11 Mg3 3.061666 1_555
Mg11 Mg5 3.061672 1_545
Mg11 Mg13 3.124587 1_555
Mg11 Mg13 3.124587 1_545
Mg11 Mg2 3.135987 1_556
Mg11 Mg4 3.135993 1_546
Mg11 Mg9 3.264002 1_545
Mg11 Mg7 3.264002 1_555
Mg12 Mg5 3.074560 1_555
Mg12 Mg3 3.074566 1_555
Mg12 Mg4 3.080361 1_555
Mg12 Mg2 3.080367 1_555
Mg12 Mg6 3.124587 1_665
Mg12 Mg6 3.124587 1_555
Mg12 Mg8 3.124587 1_655
Mg12 Mg8 3.124587 1_555
Mg13 Mg5 3.074560 1_555
Mg13 Mg3 3.074566 1_555
Mg13 Mg4 3.080361 1_556
Mg13 Mg2 3.080367 1_556
Mg13 Mg7 3.124587 1_665
Mg13 Mg7 3.124587 1_555
Mg13 Mg9 3.124587 1_655
Mg13 Mg9 3.124587 1_555
Al0 Mg6 3.065732 1_555
Al0 Mg7 3.065732 1_554
Al0 Mg9 3.065738 1_554
Al0 Mg8 3.065738 1_555
Al0 Mg11 3.065739 1_454
Al0 Mg10 3.065739 1_455
Al0 Mg0 3.123266 1_545
Al0 Mg4 3.123266 1_555
Al0 Mg4 3.123266 1_445
Al0 Mg0 3.123266 1_555
Al0 Mg2 3.123266 1_555
Al0 Mg2 3.123266 1_455
