# generated using pymatgen
data_CeMg2
_symmetry_space_group_name_H-M   'P 1'
_cell_length_a   5.84000998
_cell_length_b   5.84000998
_cell_length_c   5.53256400
_cell_angle_alpha   90.00000000
_cell_angle_beta   90.00000000
_cell_angle_gamma   119.99999982
_symmetry_Int_Tables_number   1
_chemical_formula_structural   CeMg2
_chemical_formula_sum   'Ce2 Mg4'
_cell_volume   163.41211769
_cell_formula_units_Z   2
loop_
 _symmetry_equiv_pos_site_id
 _symmetry_equiv_pos_as_xyz
  1  'x, y, z'
loop_
 _atom_site_type_symbol
 _atom_site_label
 _atom_site_symmetry_multiplicity
 _atom_site_fract_x
 _atom_site_fract_y
 _atom_site_fract_z
 _atom_site_occupancy
  Ce  Ce0  1  0.66666700  0.33333300  0.50000000  1
  Ce  Ce1  1  0.33333300  0.66666700  0.50000000  1
  Mg  Mg0  1  0.67389200  0.00000000  0.00000000  1
  Mg  Mg1  1  0.32610800  0.32610800  0.00000000  1
  Mg  Mg2  1  0.00000000  0.67389200  0.00000000  1
  Mg  Mg3  1  0.00000000  0.00000000  0.50000000  1
loop_
_geom_bond_atom_site_label_1
_geom_bond_atom_site_label_2
_geom_bond_distance
_geom_bond_site_symmetry_2
Ce0 Mg3 3.371728 1_655
Ce0 Ce1 3.371728 1_545
Ce0 Ce1 3.371728 1_655
Ce0 Mg3 3.371733 1_555
Ce0 Mg3 3.371733 1_665
Ce0 Ce1 3.371738 1_555
Ce0 Mg0 3.394960 1_555
Ce0 Mg0 3.394960 1_556
Ce0 Mg2 3.394961 1_655
Ce0 Mg2 3.394961 1_656
Ce0 Mg1 3.394963 1_556
Ce0 Mg1 3.394963 1_555
Ce1 Mg3 3.371728 1_565
Ce1 Mg3 3.371733 1_665
Ce1 Mg3 3.371733 1_555
Ce1 Mg2 3.394960 1_555
Ce1 Mg2 3.394960 1_556
Ce1 Mg0 3.394961 1_566
Ce1 Mg0 3.394961 1_565
Ce1 Mg1 3.394963 1_556
Ce1 Mg1 3.394963 1_555
Mg0 Mg2 3.298646 1_645
Mg0 Mg1 3.298646 1_655
Mg0 Mg3 3.358472 1_654
Mg0 Mg3 3.358472 1_655
Mg0 Mg1 3.408862 1_555
Mg0 Mg2 3.408862 1_545
Mg0 Mg2 3.408862 1_655
Mg0 Mg1 3.408862 1_545
Mg1 Mg2 3.298646 1_545
Mg1 Mg3 3.358472 1_555
Mg1 Mg3 3.358472 1_554
Mg1 Mg2 3.408862 1_555
Mg1 Mg2 3.408862 1_655
Mg2 Mg3 3.358472 1_564
Mg2 Mg3 3.358472 1_565
