# generated using pymatgen
data_Pr2NiPtO6
_symmetry_space_group_name_H-M   'P 1'
_cell_length_a   5.80501500
_cell_length_b   5.51600600
_cell_length_c   9.62974700
_cell_angle_alpha   54.99066571
_cell_angle_beta   90.00000000
_cell_angle_gamma   90.00000000
_symmetry_Int_Tables_number   1
_chemical_formula_structural   Pr2NiPtO6
_chemical_formula_sum   'Pr4 Ni2 Pt2 O12'
_cell_volume   252.55613504
_cell_formula_units_Z   2
loop_
 _symmetry_equiv_pos_site_id
 _symmetry_equiv_pos_as_xyz
  1  'x, y, z'
loop_
 _atom_site_type_symbol
 _atom_site_label
 _atom_site_symmetry_multiplicity
 _atom_site_fract_x
 _atom_site_fract_y
 _atom_site_fract_z
 _atom_site_occupancy
  Pr  Pr0  1  0.43521100  0.23290200  0.74937900  1
  Pr  Pr1  1  0.56478900  0.76709800  0.25062100  1
  Pr  Pr2  1  0.93521100  0.76709800  0.75062100  1
  Pr  Pr3  1  0.06478900  0.23290200  0.24937900  1
  Ni  Ni0  1  0.00000000  0.50000000  0.50000000  1
  Ni  Ni1  1  0.50000000  0.50000000  0.00000000  1
  Pt  Pt0  1  0.00000000  0.00000000  0.00000000  1
  Pt  Pt1  1  0.50000000  0.00000000  0.50000000  1
  O  O0  1  0.03046600  0.34845800  0.75075000  1
  O  O1  1  0.96953400  0.65154200  0.24925000  1
  O  O2  1  0.53046600  0.65154200  0.74925000  1
  O  O3  1  0.46953400  0.34845800  0.25075000  1
  O  O4  1  0.70481000  0.85809100  0.94780100  1
  O  O5  1  0.29519000  0.14190900  0.05219900  1
  O  O6  1  0.20481000  0.14190900  0.55219900  1
  O  O7  1  0.79519000  0.85809100  0.44780100  1
  O  O8  1  0.19938200  0.74970900  0.94957100  1
  O  O9  1  0.80061800  0.25029100  0.05042900  1
  O  O10  1  0.69938200  0.25029100  0.55042900  1
  O  O11  1  0.30061800  0.74970900  0.44957100  1
loop_
_geom_bond_atom_site_label_1
_geom_bond_atom_site_label_2
_geom_bond_distance
_geom_bond_site_symmetry_2
Ni0 O0 2.060245 1_555
Ni0 O1 2.060245 1_455
Ni0 O11 2.100213 1_555
Ni0 O10 2.100213 1_455
Ni0 O6 2.104402 1_555
Ni0 O7 2.104402 1_455
Ni1 O3 2.060245 1_555
Ni1 O2 2.060245 1_554
Ni1 O8 2.100213 1_554
Ni1 O9 2.100213 1_555
Ni1 O5 2.104402 1_555
Ni1 O4 2.104402 1_554
O0 Pt0 2.047732 1_556
O0 Pr2 2.373810 1_455
O0 Pr0 2.436495 1_555
O1 Pt0 2.047732 1_665
O1 Pr3 2.373810 1_655
O1 Pr1 2.436495 1_555
O2 Pt1 2.047732 1_565
O2 Pr0 2.373810 1_555
O2 Pr2 2.436495 1_555
O3 Pt1 2.047732 1_555
O3 Pr1 2.373810 1_555
O3 Pr3 2.436495 1_555
O4 Pt0 2.062339 1_666
O4 Pr0 2.417003 1_565
O4 Pr2 2.596099 1_555
O4 Pr1 2.781497 1_556
O5 Pt0 2.062339 1_555
O5 Pr1 2.417003 1_545
O5 Pr3 2.596099 1_555
O5 Pr0 2.781497 1_554
O6 Pt1 2.062339 1_555
O6 Pr2 2.417003 1_445
O6 Pr0 2.596099 1_555
O6 Pr3 2.781497 1_555
O7 Pt1 2.062339 1_565
O7 Pr3 2.417003 1_665
O7 Pr1 2.596099 1_555
O7 Pr2 2.781497 1_555
O8 Pt0 2.061746 1_566
O8 Pr2 2.412562 1_455
O8 Pr0 2.607437 1_565
O8 Pr3 2.762009 1_556
O9 Pt0 2.061746 1_655
O9 Pr3 2.412562 1_655
O9 Pr1 2.607437 1_545
O9 Pr2 2.762009 1_554
O10 Pt1 2.061746 1_555
O10 Pr0 2.412562 1_555
O10 Pr2 2.607437 1_545
O10 Pr1 2.762009 1_555
O11 Pt1 2.061746 1_565
O11 Pr1 2.412562 1_555
O11 Pr3 2.607437 1_565
O11 Pr0 2.762009 1_555
