# generated using pymatgen
data_ThPSe
_symmetry_space_group_name_H-M   'P 1'
_cell_length_a   4.09281088
_cell_length_b   4.09281088
_cell_length_c   8.39447088
_cell_angle_alpha   90.00000000
_cell_angle_beta   90.00000000
_cell_angle_gamma   90.00000000
_symmetry_Int_Tables_number   1
_chemical_formula_structural   ThPSe
_chemical_formula_sum   'Th2 P2 Se2'
_cell_volume   140.61662871
_cell_formula_units_Z   2
loop_
 _symmetry_equiv_pos_site_id
 _symmetry_equiv_pos_as_xyz
  1  'x, y, z'
loop_
 _atom_site_type_symbol
 _atom_site_label
 _atom_site_symmetry_multiplicity
 _atom_site_fract_x
 _atom_site_fract_y
 _atom_site_fract_z
 _atom_site_occupancy
  Th  Th0  1  0.75000000  0.75000000  0.74881151  1
  Th  Th1  1  0.25000000  0.25000000  0.25118849  1
  P  P0  1  0.75000000  0.25000000  -0.00000000  1
  P  P1  1  0.25000000  0.75000000  -0.00000000  1
  Se  Se0  1  0.75000000  0.75000000  0.36895070  1
  Se  Se1  1  0.25000000  0.25000000  0.63104930  1
loop_
_geom_bond_atom_site_label_1
_geom_bond_atom_site_label_2
_geom_bond_distance
_geom_bond_site_symmetry_2
P0 Th1 2.938358 1_555
P0 Th1 2.938358 1_655
P0 Th0 2.938358 1_544
P0 Th0 2.938358 1_554
P1 Th1 2.938358 1_555
P1 Th0 2.938358 1_454
P1 Th0 2.938358 1_554
P1 Th1 2.938358 1_565
Se0 Th1 3.058232 1_665
Se0 Th1 3.058232 1_565
Se0 Th1 3.058232 1_555
Se0 Th1 3.058232 1_655
Se0 Th0 3.188731 1_555
Se1 Th0 3.058232 1_555
Se1 Th0 3.058232 1_445
Se1 Th0 3.058232 1_545
Se1 Th0 3.058232 1_455
Se1 Th1 3.188731 1_555
