# generated using pymatgen
data_Rb2TiCr2(MoO4)6
_symmetry_space_group_name_H-M   'P 1'
_cell_length_a   8.66416300
_cell_length_b   8.67029627
_cell_length_c   8.68319531
_cell_angle_alpha   99.71743255
_cell_angle_beta   99.61638555
_cell_angle_gamma   99.73953766
_symmetry_Int_Tables_number   1
_chemical_formula_structural   Rb2TiCr2(MoO4)6
_chemical_formula_sum   'Rb2 Ti1 Cr2 Mo6 O24'
_cell_volume   620.68520335
_cell_formula_units_Z   1
loop_
 _symmetry_equiv_pos_site_id
 _symmetry_equiv_pos_as_xyz
  1  'x, y, z'
loop_
 _atom_site_type_symbol
 _atom_site_label
 _atom_site_symmetry_multiplicity
 _atom_site_fract_x
 _atom_site_fract_y
 _atom_site_fract_z
 _atom_site_occupancy
  Rb  Rb0  1  0.81387000  0.81471200  0.81156500  1
  Rb  Rb1  1  0.18613000  0.18528800  0.18843500  1
  Ti  Ti0  1  0.50000000  0.50000000  0.00000000  1
  Cr  Cr0  1  0.00000000  0.50000000  0.50000000  1
  Cr  Cr1  1  0.50000000  0.00000000  0.50000000  1
  Mo  Mo0  1  0.78051200  0.31895500  0.77419300  1
  Mo  Mo1  1  0.77481600  0.78050800  0.32017300  1
  Mo  Mo2  1  0.31877600  0.77406400  0.77929000  1
  Mo  Mo3  1  0.21948800  0.68104500  0.22580700  1
  Mo  Mo4  1  0.22518400  0.21949200  0.67982700  1
  Mo  Mo5  1  0.68122400  0.22593600  0.22071000  1
  O  O0  1  0.94410700  0.30976300  0.91616000  1
  O  O1  1  0.91752100  0.94378900  0.31031600  1
  O  O2  1  0.31065900  0.91812400  0.94185100  1
  O  O3  1  0.05589300  0.69023700  0.08384000  1
  O  O4  1  0.08247900  0.05621100  0.68968400  1
  O  O5  1  0.68934100  0.08187600  0.05814900  1
  O  O6  1  0.68350800  0.11603300  0.67737200  1
  O  O7  1  0.67292800  0.68098400  0.11504600  1
  O  O8  1  0.11500700  0.67619700  0.68506500  1
  O  O9  1  0.31649200  0.88396700  0.32262800  1
  O  O10  1  0.32707200  0.31901600  0.88495400  1
  O  O11  1  0.88499300  0.32380300  0.31493500  1
  O  O12  1  0.64378500  0.42202200  0.87210100  1
  O  O13  1  0.86742800  0.64421000  0.41989100  1
  O  O14  1  0.42034400  0.86585700  0.64331400  1
  O  O15  1  0.35621500  0.57797800  0.12789900  1
  O  O16  1  0.13257200  0.35579000  0.58010900  1
  O  O17  1  0.57965600  0.13414300  0.35668600  1
  O  O18  1  0.84188400  0.43742400  0.63392200  1
  O  O19  1  0.63392000  0.84193500  0.43830600  1
  O  O20  1  0.43947500  0.63214000  0.84486100  1
  O  O21  1  0.15811600  0.56257600  0.36607800  1
  O  O22  1  0.36608000  0.15806500  0.56169400  1
  O  O23  1  0.56052500  0.36786000  0.15513900  1
loop_
_geom_bond_atom_site_label_1
_geom_bond_atom_site_label_2
_geom_bond_distance
_geom_bond_site_symmetry_2
Cr0 O13 1.969553 1_455
Cr0 O16 1.969553 1_555
Cr0 O18 2.004278 1_455
Cr0 O21 2.004278 1_555
Cr0 O11 2.007553 1_455
Cr0 O8 2.007553 1_555
Cr1 O17 1.970167 1_555
Cr1 O14 1.970167 1_545
Cr1 O22 2.002328 1_555
Cr1 O19 2.002328 1_545
Cr1 O6 2.007418 1_555
Cr1 O9 2.007418 1_545
Mo0 O0 1.738576 1_555
Mo0 O6 1.809126 1_555
Mo0 O18 1.809767 1_555
Mo0 O12 1.833805 1_555
Mo1 O1 1.739047 1_555
Mo1 O13 1.795614 1_555
Mo1 O19 1.811075 1_555
Mo1 O7 1.842420 1_555
Mo2 O2 1.739319 1_555
Mo2 O14 1.797020 1_555
Mo2 O8 1.811779 1_555
Mo2 O20 1.845247 1_555
Mo3 O3 1.738576 1_555
Mo3 O9 1.809126 1_555
Mo3 O21 1.809767 1_555
Mo3 O15 1.833805 1_555
Mo4 O4 1.739047 1_555
Mo4 O16 1.795614 1_555
Mo4 O22 1.811075 1_555
Mo4 O10 1.842420 1_555
Mo5 O5 1.739319 1_555
Mo5 O17 1.797020 1_555
Mo5 O11 1.811779 1_555
Mo5 O23 1.845247 1_555
O0 Rb1 3.334977 1_656
O1 Rb1 3.292832 1_665
O2 Rb1 3.325263 1_566
O3 Rb0 3.334977 1_454
O4 Rb0 3.292832 1_445
O5 Rb0 3.325263 1_544
O6 Rb0 3.323427 1_545
O7 Ti0 1.969876 1_555
O7 Rb0 3.377463 1_554
O8 Rb0 3.320934 1_455
O9 Rb1 3.323427 1_565
O10 Ti0 1.969876 1_556
O10 Rb1 3.377463 1_556
O11 Rb1 3.320934 1_655
O12 Ti0 1.932917 1_556
O15 Ti0 1.932917 1_555
O18 Rb0 3.439380 1_555
O19 Rb0 3.418424 1_555
O20 Ti0 1.972449 1_556
O20 Rb0 3.441252 1_555
O21 Rb1 3.439380 1_555
O22 Rb1 3.418424 1_555
O23 Ti0 1.972449 1_555
O23 Rb1 3.441252 1_555
