# generated using pymatgen
data_Ca(IO6)2
_symmetry_space_group_name_H-M   'P 1'
_cell_length_a   14.60821595
_cell_length_b   13.28592036
_cell_length_c   7.43134264
_cell_angle_alpha   84.67066890
_cell_angle_beta   64.89763756
_cell_angle_gamma   30.43169354
_symmetry_Int_Tables_number   1
_chemical_formula_structural   Ca(IO6)2
_chemical_formula_sum   'Ca2 I4 O24'
_cell_volume   531.69743201
_cell_formula_units_Z   2
loop_
 _symmetry_equiv_pos_site_id
 _symmetry_equiv_pos_as_xyz
  1  'x, y, z'
loop_
 _atom_site_type_symbol
 _atom_site_label
 _atom_site_symmetry_multiplicity
 _atom_site_fract_x
 _atom_site_fract_y
 _atom_site_fract_z
 _atom_site_occupancy
  Ca  Ca0  1  0.17846600  0.32153400  0.32153400  1
  Ca  Ca1  1  0.92846600  0.07153400  0.07153400  1
  I  I0  1  0.96507900  0.79538400  0.07671100  1
  I  I1  1  0.16282600  0.07671100  0.79538400  1
  I  I2  1  0.45461600  0.28492100  0.08717400  1
  I  I3  1  0.17328900  0.08717400  0.28492100  1
  O  O0  1  0.11358400  0.75652500  0.82388800  1
  O  O1  1  0.30600300  0.82388800  0.75652500  1
  O  O2  1  0.49347500  0.13641600  0.94399700  1
  O  O3  1  0.42611200  0.94399700  0.13641600  1
  O  O4  1  0.68581000  0.00587900  0.12644300  1
  O  O5  1  0.18186800  0.12644300  0.00587900  1
  O  O6  1  0.24412100  0.56419000  0.06813200  1
  O  O7  1  0.12355700  0.06813200  0.56419000  1
  O  O8  1  0.06607400  0.57378600  0.01991500  1
  O  O9  1  0.34022600  0.01991500  0.57378600  1
  O  O10  1  0.67621400  0.18392600  0.90977400  1
  O  O11  1  0.23008500  0.90977400  0.18392600  1
  O  O12  1  0.96954000  0.50055500  0.77926300  1
  O  O13  1  0.75064200  0.77926300  0.50055500  1
  O  O14  1  0.74944500  0.28046000  0.49935800  1
  O  O15  1  0.47073700  0.49935800  0.28046000  1
  O  O16  1  0.19543300  0.47737700  0.40885600  1
  O  O17  1  0.91833400  0.40885600  0.47737700  1
  O  O18  1  0.77262300  0.05456700  0.33166600  1
  O  O19  1  0.84114400  0.33166600  0.05456700  1
  O  O20  1  0.83372500  0.65754400  0.98573900  1
  O  O21  1  0.52299200  0.98573900  0.65754400  1
  O  O22  1  0.59245600  0.41627500  0.72700800  1
  O  O23  1  0.26426100  0.72700800  0.41627500  1
loop_
_geom_bond_atom_site_label_1
_geom_bond_atom_site_label_2
_geom_bond_distance
_geom_bond_site_symmetry_2
Ca0 O3 2.430348 1_545
Ca0 O2 2.430348 1_554
Ca0 O17 2.457766 1_455
Ca0 O16 2.457766 1_555
Ca0 O13 2.592039 1_455
Ca0 O12 2.592039 1_455
Ca1 O1 2.430348 1_644
Ca1 O0 2.430348 1_644
Ca1 O18 2.457766 1_555
Ca1 O19 2.457766 1_555
Ca1 O14 2.592039 1_555
Ca1 O15 2.592039 1_555
I0 O8 1.798541 1_655
I0 O0 1.814728 1_654
I0 O18 1.830041 1_565
I0 O4 1.959337 1_565
I0 O6 2.068632 1_655
I1 O9 1.798551 1_555
I1 O1 1.814728 1_545
I1 O19 1.830041 1_456
I1 O5 1.959337 1_556
I1 O7 2.068632 1_555
I2 O10 1.798541 1_554
I2 O2 1.814728 1_554
I2 O16 1.830041 1_555
I2 O6 1.959337 1_555
I2 O4 2.068632 1_555
I3 O11 1.798553 1_545
I3 O3 1.814728 1_545
I3 O17 1.830041 1_455
I3 O7 1.959337 1_555
I3 O5 2.068632 1_555
O12 O20 1.231435 1_555
O13 O21 1.231435 1_555
O14 O22 1.231435 1_555
O15 O23 1.231435 1_555
