# generated using pymatgen
data_La21Mn8Bi7C12
_symmetry_space_group_name_H-M   'P 1'
_cell_length_a   11.71385174
_cell_length_b   11.71385174
_cell_length_c   11.71385174
_cell_angle_alpha   60.00000000
_cell_angle_beta   60.00000000
_cell_angle_gamma   60.00000000
_symmetry_Int_Tables_number   1
_chemical_formula_structural   La21Mn8Bi7C12
_chemical_formula_sum   'La21 Mn8 Bi7 C12'
_cell_volume   1136.53855021
_cell_formula_units_Z   1
loop_
 _symmetry_equiv_pos_site_id
 _symmetry_equiv_pos_as_xyz
  1  'x, y, z'
loop_
 _atom_site_type_symbol
 _atom_site_label
 _atom_site_symmetry_multiplicity
 _atom_site_fract_x
 _atom_site_fract_y
 _atom_site_fract_z
 _atom_site_occupancy
  La  La0  1  0.00000000  0.00000000  0.34309800  1
  La  La1  1  0.65690200  0.00000000  0.34309800  1
  La  La2  1  0.00000000  0.65690200  0.34309800  1
  La  La3  1  0.65690200  0.34309800  0.00000000  1
  La  La4  1  0.00000000  0.34309800  0.00000000  1
  La  La5  1  0.00000000  0.34309800  0.65690200  1
  La  La6  1  0.34309800  0.65690200  0.00000000  1
  La  La7  1  0.34309800  0.00000000  0.65690200  1
  La  La8  1  0.34309800  0.00000000  0.00000000  1
  La  La9  1  0.00000000  0.00000000  0.65690200  1
  La  La10  1  0.00000000  0.65690200  0.00000000  1
  La  La11  1  0.65690200  0.00000000  0.00000000  1
  La  La12  1  0.63657100  0.63657100  0.09028800  1
  La  La13  1  0.63657100  0.09028800  0.63657100  1
  La  La14  1  0.09028800  0.63657100  0.63657100  1
  La  La15  1  0.63657100  0.63657100  0.63657100  1
  La  La16  1  0.36342900  0.36342900  0.90971200  1
  La  La17  1  0.36342900  0.90971200  0.36342900  1
  La  La18  1  0.90971200  0.36342900  0.36342900  1
  La  La19  1  0.36342900  0.36342900  0.36342900  1
  La  La20  1  0.50000000  0.50000000  0.50000000  1
  Mn  Mn0  1  0.80138300  0.80138300  0.59585000  1
  Mn  Mn1  1  0.80138300  0.59585000  0.80138300  1
  Mn  Mn2  1  0.59585000  0.80138300  0.80138300  1
  Mn  Mn3  1  0.80138300  0.80138300  0.80138300  1
  Mn  Mn4  1  0.19861700  0.19861700  0.40415000  1
  Mn  Mn5  1  0.19861700  0.40415000  0.19861700  1
  Mn  Mn6  1  0.40415000  0.19861700  0.19861700  1
  Mn  Mn7  1  0.19861700  0.19861700  0.19861700  1
  Bi  Bi0  1  0.70914200  0.70914200  0.29085800  1
  Bi  Bi1  1  0.29085800  0.70914200  0.29085800  1
  Bi  Bi2  1  0.70914200  0.29085800  0.29085800  1
  Bi  Bi3  1  0.29085800  0.29085800  0.70914200  1
  Bi  Bi4  1  0.70914200  0.29085800  0.70914200  1
  Bi  Bi5  1  0.29085800  0.70914200  0.70914200  1
  Bi  Bi6  1  0.00000000  0.00000000  0.00000000  1
  C  C0  1  0.89274700  0.89274700  0.60725300  1
  C  C1  1  0.60725300  0.89274700  0.60725300  1
  C  C2  1  0.89274700  0.60725300  0.60725300  1
  C  C3  1  0.60725300  0.60725300  0.89274700  1
  C  C4  1  0.89274700  0.60725300  0.89274700  1
  C  C5  1  0.60725300  0.89274700  0.89274700  1
  C  C6  1  0.10725300  0.10725300  0.39274700  1
  C  C7  1  0.39274700  0.10725300  0.39274700  1
  C  C8  1  0.10725300  0.39274700  0.39274700  1
  C  C9  1  0.39274700  0.39274700  0.10725300  1
  C  C10  1  0.10725300  0.39274700  0.10725300  1
  C  C11  1  0.39274700  0.10725300  0.10725300  1
loop_
_geom_bond_atom_site_label_1
_geom_bond_atom_site_label_2
_geom_bond_distance
_geom_bond_site_symmetry_2
Bi0 La12 3.417939 1_555
Bi0 La17 3.417947 1_555
Bi0 La18 3.417947 1_555
Bi0 La15 3.417950 1_555
Bi0 La10 3.461585 1_655
Bi0 La11 3.461585 1_565
Bi0 La1 3.461585 1_565
Bi0 La2 3.461585 1_655
Bi0 La20 3.464623 1_555
Bi1 La17 3.417939 1_555
Bi1 La12 3.417947 1_555
Bi1 La14 3.417947 1_555
Bi1 La19 3.417950 1_555
Bi1 La2 3.461585 1_555
Bi1 La6 3.461585 1_555
Bi1 La8 3.461585 1_565
Bi1 La0 3.461585 1_565
Bi1 La20 3.464623 1_555
Bi2 La18 3.417939 1_555
Bi2 La12 3.417947 1_555
Bi2 La13 3.417947 1_555
Bi2 La19 3.417950 1_555
Bi2 La3 3.461585 1_555
Bi2 La1 3.461585 1_555
Bi2 La0 3.461585 1_655
Bi2 La4 3.461585 1_655
Bi2 La20 3.464623 1_555
Bi3 La16 3.417939 1_555
Bi3 La13 3.417947 1_555
Bi3 La14 3.417947 1_555
Bi3 La19 3.417950 1_555
Bi3 La5 3.461585 1_555
Bi3 La7 3.461585 1_555
Bi3 La8 3.461585 1_556
Bi3 La4 3.461585 1_556
Bi3 La20 3.464623 1_555
Bi4 La13 3.417939 1_555
Bi4 La18 3.417947 1_555
Bi4 La16 3.417947 1_555
Bi4 La15 3.417950 1_555
Bi4 La9 3.461585 1_655
Bi4 La11 3.461585 1_556
Bi4 La3 3.461585 1_556
Bi4 La5 3.461585 1_655
Bi4 La20 3.464623 1_555
Bi5 La14 3.417939 1_555
Bi5 La17 3.417947 1_555
Bi5 La16 3.417947 1_555
Bi5 La15 3.417950 1_555
Bi5 La10 3.461585 1_556
Bi5 La9 3.461585 1_565
Bi5 La7 3.461585 1_565
Bi5 La6 3.461585 1_556
Bi5 La20 3.464623 1_555
Bi6 La4 4.018999 1_555
Bi6 La8 4.018999 1_555
Bi6 La0 4.018999 1_555
Bi6 La5 4.018999 1_554
Bi6 La2 4.018999 1_545
Bi6 La3 4.018999 1_455
Bi6 La6 4.018999 1_545
Bi6 La1 4.018999 1_455
Bi6 La7 4.018999 1_554
Bi6 La9 4.018999 1_554
Bi6 La10 4.018999 1_545
Bi6 La11 4.018999 1_455
C0 Mn3 1.933872 1_555
C0 Mn0 1.933879 1_555
C0 La0 2.556322 1_665
C0 La9 2.556322 1_665
C0 La14 2.701403 1_655
C0 La13 2.701403 1_565
C1 Mn2 1.933869 1_555
C1 Mn0 1.933869 1_555
C1 La7 2.556322 1_565
C1 La1 2.556322 1_565
C1 La15 2.701399 1_555
C1 La13 2.701411 1_565
C2 Mn1 1.933869 1_555
C2 Mn0 1.933869 1_555
C2 La5 2.556322 1_655
C2 La2 2.556322 1_655
C2 La15 2.701399 1_555
C2 La14 2.701411 1_655
C3 Mn2 1.933869 1_555
C3 Mn1 1.933869 1_555
C3 La3 2.556322 1_556
C3 La6 2.556322 1_556
C3 La15 2.701399 1_555
C3 La12 2.701411 1_556
C4 Mn3 1.933872 1_555
C4 Mn1 1.933879 1_555
C4 La4 2.556322 1_656
C4 La10 2.556322 1_656
C4 La12 2.701403 1_556
C4 La14 2.701403 1_655
C5 Mn3 1.933872 1_555
C5 Mn2 1.933879 1_555
C5 La8 2.556322 1_566
C5 La11 2.556322 1_566
C5 La12 2.701403 1_556
C5 La13 2.701403 1_565
C6 Mn7 1.933872 1_555
C6 Mn4 1.933879 1_555
C6 La0 2.556322 1_555
C6 La9 2.556322 1_555
C6 La17 2.701403 1_545
C6 La18 2.701403 1_455
C7 Mn6 1.933869 1_555
C7 Mn4 1.933869 1_555
C7 La7 2.556322 1_555
C7 La1 2.556322 1_555
C7 La19 2.701399 1_555
C7 La17 2.701411 1_545
C8 Mn5 1.933869 1_555
C8 Mn4 1.933869 1_555
C8 La2 2.556322 1_555
C8 La5 2.556322 1_555
C8 La19 2.701399 1_555
C8 La18 2.701411 1_455
C9 Mn5 1.933869 1_555
C9 Mn6 1.933869 1_555
C9 La6 2.556322 1_555
C9 La3 2.556322 1_555
C9 La19 2.701399 1_555
C9 La16 2.701411 1_554
C10 Mn7 1.933872 1_555
C10 Mn5 1.933879 1_555
C10 La4 2.556322 1_555
C10 La10 2.556322 1_555
C10 La16 2.701403 1_554
C10 La18 2.701403 1_455
C11 Mn7 1.933872 1_555
C11 Mn6 1.933879 1_555
C11 La8 2.556322 1_555
C11 La11 2.556322 1_555
C11 La16 2.701403 1_554
C11 La17 2.701403 1_545
