# generated using pymatgen
data_Ti3Zn3(AsO4)4
_symmetry_space_group_name_H-M   'P 1'
_cell_length_a   4.93760200
_cell_length_b   8.63011700
_cell_length_c   16.28125194
_cell_angle_alpha   76.03540388
_cell_angle_beta   90.00000000
_cell_angle_gamma   90.00000000
_symmetry_Int_Tables_number   1
_chemical_formula_structural   Ti3Zn3(AsO4)4
_chemical_formula_sum   'Ti6 Zn6 As8 O32'
_cell_volume   673.27346748
_cell_formula_units_Z   2
loop_
 _symmetry_equiv_pos_site_id
 _symmetry_equiv_pos_as_xyz
  1  'x, y, z'
loop_
 _atom_site_type_symbol
 _atom_site_label
 _atom_site_symmetry_multiplicity
 _atom_site_fract_x
 _atom_site_fract_y
 _atom_site_fract_z
 _atom_site_occupancy
  Ti  Ti0  1  0.44793600  0.22736300  0.61465900  1
  Ti  Ti1  1  0.55206400  0.77263700  0.38534100  1
  Ti  Ti2  1  0.94793600  0.77263700  0.88534100  1
  Ti  Ti3  1  0.05206400  0.22736300  0.11465900  1
  Ti  Ti4  1  0.00000000  0.50000000  0.50000000  1
  Ti  Ti5  1  0.50000000  0.50000000  0.00000000  1
  Zn  Zn0  1  0.57319200  0.40246700  0.20823200  1
  Zn  Zn1  1  0.07319200  0.59753300  0.29176800  1
  Zn  Zn2  1  0.42680800  0.59753300  0.79176800  1
  Zn  Zn3  1  0.92680800  0.40246700  0.70823200  1
  Zn  Zn4  1  0.50000000  0.00000000  0.50000000  1
  Zn  Zn5  1  0.00000000  0.00000000  0.00000000  1
  As  As0  1  0.94200400  0.10990600  0.32904300  1
  As  As1  1  0.49152100  0.37818500  0.40533900  1
  As  As2  1  0.99152100  0.62181500  0.09466100  1
  As  As3  1  0.00847900  0.37818500  0.90533900  1
  As  As4  1  0.05799600  0.89009400  0.67095700  1
  As  As5  1  0.50847900  0.62181500  0.59466100  1
  As  As6  1  0.55799600  0.10990600  0.82904300  1
  As  As7  1  0.44200400  0.89009400  0.17095700  1
  O  O0  1  0.34793800  0.76971900  0.27524600  1
  O  O1  1  0.71021400  0.70479700  0.99370400  1
  O  O2  1  0.33084300  0.40966000  0.30447400  1
  O  O3  1  0.29976100  0.08000500  0.17736500  1
  O  O4  1  0.66915700  0.59034000  0.69552600  1
  O  O5  1  0.15206200  0.76971900  0.77524600  1
  O  O6  1  0.83084300  0.59034000  0.19552600  1
  O  O7  1  0.70156200  0.51170100  0.88686400  1
  O  O8  1  0.83541000  0.18286900  0.89354800  1
  O  O9  1  0.65206200  0.23028100  0.72475400  1
  O  O10  1  0.20023900  0.08000500  0.67736500  1
  O  O11  1  0.29843800  0.48829900  0.11313600  1
  O  O12  1  0.30514100  0.57783700  0.42656200  1
  O  O13  1  0.16459000  0.81713100  0.10645200  1
  O  O14  1  0.66212800  0.10531700  0.57422700  1
  O  O15  1  0.16212800  0.89468300  0.92577300  1
  O  O16  1  0.80514100  0.42216300  0.07343800  1
  O  O17  1  0.16915700  0.40966000  0.80447400  1
  O  O18  1  0.33541000  0.81713100  0.60645200  1
  O  O19  1  0.20156200  0.48829900  0.61313600  1
  O  O20  1  0.83787200  0.10531700  0.07422700  1
  O  O21  1  0.33787200  0.89468300  0.42577300  1
  O  O22  1  0.28978600  0.29520300  0.00629600  1
  O  O23  1  0.21021400  0.29520300  0.50629600  1
  O  O24  1  0.69485900  0.42216300  0.57343800  1
  O  O25  1  0.84793800  0.23028100  0.22475400  1
  O  O26  1  0.70023900  0.91999500  0.82263500  1
  O  O27  1  0.66459000  0.18286900  0.39354800  1
  O  O28  1  0.78978600  0.70479700  0.49370400  1
  O  O29  1  0.79843800  0.51170100  0.38686400  1
  O  O30  1  0.19485900  0.57783700  0.92656200  1
  O  O31  1  0.79976100  0.91999500  0.32263500  1
loop_
_geom_bond_atom_site_label_1
_geom_bond_atom_site_label_2
_geom_bond_distance
_geom_bond_site_symmetry_2
As0 O31 1.809106 1_545
As0 O25 1.823908 1_555
As0 O27 1.922207 1_555
As1 O2 1.784590 1_555
As1 O29 1.883464 1_555
As1 O27 1.940239 1_555
As1 O12 2.054858 1_555
As1 O23 2.139105 1_555
As2 O6 1.784590 1_555
As2 O11 1.883464 1_655
As2 O13 1.940239 1_655
As2 O16 2.054858 1_555
As2 O1 2.139105 1_554
As3 O17 1.784590 1_555
As3 O7 1.883464 1_455
As3 O8 1.940239 1_455
As3 O30 2.054858 1_555
As3 O22 2.139105 1_556
As4 O10 1.809106 1_565
As4 O5 1.823908 1_555
As4 O18 1.922207 1_555
As5 O4 1.784590 1_555
As5 O19 1.883464 1_555
As5 O18 1.940239 1_555
As5 O24 2.054858 1_555
As5 O28 2.139105 1_555
As6 O26 1.809106 1_545
As6 O9 1.823908 1_555
As6 O8 1.922207 1_555
As7 O3 1.809106 1_565
As7 O0 1.823908 1_555
As7 O13 1.922207 1_555
O0 Zn1 1.981896 1_555
O0 Ti1 2.061861 1_555
O1 Ti5 2.030811 1_556
O1 Ti2 2.081991 1_555
O2 Zn0 1.984442 1_555
O2 Zn1 2.031791 1_555
O3 Ti3 1.878492 1_555
O4 Zn2 1.984442 1_555
O4 Zn3 2.031791 1_555
O5 Zn2 1.981896 1_555
O5 Ti2 2.061861 1_455
O6 Zn1 1.984442 1_655
O6 Zn0 2.031791 1_555
O7 Zn2 2.057371 1_555
O7 Ti5 2.074574 1_556
O7 Ti2 2.554333 1_555
O8 Zn5 2.198825 1_656
O9 Zn3 1.981896 1_555
O9 Ti0 2.061861 1_555
O10 Ti0 1.878492 1_555
O11 Zn0 2.057371 1_555
O11 Ti5 2.074574 1_555
O11 Ti3 2.554333 1_555
O12 Ti4 1.939906 1_555
O12 Ti1 2.053919 1_555
O12 Zn1 2.444756 1_555
O13 Zn5 2.198825 1_565
O14 Ti0 1.730857 1_555
O14 Zn4 1.859454 1_555
O15 Ti2 1.730857 1_455
O15 Zn5 1.859454 1_566
O16 Ti5 1.939906 1_555
O16 Ti3 2.053919 1_655
O16 Zn0 2.444756 1_555
O17 Zn3 1.984442 1_455
O17 Zn2 2.031791 1_555
O18 Zn4 2.198825 1_565
O19 Zn3 2.057371 1_455
O19 Ti4 2.074574 1_555
O19 Ti0 2.554333 1_555
O20 Ti3 1.730857 1_655
O20 Zn5 1.859454 1_655
O21 Ti1 1.730857 1_555
O21 Zn4 1.859454 1_565
O22 Ti5 2.030811 1_555
O22 Ti3 2.081991 1_555
O23 Ti4 2.030811 1_555
O23 Ti0 2.081991 1_555
O24 Ti4 1.939906 1_655
O24 Ti0 2.053919 1_555
O24 Zn3 2.444756 1_555
O25 Zn0 1.981896 1_555
O25 Ti3 2.061861 1_655
O26 Ti2 1.878492 1_555
O27 Zn4 2.198825 1_555
O28 Ti4 2.030811 1_655
O28 Ti1 2.081991 1_555
O29 Zn1 2.057371 1_655
O29 Ti4 2.074574 1_655
O29 Ti1 2.554333 1_555
O30 Ti5 1.939906 1_556
O30 Ti2 2.053919 1_455
O30 Zn2 2.444756 1_555
O31 Ti1 1.878492 1_555
