# generated using pymatgen
data_HfMnP
_symmetry_space_group_name_H-M   'P 1'
_cell_length_a   3.58100094
_cell_length_b   6.37042813
_cell_length_c   7.50313703
_cell_angle_alpha   90.00547119
_cell_angle_beta   90.00000000
_cell_angle_gamma   90.00000000
_symmetry_Int_Tables_number   1
_chemical_formula_structural   HfMnP
_chemical_formula_sum   'Hf4 Mn4 P4'
_cell_volume   171.16538105
_cell_formula_units_Z   4
loop_
 _symmetry_equiv_pos_site_id
 _symmetry_equiv_pos_as_xyz
  1  'x, y, z'
loop_
 _atom_site_type_symbol
 _atom_site_label
 _atom_site_symmetry_multiplicity
 _atom_site_fract_x
 _atom_site_fract_y
 _atom_site_fract_z
 _atom_site_occupancy
  Hf  Hf0  1  0.25000000  0.53483906  0.17477477  1
  Hf  Hf1  1  0.75000000  0.46512327  0.82522031  1
  Hf  Hf2  1  0.75000000  0.96516208  0.67481223  1
  Hf  Hf3  1  0.25000000  0.03488041  0.32519234  1
  Mn  Mn0  1  0.25000000  0.63498827  0.56013341  1
  Mn  Mn1  1  0.75000000  0.36499909  0.43986879  1
  Mn  Mn2  1  0.75000000  0.86505410  0.06007929  1
  Mn  Mn3  1  0.25000000  0.13492573  0.93992916  1
  P  P0  1  0.25000000  0.76306256  0.87039132  1
  P  P1  1  0.75000000  0.23694945  0.12960296  1
  P  P2  1  0.75000000  0.73695338  0.37035433  1
  P  P3  1  0.25000000  0.26306059  0.62963910  1
loop_
_geom_bond_atom_site_label_1
_geom_bond_atom_site_label_2
_geom_bond_distance
_geom_bond_site_symmetry_2
Hf0 P1 2.630941 1_455
Hf0 P1 2.630941 1_555
Hf0 P2 2.648918 1_455
Hf0 P2 2.648918 1_555
Hf0 P0 2.707450 1_554
Hf1 P0 2.631168 1_555
Hf1 P0 2.631168 1_655
Hf1 P3 2.648765 1_655
Hf1 P3 2.648765 1_555
Hf1 P1 2.707275 1_556
Hf2 P3 2.631030 1_565
Hf2 P3 2.631030 1_665
Hf2 P0 2.649007 1_655
Hf2 P0 2.649007 1_555
Hf2 P2 2.707637 1_555
Hf3 P2 2.631150 1_545
Hf3 P2 2.631150 1_445
Hf3 P1 2.648955 1_455
Hf3 P1 2.648955 1_555
Hf3 P3 2.707469 1_555
Mn0 P2 2.378150 1_555
Mn0 P2 2.378150 1_455
Mn0 P3 2.426103 1_555
Mn0 P0 2.466671 1_555
Mn1 P3 2.378065 1_555
Mn1 P3 2.378065 1_655
Mn1 P2 2.426282 1_555
Mn1 P1 2.466675 1_555
Mn2 P0 2.377713 1_554
Mn2 P0 2.377713 1_654
Mn2 P1 2.425833 1_565
Mn2 P2 2.466995 1_555
Mn3 P1 2.377705 1_556
Mn3 P1 2.377705 1_456
Mn3 P0 2.425656 1_545
Mn3 P3 2.467173 1_555
