# generated using pymatgen
data_LiThPt2
_symmetry_space_group_name_H-M   'P 1'
_cell_length_a   4.84864393
_cell_length_b   4.84864393
_cell_length_c   4.84864393
_cell_angle_alpha   60.00000000
_cell_angle_beta   60.00000000
_cell_angle_gamma   60.00000000
_symmetry_Int_Tables_number   1
_chemical_formula_structural   LiThPt2
_chemical_formula_sum   'Li1 Th1 Pt2'
_cell_volume   80.60201095
_cell_formula_units_Z   1
loop_
 _symmetry_equiv_pos_site_id
 _symmetry_equiv_pos_as_xyz
  1  'x, y, z'
loop_
 _atom_site_type_symbol
 _atom_site_label
 _atom_site_symmetry_multiplicity
 _atom_site_fract_x
 _atom_site_fract_y
 _atom_site_fract_z
 _atom_site_occupancy
  Li  Li0  1  0.50000000  0.50000000  0.50000000  1
  Th  Th0  1  0.00000000  0.00000000  0.00000000  1
  Pt  Pt0  1  0.25000000  0.25000000  0.25000000  1
  Pt  Pt1  1  0.75000000  0.75000000  0.75000000  1
loop_
_geom_bond_atom_site_label_1
_geom_bond_atom_site_label_2
_geom_bond_distance
_geom_bond_site_symmetry_2
Li0 Pt1 2.969176 1_455
Li0 Pt1 2.969176 1_545
Li0 Pt1 2.969176 1_554
Li0 Pt0 2.969176 1_555
Li0 Pt0 2.969176 1_556
Li0 Pt0 2.969176 1_655
Li0 Pt0 2.969176 1_565
Li0 Pt1 2.969176 1_555
Pt0 Th0 2.969176 1_556
Pt0 Th0 2.969176 1_565
Pt0 Th0 2.969176 1_555
Pt0 Th0 2.969176 1_655
Pt1 Th0 2.969176 1_656
Pt1 Th0 2.969176 1_666
Pt1 Th0 2.969176 1_665
Pt1 Th0 2.969176 1_566
