# generated using pymatgen
data_BaAlVCuO5
_symmetry_space_group_name_H-M   'P 1'
_cell_length_a   3.69254600
_cell_length_b   3.81708500
_cell_length_c   8.07729500
_cell_angle_alpha   90.00000000
_cell_angle_beta   90.00000000
_cell_angle_gamma   90.00000000
_symmetry_Int_Tables_number   1
_chemical_formula_structural   BaAlVCuO5
_chemical_formula_sum   'Ba1 Al1 V1 Cu1 O5'
_cell_volume   113.84755021
_cell_formula_units_Z   1
loop_
 _symmetry_equiv_pos_site_id
 _symmetry_equiv_pos_as_xyz
  1  'x, y, z'
loop_
 _atom_site_type_symbol
 _atom_site_label
 _atom_site_symmetry_multiplicity
 _atom_site_fract_x
 _atom_site_fract_y
 _atom_site_fract_z
 _atom_site_occupancy
  Ba  Ba0  1  0.50000000  0.00000000  0.96952800  1
  Al  Al0  1  0.50000000  0.00000000  0.53479900  1
  V  V0  1  0.00000000  0.50000000  0.31204400  1
  Cu  Cu0  1  0.00000000  0.50000000  0.71457600  1
  O  O0  1  0.00000000  0.00000000  0.39560900  1
  O  O1  1  0.50000000  0.50000000  0.39664600  1
  O  O2  1  0.00000000  0.00000000  0.70337800  1
  O  O3  1  0.50000000  0.50000000  0.70228600  1
  O  O4  1  0.00000000  0.50000000  0.08321900  1
loop_
_geom_bond_atom_site_label_1
_geom_bond_atom_site_label_2
_geom_bond_distance
_geom_bond_site_symmetry_2
Ba0 O4 2.809726 1_656
Ba0 O4 2.809726 1_546
Ba0 O4 2.809726 1_646
Ba0 O4 2.809726 1_556
Ba0 O2 2.833769 1_555
Ba0 O2 2.833769 1_655
Ba0 O3 2.881329 1_545
Ba0 O3 2.881329 1_555
Al0 O0 2.161649 1_555
Al0 O0 2.161649 1_655
Al0 O1 2.210831 1_555
Al0 O1 2.210831 1_545
Al0 O2 2.294090 1_655
Al0 O2 2.294090 1_555
Al0 O3 2.339384 1_555
Al0 O3 2.339384 1_545
Cu0 O3 1.848940 1_555
Cu0 O3 1.848940 1_455
Cu0 O2 1.910685 1_555
Cu0 O2 1.910685 1_565
O0 V0 2.024384 1_555
O0 V0 2.024384 1_545
O1 V0 1.968679 1_555
O1 V0 1.968679 1_655
O4 V0 1.848287 1_555
