# generated using pymatgen
data_TmVO4
_symmetry_space_group_name_H-M   'P 1'
_cell_length_a   5.86451933
_cell_length_b   5.86451997
_cell_length_c   5.86451870
_cell_angle_alpha   106.44848446
_cell_angle_beta   106.44846751
_cell_angle_gamma   115.70222258
_symmetry_Int_Tables_number   1
_chemical_formula_structural   TmVO4
_chemical_formula_sum   'Tm2 V2 O8'
_cell_volume   153.87366733
_cell_formula_units_Z   2
loop_
 _symmetry_equiv_pos_site_id
 _symmetry_equiv_pos_as_xyz
  1  'x, y, z'
loop_
 _atom_site_type_symbol
 _atom_site_label
 _atom_site_symmetry_multiplicity
 _atom_site_fract_x
 _atom_site_fract_y
 _atom_site_fract_z
 _atom_site_occupancy
  Tm  Tm0  1  0.12500000  0.87500000  0.25000000  1
  Tm  Tm1  1  0.87500000  0.12500000  0.75000000  1
  V  V0  1  0.37500000  0.62500000  0.75000000  1
  V  V1  1  0.62500000  0.37500000  0.25000000  1
  O  O0  1  0.80125081  0.73838985  0.43714003  1
  O  O1  1  0.36411178  0.80125081  0.56285997  1
  O  O2  1  0.73838985  0.80125081  0.93714003  1
  O  O3  1  0.80125081  0.36411178  0.06285997  1
  O  O4  1  0.63588822  0.19874919  0.43714003  1
  O  O5  1  0.19874919  0.26161015  0.56285997  1
  O  O6  1  0.19874919  0.63588822  0.93714003  1
  O  O7  1  0.26161015  0.19874919  0.06285997  1
loop_
_geom_bond_atom_site_label_1
_geom_bond_atom_site_label_2
_geom_bond_distance
_geom_bond_site_symmetry_2
O0 V1 1.713738 1_555
O0 Tm1 2.244607 1_565
O0 Tm0 2.410332 1_655
O1 V0 1.713742 1_555
O1 Tm0 2.244606 1_555
O1 Tm1 2.410327 1_565
O2 V0 1.713738 1_555
O2 Tm0 2.244607 1_656
O2 Tm1 2.410333 1_565
O3 V1 1.713742 1_555
O3 Tm1 2.244606 1_554
O3 Tm0 2.410327 1_655
O4 V1 1.713742 1_555
O4 Tm1 2.244606 1_555
O4 Tm0 2.410327 1_545
O5 V0 1.713738 1_555
O5 Tm0 2.244607 1_545
O5 Tm1 2.410332 1_455
O6 V0 1.713742 1_555
O6 Tm0 2.244606 1_556
O6 Tm1 2.410327 1_455
O7 V1 1.713738 1_555
O7 Tm1 2.244607 1_454
O7 Tm0 2.410333 1_545
