# generated using pymatgen
data_Li4Zn(PS4)2
_symmetry_space_group_name_H-M   'P 1'
_cell_length_a   9.45163700
_cell_length_b   5.75719300
_cell_length_c   22.97915937
_cell_angle_alpha   89.96898235
_cell_angle_beta   90.00000000
_cell_angle_gamma   90.00000000
_symmetry_Int_Tables_number   1
_chemical_formula_structural   Li4Zn(PS4)2
_chemical_formula_sum   'Li16 Zn4 P8 S32'
_cell_volume   1250.40843848
_cell_formula_units_Z   4
loop_
 _symmetry_equiv_pos_site_id
 _symmetry_equiv_pos_as_xyz
  1  'x, y, z'
loop_
 _atom_site_type_symbol
 _atom_site_label
 _atom_site_symmetry_multiplicity
 _atom_site_fract_x
 _atom_site_fract_y
 _atom_site_fract_z
 _atom_site_occupancy
  Li  Li0  1  0.75181100  0.25268000  0.81659500  1
  Li  Li1  1  0.25181100  0.74732000  0.18340500  1
  Li  Li2  1  0.25198300  0.75002700  0.93782600  1
  Li  Li3  1  0.75198300  0.24997300  0.06217400  1
  Li  Li4  1  0.00650500  0.74947400  0.81160900  1
  Li  Li5  1  0.50650500  0.25052600  0.18839100  1
  Li  Li6  1  0.49948500  0.25081800  0.93748600  1
  Li  Li7  1  0.99948500  0.74918200  0.06251400  1
  Li  Li8  1  0.49652700  0.75226600  0.81084900  1
  Li  Li9  1  0.00284500  0.25219800  0.93639300  1
  Li  Li10  1  0.49701600  0.75286300  0.56149400  1
  Li  Li11  1  0.00399200  0.25133000  0.68598900  1
  Li  Li12  1  0.50399200  0.74867000  0.31401100  1
  Li  Li13  1  0.99701600  0.24713700  0.43850600  1
  Li  Li14  1  0.50284500  0.74780200  0.06360700  1
  Li  Li15  1  0.99652700  0.24773400  0.18915100  1
  Zn  Zn0  1  0.49292000  0.25246600  0.68694900  1
  Zn  Zn1  1  0.50020100  0.25017300  0.43743300  1
  Zn  Zn2  1  0.00020100  0.74982700  0.56256700  1
  Zn  Zn3  1  0.99292000  0.74753400  0.31305100  1
  P  P0  1  0.24951900  0.24151900  0.81270900  1
  P  P1  1  0.75019600  0.75078400  0.93713900  1
  P  P2  1  0.24954600  0.25055000  0.56205300  1
  P  P3  1  0.74922500  0.74009600  0.68723000  1
  P  P4  1  0.24922500  0.25990400  0.31277000  1
  P  P5  1  0.74954600  0.74945000  0.43794700  1
  P  P6  1  0.25019600  0.24921600  0.06286100  1
  P  P7  1  0.74951900  0.75848100  0.18729100  1
  S  S0  1  0.13038400  0.04139400  0.76009000  1
  S  S1  1  0.62683400  0.54317900  0.88445100  1
  S  S2  1  0.13567500  0.02623300  0.50985800  1
  S  S3  1  0.62853700  0.52984300  0.63449200  1
  S  S4  1  0.13114100  0.02958100  0.26104100  1
  S  S5  1  0.63809900  0.52418400  0.38543800  1
  S  S6  1  0.12835000  0.04048000  0.01022700  1
  S  S7  1  0.63566800  0.53524800  0.13472200  1
  S  S8  1  0.36173300  0.03913700  0.61797500  1
  S  S9  1  0.86625200  0.53603400  0.74163500  1
  S  S10  1  0.36350000  0.04642300  0.36747300  1
  S  S11  1  0.86325500  0.54041600  0.49406700  1
  S  S12  1  0.37337600  0.04148500  0.11568200  1
  S  S13  1  0.87084500  0.54378100  0.24069600  1
  S  S14  1  0.37211700  0.03469800  0.86605300  1
  S  S15  1  0.87247000  0.53997800  0.98914400  1
  S  S16  1  0.13566800  0.46475200  0.86527800  1
  S  S17  1  0.62835000  0.95952000  0.98977300  1
  S  S18  1  0.13809900  0.47581600  0.61456200  1
  S  S19  1  0.63114100  0.97041900  0.73895900  1
  S  S20  1  0.12853700  0.47015700  0.36550800  1
  S  S21  1  0.63567500  0.97376700  0.49014200  1
  S  S22  1  0.12683400  0.45682100  0.11554900  1
  S  S23  1  0.63038400  0.95860600  0.23991000  1
  S  S24  1  0.37084500  0.45621900  0.75930400  1
  S  S25  1  0.87337600  0.95851500  0.88431800  1
  S  S26  1  0.36325500  0.45958400  0.50593300  1
  S  S27  1  0.86350000  0.95357700  0.63252700  1
  S  S28  1  0.36625200  0.46396600  0.25836500  1
  S  S29  1  0.86173300  0.96086300  0.38202500  1
  S  S30  1  0.37247000  0.46002200  0.01085600  1
  S  S31  1  0.87211700  0.96530200  0.13394700  1
loop_
_geom_bond_atom_site_label_1
_geom_bond_atom_site_label_2
_geom_bond_distance
_geom_bond_site_symmetry_2
Li0 S25 2.570466 1_545
Li0 S1 2.574218 1_555
Li0 S9 2.606764 1_555
Li0 S19 2.669712 1_545
Li1 S12 2.570466 1_565
Li1 S22 2.574218 1_555
Li1 S28 2.606764 1_555
Li1 S4 2.669712 1_565
Li2 S16 2.586154 1_555
Li2 S14 2.586986 1_565
Li2 S30 2.626346 1_556
Li2 S6 2.632995 1_566
Li3 S7 2.586154 1_555
Li3 S31 2.586986 1_545
Li3 S15 2.626346 1_554
Li3 S17 2.632995 1_544
Li4 S0 2.365341 1_565
Li4 S16 2.386649 1_555
Li4 S25 2.413585 1_455
Li4 S9 2.419686 1_455
Li5 S23 2.365341 1_545
Li5 S7 2.386649 1_555
Li5 S12 2.413585 1_555
Li5 S28 2.419686 1_555
Li6 S14 2.386211 1_555
Li6 S30 2.395115 1_556
Li6 S17 2.395300 1_545
Li6 S1 2.401018 1_555
Li7 S31 2.386211 1_555
Li7 S15 2.395115 1_554
Li7 S6 2.395300 1_665
Li7 S22 2.401018 1_655
Li8 S14 2.374457 1_565
Li8 S24 2.391907 1_555
Li8 S1 2.413344 1_555
Li8 S19 2.433717 1_555
Li9 S15 2.394786 1_455
Li9 S16 2.396209 1_555
Li9 S6 2.401919 1_556
Li9 S25 2.406311 1_445
Li10 S3 2.450570 1_555
Li10 S21 2.453784 1_555
Li10 S8 2.457256 1_565
Li10 S26 2.466106 1_555
Li11 S0 2.405232 1_555
Li11 S18 2.443078 1_555
Li11 S9 2.453332 1_455
Li11 S27 2.492657 1_445
Li12 S23 2.405232 1_555
Li12 S5 2.443078 1_555
Li12 S28 2.453332 1_555
Li12 S10 2.492657 1_565
Li13 S20 2.450570 1_655
Li13 S2 2.453784 1_655
Li13 S29 2.457256 1_545
Li13 S11 2.466106 1_555
Li14 S30 2.394786 1_555
Li14 S7 2.396209 1_555
Li14 S17 2.401919 1_554
Li14 S12 2.406311 1_565
Li15 S31 2.374457 1_545
Li15 S13 2.391907 1_555
Li15 S22 2.413344 1_655
Li15 S4 2.433717 1_655
P0 S0 2.014676 1_555
P0 S14 2.064340 1_555
P0 S16 2.066542 1_555
P0 S24 2.085003 1_555
P1 S17 2.057881 1_555
P1 S15 2.057935 1_555
P1 S1 2.062880 1_555
P1 S25 2.063364 1_555
P2 S18 2.061339 1_555
P2 S8 2.062868 1_555
P2 S26 2.065118 1_555
P2 S2 2.065524 1_555
P3 S9 2.040839 1_555
P3 S3 2.058313 1_555
P3 S27 2.062911 1_555
P3 S19 2.102059 1_555
P4 S28 2.040839 1_555
P4 S20 2.058313 1_555
P4 S10 2.062911 1_555
P4 S4 2.102059 1_555
P5 S5 2.061339 1_555
P5 S29 2.062868 1_555
P5 S11 2.065118 1_555
P5 S21 2.065524 1_555
P6 S6 2.057881 1_555
P6 S30 2.057935 1_555
P6 S22 2.062880 1_555
P6 S12 2.063364 1_555
P7 S23 2.014676 1_555
P7 S31 2.064340 1_555
P7 S7 2.066542 1_555
P7 S13 2.085003 1_555
S2 Zn2 2.374195 1_545
S3 Zn0 2.375731 1_555
S4 Zn3 2.402023 1_445
S5 Zn1 2.369151 1_555
S8 Zn0 2.357980 1_555
S10 Zn1 2.373157 1_555
S11 Zn2 2.368260 1_655
S13 Zn3 2.339626 1_555
S18 Zn2 2.369151 1_555
S19 Zn0 2.402023 1_565
S20 Zn3 2.375731 1_455
S21 Zn1 2.374195 1_565
S24 Zn0 2.339626 1_555
S26 Zn1 2.368260 1_555
S27 Zn2 2.373157 1_655
S29 Zn3 2.357980 1_555
