# generated using pymatgen
data_Al(CoS2)2
_symmetry_space_group_name_H-M   'P 1'
_cell_length_a   6.75621567
_cell_length_b   6.75621567
_cell_length_c   6.75621567
_cell_angle_alpha   120.36820208
_cell_angle_beta   117.96159542
_cell_angle_gamma   91.46494687
_symmetry_Int_Tables_number   1
_chemical_formula_structural   Al(CoS2)2
_chemical_formula_sum   'Al2 Co4 S8'
_cell_volume   220.62632858
_cell_formula_units_Z   2
loop_
 _symmetry_equiv_pos_site_id
 _symmetry_equiv_pos_as_xyz
  1  'x, y, z'
loop_
 _atom_site_type_symbol
 _atom_site_label
 _atom_site_symmetry_multiplicity
 _atom_site_fract_x
 _atom_site_fract_y
 _atom_site_fract_z
 _atom_site_occupancy
  Al  Al0  1  0.50000000  0.00000000  0.50000000  1
  Al  Al1  1  0.00000000  0.00000000  0.00000000  1
  Co  Co0  1  0.50000000  0.50000000  0.50000000  1
  Co  Co1  1  0.50000000  0.50000000  0.00000000  1
  Co  Co2  1  0.50000000  0.00000000  0.00000000  1
  Co  Co3  1  0.00000000  0.50000000  0.50000000  1
  S  S0  1  0.72055800  0.25388100  0.46667700  1
  S  S1  1  0.73827800  0.72903700  0.49075900  1
  S  S2  1  0.28720400  0.25388100  0.03332300  1
  S  S3  1  0.26172200  0.75248100  0.99075900  1
  S  S4  1  0.71279600  0.74611900  0.96667700  1
  S  S5  1  0.26172200  0.27096300  0.50924100  1
  S  S6  1  0.73827800  0.24751900  0.00924100  1
  S  S7  1  0.27944200  0.74611900  0.53332300  1
loop_
_geom_bond_atom_site_label_1
_geom_bond_atom_site_label_2
_geom_bond_distance
_geom_bond_site_symmetry_2
Al0 S0 2.405773 1_555
Al0 S7 2.405773 1_545
Al0 S3 2.465020 1_544
Al0 S5 2.465020 1_555
Al0 S6 2.465020 1_556
Al0 S1 2.465020 1_545
Al1 S2 2.405773 1_555
Al1 S4 2.405773 1_444
Al1 S5 2.465020 1_555
Al1 S6 2.465020 1_455
Al1 S3 2.465020 1_544
Al1 S1 2.465020 1_444
Co0 S5 2.248249 1_555
Co0 S1 2.248249 1_555
Co0 S2 2.258093 1_555
Co0 S4 2.258093 1_555
Co0 S0 2.258093 1_555
Co0 S7 2.258093 1_555
Co1 S4 2.332915 1_554
Co1 S2 2.332915 1_555
Co1 S3 2.378905 1_554
Co1 S6 2.378905 1_555
Co1 S1 2.378905 1_555
Co1 S5 2.378905 1_554
Co2 S6 2.248249 1_555
Co2 S3 2.248249 1_544
Co2 S0 2.258093 1_555
Co2 S2 2.258093 1_555
Co2 S7 2.258093 1_544
Co2 S4 2.258093 1_544
Co3 S7 2.332915 1_555
Co3 S0 2.332915 1_455
Co3 S1 2.378905 1_455
Co3 S3 2.378905 1_555
Co3 S5 2.378905 1_555
Co3 S6 2.378905 1_455
