# generated using pymatgen
data_Sr3La(CuO2)4
_symmetry_space_group_name_H-M   'P 1'
_cell_length_a   3.66665200
_cell_length_b   11.05781500
_cell_length_c   11.14437200
_cell_angle_alpha   90.00000000
_cell_angle_beta   90.00000000
_cell_angle_gamma   90.00000000
_symmetry_Int_Tables_number   1
_chemical_formula_structural   Sr3La(CuO2)4
_chemical_formula_sum   'Sr6 La2 Cu8 O16'
_cell_volume   451.85034010
_cell_formula_units_Z   2
loop_
 _symmetry_equiv_pos_site_id
 _symmetry_equiv_pos_as_xyz
  1  'x, y, z'
loop_
 _atom_site_type_symbol
 _atom_site_label
 _atom_site_symmetry_multiplicity
 _atom_site_fract_x
 _atom_site_fract_y
 _atom_site_fract_z
 _atom_site_occupancy
  Sr  Sr0  1  0.50000000  0.21827900  0.25932000  1
  Sr  Sr1  1  0.50000000  0.78172100  0.75932000  1
  Sr  Sr2  1  0.50000000  0.48847200  0.46772100  1
  Sr  Sr3  1  0.50000000  0.00628700  0.53085000  1
  Sr  Sr4  1  0.50000000  0.99371300  0.03085000  1
  Sr  Sr5  1  0.50000000  0.51152800  0.96772100  1
  La  La0  1  0.50000000  0.28200000  0.73887700  1
  La  La1  1  0.50000000  0.71800000  0.23887700  1
  Cu  Cu0  1  0.00000000  0.03465700  0.78699500  1
  Cu  Cu1  1  0.00000000  0.46187400  0.21642600  1
  Cu  Cu2  1  0.00000000  0.96534300  0.28699500  1
  Cu  Cu3  1  0.00000000  0.53812600  0.71642600  1
  Cu  Cu4  1  0.00000000  0.24777300  0.49848100  1
  Cu  Cu5  1  0.00000000  0.75222700  0.99848100  1
  Cu  Cu6  1  0.00000000  0.75271500  0.49810900  1
  Cu  Cu7  1  0.00000000  0.24728500  0.99810900  1
  O  O0  1  0.00000000  0.86517400  0.61630900  1
  O  O1  1  0.00000000  0.64263300  0.37476500  1
  O  O2  1  0.00000000  0.13482600  0.11630900  1
  O  O3  1  0.00000000  0.35736700  0.87476500  1
  O  O4  1  0.50000000  0.06425100  0.80111300  1
  O  O5  1  0.50000000  0.45568800  0.19853300  1
  O  O6  1  0.50000000  0.93574900  0.30111300  1
  O  O7  1  0.50000000  0.54431200  0.69853300  1
  O  O8  1  0.00000000  0.38504700  0.60714300  1
  O  O9  1  0.00000000  0.10759800  0.39830100  1
  O  O10  1  0.00000000  0.61495300  0.10714300  1
  O  O11  1  0.00000000  0.89240200  0.89830100  1
  O  O12  1  0.00000000  0.35507400  0.36179000  1
  O  O13  1  0.00000000  0.15325100  0.64526700  1
  O  O14  1  0.00000000  0.84674900  0.14526700  1
  O  O15  1  0.00000000  0.64492600  0.86179000  1
loop_
_geom_bond_atom_site_label_1
_geom_bond_atom_site_label_2
_geom_bond_distance
_geom_bond_site_symmetry_2
La0 O4 2.505732 1_555
La0 O3 2.519722 1_655
La0 O3 2.519722 1_555
La0 O13 2.544852 1_655
La0 O13 2.544852 1_555
La0 O8 2.610514 1_555
La0 O8 2.610514 1_655
La0 O7 2.935237 1_555
La1 O6 2.505732 1_555
La1 O1 2.519722 1_655
La1 O1 2.519722 1_555
La1 O14 2.544852 1_555
La1 O14 2.544852 1_655
La1 O10 2.610514 1_555
La1 O10 2.610514 1_655
La1 O5 2.935237 1_555
Cu0 O4 1.868938 1_555
Cu0 O4 1.868938 1_455
Cu0 O11 2.003273 1_545
Cu0 O13 2.052917 1_555
Cu0 O0 2.670321 1_545
Cu1 O5 1.845407 1_455
Cu1 O5 1.845407 1_555
Cu1 O12 2.004762 1_555
Cu1 O10 2.085319 1_555
Cu1 O1 2.666266 1_555
Cu2 O6 1.868938 1_455
Cu2 O6 1.868938 1_555
Cu2 O9 2.003273 1_565
Cu2 O14 2.052917 1_555
Cu2 O2 2.670321 1_565
Cu3 O7 1.845407 1_455
Cu3 O7 1.845407 1_555
Cu3 O15 2.004762 1_555
Cu3 O8 2.085319 1_555
Cu3 O3 2.666266 1_555
Cu4 O9 1.910245 1_555
Cu4 O12 1.930898 1_555
Cu4 O13 1.941243 1_555
Cu4 O8 1.941809 1_555
Cu5 O11 1.910245 1_555
Cu5 O15 1.930898 1_555
Cu5 O14 1.941243 1_556
Cu5 O10 1.941809 1_556
Cu6 O0 1.811520 1_555
Cu6 O1 1.836093 1_555
Cu7 O2 1.811520 1_556
Cu7 O3 1.836093 1_555
O0 Sr3 2.589011 1_565
O0 Sr3 2.589011 1_465
O0 Sr1 2.598606 1_455
O0 Sr1 2.598606 1_555
O1 Sr2 2.709279 1_455
O1 Sr2 2.709279 1_555
O2 Sr4 2.589011 1_445
O2 Sr4 2.589011 1_545
O2 Sr0 2.598606 1_455
O2 Sr0 2.598606 1_555
O3 Sr5 2.709279 1_455
O3 Sr5 2.709279 1_555
O4 Sr4 2.676453 1_546
O4 Sr3 3.079356 1_555
O5 Sr5 2.645328 1_554
O5 Sr0 2.711221 1_555
O5 Sr2 3.021756 1_555
O6 Sr3 2.676453 1_565
O6 Sr4 3.079356 1_555
O7 Sr2 2.645328 1_555
O7 Sr1 2.711221 1_555
O7 Sr5 3.021756 1_555
O8 Sr2 2.661434 1_455
O8 Sr2 2.661434 1_555
O9 Sr3 2.607327 1_455
O9 Sr3 2.607327 1_555
O9 Sr0 2.694057 1_455
O9 Sr0 2.694057 1_555
O10 Sr5 2.661434 1_554
O10 Sr5 2.661434 1_454
O11 Sr4 2.607327 1_456
O11 Sr4 2.607327 1_556
O11 Sr1 2.694057 1_555
O11 Sr1 2.694057 1_455
O12 Sr2 2.632610 1_455
O12 Sr2 2.632610 1_555
O12 Sr0 2.636909 1_455
O12 Sr0 2.636909 1_555
O13 Sr3 2.761871 1_455
O13 Sr3 2.761871 1_555
O14 Sr4 2.761871 1_555
O14 Sr4 2.761871 1_455
O15 Sr5 2.632610 1_555
O15 Sr5 2.632610 1_455
O15 Sr1 2.636909 1_455
O15 Sr1 2.636909 1_555
