# generated using pymatgen
data_TlCr(SO10)2
_symmetry_space_group_name_H-M   'P 1'
_cell_length_a   11.33943900
_cell_length_b   11.33943900
_cell_length_c   11.33943900
_cell_angle_alpha   90.00000000
_cell_angle_beta   90.00000000
_cell_angle_gamma   90.00000000
_symmetry_Int_Tables_number   1
_chemical_formula_structural   TlCr(SO10)2
_chemical_formula_sum   'Tl4 Cr4 S8 O80'
_cell_volume   1458.05768831
_cell_formula_units_Z   4
loop_
 _symmetry_equiv_pos_site_id
 _symmetry_equiv_pos_as_xyz
  1  'x, y, z'
loop_
 _atom_site_type_symbol
 _atom_site_label
 _atom_site_symmetry_multiplicity
 _atom_site_fract_x
 _atom_site_fract_y
 _atom_site_fract_z
 _atom_site_occupancy
  Tl  Tl0  1  0.00000000  0.00000000  0.00000000  1
  Tl  Tl1  1  0.50000000  0.00000000  0.50000000  1
  Tl  Tl2  1  0.00000000  0.50000000  0.50000000  1
  Tl  Tl3  1  0.50000000  0.50000000  0.00000000  1
  Cr  Cr0  1  0.50000000  0.50000000  0.50000000  1
  Cr  Cr1  1  0.00000000  0.50000000  0.00000000  1
  Cr  Cr2  1  0.50000000  0.00000000  0.00000000  1
  Cr  Cr3  1  0.00000000  0.00000000  0.50000000  1
  S  S0  1  0.19810500  0.19810500  0.19810500  1
  S  S1  1  0.80189500  0.80189500  0.80189500  1
  S  S2  1  0.30189500  0.80189500  0.69810500  1
  S  S3  1  0.80189500  0.69810500  0.30189500  1
  S  S4  1  0.69810500  0.19810500  0.30189500  1
  S  S5  1  0.19810500  0.30189500  0.69810500  1
  S  S6  1  0.69810500  0.30189500  0.80189500  1
  S  S7  1  0.30189500  0.69810500  0.19810500  1
  O  O0  1  0.98348800  0.98727600  0.31660500  1
  O  O1  1  0.01651200  0.01272400  0.68339500  1
  O  O2  1  0.51651200  0.01272400  0.81660500  1
  O  O3  1  0.01651200  0.48727600  0.18339500  1
  O  O4  1  0.31660500  0.98348800  0.98727600  1
  O  O5  1  0.48348800  0.98727600  0.18339500  1
  O  O6  1  0.98348800  0.51272400  0.81660500  1
  O  O7  1  0.68339500  0.01651200  0.01272400  1
  O  O8  1  0.48348800  0.51272400  0.68339500  1
  O  O9  1  0.81660500  0.51651200  0.01272400  1
  O  O10  1  0.51651200  0.48727600  0.31660500  1
  O  O11  1  0.18339500  0.48348800  0.98727600  1
  O  O12  1  0.18339500  0.01651200  0.48727600  1
  O  O13  1  0.81660500  0.98348800  0.51272400  1
  O  O14  1  0.68339500  0.48348800  0.51272400  1
  O  O15  1  0.31660500  0.51651200  0.48727600  1
  O  O16  1  0.98727600  0.31660500  0.98348800  1
  O  O17  1  0.01272400  0.68339500  0.01651200  1
  O  O18  1  0.48727600  0.18339500  0.01651200  1
  O  O19  1  0.51272400  0.81660500  0.98348800  1
  O  O20  1  0.51272400  0.68339500  0.48348800  1
  O  O21  1  0.48727600  0.31660500  0.51651200  1
  O  O22  1  0.01272400  0.81660500  0.51651200  1
  O  O23  1  0.98727600  0.18339500  0.48348800  1
  O  O24  1  0.24910400  0.47237200  0.41077100  1
  O  O25  1  0.75089600  0.52762800  0.58922900  1
  O  O26  1  0.25089600  0.52762800  0.91077100  1
  O  O27  1  0.75089600  0.97237200  0.08922900  1
  O  O28  1  0.41077100  0.24910400  0.47237200  1
  O  O29  1  0.74910400  0.47237200  0.08922900  1
  O  O30  1  0.24910400  0.02762800  0.91077100  1
  O  O31  1  0.58922900  0.75089600  0.52762800  1
  O  O32  1  0.74910400  0.02762800  0.58922900  1
  O  O33  1  0.91077100  0.25089600  0.52762800  1
  O  O34  1  0.25089600  0.97237200  0.41077100  1
  O  O35  1  0.08922900  0.74910400  0.47237200  1
  O  O36  1  0.08922900  0.75089600  0.97237200  1
  O  O37  1  0.91077100  0.24910400  0.02762800  1
  O  O38  1  0.58922900  0.74910400  0.02762800  1
  O  O39  1  0.41077100  0.25089600  0.97237200  1
  O  O40  1  0.47237200  0.41077100  0.24910400  1
  O  O41  1  0.52762800  0.58922900  0.75089600  1
  O  O42  1  0.97237200  0.08922900  0.75089600  1
  O  O43  1  0.02762800  0.91077100  0.24910400  1
  O  O44  1  0.02762800  0.58922900  0.74910400  1
  O  O45  1  0.97237200  0.41077100  0.25089600  1
  O  O46  1  0.52762800  0.91077100  0.25089600  1
  O  O47  1  0.47237200  0.08922900  0.74910400  1
  O  O48  1  0.07515100  0.19527800  0.24473000  1
  O  O49  1  0.92484900  0.80472200  0.75527000  1
  O  O50  1  0.42484900  0.80472200  0.74473000  1
  O  O51  1  0.92484900  0.69527800  0.25527000  1
  O  O52  1  0.24473000  0.07515100  0.19527800  1
  O  O53  1  0.57515100  0.19527800  0.25527000  1
  O  O54  1  0.07515100  0.30472200  0.74473000  1
  O  O55  1  0.75527000  0.92484900  0.80472200  1
  O  O56  1  0.57515100  0.30472200  0.75527000  1
  O  O57  1  0.74473000  0.42484900  0.80472200  1
  O  O58  1  0.42484900  0.69527800  0.24473000  1
  O  O59  1  0.25527000  0.57515100  0.19527800  1
  O  O60  1  0.25527000  0.92484900  0.69527800  1
  O  O61  1  0.74473000  0.07515100  0.30472200  1
  O  O62  1  0.75527000  0.57515100  0.30472200  1
  O  O63  1  0.24473000  0.42484900  0.69527800  1
  O  O64  1  0.19527800  0.24473000  0.07515100  1
  O  O65  1  0.80472200  0.75527000  0.92484900  1
  O  O66  1  0.69527800  0.25527000  0.92484900  1
  O  O67  1  0.30472200  0.74473000  0.07515100  1
  O  O68  1  0.30472200  0.75527000  0.57515100  1
  O  O69  1  0.69527800  0.24473000  0.42484900  1
  O  O70  1  0.80472200  0.74473000  0.42484900  1
  O  O71  1  0.19527800  0.25527000  0.57515100  1
  O  O72  1  0.27347900  0.27347900  0.27347900  1
  O  O73  1  0.72652100  0.72652100  0.72652100  1
  O  O74  1  0.22652100  0.72652100  0.77347900  1
  O  O75  1  0.72652100  0.77347900  0.22652100  1
  O  O76  1  0.77347900  0.27347900  0.22652100  1
  O  O77  1  0.27347900  0.22652100  0.77347900  1
  O  O78  1  0.77347900  0.22652100  0.72652100  1
  O  O79  1  0.22652100  0.77347900  0.27347900  1
loop_
_geom_bond_atom_site_label_1
_geom_bond_atom_site_label_2
_geom_bond_distance
_geom_bond_site_symmetry_2
Cr0 O14 2.092987 1_555
Cr0 O8 2.092987 1_555
Cr0 O20 2.092987 1_555
Cr0 O10 2.092987 1_555
Cr0 O21 2.092987 1_555
Cr0 O15 2.092987 1_555
Cr1 O17 2.092987 1_555
Cr1 O3 2.092987 1_555
Cr1 O11 2.092987 1_554
Cr1 O9 2.092987 1_455
Cr1 O6 2.092987 1_454
Cr1 O16 2.092987 1_454
Cr2 O7 2.092987 1_555
Cr2 O18 2.092987 1_555
Cr2 O5 2.092987 1_545
Cr2 O2 2.092987 1_554
Cr2 O19 2.092987 1_544
Cr2 O4 2.092987 1_544
Cr3 O1 2.092987 1_555
Cr3 O12 2.092987 1_555
Cr3 O23 2.092987 1_455
Cr3 O22 2.092987 1_545
Cr3 O13 2.092987 1_445
Cr3 O0 2.092987 1_445
O0 O43 1.260553 1_655
O1 O42 1.260553 1_455
O2 O47 1.260553 1_555
O3 O45 1.260553 1_455
O10 O40 1.260553 1_555
O11 O26 1.260553 1_555
O12 O34 1.260553 1_545
O13 O32 1.260553 1_565
O14 O25 1.260553 1_555
O15 O24 1.260553 1_555
O16 O37 1.260553 1_556
O17 O36 1.260553 1_554
O18 O39 1.260553 1_554
O19 O38 1.260553 1_556
O20 O31 1.260553 1_555
O21 O28 1.260553 1_555
O22 O35 1.260553 1_555
O23 O33 1.260553 1_555
O27 O7 1.260553 1_565
O29 O9 1.260553 1_555
O30 O4 1.260553 1_545
O41 O8 1.260553 1_555
O44 O6 1.260553 1_455
O46 O5 1.260553 1_555
O48 S0 1.491452 1_555
O49 S1 1.491452 1_555
O50 S2 1.491452 1_555
O51 S3 1.491452 1_555
O52 S0 1.491452 1_555
O53 S4 1.491452 1_555
O54 S5 1.491452 1_555
O55 S1 1.491452 1_555
O56 S6 1.491452 1_555
O57 S6 1.491452 1_555
O58 S7 1.491452 1_555
O59 S7 1.491452 1_555
O60 S2 1.491452 1_555
O61 S4 1.491452 1_555
O62 S3 1.491452 1_555
O63 S5 1.491452 1_555
O64 S0 1.491452 1_555
O65 S1 1.491452 1_555
O66 S6 1.491452 1_555
O67 S7 1.491452 1_555
O68 S2 1.491452 1_555
O69 S4 1.491452 1_555
O70 S3 1.491452 1_555
O71 S5 1.491452 1_555
O72 S0 1.480382 1_555
O73 S1 1.480382 1_555
O74 S2 1.480382 1_555
O75 S3 1.480382 1_555
O76 S4 1.480382 1_555
O77 S5 1.480382 1_555
O78 S6 1.480382 1_555
O79 S7 1.480382 1_555
