# generated using pymatgen
data_AgGe2N3
_symmetry_space_group_name_H-M   'P 1'
_cell_length_a   3.03794500
_cell_length_b   3.03794428
_cell_length_c   26.45128900
_cell_angle_alpha   90.00000000
_cell_angle_beta   90.00000000
_cell_angle_gamma   119.99999698
_symmetry_Int_Tables_number   1
_chemical_formula_structural   AgGe2N3
_chemical_formula_sum   'Ag3 Ge6 N9'
_cell_volume   211.41568089
_cell_formula_units_Z   3
loop_
 _symmetry_equiv_pos_site_id
 _symmetry_equiv_pos_as_xyz
  1  'x, y, z'
loop_
 _atom_site_type_symbol
 _atom_site_label
 _atom_site_symmetry_multiplicity
 _atom_site_fract_x
 _atom_site_fract_y
 _atom_site_fract_z
 _atom_site_occupancy
  Ag  Ag0  1  0.00000000  0.62382800  0.66666700  1
  Ag  Ag1  1  0.62382800  0.00000000  0.33333300  1
  Ag  Ag2  1  0.37617200  0.37617200  0.00000000  1
  Ge  Ge0  1  0.67724000  0.05005600  0.11354700  1
  Ge  Ge1  1  0.37281600  0.32276000  0.78021300  1
  Ge  Ge2  1  0.94994400  0.62718400  0.44688000  1
  Ge  Ge3  1  0.32276000  0.37281600  0.21978700  1
  Ge  Ge4  1  0.05005600  0.67724000  0.88645300  1
  Ge  Ge5  1  0.62718400  0.94994400  0.55312000  1
  N  N0  1  0.00000000  0.55072200  0.16666700  1
  N  N1  1  0.55072200  0.00000000  0.83333300  1
  N  N2  1  0.44927800  0.44927800  0.50000000  1
  N  N3  1  0.62197100  0.97898000  0.41492100  1
  N  N4  1  0.35701000  0.37802900  0.08158700  1
  N  N5  1  0.02102000  0.64299000  0.74825400  1
  N  N6  1  0.37802900  0.35701000  0.91841300  1
  N  N7  1  0.97898000  0.62197100  0.58507900  1
  N  N8  1  0.64299000  0.02102000  0.25174600  1
loop_
_geom_bond_atom_site_label_1
_geom_bond_atom_site_label_2
_geom_bond_distance
_geom_bond_site_symmetry_2
Ag0 N5 2.158950 1_555
Ag0 N7 2.158976 1_455
Ag1 N8 2.158950 1_555
Ag1 N3 2.158976 1_545
Ag2 N6 2.158950 1_554
Ag2 N4 2.158950 1_555
Ge0 N4 1.903454 1_555
Ge0 N0 1.938496 1_655
Ge0 N4 1.960360 1_545
Ge0 N4 1.978503 1_655
Ge0 N0 2.321075 1_545
Ge1 N5 1.903445 1_655
Ge1 N1 1.938496 1_555
Ge1 N5 1.960346 1_555
Ge1 N5 1.978491 1_545
Ge1 N1 2.321075 1_565
Ge2 N3 1.903444 1_545
Ge2 N2 1.938497 1_555
Ge2 N3 1.960349 1_655
Ge2 N3 1.978489 1_555
Ge2 N2 2.321075 1_655
Ge3 N8 1.903444 1_565
Ge3 N0 1.938496 1_555
Ge3 N8 1.960346 1_555
Ge3 N8 1.978491 1_455
Ge3 N0 2.321075 1_655
Ge4 N6 1.903454 1_555
Ge4 N1 1.938497 1_565
Ge4 N6 1.960360 1_455
Ge4 N6 1.978502 1_565
Ge4 N1 2.321075 1_455
Ge5 N7 1.903445 1_455
Ge5 N2 1.938496 1_555
Ge5 N7 1.960348 1_565
Ge5 N7 1.978489 1_555
Ge5 N2 2.321075 1_565
