# generated using pymatgen
data_ThRh
_symmetry_space_group_name_H-M   'P 1'
_cell_length_a   3.89786609
_cell_length_b   4.09906356
_cell_length_c   6.14517455
_cell_angle_alpha   90.00000000
_cell_angle_beta   108.49057188
_cell_angle_gamma   90.00000000
_symmetry_Int_Tables_number   1
_chemical_formula_structural   ThRh
_chemical_formula_sum   'Th2 Rh2'
_cell_volume   93.11642200
_cell_formula_units_Z   2
loop_
 _symmetry_equiv_pos_site_id
 _symmetry_equiv_pos_as_xyz
  1  'x, y, z'
loop_
 _atom_site_type_symbol
 _atom_site_label
 _atom_site_symmetry_multiplicity
 _atom_site_fract_x
 _atom_site_fract_y
 _atom_site_fract_z
 _atom_site_occupancy
  Th  Th0  1  0.13536323  0.75000000  0.27072846  1
  Th  Th1  1  0.86463677  0.25000000  0.72927154  1
  Rh  Rh0  1  0.40100596  0.75000000  0.80201192  1
  Rh  Rh1  1  0.59899404  0.25000000  0.19798808  1
loop_
_geom_bond_atom_site_label_1
_geom_bond_atom_site_label_2
_geom_bond_distance
_geom_bond_site_symmetry_2
Rh0 Th1 2.859828 1_455
Rh0 Th1 2.859828 1_465
Rh0 Th1 2.859834 1_555
Rh0 Th1 2.859834 1_565
Rh0 Rh1 3.086449 1_556
Rh0 Rh1 3.086449 1_566
Rh0 Th0 3.096286 1_555
Rh0 Th0 3.355627 1_656
Rh0 Th0 3.355632 1_556
Rh1 Th0 2.859828 1_655
Rh1 Th0 2.859828 1_645
Rh1 Th0 2.859834 1_555
Rh1 Th0 2.859834 1_545
Rh1 Th1 3.096286 1_555
Rh1 Th1 3.355627 1_454
Rh1 Th1 3.355632 1_554
