# generated using pymatgen
data_CaMn2O4
_symmetry_space_group_name_H-M   'P 1'
_cell_length_a   5.16379100
_cell_length_b   6.21302792
_cell_length_c   11.17854335
_cell_angle_alpha   90.15784951
_cell_angle_beta   90.16959838
_cell_angle_gamma   92.95690552
_symmetry_Int_Tables_number   1
_chemical_formula_structural   CaMn2O4
_chemical_formula_sum   'Ca4 Mn8 O16'
_cell_volume   358.15814825
_cell_formula_units_Z   4
loop_
 _symmetry_equiv_pos_site_id
 _symmetry_equiv_pos_as_xyz
  1  'x, y, z'
loop_
 _atom_site_type_symbol
 _atom_site_label
 _atom_site_symmetry_multiplicity
 _atom_site_fract_x
 _atom_site_fract_y
 _atom_site_fract_z
 _atom_site_occupancy
  Ca  Ca0  1  0.13238700  0.76788500  0.75082200  1
  Ca  Ca1  1  0.86761300  0.23211500  0.24917800  1
  Ca  Ca2  1  0.49371100  0.71741100  0.24920800  1
  Ca  Ca3  1  0.50628900  0.28258900  0.75079200  1
  Mn  Mn0  1  0.49677300  0.24667600  0.48599700  1
  Mn  Mn1  1  0.49290000  0.24673200  0.01365100  1
  Mn  Mn2  1  0.50322700  0.75332400  0.51400300  1
  Mn  Mn3  1  0.50710000  0.75326800  0.98634900  1
  Mn  Mn4  1  0.00000000  0.50000000  0.50000000  1
  Mn  Mn5  1  0.00000000  0.00000000  0.00000000  1
  Mn  Mn6  1  0.00000000  0.00000000  0.50000000  1
  Mn  Mn7  1  0.00000000  0.50000000  0.00000000  1
  O  O0  1  0.16916200  0.22436500  0.40094300  1
  O  O1  1  0.16841400  0.28506900  0.09711600  1
  O  O2  1  0.83083800  0.77563500  0.59905700  1
  O  O3  1  0.83158600  0.71493100  0.90288400  1
  O  O4  1  0.79988000  0.27815500  0.58947900  1
  O  O5  1  0.79739900  0.22404400  0.91283800  1
  O  O6  1  0.20012000  0.72184500  0.41052100  1
  O  O7  1  0.20260100  0.77595600  0.08716200  1
  O  O8  1  0.31534900  0.52622000  0.60926700  1
  O  O9  1  0.30857900  0.03698100  0.89809800  1
  O  O10  1  0.67993200  0.96963700  0.39778200  1
  O  O11  1  0.67907400  0.46926400  0.10802700  1
  O  O12  1  0.68465100  0.47378000  0.39073300  1
  O  O13  1  0.69142100  0.96301900  0.10190200  1
  O  O14  1  0.32006800  0.03036300  0.60221800  1
  O  O15  1  0.32092600  0.53073600  0.89197300  1
loop_
_geom_bond_atom_site_label_1
_geom_bond_atom_site_label_2
_geom_bond_distance
_geom_bond_site_symmetry_2
Ca0 O2 2.301671 1_455
Ca0 O3 2.318689 1_455
Ca0 O15 2.400033 1_555
Ca0 O8 2.406877 1_555
Ca0 O9 2.480416 1_565
Ca0 O14 2.493913 1_565
Ca1 O0 2.301671 1_655
Ca1 O1 2.318689 1_655
Ca1 O11 2.400033 1_555
Ca1 O12 2.406877 1_555
Ca1 O13 2.480416 1_545
Ca1 O10 2.493913 1_545
Ca2 O6 2.360308 1_555
Ca2 O7 2.391076 1_555
Ca2 O12 2.433966 1_555
Ca2 O11 2.435499 1_555
Ca2 O13 2.438333 1_555
Ca2 O10 2.441225 1_555
Ca3 O4 2.360308 1_555
Ca3 O5 2.391076 1_555
Ca3 O8 2.433966 1_555
Ca3 O15 2.435499 1_555
Ca3 O9 2.438333 1_555
Ca3 O14 2.441225 1_555
Mn0 O0 1.936661 1_555
Mn0 O4 1.944899 1_555
Mn0 O12 1.984780 1_555
Mn0 O14 2.053488 1_555
Mn0 O10 2.234677 1_545
Mn0 O8 2.440356 1_555
Mn1 O1 1.945256 1_555
Mn1 O5 1.947998 1_554
Mn1 O11 1.948748 1_555
Mn1 O9 2.031802 1_554
Mn1 O13 2.306791 1_545
Mn1 O15 2.433104 1_554
Mn2 O2 1.936661 1_555
Mn2 O6 1.944899 1_555
Mn2 O8 1.984780 1_555
Mn2 O10 2.053488 1_555
Mn2 O14 2.234677 1_565
Mn2 O12 2.440356 1_555
Mn3 O3 1.945256 1_555
Mn3 O7 1.947998 1_556
Mn3 O15 1.948748 1_555
Mn3 O13 2.031802 1_556
Mn3 O9 2.306791 1_565
Mn3 O11 2.433104 1_556
Mn4 O4 1.958295 1_455
Mn4 O6 1.958295 1_555
Mn4 O8 2.032216 1_555
Mn4 O12 2.032216 1_455
Mn4 O0 2.252008 1_555
Mn4 O2 2.252008 1_455
Mn5 O13 1.965664 1_445
Mn5 O9 1.965664 1_554
Mn5 O7 2.033023 1_545
Mn5 O5 2.033023 1_454
Mn5 O3 2.212851 1_444
Mn5 O1 2.212851 1_555
Mn6 O2 1.954732 1_445
Mn6 O0 1.954732 1_555
Mn6 O14 2.007069 1_555
Mn6 O10 2.007069 1_445
Mn6 O4 2.288192 1_455
Mn6 O6 2.288192 1_545
Mn7 O3 1.959666 1_454
Mn7 O1 1.959666 1_555
Mn7 O15 2.054627 1_554
Mn7 O11 2.054627 1_455
Mn7 O5 2.187041 1_454
Mn7 O7 2.187041 1_555
