# generated using pymatgen
data_Li4MnCo2O7
_symmetry_space_group_name_H-M   'P 1'
_cell_length_a   3.02615300
_cell_length_b   5.12124300
_cell_length_c   17.12644361
_cell_angle_alpha   85.62553062
_cell_angle_beta   88.50484932
_cell_angle_gamma   75.66046400
_symmetry_Int_Tables_number   1
_chemical_formula_structural   Li4MnCo2O7
_chemical_formula_sum   'Li8 Mn2 Co4 O14'
_cell_volume   256.39449747
_cell_formula_units_Z   2
loop_
 _symmetry_equiv_pos_site_id
 _symmetry_equiv_pos_as_xyz
  1  'x, y, z'
loop_
 _atom_site_type_symbol
 _atom_site_label
 _atom_site_symmetry_multiplicity
 _atom_site_fract_x
 _atom_site_fract_y
 _atom_site_fract_z
 _atom_site_occupancy
  Li  Li0  1  0.42985500  0.14246200  0.85588100  1
  Li  Li1  1  0.85199900  0.28330800  0.71315900  1
  Li  Li2  1  0.28555500  0.42179300  0.57200000  1
  Li  Li3  1  0.71444500  0.57820700  0.42800000  1
  Li  Li4  1  0.14800100  0.71669200  0.28684100  1
  Li  Li5  1  0.57014500  0.85753800  0.14411900  1
  Li  Li6  1  0.00000000  0.00000000  0.00000000  1
  Li  Li7  1  0.00000000  0.00000000  0.50000000  1
  Mn  Mn0  1  0.70635200  0.57241600  0.92674700  1
  Mn  Mn1  1  0.29364800  0.42758400  0.07325300  1
  Co  Co0  1  0.13731300  0.71450700  0.78171500  1
  Co  Co1  1  0.56862000  0.86407200  0.63629800  1
  Co  Co2  1  0.43138000  0.13592800  0.36370200  1
  Co  Co3  1  0.86268700  0.28549300  0.21828500  1
  O  O0  1  0.03875600  0.84474700  0.88664400  1
  O  O1  1  0.52032200  0.97629300  0.74203700  1
  O  O2  1  0.91857900  0.11655900  0.60947700  1
  O  O3  1  0.35663600  0.28135100  0.45332000  1
  O  O4  1  0.76347000  0.40679300  0.32012800  1
  O  O5  1  0.23493200  0.55457700  0.17820600  1
  O  O6  1  0.61879600  0.70109400  0.03261500  1
  O  O7  1  0.76506800  0.44542300  0.82179400  1
  O  O8  1  0.23653000  0.59320700  0.67987200  1
  O  O9  1  0.64336400  0.71864900  0.54668000  1
  O  O10  1  0.08142100  0.88344100  0.39052300  1
  O  O11  1  0.47967800  0.02370700  0.25796300  1
  O  O12  1  0.96124400  0.15525300  0.11335600  1
  O  O13  1  0.38120400  0.29890600  0.96738500  1
loop_
_geom_bond_atom_site_label_1
_geom_bond_atom_site_label_2
_geom_bond_distance
_geom_bond_site_symmetry_2
Li0 O7 2.094664 1_555
Li0 O13 2.114405 1_555
Li0 O0 2.129320 1_645
Li0 O1 2.170366 1_545
Li0 O0 2.177540 1_545
Li0 O7 2.274253 1_455
Li1 O2 2.012560 1_555
Li1 O7 2.078936 1_555
Li1 O1 2.088378 1_545
Li1 O8 2.183099 1_555
Li1 O8 2.222612 1_655
Li1 O1 2.272770 1_645
Li2 O9 2.088542 1_555
Li2 O8 2.091494 1_555
Li2 O9 2.180807 1_455
Li2 O2 2.181372 1_455
Li2 O3 2.195099 1_555
Li2 O2 2.225525 1_555
Li3 O3 2.088542 1_555
Li3 O4 2.091494 1_555
Li3 O3 2.180807 1_655
Li3 O10 2.181372 1_655
Li3 O9 2.195099 1_555
Li3 O10 2.225525 1_555
Li4 O10 2.012560 1_555
Li4 O5 2.078936 1_555
Li4 O11 2.088378 1_565
Li4 O4 2.183099 1_555
Li4 O4 2.222612 1_455
Li4 O11 2.272770 1_465
Li5 O5 2.094664 1_555
Li5 O6 2.114405 1_555
Li5 O12 2.129320 1_465
Li5 O11 2.170366 1_565
Li5 O12 2.177540 1_565
Li5 O5 2.274253 1_655
Li6 O12 2.142964 1_455
Li6 O0 2.142964 1_544
Li6 O13 2.160109 1_454
Li6 O6 2.160109 1_545
Li6 O13 2.167176 1_554
Li6 O6 2.167176 1_445
Li7 O10 2.001562 1_545
Li7 O2 2.001562 1_455
Li7 O3 2.104637 1_555
Li7 O9 2.104637 1_445
Li7 O9 2.240912 1_545
Li7 O3 2.240912 1_455
Mn0 O7 1.946759 1_555
Mn0 O6 1.965368 1_556
Mn0 O13 1.978072 1_555
Mn0 O0 1.985300 1_655
Mn0 O0 2.242515 1_555
Mn0 O13 2.263961 1_655
Mn1 O5 1.946759 1_555
Mn1 O13 1.965368 1_554
Mn1 O6 1.978072 1_555
Mn1 O12 1.985300 1_455
Mn1 O12 2.242515 1_555
Mn1 O6 2.263961 1_455
Co0 O8 1.887825 1_555
Co0 O0 1.954379 1_555
Co0 O1 2.047480 1_555
Co0 O7 2.055085 1_455
Co0 O1 2.105372 1_455
Co0 O7 2.146159 1_555
Co1 O9 1.741939 1_555
Co1 O2 1.888603 1_565
Co1 O1 1.932481 1_555
Co1 O8 1.996131 1_555
Co1 O2 2.109305 1_465
Co1 O8 2.257961 1_655
Co2 O3 1.741939 1_555
Co2 O10 1.888603 1_545
Co2 O11 1.932481 1_555
Co2 O4 1.996131 1_555
Co2 O10 2.109305 1_645
Co2 O4 2.257961 1_455
Co3 O4 1.887825 1_555
Co3 O12 1.954379 1_555
Co3 O11 2.047480 1_555
Co3 O5 2.055085 1_655
Co3 O11 2.105372 1_655
Co3 O5 2.146159 1_555
