# generated using pymatgen
data_La6Ga3Co11
_symmetry_space_group_name_H-M   'P 1'
_cell_length_a   12.70751355
_cell_length_b   12.70751355
_cell_length_c   12.70751355
_cell_angle_alpha   142.73414077
_cell_angle_beta   142.73414077
_cell_angle_gamma   53.72447489
_symmetry_Int_Tables_number   1
_chemical_formula_structural   La6Ga3Co11
_chemical_formula_sum   'La12 Ga6 Co22'
_cell_volume   747.49038269
_cell_formula_units_Z   2
loop_
 _symmetry_equiv_pos_site_id
 _symmetry_equiv_pos_as_xyz
  1  'x, y, z'
loop_
 _atom_site_type_symbol
 _atom_site_label
 _atom_site_symmetry_multiplicity
 _atom_site_fract_x
 _atom_site_fract_y
 _atom_site_fract_z
 _atom_site_occupancy
  La  La0  1  0.60088000  0.60088000  0.00000000  1
  La  La1  1  0.10088000  0.10088000  0.00000000  1
  La  La2  1  0.39756800  0.39756800  0.00000000  1
  La  La3  1  0.89756800  0.89756800  0.00000000  1
  La  La4  1  0.48368500  0.98368500  0.83183500  1
  La  La5  1  0.15184900  0.65184900  0.16816500  1
  La  La6  1  0.98368500  0.15184900  0.50000000  1
  La  La7  1  0.65184900  0.48368500  0.50000000  1
  La  La8  1  0.51714500  0.01714500  0.15978000  1
  La  La9  1  0.85736500  0.35736500  0.84022000  1
  La  La10  1  0.01714500  0.85736500  0.50000000  1
  La  La11  1  0.35736500  0.51714500  0.50000000  1
  Ga  Ga0  1  0.24947400  0.24947400  0.00000000  1
  Ga  Ga1  1  0.74947400  0.74947400  0.00000000  1
  Ga  Ga2  1  0.21321200  0.71321200  0.74345100  1
  Ga  Ga3  1  0.96976100  0.46976100  0.25654900  1
  Ga  Ga4  1  0.71321200  0.96976100  0.50000000  1
  Ga  Ga5  1  0.46976100  0.21321200  0.50000000  1
  Co  Co0  1  0.49759100  0.99759100  0.50000000  1
  Co  Co1  1  0.99759100  0.49759100  0.50000000  1
  Co  Co2  1  0.62211300  0.12211300  0.85851400  1
  Co  Co3  1  0.26359900  0.76359900  0.14148600  1
  Co  Co4  1  0.12211300  0.26359900  0.50000000  1
  Co  Co5  1  0.76359900  0.62211300  0.50000000  1
  Co  Co6  1  0.38324600  0.88324600  0.15336800  1
  Co  Co7  1  0.72987800  0.22987800  0.84663200  1
  Co  Co8  1  0.88324600  0.72987800  0.50000000  1
  Co  Co9  1  0.22987800  0.38324600  0.50000000  1
  Co  Co10  1  0.56432900  0.70915600  0.27762400  1
  Co  Co11  1  0.43153200  0.28670500  0.72237600  1
  Co  Co12  1  0.06432900  0.78670500  0.85517300  1
  Co  Co13  1  0.93153200  0.20915600  0.14482700  1
  Co  Co14  1  0.28670500  0.56432900  0.85517300  1
  Co  Co15  1  0.70915600  0.43153200  0.14482700  1
  Co  Co16  1  0.20915600  0.06432900  0.27762400  1
  Co  Co17  1  0.78670500  0.93153200  0.72237600  1
  Co  Co18  1  0.79755500  0.29755500  0.27420100  1
  Co  Co19  1  0.02335500  0.52335500  0.72579900  1
  Co  Co20  1  0.29755500  0.02335500  0.50000000  1
  Co  Co21  1  0.52335500  0.79755500  0.50000000  1
loop_
_geom_bond_atom_site_label_1
_geom_bond_atom_site_label_2
_geom_bond_distance
_geom_bond_site_symmetry_2
Ga0 La11 3.327744 1_555
Ga0 La8 3.327744 1_555
Ga0 La10 3.327744 1_544
Ga0 La9 3.327744 1_454
Ga0 La2 3.357681 1_555
Ga0 La1 3.369017 1_555
Ga0 La5 3.401765 1_555
Ga0 La6 3.401768 1_454
Ga0 La7 3.401768 1_555
Ga0 La4 3.401775 1_544
Ga1 La9 3.327744 1_554
Ga1 La11 3.327744 1_554
Ga1 La8 3.327744 1_565
Ga1 La10 3.327744 1_655
Ga1 La3 3.357681 1_555
Ga1 La0 3.369017 1_555
Ga1 La5 3.401765 1_655
Ga1 La6 3.401768 1_565
Ga1 La7 3.401768 1_554
Ga1 La4 3.401775 1_554
Ga2 Ga3 2.795718 1_455
Ga2 La8 3.229417 1_566
Ga2 La1 3.233805 1_566
Ga2 La0 3.233805 1_556
Ga2 La10 3.238022 1_555
Ga2 La11 3.238022 1_555
Ga3 La9 3.229417 1_554
Ga3 La0 3.233805 1_555
Ga3 La1 3.233805 1_655
Ga3 La10 3.238022 1_655
Ga3 La11 3.238022 1_655
Ga4 Ga5 2.795718 1_565
Ga4 La10 3.229417 1_655
Ga4 La1 3.233805 1_666
Ga4 La0 3.233805 1_555
Ga4 La9 3.238022 1_565
Ga4 La8 3.238022 1_565
Ga5 La11 3.229417 1_555
Ga5 La1 3.233805 1_555
Ga5 La0 3.233805 1_556
Ga5 La9 3.238022 1_555
Ga5 La8 3.238022 1_555
Co0 Co21 2.363037 1_555
Co0 Co20 2.363037 1_565
Co0 Co7 2.397702 1_565
Co0 Co6 2.397702 1_555
Co0 Co2 2.403666 1_565
Co0 Co3 2.403666 1_555
Co0 Co11 2.406107 1_565
Co0 Co16 2.406107 1_565
Co0 Co10 2.406107 1_555
Co0 Co17 2.406107 1_555
Co0 Ga5 2.546772 1_565
Co0 Ga4 2.546772 1_555
Co1 Co19 2.363024 1_655
Co1 Co18 2.363043 1_555
Co1 Co8 2.397702 1_555
Co1 Co9 2.397702 1_655
Co1 Co4 2.403666 1_655
Co1 Co5 2.403666 1_555
Co1 Co14 2.406107 1_655
Co1 Co13 2.406107 1_555
Co1 Co12 2.406107 1_655
Co1 Co15 2.406107 1_555
Co1 Ga2 2.546772 1_655
Co1 Ga3 2.546772 1_555
Co2 Co21 2.541291 1_545
Co2 Co20 2.541291 1_555
Co2 Co7 2.578917 1_555
Co2 La4 2.840220 1_545
Co2 La2 3.155393 1_556
Co2 La3 3.155393 1_546
Co3 Co6 2.578917 1_555
Co3 La5 2.840242 1_555
Co3 La2 3.155393 1_555
Co3 La3 3.155393 1_455
Co4 Co9 2.578917 1_555
Co4 La6 2.840231 1_455
Co4 La2 3.155393 1_556
Co4 La3 3.155393 1_445
Co5 Co8 2.578917 1_555
Co5 La7 2.840231 1_555
Co5 La2 3.155393 1_555
Co5 La3 3.155393 1_556
Co6 Ga2 2.483307 1_554
Co6 Ga5 2.557799 1_565
Co6 Ga4 2.557799 1_555
Co6 La8 2.963383 1_565
Co6 La0 3.166596 1_555
Co6 La1 3.166596 1_565
Co7 Ga3 2.483307 1_556
Co7 Ga5 2.557799 1_555
Co7 Ga4 2.557799 1_545
Co7 La9 2.963383 1_555
Co7 La0 3.166596 1_556
Co7 La1 3.166596 1_656
Co8 Ga4 2.483307 1_555
Co8 Ga2 2.557799 1_655
Co8 Ga3 2.557799 1_555
Co8 La10 2.963383 1_655
Co8 La0 3.166596 1_555
Co8 La1 3.166596 1_666
Co9 Ga5 2.483307 1_555
Co9 Ga2 2.557799 1_555
Co9 Ga3 2.557799 1_455
Co9 La11 2.963383 1_555
Co9 La1 3.166596 1_555
Co9 La0 3.166596 1_556
Co10 Co5 2.427382 1_555
Co10 Co21 2.472981 1_555
Co10 Co8 2.515763 1_555
Co10 Co3 2.515788 1_555
Co10 Co6 2.536748 1_555
Co10 Co14 2.542673 1_554
Co10 Co15 2.542673 1_555
Co10 Co17 2.553699 1_555
Co10 Ga4 2.557573 1_555
Co10 La2 2.900071 1_555
Co10 La0 2.946317 1_555
Co11 Co4 2.427382 1_555
Co11 Co20 2.472981 1_555
Co11 Co9 2.515763 1_555
Co11 Co2 2.515788 1_555
Co11 Co7 2.536748 1_555
Co11 Co14 2.542673 1_555
Co11 Co15 2.542673 1_556
Co11 Co16 2.553699 1_555
Co11 Ga5 2.557573 1_555
Co11 La2 2.900071 1_556
Co11 La0 2.946317 1_556
Co12 Co3 2.427382 1_556
Co12 Co19 2.472974 1_555
Co12 Co6 2.515763 1_556
Co12 Co5 2.515788 1_455
Co12 Co8 2.536748 1_455
Co12 Co17 2.542673 1_455
Co12 Co16 2.542673 1_566
Co12 Co14 2.553699 1_555
Co12 Ga2 2.557573 1_555
Co12 La3 2.900071 1_456
Co12 La1 2.946317 1_566
Co13 Co2 2.427382 1_554
Co13 Co18 2.472992 1_555
Co13 Co7 2.515763 1_554
Co13 Co4 2.515788 1_655
Co13 Co9 2.536748 1_655
Co13 Co16 2.542673 1_655
Co13 Co17 2.542673 1_544
Co13 Co15 2.553699 1_555
Co13 Ga3 2.557573 1_555
Co13 La3 2.900071 1_545
Co13 La1 2.946317 1_655
Co14 Co3 2.427382 1_556
Co14 Co19 2.472974 1_555
Co14 Co6 2.515763 1_556
Co14 Co4 2.515788 1_555
Co14 Co9 2.536748 1_555
Co14 Ga2 2.557573 1_555
Co14 La2 2.900071 1_556
Co14 La0 2.946317 1_556
Co15 Co2 2.427382 1_554
Co15 Co18 2.472992 1_555
Co15 Co7 2.515763 1_554
Co15 Co5 2.515788 1_555
Co15 Co8 2.536748 1_555
Co15 Ga3 2.557573 1_555
Co15 La2 2.900071 1_555
Co15 La0 2.946317 1_555
Co16 Co4 2.427382 1_555
Co16 Co20 2.472981 1_555
Co16 Co9 2.515763 1_555
Co16 Co3 2.515788 1_545
Co16 Co6 2.536748 1_545
Co16 Ga5 2.557573 1_555
Co16 La3 2.900071 1_445
Co16 La1 2.946317 1_555
Co17 Co5 2.427382 1_555
Co17 Co21 2.472981 1_555
Co17 Co8 2.515763 1_555
Co17 Co2 2.515788 1_565
Co17 Co7 2.536748 1_565
Co17 Ga4 2.557573 1_555
Co17 La3 2.900071 1_556
Co17 La1 2.946317 1_666
Co18 Co2 2.497309 1_554
Co18 Co4 2.541291 1_655
Co18 Co5 2.541291 1_555
Co18 Co19 2.593008 1_655
Co18 La7 3.118888 1_555
Co18 La6 3.118888 1_555
Co18 La2 3.287305 1_555
Co18 La3 3.287305 1_545
Co18 La4 3.296623 1_544
Co19 Co3 2.497302 1_556
Co19 Co5 2.541285 1_455
Co19 Co4 2.541285 1_555
Co19 La7 3.118904 1_455
Co19 La6 3.118904 1_455
Co19 La3 3.287307 1_456
Co19 La2 3.287307 1_556
Co19 La5 3.296652 1_556
Co20 Co4 2.497300 1_555
Co20 Co3 2.541291 1_545
Co20 Co21 2.593019 1_545
Co20 La4 3.118887 1_545
Co20 La5 3.118903 1_545
Co20 La2 3.287303 1_556
Co20 La3 3.287303 1_445
Co20 La6 3.296629 1_455
Co21 Co5 2.497300 1_555
Co21 Co3 2.541291 1_555
Co21 La4 3.118887 1_555
Co21 La5 3.118903 1_555
Co21 La2 3.287303 1_555
Co21 La3 3.287303 1_556
Co21 La7 3.296629 1_555
