# generated using pymatgen
data_CaSiBHO5
_symmetry_space_group_name_H-M   'P 1'
_cell_length_a   8.44445300
_cell_length_b   5.85243100
_cell_length_c   8.25563367
_cell_angle_alpha   89.31985100
_cell_angle_beta   90.00000000
_cell_angle_gamma   90.00000000
_symmetry_Int_Tables_number   1
_chemical_formula_structural   CaSiBHO5
_chemical_formula_sum   'Ca4 Si4 B4 H4 O20'
_cell_volume   407.96944551
_cell_formula_units_Z   4
loop_
 _symmetry_equiv_pos_site_id
 _symmetry_equiv_pos_as_xyz
  1  'x, y, z'
loop_
 _atom_site_type_symbol
 _atom_site_label
 _atom_site_symmetry_multiplicity
 _atom_site_fract_x
 _atom_site_fract_y
 _atom_site_fract_z
 _atom_site_occupancy
  Ca  Ca0  1  0.20482300  0.10686600  0.68117100  1
  Ca  Ca1  1  0.70482300  0.89313400  0.81882900  1
  Ca  Ca2  1  0.79517700  0.89313400  0.31882900  1
  Ca  Ca3  1  0.29517700  0.10686600  0.18117100  1
  Si  Si0  1  0.54487000  0.43929900  0.85168400  1
  Si  Si1  1  0.04487000  0.56070100  0.64831600  1
  Si  Si2  1  0.45513000  0.56070100  0.14831600  1
  Si  Si3  1  0.95513000  0.43929900  0.35168400  1
  B  B0  1  0.63185700  0.32792800  0.38535400  1
  B  B1  1  0.13185700  0.67207200  0.11464600  1
  B  B2  1  0.36814300  0.67207200  0.61464600  1
  B  B3  1  0.86814300  0.32792800  0.88535400  1
  H  H0  1  0.45220500  0.82147000  0.36692500  1
  H  H1  1  0.95220500  0.17853000  0.13307500  1
  H  H2  1  0.54779500  0.17853000  0.63307500  1
  H  H3  1  0.04779500  0.82147000  0.86692500  1
  O  O0  1  0.97775800  0.68999700  0.47559100  1
  O  O1  1  0.47775800  0.31000300  0.02440900  1
  O  O2  1  0.02224200  0.31000300  0.52440900  1
  O  O3  1  0.52224200  0.68999700  0.97559100  1
  O  O4  1  0.65746400  0.14019200  0.47831100  1
  O  O5  1  0.15746400  0.85980800  0.02168900  1
  O  O6  1  0.34253600  0.85980800  0.52168900  1
  O  O7  1  0.84253600  0.14019200  0.97831100  1
  O  O8  1  0.74407400  0.47331200  0.83891400  1
  O  O9  1  0.24407400  0.52668800  0.66108600  1
  O  O10  1  0.25592600  0.52668800  0.16108600  1
  O  O11  1  0.75592600  0.47331200  0.33891400  1
  O  O12  1  0.51390200  0.61624000  0.68267700  1
  O  O13  1  0.01390200  0.38376000  0.81732300  1
  O  O14  1  0.48609800  0.38376000  0.31732300  1
  O  O15  1  0.98609800  0.61624000  0.18267700  1
  O  O16  1  0.49394100  0.81552600  0.25110200  1
  O  O17  1  0.99394100  0.18447400  0.24889800  1
  O  O18  1  0.50605900  0.18447400  0.74889800  1
  O  O19  1  0.00605900  0.81552600  0.75110200  1
loop_
_geom_bond_atom_site_label_1
_geom_bond_atom_site_label_2
_geom_bond_distance
_geom_bond_site_symmetry_2
Ca0 O6 2.285094 1_545
Ca0 O2 2.329987 1_555
Ca0 O19 2.456486 1_545
Ca0 O9 2.482827 1_555
Ca0 O13 2.555770 1_555
Ca0 O18 2.644944 1_555
Ca1 O7 2.285094 1_565
Ca1 O3 2.329987 1_555
Ca1 O18 2.456486 1_565
Ca1 O8 2.482827 1_555
Ca1 O12 2.555770 1_555
Ca1 O19 2.644944 1_655
Ca2 O4 2.285094 1_565
Ca2 O0 2.329987 1_555
Ca2 O17 2.456486 1_565
Ca2 O11 2.482827 1_555
Ca2 O15 2.555770 1_555
Ca2 O16 2.644944 1_555
Ca3 O5 2.285094 1_545
Ca3 O1 2.329987 1_555
Ca3 O16 2.456486 1_545
Ca3 O10 2.482827 1_555
Ca3 O14 2.555770 1_555
Ca3 O17 2.644944 1_455
B0 O4 1.350126 1_555
B0 O14 1.390271 1_555
B0 O11 1.400305 1_555
B1 O5 1.350126 1_555
B1 O15 1.390271 1_455
B1 O10 1.400305 1_555
B2 O6 1.350126 1_555
B2 O12 1.390271 1_555
B2 O9 1.400305 1_555
B3 O7 1.350126 1_555
B3 O13 1.390271 1_655
B3 O8 1.400305 1_555
H0 O16 1.020057 1_555
H0 O6 1.596011 1_555
H1 O17 1.020057 1_555
H1 O7 1.596011 1_554
H2 O18 1.020057 1_555
H2 O4 1.596011 1_555
H3 O19 1.020057 1_555
H3 O5 1.596011 1_556
O0 Si1 1.703377 1_655
O0 Si3 1.808642 1_555
O1 Si0 1.703377 1_554
O1 Si2 1.808642 1_555
O2 Si3 1.703377 1_455
O2 Si1 1.808642 1_555
O3 Si2 1.703377 1_556
O3 Si0 1.808642 1_555
O8 Si0 1.697036 1_555
O9 Si1 1.697036 1_555
O10 Si2 1.697036 1_555
O11 Si3 1.697036 1_555
O12 Si0 1.747331 1_555
O13 Si1 1.747331 1_555
O14 Si2 1.747331 1_555
O15 Si3 1.747331 1_555
O16 Si2 1.755457 1_555
O17 Si3 1.755457 1_555
O18 Si0 1.755457 1_555
O19 Si1 1.755457 1_555
