# generated using pymatgen
data_CuNiSb2
_symmetry_space_group_name_H-M   'P 1'
_cell_length_a   4.05858660
_cell_length_b   4.05858760
_cell_length_c   5.10982230
_cell_angle_alpha   90.00000000
_cell_angle_beta   90.00000000
_cell_angle_gamma   119.99999188
_symmetry_Int_Tables_number   1
_chemical_formula_structural   CuNiSb2
_chemical_formula_sum   'Cu1 Ni1 Sb2'
_cell_volume   72.89306395
_cell_formula_units_Z   1
loop_
 _symmetry_equiv_pos_site_id
 _symmetry_equiv_pos_as_xyz
  1  'x, y, z'
loop_
 _atom_site_type_symbol
 _atom_site_label
 _atom_site_symmetry_multiplicity
 _atom_site_fract_x
 _atom_site_fract_y
 _atom_site_fract_z
 _atom_site_occupancy
  Cu  Cu0  1  -0.00000000  -0.00000000  0.00000000  1
  Ni  Ni0  1  -0.00000000  -0.00000000  0.50000000  1
  Sb  Sb0  1  0.33333300  0.66666700  0.27425238  1
  Sb  Sb1  1  0.66666700  0.33333300  0.72574762  1
loop_
_geom_bond_atom_site_label_1
_geom_bond_atom_site_label_2
_geom_bond_distance
_geom_bond_site_symmetry_2
Cu0 Ni0 2.554911 1_555
Cu0 Ni0 2.554911 1_554
Cu0 Sb0 2.730305 1_545
Cu0 Sb1 2.730305 1_454
Cu0 Sb0 2.730308 1_445
Cu0 Sb1 2.730308 1_554
Cu0 Sb1 2.730309 1_444
Cu0 Sb0 2.730309 1_555
Ni0 Sb1 2.611768 1_455
Ni0 Sb0 2.611768 1_545
Ni0 Sb1 2.611771 1_555
Ni0 Sb0 2.611771 1_445
Ni0 Sb1 2.611771 1_445
Ni0 Sb0 2.611771 1_555
