# generated using pymatgen
data_RbCrP2O7
_symmetry_space_group_name_H-M   'P 1'
_cell_length_a   10.06723200
_cell_length_b   7.59864600
_cell_length_c   8.37257530
_cell_angle_alpha   74.01150062
_cell_angle_beta   90.00000000
_cell_angle_gamma   90.00000000
_symmetry_Int_Tables_number   1
_chemical_formula_structural   RbCrP2O7
_chemical_formula_sum   'Rb4 Cr4 P8 O28'
_cell_volume   615.70400092
_cell_formula_units_Z   4
loop_
 _symmetry_equiv_pos_site_id
 _symmetry_equiv_pos_as_xyz
  1  'x, y, z'
loop_
 _atom_site_type_symbol
 _atom_site_label
 _atom_site_symmetry_multiplicity
 _atom_site_fract_x
 _atom_site_fract_y
 _atom_site_fract_z
 _atom_site_occupancy
  Rb  Rb0  1  0.31159800  0.18631300  0.45057100  1
  Rb  Rb1  1  0.81159800  0.81368700  0.04942900  1
  Rb  Rb2  1  0.68840200  0.81368700  0.54942900  1
  Rb  Rb3  1  0.18840200  0.18631300  0.95057100  1
  Cr  Cr0  1  0.39895100  0.76203600  0.26039500  1
  Cr  Cr1  1  0.89895100  0.23796400  0.23960500  1
  Cr  Cr2  1  0.60104900  0.23796400  0.73960500  1
  Cr  Cr3  1  0.10104900  0.76203600  0.76039500  1
  P  P0  1  0.59589600  0.13134900  0.16775700  1
  P  P1  1  0.09589600  0.86865100  0.33224300  1
  P  P2  1  0.40410400  0.86865100  0.83224300  1
  P  P3  1  0.90410400  0.13134900  0.66775700  1
  P  P4  1  0.63268800  0.43338000  0.31222400  1
  P  P5  1  0.13268800  0.56662000  0.18777600  1
  P  P6  1  0.36731200  0.56662000  0.68777600  1
  P  P7  1  0.86731200  0.43338000  0.81222400  1
  O  O0  1  0.27992200  0.55540400  0.24065200  1
  O  O1  1  0.77992200  0.44459600  0.25934800  1
  O  O2  1  0.72007800  0.44459600  0.75934800  1
  O  O3  1  0.22007800  0.55540400  0.74065200  1
  O  O4  1  0.49873300  0.99134100  0.27365800  1
  O  O5  1  0.99873300  0.00865900  0.22634200  1
  O  O6  1  0.50126700  0.00865900  0.72634200  1
  O  O7  1  0.00126700  0.99134100  0.77365800  1
  O  O8  1  0.57549400  0.62744200  0.26773000  1
  O  O9  1  0.07549400  0.37255800  0.23227000  1
  O  O10  1  0.42450600  0.37255800  0.73227000  1
  O  O11  1  0.92450600  0.62744200  0.76773000  1
  O  O12  1  0.23614300  0.91343100  0.25809500  1
  O  O13  1  0.73614300  0.08656900  0.24190500  1
  O  O14  1  0.76385700  0.08656900  0.74190500  1
  O  O15  1  0.26385700  0.91343100  0.75809500  1
  O  O16  1  0.39494000  0.67965900  0.51097600  1
  O  O17  1  0.89494000  0.32034100  0.98902400  1
  O  O18  1  0.60506000  0.32034100  0.48902400  1
  O  O19  1  0.10506000  0.67965900  0.01097600  1
  O  O20  1  0.55351100  0.32860400  0.19359500  1
  O  O21  1  0.05351100  0.67139600  0.30640500  1
  O  O22  1  0.44648900  0.67139600  0.80640500  1
  O  O23  1  0.94648900  0.32860400  0.69359500  1
  O  O24  1  0.58891000  0.14707700  0.98498000  1
  O  O25  1  0.08891000  0.85292300  0.51502000  1
  O  O26  1  0.41109000  0.85292300  0.01502000  1
  O  O27  1  0.91109000  0.14707700  0.48498000  1
loop_
_geom_bond_atom_site_label_1
_geom_bond_atom_site_label_2
_geom_bond_distance
_geom_bond_site_symmetry_2
Cr0 O26 1.982655 1_555
Cr0 O12 1.999496 1_555
Cr0 O0 2.017795 1_555
Cr0 O16 2.017828 1_555
Cr0 O4 2.040584 1_555
Cr0 O8 2.043023 1_555
Cr1 O27 1.982655 1_555
Cr1 O13 1.999496 1_555
Cr1 O1 2.017795 1_555
Cr1 O17 2.017828 1_554
Cr1 O5 2.040584 1_555
Cr1 O9 2.043023 1_655
Cr2 O24 1.982655 1_555
Cr2 O14 1.999496 1_555
Cr2 O2 2.017795 1_555
Cr2 O18 2.017828 1_555
Cr2 O6 2.040584 1_555
Cr2 O10 2.043023 1_555
Cr3 O25 1.982655 1_555
Cr3 O15 1.999496 1_555
Cr3 O3 2.017795 1_555
Cr3 O19 2.017828 1_556
Cr3 O7 2.040584 1_555
Cr3 O11 2.043023 1_455
O0 P5 1.542563 1_555
O0 Rb0 2.888077 1_555
O1 P4 1.542563 1_555
O1 Rb1 2.888077 1_555
O2 P7 1.542563 1_555
O2 Rb2 2.888077 1_555
O3 P6 1.542563 1_555
O3 Rb3 2.888077 1_555
O4 P0 1.534648 1_565
O4 Rb2 3.013687 1_555
O4 Rb0 3.024403 1_565
O5 P1 1.534648 1_645
O5 Rb3 3.013687 1_654
O5 Rb1 3.024403 1_545
O6 P2 1.534648 1_545
O6 Rb0 3.013687 1_555
O6 Rb2 3.024403 1_545
O7 P3 1.534648 1_465
O7 Rb1 3.013687 1_456
O7 Rb3 3.024403 1_565
O8 P4 1.530410 1_555
O8 Rb1 3.093255 1_555
O8 Rb2 3.270529 1_555
O9 P5 1.530410 1_555
O9 Rb0 3.093255 1_555
O9 Rb3 3.270529 1_554
O10 P6 1.530410 1_555
O10 Rb3 3.093255 1_555
O10 Rb0 3.270529 1_555
O11 P7 1.530410 1_555
O11 Rb2 3.093255 1_555
O11 Rb1 3.270529 1_556
O12 P1 1.542166 1_555
O12 Rb3 2.866853 1_564
O12 Rb0 3.051947 1_565
O13 P0 1.542166 1_555
O13 Rb2 2.866853 1_545
O13 Rb1 3.051947 1_545
O14 P3 1.542166 1_555
O14 Rb1 2.866853 1_546
O14 Rb2 3.051947 1_545
O15 P2 1.542166 1_555
O15 Rb0 2.866853 1_565
O15 Rb3 3.051947 1_565
O16 P6 1.518522 1_555
O16 Rb2 3.170121 1_555
O17 P7 1.518522 1_555
O17 Rb3 3.170121 1_655
O18 P4 1.518522 1_555
O18 Rb0 3.170121 1_555
O19 P5 1.518522 1_555
O19 Rb1 3.170121 1_455
O20 P0 1.629145 1_555
O20 P4 1.640534 1_555
O20 Rb0 3.232309 1_555
O21 P1 1.629145 1_555
O21 P5 1.640534 1_555
O21 Rb1 3.232309 1_455
O22 P2 1.629145 1_555
O22 P6 1.640534 1_555
O22 Rb2 3.232309 1_555
O23 P3 1.629145 1_555
O23 P7 1.640534 1_555
O23 Rb3 3.232309 1_655
O24 P0 1.503442 1_556
O24 Rb1 3.313863 1_546
O25 P1 1.503442 1_555
O25 Rb0 3.313863 1_565
O26 P2 1.503442 1_554
O26 Rb3 3.313863 1_564
O27 P3 1.503442 1_555
O27 Rb2 3.313863 1_545
