# generated using pymatgen
data_KC2
_symmetry_space_group_name_H-M   'P 1'
_cell_length_a   4.38206800
_cell_length_b   4.38206800
_cell_length_c   7.45071500
_cell_angle_alpha   90.00000000
_cell_angle_beta   90.00000000
_cell_angle_gamma   90.00000000
_symmetry_Int_Tables_number   1
_chemical_formula_structural   KC2
_chemical_formula_sum   'K2 C4'
_cell_volume   143.07250348
_cell_formula_units_Z   2
loop_
 _symmetry_equiv_pos_site_id
 _symmetry_equiv_pos_as_xyz
  1  'x, y, z'
loop_
 _atom_site_type_symbol
 _atom_site_label
 _atom_site_symmetry_multiplicity
 _atom_site_fract_x
 _atom_site_fract_y
 _atom_site_fract_z
 _atom_site_occupancy
  K  K0  1  0.00000000  0.50000000  0.24579700  1
  K  K1  1  0.50000000  0.00000000  0.75420300  1
  C  C0  1  0.00000000  0.50000000  0.66147500  1
  C  C1  1  0.50000000  0.00000000  0.33852500  1
  C  C2  1  0.00000000  0.50000000  0.83133200  1
  C  C3  1  0.50000000  0.00000000  0.16866800  1
loop_
_geom_bond_atom_site_label_1
_geom_bond_atom_site_label_2
_geom_bond_distance
_geom_bond_site_symmetry_2
C0 C2 1.265556 1_555
C0 K0 3.097098 1_555
C0 K1 3.174679 1_555
C0 K1 3.174679 1_465
C0 K1 3.174679 1_565
C0 K1 3.174679 1_455
C1 C3 1.265556 1_555
C1 K1 3.097098 1_555
C1 K0 3.174679 1_555
C1 K0 3.174679 1_655
C1 K0 3.174679 1_545
C1 K0 3.174679 1_645
C2 K0 3.088061 1_556
C2 K1 3.151428 1_465
C2 K1 3.151428 1_565
C2 K1 3.151428 1_455
C2 K1 3.151428 1_555
C3 K1 3.088061 1_554
C3 K0 3.151428 1_555
C3 K0 3.151428 1_655
C3 K0 3.151428 1_545
C3 K0 3.151428 1_645
