# generated using pymatgen
data_MgAlCrS4
_symmetry_space_group_name_H-M   'P 1'
_cell_length_a   7.20887690
_cell_length_b   7.23453850
_cell_length_c   7.23473596
_cell_angle_alpha   60.22790939
_cell_angle_beta   60.11659651
_cell_angle_gamma   60.11797616
_symmetry_Int_Tables_number   1
_chemical_formula_structural   MgAlCrS4
_chemical_formula_sum   'Mg2 Al2 Cr2 S8'
_cell_volume   267.73113576
_cell_formula_units_Z   2
loop_
 _symmetry_equiv_pos_site_id
 _symmetry_equiv_pos_as_xyz
  1  'x, y, z'
loop_
 _atom_site_type_symbol
 _atom_site_label
 _atom_site_symmetry_multiplicity
 _atom_site_fract_x
 _atom_site_fract_y
 _atom_site_fract_z
 _atom_site_occupancy
  Mg  Mg0  1  0.87400611  0.87599098  0.87599274  1
  Mg  Mg1  1  0.12599499  0.12401166  0.12399802  1
  Al  Al0  1  0.50000545  0.50001256  0.49998070  1
  Al  Al1  1  0.99998825  0.49998606  0.50001387  1
  Cr  Cr0  1  0.50003186  0.49998258  0.00001058  1
  Cr  Cr1  1  0.49998542  0.00003567  0.50003646  1
  S  S0  1  0.73702030  0.73701856  0.73699760  1
  S  S1  1  0.26261152  0.26192439  0.71283605  1
  S  S2  1  0.26262530  0.71283234  0.26191314  1
  S  S3  1  0.71105283  0.26299028  0.26297034  1
  S  S4  1  0.73736285  0.28716176  0.73808148  1
  S  S5  1  0.28894591  0.73699392  0.73702196  1
  S  S6  1  0.26297499  0.26296840  0.26299842  1
  S  S7  1  0.73739822  0.73808581  0.28714966  1
loop_
_geom_bond_atom_site_label_1
_geom_bond_atom_site_label_2
_geom_bond_distance
_geom_bond_site_symmetry_2
Mg0 S7 2.434382 1_556
Mg0 S4 2.434431 1_565
Mg0 S5 2.445328 1_655
Mg0 S0 2.445429 1_555
Mg1 S1 2.434412 1_554
Mg1 S2 2.434482 1_545
Mg1 S6 2.445334 1_555
Mg1 S3 2.445341 1_455
Al0 S5 2.432259 1_555
Al0 S3 2.432319 1_555
Al0 S2 2.437933 1_555
Al0 S7 2.437939 1_555
Al0 S4 2.437974 1_555
Al0 S1 2.438014 1_555
Al1 S0 2.432227 1_555
Al1 S6 2.432319 1_655
Al1 S4 2.437856 1_555
Al1 S1 2.437915 1_655
Al1 S7 2.437943 1_555
Al1 S2 2.438026 1_655
Cr0 S3 2.432836 1_555
Cr0 S0 2.432994 1_554
Cr0 S6 2.433202 1_555
Cr0 S5 2.433303 1_554
Cr0 S2 2.435304 1_555
Cr0 S4 2.435307 1_554
Cr1 S0 2.432938 1_545
Cr1 S3 2.432948 1_555
Cr1 S6 2.433142 1_555
Cr1 S5 2.433280 1_545
Cr1 S1 2.434982 1_555
Cr1 S7 2.435732 1_545
