# generated using pymatgen
data_NiTeP2O9
_symmetry_space_group_name_H-M   'P 1'
_cell_length_a   6.39109200
_cell_length_b   7.84561609
_cell_length_c   14.04867208
_cell_angle_alpha   89.98518316
_cell_angle_beta   89.99976454
_cell_angle_gamma   90.00176695
_symmetry_Int_Tables_number   1
_chemical_formula_structural   NiTeP2O9
_chemical_formula_sum   'Ni4 Te4 P8 O36'
_cell_volume   704.42925373
_cell_formula_units_Z   4
loop_
 _symmetry_equiv_pos_site_id
 _symmetry_equiv_pos_as_xyz
  1  'x, y, z'
loop_
 _atom_site_type_symbol
 _atom_site_label
 _atom_site_symmetry_multiplicity
 _atom_site_fract_x
 _atom_site_fract_y
 _atom_site_fract_z
 _atom_site_occupancy
  Ni  Ni0  1  0.49964500  0.00031200  0.00004200  1
  Ni  Ni1  1  0.50023200  0.49992500  0.49999700  1
  Ni  Ni2  1  0.00039000  0.50033300  0.50009000  1
  Ni  Ni3  1  0.00041700  0.99987200  0.00016900  1
  Te  Te0  1  0.75002300  0.34791300  0.87421800  1
  Te  Te1  1  0.24996200  0.65204300  0.12576300  1
  Te  Te2  1  0.24998600  0.84807300  0.62588500  1
  Te  Te3  1  0.74998700  0.15193100  0.37412100  1
  P  P0  1  0.25001200  0.34512100  0.94151700  1
  P  P1  1  0.74995900  0.65494000  0.05843100  1
  P  P2  1  0.74999000  0.84500700  0.55851400  1
  P  P3  1  0.24996700  0.15497800  0.44148400  1
  P  P4  1  0.75005300  0.38802800  0.68378600  1
  P  P5  1  0.24996000  0.61194200  0.31619700  1
  P  P6  1  0.25001000  0.88859500  0.81631000  1
  P  P7  1  0.74996700  0.11137700  0.18369900  1
  O  O0  1  0.04789300  0.59740500  0.36970400  1
  O  O1  1  0.54791500  0.40251600  0.63027700  1
  O  O2  1  0.95212700  0.09715300  0.13021900  1
  O  O3  1  0.45224700  0.90284300  0.86979000  1
  O  O4  1  0.95206700  0.40257100  0.63025000  1
  O  O5  1  0.45204500  0.59744700  0.36974200  1
  O  O6  1  0.04785600  0.90287100  0.86980300  1
  O  O7  1  0.54771400  0.09717000  0.13023700  1
  O  O8  1  0.24998600  0.33298500  0.48207900  1
  O  O9  1  0.75000000  0.66700800  0.51789200  1
  O  O10  1  0.74997500  0.83300800  0.01779000  1
  O  O11  1  0.24995700  0.16707800  0.98221000  1
  O  O12  1  0.75000800  0.15863600  0.95124000  1
  O  O13  1  0.24995000  0.84134800  0.04874400  1
  O  O14  1  0.24999100  0.65901300  0.54886400  1
  O  O15  1  0.74998500  0.34097400  0.45112800  1
  O  O16  1  0.75005400  0.22111100  0.75323000  1
  O  O17  1  0.24988300  0.77887500  0.24671800  1
  O  O18  1  0.24996500  0.72151000  0.74694200  1
  O  O19  1  0.75002500  0.27844400  0.25304700  1
  O  O20  1  0.43947800  0.12536900  0.37335100  1
  O  O21  1  0.93948600  0.87456300  0.62667100  1
  O  O22  1  0.56045300  0.62563300  0.12659400  1
  O  O23  1  0.06050800  0.37435800  0.87338800  1
  O  O24  1  0.56048500  0.87456700  0.62665500  1
  O  O25  1  0.06048000  0.12535800  0.37332600  1
  O  O26  1  0.43950900  0.37429000  0.87337900  1
  O  O27  1  0.93947900  0.62556500  0.12658000  1
  O  O28  1  0.74993500  0.97651100  0.27699700  1
  O  O29  1  0.25005000  0.02345400  0.72299100  1
  O  O30  1  0.24995500  0.47699000  0.22295000  1
  O  O31  1  0.75000000  0.52297900  0.77700900  1
  O  O32  1  0.75005300  0.98465400  0.48072900  1
  O  O33  1  0.24994100  0.01534800  0.51929500  1
  O  O34  1  0.25003600  0.48482400  0.01919500  1
  O  O35  1  0.74995300  0.51518100  0.98076300  1
loop_
_geom_bond_atom_site_label_1
_geom_bond_atom_site_label_2
_geom_bond_distance
_geom_bond_site_symmetry_2
Ni0 O7 2.004505 1_555
Ni0 O3 2.006406 1_544
Ni0 O11 2.078724 1_554
Ni0 O10 2.084390 1_545
Ni0 O13 2.137672 1_545
Ni0 O12 2.138390 1_554
Ni1 O1 2.006508 1_555
Ni1 O5 2.007017 1_555
Ni1 O9 2.080809 1_555
Ni1 O8 2.082487 1_555
Ni1 O15 2.138905 1_555
Ni1 O14 2.141851 1_555
Ni2 O4 2.006643 1_455
Ni2 O0 2.006678 1_555
Ni2 O8 2.081535 1_555
Ni2 O9 2.081751 1_455
Ni2 O14 2.136459 1_555
Ni2 O15 2.144248 1_455
Ni3 O2 2.004130 1_465
Ni3 O6 2.006515 1_554
Ni3 O11 2.080325 1_564
Ni3 O10 2.082492 1_455
Ni3 O13 2.134377 1_555
Ni3 O12 2.141250 1_464
O0 P5 1.498596 1_555
O1 P4 1.498984 1_555
O2 P7 1.498769 1_555
O3 P6 1.499207 1_555
O4 P4 1.498512 1_555
O5 P5 1.498950 1_555
O6 P6 1.498858 1_555
O7 P7 1.499144 1_555
O8 P3 1.508669 1_555
O9 P2 1.508754 1_555
O10 P1 1.509083 1_555
O11 P0 1.509178 1_555
O12 Te0 1.837179 1_555
O13 Te1 1.837331 1_555
O14 Te2 1.836247 1_555
O15 Te3 1.836023 1_555
O16 P4 1.632817 1_555
O16 Te0 1.969678 1_555
O17 P5 1.633212 1_555
O17 Te1 1.969397 1_555
O18 P6 1.633642 1_555
O18 Te2 1.969125 1_555
O19 P7 1.633361 1_555
O19 Te3 1.969133 1_555
O20 P3 1.561166 1_555
O20 Te3 1.995427 1_555
O21 P2 1.561231 1_555
O21 Te2 1.995325 1_655
O22 P1 1.560964 1_555
O22 Te1 1.995205 1_555
O23 P0 1.560598 1_555
O23 Te0 1.995183 1_455
O24 P2 1.561148 1_555
O24 Te2 1.995308 1_555
O25 P3 1.561270 1_555
O25 Te3 1.995349 1_455
O26 P0 1.560545 1_555
O26 Te0 1.995325 1_555
O27 P1 1.561009 1_555
O27 Te1 1.995196 1_655
O28 P7 1.684293 1_565
O28 Te3 1.938265 1_565
O29 P6 1.684488 1_545
O29 Te2 1.937870 1_545
O30 P5 1.684585 1_555
O30 Te1 1.936344 1_555
O31 P4 1.684318 1_555
O31 Te0 1.936635 1_555
O32 P2 1.547229 1_555
O32 Te3 1.991096 1_565
O33 P3 1.547392 1_555
O33 Te2 1.990895 1_545
O34 P0 1.546879 1_554
O34 Te1 1.990884 1_555
O35 P1 1.547091 1_556
O35 Te0 1.990894 1_555
