# generated using pymatgen
data_Ba2CeBiO6
_symmetry_space_group_name_H-M   'P 1'
_cell_length_a   6.27663001
_cell_length_b   6.26183600
_cell_length_c   8.84038001
_cell_angle_alpha   90.00000000
_cell_angle_beta   90.00513993
_cell_angle_gamma   90.00000000
_symmetry_Int_Tables_number   1
_chemical_formula_structural   Ba2CeBiO6
_chemical_formula_sum   'Ba4 Ce2 Bi2 O12'
_cell_volume   347.45546733
_cell_formula_units_Z   2
loop_
 _symmetry_equiv_pos_site_id
 _symmetry_equiv_pos_as_xyz
  1  'x, y, z'
loop_
 _atom_site_type_symbol
 _atom_site_label
 _atom_site_symmetry_multiplicity
 _atom_site_fract_x
 _atom_site_fract_y
 _atom_site_fract_z
 _atom_site_occupancy
  Ba  Ba0  1  0.50572800  0.52082900  0.25009700  1
  Ba  Ba1  1  0.99427200  0.02082900  0.24990300  1
  Ba  Ba2  1  0.49427200  0.47917100  0.74990300  1
  Ba  Ba3  1  0.00572800  0.97917100  0.75009700  1
  Ce  Ce0  1  0.50000000  0.00000000  0.00000000  1
  Ce  Ce1  1  0.00000000  0.50000000  0.50000000  1
  Bi  Bi0  1  0.50000000  0.00000000  0.50000000  1
  Bi  Bi1  1  0.00000000  0.50000000  0.00000000  1
  O  O0  1  0.77504000  0.77843600  0.03832800  1
  O  O1  1  0.72496000  0.27843600  0.46167200  1
  O  O2  1  0.22187600  0.22462700  0.53899700  1
  O  O3  1  0.27812400  0.72462700  0.96100300  1
  O  O4  1  0.22496000  0.22156400  0.96167200  1
  O  O5  1  0.27504000  0.72156400  0.53832800  1
  O  O6  1  0.77812400  0.77537300  0.46100300  1
  O  O7  1  0.72187600  0.27537300  0.03899700  1
  O  O8  1  0.42937300  0.98838600  0.24863300  1
  O  O9  1  0.07062700  0.48838600  0.25136700  1
  O  O10  1  0.57062700  0.01161400  0.75136700  1
  O  O11  1  0.92937300  0.51161400  0.74863300  1
loop_
_geom_bond_atom_site_label_1
_geom_bond_atom_site_label_2
_geom_bond_distance
_geom_bond_site_symmetry_2
Ba0 O9 2.738538 1_555
Ba0 O7 2.772389 1_555
Ba0 O1 2.774026 1_555
Ba0 O8 2.966759 1_555
Ba0 O6 2.989896 1_555
Ba0 O0 2.994131 1_555
Ba0 O5 3.189019 1_555
Ba0 O3 3.193801 1_554
Ba0 O8 3.368364 1_545
Ba1 O8 2.738538 1_645
Ba1 O6 2.772389 1_545
Ba1 O0 2.774026 1_545
Ba1 O9 2.966759 1_655
Ba1 O7 2.989896 1_555
Ba1 O1 2.994131 1_555
Ba1 O4 3.189019 1_654
Ba1 O2 3.193801 1_655
Ba1 O9 3.368364 1_645
Ba2 O11 2.738538 1_555
Ba2 O3 2.772389 1_555
Ba2 O5 2.774026 1_555
Ba2 O10 2.966759 1_555
Ba2 O2 2.989896 1_555
Ba2 O4 2.994131 1_555
Ba2 O1 3.189019 1_555
Ba2 O7 3.193801 1_556
Ba2 O10 3.368364 1_565
Ba3 O10 2.738538 1_465
Ba3 O2 2.772389 1_565
Ba3 O4 2.774026 1_565
Ba3 O11 2.966759 1_455
Ba3 O3 2.989896 1_555
Ba3 O5 2.994131 1_555
Ba3 O0 3.189019 1_456
Ba3 O6 3.193801 1_455
Ba3 O11 3.368364 1_465
Ce0 O0 2.240485 1_545
Ce0 O4 2.240485 1_554
Ce0 O3 2.243110 1_544
Ce0 O7 2.243110 1_555
Ce0 O8 2.243485 1_545
Ce0 O10 2.243485 1_554
Ce1 O1 2.240485 1_455
Ce1 O5 2.240485 1_555
Ce1 O6 2.243110 1_455
Ce1 O2 2.243110 1_555
Ce1 O9 2.243485 1_555
Ce1 O11 2.243485 1_455
Bi0 O10 2.267093 1_555
Bi0 O8 2.267093 1_545
Bi0 O6 2.268220 1_545
Bi0 O2 2.268220 1_555
Bi0 O5 2.269025 1_545
Bi0 O1 2.269025 1_555
Bi1 O11 2.267093 1_454
Bi1 O9 2.267093 1_555
Bi1 O3 2.268220 1_554
Bi1 O7 2.268220 1_455
Bi1 O4 2.269025 1_554
Bi1 O0 2.269025 1_455
