# generated using pymatgen
data_InSO5
_symmetry_space_group_name_H-M   'P 1'
_cell_length_a   6.69575700
_cell_length_b   7.92609800
_cell_length_c   7.70638900
_cell_angle_alpha   90.00000000
_cell_angle_beta   90.00000000
_cell_angle_gamma   90.00000000
_symmetry_Int_Tables_number   1
_chemical_formula_structural   InSO5
_chemical_formula_sum   'In4 S4 O20'
_cell_volume   408.98751354
_cell_formula_units_Z   4
loop_
 _symmetry_equiv_pos_site_id
 _symmetry_equiv_pos_as_xyz
  1  'x, y, z'
loop_
 _atom_site_type_symbol
 _atom_site_label
 _atom_site_symmetry_multiplicity
 _atom_site_fract_x
 _atom_site_fract_y
 _atom_site_fract_z
 _atom_site_occupancy
  In  In0  1  0.75000000  0.63932200  0.26023500  1
  In  In1  1  0.25000000  0.36067800  0.73976500  1
  In  In2  1  0.25000000  0.86067800  0.76023500  1
  In  In3  1  0.75000000  0.13932200  0.23976500  1
  S  S0  1  0.75000000  0.87727800  0.87161400  1
  S  S1  1  0.25000000  0.12272200  0.12838600  1
  S  S2  1  0.25000000  0.62272200  0.37161400  1
  S  S3  1  0.75000000  0.37727800  0.62838600  1
  O  O0  1  0.92653700  0.87225600  0.75339100  1
  O  O1  1  0.07346300  0.12774400  0.24660900  1
  O  O2  1  0.07346300  0.62774400  0.25339100  1
  O  O3  1  0.42653700  0.12774400  0.24660900  1
  O  O4  1  0.92653700  0.37225600  0.74660900  1
  O  O5  1  0.57346300  0.87225600  0.75339100  1
  O  O6  1  0.57346300  0.37225600  0.74660900  1
  O  O7  1  0.42653700  0.62774400  0.25339100  1
  O  O8  1  0.75000000  0.89241900  0.34902600  1
  O  O9  1  0.25000000  0.10758100  0.65097400  1
  O  O10  1  0.25000000  0.60758100  0.84902600  1
  O  O11  1  0.75000000  0.39241900  0.15097400  1
  O  O12  1  0.75000000  0.72718800  0.98529700  1
  O  O13  1  0.25000000  0.27281200  0.01470300  1
  O  O14  1  0.25000000  0.77281200  0.48529700  1
  O  O15  1  0.75000000  0.22718800  0.51470300  1
  O  O16  1  0.75000000  0.53755300  0.52937500  1
  O  O17  1  0.25000000  0.46244700  0.47062500  1
  O  O18  1  0.25000000  0.96244700  0.02937500  1
  O  O19  1  0.75000000  0.03755300  0.97062500  1
loop_
_geom_bond_atom_site_label_1
_geom_bond_atom_site_label_2
_geom_bond_distance
_geom_bond_site_symmetry_2
In0 O8 2.119559 1_555
In0 O11 2.130431 1_555
In0 O7 2.168414 1_555
In0 O2 2.168414 1_655
In0 O16 2.225429 1_555
In0 O12 2.230302 1_554
In1 O9 2.119559 1_555
In1 O10 2.130431 1_555
In1 O6 2.168414 1_555
In1 O4 2.168414 1_455
In1 O17 2.225429 1_555
In1 O13 2.230302 1_556
In2 O10 2.119559 1_555
In2 O9 2.130431 1_565
In2 O5 2.168414 1_555
In2 O0 2.168414 1_455
In2 O18 2.225429 1_556
In2 O14 2.230302 1_555
In3 O11 2.119559 1_555
In3 O8 2.130431 1_545
In3 O3 2.168414 1_555
In3 O1 2.168414 1_655
In3 O19 2.225429 1_554
In3 O15 2.230302 1_555
O0 S0 1.492942 1_555
O1 S1 1.492942 1_555
O2 S2 1.492942 1_555
O3 S1 1.492942 1_555
O4 S3 1.492942 1_555
O5 S0 1.492942 1_555
O6 S3 1.492942 1_555
O7 S2 1.492942 1_555
O12 S0 1.477410 1_555
O13 S1 1.477410 1_555
O14 S2 1.477410 1_555
O15 S3 1.477410 1_555
O16 S3 1.481890 1_555
O17 S2 1.481890 1_555
O18 S1 1.481890 1_565
O19 S0 1.481890 1_545
