# generated using pymatgen
data_Sr2YbCu2(BiO4)2
_symmetry_space_group_name_H-M   'P 1'
_cell_length_a   15.86634864
_cell_length_b   15.86634864
_cell_length_c   5.23770100
_cell_angle_alpha   90.00000000
_cell_angle_beta   90.00000000
_cell_angle_gamma   160.18916433
_symmetry_Int_Tables_number   1
_chemical_formula_structural   Sr2YbCu2(BiO4)2
_chemical_formula_sum   'Sr4 Yb2 Cu4 Bi4 O16'
_cell_volume   446.87552641
_cell_formula_units_Z   2
loop_
 _symmetry_equiv_pos_site_id
 _symmetry_equiv_pos_as_xyz
  1  'x, y, z'
loop_
 _atom_site_type_symbol
 _atom_site_label
 _atom_site_symmetry_multiplicity
 _atom_site_fract_x
 _atom_site_fract_y
 _atom_site_fract_z
 _atom_site_occupancy
  Sr  Sr0  1  0.60698300  0.89320900  0.00000000  1
  Sr  Sr1  1  0.39301700  0.10679100  0.00000000  1
  Sr  Sr2  1  0.10679100  0.39301700  0.50000000  1
  Sr  Sr3  1  0.89320900  0.60698300  0.50000000  1
  Yb  Yb0  1  0.50000000  0.00000000  0.00000000  1
  Yb  Yb1  1  0.00000000  0.50000000  0.50000000  1
  Cu  Cu0  1  0.04580800  0.45444800  0.00000000  1
  Cu  Cu1  1  0.95419200  0.54555200  0.00000000  1
  Cu  Cu2  1  0.54555200  0.95419200  0.50000000  1
  Cu  Cu3  1  0.45444800  0.04580800  0.50000000  1
  Bi  Bi0  1  0.17782100  0.27743500  0.00000000  1
  Bi  Bi1  1  0.82217900  0.72256500  0.00000000  1
  Bi  Bi2  1  0.72256500  0.82217900  0.50000000  1
  Bi  Bi3  1  0.27743500  0.17782100  0.50000000  1
  O  O0  1  0.14199700  0.37323200  0.00000000  1
  O  O1  1  0.85800300  0.62676800  0.00000000  1
  O  O2  1  0.62676800  0.85800300  0.50000000  1
  O  O3  1  0.37323200  0.14199700  0.50000000  1
  O  O4  1  0.70052900  0.29947100  0.25000000  1
  O  O5  1  0.29947100  0.70052900  0.75000000  1
  O  O6  1  0.29947100  0.70052900  0.25000000  1
  O  O7  1  0.70052900  0.29947100  0.75000000  1
  O  O8  1  0.78268000  0.88280300  0.00000000  1
  O  O9  1  0.21732000  0.11719700  0.00000000  1
  O  O10  1  0.11719700  0.21732000  0.50000000  1
  O  O11  1  0.88280300  0.78268000  0.50000000  1
  O  O12  1  0.79964400  0.20035600  0.25000000  1
  O  O13  1  0.20035600  0.79964400  0.75000000  1
  O  O14  1  0.20035600  0.79964400  0.25000000  1
  O  O15  1  0.79964400  0.20035600  0.75000000  1
loop_
_geom_bond_atom_site_label_1
_geom_bond_atom_site_label_2
_geom_bond_distance
_geom_bond_site_symmetry_2
Cu0 O5 1.894489 1_554
Cu0 O6 1.894489 1_555
Cu0 O12 1.895841 1_455
Cu0 O15 1.895841 1_454
Cu1 O7 1.894489 1_554
Cu1 O4 1.894489 1_555
Cu1 O14 1.895841 1_655
Cu1 O13 1.895841 1_654
Cu2 O5 1.894489 1_555
Cu2 O6 1.894489 1_555
Cu2 O12 1.895841 1_565
Cu2 O15 1.895841 1_565
Cu3 O7 1.894489 1_555
Cu3 O4 1.894489 1_555
Cu3 O13 1.895841 1_545
Cu3 O14 1.895841 1_545
Bi0 O0 2.063716 1_555
Bi0 O8 2.155593 1_445
Bi0 O10 2.639515 1_554
Bi0 O10 2.639515 1_555
Bi1 O1 2.063716 1_555
Bi1 O9 2.155593 1_665
Bi1 O11 2.639515 1_555
Bi1 O11 2.639515 1_554
Bi2 O2 2.063716 1_555
Bi2 O10 2.155593 1_665
Bi2 O8 2.639515 1_556
Bi2 O8 2.639515 1_555
Bi3 O3 2.063716 1_555
Bi3 O11 2.155593 1_445
Bi3 O9 2.639515 1_555
Bi3 O9 2.639515 1_556
O0 Sr2 2.756608 1_555
O0 Sr2 2.756608 1_554
O0 Sr0 2.822379 1_555
O0 Sr0 2.900671 1_445
O1 Sr3 2.756608 1_555
O1 Sr3 2.756608 1_554
O1 Sr1 2.822379 1_555
O1 Sr1 2.900671 1_665
O2 Sr0 2.756608 1_555
O2 Sr0 2.756608 1_556
O2 Sr2 2.822379 1_555
O2 Sr2 2.900671 1_665
O3 Sr1 2.756608 1_555
O3 Sr1 2.756608 1_556
O3 Sr3 2.822379 1_555
O3 Sr3 2.900671 1_445
O4 Yb0 2.443041 1_555
O4 Yb1 2.443041 1_655
O4 Sr1 2.607625 1_555
O4 Sr3 2.607625 1_555
O5 Yb0 2.443041 1_566
O5 Yb1 2.443041 1_555
O5 Sr2 2.607625 1_555
O5 Sr0 2.607625 1_556
O6 Yb0 2.443041 1_565
O6 Yb1 2.443041 1_555
O6 Sr2 2.607625 1_555
O6 Sr0 2.607625 1_555
O7 Yb0 2.443041 1_556
O7 Yb1 2.443041 1_655
O7 Sr1 2.607625 1_556
O7 Sr3 2.607625 1_555
O8 Sr0 2.943536 1_555
O9 Sr1 2.943536 1_555
O10 Sr2 2.943536 1_555
O11 Sr3 2.943536 1_555
O12 Yb0 2.446468 1_555
O12 Yb1 2.446468 1_655
O12 Sr0 2.603356 1_545
O12 Sr2 2.603356 1_655
O13 Yb1 2.446468 1_555
O13 Yb0 2.446468 1_566
O13 Sr3 2.603356 1_455
O13 Sr1 2.603356 1_566
O14 Yb0 2.446468 1_565
O14 Yb1 2.446468 1_555
O14 Sr3 2.603356 1_455
O14 Sr1 2.603356 1_565
O15 Yb0 2.446468 1_556
O15 Yb1 2.446468 1_655
O15 Sr0 2.603356 1_546
O15 Sr2 2.603356 1_655
