# generated using pymatgen
data_Ce2(PdRh)3
_symmetry_space_group_name_H-M   'P 1'
_cell_length_a   4.11740000
_cell_length_b   4.21098100
_cell_length_c   8.10017200
_cell_angle_alpha   90.00000000
_cell_angle_beta   90.00000000
_cell_angle_gamma   90.00000000
_symmetry_Int_Tables_number   1
_chemical_formula_structural   Ce2(PdRh)3
_chemical_formula_sum   'Ce2 Pd3 Rh3'
_cell_volume   140.44315686
_cell_formula_units_Z   1
loop_
 _symmetry_equiv_pos_site_id
 _symmetry_equiv_pos_as_xyz
  1  'x, y, z'
loop_
 _atom_site_type_symbol
 _atom_site_label
 _atom_site_symmetry_multiplicity
 _atom_site_fract_x
 _atom_site_fract_y
 _atom_site_fract_z
 _atom_site_occupancy
  Ce  Ce0  1  0.00000000  0.00000000  0.24470800  1
  Ce  Ce1  1  0.00000000  0.00000000  0.75529200  1
  Pd  Pd0  1  0.50000000  0.50000000  0.25025600  1
  Pd  Pd1  1  0.50000000  0.50000000  0.74974400  1
  Pd  Pd2  1  0.00000000  0.50000000  0.50000000  1
  Rh  Rh0  1  0.00000000  0.50000000  0.00000000  1
  Rh  Rh1  1  0.50000000  0.00000000  0.50000000  1
  Rh  Rh2  1  0.50000000  0.00000000  0.00000000  1
loop_
_geom_bond_atom_site_label_1
_geom_bond_atom_site_label_2
_geom_bond_distance
_geom_bond_site_symmetry_2
Ce0 Rh2 2.857844 1_455
Ce0 Rh2 2.857844 1_555
Ce0 Rh0 2.891732 1_545
Ce0 Rh0 2.891732 1_555
Ce0 Rh1 2.917961 1_455
Ce0 Rh1 2.917961 1_555
Ce0 Pd0 2.945056 1_555
Ce0 Pd0 2.945056 1_445
Ce0 Pd0 2.945056 1_545
Ce0 Pd0 2.945056 1_455
Ce0 Pd2 2.951159 1_555
Ce0 Pd2 2.951159 1_545
Ce1 Rh2 2.857844 1_456
Ce1 Rh2 2.857844 1_556
Ce1 Rh0 2.891732 1_556
Ce1 Rh0 2.891732 1_546
Ce1 Rh1 2.917961 1_555
Ce1 Rh1 2.917961 1_455
Ce1 Pd1 2.945056 1_455
Ce1 Pd1 2.945056 1_555
Ce1 Pd1 2.945056 1_545
Ce1 Pd1 2.945056 1_445
Ce1 Pd2 2.951159 1_555
Ce1 Pd2 2.951159 1_545
Pd0 Pd2 2.886287 1_655
Pd0 Pd2 2.886287 1_555
Pd0 Rh0 2.889195 1_655
Pd0 Rh0 2.889195 1_555
Pd0 Rh1 2.919845 1_565
Pd0 Rh1 2.919845 1_555
Pd0 Rh2 2.922720 1_555
Pd0 Rh2 2.922720 1_565
Pd1 Pd2 2.886287 1_655
Pd1 Pd2 2.886287 1_555
Pd1 Rh0 2.889195 1_556
Pd1 Rh0 2.889195 1_656
Pd1 Rh1 2.919845 1_565
Pd1 Rh1 2.919845 1_555
Pd1 Rh2 2.922720 1_556
Pd1 Rh2 2.922720 1_566
Pd2 Rh1 2.944713 1_555
Pd2 Rh1 2.944713 1_465
Pd2 Rh1 2.944713 1_455
Pd2 Rh1 2.944713 1_565
Rh0 Rh2 2.944713 1_455
Rh0 Rh2 2.944713 1_555
Rh0 Rh2 2.944713 1_565
Rh0 Rh2 2.944713 1_465
