# generated using pymatgen
data_CaHfMg14
_symmetry_space_group_name_H-M   'P 1'
_cell_length_a   6.52943669
_cell_length_b   6.52943614
_cell_length_c   10.27360188
_cell_angle_alpha   90.00000000
_cell_angle_beta   90.00000000
_cell_angle_gamma   120.00000283
_symmetry_Int_Tables_number   1
_chemical_formula_structural   CaHfMg14
_chemical_formula_sum   'Ca1 Hf1 Mg14'
_cell_volume   379.31912970
_cell_formula_units_Z   1
loop_
 _symmetry_equiv_pos_site_id
 _symmetry_equiv_pos_as_xyz
  1  'x, y, z'
loop_
 _atom_site_type_symbol
 _atom_site_label
 _atom_site_symmetry_multiplicity
 _atom_site_fract_x
 _atom_site_fract_y
 _atom_site_fract_z
 _atom_site_occupancy
  Ca  Ca0  1  0.16666700  0.33333300  0.12500000  1
  Hf  Hf0  1  0.16666700  0.33333300  0.62500000  1
  Mg  Mg0  1  0.17226871  0.83613386  0.12500000  1
  Mg  Mg1  1  0.16995005  0.83497453  0.62500000  1
  Mg  Mg2  1  0.66386614  0.32773129  0.12500000  1
  Mg  Mg3  1  0.66502547  0.33004995  0.62500000  1
  Mg  Mg4  1  0.66386614  0.83613386  0.12500000  1
  Mg  Mg5  1  0.66502547  0.83497453  0.62500000  1
  Mg  Mg6  1  0.33413750  0.16586250  0.38257513  1
  Mg  Mg7  1  0.33413750  0.16586250  0.86742487  1
  Mg  Mg8  1  0.33413750  0.66827600  0.38257513  1
  Mg  Mg9  1  0.33413750  0.66827600  0.86742487  1
  Mg  Mg10  1  0.83172400  0.16586250  0.38257513  1
  Mg  Mg11  1  0.83172400  0.16586250  0.86742487  1
  Mg  Mg12  1  0.83333300  0.66666700  0.37364094  1
  Mg  Mg13  1  0.83333300  0.66666700  0.87635906  1
loop_
_geom_bond_atom_site_label_1
_geom_bond_atom_site_label_2
_geom_bond_distance
_geom_bond_site_symmetry_2
Ca0 Mg7 3.254174 1_554
Ca0 Mg6 3.254174 1_555
Ca0 Mg8 3.254181 1_555
Ca0 Mg9 3.254181 1_554
Ca0 Mg11 3.254181 1_454
Ca0 Mg10 3.254181 1_455
Ca0 Mg0 3.264872 1_545
Ca0 Mg4 3.264872 1_555
Ca0 Mg4 3.264872 1_445
Ca0 Mg0 3.264872 1_555
Ca0 Mg2 3.264872 1_555
Ca0 Mg2 3.264872 1_455
Hf0 Mg7 3.128917 1_555
Hf0 Mg6 3.128917 1_555
Hf0 Mg9 3.128923 1_555
Hf0 Mg8 3.128923 1_555
Hf0 Mg11 3.128924 1_455
Hf0 Mg10 3.128924 1_455
Hf0 Mg1 3.264771 1_545
Hf0 Mg5 3.264771 1_555
Hf0 Mg5 3.264771 1_445
Hf0 Mg1 3.264771 1_555
Hf0 Mg3 3.264771 1_555
Hf0 Mg3 3.264771 1_455
Mg0 Mg12 3.193490 1_455
Mg0 Mg13 3.193490 1_454
Mg0 Mg2 3.209854 1_565
Mg0 Mg4 3.209854 1_555
Mg0 Mg8 3.237161 1_555
Mg0 Mg9 3.237161 1_554
Mg0 Mg6 3.237168 1_565
Mg0 Mg7 3.237168 1_564
Mg0 Mg2 3.319582 1_455
Mg0 Mg4 3.319582 1_455
Mg1 Mg8 3.115101 1_555
Mg1 Mg9 3.115101 1_555
Mg1 Mg7 3.115108 1_565
Mg1 Mg6 3.115108 1_565
Mg1 Mg13 3.208074 1_455
Mg1 Mg12 3.208074 1_455
Mg1 Mg3 3.232563 1_565
Mg1 Mg5 3.232564 1_555
Mg1 Mg3 3.296873 1_455
Mg1 Mg5 3.296873 1_455
Mg2 Mg4 3.209854 1_545
Mg2 Mg6 3.237168 1_555
Mg2 Mg7 3.237168 1_554
Mg2 Mg4 3.319582 1_555
Mg3 Mg6 3.115108 1_555
Mg3 Mg7 3.115108 1_555
Mg3 Mg5 3.232563 1_545
Mg3 Mg5 3.296873 1_555
Mg4 Mg8 3.237168 1_555
Mg4 Mg9 3.237168 1_554
Mg5 Mg9 3.115108 1_555
Mg5 Mg8 3.115108 1_555
Mg6 Mg8 3.248959 1_545
Mg6 Mg8 3.280477 1_555
Mg7 Mg9 3.248959 1_545
Mg7 Mg9 3.280477 1_555
Mg10 Mg3 3.115101 1_555
Mg10 Mg5 3.115108 1_545
Mg10 Mg2 3.237161 1_555
Mg10 Mg4 3.237168 1_545
Mg10 Mg8 3.248959 1_545
Mg10 Mg6 3.248960 1_555
Mg10 Mg12 3.266021 1_555
Mg10 Mg12 3.266021 1_545
Mg10 Mg8 3.280477 1_655
Mg10 Mg6 3.280477 1_655
Mg11 Mg3 3.115101 1_555
Mg11 Mg5 3.115108 1_545
Mg11 Mg2 3.237161 1_556
Mg11 Mg4 3.237168 1_546
Mg11 Mg9 3.248959 1_545
Mg11 Mg7 3.248960 1_555
Mg11 Mg13 3.266021 1_555
Mg11 Mg13 3.266021 1_545
Mg11 Mg9 3.280477 1_655
Mg11 Mg7 3.280477 1_655
Mg12 Mg4 3.193483 1_555
Mg12 Mg2 3.193490 1_555
Mg12 Mg5 3.208067 1_555
Mg12 Mg3 3.208074 1_555
Mg12 Mg6 3.266021 1_555
Mg12 Mg6 3.266021 1_665
Mg12 Mg8 3.266021 1_655
Mg12 Mg8 3.266021 1_555
Mg13 Mg4 3.193483 1_556
Mg13 Mg2 3.193490 1_556
Mg13 Mg5 3.208067 1_555
Mg13 Mg3 3.208074 1_555
Mg13 Mg7 3.266021 1_555
Mg13 Mg7 3.266021 1_665
Mg13 Mg9 3.266021 1_655
Mg13 Mg9 3.266021 1_555
