# generated using pymatgen
data_YbMnCuP2
_symmetry_space_group_name_H-M   'P 1'
_cell_length_a   3.89669760
_cell_length_b   3.89669760
_cell_length_c   6.52718100
_cell_angle_alpha   90.00000000
_cell_angle_beta   90.00000000
_cell_angle_gamma   119.99999325
_symmetry_Int_Tables_number   1
_chemical_formula_structural   YbMnCuP2
_chemical_formula_sum   'Yb1 Mn1 Cu1 P2'
_cell_volume   85.83209754
_cell_formula_units_Z   1
loop_
 _symmetry_equiv_pos_site_id
 _symmetry_equiv_pos_as_xyz
  1  'x, y, z'
loop_
 _atom_site_type_symbol
 _atom_site_label
 _atom_site_symmetry_multiplicity
 _atom_site_fract_x
 _atom_site_fract_y
 _atom_site_fract_z
 _atom_site_occupancy
  Yb  Yb0  1  0.33333300  0.66666700  0.98996300  1
  Mn  Mn0  1  0.00000000  0.00000000  0.37773300  1
  Cu  Cu0  1  0.66666700  0.33333300  0.63342100  1
  P  P0  1  0.66666700  0.33333300  0.27452800  1
  P  P1  1  0.00000000  0.00000000  0.72435400  1
loop_
_geom_bond_atom_site_label_1
_geom_bond_atom_site_label_2
_geom_bond_distance
_geom_bond_site_symmetry_2
Mn0 P1 2.262458 1_555
Mn0 P0 2.348445 1_455
Mn0 P0 2.348449 1_555
Mn0 P0 2.348449 1_445
Cu0 P1 2.326734 1_655
Cu0 P1 2.326738 1_555
Cu0 P1 2.326738 1_665
Cu0 P0 2.342560 1_555
P0 Yb0 2.917425 1_544
P0 Yb0 2.917425 1_654
P0 Yb0 2.917430 1_554
P1 Yb0 2.840255 1_545
P1 Yb0 2.840257 1_555
P1 Yb0 2.840257 1_445
