# generated using pymatgen
data_Na12DyY3H48(CO5)12
_symmetry_space_group_name_H-M   'P 1'
_cell_length_a   11.74961211
_cell_length_b   11.72903202
_cell_length_c   13.13260943
_cell_angle_alpha   63.46899013
_cell_angle_beta   63.42728422
_cell_angle_gamma   89.99698538
_symmetry_Int_Tables_number   1
_chemical_formula_structural   Na12DyY3H48(CO5)12
_chemical_formula_sum   'Na12 Dy1 Y3 H48 C12 O60'
_cell_volume   1402.33936470
_cell_formula_units_Z   1
loop_
 _symmetry_equiv_pos_site_id
 _symmetry_equiv_pos_as_xyz
  1  'x, y, z'
loop_
 _atom_site_type_symbol
 _atom_site_label
 _atom_site_symmetry_multiplicity
 _atom_site_fract_x
 _atom_site_fract_y
 _atom_site_fract_z
 _atom_site_occupancy
  Na  Na0  1  0.00925778  0.90147536  0.36202548  1
  Na  Na1  1  0.00899756  0.40156385  0.36236391  1
  Na  Na2  1  0.62870503  0.57791978  0.00926466  1
  Na  Na3  1  0.62864749  0.07828083  0.00902102  1
  Na  Na4  1  0.36208466  0.76825089  0.62870269  1
  Na  Na5  1  0.36234524  0.26856226  0.62860633  1
  Na  Na6  1  0.99067887  0.51385611  0.63791269  1
  Na  Na7  1  0.99077168  0.01368610  0.63794756  1
  Na  Na8  1  0.37131141  0.83724678  0.99074723  1
  Na  Na9  1  0.37134712  0.33746255  0.99071533  1
  Na  Na10  1  0.63785457  0.64709439  0.37142332  1
  Na  Na11  1  0.63787997  0.14692771  0.37133029  1
  Dy  Dy0  1  0.66671839  0.62007092  0.66667716  1
  Y  Y0  1  0.33330178  0.53695238  0.33333680  1
  Y  Y1  1  0.33330466  0.03695309  0.33333132  1
  Y  Y2  1  0.66670269  0.11997350  0.66662758  1
  H  H0  1  0.13803718  0.96502120  0.09640265  1
  H  H1  1  0.13796664  0.46515466  0.09663424  1
  H  H2  1  0.76543373  0.94448420  0.13792696  1
  H  H3  1  0.76555970  0.44422669  0.13801338  1
  H  H4  1  0.09651321  0.63054422  0.76553458  1
  H  H5  1  0.09660513  0.13074292  0.76543435  1
  H  H6  1  0.86160582  0.31169212  0.90352139  1
  H  H7  1  0.86192412  0.81146543  0.90360392  1
  H  H8  1  0.23486941  0.33266690  0.86158647  1
  H  H9  1  0.23447125  0.83226641  0.86197417  1
  H  H10  1  0.90346715  0.64604039  0.23485583  1
  H  H11  1  0.90354522  0.14606426  0.23443311  1
  H  H12  1  0.99851849  0.40137817  0.13176975  1
  H  H13  1  0.99852643  0.90108974  0.13175117  1
  H  H14  1  0.86973196  0.46776543  0.99849266  1
  H  H15  1  0.86970264  0.96799530  0.99846257  1
  H  H16  1  0.13186212  0.03240193  0.86966639  1
  H  H17  1  0.13186154  0.53213520  0.86967615  1
  H  H18  1  0.00104815  0.28294895  0.86828238  1
  H  H19  1  0.00146068  0.78297629  0.86825905  1
  H  H20  1  0.13055346  0.21669829  0.00107462  1
  H  H21  1  0.13030324  0.71626071  0.00148109  1
  H  H22  1  0.86826495  0.65197529  0.13057803  1
  H  H23  1  0.86818735  0.15185673  0.13030679  1
  H  H24  1  0.71466410  0.42168750  0.50226661  1
  H  H25  1  0.71474544  0.92115523  0.50270493  1
  H  H26  1  0.78304850  0.31548037  0.71468230  1
  H  H27  1  0.78252123  0.81516280  0.71476367  1
  H  H28  1  0.50234594  0.28136244  0.78305307  1
  H  H29  1  0.50280181  0.78133137  0.78253804  1
  H  H30  1  0.28519432  0.17416137  0.49781343  1
  H  H31  1  0.28521908  0.67410312  0.49778232  1
  H  H32  1  0.21693909  0.28041248  0.28527015  1
  H  H33  1  0.21702173  0.78045423  0.28510733  1
  H  H34  1  0.49780180  0.31453097  0.21701815  1
  H  H35  1  0.49772553  0.81466088  0.21690247  1
  H  H36  1  0.67587679  0.35443347  0.43287106  1
  H  H37  1  0.67536180  0.85407226  0.43367055  1
  H  H38  1  0.89127853  0.23300321  0.67584556  1
  H  H39  1  0.89099513  0.73331591  0.67531992  1
  H  H40  1  0.43293858  0.12532695  0.89121218  1
  H  H41  1  0.43374448  0.62552196  0.89096549  1
  H  H42  1  0.32404813  0.03754602  0.56709796  1
  H  H43  1  0.32426652  0.53761635  0.56711478  1
  H  H44  1  0.10880308  0.15903458  0.32406985  1
  H  H45  1  0.10860681  0.65906012  0.32428189  1
  H  H46  1  0.56711183  0.26687574  0.10868005  1
  H  H47  1  0.56709560  0.76668414  0.10885637  1
  C  C0  1  0.31985476  0.02332255  0.12406363  1
  C  C1  1  0.31976536  0.52318708  0.12423091  1
  C  C2  1  0.55602338  0.92543969  0.31977819  1
  C  C3  1  0.55602887  0.42539997  0.31989193  1
  C  C4  1  0.12420771  0.80733765  0.55598205  1
  C  C5  1  0.12414700  0.30741362  0.55605987  1
  C  C6  1  0.68013890  0.39770418  0.87546388  1
  C  C7  1  0.68016624  0.89716945  0.87593536  1
  C  C8  1  0.44450980  0.49547955  0.68012290  1
  C  C9  1  0.44398108  0.99515454  0.68012956  1
  C  C10  1  0.87530670  0.61310092  0.44456082  1
  C  C11  1  0.87583553  0.11307287  0.44396711  1
  O  O0  1  0.40123536  0.12075141  0.09665842  1
  O  O1  1  0.40128900  0.62053178  0.09679104  1
  O  O2  1  0.50193749  0.96831621  0.40131149  1
  O  O3  1  0.50201956  0.46843075  0.40128409  1
  O  O4  1  0.09677358  0.91801325  0.50195149  1
  O  O5  1  0.09667358  0.41807156  0.50209396  1
  O  O6  1  0.59893801  0.46802595  0.90252002  1
  O  O7  1  0.59877899  0.96724796  0.90323828  1
  O  O8  1  0.49867436  0.61993469  0.59890399  1
  O  O9  1  0.49804180  0.11954719  0.59872248  1
  O  O10  1  0.90242420  0.66986149  0.49865119  1
  O  O11  1  0.90320463  0.16976554  0.49799056  1
  O  O12  1  0.69166420  0.33637234  0.50757952  1
  O  O13  1  0.69113674  0.83579859  0.50838710  1
  O  O14  1  0.80083032  0.24444152  0.69152184  1
  O  O15  1  0.80053617  0.74454863  0.69102000  1
  O  O16  1  0.50770457  0.18986895  0.80075673  1
  O  O17  1  0.50854493  0.68984235  0.80053572  1
  O  O18  1  0.30839044  0.09428615  0.49233438  1
  O  O19  1  0.30842318  0.59419039  0.49241217  1
  O  O20  1  0.19921666  0.18621856  0.30839954  1
  O  O21  1  0.19910697  0.68619451  0.30847828  1
  O  O22  1  0.49232908  0.24089293  0.19915171  1
  O  O23  1  0.49224997  0.74088329  0.19922445  1
  O  O24  1  0.04297467  0.96000071  0.14419285  1
  O  O25  1  0.04289117  0.46016735  0.14436907  1
  O  O26  1  0.81277745  0.01092461  0.04288213  1
  O  O27  1  0.81281638  0.51065690  0.04297917  1
  O  O28  1  0.14423544  0.62576900  0.81284601  1
  O  O29  1  0.14436847  0.12601585  0.81270333  1
  O  O30  1  0.95671010  0.35436710  0.85577861  1
  O  O31  1  0.95697048  0.85430012  0.85585956  1
  O  O32  1  0.18747499  0.30402916  0.95664588  1
  O  O33  1  0.18715798  0.80366492  0.95700787  1
  O  O34  1  0.85579919  0.68865272  0.18747265  1
  O  O35  1  0.85586967  0.18868908  0.18707969  1
  O  O36  1  0.24262731  0.93753614  0.24930780  1
  O  O37  1  0.24244480  0.43750541  0.24949427  1
  O  O38  1  0.50808856  0.94111904  0.24244594  1
  O  O39  1  0.50803138  0.44087899  0.24265731  1
  O  O40  1  0.24944837  0.80821651  0.50801024  1
  O  O41  1  0.24937251  0.30828798  0.50809563  1
  O  O42  1  0.75732817  0.43694148  0.75030049  1
  O  O43  1  0.75736174  0.93648713  0.75073624  1
  O  O44  1  0.49240908  0.43353486  0.75738303  1
  O  O45  1  0.49195182  0.93325700  0.75735167  1
  O  O46  1  0.75016344  0.56580965  0.49249896  1
  O  O47  1  0.75062672  0.06582079  0.49198313  1
  O  O48  1  0.31308457  0.00985766  0.03454781  1
  O  O49  1  0.31300061  0.50979234  0.03468276  1
  O  O50  1  0.65229224  0.87060684  0.31304174  1
  O  O51  1  0.65232418  0.37057058  0.31312929  1
  O  O52  1  0.03464162  0.70097366  0.65231780  1
  O  O53  1  0.03462288  0.20097485  0.65237807  1
  O  O54  1  0.68672838  0.29479844  0.96521089  1
  O  O55  1  0.68692967  0.79426629  0.96554321  1
  O  O56  1  0.34822209  0.43417180  0.68664287  1
  O  O57  1  0.34758562  0.93364105  0.68691169  1
  O  O58  1  0.96507615  0.60322163  0.34819010  1
  O  O59  1  0.96541862  0.10315287  0.34757442  1
loop_
_geom_bond_atom_site_label_1
_geom_bond_atom_site_label_2
_geom_bond_distance
_geom_bond_site_symmetry_2
Na0 O59 2.362863 1_465
Na0 O36 2.387068 1_555
Na0 O10 2.409523 1_455
Na0 O24 2.458374 1_555
Na0 O4 2.545723 1_555
Na1 O58 2.363868 1_455
Na1 O37 2.388059 1_555
Na1 O11 2.408883 1_455
Na1 O25 2.459467 1_555
Na1 O5 2.544541 1_555
Na2 O55 2.363029 1_554
Na2 O39 2.387338 1_555
Na2 O6 2.408686 1_554
Na2 O27 2.458192 1_555
Na2 O1 2.544820 1_555
Na3 O54 2.364236 1_554
Na3 O38 2.387758 1_545
Na3 O7 2.408636 1_544
Na3 O26 2.459494 1_555
Na3 O0 2.544223 1_555
Na4 O57 2.363196 1_555
Na4 O40 2.386699 1_555
Na4 O8 2.408524 1_555
Na4 O28 2.458616 1_555
Na4 O2 2.544454 1_555
Na5 O56 2.364514 1_555
Na5 O41 2.388382 1_555
Na5 O9 2.409060 1_555
Na5 O29 2.459569 1_555
Na5 O3 2.542855 1_555
Na6 O52 2.361738 1_655
Na6 O42 2.387447 1_555
Na6 O5 2.407750 1_655
Na6 O30 2.457997 1_555
Na6 O10 2.544618 1_555
Na7 O53 2.363541 1_655
Na7 O43 2.388059 1_545
Na7 O4 2.408393 1_645
Na7 O31 2.458867 1_545
Na7 O11 2.544384 1_555
Na8 O48 2.363454 1_566
Na8 O45 2.387825 1_555
Na8 O1 2.408503 1_556
Na8 O33 2.459052 1_555
Na8 O7 2.544760 1_555
Na9 O49 2.361614 1_556
Na9 O44 2.387182 1_555
Na9 O0 2.407815 1_556
Na9 O32 2.458259 1_555
Na9 O6 2.546046 1_555
Na10 O50 2.361644 1_555
Na10 O46 2.387731 1_555
Na10 O3 2.408033 1_555
Na10 O34 2.458572 1_555
Na10 O8 2.545483 1_555
Na11 O51 2.363598 1_555
Na11 O47 2.387820 1_555
Na11 O2 2.407465 1_545
Na11 O35 2.460006 1_555
Na11 O9 2.544408 1_555
Dy0 O15 2.360692 1_555
Dy0 O13 2.360805 1_555
Dy0 O17 2.361356 1_555
Dy0 O44 2.426907 1_555
Dy0 O42 2.427250 1_555
Dy0 O46 2.427469 1_555
Dy0 O10 2.502318 1_555
Dy0 O8 2.502825 1_555
Dy0 O6 2.503262 1_555
H0 O24 0.992349 1_555
H1 O25 0.992490 1_555
H2 O26 0.992257 1_565
H3 O27 0.992141 1_555
H4 O28 0.992059 1_555
H5 O29 0.992117 1_555
H6 O30 0.992568 1_555
H7 O31 0.992411 1_555
H8 O32 0.992387 1_555
H9 O33 0.992194 1_555
H10 O34 0.992289 1_555
H11 O35 0.992142 1_555
H12 O25 0.976629 1_655
H13 O24 0.976791 1_655
H14 O27 0.977038 1_556
H15 O26 0.976974 1_566
H16 O29 0.977081 1_555
H17 O28 0.977221 1_555
H18 O30 0.976548 1_455
H19 O31 0.976740 1_455
H20 O32 0.976714 1_554
H21 O33 0.976957 1_554
H22 O34 0.976741 1_555
H23 O35 0.977068 1_555
H24 O12 1.000006 1_555
H24 O46 1.675237 1_555
H25 O13 0.999794 1_555
H25 O47 1.676358 1_565
H26 O14 0.999973 1_555
H26 O42 1.675852 1_555
H27 O15 0.999829 1_555
H27 O43 1.676639 1_555
H28 O16 0.999912 1_555
H28 O44 1.676477 1_555
H29 O17 0.999796 1_555
H29 O45 1.676938 1_555
H30 O18 0.999907 1_555
H30 O41 1.676044 1_555
H31 O19 0.999830 1_555
H31 O40 1.675488 1_555
H32 O20 0.999927 1_555
H32 O37 1.675187 1_555
H33 O21 0.999944 1_555
H33 O36 1.675033 1_555
H34 O22 0.999859 1_555
H34 O39 1.675101 1_555
H35 O23 0.999846 1_555
H35 O38 1.675825 1_555
H36 O12 1.009464 1_555
H36 O51 1.645801 1_555
H37 O13 1.008919 1_555
H37 O50 1.652387 1_555
H38 O14 1.009306 1_555
H38 O53 1.646736 1_655
H39 O15 1.008825 1_555
H39 O52 1.652257 1_655
H40 O16 1.009452 1_555
H40 O48 1.646746 1_556
H41 O17 1.008858 1_555
H41 O49 1.653277 1_556
H42 O18 1.009259 1_555
H42 O57 1.647330 1_545
H43 O19 1.009563 1_555
H43 O56 1.645946 1_555
H44 O20 1.009144 1_555
H44 O59 1.648409 1_455
H45 O21 1.009278 1_555
H45 O58 1.647497 1_455
H46 O22 1.009520 1_555
H46 O54 1.646859 1_554
H47 O23 1.009366 1_555
H47 O55 1.647606 1_554
C0 O48 1.289486 1_555
C0 O0 1.294028 1_555
C0 O36 1.314323 1_545
C1 O49 1.289443 1_555
C1 O1 1.294110 1_555
C1 O37 1.314364 1_555
C2 O50 1.289230 1_555
C2 O2 1.294411 1_555
C2 O38 1.314267 1_555
C3 O51 1.289437 1_555
C3 O3 1.294227 1_555
C3 O39 1.314165 1_555
C4 O52 1.289728 1_555
C4 O4 1.293910 1_555
C4 O40 1.314227 1_555
C5 O53 1.289964 1_555
C5 O5 1.293801 1_555
C5 O41 1.314079 1_555
C6 O54 1.289455 1_555
C6 O6 1.294320 1_555
C6 O42 1.314030 1_555
C7 O55 1.289443 1_555
C7 O7 1.294244 1_555
C7 O43 1.314212 1_555
C8 O56 1.289480 1_555
C8 O8 1.294360 1_555
C8 O44 1.313909 1_555
C9 O57 1.289851 1_555
C9 O9 1.293906 1_565
C9 O45 1.314086 1_555
C10 O58 1.290112 1_555
C10 O10 1.293958 1_555
C10 O46 1.313766 1_555
C11 O59 1.289726 1_555
C11 O11 1.294029 1_555
C11 O47 1.314153 1_555
O0 Y1 2.512977 1_555
O1 Y0 2.511700 1_555
O2 Y1 2.512223 1_565
O3 Y0 2.512706 1_555
O4 Y1 2.511600 1_565
O5 Y0 2.512550 1_555
O7 Y2 2.511974 1_565
O9 Y2 2.511469 1_555
O11 Y2 2.511246 1_555
O12 Y2 2.367872 1_555
O14 Y2 2.368405 1_555
O16 Y2 2.368694 1_555
O18 Y1 2.367639 1_555
O19 Y0 2.367902 1_555
O20 Y1 2.367183 1_555
O21 Y0 2.367808 1_555
O22 Y1 2.367966 1_555
O23 Y0 2.367539 1_555
O36 Y1 2.431841 1_565
O37 Y0 2.431382 1_555
O38 Y1 2.431224 1_565
O39 Y0 2.431876 1_555
O40 Y1 2.431227 1_565
O41 Y0 2.430918 1_555
O43 Y2 2.432097 1_565
O45 Y2 2.431523 1_565
O47 Y2 2.431884 1_555
