# generated using pymatgen
data_KFe2P3(O4F3)2
_symmetry_space_group_name_H-M   'P 1'
_cell_length_a   7.13997330
_cell_length_b   7.56789002
_cell_length_c   10.43407915
_cell_angle_alpha   101.11920255
_cell_angle_beta   109.97680291
_cell_angle_gamma   90.07470376
_symmetry_Int_Tables_number   1
_chemical_formula_structural   KFe2P3(O4F3)2
_chemical_formula_sum   'K2 Fe4 P6 O16 F12'
_cell_volume   518.54864314
_cell_formula_units_Z   2
loop_
 _symmetry_equiv_pos_site_id
 _symmetry_equiv_pos_as_xyz
  1  'x, y, z'
loop_
 _atom_site_type_symbol
 _atom_site_label
 _atom_site_symmetry_multiplicity
 _atom_site_fract_x
 _atom_site_fract_y
 _atom_site_fract_z
 _atom_site_occupancy
  K  K0  1  0.79072644  0.07790831  0.80716029  1
  K  K1  1  0.20927356  0.92209169  0.19283971  1
  Fe  Fe0  1  0.65890135  0.32187053  0.33162681  1
  Fe  Fe1  1  0.34109865  0.67812947  0.66837319  1
  Fe  Fe2  1  0.50000000  0.50000000  -0.00000000  1
  Fe  Fe3  1  0.00000000  -0.00000000  0.50000000  1
  P  P0  1  0.65859080  0.72541788  0.50601898  1
  P  P1  1  0.34140920  0.27458212  0.49398102  1
  P  P2  1  0.31445055  0.08680296  0.82165505  1
  P  P3  1  0.68554945  0.91319704  0.17834495  1
  P  P4  1  0.04851186  0.58774738  0.83573485  1
  P  P5  1  0.95148814  0.41225262  0.16426515  1
  O  O0  1  0.74029321  0.56294977  0.44262731  1
  O  O1  1  0.25970679  0.43705023  0.55737269  1
  O  O2  1  0.79940071  0.89302783  0.55779169  1
  O  O3  1  0.20059929  0.10697217  0.44220831  1
  O  O4  1  0.57599756  0.07589171  0.21083294  1
  O  O5  1  0.42400244  0.92410829  0.78916706  1
  O  O6  1  0.46137079  0.24739291  0.89859951  1
  O  O7  1  0.53862921  0.75260709  0.10140049  1
  O  O8  1  0.86324452  0.87974649  0.29800644  1
  O  O9  1  0.13675548  0.12025351  0.70199356  1
  O  O10  1  0.89774221  0.33552214  0.26742354  1
  O  O11  1  0.10225779  0.66447786  0.73257646  1
  O  O12  1  0.79856612  0.48252809  0.05248771  1
  O  O13  1  0.20143388  0.51747191  0.94751229  1
  O  O14  1  0.42329343  0.30275351  0.38359942  1
  O  O15  1  0.57670657  0.69724649  0.61640058  1
  F  F0  1  0.83418686  0.20814879  0.47728707  1
  F  F1  1  0.16581314  0.79185121  0.52271293  1
  F  F2  1  0.50221952  0.42072224  0.16718655  1
  F  F3  1  0.49778048  0.57927776  0.83281345  1
  F  F4  1  0.78251410  0.95703714  0.07063095  1
  F  F5  1  0.21748590  0.04296286  0.92936905  1
  F  F6  1  0.87291602  0.44329429  0.76384634  1
  F  F7  1  0.12708398  0.55670571  0.23615366  1
  F  F8  1  0.52413399  0.22827368  0.61613343  1
  F  F9  1  0.47586601  0.77172632  0.38386657  1
  F  F10  1  0.05547332  0.26472398  0.09170180  1
  F  F11  1  0.94452668  0.73527602  0.90829820  1
loop_
_geom_bond_atom_site_label_1
_geom_bond_atom_site_label_2
_geom_bond_distance
_geom_bond_site_symmetry_2
K0 O2 2.727216 1_545
K0 O5 2.796051 1_545
K0 O6 3.025608 1_555
K0 O9 3.065428 1_655
K0 O15 3.208510 1_545
K1 O3 2.727216 1_565
K1 O4 2.796051 1_565
K1 O7 3.025608 1_555
K1 O8 3.065428 1_455
K1 O14 3.208510 1_565
Fe0 O0 1.931348 1_555
Fe0 O14 1.948812 1_555
Fe0 O4 1.996665 1_555
Fe0 O10 2.043125 1_555
Fe1 O1 1.931348 1_555
Fe1 O15 1.948812 1_555
Fe1 O5 1.996665 1_555
Fe1 O11 2.043125 1_555
Fe2 O6 1.967026 1_554
Fe2 O7 1.967026 1_555
Fe2 O13 2.023053 1_554
Fe2 O12 2.023053 1_555
Fe3 O2 1.961067 1_445
Fe3 O3 1.961067 1_555
Fe3 O8 2.018766 1_445
Fe3 O9 2.018766 1_555
O0 P0 1.497132 1_555
O1 P1 1.497132 1_555
O2 P0 1.507604 1_555
O3 P1 1.507604 1_555
O4 P3 1.505136 1_545
O5 P2 1.505136 1_565
O6 P2 1.505617 1_555
O7 P3 1.505617 1_555
O8 P3 1.507663 1_555
O9 P2 1.507663 1_555
O10 P5 1.471644 1_555
O11 P4 1.471644 1_555
O12 P5 1.485227 1_555
O13 P4 1.485227 1_555
O14 P1 1.506064 1_555
O15 P0 1.506064 1_555
F0 Fe0 1.955645 1_555
F0 Fe3 1.973913 1_655
F1 Fe1 1.955645 1_555
F1 Fe3 1.973913 1_565
F2 Fe2 1.946300 1_555
F2 Fe0 1.985144 1_555
F3 Fe2 1.946300 1_556
F3 Fe1 1.985144 1_555
F4 P3 1.589785 1_555
F4 K1 2.908227 1_655
F4 K0 3.078557 1_564
F5 P2 1.589785 1_555
F5 K0 2.908227 1_455
F5 K1 3.078557 1_546
F6 P4 1.538570 1_655
F6 K0 2.975560 1_555
F7 P5 1.538570 1_455
F7 K1 2.975560 1_555
F8 P1 1.576926 1_555
F8 K0 2.679374 1_555
F9 P0 1.576926 1_555
F9 K1 2.679374 1_555
F10 P5 1.559238 1_455
F10 K0 2.987634 1_454
F10 K1 3.051918 1_545
F11 P4 1.559238 1_655
F11 K1 2.987634 1_656
F11 K0 3.051918 1_565
