# generated using pymatgen
data_Zn(MoO2)2
_symmetry_space_group_name_H-M   'P 1'
_cell_length_a   6.45084643
_cell_length_b   6.45074401
_cell_length_c   18.60280098
_cell_angle_alpha   59.99852428
_cell_angle_beta   60.45072186
_cell_angle_gamma   58.59123963
_symmetry_Int_Tables_number   1
_chemical_formula_structural   Zn(MoO2)2
_chemical_formula_sum   'Zn6 Mo12 O24'
_cell_volume   543.09219273
_cell_formula_units_Z   6
loop_
 _symmetry_equiv_pos_site_id
 _symmetry_equiv_pos_as_xyz
  1  'x, y, z'
loop_
 _atom_site_type_symbol
 _atom_site_label
 _atom_site_symmetry_multiplicity
 _atom_site_fract_x
 _atom_site_fract_y
 _atom_site_fract_z
 _atom_site_occupancy
  Zn  Zn0  1  0.12408100  0.11966000  0.04558200  1
  Zn  Zn1  1  0.11189100  0.11822600  0.38005000  1
  Zn  Zn2  1  0.49719800  0.49732300  0.33583800  1
  Zn  Zn3  1  0.12634000  0.12871700  0.70845900  1
  Zn  Zn4  1  0.50114700  0.49859800  0.00384600  1
  Zn  Zn5  1  0.87282200  0.88014100  0.62197700  1
  Mo  Mo0  1  0.50085700  0.49264600  0.16787900  1
  Mo  Mo1  1  0.50352800  0.00184600  0.16517500  1
  Mo  Mo2  1  0.48745500  0.49799500  0.49939100  1
  Mo  Mo3  1  0.00550400  0.49566700  0.16630500  1
  Mo  Mo4  1  0.49017300  0.00590900  0.49776800  1
  Mo  Mo5  1  0.49924200  0.50474900  0.66616300  1
  Mo  Mo6  1  0.88699700  0.86671500  0.28750700  1
  Mo  Mo7  1  0.50727300  0.50305800  0.83468300  1
  Mo  Mo8  1  0.99508400  0.50066700  0.49789500  1
  Mo  Mo9  1  0.50714800  0.00281600  0.83357000  1
  Mo  Mo10  1  0.00530900  0.50307800  0.83402800  1
  Mo  Mo11  1  0.88592300  0.87442300  0.95551000  1
  O  O0  1  0.26511100  0.26501400  0.08118700  1
  O  O1  1  0.26460500  0.25710100  0.24268900  1
  O  O2  1  0.24678000  0.72648900  0.08881400  1
  O  O3  1  0.73151000  0.24490300  0.08836600  1
  O  O4  1  0.25040200  0.26604000  0.41436800  1
  O  O5  1  0.28344400  0.76172100  0.24120200  1
  O  O6  1  0.25370200  0.26095800  0.57523700  1
  O  O7  1  0.76771300  0.26981600  0.24320200  1
  O  O8  1  0.73121200  0.72870500  0.09207600  1
  O  O9  1  0.23611100  0.72746000  0.42010600  1
  O  O10  1  0.71918200  0.24574000  0.42134500  1
  O  O11  1  0.73039400  0.72516500  0.25412500  1
  O  O12  1  0.26442000  0.26548900  0.75015900  1
  O  O13  1  0.26675600  0.75170200  0.57928400  1
  O  O14  1  0.74287700  0.27539500  0.57973500  1
  O  O15  1  0.27031900  0.26395800  0.91008600  1
  O  O16  1  0.71839700  0.73396600  0.42459900  1
  O  O17  1  0.25247000  0.73160500  0.75540100  1
  O  O18  1  0.73132600  0.25358100  0.75505600  1
  O  O19  1  0.73334200  0.74092400  0.58257600  1
  O  O20  1  0.28388400  0.76693500  0.90906700  1
  O  O21  1  0.77271200  0.27547500  0.90972500  1
  O  O22  1  0.74162800  0.74153000  0.75777600  1
  O  O23  1  0.73373000  0.72809400  0.92219100  1
loop_
_geom_bond_atom_site_label_1
_geom_bond_atom_site_label_2
_geom_bond_distance
_geom_bond_site_symmetry_2
Mo0 O8 2.158626 1_555
Mo0 O3 2.161156 1_555
Mo0 O2 2.169617 1_555
Mo0 O1 2.185186 1_555
Mo0 O7 2.186061 1_555
Mo0 O5 2.187186 1_555
Mo1 O5 2.129792 1_545
Mo1 O0 2.164442 1_555
Mo1 O1 2.168696 1_555
Mo1 O3 2.180160 1_555
Mo1 O11 2.185868 1_545
Mo1 O8 2.199938 1_545
Mo2 O9 2.160857 1_555
Mo2 O16 2.161816 1_555
Mo2 O10 2.162645 1_555
Mo2 O6 2.179383 1_555
Mo2 O14 2.197144 1_555
Mo2 O13 2.197988 1_555
Mo3 O7 2.145387 1_455
Mo3 O1 2.157742 1_555
Mo3 O0 2.160803 1_555
Mo3 O2 2.184836 1_555
Mo3 O11 2.197898 1_455
Mo3 O8 2.204343 1_455
Mo4 O4 2.161811 1_555
Mo4 O6 2.167410 1_555
Mo4 O10 2.169814 1_555
Mo4 O16 2.194770 1_545
Mo4 O19 2.195660 1_545
Mo4 O13 2.210553 1_545
Mo5 O14 2.169546 1_555
Mo5 O13 2.173680 1_555
Mo5 O19 2.175372 1_555
Mo5 O12 2.192875 1_555
Mo5 O17 2.196885 1_555
Mo5 O18 2.198956 1_555
Mo6 O5 2.084788 1_655
Mo6 O11 2.094570 1_555
Mo6 O7 2.104703 1_565
Mo6 O16 2.114496 1_555
Mo7 O20 2.172768 1_555
Mo7 O18 2.172783 1_555
Mo7 O21 2.173513 1_555
Mo7 O17 2.177476 1_555
Mo7 O22 2.188249 1_555
Mo7 O15 2.204956 1_555
Mo8 O4 2.155746 1_655
Mo8 O9 2.164793 1_655
Mo8 O6 2.167546 1_655
Mo8 O19 2.196600 1_555
Mo8 O16 2.204182 1_555
Mo8 O14 2.210230 1_555
Mo9 O20 2.124609 1_545
Mo9 O12 2.175392 1_555
Mo9 O22 2.175458 1_545
Mo9 O23 2.179472 1_545
Mo9 O15 2.183684 1_555
Mo9 O18 2.198497 1_555
Mo10 O21 2.129418 1_455
Mo10 O12 2.173942 1_555
Mo10 O22 2.177677 1_455
Mo10 O15 2.181400 1_555
Mo10 O23 2.182245 1_455
Mo10 O17 2.201799 1_555
Mo11 O20 2.091356 1_655
Mo11 O23 2.095304 1_555
Mo11 O21 2.095825 1_565
Mo11 O8 2.102996 1_556
O0 Zn0 2.061572 1_555
O0 Zn4 2.172868 1_555
O1 Zn1 2.109558 1_555
O2 Zn0 2.049761 1_565
O2 Zn4 2.145542 1_555
O3 Zn0 2.054715 1_655
O3 Zn4 2.134309 1_555
O4 Zn1 2.043162 1_555
O4 Zn2 2.212843 1_555
O5 Zn2 2.202278 1_555
O6 Zn3 2.037799 1_555
O7 Zn2 2.249996 1_555
O9 Zn1 2.038792 1_565
O9 Zn2 2.148271 1_555
O10 Zn1 2.055452 1_655
O10 Zn2 2.111275 1_555
O11 Zn2 2.132726 1_555
O12 Zn3 2.087746 1_555
O13 Zn5 2.061031 1_455
O14 Zn5 2.058994 1_545
O15 Zn0 2.081665 1_556
O17 Zn3 2.068345 1_565
O18 Zn3 2.067288 1_655
O19 Zn5 2.074677 1_555
O20 Zn4 2.219447 1_556
O21 Zn4 2.252330 1_556
O22 Zn5 2.078133 1_555
O23 Zn4 2.137374 1_556
