# generated using pymatgen
data_NaPdF3
_symmetry_space_group_name_H-M   'P 1'
_cell_length_a   6.63676547
_cell_length_b   6.75088661
_cell_length_c   7.31208740
_cell_angle_alpha   63.56047824
_cell_angle_beta   106.51395629
_cell_angle_gamma   88.67038306
_symmetry_Int_Tables_number   1
_chemical_formula_structural   NaPdF3
_chemical_formula_sum   'Na4 Pd4 F12'
_cell_volume   276.93131026
_cell_formula_units_Z   4
loop_
 _symmetry_equiv_pos_site_id
 _symmetry_equiv_pos_as_xyz
  1  'x, y, z'
loop_
 _atom_site_type_symbol
 _atom_site_label
 _atom_site_symmetry_multiplicity
 _atom_site_fract_x
 _atom_site_fract_y
 _atom_site_fract_z
 _atom_site_occupancy
  Na  Na0  1  0.51025680  0.75675851  0.00896323  1
  Na  Na1  1  0.48974320  0.24324149  0.99103677  1
  Na  Na2  1  -0.00000000  0.50000000  -0.00000000  1
  Na  Na3  1  -0.00000000  0.50000000  0.50000000  1
  Pd  Pd0  1  0.52689018  0.73937184  0.53541274  1
  Pd  Pd1  1  0.47310982  0.26062816  0.46458726  1
  Pd  Pd2  1  -0.00000000  0.00000000  -0.00000000  1
  Pd  Pd3  1  -0.00000000  0.00000000  0.50000000  1
  F  F0  1  0.83728771  0.71637740  0.58614352  1
  F  F1  1  0.16271229  0.28362260  0.41385648  1
  F  F2  1  0.60595241  0.57081529  0.85037871  1
  F  F3  1  0.39404759  0.42918471  0.14962129  1
  F  F4  1  0.46657277  0.89898266  0.22192881  1
  F  F5  1  0.53342723  0.10101734  0.77807119  1
  F  F6  1  0.12376820  0.86363450  0.85184890  1
  F  F7  1  0.11458161  0.27953181  0.86621013  1
  F  F8  1  0.87623180  0.13636550  0.14815110  1
  F  F9  1  0.88541839  0.72046819  0.13378987  1
  F  F10  1  0.21962435  0.74951361  0.50627537  1
  F  F11  1  0.78037565  0.25048639  0.49372463  1
loop_
_geom_bond_atom_site_label_1
_geom_bond_atom_site_label_2
_geom_bond_distance
_geom_bond_site_symmetry_2
F0 Pd0 1.976082 1_555
F0 Pd3 2.153522 1_665
F0 Na3 2.197616 1_655
F0 Na2 2.567121 1_656
F1 Pd1 1.976082 1_555
F1 Pd3 2.153522 1_555
F1 Na3 2.197616 1_555
F1 Na2 2.567121 1_555
F2 Pd0 1.955967 1_555
F2 Na0 2.236433 1_556
F2 Na1 2.246708 1_555
F2 Na2 2.472736 1_656
F3 Pd1 1.955967 1_555
F3 Na1 2.236433 1_554
F3 Na0 2.246708 1_555
F3 Na2 2.472736 1_555
F4 Pd0 1.958171 1_555
F4 Na1 2.223810 1_564
F4 Na0 2.237420 1_555
F5 Pd1 1.958171 1_555
F5 Na0 2.223810 1_546
F5 Na1 2.237420 1_555
F6 Pd2 2.013601 1_566
F6 Pd3 2.189895 1_565
F6 Na0 2.433213 1_556
F6 Na2 2.471007 1_556
F7 Pd2 1.985442 1_556
F7 Na3 2.281371 1_555
F7 Na2 2.327560 1_556
F7 Na1 2.360744 1_555
F8 Pd2 2.013601 1_655
F8 Pd3 2.189895 1_655
F8 Na1 2.433213 1_554
F8 Na2 2.471007 1_655
F9 Pd2 1.985442 1_665
F9 Na3 2.281371 1_655
F9 Na2 2.327560 1_655
F9 Na0 2.360744 1_555
F10 Pd0 1.985487 1_555
F10 Pd3 2.182815 1_565
F10 Na3 2.260259 1_555
F11 Pd1 1.985487 1_555
F11 Pd3 2.182815 1_655
F11 Na3 2.260259 1_655
