# generated using pymatgen
data_Zn3FeP3O14
_symmetry_space_group_name_H-M   'P 1'
_cell_length_a   6.39690500
_cell_length_b   9.25314193
_cell_length_c   9.91404768
_cell_angle_alpha   71.03177095
_cell_angle_beta   79.08462236
_cell_angle_gamma   74.55079321
_symmetry_Int_Tables_number   1
_chemical_formula_structural   Zn3FeP3O14
_chemical_formula_sum   'Zn6 Fe2 P6 O28'
_cell_volume   531.49853588
_cell_formula_units_Z   2
loop_
 _symmetry_equiv_pos_site_id
 _symmetry_equiv_pos_as_xyz
  1  'x, y, z'
loop_
 _atom_site_type_symbol
 _atom_site_label
 _atom_site_symmetry_multiplicity
 _atom_site_fract_x
 _atom_site_fract_y
 _atom_site_fract_z
 _atom_site_occupancy
  Zn  Zn0  1  0.45831200  0.66230800  0.28591700  1
  Zn  Zn1  1  0.54168800  0.33769200  0.71408300  1
  Zn  Zn2  1  0.79082300  0.12488700  0.01682400  1
  Zn  Zn3  1  0.20917700  0.87511300  0.98317600  1
  Zn  Zn4  1  0.48633100  0.00491500  0.30074900  1
  Zn  Zn5  1  0.51366900  0.99508500  0.69925100  1
  Fe  Fe0  1  0.04176000  0.25537300  0.33609100  1
  Fe  Fe1  1  0.95824000  0.74462700  0.66390900  1
  P  P0  1  0.25282700  0.22368600  0.01931200  1
  P  P1  1  0.74717300  0.77631400  0.98068800  1
  P  P2  1  0.02703600  0.90416700  0.31142500  1
  P  P3  1  0.97296400  0.09583300  0.68857500  1
  P  P4  1  0.49701900  0.29760700  0.41485600  1
  P  P5  1  0.50298100  0.70239300  0.58514400  1
  O  O0  1  0.18828400  0.00938100  0.75589500  1
  O  O1  1  0.81171600  0.99061900  0.24410500  1
  O  O2  1  0.70729500  0.36459300  0.01263300  1
  O  O3  1  0.29270500  0.63540700  0.98736700  1
  O  O4  1  0.68272500  0.66441200  0.12618000  1
  O  O5  1  0.31727500  0.33558800  0.87382000  1
  O  O6  1  0.00951800  0.21856000  0.54496500  1
  O  O7  1  0.99048200  0.78144000  0.45503500  1
  O  O8  1  0.01292700  0.50552600  0.68228800  1
  O  O9  1  0.98707300  0.49447400  0.31771200  1
  O  O10  1  0.19346300  0.81944100  0.20813100  1
  O  O11  1  0.80653700  0.18055900  0.79186900  1
  O  O12  1  0.72802500  0.28682000  0.33462500  1
  O  O13  1  0.27197500  0.71318000  0.66537500  1
  O  O14  1  0.37854700  0.20359000  0.36079300  1
  O  O15  1  0.62145300  0.79641000  0.63920700  1
  O  O16  1  0.11299800  0.31783200  0.12201000  1
  O  O17  1  0.88700200  0.68216800  0.87798900  1
  O  O18  1  0.11885600  0.11411200  0.00291900  1
  O  O19  1  0.88114400  0.88588800  0.99708100  1
  O  O20  1  0.13367800  0.02759100  0.33430700  1
  O  O21  1  0.86632200  0.97240900  0.66569300  1
  O  O22  1  0.46729900  0.11714100  0.08604000  1
  O  O23  1  0.53270100  0.88285900  0.91396000  1
  O  O24  1  0.36912900  0.46857800  0.38800200  1
  O  O25  1  0.63087100  0.53142200  0.61199800  1
  O  O26  1  0.49891600  0.22231800  0.58181500  1
  O  O27  1  0.50108400  0.77768200  0.41818500  1
loop_
_geom_bond_atom_site_label_1
_geom_bond_atom_site_label_2
_geom_bond_distance
_geom_bond_site_symmetry_2
Fe0 O12 1.951879 1_455
Fe0 O6 1.965667 1_555
Fe0 O16 2.005719 1_555
Fe0 O20 2.036780 1_555
Fe0 O9 2.097659 1_455
Fe0 O14 2.122390 1_555
Fe1 O13 1.951879 1_655
Fe1 O7 1.965667 1_555
Fe1 O17 2.005710 1_555
Fe1 O21 2.036780 1_555
Fe1 O8 2.097659 1_655
Fe1 O15 2.122390 1_555
O0 P3 1.548092 1_455
O0 Zn5 2.030824 1_545
O0 Zn3 2.200989 1_545
O1 P2 1.548092 1_655
O1 Zn4 2.030824 1_565
O1 Zn2 2.200989 1_565
O2 Zn2 2.126967 1_555
O3 Zn3 2.126967 1_555
O4 P1 1.534261 1_554
O4 Zn0 1.924310 1_555
O5 P0 1.534261 1_556
O5 Zn1 1.924310 1_555
O6 P3 1.528292 1_455
O7 P2 1.528292 1_655
O10 P2 1.568789 1_555
O10 Zn0 2.008135 1_555
O10 Zn3 2.108352 1_554
O11 P3 1.568789 1_555
O11 Zn1 2.008135 1_555
O11 Zn2 2.108352 1_556
O12 P4 1.534340 1_555
O13 P5 1.534340 1_555
O14 P4 1.557770 1_555
O14 Zn4 2.022381 1_555
O15 P5 1.557770 1_555
O15 Zn5 2.022381 1_555
O16 P0 1.553116 1_555
O17 P1 1.553124 1_555
O18 P0 1.552953 1_555
O18 Zn2 2.054295 1_455
O18 Zn3 2.195600 1_544
O19 P1 1.552953 1_555
O19 Zn3 2.054295 1_655
O19 Zn2 2.195600 1_566
O20 P2 1.569470 1_545
O20 Zn4 2.180070 1_555
O21 P3 1.569470 1_565
O21 Zn5 2.180070 1_555
O22 P0 1.578287 1_555
O22 Zn4 2.053793 1_555
O22 Zn2 2.065983 1_555
O23 P1 1.578287 1_555
O23 Zn5 2.053793 1_555
O23 Zn3 2.065983 1_555
O24 P4 1.536911 1_555
O24 Zn0 1.926129 1_555
O25 P5 1.536911 1_555
O25 Zn1 1.926129 1_555
O26 P4 1.574408 1_555
O26 Zn5 2.032216 1_545
O26 Zn1 2.033636 1_555
O27 P5 1.574408 1_555
O27 Zn4 2.032216 1_565
O27 Zn0 2.033636 1_555
