# generated using pymatgen
data_RbPrO2
_symmetry_space_group_name_H-M   'P 1'
_cell_length_a   6.90115969
_cell_length_b   6.90115969
_cell_length_c   6.90116025
_cell_angle_alpha   30.92797943
_cell_angle_beta   30.92797943
_cell_angle_gamma   30.92797809
_symmetry_Int_Tables_number   1
_chemical_formula_structural   RbPrO2
_chemical_formula_sum   'Rb1 Pr1 O2'
_cell_volume   77.01195707
_cell_formula_units_Z   1
loop_
 _symmetry_equiv_pos_site_id
 _symmetry_equiv_pos_as_xyz
  1  'x, y, z'
loop_
 _atom_site_type_symbol
 _atom_site_label
 _atom_site_symmetry_multiplicity
 _atom_site_fract_x
 _atom_site_fract_y
 _atom_site_fract_z
 _atom_site_occupancy
  Rb  Rb0  1  0.00000000  0.00000000  0.00000000  1
  Pr  Pr0  1  0.50000000  0.50000000  0.50000000  1
  O  O0  1  0.22785349  0.22785349  0.22785349  1
  O  O1  1  0.77214651  0.77214651  0.77214651  1
loop_
_geom_bond_atom_site_label_1
_geom_bond_atom_site_label_2
_geom_bond_distance
_geom_bond_site_symmetry_2
O0 Pr0 2.442768 1_545
O0 Pr0 2.442768 1_455
O0 Pr0 2.442769 1_554
O0 Rb0 2.971771 1_565
O0 Rb0 2.971771 1_655
O0 Rb0 2.971772 1_556
O1 Pr0 2.442768 1_565
O1 Pr0 2.442768 1_655
O1 Pr0 2.442769 1_556
O1 Rb0 2.971771 1_656
O1 Rb0 2.971771 1_566
O1 Rb0 2.971772 1_665
