# generated using pymatgen
data_MnV5H20NO22
_symmetry_space_group_name_H-M   'P 1'
_cell_length_a   9.10086045
_cell_length_b   10.97450662
_cell_length_c   11.59640668
_cell_angle_alpha   64.99481559
_cell_angle_beta   71.70589197
_cell_angle_gamma   72.58705859
_symmetry_Int_Tables_number   1
_chemical_formula_structural   MnV5H20NO22
_chemical_formula_sum   'Mn2 V10 H40 N2 O44'
_cell_volume   977.75472150
_cell_formula_units_Z   2
loop_
 _symmetry_equiv_pos_site_id
 _symmetry_equiv_pos_as_xyz
  1  'x, y, z'
loop_
 _atom_site_type_symbol
 _atom_site_label
 _atom_site_symmetry_multiplicity
 _atom_site_fract_x
 _atom_site_fract_y
 _atom_site_fract_z
 _atom_site_occupancy
  Mn  Mn0  1  0.79286200  0.73111600  0.77898000  1
  Mn  Mn1  1  0.20713800  0.26888400  0.22102000  1
  V  V0  1  0.33183100  0.48350400  0.48843600  1
  V  V1  1  0.66816900  0.51649600  0.51156400  1
  V  V2  1  0.61734600  0.22345500  0.55043900  1
  V  V3  1  0.38265400  0.77654500  0.44956100  1
  V  V4  1  0.65169400  0.44935500  0.27422400  1
  V  V5  1  0.34830600  0.55064500  0.72577600  1
  V  V6  1  0.31005800  0.25764900  0.76494900  1
  V  V7  1  0.68994200  0.74235100  0.23505000  1
  V  V8  1  0.37098000  0.70833900  0.21134800  1
  V  V9  1  0.62902000  0.29166100  0.78865200  1
  H  H0  1  0.19425700  0.92980800  0.82685200  1
  H  H1  1  0.80574300  0.07019200  0.17314800  1
  H  H2  1  0.38189500  0.83324500  0.82457800  1
  H  H3  1  0.61810500  0.16675500  0.17542200  1
  H  H4  1  0.35950000  0.00055000  0.73192800  1
  H  H5  1  0.64050000  0.99945000  0.26807200  1
  H  H6  1  0.30356100  0.89084900  0.69468000  1
  H  H7  1  0.69643900  0.10915100  0.30532000  1
  H  H8  1  0.91784500  0.75930200  0.40036200  1
  H  H9  1  0.08215500  0.24069800  0.59963800  1
  H  H10  1  0.65010100  0.98691800  0.81668500  1
  H  H11  1  0.34989900  0.01308200  0.18331500  1
  H  H12  1  0.60474800  0.87007200  0.95365100  1
  H  H13  1  0.39525200  0.12992800  0.04634900  1
  H  H14  1  0.68966200  0.91215300  0.55429600  1
  H  H15  1  0.31033800  0.08784700  0.44570400  1
  H  H16  1  0.62551400  0.77729000  0.58772100  1
  H  H17  1  0.37448600  0.22271000  0.41227900  1
  H  H18  1  0.58375800  0.54489400  0.86832700  1
  H  H19  1  0.41624200  0.45510600  0.13167300  1
  H  H20  1  0.58962800  0.57202900  0.99249700  1
  H  H21  1  0.41037200  0.42797100  0.00750300  1
  H  H22  1  0.91186300  0.97314300  0.60730100  1
  H  H23  1  0.08813700  0.02685700  0.39269900  1
  H  H24  1  0.88109200  0.50232000  0.69266900  1
  H  H25  1  0.11890800  0.49768000  0.30733100  1
  H  H26  1  0.88857100  0.63527600  0.02358800  1
  H  H27  1  0.11142900  0.36472400  0.97641200  1
  H  H28  1  0.04100400  0.95132900  0.14929900  1
  H  H29  1  0.95899600  0.04867100  0.85070100  1
  H  H30  1  0.06604200  0.86543900  0.63764800  1
  H  H31  1  0.93395800  0.13456100  0.36235200  1
  H  H32  1  0.02847200  0.50566300  0.73706700  1
  H  H33  1  0.97152800  0.49433700  0.26293300  1
  H  H34  1  0.03523000  0.66950000  0.90122600  1
  H  H35  1  0.96477000  0.33050000  0.09877400  1
  H  H36  1  0.06141100  0.82502700  0.36900100  1
  H  H37  1  0.93858900  0.17497300  0.63099900  1
  H  H38  1  0.05743900  0.07854400  0.01751300  1
  H  H39  1  0.94256100  0.92145600  0.98248700  1
  N  N0  1  0.31004800  0.91389600  0.77004600  1
  N  N1  1  0.68995200  0.08610400  0.22995400  1
  O  O0  1  0.48464000  0.40443200  0.61810300  1
  O  O1  1  0.51536000  0.59556800  0.38189700  1
  O  O2  1  0.48509900  0.34878800  0.41753500  1
  O  O3  1  0.51490100  0.65121200  0.58246500  1
  O  O4  1  0.50317400  0.54877100  0.17316700  1
  O  O5  1  0.49682600  0.45122900  0.82683300  1
  O  O6  1  0.75548000  0.33236400  0.21138900  1
  O  O7  1  0.24452000  0.66763600  0.78861100  1
  O  O8  1  0.21516200  0.36927700  0.60355300  1
  O  O9  1  0.78483800  0.63072300  0.39644700  1
  O  O10  1  0.77888800  0.57886200  0.19736600  1
  O  O11  1  0.22111200  0.42113800  0.80263400  1
  O  O12  1  0.26402300  0.62315400  0.56185800  1
  O  O13  1  0.73597700  0.37684600  0.43814200  1
  O  O14  1  0.24459700  0.57215400  0.35345900  1
  O  O15  1  0.75540300  0.42784600  0.64654100  1
  O  O16  1  0.44335100  0.15519500  0.66064200  1
  O  O17  1  0.55664900  0.84480500  0.33935800  1
  O  O18  1  0.17960900  0.16266900  0.85881300  1
  O  O19  1  0.82039100  0.83733100  0.14118700  1
  O  O20  1  0.54327700  0.79606700  0.13358100  1
  O  O21  1  0.45672300  0.20393300  0.86641900  1
  O  O22  1  0.71749700  0.10550400  0.48426400  1
  O  O23  1  0.28250300  0.89449600  0.51573600  1
  O  O24  1  0.71573600  0.18224300  0.68242200  1
  O  O25  1  0.28426400  0.81775700  0.31757800  1
  O  O26  1  0.26361400  0.77860400  0.10265600  1
  O  O27  1  0.73638600  0.22139600  0.89734400  1
  O  O28  1  0.63398200  0.89205500  0.85828300  1
  O  O29  1  0.36601800  0.10794500  0.14171700  1
  O  O30  1  0.92575000  0.65570600  0.92902700  1
  O  O31  1  0.07425000  0.34429400  0.07097300  1
  O  O32  1  0.65247500  0.83138000  0.62518400  1
  O  O33  1  0.34752500  0.16862000  0.37481600  1
  O  O34  1  0.60866100  0.60912300  0.89640100  1
  O  O35  1  0.39133900  0.39087700  0.10359900  1
  O  O36  1  0.95188900  0.87606000  0.64945200  1
  O  O37  1  0.04811100  0.12394000  0.35054800  1
  O  O38  1  0.92532000  0.55795800  0.71646000  1
  O  O39  1  0.07468000  0.44204200  0.28354000  1
  O  O40  1  0.99916400  0.04877100  0.10866800  1
  O  O41  1  0.00083600  0.95122900  0.89133200  1
  O  O42  1  0.94744000  0.84753800  0.37266500  1
  O  O43  1  0.05256000  0.15246200  0.62733500  1
loop_
_geom_bond_atom_site_label_1
_geom_bond_atom_site_label_2
_geom_bond_distance
_geom_bond_site_symmetry_2
Mn0 O30 2.163291 1_555
Mn0 O34 2.196791 1_555
Mn0 O38 2.198874 1_555
Mn0 O36 2.207783 1_555
Mn0 O32 2.225753 1_555
Mn0 O28 2.250751 1_555
Mn1 O31 2.163291 1_555
Mn1 O35 2.196791 1_555
Mn1 O39 2.198874 1_555
Mn1 O37 2.207783 1_555
Mn1 O33 2.225753 1_555
Mn1 O29 2.250751 1_555
H0 N0 1.061244 1_555
H1 N1 1.061244 1_555
H2 N0 1.025119 1_555
H3 N1 1.025119 1_555
H4 N0 1.038367 1_545
H5 N1 1.038367 1_565
H6 N0 1.029320 1_555
H7 N1 1.029320 1_555
H8 O42 0.975836 1_555
H9 O43 0.975836 1_555
H10 O28 0.980038 1_555
H11 O29 0.980038 1_555
H12 O28 0.990050 1_555
H13 O29 0.990050 1_555
H14 O32 0.982312 1_555
H15 O33 0.982312 1_555
H16 O32 0.986624 1_555
H17 O33 0.986624 1_555
H18 O34 0.995062 1_555
H19 O35 0.995062 1_555
H20 O34 0.987447 1_555
H21 O35 0.987447 1_555
H22 O36 0.972624 1_555
H23 O37 0.972624 1_555
H24 O38 0.984984 1_555
H25 O39 0.984984 1_555
H26 O30 0.985820 1_554
H27 O31 0.985820 1_556
H28 O40 0.976485 1_465
H29 O41 0.976485 1_645
H30 O36 0.981506 1_455
H31 O37 0.981506 1_655
H32 O38 0.984989 1_455
H33 O39 0.984989 1_655
H34 O30 0.983335 1_455
H35 O31 0.983335 1_655
H36 O42 0.983124 1_455
H37 O43 0.983124 1_655
H38 O40 0.982448 1_455
H39 O41 0.982448 1_655
O0 V0 2.106057 1_555
O0 V1 2.116163 1_555
O0 V5 2.280994 1_555
O0 V2 2.303465 1_555
O0 V6 2.352318 1_555
O0 V9 2.399714 1_555
O1 V1 2.106057 1_555
O1 V0 2.116163 1_555
O1 V4 2.280994 1_555
O1 V3 2.303465 1_555
O1 V7 2.352321 1_555
O1 V8 2.399714 1_555
O2 V0 1.969986 1_555
O2 V2 2.024190 1_555
O2 V4 2.036609 1_555
O3 V1 1.969986 1_555
O3 V3 2.024190 1_555
O3 V5 2.036609 1_555
O4 V4 1.849748 1_555
O4 V8 1.941699 1_555
O5 V5 1.849748 1_555
O5 V9 1.941699 1_555
O6 V4 1.644554 1_555
O7 V5 1.644554 1_555
O8 V0 1.724237 1_555
O8 V6 2.047617 1_555
O9 V1 1.724237 1_555
O9 V7 2.047626 1_555
O10 V4 1.849448 1_555
O10 V7 1.907074 1_555
O11 V5 1.849448 1_555
O11 V6 1.907080 1_555
O12 V0 1.913592 1_555
O12 V3 2.011747 1_555
O12 V5 2.026356 1_555
O13 V1 1.913592 1_555
O13 V2 2.011747 1_555
O13 V4 2.026356 1_555
O14 V0 1.748502 1_555
O14 V8 2.007277 1_555
O15 V1 1.748502 1_555
O15 V9 2.007277 1_555
O16 V2 1.825391 1_555
O16 V6 1.900303 1_555
O17 V3 1.825391 1_555
O17 V7 1.900311 1_555
O18 V6 1.628176 1_555
O19 V7 1.628174 1_555
O20 V7 1.855359 1_555
O20 V8 1.865684 1_555
O21 V6 1.855368 1_555
O21 V9 1.865684 1_555
O22 V2 1.670265 1_555
O23 V3 1.670265 1_555
O24 V2 1.838927 1_555
O24 V9 1.911897 1_555
O25 V3 1.838927 1_555
O25 V8 1.911897 1_555
O26 V8 1.624386 1_555
O27 V9 1.624386 1_555
