# generated using pymatgen
data_ErFeB4
_symmetry_space_group_name_H-M   'P 1'
_cell_length_a   3.35497200
_cell_length_b   5.85761900
_cell_length_c   11.31907100
_cell_angle_alpha   90.00000000
_cell_angle_beta   90.00000000
_cell_angle_gamma   90.00000000
_symmetry_Int_Tables_number   1
_chemical_formula_structural   ErFeB4
_chemical_formula_sum   'Er4 Fe4 B16'
_cell_volume   222.44405548
_cell_formula_units_Z   4
loop_
 _symmetry_equiv_pos_site_id
 _symmetry_equiv_pos_as_xyz
  1  'x, y, z'
loop_
 _atom_site_type_symbol
 _atom_site_label
 _atom_site_symmetry_multiplicity
 _atom_site_fract_x
 _atom_site_fract_y
 _atom_site_fract_z
 _atom_site_occupancy
  Er  Er0  1  0.00000000  0.62743700  0.34967500  1
  Er  Er1  1  0.00000000  0.37256300  0.65032500  1
  Er  Er2  1  0.00000000  0.12743700  0.15032500  1
  Er  Er3  1  0.00000000  0.87256300  0.84967500  1
  Fe  Fe0  1  0.00000000  0.63442100  0.08888300  1
  Fe  Fe1  1  0.00000000  0.36557900  0.91111700  1
  Fe  Fe2  1  0.00000000  0.13442100  0.41111700  1
  Fe  Fe3  1  0.00000000  0.86557900  0.58888300  1
  B  B0  1  0.50000000  0.78362000  0.18383200  1
  B  B1  1  0.50000000  0.21638000  0.81616800  1
  B  B2  1  0.50000000  0.28362000  0.31616800  1
  B  B3  1  0.50000000  0.71638000  0.68383200  1
  B  B4  1  0.50000000  0.86168500  0.03170900  1
  B  B5  1  0.50000000  0.13831500  0.96829100  1
  B  B6  1  0.50000000  0.36168500  0.46829100  1
  B  B7  1  0.50000000  0.63831500  0.53170900  1
  B  B8  1  0.50000000  0.88929700  0.45390000  1
  B  B9  1  0.50000000  0.11070300  0.54610000  1
  B  B10  1  0.50000000  0.38929700  0.04610000  1
  B  B11  1  0.50000000  0.61070300  0.95390000  1
  B  B12  1  0.50000000  0.97665300  0.30972600  1
  B  B13  1  0.50000000  0.02334700  0.69027400  1
  B  B14  1  0.50000000  0.47665300  0.19027400  1
  B  B15  1  0.50000000  0.52334700  0.80972600  1
loop_
_geom_bond_atom_site_label_1
_geom_bond_atom_site_label_2
_geom_bond_distance
_geom_bond_site_symmetry_2
B0 B4 1.781575 1_555
B0 B14 1.799574 1_555
B0 B12 1.819106 1_555
B0 Fe0 2.175501 1_655
B0 Fe0 2.175501 1_555
B0 Er2 2.648357 1_565
B0 Er2 2.648357 1_665
B0 Er0 2.678575 1_655
B0 Er0 2.678575 1_555
B1 B5 1.781575 1_555
B1 B15 1.799574 1_555
B1 B13 1.819106 1_555
B1 Fe1 2.175501 1_555
B1 Fe1 2.175501 1_655
B1 Er3 2.648357 1_645
B1 Er3 2.648357 1_545
B1 Er1 2.678575 1_655
B1 Er1 2.678575 1_555
B2 B6 1.781575 1_555
B2 Fe2 2.175501 1_655
B2 Fe2 2.175501 1_555
B2 Er0 2.648357 1_655
B2 Er0 2.648357 1_555
B2 Er2 2.678575 1_655
B2 Er2 2.678575 1_555
B3 B7 1.781575 1_555
B3 Fe3 2.175501 1_555
B3 Fe3 2.175501 1_655
B3 Er1 2.648357 1_655
B3 Er1 2.648357 1_555
B3 Er3 2.678575 1_555
B3 Er3 2.678575 1_655
B4 B5 1.772275 1_564
B4 Fe0 2.237171 1_655
B4 Fe0 2.237171 1_555
B4 Er2 2.653268 1_565
B4 Er2 2.653268 1_665
B4 Er3 2.657724 1_654
B4 Er3 2.657724 1_554
B5 Fe1 2.237171 1_655
B5 Fe1 2.237171 1_555
B5 Er3 2.653268 1_545
B5 Er3 2.653268 1_645
B5 Er2 2.657724 1_556
B5 Er2 2.657724 1_656
B6 B9 1.713779 1_555
B6 B7 1.772275 1_555
B6 Fe2 2.237171 1_555
B6 Fe2 2.237171 1_655
B6 Er0 2.653268 1_655
B6 Er0 2.653268 1_555
B6 Er1 2.657724 1_655
B6 Er1 2.657724 1_555
B7 B8 1.713779 1_555
B7 Fe3 2.237171 1_655
B7 Fe3 2.237171 1_555
B7 Er1 2.653268 1_655
B7 Er1 2.653268 1_555
B7 Er0 2.657724 1_655
B7 Er0 2.657724 1_555
B8 B9 1.664668 1_565
B8 Fe2 2.260557 1_565
B8 Fe2 2.260557 1_665
B8 Fe3 2.273254 1_655
B8 Fe3 2.273254 1_555
B8 Er0 2.560957 1_555
B8 Er0 2.560957 1_655
B9 Fe3 2.260557 1_545
B9 Fe3 2.260557 1_645
B9 Fe2 2.273254 1_655
B9 Fe2 2.273254 1_555
B9 Er1 2.560957 1_655
B9 Er1 2.560957 1_555
B10 B11 1.664668 1_554
B10 B14 1.710258 1_555
B10 B5 1.713779 1_554
B10 Fe0 2.260557 1_655
B10 Fe0 2.260557 1_555
B10 Fe1 2.273254 1_654
B10 Fe1 2.273254 1_554
B10 Er2 2.560957 1_555
B10 Er2 2.560957 1_655
B11 B15 1.710258 1_555
B11 B4 1.713779 1_556
B11 Fe1 2.260557 1_555
B11 Fe1 2.260557 1_655
B11 Fe0 2.273254 1_556
B11 Fe0 2.273254 1_656
B11 Er3 2.560957 1_555
B11 Er3 2.560957 1_655
B12 B8 1.710258 1_555
B12 B2 1.799574 1_565
B12 Fe2 2.232736 1_665
B12 Fe2 2.232736 1_565
B12 Er2 2.617147 1_565
B12 Er2 2.617147 1_665
B12 Er0 2.683804 1_655
B12 Er0 2.683804 1_555
B13 B9 1.710258 1_555
B13 B3 1.799574 1_545
B13 Fe3 2.232736 1_545
B13 Fe3 2.232736 1_645
B13 Er3 2.617147 1_645
B13 Er3 2.617147 1_545
B13 Er1 2.683804 1_655
B13 Er1 2.683804 1_555
B14 B2 1.819106 1_555
B14 Fe0 2.232736 1_655
B14 Fe0 2.232736 1_555
B14 Er0 2.617147 1_655
B14 Er0 2.617147 1_555
B14 Er2 2.683804 1_555
B14 Er2 2.683804 1_655
B15 B3 1.819106 1_555
B15 Fe1 2.232736 1_555
B15 Fe1 2.232736 1_655
B15 Er1 2.617147 1_655
B15 Er1 2.617147 1_555
B15 Er3 2.683804 1_555
B15 Er3 2.683804 1_655
