# generated using pymatgen
data_V(CO3)2
_symmetry_space_group_name_H-M   'P 1'
_cell_length_a   8.02119926
_cell_length_b   8.41253680
_cell_length_c   8.04898674
_cell_angle_alpha   104.50805366
_cell_angle_beta   66.53768665
_cell_angle_gamma   104.49097881
_symmetry_Int_Tables_number   1
_chemical_formula_structural   V(CO3)2
_chemical_formula_sum   'V4 C8 O24'
_cell_volume   475.36666609
_cell_formula_units_Z   4
loop_
 _symmetry_equiv_pos_site_id
 _symmetry_equiv_pos_as_xyz
  1  'x, y, z'
loop_
 _atom_site_type_symbol
 _atom_site_label
 _atom_site_symmetry_multiplicity
 _atom_site_fract_x
 _atom_site_fract_y
 _atom_site_fract_z
 _atom_site_occupancy
  V  V0  1  0.80650500  0.62867500  0.44695300  1
  V  V1  1  0.69287900  0.87047000  0.05215000  1
  V  V2  1  0.30129200  0.12252200  0.94648800  1
  V  V3  1  0.19922000  0.37809900  0.55422700  1
  C  C0  1  0.49868500  0.39155800  0.69973600  1
  C  C1  1  0.99152400  0.89257600  0.20079800  1
  C  C2  1  0.95564900  0.64400900  0.74197900  1
  C  C3  1  0.44995900  0.13904700  0.24221400  1
  C  C4  1  0.54472800  0.85631800  0.75658700  1
  C  C5  1  0.05027300  0.36068900  0.25840900  1
  C  C6  1  0.00117000  0.10919100  0.80156800  1
  C  C7  1  0.50815700  0.60669500  0.29843800  1
  O  O0  1  0.65460200  0.56547000  0.29389700  1
  O  O1  1  0.14989300  0.07351900  0.80718200  1
  O  O2  1  0.44864000  0.17363200  0.09231100  1
  O  O3  1  0.96241500  0.68149700  0.59285300  1
  O  O4  1  0.05189200  0.32622400  0.40830800  1
  O  O5  1  0.53862300  0.81847300  0.90554500  1
  O  O6  1  0.84485000  0.93289000  0.20463100  1
  O  O7  1  0.34977400  0.42721900  0.69437900  1
  O  O8  1  0.85492200  0.71458500  0.90056100  1
  O  O9  1  0.34905600  0.20231200  0.40078000  1
  O  O10  1  0.65863800  0.46219100  0.60795900  1
  O  O11  1  0.15382300  0.94764300  0.09690900  1
  O  O12  1  0.84102000  0.03883100  0.89339500  1
  O  O13  1  0.34593300  0.55334500  0.40411400  1
  O  O14  1  0.64449400  0.78572200  0.59781300  1
  O  O15  1  0.15286400  0.29899400  0.09997800  1
  O  O16  1  0.48444300  0.29012700  0.79965500  1
  O  O17  1  0.97797000  0.79607600  0.30970000  1
  O  O18  1  0.04967700  0.54162500  0.74086300  1
  O  O19  1  0.55685100  0.04325300  0.23070900  1
  O  O20  1  0.45043400  0.95910300  0.75923700  1
  O  O21  1  0.94159500  0.45455500  0.26981500  1
  O  O22  1  0.01580200  0.21047400  0.70122800  1
  O  O23  1  0.52175000  0.70238900  0.18863100  1
loop_
_geom_bond_atom_site_label_1
_geom_bond_atom_site_label_2
_geom_bond_distance
_geom_bond_site_symmetry_2
C0 O16 1.268804 1_555
C0 O10 1.276160 1_555
C0 O7 1.321128 1_555
C1 O11 1.278295 1_655
C1 O6 1.290605 1_555
C1 O17 1.294478 1_555
C2 O18 1.275386 1_655
C2 O3 1.293205 1_555
C2 O8 1.293719 1_555
C3 O9 1.272768 1_555
C3 O19 1.279968 1_555
C3 O2 1.314595 1_555
C4 O20 1.274916 1_555
C4 O14 1.292099 1_555
C4 O5 1.295362 1_555
C5 O15 1.272489 1_555
C5 O21 1.279191 1_455
C5 O4 1.315139 1_555
C6 O22 1.269366 1_555
C6 O12 1.276498 1_455
C6 O1 1.320633 1_555
C7 O13 1.278978 1_555
C7 O0 1.290265 1_555
C7 O23 1.294972 1_555
O0 V0 1.956495 1_555
O1 V2 1.871930 1_555
O2 V2 1.885970 1_554
O3 V0 1.941751 1_555
O4 V3 1.885934 1_555
O5 V1 1.935950 1_556
O6 V1 1.953474 1_555
O7 V3 1.871676 1_555
O8 V1 1.920000 1_556
O9 V3 1.987248 1_555
O10 V0 1.975312 1_555
O11 V2 1.977516 1_564
O12 V1 1.976427 1_546
O13 V3 1.977426 1_555
O14 V0 1.925513 1_555
O15 V2 1.985471 1_554
O16 V2 1.989668 1_555
O17 V0 1.922385 1_555
O18 V3 1.985830 1_555
O19 V1 1.966523 1_545
O20 V2 1.985417 1_565
O21 V0 1.967315 1_555
O22 V3 1.991123 1_555
O23 V1 1.922631 1_555
