# generated using pymatgen
data_LuI3O10
_symmetry_space_group_name_H-M   'P 1'
_cell_length_a   10.60232900
_cell_length_b   7.63718900
_cell_length_c   13.34720674
_cell_angle_alpha   66.08005047
_cell_angle_beta   90.00000000
_cell_angle_gamma   90.00000000
_symmetry_Int_Tables_number   1
_chemical_formula_structural   LuI3O10
_chemical_formula_sum   'Lu4 I12 O40'
_cell_volume   987.92735215
_cell_formula_units_Z   4
loop_
 _symmetry_equiv_pos_site_id
 _symmetry_equiv_pos_as_xyz
  1  'x, y, z'
loop_
 _atom_site_type_symbol
 _atom_site_label
 _atom_site_symmetry_multiplicity
 _atom_site_fract_x
 _atom_site_fract_y
 _atom_site_fract_z
 _atom_site_occupancy
  Lu  Lu0  1  0.70077100  0.87237900  0.63084400  1
  Lu  Lu1  1  0.20077100  0.12762100  0.86915600  1
  Lu  Lu2  1  0.29922900  0.12762100  0.36915600  1
  Lu  Lu3  1  0.79922900  0.87237900  0.13084400  1
  I  I0  1  0.29570000  0.64680600  0.65876500  1
  I  I1  1  0.79570000  0.35319400  0.84123500  1
  I  I2  1  0.70430000  0.35319400  0.34123500  1
  I  I3  1  0.20430000  0.64680600  0.15876500  1
  I  I4  1  0.92283200  0.79303100  0.87200200  1
  I  I5  1  0.42283200  0.20696900  0.62799800  1
  I  I6  1  0.07716800  0.20696900  0.12799800  1
  I  I7  1  0.57716800  0.79303100  0.37200200  1
  I  I8  1  0.50697700  0.81454600  0.94663100  1
  I  I9  1  0.00697700  0.18545400  0.55336900  1
  I  I10  1  0.49302300  0.18545400  0.05336900  1
  I  I11  1  0.99302300  0.81454600  0.44663100  1
  O  O0  1  0.72047300  0.22756200  0.64490500  1
  O  O1  1  0.22047300  0.77243800  0.85509500  1
  O  O2  1  0.27952700  0.77243800  0.35509500  1
  O  O3  1  0.77952700  0.22756200  0.14490500  1
  O  O4  1  0.90652200  0.96025000  0.59793200  1
  O  O5  1  0.40652200  0.03975000  0.90206800  1
  O  O6  1  0.09347800  0.03975000  0.40206800  1
  O  O7  1  0.59347800  0.96025000  0.09793200  1
  O  O8  1  0.78882900  0.58708500  0.70228400  1
  O  O9  1  0.28882900  0.41291500  0.79771600  1
  O  O10  1  0.21117100  0.41291500  0.29771600  1
  O  O11  1  0.71117100  0.58708500  0.20228400  1
  O  O12  1  0.77044900  0.86019700  0.80278700  1
  O  O13  1  0.27044900  0.13980300  0.69721300  1
  O  O14  1  0.22955100  0.13980300  0.19721300  1
  O  O15  1  0.72955100  0.86019700  0.30278700  1
  O  O16  1  0.68178600  0.12022600  0.48043600  1
  O  O17  1  0.18178600  0.87977400  0.01956400  1
  O  O18  1  0.31821400  0.87977400  0.51956400  1
  O  O19  1  0.81821400  0.12022600  0.98043600  1
  O  O20  1  0.62417000  0.73192400  0.51390700  1
  O  O21  1  0.12417000  0.26807600  0.98609300  1
  O  O22  1  0.37583000  0.26807600  0.48609300  1
  O  O23  1  0.87583000  0.73192400  0.01390700  1
  O  O24  1  0.55883600  0.60210200  0.73738700  1
  O  O25  1  0.05883600  0.39789800  0.76261300  1
  O  O26  1  0.44116400  0.39789800  0.26261300  1
  O  O27  1  0.94116400  0.60210200  0.23738700  1
  O  O28  1  0.50707700  0.97743400  0.67253800  1
  O  O29  1  0.00707700  0.02256600  0.82746200  1
  O  O30  1  0.49292300  0.02256600  0.32746200  1
  O  O31  1  0.99292300  0.97743400  0.17253800  1
  O  O32  1  0.79052800  0.36375000  0.58671300  1
  O  O33  1  0.29052800  0.63625000  0.91328700  1
  O  O34  1  0.20947200  0.63625000  0.41328700  1
  O  O35  1  0.70947200  0.36375000  0.08671300  1
  O  O36  1  0.07341200  0.54183300  0.67148000  1
  O  O37  1  0.57341200  0.45816700  0.82852000  1
  O  O38  1  0.92658800  0.45816700  0.32852000  1
  O  O39  1  0.42658800  0.54183300  0.17148000  1
loop_
_geom_bond_atom_site_label_1
_geom_bond_atom_site_label_2
_geom_bond_distance
_geom_bond_site_symmetry_2
Lu0 O16 2.138251 1_565
Lu0 O8 2.200787 1_555
Lu0 O4 2.272213 1_555
Lu0 O28 2.352188 1_555
Lu0 O20 2.367263 1_555
Lu0 O12 2.376573 1_555
Lu0 O24 2.483384 1_555
Lu0 O0 2.801764 1_565
Lu1 O17 2.138251 1_546
Lu1 O9 2.200787 1_555
Lu1 O5 2.272213 1_555
Lu1 O29 2.352188 1_555
Lu1 O21 2.367263 1_555
Lu1 O13 2.376573 1_555
Lu1 O25 2.483384 1_555
Lu1 O1 2.801764 1_545
Lu2 O18 2.138251 1_545
Lu2 O10 2.200787 1_555
Lu2 O6 2.272213 1_555
Lu2 O30 2.352188 1_555
Lu2 O22 2.367263 1_555
Lu2 O14 2.376573 1_555
Lu2 O26 2.483384 1_555
Lu2 O2 2.801764 1_545
Lu3 O19 2.138251 1_564
Lu3 O11 2.200787 1_555
Lu3 O7 2.272213 1_555
Lu3 O31 2.352188 1_555
Lu3 O23 2.367263 1_555
Lu3 O15 2.376573 1_555
Lu3 O27 2.483384 1_555
Lu3 O3 2.801764 1_565
I0 O9 1.987259 1_555
I0 O18 1.998477 1_555
I0 O36 2.472966 1_555
I1 O8 1.987259 1_555
I1 O19 1.998477 1_555
I1 O37 2.472966 1_555
I2 O11 1.987259 1_555
I2 O16 1.998477 1_555
I2 O38 2.472966 1_555
I3 O10 1.987259 1_555
I3 O17 1.998477 1_555
I3 O39 2.472966 1_555
I4 O23 1.826667 1_556
I4 O12 1.828254 1_555
I4 O29 1.838243 1_665
I5 O22 1.826667 1_555
I5 O13 1.828254 1_555
I5 O28 1.838243 1_545
I6 O21 1.826667 1_554
I6 O14 1.828254 1_555
I6 O31 1.838243 1_445
I7 O20 1.826667 1_555
I7 O15 1.828254 1_555
I7 O30 1.838243 1_565
I8 O5 1.901762 1_565
I9 O4 1.901762 1_445
I10 O7 1.901762 1_545
I11 O6 1.901762 1_665
O0 O32 1.257631 1_555
O1 O33 1.257631 1_555
O2 O34 1.257631 1_555
O3 O35 1.257631 1_555
O24 O37 1.275745 1_555
O25 O36 1.275745 1_555
O26 O39 1.275745 1_555
O27 O38 1.275745 1_555
