# generated using pymatgen
data_Y5Mg
_symmetry_space_group_name_H-M   'P 1'
_cell_length_a   6.20635517
_cell_length_b   6.20635517
_cell_length_c   5.59748700
_cell_angle_alpha   90.00000000
_cell_angle_beta   90.00000000
_cell_angle_gamma   119.99999113
_symmetry_Int_Tables_number   1
_chemical_formula_structural   Y5Mg
_chemical_formula_sum   'Y5 Mg1'
_cell_volume   186.72265516
_cell_formula_units_Z   1
loop_
 _symmetry_equiv_pos_site_id
 _symmetry_equiv_pos_as_xyz
  1  'x, y, z'
loop_
 _atom_site_type_symbol
 _atom_site_label
 _atom_site_symmetry_multiplicity
 _atom_site_fract_x
 _atom_site_fract_y
 _atom_site_fract_z
 _atom_site_occupancy
  Y  Y0  1  0.67643600  0.00000000  0.50000000  1
  Y  Y1  1  0.32356400  0.32356400  0.50000000  1
  Y  Y2  1  0.00000000  0.67643600  0.50000000  1
  Y  Y3  1  0.66666700  0.33333300  0.00000000  1
  Y  Y4  1  0.33333300  0.66666700  0.00000000  1
  Mg  Mg0  1  0.00000000  0.00000000  0.00000000  1
loop_
_geom_bond_atom_site_label_1
_geom_bond_atom_site_label_2
_geom_bond_distance
_geom_bond_site_symmetry_2
Y0 Y2 3.478223 1_645
Y0 Y1 3.478224 1_655
Y0 Y3 3.498848 1_556
Y0 Y3 3.498848 1_555
Y0 Y4 3.498850 1_545
Y0 Y4 3.498850 1_546
Y0 Y1 3.636887 1_555
Y0 Y2 3.636887 1_655
Y0 Y2 3.636887 1_545
Y0 Y1 3.636887 1_545
Y1 Y2 3.478224 1_545
Y1 Y3 3.498851 1_555
Y1 Y4 3.498851 1_555
Y1 Y3 3.498851 1_556
Y1 Y4 3.498851 1_556
Y1 Y2 3.636887 1_555
Y1 Y2 3.636887 1_655
Y2 Y4 3.498848 1_555
Y2 Y4 3.498848 1_556
Y2 Y3 3.498850 1_456
Y2 Y3 3.498850 1_455
Y3 Y4 3.583238 1_545
Y3 Y4 3.583238 1_655
Y3 Y4 3.583248 1_555
Mg0 Y2 3.444654 1_544
Mg0 Y2 3.444654 1_545
Mg0 Y0 3.444654 1_455
Mg0 Y0 3.444654 1_454
Mg0 Y1 3.444655 1_555
Mg0 Y1 3.444655 1_554
Mg0 Y3 3.583237 1_455
Mg0 Y4 3.583237 1_545
Mg0 Y3 3.583243 1_555
Mg0 Y3 3.583243 1_445
Mg0 Y4 3.583243 1_555
Mg0 Y4 3.583243 1_445
