# generated using pymatgen
data_MgTl2Pb16(Br9O4)2
_symmetry_space_group_name_H-M   'P 1'
_cell_length_a   8.46530995
_cell_length_b   12.63120090
_cell_length_c   12.96016600
_cell_angle_alpha   92.08331273
_cell_angle_beta   89.60227302
_cell_angle_gamma   90.65523732
_symmetry_Int_Tables_number   1
_chemical_formula_structural   MgTl2Pb16(Br9O4)2
_chemical_formula_sum   'Mg1 Tl2 Pb16 Br18 O8'
_cell_volume   1384.75600328
_cell_formula_units_Z   1
loop_
 _symmetry_equiv_pos_site_id
 _symmetry_equiv_pos_as_xyz
  1  'x, y, z'
loop_
 _atom_site_type_symbol
 _atom_site_label
 _atom_site_symmetry_multiplicity
 _atom_site_fract_x
 _atom_site_fract_y
 _atom_site_fract_z
 _atom_site_occupancy
  Mg  Mg0  1  0.09914881  0.58093952  0.46408438  1
  Tl  Tl0  1  0.65479674  0.76478260  0.75558650  1
  Tl  Tl1  1  0.34512167  0.23787011  0.24706046  1
  Pb  Pb0  1  0.82603355  0.33139871  0.97758297  1
  Pb  Pb1  1  0.35383217  0.18565588  0.62197090  1
  Pb  Pb2  1  0.17241454  0.67361599  0.01980285  1
  Pb  Pb3  1  0.64558559  0.38228829  0.69748615  1
  Pb  Pb4  1  0.64761510  0.10955793  0.80129892  1
  Pb  Pb5  1  0.66006202  0.81001129  0.37274595  1
  Pb  Pb6  1  0.18350120  0.83241322  0.46038889  1
  Pb  Pb7  1  0.83158318  0.98292457  0.15682390  1
  Pb  Pb8  1  0.35483796  0.61429404  0.28956833  1
  Pb  Pb9  1  0.17677324  0.47057389  0.70239008  1
  Pb  Pb10  1  0.81873811  0.16139437  0.52059671  1
  Pb  Pb11  1  0.36475675  0.89124483  0.19363061  1
  Pb  Pb12  1  0.36679254  0.30000898  0.89356693  1
  Pb  Pb13  1  0.17811564  0.01526619  0.83363791  1
  Pb  Pb14  1  0.64919835  0.69502482  0.10898438  1
  Pb  Pb15  1  0.81858897  0.51139759  0.31079192  1
  Br  Br0  1  0.87820322  0.87090959  0.95091710  1
  Br  Br1  1  0.11872675  0.13681880  0.03335929  1
  Br  Br2  1  0.10634124  0.47343971  0.13802419  1
  Br  Br3  1  0.59567805  0.43255352  0.12048727  1
  Br  Br4  1  0.39524360  0.56629482  0.87112753  1
  Br  Br5  1  0.36660164  0.62062816  0.57337783  1
  Br  Br6  1  0.11888493  0.37327693  0.47720110  1
  Br  Br7  1  0.10733344  0.04762458  0.35456439  1
  Br  Br8  1  0.60115598  0.06866019  0.36770578  1
  Br  Br9  1  0.00514669  0.77993102  0.22051304  1
  Br  Br10  1  0.88512113  0.96319712  0.62773300  1
  Br  Br11  1  0.39490817  0.92655768  0.63543356  1
  Br  Br12  1  0.88329350  0.53518754  0.87561311  1
  Br  Br13  1  0.61265817  0.36789745  0.43619259  1
  Br  Br14  1  0.38622288  0.87038362  0.93635122  1
  Br  Br15  1  0.85944971  0.62128200  0.58111921  1
  Br  Br16  1  0.60177403  0.13512198  0.06373741  1
  Br  Br17  1  0.00270284  0.24840428  0.75259135  1
  O  O0  1  0.62603429  0.19801723  0.64404997  1
  O  O1  1  0.37460686  0.13790014  0.79846009  1
  O  O2  1  0.37317224  0.70802951  0.13672340  1
  O  O3  1  0.65017450  0.64667598  0.28433483  1
  O  O4  1  0.63559185  0.86100045  0.19812057  1
  O  O5  1  0.37471058  0.35107989  0.71510386  1
  O  O6  1  0.63474072  0.29341733  0.85640096  1
  O  O7  1  0.38902688  0.79838066  0.34984157  1
loop_
_geom_bond_atom_site_label_1
_geom_bond_atom_site_label_2
_geom_bond_distance
_geom_bond_site_symmetry_2
Mg0 Pb8 3.155711 1_555
Mg0 Pb15 3.201594 1_455
Mg0 Pb6 3.249694 1_555
Br0 Pb7 3.000439 1_556
Br1 Pb13 3.003439 1_554
Br2 Pb2 3.048107 1_555
Br2 Pb15 3.324160 1_455
Br2 Pb8 3.341511 1_555
Br3 Pb0 2.949591 1_554
Br3 Pb15 3.237081 1_555
Br3 Pb14 3.349557 1_555
Br4 Pb2 2.987762 1_556
Br4 Pb9 3.078531 1_555
Br5 Mg0 2.711205 1_555
Br5 Pb9 3.015596 1_555
Br6 Mg0 2.641955 1_555
Br6 Pb9 3.164395 1_555
Br7 Pb6 3.163823 1_545
Br8 Pb10 2.919508 1_555
Br9 Pb7 3.109873 1_455
Br9 Pb2 3.211409 1_555
Br10 Pb10 2.967631 1_565
Br11 Pb6 3.094348 1_555
Br11 Pb1 3.306122 1_565
Br11 Pb13 3.315777 1_565
Br11 Tl0 3.438359 1_555
Br12 Pb0 2.969397 1_555
Br13 Pb15 3.011365 1_555
Br14 Pb13 2.916859 1_565
Br15 Mg0 2.569514 1_655
Br15 Tl0 3.334515 1_555
Br16 Pb7 3.036865 1_545
Br17 Pb9 3.239550 1_555
O0 Pb10 2.315654 1_555
O0 Pb1 2.326719 1_555
O0 Pb4 2.368664 1_555
O0 Pb3 2.408350 1_555
O1 Pb13 2.314292 1_555
O1 Pb4 2.343450 1_555
O1 Pb12 2.352643 1_555
O1 Pb1 2.394785 1_555
O2 Pb2 2.311774 1_555
O2 Pb8 2.347748 1_555
O2 Pb14 2.368325 1_555
O2 Pb11 2.404917 1_555
O3 Pb15 2.274861 1_555
O3 Pb5 2.324197 1_555
O3 Pb14 2.374634 1_555
O3 Pb8 2.529575 1_555
O4 Pb7 2.323803 1_555
O4 Pb11 2.330089 1_555
O4 Pb14 2.360209 1_555
O4 Pb5 2.386463 1_555
O5 Pb9 2.278748 1_555
O5 Pb3 2.333273 1_555
O5 Pb1 2.380190 1_555
O5 Pb12 2.423948 1_555
O6 Pb0 2.298220 1_555
O6 Pb12 2.317370 1_555
O6 Pb3 2.381900 1_555
O6 Pb4 2.408188 1_555
O7 Pb6 2.280836 1_555
O7 Pb5 2.317872 1_555
O7 Pb11 2.387620 1_555
O7 Pb8 2.440567 1_555
