# generated using pymatgen
data_Sr2Bi2Se3O2
_symmetry_space_group_name_H-M   'P 1'
_cell_length_a   4.13642900
_cell_length_b   7.18593946
_cell_length_c   8.46808374
_cell_angle_alpha   76.30370765
_cell_angle_beta   75.86329016
_cell_angle_gamma   73.27287127
_symmetry_Int_Tables_number   1
_chemical_formula_structural   Sr2Bi2Se3O2
_chemical_formula_sum   'Sr2 Bi2 Se3 O2'
_cell_volume   229.96893046
_cell_formula_units_Z   1
loop_
 _symmetry_equiv_pos_site_id
 _symmetry_equiv_pos_as_xyz
  1  'x, y, z'
loop_
 _atom_site_type_symbol
 _atom_site_label
 _atom_site_symmetry_multiplicity
 _atom_site_fract_x
 _atom_site_fract_y
 _atom_site_fract_z
 _atom_site_occupancy
  Sr  Sr0  1  0.89275800  0.31835300  0.89613200  1
  Sr  Sr1  1  0.10724200  0.68164700  0.10386800  1
  Bi  Bi0  1  0.69065100  0.25581900  0.36287800  1
  Bi  Bi1  1  0.30934900  0.74418100  0.63712200  1
  Se  Se0  1  0.00000000  0.50000000  0.50000000  1
  Se  Se1  1  0.62956300  0.95774400  0.78313000  1
  Se  Se2  1  0.37043700  0.04225600  0.21687000  1
  O  O0  1  0.31272800  0.52090700  0.85363700  1
  O  O1  1  0.68727200  0.47909300  0.14636300  1
loop_
_geom_bond_atom_site_label_1
_geom_bond_atom_site_label_2
_geom_bond_distance
_geom_bond_site_symmetry_2
Bi0 O1 2.131333 1_555
Bi0 Se2 2.916651 1_555
Bi0 Se2 2.916655 1_655
Bi0 Se0 3.007920 1_555
Bi0 Se0 3.007923 1_655
Bi1 O0 2.131333 1_555
Bi1 Se1 2.916651 1_555
Bi1 Se1 2.916655 1_455
Bi1 Se0 3.007920 1_655
Bi1 Se0 3.007923 1_555
Se0 Sr0 3.268956 1_455
Se0 Sr1 3.268956 1_555
Se1 Sr0 3.481789 1_465
Se1 Sr0 3.481792 1_565
Se1 Sr1 3.609757 1_656
Se1 Sr1 3.609760 1_556
Se2 Sr1 3.481789 1_645
Se2 Sr1 3.481792 1_545
Se2 Sr0 3.609757 1_454
Se2 Sr0 3.609760 1_554
O0 Sr0 2.483541 1_455
O0 Sr0 2.483544 1_555
O0 Sr1 2.502165 1_556
O1 Sr1 2.483541 1_655
O1 Sr1 2.483544 1_555
O1 Sr0 2.502165 1_554
