# generated using pymatgen
data_Be12Al8Si24O73
_symmetry_space_group_name_H-M   'P 1'
_cell_length_a   13.13569797
_cell_length_b   13.13569797
_cell_length_c   13.13569797
_cell_angle_alpha   138.53800372
_cell_angle_beta   104.37317963
_cell_angle_gamma   90.13570359
_symmetry_Int_Tables_number   1
_chemical_formula_structural   Be12Al8Si24O73
_chemical_formula_sum   'Be12 Al8 Si24 O73'
_cell_volume   1389.61656000
_cell_formula_units_Z   1
loop_
 _symmetry_equiv_pos_site_id
 _symmetry_equiv_pos_as_xyz
  1  'x, y, z'
loop_
 _atom_site_type_symbol
 _atom_site_label
 _atom_site_symmetry_multiplicity
 _atom_site_fract_x
 _atom_site_fract_y
 _atom_site_fract_z
 _atom_site_occupancy
  Be  Be0  1  0.00000000  0.00000000  0.00000000  1
  Be  Be1  1  0.50000000  0.50000000  0.00000000  1
  Be  Be2  1  0.24999000  0.25007600  0.50004200  1
  Be  Be3  1  0.75003400  0.74994800  0.49995800  1
  Be  Be4  1  0.24996600  0.74992400  0.99991400  1
  Be  Be5  1  0.75001000  0.25005200  0.00008600  1
  Be  Be6  1  0.74998000  0.74998000  0.00000000  1
  Be  Be7  1  0.25002000  0.25002000  0.00000000  1
  Be  Be8  1  0.99999000  0.99998100  0.49998800  1
  Be  Be9  1  0.49999300  0.50000200  0.50001200  1
  Be  Be10  1  0.00001000  0.49999800  0.99999000  1
  Be  Be11  1  0.50000700  0.00001900  0.00001000  1
  Al  Al0  1  0.16670300  0.00000000  0.16670300  1
  Al  Al1  1  0.66668600  0.50000000  0.16668600  1
  Al  Al2  1  0.91667500  0.75000300  0.16671100  1
  Al  Al3  1  0.41670800  0.24999700  0.16667200  1
  Al  Al4  1  0.08332500  0.25003600  0.83332800  1
  Al  Al5  1  0.58329200  0.74996400  0.83328900  1
  Al  Al6  1  0.33331400  0.50000000  0.83331400  1
  Al  Al7  1  0.83329700  0.00000000  0.83329700  1
  Si  Si0  1  0.18123400  0.79700300  0.22822300  1
  Si  Si1  1  0.68128500  0.29710300  0.22826100  1
  Si  Si2  1  0.93290600  0.70469600  0.88762000  1
  Si  Si3  1  0.43289300  0.20469300  0.88755600  1
  Si  Si4  1  0.01097700  0.12343200  0.38436100  1
  Si  Si5  1  0.51091100  0.62337000  0.38426200  1
  Si  Si6  1  0.31871500  0.54697600  0.61581800  1
  Si  Si7  1  0.81876600  0.04698900  0.61577000  1
  Si  Si8  1  0.56710700  0.45466300  0.77180000  1
  Si  Si9  1  0.06709400  0.95471400  0.77179000  1
  Si  Si10  1  0.98902300  0.37338300  0.11245400  1
  Si  Si11  1  0.48908900  0.87335100  0.11245900  1
  Si  Si12  1  0.06884200  0.45302400  0.77173900  1
  Si  Si13  1  0.56878000  0.95301100  0.77177700  1
  Si  Si14  1  0.31713700  0.54533700  0.11244400  1
  Si  Si15  1  0.81707600  0.04528600  0.11238000  1
  Si  Si16  1  0.23910800  0.12664900  0.61573800  1
  Si  Si17  1  0.73907100  0.62661700  0.61563900  1
  Si  Si18  1  0.93115800  0.70289700  0.38418200  1
  Si  Si19  1  0.43122000  0.20299700  0.38423000  1
  Si  Si20  1  0.68286300  0.79530700  0.22820000  1
  Si  Si21  1  0.18292400  0.29530400  0.22821000  1
  Si  Si22  1  0.76089200  0.37663000  0.88754100  1
  Si  Si23  1  0.26092900  0.87656800  0.88754600  1
  O  O0  1  0.22029900  0.95629600  0.42659500  1
  O  O1  1  0.72014600  0.45625000  0.42662700  1
  O  O2  1  0.99291900  0.56643800  0.80944700  1
  O  O3  1  0.49298600  0.06641900  0.80940800  1
  O  O4  1  0.91171200  0.10243900  0.26407000  1
  O  O5  1  0.41169600  0.60231500  0.26401700  1
  O  O6  1  0.27985400  0.70648100  0.73610400  1
  O  O7  1  0.77970100  0.20629600  0.73599700  1
  O  O8  1  0.50701400  0.31642200  0.57343400  1
  O  O9  1  0.00708100  0.81652800  0.57351900  1
  O  O10  1  0.08828800  0.35235900  0.19072700  1
  O  O11  1  0.58830400  0.85232100  0.19061900  1
  O  O12  1  0.02962400  0.29351900  0.57337300  1
  O  O13  1  0.52970100  0.79370400  0.57340500  1
  O  O14  1  0.25701100  0.68357800  0.19059200  1
  O  O15  1  0.75699100  0.18347200  0.19055300  1
  O  O16  1  0.33829800  0.14767900  0.73598300  1
  O  O17  1  0.83836800  0.64764100  0.73593000  1
  O  O18  1  0.97037600  0.54375000  0.26389600  1
  O  O19  1  0.47029900  0.04370400  0.26400300  1
  O  O20  1  0.74298900  0.93358100  0.42656600  1
  O  O21  1  0.24300900  0.43356200  0.42648100  1
  O  O22  1  0.66170200  0.39768500  0.80938100  1
  O  O23  1  0.16163200  0.89756100  0.80927300  1
  O  O24  1  0.47963900  0.47835300  0.85368500  1
  O  O25  1  0.97964200  0.97835600  0.85370600  1
  O  O26  1  0.30157800  0.44782800  0.64508300  1
  O  O27  1  0.80151500  0.94785000  0.64506500  1
  O  O28  1  0.37532100  0.73028900  0.00129900  1
  O  O29  1  0.87531500  0.23021600  0.00122500  1
  O  O30  1  0.12535500  0.12409200  0.85372700  1
  O  O31  1  0.62534700  0.62406600  0.85369100  1
  O  O32  1  0.94722300  0.09355800  0.64506900  1
  O  O33  1  0.44716800  0.59352300  0.64502400  1
  O  O34  1  0.02103600  0.37594800  0.00128200  1
  O  O35  1  0.52103000  0.87598400  0.00129200  1
  O  O36  1  0.87464500  0.72837200  0.99873700  1
  O  O37  1  0.37465300  0.22834300  0.99871800  1
  O  O38  1  0.05277700  0.69784600  0.14633500  1
  O  O39  1  0.55283200  0.19785700  0.14635500  1
  O  O40  1  0.97896400  0.98024600  0.35491100  1
  O  O41  1  0.47897000  0.48026200  0.35495400  1
  O  O42  1  0.02035800  0.87406400  0.99871400  1
  O  O43  1  0.52036100  0.37404500  0.99871400  1
  O  O44  1  0.19848500  0.84355000  0.14633500  1
  O  O45  1  0.69842200  0.34350500  0.14625000  1
  O  O46  1  0.12468500  0.12591000  0.35490100  1
  O  O47  1  0.62467900  0.62597800  0.35496800  1
  O  O48  1  0.77037500  0.77165700  0.14630900  1
  O  O49  1  0.27036500  0.27162800  0.14627300  1
  O  O50  1  0.94849800  0.80214300  0.35497600  1
  O  O51  1  0.44848900  0.30215400  0.35493100  1
  O  O52  1  0.87469200  0.51973800  0.99870800  1
  O  O53  1  0.37466500  0.01975400  0.99871800  1
  O  O54  1  0.12465000  0.12593600  0.14629400  1
  O  O55  1  0.62466900  0.62595500  0.14631500  1
  O  O56  1  0.30278500  0.15645000  0.35493500  1
  O  O57  1  0.80274500  0.65649500  0.35491700  1
  O  O58  1  0.22899100  0.87409000  0.99877500  1
  O  O59  1  0.72899000  0.37402200  0.99870100  1
  O  O60  1  0.37533100  0.52164700  0.00128600  1
  O  O61  1  0.87535000  0.02164400  0.00128600  1
  O  O62  1  0.19725500  0.55217200  0.85375000  1
  O  O63  1  0.69721500  0.05215000  0.85366500  1
  O  O64  1  0.27101000  0.26971100  0.64503200  1
  O  O65  1  0.77100900  0.76978400  0.64509900  1
  O  O66  1  0.22962500  0.37593400  0.00128200  1
  O  O67  1  0.72963500  0.87590800  0.00126300  1
  O  O68  1  0.05150200  0.40647700  0.85364500  1
  O  O69  1  0.55151100  0.90644200  0.85366500  1
  O  O70  1  0.12530800  0.12401600  0.64504600  1
  O  O71  1  0.62533500  0.62405200  0.64508900  1
  O  O72  1  0.00000000  0.50000000  0.50000000  1
loop_
_geom_bond_atom_site_label_1
_geom_bond_atom_site_label_2
_geom_bond_distance
_geom_bond_site_symmetry_2
Be0 O54 1.664578 1_555
Be0 O42 1.664578 1_544
Be0 O25 1.664578 1_444
Be0 O61 1.664578 1_455
Be1 O24 1.664818 1_554
Be1 O55 1.664828 1_555
Be1 O43 1.664831 1_554
Be1 O60 1.664831 1_555
Be2 O26 1.664269 1_555
Be2 O64 1.665053 1_555
Be2 O46 1.665226 1_555
Be2 O56 1.665376 1_555
Be3 O57 1.664269 1_555
Be3 O47 1.665053 1_555
Be3 O65 1.665226 1_555
Be3 O27 1.665376 1_555
Be4 O62 1.664269 1_555
Be4 O28 1.665053 1_556
Be4 O58 1.665226 1_555
Be4 O44 1.665376 1_556
Be5 O45 1.664269 1_555
Be5 O59 1.665053 1_554
Be5 O29 1.665226 1_555
Be5 O63 1.665376 1_554
Be6 O48 1.664410 1_555
Be6 O31 1.664419 1_554
Be6 O67 1.664656 1_555
Be6 O36 1.664656 1_554
Be7 O66 1.664410 1_555
Be7 O37 1.664423 1_554
Be7 O30 1.664656 1_554
Be7 O49 1.664656 1_555
Be8 O32 1.664957 1_565
Be8 O50 1.664960 1_555
Be8 O70 1.664960 1_665
Be8 O40 1.665248 1_555
Be9 O33 1.664949 1_555
Be9 O51 1.664957 1_555
Be9 O41 1.664960 1_555
Be9 O71 1.665246 1_555
Be10 O68 1.664949 1_555
Be10 O38 1.664955 1_556
Be10 O52 1.664962 1_455
Be10 O34 1.665244 1_556
Be11 O35 1.664951 1_545
Be11 O39 1.664960 1_555
Be11 O69 1.664966 1_544
Be11 O53 1.665246 1_554
Al0 O56 1.924749 1_555
Al0 O44 1.924749 1_545
Al0 O46 1.924862 1_555
Al0 O58 1.924862 1_544
Al0 O54 1.925896 1_555
Al0 O42 1.925896 1_544
Al1 O57 1.924623 1_555
Al1 O45 1.924623 1_555
Al1 O59 1.925468 1_554
Al1 O47 1.925468 1_555
Al1 O43 1.925651 1_554
Al1 O55 1.925661 1_555
Al2 O38 1.925036 1_655
Al2 O40 1.925079 1_555
Al2 O50 1.925191 1_555
Al2 O52 1.925220 1_554
Al2 O48 1.925359 1_555
Al2 O36 1.925827 1_554
Al3 O51 1.925036 1_555
Al3 O53 1.925079 1_554
Al3 O39 1.925179 1_555
Al3 O41 1.925220 1_555
Al3 O37 1.925359 1_554
Al3 O49 1.925827 1_555
Al4 O32 1.925036 1_455
Al4 O34 1.925079 1_556
Al4 O68 1.925179 1_555
Al4 O70 1.925220 1_555
Al4 O66 1.925359 1_556
Al4 O30 1.925827 1_555
Al5 O69 1.925036 1_555
Al5 O71 1.925077 1_555
Al5 O33 1.925182 1_555
Al5 O35 1.925220 1_556
Al5 O31 1.925356 1_555
Al5 O67 1.925827 1_556
Al6 O26 1.924623 1_555
Al6 O62 1.924623 1_555
Al6 O28 1.925468 1_556
Al6 O64 1.925468 1_555
Al6 O60 1.925651 1_556
Al6 O24 1.925651 1_555
Al7 O27 1.924749 1_545
Al7 O63 1.924749 1_555
Al7 O29 1.924862 1_556
Al7 O65 1.924862 1_545
Al7 O25 1.925896 1_545
Al7 O61 1.925896 1_556
O0 Si0 1.609553 1_555
O0 Si16 1.612802 1_565
O1 Si1 1.609577 1_555
O1 Si17 1.611696 1_555
O2 Si2 1.608644 1_555
O2 Si12 1.614212 1_655
O3 Si3 1.609494 1_555
O3 Si13 1.613213 1_545
O4 Si4 1.610997 1_655
O4 Si15 1.613383 1_555
O5 Si5 1.609771 1_555
O5 Si14 1.612910 1_555
O6 Si6 1.609577 1_555
O6 Si23 1.611696 1_555
O7 Si7 1.609551 1_555
O7 Si22 1.612802 1_555
O8 Si8 1.609485 1_555
O8 Si19 1.613231 1_555
O9 Si9 1.608644 1_555
O9 Si18 1.614212 1_455
O10 Si10 1.610987 1_455
O10 Si21 1.613393 1_555
O11 Si11 1.609771 1_555
O11 Si20 1.612910 1_555
O12 Si12 1.609578 1_555
O12 Si4 1.611690 1_555
O13 Si13 1.609553 1_555
O13 Si5 1.612802 1_555
O14 Si14 1.609494 1_555
O14 Si0 1.613213 1_555
O15 Si15 1.608644 1_555
O15 Si1 1.614212 1_555
O16 Si16 1.609771 1_555
O16 Si3 1.612910 1_555
O17 Si17 1.611004 1_555
O17 Si2 1.613383 1_555
O18 Si18 1.609570 1_555
O18 Si10 1.611708 1_555
O19 Si19 1.609551 1_555
O19 Si11 1.612802 1_545
O20 Si20 1.609485 1_555
O20 Si7 1.613231 1_565
O21 Si21 1.608644 1_555
O21 Si6 1.614212 1_555
O22 Si22 1.609771 1_555
O22 Si8 1.612910 1_555
O23 Si23 1.610996 1_555
O23 Si9 1.613393 1_555
O24 Si8 1.639349 1_555
O25 Si9 1.639637 1_655
O26 Si6 1.639082 1_555
O27 Si7 1.639598 1_565
O28 Si11 1.639375 1_555
O29 Si10 1.639315 1_555
O30 Si9 1.639567 1_545
O31 Si8 1.640056 1_555
O32 Si7 1.639934 1_555
O33 Si6 1.640194 1_555
O34 Si10 1.639835 1_455
O35 Si11 1.639935 1_555
O36 Si2 1.639567 1_555
O37 Si3 1.640051 1_555
O38 Si0 1.639930 1_555
O39 Si1 1.640190 1_555
O40 Si4 1.639830 1_665
O41 Si5 1.639935 1_555
O42 Si2 1.639637 1_455
O43 Si3 1.639340 1_555
O44 Si0 1.639609 1_555
O45 Si1 1.639082 1_555
O46 Si4 1.639319 1_555
O47 Si5 1.639375 1_555
O48 Si20 1.640060 1_555
O49 Si21 1.639567 1_555
O50 Si18 1.640179 1_555
O51 Si19 1.639919 1_555
O52 Si22 1.639935 1_555
O53 Si23 1.639833 1_545
O54 Si21 1.639637 1_555
O55 Si20 1.639333 1_555
O56 Si19 1.639613 1_555
O57 Si18 1.639082 1_555
O58 Si23 1.639306 1_555
O59 Si22 1.639375 1_555
O60 Si14 1.639340 1_555
O61 Si15 1.639637 1_555
O62 Si12 1.639082 1_555
O63 Si13 1.639609 1_545
O64 Si16 1.639375 1_555
O65 Si17 1.639306 1_555
O66 Si14 1.640060 1_555
O67 Si15 1.639567 1_565
O68 Si12 1.640190 1_555
O69 Si13 1.639930 1_555
O70 Si16 1.639935 1_555
O71 Si17 1.639835 1_555
