# generated using pymatgen
data_BaH8(IO6)2
_symmetry_space_group_name_H-M   'P 1'
_cell_length_a   7.63437144
_cell_length_b   7.63437144
_cell_length_c   9.61153312
_cell_angle_alpha   85.63616344
_cell_angle_beta   85.63616344
_cell_angle_gamma   63.89226882
_symmetry_Int_Tables_number   1
_chemical_formula_structural   BaH8(IO6)2
_chemical_formula_sum   'Ba2 H16 I4 O24'
_cell_volume   501.01080930
_cell_formula_units_Z   2
loop_
 _symmetry_equiv_pos_site_id
 _symmetry_equiv_pos_as_xyz
  1  'x, y, z'
loop_
 _atom_site_type_symbol
 _atom_site_label
 _atom_site_symmetry_multiplicity
 _atom_site_fract_x
 _atom_site_fract_y
 _atom_site_fract_z
 _atom_site_occupancy
  Ba  Ba0  1  0.56533400  0.43466500  0.25000000  1
  Ba  Ba1  1  0.43466500  0.56533400  0.75000000  1
  H  H0  1  0.57391600  0.19237200  0.99591200  1
  H  H1  1  0.80762800  0.42608400  0.50408800  1
  H  H2  1  0.42608400  0.80762800  0.00408800  1
  H  H3  1  0.19237200  0.57391600  0.49591200  1
  H  H4  1  0.77090300  0.21719700  0.96232300  1
  H  H5  1  0.78280300  0.22909700  0.53767700  1
  H  H6  1  0.22909700  0.78280300  0.03767700  1
  H  H7  1  0.21719700  0.77090300  0.46232300  1
  H  H8  1  0.04871300  0.55109100  0.28097900  1
  H  H9  1  0.44890900  0.95128700  0.21902100  1
  H  H10  1  0.95128700  0.44890900  0.71902100  1
  H  H11  1  0.55109100  0.04871300  0.78097900  1
  H  H12  1  0.12495500  0.12712200  0.89528400  1
  H  H13  1  0.87287800  0.87504500  0.60471600  1
  H  H14  1  0.87504500  0.87287800  0.10471600  1
  H  H15  1  0.12712200  0.12495500  0.39528400  1
  I  I0  1  0.11058100  0.31656300  0.10243000  1
  I  I1  1  0.68343700  0.88941900  0.39757000  1
  I  I2  1  0.88941900  0.68343700  0.89757000  1
  I  I3  1  0.31656300  0.11058100  0.60243000  1
  O  O0  1  0.62760900  0.28789800  0.97260900  1
  O  O1  1  0.71210200  0.37239100  0.52739100  1
  O  O2  1  0.37239100  0.71210200  0.02739100  1
  O  O3  1  0.28789800  0.62760900  0.47260900  1
  O  O4  1  0.15794300  0.45960500  0.93102600  1
  O  O5  1  0.54039500  0.84205700  0.56897400  1
  O  O6  1  0.84205700  0.54039500  0.06897400  1
  O  O7  1  0.45960500  0.15794300  0.43102600  1
  O  O8  1  0.99543900  0.24140700  0.25235600  1
  O  O9  1  0.75859300  0.00456100  0.24764400  1
  O  O10  1  0.00456100  0.75859300  0.74764400  1
  O  O11  1  0.24140700  0.99543900  0.75235600  1
  O  O12  1  0.16432800  0.49229700  0.21195900  1
  O  O13  1  0.50770300  0.83567200  0.28804100  1
  O  O14  1  0.83567200  0.50770300  0.78804100  1
  O  O15  1  0.49229700  0.16432800  0.71195900  1
  O  O16  1  0.03972700  0.16496900  0.98403000  1
  O  O17  1  0.83503100  0.96027300  0.51597000  1
  O  O18  1  0.96027300  0.83503100  0.01597000  1
  O  O19  1  0.16496900  0.03972700  0.48403000  1
  O  O20  1  0.36615900  0.14111900  0.10195500  1
  O  O21  1  0.85888100  0.63384100  0.39804500  1
  O  O22  1  0.63384100  0.85888100  0.89804500  1
  O  O23  1  0.14111900  0.36615900  0.60195500  1
loop_
_geom_bond_atom_site_label_1
_geom_bond_atom_site_label_2
_geom_bond_distance
_geom_bond_site_symmetry_2
Ba0 O3 2.877136 1_555
Ba0 O2 2.877137 1_555
Ba0 O0 2.895295 1_554
Ba0 O1 2.895299 1_555
Ba0 O12 2.942784 1_555
Ba0 O13 2.942794 1_555
Ba0 O9 2.949845 1_555
Ba0 O8 2.949852 1_555
Ba0 O7 2.978203 1_555
Ba0 O6 2.978213 1_555
Ba1 O0 2.877136 1_555
Ba1 O1 2.877137 1_555
Ba1 O3 2.895295 1_555
Ba1 O2 2.895299 1_556
Ba1 O15 2.942784 1_555
Ba1 O14 2.942794 1_555
Ba1 O10 2.949845 1_555
Ba1 O11 2.949852 1_555
Ba1 O4 2.978203 1_555
Ba1 O5 2.978213 1_555
H0 O0 0.987076 1_555
H1 O1 0.987076 1_555
H2 O2 0.987076 1_555
H3 O3 0.987076 1_555
H4 O0 0.984802 1_555
H5 O1 0.984802 1_555
H6 O2 0.984802 1_555
H7 O3 0.984802 1_555
H8 O12 1.013973 1_555
H8 O21 1.679190 1_455
H9 O13 1.013973 1_555
H9 O20 1.679190 1_565
H10 O14 1.013973 1_555
H10 O23 1.679190 1_655
H11 O15 1.013973 1_555
H11 O22 1.679190 1_545
H12 O16 1.010946 1_555
H12 O11 1.710540 1_545
H13 O17 1.010946 1_555
H13 O10 1.710540 1_655
H14 O18 1.010946 1_555
H14 O9 1.710540 1_565
H15 O19 1.010946 1_555
H15 O8 1.710540 1_455
I0 O20 1.816748 1_555
I0 O8 1.817625 1_455
I0 O16 1.942200 1_554
I0 O12 1.960038 1_555
I0 O4 2.005113 1_554
I0 O6 2.039499 1_455
I1 O21 1.816748 1_555
I1 O9 1.817625 1_565
I1 O17 1.942200 1_555
I1 O13 1.960038 1_555
I1 O5 2.005113 1_555
I1 O7 2.039499 1_565
I2 O22 1.816748 1_555
I2 O10 1.817625 1_655
I2 O18 1.942200 1_556
I2 O14 1.960038 1_555
I2 O6 2.005113 1_556
I2 O4 2.039499 1_655
I3 O23 1.816748 1_555
I3 O11 1.817625 1_545
I3 O19 1.942200 1_555
I3 O15 1.960038 1_555
I3 O7 2.005113 1_555
I3 O5 2.039499 1_545
