# generated using pymatgen
data_CeGaCo
_symmetry_space_group_name_H-M   'P 1'
_cell_length_a   5.94672801
_cell_length_b   5.94672801
_cell_length_c   4.66639672
_cell_angle_alpha   74.05333269
_cell_angle_beta   74.05333269
_cell_angle_gamma   43.38593824
_symmetry_Int_Tables_number   1
_chemical_formula_structural   CeGaCo
_chemical_formula_sum   'Ce2 Ga2 Co2'
_cell_volume   108.28555753
_cell_formula_units_Z   2
loop_
 _symmetry_equiv_pos_site_id
 _symmetry_equiv_pos_as_xyz
  1  'x, y, z'
loop_
 _atom_site_type_symbol
 _atom_site_label
 _atom_site_symmetry_multiplicity
 _atom_site_fract_x
 _atom_site_fract_y
 _atom_site_fract_z
 _atom_site_occupancy
  Ce  Ce0  1  0.12984309  0.12984309  0.65953699  1
  Ce  Ce1  1  0.87015691  0.87015691  0.34046301  1
  Ga  Ga0  1  0.41459342  0.41459342  0.82683536  1
  Ga  Ga1  1  0.58540658  0.58540658  0.17316464  1
  Co  Co0  1  0.18858676  0.18858676  0.16475530  1
  Co  Co1  1  0.81141324  0.81141324  0.83524470  1
loop_
_geom_bond_atom_site_label_1
_geom_bond_atom_site_label_2
_geom_bond_distance
_geom_bond_site_symmetry_2
Ce0 Co0 2.205864 1_555
Ce0 Co0 2.623844 1_556
Ce0 Ga0 3.162499 1_545
Ce0 Ga0 3.162499 1_455
Ce0 Ga1 3.181412 1_546
Ce0 Ga1 3.181412 1_456
Ce0 Ga1 3.298945 1_545
Ce0 Ga1 3.298945 1_455
Ce0 Ga0 3.459002 1_555
Ce1 Co1 2.205864 1_555
Ce1 Co1 2.623844 1_554
Ce1 Ga1 3.162499 1_565
Ce1 Ga1 3.162499 1_655
Ce1 Ga0 3.181412 1_564
Ce1 Ga0 3.181412 1_654
Ce1 Ga0 3.298945 1_565
Ce1 Ga0 3.298945 1_655
Ce1 Ga1 3.459002 1_555
Ga0 Ga1 2.824752 1_556
Ga0 Ga1 3.076120 1_555
Co0 Ga1 2.471221 1_545
Co0 Ga1 2.471221 1_455
Co0 Ga0 2.528955 1_554
Co1 Ga0 2.471221 1_565
Co1 Ga0 2.471221 1_655
Co1 Ga1 2.528955 1_556
