# generated using pymatgen
data_VSiGe
_symmetry_space_group_name_H-M   'P 1'
_cell_length_a   4.69387476
_cell_length_b   4.69387476
_cell_length_c   6.50906700
_cell_angle_alpha   90.00000000
_cell_angle_beta   90.00000000
_cell_angle_gamma   120.00001067
_symmetry_Int_Tables_number   1
_chemical_formula_structural   VSiGe
_chemical_formula_sum   'V3 Si3 Ge3'
_cell_volume   124.19734784
_cell_formula_units_Z   3
loop_
 _symmetry_equiv_pos_site_id
 _symmetry_equiv_pos_as_xyz
  1  'x, y, z'
loop_
 _atom_site_type_symbol
 _atom_site_label
 _atom_site_symmetry_multiplicity
 _atom_site_fract_x
 _atom_site_fract_y
 _atom_site_fract_z
 _atom_site_occupancy
  V  V0  1  0.16815700  0.83184300  0.16666700  1
  V  V1  1  0.16815700  0.33631400  0.83333300  1
  V  V2  1  0.66368600  0.83184300  0.50000000  1
  Si  Si0  1  0.50175900  0.49824100  0.16666700  1
  Si  Si1  1  0.50175900  0.00351700  0.83333300  1
  Si  Si2  1  0.99648300  0.49824100  0.50000000  1
  Ge  Ge0  1  0.83092000  0.16908000  0.16666700  1
  Ge  Ge1  1  0.83092000  0.66183900  0.83333300  1
  Ge  Ge2  1  0.33816100  0.16908000  0.50000000  1
loop_
_geom_bond_atom_site_label_1
_geom_bond_atom_site_label_2
_geom_bond_distance
_geom_bond_site_symmetry_2
Si0 V2 2.558723 1_555
Si0 V1 2.558728 1_554
Si0 V0 2.708918 1_655
Si0 V0 2.708918 1_545
Si0 V0 2.712194 1_555
Si1 V2 2.558721 1_545
Si1 V0 2.558728 1_546
Si1 V1 2.708918 1_655
Si1 V1 2.708923 1_555
Si1 V1 2.712190 1_545
Si2 V1 2.558721 1_655
Si2 V0 2.558723 1_655
Si2 V2 2.708918 1_545
Si2 V2 2.708923 1_555
Si2 V2 2.712190 1_655
Ge0 Si2 2.549103 1_555
Ge0 Si1 2.549108 1_554
Ge0 V2 2.566491 1_545
Ge0 V1 2.566497 1_654
Ge0 Si0 2.676089 1_555
Ge0 V0 2.694281 1_655
Ge0 V0 2.694281 1_545
Ge0 Si0 2.727128 1_655
Ge0 Si0 2.727128 1_545
Ge0 V0 2.741747 1_645
Ge1 Si2 2.549103 1_555
Ge1 Si0 2.549108 1_556
Ge1 V2 2.566493 1_555
Ge1 V0 2.566497 1_656
Ge1 Si1 2.676088 1_555
Ge1 V1 2.694278 1_655
Ge1 V1 2.694281 1_555
Ge1 Si1 2.727128 1_665
Ge1 Si1 2.727129 1_565
Ge1 V1 2.741751 1_665
Ge2 Si0 2.549103 1_555
Ge2 Si1 2.549103 1_555
Ge2 V0 2.566491 1_545
Ge2 V1 2.566493 1_555
Ge2 Si2 2.676088 1_555
Ge2 V2 2.694278 1_545
Ge2 V2 2.694281 1_555
Ge2 Si2 2.727128 1_445
Ge2 Si2 2.727129 1_455
Ge2 V2 2.741751 1_445
