# generated using pymatgen
data_U2Al3Ga
_symmetry_space_group_name_H-M   'P 1'
_cell_length_a   5.46035097
_cell_length_b   5.46035097
_cell_length_c   5.46035166
_cell_angle_alpha   59.98364866
_cell_angle_beta   59.98364866
_cell_angle_gamma   59.98365613
_symmetry_Int_Tables_number   1
_chemical_formula_structural   U2Al3Ga
_chemical_formula_sum   'U2 Al3 Ga1'
_cell_volume   115.07625122
_cell_formula_units_Z   1
loop_
 _symmetry_equiv_pos_site_id
 _symmetry_equiv_pos_as_xyz
  1  'x, y, z'
loop_
 _atom_site_type_symbol
 _atom_site_label
 _atom_site_symmetry_multiplicity
 _atom_site_fract_x
 _atom_site_fract_y
 _atom_site_fract_z
 _atom_site_occupancy
  U  U0  1  0.12413000  0.12413000  0.12413000  1
  U  U1  1  0.87587000  0.87587000  0.87587000  1
  Al  Al0  1  0.50000000  0.00000000  0.50000000  1
  Al  Al1  1  0.00000000  0.50000000  0.50000000  1
  Al  Al2  1  0.50000000  0.50000000  0.00000000  1
  Ga  Ga0  1  0.50000000  0.50000000  0.50000000  1
loop_
_geom_bond_atom_site_label_1
_geom_bond_atom_site_label_2
_geom_bond_distance
_geom_bond_site_symmetry_2
U0 U1 3.320906 1_444
U0 U1 3.350913 1_544
U0 U1 3.350913 1_454
U0 U1 3.350913 1_445
Al0 Al2 2.729501 1_546
Al0 Al2 2.729501 1_555
Al0 Al1 2.729501 1_555
Al0 Al1 2.729501 1_645
Al0 Ga0 2.730175 1_545
Al0 Ga0 2.730175 1_555
Al0 U1 3.194883 1_445
Al0 U0 3.194883 1_655
Al0 U1 3.194884 1_544
Al0 U0 3.194884 1_556
Al0 U0 3.211658 1_555
Al0 U1 3.211658 1_545
Al1 Al2 2.729501 1_555
Al1 Al2 2.729501 1_456
Al1 Ga0 2.730175 1_455
Al1 Ga0 2.730175 1_555
Al1 U1 3.194883 1_445
Al1 U0 3.194883 1_565
Al1 U1 3.194884 1_454
Al1 U0 3.194884 1_556
Al1 U0 3.211658 1_555
Al1 U1 3.211658 1_455
Al2 Ga0 2.730176 1_555
Al2 Ga0 2.730176 1_554
Al2 U1 3.194883 1_454
Al2 U1 3.194883 1_544
Al2 U0 3.194883 1_655
Al2 U0 3.194883 1_565
Al2 U0 3.211658 1_555
Al2 U1 3.211658 1_554
Ga0 U0 3.202706 1_556
Ga0 U1 3.202706 1_554
Ga0 U0 3.202707 1_655
Ga0 U0 3.202707 1_565
Ga0 U1 3.202707 1_545
Ga0 U1 3.202707 1_455
