# generated using pymatgen
data_Zr(SiPd)3
_symmetry_space_group_name_H-M   'P 1'
_cell_length_a   8.09887397
_cell_length_b   8.09887397
_cell_length_c   7.13201100
_cell_angle_alpha   90.00000000
_cell_angle_beta   90.00000000
_cell_angle_gamma   152.49178569
_symmetry_Int_Tables_number   1
_chemical_formula_structural   Zr(SiPd)3
_chemical_formula_sum   'Zr2 Si6 Pd6'
_cell_volume   216.06602001
_cell_formula_units_Z   2
loop_
 _symmetry_equiv_pos_site_id
 _symmetry_equiv_pos_as_xyz
  1  'x, y, z'
loop_
 _atom_site_type_symbol
 _atom_site_label
 _atom_site_symmetry_multiplicity
 _atom_site_fract_x
 _atom_site_fract_y
 _atom_site_fract_z
 _atom_site_occupancy
  Zr  Zr0  1  0.98880900  0.01119100  0.25000000  1
  Zr  Zr1  1  0.01119100  0.98880900  0.75000000  1
  Si  Si0  1  0.57364100  0.42635900  0.03228700  1
  Si  Si1  1  0.42635900  0.57364100  0.96771300  1
  Si  Si2  1  0.42635900  0.57364100  0.53228700  1
  Si  Si3  1  0.57364100  0.42635900  0.46771300  1
  Si  Si4  1  0.73823200  0.26176800  0.25000000  1
  Si  Si5  1  0.26176800  0.73823200  0.75000000  1
  Pd  Pd0  1  0.33975000  0.66025000  0.25000000  1
  Pd  Pd1  1  0.66025000  0.33975000  0.75000000  1
  Pd  Pd2  1  0.82466900  0.17533100  0.55307500  1
  Pd  Pd3  1  0.17533100  0.82466900  0.44692500  1
  Pd  Pd4  1  0.17533100  0.82466900  0.05307500  1
  Pd  Pd5  1  0.82466900  0.17533100  0.94692500  1
loop_
_geom_bond_atom_site_label_1
_geom_bond_atom_site_label_2
_geom_bond_distance
_geom_bond_site_symmetry_2
Si0 Si1 2.362551 1_554
Si0 Zr0 2.810714 1_455
Si0 Zr0 2.810714 1_565
Si0 Zr1 2.954050 1_544
Si0 Zr1 2.954050 1_654
Si1 Zr1 2.810714 1_545
Si1 Zr1 2.810714 1_655
Si1 Zr0 2.954050 1_456
Si1 Zr0 2.954050 1_566
Si2 Si3 2.362551 1_555
Si2 Zr1 2.810714 1_545
Si2 Zr1 2.810714 1_655
Si2 Zr0 2.954050 1_455
Si2 Zr0 2.954050 1_565
Si3 Zr0 2.810714 1_455
Si3 Zr0 2.810714 1_565
Si3 Zr1 2.954050 1_545
Si3 Zr1 2.954050 1_655
Pd0 Si2 2.431063 1_555
Pd0 Si1 2.431063 1_554
Pd0 Si4 2.501766 1_455
Pd0 Si4 2.501766 1_565
Pd0 Zr0 3.034411 1_455
Pd0 Zr0 3.034411 1_565
Pd1 Si0 2.431063 1_556
Pd1 Si3 2.431063 1_555
Pd1 Si5 2.501766 1_655
Pd1 Si5 2.501766 1_545
Pd1 Zr1 3.034411 1_655
Pd1 Zr1 3.034411 1_545
Pd2 Si2 2.507881 1_655
Pd2 Si2 2.507881 1_545
Pd2 Si4 2.553754 1_555
Pd2 Si5 2.580635 1_655
Pd2 Si5 2.580635 1_545
Pd3 Si3 2.507881 1_565
Pd3 Si3 2.507881 1_455
Pd3 Si5 2.553754 1_555
Pd3 Si4 2.580635 1_455
Pd3 Si4 2.580635 1_565
Pd4 Si0 2.507881 1_565
Pd4 Si0 2.507881 1_455
Pd4 Si5 2.553754 1_554
Pd4 Si4 2.580635 1_455
Pd4 Si4 2.580635 1_565
Pd5 Si1 2.507881 1_655
Pd5 Si1 2.507881 1_545
Pd5 Si4 2.553754 1_556
Pd5 Si5 2.580635 1_655
Pd5 Si5 2.580635 1_545
