# generated using pymatgen
data_Gd2MgPtO6
_symmetry_space_group_name_H-M   'P 1'
_cell_length_a   5.69632434
_cell_length_b   5.36737122
_cell_length_c   9.36950648
_cell_angle_alpha   55.38702234
_cell_angle_beta   90.00000000
_cell_angle_gamma   90.00000000
_symmetry_Int_Tables_number   1
_chemical_formula_structural   Gd2MgPtO6
_chemical_formula_sum   'Gd4 Mg2 Pt2 O12'
_cell_volume   235.76371860
_cell_formula_units_Z   2
loop_
 _symmetry_equiv_pos_site_id
 _symmetry_equiv_pos_as_xyz
  1  'x, y, z'
loop_
 _atom_site_type_symbol
 _atom_site_label
 _atom_site_symmetry_multiplicity
 _atom_site_fract_x
 _atom_site_fract_y
 _atom_site_fract_z
 _atom_site_occupancy
  Gd  Gd0  1  0.43078487  0.23108594  0.74920212  1
  Gd  Gd1  1  0.56921513  0.76891406  0.25079788  1
  Gd  Gd2  1  0.93078487  0.76891406  0.75079788  1
  Gd  Gd3  1  0.06921513  0.23108594  0.24920212  1
  Mg  Mg0  1  0.00000000  0.50000000  0.50000000  1
  Mg  Mg1  1  0.50000000  0.50000000  -0.00000000  1
  Pt  Pt0  1  0.00000000  0.00000000  -0.00000000  1
  Pt  Pt1  1  0.50000000  0.00000000  0.50000000  1
  O  O0  1  0.03957245  0.35956405  0.75163347  1
  O  O1  1  0.96042755  0.64043595  0.24836653  1
  O  O2  1  0.53957245  0.64043595  0.74836653  1
  O  O3  1  0.46042755  0.35956405  0.25163347  1
  O  O4  1  0.69948712  0.86792600  0.94322701  1
  O  O5  1  0.30051288  0.13207400  0.05677299  1
  O  O6  1  0.19948712  0.13207400  0.55677299  1
  O  O7  1  0.80051288  0.86792600  0.44322701  1
  O  O8  1  0.19611920  0.74868802  0.94458935  1
  O  O9  1  0.80388080  0.25131198  0.05541065  1
  O  O10  1  0.69611920  0.25131198  0.55541065  1
  O  O11  1  0.30388080  0.74868802  0.44458935  1
loop_
_geom_bond_atom_site_label_1
_geom_bond_atom_site_label_2
_geom_bond_distance
_geom_bond_site_symmetry_2
Gd0 O2 2.278581 1_555
Gd0 O10 2.317142 1_555
Gd0 O4 2.328390 1_545
Gd0 O0 2.336662 1_555
Gd0 O6 2.521421 1_555
Gd0 O8 2.541123 1_545
Gd0 O11 2.716352 1_555
Gd0 O5 2.719915 1_556
Gd1 O3 2.278581 1_555
Gd1 O11 2.317142 1_555
Gd1 O5 2.328390 1_565
Gd1 O1 2.336662 1_555
Gd1 O7 2.521421 1_555
Gd1 O9 2.541123 1_565
Gd1 O10 2.716352 1_555
Gd1 O4 2.719915 1_554
Gd2 O0 2.278581 1_655
Gd2 O8 2.317142 1_655
Gd2 O6 2.328390 1_665
Gd2 O2 2.336662 1_555
Gd2 O4 2.521421 1_555
Gd2 O10 2.541123 1_565
Gd2 O9 2.716352 1_556
Gd2 O7 2.719915 1_555
Gd3 O1 2.278581 1_455
Gd3 O9 2.317142 1_455
Gd3 O7 2.328390 1_445
Gd3 O3 2.336662 1_555
Gd3 O5 2.521421 1_555
Gd3 O11 2.541123 1_545
Gd3 O8 2.716352 1_554
Gd3 O6 2.719915 1_555
Mg0 O0 2.039287 1_555
Mg0 O1 2.039287 1_455
Mg0 O11 2.064056 1_555
Mg0 O10 2.064056 1_455
Mg0 O7 2.068975 1_455
Mg0 O6 2.068975 1_555
Mg1 O3 2.039287 1_555
Mg1 O2 2.039287 1_554
Mg1 O8 2.064056 1_554
Mg1 O9 2.064056 1_555
Mg1 O4 2.068975 1_554
Mg1 O5 2.068975 1_555
O0 Pt0 2.022014 1_556
O1 Pt0 2.022014 1_665
O2 Pt1 2.022014 1_565
O3 Pt1 2.022014 1_555
O4 Pt0 2.035729 1_666
O5 Pt0 2.035729 1_555
O6 Pt1 2.035729 1_555
O7 Pt1 2.035729 1_565
O8 Pt0 2.032893 1_566
O9 Pt0 2.032893 1_655
O10 Pt1 2.032893 1_555
O11 Pt1 2.032893 1_565
