# generated using pymatgen
data_K2W2O5
_symmetry_space_group_name_H-M   'P 1'
_cell_length_a   5.76525684
_cell_length_b   5.77907345
_cell_length_c   8.99085943
_cell_angle_alpha   108.78508521
_cell_angle_beta   108.74763561
_cell_angle_gamma   89.92580109
_symmetry_Int_Tables_number   1
_chemical_formula_structural   K2W2O5
_chemical_formula_sum   'K4 W4 O10'
_cell_volume   266.80200005
_cell_formula_units_Z   2
loop_
 _symmetry_equiv_pos_site_id
 _symmetry_equiv_pos_as_xyz
  1  'x, y, z'
loop_
 _atom_site_type_symbol
 _atom_site_label
 _atom_site_symmetry_multiplicity
 _atom_site_fract_x
 _atom_site_fract_y
 _atom_site_fract_z
 _atom_site_occupancy
  K  K0  1  0.39343672  0.87110166  0.75418872  1
  K  K1  1  0.64145053  0.12891361  0.24582291  1
  K  K2  1  0.89509761  0.38416713  0.75414767  1
  K  K3  1  0.13973805  0.61585535  0.24581071  1
  W  W0  1  0.01755056  0.99996778  0.00000680  1
  W  W1  1  0.51753771  0.49996608  -0.00000524  1
  W  W2  1  0.76395578  0.75134163  0.50008871  1
  W  W3  1  0.27075164  0.24854319  0.49991807  1
  O  O0  1  0.75905601  0.26761615  0.00882168  1
  O  O1  1  0.76427848  0.74688314  0.99163561  1
  O  O2  1  0.27078512  0.25313185  0.00838150  1
  O  O3  1  0.27605327  0.73237152  0.99119896  1
  O  O4  1  0.88482462  0.89651599  0.73871277  1
  O  O5  1  0.15026599  0.10348214  0.26128781  1
  O  O6  1  0.38638526  0.34348785  0.73879853  1
  O  O7  1  0.64870172  0.65654175  0.26121852  1
  O  O8  1  0.01667041  0.49933306  0.49999860  1
  O  O9  1  0.51666350  0.50077812  0.49997066  1
loop_
_geom_bond_atom_site_label_1
_geom_bond_atom_site_label_2
_geom_bond_distance
_geom_bond_site_symmetry_2
K0 O3 2.769528 1_555
K0 O1 2.773637 1_555
K0 O6 2.777198 1_565
K0 O9 2.863301 1_555
K0 O8 2.866356 1_555
K0 O4 2.886921 1_555
K0 O2 2.895265 1_566
K0 O4 2.896373 1_455
K0 O0 2.909841 1_566
K0 O6 3.007142 1_555
K1 O0 2.769996 1_555
K1 O2 2.773074 1_555
K1 O7 2.777130 1_545
K1 O8 2.857998 1_655
K1 O9 2.871809 1_555
K1 O5 2.885722 1_555
K1 O1 2.895740 1_544
K1 O5 2.897574 1_655
K1 O3 2.909298 1_544
K1 O7 3.007211 1_555
K2 O3 2.766927 1_655
K2 O1 2.769547 1_555
K2 O4 2.776352 1_545
K2 O8 2.857565 1_655
K2 O9 2.867020 1_555
K2 O6 2.885383 1_655
K2 O6 2.897704 1_555
K2 O2 2.901318 1_656
K2 O0 2.908740 1_556
K2 O4 3.008089 1_555
K3 O0 2.766004 1_455
K3 O2 2.769927 1_555
K3 O5 2.776114 1_565
K3 O9 2.858200 1_555
K3 O8 2.866087 1_555
K3 O7 2.884119 1_455
K3 O7 2.898991 1_555
K3 O1 2.900314 1_454
K3 O3 2.908937 1_554
K3 O5 3.008370 1_555
O0 W1 1.934140 1_555
O0 W0 2.147255 1_645
O1 W0 2.034935 1_656
O1 W1 2.051454 1_556
O2 W0 2.035094 1_545
O2 W1 2.051283 1_555
O3 W1 1.934220 1_556
O3 W0 2.147073 1_556
O4 W2 1.916669 1_555
O4 W0 2.098348 1_656
O5 W3 1.916658 1_555
O5 W0 2.098214 1_545
O6 W3 1.918306 1_555
O6 W1 2.096910 1_556
O7 W2 1.918311 1_555
O7 W1 2.097164 1_555
O8 W2 2.058709 1_455
O8 W3 2.059330 1_555
O9 W2 2.032927 1_555
O9 W3 2.034532 1_555
