# generated using pymatgen
data_Li2VPHO5
_symmetry_space_group_name_H-M   'P 1'
_cell_length_a   5.38623803
_cell_length_b   7.68470472
_cell_length_c   10.84207509
_cell_angle_alpha   78.05894735
_cell_angle_beta   100.94843132
_cell_angle_gamma   72.70592709
_symmetry_Int_Tables_number   1
_chemical_formula_structural   Li2VPHO5
_chemical_formula_sum   'Li8 V4 P4 H4 O20'
_cell_volume   403.74002530
_cell_formula_units_Z   4
loop_
 _symmetry_equiv_pos_site_id
 _symmetry_equiv_pos_as_xyz
  1  'x, y, z'
loop_
 _atom_site_type_symbol
 _atom_site_label
 _atom_site_symmetry_multiplicity
 _atom_site_fract_x
 _atom_site_fract_y
 _atom_site_fract_z
 _atom_site_occupancy
  Li  Li0  1  0.01809900  0.49917400  0.34571800  1
  Li  Li1  1  0.51828300  0.99830800  0.84604900  1
  Li  Li2  1  0.98190400  0.50058900  0.65438600  1
  Li  Li3  1  0.48183200  0.00160000  0.15403900  1
  Li  Li4  1  0.22401300  0.53648000  0.14794200  1
  Li  Li5  1  0.72406900  0.03673400  0.64819600  1
  Li  Li6  1  0.77599800  0.46337600  0.85212100  1
  Li  Li7  1  0.27581700  0.96333700  0.35183600  1
  V  V0  1  0.49977300  0.50013900  0.49990900  1
  V  V1  1  0.74975600  0.25004500  0.25026500  1
  V  V2  1  0.24994800  0.75020300  0.74961300  1
  V  V3  1  0.00028400  0.99977400  0.00004300  1
  P  P0  1  0.36633800  0.30653200  0.93475900  1
  P  P1  1  0.86600600  0.80670900  0.43454500  1
  P  P2  1  0.63364300  0.69343300  0.06530800  1
  P  P3  1  0.13393100  0.19342400  0.56538100  1
  H  H0  1  0.10987900  0.22330700  0.13790400  1
  H  H1  1  0.61163900  0.72301400  0.63819000  1
  H  H2  1  0.89020400  0.77654900  0.86210900  1
  H  H3  1  0.38843200  0.27691800  0.36187500  1
  O  O0  1  0.42235500  0.39423100  0.32938100  1
  O  O1  1  0.92393000  0.89386800  0.82960300  1
  O  O2  1  0.57764300  0.60578100  0.67061000  1
  O  O3  1  0.07610100  0.10610900  0.17040500  1
  O  O4  1  0.40469100  0.31913900  0.07889300  1
  O  O5  1  0.90447600  0.82025000  0.57841200  1
  O  O6  1  0.59530400  0.68084600  0.92110600  1
  O  O7  1  0.09536900  0.18028900  0.42140000  1
  O  O8  1  0.84124500  0.50369200  0.16302600  1
  O  O9  1  0.34217300  0.00394600  0.66315700  1
  O  O10  1  0.15880300  0.49627800  0.83699600  1
  O  O11  1  0.65790400  0.99611300  0.33671900  1
  O  O12  1  0.24782000  0.14777300  0.92246100  1
  O  O13  1  0.74787500  0.64768600  0.42256200  1
  O  O14  1  0.75221500  0.85217900  0.07755800  1
  O  O15  1  0.25211200  0.35227900  0.57748400  1
  O  O16  1  0.63981100  0.25433200  0.89977600  1
  O  O17  1  0.13957500  0.75440800  0.39968800  1
  O  O18  1  0.36035300  0.74555200  0.10026500  1
  O  O19  1  0.86039700  0.24561200  0.60031100  1
loop_
_geom_bond_atom_site_label_1
_geom_bond_atom_site_label_2
_geom_bond_distance
_geom_bond_site_symmetry_2
Li0 O13 1.995386 1_455
Li0 O8 2.016727 1_455
Li0 O0 2.141140 1_555
Li0 O7 2.298578 1_555
Li0 O17 2.389582 1_555
Li0 O15 2.440173 1_555
Li1 O12 1.996297 1_565
Li1 O9 2.014746 1_565
Li1 O1 2.148113 1_555
Li1 O6 2.287900 1_555
Li1 O16 2.394546 1_565
Li1 O14 2.437204 1_556
Li2 O15 1.995070 1_655
Li2 O10 2.016524 1_655
Li2 O2 2.140907 1_555
Li2 O5 2.304324 1_555
Li2 O19 2.388192 1_555
Li2 O13 2.440864 1_555
Li3 O14 1.996375 1_545
Li3 O11 2.013018 1_545
Li3 O3 2.148270 1_555
Li3 O4 2.288422 1_555
Li3 O18 2.394781 1_545
Li3 O12 2.437940 1_554
Li4 O0 1.955394 1_555
Li4 O18 1.972269 1_555
Li4 O4 2.030977 1_555
Li4 O8 2.181887 1_455
Li5 O1 1.957578 1_545
Li5 O19 1.971299 1_555
Li5 O5 2.030590 1_545
Li5 O9 2.176914 1_555
Li6 O2 1.956248 1_555
Li6 O16 1.971495 1_555
Li6 O6 2.031316 1_555
Li6 O10 2.182522 1_655
Li7 O3 1.957496 1_565
Li7 O17 1.971274 1_555
Li7 O7 2.031863 1_565
Li7 O11 2.178291 1_555
H0 O3 0.979212 1_555
H0 Li3 2.158986 1_555
H1 O2 0.979894 1_555
H1 Li2 2.155422 1_555
H2 O1 0.979913 1_555
H2 Li1 2.159278 1_555
H3 O0 0.980404 1_555
H3 Li0 2.155127 1_555
O0 V0 2.187744 1_555
O0 V1 2.208950 1_555
O1 V3 2.186090 1_656
O1 V2 2.208308 1_655
O2 V0 2.188516 1_555
O2 V2 2.209932 1_555
O3 V3 2.186931 1_545
O3 V1 2.209385 1_455
O4 P0 1.563986 1_554
O4 V1 2.209493 1_555
O5 P1 1.563332 1_555
O5 V2 2.208328 1_655
O6 P2 1.564669 1_556
O6 V2 2.210907 1_555
O7 P3 1.563561 1_555
O7 V1 2.208746 1_455
O8 P2 1.562128 1_555
O8 V1 2.218573 1_555
O9 P3 1.562248 1_555
O9 V2 2.219026 1_545
O10 P0 1.562209 1_555
O10 V2 2.219806 1_555
O11 P1 1.561874 1_555
O11 V1 2.219131 1_565
O12 P0 1.552984 1_555
O12 V3 2.170346 1_546
O13 P1 1.552974 1_555
O13 V0 2.169737 1_555
O14 P2 1.552986 1_555
O14 V3 2.170538 1_655
O15 P3 1.552168 1_555
O15 V0 2.170215 1_555
O16 P0 1.548660 1_555
O16 V3 2.199624 1_646
O17 P1 1.548503 1_455
O17 V0 2.197611 1_555
O18 P2 1.547600 1_555
O18 V3 2.197059 1_555
O19 P3 1.548684 1_655
O19 V0 2.200135 1_555
