# generated using pymatgen
data_Sm2Sn5
_symmetry_space_group_name_H-M   'P 1'
_cell_length_a   4.56938456
_cell_length_b   4.63748021
_cell_length_c   17.81628516
_cell_angle_alpha   90.00000000
_cell_angle_beta   97.36767786
_cell_angle_gamma   90.00000000
_symmetry_Int_Tables_number   1
_chemical_formula_structural   Sm2Sn5
_chemical_formula_sum   'Sm4 Sn10'
_cell_volume   374.41769721
_cell_formula_units_Z   2
loop_
 _symmetry_equiv_pos_site_id
 _symmetry_equiv_pos_as_xyz
  1  'x, y, z'
loop_
 _atom_site_type_symbol
 _atom_site_label
 _atom_site_symmetry_multiplicity
 _atom_site_fract_x
 _atom_site_fract_y
 _atom_site_fract_z
 _atom_site_occupancy
  Sm  Sm0  1  0.93043127  0.50000000  0.86086253  1
  Sm  Sm1  1  0.06956873  0.50000000  0.13913747  1
  Sm  Sm2  1  0.79710389  0.50000000  0.59420677  1
  Sm  Sm3  1  0.20289611  0.50000000  0.40579323  1
  Sn  Sn0  1  0.63781528  0.50000000  0.27563055  1
  Sn  Sn1  1  0.36218472  0.50000000  0.72436945  1
  Sn  Sn2  1  0.72190639  0.00000000  0.44381278  1
  Sn  Sn3  1  0.27809361  -0.00000000  0.55618722  1
  Sn  Sn4  1  0.50000000  0.50000000  -0.00000000  1
  Sn  Sn5  1  0.57173443  0.00000000  0.14346986  1
  Sn  Sn6  1  0.42826557  0.00000000  0.85653014  1
  Sn  Sn7  1  0.86162204  0.00000000  0.72324509  1
  Sn  Sn8  1  0.13837796  0.00000000  0.27675491  1
  Sn  Sn9  1  -0.00000000  -0.00000000  -0.00000000  1
loop_
_geom_bond_atom_site_label_1
_geom_bond_atom_site_label_2
_geom_bond_distance
_geom_bond_site_symmetry_2
Sm0 Sn6 3.256106 1_565
Sm0 Sn6 3.256106 1_555
Sm0 Sn6 3.256109 1_665
Sm0 Sn6 3.256109 1_655
Sm0 Sn1 3.322081 1_655
Sm0 Sn1 3.322081 1_555
Sm0 Sn4 3.356155 1_556
Sm0 Sn4 3.356155 1_656
Sm0 Sn7 3.359937 1_565
Sm0 Sn7 3.359937 1_555
Sm0 Sn9 3.379425 1_666
Sm0 Sn9 3.379425 1_656
Sm1 Sn5 3.256106 1_565
Sm1 Sn5 3.256106 1_555
Sm1 Sn5 3.256109 1_465
Sm1 Sn5 3.256109 1_455
Sm1 Sn0 3.322081 1_455
Sm1 Sn0 3.322081 1_555
Sm1 Sn4 3.356155 1_555
Sm1 Sn4 3.356155 1_455
Sm1 Sn8 3.359937 1_565
Sm1 Sn8 3.359937 1_555
Sm1 Sn9 3.379425 1_555
Sm1 Sn9 3.379425 1_565
Sm2 Sn1 3.241790 1_655
Sm2 Sn1 3.241794 1_555
Sm2 Sn7 3.251917 1_565
Sm2 Sn7 3.251917 1_555
Sm2 Sn3 3.323800 1_655
Sm2 Sn3 3.323800 1_665
Sm2 Sn3 3.323803 1_555
Sm2 Sn3 3.323803 1_565
Sm2 Sn2 3.526756 1_565
Sm2 Sn2 3.526756 1_555
Sm3 Sn0 3.241790 1_455
Sm3 Sn0 3.241794 1_555
Sm3 Sn8 3.251917 1_565
Sm3 Sn8 3.251917 1_555
Sm3 Sn2 3.323800 1_465
Sm3 Sn2 3.323800 1_455
Sm3 Sn2 3.323803 1_565
Sm3 Sn2 3.323803 1_555
Sm3 Sn3 3.526756 1_565
Sm3 Sn3 3.526756 1_555
Sn0 Sn8 3.255266 1_555
Sn0 Sn8 3.255266 1_565
Sn0 Sn8 3.255270 1_665
Sn0 Sn8 3.255270 1_655
Sn0 Sn5 3.290833 1_565
Sn0 Sn5 3.290833 1_555
Sn1 Sn7 3.255266 1_565
Sn1 Sn7 3.255266 1_555
Sn1 Sn7 3.255270 1_465
Sn1 Sn7 3.255270 1_455
Sn1 Sn6 3.290833 1_555
Sn1 Sn6 3.290833 1_565
Sn2 Sn3 3.026927 1_555
Sn2 Sn3 3.026927 1_655
Sn4 Sn9 3.255207 1_555
Sn4 Sn9 3.255207 1_565
Sn4 Sn9 3.255207 1_665
Sn4 Sn9 3.255207 1_655
Sn4 Sn6 3.435515 1_554
Sn4 Sn6 3.435515 1_564
Sn4 Sn5 3.435515 1_555
Sn4 Sn5 3.435515 1_565
Sn5 Sn8 3.281159 1_555
Sn5 Sn8 3.281165 1_655
Sn5 Sn9 3.412626 1_555
Sn5 Sn9 3.412628 1_655
Sn6 Sn7 3.281159 1_555
Sn6 Sn7 3.281165 1_455
Sn6 Sn9 3.412626 1_656
Sn6 Sn9 3.412628 1_556
