# generated using pymatgen
data_Hf8Mo5S
_symmetry_space_group_name_H-M   'P 1'
_cell_length_a   8.42143752
_cell_length_b   8.42143752
_cell_length_c   8.46535200
_cell_angle_alpha   90.00000000
_cell_angle_beta   90.00000000
_cell_angle_gamma   114.49606376
_symmetry_Int_Tables_number   1
_chemical_formula_structural   Hf8Mo5S
_chemical_formula_sum   'Hf16 Mo10 S2'
_cell_volume   546.32866419
_cell_formula_units_Z   2
loop_
 _symmetry_equiv_pos_site_id
 _symmetry_equiv_pos_as_xyz
  1  'x, y, z'
loop_
 _atom_site_type_symbol
 _atom_site_label
 _atom_site_symmetry_multiplicity
 _atom_site_fract_x
 _atom_site_fract_y
 _atom_site_fract_z
 _atom_site_occupancy
  Hf  Hf0  1  0.18293300  0.39168400  0.19048200  1
  Hf  Hf1  1  0.60831600  0.81706700  0.19048200  1
  Hf  Hf2  1  0.20396200  0.79603800  0.18953900  1
  Hf  Hf3  1  0.81490600  0.60652100  0.29655000  1
  Hf  Hf4  1  0.39347900  0.18509400  0.29655000  1
  Hf  Hf5  1  0.79220600  0.20779400  0.30069500  1
  Hf  Hf6  1  0.81490600  0.60652100  0.70345000  1
  Hf  Hf7  1  0.39347900  0.18509400  0.70345000  1
  Hf  Hf8  1  0.79220600  0.20779400  0.69930500  1
  Hf  Hf9  1  0.18293300  0.39168400  0.80951800  1
  Hf  Hf10  1  0.60831600  0.81706700  0.80951800  1
  Hf  Hf11  1  0.20396200  0.79603800  0.81046100  1
  Hf  Hf12  1  0.56245500  0.43754500  0.00000000  1
  Hf  Hf13  1  0.45483800  0.90738700  0.50000000  1
  Hf  Hf14  1  0.09261300  0.54516200  0.50000000  1
  Hf  Hf15  1  0.45812200  0.54187800  0.50000000  1
  Mo  Mo0  1  0.99858100  0.00141900  0.24796000  1
  Mo  Mo1  1  0.99858100  0.00141900  0.75204000  1
  Mo  Mo2  1  0.89589700  0.78109800  0.00000000  1
  Mo  Mo3  1  0.21890200  0.10410300  0.00000000  1
  Mo  Mo4  1  0.87954500  0.12045500  0.00000000  1
  Mo  Mo5  1  0.10616400  0.22160000  0.50000000  1
  Mo  Mo6  1  0.77840000  0.89383600  0.50000000  1
  Mo  Mo7  1  0.11112100  0.88887900  0.50000000  1
  Mo  Mo8  1  0.55045600  0.10271500  0.00000000  1
  Mo  Mo9  1  0.89728500  0.44954400  0.00000000  1
  S  S0  1  0.35978300  0.64021700  0.00000000  1
  S  S1  1  0.64634400  0.35365600  0.50000000  1
loop_
_geom_bond_atom_site_label_1
_geom_bond_atom_site_label_2
_geom_bond_distance
_geom_bond_site_symmetry_2
Hf0 S0 2.571764 1_555
Hf0 Mo5 2.926948 1_555
Hf0 Mo3 3.027472 1_555
Hf0 Mo0 3.036025 1_455
Hf0 Mo4 3.083147 1_455
Hf0 Mo9 3.097796 1_455
Hf1 S0 2.571764 1_555
Hf1 Mo6 2.926948 1_555
Hf1 Mo2 3.027472 1_555
Hf1 Mo0 3.036025 1_565
Hf1 Mo4 3.083147 1_565
Hf1 Mo8 3.097796 1_565
Hf2 S0 2.728801 1_555
Hf2 Mo7 2.938835 1_555
Hf2 Mo0 2.950999 1_465
Hf2 Mo2 3.008366 1_455
Hf2 Mo3 3.008366 1_565
Hf2 Mo9 3.392604 1_455
Hf2 Mo8 3.392604 1_565
Hf3 S1 2.647502 1_555
Hf3 Mo2 2.845562 1_555
Hf3 Mo9 3.048202 1_555
Hf3 Mo0 3.058708 1_565
Hf3 Mo6 3.087410 1_555
Hf3 Mo7 3.150290 1_655
Hf4 S1 2.647502 1_555
Hf4 Mo3 2.845562 1_555
Hf4 Mo8 3.048202 1_555
Hf4 Mo0 3.058708 1_455
Hf4 Mo5 3.087410 1_555
Hf4 Mo7 3.150290 1_545
Hf5 S1 2.667515 1_555
Hf5 Mo4 2.830215 1_555
Hf5 Mo0 2.957233 1_555
Hf5 Mo6 3.097711 1_545
Hf5 Mo5 3.097711 1_655
Hf5 Mo8 3.148559 1_555
Hf5 Mo9 3.148559 1_555
Hf6 S1 2.647502 1_555
Hf6 Mo2 2.845562 1_556
Hf6 Mo9 3.048202 1_556
Hf6 Mo1 3.058708 1_565
Hf6 Mo6 3.087410 1_555
Hf6 Mo7 3.150290 1_655
Hf7 S1 2.647502 1_555
Hf7 Mo3 2.845562 1_556
Hf7 Mo8 3.048202 1_556
Hf7 Mo1 3.058708 1_455
Hf7 Mo5 3.087410 1_555
Hf7 Mo7 3.150290 1_545
Hf8 S1 2.667515 1_555
Hf8 Mo4 2.830215 1_556
Hf8 Mo1 2.957233 1_555
Hf8 Mo6 3.097711 1_545
Hf8 Mo5 3.097711 1_655
Hf8 Mo8 3.148559 1_556
Hf8 Mo9 3.148559 1_556
Hf9 S0 2.571764 1_556
Hf9 Mo5 2.926948 1_555
Hf9 Mo3 3.027472 1_556
Hf9 Mo1 3.036025 1_455
Hf9 Mo4 3.083147 1_456
Hf9 Mo9 3.097796 1_456
Hf10 S0 2.571764 1_556
Hf10 Mo6 2.926948 1_555
Hf10 Mo2 3.027472 1_556
Hf10 Mo1 3.036025 1_565
Hf10 Mo4 3.083147 1_566
Hf10 Mo8 3.097796 1_566
Hf11 S0 2.728801 1_556
Hf11 Mo7 2.938835 1_555
Hf11 Mo1 2.950999 1_465
Hf11 Mo2 3.008366 1_456
Hf11 Mo3 3.008366 1_566
Hf11 Mo9 3.392604 1_456
Hf11 Mo8 3.392604 1_566
Hf12 Mo8 2.779373 1_555
Hf12 Mo9 2.779373 1_555
Hf12 S0 2.870890 1_555
Hf12 Mo3 3.085238 1_555
Hf12 Mo2 3.085238 1_555
Hf13 Mo6 2.774119 1_555
Hf13 Mo7 2.833517 1_555
Hf14 Mo5 2.774119 1_555
Hf14 Mo7 2.833517 1_555
Hf15 S1 2.666203 1_555
Hf15 Mo5 3.070933 1_555
Hf15 Mo6 3.070933 1_555
Mo0 Mo7 2.663381 1_645
Mo0 Mo4 2.692444 1_555
Mo0 Mo3 2.695540 1_655
Mo0 Mo2 2.695540 1_545
Mo0 Mo6 2.723640 1_545
Mo0 Mo5 2.723640 1_655
Mo1 Mo7 2.663381 1_645
Mo1 Mo4 2.692444 1_556
Mo1 Mo2 2.695540 1_546
Mo1 Mo3 2.695540 1_656
Mo1 Mo6 2.723640 1_545
Mo1 Mo5 2.723640 1_655
Mo2 Mo9 2.797028 1_555
Mo2 Mo4 2.917664 1_565
Mo2 Mo3 2.943238 1_665
Mo3 Mo8 2.797028 1_555
Mo3 Mo4 2.917664 1_455
Mo4 Mo8 2.712867 1_555
Mo4 Mo9 2.712867 1_555
Mo5 Mo7 2.819554 1_545
Mo5 Mo6 2.986603 1_445
Mo6 Mo7 2.819554 1_655
Mo8 Mo9 3.160324 1_555
