# generated using pymatgen
data_NaMg6Si
_symmetry_space_group_name_H-M   'P 1'
_cell_length_a   5.04374100
_cell_length_b   6.37530300
_cell_length_c   11.00989100
_cell_angle_alpha   90.00000000
_cell_angle_beta   90.00000000
_cell_angle_gamma   90.00000000
_symmetry_Int_Tables_number   1
_chemical_formula_structural   NaMg6Si
_chemical_formula_sum   'Na2 Mg12 Si2'
_cell_volume   354.02719725
_cell_formula_units_Z   2
loop_
 _symmetry_equiv_pos_site_id
 _symmetry_equiv_pos_as_xyz
  1  'x, y, z'
loop_
 _atom_site_type_symbol
 _atom_site_label
 _atom_site_symmetry_multiplicity
 _atom_site_fract_x
 _atom_site_fract_y
 _atom_site_fract_z
 _atom_site_occupancy
  Na  Na0  1  0.50000000  0.50000000  0.17019700  1
  Na  Na1  1  0.50000000  0.00000000  0.67019700  1
  Mg  Mg0  1  0.00000000  0.24544500  0.08217800  1
  Mg  Mg1  1  0.00000000  0.75455500  0.08217800  1
  Mg  Mg2  1  0.00000000  0.50000000  0.83249800  1
  Mg  Mg3  1  0.50000000  0.24193300  0.91462000  1
  Mg  Mg4  1  0.50000000  0.75806700  0.91462000  1
  Mg  Mg5  1  0.50000000  0.50000000  0.66500200  1
  Mg  Mg6  1  0.00000000  0.74544500  0.58217800  1
  Mg  Mg7  1  0.00000000  0.25455500  0.58217800  1
  Mg  Mg8  1  0.00000000  0.00000000  0.33249800  1
  Mg  Mg9  1  0.50000000  0.74193300  0.41462000  1
  Mg  Mg10  1  0.50000000  0.25806700  0.41462000  1
  Mg  Mg11  1  0.50000000  0.00000000  0.16500200  1
  Si  Si0  1  0.00000000  0.50000000  0.33870600  1
  Si  Si1  1  0.00000000  0.00000000  0.83870600  1
loop_
_geom_bond_atom_site_label_1
_geom_bond_atom_site_label_2
_geom_bond_distance
_geom_bond_site_symmetry_2
Na0 Si0 3.130789 1_655
Na0 Si0 3.130789 1_555
Na1 Si1 3.130789 1_655
Na1 Si1 3.130789 1_555
Mg0 Si1 3.103896 1_554
Mg0 Mg11 3.104822 1_455
Mg0 Mg11 3.104822 1_555
Mg0 Mg3 3.124676 1_554
Mg0 Mg3 3.124676 1_454
Mg0 Mg1 3.129572 1_545
Mg0 Na0 3.151609 1_555
Mg0 Na0 3.151609 1_455
Mg0 Mg8 3.169238 1_555
Mg0 Mg2 3.192243 1_554
Mg0 Mg1 3.245731 1_555
Mg0 Si0 3.257394 1_555
Mg1 Si1 3.103896 1_564
Mg1 Mg11 3.104822 1_465
Mg1 Mg11 3.104822 1_565
Mg1 Mg4 3.124676 1_454
Mg1 Mg4 3.124676 1_554
Mg1 Na0 3.151609 1_455
Mg1 Na0 3.151609 1_555
Mg1 Mg8 3.169238 1_565
Mg1 Mg2 3.192243 1_554
Mg1 Si0 3.257394 1_555
Mg2 Mg5 3.124193 1_455
Mg2 Mg5 3.124193 1_555
Mg2 Mg3 3.143913 1_455
Mg2 Mg4 3.143913 1_455
Mg2 Mg3 3.143913 1_555
Mg2 Mg4 3.143913 1_555
Mg2 Mg6 3.169238 1_555
Mg2 Mg7 3.169238 1_555
Mg2 Si1 3.188384 1_565
Mg2 Si1 3.188384 1_555
Mg3 Si1 3.072033 1_655
Mg3 Si1 3.072033 1_555
Mg3 Mg4 3.084792 1_545
Mg3 Na1 3.101749 1_555
Mg3 Mg5 3.203098 1_555
Mg3 Na0 3.259564 1_556
Mg3 Mg4 3.290511 1_555
Mg4 Si1 3.072033 1_565
Mg4 Si1 3.072033 1_665
Mg4 Na1 3.101749 1_565
Mg4 Mg5 3.203098 1_555
Mg4 Na0 3.259564 1_556
Mg5 Mg7 3.104822 1_655
Mg5 Mg6 3.104822 1_555
Mg5 Mg7 3.104822 1_555
Mg5 Mg6 3.104822 1_655
Mg5 Mg9 3.158839 1_555
Mg5 Na1 3.188165 1_555
Mg5 Na1 3.188165 1_565
Mg6 Si0 3.103896 1_555
Mg6 Mg9 3.124676 1_455
Mg6 Mg9 3.124676 1_555
Mg6 Mg7 3.129572 1_555
Mg6 Na1 3.151609 1_465
Mg6 Na1 3.151609 1_565
Mg6 Mg8 3.192243 1_565
Mg6 Mg7 3.245731 1_565
Mg6 Si1 3.257394 1_565
Mg7 Si0 3.103896 1_555
Mg7 Na1 3.151609 1_455
Mg7 Na1 3.151609 1_555
Mg7 Mg8 3.192243 1_555
Mg7 Si1 3.257394 1_555
Mg8 Mg9 3.143913 1_445
Mg8 Mg9 3.143913 1_545
Mg8 Si0 3.188384 1_545
Mg8 Si0 3.188384 1_555
Mg9 Si0 3.072033 1_555
Mg9 Si0 3.072033 1_655
Mg9 Na0 3.101749 1_555
Mg9 Na1 3.259564 1_565
Mg10 Si0 3.072033 1_655
Mg10 Si0 3.072033 1_555
Mg10 Mg9 3.084792 1_555
Mg10 Na0 3.101749 1_555
Mg10 Mg7 3.124676 1_555
Mg10 Mg7 3.124676 1_655
Mg10 Mg8 3.143913 1_555
Mg10 Mg8 3.143913 1_655
Mg10 Mg5 3.158839 1_555
Mg10 Mg11 3.203098 1_555
Mg10 Na1 3.259564 1_555
Mg10 Mg9 3.290511 1_545
Mg11 Mg8 3.124193 1_555
Mg11 Mg8 3.124193 1_655
Mg11 Mg4 3.158839 1_544
Mg11 Mg3 3.158839 1_554
Mg11 Na0 3.188165 1_555
Mg11 Na0 3.188165 1_545
Mg11 Mg9 3.203098 1_545
