# generated using pymatgen
data_Cu6Pb2Se6N2O27
_symmetry_space_group_name_H-M   'P 1'
_cell_length_a   7.94966909
_cell_length_b   9.55251964
_cell_length_c   9.29703809
_cell_angle_alpha   68.48120612
_cell_angle_beta   70.62219068
_cell_angle_gamma   81.17535119
_symmetry_Int_Tables_number   1
_chemical_formula_structural   Cu6Pb2Se6N2O27
_chemical_formula_sum   'Cu6 Pb2 Se6 N2 O27'
_cell_volume   619.18890303
_cell_formula_units_Z   1
loop_
 _symmetry_equiv_pos_site_id
 _symmetry_equiv_pos_as_xyz
  1  'x, y, z'
loop_
 _atom_site_type_symbol
 _atom_site_label
 _atom_site_symmetry_multiplicity
 _atom_site_fract_x
 _atom_site_fract_y
 _atom_site_fract_z
 _atom_site_occupancy
  Cu  Cu0  1  0.55644700  0.97278700  0.65291500  1
  Cu  Cu1  1  0.44341000  0.02672200  0.34809200  1
  Cu  Cu2  1  0.63512300  0.10625600  0.90389000  1
  Cu  Cu3  1  0.36518700  0.89388600  0.09708700  1
  Cu  Cu4  1  0.99876300  0.50005500  0.50154500  1
  Cu  Cu5  1  0.00058300  0.99903000  0.00055700  1
  Pb  Pb0  1  0.53102100  0.54016700  0.72152300  1
  Pb  Pb1  1  0.47141400  0.44449000  0.28231200  1
  Se  Se0  1  0.74839800  0.76986500  0.91662700  1
  Se  Se1  1  0.25181500  0.23135500  0.08482300  1
  Se  Se2  1  0.83636700  0.84621600  0.39215200  1
  Se  Se3  1  0.16209200  0.15088000  0.61019600  1
  Se  Se4  1  0.87165300  0.35596800  0.89489600  1
  Se  Se5  1  0.12781300  0.64254800  0.11115700  1
  N  N0  1  0.17423100  0.74165500  0.61814500  1
  N  N1  1  0.82436600  0.25840700  0.38302500  1
  O  O0  1  0.50561500  0.95594900  0.18058200  1
  O  O1  1  0.49517200  0.04384900  0.82033600  1
  O  O2  1  0.21643000  0.77214300  0.72339300  1
  O  O3  1  0.77344800  0.23011000  0.28044600  1
  O  O4  1  0.79335800  0.16807900  0.98935900  1
  O  O5  1  0.20789800  0.83062700  0.01257100  1
  O  O6  1  0.16378400  0.61575000  0.29677600  1
  O  O7  1  0.83321300  0.38722800  0.70873000  1
  O  O8  1  0.69515200  0.80344000  0.74001600  1
  O  O9  1  0.31003100  0.19961000  0.25903100  1
  O  O10  1  0.82417100  0.15715700  0.51587300  1
  O  O11  1  0.18202400  0.84108300  0.48178800  1
  O  O12  1  0.80588500  0.65443800  0.48711800  1
  O  O13  1  0.18902400  0.34290900  0.51234100  1
  O  O14  1  0.12640500  0.60937100  0.65135800  1
  O  O15  1  0.87289500  0.39058600  0.34888000  1
  O  O16  1  0.85401800  0.86125800  0.19930200  1
  O  O17  1  0.14589700  0.13823000  0.80196300  1
  O  O18  1  0.70359700  0.46564700  0.96764000  1
  O  O19  1  0.29415200  0.52924500  0.04257300  1
  O  O20  1  0.60157900  0.89708200  0.46967800  1
  O  O21  1  0.39750200  0.10203000  0.53134800  1
  O  O22  1  0.19029000  0.05048000  0.11980200  1
  O  O23  1  0.81070600  0.95038700  0.88302900  1
  O  O24  1  0.54808600  0.73582100  0.07130800  1
  O  O25  1  0.45203400  0.26473000  0.92941200  1
  O  O26  1  0.51395200  0.45247400  0.52140600  1
loop_
_geom_bond_atom_site_label_1
_geom_bond_atom_site_label_2
_geom_bond_distance
_geom_bond_site_symmetry_2
Cu0 O1 1.814214 1_565
Cu0 O8 1.890170 1_555
Cu0 O21 1.960504 1_565
Cu0 O20 1.993091 1_555
Cu1 O0 1.812649 1_545
Cu1 O9 1.891956 1_555
Cu1 O20 1.957266 1_545
Cu1 O21 1.989825 1_555
Cu1 O11 2.609039 1_545
Cu2 O1 1.820259 1_555
Cu2 O23 1.896689 1_545
Cu2 O4 1.948848 1_555
Cu2 O25 1.955693 1_555
Cu2 O0 2.392765 1_546
Cu3 O0 1.821000 1_555
Cu3 O22 1.901085 1_565
Cu3 O5 1.943756 1_555
Cu3 O24 1.952437 1_555
Cu3 O1 2.392896 1_564
Cu4 O6 1.952101 1_655
Cu4 O7 1.958037 1_555
Cu4 O12 1.959971 1_555
Cu4 O13 1.960806 1_655
Cu4 O14 2.527843 1_655
Cu4 O15 2.541952 1_555
Cu5 O16 1.939491 1_455
Cu5 O17 1.940727 1_564
Cu5 O5 2.119758 1_555
Cu5 O4 2.122885 1_464
Cu5 O23 2.317422 1_454
Cu5 O22 2.341282 1_565
N0 O11 1.263195 1_555
N0 O2 1.269517 1_555
N0 O14 1.272774 1_555
N1 O10 1.258473 1_555
N1 O15 1.272011 1_555
N1 O3 1.274863 1_555
O4 Se4 1.789890 1_555
O5 Se5 1.796928 1_555
O6 Se5 1.762468 1_555
O7 Se4 1.766923 1_555
O7 Pb0 2.603982 1_555
O8 Se0 1.735307 1_555
O9 Se1 1.738774 1_555
O12 Se2 1.732622 1_555
O12 Pb0 2.557746 1_555
O13 Se3 1.733596 1_555
O13 Pb1 2.552426 1_555
O16 Se2 1.704461 1_555
O17 Se3 1.704169 1_555
O18 Se4 1.682475 1_555
O19 Se5 1.683518 1_555
O20 Se2 1.823541 1_555
O21 Se3 1.824836 1_555
O22 Se1 1.752668 1_555
O23 Se0 1.755237 1_555
O24 Se0 1.733716 1_554
O25 Se1 1.736193 1_556
O25 Pb0 2.650192 1_555
O26 Pb0 2.351027 1_555
O26 Pb1 2.385876 1_555
