# generated using pymatgen
data_Sn3Mo15Se19
_symmetry_space_group_name_H-M   'P 1'
_cell_length_a   19.67306000
_cell_length_b   9.88257100
_cell_length_c   9.91257497
_cell_angle_alpha   60.25000194
_cell_angle_beta   90.00000000
_cell_angle_gamma   90.00000000
_symmetry_Int_Tables_number   1
_chemical_formula_structural   Sn3Mo15Se19
_chemical_formula_sum   'Sn6 Mo30 Se38'
_cell_volume   1673.19878787
_cell_formula_units_Z   2
loop_
 _symmetry_equiv_pos_site_id
 _symmetry_equiv_pos_as_xyz
  1  'x, y, z'
loop_
 _atom_site_type_symbol
 _atom_site_label
 _atom_site_symmetry_multiplicity
 _atom_site_fract_x
 _atom_site_fract_y
 _atom_site_fract_z
 _atom_site_occupancy
  Sn  Sn0  1  0.39271300  0.33563100  0.35027600  1
  Sn  Sn1  1  0.89271300  0.66436900  0.64972400  1
  Sn  Sn2  1  0.60728700  0.66436900  0.64972400  1
  Sn  Sn3  1  0.10728700  0.33563100  0.35027600  1
  Sn  Sn4  1  0.25000000  0.17419600  0.03714600  1
  Sn  Sn5  1  0.75000000  0.82580400  0.96285400  1
  Mo  Mo0  1  0.36496700  0.81364300  0.50404400  1
  Mo  Mo1  1  0.36474000  0.68769400  0.81102500  1
  Mo  Mo2  1  0.36514700  0.50546800  0.68088600  1
  Mo  Mo3  1  0.86496700  0.18635700  0.49595600  1
  Mo  Mo4  1  0.86474000  0.31230600  0.18897500  1
  Mo  Mo5  1  0.86514700  0.49453200  0.31911400  1
  Mo  Mo6  1  0.63503300  0.18635700  0.49595600  1
  Mo  Mo7  1  0.63526000  0.31230600  0.18897500  1
  Mo  Mo8  1  0.63485300  0.49453200  0.31911400  1
  Mo  Mo9  1  0.13503300  0.81364300  0.50404400  1
  Mo  Mo10  1  0.13526000  0.68769400  0.81102500  1
  Mo  Mo11  1  0.13485300  0.50546800  0.68088600  1
  Mo  Mo12  1  0.44311500  0.84897300  0.16590000  1
  Mo  Mo13  1  0.44358300  0.98560900  0.84766500  1
  Mo  Mo14  1  0.44344300  0.15795400  0.98570500  1
  Mo  Mo15  1  0.94311500  0.15102700  0.83410000  1
  Mo  Mo16  1  0.94358300  0.01439100  0.15233500  1
  Mo  Mo17  1  0.94344300  0.84204600  0.01429500  1
  Mo  Mo18  1  0.55688500  0.15102700  0.83410000  1
  Mo  Mo19  1  0.55641700  0.01439100  0.15233500  1
  Mo  Mo20  1  0.55655700  0.84204600  0.01429500  1
  Mo  Mo21  1  0.05688500  0.84897300  0.16590000  1
  Mo  Mo22  1  0.05641700  0.98560900  0.84766500  1
  Mo  Mo23  1  0.05655700  0.15795400  0.98570500  1
  Mo  Mo24  1  0.25000000  0.64877800  0.51756100  1
  Mo  Mo25  1  0.25000000  0.83053300  0.65753600  1
  Mo  Mo26  1  0.25000000  0.51198100  0.83557600  1
  Mo  Mo27  1  0.75000000  0.35122200  0.48243900  1
  Mo  Mo28  1  0.75000000  0.16946700  0.34246400  1
  Mo  Mo29  1  0.75000000  0.48801900  0.16442400  1
  Se  Se0  1  0.25000000  0.94957200  0.35955800  1
  Se  Se1  1  0.25000000  0.69035200  0.95781400  1
  Se  Se2  1  0.25000000  0.35002600  0.68796900  1
  Se  Se3  1  0.75000000  0.05042800  0.64044200  1
  Se  Se4  1  0.75000000  0.30964800  0.04218600  1
  Se  Se5  1  0.75000000  0.64997400  0.31203100  1
  Se  Se6  1  0.33953200  0.97794800  0.00121300  1
  Se  Se7  1  0.83953200  0.02205200  0.99878700  1
  Se  Se8  1  0.66046800  0.02205200  0.99878700  1
  Se  Se9  1  0.16046800  0.97794800  0.00121300  1
  Se  Se10  1  0.35843700  0.62258100  0.37995800  1
  Se  Se11  1  0.35837600  0.99614000  0.62564600  1
  Se  Se12  1  0.36637300  0.38835300  0.98934700  1
  Se  Se13  1  0.85843700  0.37741900  0.62004200  1
  Se  Se14  1  0.85837600  0.00386000  0.37435400  1
  Se  Se15  1  0.86637300  0.61164700  0.01065300  1
  Se  Se16  1  0.64156300  0.37741900  0.62004200  1
  Se  Se17  1  0.64162400  0.00386000  0.37435400  1
  Se  Se18  1  0.63362700  0.61164700  0.01065300  1
  Se  Se19  1  0.14156300  0.62258100  0.37995800  1
  Se  Se20  1  0.14162400  0.99614000  0.62564600  1
  Se  Se21  1  0.13362700  0.38835300  0.98934700  1
  Se  Se22  1  0.44694100  0.03460500  0.28680000  1
  Se  Se23  1  0.44863500  0.67880900  0.03532100  1
  Se  Se24  1  0.44867000  0.28736200  0.67523600  1
  Se  Se25  1  0.94694100  0.96539500  0.71320000  1
  Se  Se26  1  0.94863500  0.32119100  0.96467900  1
  Se  Se27  1  0.94867000  0.71263800  0.32476400  1
  Se  Se28  1  0.55305900  0.96539500  0.71320000  1
  Se  Se29  1  0.55136500  0.32119100  0.96467900  1
  Se  Se30  1  0.55133000  0.71263800  0.32476400  1
  Se  Se31  1  0.05305900  0.03460500  0.28680000  1
  Se  Se32  1  0.05136500  0.67880900  0.03532100  1
  Se  Se33  1  0.05133000  0.28736200  0.67523600  1
  Se  Se34  1  0.96758500  0.33200100  0.33393100  1
  Se  Se35  1  0.46758500  0.66799900  0.66606900  1
  Se  Se36  1  0.03241500  0.66799900  0.66606900  1
  Se  Se37  1  0.53241500  0.33200100  0.33393100  1
loop_
_geom_bond_atom_site_label_1
_geom_bond_atom_site_label_2
_geom_bond_distance
_geom_bond_site_symmetry_2
Mo0 Se35 2.536255 1_555
Mo0 Se11 2.622984 1_555
Mo0 Se0 2.657431 1_555
Mo0 Se22 2.709180 1_565
Mo0 Se10 2.720218 1_555
Mo1 Se35 2.544352 1_555
Mo1 Se12 2.585982 1_555
Mo1 Se11 2.669296 1_555
Mo1 Se1 2.692797 1_555
Mo1 Se23 2.735198 1_556
Mo1 Mo26 2.783988 1_555
Mo2 Se35 2.535490 1_555
Mo2 Se10 2.613191 1_555
Mo2 Se12 2.679030 1_555
Mo2 Se2 2.718318 1_555
Mo2 Se24 2.732920 1_555
Mo2 Mo26 2.754068 1_555
Mo3 Se34 2.536255 1_555
Mo3 Se14 2.622984 1_555
Mo3 Se3 2.657431 1_555
Mo3 Se25 2.709180 1_545
Mo3 Se13 2.720218 1_555
Mo4 Se34 2.544352 1_555
Mo4 Se15 2.585982 1_555
Mo4 Se14 2.669296 1_555
Mo4 Se4 2.692797 1_555
Mo4 Se26 2.735198 1_554
Mo5 Se34 2.535490 1_555
Mo5 Se13 2.613191 1_555
Mo5 Se15 2.679030 1_555
Mo5 Se5 2.718318 1_555
Mo5 Se27 2.732920 1_555
Mo6 Se37 2.536255 1_555
Mo6 Se17 2.622984 1_555
Mo6 Se3 2.657431 1_555
Mo6 Se28 2.709180 1_545
Mo6 Se16 2.720218 1_555
Mo7 Se37 2.544352 1_555
Mo7 Se18 2.585982 1_555
Mo7 Se17 2.669296 1_555
Mo7 Se4 2.692797 1_555
Mo7 Se29 2.735198 1_554
Mo8 Se37 2.535490 1_555
Mo8 Se16 2.613191 1_555
Mo8 Se18 2.679030 1_555
Mo8 Se5 2.718318 1_555
Mo8 Se30 2.732920 1_555
Mo9 Se36 2.536255 1_555
Mo9 Se20 2.622984 1_555
Mo9 Se0 2.657431 1_555
Mo9 Se31 2.709180 1_565
Mo9 Se19 2.720218 1_555
Mo10 Se36 2.544352 1_555
Mo10 Se21 2.585982 1_555
Mo10 Se20 2.669296 1_555
Mo10 Se1 2.692797 1_555
Mo10 Se32 2.735198 1_556
Mo10 Mo26 2.783988 1_555
Mo11 Se36 2.535490 1_555
Mo11 Se19 2.613191 1_555
Mo11 Se21 2.679030 1_555
Mo11 Se2 2.718318 1_555
Mo11 Se33 2.732920 1_555
Mo11 Mo26 2.754068 1_555
Mo12 Se6 2.525307 1_555
Mo12 Se23 2.583678 1_555
Mo12 Se30 2.592643 1_555
Mo12 Se22 2.643724 1_565
Mo12 Se10 2.751676 1_555
Mo13 Se6 2.529474 1_556
Mo13 Se28 2.592163 1_555
Mo13 Se24 2.601125 1_565
Mo13 Se23 2.658129 1_556
Mo13 Se11 2.727064 1_555
Mo14 Se22 2.605372 1_556
Mo14 Se29 2.611507 1_555
Mo14 Se6 2.663785 1_546
Mo14 Se24 2.685400 1_555
Mo14 Se12 2.750670 1_555
Mo15 Se7 2.525307 1_555
Mo15 Se26 2.583678 1_555
Mo15 Se33 2.592643 1_655
Mo15 Se25 2.643724 1_545
Mo15 Se13 2.751676 1_555
Mo16 Se7 2.529474 1_554
Mo16 Se31 2.592163 1_655
Mo16 Se27 2.601125 1_545
Mo16 Se26 2.658129 1_554
Mo16 Se14 2.727064 1_555
Mo17 Se25 2.605372 1_554
Mo17 Se32 2.611507 1_655
Mo17 Se7 2.663785 1_564
Mo17 Se27 2.685400 1_555
Mo17 Se15 2.750670 1_555
Mo18 Se8 2.525307 1_555
Mo18 Se29 2.583678 1_555
Mo18 Se24 2.592643 1_555
Mo18 Se28 2.643724 1_545
Mo18 Se16 2.751676 1_555
Mo19 Se8 2.529474 1_554
Mo19 Se22 2.592163 1_555
Mo19 Se30 2.601125 1_545
Mo19 Se29 2.658129 1_554
Mo19 Se17 2.727064 1_555
Mo20 Se28 2.605372 1_554
Mo20 Se23 2.611507 1_555
Mo20 Se8 2.663785 1_564
Mo20 Se30 2.685400 1_555
Mo20 Se18 2.750670 1_555
Mo21 Se9 2.525307 1_555
Mo21 Se32 2.583678 1_555
Mo21 Se27 2.592643 1_455
Mo21 Se31 2.643724 1_565
Mo21 Se19 2.751676 1_555
Mo22 Se9 2.529474 1_556
Mo22 Se25 2.592163 1_455
Mo22 Se33 2.601125 1_565
Mo22 Se32 2.658129 1_556
Mo22 Se20 2.727064 1_555
Mo23 Se31 2.605372 1_556
Mo23 Se26 2.611507 1_455
Mo23 Se9 2.663785 1_546
Mo23 Se33 2.685400 1_555
Mo23 Se21 2.750670 1_555
Mo24 Se2 2.573083 1_555
Mo24 Se0 2.582433 1_555
Mo24 Se10 2.613216 1_555
Mo24 Se19 2.613216 1_555
Mo24 Mo26 2.745089 1_555
Mo25 Se0 2.580689 1_555
Mo25 Se1 2.585843 1_555
Mo25 Se11 2.609754 1_555
Mo25 Se20 2.609754 1_555
Mo25 Mo26 2.740693 1_555
Mo26 Se1 2.587529 1_555
Mo26 Se2 2.650788 1_555
Mo26 Se12 2.685015 1_555
Mo26 Se21 2.685015 1_555
Mo26 Sn4 2.918272 1_556
Mo27 Se5 2.573083 1_555
Mo27 Se3 2.582433 1_555
Mo27 Se13 2.613216 1_555
Mo27 Se16 2.613216 1_555
Mo27 Mo29 2.745089 1_555
Mo28 Se3 2.580689 1_555
Mo28 Se4 2.585843 1_555
Mo28 Se14 2.609754 1_555
Mo28 Se17 2.609754 1_555
Mo28 Mo29 2.740693 1_555
Mo29 Se4 2.587529 1_555
Mo29 Se5 2.650788 1_555
Mo29 Se15 2.685015 1_555
Mo29 Se18 2.685015 1_555
Mo29 Mo8 2.754068 1_555
Mo29 Mo5 2.754068 1_555
Mo29 Mo7 2.783988 1_555
Mo29 Mo4 2.783988 1_555
Mo29 Sn5 2.918272 1_554
Se0 Sn4 2.846213 1_565
Se2 Sn4 3.005115 1_556
Se3 Sn5 2.846213 1_545
Se5 Sn5 3.005115 1_554
Se6 Sn4 2.770609 1_565
Se7 Sn5 2.770609 1_545
Se8 Sn5 2.770609 1_545
Se9 Sn4 2.770609 1_565
Se10 Sn0 3.067752 1_555
Se11 Sn0 3.174079 1_565
Se12 Sn4 2.991647 1_556
Se13 Sn1 3.067752 1_555
Se14 Sn1 3.174079 1_545
Se15 Sn5 2.991647 1_554
Se16 Sn2 3.067752 1_555
Se17 Sn2 3.174079 1_545
Se18 Sn5 2.991647 1_554
Se19 Sn3 3.067752 1_555
Se20 Sn3 3.174079 1_565
Se21 Sn4 2.991647 1_556
Se24 Sn0 3.207885 1_555
Se27 Sn1 3.207885 1_555
Se30 Sn2 3.207885 1_555
Se33 Sn3 3.207885 1_555
Se34 Sn3 2.754418 1_655
Se35 Sn2 2.754418 1_555
Se36 Sn1 2.754418 1_455
Se37 Sn0 2.754418 1_555
