# generated using pymatgen
data_Li4Cr3NiO8
_symmetry_space_group_name_H-M   'P 1'
_cell_length_a   5.12637700
_cell_length_b   5.89074329
_cell_length_c   10.62229203
_cell_angle_alpha   105.96370464
_cell_angle_beta   94.53896586
_cell_angle_gamma   106.90706512
_symmetry_Int_Tables_number   1
_chemical_formula_structural   Li4Cr3NiO8
_chemical_formula_sum   'Li8 Cr6 Ni2 O16'
_cell_volume   290.62547664
_cell_formula_units_Z   2
loop_
 _symmetry_equiv_pos_site_id
 _symmetry_equiv_pos_as_xyz
  1  'x, y, z'
loop_
 _atom_site_type_symbol
 _atom_site_label
 _atom_site_symmetry_multiplicity
 _atom_site_fract_x
 _atom_site_fract_y
 _atom_site_fract_z
 _atom_site_occupancy
  Li  Li0  1  0.00000000  0.50000000  0.00000000  1
  Li  Li1  1  0.00060600  0.86853400  0.75424700  1
  Li  Li2  1  0.99939400  0.13146600  0.24575300  1
  Li  Li3  1  0.00044700  0.75010000  0.50000900  1
  Li  Li4  1  0.00000000  0.00000000  0.00000000  1
  Li  Li5  1  0.00399100  0.38092700  0.75080900  1
  Li  Li6  1  0.99600900  0.61907300  0.24919100  1
  Li  Li7  1  0.99955300  0.24990000  0.49999100  1
  Cr  Cr0  1  0.50103900  0.93925000  0.37382100  1
  Cr  Cr1  1  0.50098500  0.19015600  0.87756600  1
  Cr  Cr2  1  0.50048500  0.56313600  0.62675000  1
  Cr  Cr3  1  0.49901500  0.80984400  0.12243400  1
  Cr  Cr4  1  0.49951500  0.43686400  0.37325000  1
  Cr  Cr5  1  0.49896100  0.06075000  0.62617900  1
  Ni  Ni0  1  0.49915400  0.68771200  0.87482100  1
  Ni  Ni1  1  0.50084600  0.31228800  0.12517900  1
  O  O0  1  0.27571700  0.09844200  0.43933700  1
  O  O1  1  0.73029000  0.27737400  0.31560500  1
  O  O2  1  0.27730800  0.34686800  0.93569700  1
  O  O3  1  0.73276300  0.52120000  0.80790300  1
  O  O4  1  0.72428300  0.90155800  0.56066300  1
  O  O5  1  0.26971000  0.72262600  0.68439500  1
  O  O6  1  0.27933400  0.97056100  0.18922300  1
  O  O7  1  0.73295100  0.14567300  0.05648900  1
  O  O8  1  0.27890000  0.59904800  0.43996900  1
  O  O9  1  0.72434800  0.77667300  0.30891700  1
  O  O10  1  0.26704900  0.85432700  0.94351100  1
  O  O11  1  0.72066600  0.02943900  0.81077700  1
  O  O12  1  0.27565200  0.22332700  0.69108300  1
  O  O13  1  0.26723700  0.47880000  0.19209700  1
  O  O14  1  0.72110000  0.40095200  0.56003100  1
  O  O15  1  0.72269200  0.65313200  0.06430300  1
loop_
_geom_bond_atom_site_label_1
_geom_bond_atom_site_label_2
_geom_bond_distance
_geom_bond_site_symmetry_2
Li0 O2 1.965149 1_554
Li0 O15 1.965149 1_455
Li0 O10 2.397443 1_554
Li0 O7 2.397443 1_455
Li0 O3 2.419360 1_454
Li0 O13 2.419360 1_555
Li1 O5 1.921788 1_555
Li1 O11 1.983162 1_465
Li1 O3 2.351119 1_455
Li1 O10 2.374625 1_555
Li1 O12 2.452215 1_565
Li2 O1 1.921788 1_555
Li2 O6 1.983162 1_645
Li2 O13 2.351119 1_655
Li2 O7 2.374625 1_555
Li2 O9 2.452215 1_545
Li3 O4 1.943769 1_455
Li3 O8 1.951114 1_555
Li3 O5 2.375723 1_555
Li3 O9 2.448872 1_455
Li4 O7 1.871001 1_455
Li4 O10 1.871001 1_544
Li5 O3 1.873480 1_455
Li5 O12 1.942084 1_555
Li5 O5 2.396502 1_555
Li6 O13 1.873480 1_655
Li6 O9 1.942084 1_555
Li6 O1 2.396502 1_555
Li7 O0 1.943769 1_655
Li7 O14 1.951114 1_555
Li7 O1 2.375723 1_555
Li7 O12 2.448872 1_655
Cr0 O0 1.759607 1_565
Cr0 O9 1.761363 1_555
Cr0 O1 2.271971 1_565
Cr1 O2 1.721193 1_555
Cr1 O11 1.745003 1_555
Cr1 O7 2.278679 1_556
Cr1 O12 2.297486 1_555
Cr1 O3 2.312451 1_555
Cr1 O10 2.314685 1_545
Cr2 O14 1.754130 1_555
Cr2 O5 1.761223 1_555
Cr2 O3 2.291634 1_555
Cr2 O12 2.310302 1_555
Cr3 O15 1.721193 1_555
Cr3 O6 1.745003 1_555
Cr3 O10 2.278679 1_554
Cr3 O9 2.297486 1_555
Cr3 O13 2.312451 1_555
Cr3 O7 2.314685 1_565
Cr4 O8 1.754130 1_555
Cr4 O1 1.761223 1_555
Cr4 O13 2.291634 1_555
Cr4 O9 2.310302 1_555
Cr5 O4 1.759607 1_545
Cr5 O12 1.761363 1_555
Cr5 O5 2.271971 1_545
Ni0 O10 1.825982 1_555
Ni0 O3 1.826475 1_555
Ni0 O5 2.347407 1_555
Ni1 O7 1.825982 1_555
Ni1 O13 1.826475 1_555
Ni1 O1 2.347407 1_555
