# generated using pymatgen
data_ZrMoWO8
_symmetry_space_group_name_H-M   'P 1'
_cell_length_a   5.96163174
_cell_length_b   5.96161458
_cell_length_c   6.47292900
_cell_angle_alpha   90.00003756
_cell_angle_beta   90.00029476
_cell_angle_gamma   119.99995743
_symmetry_Int_Tables_number   1
_chemical_formula_structural   ZrMoWO8
_chemical_formula_sum   'Zr1 Mo1 W1 O8'
_cell_volume   199.23273768
_cell_formula_units_Z   1
loop_
 _symmetry_equiv_pos_site_id
 _symmetry_equiv_pos_as_xyz
  1  'x, y, z'
loop_
 _atom_site_type_symbol
 _atom_site_label
 _atom_site_symmetry_multiplicity
 _atom_site_fract_x
 _atom_site_fract_y
 _atom_site_fract_z
 _atom_site_occupancy
  Zr  Zr0  1  0.00000000  0.00000000  0.00224600  1
  Mo  Mo0  1  0.33333700  0.66666800  0.28159200  1
  W  W0  1  0.66666200  0.33333100  0.71817100  1
  O  O0  1  0.33333900  0.66667000  0.54872100  1
  O  O1  1  0.66666100  0.33333000  0.44709900  1
  O  O2  1  0.66472800  0.83236400  0.18648400  1
  O  O3  1  0.16763900  0.83236300  0.18648500  1
  O  O4  1  0.16763900  0.33527600  0.18648500  1
  O  O5  1  0.33239800  0.16619900  0.81424000  1
  O  O6  1  0.83379800  0.16619900  0.81423900  1
  O  O7  1  0.83379800  0.66759900  0.81424000  1
loop_
_geom_bond_atom_site_label_1
_geom_bond_atom_site_label_2
_geom_bond_distance
_geom_bond_site_symmetry_2
Mo0 O0 1.729107 1_555
Mo0 O4 1.818330 1_555
Mo0 O3 1.818337 1_555
Mo0 O2 1.818338 1_555
O1 W0 1.754630 1_555
O2 Zr0 2.102031 1_665
O3 Zr0 2.102040 1_565
O4 Zr0 2.102037 1_555
O5 W0 1.834401 1_555
O5 Zr0 2.103842 1_556
O6 W0 1.834410 1_555
O6 Zr0 2.103847 1_656
O7 W0 1.834410 1_555
O7 Zr0 2.103841 1_666
