# generated using pymatgen
data_V2Co9Mo
_symmetry_space_group_name_H-M   'P 1'
_cell_length_a   6.75760024
_cell_length_b   6.75760024
_cell_length_c   6.75760065
_cell_angle_alpha   43.73973903
_cell_angle_beta   43.73973903
_cell_angle_gamma   43.73974334
_symmetry_Int_Tables_number   1
_chemical_formula_structural   V2Co9Mo
_chemical_formula_sum   'V2 Co9 Mo1'
_cell_volume   133.90503150
_cell_formula_units_Z   1
loop_
 _symmetry_equiv_pos_site_id
 _symmetry_equiv_pos_as_xyz
  1  'x, y, z'
loop_
 _atom_site_type_symbol
 _atom_site_label
 _atom_site_symmetry_multiplicity
 _atom_site_fract_x
 _atom_site_fract_y
 _atom_site_fract_z
 _atom_site_occupancy
  V  V0  1  0.21853200  0.21853200  0.21853200  1
  V  V1  1  0.00042300  0.00042300  0.00042300  1
  Co  Co0  1  0.71831200  0.23383900  0.71831200  1
  Co  Co1  1  0.71831200  0.71831200  0.23383900  1
  Co  Co2  1  0.23383900  0.71831200  0.71831200  1
  Co  Co3  1  0.28193900  0.76862400  0.28193900  1
  Co  Co4  1  0.28193900  0.28193900  0.76862400  1
  Co  Co5  1  0.76862400  0.28193900  0.28193900  1
  Co  Co6  1  0.49755200  0.49755200  0.00233000  1
  Co  Co7  1  0.00233000  0.49755200  0.49755200  1
  Co  Co8  1  0.49755200  0.00233000  0.49755200  1
  Mo  Mo0  1  0.78064500  0.78064500  0.78064500  1
loop_
_geom_bond_atom_site_label_1
_geom_bond_atom_site_label_2
_geom_bond_distance
_geom_bond_site_symmetry_2
Co0 Co1 2.439036 1_555
Co0 Co2 2.439036 1_555
Co0 Co7 2.459349 1_655
Co0 Co6 2.459350 1_556
Co0 Co4 2.498573 1_555
Co0 Co5 2.498573 1_555
Co0 Mo0 2.502429 1_545
Co0 V1 2.513573 1_656
Co0 V0 2.519243 1_556
Co0 V0 2.519243 1_655
Co0 Co1 2.595374 1_546
Co0 Co2 2.595374 1_645
Co1 Co2 2.439036 1_555
Co1 Co7 2.459350 1_655
Co1 Co8 2.459350 1_565
Co1 Co5 2.498573 1_555
Co1 Co3 2.498573 1_555
Co1 Mo0 2.502429 1_554
Co1 V1 2.513572 1_665
Co1 V0 2.519243 1_655
Co1 V0 2.519243 1_565
Co1 Co2 2.595374 1_654
Co2 Co8 2.459349 1_565
Co2 Co6 2.459350 1_556
Co2 Co4 2.498573 1_555
Co2 Co3 2.498573 1_555
Co2 Mo0 2.502429 1_455
Co2 V1 2.513573 1_566
Co2 V0 2.519243 1_556
Co2 V0 2.519243 1_565
Co3 Co4 2.450172 1_555
Co3 Co5 2.450172 1_555
Co3 V0 2.472072 1_565
Co3 Co7 2.493025 1_555
Co3 Co6 2.493025 1_555
Co3 V1 2.511840 1_565
Co3 Mo0 2.518160 1_554
Co3 Mo0 2.518160 1_455
Co3 Co4 2.584238 1_564
Co3 Co5 2.584238 1_465
Co4 Co5 2.450172 1_555
Co4 V0 2.472072 1_556
Co4 Co7 2.493025 1_555
Co4 Co8 2.493025 1_555
Co4 V1 2.511840 1_556
Co4 Mo0 2.518160 1_455
Co4 Mo0 2.518160 1_545
Co4 Co5 2.584238 1_456
Co5 V0 2.472072 1_655
Co5 Co8 2.493025 1_555
Co5 Co6 2.493025 1_555
Co5 V1 2.511840 1_655
Co5 Mo0 2.518160 1_554
Co5 Mo0 2.518160 1_545
Co6 Co8 2.493150 1_555
Co6 Co7 2.493150 1_555
Co6 V1 2.517352 1_565
Co6 V1 2.517352 1_655
Co6 V0 2.533935 1_555
Co6 Co8 2.541259 1_564
Co6 Co7 2.541259 1_654
Co6 Mo0 2.563120 1_554
Co7 Co8 2.493151 1_555
Co7 V1 2.517352 1_565
Co7 V1 2.517352 1_556
Co7 V0 2.533935 1_555
Co7 Co8 2.541259 1_465
Co7 Mo0 2.563120 1_455
Co8 V1 2.517352 1_655
Co8 V1 2.517352 1_556
Co8 V0 2.533935 1_555
Co8 Mo0 2.563120 1_545
