# generated using pymatgen
data_Fe2NiP
_symmetry_space_group_name_H-M   'P 1'
_cell_length_a   6.74702632
_cell_length_b   6.74702632
_cell_length_c   6.74702632
_cell_angle_alpha   96.16968961
_cell_angle_beta   96.16968961
_cell_angle_gamma   141.72559542
_symmetry_Int_Tables_number   1
_chemical_formula_structural   Fe2NiP
_chemical_formula_sum   'Fe8 Ni4 P4'
_cell_volume   179.73758383
_cell_formula_units_Z   4
loop_
 _symmetry_equiv_pos_site_id
 _symmetry_equiv_pos_as_xyz
  1  'x, y, z'
loop_
 _atom_site_type_symbol
 _atom_site_label
 _atom_site_symmetry_multiplicity
 _atom_site_fract_x
 _atom_site_fract_y
 _atom_site_fract_z
 _atom_site_occupancy
  Fe  Fe0  1  0.69277100  0.66379900  0.81433400  1
  Fe  Fe1  1  0.84946400  0.87843700  0.18566600  1
  Fe  Fe2  1  0.33620100  0.15053600  0.02897300  1
  Fe  Fe3  1  0.12156300  0.30722900  0.97102700  1
  Fe  Fe4  1  0.07805400  0.02980800  0.61190900  1
  Fe  Fe5  1  0.41789900  0.46614400  0.38809100  1
  Fe  Fe6  1  0.97019200  0.58210100  0.04824500  1
  Fe  Fe7  1  0.53385600  0.92194600  0.95175500  1
  Ni  Ni0  1  0.65730700  0.98841900  0.60358100  1
  Ni  Ni1  1  0.38483800  0.05372600  0.39641900  1
  Ni  Ni2  1  0.01158100  0.61516200  0.66888800  1
  Ni  Ni3  1  0.94627400  0.34269300  0.33111200  1
  P  P0  1  0.22725300  0.47099400  0.66348400  1
  P  P1  1  0.80751000  0.56376900  0.33651600  1
  P  P2  1  0.52900600  0.19249000  0.75625900  1
  P  P3  1  0.43623100  0.77274700  0.24374100  1
loop_
_geom_bond_atom_site_label_1
_geom_bond_atom_site_label_2
_geom_bond_distance
_geom_bond_site_symmetry_2
Fe0 P0 2.281721 1_555
Fe0 P2 2.368285 1_555
Fe1 P1 2.281725 1_555
Fe1 P3 2.368279 1_555
Fe2 P2 2.281729 1_554
Fe2 P1 2.368281 1_555
Fe3 P3 2.281725 1_556
Fe3 P0 2.368279 1_555
Fe4 P0 2.234366 1_555
Fe4 P2 2.302256 1_555
Fe4 P1 2.382192 1_445
Fe5 P1 2.234362 1_555
Fe5 P3 2.302262 1_555
Fe5 P0 2.382194 1_555
Fe6 P2 2.234362 1_554
Fe6 P1 2.302262 1_555
Fe6 P3 2.382194 1_655
Fe7 P3 2.234360 1_556
Fe7 P0 2.302259 1_555
Fe7 P2 2.382200 1_565
Ni0 P0 2.297048 1_665
Ni0 P3 2.300235 1_555
Ni0 P0 2.328281 1_555
Ni0 P2 2.337622 1_565
Ni1 P1 2.297048 1_555
Ni1 P2 2.300235 1_555
Ni1 P1 2.328281 1_445
Ni1 P3 2.337622 1_545
Ni2 P2 2.297048 1_455
Ni2 P0 2.300235 1_555
Ni2 P2 2.328281 1_565
Ni2 P1 2.337622 1_455
Ni3 P3 2.297048 1_545
Ni3 P1 2.300235 1_555
Ni3 P3 2.328281 1_655
Ni3 P0 2.337622 1_655
