# generated using pymatgen
data_BaCaTbBiO6
_symmetry_space_group_name_H-M   'P 1'
_cell_length_a   8.57051858
_cell_length_b   8.55248786
_cell_length_c   8.54771605
_cell_angle_alpha   90.00000000
_cell_angle_beta   90.00000000
_cell_angle_gamma   90.00000000
_symmetry_Int_Tables_number   1
_chemical_formula_structural   BaCaTbBiO6
_chemical_formula_sum   'Ba4 Ca4 Tb4 Bi4 O24'
_cell_volume   626.54122790
_cell_formula_units_Z   4
loop_
 _symmetry_equiv_pos_site_id
 _symmetry_equiv_pos_as_xyz
  1  'x, y, z'
loop_
 _atom_site_type_symbol
 _atom_site_label
 _atom_site_symmetry_multiplicity
 _atom_site_fract_x
 _atom_site_fract_y
 _atom_site_fract_z
 _atom_site_occupancy
  Ba  Ba0  1  0.00000000  -0.00000000  0.00000000  1
  Ba  Ba1  1  0.50000000  0.50000000  0.50000000  1
  Ba  Ba2  1  0.50000000  -0.00000000  0.00000000  1
  Ba  Ba3  1  -0.00000000  0.50000000  0.00000000  1
  Ca  Ca0  1  0.00000000  0.50000000  0.50000000  1
  Ca  Ca1  1  0.50000000  -0.00000000  0.50000000  1
  Ca  Ca2  1  0.50000000  0.50000000  0.00000000  1
  Ca  Ca3  1  -0.00000000  -0.00000000  0.50000000  1
  Tb  Tb0  1  0.25091956  0.25087329  0.25519312  1
  Tb  Tb1  1  0.74908044  0.74912671  0.25519312  1
  Tb  Tb2  1  0.74908044  0.25087329  0.74480688  1
  Tb  Tb3  1  0.25091956  0.74912671  0.74480688  1
  Bi  Bi0  1  0.74892245  0.74949419  0.74369232  1
  Bi  Bi1  1  0.25107755  0.25050581  0.74369232  1
  Bi  Bi2  1  0.25107755  0.74949419  0.25630768  1
  Bi  Bi3  1  0.74892245  0.25050581  0.25630768  1
  O  O0  1  0.99237360  0.20399713  0.30044273  1
  O  O1  1  0.00762640  0.79600287  0.30044273  1
  O  O2  1  0.00762640  0.20399713  0.69955727  1
  O  O3  1  0.99237360  0.79600287  0.69955727  1
  O  O4  1  0.28248283  0.99456279  0.22214398  1
  O  O5  1  0.28248283  0.00543721  0.77785602  1
  O  O6  1  0.71751717  0.00543721  0.22214398  1
  O  O7  1  0.71751717  0.99456279  0.77785602  1
  O  O8  1  0.21574575  0.27509587  0.99201887  1
  O  O9  1  0.78425425  0.27509587  0.00798113  1
  O  O10  1  0.21574575  0.72490413  0.00798113  1
  O  O11  1  0.78425425  0.72490413  0.99201887  1
  O  O12  1  0.50785319  0.30674512  0.20710179  1
  O  O13  1  0.49214681  0.69325488  0.20710179  1
  O  O14  1  0.49214681  0.30674512  0.79289821  1
  O  O15  1  0.50785319  0.69325488  0.79289821  1
  O  O16  1  0.20064985  0.50808152  0.30370907  1
  O  O17  1  0.20064985  0.49191848  0.69629093  1
  O  O18  1  0.79935015  0.49191848  0.30370907  1
  O  O19  1  0.79935015  0.50808152  0.69629093  1
  O  O20  1  0.31122976  0.20698596  0.50576078  1
  O  O21  1  0.68877024  0.20698596  0.49423922  1
  O  O22  1  0.31122976  0.79301404  0.49423922  1
  O  O23  1  0.68877024  0.79301404  0.50576078  1
loop_
_geom_bond_atom_site_label_1
_geom_bond_atom_site_label_2
_geom_bond_distance
_geom_bond_site_symmetry_2
Ba0 O8 2.993176 1_554
Ba0 O9 2.993176 1_455
Ba0 O11 2.993176 1_444
Ba0 O10 2.993176 1_545
Ba0 O6 3.077183 1_455
Ba0 O5 3.077183 1_554
Ba0 O7 3.077183 1_444
Ba0 O4 3.077183 1_545
Ba0 O1 3.105370 1_545
Ba0 O0 3.105370 1_455
Ba0 O3 3.105370 1_444
Ba0 O2 3.105370 1_554
Ba1 O22 2.983274 1_555
Ba1 O20 2.983274 1_555
Ba1 O23 2.983274 1_555
Ba1 O21 2.983274 1_555
Ba1 O12 3.000730 1_555
Ba1 O13 3.000730 1_555
Ba1 O15 3.000730 1_555
Ba1 O14 3.000730 1_555
Ba1 O17 3.066293 1_555
Ba1 O18 3.066293 1_555
Ba1 O16 3.066293 1_555
Ba1 O19 3.066293 1_555
Ba2 O5 2.661403 1_554
Ba2 O4 2.661403 1_545
Ba2 O7 2.661403 1_544
Ba2 O6 2.661403 1_555
Ba2 O15 3.165551 1_544
Ba2 O14 3.165551 1_554
Ba2 O13 3.165551 1_545
Ba2 O12 3.165551 1_555
Ba3 O11 2.668982 1_454
Ba3 O8 2.668982 1_554
Ba3 O9 2.668982 1_455
Ba3 O10 2.668982 1_555
Ba3 O17 3.114702 1_554
Ba3 O16 3.114702 1_555
Ba3 O19 3.114702 1_454
Ba3 O18 3.114702 1_455
Ca0 O17 2.403580 1_555
Ca0 O16 2.403580 1_555
Ca0 O19 2.403580 1_455
Ca0 O18 2.403580 1_455
Ca1 O20 2.398679 1_555
Ca1 O22 2.398679 1_545
Ca1 O21 2.398679 1_555
Ca1 O23 2.398679 1_545
Ca1 O5 3.019656 1_555
Ca1 O4 3.019656 1_545
Ca1 O7 3.019656 1_545
Ca1 O6 3.019656 1_555
Ca2 O15 2.422826 1_554
Ca2 O14 2.422826 1_554
Ca2 O12 2.422826 1_555
Ca2 O13 2.422826 1_555
Ca3 O3 2.440861 1_445
Ca3 O2 2.440861 1_555
Ca3 O1 2.440861 1_545
Ca3 O0 2.440861 1_455
Bi0 O23 2.130854 1_555
Bi0 O7 2.133240 1_555
Bi0 O19 2.147988 1_555
Bi0 O11 2.154405 1_555
Bi0 O3 2.157320 1_555
Bi0 O15 2.162631 1_555
Bi1 O20 2.130854 1_555
Bi1 O5 2.133240 1_555
Bi1 O17 2.147988 1_555
Bi1 O8 2.154405 1_555
Bi1 O2 2.157320 1_555
Bi1 O14 2.162631 1_555
Bi2 O22 2.130854 1_555
Bi2 O4 2.133240 1_555
Bi2 O16 2.147988 1_555
Bi2 O10 2.154405 1_555
Bi2 O1 2.157320 1_555
Bi2 O13 2.162631 1_555
Bi3 O21 2.130854 1_555
Bi3 O6 2.133240 1_555
Bi3 O18 2.147988 1_555
Bi3 O9 2.154405 1_555
Bi3 O0 2.157320 1_555
Bi3 O12 2.162631 1_555
O0 Tb0 2.284824 1_655
O1 Tb1 2.284824 1_455
O2 Tb2 2.284824 1_455
O3 Tb3 2.284824 1_655
O4 Tb0 2.226713 1_565
O5 Tb3 2.226713 1_545
O6 Tb1 2.226713 1_545
O7 Tb2 2.226713 1_565
O8 Tb0 2.279083 1_556
O9 Tb2 2.279083 1_554
O10 Tb3 2.279083 1_554
O11 Tb1 2.279083 1_556
O12 Tb0 2.290493 1_555
O13 Tb1 2.290493 1_555
O14 Tb2 2.290493 1_555
O15 Tb3 2.290493 1_555
O16 Tb0 2.279602 1_555
O17 Tb3 2.279602 1_555
O18 Tb1 2.279602 1_555
O19 Tb2 2.279602 1_555
O20 Tb0 2.235014 1_555
O21 Tb2 2.235014 1_555
O22 Tb3 2.235014 1_555
O23 Tb1 2.235014 1_555
