# generated using pymatgen
data_KYF4
_symmetry_space_group_name_H-M   'P 1'
_cell_length_a   14.29334399
_cell_length_b   14.29334399
_cell_length_c   10.31579100
_cell_angle_alpha   90.00000000
_cell_angle_beta   90.00000000
_cell_angle_gamma   119.99999996
_symmetry_Int_Tables_number   1
_chemical_formula_structural   KYF4
_chemical_formula_sum   'K18 Y18 F72'
_cell_volume   1825.15964663
_cell_formula_units_Z   18
loop_
 _symmetry_equiv_pos_site_id
 _symmetry_equiv_pos_as_xyz
  1  'x, y, z'
loop_
 _atom_site_type_symbol
 _atom_site_label
 _atom_site_symmetry_multiplicity
 _atom_site_fract_x
 _atom_site_fract_y
 _atom_site_fract_z
 _atom_site_occupancy
  K  K0  1  0.95256600  0.73325700  0.31389600  1
  K  K1  1  0.78069100  0.04743400  0.64722900  1
  K  K2  1  0.26674300  0.21930900  0.98056300  1
  K  K3  1  0.93854800  0.21932100  0.34228100  1
  K  K4  1  0.28077300  0.06145200  0.67561400  1
  K  K5  1  0.78067900  0.71922700  0.00894800  1
  K  K6  1  0.26729400  0.38924000  0.31747700  1
  K  K7  1  0.12194600  0.73270600  0.65081000  1
  K  K8  1  0.61076000  0.87805400  0.98414400  1
  K  K9  1  0.29049200  0.89537000  0.34616400  1
  K  K10  1  0.60487800  0.70950800  0.67949700  1
  K  K11  1  0.10463000  0.39512200  0.01283000  1
  K  K12  1  0.60812700  0.54384400  0.34714300  1
  K  K13  1  0.93571700  0.39187300  0.68047600  1
  K  K14  1  0.45615600  0.06428300  0.01380900  1
  K  K15  1  0.61512800  0.05254500  0.31762900  1
  K  K16  1  0.43741700  0.38487200  0.65096200  1
  K  K17  1  0.94745500  0.56258300  0.98429600  1
  Y  Y0  1  0.75993000  0.86987900  0.33322000  1
  Y  Y1  1  0.10994900  0.24007000  0.66655300  1
  Y  Y2  1  0.13012100  0.89005100  0.99988700  1
  Y  Y3  1  0.44955800  0.71854400  0.34148300  1
  Y  Y4  1  0.26898600  0.55044200  0.67481700  1
  Y  Y5  1  0.28145600  0.73101400  0.00815000  1
  Y  Y6  1  0.42664000  0.21951400  0.32355300  1
  Y  Y7  1  0.79287400  0.57336000  0.65688600  1
  Y  Y8  1  0.78048600  0.20712600  0.99021900  1
  Y  Y9  1  0.11640900  0.05784200  0.33740200  1
  Y  Y10  1  0.94143300  0.88359100  0.67073600  1
  Y  Y11  1  0.94215800  0.05856700  0.00406900  1
  Y  Y12  1  0.09225600  0.54776800  0.33834900  1
  Y  Y13  1  0.45551100  0.90774400  0.67168200  1
  Y  Y14  1  0.45223200  0.54448900  0.00501500  1
  Y  Y15  1  0.78221900  0.39619300  0.31843600  1
  Y  Y16  1  0.61397400  0.21778100  0.65176900  1
  Y  Y17  1  0.60380700  0.38602600  0.98510200  1
  F  F0  1  0.80452500  0.86848900  0.54936400  1
  F  F1  1  0.06396300  0.19547500  0.88269800  1
  F  F2  1  0.13151100  0.93603700  0.21603100  1
  F  F3  1  0.80945100  0.93081400  0.12382100  1
  F  F4  1  0.12136400  0.19054900  0.45715500  1
  F  F5  1  0.06918600  0.87863600  0.79048800  1
  F  F6  1  0.38661600  0.79053600  0.19108900  1
  F  F7  1  0.40392000  0.61338400  0.52442200  1
  F  F8  1  0.20946400  0.59608000  0.85775600  1
  F  F9  1  0.38894100  0.66017700  0.00707400  1
  F  F10  1  0.27123600  0.61105900  0.34040800  1
  F  F11  1  0.33982300  0.72876400  0.67374100  1
  F  F12  1  0.46703800  0.26277900  0.10714900  1
  F  F13  1  0.79574100  0.53296200  0.44048200  1
  F  F14  1  0.73722100  0.20425900  0.77381500  1
  F  F15  1  0.48048900  0.21023700  0.53206700  1
  F  F16  1  0.72974700  0.51951100  0.86540100  1
  F  F17  1  0.78976300  0.27025300  0.19873400  1
  F  F18  1  0.06034800  0.00008700  0.00053600  1
  F  F19  1  0.93973900  0.93965200  0.33387000  1
  F  F20  1  0.99991300  0.06026100  0.66720300  1
  F  F21  1  0.87790000  0.92400800  0.85372800  1
  F  F22  1  0.04610800  0.12210000  0.18706100  1
  F  F23  1  0.07599200  0.95389200  0.52039400  1
  F  F24  1  0.14630900  0.60865600  0.12913400  1
  F  F25  1  0.46234600  0.85369100  0.46246700  1
  F  F26  1  0.39134400  0.53765400  0.79580100  1
  F  F27  1  0.13445700  0.54245300  0.55392200  1
  F  F28  1  0.40799600  0.86554300  0.88725500  1
  F  F29  1  0.45754700  0.59200400  0.22058800  1
  F  F30  1  0.74251300  0.45234600  0.12975700  1
  F  F31  1  0.70983300  0.25748700  0.46309000  1
  F  F32  1  0.54765400  0.29016700  0.79642400  1
  F  F33  1  0.66083000  0.26613300  0.98665000  1
  F  F34  1  0.60530300  0.33917000  0.31998300  1
  F  F35  1  0.73386700  0.39469700  0.65331600  1
  F  F36  1  0.96219200  0.23336700  0.59757200  1
  F  F37  1  0.27117500  0.03780800  0.93090500  1
  F  F38  1  0.76663300  0.72882500  0.26423800  1
  F  F39  1  0.91467500  0.19111700  0.08925000  1
  F  F40  1  0.27644100  0.08532500  0.42258400  1
  F  F41  1  0.80888300  0.72355900  0.75591700  1
  F  F42  1  0.97512500  0.75233100  0.05666600  1
  F  F43  1  0.77720600  0.02487500  0.39000000  1
  F  F44  1  0.24766900  0.22279400  0.72333300  1
  F  F45  1  0.26636700  0.19084300  0.23254600  1
  F  F46  1  0.92447600  0.73363300  0.56587900  1
  F  F47  1  0.80915700  0.07552400  0.89921300  1
  F  F48  1  0.26179900  0.86821400  0.09553900  1
  F  F49  1  0.60641500  0.73820100  0.42887200  1
  F  F50  1  0.13178600  0.39358500  0.76220500  1
  F  F51  1  0.31032400  0.90622700  0.60132400  1
  F  F52  1  0.59590200  0.68967600  0.93465700  1
  F  F53  1  0.09377300  0.40409800  0.26799000  1
  F  F54  1  0.60318800  0.84794100  0.23911300  1
  F  F55  1  0.24475300  0.39681200  0.57244600  1
  F  F56  1  0.15205900  0.75524700  0.90577900  1
  F  F57  1  0.29468500  0.41059500  0.06037900  1
  F  F58  1  0.11591000  0.70531500  0.39371300  1
  F  F59  1  0.58940500  0.88409000  0.72704600  1
  F  F60  1  0.63805400  0.06292800  0.06331800  1
  F  F61  1  0.42487400  0.36194600  0.39665100  1
  F  F62  1  0.93707200  0.57512600  0.72998400  1
  F  F63  1  0.46726600  0.40988600  0.90394200  1
  F  F64  1  0.94261900  0.53273400  0.23727600  1
  F  F65  1  0.59011400  0.05738100  0.57060900  1
  F  F66  1  0.58372800  0.51529800  0.09386900  1
  F  F67  1  0.93157000  0.41627200  0.42720300  1
  F  F68  1  0.48470200  0.06843000  0.76053600  1
  F  F69  1  0.63365000  0.54802700  0.60440600  1
  F  F70  1  0.91437700  0.36635000  0.93773900  1
  F  F71  1  0.45197300  0.08562300  0.27107300  1
loop_
_geom_bond_atom_site_label_1
_geom_bond_atom_site_label_2
_geom_bond_distance
_geom_bond_site_symmetry_2
F0 Y10 2.240796 1_555
F0 Y0 2.321831 1_555
F0 K1 2.923787 1_565
F0 K10 2.936741 1_555
F1 Y11 2.240785 1_456
F1 Y1 2.321843 1_555
F1 K2 2.923801 1_555
F1 K11 2.936732 1_556
F2 Y9 2.240778 1_565
F2 Y2 2.321835 1_554
F2 K0 2.923795 1_455
F2 K9 2.936749 1_555
F3 Y11 2.234885 1_565
F3 Y0 2.304171 1_555
F3 K8 2.927205 1_554
F3 K5 3.078301 1_555
F4 Y9 2.234885 1_555
F4 Y1 2.304165 1_555
F4 K6 2.927207 1_555
F4 K3 3.078318 1_455
F5 Y10 2.234891 1_455
F5 Y2 2.304170 1_555
F5 K7 2.927198 1_555
F5 K4 3.078310 1_565
F6 Y3 2.280552 1_555
F6 Y5 2.294706 1_555
F6 K9 2.958180 1_555
F7 Y4 2.280559 1_555
F7 Y3 2.294706 1_555
F7 K10 2.958180 1_555
F8 Y5 2.280552 1_556
F8 Y4 2.294706 1_555
F8 K11 2.958175 1_556
F9 Y5 2.222853 1_555
F9 Y14 2.246997 1_555
F9 K8 3.151631 1_554
F10 Y3 2.222853 1_555
F10 Y12 2.247011 1_555
F10 K6 3.151632 1_555
F11 Y4 2.222853 1_555
F11 Y13 2.247008 1_555
F11 K7 3.151632 1_555
F12 Y17 2.250826 1_554
F12 Y6 2.311335 1_555
F12 K2 2.916945 1_554
F12 K14 2.925675 1_555
F13 Y15 2.250820 1_555
F13 Y7 2.311335 1_555
F13 K0 2.916945 1_555
F13 K12 2.925671 1_555
F14 Y16 2.250820 1_555
F14 Y8 2.311335 1_555
F14 K1 2.916945 1_555
F14 K13 2.925671 1_555
F15 Y16 2.229560 1_555
F15 Y6 2.310584 1_555
F15 K4 2.965372 1_555
F15 K16 3.106547 1_555
F16 Y17 2.229549 1_555
F16 Y7 2.310597 1_555
F16 K5 2.965369 1_556
F16 K17 3.106559 1_555
F17 Y15 2.229548 1_555
F17 Y8 2.310599 1_554
F17 K3 2.965381 1_555
F17 K15 3.106555 1_555
F18 Y11 2.228435 1_455
F18 Y2 2.244281 1_544
F18 K2 3.052847 1_554
F19 Y9 2.228434 1_665
F19 Y0 2.244281 1_555
F19 K0 3.052848 1_555
F20 Y10 2.228435 1_545
F20 Y1 2.244281 1_655
F20 K1 3.052848 1_555
F21 Y11 2.276273 1_566
F21 Y10 2.290506 1_555
F21 K5 2.999146 1_556
F22 Y9 2.276273 1_555
F22 Y11 2.290506 1_455
F22 K3 2.999146 1_455
F23 Y10 2.276280 1_455
F23 Y9 2.290506 1_565
F23 K4 2.999146 1_565
F24 Y5 2.229214 1_555
F24 Y12 2.310809 1_555
F24 K17 2.978744 1_454
F24 K11 3.048196 1_555
F25 Y3 2.229219 1_555
F25 Y13 2.310809 1_555
F25 K15 2.978747 1_565
F25 K9 3.048179 1_555
F26 Y4 2.229208 1_555
F26 Y14 2.310799 1_556
F26 K16 2.978761 1_555
F26 K10 3.048192 1_555
F27 Y4 2.246380 1_555
F27 Y12 2.315330 1_555
F27 K13 2.879604 1_455
F27 K7 2.985312 1_555
F28 Y5 2.246380 1_556
F28 Y13 2.315327 1_555
F28 K14 2.879604 1_566
F28 K8 2.985316 1_555
F29 Y3 2.246380 1_555
F29 Y14 2.315326 1_555
F29 K12 2.879609 1_555
F29 K6 2.985316 1_555
F30 Y17 2.275209 1_554
F30 Y15 2.282577 1_555
F30 K17 2.949506 1_554
F31 Y15 2.275203 1_555
F31 Y16 2.282577 1_555
F31 K15 2.949506 1_555
F32 Y16 2.275209 1_555
F32 Y17 2.282568 1_555
F32 K16 2.949511 1_555
F33 Y17 2.235612 1_555
F33 Y8 2.253937 1_555
F33 K14 2.918980 1_556
F34 Y15 2.235611 1_555
F34 Y6 2.253937 1_555
F34 K12 2.918981 1_555
F35 Y16 2.235611 1_555
F35 Y7 2.253937 1_555
F35 K13 2.918981 1_555
F36 Y1 2.184834 1_655
F36 K13 2.620074 1_555
F36 K3 2.649932 1_555
F36 K1 2.675990 1_555
F37 Y2 2.184838 1_545
F37 K14 2.620074 1_556
F37 K4 2.649932 1_555
F37 K2 2.675992 1_555
F38 Y0 2.184838 1_555
F38 K12 2.620078 1_555
F38 K5 2.649922 1_555
F38 K0 2.675992 1_555
F39 Y8 2.283339 1_554
F39 Y11 2.293496 1_555
F39 K3 2.637160 1_555
F39 K11 2.928954 1_655
F40 Y6 2.283346 1_555
F40 Y9 2.293487 1_555
F40 K4 2.637151 1_555
F40 K9 2.928962 1_545
F41 Y7 2.283351 1_555
F41 Y10 2.293487 1_555
F41 K5 2.637159 1_556
F41 K10 2.928948 1_555
F42 Y2 2.182896 1_654
F42 K5 2.622127 1_555
F42 K17 2.645144 1_554
F42 K0 2.670509 1_555
F43 Y0 2.182899 1_545
F43 K3 2.622129 1_555
F43 K15 2.645147 1_555
F43 K1 2.670498 1_555
F44 Y1 2.182899 1_555
F44 K4 2.622129 1_555
F44 K16 2.645147 1_555
F44 K2 2.670509 1_555
F45 Y9 2.302917 1_555
F45 Y6 2.314831 1_555
F45 K2 2.630644 1_554
F45 K6 2.961709 1_555
F46 Y10 2.302922 1_555
F46 Y7 2.314831 1_555
F46 K0 2.630644 1_555
F46 K7 2.961709 1_655
F47 Y11 2.302917 1_556
F47 Y8 2.314827 1_555
F47 K1 2.630655 1_555
F47 K8 2.961709 1_545
F48 Y2 2.280543 1_554
F48 Y5 2.299632 1_555
F48 K9 2.616092 1_555
F48 K14 2.914920 1_565
F49 Y0 2.280543 1_555
F49 Y3 2.299632 1_555
F49 K10 2.616092 1_555
F49 K12 2.914917 1_555
F50 Y1 2.280543 1_555
F50 Y4 2.299628 1_555
F50 K11 2.616092 1_556
F50 K13 2.914917 1_455
F51 Y13 2.188320 1_555
F51 K4 2.573987 1_565
F51 K7 2.642678 1_555
F51 K9 2.643634 1_555
F52 Y14 2.188320 1_556
F52 K5 2.574003 1_556
F52 K8 2.642674 1_555
F52 K10 2.643634 1_555
F53 Y12 2.188323 1_555
F53 K3 2.573999 1_455
F53 K6 2.642688 1_555
F53 K11 2.643635 1_555
F54 Y3 2.301411 1_555
F54 Y0 2.314626 1_555
F54 K8 2.658642 1_554
F54 K15 2.956114 1_565
F55 Y4 2.301416 1_555
F55 Y1 2.314626 1_555
F55 K6 2.658642 1_555
F55 K16 2.956114 1_555
F56 Y5 2.301416 1_556
F56 Y2 2.314630 1_555
F56 K7 2.658642 1_555
F56 K17 2.956117 1_455
F57 Y14 2.179472 1_555
F57 K11 2.658610 1_555
F57 K6 2.675995 1_555
F57 K2 2.687167 1_554
F58 Y12 2.179467 1_555
F58 K9 2.658610 1_555
F58 K7 2.675984 1_555
F58 K0 2.687170 1_455
F59 Y13 2.179481 1_555
F59 K10 2.658610 1_555
F59 K8 2.675995 1_555
F59 K1 2.687170 1_565
F60 Y8 2.182946 1_554
F60 K8 2.602117 1_544
F60 K15 2.638769 1_555
F60 K14 2.659174 1_555
F61 Y6 2.182943 1_555
F61 K6 2.602117 1_555
F61 K16 2.638769 1_555
F61 K12 2.659172 1_555
F62 Y7 2.182943 1_555
F62 K7 2.602117 1_655
F62 K17 2.638779 1_555
F62 K13 2.659172 1_555
F63 Y14 2.290897 1_556
F63 Y17 2.300368 1_555
F63 K16 2.639657 1_555
F63 K2 2.907280 1_555
F64 Y12 2.290897 1_655
F64 Y15 2.300360 1_555
F64 K17 2.639656 1_554
F64 K0 2.907271 1_555
F65 Y13 2.290897 1_545
F65 Y16 2.300355 1_555
F65 K15 2.639659 1_555
F65 K1 2.907285 1_555
F66 Y17 2.299062 1_554
F66 Y14 2.308903 1_555
F66 K12 2.640477 1_555
F66 K5 2.997143 1_555
F67 Y15 2.299062 1_555
F67 Y12 2.308894 1_655
F67 K13 2.640467 1_555
F67 K3 2.997146 1_555
F68 Y16 2.299062 1_555
F68 Y13 2.308890 1_545
F68 K14 2.640467 1_556
F68 K4 2.997146 1_555
F69 Y7 2.186228 1_555
F69 K16 2.644830 1_555
F69 K10 2.654376 1_555
F69 K12 2.675422 1_555
F70 Y8 2.186228 1_555
F70 K17 2.644832 1_555
F70 K11 2.654376 1_656
F70 K13 2.675422 1_555
F71 Y6 2.186228 1_555
F71 K15 2.644830 1_555
F71 K9 2.654376 1_545
F71 K14 2.675432 1_555
