# generated using pymatgen
data_Fe3B
_symmetry_space_group_name_H-M   'P 1'
_cell_length_a   4.73302708
_cell_length_b   4.73302708
_cell_length_c   4.35655700
_cell_angle_alpha   90.00000000
_cell_angle_beta   90.00000000
_cell_angle_gamma   120.00001510
_symmetry_Int_Tables_number   1
_chemical_formula_structural   Fe3B
_chemical_formula_sum   'Fe6 B2'
_cell_volume   84.51853193
_cell_formula_units_Z   2
loop_
 _symmetry_equiv_pos_site_id
 _symmetry_equiv_pos_as_xyz
  1  'x, y, z'
loop_
 _atom_site_type_symbol
 _atom_site_label
 _atom_site_symmetry_multiplicity
 _atom_site_fract_x
 _atom_site_fract_y
 _atom_site_fract_z
 _atom_site_occupancy
  Fe  Fe0  1  0.30625900  0.30625900  0.00000000  1
  Fe  Fe1  1  0.69374100  0.00000000  0.00000000  1
  Fe  Fe2  1  0.00000000  0.69374100  0.00000000  1
  Fe  Fe3  1  0.69374100  0.69374100  0.50000000  1
  Fe  Fe4  1  0.30625900  0.00000000  0.50000000  1
  Fe  Fe5  1  0.00000000  0.30625900  0.50000000  1
  B  B0  1  0.33333300  0.66666700  0.25000000  1
  B  B1  1  0.66666700  0.33333300  0.75000000  1
loop_
_geom_bond_atom_site_label_1
_geom_bond_atom_site_label_2
_geom_bond_distance
_geom_bond_site_symmetry_2
B0 Fe2 1.973288 1_555
B0 Fe4 1.973288 1_565
B0 Fe1 1.973290 1_565
B0 Fe5 1.973290 1_555
B0 Fe0 1.973292 1_555
B0 Fe3 1.973292 1_555
B1 Fe5 1.973288 1_655
B1 Fe1 1.973288 1_556
B1 Fe4 1.973290 1_555
B1 Fe2 1.973290 1_656
B1 Fe3 1.973292 1_555
B1 Fe0 1.973292 1_556
