# generated using pymatgen
data_Li9Mn2Co5O16
_symmetry_space_group_name_H-M   'P 1'
_cell_length_a   5.81586511
_cell_length_b   5.81586511
_cell_length_c   9.75497347
_cell_angle_alpha   81.28321714
_cell_angle_beta   81.28321714
_cell_angle_gamma   60.21979653
_symmetry_Int_Tables_number   1
_chemical_formula_structural   Li9Mn2Co5O16
_chemical_formula_sum   'Li9 Mn2 Co5 O16'
_cell_volume   281.95125687
_cell_formula_units_Z   1
loop_
 _symmetry_equiv_pos_site_id
 _symmetry_equiv_pos_as_xyz
  1  'x, y, z'
loop_
 _atom_site_type_symbol
 _atom_site_label
 _atom_site_symmetry_multiplicity
 _atom_site_fract_x
 _atom_site_fract_y
 _atom_site_fract_z
 _atom_site_occupancy
  Li  Li0  1  0.13283800  0.62502100  0.24694800  1
  Li  Li1  1  0.86839600  0.37567400  0.75267500  1
  Li  Li2  1  0.62432600  0.13160400  0.24732500  1
  Li  Li3  1  0.12650000  0.12538500  0.24449700  1
  Li  Li4  1  0.87461500  0.87350000  0.75550300  1
  Li  Li5  1  0.62178900  0.62290400  0.24175400  1
  Li  Li6  1  0.37709600  0.37821100  0.75824600  1
  Li  Li7  1  0.37497900  0.86716200  0.75305200  1
  Li  Li8  1  0.50021700  0.49978300  0.00000000  1
  Mn  Mn0  1  0.00026900  0.99973100  0.00000000  1
  Mn  Mn1  1  0.75073700  0.24926300  0.50000000  1
  Co  Co0  1  0.74978500  0.75087100  0.49933700  1
  Co  Co1  1  0.24912900  0.25021500  0.50066300  1
  Co  Co2  1  0.00043100  0.49977300  0.99954500  1
  Co  Co3  1  0.50022700  0.99956900  0.00045500  1
  Co  Co4  1  0.24993400  0.75006600  0.50000000  1
  O  O0  1  0.30595000  0.83315500  0.10989200  1
  O  O1  1  0.05524900  0.55522800  0.61615300  1
  O  O2  1  0.83503900  0.30608100  0.10790200  1
  O  O3  1  0.30243300  0.30341600  0.10325800  1
  O  O4  1  0.04500800  0.07607500  0.61571000  1
  O  O5  1  0.82453100  0.82172000  0.11658100  1
  O  O6  1  0.57411100  0.54694400  0.61835300  1
  O  O7  1  0.57076200  0.07173200  0.61575900  1
  O  O8  1  0.92826800  0.42923800  0.38424100  1
  O  O9  1  0.69391900  0.16496100  0.89209800  1
  O  O10  1  0.44477200  0.94475100  0.38384700  1
  O  O11  1  0.92392500  0.95499200  0.38429000  1
  O  O12  1  0.69658400  0.69756700  0.89674200  1
  O  O13  1  0.45305600  0.42588900  0.38164700  1
  O  O14  1  0.17828000  0.17546900  0.88341900  1
  O  O15  1  0.16684500  0.69405000  0.89010800  1
loop_
_geom_bond_atom_site_label_1
_geom_bond_atom_site_label_2
_geom_bond_distance
_geom_bond_site_symmetry_2
Li0 O5 2.086550 1_455
Li0 O0 2.139738 1_555
Li0 O13 2.161973 1_555
Li0 O8 2.215001 1_455
Li0 O11 2.218958 1_455
Li0 O3 2.231380 1_555
Li1 O6 2.056467 1_555
Li1 O1 2.076561 1_655
Li1 O4 2.094770 1_655
Li1 O14 2.095844 1_655
Li1 O9 2.166341 1_555
Li1 O12 2.234242 1_555
Li2 O13 2.056467 1_555
Li2 O10 2.076561 1_545
Li2 O11 2.094770 1_545
Li2 O5 2.095844 1_545
Li2 O2 2.166341 1_555
Li2 O3 2.234242 1_555
Li3 O0 2.049631 1_545
Li3 O3 2.051824 1_555
Li3 O2 2.060073 1_455
Li3 O11 2.119643 1_445
Li3 O8 2.130813 1_455
Li3 O10 2.185396 1_545
Li4 O15 2.049631 1_655
Li4 O12 2.051824 1_555
Li4 O9 2.060073 1_565
Li4 O4 2.119643 1_665
Li4 O7 2.130813 1_565
Li4 O1 2.185396 1_655
Li5 O13 2.091713 1_555
Li5 O0 2.128890 1_555
Li5 O2 2.146301 1_555
Li5 O8 2.158668 1_555
Li5 O5 2.169861 1_555
Li5 O10 2.219133 1_555
Li6 O6 2.091713 1_555
Li6 O15 2.128890 1_555
Li6 O9 2.146301 1_555
Li6 O7 2.158668 1_555
Li6 O14 2.169861 1_555
Li6 O1 2.219133 1_555
Li7 O14 2.086550 1_565
Li7 O15 2.139738 1_555
Li7 O6 2.161973 1_555
Li7 O7 2.215001 1_565
Li7 O4 2.218958 1_565
Li7 O12 2.231380 1_555
Li8 O3 2.060851 1_555
Li8 O12 2.060851 1_554
Li8 O2 2.061957 1_555
Li8 O9 2.061957 1_554
Li8 O0 2.066805 1_555
Li8 O15 2.066805 1_554
Mn0 O5 1.936930 1_455
Mn0 O14 1.936930 1_564
Mn0 O2 1.940848 1_465
Mn0 O9 1.940848 1_464
Mn0 O0 1.949437 1_555
Mn0 O15 1.949437 1_554
Mn1 O4 1.935508 1_655
Mn1 O11 1.935508 1_545
Mn1 O7 1.949023 1_555
Mn1 O8 1.949023 1_555
Mn1 O13 1.966020 1_555
Mn1 O6 1.966020 1_555
Co0 O10 1.980208 1_555
Co0 O1 1.990463 1_655
Co0 O11 2.034823 1_555
Co0 O8 2.047356 1_555
Co0 O7 2.051847 1_565
Co0 O6 2.055528 1_555
Co1 O1 1.980208 1_555
Co1 O10 1.990463 1_545
Co1 O4 2.034823 1_555
Co1 O7 2.047356 1_555
Co1 O8 2.051847 1_455
Co1 O13 2.055528 1_555
Co2 O3 1.899637 1_556
Co2 O12 1.902612 1_455
Co2 O2 1.928415 1_456
Co2 O15 1.939212 1_555
Co2 O5 2.060839 1_456
Co2 O14 2.065205 1_555
Co3 O12 1.899637 1_554
Co3 O3 1.902612 1_565
Co3 O9 1.928415 1_564
Co3 O0 1.939212 1_555
Co3 O14 2.060839 1_564
Co3 O5 2.065205 1_555
Co4 O4 2.070182 1_565
Co4 O11 2.070182 1_455
Co4 O13 2.077749 1_555
Co4 O6 2.077749 1_555
Co4 O1 2.084794 1_555
Co4 O10 2.084794 1_555
