# generated using pymatgen
data_YB2Os
_symmetry_space_group_name_H-M   'P 1'
_cell_length_a   5.91465700
_cell_length_b   5.33289900
_cell_length_c   6.39118200
_cell_angle_alpha   90.00000000
_cell_angle_beta   90.00000000
_cell_angle_gamma   90.00000000
_symmetry_Int_Tables_number   1
_chemical_formula_structural   YB2Os
_chemical_formula_sum   'Y4 B8 Os4'
_cell_volume   201.59237804
_cell_formula_units_Z   4
loop_
 _symmetry_equiv_pos_site_id
 _symmetry_equiv_pos_as_xyz
  1  'x, y, z'
loop_
 _atom_site_type_symbol
 _atom_site_label
 _atom_site_symmetry_multiplicity
 _atom_site_fract_x
 _atom_site_fract_y
 _atom_site_fract_z
 _atom_site_occupancy
  Y  Y0  1  0.01080200  0.25000000  0.33544800  1
  Y  Y1  1  0.51080200  0.25000000  0.16455200  1
  Y  Y2  1  0.98919800  0.75000000  0.66455200  1
  Y  Y3  1  0.48919800  0.75000000  0.83544800  1
  B  B0  1  0.36385600  0.08209100  0.53986300  1
  B  B1  1  0.86385600  0.41790900  0.96013700  1
  B  B2  1  0.63614400  0.58209100  0.46013700  1
  B  B3  1  0.13614400  0.91790900  0.03986300  1
  B  B4  1  0.63614400  0.91790900  0.46013700  1
  B  B5  1  0.13614400  0.58209100  0.03986300  1
  B  B6  1  0.36385600  0.41790900  0.53986300  1
  B  B7  1  0.86385600  0.08209100  0.96013700  1
  Os  Os0  1  0.17585000  0.25000000  0.81818700  1
  Os  Os1  1  0.67585000  0.25000000  0.68181300  1
  Os  Os2  1  0.82415000  0.75000000  0.18181300  1
  Os  Os3  1  0.32415000  0.75000000  0.31818700  1
loop_
_geom_bond_atom_site_label_1
_geom_bond_atom_site_label_2
_geom_bond_distance
_geom_bond_site_symmetry_2
B0 B6 1.790883 1_555
B0 B4 1.902611 1_545
B0 Os1 2.242799 1_555
B0 Os3 2.280102 1_545
B0 Os0 2.280907 1_555
B0 Y0 2.620914 1_555
B0 Y3 2.693495 1_545
B0 Y1 2.703864 1_555
B0 Y2 2.946536 1_445
B1 B7 1.790883 1_555
B1 B5 1.902611 1_656
B1 Os0 2.242799 1_655
B1 Os2 2.280102 1_556
B1 Os1 2.280907 1_555
B1 Y1 2.620914 1_556
B1 Y2 2.693495 1_555
B1 Y0 2.703864 1_656
B1 Y3 2.946536 1_555
B2 B4 1.790883 1_555
B2 B6 1.902611 1_555
B2 Os3 2.242799 1_555
B2 Os1 2.280102 1_555
B2 Os2 2.280907 1_555
B2 Y2 2.620914 1_555
B2 Y1 2.693495 1_555
B2 Y3 2.703864 1_555
B2 Y0 2.946536 1_655
B3 B5 1.790883 1_555
B3 B7 1.902611 1_464
B3 Os2 2.242799 1_455
B3 Os0 2.280102 1_564
B3 Os3 2.280907 1_555
B3 Y3 2.620914 1_554
B3 Y0 2.693495 1_565
B3 Y2 2.703864 1_454
B3 Y1 2.946536 1_565
B4 Os3 2.242799 1_555
B4 Os1 2.280102 1_565
B4 Os2 2.280907 1_555
B4 Y2 2.620914 1_555
B4 Y1 2.693495 1_565
B4 Y3 2.703864 1_555
B4 Y0 2.946536 1_665
B5 Os2 2.242799 1_455
B5 Os0 2.280102 1_554
B5 Os3 2.280907 1_555
B5 Y3 2.620914 1_554
B5 Y0 2.693495 1_555
B5 Y2 2.703864 1_454
B5 Y1 2.946536 1_555
B6 Os1 2.242799 1_555
B6 Os3 2.280102 1_555
B6 Os0 2.280907 1_555
B6 Y0 2.620914 1_555
B6 Y3 2.693495 1_555
B6 Y1 2.703864 1_555
B6 Y2 2.946536 1_455
B7 Os0 2.242799 1_655
B7 Os2 2.280102 1_546
B7 Os1 2.280907 1_555
B7 Y1 2.620914 1_556
B7 Y2 2.693495 1_545
B7 Y0 2.703864 1_656
B7 Y3 2.946536 1_545
Os0 Y1 2.970732 1_556
Os1 Y0 2.970732 1_655
Os2 Y3 2.970732 1_554
Os3 Y2 2.970732 1_455
