# generated using pymatgen
data_Tm2TiCuO6
_symmetry_space_group_name_H-M   'P 1'
_cell_length_a   3.57323004
_cell_length_b   3.57323004
_cell_length_c   11.26497500
_cell_angle_alpha   90.00000000
_cell_angle_beta   90.00000000
_cell_angle_gamma   120.00000074
_symmetry_Int_Tables_number   1
_chemical_formula_structural   Tm2TiCuO6
_chemical_formula_sum   'Tm2 Ti1 Cu1 O6'
_cell_volume   124.56120863
_cell_formula_units_Z   1
loop_
 _symmetry_equiv_pos_site_id
 _symmetry_equiv_pos_as_xyz
  1  'x, y, z'
loop_
 _atom_site_type_symbol
 _atom_site_label
 _atom_site_symmetry_multiplicity
 _atom_site_fract_x
 _atom_site_fract_y
 _atom_site_fract_z
 _atom_site_occupancy
  Tm  Tm0  1  0.00000000  0.00000000  0.72585000  1
  Tm  Tm1  1  0.00000000  0.00000000  0.27415000  1
  Ti  Ti0  1  0.66666700  0.33333300  0.00000000  1
  Cu  Cu0  1  0.33333300  0.66666700  0.50000000  1
  O  O0  1  0.66666700  0.33333300  0.83297000  1
  O  O1  1  0.33333300  0.66666700  0.33184000  1
  O  O2  1  0.00000000  0.00000000  0.00000000  1
  O  O3  1  0.00000000  0.00000000  0.50000000  1
  O  O4  1  0.33333300  0.66666700  0.66816000  1
  O  O5  1  0.66666700  0.33333300  0.16703000  1
loop_
_geom_bond_atom_site_label_1
_geom_bond_atom_site_label_2
_geom_bond_distance
_geom_bond_site_symmetry_2
Cu0 O1 1.894318 1_555
Cu0 O4 1.894318 1_555
Cu0 O3 2.063003 1_565
Cu0 O3 2.063006 1_555
Cu0 O3 2.063006 1_665
O0 Ti0 1.881589 1_556
O0 Tm0 2.390004 1_655
O0 Tm0 2.390006 1_555
O0 Tm0 2.390006 1_665
O1 Tm1 2.162943 1_565
O1 Tm1 2.162946 1_555
O1 Tm1 2.162946 1_665
O2 Ti0 2.063003 1_455
O2 Ti0 2.063006 1_445
O2 Ti0 2.063006 1_555
O3 Tm1 2.544195 1_555
O3 Tm0 2.544195 1_555
O4 Tm0 2.162943 1_565
O4 Tm0 2.162946 1_665
O4 Tm0 2.162946 1_555
O5 Ti0 1.881589 1_555
O5 Tm1 2.390004 1_655
O5 Tm1 2.390006 1_555
O5 Tm1 2.390006 1_665
