# generated using pymatgen
data_Zr5NiSb9
_symmetry_space_group_name_H-M   'P 1'
_cell_length_a   8.89461000
_cell_length_b   8.89461000
_cell_length_c   8.85376900
_cell_angle_alpha   90.00000000
_cell_angle_beta   90.00000000
_cell_angle_gamma   90.00000000
_symmetry_Int_Tables_number   1
_chemical_formula_structural   Zr5NiSb9
_chemical_formula_sum   'Zr10 Ni2 Sb18'
_cell_volume   700.45785141
_cell_formula_units_Z   2
loop_
 _symmetry_equiv_pos_site_id
 _symmetry_equiv_pos_as_xyz
  1  'x, y, z'
loop_
 _atom_site_type_symbol
 _atom_site_label
 _atom_site_symmetry_multiplicity
 _atom_site_fract_x
 _atom_site_fract_y
 _atom_site_fract_z
 _atom_site_occupancy
  Zr  Zr0  1  0.50000000  0.00000000  0.25591500  1
  Zr  Zr1  1  0.00000000  0.50000000  0.74408500  1
  Zr  Zr2  1  0.29605800  0.60336300  0.26622300  1
  Zr  Zr3  1  0.70394200  0.39663700  0.26622300  1
  Zr  Zr4  1  0.79605800  0.10336300  0.73377700  1
  Zr  Zr5  1  0.20394200  0.89663700  0.73377700  1
  Zr  Zr6  1  0.39663700  0.29605800  0.73377700  1
  Zr  Zr7  1  0.60336300  0.70394200  0.73377700  1
  Zr  Zr8  1  0.89663700  0.79605800  0.26622300  1
  Zr  Zr9  1  0.10336300  0.20394200  0.26622300  1
  Ni  Ni0  1  0.50000000  0.50000000  0.00000000  1
  Ni  Ni1  1  0.00000000  0.00000000  0.00000000  1
  Sb  Sb0  1  0.77318100  0.58408200  0.99895700  1
  Sb  Sb1  1  0.22681900  0.41591800  0.99895700  1
  Sb  Sb2  1  0.27318100  0.08408200  0.00104300  1
  Sb  Sb3  1  0.72681900  0.91591800  0.00104300  1
  Sb  Sb4  1  0.41591800  0.77318100  0.00104300  1
  Sb  Sb5  1  0.58408200  0.22681900  0.00104300  1
  Sb  Sb6  1  0.91591800  0.27318100  0.99895700  1
  Sb  Sb7  1  0.08408200  0.72681900  0.99895700  1
  Sb  Sb8  1  0.00000000  0.50000000  0.39272400  1
  Sb  Sb9  1  0.50000000  0.00000000  0.60727600  1
  Sb  Sb10  1  0.19795300  0.90206900  0.38497500  1
  Sb  Sb11  1  0.80204700  0.09793100  0.38497500  1
  Sb  Sb12  1  0.69795300  0.40206900  0.61502500  1
  Sb  Sb13  1  0.30204700  0.59793100  0.61502500  1
  Sb  Sb14  1  0.09793100  0.19795300  0.61502500  1
  Sb  Sb15  1  0.90206900  0.80204700  0.61502500  1
  Sb  Sb16  1  0.59793100  0.69795300  0.38497500  1
  Sb  Sb17  1  0.40206900  0.30204700  0.38497500  1
loop_
_geom_bond_atom_site_label_1
_geom_bond_atom_site_label_2
_geom_bond_distance
_geom_bond_site_symmetry_2
Ni0 Sb0 2.542345 1_554
Ni0 Sb5 2.542345 1_555
Ni0 Sb1 2.542345 1_554
Ni0 Sb4 2.542345 1_555
Ni0 Zr7 3.113133 1_554
Ni0 Zr2 3.113133 1_555
Ni0 Zr3 3.113133 1_555
Ni0 Zr6 3.113133 1_554
Ni1 Sb2 2.542345 1_555
Ni1 Sb7 2.542345 1_544
Ni1 Sb3 2.542345 1_445
Ni1 Sb6 2.542345 1_454
Ni1 Zr9 3.113133 1_555
Ni1 Zr5 3.113133 1_544
Ni1 Zr4 3.113133 1_454
Ni1 Zr8 3.113133 1_445
Sb0 Zr3 2.959464 1_556
Sb0 Sb3 2.980277 1_556
Sb0 Zr7 2.988387 1_555
Sb0 Sb7 3.042857 1_655
Sb0 Sb6 3.042857 1_555
Sb0 Zr1 3.117954 1_655
Sb0 Zr8 3.218717 1_556
Sb1 Zr2 2.959464 1_556
Sb1 Sb2 2.980277 1_556
Sb1 Zr6 2.988387 1_555
Sb1 Sb6 3.042857 1_455
Sb1 Sb7 3.042857 1_555
Sb1 Zr1 3.117954 1_555
Sb1 Zr9 3.218717 1_556
Sb2 Zr5 2.959464 1_544
Sb2 Zr9 2.988387 1_555
Sb2 Sb4 3.042857 1_545
Sb2 Sb5 3.042857 1_555
Sb2 Zr0 3.117954 1_555
Sb2 Zr6 3.218717 1_554
Sb3 Zr4 2.959464 1_564
Sb3 Zr8 2.988387 1_555
Sb3 Sb5 3.042857 1_565
Sb3 Sb4 3.042857 1_555
Sb3 Zr0 3.117954 1_565
Sb3 Zr7 3.218717 1_554
Sb4 Zr7 2.959464 1_554
Sb4 Sb7 2.980277 1_554
Sb4 Zr2 2.988387 1_555
Sb4 Zr0 3.117954 1_565
Sb4 Zr5 3.218717 1_554
Sb5 Zr6 2.959464 1_554
Sb5 Sb6 2.980277 1_554
Sb5 Zr3 2.988387 1_555
Sb5 Zr0 3.117954 1_555
Sb5 Zr4 3.218717 1_554
Sb6 Zr9 2.959464 1_656
Sb6 Zr4 2.988387 1_555
Sb6 Zr1 3.117954 1_655
Sb6 Zr3 3.218717 1_556
Sb7 Zr8 2.959464 1_456
Sb7 Zr5 2.988387 1_555
Sb7 Zr1 3.117954 1_555
Sb7 Zr2 3.218717 1_556
Sb8 Zr8 3.005669 1_455
Sb8 Zr2 3.005669 1_555
Sb8 Zr3 3.005669 1_455
Sb8 Zr9 3.005669 1_555
Sb8 Zr1 3.110869 1_555
Sb9 Zr4 3.005669 1_555
Sb9 Zr7 3.005669 1_545
Sb9 Zr6 3.005669 1_555
Sb9 Zr5 3.005669 1_545
Sb9 Zr0 3.110869 1_555
Sb10 Zr2 2.987619 1_555
Sb10 Zr9 3.003790 1_565
Sb10 Zr8 3.029428 1_455
Sb10 Zr0 3.046670 1_565
Sb10 Zr5 3.089050 1_555
Sb11 Zr3 2.987619 1_555
Sb11 Zr8 3.003790 1_545
Sb11 Zr9 3.029428 1_655
Sb11 Zr0 3.046670 1_555
Sb11 Zr4 3.089050 1_555
Sb12 Zr4 2.987619 1_555
Sb12 Zr7 3.003790 1_555
Sb12 Zr6 3.029428 1_555
Sb12 Zr1 3.046670 1_655
Sb12 Zr3 3.089050 1_555
Sb13 Zr5 2.987619 1_555
Sb13 Zr6 3.003790 1_555
Sb13 Zr7 3.029428 1_555
Sb13 Zr1 3.046670 1_555
Sb13 Zr2 3.089050 1_555
Sb14 Zr6 2.987619 1_555
Sb14 Zr4 3.003790 1_455
Sb14 Zr5 3.029428 1_545
Sb14 Zr1 3.046670 1_555
Sb14 Zr9 3.089050 1_555
Sb15 Zr7 2.987619 1_555
Sb15 Zr5 3.003790 1_655
Sb15 Zr4 3.029428 1_565
Sb15 Zr1 3.046670 1_655
Sb15 Zr8 3.089050 1_555
Sb16 Zr8 2.987619 1_555
Sb16 Zr2 3.003790 1_555
Sb16 Zr3 3.029428 1_555
Sb16 Zr0 3.046670 1_565
Sb16 Zr7 3.089050 1_555
Sb17 Zr9 2.987619 1_555
Sb17 Zr3 3.003790 1_555
Sb17 Zr2 3.029428 1_555
Sb17 Zr0 3.046670 1_555
Sb17 Zr6 3.089050 1_555
