# generated using pymatgen
data_Ba6LiNb2Ir(ClO6)2
_symmetry_space_group_name_H-M   'P 1'
_cell_length_a   5.96360700
_cell_length_b   5.96359255
_cell_length_c   15.55977500
_cell_angle_alpha   90.00054776
_cell_angle_beta   90.00126703
_cell_angle_gamma   119.99971456
_symmetry_Int_Tables_number   1
_chemical_formula_structural   Ba6LiNb2Ir(ClO6)2
_chemical_formula_sum   'Ba6 Li1 Nb2 Ir1 Cl2 O12'
_cell_volume   479.23902140
_cell_formula_units_Z   1
loop_
 _symmetry_equiv_pos_site_id
 _symmetry_equiv_pos_as_xyz
  1  'x, y, z'
loop_
 _atom_site_type_symbol
 _atom_site_label
 _atom_site_symmetry_multiplicity
 _atom_site_fract_x
 _atom_site_fract_y
 _atom_site_fract_z
 _atom_site_occupancy
  Ba  Ba0  1  0.33336400  0.66669200  0.38087100  1
  Ba  Ba1  1  0.33332100  0.66665600  0.78724600  1
  Ba  Ba2  1  0.66664900  0.33331900  0.64052400  1
  Ba  Ba3  1  0.66667000  0.33333700  0.91868700  1
  Ba  Ba4  1  0.33334700  0.66667800  0.03594100  1
  Ba  Ba5  1  0.66667300  0.33333900  0.20719700  1
  Li  Li0  1  0.33332100  0.66665700  0.20944300  1
  Nb  Nb0  1  0.99999900  0.99999900  0.81732900  1
  Nb  Nb1  1  0.00000000  0.00000100  0.18286900  1
  Ir  Ir0  1  0.00000400  0.00000100  0.00105700  1
  Cl  Cl0  1  0.66666800  0.33333100  0.42528500  1
  Cl  Cl1  1  0.33332700  0.66666300  0.58163300  1
  O  O0  1  0.15489800  0.30979300  0.91297100  1
  O  O1  1  0.32696500  0.16348300  0.75901400  1
  O  O2  1  0.16399900  0.32799800  0.24693700  1
  O  O3  1  0.83650800  0.67302800  0.75901100  1
  O  O4  1  0.83651000  0.16347900  0.75901200  1
  O  O5  1  0.84826900  0.69653400  0.08832900  1
  O  O6  1  0.16399400  0.83600000  0.24693300  1
  O  O7  1  0.30347300  0.15173700  0.08833500  1
  O  O8  1  0.84827100  0.15173500  0.08833100  1
  O  O9  1  0.69020800  0.84510300  0.91296800  1
  O  O10  1  0.67199900  0.83599900  0.24692800  1
  O  O11  1  0.15489700  0.84510400  0.91297000  1
loop_
_geom_bond_atom_site_label_1
_geom_bond_atom_site_label_2
_geom_bond_distance
_geom_bond_site_symmetry_2
Ba0 O10 2.720764 1_555
Ba0 O2 2.720776 1_555
Ba0 O6 2.720789 1_555
Ba0 Cl1 3.123812 1_555
Ba0 Cl0 3.511604 1_565
Ba0 Cl0 3.511736 1_555
Ba0 Cl0 3.511938 1_455
Ba1 O9 2.687730 1_555
Ba1 O11 2.687744 1_555
Ba1 O0 2.687749 1_555
Ba1 O1 3.014126 1_555
Ba1 O4 3.014132 1_455
Ba1 O3 3.014159 1_455
Ba1 O3 3.014190 1_555
Ba1 O1 3.014193 1_565
Ba1 O4 3.014230 1_565
Ba1 Cl1 3.199292 1_555
Ba2 O3 2.544995 1_555
Ba2 O4 2.544995 1_555
Ba2 O1 2.545013 1_555
Ba2 Cl0 3.349070 1_555
Ba2 Cl1 3.562866 1_545
Ba2 Cl1 3.562920 1_555
Ba2 Cl1 3.563032 1_655
Ba3 O9 2.985583 1_555
Ba3 O11 2.985600 1_655
Ba3 O0 2.985606 1_555
Ba3 O0 2.985608 1_655
Ba3 O9 2.985616 1_545
Ba3 O11 2.985631 1_545
Ba3 O1 3.041459 1_555
Ba3 O4 3.041513 1_555
Ba3 O3 3.041531 1_555
Ba3 O5 3.238172 1_556
Ba3 O8 3.238238 1_556
Ba3 O7 3.238335 1_556
Ba4 O11 2.656723 1_554
Ba4 O0 2.656726 1_554
Ba4 O9 2.656750 1_554
Ba4 Li0 2.699652 1_555
Ba4 O8 3.095000 1_565
Ba4 O5 3.095007 1_555
Ba4 O7 3.095052 1_565
Ba4 O5 3.095109 1_455
Ba4 O7 3.095114 1_555
Ba4 O8 3.095158 1_455
Ba5 O7 2.634186 1_555
Ba5 O8 2.634280 1_555
Ba5 O5 2.634303 1_555
Ba5 O6 3.045292 1_655
Ba5 O10 3.045308 1_555
Ba5 O2 3.045334 1_655
Ba5 O10 3.045354 1_545
Ba5 O2 3.045402 1_555
Ba5 O6 3.045436 1_545
Ba5 Cl0 3.393400 1_555
Li0 O2 1.843795 1_555
Li0 O6 1.843815 1_555
Li0 O10 1.843818 1_555
Nb0 O4 1.917019 1_565
Nb0 O3 1.917027 1_555
Nb0 O1 1.917029 1_665
Nb0 O0 2.185051 1_665
Nb0 O11 2.185051 1_655
Nb0 O9 2.185070 1_555
Nb1 O6 1.965493 1_545
Nb1 O10 1.965521 1_445
Nb1 O2 1.965524 1_555
Nb1 O8 2.149446 1_455
Nb1 O5 2.149468 1_445
Nb1 O7 2.149488 1_555
Ir0 O8 2.073765 1_455
Ir0 O5 2.073765 1_445
Ir0 O7 2.073781 1_555
Ir0 O11 2.106762 1_544
Ir0 O9 2.106773 1_444
Ir0 O0 2.106781 1_554
