# generated using pymatgen
data_CsLaMg30O32
_symmetry_space_group_name_H-M   'P 1'
_cell_length_a   8.74044100
_cell_length_b   8.74044100
_cell_length_c   8.89293700
_cell_angle_alpha   90.00000000
_cell_angle_beta   90.00000000
_cell_angle_gamma   90.00000000
_symmetry_Int_Tables_number   1
_chemical_formula_structural   CsLaMg30O32
_chemical_formula_sum   'Cs1 La1 Mg30 O32'
_cell_volume   679.37866892
_cell_formula_units_Z   1
loop_
 _symmetry_equiv_pos_site_id
 _symmetry_equiv_pos_as_xyz
  1  'x, y, z'
loop_
 _atom_site_type_symbol
 _atom_site_label
 _atom_site_symmetry_multiplicity
 _atom_site_fract_x
 _atom_site_fract_y
 _atom_site_fract_z
 _atom_site_occupancy
  Cs  Cs0  1  0.00000000  0.00000000  0.50000000  1
  La  La0  1  0.00000000  0.00000000  0.00000000  1
  Mg  Mg0  1  0.00000000  0.50000000  0.00000000  1
  Mg  Mg1  1  0.00000000  0.50000000  0.50000000  1
  Mg  Mg2  1  0.50000000  0.00000000  0.00000000  1
  Mg  Mg3  1  0.50000000  0.00000000  0.50000000  1
  Mg  Mg4  1  0.50000000  0.50000000  0.00000000  1
  Mg  Mg5  1  0.50000000  0.50000000  0.50000000  1
  Mg  Mg6  1  0.00000000  0.26357000  0.25498000  1
  Mg  Mg7  1  0.00000000  0.26357000  0.74502000  1
  Mg  Mg8  1  0.00000000  0.73643000  0.25498000  1
  Mg  Mg9  1  0.00000000  0.73643000  0.74502000  1
  Mg  Mg10  1  0.50000000  0.25179900  0.25145500  1
  Mg  Mg11  1  0.50000000  0.25179900  0.74854500  1
  Mg  Mg12  1  0.50000000  0.74820100  0.25145500  1
  Mg  Mg13  1  0.50000000  0.74820100  0.74854500  1
  Mg  Mg14  1  0.26357000  0.00000000  0.25498000  1
  Mg  Mg15  1  0.26357000  0.00000000  0.74502000  1
  Mg  Mg16  1  0.25179900  0.50000000  0.25145500  1
  Mg  Mg17  1  0.25179900  0.50000000  0.74854500  1
  Mg  Mg18  1  0.73643000  0.00000000  0.25498000  1
  Mg  Mg19  1  0.73643000  0.00000000  0.74502000  1
  Mg  Mg20  1  0.74820100  0.50000000  0.25145500  1
  Mg  Mg21  1  0.74820100  0.50000000  0.74854500  1
  Mg  Mg22  1  0.25832400  0.25832400  0.00000000  1
  Mg  Mg23  1  0.25556100  0.25556100  0.50000000  1
  Mg  Mg24  1  0.25832400  0.74167600  0.00000000  1
  Mg  Mg25  1  0.25556100  0.74443900  0.50000000  1
  Mg  Mg26  1  0.74167600  0.25832400  0.00000000  1
  Mg  Mg27  1  0.74443900  0.25556100  0.50000000  1
  Mg  Mg28  1  0.74167600  0.74167600  0.00000000  1
  Mg  Mg29  1  0.74443900  0.74443900  0.50000000  1
  O  O0  1  0.27218600  0.00000000  0.00000000  1
  O  O1  1  0.28618400  0.00000000  0.50000000  1
  O  O2  1  0.25494500  0.50000000  0.00000000  1
  O  O3  1  0.25755300  0.50000000  0.50000000  1
  O  O4  1  0.72781400  0.00000000  0.00000000  1
  O  O5  1  0.71381600  0.00000000  0.50000000  1
  O  O6  1  0.74505500  0.50000000  0.00000000  1
  O  O7  1  0.74244700  0.50000000  0.50000000  1
  O  O8  1  0.24925200  0.24925200  0.24991100  1
  O  O9  1  0.24925200  0.24925200  0.75008900  1
  O  O10  1  0.24925200  0.75074800  0.24991100  1
  O  O11  1  0.24925200  0.75074800  0.75008900  1
  O  O12  1  0.75074800  0.24925200  0.24991100  1
  O  O13  1  0.75074800  0.24925200  0.75008900  1
  O  O14  1  0.75074800  0.75074800  0.24991100  1
  O  O15  1  0.75074800  0.75074800  0.75008900  1
  O  O16  1  0.00000000  0.00000000  0.23556600  1
  O  O17  1  0.00000000  0.00000000  0.76443400  1
  O  O18  1  0.00000000  0.50000000  0.24559100  1
  O  O19  1  0.00000000  0.50000000  0.75440900  1
  O  O20  1  0.50000000  0.00000000  0.24559100  1
  O  O21  1  0.50000000  0.00000000  0.75440900  1
  O  O22  1  0.50000000  0.50000000  0.24836800  1
  O  O23  1  0.50000000  0.50000000  0.75163200  1
  O  O24  1  0.00000000  0.27218600  0.00000000  1
  O  O25  1  0.00000000  0.28618400  0.50000000  1
  O  O26  1  0.00000000  0.72781400  0.00000000  1
  O  O27  1  0.00000000  0.71381600  0.50000000  1
  O  O28  1  0.50000000  0.25494500  0.00000000  1
  O  O29  1  0.50000000  0.25755300  0.50000000  1
  O  O30  1  0.50000000  0.74505500  0.00000000  1
  O  O31  1  0.50000000  0.74244700  0.50000000  1
loop_
_geom_bond_atom_site_label_1
_geom_bond_atom_site_label_2
_geom_bond_distance
_geom_bond_site_symmetry_2
Cs0 O17 2.351595 1_555
Cs0 O16 2.351595 1_555
Cs0 O1 2.501374 1_555
Cs0 O5 2.501374 1_455
Cs0 O25 2.501374 1_555
Cs0 O27 2.501374 1_545
La0 O16 2.094874 1_555
La0 O17 2.094874 1_554
La0 O24 2.379026 1_555
La0 O0 2.379026 1_555
La0 O4 2.379026 1_455
La0 O26 2.379026 1_545
Mg0 O26 1.991195 1_555
Mg0 O24 1.991195 1_555
Mg0 O18 2.184025 1_555
Mg0 O19 2.184025 1_554
Mg0 O2 2.228332 1_555
Mg0 O6 2.228332 1_455
Mg1 O27 1.868846 1_555
Mg1 O25 1.868846 1_555
Mg1 O3 2.251127 1_555
Mg1 O7 2.251127 1_455
Mg1 O19 2.262443 1_555
Mg1 O18 2.262443 1_555
Mg2 O4 1.991195 1_555
Mg2 O0 1.991195 1_555
Mg2 O20 2.184025 1_555
Mg2 O21 2.184025 1_554
Mg2 O28 2.228332 1_555
Mg2 O30 2.228332 1_545
Mg3 O5 1.868846 1_555
Mg3 O1 1.868846 1_555
Mg3 O29 2.251127 1_555
Mg3 O31 2.251127 1_545
Mg3 O21 2.262443 1_555
Mg3 O20 2.262443 1_555
Mg4 O30 2.141889 1_555
Mg4 O6 2.141889 1_555
Mg4 O2 2.141889 1_555
Mg4 O28 2.141889 1_555
Mg4 O22 2.208721 1_555
Mg4 O23 2.208721 1_554
Mg5 O31 2.119094 1_555
Mg5 O7 2.119094 1_555
Mg5 O29 2.119094 1_555
Mg5 O3 2.119094 1_555
Mg5 O23 2.237748 1_555
Mg5 O22 2.237748 1_555
Mg6 O18 2.068189 1_555
Mg6 O12 2.182629 1_455
Mg6 O8 2.182629 1_555
Mg6 O25 2.187894 1_555
Mg6 O24 2.268771 1_555
Mg6 O16 2.310178 1_555
Mg7 O19 2.068189 1_555
Mg7 O13 2.182629 1_455
Mg7 O9 2.182629 1_555
Mg7 O25 2.187894 1_555
Mg7 O24 2.268771 1_556
Mg7 O17 2.310178 1_555
Mg8 O18 2.068189 1_555
Mg8 O14 2.182629 1_455
Mg8 O10 2.182629 1_555
Mg8 O27 2.187894 1_555
Mg8 O26 2.268771 1_555
Mg8 O16 2.310178 1_565
Mg9 O19 2.068189 1_555
Mg9 O11 2.182629 1_555
Mg9 O15 2.182629 1_455
Mg9 O27 2.187894 1_555
Mg9 O26 2.268771 1_556
Mg9 O17 2.310178 1_565
Mg10 O22 2.169560 1_555
Mg10 O12 2.191804 1_555
Mg10 O8 2.191804 1_555
Mg10 O20 2.201452 1_555
Mg10 O29 2.210867 1_555
Mg10 O28 2.236343 1_555
Mg11 O23 2.169560 1_555
Mg11 O9 2.191804 1_555
Mg11 O13 2.191804 1_555
Mg11 O21 2.201452 1_555
Mg11 O29 2.210867 1_555
Mg11 O28 2.236343 1_556
Mg12 O22 2.169560 1_555
Mg12 O14 2.191804 1_555
Mg12 O10 2.191804 1_555
Mg12 O20 2.201452 1_565
Mg12 O31 2.210867 1_555
Mg12 O30 2.236343 1_555
Mg13 O23 2.169560 1_555
Mg13 O11 2.191804 1_555
Mg13 O15 2.191804 1_555
Mg13 O21 2.201452 1_565
Mg13 O31 2.210867 1_555
Mg13 O30 2.236343 1_556
Mg14 O20 2.068189 1_555
Mg14 O8 2.182629 1_555
Mg14 O10 2.182629 1_545
Mg14 O1 2.187894 1_555
Mg14 O0 2.268771 1_555
Mg14 O16 2.310178 1_555
Mg15 O21 2.068189 1_555
Mg15 O9 2.182629 1_555
Mg15 O11 2.182629 1_545
Mg15 O1 2.187894 1_555
Mg15 O0 2.268771 1_556
Mg15 O17 2.310178 1_555
Mg16 O22 2.169560 1_555
Mg16 O8 2.191804 1_555
Mg16 O10 2.191804 1_555
Mg16 O18 2.201452 1_555
Mg16 O3 2.210867 1_555
Mg16 O2 2.236343 1_555
Mg17 O23 2.169560 1_555
Mg17 O11 2.191804 1_555
Mg17 O9 2.191804 1_555
Mg17 O19 2.201452 1_555
Mg17 O3 2.210867 1_555
Mg17 O2 2.236343 1_556
Mg18 O20 2.068189 1_555
Mg18 O14 2.182629 1_545
Mg18 O12 2.182629 1_555
Mg18 O5 2.187894 1_555
Mg18 O4 2.268771 1_555
Mg18 O16 2.310178 1_655
Mg19 O21 2.068189 1_555
Mg19 O13 2.182629 1_555
Mg19 O15 2.182629 1_545
Mg19 O5 2.187894 1_555
Mg19 O4 2.268771 1_556
Mg19 O17 2.310178 1_655
Mg20 O22 2.169560 1_555
Mg20 O12 2.191804 1_555
Mg20 O14 2.191804 1_555
Mg20 O18 2.201452 1_655
Mg20 O7 2.210867 1_555
Mg20 O6 2.236343 1_555
Mg21 O23 2.169560 1_555
Mg21 O15 2.191804 1_555
Mg21 O13 2.191804 1_555
Mg21 O19 2.201452 1_655
Mg21 O7 2.210867 1_555
Mg21 O6 2.236343 1_556
Mg22 O2 2.112561 1_555
Mg22 O28 2.112561 1_555
Mg22 O8 2.225270 1_555
Mg22 O9 2.225270 1_554
Mg22 O0 2.261114 1_555
Mg22 O24 2.261114 1_555
Mg23 O29 2.136576 1_555
Mg23 O3 2.136576 1_555
Mg23 O8 2.225393 1_555
Mg23 O9 2.225393 1_555
Mg23 O1 2.249695 1_555
Mg23 O25 2.249695 1_555
Mg24 O2 2.112561 1_555
Mg24 O30 2.112561 1_555
Mg24 O11 2.225270 1_554
Mg24 O10 2.225270 1_555
Mg24 O26 2.261114 1_555
Mg24 O0 2.261114 1_565
Mg25 O31 2.136576 1_555
Mg25 O3 2.136576 1_555
Mg25 O10 2.225393 1_555
Mg25 O11 2.225393 1_555
Mg25 O27 2.249695 1_555
Mg25 O1 2.249695 1_565
Mg26 O6 2.112561 1_555
Mg26 O28 2.112561 1_555
Mg26 O13 2.225270 1_554
Mg26 O12 2.225270 1_555
Mg26 O24 2.261114 1_655
Mg26 O4 2.261114 1_555
Mg27 O29 2.136576 1_555
Mg27 O7 2.136576 1_555
Mg27 O13 2.225393 1_555
Mg27 O12 2.225393 1_555
Mg27 O5 2.249695 1_555
Mg27 O25 2.249695 1_655
Mg28 O6 2.112561 1_555
Mg28 O30 2.112561 1_555
Mg28 O15 2.225270 1_554
Mg28 O14 2.225270 1_555
Mg28 O26 2.261114 1_655
Mg28 O4 2.261114 1_565
Mg29 O31 2.136576 1_555
Mg29 O7 2.136576 1_555
Mg29 O14 2.225393 1_555
Mg29 O15 2.225393 1_555
Mg29 O27 2.249695 1_655
Mg29 O5 2.249695 1_565
