# generated using pymatgen
data_MgPt2
_symmetry_space_group_name_H-M   'P 1'
_cell_length_a   5.71030642
_cell_length_b   10.63145177
_cell_length_c   13.67204961
_cell_angle_alpha   74.14608536
_cell_angle_beta   89.97615220
_cell_angle_gamma   105.53626841
_symmetry_Int_Tables_number   1
_chemical_formula_structural   MgPt2
_chemical_formula_sum   'Mg16 Pt32'
_cell_volume   766.83888653
_cell_formula_units_Z   16
loop_
 _symmetry_equiv_pos_site_id
 _symmetry_equiv_pos_as_xyz
  1  'x, y, z'
loop_
 _atom_site_type_symbol
 _atom_site_label
 _atom_site_symmetry_multiplicity
 _atom_site_fract_x
 _atom_site_fract_y
 _atom_site_fract_z
 _atom_site_occupancy
  Mg  Mg0_0  1  0.36225600  0.22451650  0.03280750  1
  Mg  Mg0_1  1  0.36225600  0.22451650  0.53280750  1
  Mg  Mg0_2  1  0.36225600  0.72451650  0.03280750  1
  Mg  Mg0_3  1  0.36225600  0.72451650  0.53280750  1
  Mg  Mg0_4  1  0.86225600  0.22451650  0.03280750  1
  Mg  Mg0_5  1  0.86225600  0.22451650  0.53280750  1
  Mg  Mg0_6  1  0.86225600  0.72451650  0.03280750  1
  Mg  Mg0_7  1  0.86225600  0.72451650  0.53280750  1
  Mg  Mg1_0  1  0.33218850  0.16437250  0.32830400  1
  Mg  Mg1_1  1  0.33218850  0.16437250  0.82830400  1
  Mg  Mg1_2  1  0.33218850  0.66437250  0.32830400  1
  Mg  Mg1_3  1  0.33218850  0.66437250  0.82830400  1
  Mg  Mg1_4  1  0.83218850  0.16437250  0.32830400  1
  Mg  Mg1_5  1  0.83218850  0.16437250  0.82830400  1
  Mg  Mg1_6  1  0.83218850  0.66437250  0.32830400  1
  Mg  Mg1_7  1  0.83218850  0.66437250  0.82830400  1
  Pt  Pt0_0  1  0.16659700  0.33304850  0.17109600  1
  Pt  Pt0_1  1  0.16659700  0.33304850  0.67109600  1
  Pt  Pt0_2  1  0.16659700  0.83304850  0.17109600  1
  Pt  Pt0_3  1  0.16659700  0.83304850  0.67109600  1
  Pt  Pt0_4  1  0.66659700  0.33304850  0.17109600  1
  Pt  Pt0_5  1  0.66659700  0.33304850  0.67109600  1
  Pt  Pt0_6  1  0.66659700  0.83304850  0.17109600  1
  Pt  Pt0_7  1  0.66659700  0.83304850  0.67109600  1
  Pt  Pt1_0  1  0.02784650  0.05584000  0.19001450  1
  Pt  Pt1_1  1  0.02784650  0.05584000  0.69001450  1
  Pt  Pt1_2  1  0.02784650  0.55584000  0.19001450  1
  Pt  Pt1_3  1  0.02784650  0.55584000  0.69001450  1
  Pt  Pt1_4  1  0.52784650  0.05584000  0.19001450  1
  Pt  Pt1_5  1  0.52784650  0.05584000  0.69001450  1
  Pt  Pt1_6  1  0.52784650  0.55584000  0.19001450  1
  Pt  Pt1_7  1  0.52784650  0.55584000  0.69001450  1
  Pt  Pt2_0  1  0.19156600  0.38301100  0.36468950  1
  Pt  Pt2_1  1  0.19156600  0.38301100  0.86468950  1
  Pt  Pt2_2  1  0.19156600  0.88301100  0.36468950  1
  Pt  Pt2_3  1  0.19156600  0.88301100  0.86468950  1
  Pt  Pt2_4  1  0.69156600  0.38301100  0.36468950  1
  Pt  Pt2_5  1  0.69156600  0.38301100  0.86468950  1
  Pt  Pt2_6  1  0.69156600  0.88301100  0.36468950  1
  Pt  Pt2_7  1  0.69156600  0.88301100  0.86468950  1
  Pt  Pt3_0  1  0.00287900  0.00587800  0.49642250  1
  Pt  Pt3_1  1  0.00287900  0.00587800  0.99642250  1
  Pt  Pt3_2  1  0.00287900  0.50587800  0.49642250  1
  Pt  Pt3_3  1  0.00287900  0.50587800  0.99642250  1
  Pt  Pt3_4  1  0.50287900  0.00587800  0.49642250  1
  Pt  Pt3_5  1  0.50287900  0.00587800  0.99642250  1
  Pt  Pt3_6  1  0.50287900  0.50587800  0.49642250  1
  Pt  Pt3_7  1  0.50287900  0.50587800  0.99642250  1
loop_
_geom_bond_atom_site_label_1
_geom_bond_atom_site_label_2
_geom_bond_distance
_geom_bond_site_symmetry_2
Mg0_0 Pt1_4 2.744770 1_555
Mg0_0 Pt1_0 2.745585 1_555
Mg0_0 Pt3_7 2.782075 1_554
Mg0_0 Pt2_1 2.799657 1_554
Mg0_0 Pt2_5 2.800264 1_554
Mg0_0 Pt3_5 2.815431 1_554
Mg0_0 Pt3_1 2.817646 1_554
Mg0_0 Pt0_0 2.834637 1_555
Mg0_0 Pt0_4 2.836684 1_555
Mg0_0 Mg0_4 2.855153 1_555
Mg0_0 Mg0_4 2.855153 1_455
Mg0_0 Mg1_1 3.028901 1_554
Mg0_1 Pt1_5 2.744770 1_555
Mg0_1 Pt1_1 2.745585 1_555
Mg0_1 Pt3_6 2.782075 1_555
Mg0_1 Pt2_0 2.799657 1_555
Mg0_1 Pt2_4 2.800264 1_555
Mg0_1 Pt3_4 2.815431 1_555
Mg0_1 Pt3_0 2.817646 1_555
Mg0_1 Pt0_1 2.834637 1_555
Mg0_1 Pt0_5 2.836684 1_555
Mg0_1 Mg0_5 2.855153 1_555
Mg0_1 Mg0_5 2.855153 1_455
Mg0_1 Mg1_0 3.028901 1_555
Mg0_2 Pt1_6 2.744770 1_555
Mg0_2 Pt1_2 2.745585 1_555
Mg0_2 Pt3_5 2.782075 1_564
Mg0_2 Pt2_3 2.799657 1_554
Mg0_2 Pt2_7 2.800264 1_554
Mg0_2 Pt3_7 2.815431 1_554
Mg0_2 Pt3_3 2.817646 1_554
Mg0_2 Pt0_2 2.834637 1_555
Mg0_2 Pt0_6 2.836684 1_555
Mg0_2 Mg0_6 2.855153 1_555
Mg0_2 Mg0_6 2.855153 1_455
Mg0_2 Mg1_3 3.028901 1_554
Mg0_3 Pt1_7 2.744770 1_555
Mg0_3 Pt1_3 2.745585 1_555
Mg0_3 Pt3_4 2.782075 1_565
Mg0_3 Pt2_2 2.799657 1_555
Mg0_3 Pt2_6 2.800264 1_555
Mg0_3 Pt3_6 2.815431 1_555
Mg0_3 Pt3_2 2.817646 1_555
Mg0_3 Pt0_3 2.834637 1_555
Mg0_3 Pt0_7 2.836684 1_555
Mg0_3 Mg0_7 2.855153 1_455
Mg0_3 Mg0_7 2.855153 1_555
Mg0_3 Mg1_2 3.028901 1_555
Mg0_4 Pt1_0 2.744770 1_655
Mg0_4 Pt1_4 2.745585 1_555
Mg0_4 Pt3_3 2.782075 1_654
Mg0_4 Pt2_5 2.799657 1_554
Mg0_4 Pt2_1 2.800264 1_654
Mg0_4 Pt3_1 2.815431 1_654
Mg0_4 Pt3_5 2.817646 1_554
Mg0_4 Pt0_4 2.834637 1_555
Mg0_4 Pt0_0 2.836684 1_655
Mg0_4 Mg1_5 3.028901 1_554
Mg0_5 Pt1_1 2.744770 1_655
Mg0_5 Pt1_5 2.745585 1_555
Mg0_5 Pt3_2 2.782075 1_655
Mg0_5 Pt2_4 2.799657 1_555
Mg0_5 Pt2_0 2.800264 1_655
Mg0_5 Pt3_0 2.815431 1_655
Mg0_5 Pt3_4 2.817646 1_555
Mg0_5 Pt0_5 2.834637 1_555
Mg0_5 Pt0_1 2.836684 1_655
Mg0_5 Mg1_4 3.028901 1_555
Mg0_6 Pt1_2 2.744770 1_655
Mg0_6 Pt1_6 2.745585 1_555
Mg0_6 Pt3_1 2.782075 1_664
Mg0_6 Pt2_7 2.799657 1_554
Mg0_6 Pt2_3 2.800264 1_654
Mg0_6 Pt3_3 2.815431 1_654
Mg0_6 Pt3_7 2.817646 1_554
Mg0_6 Pt0_6 2.834637 1_555
Mg0_6 Pt0_2 2.836684 1_655
Mg0_6 Mg1_7 3.028901 1_554
Mg0_7 Pt1_3 2.744770 1_655
Mg0_7 Pt1_7 2.745585 1_555
Mg0_7 Pt3_0 2.782075 1_665
Mg0_7 Pt2_6 2.799657 1_555
Mg0_7 Pt2_2 2.800264 1_655
Mg0_7 Pt3_2 2.815431 1_655
Mg0_7 Pt3_6 2.817646 1_555
Mg0_7 Pt0_7 2.834637 1_555
Mg0_7 Pt0_3 2.836684 1_655
Mg0_7 Mg1_6 3.028901 1_555
Mg1_0 Pt0_0 2.744778 1_555
Mg1_0 Pt0_4 2.745589 1_555
Mg1_0 Pt2_2 2.782074 1_545
Mg1_0 Pt3_4 2.799662 1_555
Mg1_0 Pt3_0 2.800267 1_555
Mg1_0 Pt2_0 2.815433 1_555
Mg1_0 Pt2_4 2.817650 1_555
Mg1_0 Pt1_4 2.834648 1_555
Mg1_0 Pt1_0 2.836700 1_555
Mg1_0 Mg1_4 2.855153 1_555
Mg1_0 Mg1_4 2.855153 1_455
Mg1_1 Pt0_1 2.744778 1_555
Mg1_1 Pt0_5 2.745589 1_555
Mg1_1 Pt2_3 2.782074 1_545
Mg1_1 Pt3_5 2.799662 1_555
Mg1_1 Pt3_1 2.800267 1_555
Mg1_1 Pt2_1 2.815433 1_555
Mg1_1 Pt2_5 2.817650 1_555
Mg1_1 Pt1_5 2.834648 1_555
Mg1_1 Pt1_1 2.836700 1_555
Mg1_1 Mg1_5 2.855153 1_455
Mg1_1 Mg1_5 2.855153 1_555
Mg1_2 Pt0_2 2.744778 1_555
Mg1_2 Pt0_6 2.745589 1_555
Mg1_2 Pt2_0 2.782074 1_555
Mg1_2 Pt3_6 2.799662 1_555
Mg1_2 Pt3_2 2.800267 1_555
Mg1_2 Pt2_2 2.815433 1_555
Mg1_2 Pt2_6 2.817650 1_555
Mg1_2 Pt1_6 2.834648 1_555
Mg1_2 Pt1_2 2.836700 1_555
Mg1_2 Mg1_6 2.855153 1_555
Mg1_2 Mg1_6 2.855153 1_455
Mg1_3 Pt0_3 2.744778 1_555
Mg1_3 Pt0_7 2.745589 1_555
Mg1_3 Pt2_1 2.782074 1_555
Mg1_3 Pt3_7 2.799662 1_555
Mg1_3 Pt3_3 2.800267 1_555
Mg1_3 Pt2_3 2.815433 1_555
Mg1_3 Pt2_7 2.817650 1_555
Mg1_3 Pt1_7 2.834648 1_555
Mg1_3 Pt1_3 2.836700 1_555
Mg1_3 Mg1_7 2.855153 1_555
Mg1_3 Mg1_7 2.855153 1_455
Mg1_4 Pt0_4 2.744778 1_555
Mg1_4 Pt0_0 2.745589 1_655
Mg1_4 Pt2_6 2.782074 1_545
Mg1_4 Pt3_0 2.799662 1_655
Mg1_4 Pt3_4 2.800267 1_555
Mg1_4 Pt2_4 2.815433 1_555
Mg1_4 Pt2_0 2.817650 1_655
Mg1_4 Pt1_0 2.834648 1_655
Mg1_4 Pt1_4 2.836700 1_555
Mg1_5 Pt0_5 2.744778 1_555
Mg1_5 Pt0_1 2.745589 1_655
Mg1_5 Pt2_7 2.782074 1_545
Mg1_5 Pt3_1 2.799662 1_655
Mg1_5 Pt3_5 2.800267 1_555
Mg1_5 Pt2_5 2.815433 1_555
Mg1_5 Pt2_1 2.817650 1_655
Mg1_5 Pt1_1 2.834648 1_655
Mg1_5 Pt1_5 2.836700 1_555
Mg1_6 Pt0_6 2.744778 1_555
Mg1_6 Pt0_2 2.745589 1_655
Mg1_6 Pt2_4 2.782074 1_555
Mg1_6 Pt3_2 2.799662 1_655
Mg1_6 Pt3_6 2.800267 1_555
Mg1_6 Pt2_6 2.815433 1_555
Mg1_6 Pt2_2 2.817650 1_655
Mg1_6 Pt1_2 2.834648 1_655
Mg1_6 Pt1_6 2.836700 1_555
Mg1_7 Pt0_7 2.744778 1_555
Mg1_7 Pt0_3 2.745589 1_655
Mg1_7 Pt2_5 2.782074 1_555
Mg1_7 Pt3_3 2.799662 1_655
Mg1_7 Pt3_7 2.800267 1_555
Mg1_7 Pt2_7 2.815433 1_555
Mg1_7 Pt2_3 2.817650 1_655
Mg1_7 Pt1_3 2.834648 1_655
Mg1_7 Pt1_7 2.836700 1_555
Pt0_0 Pt1_2 2.764921 1_555
Pt0_0 Pt1_6 2.765904 1_555
Pt0_0 Pt1_0 2.777173 1_555
Pt0_0 Pt2_0 2.834789 1_555
Pt0_0 Pt0_4 2.855153 1_455
Pt0_0 Pt0_4 2.855153 1_555
Pt0_0 Pt3_7 2.911250 1_554
Pt0_0 Pt3_3 2.911691 1_554
Pt0_1 Pt1_3 2.764921 1_555
Pt0_1 Pt1_7 2.765904 1_555
Pt0_1 Pt1_1 2.777173 1_555
Pt0_1 Pt2_1 2.834789 1_555
Pt0_1 Pt0_5 2.855153 1_555
Pt0_1 Pt0_5 2.855153 1_455
Pt0_1 Pt3_6 2.911250 1_555
Pt0_1 Pt3_2 2.911691 1_555
Pt0_2 Pt1_0 2.764921 1_565
Pt0_2 Pt1_4 2.765904 1_565
Pt0_2 Pt1_2 2.777173 1_555
Pt0_2 Pt2_2 2.834789 1_555
Pt0_2 Pt0_6 2.855153 1_555
Pt0_2 Pt0_6 2.855153 1_455
Pt0_2 Pt3_5 2.911250 1_564
Pt0_2 Pt3_1 2.911691 1_564
Pt0_3 Pt1_1 2.764921 1_565
Pt0_3 Pt1_5 2.765904 1_565
Pt0_3 Pt1_3 2.777173 1_555
Pt0_3 Pt2_3 2.834789 1_555
Pt0_3 Pt0_7 2.855153 1_555
Pt0_3 Pt0_7 2.855153 1_455
Pt0_3 Pt3_4 2.911250 1_565
Pt0_3 Pt3_0 2.911691 1_565
Pt0_4 Pt1_6 2.764921 1_555
Pt0_4 Pt1_2 2.765904 1_655
Pt0_4 Pt1_4 2.777173 1_555
Pt0_4 Pt2_4 2.834789 1_555
Pt0_4 Pt3_3 2.911250 1_654
Pt0_4 Pt3_7 2.911691 1_554
Pt0_5 Pt1_7 2.764921 1_555
Pt0_5 Pt1_3 2.765904 1_655
Pt0_5 Pt1_5 2.777173 1_555
Pt0_5 Pt2_5 2.834789 1_555
Pt0_5 Pt3_2 2.911250 1_655
Pt0_5 Pt3_6 2.911691 1_555
Pt0_6 Pt1_4 2.764921 1_565
Pt0_6 Pt1_0 2.765904 1_665
Pt0_6 Pt1_6 2.777173 1_555
Pt0_6 Pt2_6 2.834789 1_555
Pt0_6 Pt3_1 2.911250 1_664
Pt0_6 Pt3_5 2.911691 1_564
Pt0_7 Pt1_5 2.764921 1_565
Pt0_7 Pt1_1 2.765904 1_665
Pt0_7 Pt1_7 2.777173 1_555
Pt0_7 Pt2_7 2.834789 1_555
Pt0_7 Pt3_0 2.911250 1_665
Pt0_7 Pt3_4 2.911691 1_565
Pt1_0 Pt3_1 2.834767 1_554
Pt1_0 Pt1_4 2.855153 1_555
Pt1_0 Pt1_4 2.855153 1_455
Pt1_0 Pt2_6 2.911258 1_445
Pt1_0 Pt2_2 2.911706 1_545
Pt1_1 Pt3_0 2.834767 1_555
Pt1_1 Pt1_5 2.855153 1_555
Pt1_1 Pt1_5 2.855153 1_455
Pt1_1 Pt2_7 2.911258 1_445
Pt1_1 Pt2_3 2.911706 1_545
Pt1_2 Pt3_3 2.834767 1_554
Pt1_2 Pt1_6 2.855153 1_555
Pt1_2 Pt1_6 2.855153 1_455
Pt1_2 Pt2_4 2.911258 1_455
Pt1_2 Pt2_0 2.911706 1_555
Pt1_3 Pt3_2 2.834767 1_555
Pt1_3 Pt1_7 2.855153 1_555
Pt1_3 Pt1_7 2.855153 1_455
Pt1_3 Pt2_5 2.911258 1_455
Pt1_3 Pt2_1 2.911706 1_555
Pt1_4 Pt3_5 2.834767 1_554
Pt1_4 Pt2_2 2.911258 1_545
Pt1_4 Pt2_6 2.911706 1_545
Pt1_5 Pt3_4 2.834767 1_555
Pt1_5 Pt2_3 2.911258 1_545
Pt1_5 Pt2_7 2.911706 1_545
Pt1_6 Pt3_7 2.834767 1_554
Pt1_6 Pt2_0 2.911258 1_555
Pt1_6 Pt2_4 2.911706 1_555
Pt1_7 Pt3_6 2.834767 1_555
Pt1_7 Pt2_1 2.911258 1_555
Pt1_7 Pt2_5 2.911706 1_555
Pt2_0 Pt3_2 2.854610 1_555
Pt2_0 Pt2_4 2.855153 1_555
Pt2_0 Pt2_4 2.855153 1_455
Pt2_0 Pt3_6 2.855598 1_555
Pt2_1 Pt3_3 2.854610 1_555
Pt2_1 Pt2_5 2.855153 1_555
Pt2_1 Pt2_5 2.855153 1_455
Pt2_1 Pt3_7 2.855598 1_555
Pt2_2 Pt3_0 2.854610 1_565
Pt2_2 Pt2_6 2.855153 1_455
Pt2_2 Pt2_6 2.855153 1_555
Pt2_2 Pt3_4 2.855598 1_565
Pt2_3 Pt3_1 2.854610 1_565
Pt2_3 Pt2_7 2.855153 1_555
Pt2_3 Pt2_7 2.855153 1_455
Pt2_3 Pt3_5 2.855598 1_565
Pt2_4 Pt3_6 2.854610 1_555
Pt2_4 Pt3_2 2.855598 1_655
Pt2_5 Pt3_7 2.854610 1_555
Pt2_5 Pt3_3 2.855598 1_655
Pt2_6 Pt3_4 2.854610 1_565
Pt2_6 Pt3_0 2.855598 1_665
Pt2_7 Pt3_5 2.854610 1_565
Pt2_7 Pt3_1 2.855598 1_665
Pt3_0 Pt3_4 2.855153 1_555
Pt3_0 Pt3_4 2.855153 1_455
Pt3_1 Pt3_5 2.855153 1_455
Pt3_1 Pt3_5 2.855153 1_555
Pt3_2 Pt3_6 2.855153 1_555
Pt3_2 Pt3_6 2.855153 1_455
Pt3_3 Pt3_7 2.855153 1_555
Pt3_3 Pt3_7 2.855153 1_455
