# generated using pymatgen
data_Mg6TiSi
_symmetry_space_group_name_H-M   'P 1'
_cell_length_a   5.01259500
_cell_length_b   5.85426700
_cell_length_c   10.94074400
_cell_angle_alpha   90.00000000
_cell_angle_beta   90.00000000
_cell_angle_gamma   90.00000000
_symmetry_Int_Tables_number   1
_chemical_formula_structural   Mg6TiSi
_chemical_formula_sum   'Mg12 Ti2 Si2'
_cell_volume   321.05689298
_cell_formula_units_Z   2
loop_
 _symmetry_equiv_pos_site_id
 _symmetry_equiv_pos_as_xyz
  1  'x, y, z'
loop_
 _atom_site_type_symbol
 _atom_site_label
 _atom_site_symmetry_multiplicity
 _atom_site_fract_x
 _atom_site_fract_y
 _atom_site_fract_z
 _atom_site_occupancy
  Mg  Mg0  1  0.50000000  0.24912800  0.42114000  1
  Mg  Mg1  1  0.50000000  0.75087200  0.42114000  1
  Mg  Mg2  1  0.00000000  0.75357300  0.08187300  1
  Mg  Mg3  1  0.00000000  0.24642700  0.08187300  1
  Mg  Mg4  1  0.00000000  0.00000000  0.32769900  1
  Mg  Mg5  1  0.00000000  0.50000000  0.32511100  1
  Mg  Mg6  1  0.50000000  0.74912800  0.92114000  1
  Mg  Mg7  1  0.50000000  0.25087200  0.92114000  1
  Mg  Mg8  1  0.00000000  0.25357300  0.58187300  1
  Mg  Mg9  1  0.00000000  0.74642700  0.58187300  1
  Mg  Mg10  1  0.00000000  0.50000000  0.82769900  1
  Mg  Mg11  1  0.00000000  0.00000000  0.82511100  1
  Ti  Ti0  1  0.50000000  0.00000000  0.17345600  1
  Ti  Ti1  1  0.50000000  0.50000000  0.67345600  1
  Si  Si0  1  0.50000000  0.50000000  0.16770200  1
  Si  Si1  1  0.50000000  0.00000000  0.66770200  1
loop_
_geom_bond_atom_site_label_1
_geom_bond_atom_site_label_2
_geom_bond_distance
_geom_bond_site_symmetry_2
Mg0 Mg1 2.916924 1_545
Mg0 Mg1 2.937343 1_555
Mg0 Mg8 3.061807 1_555
Mg0 Mg8 3.061807 1_655
Mg0 Si1 3.066595 1_555
Mg0 Mg4 3.074697 1_655
Mg0 Mg4 3.074697 1_555
Mg0 Ti0 3.077399 1_555
Mg0 Mg5 3.089069 1_555
Mg0 Mg5 3.089069 1_655
Mg0 Ti1 3.126898 1_555
Mg0 Si0 3.137741 1_555
Mg1 Mg9 3.061807 1_555
Mg1 Mg9 3.061807 1_655
Mg1 Si1 3.066595 1_565
Mg1 Mg4 3.074697 1_565
Mg1 Mg4 3.074697 1_665
Mg1 Ti0 3.077399 1_565
Mg1 Mg5 3.089069 1_555
Mg1 Mg5 3.089069 1_655
Mg1 Ti1 3.126898 1_555
Mg1 Si0 3.137741 1_555
Mg2 Mg3 2.885299 1_565
Mg2 Mg3 2.968968 1_555
Mg2 Mg5 3.047245 1_555
Mg2 Mg4 3.052008 1_565
Mg2 Ti0 3.060513 1_565
Mg2 Ti0 3.060513 1_465
Mg2 Si0 3.060556 1_555
Mg2 Si0 3.060556 1_455
Mg2 Mg6 3.061807 1_554
Mg2 Mg6 3.061807 1_454
Mg3 Mg5 3.047245 1_555
Mg3 Mg4 3.052008 1_555
Mg3 Ti0 3.060513 1_555
Mg3 Ti0 3.060513 1_455
Mg3 Si0 3.060556 1_555
Mg3 Si0 3.060556 1_455
Mg3 Mg7 3.061807 1_554
Mg3 Mg7 3.061807 1_454
Mg4 Mg5 2.927270 1_545
Mg4 Mg5 2.927270 1_555
Mg4 Ti0 3.021472 1_555
Mg4 Ti0 3.021472 1_455
Mg4 Mg8 3.152274 1_555
Mg4 Mg9 3.152274 1_545
Mg5 Si0 3.040954 1_455
Mg5 Si0 3.040954 1_555
Mg5 Mg9 3.157952 1_555
Mg5 Mg8 3.157952 1_555
Mg6 Mg7 2.916924 1_555
Mg6 Mg7 2.937343 1_565
Mg6 Si0 3.066595 1_556
Mg6 Ti1 3.077399 1_555
Mg6 Ti0 3.126898 1_566
Mg6 Si1 3.137741 1_565
Mg7 Si0 3.066595 1_556
Mg7 Ti1 3.077399 1_555
Mg7 Ti0 3.126898 1_556
Mg7 Si1 3.137741 1_555
Mg8 Mg9 2.885299 1_555
Mg8 Mg9 2.968968 1_545
Mg8 Ti1 3.060513 1_555
Mg8 Ti1 3.060513 1_455
Mg8 Si1 3.060556 1_455
Mg8 Si1 3.060556 1_555
Mg9 Ti1 3.060513 1_555
Mg9 Ti1 3.060513 1_455
Mg9 Si1 3.060556 1_565
Mg9 Si1 3.060556 1_465
Mg10 Mg11 2.927270 1_565
Mg10 Mg11 2.927270 1_555
Mg10 Ti1 3.021472 1_555
Mg10 Ti1 3.021472 1_455
Mg10 Mg9 3.052008 1_555
Mg10 Mg8 3.052008 1_555
Mg10 Mg7 3.074697 1_555
Mg10 Mg6 3.074697 1_455
Mg10 Mg6 3.074697 1_555
Mg10 Mg7 3.074697 1_455
Mg10 Mg2 3.152274 1_556
Mg10 Mg3 3.152274 1_556
Mg11 Si1 3.040954 1_455
Mg11 Si1 3.040954 1_555
Mg11 Mg8 3.047245 1_555
Mg11 Mg9 3.047245 1_545
Mg11 Mg6 3.089069 1_445
Mg11 Mg7 3.089069 1_455
Mg11 Mg6 3.089069 1_545
Mg11 Mg7 3.089069 1_555
Mg11 Mg3 3.157952 1_556
Mg11 Mg2 3.157952 1_546
Si0 Ti0 2.927810 1_555
Si0 Ti0 2.927810 1_565
Si1 Ti1 2.927810 1_555
Si1 Ti1 2.927810 1_545
