# generated using pymatgen
data_Co4TeO8
_symmetry_space_group_name_H-M   'P 1'
_cell_length_a   6.00421229
_cell_length_b   5.93684133
_cell_length_c   6.07272856
_cell_angle_alpha   86.87754279
_cell_angle_beta   119.76286398
_cell_angle_gamma   62.69803598
_symmetry_Int_Tables_number   1
_chemical_formula_structural   Co4TeO8
_chemical_formula_sum   'Co4 Te1 O8'
_cell_volume   155.40837355
_cell_formula_units_Z   1
loop_
 _symmetry_equiv_pos_site_id
 _symmetry_equiv_pos_as_xyz
  1  'x, y, z'
loop_
 _atom_site_type_symbol
 _atom_site_label
 _atom_site_symmetry_multiplicity
 _atom_site_fract_x
 _atom_site_fract_y
 _atom_site_fract_z
 _atom_site_occupancy
  Co  Co0  1  0.00000000  0.50000000  0.50000000  1
  Co  Co1  1  0.00000000  0.00000000  0.50000000  1
  Co  Co2  1  0.00000000  0.00000000  0.00000000  1
  Co  Co3  1  0.50000000  0.00000000  0.00000000  1
  Te  Te0  1  0.50000000  0.00000000  0.50000000  1
  O  O0  1  0.45002000  0.78879600  0.70902300  1
  O  O1  1  0.54998000  0.21120400  0.29097700  1
  O  O2  1  0.93826400  0.81416600  0.24816400  1
  O  O3  1  0.06173600  0.18583400  0.75183600  1
  O  O4  1  0.95162600  0.76565600  0.73380500  1
  O  O5  1  0.49500100  0.78932500  0.25469100  1
  O  O6  1  0.04837400  0.23434400  0.26619500  1
  O  O7  1  0.50499900  0.21067500  0.74530900  1
loop_
_geom_bond_atom_site_label_1
_geom_bond_atom_site_label_2
_geom_bond_distance
_geom_bond_site_symmetry_2
Co0 O3 2.108852 1_555
Co0 O2 2.108852 1_455
Co0 O4 2.195647 1_455
Co0 O6 2.195647 1_555
Co0 O7 2.195971 1_555
Co0 O5 2.195971 1_455
Co1 O3 1.920835 1_555
Co1 O2 1.920835 1_445
Co1 O1 1.948784 1_455
Co1 O0 1.948784 1_545
Co1 O4 2.144954 1_445
Co1 O6 2.144954 1_555
Co2 O3 2.091503 1_554
Co2 O2 2.091503 1_445
Co2 O5 2.145962 1_545
Co2 O7 2.145962 1_454
Co2 O6 2.186938 1_555
Co2 O4 2.186938 1_444
Co3 O2 1.905570 1_545
Co3 O3 1.905570 1_554
Co3 O7 1.956331 1_554
Co3 O5 1.956331 1_545
Co3 O1 2.201079 1_555
Co3 O0 2.201079 1_544
O0 Te0 1.955372 1_565
O1 Te0 1.955372 1_555
O4 Te0 1.950924 1_565
O5 Te0 1.994362 1_565
O6 Te0 1.950924 1_555
O7 Te0 1.994362 1_555
