# generated using pymatgen
data_Sr7CaFe7CoO20
_symmetry_space_group_name_H-M   'P 1'
_cell_length_a   11.07395639
_cell_length_b   11.43169761
_cell_length_c   17.64736622
_cell_angle_alpha   108.83490992
_cell_angle_beta   108.33029244
_cell_angle_gamma   89.93528516
_symmetry_Int_Tables_number   1
_chemical_formula_structural   Sr7CaFe7CoO20
_chemical_formula_sum   'Sr28 Ca4 Fe28 Co4 O80'
_cell_volume   1994.56522954
_cell_formula_units_Z   4
loop_
 _symmetry_equiv_pos_site_id
 _symmetry_equiv_pos_as_xyz
  1  'x, y, z'
loop_
 _atom_site_type_symbol
 _atom_site_label
 _atom_site_symmetry_multiplicity
 _atom_site_fract_x
 _atom_site_fract_y
 _atom_site_fract_z
 _atom_site_occupancy
  Sr  Sr0  1  0.30559726  0.06419184  0.60932484  1
  Sr  Sr1  1  0.30605785  0.56358166  0.60951408  1
  Sr  Sr2  1  0.80690091  0.06410376  0.60961323  1
  Sr  Sr3  1  0.80788038  0.56527974  0.10845122  1
  Sr  Sr4  1  0.80673118  0.56379757  0.60944811  1
  Sr  Sr5  1  0.19585368  0.43434075  0.38897411  1
  Sr  Sr6  1  0.19502430  0.43896738  0.89290000  1
  Sr  Sr7  1  0.19653291  0.93561233  0.38780376  1
  Sr  Sr8  1  0.19724955  0.93663245  0.89324962  1
  Sr  Sr9  1  0.69583258  0.43576469  0.38959438  1
  Sr  Sr10  1  0.70317893  0.43972853  0.89333184  1
  Sr  Sr11  1  0.69477515  0.93545465  0.38962749  1
  Sr  Sr12  1  0.69963883  0.93455746  0.89360282  1
  Sr  Sr13  1  0.05591273  0.29335048  0.10998366  1
  Sr  Sr14  1  0.05663099  0.29616164  0.60943324  1
  Sr  Sr15  1  0.05652749  0.79616593  0.60917218  1
  Sr  Sr16  1  0.55769537  0.29112386  0.10953152  1
  Sr  Sr17  1  0.55505110  0.29576062  0.60891247  1
  Sr  Sr18  1  0.55875932  0.79656721  0.10916315  1
  Sr  Sr19  1  0.55549750  0.79599902  0.60908197  1
  Sr  Sr20  1  0.44563302  0.20206953  0.38652880  1
  Sr  Sr21  1  0.44774659  0.20432622  0.89252829  1
  Sr  Sr22  1  0.44551652  0.70318094  0.38708832  1
  Sr  Sr23  1  0.45208911  0.70852237  0.89384600  1
  Sr  Sr24  1  0.94465851  0.20227768  0.38780142  1
  Sr  Sr25  1  0.94972252  0.20677840  0.89301789  1
  Sr  Sr26  1  0.94514572  0.70386291  0.38876172  1
  Sr  Sr27  1  0.94672879  0.70633914  0.89402913  1
  Ca  Ca0  1  0.29646015  0.06558821  0.10549097  1
  Ca  Ca1  1  0.29705103  0.56724342  0.10530541  1
  Ca  Ca2  1  0.79770185  0.06457308  0.10525408  1
  Ca  Ca3  1  0.04850433  0.78669296  0.10590082  1
  Fe  Fe0  1  0.00313626  0.99953063  0.49817127  1
  Fe  Fe1  1  0.00341614  0.49955051  0.49913694  1
  Fe  Fe2  1  0.50353034  0.00044979  0.50002765  1
  Fe  Fe3  1  0.50606589  0.50248715  0.00295736  1
  Fe  Fe4  1  0.50389418  0.50039062  0.49991062  1
  Fe  Fe5  1  0.25665665  0.25182812  0.00479664  1
  Fe  Fe6  1  0.25258457  0.24852525  0.49778566  1
  Fe  Fe7  1  0.25641268  0.75406685  0.00645413  1
  Fe  Fe8  1  0.25332077  0.74959413  0.49892427  1
  Fe  Fe9  1  0.75611022  0.24844359  0.00143551  1
  Fe  Fe10  1  0.75313668  0.24963928  0.49941360  1
  Fe  Fe11  1  0.75376869  0.75016892  0.50058131  1
  Fe  Fe12  1  0.10460496  0.08579072  0.24642579  1
  Fe  Fe13  1  0.10859131  0.09183675  0.75153844  1
  Fe  Fe14  1  0.11055696  0.59248672  0.25046063  1
  Fe  Fe15  1  0.10889260  0.59236138  0.75177531  1
  Fe  Fe16  1  0.60508812  0.08903714  0.24878558  1
  Fe  Fe17  1  0.60890761  0.09128597  0.75127880  1
  Fe  Fe18  1  0.60348408  0.58929011  0.24658242  1
  Fe  Fe19  1  0.60828320  0.59050132  0.74970522  1
  Fe  Fe20  1  0.35671951  0.40835893  0.24647363  1
  Fe  Fe21  1  0.35890931  0.41017341  0.75147143  1
  Fe  Fe22  1  0.35035035  0.90723639  0.24430310  1
  Fe  Fe23  1  0.35774153  0.90892867  0.74856628  1
  Fe  Fe24  1  0.85721921  0.40680744  0.24857145  1
  Fe  Fe25  1  0.85766830  0.40902133  0.74839655  1
  Fe  Fe26  1  0.85840225  0.91294266  0.24853745  1
  Fe  Fe27  1  0.85774226  0.90875128  0.74944545  1
  Co  Co0  1  0.00807646  0.00223094  0.00746082  1
  Co  Co1  1  0.00877414  0.50305404  0.00602909  1
  Co  Co2  1  0.50666665  0.00242690  0.00474985  1
  Co  Co3  1  0.75932893  0.75569841  0.00617245  1
  O  O0  1  0.12429025  0.12251553  0.49181773  1
  O  O1  1  0.12569106  0.12143347  0.99417143  1
  O  O2  1  0.12331507  0.62131434  0.49049292  1
  O  O3  1  0.12540097  0.62209075  0.99672739  1
  O  O4  1  0.62245091  0.12155537  0.49121172  1
  O  O5  1  0.62551721  0.12133498  0.99326463  1
  O  O6  1  0.62294103  0.62206065  0.49079327  1
  O  O7  1  0.62497334  0.62152916  0.99264120  1
  O  O8  1  0.13565132  0.38649989  0.01413433  1
  O  O9  1  0.13221597  0.37691283  0.50711423  1
  O  O10  1  0.13472209  0.88133321  0.01565182  1
  O  O11  1  0.13172678  0.87792225  0.50710566  1
  O  O12  1  0.63396821  0.37581138  0.00907935  1
  O  O13  1  0.63097226  0.37777655  0.50729196  1
  O  O14  1  0.63309476  0.88740006  0.01245703  1
  O  O15  1  0.63032084  0.87767873  0.50632544  1
  O  O16  1  0.37395087  0.11958232  0.49148304  1
  O  O17  1  0.37683030  0.11821610  0.99466636  1
  O  O18  1  0.37351039  0.61861170  0.49017965  1
  O  O19  1  0.37384805  0.62068133  0.99395636  1
  O  O20  1  0.87344070  0.11911925  0.49076291  1
  O  O21  1  0.87690765  0.11765866  0.99508551  1
  O  O22  1  0.87337437  0.61940448  0.49053582  1
  O  O23  1  0.88420615  0.61444276  0.99478525  1
  O  O24  1  0.38247506  0.38374916  0.01280456  1
  O  O25  1  0.38084687  0.37848272  0.50533392  1
  O  O26  1  0.38323569  0.88647874  0.01368449  1
  O  O27  1  0.38218300  0.88046596  0.50673941  1
  O  O28  1  0.88728296  0.38283605  0.01049909  1
  O  O29  1  0.88166332  0.37971724  0.50685755  1
  O  O30  1  0.89173618  0.88904084  0.01827663  1
  O  O31  1  0.88110072  0.87969234  0.50621820  1
  O  O32  1  0.10247864  0.10580300  0.14661495  1
  O  O33  1  0.08108795  0.09480934  0.64025557  1
  O  O34  1  0.09426536  0.60905576  0.14680972  1
  O  O35  1  0.08136940  0.59472259  0.63993923  1
  O  O36  1  0.60238988  0.10283646  0.14717789  1
  O  O37  1  0.58158118  0.09411183  0.63969768  1
  O  O38  1  0.58729730  0.59632006  0.13947261  1
  O  O39  1  0.57868500  0.59259790  0.63744559  1
  O  O40  1  0.44225866  0.40633992  0.35761110  1
  O  O41  1  0.44171019  0.40419415  0.86082957  1
  O  O42  1  0.43618436  0.90779646  0.35655096  1
  O  O43  1  0.44215586  0.89688141  0.85342620  1
  O  O44  1  0.94065446  0.40408690  0.35965750  1
  O  O45  1  0.94252617  0.39702584  0.85349100  1
  O  O46  1  0.94363896  0.90968966  0.36015686  1
  O  O47  1  0.94269680  0.89658452  0.85456742  1
  O  O48  1  0.33233727  0.28505003  0.13969729  1
  O  O49  1  0.33176747  0.29616144  0.64004092  1
  O  O50  1  0.33529680  0.78474881  0.13954956  1
  O  O51  1  0.32910239  0.79497548  0.63648560  1
  O  O52  1  0.83237483  0.28789966  0.14010632  1
  O  O53  1  0.82976852  0.29486952  0.63673426  1
  O  O54  1  0.84217473  0.79316329  0.14429099  1
  O  O55  1  0.82859198  0.79548683  0.63669063  1
  O  O56  1  0.18927435  0.19846689  0.35957459  1
  O  O57  1  0.19225431  0.20545948  0.86240676  1
  O  O58  1  0.19219582  0.70593874  0.36194246  1
  O  O59  1  0.19215531  0.70491517  0.86246178  1
  O  O60  1  0.68565369  0.20322976  0.36098639  1
  O  O61  1  0.69432361  0.20463048  0.86180457  1
  O  O62  1  0.68572975  0.70340027  0.35801802  1
  O  O63  1  0.69531940  0.70481619  0.85690549  1
  O  O64  1  0.42525633  0.05718166  0.23953705  1
  O  O65  1  0.43530825  0.06258716  0.75008020  1
  O  O66  1  0.42616298  0.55892031  0.24017631  1
  O  O67  1  0.43548516  0.56162467  0.75101223  1
  O  O68  1  0.92671484  0.06391025  0.24167245  1
  O  O69  1  0.93523719  0.06156555  0.75041576  1
  O  O70  1  0.93705658  0.55687610  0.24883950  1
  O  O71  1  0.93557576  0.56219253  0.75051749  1
  O  O72  1  0.18634239  0.43987502  0.24956869  1
  O  O73  1  0.18527054  0.43985898  0.75050782  1
  O  O74  1  0.17373504  0.92801300  0.24120478  1
  O  O75  1  0.18495784  0.94007192  0.75058385  1
  O  O76  1  0.68509246  0.44030628  0.24940226  1
  O  O77  1  0.68430069  0.43817613  0.74932239  1
  O  O78  1  0.68529999  0.93839719  0.25062924  1
  O  O79  1  0.68473218  0.93953486  0.75039039  1
loop_
_geom_bond_atom_site_label_1
_geom_bond_atom_site_label_2
_geom_bond_distance
_geom_bond_site_symmetry_2
Ca0 O64 2.379850 1_555
Ca0 O48 2.385365 1_555
Ca0 O32 2.472947 1_555
Ca0 O10 2.494882 1_545
Ca0 O1 2.512642 1_554
Ca0 O26 2.563891 1_545
Ca0 O17 2.614362 1_554
Ca1 O50 2.366056 1_555
Ca1 O66 2.392429 1_555
Ca1 O8 2.470927 1_555
Ca1 O3 2.481924 1_554
Ca1 O34 2.571755 1_555
Ca1 O24 2.591447 1_555
Ca1 O19 2.604826 1_554
Ca2 O68 2.384380 1_555
Ca2 O52 2.425560 1_555
Ca2 O14 2.468986 1_545
Ca2 O36 2.492418 1_555
Ca2 O5 2.533300 1_554
Ca2 O30 2.545356 1_545
Ca2 O21 2.598671 1_554
Ca3 O34 2.369782 1_555
Ca3 O74 2.380352 1_555
Ca3 O30 2.499801 1_455
Ca3 O23 2.510728 1_454
Ca3 O54 2.574117 1_455
Ca3 O3 2.581716 1_554
Ca3 O10 2.586506 1_555
Fe0 O20 1.985375 1_465
Fe0 O31 1.993433 1_455
Fe0 O11 1.995273 1_555
Fe0 O0 1.997473 1_565
Fe0 O46 2.190443 1_455
Fe0 O33 2.257416 1_565
Fe1 O29 1.988288 1_455
Fe1 O22 1.991599 1_455
Fe1 O2 1.998112 1_555
Fe1 O9 2.004076 1_555
Fe1 O44 2.218998 1_455
Fe1 O35 2.238410 1_555
Fe2 O27 1.977455 1_545
Fe2 O16 1.982085 1_555
Fe2 O4 1.986763 1_555
Fe2 O15 1.987874 1_545
Fe2 O37 2.219647 1_555
Fe2 O42 2.274082 1_545
Fe3 O7 1.983371 1_554
Fe3 O19 1.995619 1_554
Fe3 O24 2.012944 1_555
Fe3 O12 2.028547 1_555
Fe3 O38 2.175829 1_555
Fe3 O41 2.262566 1_554
Fe4 O18 1.982470 1_555
Fe4 O13 1.990026 1_555
Fe4 O25 1.995117 1_555
Fe4 O6 1.995119 1_555
Fe4 O39 2.184872 1_555
Fe4 O40 2.260146 1_555
Fe5 O24 1.994712 1_555
Fe5 O1 2.003471 1_554
Fe5 O17 2.026009 1_554
Fe5 O8 2.040427 1_555
Fe5 O48 2.162421 1_555
Fe5 O57 2.262171 1_554
Fe6 O0 1.979181 1_555
Fe6 O9 1.983829 1_555
Fe6 O16 1.993789 1_555
Fe6 O25 2.000072 1_555
Fe6 O56 2.189094 1_555
Fe6 O49 2.258645 1_555
Fe7 O10 1.984864 1_555
Fe7 O19 2.005927 1_554
Fe7 O26 2.011804 1_555
Fe7 O3 2.022779 1_554
Fe7 O50 2.140353 1_555
Fe7 O59 2.284916 1_554
Fe8 O11 1.991771 1_555
Fe8 O2 1.993602 1_555
Fe8 O18 2.003212 1_555
Fe8 O27 2.010342 1_555
Fe8 O58 2.177959 1_555
Fe8 O51 2.184724 1_555
Fe9 O12 1.987770 1_555
Fe9 O5 1.990461 1_554
Fe9 O21 2.004722 1_554
Fe9 O28 2.048460 1_555
Fe9 O52 2.212139 1_555
Fe9 O61 2.221330 1_554
Fe10 O13 1.994383 1_555
Fe10 O4 1.998870 1_555
Fe10 O20 2.000198 1_555
Fe10 O29 2.003818 1_555
Fe10 O53 2.181409 1_555
Fe10 O60 2.196218 1_555
Fe11 O6 1.989371 1_555
Fe11 O15 1.997781 1_555
Fe11 O22 1.998114 1_555
Fe11 O31 2.002990 1_555
Fe11 O55 2.161034 1_555
Fe11 O62 2.263453 1_555
Fe12 O32 1.841061 1_555
Fe12 O56 1.920891 1_555
Fe12 O74 1.944661 1_545
Fe12 O68 1.958040 1_455
Fe13 O57 1.896097 1_555
Fe13 O33 1.901965 1_555
Fe13 O75 1.926711 1_545
Fe13 O69 1.943863 1_455
Fe14 O34 1.852116 1_555
Fe14 O58 1.899033 1_555
Fe14 O72 1.932748 1_555
Fe14 O70 1.953905 1_455
Fe15 O59 1.888975 1_555
Fe15 O35 1.909133 1_555
Fe15 O73 1.933543 1_555
Fe15 O71 1.942399 1_455
Fe16 O36 1.841180 1_555
Fe16 O60 1.908721 1_555
Fe16 O78 1.941685 1_545
Fe16 O64 1.970773 1_555
Fe17 O61 1.894332 1_555
Fe17 O37 1.906902 1_555
Fe17 O79 1.924102 1_545
Fe17 O65 1.942985 1_555
Fe18 O38 1.869867 1_555
Fe18 O62 1.902157 1_555
Fe18 O76 1.934642 1_555
Fe18 O66 1.955962 1_555
Fe19 O63 1.864223 1_555
Fe19 O39 1.911786 1_555
Fe19 O77 1.932257 1_555
Fe19 O67 1.950721 1_555
Fe20 O48 1.891138 1_555
Fe20 O40 1.898705 1_555
Fe20 O72 1.934731 1_555
Fe20 O66 1.935566 1_555
Fe21 O41 1.881988 1_555
Fe21 O49 1.905322 1_555
Fe21 O67 1.932206 1_555
Fe21 O73 1.947963 1_555
Fe22 O50 1.881808 1_555
Fe22 O42 1.906551 1_555
Fe22 O64 1.942570 1_565
Fe22 O74 1.955696 1_555
Fe23 O43 1.842113 1_555
Fe23 O51 1.911139 1_555
Fe23 O65 1.944937 1_565
Fe23 O75 1.955055 1_555
Fe24 O52 1.891270 1_555
Fe24 O44 1.896774 1_555
Fe24 O70 1.928812 1_555
Fe24 O76 1.947429 1_555
Fe25 O45 1.846417 1_555
Fe25 O53 1.907620 1_555
Fe25 O71 1.937147 1_555
Fe25 O77 1.952434 1_555
Fe26 O54 1.859501 1_555
Fe26 O46 1.910537 1_555
Fe26 O68 1.939327 1_565
Fe26 O78 1.948579 1_555
Fe27 O47 1.847826 1_555
Fe27 O55 1.916635 1_555
Fe27 O69 1.939933 1_565
Fe27 O79 1.951819 1_555
Co0 O30 1.920546 1_445
Co0 O21 1.970025 1_454
Co0 O10 1.973581 1_545
Co0 O1 2.002699 1_554
Co0 O32 2.244082 1_555
Co0 O47 2.435585 1_444
Co1 O23 1.884342 1_454
Co1 O8 1.939669 1_555
Co1 O3 1.956597 1_554
Co1 O28 1.961099 1_455
Co1 O34 2.261921 1_555
Co1 O45 2.430384 1_454
Co2 O14 1.923359 1_545
Co2 O17 1.959054 1_554
Co2 O26 1.981084 1_545
Co2 O5 1.992687 1_554
Co2 O36 2.285353 1_555
Co2 O43 2.412274 1_544
Co3 O30 2.029032 1_555
Co3 O7 2.041666 1_554
Co3 O14 2.053815 1_555
Co3 O23 2.126154 1_554
Co3 O54 2.210539 1_555
Co3 O63 2.369977 1_554
O0 Sr24 2.633975 1_455
O0 Sr7 2.638554 1_545
O0 Sr0 2.654587 1_555
O0 Sr14 2.669171 1_555
O1 Sr8 2.591811 1_545
O1 Sr25 2.620686 1_455
O1 Sr13 2.651977 1_556
O2 Sr5 2.617686 1_555
O2 Sr26 2.620717 1_455
O2 Sr1 2.676022 1_555
O2 Sr15 2.682673 1_555
O3 Sr6 2.596600 1_555
O3 Sr27 2.644673 1_455
O4 Sr11 2.611120 1_545
O4 Sr20 2.629182 1_555
O4 Sr17 2.671759 1_555
O4 Sr2 2.677310 1_555
O5 Sr12 2.608707 1_545
O5 Sr21 2.611402 1_555
O5 Sr16 2.633614 1_556
O6 Sr9 2.612198 1_555
O6 Sr22 2.626727 1_555
O6 Sr19 2.677007 1_555
O6 Sr4 2.680942 1_555
O7 Sr23 2.590322 1_555
O7 Sr10 2.596069 1_555
O7 Sr3 2.633414 1_556
O7 Sr18 2.656745 1_556
O8 Sr13 2.622856 1_555
O8 Sr6 2.661506 1_554
O8 Sr25 2.726706 1_454
O9 Sr14 2.615688 1_555
O9 Sr1 2.618505 1_555
O9 Sr5 2.661430 1_555
O9 Sr24 2.697656 1_455
O10 Sr8 2.714494 1_554
O10 Sr27 2.714623 1_454
O11 Sr0 2.615341 1_565
O11 Sr15 2.616009 1_555
O11 Sr26 2.683650 1_455
O11 Sr7 2.688955 1_555
O12 Sr16 2.616289 1_555
O12 Sr3 2.628361 1_555
O12 Sr21 2.657817 1_554
O12 Sr10 2.691351 1_554
O13 Sr17 2.614909 1_555
O13 Sr4 2.624391 1_555
O13 Sr9 2.664200 1_555
O13 Sr20 2.698704 1_555
O14 Sr18 2.588080 1_555
O14 Sr12 2.633662 1_554
O14 Sr23 2.680901 1_554
O15 Sr19 2.624292 1_555
O15 Sr2 2.635775 1_565
O15 Sr11 2.644004 1_555
O15 Sr22 2.680587 1_555
O16 Sr7 2.625734 1_545
O16 Sr20 2.646510 1_555
O16 Sr17 2.659498 1_555
O16 Sr0 2.672095 1_555
O17 Sr8 2.615103 1_545
O17 Sr21 2.621523 1_555
O17 Sr16 2.625983 1_556
O18 Sr5 2.620655 1_555
O18 Sr22 2.632520 1_555
O18 Sr19 2.679276 1_555
O18 Sr1 2.689722 1_555
O19 Sr6 2.610189 1_555
O19 Sr23 2.643956 1_555
O19 Sr18 2.668443 1_556
O20 Sr24 2.616397 1_555
O20 Sr11 2.622408 1_545
O20 Sr2 2.676271 1_555
O20 Sr14 2.682841 1_655
O21 Sr12 2.611475 1_545
O21 Sr13 2.631743 1_656
O21 Sr25 2.651948 1_555
O22 Sr26 2.609396 1_555
O22 Sr9 2.614890 1_555
O22 Sr15 2.680836 1_655
O22 Sr4 2.681210 1_555
O23 Sr10 2.579918 1_555
O23 Sr27 2.593578 1_555
O23 Sr3 2.617123 1_556
O24 Sr16 2.622808 1_555
O24 Sr6 2.698451 1_554
O24 Sr21 2.717603 1_554
O25 Sr17 2.617441 1_555
O25 Sr1 2.642984 1_555
O25 Sr5 2.649319 1_555
O25 Sr20 2.681470 1_555
O26 Sr18 2.593714 1_555
O26 Sr8 2.668077 1_554
O26 Sr23 2.724935 1_554
O27 Sr19 2.611412 1_555
O27 Sr0 2.629559 1_565
O27 Sr7 2.677078 1_555
O27 Sr22 2.687560 1_555
O28 Sr13 2.590195 1_655
O28 Sr3 2.595220 1_555
O28 Sr25 2.651684 1_554
O28 Sr10 2.658698 1_554
O29 Sr14 2.617161 1_655
O29 Sr4 2.622143 1_555
O29 Sr9 2.665015 1_555
O29 Sr24 2.680009 1_555
O30 Sr27 2.724119 1_554
O30 Sr12 2.725725 1_554
O31 Sr15 2.623472 1_655
O31 Sr2 2.627580 1_565
O31 Sr11 2.659094 1_555
O31 Sr26 2.659135 1_555
O32 Sr13 2.441969 1_555
O33 Sr14 2.526230 1_555
O33 Sr0 2.707387 1_555
O33 Sr2 2.912398 1_455
O34 Sr3 3.033326 1_455
O35 Sr15 2.526954 1_555
O35 Sr1 2.705735 1_555
O35 Sr4 2.917958 1_455
O36 Sr16 2.456310 1_555
O37 Sr17 2.530230 1_555
O37 Sr2 2.709092 1_555
O37 Sr0 2.932314 1_555
O38 Sr18 2.511750 1_555
O38 Sr3 2.665757 1_555
O39 Sr19 2.528326 1_555
O39 Sr4 2.721751 1_555
O39 Sr1 2.903169 1_555
O40 Sr20 2.544021 1_555
O40 Sr9 2.683207 1_555
O40 Sr5 2.947549 1_555
O41 Sr21 2.517786 1_555
O41 Sr10 2.772270 1_555
O41 Sr6 2.960700 1_555
O42 Sr22 2.559461 1_555
O42 Sr11 2.733593 1_555
O42 Sr7 2.872966 1_555
O43 Sr23 2.469673 1_555
O43 Sr12 2.711538 1_555
O43 Sr8 3.007598 1_555
O44 Sr24 2.509332 1_555
O44 Sr5 2.709419 1_655
O44 Sr9 2.921597 1_555
O45 Sr25 2.483361 1_555
O45 Sr6 2.663946 1_655
O45 Sr10 2.950510 1_555
O46 Sr26 2.559885 1_555
O46 Sr7 2.686625 1_655
O46 Sr11 2.958554 1_555
O47 Sr27 2.484949 1_555
O47 Sr8 2.685626 1_655
O47 Sr12 2.979648 1_555
O48 Sr16 2.715907 1_555
O48 Sr13 2.945544 1_555
O49 Sr0 2.526794 1_555
O49 Sr17 2.695999 1_555
O49 Sr14 2.922310 1_555
O50 Sr18 2.704019 1_555
O51 Sr1 2.530030 1_555
O51 Sr19 2.699228 1_555
O51 Sr15 2.903921 1_555
O52 Sr13 2.695133 1_655
O52 Sr16 2.919800 1_555
O53 Sr2 2.522401 1_555
O53 Sr14 2.703667 1_655
O53 Sr17 2.925724 1_555
O54 Sr3 2.473471 1_555
O54 Sr18 3.004614 1_555
O55 Sr4 2.531974 1_555
O55 Sr15 2.716746 1_655
O55 Sr19 2.908338 1_555
O56 Sr5 2.572671 1_555
O56 Sr20 2.724991 1_555
O56 Sr24 2.902144 1_455
O56 Sr7 3.197612 1_545
O57 Sr6 2.545284 1_555
O57 Sr21 2.710372 1_555
O57 Sr25 2.900471 1_455
O58 Sr7 2.513354 1_555
O58 Sr22 2.700601 1_555
O58 Sr26 2.920809 1_455
O59 Sr8 2.523281 1_555
O59 Sr23 2.752624 1_555
O59 Sr27 2.940007 1_455
O60 Sr9 2.536203 1_555
O60 Sr24 2.756848 1_555
O60 Sr20 2.832973 1_555
O61 Sr10 2.557927 1_555
O61 Sr25 2.704567 1_555
O61 Sr21 2.946613 1_555
O62 Sr11 2.523569 1_555
O62 Sr26 2.750450 1_555
O62 Sr22 2.863318 1_555
O63 Sr12 2.490362 1_555
O63 Sr27 2.650697 1_555
O63 Sr23 2.961113 1_555
O64 Sr20 2.526203 1_555
O65 Sr0 2.453328 1_555
O65 Sr21 2.473149 1_555
O66 Sr22 2.525442 1_555
O67 Sr1 2.464749 1_555
O67 Sr23 2.486668 1_555
O68 Sr24 2.497252 1_555
O69 Sr2 2.453588 1_555
O69 Sr25 2.482695 1_555
O70 Sr26 2.472021 1_555
O70 Sr3 2.473394 1_555
O71 Sr4 2.455402 1_555
O71 Sr27 2.500754 1_555
O72 Sr5 2.450485 1_555
O72 Sr13 2.462358 1_555
O73 Sr14 2.461668 1_555
O73 Sr6 2.484348 1_555
O74 Sr7 2.491668 1_555
O75 Sr15 2.465535 1_555
O75 Sr8 2.491408 1_555
O76 Sr9 2.456719 1_555
O76 Sr16 2.467499 1_555
O77 Sr17 2.451276 1_555
O77 Sr10 2.477777 1_555
O78 Sr11 2.433207 1_555
O78 Sr18 2.452781 1_555
O79 Sr19 2.465301 1_555
O79 Sr12 2.499653 1_555
