# generated using pymatgen
data_RbMg30BO31
_symmetry_space_group_name_H-M   'P 1'
_cell_length_a   8.41484700
_cell_length_b   8.59504400
_cell_length_c   8.84210400
_cell_angle_alpha   90.00000000
_cell_angle_beta   90.00000000
_cell_angle_gamma   90.00000000
_symmetry_Int_Tables_number   1
_chemical_formula_structural   RbMg30BO31
_chemical_formula_sum   'Rb1 Mg30 B1 O31'
_cell_volume   639.51383899
_cell_formula_units_Z   1
loop_
 _symmetry_equiv_pos_site_id
 _symmetry_equiv_pos_as_xyz
  1  'x, y, z'
loop_
 _atom_site_type_symbol
 _atom_site_label
 _atom_site_symmetry_multiplicity
 _atom_site_fract_x
 _atom_site_fract_y
 _atom_site_fract_z
 _atom_site_occupancy
  Rb  Rb0  1  0.00000000  0.98045100  0.00000000  1
  Mg  Mg0  1  0.00000000  0.00142800  0.50000000  1
  Mg  Mg1  1  0.50000000  0.99665800  0.50000000  1
  Mg  Mg2  1  0.00000000  0.50863200  0.00000000  1
  Mg  Mg3  1  0.50000000  0.49236800  0.00000000  1
  Mg  Mg4  1  0.00000000  0.49794800  0.50000000  1
  Mg  Mg5  1  0.50000000  0.50154600  0.50000000  1
  Mg  Mg6  1  0.25751600  0.00042000  0.26447800  1
  Mg  Mg7  1  0.74248400  0.00042000  0.26447800  1
  Mg  Mg8  1  0.25751600  0.00042000  0.73552200  1
  Mg  Mg9  1  0.74248400  0.00042000  0.73552200  1
  Mg  Mg10  1  0.25050000  0.49873900  0.25023100  1
  Mg  Mg11  1  0.74950000  0.49873900  0.25023100  1
  Mg  Mg12  1  0.25050000  0.49873900  0.74976900  1
  Mg  Mg13  1  0.74950000  0.49873900  0.74976900  1
  Mg  Mg14  1  0.26778700  0.73751100  0.00000000  1
  Mg  Mg15  1  0.73221300  0.73751100  0.00000000  1
  Mg  Mg16  1  0.25316000  0.74793500  0.50000000  1
  Mg  Mg17  1  0.74684000  0.74793500  0.50000000  1
  Mg  Mg18  1  0.24506400  0.25607800  0.00000000  1
  Mg  Mg19  1  0.75493600  0.25607800  0.00000000  1
  Mg  Mg20  1  0.24833400  0.25145200  0.50000000  1
  Mg  Mg21  1  0.75166600  0.25145200  0.50000000  1
  Mg  Mg22  1  0.00000000  0.74605100  0.26316900  1
  Mg  Mg23  1  0.50000000  0.75473500  0.24369600  1
  Mg  Mg24  1  0.00000000  0.74605100  0.73683100  1
  Mg  Mg25  1  0.50000000  0.75473500  0.75630400  1
  Mg  Mg26  1  0.00000000  0.25061500  0.25347800  1
  Mg  Mg27  1  0.50000000  0.24771900  0.26384100  1
  Mg  Mg28  1  0.00000000  0.25061500  0.74652200  1
  Mg  Mg29  1  0.50000000  0.24771900  0.73615900  1
  B  B0  1  0.50000000  0.06663500  0.00000000  1
  O  O0  1  0.50000000  0.72213500  0.00000000  1
  O  O1  1  0.00000000  0.74420100  0.50000000  1
  O  O2  1  0.50000000  0.74509400  0.50000000  1
  O  O3  1  0.00000000  0.27173100  0.00000000  1
  O  O4  1  0.50000000  0.23669000  0.00000000  1
  O  O5  1  0.00000000  0.25426700  0.50000000  1
  O  O6  1  0.50000000  0.25494700  0.50000000  1
  O  O7  1  0.25140300  0.75275100  0.24804000  1
  O  O8  1  0.74859700  0.75275100  0.24804000  1
  O  O9  1  0.25140300  0.75275100  0.75196000  1
  O  O10  1  0.74859700  0.75275100  0.75196000  1
  O  O11  1  0.25000900  0.24711500  0.24809500  1
  O  O12  1  0.74999100  0.24711500  0.24809500  1
  O  O13  1  0.25000900  0.24711500  0.75190500  1
  O  O14  1  0.74999100  0.24711500  0.75190500  1
  O  O15  1  0.34004900  0.00976900  0.00000000  1
  O  O16  1  0.65995100  0.00976900  0.00000000  1
  O  O17  1  0.25099700  0.99977200  0.50000000  1
  O  O18  1  0.74900300  0.99977200  0.50000000  1
  O  O19  1  0.25531200  0.49261800  0.00000000  1
  O  O20  1  0.74468800  0.49261800  0.00000000  1
  O  O21  1  0.25112300  0.49969700  0.50000000  1
  O  O22  1  0.74887700  0.49969700  0.50000000  1
  O  O23  1  0.00000000  0.00050900  0.27614400  1
  O  O24  1  0.50000000  0.00306600  0.27374100  1
  O  O25  1  0.00000000  0.00050900  0.72385600  1
  O  O26  1  0.50000000  0.00306600  0.72625900  1
  O  O27  1  0.00000000  0.49861300  0.25746400  1
  O  O28  1  0.50000000  0.49344500  0.25055500  1
  O  O29  1  0.00000000  0.49861300  0.74253600  1
  O  O30  1  0.50000000  0.49344500  0.74944500  1
loop_
_geom_bond_atom_site_label_1
_geom_bond_atom_site_label_2
_geom_bond_distance
_geom_bond_site_symmetry_2
Mg0 O25 1.979374 1_555
Mg0 O23 1.979374 1_555
Mg0 O17 2.112149 1_545
Mg0 O18 2.112149 1_445
Mg0 O5 2.173162 1_555
Mg0 O1 2.210877 1_545
Mg1 O26 2.001364 1_565
Mg1 O24 2.001364 1_565
Mg1 O18 2.095493 1_555
Mg1 O17 2.095493 1_555
Mg1 O2 2.162204 1_555
Mg1 O6 2.220005 1_565
Mg2 O3 2.036175 1_555
Mg2 O20 2.152816 1_455
Mg2 O19 2.152816 1_555
Mg2 O27 2.278152 1_555
Mg2 O29 2.278152 1_554
Mg3 O0 1.974857 1_555
Mg3 O19 2.059013 1_555
Mg3 O20 2.059013 1_555
Mg3 O4 2.197564 1_555
Mg3 O28 2.215453 1_555
Mg3 O30 2.215453 1_554
Mg4 O5 2.094449 1_555
Mg4 O21 2.113215 1_555
Mg4 O22 2.113215 1_455
Mg4 O1 2.116555 1_555
Mg4 O29 2.144536 1_555
Mg4 O27 2.144536 1_555
Mg5 O2 2.093306 1_555
Mg5 O22 2.094322 1_555
Mg5 O21 2.094322 1_555
Mg5 O6 2.119529 1_555
Mg5 O30 2.206717 1_555
Mg5 O28 2.206717 1_555
Mg6 O24 2.042236 1_555
Mg6 O17 2.083240 1_545
Mg6 O11 2.126236 1_555
Mg6 O7 2.134302 1_545
Mg6 O23 2.169412 1_555
Mg6 O15 2.440813 1_555
Mg7 O24 2.042236 1_555
Mg7 O18 2.083240 1_545
Mg7 O12 2.126236 1_555
Mg7 O8 2.134302 1_545
Mg7 O23 2.169412 1_655
Mg7 O16 2.440813 1_555
Mg8 O26 2.042236 1_555
Mg8 O17 2.083240 1_545
Mg8 O13 2.126236 1_555
Mg8 O9 2.134302 1_545
Mg8 O25 2.169412 1_555
Mg8 O15 2.440813 1_556
Mg9 O26 2.042236 1_555
Mg9 O18 2.083240 1_545
Mg9 O14 2.126236 1_555
Mg9 O10 2.134302 1_545
Mg9 O25 2.169412 1_655
Mg9 O16 2.440813 1_556
Mg10 O28 2.099999 1_555
Mg10 O27 2.108889 1_555
Mg10 O11 2.162806 1_555
Mg10 O7 2.183343 1_555
Mg10 O21 2.208505 1_555
Mg10 O19 2.213564 1_555
Mg11 O28 2.099999 1_555
Mg11 O27 2.108889 1_655
Mg11 O12 2.162806 1_555
Mg11 O8 2.183343 1_555
Mg11 O22 2.208505 1_555
Mg11 O20 2.213564 1_555
Mg12 O30 2.099999 1_555
Mg12 O29 2.108889 1_555
Mg12 O13 2.162806 1_555
Mg12 O9 2.183343 1_555
Mg12 O21 2.208505 1_555
Mg12 O19 2.213564 1_556
Mg13 O30 2.099999 1_555
Mg13 O29 2.108889 1_655
Mg13 O14 2.162806 1_555
Mg13 O10 2.183343 1_555
Mg13 O22 2.208505 1_555
Mg13 O20 2.213564 1_556
Mg14 O0 1.958501 1_555
Mg14 O19 2.107482 1_555
Mg14 O9 2.201425 1_554
Mg14 O7 2.201425 1_555
Mg14 O15 2.417784 1_565
Mg15 O0 1.958501 1_555
Mg15 O20 2.107482 1_555
Mg15 O10 2.201425 1_554
Mg15 O8 2.201425 1_555
Mg15 O16 2.417784 1_565
Mg16 O2 2.077264 1_555
Mg16 O1 2.130544 1_555
Mg16 O21 2.133685 1_555
Mg16 O17 2.164627 1_555
Mg16 O7 2.228290 1_555
Mg16 O9 2.228290 1_555
Mg17 O2 2.077264 1_555
Mg17 O1 2.130544 1_655
Mg17 O22 2.133685 1_555
Mg17 O18 2.164627 1_555
Mg17 O8 2.228290 1_555
Mg17 O10 2.228290 1_555
Mg18 O19 2.034900 1_555
Mg18 O3 2.066560 1_555
Mg18 O4 2.151710 1_555
Mg18 O11 2.195428 1_555
Mg18 O13 2.195428 1_554
Mg18 O15 2.262896 1_555
Mg19 O20 2.034900 1_555
Mg19 O3 2.066560 1_655
Mg19 O4 2.151710 1_555
Mg19 O12 2.195428 1_555
Mg19 O14 2.195428 1_554
Mg19 O16 2.262896 1_555
Mg20 O5 2.089833 1_555
Mg20 O6 2.117944 1_555
Mg20 O21 2.133806 1_555
Mg20 O17 2.163317 1_545
Mg20 O13 2.227727 1_555
Mg20 O11 2.227727 1_555
Mg21 O5 2.089833 1_655
Mg21 O6 2.117944 1_555
Mg21 O22 2.133806 1_555
Mg21 O18 2.163317 1_545
Mg21 O14 2.227727 1_555
Mg21 O12 2.227727 1_555
Mg22 O1 2.094145 1_555
Mg22 O7 2.120525 1_555
Mg22 O8 2.120525 1_455
Mg22 O27 2.127339 1_555
Mg22 O23 2.190085 1_565
Mg23 O8 2.092328 1_555
Mg23 O7 2.092328 1_555
Mg23 O24 2.150885 1_565
Mg23 O0 2.172927 1_555
Mg23 O28 2.246618 1_555
Mg23 O2 2.267781 1_555
Mg24 O1 2.094145 1_555
Mg24 O9 2.120525 1_555
Mg24 O10 2.120525 1_455
Mg24 O29 2.127339 1_555
Mg24 O25 2.190085 1_565
Mg25 O10 2.092328 1_555
Mg25 O9 2.092328 1_555
Mg25 O26 2.150885 1_565
Mg25 O0 2.172927 1_556
Mg25 O30 2.246618 1_555
Mg25 O2 2.267781 1_555
Mg26 O11 2.104541 1_555
Mg26 O12 2.104541 1_455
Mg26 O27 2.131845 1_555
Mg26 O23 2.158994 1_555
Mg26 O5 2.179999 1_555
Mg26 O3 2.248615 1_555
Mg27 O6 2.089066 1_555
Mg27 O24 2.104625 1_555
Mg27 O12 2.108245 1_555
Mg27 O11 2.108245 1_555
Mg27 O28 2.115290 1_555
Mg27 O4 2.334835 1_555
Mg28 O13 2.104541 1_555
Mg28 O14 2.104541 1_455
Mg28 O29 2.131845 1_555
Mg28 O25 2.158994 1_555
Mg28 O5 2.179999 1_555
Mg28 O3 2.248615 1_556
Mg29 O6 2.089066 1_555
Mg29 O26 2.104625 1_555
Mg29 O14 2.108245 1_555
Mg29 O13 2.108245 1_555
Mg29 O30 2.115290 1_555
Mg29 O4 2.334835 1_556
B0 O16 1.431960 1_555
B0 O15 1.431960 1_555
B0 O4 1.461630 1_555
O3 Rb0 2.503564 1_545
O23 Rb0 2.447773 1_545
O25 Rb0 2.447773 1_546
