# generated using pymatgen
data_KNa2NbF6
_symmetry_space_group_name_H-M   'P 1'
_cell_length_a   6.47515923
_cell_length_b   6.47515923
_cell_length_c   6.47515923
_cell_angle_alpha   60.00000000
_cell_angle_beta   60.00000000
_cell_angle_gamma   60.00000000
_symmetry_Int_Tables_number   1
_chemical_formula_structural   KNa2NbF6
_chemical_formula_sum   'K1 Na2 Nb1 F6'
_cell_volume   191.97132378
_cell_formula_units_Z   1
loop_
 _symmetry_equiv_pos_site_id
 _symmetry_equiv_pos_as_xyz
  1  'x, y, z'
loop_
 _atom_site_type_symbol
 _atom_site_label
 _atom_site_symmetry_multiplicity
 _atom_site_fract_x
 _atom_site_fract_y
 _atom_site_fract_z
 _atom_site_occupancy
  K  K0  1  0.50000000  0.50000000  0.50000000  1
  Na  Na0  1  0.75000000  0.75000000  0.75000000  1
  Na  Na1  1  0.25000000  0.25000000  0.25000000  1
  Nb  Nb0  1  0.00000000  0.00000000  0.00000000  1
  F  F0  1  0.77290400  0.22709600  0.22709600  1
  F  F1  1  0.22709600  0.22709600  0.77290400  1
  F  F2  1  0.22709600  0.77290400  0.77290400  1
  F  F3  1  0.22709600  0.77290400  0.22709600  1
  F  F4  1  0.77290400  0.22709600  0.77290400  1
  F  F5  1  0.77290400  0.77290400  0.22709600  1
loop_
_geom_bond_atom_site_label_1
_geom_bond_atom_site_label_2
_geom_bond_distance
_geom_bond_site_symmetry_2
F0 Nb0 2.079577 1_655
F0 K0 2.499052 1_555
F1 Nb0 2.079577 1_556
F1 K0 2.499052 1_555
F2 Nb0 2.079577 1_566
F2 K0 2.499052 1_555
F3 Nb0 2.079577 1_565
F3 K0 2.499052 1_555
F4 Nb0 2.079577 1_656
F4 K0 2.499052 1_555
F5 Nb0 2.079577 1_665
F5 K0 2.499052 1_555
