# generated using pymatgen
data_SrMg30MnO32
_symmetry_space_group_name_H-M   'P 1'
_cell_length_a   8.61512200
_cell_length_b   8.61512200
_cell_length_c   8.61364100
_cell_angle_alpha   90.00000000
_cell_angle_beta   90.00000000
_cell_angle_gamma   90.00000000
_symmetry_Int_Tables_number   1
_chemical_formula_structural   SrMg30MnO32
_chemical_formula_sum   'Sr1 Mg30 Mn1 O32'
_cell_volume   639.30725233
_cell_formula_units_Z   1
loop_
 _symmetry_equiv_pos_site_id
 _symmetry_equiv_pos_as_xyz
  1  'x, y, z'
loop_
 _atom_site_type_symbol
 _atom_site_label
 _atom_site_symmetry_multiplicity
 _atom_site_fract_x
 _atom_site_fract_y
 _atom_site_fract_z
 _atom_site_occupancy
  Sr  Sr0  1  0.50000000  0.50000000  0.00000000  1
  Mg  Mg0  1  0.50000000  0.00000000  0.00000000  1
  Mg  Mg1  1  0.00000000  0.50000000  0.00000000  1
  Mg  Mg2  1  0.00000000  0.00000000  0.50000000  1
  Mg  Mg3  1  0.50000000  0.00000000  0.50000000  1
  Mg  Mg4  1  0.00000000  0.50000000  0.50000000  1
  Mg  Mg5  1  0.50000000  0.50000000  0.50000000  1
  Mg  Mg6  1  0.24605100  0.24605100  0.00000000  1
  Mg  Mg7  1  0.75394900  0.24605100  0.00000000  1
  Mg  Mg8  1  0.24605100  0.75394900  0.00000000  1
  Mg  Mg9  1  0.75394900  0.75394900  0.00000000  1
  Mg  Mg10  1  0.24977200  0.24977200  0.50000000  1
  Mg  Mg11  1  0.75022800  0.24977200  0.50000000  1
  Mg  Mg12  1  0.24977200  0.75022800  0.50000000  1
  Mg  Mg13  1  0.75022800  0.75022800  0.50000000  1
  Mg  Mg14  1  0.25075100  0.00000000  0.25113400  1
  Mg  Mg15  1  0.74924900  0.00000000  0.25113400  1
  Mg  Mg16  1  0.24501500  0.50000000  0.25486400  1
  Mg  Mg17  1  0.75498500  0.50000000  0.25486400  1
  Mg  Mg18  1  0.25075100  0.00000000  0.74886600  1
  Mg  Mg19  1  0.74924900  0.00000000  0.74886600  1
  Mg  Mg20  1  0.24501500  0.50000000  0.74513600  1
  Mg  Mg21  1  0.75498500  0.50000000  0.74513600  1
  Mg  Mg22  1  0.00000000  0.25075100  0.25113400  1
  Mg  Mg23  1  0.50000000  0.24501500  0.25486400  1
  Mg  Mg24  1  0.00000000  0.74924900  0.25113400  1
  Mg  Mg25  1  0.50000000  0.75498500  0.25486400  1
  Mg  Mg26  1  0.00000000  0.25075100  0.74886600  1
  Mg  Mg27  1  0.50000000  0.24501500  0.74513600  1
  Mg  Mg28  1  0.00000000  0.74924900  0.74886600  1
  Mg  Mg29  1  0.50000000  0.75498500  0.74513600  1
  Mn  Mn0  1  0.00000000  0.00000000  0.00000000  1
  O  O0  1  0.00000000  0.00000000  0.25664800  1
  O  O1  1  0.50000000  0.00000000  0.25432000  1
  O  O2  1  0.00000000  0.50000000  0.25432000  1
  O  O3  1  0.50000000  0.50000000  0.26998800  1
  O  O4  1  0.00000000  0.00000000  0.74335200  1
  O  O5  1  0.50000000  0.00000000  0.74568000  1
  O  O6  1  0.00000000  0.50000000  0.74568000  1
  O  O7  1  0.50000000  0.50000000  0.73001200  1
  O  O8  1  0.25022500  0.25022500  0.24929700  1
  O  O9  1  0.74977500  0.25022500  0.24929700  1
  O  O10  1  0.25022500  0.74977500  0.24929700  1
  O  O11  1  0.74977500  0.74977500  0.24929700  1
  O  O12  1  0.25022500  0.25022500  0.75070300  1
  O  O13  1  0.74977500  0.25022500  0.75070300  1
  O  O14  1  0.25022500  0.74977500  0.75070300  1
  O  O15  1  0.74977500  0.74977500  0.75070300  1
  O  O16  1  0.25278200  0.00000000  0.00000000  1
  O  O17  1  0.74721800  0.00000000  0.00000000  1
  O  O18  1  0.23063200  0.50000000  0.00000000  1
  O  O19  1  0.76936800  0.50000000  0.00000000  1
  O  O20  1  0.25028600  0.00000000  0.50000000  1
  O  O21  1  0.74971400  0.00000000  0.50000000  1
  O  O22  1  0.24653300  0.50000000  0.50000000  1
  O  O23  1  0.75346700  0.50000000  0.50000000  1
  O  O24  1  0.00000000  0.25278200  0.00000000  1
  O  O25  1  0.50000000  0.23063200  0.00000000  1
  O  O26  1  0.00000000  0.74721800  0.00000000  1
  O  O27  1  0.50000000  0.76936800  0.00000000  1
  O  O28  1  0.00000000  0.25028600  0.50000000  1
  O  O29  1  0.50000000  0.24653300  0.50000000  1
  O  O30  1  0.00000000  0.74971400  0.50000000  1
  O  O31  1  0.50000000  0.75346700  0.50000000  1
loop_
_geom_bond_atom_site_label_1
_geom_bond_atom_site_label_2
_geom_bond_distance
_geom_bond_site_symmetry_2
Mg0 O25 1.986923 1_555
Mg0 O27 1.986923 1_545
Mg0 O17 2.129813 1_555
Mg0 O16 2.129813 1_555
Mg0 O5 2.190621 1_554
Mg0 O1 2.190621 1_555
Mg1 O18 1.986923 1_555
Mg1 O19 1.986923 1_455
Mg1 O26 2.129813 1_555
Mg1 O24 2.129813 1_555
Mg1 O6 2.190621 1_554
Mg1 O2 2.190621 1_555
Mg2 O0 2.096147 1_555
Mg2 O4 2.096147 1_555
Mg2 O21 2.156244 1_455
Mg2 O20 2.156244 1_555
Mg2 O28 2.156244 1_555
Mg2 O30 2.156244 1_545
Mg3 O1 2.116199 1_555
Mg3 O5 2.116199 1_555
Mg3 O31 2.123912 1_545
Mg3 O29 2.123912 1_555
Mg3 O20 2.151317 1_555
Mg3 O21 2.151317 1_555
Mg4 O2 2.116199 1_555
Mg4 O6 2.116199 1_555
Mg4 O23 2.123912 1_455
Mg4 O22 2.123912 1_555
Mg4 O30 2.151317 1_555
Mg4 O28 2.151317 1_555
Mg5 O7 1.981241 1_555
Mg5 O3 1.981241 1_555
Mg5 O31 2.183649 1_555
Mg5 O22 2.183649 1_555
Mg5 O23 2.183649 1_555
Mg5 O29 2.183649 1_555
Mg6 O24 2.120552 1_555
Mg6 O16 2.120552 1_555
Mg6 O8 2.147957 1_555
Mg6 O12 2.147957 1_554
Mg6 O25 2.191831 1_555
Mg6 O18 2.191831 1_555
Mg7 O17 2.120552 1_555
Mg7 O24 2.120552 1_655
Mg7 O9 2.147957 1_555
Mg7 O13 2.147957 1_554
Mg7 O19 2.191831 1_555
Mg7 O25 2.191831 1_555
Mg8 O26 2.120552 1_555
Mg8 O16 2.120552 1_565
Mg8 O14 2.147957 1_554
Mg8 O10 2.147957 1_555
Mg8 O27 2.191831 1_555
Mg8 O18 2.191831 1_555
Mg9 O17 2.120552 1_565
Mg9 O26 2.120552 1_655
Mg9 O15 2.147957 1_554
Mg9 O11 2.147957 1_555
Mg9 O27 2.191831 1_555
Mg9 O19 2.191831 1_555
Mg10 O20 2.151821 1_555
Mg10 O28 2.151821 1_555
Mg10 O22 2.155925 1_555
Mg10 O29 2.155925 1_555
Mg10 O12 2.159473 1_555
Mg10 O8 2.159473 1_555
Mg11 O21 2.151821 1_555
Mg11 O28 2.151821 1_655
Mg11 O23 2.155925 1_555
Mg11 O29 2.155925 1_555
Mg11 O9 2.159473 1_555
Mg11 O13 2.159473 1_555
Mg12 O30 2.151821 1_555
Mg12 O20 2.151821 1_565
Mg12 O22 2.155925 1_555
Mg12 O31 2.155925 1_555
Mg12 O10 2.159473 1_555
Mg12 O14 2.159473 1_555
Mg13 O21 2.151821 1_565
Mg13 O30 2.151821 1_655
Mg13 O23 2.155925 1_555
Mg13 O31 2.155925 1_555
Mg13 O15 2.159473 1_555
Mg13 O11 2.159473 1_555
Mg14 O20 2.143646 1_555
Mg14 O1 2.147486 1_555
Mg14 O8 2.155782 1_555
Mg14 O10 2.155782 1_545
Mg14 O0 2.160773 1_555
Mg14 O16 2.163249 1_555
Mg15 O21 2.143646 1_555
Mg15 O1 2.147486 1_555
Mg15 O9 2.155782 1_555
Mg15 O11 2.155782 1_545
Mg15 O0 2.160773 1_655
Mg15 O17 2.163249 1_555
Mg16 O2 2.110839 1_555
Mg16 O22 2.111554 1_555
Mg16 O10 2.152844 1_555
Mg16 O8 2.152844 1_555
Mg16 O18 2.198801 1_555
Mg16 O3 2.200586 1_555
Mg17 O2 2.110839 1_655
Mg17 O23 2.111554 1_555
Mg17 O11 2.152844 1_555
Mg17 O9 2.152844 1_555
Mg17 O19 2.198801 1_555
Mg17 O3 2.200586 1_555
Mg18 O20 2.143646 1_555
Mg18 O5 2.147486 1_555
Mg18 O12 2.155782 1_555
Mg18 O14 2.155782 1_545
Mg18 O4 2.160773 1_555
Mg18 O16 2.163249 1_556
Mg19 O21 2.143646 1_555
Mg19 O5 2.147486 1_555
Mg19 O13 2.155782 1_555
Mg19 O15 2.155782 1_545
Mg19 O4 2.160773 1_655
Mg19 O17 2.163249 1_556
Mg20 O6 2.110839 1_555
Mg20 O22 2.111554 1_555
Mg20 O14 2.152844 1_555
Mg20 O12 2.152844 1_555
Mg20 O18 2.198801 1_556
Mg20 O7 2.200586 1_555
Mg21 O6 2.110839 1_655
Mg21 O23 2.111554 1_555
Mg21 O15 2.152844 1_555
Mg21 O13 2.152844 1_555
Mg21 O19 2.198801 1_556
Mg21 O7 2.200586 1_555
Mg22 O28 2.143646 1_555
Mg22 O2 2.147486 1_555
Mg22 O8 2.155782 1_555
Mg22 O9 2.155782 1_455
Mg22 O0 2.160773 1_555
Mg22 O24 2.163249 1_555
Mg23 O1 2.110839 1_555
Mg23 O29 2.111554 1_555
Mg23 O9 2.152844 1_555
Mg23 O8 2.152844 1_555
Mg23 O25 2.198801 1_555
Mg23 O3 2.200586 1_555
Mg24 O30 2.143646 1_555
Mg24 O2 2.147486 1_555
Mg24 O10 2.155782 1_555
Mg24 O11 2.155782 1_455
Mg24 O0 2.160773 1_565
Mg24 O26 2.163249 1_555
Mg25 O1 2.110839 1_565
Mg25 O31 2.111554 1_555
Mg25 O11 2.152844 1_555
Mg25 O10 2.152844 1_555
Mg25 O27 2.198801 1_555
Mg25 O3 2.200586 1_555
Mg26 O28 2.143646 1_555
Mg26 O6 2.147486 1_555
Mg26 O12 2.155782 1_555
Mg26 O13 2.155782 1_455
Mg26 O4 2.160773 1_555
Mg26 O24 2.163249 1_556
Mg27 O5 2.110839 1_555
Mg27 O29 2.111554 1_555
Mg27 O13 2.152844 1_555
Mg27 O12 2.152844 1_555
Mg27 O25 2.198801 1_556
Mg27 O7 2.200586 1_555
Mg28 O30 2.143646 1_555
Mg28 O6 2.147486 1_555
Mg28 O14 2.155782 1_555
Mg28 O15 2.155782 1_455
Mg28 O4 2.160773 1_565
Mg28 O26 2.163249 1_556
Mg29 O5 2.110839 1_565
Mg29 O31 2.111554 1_555
Mg29 O15 2.152844 1_555
Mg29 O14 2.152844 1_555
Mg29 O27 2.198801 1_556
Mg29 O7 2.200586 1_555
Mn0 O24 2.177748 1_555
Mn0 O16 2.177748 1_555
Mn0 O17 2.177748 1_455
Mn0 O26 2.177748 1_545
Mn0 O4 2.210674 1_554
Mn0 O0 2.210674 1_555
O3 Sr0 2.325580 1_555
O7 Sr0 2.325580 1_556
O18 Sr0 2.320638 1_555
O19 Sr0 2.320638 1_555
O25 Sr0 2.320638 1_555
O27 Sr0 2.320638 1_555
