# generated using pymatgen
data_GaAs
_symmetry_space_group_name_H-M   'P 1'
_cell_length_a   12.07351306
_cell_length_b   13.77612992
_cell_length_c   14.24261395
_cell_angle_alpha   89.13740435
_cell_angle_beta   93.94344961
_cell_angle_gamma   89.82465601
_symmetry_Int_Tables_number   1
_chemical_formula_structural   GaAs
_chemical_formula_sum   'Ga50 As50'
_cell_volume   2363.02468990
_cell_formula_units_Z   50
loop_
 _symmetry_equiv_pos_site_id
 _symmetry_equiv_pos_as_xyz
  1  'x, y, z'
loop_
 _atom_site_type_symbol
 _atom_site_label
 _atom_site_symmetry_multiplicity
 _atom_site_fract_x
 _atom_site_fract_y
 _atom_site_fract_z
 _atom_site_occupancy
  Ga  Ga0  1  0.94912866  0.34168295  0.26585453  1
  Ga  Ga1  1  0.08701541  0.74423279  0.30802576  1
  Ga  Ga2  1  0.50524684  0.35647407  0.94475184  1
  Ga  Ga3  1  0.09421904  0.67320741  0.93130870  1
  Ga  Ga4  1  0.87662671  0.76708581  0.13052577  1
  Ga  Ga5  1  0.19345374  0.46394682  0.40378486  1
  Ga  Ga6  1  0.12071150  0.30897664  0.49286276  1
  Ga  Ga7  1  0.71903150  0.48622079  0.87977653  1
  Ga  Ga8  1  0.71269032  0.21025216  0.42211211  1
  Ga  Ga9  1  0.89394311  0.00204870  0.08767455  1
  Ga  Ga10  1  0.95999183  0.48140743  0.55392707  1
  Ga  Ga11  1  0.89457463  0.57801514  0.04770253  1
  Ga  Ga12  1  0.40315269  0.19122107  0.81278615  1
  Ga  Ga13  1  0.01032132  0.12284997  0.18314183  1
  Ga  Ga14  1  0.69434499  0.81947333  0.58475551  1
  Ga  Ga15  1  0.08574150  0.84478520  0.79481581  1
  Ga  Ga16  1  0.48662975  0.39137474  0.42418436  1
  Ga  Ga17  1  0.63942421  0.06045764  0.33993706  1
  Ga  Ga18  1  0.55223351  0.95266028  0.55072887  1
  Ga  Ga19  1  0.09703250  0.10195440  0.55174360  1
  Ga  Ga20  1  0.20852044  0.27139776  0.78831957  1
  Ga  Ga21  1  0.84218162  0.03499637  0.84237667  1
  Ga  Ga22  1  0.94939447  0.71298550  0.60497255  1
  Ga  Ga23  1  0.02268768  0.52253310  0.28546582  1
  Ga  Ga24  1  0.24550736  0.31142303  0.29721420  1
  Ga  Ga25  1  0.62002762  0.20708909  0.20283159  1
  Ga  Ga26  1  0.37636959  0.65270233  0.04734985  1
  Ga  Ga27  1  0.02590626  0.08366314  0.75969560  1
  Ga  Ga28  1  0.21652837  0.01117073  0.28056003  1
  Ga  Ga29  1  0.86328247  0.04795097  0.62173182  1
  Ga  Ga30  1  0.08688544  0.64990126  0.12464991  1
  Ga  Ga31  1  0.46643565  0.20363238  0.63541848  1
  Ga  Ga32  1  0.69521648  0.62285072  0.10716497  1
  Ga  Ga33  1  0.53493703  0.63864163  0.41394024  1
  Ga  Ga34  1  0.51126427  0.74155797  0.26776679  1
  Ga  Ga35  1  0.28498618  0.72547984  0.37776391  1
  Ga  Ga36  1  0.45422474  0.60659756  0.86011310  1
  Ga  Ga37  1  0.79876082  0.76943822  0.83217064  1
  Ga  Ga38  1  0.06321925  0.37913878  0.99359756  1
  Ga  Ga39  1  0.10371285  0.63179342  0.49591559  1
  Ga  Ga40  1  0.28353623  0.57169181  0.26534636  1
  Ga  Ga41  1  0.13052997  0.66358067  0.73034368  1
  Ga  Ga42  1  0.47810106  0.39404174  0.68374265  1
  Ga  Ga43  1  0.38664541  0.91661168  0.11828953  1
  Ga  Ga44  1  0.62933436  0.26327618  0.83479620  1
  Ga  Ga45  1  0.85615470  0.19302105  0.96328955  1
  Ga  Ga46  1  0.14680476  0.07066757  0.97111047  1
  Ga  Ga47  1  0.11864200  0.48704262  0.84146503  1
  Ga  Ga48  1  0.22607399  0.50662614  0.65983389  1
  Ga  Ga49  1  0.60550374  0.98104088  0.96786623  1
  As  As0  1  0.34500811  0.30534877  0.03303090  1
  As  As1  1  0.81632549  0.96337569  0.36354634  1
  As  As2  1  0.36314149  0.49867774  0.52658333  1
  As  As3  1  0.92102197  0.23802294  0.41166360  1
  As  As4  1  0.98220111  0.07850475  0.35616880  1
  As  As5  1  0.21854204  0.12526223  0.13309248  1
  As  As6  1  0.53831156  0.75463214  0.09996956  1
  As  As7  1  0.68236897  0.49063113  0.24074898  1
  As  As8  1  0.10369360  0.29062647  0.15670067  1
  As  As9  1  0.58362939  0.00840037  0.15069084  1
  As  As10  1  0.83979207  0.38240714  0.00824921  1
  As  As11  1  0.37724342  0.87975656  0.31089678  1
  As  As12  1  0.59290715  0.72955513  0.79982293  1
  As  As13  1  0.35552180  0.26850834  0.49602184  1
  As  As14  1  0.22957073  0.99142011  0.81888285  1
  As  As15  1  0.46116012  0.01718142  0.40210515  1
  As  As16  1  0.05288368  0.21585618  0.89203004  1
  As  As17  1  0.64154050  0.08715407  0.79063316  1
  As  As18  1  0.61620613  0.16693882  0.01728825  1
  As  As19  1  0.22404694  0.15734776  0.40205834  1
  As  As20  1  0.67317274  0.36261356  0.50159090  1
  As  As21  1  0.89997587  0.67212161  0.30632810  1
  As  As22  1  0.39411462  0.67954349  0.52919875  1
  As  As23  1  0.87736140  0.86052563  0.69381601  1
  As  As24  1  0.64135177  0.10807653  0.61307184  1
  As  As25  1  0.62309785  0.65617557  0.64698106  1
  As  As26  1  0.76426466  0.34572575  0.16595357  1
  As  As27  1  0.24258655  0.52896644  0.09490173  1
  As  As28  1  0.51733405  0.89715107  0.76945780  1
  As  As29  1  0.72782476  0.59498734  0.48661606  1
  As  As30  1  0.30878786  0.06277726  0.67006587  1
  As  As31  1  0.82380209  0.74863529  0.45067216  1
  As  As32  1  0.42580888  0.29272125  0.19941385  1
  As  As33  1  0.79710795  0.45437125  0.40209208  1
  As  As34  1  0.17906805  0.82586917  0.09700386  1
  As  As35  1  0.35444269  0.45459204  0.80927519  1
  As  As36  1  0.38130323  0.89833149  0.63247047  1
  As  As37  1  0.39784752  0.89899739  0.90927011  1
  As  As38  1  0.47959410  0.45852637  0.25852661  1
  As  As39  1  0.57095477  0.52331161  0.99004448  1
  As  As40  1  0.76155668  0.91740440  0.19870045  1
  As  As41  1  0.30686293  0.73139495  0.89031989  1
  As  As42  1  0.88042543  0.60355079  0.85860594  1
  As  As43  1  0.08836419  0.36633500  0.66438148  1
  As  As44  1  0.82020972  0.57810011  0.67119683  1
  As  As45  1  0.05207889  0.90493388  0.97194852  1
  As  As46  1  0.68610738  0.39728985  0.72887884  1
  As  As47  1  0.40869925  0.13839249  0.99021755  1
  As  As48  1  0.05945756  0.89877376  0.21323001  1
  As  As49  1  0.79101974  0.89874736  0.95806324  1
loop_
_geom_bond_atom_site_label_1
_geom_bond_atom_site_label_2
_geom_bond_distance
_geom_bond_site_symmetry_2
Ga1 Ga39 3.065984 1_555
Ga2 Ga44 2.591706 1_555
Ga3 Ga47 2.906502 1_555
Ga3 Ga41 2.930191 1_555
Ga5 Ga6 2.649881 1_555
Ga10 Ga39 2.855416 1_655
Ga11 Ga32 2.679402 1_555
Ga11 Ga30 2.696221 1_655
Ga11 Ga4 2.889107 1_555
Ga12 Ga20 2.592934 1_555
Ga12 Ga31 2.692184 1_555
Ga12 Ga44 2.906739 1_555
Ga13 Ga9 2.532236 1_455
Ga14 Ga18 2.526829 1_555
Ga15 Ga41 2.737910 1_555
Ga17 Ga8 2.520353 1_555
Ga17 Ga25 2.786383 1_555
Ga19 Ga6 2.980717 1_555
Ga19 Ga29 3.144725 1_455
Ga19 Ga27 3.146706 1_555
Ga22 Ga39 2.751847 1_655
Ga22 Ga41 2.802060 1_655
Ga23 Ga5 2.685700 1_555
Ga24 Ga5 2.707945 1_555
Ga30 Ga4 3.010918 1_455
Ga31 Ga42 2.723509 1_555
Ga32 Ga4 2.966887 1_555
Ga33 Ga34 2.500579 1_555
Ga35 Ga40 2.674113 1_555
Ga35 Ga39 3.121855 1_555
Ga38 Ga47 2.731453 1_555
Ga39 Ga5 2.917870 1_555
Ga39 Ga48 3.161498 1_555
Ga40 Ga5 2.736877 1_555
Ga41 Ga48 2.687724 1_555
Ga41 Ga47 2.890947 1_555
Ga47 Ga48 2.981596 1_555
As0 Ga2 2.477098 1_554
As0 As32 2.503227 1_555
As0 As47 2.519742 1_554
As1 As40 2.486858 1_555
As1 Ga17 2.516677 1_565
As1 As4 2.565292 1_565
As2 As22 2.521117 1_555
As2 Ga48 2.605677 1_555
As2 Ga16 2.624032 1_555
As2 Ga5 2.650181 1_555
As2 Ga42 2.911675 1_555
As3 As4 2.474303 1_555
As3 Ga0 2.545139 1_555
As3 Ga8 2.559468 1_555
As3 Ga6 2.787573 1_655
As4 Ga13 2.575373 1_655
As4 Ga19 3.046993 1_655
As5 Ga46 2.533710 1_554
As5 Ga28 2.605797 1_555
As5 Ga13 2.659979 1_555
As5 As8 2.700609 1_555
As6 Ga34 2.438300 1_555
As6 Ga26 2.490627 1_555
As6 Ga32 2.615662 1_555
As6 Ga43 2.908398 1_555
As7 Ga32 2.626716 1_555
As8 Ga24 2.562764 1_555
As8 Ga13 2.608254 1_555
As8 Ga0 2.611134 1_455
As8 Ga38 2.622395 1_554
As9 Ga49 2.667515 1_544
As9 Ga43 2.711675 1_545
As9 Ga17 2.836279 1_555
As9 Ga25 2.874080 1_555
As10 As26 2.526324 1_555
As10 Ga7 2.657203 1_554
As10 Ga45 2.705648 1_554
As10 Ga38 2.720169 1_654
As10 Ga11 2.831983 1_555
As11 As15 2.490569 1_565
As11 Ga35 2.600809 1_555
As11 Ga34 2.602554 1_555
As11 Ga28 2.658745 1_565
As11 Ga43 2.792352 1_555
As12 As25 2.463057 1_555
As12 As28 2.500601 1_555
As12 Ga37 2.559242 1_555
As12 Ga36 2.565435 1_555
As13 Ga31 2.471292 1_555
As13 As19 2.537754 1_555
As13 Ga16 2.569925 1_555
As13 Ga6 2.884787 1_555
As13 Ga24 3.091747 1_555
As14 As30 2.568152 1_565
As14 As37 2.642200 1_555
As14 Ga15 2.678453 1_555
As14 Ga46 2.693277 1_565
As14 Ga27 2.834670 1_565
As15 Ga17 2.454748 1_555
As15 Ga18 2.469241 1_545
As16 Ga46 2.509503 1_555
As16 Ga20 2.579688 1_555
As16 Ga27 2.645277 1_555
As16 Ga45 2.664053 1_455
As16 Ga38 2.691256 1_555
As17 Ga44 2.522044 1_555
As17 As24 2.540839 1_555
As17 Ga21 2.579823 1_555
As17 Ga49 2.956687 1_545
As18 As47 2.541211 1_554
As18 Ga49 2.667292 1_544
As18 Ga25 2.705349 1_555
As18 Ga44 2.914826 1_554
As18 As9 2.918538 1_555
As18 Ga2 3.063768 1_554
As18 Ga45 3.068849 1_554
As19 Ga24 2.600646 1_555
As19 Ga28 2.672517 1_555
As19 Ga6 2.807101 1_555
As19 Ga19 2.808358 1_555
As20 Ga8 2.460553 1_555
As20 Ga16 2.466745 1_555
As20 As33 2.468687 1_555
As21 Ga1 2.468598 1_655
As21 As31 2.550040 1_555
As21 Ga23 2.567160 1_655
As21 Ga4 2.804002 1_555
As22 Ga33 2.511757 1_555
As22 Ga35 2.520175 1_555
As23 Ga37 2.558948 1_555
As23 Ga22 2.589725 1_555
As23 Ga14 2.679024 1_555
As23 Ga29 2.764622 1_565
As23 Ga15 2.816992 1_655
As24 Ga31 2.526292 1_555
As24 Ga18 2.543637 1_545
As24 Ga29 2.796212 1_555
As25 Ga14 2.577367 1_555
As26 As7 2.508838 1_555
As26 Ga0 2.563063 1_555
As26 Ga25 2.659343 1_555
As27 Ga26 2.471008 1_555
As27 Ga40 2.522643 1_555
As27 Ga30 2.569168 1_555
As28 As36 2.462196 1_555
As28 As37 2.538400 1_555
As29 As33 2.469877 1_555
As29 As31 2.479747 1_555
As29 Ga33 2.549054 1_555
As30 As36 2.504848 1_545
As30 Ga31 2.784702 1_555
As30 Ga12 2.891890 1_555
As30 Ga19 3.006522 1_555
As31 Ga22 2.621967 1_555
As31 Ga14 2.738535 1_555
As32 As38 2.517867 1_555
As32 Ga25 2.618821 1_555
As32 Ga24 2.677658 1_555
As33 As7 2.640549 1_555
As33 Ga10 2.850697 1_555
As34 As48 2.490863 1_555
As34 As45 2.503042 1_554
As34 Ga30 2.705240 1_555
As34 Ga43 2.803867 1_555
As35 Ga36 2.510333 1_555
As35 Ga42 2.554581 1_555
As35 Ga48 2.634328 1_555
As35 Ga2 2.878968 1_555
As35 Ga47 2.948395 1_555
As35 Ga20 3.088636 1_555
As36 Ga18 2.547198 1_555
As37 As41 2.569853 1_555
As37 Ga49 2.831545 1_555
As37 Ga43 3.002754 1_556
As38 Ga16 2.517143 1_555
As38 As7 2.518322 1_555
As38 Ga40 2.838424 1_555
As39 Ga36 2.508925 1_555
As39 Ga2 2.512657 1_555
As39 Ga7 2.515667 1_555
As39 Ga32 2.578953 1_556
As40 As9 2.531693 1_565
As40 Ga9 2.592015 1_565
As40 Ga4 2.718399 1_555
As41 Ga36 2.532809 1_555
As41 Ga26 2.558272 1_556
As41 Ga3 2.789150 1_555
As41 Ga41 3.163189 1_555
As42 Ga37 2.499138 1_555
As42 Ga7 2.566309 1_555
As42 Ga11 2.704486 1_556
As42 As44 2.745708 1_555
As42 Ga3 2.886744 1_655
As43 Ga20 2.549052 1_555
As43 Ga48 2.556265 1_555
As43 Ga6 2.632869 1_555
As43 Ga10 2.639048 1_455
As43 Ga47 3.043543 1_555
As44 Ga22 2.634874 1_555
As44 Ga10 2.802348 1_555
As45 Ga46 2.556958 1_565
As45 Ga15 2.723671 1_555
As45 Ga9 2.938611 1_466
As46 Ga44 2.494006 1_555
As46 Ga7 2.498531 1_555
As46 Ga42 2.549849 1_555
As47 Ga12 2.615599 1_555
As48 Ga1 2.512658 1_555
As48 Ga28 2.593452 1_565
As48 Ga9 2.937652 1_465
As48 Ga4 3.046724 1_455
As49 Ga49 2.520677 1_555
As49 Ga37 2.552497 1_555
As49 Ga21 2.583300 1_565
As49 Ga9 2.598365 1_566
As49 Ga4 3.145916 1_556
