# generated using pymatgen
data_NaGdF4
_symmetry_space_group_name_H-M   'P 1'
_cell_length_a   5.99641563
_cell_length_b   6.97480421
_cell_length_c   6.98382320
_cell_angle_alpha   62.08648584
_cell_angle_beta   64.62011558
_cell_angle_gamma   64.60683932
_symmetry_Int_Tables_number   1
_chemical_formula_structural   NaGdF4
_chemical_formula_sum   'Na3 Gd3 F12'
_cell_volume   223.46921401
_cell_formula_units_Z   3
loop_
 _symmetry_equiv_pos_site_id
 _symmetry_equiv_pos_as_xyz
  1  'x, y, z'
loop_
 _atom_site_type_symbol
 _atom_site_label
 _atom_site_symmetry_multiplicity
 _atom_site_fract_x
 _atom_site_fract_y
 _atom_site_fract_z
 _atom_site_occupancy
  Na  Na0  1  0.66645981  0.48617468  0.16458490  1
  Na  Na1  1  0.66503428  0.00994435  0.67403869  1
  Na  Na2  1  0.33068415  0.43074375  0.90438093  1
  Gd  Gd0  1  0.00303267  0.00260302  0.99440381  1
  Gd  Gd1  1  0.99734335  0.50217304  0.50060065  1
  Gd  Gd2  1  0.33575232  0.92457853  0.40550474  1
  F  F0  1  0.36418447  0.54578831  0.49855288  1
  F  F1  1  0.36654823  0.01097281  0.02891075  1
  F  F2  1  0.59170855  0.71145217  0.65460976  1
  F  F3  1  0.59505920  0.16863011  0.19450836  1
  F  F4  1  0.04772574  0.82319540  0.76708195  1
  F  F5  1  0.03698759  0.28182168  0.31353623  1
  F  F6  1  0.25607186  0.62853168  0.12666772  1
  F  F7  1  0.27646979  0.13377342  0.62077283  1
  F  F8  1  0.98134782  0.38454166  0.87897414  1
  F  F9  1  0.97683101  0.89009021  0.38013320  1
  F  F10  1  0.75470012  0.73852304  0.22867826  1
  F  F11  1  0.75405805  0.24746214  0.74306021  1
loop_
_geom_bond_atom_site_label_1
_geom_bond_atom_site_label_2
_geom_bond_distance
_geom_bond_site_symmetry_2
F0 Gd1 2.339754 1_455
F0 Gd2 2.352160 1_555
F0 Na0 2.352834 1_555
F0 Na2 2.497592 1_555
F1 Gd0 2.320688 1_554
F1 Gd2 2.347276 1_545
F1 Na1 2.355614 1_554
F1 Na2 2.571189 1_554
F2 Gd1 2.320792 1_555
F2 Gd2 2.345813 1_555
F2 Na1 2.376318 1_565
F2 Na2 2.533012 1_555
F3 Gd0 2.330994 1_654
F3 Na0 2.331437 1_555
F3 Gd2 2.333252 1_545
F3 Na2 2.600114 1_554
F4 Na1 2.303713 1_465
F4 Gd0 2.316399 1_565
F4 Gd2 2.344464 1_555
F4 Na2 2.498988 1_555
F5 Gd1 2.329306 1_455
F5 Gd2 2.343102 1_545
F5 Na0 2.434599 1_455
F5 Na2 2.611828 1_554
F6 Na0 2.308387 1_555
F6 Na2 2.322421 1_554
F6 Gd0 2.347875 1_564
F6 Gd1 2.355460 1_455
F7 Na1 2.242650 1_555
F7 Gd1 2.367442 1_455
F7 Gd2 2.380408 1_545
F7 Gd0 2.391243 1_555
F8 Na0 2.234663 1_556
F8 Na2 2.339761 1_655
F8 Gd1 2.342103 1_555
F8 Gd0 2.354886 1_655
F9 Na1 2.320314 1_565
F9 Gd2 2.352073 1_655
F9 Gd0 2.379296 1_664
F9 Gd1 2.390710 1_555
F10 Na0 2.305997 1_555
F10 Gd2 2.359050 1_555
F10 Gd0 2.393583 1_664
F10 Gd1 2.412752 1_555
F11 Na1 2.233496 1_555
F11 Gd1 2.332443 1_555
F11 Na2 2.337045 1_555
F11 Gd0 2.340890 1_655
