# generated using pymatgen
data_La2B5H9C4O15
_symmetry_space_group_name_H-M   'P 1'
_cell_length_a   6.53838763
_cell_length_b   10.89787700
_cell_length_c   11.54566440
_cell_angle_alpha   61.83926016
_cell_angle_beta   89.87431301
_cell_angle_gamma   89.73368323
_symmetry_Int_Tables_number   1
_chemical_formula_structural   La2B5H9C4O15
_chemical_formula_sum   'La4 B10 H18 C8 O30'
_cell_volume   725.29003254
_cell_formula_units_Z   2
loop_
 _symmetry_equiv_pos_site_id
 _symmetry_equiv_pos_as_xyz
  1  'x, y, z'
loop_
 _atom_site_type_symbol
 _atom_site_label
 _atom_site_symmetry_multiplicity
 _atom_site_fract_x
 _atom_site_fract_y
 _atom_site_fract_z
 _atom_site_occupancy
  La  La0  1  0.33827700  0.86161000  0.52493500  1
  La  La1  1  0.83827700  0.38654400  0.47506500  1
  La  La2  1  0.16817300  0.94520500  0.86438100  1
  La  La3  1  0.66817300  0.80958600  0.13561900  1
  B  B0  1  0.82279500  0.99511800  0.59577700  1
  B  B1  1  0.32279500  0.59089500  0.40422300  1
  B  B2  1  0.71403400  0.99322100  0.80771600  1
  B  B3  1  0.21403400  0.80093700  0.19228400  1
  B  B4  1  0.47610800  0.08041100  0.61429500  1
  B  B5  1  0.97610800  0.69470600  0.38570500  1
  B  B6  1  0.87023600  0.79635900  0.53396400  1
  B  B7  1  0.37023600  0.33032300  0.46603600  1
  B  B8  1  0.13294500  0.14210700  0.48795800  1
  B  B9  1  0.63294500  0.63006500  0.51204200  1
  H  H0  1  0.57598000  0.56430100  0.81139200  1
  H  H1  1  0.07598000  0.37569300  0.18860800  1
  H  H2  1  0.75533700  0.62945700  0.88575700  1
  H  H3  1  0.25533700  0.51521400  0.11424300  1
  H  H4  1  0.57425600  0.50203100  0.98478800  1
  H  H5  1  0.07425600  0.48681800  0.01521200  1
  H  H6  1  0.20637700  0.40815400  0.85678600  1
  H  H7  1  0.70637700  0.26494100  0.14321400  1
  H  H8  1  0.17627400  0.49350100  0.68064000  1
  H  H9  1  0.67627400  0.17414000  0.31936000  1
  H  H10  1  0.95741000  0.44687200  0.78205200  1
  H  H11  1  0.45741000  0.22892400  0.21794800  1
  H  H12  1  0.13263600  0.12676200  0.30559800  1
  H  H13  1  0.63263600  0.43236000  0.69440200  1
  H  H14  1  0.95883900  0.12981300  0.11918000  1
  H  H15  1  0.45883900  0.24899300  0.88082000  1
  H  H16  1  0.18737900  0.09938600  0.11542400  1
  H  H17  1  0.68737900  0.21481000  0.88457600  1
  C  C0  1  0.45343600  0.70707000  0.87558000  1
  C  C1  1  0.95343600  0.58265100  0.12442000  1
  C  C2  1  0.10794500  0.27615000  0.77604700  1
  C  C3  1  0.60794500  0.05219600  0.22395300  1
  C  C4  1  0.59772600  0.59369700  0.88873900  1
  C  C5  1  0.09772600  0.48243600  0.11126100  1
  C  C6  1  0.11404500  0.41479000  0.77500700  1
  C  C7  1  0.61404500  0.18979700  0.22499300  1
  O  O0  1  0.93270800  0.88771100  0.57598200  1
  O  O1  1  0.43270800  0.46369300  0.42401800  1
  O  O2  1  0.85435100  0.95790700  0.73701300  1
  O  O3  1  0.35435100  0.69492000  0.26298700  1
  O  O4  1  0.60209200  0.99797900  0.57060200  1
  O  O5  1  0.10209200  0.56858100  0.42939800  1
  O  O6  1  0.77901900  0.97929400  0.92434800  1
  O  O7  1  0.27901900  0.90364300  0.07565200  1
  O  O8  1  0.52003700  0.04043800  0.75490800  1
  O  O9  1  0.02003700  0.79534600  0.24509200  1
  O  O10  1  0.01976500  0.76566900  0.46630400  1
  O  O11  1  0.51976500  0.23197300  0.53369600  1
  O  O12  1  0.25743900  0.05274900  0.60778000  1
  O  O13  1  0.75743900  0.66052900  0.39222000  1
  O  O14  1  0.18158000  0.29406800  0.44052300  1
  O  O15  1  0.68158000  0.73459100  0.55947700  1
  O  O16  1  0.19969000  0.09646600  0.39191800  1
  O  O17  1  0.69969000  0.48838400  0.60808200  1
  O  O18  1  0.91476400  0.13297700  0.51220100  1
  O  O19  1  0.41476400  0.64517900  0.48779900  1
  O  O20  1  0.45856300  0.75021600  0.96123700  1
  O  O21  1  0.95856300  0.71145300  0.03876300  1
  O  O22  1  0.32424500  0.75920800  0.78076700  1
  O  O23  1  0.82424500  0.53997500  0.21923300  1
  O  O24  1  0.21116600  0.17505900  0.86297300  1
  O  O25  1  0.71116600  0.03803100  0.13702700  1
  O  O26  1  0.00096900  0.26034600  0.69148700  1
  O  O27  1  0.50096900  0.95183300  0.30851300  1
  O  O28  1  0.09461500  0.15502900  0.13867900  1
  O  O29  1  0.59461500  0.29370800  0.86132100  1
loop_
_geom_bond_atom_site_label_1
_geom_bond_atom_site_label_2
_geom_bond_distance
_geom_bond_site_symmetry_2
La0 O16 2.450458 1_565
La0 O27 2.453781 1_555
La0 O4 2.495873 1_555
La0 O15 2.562728 1_555
La0 O10 2.565725 1_555
La0 O22 2.620470 1_555
La0 O19 2.634341 1_555
La0 O12 2.720542 1_565
La0 O0 2.757627 1_455
La1 O17 2.450467 1_555
La1 O26 2.453780 1_655
La1 O5 2.495881 1_655
La1 O14 2.562723 1_655
La1 O11 2.565719 1_555
La1 O23 2.620471 1_555
La1 O18 2.634341 1_555
La1 O13 2.720552 1_555
La1 O1 2.757629 1_555
La2 O7 2.375350 1_556
La2 O2 2.492064 1_455
La2 O24 2.514359 1_565
La2 O8 2.595918 1_565
La2 O20 2.664554 1_555
La2 O12 2.685664 1_565
La2 O6 2.705145 1_455
La2 O21 2.756889 1_456
La2 O22 2.811649 1_555
La3 O6 2.375347 1_554
La3 O3 2.492064 1_555
La3 O25 2.514348 1_565
La3 O9 2.595918 1_655
La3 O21 2.664555 1_555
La3 O13 2.685664 1_555
La3 O7 2.705147 1_555
La3 O20 2.756889 1_554
La3 O23 2.811649 1_555
B0 O4 1.469930 1_555
B0 O0 1.477414 1_555
B0 O18 1.478958 1_565
B0 O2 1.497535 1_555
B1 O5 1.469930 1_555
B1 O1 1.477414 1_555
B1 O19 1.478965 1_555
B1 O3 1.497535 1_555
B2 O6 1.351254 1_555
B2 O2 1.395043 1_555
B2 O8 1.395213 1_565
B3 O7 1.351258 1_555
B3 O3 1.395043 1_555
B3 O9 1.395213 1_555
B4 O4 1.469378 1_545
B4 O12 1.471931 1_555
B4 O11 1.492647 1_555
B4 O8 1.497085 1_555
B5 O5 1.469378 1_655
B5 O13 1.471931 1_555
B5 O10 1.492647 1_655
B5 O9 1.497085 1_655
B6 O0 1.361548 1_555
B6 O15 1.371273 1_555
B6 O10 1.384983 1_655
B7 O1 1.361548 1_555
B7 O14 1.371273 1_555
B7 O11 1.384983 1_555
B8 O18 1.447956 1_455
B8 O16 1.477778 1_555
B8 O12 1.500239 1_555
B8 O14 1.513810 1_555
B9 O19 1.447956 1_555
B9 O17 1.477778 1_555
B9 O13 1.500239 1_555
B9 O15 1.513810 1_555
H12 O16 0.992202 1_555
H13 O17 0.992202 1_555
H14 O28 0.987851 1_655
H15 O29 0.987851 1_555
H16 O28 0.978375 1_555
H17 O29 0.978375 1_555
C0 O20 1.280422 1_555
C0 O22 1.283429 1_555
C1 O21 1.280414 1_555
C1 O23 1.283428 1_555
C2 O24 1.276269 1_555
C2 O26 1.278628 1_555
C3 O25 1.276269 1_555
C3 O27 1.278622 1_545
C4 H0 1.091487 1_555
C4 H2 1.098156 1_555
C4 H4 1.098308 1_555
C5 H1 1.091487 1_555
C5 H3 1.098156 1_555
C5 H5 1.098313 1_555
C6 H6 1.094911 1_555
C6 H10 1.095840 1_455
C6 H8 1.098895 1_555
C7 H7 1.094915 1_555
C7 H11 1.095840 1_555
C7 H9 1.098892 1_555
