# generated using pymatgen
data_Ho2FeSi2
_symmetry_space_group_name_H-M   'P 1'
_cell_length_a   5.59345366
_cell_length_b   5.59345366
_cell_length_c   9.88741463
_cell_angle_alpha   62.79123782
_cell_angle_beta   62.79123782
_cell_angle_gamma   43.16218882
_symmetry_Int_Tables_number   1
_chemical_formula_structural   Ho2FeSi2
_chemical_formula_sum   'Ho4 Fe2 Si4'
_cell_volume   184.26405299
_cell_formula_units_Z   2
loop_
 _symmetry_equiv_pos_site_id
 _symmetry_equiv_pos_as_xyz
  1  'x, y, z'
loop_
 _atom_site_type_symbol
 _atom_site_label
 _atom_site_symmetry_multiplicity
 _atom_site_fract_x
 _atom_site_fract_y
 _atom_site_fract_z
 _atom_site_occupancy
  Ho  Ho0  1  -0.00061903  -0.00061903  0.32898713  1
  Ho  Ho1  1  0.00061903  0.00061903  0.67101287  1
  Ho  Ho2  1  0.81172990  0.81172990  0.10862061  1
  Ho  Ho3  1  0.18827010  0.18827010  0.89137939  1
  Fe  Fe0  1  0.72909663  0.72909663  0.62266445  1
  Fe  Fe1  1  0.27090337  0.27090337  0.37733555  1
  Si  Si0  1  0.65614450  0.65614450  0.43568404  1
  Si  Si1  1  0.34385550  0.34385550  0.56431596  1
  Si  Si2  1  0.49978259  0.49978259  0.12676493  1
  Si  Si3  1  0.50021741  0.50021741  0.87323507  1
loop_
_geom_bond_atom_site_label_1
_geom_bond_atom_site_label_2
_geom_bond_distance
_geom_bond_site_symmetry_2
Ho0 Si2 2.867473 1_545
Ho0 Si2 2.867473 1_455
Ho0 Si1 2.926137 1_545
Ho0 Si1 2.926137 1_455
Ho0 Si0 3.113989 1_455
Ho0 Si0 3.113989 1_545
Ho0 Si0 3.187110 1_445
Ho1 Si3 2.867473 1_545
Ho1 Si3 2.867473 1_455
Ho1 Si0 2.926137 1_545
Ho1 Si0 2.926137 1_455
Ho1 Si1 3.113989 1_545
Ho1 Si1 3.113989 1_455
Ho1 Si1 3.187110 1_555
Ho2 Si0 2.816026 1_555
Ho2 Si2 2.904654 1_655
Ho2 Si2 2.904654 1_565
Ho2 Si3 3.001050 1_564
Ho2 Si3 3.001050 1_654
Ho2 Si2 3.160739 1_555
Ho3 Si1 2.816026 1_555
Ho3 Si3 2.904654 1_455
Ho3 Si3 2.904654 1_545
Ho3 Si2 3.001050 1_456
Ho3 Si2 3.001050 1_546
Ho3 Si3 3.160739 1_555
Fe0 Si1 2.305097 1_655
Fe0 Si1 2.305097 1_565
Fe0 Si0 2.318091 1_555
Fe0 Si3 2.450717 1_555
Fe0 Ho0 2.882403 1_665
Fe0 Ho1 2.998839 1_565
Fe0 Ho1 2.998839 1_655
Fe0 Ho1 3.087802 1_665
Fe0 Ho3 3.219095 1_655
Fe0 Ho3 3.219095 1_565
Fe1 Si0 2.305097 1_455
Fe1 Si0 2.305097 1_545
Fe1 Si1 2.318091 1_555
Fe1 Si2 2.450717 1_555
Fe1 Ho1 2.882403 1_555
Fe1 Ho0 2.998839 1_565
Fe1 Ho0 2.998839 1_655
Fe1 Ho0 3.087802 1_555
Fe1 Ho2 3.219095 1_545
Fe1 Ho2 3.219095 1_455
Si0 Si1 2.847467 1_555
Si2 Si3 2.504534 1_554
