# generated using pymatgen
data_CaNdEuSbO6
_symmetry_space_group_name_H-M   'P 1'
_cell_length_a   5.80313197
_cell_length_b   5.97664008
_cell_length_c   8.35689443
_cell_angle_alpha   89.58348116
_cell_angle_beta   90.56943828
_cell_angle_gamma   89.91174734
_symmetry_Int_Tables_number   1
_chemical_formula_structural   CaNdEuSbO6
_chemical_formula_sum   'Ca2 Nd2 Eu2 Sb2 O12'
_cell_volume   289.82175118
_cell_formula_units_Z   2
loop_
 _symmetry_equiv_pos_site_id
 _symmetry_equiv_pos_as_xyz
  1  'x, y, z'
loop_
 _atom_site_type_symbol
 _atom_site_label
 _atom_site_symmetry_multiplicity
 _atom_site_fract_x
 _atom_site_fract_y
 _atom_site_fract_z
 _atom_site_occupancy
  Ca  Ca0  1  0.51393193  0.54978081  0.24628271  1
  Ca  Ca1  1  0.48606807  0.45021919  0.75371729  1
  Nd  Nd0  1  0.00000000  0.50000000  0.00000000  1
  Nd  Nd1  1  0.50000000  0.00000000  0.50000000  1
  Eu  Eu0  1  0.98620496  0.05165654  0.25108631  1
  Eu  Eu1  1  0.01379504  0.94834346  0.74891369  1
  Sb  Sb0  1  0.50000000  0.00000000  0.00000000  1
  Sb  Sb1  1  0.00000000  0.50000000  0.50000000  1
  O  O0  1  0.21876197  0.18344327  0.94522221  1
  O  O1  1  0.28132503  0.67964179  0.56423517  1
  O  O2  1  0.78123803  0.81655673  0.05477779  1
  O  O3  1  0.71867497  0.32035821  0.43576483  1
  O  O4  1  0.32856895  0.71565491  0.93618266  1
  O  O5  1  0.17268053  0.21605732  0.55894626  1
  O  O6  1  0.67143105  0.28434509  0.06381734  1
  O  O7  1  0.82731947  0.78394268  0.44105374  1
  O  O8  1  0.39346796  0.94598727  0.22863917  1
  O  O9  1  0.11966186  0.46330722  0.27229279  1
  O  O10  1  0.60653204  0.05401273  0.77136083  1
  O  O11  1  0.88033814  0.53669278  0.72770721  1
loop_
_geom_bond_atom_site_label_1
_geom_bond_atom_site_label_2
_geom_bond_distance
_geom_bond_site_symmetry_2
Ca0 O9 2.358219 1_555
Ca0 O3 2.392751 1_555
Ca0 O6 2.394919 1_555
Ca0 O8 2.470943 1_555
Ca0 O2 2.744002 1_555
Ca0 O7 2.810246 1_555
Ca0 O4 2.959662 1_554
Ca0 O1 3.095590 1_555
Ca1 O11 2.358219 1_555
Ca1 O1 2.392751 1_555
Ca1 O4 2.394919 1_555
Ca1 O10 2.470943 1_555
Ca1 O0 2.744002 1_555
Ca1 O5 2.810246 1_555
Ca1 O6 2.959662 1_556
Ca1 O3 3.095590 1_555
Nd0 O0 2.327531 1_554
Nd0 O2 2.327531 1_455
Nd0 O6 2.366236 1_455
Nd0 O4 2.366236 1_554
Nd0 O11 2.381002 1_454
Nd0 O9 2.381002 1_555
Nd1 O5 2.353384 1_555
Nd1 O7 2.353384 1_545
Nd1 O1 2.360201 1_545
Nd1 O3 2.360201 1_555
Nd1 O8 2.369053 1_545
Nd1 O10 2.369053 1_555
Eu0 O7 2.434589 1_545
Eu0 O8 2.454718 1_645
Eu0 O2 2.465833 1_545
Eu0 O9 2.587220 1_655
Eu0 O3 2.728954 1_555
Eu0 O6 2.761099 1_555
Eu0 O5 2.956385 1_655
Eu0 O0 3.002961 1_654
Eu1 O5 2.434589 1_565
Eu1 O10 2.454718 1_465
Eu1 O0 2.465833 1_565
Eu1 O11 2.587220 1_455
Eu1 O1 2.728954 1_555
Eu1 O4 2.761099 1_555
Eu1 O7 2.956385 1_455
Eu1 O2 3.002961 1_456
O0 Sb0 2.011854 1_556
O1 Sb1 2.025470 1_555
O2 Sb0 2.011854 1_565
O3 Sb1 2.025470 1_655
O4 Sb0 2.042063 1_566
O5 Sb1 2.024728 1_555
O6 Sb0 2.042063 1_555
O7 Sb1 2.024728 1_655
O8 Sb0 2.037733 1_565
O9 Sb1 2.045309 1_555
O10 Sb0 2.037733 1_556
O11 Sb1 2.045309 1_655
