# generated using pymatgen
data_La2Co2Se2O3
_symmetry_space_group_name_H-M   'P 1'
_cell_length_a   9.72751472
_cell_length_b   9.72751472
_cell_length_c   9.72751472
_cell_angle_alpha   155.67103254
_cell_angle_beta   155.67103254
_cell_angle_gamma   34.67521575
_symmetry_Int_Tables_number   1
_chemical_formula_structural   La2Co2Se2O3
_chemical_formula_sum   'La2 Co2 Se2 O3'
_cell_volume   156.05520783
_cell_formula_units_Z   1
loop_
 _symmetry_equiv_pos_site_id
 _symmetry_equiv_pos_as_xyz
  1  'x, y, z'
loop_
 _atom_site_type_symbol
 _atom_site_label
 _atom_site_symmetry_multiplicity
 _atom_site_fract_x
 _atom_site_fract_y
 _atom_site_fract_z
 _atom_site_occupancy
  La  La0  1  0.31575600  0.31575600  0.00000000  1
  La  La1  1  0.68424400  0.68424400  0.00000000  1
  Co  Co0  1  0.50000000  0.00000000  0.50000000  1
  Co  Co1  1  0.00000000  0.50000000  0.50000000  1
  Se  Se0  1  0.90448100  0.90448100  0.00000000  1
  Se  Se1  1  0.09551900  0.09551900  0.00000000  1
  O  O0  1  0.25000000  0.75000000  0.50000000  1
  O  O1  1  0.75000000  0.25000000  0.50000000  1
  O  O2  1  0.50000000  0.50000000  0.00000000  1
loop_
_geom_bond_atom_site_label_1
_geom_bond_atom_site_label_2
_geom_bond_distance
_geom_bond_site_symmetry_2
La0 O0 2.385958 1_555
La0 O1 2.385958 1_454
La0 O0 2.385958 1_544
La0 O1 2.385958 1_555
La0 Se0 3.334382 1_455
La0 Se0 3.334382 1_556
La0 Se0 3.334382 1_545
La0 Se0 3.334382 1_444
La1 O0 2.385958 1_554
La1 O0 2.385958 1_655
La1 O1 2.385958 1_565
La1 O1 2.385958 1_554
La1 Se1 3.334382 1_565
La1 Se1 3.334382 1_666
La1 Se1 3.334382 1_554
La1 Se1 3.334382 1_655
Co0 O2 2.049771 1_545
Co0 O2 2.049771 1_556
Co0 Se1 2.710767 1_656
Co0 Se1 2.710767 1_555
Co0 Se0 2.710767 1_445
Co0 Se0 2.710767 1_546
Co1 O2 2.049771 1_455
Co1 O2 2.049771 1_556
Co1 Se1 2.710767 1_555
Co1 Se1 2.710767 1_566
Co1 Se0 2.710767 1_445
Co1 Se0 2.710767 1_456
