# generated using pymatgen
data_LiB(H4N)2
_symmetry_space_group_name_H-M   'P 1'
_cell_length_a   6.93502385
_cell_length_b   6.93502385
_cell_length_c   10.45216735
_cell_angle_alpha   76.50536551
_cell_angle_beta   76.50536551
_cell_angle_gamma   58.88031416
_symmetry_Int_Tables_number   1
_chemical_formula_structural   LiB(H4N)2
_chemical_formula_sum   'Li4 B4 H32 N8'
_cell_volume   414.61233472
_cell_formula_units_Z   4
loop_
 _symmetry_equiv_pos_site_id
 _symmetry_equiv_pos_as_xyz
  1  'x, y, z'
loop_
 _atom_site_type_symbol
 _atom_site_label
 _atom_site_symmetry_multiplicity
 _atom_site_fract_x
 _atom_site_fract_y
 _atom_site_fract_z
 _atom_site_occupancy
  Li  Li0  1  0.79526400  0.58710400  0.48348300  1
  Li  Li1  1  0.58710400  0.79526400  0.98348300  1
  Li  Li2  1  0.08194500  0.80496200  0.97228800  1
  Li  Li3  1  0.80496200  0.08194500  0.47228800  1
  B  B0  1  0.33620000  0.93194800  0.81219500  1
  B  B1  1  0.93194800  0.33620000  0.31219500  1
  B  B2  1  0.68347400  0.07774100  0.01489900  1
  B  B3  1  0.07774100  0.68347400  0.51489900  1
  H  H0  1  0.30707800  0.10166000  0.73194000  1
  H  H1  1  0.10166000  0.30707800  0.23194000  1
  H  H2  1  0.54111500  0.79293800  0.80585000  1
  H  H3  1  0.79293800  0.54111500  0.30585000  1
  H  H4  1  0.23754900  0.84422300  0.78588900  1
  H  H5  1  0.84422300  0.23754900  0.28588900  1
  H  H6  1  0.26116100  0.98926000  0.92418900  1
  H  H7  1  0.98926000  0.26116100  0.42418900  1
  H  H8  1  0.76401500  0.88628500  0.07921100  1
  H  H9  1  0.88628500  0.76401500  0.57921100  1
  H  H10  1  0.54362700  0.10485100  0.94880200  1
  H  H11  1  0.10485100  0.54362700  0.44880200  1
  H  H12  1  0.83297800  0.10674900  0.93794700  1
  H  H13  1  0.10674900  0.83297800  0.43794700  1
  H  H14  1  0.59205700  0.21770500  0.09238200  1
  H  H15  1  0.21770500  0.59205700  0.59238200  1
  H  H16  1  0.35378000  0.92060800  0.43747800  1
  H  H17  1  0.92060800  0.35378000  0.93747800  1
  H  H18  1  0.43733800  0.93042100  0.56812400  1
  H  H19  1  0.93042100  0.43733800  0.06812400  1
  H  H20  1  0.38805000  0.24115700  0.40483400  1
  H  H21  1  0.24115700  0.38805000  0.90483400  1
  H  H22  1  0.59007600  0.06594900  0.30521800  1
  H  H23  1  0.06594900  0.59007600  0.80521800  1
  H  H24  1  0.15626900  0.63570500  0.23103400  1
  H  H25  1  0.63570500  0.15626900  0.73103400  1
  H  H26  1  0.36213700  0.49386400  0.11924300  1
  H  H27  1  0.49386400  0.36213700  0.61924300  1
  H  H28  1  0.48014800  0.65155200  0.23793000  1
  H  H29  1  0.65155200  0.48014800  0.73793000  1
  H  H30  1  0.27910800  0.90520500  0.18623600  1
  H  H31  1  0.90520500  0.27910800  0.68623600  1
  N  N0  1  0.49073100  0.90467000  0.47024300  1
  N  N1  1  0.90467000  0.49073100  0.97024300  1
  N  N2  1  0.53705900  0.08836800  0.40330300  1
  N  N3  1  0.08836800  0.53705900  0.90330300  1
  N  N4  1  0.25070600  0.65565600  0.14226500  1
  N  N5  1  0.65565600  0.25070600  0.64226500  1
  N  N6  1  0.38931400  0.74624300  0.15951700  1
  N  N7  1  0.74624300  0.38931400  0.65951700  1
loop_
_geom_bond_atom_site_label_1
_geom_bond_atom_site_label_2
_geom_bond_distance
_geom_bond_site_symmetry_2
Li0 N7 2.096341 1_555
Li0 N0 2.125121 1_555
Li1 N6 2.096341 1_556
Li1 N1 2.125121 1_555
Li2 N4 2.111288 1_556
Li2 N3 2.120947 1_555
Li3 N5 2.111288 1_555
Li3 N2 2.120947 1_555
B0 H0 1.225668 1_565
B0 H4 1.228765 1_555
B0 H6 1.232106 1_555
B0 H2 1.234110 1_555
B1 H1 1.225668 1_655
B1 H5 1.228765 1_555
B1 H7 1.232106 1_555
B1 H3 1.234110 1_555
B2 H14 1.221126 1_555
B2 H12 1.230145 1_554
B2 H10 1.231599 1_554
B2 H8 1.232423 1_545
B3 H15 1.221126 1_555
B3 H13 1.230145 1_555
B3 H11 1.231599 1_555
B3 H9 1.232423 1_455
H2 Li1 1.960812 1_555
H3 Li0 1.960812 1_555
H4 Li2 2.027145 1_555
H5 Li3 2.027145 1_555
H6 Li1 2.103531 1_555
H6 Li2 2.116959 1_555
H7 Li0 2.103531 1_555
H7 Li3 2.116959 1_555
H8 Li2 2.070564 1_654
H8 Li1 2.138463 1_554
H9 Li3 2.070564 1_565
H9 Li0 2.138463 1_555
H10 Li1 1.962280 1_545
H11 Li0 1.962280 1_455
H12 Li2 1.921880 1_645
H13 Li3 1.921880 1_465
H16 N0 1.028185 1_555
H17 N1 1.028185 1_555
H18 N0 1.027515 1_555
H19 N1 1.027515 1_554
H20 N2 1.029200 1_555
H21 N3 1.029200 1_555
H22 N2 1.024585 1_555
H23 N3 1.024585 1_555
H24 N4 1.029119 1_555
H25 N5 1.029119 1_555
H26 N4 1.028106 1_555
H27 N5 1.028106 1_555
H28 N6 1.030511 1_555
H29 N7 1.030511 1_555
H30 N6 1.024979 1_555
H31 N7 1.024979 1_555
