# generated using pymatgen
data_ZnCu(WO4)2
_symmetry_space_group_name_H-M   'P 1'
_cell_length_a   4.74524600
_cell_length_b   5.01087319
_cell_length_c   5.88285058
_cell_angle_alpha   88.35376520
_cell_angle_beta   86.01154898
_cell_angle_gamma   87.15014310
_symmetry_Int_Tables_number   1
_chemical_formula_structural   ZnCu(WO4)2
_chemical_formula_sum   'Zn1 Cu1 W2 O8'
_cell_volume   139.32520463
_cell_formula_units_Z   1
loop_
 _symmetry_equiv_pos_site_id
 _symmetry_equiv_pos_as_xyz
  1  'x, y, z'
loop_
 _atom_site_type_symbol
 _atom_site_label
 _atom_site_symmetry_multiplicity
 _atom_site_fract_x
 _atom_site_fract_y
 _atom_site_fract_z
 _atom_site_occupancy
  Zn  Zn0  1  0.48948000  0.74009800  0.32198200  1
  Cu  Cu0  1  0.49904300  0.24576900  0.65904800  1
  W  W0  1  0.99724800  0.75645500  0.82919500  1
  W  W1  1  0.00380700  0.25090700  0.17090500  1
  O  O0  1  0.78614400  0.93739700  0.11187800  1
  O  O1  1  0.22089900  0.07151200  0.88281800  1
  O  O2  1  0.26586200  0.58788500  0.62791100  1
  O  O3  1  0.73501100  0.39892200  0.38500200  1
  O  O4  1  0.21872900  0.56476000  0.10593800  1
  O  O5  1  0.78941400  0.44806800  0.90857300  1
  O  O6  1  0.74473100  0.91642200  0.63900600  1
  O  O7  1  0.24963400  0.08180300  0.35774500  1
loop_
_geom_bond_atom_site_label_1
_geom_bond_atom_site_label_2
_geom_bond_distance
_geom_bond_site_symmetry_2
Cu0 O6 1.974180 1_545
Cu0 O2 2.004558 1_555
Cu0 O1 2.011033 1_555
Cu0 O3 2.050627 1_555
Cu0 O5 2.363615 1_555
Cu0 O7 2.385321 1_555
O0 W1 1.974306 1_665
O0 Zn0 2.076778 1_555
O0 W0 2.087015 1_554
O1 W0 1.989961 1_445
O1 W1 2.119934 1_556
O2 W0 1.865687 1_455
O2 Zn0 2.163957 1_555
O3 W1 1.870686 1_655
O3 Zn0 2.059908 1_555
O4 W1 1.931379 1_555
O4 Zn0 2.107481 1_555
O4 W0 2.173828 1_454
O5 W0 1.903846 1_555
O5 W1 2.103224 1_656
O6 W0 1.835656 1_555
O6 Zn0 2.498258 1_555
O7 W1 1.820290 1_555
O7 Zn0 2.016178 1_545
