# generated using pymatgen
data_MgCuP2O7
_symmetry_space_group_name_H-M   'P 1'
_cell_length_a   8.27694100
_cell_length_b   6.97590500
_cell_length_c   9.28749169
_cell_angle_alpha   69.38175225
_cell_angle_beta   90.00000000
_cell_angle_gamma   90.00000000
_symmetry_Int_Tables_number   1
_chemical_formula_structural   MgCuP2O7
_chemical_formula_sum   'Mg4 Cu4 P8 O28'
_cell_volume   501.90360194
_cell_formula_units_Z   4
loop_
 _symmetry_equiv_pos_site_id
 _symmetry_equiv_pos_as_xyz
  1  'x, y, z'
loop_
 _atom_site_type_symbol
 _atom_site_label
 _atom_site_symmetry_multiplicity
 _atom_site_fract_x
 _atom_site_fract_y
 _atom_site_fract_z
 _atom_site_occupancy
  Mg  Mg0  1  0.93826000  0.31002600  0.81632700  1
  Mg  Mg1  1  0.43826000  0.68997400  0.68367300  1
  Mg  Mg2  1  0.56174000  0.31002600  0.31632700  1
  Mg  Mg3  1  0.06174000  0.68997400  0.18367300  1
  Cu  Cu0  1  0.06973200  0.76665700  0.60891500  1
  Cu  Cu1  1  0.93026800  0.23334300  0.39108500  1
  Cu  Cu2  1  0.56973200  0.23334300  0.89108500  1
  Cu  Cu3  1  0.43026800  0.76665700  0.10891500  1
  P  P0  1  0.73283400  0.93202600  0.24399100  1
  P  P1  1  0.23021300  0.46570900  0.97131900  1
  P  P2  1  0.76716600  0.93202600  0.74399100  1
  P  P3  1  0.26978700  0.46570900  0.47131900  1
  P  P4  1  0.23283400  0.06797400  0.25600900  1
  P  P5  1  0.73021300  0.53429100  0.52868100  1
  P  P6  1  0.76978700  0.53429100  0.02868100  1
  P  P7  1  0.26716600  0.06797400  0.75600900  1
  O  O0  1  0.18245500  0.25225800  0.10030900  1
  O  O1  1  0.60941700  0.88291500  0.68566600  1
  O  O2  1  0.89058300  0.88291500  0.18566600  1
  O  O3  1  0.39342000  0.45181100  0.89502400  1
  O  O4  1  0.81754500  0.74774200  0.89969100  1
  O  O5  1  0.09131800  0.04240000  0.36990500  1
  O  O6  1  0.60658000  0.54818900  0.10497600  1
  O  O7  1  0.09091600  0.50702800  0.85854300  1
  O  O8  1  0.25848000  0.62659400  0.55161700  1
  O  O9  1  0.90868200  0.95760000  0.63009500  1
  O  O10  1  0.40868200  0.04240000  0.86990500  1
  O  O11  1  0.76044600  0.12078900  0.79396300  1
  O  O12  1  0.26044600  0.87921100  0.70603700  1
  O  O13  1  0.31754500  0.25225800  0.60030900  1
  O  O14  1  0.59131800  0.95760000  0.13009500  1
  O  O15  1  0.10941700  0.11708500  0.81433400  1
  O  O16  1  0.23955400  0.87921100  0.20603700  1
  O  O17  1  0.90908400  0.49297200  0.14145700  1
  O  O18  1  0.24152000  0.62659400  0.05161700  1
  O  O19  1  0.75848000  0.37340600  0.94838300  1
  O  O20  1  0.89342000  0.54818900  0.60497600  1
  O  O21  1  0.40908400  0.50702800  0.35854300  1
  O  O22  1  0.59091600  0.49297200  0.64145700  1
  O  O23  1  0.39058300  0.11708500  0.31433400  1
  O  O24  1  0.73955400  0.12078900  0.29396300  1
  O  O25  1  0.10658000  0.45181100  0.39502400  1
  O  O26  1  0.74152000  0.37340600  0.44838300  1
  O  O27  1  0.68245500  0.74774200  0.39969100  1
loop_
_geom_bond_atom_site_label_1
_geom_bond_atom_site_label_2
_geom_bond_distance
_geom_bond_site_symmetry_2
Mg0 O15 1.958661 1_655
Mg0 O7 2.004574 1_655
Mg0 O11 2.035922 1_555
Mg0 O19 2.072641 1_555
Mg0 O20 2.110512 1_555
Mg1 O1 1.958661 1_555
Mg1 O22 2.004574 1_555
Mg1 O12 2.035922 1_555
Mg1 O8 2.072641 1_555
Mg1 O3 2.110512 1_555
Mg2 O23 1.958661 1_555
Mg2 O21 2.004574 1_555
Mg2 O24 2.035922 1_555
Mg2 O26 2.072641 1_555
Mg2 O6 2.110512 1_555
Mg3 O2 1.958661 1_455
Mg3 O17 2.004574 1_455
Mg3 O16 2.035922 1_555
Mg3 O18 2.072641 1_555
Mg3 O25 2.110512 1_555
Cu0 O9 1.942767 1_455
Cu0 O8 2.011139 1_555
Cu0 O12 2.102540 1_555
Cu0 O20 2.119633 1_455
Cu0 O5 2.377457 1_565
Cu0 O7 2.393490 1_555
Cu1 O5 1.942767 1_655
Cu1 O26 2.011139 1_555
Cu1 O24 2.102540 1_555
Cu1 O25 2.119633 1_655
Cu1 O9 2.377457 1_545
Cu1 O17 2.393490 1_555
Cu2 O10 1.942767 1_555
Cu2 O19 2.011139 1_555
Cu2 O11 2.102540 1_555
Cu2 O3 2.119633 1_555
Cu2 O14 2.377457 1_546
Cu2 O22 2.393490 1_555
Cu3 O14 1.942767 1_555
Cu3 O18 2.011139 1_555
Cu3 O16 2.102540 1_555
Cu3 O6 2.119633 1_555
Cu3 O10 2.377457 1_564
Cu3 O21 2.393490 1_555
O0 P1 1.597589 1_554
O0 P4 1.615042 1_555
O1 P2 1.498766 1_555
O2 P0 1.498766 1_555
O3 P1 1.544244 1_555
O4 P6 1.597589 1_556
O4 P2 1.615042 1_555
O5 P4 1.545919 1_555
O6 P6 1.544244 1_555
O7 P1 1.515526 1_555
O8 P3 1.553705 1_555
O9 P2 1.545919 1_555
O10 P7 1.545919 1_555
O11 P2 1.543650 1_545
O12 P7 1.543650 1_565
O13 P3 1.597589 1_555
O13 P7 1.615042 1_555
O14 P0 1.545919 1_555
O15 P7 1.498766 1_555
O16 P4 1.543650 1_565
O17 P6 1.515526 1_555
O18 P1 1.553705 1_554
O19 P6 1.553705 1_556
O20 P5 1.544244 1_555
O21 P3 1.515526 1_555
O22 P5 1.515526 1_555
O23 P4 1.498766 1_555
O24 P0 1.543650 1_545
O25 P3 1.544244 1_555
O26 P5 1.553705 1_555
O27 P5 1.597589 1_555
O27 P0 1.615042 1_555
