# generated using pymatgen
data_S4I2O15
_symmetry_space_group_name_H-M   'P 1'
_cell_length_a   5.45144124
_cell_length_b   6.67697309
_cell_length_c   9.07816534
_cell_angle_alpha   95.88901121
_cell_angle_beta   94.45911416
_cell_angle_gamma   109.14365483
_symmetry_Int_Tables_number   1
_chemical_formula_structural   S4I2O15
_chemical_formula_sum   'S4 I2 O15'
_cell_volume   308.32703674
_cell_formula_units_Z   1
loop_
 _symmetry_equiv_pos_site_id
 _symmetry_equiv_pos_as_xyz
  1  'x, y, z'
loop_
 _atom_site_type_symbol
 _atom_site_label
 _atom_site_symmetry_multiplicity
 _atom_site_fract_x
 _atom_site_fract_y
 _atom_site_fract_z
 _atom_site_occupancy
  S  S0  1  0.71598741  0.32376153  0.86026716  1
  S  S1  1  0.55175152  0.78864905  0.23283612  1
  S  S2  1  0.36817575  0.34831566  0.28803586  1
  S  S3  1  0.12442591  0.83463538  0.64229105  1
  I  I0  1  0.05047904  0.34592711  0.56628220  1
  I  I1  1  0.84852418  0.81665565  0.95178591  1
  O  O0  1  0.88338554  0.82134313  0.71836447  1
  O  O1  1  0.02178088  0.62172540  0.52269305  1
  O  O2  1  0.93126350  0.55254490  0.93114097  1
  O  O3  1  0.37352176  0.42328445  0.45782254  1
  O  O4  1  0.71241894  0.32648144  0.69446566  1
  O  O5  1  0.13370628  0.17929230  0.23368582  1
  O  O6  1  0.33271833  0.54633108  0.21135413  1
  O  O7  1  0.78920799  0.75125451  0.17138993  1
  O  O8  1  0.33689839  0.82882789  0.74058480  1
  O  O9  1  0.61947862  0.33880685  0.27082865  1
  O  O10  1  0.16710069  0.00160286  0.54884567  1
  O  O11  1  0.46728510  0.31132787  0.90339298  1
  O  O12  1  0.61142493  0.86026028  0.38765641  1
  O  O13  1  0.84517341  0.18324564  0.91118680  1
  O  O14  1  0.43290585  0.89092301  0.13441083  1
loop_
_geom_bond_atom_site_label_1
_geom_bond_atom_site_label_2
_geom_bond_distance
_geom_bond_site_symmetry_2
I0 O1 1.975104 1_555
I0 O3 2.028531 1_555
I0 O4 2.230438 1_455
I0 O10 2.571860 1_555
I1 O2 1.953298 1_555
I1 O7 2.110917 1_556
I1 O0 2.144702 1_555
I1 O13 2.518108 1_565
O0 S3 1.512829 1_655
O1 S3 1.606215 1_555
O2 S0 1.621676 1_555
O3 S2 1.565983 1_555
O4 S0 1.505836 1_555
O5 S2 1.411538 1_555
O6 S2 1.614182 1_555
O6 S1 1.647269 1_555
O7 S1 1.531296 1_555
O8 S3 1.419581 1_555
O9 S2 1.411920 1_555
O10 S3 1.439190 1_545
O11 S0 1.419051 1_555
O12 S1 1.413796 1_555
O13 S0 1.435844 1_555
O14 S1 1.417682 1_555
