# generated using pymatgen
data_Na2CoSiCO7
_symmetry_space_group_name_H-M   'P 1'
_cell_length_a   5.15065287
_cell_length_b   9.66979525
_cell_length_c   12.58449573
_cell_angle_alpha   89.89614120
_cell_angle_beta   90.01883042
_cell_angle_gamma   90.84168758
_symmetry_Int_Tables_number   1
_chemical_formula_structural   Na2CoSiCO7
_chemical_formula_sum   'Na8 Co4 Si4 C4 O28'
_cell_volume   626.71167004
_cell_formula_units_Z   4
loop_
 _symmetry_equiv_pos_site_id
 _symmetry_equiv_pos_as_xyz
  1  'x, y, z'
loop_
 _atom_site_type_symbol
 _atom_site_label
 _atom_site_symmetry_multiplicity
 _atom_site_fract_x
 _atom_site_fract_y
 _atom_site_fract_z
 _atom_site_occupancy
  Na  Na0  1  0.24128100  0.24254600  0.00147000  1
  Na  Na1  1  0.25329300  0.24096200  0.50084700  1
  Na  Na2  1  0.24558600  0.24287700  0.25178800  1
  Na  Na3  1  0.24428500  0.24176200  0.74644400  1
  Na  Na4  1  0.75431500  0.75710200  0.24821100  1
  Na  Na5  1  0.75577900  0.75822400  0.75357800  1
  Na  Na6  1  0.75875200  0.75744600  0.49852200  1
  Na  Na7  1  0.74660000  0.75903500  0.99915800  1
  Co  Co0  1  0.80638000  0.37798900  0.87484600  1
  Co  Co1  1  0.19362300  0.62200900  0.62515500  1
  Co  Co2  1  0.81340900  0.39888200  0.37575000  1
  Co  Co3  1  0.18652200  0.60110500  0.12424300  1
  Si  Si0  1  0.68329200  0.42324400  0.12583300  1
  Si  Si1  1  0.67925400  0.43153300  0.62460500  1
  Si  Si2  1  0.31665200  0.57674200  0.37415400  1
  Si  Si3  1  0.32075300  0.56846100  0.87540500  1
  C  C0  1  0.74513900  0.06124400  0.37560600  1
  C  C1  1  0.72723400  0.07079200  0.87417900  1
  C  C2  1  0.25475700  0.93874600  0.12439400  1
  C  C3  1  0.27300900  0.92922200  0.62582600  1
  O  O0  1  0.26490100  0.07083900  0.12674800  1
  O  O1  1  0.23646800  0.05954400  0.62471900  1
  O  O2  1  0.73501700  0.92915300  0.37324200  1
  O  O3  1  0.76376300  0.94046200  0.87529300  1
  O  O4  1  0.96335500  0.12571200  0.37779700  1
  O  O5  1  0.92656000  0.15409000  0.87282200  1
  O  O6  1  0.03654700  0.87428200  0.12220500  1
  O  O7  1  0.07364300  0.84595400  0.62717400  1
  O  O8  1  0.53372500  0.12926000  0.37579700  1
  O  O9  1  0.49956100  0.12063500  0.87443600  1
  O  O10  1  0.46617400  0.87072800  0.12421000  1
  O  O11  1  0.50068000  0.87938700  0.62556400  1
  O  O12  1  0.18439800  0.42096800  0.37733800  1
  O  O13  1  0.17734500  0.41611300  0.87302600  1
  O  O14  1  0.81553900  0.57902100  0.12265900  1
  O  O15  1  0.82265500  0.58389800  0.62697400  1
  O  O16  1  0.36209400  0.42876400  0.12660600  1
  O  O17  1  0.35774900  0.44457500  0.62300500  1
  O  O18  1  0.63785300  0.57122600  0.37338700  1
  O  O19  1  0.64223800  0.55542500  0.87699600  1
  O  O20  1  0.76185900  0.33435300  0.01874600  1
  O  O21  1  0.75492900  0.34346400  0.51642700  1
  O  O22  1  0.77053100  0.34007200  0.23463900  1
  O  O23  1  0.74754900  0.33829300  0.73110500  1
  O  O24  1  0.22940100  0.65991300  0.26535200  1
  O  O25  1  0.25242500  0.66173600  0.76890600  1
  O  O26  1  0.23810800  0.66566900  0.48124000  1
  O  O27  1  0.24501600  0.65653700  0.98357100  1
loop_
_geom_bond_atom_site_label_1
_geom_bond_atom_site_label_2
_geom_bond_distance
_geom_bond_site_symmetry_2
Na0 O0 2.292051 1_555
Na0 O13 2.354600 1_554
Na0 O9 2.401966 1_554
Na0 O5 2.437817 1_454
Na0 O16 2.467048 1_555
Na0 O20 2.645459 1_455
Na0 O20 2.820500 1_555
Na1 O1 2.345371 1_555
Na1 O12 2.362097 1_555
Na1 O8 2.404788 1_555
Na1 O4 2.413690 1_455
Na1 O17 2.551196 1_555
Na1 O21 2.760757 1_555
Na1 O21 2.772296 1_455
Na2 O0 2.295198 1_555
Na2 O12 2.363779 1_555
Na2 O4 2.420334 1_455
Na2 O8 2.425946 1_555
Na2 O16 2.455907 1_555
Na2 O22 2.642617 1_455
Na2 O22 2.857530 1_555
Na3 O1 2.336776 1_555
Na3 O13 2.350744 1_555
Na3 O9 2.394180 1_555
Na3 O5 2.425338 1_455
Na3 O17 2.560600 1_555
Na3 O23 2.742945 1_455
Na3 O23 2.748878 1_555
Na4 O2 2.295207 1_555
Na4 O14 2.363752 1_555
Na4 O6 2.420379 1_655
Na4 O10 2.425927 1_555
Na4 O18 2.455726 1_555
Na4 O24 2.642737 1_655
Na4 O24 2.857354 1_555
Na5 O3 2.336844 1_555
Na5 O15 2.350706 1_555
Na5 O11 2.394031 1_555
Na5 O7 2.426222 1_655
Na5 O19 2.560423 1_555
Na5 O25 2.742353 1_655
Na5 O25 2.749168 1_555
Na6 O2 2.292106 1_555
Na6 O15 2.354512 1_555
Na6 O11 2.401577 1_555
Na6 O7 2.438600 1_655
Na6 O18 2.467161 1_555
Na6 O26 2.645045 1_655
Na6 O26 2.820740 1_555
Na7 O3 2.345423 1_555
Na7 O14 2.362125 1_556
Na7 O10 2.404745 1_556
Na7 O6 2.413681 1_656
Na7 O19 2.551108 1_555
Na7 O27 2.760501 1_555
Na7 O27 2.772537 1_655
Co0 O20 1.872079 1_556
Co0 O23 1.873513 1_555
Co0 O19 1.924101 1_555
Co0 O13 1.940761 1_655
Co0 O5 2.260724 1_555
Co1 O26 1.872290 1_555
Co1 O25 1.873672 1_555
Co1 O17 1.924046 1_555
Co1 O15 1.940754 1_455
Co1 O7 2.260855 1_555
Co2 O21 1.871951 1_555
Co2 O22 1.877602 1_555
Co2 O18 1.907856 1_555
Co2 O12 1.919714 1_655
Co3 O27 1.871941 1_554
Co3 O24 1.877573 1_555
Co3 O16 1.907870 1_555
Co3 O14 1.919681 1_455
C0 O4 1.277540 1_555
C0 O2 1.277991 1_545
C0 O8 1.280379 1_555
C1 O9 1.274387 1_555
C1 O3 1.277013 1_545
C1 O5 1.295676 1_555
C2 O6 1.277495 1_555
C2 O0 1.278010 1_565
C2 O10 1.280403 1_555
C3 O11 1.274347 1_555
C3 O1 1.276946 1_565
C3 O7 1.295659 1_555
O12 Si2 1.644455 1_555
O13 Si3 1.638570 1_555
O14 Si0 1.644464 1_555
O15 Si1 1.638698 1_555
O16 Si0 1.656056 1_555
O17 Si1 1.662715 1_555
O18 Si2 1.656069 1_555
O19 Si3 1.662605 1_555
O20 Si0 1.653329 1_555
O21 Si1 1.656739 1_555
O22 Si0 1.652226 1_555
O23 Si1 1.654550 1_555
O24 Si2 1.652196 1_555
O25 Si3 1.654762 1_555
O26 Si2 1.653472 1_555
O27 Si3 1.656727 1_555
