# generated using pymatgen
data_Li7Mn2(CoO4)3
_symmetry_space_group_name_H-M   'P 1'
_cell_length_a   5.16466478
_cell_length_b   10.62106129
_cell_length_c   8.54556563
_cell_angle_alpha   66.29622803
_cell_angle_beta   90.01168838
_cell_angle_gamma   96.93442787
_symmetry_Int_Tables_number   1
_chemical_formula_structural   Li7Mn2(CoO4)3
_chemical_formula_sum   'Li14 Mn4 Co6 O24'
_cell_volume   425.47141922
_cell_formula_units_Z   2
loop_
 _symmetry_equiv_pos_site_id
 _symmetry_equiv_pos_as_xyz
  1  'x, y, z'
loop_
 _atom_site_type_symbol
 _atom_site_label
 _atom_site_symmetry_multiplicity
 _atom_site_fract_x
 _atom_site_fract_y
 _atom_site_fract_z
 _atom_site_occupancy
  Li  Li0  1  0.25008600  0.50018000  0.91657300  1
  Li  Li1  1  0.74991600  0.49981600  0.41676000  1
  Li  Li2  1  0.36918200  0.25846500  0.53730300  1
  Li  Li3  1  0.86761300  0.25899600  0.03803400  1
  Li  Li4  1  0.13234700  0.74098200  0.29716800  1
  Li  Li5  1  0.63085000  0.74155200  0.79575500  1
  Li  Li6  1  0.37786100  0.25462100  0.20159600  1
  Li  Li7  1  0.87321000  0.25389800  0.70224500  1
  Li  Li8  1  0.12673200  0.74606000  0.95613600  1
  Li  Li9  1  0.62200800  0.74541500  0.45626700  1
  Li  Li10  1  0.87258000  0.25333200  0.37671200  1
  Li  Li11  1  0.37666300  0.25531500  0.87684700  1
  Li  Li12  1  0.62347600  0.74464200  0.13222500  1
  Li  Li13  1  0.12745000  0.74670200  0.62998900  1
  Mn  Mn0  1  0.99993300  0.00004800  0.99858000  1
  Mn  Mn1  1  0.00007400  0.99997800  0.33675800  1
  Mn  Mn2  1  0.50003300  0.00007500  0.83257800  1
  Mn  Mn3  1  0.49992200  0.99990100  0.49937000  1
  Co  Co0  1  0.24989400  0.50007200  0.24500000  1
  Co  Co1  1  0.75013000  0.49992600  0.74505500  1
  Co  Co2  1  0.00000100  0.00000400  0.66727800  1
  Co  Co3  1  0.49997100  0.99997400  0.16426100  1
  Co  Co4  1  0.25003400  0.50007200  0.58832700  1
  Co  Co5  1  0.74999400  0.49993300  0.08838300  1
  O  O0  1  0.17389500  0.11662600  0.10862000  1
  O  O1  1  0.66589500  0.11974700  0.60648500  1
  O  O2  1  0.33407400  0.88022800  0.72640500  1
  O  O3  1  0.82611300  0.88339500  0.22520100  1
  O  O4  1  0.41079000  0.60803000  0.36260500  1
  O  O5  1  0.91045700  0.60770400  0.86293700  1
  O  O6  1  0.08958100  0.39231400  0.47057600  1
  O  O7  1  0.58924700  0.39197500  0.97061000  1
  O  O8  1  0.16288200  0.11639200  0.77270700  1
  O  O9  1  0.66550500  0.12038900  0.27347500  1
  O  O10  1  0.15965700  0.11738400  0.44540400  1
  O  O11  1  0.66587800  0.12042700  0.93755200  1
  O  O12  1  0.33420300  0.87937800  0.39445600  1
  O  O13  1  0.83719000  0.88362000  0.88916300  1
  O  O14  1  0.33437700  0.87982400  0.05832500  1
  O  O15  1  0.84028900  0.88262600  0.56283900  1
  O  O16  1  0.45474400  0.60786300  0.04478400  1
  O  O17  1  0.95352400  0.60800700  0.54496100  1
  O  O18  1  0.95350400  0.60824700  0.18030700  1
  O  O19  1  0.45496600  0.60778100  0.68079400  1
  O  O20  1  0.04644100  0.39196400  0.15297100  1
  O  O21  1  0.54520700  0.39213900  0.65261600  1
  O  O22  1  0.54505700  0.39220000  0.28852600  1
  O  O23  1  0.04656500  0.39178000  0.78847800  1
loop_
_geom_bond_atom_site_label_1
_geom_bond_atom_site_label_2
_geom_bond_distance
_geom_bond_site_symmetry_2
Li0 O16 2.083467 1_556
Li0 O19 2.083963 1_555
Li0 O23 2.085484 1_555
Li0 O20 2.085759 1_556
Li0 O5 2.157213 1_455
Li0 O7 2.159023 1_555
Li1 O22 2.083575 1_555
Li1 O21 2.084144 1_555
Li1 O17 2.084800 1_555
Li1 O18 2.086212 1_555
Li1 O6 2.157250 1_655
Li1 O4 2.158917 1_555
Li2 O6 2.067612 1_555
Li2 O10 2.141794 1_555
Li2 O22 2.150258 1_555
Li2 O21 2.150830 1_555
Li2 O8 2.151982 1_555
Li2 O1 2.170951 1_555
Li3 O7 2.056539 1_554
Li3 O9 2.133824 1_555
Li3 O20 2.147594 1_655
Li3 O11 2.152757 1_554
Li3 O23 2.158478 1_654
Li3 O0 2.235268 1_655
Li4 O4 2.056664 1_555
Li4 O12 2.133273 1_555
Li4 O17 2.147763 1_455
Li4 O14 2.153733 1_555
Li4 O18 2.157565 1_455
Li4 O3 2.235374 1_455
Li5 O5 2.067630 1_555
Li5 O15 2.142073 1_555
Li5 O19 2.149223 1_555
Li5 O13 2.151608 1_555
Li5 O16 2.152122 1_556
Li5 O2 2.170915 1_555
Li6 O22 2.000132 1_555
Li6 O9 2.103282 1_555
Li6 O0 2.110033 1_555
Li6 O7 2.125432 1_554
Li6 O10 2.213168 1_555
Li6 O20 2.312066 1_555
Li7 O23 2.009990 1_655
Li7 O1 2.101174 1_555
Li7 O11 2.131220 1_555
Li7 O8 2.133981 1_655
Li7 O6 2.143260 1_655
Li7 O21 2.303266 1_555
Li8 O18 2.010650 1_456
Li8 O2 2.101086 1_555
Li8 O13 2.133837 1_455
Li8 O14 2.135492 1_556
Li8 O5 2.141413 1_455
Li8 O16 2.303059 1_556
Li9 O19 2.000921 1_555
Li9 O12 2.102138 1_555
Li9 O3 2.111653 1_555
Li9 O4 2.124648 1_555
Li9 O15 2.212260 1_555
Li9 O17 2.312872 1_555
Li10 O20 2.011954 1_655
Li10 O1 2.098388 1_555
Li10 O10 2.112543 1_655
Li10 O9 2.133623 1_555
Li10 O6 2.151877 1_655
Li10 O22 2.304972 1_555
Li11 O21 1.999414 1_555
Li11 O11 2.114618 1_555
Li11 O0 2.114715 1_556
Li11 O7 2.122297 1_555
Li11 O8 2.202305 1_555
Li11 O23 2.300795 1_555
Li12 O16 1.998762 1_555
Li12 O3 2.113535 1_555
Li12 O14 2.116095 1_555
Li12 O4 2.122992 1_555
Li12 O13 2.203159 1_554
Li12 O18 2.300017 1_555
Li13 O17 2.011380 1_455
Li13 O2 2.098237 1_555
Li13 O15 2.112718 1_455
Li13 O12 2.129382 1_555
Li13 O5 2.153310 1_455
Li13 O19 2.305227 1_555
Mn0 O13 1.946341 1_545
Mn0 O8 1.947503 1_655
Mn0 O0 1.972754 1_656
Mn0 O3 1.973419 1_546
Mn0 O11 2.208946 1_555
Mn0 O14 2.209693 1_646
Mn1 O10 1.943866 1_565
Mn1 O15 1.945071 1_455
Mn1 O3 1.982261 1_455
Mn1 O0 1.982882 1_565
Mn1 O12 2.210732 1_555
Mn1 O9 2.211547 1_465
Mn2 O11 1.956936 1_555
Mn2 O14 1.959742 1_546
Mn2 O2 1.960345 1_545
Mn2 O1 1.961025 1_555
Mn2 O8 2.197933 1_555
Mn2 O13 2.198787 1_545
Mn3 O12 1.957758 1_555
Mn3 O9 1.961033 1_565
Mn3 O1 1.966197 1_565
Mn3 O2 1.966843 1_555
Mn3 O15 2.218322 1_555
Mn3 O10 2.219112 1_565
Co0 O20 1.864235 1_555
Co0 O16 1.868357 1_555
Co0 O6 1.925962 1_555
Co0 O4 1.926501 1_555
Co0 O22 1.963092 1_555
Co0 O18 1.970413 1_455
Co1 O17 1.864515 1_555
Co1 O21 1.867866 1_555
Co1 O5 1.925810 1_555
Co1 O7 1.927170 1_555
Co1 O19 1.962963 1_555
Co1 O23 1.970447 1_655
Co2 O15 1.917581 1_445
Co2 O10 1.918600 1_555
Co2 O8 1.921332 1_555
Co2 O13 1.922379 1_445
Co2 O1 2.205264 1_455
Co2 O2 2.205317 1_545
Co3 O14 1.960725 1_555
Co3 O11 1.966585 1_564
Co3 O9 1.983170 1_565
Co3 O12 1.988291 1_555
Co3 O3 2.150903 1_555
Co3 O0 2.151063 1_565
Co4 O23 1.865432 1_555
Co4 O19 1.867457 1_555
Co4 O6 1.925030 1_555
Co4 O4 1.928032 1_555
Co4 O21 1.963481 1_555
Co4 O17 1.969452 1_455
Co5 O18 1.865349 1_555
Co5 O22 1.868052 1_555
Co5 O5 1.925413 1_554
Co5 O7 1.927317 1_554
Co5 O16 1.963815 1_555
Co5 O20 1.969388 1_655
