# generated using pymatgen
data_Pr2Mn3(SbS3)4
_symmetry_space_group_name_H-M   'P 1'
_cell_length_a   10.20327448
_cell_length_b   10.20327448
_cell_length_c   14.95364829
_cell_angle_alpha   54.44105045
_cell_angle_beta   54.44105045
_cell_angle_gamma   22.05922705
_symmetry_Int_Tables_number   1
_chemical_formula_structural   Pr2Mn3(SbS3)4
_chemical_formula_sum   'Pr2 Mn3 Sb4 S12'
_cell_volume   471.00003347
_cell_formula_units_Z   1
loop_
 _symmetry_equiv_pos_site_id
 _symmetry_equiv_pos_as_xyz
  1  'x, y, z'
loop_
 _atom_site_type_symbol
 _atom_site_label
 _atom_site_symmetry_multiplicity
 _atom_site_fract_x
 _atom_site_fract_y
 _atom_site_fract_z
 _atom_site_occupancy
  Pr  Pr0  1  0.24045800  0.24045800  0.86277500  1
  Pr  Pr1  1  0.75954200  0.75954200  0.13722500  1
  Mn  Mn0  1  0.19930400  0.19930400  0.62027200  1
  Mn  Mn1  1  0.80069600  0.80069600  0.37972800  1
  Mn  Mn2  1  0.00000000  0.00000000  0.00000000  1
  Sb  Sb0  1  0.10643700  0.10643700  0.45212700  1
  Sb  Sb1  1  0.89356300  0.89356300  0.54787300  1
  Sb  Sb2  1  0.46154100  0.46154100  0.81454400  1
  Sb  Sb3  1  0.53845900  0.53845900  0.18545600  1
  S  S0  1  0.05817600  0.05817600  0.80208200  1
  S  S1  1  0.94182400  0.94182400  0.19791800  1
  S  S2  1  0.59956600  0.59956600  0.97895600  1
  S  S3  1  0.40043400  0.40043400  0.02104400  1
  S  S4  1  0.83247700  0.83247700  0.89490200  1
  S  S5  1  0.16752300  0.16752300  0.10509800  1
  S  S6  1  0.41116600  0.41116600  0.65004500  1
  S  S7  1  0.58883400  0.58883400  0.34995500  1
  S  S8  1  0.25742900  0.25742900  0.29309700  1
  S  S9  1  0.74257100  0.74257100  0.70690300  1
  S  S10  1  0.34281700  0.34281700  0.45243800  1
  S  S11  1  0.65718300  0.65718300  0.54756200  1
loop_
_geom_bond_atom_site_label_1
_geom_bond_atom_site_label_2
_geom_bond_distance
_geom_bond_site_symmetry_2
Pr0 S4 2.913346 1_545
Pr0 S4 2.913346 1_455
Pr0 S6 2.986914 1_555
Pr0 S2 2.997157 1_545
Pr0 S2 2.997157 1_455
Pr0 S5 2.998657 1_556
Pr0 S9 3.021306 1_545
Pr0 S9 3.021306 1_455
Pr1 S5 2.913346 1_655
Pr1 S5 2.913346 1_565
Pr1 S7 2.986914 1_555
Pr1 S3 2.997157 1_565
Pr1 S3 2.997157 1_655
Pr1 S4 2.998657 1_554
Pr1 S8 3.021306 1_565
Pr1 S8 3.021306 1_655
Mn0 S10 2.452121 1_555
Mn0 S0 2.505051 1_555
Mn0 S11 2.606039 1_545
Mn0 S11 2.606039 1_455
Mn0 S9 2.751373 1_455
Mn0 S9 2.751373 1_545
Mn1 S11 2.452121 1_555
Mn1 S1 2.505051 1_555
Mn1 S10 2.606039 1_565
Mn1 S10 2.606039 1_655
Mn1 S8 2.751373 1_565
Mn1 S8 2.751373 1_655
Mn2 S1 2.455700 1_445
Mn2 S0 2.455700 1_554
Mn2 S2 2.672639 1_544
Mn2 S2 2.672639 1_454
Mn2 S3 2.672639 1_545
Mn2 S3 2.672639 1_455
S0 Sb2 2.676606 1_455
S0 Sb2 2.676606 1_545
S1 Sb3 2.676606 1_565
S1 Sb3 2.676606 1_655
S2 Sb3 2.560235 1_556
S3 Sb2 2.560235 1_554
S4 Sb2 2.873370 1_655
S4 Sb2 2.873370 1_565
S5 Sb3 2.873370 1_455
S5 Sb3 2.873370 1_545
S6 Sb1 2.628205 1_455
S6 Sb1 2.628205 1_545
S7 Sb0 2.628205 1_655
S7 Sb0 2.628205 1_565
S8 Sb0 2.505865 1_555
S9 Sb1 2.505865 1_555
S10 Sb1 2.932420 1_455
S10 Sb1 2.932420 1_545
S11 Sb0 2.932420 1_655
S11 Sb0 2.932420 1_565
