# generated using pymatgen
data_LaThN2
_symmetry_space_group_name_H-M   'P 1'
_cell_length_a   6.41308572
_cell_length_b   6.41308572
_cell_length_c   6.41308632
_cell_angle_alpha   33.51159984
_cell_angle_beta   33.51159984
_cell_angle_gamma   33.51159984
_symmetry_Int_Tables_number   1
_chemical_formula_structural   LaThN2
_chemical_formula_sum   'La1 Th1 N2'
_cell_volume   71.60710205
_cell_formula_units_Z   1
loop_
 _symmetry_equiv_pos_site_id
 _symmetry_equiv_pos_as_xyz
  1  'x, y, z'
loop_
 _atom_site_type_symbol
 _atom_site_label
 _atom_site_symmetry_multiplicity
 _atom_site_fract_x
 _atom_site_fract_y
 _atom_site_fract_z
 _atom_site_occupancy
  La  La0  1  0.00000000  0.00000000  0.00000000  1
  Th  Th0  1  0.50000000  0.50000000  0.50000000  1
  N  N0  1  0.24202423  0.24202423  0.24202423  1
  N  N1  1  0.75797577  0.75797577  0.75797577  1
loop_
_geom_bond_atom_site_label_1
_geom_bond_atom_site_label_2
_geom_bond_distance
_geom_bond_site_symmetry_2
La0 N0 2.702171 1_545
La0 N0 2.702171 1_455
La0 N1 2.702171 1_544
La0 N1 2.702171 1_454
La0 N0 2.702172 1_554
La0 N1 2.702172 1_445
N0 Th0 2.535095 1_545
N0 Th0 2.535095 1_455
N0 Th0 2.535096 1_554
N1 Th0 2.535095 1_655
N1 Th0 2.535095 1_565
N1 Th0 2.535096 1_556
