# generated using pymatgen
data_CeMg14C
_symmetry_space_group_name_H-M   'P 1'
_cell_length_a   6.27747417
_cell_length_b   6.27747367
_cell_length_c   10.08316155
_cell_angle_alpha   90.00000000
_cell_angle_beta   90.00000000
_cell_angle_gamma   120.00000270
_symmetry_Int_Tables_number   1
_chemical_formula_structural   CeMg14C
_chemical_formula_sum   'Ce1 Mg14 C1'
_cell_volume   344.10990945
_cell_formula_units_Z   1
loop_
 _symmetry_equiv_pos_site_id
 _symmetry_equiv_pos_as_xyz
  1  'x, y, z'
loop_
 _atom_site_type_symbol
 _atom_site_label
 _atom_site_symmetry_multiplicity
 _atom_site_fract_x
 _atom_site_fract_y
 _atom_site_fract_z
 _atom_site_occupancy
  Ce  Ce0  1  0.16666700  0.33333300  0.12500000  1
  Mg  Mg0  1  0.18432708  0.84216304  0.12500000  1
  Mg  Mg1  1  0.15271937  0.82635919  0.62500000  1
  Mg  Mg2  1  0.65783696  0.31567292  0.12500000  1
  Mg  Mg3  1  0.67364081  0.34728063  0.62500000  1
  Mg  Mg4  1  0.65783696  0.84216304  0.12500000  1
  Mg  Mg5  1  0.67364081  0.82635919  0.62500000  1
  Mg  Mg6  1  0.32421048  0.17578952  0.40163789  1
  Mg  Mg7  1  0.32421048  0.17578952  0.84836211  1
  Mg  Mg8  1  0.32421048  0.64842196  0.40163789  1
  Mg  Mg9  1  0.32421048  0.64842196  0.84836211  1
  Mg  Mg10  1  0.85157804  0.17578952  0.40163789  1
  Mg  Mg11  1  0.85157804  0.17578952  0.84836211  1
  Mg  Mg12  1  0.83333300  0.66666700  0.36008725  1
  Mg  Mg13  1  0.83333300  0.66666700  0.88991275  1
  C  C0  1  0.16666700  0.33333300  0.62500000  1
loop_
_geom_bond_atom_site_label_1
_geom_bond_atom_site_label_2
_geom_bond_distance
_geom_bond_site_symmetry_2
Ce0 Mg4 3.140205 1_555
Ce0 Mg0 3.140205 1_555
Ce0 Mg4 3.140205 1_445
Ce0 Mg0 3.140205 1_545
Ce0 Mg2 3.140205 1_455
Ce0 Mg2 3.140205 1_555
Ce0 Mg6 3.273359 1_555
Ce0 Mg7 3.273359 1_554
Ce0 Mg8 3.273365 1_555
Ce0 Mg9 3.273365 1_554
Ce0 Mg10 3.273365 1_455
Ce0 Mg11 3.273365 1_454
Mg0 Mg2 2.972446 1_565
Mg0 Mg4 2.972446 1_555
Mg0 Mg13 3.043023 1_454
Mg0 Mg12 3.043023 1_455
Mg0 Mg2 3.305028 1_455
Mg0 Mg4 3.305028 1_455
Mg0 Mg8 3.331497 1_555
Mg0 Mg9 3.331497 1_554
Mg0 Mg6 3.331503 1_565
Mg0 Mg7 3.331503 1_564
Mg1 Mg9 2.946433 1_555
Mg1 Mg8 2.946433 1_555
Mg1 Mg7 2.946440 1_565
Mg1 Mg6 2.946440 1_565
Mg1 Mg3 3.007403 1_455
Mg1 Mg5 3.007403 1_455
Mg1 Mg12 3.185894 1_455
Mg1 Mg13 3.185894 1_455
Mg1 Mg3 3.270071 1_565
Mg1 Mg5 3.270071 1_555
Mg2 Mg4 2.972446 1_545
Mg2 Mg4 3.305028 1_555
Mg2 Mg6 3.331503 1_555
Mg2 Mg7 3.331503 1_554
Mg3 Mg6 2.946440 1_555
Mg3 Mg7 2.946440 1_555
Mg3 Mg5 3.007403 1_555
Mg3 Mg5 3.270071 1_545
Mg4 Mg8 3.331502 1_555
Mg4 Mg9 3.331502 1_554
Mg5 Mg9 2.946440 1_555
Mg5 Mg8 2.946440 1_555
Mg10 Mg3 2.946433 1_555
Mg10 Mg5 2.946440 1_545
Mg10 Mg12 3.168128 1_545
Mg10 Mg12 3.168128 1_555
Mg10 Mg2 3.331497 1_555
Mg10 Mg4 3.331502 1_545
Mg11 Mg3 2.946433 1_555
Mg11 Mg5 2.946440 1_545
Mg11 Mg13 3.168128 1_545
Mg11 Mg13 3.168128 1_555
Mg11 Mg2 3.331497 1_556
Mg11 Mg4 3.331502 1_546
Mg12 Mg4 3.043016 1_555
Mg12 Mg2 3.043023 1_555
Mg12 Mg6 3.168128 1_665
Mg12 Mg6 3.168128 1_555
Mg12 Mg8 3.168128 1_555
Mg12 Mg8 3.168128 1_655
Mg12 Mg5 3.185888 1_555
Mg12 Mg3 3.185894 1_555
Mg13 Mg4 3.043016 1_556
Mg13 Mg2 3.043023 1_556
Mg13 Mg7 3.168128 1_665
Mg13 Mg7 3.168128 1_555
Mg13 Mg9 3.168128 1_555
Mg13 Mg9 3.168128 1_655
Mg13 Mg5 3.185888 1_555
Mg13 Mg3 3.185894 1_555
C0 Mg7 2.829594 1_555
C0 Mg6 2.829594 1_555
C0 Mg9 2.829601 1_555
C0 Mg8 2.829601 1_555
C0 Mg10 2.829601 1_455
C0 Mg11 2.829601 1_455
