# generated using pymatgen
data_Sr2YTlSn2O7
_symmetry_space_group_name_H-M   'P 1'
_cell_length_a   4.19520200
_cell_length_b   4.19520200
_cell_length_c   12.80345400
_cell_angle_alpha   90.00000000
_cell_angle_beta   90.00000000
_cell_angle_gamma   90.00000000
_symmetry_Int_Tables_number   1
_chemical_formula_structural   Sr2YTlSn2O7
_chemical_formula_sum   'Sr2 Y1 Tl1 Sn2 O7'
_cell_volume   225.33720314
_cell_formula_units_Z   1
loop_
 _symmetry_equiv_pos_site_id
 _symmetry_equiv_pos_as_xyz
  1  'x, y, z'
loop_
 _atom_site_type_symbol
 _atom_site_label
 _atom_site_symmetry_multiplicity
 _atom_site_fract_x
 _atom_site_fract_y
 _atom_site_fract_z
 _atom_site_occupancy
  Sr  Sr0  1  0.00000000  0.00000000  0.82000900  1
  Sr  Sr1  1  0.00000000  0.00000000  0.17999100  1
  Y  Y0  1  0.00000000  0.00000000  0.50000000  1
  Tl  Tl0  1  0.50000000  0.50000000  0.00000000  1
  Sn  Sn0  1  0.50000000  0.50000000  0.63473300  1
  Sn  Sn1  1  0.50000000  0.50000000  0.36526700  1
  O  O0  1  0.00000000  0.50000000  0.61056500  1
  O  O1  1  0.50000000  0.00000000  0.61056500  1
  O  O2  1  0.00000000  0.50000000  0.38943500  1
  O  O3  1  0.50000000  0.00000000  0.38943500  1
  O  O4  1  0.50000000  0.50000000  0.79438500  1
  O  O5  1  0.50000000  0.50000000  0.20561500  1
  O  O6  1  0.00000000  0.00000000  0.00000000  1
loop_
_geom_bond_atom_site_label_1
_geom_bond_atom_site_label_2
_geom_bond_distance
_geom_bond_site_symmetry_2
O0 Sn0 2.120302 1_555
O0 Sn0 2.120302 1_455
O0 Y0 2.530591 1_555
O0 Y0 2.530591 1_565
O1 Sn0 2.120302 1_555
O1 Sn0 2.120302 1_545
O1 Y0 2.530591 1_655
O1 Y0 2.530591 1_555
O2 Sn1 2.120302 1_555
O2 Sn1 2.120302 1_455
O2 Y0 2.530591 1_555
O2 Y0 2.530591 1_565
O3 Sn1 2.120302 1_555
O3 Sn1 2.120302 1_545
O3 Y0 2.530591 1_655
O3 Y0 2.530591 1_555
O4 Sn0 2.044097 1_555
O4 Tl0 2.632582 1_556
O4 Sr0 2.984542 1_555
O4 Sr0 2.984542 1_565
O4 Sr0 2.984542 1_665
O4 Sr0 2.984542 1_655
O5 Sn1 2.044097 1_555
O5 Tl0 2.632582 1_555
O5 Sr1 2.984542 1_555
O5 Sr1 2.984542 1_655
O5 Sr1 2.984542 1_565
O5 Sr1 2.984542 1_665
O6 Sr0 2.304506 1_554
O6 Sr1 2.304506 1_555
