# generated using pymatgen
data_U4SiNi7
_symmetry_space_group_name_H-M   'P 1'
_cell_length_a   5.07496906
_cell_length_b   5.07427900
_cell_length_c   7.85478305
_cell_angle_alpha   90.00000000
_cell_angle_beta   89.98928875
_cell_angle_gamma   60.00449134
_symmetry_Int_Tables_number   1
_chemical_formula_structural   U4SiNi7
_chemical_formula_sum   'U4 Si1 Ni7'
_cell_volume   175.18310123
_cell_formula_units_Z   1
loop_
 _symmetry_equiv_pos_site_id
 _symmetry_equiv_pos_as_xyz
  1  'x, y, z'
loop_
 _atom_site_type_symbol
 _atom_site_label
 _atom_site_symmetry_multiplicity
 _atom_site_fract_x
 _atom_site_fract_y
 _atom_site_fract_z
 _atom_site_occupancy
  U  U0  1  0.33346700  0.33326600  0.08169900  1
  U  U1  1  0.66653300  0.66673400  0.91830100  1
  U  U2  1  0.66667200  0.66666400  0.56282900  1
  U  U3  1  0.33332800  0.33333600  0.43717100  1
  Si  Si0  1  0.00000000  0.00000000  0.00000000  1
  Ni  Ni0  1  0.16776500  0.66446900  0.75369000  1
  Ni  Ni1  1  0.66442500  0.16778800  0.75369400  1
  Ni  Ni2  1  0.16776500  0.16776600  0.75369000  1
  Ni  Ni3  1  0.83223500  0.33553100  0.24631000  1
  Ni  Ni4  1  0.33557500  0.83221200  0.24630600  1
  Ni  Ni5  1  0.83223500  0.83223400  0.24631000  1
  Ni  Ni6  1  0.00000000  0.00000000  0.50000000  1
loop_
_geom_bond_atom_site_label_1
_geom_bond_atom_site_label_2
_geom_bond_distance
_geom_bond_site_symmetry_2
U0 U3 2.792155 1_555
U0 U1 3.197894 1_544
U0 U1 3.197902 1_554
U0 U1 3.200258 1_454
U1 U2 2.792155 1_555
U2 U3 3.091684 1_565
U2 U3 3.091684 1_555
U2 U3 3.091692 1_655
Si0 U1 2.998907 1_544
Si0 U0 2.998907 1_455
Si0 U0 2.999580 1_555
Si0 U1 2.999580 1_444
Si0 U1 2.999584 1_454
Si0 U0 2.999584 1_545
Ni0 Si0 2.432441 1_566
Ni0 Ni6 2.479049 1_565
Ni0 Ni2 2.520410 1_555
Ni0 Ni1 2.520587 1_555
Ni0 Ni2 2.553869 1_565
Ni0 Ni1 2.554381 1_465
Ni0 U1 2.847699 1_555
Ni0 U1 2.848170 1_455
Ni0 U3 2.880625 1_555
Ni0 U2 2.947054 1_555
Ni0 U2 2.947500 1_455
Ni0 U0 2.959290 1_556
Ni1 Si0 2.433034 1_656
Ni1 Ni6 2.478925 1_655
Ni1 Ni2 2.520590 1_555
Ni1 Ni2 2.554379 1_655
Ni1 U1 2.847612 1_545
Ni1 U1 2.847612 1_555
Ni1 U3 2.881079 1_555
Ni1 U2 2.946993 1_555
Ni1 U2 2.946997 1_545
Ni1 U0 2.958420 1_556
Ni2 Si0 2.432441 1_556
Ni2 Ni6 2.479049 1_555
Ni2 U1 2.847696 1_545
Ni2 U1 2.848172 1_455
Ni2 U3 2.880625 1_555
Ni2 U2 2.947054 1_545
Ni2 U2 2.947499 1_455
Ni2 U0 2.959288 1_556
Ni3 Si0 2.432441 1_655
Ni3 Ni6 2.479049 1_655
Ni3 Ni5 2.520410 1_555
Ni3 Ni4 2.520587 1_555
Ni3 Ni5 2.553869 1_545
Ni3 Ni4 2.554381 1_645
Ni3 U0 2.847699 1_555
Ni3 U0 2.848170 1_655
Ni3 U2 2.880625 1_555
Ni3 U3 2.947054 1_555
Ni3 U3 2.947500 1_655
Ni3 U1 2.959290 1_554
Ni4 Si0 2.433034 1_565
Ni4 Ni6 2.478925 1_565
Ni4 Ni5 2.520590 1_555
Ni4 Ni5 2.554379 1_455
Ni4 U0 2.847612 1_565
Ni4 U0 2.847612 1_555
Ni4 U2 2.881079 1_555
Ni4 U3 2.946993 1_555
Ni4 U3 2.946997 1_565
Ni4 U1 2.958420 1_554
Ni5 Si0 2.432441 1_665
Ni5 Ni6 2.479049 1_665
Ni5 U0 2.847696 1_565
Ni5 U0 2.848172 1_655
Ni5 U2 2.880625 1_555
Ni5 U3 2.947054 1_565
Ni5 U3 2.947499 1_655
Ni5 U1 2.959288 1_554
Ni6 U2 2.970979 1_455
Ni6 U3 2.970979 1_545
Ni6 U3 2.970979 1_555
Ni6 U2 2.970979 1_445
Ni6 U2 2.971564 1_545
Ni6 U3 2.971564 1_455
