# generated using pymatgen
data_Cu3N
_symmetry_space_group_name_H-M   'P 1'
_cell_length_a   3.81470600
_cell_length_b   3.81470600
_cell_length_c   3.81470600
_cell_angle_alpha   90.00000000
_cell_angle_beta   90.00000000
_cell_angle_gamma   90.00000000
_symmetry_Int_Tables_number   1
_chemical_formula_structural   Cu3N
_chemical_formula_sum   'Cu3 N1'
_cell_volume   55.51153254
_cell_formula_units_Z   1
loop_
 _symmetry_equiv_pos_site_id
 _symmetry_equiv_pos_as_xyz
  1  'x, y, z'
loop_
 _atom_site_type_symbol
 _atom_site_label
 _atom_site_symmetry_multiplicity
 _atom_site_fract_x
 _atom_site_fract_y
 _atom_site_fract_z
 _atom_site_occupancy
  Cu  Cu0  1  0.00000000  0.00000000  0.50000000  1
  Cu  Cu1  1  0.00000000  0.50000000  0.00000000  1
  Cu  Cu2  1  0.50000000  0.00000000  0.00000000  1
  N  N0  1  0.00000000  0.00000000  0.00000000  1
loop_
_geom_bond_atom_site_label_1
_geom_bond_atom_site_label_2
_geom_bond_distance
_geom_bond_site_symmetry_2
Cu0 N0 1.907353 1_556
Cu0 N0 1.907353 1_555
Cu1 N0 1.907353 1_555
Cu1 N0 1.907353 1_565
Cu2 N0 1.907353 1_655
Cu2 N0 1.907353 1_555
