# generated using pymatgen
data_TbAgH10C20(N3O4)2
_symmetry_space_group_name_H-M   'P 1'
_cell_length_a   11.23775508
_cell_length_b   11.23775508
_cell_length_c   9.14473550
_cell_angle_alpha   73.38555226
_cell_angle_beta   73.38555226
_cell_angle_gamma   97.54149253
_symmetry_Int_Tables_number   1
_chemical_formula_structural   TbAgH10C20(N3O4)2
_chemical_formula_sum   'Tb2 Ag2 H20 C40 N12 O16'
_cell_volume   1031.52111065
_cell_formula_units_Z   2
loop_
 _symmetry_equiv_pos_site_id
 _symmetry_equiv_pos_as_xyz
  1  'x, y, z'
loop_
 _atom_site_type_symbol
 _atom_site_label
 _atom_site_symmetry_multiplicity
 _atom_site_fract_x
 _atom_site_fract_y
 _atom_site_fract_z
 _atom_site_occupancy
  Tb  Tb0  1  0.90562800  0.09437200  0.75000000  1
  Tb  Tb1  1  0.09437200  0.90562800  0.25000000  1
  Ag  Ag0  1  0.63804400  0.36195600  0.75000000  1
  Ag  Ag1  1  0.36195600  0.63804400  0.25000000  1
  H  H0  1  0.81939800  0.34061400  0.12110400  1
  H  H1  1  0.65938600  0.18060200  0.37889600  1
  H  H2  1  0.18060200  0.65938600  0.87889600  1
  H  H3  1  0.34061400  0.81939800  0.62110400  1
  H  H4  1  0.93927200  0.57257800  0.61405400  1
  H  H5  1  0.42742200  0.06072800  0.88594600  1
  H  H6  1  0.06072800  0.42742200  0.38594600  1
  H  H7  1  0.57257800  0.93927200  0.11405400  1
  H  H8  1  0.85269200  0.74916500  0.98029100  1
  H  H9  1  0.25083500  0.14730800  0.51970900  1
  H  H10  1  0.14730800  0.25083500  0.01970900  1
  H  H11  1  0.74916500  0.85269200  0.48029100  1
  H  H12  1  0.83419900  0.37464300  0.37267300  1
  H  H13  1  0.62535700  0.16580100  0.12732700  1
  H  H14  1  0.16580100  0.62535700  0.62732700  1
  H  H15  1  0.37464300  0.83419900  0.87267300  1
  H  H16  1  0.66854500  0.67934800  0.20710300  1
  H  H17  1  0.32065200  0.33145500  0.29289700  1
  H  H18  1  0.33145500  0.32065200  0.79289700  1
  H  H19  1  0.67934800  0.66854500  0.70710300  1
  C  C0  1  0.82711700  0.54282700  0.06859100  1
  C  C1  1  0.45717300  0.17288300  0.43140900  1
  C  C2  1  0.17288300  0.45717300  0.93140900  1
  C  C3  1  0.54282700  0.82711700  0.56859100  1
  C  C4  1  0.84133700  0.43414900  0.02780500  1
  C  C5  1  0.56585100  0.15866300  0.47219500  1
  C  C6  1  0.15866300  0.56585100  0.97219500  1
  C  C7  1  0.43414900  0.84133700  0.52780500  1
  C  C8  1  0.88276700  0.44490900  0.86371300  1
  C  C9  1  0.55509100  0.11723300  0.63628700  1
  C  C10  1  0.11723300  0.55509100  0.13628700  1
  C  C11  1  0.44490900  0.88276700  0.36371300  1
  C  C12  1  0.90934800  0.56451900  0.74207400  1
  C  C13  1  0.43548100  0.09065200  0.75792600  1
  C  C14  1  0.09065200  0.43548100  0.25792600  1
  C  C15  1  0.56451900  0.90934800  0.24207400  1
  C  C16  1  0.89917800  0.67418500  0.78557000  1
  C  C17  1  0.32581500  0.10082200  0.71443000  1
  C  C18  1  0.10082200  0.32581500  0.21443000  1
  C  C19  1  0.67418500  0.89917800  0.28557000  1
  C  C20  1  0.85887200  0.66277800  0.94943100  1
  C  C21  1  0.33722200  0.14112800  0.55056900  1
  C  C22  1  0.14112800  0.33722200  0.05056900  1
  C  C23  1  0.66277800  0.85887200  0.44943100  1
  C  C24  1  0.77816100  0.44627900  0.37111900  1
  C  C25  1  0.55372100  0.22183900  0.12888100  1
  C  C26  1  0.22183900  0.55372100  0.62888100  1
  C  C27  1  0.44627900  0.77816100  0.87111900  1
  C  C28  1  0.69374500  0.60475100  0.28950600  1
  C  C29  1  0.39524900  0.30625500  0.21049400  1
  C  C30  1  0.30625500  0.39524900  0.71049400  1
  C  C31  1  0.60475100  0.69374500  0.78950600  1
  C  C32  1  0.89369300  0.32478400  0.82317800  1
  C  C33  1  0.67521600  0.10630700  0.67682200  1
  C  C34  1  0.10630700  0.67521600  0.17682200  1
  C  C35  1  0.32478400  0.89369300  0.32317800  1
  C  C36  1  0.92473900  0.80569500  0.65972600  1
  C  C37  1  0.19430500  0.07526100  0.84027400  1
  C  C38  1  0.07526100  0.19430500  0.34027400  1
  C  C39  1  0.80569500  0.92473900  0.15972600  1
  N  N0  1  0.77258800  0.53176200  0.23486300  1
  N  N1  1  0.46823800  0.22741200  0.26513700  1
  N  N2  1  0.22741200  0.46823800  0.76513700  1
  N  N3  1  0.53176200  0.77258800  0.73486300  1
  N  N4  1  0.70685800  0.46766400  0.49941300  1
  N  N5  1  0.53233600  0.29314200  0.00058700  1
  N  N6  1  0.29314200  0.53233600  0.50058700  1
  N  N7  1  0.46766400  0.70685800  0.99941300  1
  N  N8  1  0.65318700  0.56847100  0.44844600  1
  N  N9  1  0.43152900  0.34681300  0.05155400  1
  N  N10  1  0.34681300  0.43152900  0.55155400  1
  N  N11  1  0.56847100  0.65318700  0.94844600  1
  O  O0  1  0.88287600  0.22195300  0.93610600  1
  O  O1  1  0.77804700  0.11712400  0.56389400  1
  O  O2  1  0.11712400  0.77804700  0.06389400  1
  O  O3  1  0.22195300  0.88287600  0.43610600  1
  O  O4  1  0.91165800  0.32770300  0.67747500  1
  O  O5  1  0.67229700  0.08834200  0.82252500  1
  O  O6  1  0.08834200  0.67229700  0.32252500  1
  O  O7  1  0.32770300  0.91165800  0.17747500  1
  O  O8  1  0.95249500  0.81176700  0.51332500  1
  O  O9  1  0.18823300  0.04750500  0.98667500  1
  O  O10  1  0.04750500  0.18823300  0.48667500  1
  O  O11  1  0.81176700  0.95249500  0.01332500  1
  O  O12  1  0.91111200  0.89872500  0.71076800  1
  O  O13  1  0.10127500  0.08888800  0.78923200  1
  O  O14  1  0.08888800  0.10127500  0.28923200  1
  O  O15  1  0.89872500  0.91111200  0.21076800  1
loop_
_geom_bond_atom_site_label_1
_geom_bond_atom_site_label_2
_geom_bond_distance
_geom_bond_site_symmetry_2
Ag0 N5 2.109302 1_556
Ag0 N4 2.109302 1_555
Ag1 N6 2.109302 1_555
Ag1 N7 2.109302 1_554
C0 C4 1.390629 1_555
C0 C20 1.393981 1_554
C0 N0 1.428977 1_555
C1 C5 1.390629 1_555
C1 C21 1.393981 1_555
C1 N1 1.428977 1_555
C2 C6 1.390629 1_555
C2 C22 1.393981 1_556
C2 N2 1.428977 1_555
C3 C7 1.390629 1_555
C3 N3 1.428977 1_555
C4 H0 1.091980 1_555
C4 C8 1.401805 1_554
C5 H1 1.091980 1_555
C5 C9 1.401805 1_555
C6 H2 1.091980 1_555
C7 H3 1.091980 1_555
C10 C6 1.401805 1_554
C10 C14 1.408142 1_555
C10 C34 1.509451 1_555
C11 C7 1.401805 1_555
C11 C15 1.408142 1_555
C11 C35 1.509451 1_555
C12 H4 1.094572 1_555
C12 C16 1.407616 1_555
C12 C8 1.408142 1_555
C13 H5 1.094572 1_555
C13 C17 1.407616 1_555
C13 C9 1.408142 1_555
C14 H6 1.094572 1_555
C14 C18 1.407616 1_555
C15 H7 1.094572 1_555
C15 C19 1.407616 1_555
C16 C20 1.397773 1_555
C16 C36 1.522476 1_555
C17 C21 1.397773 1_555
C17 C37 1.522476 1_555
C18 C22 1.397773 1_555
C18 C38 1.522476 1_555
C19 C23 1.397773 1_555
C19 C39 1.522476 1_555
C20 H8 1.090902 1_555
C21 H9 1.090902 1_555
C22 H10 1.090902 1_555
C23 H11 1.090902 1_555
C23 C3 1.393981 1_555
C24 H12 1.084662 1_555
C24 N4 1.323038 1_555
C24 N0 1.362071 1_555
C25 H13 1.084662 1_555
C25 N5 1.323038 1_555
C25 N1 1.362071 1_555
C26 H14 1.084662 1_555
C26 N6 1.323038 1_555
C26 N2 1.362071 1_555
C27 H15 1.084662 1_555
C27 N7 1.323038 1_555
C27 N3 1.362071 1_555
C28 H16 1.083464 1_555
C28 N8 1.311499 1_555
C28 N0 1.370937 1_555
C29 H17 1.083464 1_555
C29 N9 1.311499 1_555
C29 N1 1.370937 1_555
C30 H18 1.083464 1_555
C30 N10 1.311499 1_555
C30 N2 1.370937 1_555
C31 H19 1.083464 1_555
C31 N11 1.311499 1_555
C31 N3 1.370937 1_555
C32 O0 1.274960 1_555
C32 O4 1.279298 1_555
C32 C8 1.509451 1_555
C33 O1 1.274960 1_555
C33 O5 1.279298 1_555
C33 C9 1.509451 1_555
C34 O2 1.274960 1_555
C34 O6 1.279298 1_555
C35 O3 1.274960 1_555
C35 O7 1.279298 1_555
C36 O8 1.264000 1_555
C36 O12 1.270625 1_555
C37 O9 1.264000 1_555
C37 O13 1.270625 1_555
C38 O10 1.264000 1_555
C38 O14 1.270625 1_555
C39 O11 1.264000 1_555
C39 O15 1.270625 1_555
N4 N8 1.379316 1_555
N5 N9 1.379316 1_555
N10 N6 1.379316 1_555
N11 N7 1.379316 1_555
O0 Tb0 2.502021 1_555
O1 Tb0 2.502021 1_555
O2 Tb1 2.502021 1_555
O3 Tb1 2.502021 1_555
O4 Tb0 2.500624 1_555
O5 Tb0 2.500624 1_555
O6 Tb1 2.500624 1_555
O7 Tb1 2.500624 1_555
O8 Tb1 2.315981 1_655
O9 Tb1 2.315981 1_546
O10 Tb0 2.315981 1_455
O11 Tb0 2.315981 1_564
O12 Tb0 2.332488 1_565
O13 Tb0 2.332488 1_455
O14 Tb1 2.332488 1_545
O15 Tb1 2.332488 1_655
