# generated using pymatgen
data_Ba3Al2Ga2(FeO6)2
_symmetry_space_group_name_H-M   'P 1'
_cell_length_a   9.09467700
_cell_length_b   9.31679900
_cell_length_c   9.34640132
_cell_angle_alpha   60.45649923
_cell_angle_beta   90.00000000
_cell_angle_gamma   90.00000000
_symmetry_Int_Tables_number   1
_chemical_formula_structural   Ba3Al2Ga2(FeO6)2
_chemical_formula_sum   'Ba6 Al4 Ga4 Fe4 O24'
_cell_volume   688.98297245
_cell_formula_units_Z   2
loop_
 _symmetry_equiv_pos_site_id
 _symmetry_equiv_pos_as_xyz
  1  'x, y, z'
loop_
 _atom_site_type_symbol
 _atom_site_label
 _atom_site_symmetry_multiplicity
 _atom_site_fract_x
 _atom_site_fract_y
 _atom_site_fract_z
 _atom_site_occupancy
  Ba  Ba0  1  0.23527100  0.66626300  0.65836000  1
  Ba  Ba1  1  0.73527100  0.33373700  0.34164000  1
  Ba  Ba2  1  0.23839400  0.34094700  0.32896000  1
  Ba  Ba3  1  0.73839400  0.65905300  0.67104000  1
  Ba  Ba4  1  0.24315400  0.99279100  0.01082200  1
  Ba  Ba5  1  0.74315400  0.00720900  0.98917800  1
  Al  Al0  1  0.04240700  0.32183400  0.67081600  1
  Al  Al1  1  0.54240700  0.67816600  0.32918400  1
  Al  Al2  1  0.93507300  0.99354900  0.67214600  1
  Al  Al3  1  0.43507300  0.00645100  0.32785400  1
  Ga  Ga0  1  0.04078700  0.00293900  0.33908900  1
  Ga  Ga1  1  0.54078700  0.99706100  0.66091100  1
  Ga  Ga2  1  0.04010600  0.66920500  0.00554400  1
  Ga  Ga3  1  0.54010600  0.33079500  0.99445600  1
  Fe  Fe0  1  0.94421600  0.33035100  0.99669100  1
  Fe  Fe1  1  0.44421600  0.66964900  0.00330900  1
  Fe  Fe2  1  0.93513500  0.65776100  0.34855500  1
  Fe  Fe3  1  0.43513500  0.34223900  0.65144500  1
  O  O0  1  0.98273700  0.53062100  0.57496100  1
  O  O1  1  0.48273700  0.46937900  0.42503900  1
  O  O2  1  0.74151100  0.33306900  0.95372000  1
  O  O3  1  0.24151100  0.66693100  0.04628000  1
  O  O4  1  0.97279900  0.20770100  0.58050600  1
  O  O5  1  0.47279900  0.79229900  0.41949400  1
  O  O6  1  0.99351000  0.89068200  0.88192200  1
  O  O7  1  0.49351000  0.10931800  0.11807800  1
  O  O8  1  0.99862800  0.88033900  0.23587200  1
  O  O9  1  0.49862800  0.11966100  0.76412800  1
  O  O10  1  0.96992500  0.55439400  0.22068000  1
  O  O11  1  0.46992500  0.44560600  0.77932000  1
  O  O12  1  0.73228300  0.65936800  0.37084400  1
  O  O13  1  0.23228300  0.34063200  0.62915600  1
  O  O14  1  0.99999800  0.89458800  0.56280300  1
  O  O15  1  0.49999800  0.10541200  0.43719700  1
  O  O16  1  0.02035100  0.22044400  0.88816700  1
  O  O17  1  0.52035100  0.77955600  0.11183300  1
  O  O18  1  0.00434300  0.55438100  0.89417400  1
  O  O19  1  0.50434300  0.44561900  0.10582600  1
  O  O20  1  0.74257200  0.97021300  0.67982600  1
  O  O21  1  0.24257200  0.02978700  0.32017400  1
  O  O22  1  0.96889900  0.21708900  0.22819700  1
  O  O23  1  0.46889900  0.78291100  0.77180300  1
loop_
_geom_bond_atom_site_label_1
_geom_bond_atom_site_label_2
_geom_bond_distance
_geom_bond_site_symmetry_2
Ba0 O11 2.786909 1_555
Ba0 O23 2.820695 1_555
Ba0 O14 2.833324 1_455
Ba0 O18 2.844203 1_555
Ba0 O5 2.905930 1_555
Ba0 O0 2.907060 1_455
Ba0 O13 3.177429 1_555
Ba0 O21 3.302864 1_565
Ba1 O10 2.786909 1_555
Ba1 O22 2.820695 1_555
Ba1 O15 2.833324 1_555
Ba1 O19 2.844203 1_555
Ba1 O4 2.905930 1_555
Ba1 O1 2.907060 1_555
Ba1 O12 3.177429 1_555
Ba1 O20 3.302864 1_545
Ba2 O13 2.804857 1_555
Ba2 O1 2.869861 1_555
Ba2 O3 2.879600 1_555
Ba2 O21 2.940620 1_555
Ba2 O10 2.992620 1_455
Ba2 O19 3.024051 1_555
Ba2 O22 3.049188 1_455
Ba2 O15 3.051277 1_555
Ba2 O4 3.166217 1_455
Ba3 O12 2.804857 1_555
Ba3 O0 2.869861 1_555
Ba3 O2 2.879600 1_555
Ba3 O20 2.940620 1_555
Ba3 O11 2.992620 1_555
Ba3 O18 3.024051 1_655
Ba3 O23 3.049188 1_555
Ba3 O14 3.051277 1_555
Ba3 O5 3.166217 1_555
Ba4 O16 2.742436 1_564
Ba4 O8 2.880001 1_455
Ba4 O3 2.887033 1_555
Ba4 O7 2.905367 1_565
Ba4 O6 2.939655 1_454
Ba4 O17 3.056801 1_555
Ba4 O9 3.069882 1_564
Ba4 O21 3.075943 1_565
Ba5 O17 2.742436 1_546
Ba5 O9 2.880001 1_555
Ba5 O2 2.887033 1_555
Ba5 O6 2.905367 1_545
Ba5 O7 2.939655 1_556
Ba5 O16 3.056801 1_655
Ba5 O8 3.069882 1_546
Ba5 O20 3.075943 1_545
Al0 O13 1.759853 1_555
Al0 O4 1.768922 1_455
Al0 O0 1.778319 1_455
Al0 O16 1.779586 1_555
Al1 O12 1.759853 1_555
Al1 O5 1.768922 1_555
Al1 O1 1.778319 1_555
Al1 O17 1.779586 1_555
Al2 O20 1.761279 1_555
Al2 O4 1.773956 1_565
Al2 O14 1.781114 1_555
Al2 O6 1.786628 1_555
Al3 O21 1.761279 1_555
Al3 O5 1.773956 1_545
Al3 O15 1.781114 1_555
Al3 O7 1.786628 1_555
Ga0 O21 1.848800 1_555
Ga0 O22 1.855575 1_455
Ga0 O14 1.856627 1_445
Ga0 O8 1.862544 1_445
Ga1 O20 1.848800 1_555
Ga1 O23 1.855575 1_555
Ga1 O15 1.856627 1_565
Ga1 O9 1.862544 1_565
Ga2 O6 1.849663 1_454
Ga2 O18 1.852536 1_554
Ga2 O10 1.863761 1_455
Ga2 O3 1.868857 1_555
Ga3 O7 1.849663 1_556
Ga3 O19 1.852536 1_556
Ga3 O11 1.863761 1_555
Ga3 O2 1.868857 1_555
Fe0 O2 1.884288 1_555
Fe0 O16 1.892374 1_655
Fe0 O22 1.895795 1_556
Fe0 O18 1.897743 1_655
Fe1 O3 1.884288 1_555
Fe1 O17 1.892374 1_555
Fe1 O23 1.895795 1_554
Fe1 O19 1.897743 1_555
Fe2 O12 1.857486 1_555
Fe2 O8 1.894503 1_555
Fe2 O10 1.895019 1_555
Fe2 O0 1.896430 1_555
Fe3 O13 1.857486 1_555
Fe3 O9 1.894503 1_555
Fe3 O11 1.895019 1_555
Fe3 O1 1.896430 1_555
