# generated using pymatgen
data_ErFeCu
_symmetry_space_group_name_H-M   'P 1'
_cell_length_a   5.18136948
_cell_length_b   5.18136948
_cell_length_c   5.18136948
_cell_angle_alpha   92.79195128
_cell_angle_beta   58.62912915
_cell_angle_gamma   121.87945246
_symmetry_Int_Tables_number   1
_chemical_formula_structural   ErFeCu
_chemical_formula_sum   'Er2 Fe2 Cu2'
_cell_volume   95.81770250
_cell_formula_units_Z   2
loop_
 _symmetry_equiv_pos_site_id
 _symmetry_equiv_pos_as_xyz
  1  'x, y, z'
loop_
 _atom_site_type_symbol
 _atom_site_label
 _atom_site_symmetry_multiplicity
 _atom_site_fract_x
 _atom_site_fract_y
 _atom_site_fract_z
 _atom_site_occupancy
  Er  Er0  1  0.50000000  0.75248500  0.74751500  1
  Er  Er1  1  0.00000000  0.99751500  0.00248500  1
  Fe  Fe0  1  0.25000000  0.87500000  0.37500000  1
  Fe  Fe1  1  0.75000000  0.37500000  0.37500000  1
  Cu  Cu0  1  0.75000000  0.37500000  0.87500000  1
  Cu  Cu1  1  0.25000000  0.37500000  0.37500000  1
loop_
_geom_bond_atom_site_label_1
_geom_bond_atom_site_label_2
_geom_bond_distance
_geom_bond_site_symmetry_2
Er0 Fe0 2.988997 1_655
Er0 Fe1 2.988997 1_456
Er0 Fe0 2.988997 1_556
Er0 Fe1 2.988997 1_555
Er0 Fe1 3.065500 1_565
Er0 Fe0 3.065500 1_555
Er1 Fe0 2.988997 1_455
Er1 Fe1 2.988997 1_465
Er1 Fe0 2.988997 1_554
Er1 Fe1 2.988997 1_564
Er1 Fe0 3.065500 1_555
Er1 Fe1 3.065500 1_455
Fe0 Fe1 2.516744 1_455
Fe0 Fe1 2.516744 1_565
Cu0 Cu1 2.536820 1_655
Cu0 Cu1 2.536820 1_556
Cu0 Fe0 2.590685 1_546
Cu0 Fe1 2.590685 1_556
Cu0 Fe0 2.590685 1_655
Cu0 Fe1 2.590685 1_555
Cu0 Er1 2.964464 1_546
Cu0 Er0 2.964464 1_655
Cu0 Er0 2.964464 1_545
Cu0 Er1 2.964464 1_656
Cu0 Er1 3.103634 1_646
Cu0 Er0 3.103634 1_555
Cu1 Fe0 2.590685 1_555
Cu1 Fe1 2.590685 1_555
Cu1 Fe0 2.590685 1_545
Cu1 Fe1 2.590685 1_455
Cu1 Er1 2.964464 1_655
Cu1 Er0 2.964464 1_445
Cu1 Er1 2.964464 1_545
Cu1 Er0 2.964464 1_555
Cu1 Er1 3.103634 1_546
Cu1 Er0 3.103634 1_554
