# generated using pymatgen
data_SmFe4(CuO4)3
_symmetry_space_group_name_H-M   'P 1'
_cell_length_a   6.47628346
_cell_length_b   6.47628346
_cell_length_c   6.47628346
_cell_angle_alpha   109.47122063
_cell_angle_beta   109.47122063
_cell_angle_gamma   109.47122063
_symmetry_Int_Tables_number   1
_chemical_formula_structural   SmFe4(CuO4)3
_chemical_formula_sum   'Sm1 Fe4 Cu3 O12'
_cell_volume   209.10078195
_cell_formula_units_Z   1
loop_
 _symmetry_equiv_pos_site_id
 _symmetry_equiv_pos_as_xyz
  1  'x, y, z'
loop_
 _atom_site_type_symbol
 _atom_site_label
 _atom_site_symmetry_multiplicity
 _atom_site_fract_x
 _atom_site_fract_y
 _atom_site_fract_z
 _atom_site_occupancy
  Sm  Sm0  1  0.00000000  0.00000000  0.00000000  1
  Fe  Fe0  1  0.00000000  0.00000000  0.50000000  1
  Fe  Fe1  1  0.50000000  0.00000000  0.00000000  1
  Fe  Fe2  1  0.00000000  0.50000000  0.00000000  1
  Fe  Fe3  1  0.50000000  0.50000000  0.50000000  1
  Cu  Cu0  1  0.50000000  0.00000000  0.50000000  1
  Cu  Cu1  1  0.00000000  0.50000000  0.50000000  1
  Cu  Cu2  1  0.50000000  0.50000000  0.00000000  1
  O  O0  1  0.16503600  0.85558300  0.69054700  1
  O  O1  1  0.83496400  0.14441700  0.30945300  1
  O  O2  1  0.83496400  0.52551000  0.69054700  1
  O  O3  1  0.16503600  0.47449000  0.30945300  1
  O  O4  1  0.85558300  0.69054700  0.16503600  1
  O  O5  1  0.14441700  0.30945300  0.83496400  1
  O  O6  1  0.52551000  0.69054700  0.83496400  1
  O  O7  1  0.47449000  0.30945300  0.16503600  1
  O  O8  1  0.69054700  0.16503600  0.85558300  1
  O  O9  1  0.30945300  0.83496400  0.14441700  1
  O  O10  1  0.69054700  0.83496400  0.52551000  1
  O  O11  1  0.30945300  0.16503600  0.47449000  1
loop_
_geom_bond_atom_site_label_1
_geom_bond_atom_site_label_2
_geom_bond_distance
_geom_bond_site_symmetry_2
Fe0 O11 2.023992 1_555
Fe0 O10 2.023992 1_445
Fe0 O5 2.023995 1_555
Fe0 O4 2.023995 1_445
Fe0 O0 2.023995 1_545
Fe0 O1 2.023995 1_455
Fe1 O7 2.023992 1_555
Fe1 O6 2.023992 1_544
Fe1 O1 2.023995 1_555
Fe1 O0 2.023995 1_544
Fe1 O8 2.023995 1_554
Fe1 O9 2.023995 1_545
Fe2 O3 2.023992 1_555
Fe2 O2 2.023992 1_454
Fe2 O9 2.023995 1_555
Fe2 O8 2.023995 1_454
Fe2 O4 2.023995 1_455
Fe2 O5 2.023995 1_554
Fe3 O2 2.023999 1_555
Fe3 O10 2.023999 1_555
Fe3 O6 2.023999 1_555
Fe3 O7 2.023999 1_555
Fe3 O11 2.023999 1_555
Fe3 O3 2.023999 1_555
Cu0 O11 1.885107 1_555
Cu0 O10 1.885107 1_545
Cu0 O9 1.885107 1_545
Cu0 O8 1.885107 1_555
Cu1 O3 1.885107 1_555
Cu1 O2 1.885107 1_455
Cu1 O1 1.885107 1_455
Cu1 O0 1.885107 1_555
Cu2 O7 1.885107 1_555
Cu2 O6 1.885107 1_554
Cu2 O5 1.885107 1_554
Cu2 O4 1.885107 1_555
O0 Sm0 2.622674 1_566
O1 Sm0 2.622674 1_655
O2 Sm0 2.622679 1_666
O3 Sm0 2.622679 1_555
O4 Sm0 2.622674 1_665
O5 Sm0 2.622674 1_556
O6 Sm0 2.622679 1_666
O7 Sm0 2.622679 1_555
O8 Sm0 2.622674 1_656
O9 Sm0 2.622674 1_565
O10 Sm0 2.622679 1_666
O11 Sm0 2.622679 1_555
