# generated using pymatgen
data_NaIn(MoSe)6
_symmetry_space_group_name_H-M   'P 1'
_cell_length_a   9.61751585
_cell_length_b   9.61751585
_cell_length_c   4.52155500
_cell_angle_alpha   90.00000000
_cell_angle_beta   90.00000000
_cell_angle_gamma   119.99999894
_symmetry_Int_Tables_number   1
_chemical_formula_structural   NaIn(MoSe)6
_chemical_formula_sum   'Na1 In1 Mo6 Se6'
_cell_volume   362.19652175
_cell_formula_units_Z   1
loop_
 _symmetry_equiv_pos_site_id
 _symmetry_equiv_pos_as_xyz
  1  'x, y, z'
loop_
 _atom_site_type_symbol
 _atom_site_label
 _atom_site_symmetry_multiplicity
 _atom_site_fract_x
 _atom_site_fract_y
 _atom_site_fract_z
 _atom_site_occupancy
  Na  Na0  1  0.33333300  0.66666700  0.00000000  1
  In  In0  1  0.00000000  0.00000000  0.50000000  1
  Mo  Mo0  1  0.81374600  0.30974400  0.00000000  1
  Mo  Mo1  1  0.49599800  0.18625400  0.00000000  1
  Mo  Mo2  1  0.69025600  0.50400200  0.00000000  1
  Mo  Mo3  1  0.51854900  0.35548800  0.50000000  1
  Mo  Mo4  1  0.83693800  0.48145100  0.50000000  1
  Mo  Mo5  1  0.64451200  0.16306200  0.50000000  1
  Se  Se0  1  0.00582500  0.62345000  0.00000000  1
  Se  Se1  1  0.61762500  0.99417500  0.00000000  1
  Se  Se2  1  0.37655000  0.38237500  0.00000000  1
  Se  Se3  1  0.33150500  0.04051000  0.50000000  1
  Se  Se4  1  0.70900600  0.66849500  0.50000000  1
  Se  Se5  1  0.95949000  0.29099400  0.50000000  1
loop_
_geom_bond_atom_site_label_1
_geom_bond_atom_site_label_2
_geom_bond_distance
_geom_bond_site_symmetry_2
Na0 Se0 2.963932 1_555
Na0 Se1 2.963936 1_555
Na0 Se2 2.963941 1_555
In0 Se5 3.012398 1_455
In0 Se4 3.012404 1_445
In0 Se3 3.012407 1_555
Mo0 Se0 2.634734 1_655
Mo0 Se1 2.654113 1_545
Mo0 Mo2 2.668317 1_555
Mo0 Mo1 2.668317 1_555
Mo0 Se5 2.713144 1_555
Mo0 Se5 2.713144 1_554
Mo0 Mo5 2.730248 1_555
Mo0 Mo5 2.730248 1_554
Mo0 Mo4 2.742194 1_554
Mo0 Mo4 2.742194 1_555
Mo1 Se1 2.634734 1_545
Mo1 Se2 2.654113 1_555
Mo1 Mo2 2.668317 1_555
Mo1 Se3 2.713140 1_555
Mo1 Se3 2.713140 1_554
Mo1 Mo3 2.730250 1_555
Mo1 Mo3 2.730250 1_554
Mo1 Mo5 2.742189 1_555
Mo1 Mo5 2.742189 1_554
Mo2 Se2 2.634734 1_555
Mo2 Se0 2.654113 1_655
Mo2 Se4 2.713138 1_554
Mo2 Se4 2.713138 1_555
Mo2 Mo4 2.730245 1_555
Mo2 Mo4 2.730245 1_554
Mo2 Mo3 2.742192 1_555
Mo2 Mo3 2.742192 1_554
Mo3 Se4 2.627411 1_555
Mo3 Se3 2.638810 1_555
Mo3 Mo5 2.671056 1_555
Mo3 Mo4 2.671056 1_555
Mo3 Se2 2.719596 1_556
Mo3 Se2 2.719596 1_555
Mo4 Se5 2.627426 1_555
Mo4 Se4 2.638794 1_555
Mo4 Mo5 2.671056 1_555
Mo4 Se0 2.719599 1_655
Mo4 Se0 2.719599 1_656
Mo5 Se3 2.627409 1_555
Mo5 Se5 2.638812 1_555
Mo5 Se1 2.719601 1_546
Mo5 Se1 2.719601 1_545
