# generated using pymatgen
data_MnZnTe2
_symmetry_space_group_name_H-M   'P 1'
_cell_length_a   4.40469325
_cell_length_b   4.40469221
_cell_length_c   6.24945653
_cell_angle_alpha   90.00000000
_cell_angle_beta   90.00000000
_cell_angle_gamma   90.00000000
_symmetry_Int_Tables_number   1
_chemical_formula_structural   MnZnTe2
_chemical_formula_sum   'Mn1 Zn1 Te2'
_cell_volume   121.24769375
_cell_formula_units_Z   1
loop_
 _symmetry_equiv_pos_site_id
 _symmetry_equiv_pos_as_xyz
  1  'x, y, z'
loop_
 _atom_site_type_symbol
 _atom_site_label
 _atom_site_symmetry_multiplicity
 _atom_site_fract_x
 _atom_site_fract_y
 _atom_site_fract_z
 _atom_site_occupancy
  Mn  Mn0  1  0.00000000  0.00000000  -0.00000000  1
  Zn  Zn0  1  0.50000000  0.50000000  0.50000000  1
  Te  Te0  1  -0.00000000  0.50000000  0.25980963  1
  Te  Te1  1  0.50000000  -0.00000000  0.74019037  1
loop_
_geom_bond_atom_site_label_1
_geom_bond_atom_site_label_2
_geom_bond_distance
_geom_bond_site_symmetry_2
Mn0 Te0 2.736171 1_545
Mn0 Te0 2.736171 1_555
Mn0 Te1 2.736171 1_554
Mn0 Te1 2.736171 1_454
Te0 Zn0 2.665241 1_555
Te0 Zn0 2.665241 1_455
Te1 Zn0 2.665241 1_555
Te1 Zn0 2.665241 1_545
