# generated using pymatgen
data_Ca8Mn7CrO23
_symmetry_space_group_name_H-M   'P 1'
_cell_length_a   10.87578797
_cell_length_b   15.25300604
_cell_length_c   10.73649003
_cell_angle_alpha   90.03774917
_cell_angle_beta   90.36913080
_cell_angle_gamma   90.08194562
_symmetry_Int_Tables_number   1
_chemical_formula_structural   Ca8Mn7CrO23
_chemical_formula_sum   'Ca32 Mn28 Cr4 O92'
_cell_volume   1781.02061032
_cell_formula_units_Z   4
loop_
 _symmetry_equiv_pos_site_id
 _symmetry_equiv_pos_as_xyz
  1  'x, y, z'
loop_
 _atom_site_type_symbol
 _atom_site_label
 _atom_site_symmetry_multiplicity
 _atom_site_fract_x
 _atom_site_fract_y
 _atom_site_fract_z
 _atom_site_occupancy
  Ca  Ca0  1  0.01875401  0.11629828  0.50543163  1
  Ca  Ca1  1  0.01574471  0.11839218  0.99245282  1
  Ca  Ca2  1  0.02132057  0.62668273  0.49612375  1
  Ca  Ca3  1  0.02093437  0.62702215  0.99554853  1
  Ca  Ca4  1  0.52581918  0.12908822  0.50562402  1
  Ca  Ca5  1  0.53407921  0.12122436  0.97460821  1
  Ca  Ca6  1  0.52593792  0.62512780  0.49797471  1
  Ca  Ca7  1  0.52267615  0.62523879  0.99453862  1
  Ca  Ca8  1  0.49116531  0.38294911  0.99698622  1
  Ca  Ca9  1  0.47846614  0.38383672  0.50804820  1
  Ca  Ca10  1  0.48306359  0.87097021  0.99543165  1
  Ca  Ca11  1  0.48134616  0.86601409  0.51521138  1
  Ca  Ca12  1  0.96786047  0.38368608  0.00010223  1
  Ca  Ca13  1  0.97683005  0.37962388  0.50604642  1
  Ca  Ca14  1  0.97543628  0.87334965  0.00508270  1
  Ca  Ca15  1  0.97237803  0.87407442  0.50684567  1
  Ca  Ca16  1  0.22791375  0.38874106  0.25404259  1
  Ca  Ca17  1  0.22646092  0.37789113  0.73292807  1
  Ca  Ca18  1  0.22465850  0.87323513  0.24418182  1
  Ca  Ca19  1  0.22869423  0.87384783  0.74905092  1
  Ca  Ca20  1  0.73085376  0.38357536  0.24464114  1
  Ca  Ca21  1  0.72686086  0.37866708  0.74828858  1
  Ca  Ca22  1  0.73217308  0.86683787  0.24663363  1
  Ca  Ca23  1  0.72781254  0.87344683  0.74542336  1
  Ca  Ca24  1  0.24026637  0.11945924  0.26094114  1
  Ca  Ca25  1  0.26966601  0.11629578  0.73447233  1
  Ca  Ca26  1  0.27328646  0.62766551  0.25703819  1
  Ca  Ca27  1  0.27150982  0.62529442  0.75502793  1
  Ca  Ca28  1  0.77737750  0.11709145  0.25437992  1
  Ca  Ca29  1  0.77426956  0.12327650  0.75479578  1
  Ca  Ca30  1  0.77310631  0.62528576  0.25602169  1
  Ca  Ca31  1  0.77255399  0.62630200  0.75379715  1
  Mn  Mn0  1  0.99759866  0.99793626  0.75336361  1
  Mn  Mn1  1  0.99934569  0.50210937  0.25051136  1
  Mn  Mn2  1  0.00074960  0.50062695  0.75019056  1
  Mn  Mn3  1  0.50781423  0.98755046  0.24281544  1
  Mn  Mn4  1  0.50010090  0.99894792  0.74919510  1
  Mn  Mn5  1  0.49911152  0.50365793  0.25113727  1
  Mn  Mn6  1  0.49987338  0.50151022  0.74992498  1
  Mn  Mn7  1  0.24083576  0.99316135  0.50406240  1
  Mn  Mn8  1  0.24920977  0.50397247  0.00430711  1
  Mn  Mn9  1  0.25039227  0.50301367  0.50073492  1
  Mn  Mn10  1  0.75059487  0.99862333  0.99806999  1
  Mn  Mn11  1  0.74637509  0.00026722  0.50164483  1
  Mn  Mn12  1  0.74879990  0.50289633  0.00055308  1
  Mn  Mn13  1  0.75128030  0.50039726  0.50012270  1
  Mn  Mn14  1  0.24957691  0.25085699  0.49286946  1
  Mn  Mn15  1  0.25104378  0.75141427  0.00042627  1
  Mn  Mn16  1  0.25053918  0.74992298  0.50010808  1
  Mn  Mn17  1  0.75172670  0.24880578  0.99883336  1
  Mn  Mn18  1  0.74961293  0.25078379  0.50444201  1
  Mn  Mn19  1  0.74974930  0.74967483  0.99999483  1
  Mn  Mn20  1  0.75063337  0.74927614  0.50008421  1
  Mn  Mn21  1  0.99574544  0.25112188  0.74510400  1
  Mn  Mn22  1  0.00064263  0.74922779  0.25036857  1
  Mn  Mn23  1  0.00087055  0.75031720  0.75001965  1
  Mn  Mn24  1  0.51824806  0.25542937  0.26010638  1
  Mn  Mn25  1  0.50267598  0.25089658  0.74337098  1
  Mn  Mn26  1  0.49931172  0.74854866  0.25171793  1
  Mn  Mn27  1  0.49997201  0.74823102  0.75106837  1
  Cr  Cr0  1  0.99689703  0.99614781  0.24926735  1
  Cr  Cr1  1  0.25001466  0.00011178  0.00293536  1
  Cr  Cr2  1  0.25865046  0.24467902  0.96468446  1
  Cr  Cr3  1  0.98599834  0.25055974  0.26835434  1
  O  O0  1  0.10012207  0.26672990  0.59709977  1
  O  O1  1  0.10573052  0.77150243  0.10358037  1
  O  O2  1  0.10567709  0.77310945  0.60350291  1
  O  O3  1  0.59123928  0.26000604  0.10192305  1
  O  O4  1  0.59900713  0.26949821  0.59498427  1
  O  O5  1  0.60636657  0.77290929  0.10696169  1
  O  O6  1  0.60736155  0.76598722  0.60684086  1
  O  O7  1  0.39736674  0.20965529  0.36114749  1
  O  O8  1  0.40575321  0.23206526  0.89688940  1
  O  O9  1  0.39623294  0.72631900  0.39788549  1
  O  O10  1  0.39585408  0.72931835  0.89787781  1
  O  O11  1  0.89949380  0.22491335  0.40385297  1
  O  O12  1  0.90119791  0.23396081  0.90395215  1
  O  O13  1  0.89572364  0.73023838  0.39517273  1
  O  O14  1  0.89496035  0.72942463  0.89551498  1
  O  O15  1  0.14873131  0.24392374  0.32585621  1
  O  O16  1  0.14900931  0.22606013  0.84319124  1
  O  O17  1  0.14633859  0.73053978  0.35292453  1
  O  O18  1  0.14680440  0.72996397  0.85407179  1
  O  O19  1  0.65698859  0.22396939  0.35133335  1
  O  O20  1  0.64993333  0.22934131  0.85234337  1
  O  O21  1  0.64618718  0.72812770  0.35419033  1
  O  O22  1  0.64458573  0.72867422  0.85584167  1
  O  O23  1  0.35357664  0.26620918  0.64073044  1
  O  O24  1  0.35572167  0.77273878  0.14734250  1
  O  O25  1  0.35440049  0.77014649  0.64713204  1
  O  O26  1  0.86681119  0.27395406  0.14660063  1
  O  O27  1  0.84989982  0.27350943  0.64973189  1
  O  O28  1  0.85683156  0.76986979  0.14466303  1
  O  O29  1  0.85638127  0.77130642  0.64564104  1
  O  O30  1  0.35612899  0.48270131  0.14606338  1
  O  O31  1  0.35550336  0.48137959  0.64548891  1
  O  O32  1  0.35335818  0.99796175  0.16648915  1
  O  O33  1  0.35521567  0.98042976  0.64156080  1
  O  O34  1  0.85585148  0.48120747  0.14522161  1
  O  O35  1  0.85689625  0.47841496  0.64626306  1
  O  O36  1  0.84894655  0.97952209  0.14988725  1
  O  O37  1  0.85092790  0.97839604  0.64683449  1
  O  O38  1  0.14074743  0.01118816  0.35706812  1
  O  O39  1  0.14302157  0.02469167  0.85718947  1
  O  O40  1  0.14751562  0.52092787  0.35235567  1
  O  O41  1  0.15017780  0.51509225  0.85404360  1
  O  O42  1  0.62628473  0.02988020  0.35636964  1
  O  O43  1  0.64839007  0.01963252  0.84998111  1
  O  O44  1  0.64622286  0.51907693  0.35368832  1
  O  O45  1  0.64492690  0.52130429  0.85535108  1
  O  O46  1  0.39606529  0.02178233  0.89501730  1
  O  O47  1  0.39567269  0.52281570  0.39707875  1
  O  O48  1  0.39526516  0.51421328  0.90042433  1
  O  O49  1  0.88959281  0.02096444  0.39317858  1
  O  O50  1  0.89455612  0.01755488  0.89928152  1
  O  O51  1  0.89720648  0.52005595  0.39602485  1
  O  O52  1  0.89659290  0.51845463  0.89755725  1
  O  O53  1  0.10411175  0.47956097  0.10462844  1
  O  O54  1  0.10658335  0.47922009  0.60461594  1
  O  O55  1  0.10153412  0.98096460  0.10896544  1
  O  O56  1  0.09723421  0.98079531  0.61169178  1
  O  O57  1  0.60704859  0.48111186  0.10742988  1
  O  O58  1  0.60726977  0.48174654  0.60584111  1
  O  O59  1  0.60173325  0.98628305  0.09431604  1
  O  O60  1  0.59851296  0.98158371  0.59877575  1
  O  O61  1  0.01180827  0.37719991  0.28595115  1
  O  O62  1  0.01473867  0.37463233  0.78890025  1
  O  O63  1  0.00675081  0.87351063  0.29002346  1
  O  O64  1  0.01140340  0.87449231  0.79290513  1
  O  O65  1  0.49765263  0.37719231  0.28478756  1
  O  O66  1  0.50826288  0.37528759  0.78320695  1
  O  O67  1  0.50914586  0.87187685  0.29992062  1
  O  O68  1  0.51007437  0.87423946  0.78431214  1
  O  O69  1  0.49021213  0.12494909  0.71500020  1
  O  O70  1  0.49004079  0.62706114  0.20851021  1
  O  O71  1  0.48804449  0.62470339  0.71326888  1
  O  O72  1  0.99677483  0.12611056  0.21342102  1
  O  O73  1  0.98576483  0.12547666  0.71373754  1
  O  O74  1  0.99019143  0.62552873  0.20973852  1
  O  O75  1  0.99138353  0.62498747  0.71173320  1
  O  O76  1  0.23652623  0.14624653  0.05455611  1
  O  O77  1  0.24620305  0.12112957  0.51529247  1
  O  O78  1  0.23778252  0.62552280  0.04126000  1
  O  O79  1  0.23694115  0.62621482  0.54092048  1
  O  O80  1  0.74408226  0.12478881  0.04001483  1
  O  O81  1  0.74067719  0.12538394  0.54242799  1
  O  O82  1  0.73985158  0.62592423  0.04069794  1
  O  O83  1  0.74443197  0.62474721  0.53823273  1
  O  O84  1  0.26532098  0.37590966  0.46308489  1
  O  O85  1  0.25576922  0.35767670  0.00727748  1
  O  O86  1  0.26954493  0.87474860  0.45631019  1
  O  O87  1  0.26593878  0.87538441  0.96459970  1
  O  O88  1  0.75974966  0.37434857  0.45900534  1
  O  O89  1  0.75063587  0.37551762  0.96575011  1
  O  O90  1  0.75505630  0.87567811  0.46058467  1
  O  O91  1  0.75780585  0.87431777  0.96088265  1
loop_
_geom_bond_atom_site_label_1
_geom_bond_atom_site_label_2
_geom_bond_distance
_geom_bond_site_symmetry_2
Ca0 O73 2.271610 1_455
Ca0 O49 2.347403 1_455
Ca0 O11 2.367851 1_455
Ca0 O77 2.476260 1_555
Ca0 O56 2.509475 1_545
Ca0 O38 2.626408 1_555
Ca0 O0 2.645117 1_555
Ca1 O50 2.253596 1_455
Ca1 O12 2.356996 1_455
Ca1 O72 2.385545 1_456
Ca1 O39 2.469136 1_555
Ca1 O76 2.523253 1_556
Ca1 O55 2.612160 1_546
Ca1 O16 2.718896 1_555
Ca2 O75 2.339904 1_455
Ca2 O13 2.350510 1_455
Ca2 O51 2.365354 1_455
Ca2 O79 2.390841 1_555
Ca2 O17 2.597293 1_555
Ca2 O40 2.626526 1_555
Ca2 O2 2.671372 1_555
Ca2 O54 2.696539 1_555
Ca3 O74 2.326080 1_456
Ca3 O14 2.336584 1_455
Ca3 O52 2.377154 1_455
Ca3 O78 2.405965 1_556
Ca3 O18 2.582724 1_555
Ca3 O1 2.651304 1_556
Ca3 O41 2.688805 1_555
Ca3 O53 2.691571 1_556
Ca4 O69 2.284433 1_555
Ca4 O81 2.368173 1_555
Ca4 O7 2.418154 1_555
Ca4 O42 2.464894 1_555
Ca4 O4 2.474551 1_555
Ca4 O60 2.585567 1_545
Ca4 O19 2.627049 1_555
Ca4 O77 3.045735 1_555
Ca5 O46 2.293284 1_555
Ca5 O8 2.344359 1_555
Ca5 O80 2.385675 1_556
Ca5 O43 2.400294 1_555
Ca5 O20 2.459382 1_555
Ca5 O59 2.534818 1_546
Ca5 O3 2.591794 1_556
Ca5 O69 2.825406 1_555
Ca6 O9 2.348590 1_555
Ca6 O71 2.350579 1_555
Ca6 O47 2.363823 1_555
Ca6 O83 2.412559 1_555
Ca6 O21 2.566134 1_555
Ca6 O6 2.597012 1_555
Ca6 O44 2.599355 1_555
Ca6 O58 2.627214 1_555
Ca7 O70 2.326974 1_556
Ca7 O10 2.343010 1_555
Ca7 O48 2.404582 1_555
Ca7 O82 2.410266 1_556
Ca7 O22 2.546974 1_555
Ca7 O45 2.557867 1_555
Ca7 O57 2.671868 1_556
Ca7 O5 2.708352 1_556
Ca8 O57 2.282394 1_556
Ca8 O66 2.306852 1_555
Ca8 O3 2.441990 1_556
Ca8 O48 2.483168 1_555
Ca8 O85 2.591503 1_556
Ca8 O30 2.658415 1_556
Ca8 O8 2.700409 1_555
Ca8 O89 2.846359 1_555
Ca9 O58 2.295224 1_555
Ca9 O84 2.367711 1_555
Ca9 O4 2.371572 1_555
Ca9 O65 2.409518 1_555
Ca9 O31 2.491534 1_555
Ca9 O47 2.592104 1_555
Ca9 O23 2.667322 1_555
Ca10 O68 2.288082 1_555
Ca10 O5 2.335977 1_556
Ca10 O87 2.383432 1_555
Ca10 O59 2.420716 1_556
Ca10 O10 2.577448 1_555
Ca10 O24 2.617167 1_556
Ca10 O46 2.710249 1_565
Ca11 O6 2.272557 1_555
Ca11 O67 2.334842 1_555
Ca11 O60 2.347958 1_555
Ca11 O86 2.388729 1_555
Ca11 O25 2.464269 1_555
Ca11 O33 2.606788 1_555
Ca11 O9 2.638108 1_555
Ca12 O62 2.331428 1_654
Ca12 O53 2.358824 1_655
Ca12 O89 2.391814 1_554
Ca12 O52 2.456634 1_554
Ca12 O34 2.480079 1_555
Ca12 O26 2.550220 1_555
Ca12 O12 2.605645 1_554
Ca13 O54 2.321998 1_655
Ca13 O0 2.389732 1_655
Ca13 O61 2.396164 1_655
Ca13 O88 2.412372 1_555
Ca13 O35 2.503256 1_555
Ca13 O51 2.594015 1_555
Ca13 O27 2.632419 1_555
Ca13 O11 2.731110 1_555
Ca14 O64 2.313938 1_654
Ca14 O1 2.351346 1_655
Ca14 O55 2.406357 1_655
Ca14 O91 2.411075 1_554
Ca14 O28 2.534400 1_555
Ca14 O50 2.626430 1_564
Ca14 O14 2.635721 1_554
Ca14 O36 2.638708 1_555
Ca15 O2 2.353600 1_655
Ca15 O63 2.360123 1_655
Ca15 O56 2.394247 1_655
Ca15 O90 2.412196 1_555
Ca15 O29 2.508169 1_555
Ca15 O37 2.562046 1_555
Ca15 O13 2.631410 1_555
Ca15 O49 2.704644 1_565
Ca16 O84 2.286942 1_555
Ca16 O30 2.315120 1_555
Ca16 O61 2.383614 1_555
Ca16 O40 2.440922 1_555
Ca16 O15 2.494132 1_555
Ca16 O53 2.507138 1_555
Ca16 O85 2.710103 1_555
Ca16 O65 2.955539 1_555
Ca17 O31 2.314142 1_555
Ca17 O62 2.383973 1_555
Ca17 O23 2.411458 1_555
Ca17 O54 2.443738 1_555
Ca17 O41 2.602695 1_555
Ca17 O0 2.617975 1_555
Ca17 O16 2.735910 1_555
Ca17 O84 2.930668 1_555
Ca17 O85 2.976964 1_556
Ca17 O66 3.108883 1_555
Ca18 O86 2.326261 1_555
Ca18 O24 2.342169 1_555
Ca18 O63 2.423597 1_555
Ca18 O32 2.506760 1_555
Ca18 O1 2.515083 1_555
Ca18 O55 2.566162 1_555
Ca18 O38 2.597272 1_565
Ca18 O17 2.614726 1_555
Ca19 O87 2.346943 1_555
Ca19 O25 2.364664 1_555
Ca19 O64 2.412663 1_555
Ca19 O33 2.425844 1_555
Ca19 O2 2.560663 1_555
Ca19 O56 2.619685 1_555
Ca19 O18 2.625210 1_555
Ca19 O39 2.743445 1_565
Ca20 O34 2.284764 1_555
Ca20 O88 2.325251 1_555
Ca20 O26 2.472843 1_555
Ca20 O57 2.485882 1_555
Ca20 O44 2.550637 1_555
Ca20 O65 2.577062 1_555
Ca20 O19 2.809647 1_555
Ca20 O3 2.857275 1_555
Ca21 O27 2.346314 1_555
Ca21 O89 2.347922 1_555
Ca21 O35 2.351763 1_555
Ca21 O66 2.409672 1_555
Ca21 O58 2.546788 1_555
Ca21 O45 2.619968 1_555
Ca21 O20 2.673161 1_555
Ca21 O4 2.715821 1_555
Ca22 O28 2.290636 1_555
Ca22 O90 2.312756 1_555
Ca22 O36 2.378892 1_555
Ca22 O5 2.477617 1_555
Ca22 O67 2.497018 1_555
Ca22 O21 2.587646 1_555
Ca22 O59 2.826244 1_555
Ca23 O91 2.334107 1_555
Ca23 O37 2.343112 1_555
Ca23 O29 2.356576 1_555
Ca23 O68 2.407295 1_555
Ca23 O6 2.565548 1_555
Ca23 O43 2.644409 1_565
Ca23 O22 2.666930 1_555
Ca23 O60 2.675551 1_555
Ca24 O38 2.230578 1_555
Ca24 O76 2.253591 1_555
Ca24 O15 2.256889 1_555
Ca24 O7 2.436621 1_555
Ca24 O32 2.448600 1_545
Ca24 O72 2.695698 1_455
Ca24 O77 2.731289 1_555
Ca25 O77 2.366591 1_555
Ca25 O39 2.367622 1_555
Ca25 O69 2.412481 1_555
Ca25 O16 2.431249 1_555
Ca25 O33 2.483993 1_545
Ca25 O46 2.630123 1_555
Ca25 O23 2.661459 1_555
Ca25 O8 2.881795 1_555
Ca26 O17 2.334661 1_555
Ca26 O78 2.346403 1_555
Ca26 O40 2.362796 1_555
Ca26 O70 2.417569 1_555
Ca26 O9 2.510819 1_555
Ca26 O47 2.563880 1_555
Ca26 O24 2.664348 1_555
Ca26 O30 2.671439 1_555
Ca27 O79 2.326967 1_555
Ca27 O18 2.354078 1_555
Ca27 O41 2.389769 1_555
Ca27 O71 2.400148 1_555
Ca27 O10 2.581194 1_555
Ca27 O25 2.654686 1_555
Ca27 O31 2.655634 1_555
Ca27 O48 2.664972 1_555
Ca28 O80 2.330597 1_555
Ca28 O19 2.340278 1_555
Ca28 O42 2.384891 1_555
Ca28 O49 2.417552 1_555
Ca28 O72 2.432804 1_555
Ca28 O36 2.506065 1_545
Ca28 O11 2.647047 1_555
Ca28 O26 2.832185 1_555
Ca29 O81 2.307096 1_555
Ca29 O43 2.330626 1_555
Ca29 O73 2.345023 1_555
Ca29 O20 2.359034 1_555
Ca29 O50 2.588711 1_555
Ca29 O37 2.633723 1_545
Ca29 O27 2.685135 1_555
Ca29 O12 2.698463 1_555
Ca30 O82 2.337667 1_555
Ca30 O21 2.345136 1_555
Ca30 O44 2.375445 1_555
Ca30 O74 2.415828 1_555
Ca30 O13 2.556984 1_555
Ca30 O51 2.576932 1_555
Ca30 O34 2.659057 1_555
Ca30 O28 2.670936 1_555
Ca31 O83 2.332673 1_555
Ca31 O22 2.366255 1_555
Ca31 O45 2.386596 1_555
Ca31 O75 2.425380 1_555
Ca31 O14 2.554654 1_555
Ca31 O52 2.625083 1_555
Ca31 O29 2.661336 1_555
Ca31 O35 2.697924 1_555
Mn0 O56 1.891486 1_655
Mn0 O64 1.936258 1_655
Mn0 O50 1.955195 1_565
Mn0 O39 1.971147 1_665
Mn0 O37 1.978942 1_555
Mn0 O73 1.995783 1_565
Mn1 O74 1.935580 1_555
Mn1 O51 1.942259 1_555
Mn1 O34 1.946902 1_555
Mn1 O61 1.947855 1_655
Mn1 O40 1.962244 1_655
Mn1 O53 1.973109 1_655
Mn2 O75 1.944229 1_455
Mn2 O35 1.945004 1_455
Mn2 O52 1.970765 1_455
Mn2 O62 1.972372 1_555
Mn2 O54 1.974311 1_555
Mn2 O41 1.976957 1_555
Mn3 O67 1.868288 1_555
Mn3 O32 1.871307 1_555
Mn3 O42 1.881416 1_565
Mn3 O59 1.899134 1_555
Mn4 O68 1.942476 1_555
Mn4 O69 1.959860 1_565
Mn4 O60 1.961218 1_555
Mn4 O43 1.961393 1_565
Mn4 O33 1.967999 1_555
Mn4 O46 1.968737 1_565
Mn5 O70 1.939900 1_555
Mn5 O30 1.941266 1_555
Mn5 O44 1.950212 1_555
Mn5 O47 1.956831 1_555
Mn5 O65 1.962817 1_555
Mn5 O57 1.975014 1_555
Mn6 O71 1.924407 1_555
Mn6 O31 1.947398 1_555
Mn6 O45 1.958642 1_555
Mn6 O66 1.960531 1_555
Mn6 O58 1.967712 1_555
Mn6 O48 1.991664 1_555
Mn7 O86 1.903937 1_555
Mn7 O38 1.931460 1_565
Mn7 O33 1.934399 1_555
Mn7 O77 1.956306 1_565
Mn7 O56 1.957742 1_555
Mn8 O78 1.900137 1_555
Mn8 O30 1.937200 1_555
Mn8 O41 1.941660 1_554
Mn8 O53 1.951869 1_555
Mn8 O48 1.952934 1_554
Mn8 O85 2.232934 1_555
Mn9 O79 1.933761 1_555
Mn9 O31 1.951913 1_555
Mn9 O40 1.960327 1_555
Mn9 O54 1.960418 1_555
Mn9 O47 1.961642 1_555
Mn9 O84 1.987235 1_555
Mn10 O50 1.918396 1_565
Mn10 O59 1.935276 1_556
Mn10 O91 1.939158 1_555
Mn10 O43 1.960899 1_565
Mn10 O36 1.965946 1_556
Mn10 O80 1.977576 1_566
Mn11 O60 1.943057 1_545
Mn11 O37 1.952728 1_545
Mn11 O90 1.953091 1_545
Mn11 O81 1.958869 1_555
Mn11 O49 1.975960 1_555
Mn11 O42 2.078228 1_555
Mn12 O82 1.927865 1_555
Mn12 O45 1.940156 1_554
Mn12 O57 1.955930 1_555
Mn12 O34 1.963664 1_555
Mn12 O52 1.971020 1_554
Mn12 O89 1.978425 1_554
Mn13 O83 1.941713 1_555
Mn13 O44 1.958784 1_555
Mn13 O58 1.960710 1_555
Mn13 O35 1.967810 1_555
Mn13 O51 1.969707 1_555
Mn13 O88 1.974779 1_555
Mn14 O84 1.941762 1_555
Mn14 O23 1.957031 1_555
Mn14 O77 1.993796 1_555
Mn14 O0 1.994289 1_555
Mn14 O15 2.098455 1_555
Mn14 O7 2.238196 1_555
Mn15 O87 1.936660 1_554
Mn15 O10 1.956931 1_554
Mn15 O18 1.958746 1_554
Mn15 O1 1.960003 1_555
Mn15 O24 1.965981 1_555
Mn15 O78 1.975195 1_555
Mn16 O79 1.943058 1_555
Mn16 O25 1.959134 1_555
Mn16 O17 1.960660 1_555
Mn16 O2 1.965496 1_555
Mn16 O9 1.966831 1_555
Mn16 O86 1.972369 1_555
Mn17 O12 1.937452 1_555
Mn17 O20 1.939961 1_555
Mn17 O80 1.944685 1_556
Mn17 O89 1.965373 1_555
Mn17 O26 2.050111 1_556
Mn17 O3 2.079964 1_556
Mn18 O27 1.928565 1_555
Mn18 O4 1.931544 1_555
Mn18 O88 1.950299 1_555
Mn18 O81 1.958392 1_555
Mn18 O19 1.964918 1_555
Mn18 O11 2.000788 1_555
Mn19 O82 1.940771 1_556
Mn19 O22 1.944634 1_555
Mn19 O91 1.949243 1_555
Mn19 O28 1.959271 1_556
Mn19 O14 1.967645 1_555
Mn19 O5 1.974938 1_556
Mn20 O83 1.944529 1_555
Mn20 O21 1.955335 1_555
Mn20 O6 1.957156 1_555
Mn20 O29 1.962885 1_555
Mn20 O13 1.966426 1_555
Mn20 O90 1.974958 1_555
Mn21 O27 1.913680 1_555
Mn21 O73 1.948364 1_555
Mn21 O62 1.951754 1_655
Mn21 O0 1.973155 1_655
Mn21 O16 2.003335 1_655
Mn21 O12 2.014180 1_555
Mn22 O74 1.939284 1_455
Mn22 O63 1.943584 1_555
Mn22 O17 1.945174 1_555
Mn22 O28 1.952545 1_455
Mn22 O13 1.955892 1_455
Mn22 O1 1.981977 1_555
Mn23 O29 1.951154 1_455
Mn23 O64 1.951942 1_555
Mn23 O75 1.957523 1_455
Mn23 O18 1.960220 1_555
Mn23 O14 1.972639 1_455
Mn23 O2 1.979238 1_555
Mn24 O7 1.846471 1_555
Mn24 O19 1.857435 1_555
Mn24 O3 1.880627 1_555
Mn24 O65 1.889730 1_555
Mn25 O4 1.933266 1_555
Mn25 O66 1.945449 1_555
Mn25 O69 1.949269 1_555
Mn25 O23 1.968972 1_555
Mn25 O8 1.983059 1_555
Mn25 O20 2.004932 1_555
Mn26 O70 1.912300 1_555
Mn26 O24 1.952012 1_555
Mn26 O67 1.953289 1_555
Mn26 O21 1.959163 1_555
Mn26 O9 1.963878 1_555
Mn26 O5 1.982920 1_555
Mn27 O71 1.931122 1_555
Mn27 O22 1.951161 1_555
Mn27 O68 1.957438 1_555
Mn27 O25 1.960301 1_555
Mn27 O6 1.964241 1_555
Mn27 O10 1.967891 1_555
Cr0 O55 1.907924 1_655
Cr0 O63 1.924343 1_655
Cr0 O36 1.941203 1_555
Cr0 O38 1.953233 1_665
Cr0 O49 1.978959 1_565
Cr0 O72 2.019587 1_565
Cr1 O87 1.954383 1_544
Cr1 O39 1.980344 1_554
Cr1 O46 1.999383 1_554
Cr1 O55 2.002928 1_545
Cr1 O32 2.079083 1_545
Cr1 O76 2.301620 1_555
Cr2 O8 1.772590 1_555
Cr2 O85 1.783268 1_556
Cr2 O16 1.783968 1_555
Cr2 O76 1.801939 1_556
Cr3 O11 1.780970 1_555
Cr3 O26 1.869893 1_555
Cr3 O15 1.873572 1_655
Cr3 O61 1.960362 1_655
Cr3 O72 1.991205 1_555
