# generated using pymatgen
data_Ca5Sn3S11
_symmetry_space_group_name_H-M   'P 1'
_cell_length_a   8.74930500
_cell_length_b   8.74992684
_cell_length_c   13.91527139
_cell_angle_alpha   84.22890088
_cell_angle_beta   85.13953383
_cell_angle_gamma   76.83445011
_symmetry_Int_Tables_number   1
_chemical_formula_structural   Ca5Sn3S11
_chemical_formula_sum   'Ca10 Sn6 S22'
_cell_volume   1029.93298330
_cell_formula_units_Z   2
loop_
 _symmetry_equiv_pos_site_id
 _symmetry_equiv_pos_as_xyz
  1  'x, y, z'
loop_
 _atom_site_type_symbol
 _atom_site_label
 _atom_site_symmetry_multiplicity
 _atom_site_fract_x
 _atom_site_fract_y
 _atom_site_fract_z
 _atom_site_occupancy
  Ca  Ca0  1  0.04117000  0.01553500  0.24175800  1
  Ca  Ca1  1  0.95883000  0.98446500  0.75824200  1
  Ca  Ca2  1  0.90022900  0.54944400  0.23320700  1
  Ca  Ca3  1  0.09977100  0.45055600  0.76679300  1
  Ca  Ca4  1  0.44731700  0.07827200  0.75418700  1
  Ca  Ca5  1  0.55268300  0.92172800  0.24581300  1
  Ca  Ca6  1  0.30018900  0.70846300  0.99742400  1
  Ca  Ca7  1  0.69981100  0.29153700  0.00257600  1
  Ca  Ca8  1  0.66628900  0.32774100  0.49366700  1
  Ca  Ca9  1  0.33371100  0.67225900  0.50633300  1
  Sn  Sn0  1  0.42903000  0.45343900  0.25774100  1
  Sn  Sn1  1  0.57097000  0.54656100  0.74225900  1
  Sn  Sn2  1  0.17592200  0.18598200  0.46732400  1
  Sn  Sn3  1  0.82407800  0.81401800  0.53267600  1
  Sn  Sn4  1  0.21594200  0.21000600  0.01746300  1
  Sn  Sn5  1  0.78405800  0.78999400  0.98253700  1
  S  S0  1  0.58638900  0.59933500  0.33198400  1
  S  S1  1  0.41361100  0.40066500  0.66801600  1
  S  S2  1  0.31660000  0.96462500  0.10982000  1
  S  S3  1  0.68340000  0.03537500  0.89018000  1
  S  S4  1  0.96956400  0.29513200  0.10923600  1
  S  S5  1  0.03043600  0.70486800  0.89076400  1
  S  S6  1  0.28998000  0.95054100  0.38722400  1
  S  S7  1  0.71002000  0.04945900  0.61277600  1
  S  S8  1  0.94392500  0.28466800  0.37969100  1
  S  S9  1  0.05607500  0.71533200  0.62030900  1
  S  S10  1  0.15332600  0.13820800  0.86313300  1
  S  S11  1  0.84667400  0.86179200  0.13686700  1
  S  S12  1  0.35165900  0.37244900  0.43069100  1
  S  S13  1  0.64834100  0.62755100  0.56930900  1
  S  S14  1  0.84424300  0.83891200  0.36136600  1
  S  S15  1  0.15575700  0.16108800  0.63863400  1
  S  S16  1  0.62207800  0.61149000  0.04377800  1
  S  S17  1  0.37792200  0.38851000  0.95622200  1
  S  S18  1  0.20021900  0.61767400  0.19387400  1
  S  S19  1  0.79978100  0.38232600  0.80612600  1
  S  S20  1  0.60038800  0.22529100  0.20130400  1
  S  S21  1  0.39961200  0.77470900  0.79869600  1
loop_
_geom_bond_atom_site_label_1
_geom_bond_atom_site_label_2
_geom_bond_distance
_geom_bond_site_symmetry_2
Ca0 S2 2.881341 1_545
Ca0 S14 2.887368 1_445
Ca0 S4 2.892846 1_455
Ca0 S11 2.948634 1_445
Ca0 S6 3.018447 1_545
Ca0 S8 3.110143 1_455
Ca1 S3 2.881341 1_565
Ca1 S15 2.887368 1_665
Ca1 S5 2.892846 1_655
Ca1 S10 2.948634 1_665
Ca1 S7 3.018447 1_565
Ca1 S9 3.110143 1_655
Ca2 S18 2.819522 1_655
Ca2 S11 2.876181 1_555
Ca2 S4 2.876673 1_555
Ca2 S8 2.906437 1_555
Ca2 S0 2.924853 1_555
Ca2 S14 3.167134 1_555
Ca3 S19 2.819522 1_455
Ca3 S10 2.876181 1_555
Ca3 S5 2.876673 1_555
Ca3 S9 2.906437 1_555
Ca3 S1 2.924853 1_555
Ca3 S15 3.167134 1_555
Ca4 S21 2.782685 1_545
Ca4 S10 2.841517 1_555
Ca4 S3 2.855678 1_555
Ca4 S7 2.878891 1_555
Ca4 S1 2.912570 1_555
Ca4 S15 3.039185 1_555
Ca5 S20 2.782685 1_565
Ca5 S11 2.841517 1_555
Ca5 S2 2.855678 1_555
Ca5 S6 2.878891 1_555
Ca5 S0 2.912570 1_555
Ca5 S14 3.039185 1_555
Ca6 S17 2.831645 1_555
Ca6 S16 2.859512 1_556
Ca6 S21 2.870463 1_555
Ca6 S18 2.888527 1_556
Ca6 S2 2.894877 1_556
Ca6 S5 2.900168 1_555
Ca7 S16 2.831645 1_555
Ca7 S17 2.859512 1_554
Ca7 S20 2.870463 1_555
Ca7 S19 2.888527 1_554
Ca7 S3 2.894877 1_554
Ca7 S4 2.900168 1_555
Ca8 S8 2.758335 1_555
Ca8 S7 2.773786 1_555
Ca8 S12 2.889318 1_555
Ca8 S13 2.890331 1_555
Ca8 S0 3.103626 1_555
Ca8 S1 3.152849 1_555
Ca9 S9 2.758335 1_555
Ca9 S6 2.773786 1_555
Ca9 S13 2.889318 1_555
Ca9 S12 2.890331 1_555
Ca9 S1 3.103626 1_555
Ca9 S0 3.152849 1_555
S0 Sn0 2.428867 1_555
S1 Sn1 2.428867 1_555
S2 Sn4 2.410950 1_565
S3 Sn5 2.410950 1_545
S4 Sn4 2.413670 1_655
S5 Sn5 2.413670 1_455
S6 Sn2 2.412262 1_565
S7 Sn3 2.412262 1_545
S8 Sn2 2.400427 1_655
S9 Sn3 2.400427 1_455
S10 Sn4 2.436027 1_556
S11 Sn5 2.436027 1_554
S12 Sn2 2.475624 1_555
S12 Sn0 2.520289 1_555
S13 Sn3 2.475624 1_555
S13 Sn1 2.520289 1_555
S14 Sn3 2.367067 1_555
S15 Sn2 2.367067 1_555
S16 Sn5 2.389608 1_554
S17 Sn4 2.389608 1_556
S18 Sn0 2.365763 1_555
S19 Sn1 2.365763 1_555
S20 Sn0 2.366866 1_555
S21 Sn1 2.366866 1_555
