# generated using pymatgen
data_YbSnHg
_symmetry_space_group_name_H-M   'P 1'
_cell_length_a   4.87275645
_cell_length_b   4.87275645
_cell_length_c   7.70656000
_cell_angle_alpha   90.00000000
_cell_angle_beta   90.00000000
_cell_angle_gamma   120.00000609
_symmetry_Int_Tables_number   1
_chemical_formula_structural   YbSnHg
_chemical_formula_sum   'Yb2 Sn2 Hg2'
_cell_volume   158.46763584
_cell_formula_units_Z   2
loop_
 _symmetry_equiv_pos_site_id
 _symmetry_equiv_pos_as_xyz
  1  'x, y, z'
loop_
 _atom_site_type_symbol
 _atom_site_label
 _atom_site_symmetry_multiplicity
 _atom_site_fract_x
 _atom_site_fract_y
 _atom_site_fract_z
 _atom_site_occupancy
  Yb  Yb0  1  0.00000000  0.00000000  0.25135200  1
  Yb  Yb1  1  0.00000000  0.00000000  0.75135200  1
  Sn  Sn0  1  0.33333300  0.66666700  0.03890500  1
  Sn  Sn1  1  0.66666700  0.33333300  0.53890500  1
  Hg  Hg0  1  0.33333300  0.66666700  0.43974400  1
  Hg  Hg1  1  0.66666700  0.33333300  0.93974400  1
loop_
_geom_bond_atom_site_label_1
_geom_bond_atom_site_label_2
_geom_bond_distance
_geom_bond_site_symmetry_2
Sn0 Yb0 3.255013 1_565
Sn0 Yb0 3.255016 1_665
Sn0 Yb0 3.255016 1_555
Sn0 Yb1 3.581260 1_564
Sn0 Yb1 3.581263 1_664
Sn0 Yb1 3.581263 1_554
Sn1 Yb1 3.255013 1_655
Sn1 Yb1 3.255016 1_555
Sn1 Yb1 3.255016 1_665
Sn1 Yb0 3.581260 1_655
Sn1 Yb0 3.581263 1_555
Sn1 Yb0 3.581263 1_665
Hg0 Sn1 2.915228 1_455
Hg0 Sn1 2.915228 1_565
Hg0 Sn1 2.915237 1_555
Hg0 Sn0 3.089090 1_555
Hg0 Yb0 3.165825 1_565
Hg0 Yb0 3.165829 1_665
Hg0 Yb0 3.165829 1_555
Hg0 Yb1 3.698840 1_565
Hg0 Yb1 3.698843 1_665
Hg0 Yb1 3.698843 1_555
Hg1 Sn0 2.915228 1_546
Hg1 Sn0 2.915228 1_656
Hg1 Sn0 2.915237 1_556
Hg1 Sn1 3.089090 1_555
Hg1 Yb1 3.165825 1_655
Hg1 Yb1 3.165829 1_555
Hg1 Yb1 3.165829 1_665
Hg1 Yb0 3.698840 1_656
Hg1 Yb0 3.698843 1_556
Hg1 Yb0 3.698843 1_666
