# generated using pymatgen
data_Ca5As3CO12
_symmetry_space_group_name_H-M   'P 1'
_cell_length_a   10.03179361
_cell_length_b   10.03179361
_cell_length_c   7.00294000
_cell_angle_alpha   90.00000000
_cell_angle_beta   90.00000000
_cell_angle_gamma   119.99999743
_symmetry_Int_Tables_number   1
_chemical_formula_structural   Ca5As3CO12
_chemical_formula_sum   'Ca10 As6 C2 O24'
_cell_volume   610.33492977
_cell_formula_units_Z   2
loop_
 _symmetry_equiv_pos_site_id
 _symmetry_equiv_pos_as_xyz
  1  'x, y, z'
loop_
 _atom_site_type_symbol
 _atom_site_label
 _atom_site_symmetry_multiplicity
 _atom_site_fract_x
 _atom_site_fract_y
 _atom_site_fract_z
 _atom_site_occupancy
  Ca  Ca0  1  0.33333300  0.66666700  0.00150800  1
  Ca  Ca1  1  0.66666700  0.33333300  0.99849200  1
  Ca  Ca2  1  0.66666700  0.33333300  0.50150800  1
  Ca  Ca3  1  0.33333300  0.66666700  0.49849200  1
  Ca  Ca4  1  0.26340900  0.25288800  0.25000000  1
  Ca  Ca5  1  0.73659100  0.74711200  0.75000000  1
  Ca  Ca6  1  0.74711200  0.01052100  0.25000000  1
  Ca  Ca7  1  0.25288800  0.98947900  0.75000000  1
  Ca  Ca8  1  0.98947900  0.73659100  0.25000000  1
  Ca  Ca9  1  0.01052100  0.26340900  0.75000000  1
  As  As0  1  0.39825900  0.02768500  0.25000000  1
  As  As1  1  0.60174100  0.97231500  0.75000000  1
  As  As2  1  0.97231500  0.37057400  0.25000000  1
  As  As3  1  0.02768500  0.62942600  0.75000000  1
  As  As4  1  0.62942600  0.60174100  0.25000000  1
  As  As5  1  0.37057400  0.39825900  0.75000000  1
  C  C0  1  0.00000000  0.00000000  0.25000000  1
  C  C1  1  0.00000000  0.00000000  0.75000000  1
  O  O0  1  0.16665000  0.49581200  0.25000000  1
  O  O1  1  0.83335000  0.50418800  0.75000000  1
  O  O2  1  0.50418800  0.67083800  0.25000000  1
  O  O3  1  0.49581200  0.32916200  0.75000000  1
  O  O4  1  0.32916200  0.83335000  0.25000000  1
  O  O5  1  0.67083800  0.16665000  0.75000000  1
  O  O6  1  0.59850100  0.13261700  0.25000000  1
  O  O7  1  0.40149900  0.86738300  0.75000000  1
  O  O8  1  0.86738300  0.46588400  0.25000000  1
  O  O9  1  0.13261700  0.53411600  0.75000000  1
  O  O10  1  0.53411600  0.40149900  0.25000000  1
  O  O11  1  0.46588400  0.59850100  0.75000000  1
  O  O12  1  0.34363900  0.09310200  0.05548800  1
  O  O13  1  0.65636100  0.90689800  0.94451200  1
  O  O14  1  0.90689800  0.25053600  0.05548800  1
  O  O15  1  0.65636100  0.90689800  0.55548800  1
  O  O16  1  0.09310200  0.74946400  0.94451200  1
  O  O17  1  0.34363900  0.09310200  0.44451200  1
  O  O18  1  0.74946400  0.65636100  0.05548800  1
  O  O19  1  0.09310200  0.74946400  0.55548800  1
  O  O20  1  0.25053600  0.34363900  0.94451200  1
  O  O21  1  0.90689800  0.25053600  0.44451200  1
  O  O22  1  0.25053600  0.34363900  0.55548800  1
  O  O23  1  0.74946400  0.65636100  0.44451200  1
loop_
_geom_bond_atom_site_label_1
_geom_bond_atom_site_label_2
_geom_bond_distance
_geom_bond_site_symmetry_2
Ca0 O4 2.428156 1_555
Ca0 O0 2.428160 1_555
Ca0 O2 2.428163 1_555
Ca0 O7 2.499443 1_554
Ca0 O9 2.499444 1_554
Ca0 O11 2.499450 1_554
Ca0 O16 2.942579 1_554
Ca0 O20 2.942579 1_554
Ca0 O13 2.942579 1_554
Ca1 O5 2.428156 1_555
Ca1 O1 2.428160 1_555
Ca1 O3 2.428163 1_555
Ca1 O6 2.499443 1_556
Ca1 O8 2.499444 1_556
Ca1 O10 2.499450 1_556
Ca1 O14 2.942579 1_556
Ca1 O18 2.942579 1_556
Ca1 O12 2.942579 1_556
Ca2 O5 2.428156 1_555
Ca2 O1 2.428160 1_555
Ca2 O3 2.428163 1_555
Ca2 O6 2.499443 1_555
Ca2 O8 2.499444 1_555
Ca2 O10 2.499450 1_555
Ca2 O21 2.942579 1_555
Ca2 O23 2.942579 1_555
Ca2 O17 2.942579 1_555
Ca3 O4 2.428156 1_555
Ca3 O0 2.428160 1_555
Ca3 O2 2.428163 1_555
Ca3 O7 2.499443 1_555
Ca3 O9 2.499444 1_555
Ca3 O11 2.499450 1_555
Ca3 O19 2.942579 1_555
Ca3 O22 2.942579 1_555
Ca3 O15 2.942579 1_555
Ca4 O22 2.353663 1_555
Ca4 O20 2.353663 1_554
Ca4 O10 2.355603 1_555
Ca4 O17 2.522459 1_555
Ca4 O12 2.522459 1_555
Ca5 O18 2.353663 1_556
Ca5 O23 2.353663 1_555
Ca5 O11 2.355603 1_555
Ca5 O13 2.522459 1_555
Ca5 O15 2.522459 1_555
Ca6 O15 2.353660 1_545
Ca6 O13 2.353660 1_544
Ca6 O6 2.355602 1_555
Ca6 O21 2.522452 1_555
Ca6 O14 2.522452 1_555
Ca7 O12 2.353660 1_566
Ca7 O17 2.353660 1_565
Ca7 O7 2.355602 1_555
Ca7 O16 2.522452 1_555
Ca7 O19 2.522452 1_555
Ca8 O19 2.353659 1_655
Ca8 O16 2.353659 1_654
Ca8 O8 2.355603 1_555
Ca8 O23 2.522451 1_555
Ca8 O18 2.522451 1_555
Ca9 O14 2.353659 1_456
Ca9 O21 2.353659 1_455
Ca9 O9 2.355603 1_555
Ca9 O20 2.522451 1_555
Ca9 O22 2.522451 1_555
As0 O4 1.711664 1_545
As0 O17 1.716377 1_555
As0 O12 1.716377 1_555
As0 O6 1.740329 1_555
As1 O5 1.711664 1_565
As1 O13 1.716377 1_555
As1 O15 1.716377 1_555
As1 O7 1.740329 1_555
As2 O0 1.711664 1_655
As2 O21 1.716382 1_555
As2 O14 1.716382 1_555
As2 O8 1.740329 1_555
As3 O1 1.711664 1_455
As3 O16 1.716382 1_555
As3 O19 1.716382 1_555
As3 O9 1.740329 1_555
As4 O2 1.711664 1_555
As4 O23 1.716383 1_555
As4 O18 1.716383 1_555
As4 O10 1.740329 1_555
As5 O3 1.711664 1_555
As5 O20 1.716383 1_555
As5 O22 1.716383 1_555
As5 O11 1.740329 1_555
C0 Ca6 2.591305 1_455
C0 Ca8 2.591305 1_445
C0 Ca4 2.591305 1_555
C1 Ca7 2.591305 1_545
C1 Ca9 2.591305 1_555
C1 Ca5 2.591305 1_445
