# generated using pymatgen
data_Na3W6N2O31
_symmetry_space_group_name_H-M   'P 1'
_cell_length_a   10.63522526
_cell_length_b   10.23498369
_cell_length_c   8.86112150
_cell_angle_alpha   75.05179892
_cell_angle_beta   63.85171744
_cell_angle_gamma   54.09671426
_symmetry_Int_Tables_number   1
_chemical_formula_structural   Na3W6N2O31
_chemical_formula_sum   'Na3 W6 N2 O31'
_cell_volume   701.32924374
_cell_formula_units_Z   1
loop_
 _symmetry_equiv_pos_site_id
 _symmetry_equiv_pos_as_xyz
  1  'x, y, z'
loop_
 _atom_site_type_symbol
 _atom_site_label
 _atom_site_symmetry_multiplicity
 _atom_site_fract_x
 _atom_site_fract_y
 _atom_site_fract_z
 _atom_site_occupancy
  Na  Na0  1  0.50000000  0.00000000  0.00000000  1
  Na  Na1  1  0.64058000  0.21416000  0.10301000  1
  Na  Na2  1  0.35942000  0.78584000  0.89699000  1
  W  W0  1  0.10031700  0.33746300  0.26788600  1
  W  W1  1  0.89968300  0.66253700  0.73211400  1
  W  W2  1  0.25787800  0.32375500  0.55606800  1
  W  W3  1  0.74212200  0.67624500  0.44393200  1
  W  W4  1  0.10434300  0.65097500  0.31490900  1
  W  W5  1  0.89565700  0.34902500  0.68509100  1
  N  N0  1  0.79276400  0.19445400  0.33199500  1
  N  N1  1  0.20723600  0.80554600  0.66800500  1
  O  O0  1  0.45159600  0.43635100  0.88713900  1
  O  O1  1  0.54840400  0.56364900  0.11286100  1
  O  O2  1  0.28673800  0.19625700  0.36785100  1
  O  O3  1  0.71326200  0.80374300  0.63214900  1
  O  O4  1  0.12835600  0.22903100  0.67162300  1
  O  O5  1  0.87164400  0.77096900  0.32837700  1
  O  O6  1  0.14446200  0.50636300  0.17014000  1
  O  O7  1  0.85553800  0.49363700  0.82986000  1
  O  O8  1  0.83665200  0.09510800  0.23323800  1
  O  O9  1  0.16334800  0.90489200  0.76676200  1
  O  O10  1  0.66760600  0.33315800  0.35174800  1
  O  O11  1  0.33239400  0.66684200  0.64825200  1
  O  O12  1  0.14095600  0.21562400  0.11290200  1
  O  O13  1  0.85904400  0.78437600  0.88709800  1
  O  O14  1  0.19469200  0.75316400  0.17060600  1
  O  O15  1  0.80530800  0.24683600  0.82939400  1
  O  O16  1  0.36322600  0.21205500  0.18470600  1
  O  O17  1  0.63677400  0.78794500  0.81529400  1
  O  O18  1  0.29776700  0.46036200  0.37041300  1
  O  O19  1  0.70223300  0.53963800  0.62958700  1
  O  O20  1  0.54717300  0.66241300  0.17099900  1
  O  O21  1  0.45282700  0.33758700  0.82900100  1
  O  O22  1  0.13138400  0.48548200  0.72041000  1
  O  O23  1  0.86861600  0.51451800  0.27959000  1
  O  O24  1  0.00000000  0.50000000  0.50000000  1
  O  O25  1  0.24567300  0.11003900  0.98431500  1
  O  O26  1  0.75432700  0.88996100  0.01568500  1
  O  O27  1  0.01719600  0.74102800  0.53067300  1
  O  O28  1  0.98280400  0.25897200  0.46932700  1
  O  O29  1  0.44966500  0.18805000  0.57738100  1
  O  O30  1  0.55033500  0.81195000  0.42261900  1
loop_
_geom_bond_atom_site_label_1
_geom_bond_atom_site_label_2
_geom_bond_distance
_geom_bond_site_symmetry_2
Na0 O25 2.298174 1_554
Na0 O26 2.298174 1_545
Na0 O16 2.353020 1_555
Na0 O17 2.353020 1_544
Na1 O8 2.362242 1_555
Na1 O15 2.363164 1_554
Na1 O16 2.722092 1_555
Na1 O0 2.941776 1_554
Na1 O26 2.977271 1_545
Na2 O9 2.362242 1_555
Na2 O14 2.363164 1_556
Na2 O17 2.722092 1_555
Na2 O1 2.941776 1_556
Na2 O25 2.977271 1_565
N0 O10 1.234652 1_555
N0 O8 1.248979 1_555
N1 O11 1.234652 1_555
N1 O9 1.248979 1_555
O0 O21 1.238778 1_555
O1 O20 1.238778 1_555
O2 W0 2.081114 1_555
O2 W2 2.186440 1_555
O3 W1 2.081114 1_555
O3 W3 2.186440 1_555
O4 W2 1.922725 1_555
O4 W5 1.974285 1_455
O5 W3 1.922725 1_555
O5 W4 1.974285 1_655
O6 W4 1.942882 1_555
O6 W0 1.944226 1_555
O7 W5 1.942882 1_555
O7 W1 1.944226 1_555
O12 O25 1.345981 1_554
O12 W0 1.831972 1_555
O13 O26 1.345981 1_556
O13 W1 1.831972 1_555
O14 W4 1.748729 1_555
O15 W5 1.748729 1_555
O16 O2 1.475433 1_555
O16 W0 2.114542 1_555
O17 O3 1.475433 1_555
O17 W1 2.114542 1_555
O18 W2 1.932654 1_555
O18 W4 1.992365 1_555
O19 W3 1.932654 1_555
O19 W5 1.992365 1_555
O22 W2 1.890911 1_555
O22 W1 2.000327 1_455
O23 W3 1.890911 1_555
O23 W0 2.000327 1_655
O24 W4 2.325653 1_555
O24 W5 2.325653 1_455
O24 W0 2.426017 1_555
O24 W1 2.426017 1_455
O24 W2 2.441078 1_555
O24 W3 2.441078 1_455
O27 W4 1.925953 1_555
O27 W1 1.965971 1_455
O28 W5 1.925953 1_555
O28 W0 1.965971 1_655
O29 W2 1.733989 1_555
O30 W3 1.733989 1_555
