# generated using pymatgen
data_RbFe3P3(O4F3)2
_symmetry_space_group_name_H-M   'P 1'
_cell_length_a   10.97553313
_cell_length_b   10.97553313
_cell_length_c   7.91007078
_cell_angle_alpha   77.90644770
_cell_angle_beta   77.90644770
_cell_angle_gamma   40.51731387
_symmetry_Int_Tables_number   1
_chemical_formula_structural   RbFe3P3(O4F3)2
_chemical_formula_sum   'Rb2 Fe6 P6 O16 F12'
_cell_volume   603.42095097
_cell_formula_units_Z   2
loop_
 _symmetry_equiv_pos_site_id
 _symmetry_equiv_pos_as_xyz
  1  'x, y, z'
loop_
 _atom_site_type_symbol
 _atom_site_label
 _atom_site_symmetry_multiplicity
 _atom_site_fract_x
 _atom_site_fract_y
 _atom_site_fract_z
 _atom_site_occupancy
  Rb  Rb0  1  0.64805500  0.35194500  0.75000000  1
  Rb  Rb1  1  0.35194500  0.64805500  0.25000000  1
  Fe  Fe0  1  0.50000000  0.00000000  0.50000000  1
  Fe  Fe1  1  0.00000000  0.50000000  0.00000000  1
  Fe  Fe2  1  0.13792800  0.18680400  0.69684500  1
  Fe  Fe3  1  0.81319600  0.86207200  0.80315500  1
  Fe  Fe4  1  0.86207200  0.81319600  0.30315500  1
  Fe  Fe5  1  0.18680400  0.13792800  0.19684500  1
  P  P0  1  0.82053600  0.52695800  0.42067100  1
  P  P1  1  0.47304200  0.17946400  0.07932900  1
  P  P2  1  0.17946400  0.47304200  0.57932900  1
  P  P3  1  0.52695800  0.82053600  0.92067100  1
  P  P4  1  0.11797300  0.88202700  0.75000000  1
  P  P5  1  0.88202700  0.11797300  0.25000000  1
  O  O0  1  0.96334600  0.92277400  0.70832900  1
  O  O1  1  0.07722600  0.03665400  0.79167100  1
  O  O2  1  0.03665400  0.07722600  0.29167100  1
  O  O3  1  0.92277400  0.96334600  0.20832900  1
  O  O4  1  0.24718800  0.29116200  0.57109000  1
  O  O5  1  0.70883800  0.75281200  0.92891000  1
  O  O6  1  0.75281200  0.70883800  0.42891000  1
  O  O7  1  0.29116200  0.24718800  0.07109000  1
  O  O8  1  0.42398200  0.95366100  0.75982700  1
  O  O9  1  0.04633900  0.57601800  0.74017300  1
  O  O10  1  0.57601800  0.04633900  0.24017300  1
  O  O11  1  0.95366100  0.42398200  0.25982700  1
  O  O12  1  0.88654300  0.39942000  0.58670400  1
  O  O13  1  0.60058000  0.11345700  0.91329600  1
  O  O14  1  0.11345700  0.60058000  0.41329600  1
  O  O15  1  0.39942000  0.88654300  0.08670400  1
  F  F0  1  0.23239800  0.71587600  0.89870200  1
  F  F1  1  0.28412400  0.76760200  0.60129800  1
  F  F2  1  0.76760200  0.28412400  0.10129800  1
  F  F3  1  0.71587600  0.23239800  0.39870200  1
  F  F4  1  0.29127400  0.04617700  0.44269100  1
  F  F5  1  0.95382300  0.70872600  0.05730900  1
  F  F6  1  0.70872600  0.95382300  0.55730900  1
  F  F7  1  0.04617700  0.29127400  0.94269100  1
  F  F8  1  0.63418400  0.59404800  0.39392300  1
  F  F9  1  0.40595200  0.36581600  0.10607700  1
  F  F10  1  0.36581600  0.40595200  0.60607700  1
  F  F11  1  0.59404800  0.63418400  0.89392300  1
loop_
_geom_bond_atom_site_label_1
_geom_bond_atom_site_label_2
_geom_bond_distance
_geom_bond_site_symmetry_2
Fe0 O8 2.160440 1_545
Fe0 O10 2.160440 1_555
Fe0 O4 2.201151 1_555
Fe0 O6 2.201151 1_545
Fe1 O11 2.160440 1_455
Fe1 O9 2.160440 1_554
Fe1 O7 2.201151 1_555
Fe1 O5 2.201151 1_454
Fe2 O12 2.045292 1_455
Fe2 O8 2.135305 1_545
Fe2 O1 2.159699 1_555
Fe2 O4 2.202396 1_555
Fe3 O13 2.045292 1_565
Fe3 O9 2.135305 1_655
Fe3 O0 2.159699 1_555
Fe3 O5 2.202396 1_555
Fe4 O14 2.045292 1_655
Fe4 O10 2.135305 1_565
Fe4 O3 2.159699 1_555
Fe4 O6 2.202396 1_555
Fe5 O15 2.045292 1_545
Fe5 O11 2.135305 1_455
Fe5 O2 2.159699 1_555
Fe5 O7 2.202396 1_555
O0 P4 1.485769 1_655
O0 Rb0 3.108180 1_565
O1 P4 1.485769 1_545
O1 Rb0 3.108180 1_455
O2 P5 1.485769 1_455
O2 Rb1 3.108180 1_545
O3 P5 1.485769 1_565
O3 Rb1 3.108180 1_655
O4 P2 1.523117 1_555
O5 P3 1.523117 1_555
O6 P0 1.523117 1_555
O7 P1 1.523117 1_555
O8 P3 1.530939 1_555
O9 P2 1.530939 1_555
O10 P1 1.530939 1_555
O11 P0 1.530939 1_555
O12 P0 1.515131 1_555
O12 Rb0 3.027607 1_555
O13 P1 1.515131 1_556
O13 Rb0 3.027607 1_555
O14 P2 1.515131 1_555
O14 Rb1 3.027607 1_555
O15 P3 1.515131 1_554
O15 Rb1 3.027607 1_555
F0 P4 1.588831 1_555
F0 Rb1 3.028766 1_556
F0 Rb0 3.188283 1_555
F1 P4 1.588831 1_555
F1 Rb1 3.028766 1_555
F1 Rb0 3.188283 1_555
F2 P5 1.588831 1_555
F2 Rb0 3.028766 1_554
F2 Rb1 3.188283 1_555
F3 P5 1.588831 1_555
F3 Rb0 3.028766 1_555
F3 Rb1 3.188283 1_555
F4 Fe0 2.069800 1_555
F4 Fe5 2.113928 1_555
F4 Fe2 2.278008 1_555
F5 Fe1 2.069800 1_655
F5 Fe4 2.113928 1_555
F5 Fe3 2.278008 1_554
F6 Fe0 2.069800 1_565
F6 Fe3 2.113928 1_555
F6 Fe4 2.278008 1_555
F7 Fe1 2.069800 1_556
F7 Fe2 2.113928 1_555
F7 Fe5 2.278008 1_556
F8 P0 1.611359 1_555
F8 Rb1 3.105874 1_555
F8 Rb0 3.383151 1_555
F9 P1 1.611359 1_555
F9 Rb1 3.105874 1_555
F9 Rb0 3.383151 1_554
F10 P2 1.611359 1_555
F10 Rb0 3.105874 1_555
F10 Rb1 3.383151 1_555
F11 P3 1.611359 1_555
F11 Rb0 3.105874 1_555
F11 Rb1 3.383151 1_556
