# generated using pymatgen
data_Cs2RbFeF6
_symmetry_space_group_name_H-M   'P 1'
_cell_length_a   6.51759386
_cell_length_b   6.51759395
_cell_length_c   6.51759383
_cell_angle_alpha   59.99999653
_cell_angle_beta   59.99999511
_cell_angle_gamma   59.99999567
_symmetry_Int_Tables_number   1
_chemical_formula_structural   Cs2RbFeF6
_chemical_formula_sum   'Cs2 Rb1 Fe1 F6'
_cell_volume   195.77031843
_cell_formula_units_Z   1
loop_
 _symmetry_equiv_pos_site_id
 _symmetry_equiv_pos_as_xyz
  1  'x, y, z'
loop_
 _atom_site_type_symbol
 _atom_site_label
 _atom_site_symmetry_multiplicity
 _atom_site_fract_x
 _atom_site_fract_y
 _atom_site_fract_z
 _atom_site_occupancy
  Cs  Cs0  1  0.25000000  0.25000000  0.25000000  1
  Cs  Cs1  1  0.75000000  0.75000000  0.75000000  1
  Rb  Rb0  1  0.50000000  0.50000000  0.50000000  1
  Fe  Fe0  1  0.00000000  -0.00000000  -0.00000000  1
  F  F0  1  0.21103359  0.78896641  0.21103359  1
  F  F1  1  0.78896641  0.78896641  0.21103359  1
  F  F2  1  0.78896641  0.21103359  0.78896641  1
  F  F3  1  0.78896641  0.21103359  0.21103359  1
  F  F4  1  0.21103359  0.78896641  0.78896641  1
  F  F5  1  0.21103359  0.21103359  0.78896641  1
loop_
_geom_bond_atom_site_label_1
_geom_bond_atom_site_label_2
_geom_bond_distance
_geom_bond_site_symmetry_2
Cs0 F2 3.278529 1_554
Cs0 F2 3.278529 1_455
Cs0 F1 3.278529 1_545
Cs0 F1 3.278529 1_455
Cs0 F4 3.278529 1_545
Cs0 F4 3.278529 1_554
Cs0 F5 3.278530 1_555
Cs0 F3 3.278530 1_555
Cs0 F0 3.278530 1_555
Cs0 F5 3.278530 1_554
Cs0 F3 3.278530 1_455
Cs0 F0 3.278530 1_545
Cs1 F0 3.278529 1_556
Cs1 F0 3.278529 1_655
Cs1 F5 3.278529 1_565
Cs1 F5 3.278529 1_655
Cs1 F3 3.278529 1_565
Cs1 F3 3.278529 1_556
Cs1 F1 3.278530 1_555
Cs1 F4 3.278530 1_555
Cs1 F2 3.278530 1_555
Cs1 F1 3.278530 1_556
Cs1 F4 3.278530 1_655
Cs1 F2 3.278530 1_565
F0 Fe0 1.945153 1_565
F0 Rb0 2.663481 1_555
F1 Fe0 1.945153 1_665
F1 Rb0 2.663481 1_555
F2 Fe0 1.945153 1_656
F2 Rb0 2.663481 1_555
F3 Fe0 1.945153 1_655
F3 Rb0 2.663481 1_555
F4 Fe0 1.945153 1_566
F4 Rb0 2.663481 1_555
F5 Fe0 1.945153 1_556
F5 Rb0 2.663481 1_555
