# generated using pymatgen
data_Mg16Al13
_symmetry_space_group_name_H-M   'P 1'
_cell_length_a   9.10336669
_cell_length_b   9.10336669
_cell_length_c   9.04638085
_cell_angle_alpha   71.14004784
_cell_angle_beta   71.14004784
_cell_angle_gamma   110.56591807
_symmetry_Int_Tables_number   1
_chemical_formula_structural   Mg16Al13
_chemical_formula_sum   'Mg16 Al13'
_cell_volume   577.88787997
_cell_formula_units_Z   1
loop_
 _symmetry_equiv_pos_site_id
 _symmetry_equiv_pos_as_xyz
  1  'x, y, z'
loop_
 _atom_site_type_symbol
 _atom_site_label
 _atom_site_symmetry_multiplicity
 _atom_site_fract_x
 _atom_site_fract_y
 _atom_site_fract_z
 _atom_site_occupancy
  Mg  Mg0  1  0.00006200  0.00006200  0.99956000  1
  Mg  Mg1  1  0.31684900  0.59988800  0.00185300  1
  Mg  Mg2  1  0.99920600  0.34581200  0.00084900  1
  Mg  Mg3  1  0.34581200  0.99920600  0.00084900  1
  Mg  Mg4  1  0.59988800  0.31684900  0.00185300  1
  Mg  Mg5  1  0.28622900  0.68193100  0.31588100  1
  Mg  Mg6  1  0.68193100  0.28622900  0.31588100  1
  Mg  Mg7  1  0.65085500  0.65085500  0.34581500  1
  Mg  Mg8  1  0.00172800  0.31727700  0.39761800  1
  Mg  Mg9  1  0.31727700  0.00172800  0.39761800  1
  Mg  Mg10  1  0.39810200  0.71494100  0.60151500  1
  Mg  Mg11  1  0.71494100  0.39810200  0.60151500  1
  Mg  Mg12  1  0.00002100  0.00002100  0.65360800  1
  Mg  Mg13  1  0.60135700  0.99991900  0.68363600  1
  Mg  Mg14  1  0.99991900  0.60135700  0.68363600  1
  Mg  Mg15  1  0.68525200  0.68525200  0.71352500  1
  Al  Al0  1  0.63293400  0.81288400  0.99971600  1
  Al  Al1  1  0.81288400  0.63293400  0.99971600  1
  Al  Al2  1  0.19017700  0.19017700  0.18118200  1
  Al  Al3  1  0.63252300  0.99987600  0.18589700  1
  Al  Al4  1  0.99987600  0.63252300  0.18589700  1
  Al  Al5  1  0.39418700  0.39418700  0.28946600  1
  Al  Al6  1  0.81638800  0.99953300  0.36735700  1
  Al  Al7  1  0.99953300  0.81638800  0.36735700  1
  Al  Al8  1  0.18366700  0.36558000  0.63059700  1
  Al  Al9  1  0.36558000  0.18366700  0.63059700  1
  Al  Al10  1  0.81948100  0.18673200  0.81363100  1
  Al  Al11  1  0.18673200  0.81948100  0.81363100  1
  Al  Al12  1  0.36660800  0.36660800  0.81974500  1
loop_
_geom_bond_atom_site_label_1
_geom_bond_atom_site_label_2
_geom_bond_distance
_geom_bond_site_symmetry_2
Mg0 Mg12 3.129855 1_555
Mg0 Mg3 3.154011 1_546
Mg0 Mg2 3.154011 1_456
Mg0 Mg7 3.169817 1_446
Mg1 Mg2 3.007148 1_455
Mg1 Mg5 3.116373 1_555
Mg1 Mg15 3.139705 1_554
Mg1 Mg8 3.144214 1_555
Mg1 Mg10 3.167279 1_554
Mg1 Mg13 3.167364 1_554
Mg2 Mg6 3.055582 1_555
Mg3 Mg4 3.007148 1_565
Mg3 Mg5 3.055582 1_555
Mg4 Mg6 3.116373 1_555
Mg4 Mg9 3.144214 1_555
Mg5 Mg8 3.067363 1_555
Mg5 Mg9 3.170270 1_565
Mg6 Mg9 3.067363 1_555
Mg6 Mg8 3.170270 1_655
Mg10 Mg7 3.059379 1_555
Mg10 Mg13 3.077002 1_555
Mg10 Mg5 3.129317 1_555
Mg10 Mg9 3.142172 1_565
Mg10 Mg14 3.144745 1_455
Mg10 Mg15 3.156694 1_555
Mg11 Mg7 3.059379 1_555
Mg11 Mg14 3.077002 1_555
Mg11 Mg6 3.129317 1_555
Mg11 Mg8 3.142172 1_655
Mg11 Mg13 3.144745 1_545
Mg11 Mg15 3.156694 1_555
Mg11 Mg4 3.167279 1_556
Mg12 Mg15 2.989735 1_445
Mg12 Mg9 3.053751 1_555
Mg12 Mg8 3.053751 1_555
Mg13 Mg3 3.050905 1_556
Mg13 Mg6 3.142048 1_565
Mg13 Mg8 3.161920 1_665
Mg13 Mg15 3.167286 1_555
Mg14 Mg2 3.050905 1_556
Mg14 Mg5 3.142048 1_655
Mg14 Mg9 3.161920 1_665
Mg14 Mg15 3.167286 1_555
Mg14 Mg4 3.167364 1_556
Mg15 Mg4 3.139705 1_556
Al0 Al1 2.693037 1_555
Al0 Al3 2.754709 1_556
Al0 Al10 2.772618 1_565
Al0 Mg1 2.838948 1_556
Al0 Mg5 2.979784 1_556
Al0 Mg13 2.980840 1_555
Al0 Mg7 3.085233 1_556
Al0 Mg12 3.108062 1_665
Al0 Mg15 3.133058 1_555
Al0 Mg0 3.172934 1_665
Al1 Al4 2.754709 1_556
Al1 Al11 2.772618 1_655
Al1 Mg4 2.838948 1_556
Al1 Mg6 2.979784 1_556
Al1 Mg14 2.980840 1_555
Al1 Mg7 3.085233 1_556
Al1 Mg12 3.108062 1_665
Al1 Mg15 3.133058 1_555
Al1 Mg0 3.172934 1_665
Al2 Al7 2.771882 1_445
Al2 Al6 2.771882 1_445
Al2 Al5 2.790500 1_555
Al2 Mg8 2.966978 1_555
Al2 Mg9 2.966978 1_555
Al2 Mg4 3.119225 1_555
Al2 Mg1 3.119225 1_555
Al2 Mg3 3.124217 1_545
Al2 Mg2 3.124217 1_455
Al2 Mg0 3.203509 1_554
Al3 Al6 2.696854 1_555
Al3 Mg9 2.899263 1_565
Al3 Mg5 2.947976 1_555
Al3 Mg4 3.000432 1_565
Al3 Mg2 3.075030 1_565
Al3 Mg7 3.126128 1_555
Al3 Mg6 3.143280 1_565
Al3 Mg10 3.168144 1_555
Al3 Mg0 3.222423 1_664
Al4 Al7 2.696854 1_555
Al4 Mg8 2.899263 1_655
Al4 Mg6 2.947976 1_555
Al4 Mg1 3.000432 1_655
Al4 Mg3 3.075030 1_655
Al4 Mg7 3.126128 1_555
Al4 Mg5 3.143280 1_655
Al4 Mg11 3.168144 1_555
Al4 Mg0 3.222423 1_664
Al5 Al8 2.927489 1_555
Al5 Al9 2.927489 1_555
Al5 Mg7 2.980463 1_555
Al5 Mg4 3.119689 1_555
Al5 Mg1 3.119689 1_555
Al5 Mg8 3.122735 1_555
Al5 Mg9 3.122735 1_555
Al5 Mg5 3.153715 1_555
Al5 Mg6 3.153715 1_555
Al6 Al7 2.740852 1_555
Al6 Mg13 2.899751 1_555
Al6 Mg8 2.944520 1_665
Al6 Mg15 2.967885 1_555
Al6 Mg7 3.100518 1_555
Al6 Mg2 3.112774 1_565
Al6 Mg10 3.163039 1_555
Al6 Mg0 3.202107 1_664
Al6 Mg6 3.217729 1_565
Al7 Mg14 2.899751 1_555
Al7 Mg9 2.944520 1_665
Al7 Mg15 2.967885 1_555
Al7 Mg7 3.100518 1_555
Al7 Mg3 3.112774 1_655
Al7 Mg11 3.163039 1_555
Al7 Mg0 3.202107 1_664
Al7 Mg5 3.217729 1_655
Al8 Al9 2.722414 1_555
Al8 Mg5 2.891805 1_555
Al8 Mg10 2.959693 1_555
Al8 Mg12 3.054677 1_555
Al8 Mg8 3.118156 1_555
Al8 Mg2 3.135705 1_456
Al8 Mg14 3.210055 1_455
Al8 Mg0 3.211198 1_555
Al9 Mg6 2.891805 1_555
Al9 Mg11 2.959693 1_555
Al9 Mg12 3.054677 1_555
Al9 Mg9 3.118156 1_555
Al9 Mg3 3.135705 1_546
Al9 Mg13 3.210055 1_545
Al9 Mg0 3.211198 1_555
Al10 Al8 2.701773 1_655
Al10 Al3 2.772761 1_546
Al10 Mg11 2.893145 1_555
Al10 Mg13 2.940762 1_545
Al10 Mg4 3.010880 1_556
Al10 Mg2 3.058589 1_556
Al10 Mg12 3.114638 1_655
Al10 Mg14 3.139004 1_555
Al10 Mg8 3.164603 1_655
Al10 Mg0 3.212714 1_655
Al11 Al9 2.701773 1_565
Al11 Al4 2.772761 1_456
Al11 Mg10 2.893145 1_555
Al11 Mg14 2.940762 1_455
Al11 Mg1 3.010880 1_556
Al11 Mg3 3.058589 1_556
Al11 Mg12 3.114638 1_565
Al11 Mg13 3.139004 1_555
Al11 Mg9 3.164603 1_565
Al11 Mg0 3.212714 1_565
Al12 Al2 2.692108 1_556
Al12 Al8 2.746486 1_555
Al12 Al9 2.746486 1_555
Al12 Mg15 2.869871 1_555
Al12 Mg10 2.997159 1_555
Al12 Mg11 2.997159 1_555
Al12 Mg2 3.117422 1_456
Al12 Mg3 3.117422 1_546
Al12 Mg4 3.143916 1_556
Al12 Mg1 3.143916 1_556
Al12 Mg0 3.173892 1_555
