# generated using pymatgen
data_Y3Ge5
_symmetry_space_group_name_H-M   'P 1'
_cell_length_a   5.76884437
_cell_length_b   7.45087984
_cell_length_c   9.15105299
_cell_angle_alpha   82.99117318
_cell_angle_beta   71.62705468
_cell_angle_gamma   67.22427773
_symmetry_Int_Tables_number   1
_chemical_formula_structural   Y3Ge5
_chemical_formula_sum   'Y6 Ge10'
_cell_volume   344.18255178
_cell_formula_units_Z   2
loop_
 _symmetry_equiv_pos_site_id
 _symmetry_equiv_pos_as_xyz
  1  'x, y, z'
loop_
 _atom_site_type_symbol
 _atom_site_label
 _atom_site_symmetry_multiplicity
 _atom_site_fract_x
 _atom_site_fract_y
 _atom_site_fract_z
 _atom_site_occupancy
  Y  Y0  1  0.74597300  0.50805200  0.50000000  1
  Y  Y1  1  0.49597300  0.00805200  -0.00000000  1
  Y  Y2  1  0.15654932  0.99325523  0.66576375  1
  Y  Y3  1  0.85019545  0.99325523  0.33423625  1
  Y  Y4  1  0.43443070  0.49325523  0.16576375  1
  Y  Y5  1  0.07231507  0.49325523  0.83423625  1
  Ge  Ge0  1  0.40570818  0.69740054  0.87083266  1
  Ge  Ge1  1  0.89689227  0.69740054  0.12916734  1
  Ge  Ge2  1  0.27605762  0.19740054  0.37083266  1
  Ge  Ge3  1  0.52654084  0.19740054  0.62916734  1
  Ge  Ge4  1  0.66846254  0.33564669  0.82529672  1
  Ge  Ge5  1  0.99589077  0.33564669  0.17470328  1
  Ge  Ge6  1  0.93842846  0.12314508  0.00000000  1
  Ge  Ge7  1  0.18842846  0.62314508  0.50000000  1
  Ge  Ge8  1  0.74375926  0.83564669  0.67470328  1
  Ge  Ge9  1  0.42059505  0.83564669  0.32529672  1
loop_
_geom_bond_atom_site_label_1
_geom_bond_atom_site_label_2
_geom_bond_distance
_geom_bond_site_symmetry_2
Ge0 Ge4 2.539483 1_555
Ge0 Ge8 2.642547 1_555
Ge0 Y2 2.946958 1_555
Ge0 Y4 2.951309 1_556
Ge0 Y5 2.986675 1_555
Ge0 Y1 3.002450 1_566
Ge0 Y5 3.463764 1_655
Ge1 Ge5 2.539484 1_555
Ge1 Ge9 2.642548 1_555
Ge1 Y3 2.946956 1_555
Ge1 Y5 2.951310 1_654
Ge1 Y4 2.986675 1_655
Ge1 Y1 3.002460 1_565
Ge1 Y4 3.463764 1_555
Ge2 Ge9 2.539481 1_545
Ge2 Ge5 2.642543 1_455
Ge2 Y4 2.946958 1_555
Ge2 Y2 2.951309 1_545
Ge2 Y3 2.986691 1_545
Ge2 Y0 3.002454 1_455
Ge2 Y3 3.463748 1_445
Ge3 Ge8 2.539483 1_545
Ge3 Ge4 2.642547 1_555
Ge3 Y5 2.946954 1_555
Ge3 Y3 2.951311 1_545
Ge3 Y2 2.986685 1_545
Ge3 Y0 3.002450 1_555
Ge3 Y2 3.463753 1_645
Ge4 Ge6 2.555571 1_556
Ge4 Y5 3.012536 1_655
Ge4 Y2 3.053463 1_645
Ge4 Y0 3.063308 1_555
Ge4 Y1 3.070704 1_556
Ge4 Y4 3.150015 1_556
Ge4 Y5 3.151543 1_555
Ge5 Ge6 2.555565 1_555
Ge5 Y4 3.012531 1_555
Ge5 Y3 3.053463 1_545
Ge5 Y0 3.063308 1_555
Ge5 Y1 3.070700 1_655
Ge5 Y5 3.150015 1_654
Ge5 Y4 3.151548 1_655
Ge6 Y1 2.990819 1_655
Ge6 Y1 2.990841 1_555
Ge6 Y3 3.037827 1_545
Ge6 Y2 3.037828 1_644
Ge6 Y5 3.223637 1_654
Ge6 Y4 3.223640 1_555
Ge7 Ge9 2.555568 1_555
Ge7 Ge8 2.555572 1_455
Ge7 Y0 2.990819 1_555
Ge7 Y0 2.990841 1_455
Ge7 Y5 3.037827 1_555
Ge7 Y4 3.037827 1_555
Ge7 Y2 3.223632 1_555
Ge7 Y3 3.223637 1_455
Ge8 Y2 3.012525 1_655
Ge8 Y5 3.053468 1_655
Ge8 Y1 3.063308 1_566
Ge8 Y0 3.070704 1_555
Ge8 Y3 3.150015 1_555
Ge8 Y2 3.151553 1_555
Ge9 Y3 3.012531 1_455
Ge9 Y4 3.053468 1_555
Ge9 Y1 3.063308 1_565
Ge9 Y0 3.070696 1_555
Ge9 Y2 3.150016 1_555
Ge9 Y3 3.151548 1_555
