# generated using pymatgen
data_Na3CaAl3Si3SO16
_symmetry_space_group_name_H-M   'P 1'
_cell_length_a   9.08804178
_cell_length_b   9.08804178
_cell_length_c   9.08804285
_cell_angle_alpha   89.81956071
_cell_angle_beta   89.81956071
_cell_angle_gamma   89.81955906
_symmetry_Int_Tables_number   1
_chemical_formula_structural   Na3CaAl3Si3SO16
_chemical_formula_sum   'Na6 Ca2 Al6 Si6 S2 O32'
_cell_volume   750.59306599
_cell_formula_units_Z   2
loop_
 _symmetry_equiv_pos_site_id
 _symmetry_equiv_pos_as_xyz
  1  'x, y, z'
loop_
 _atom_site_type_symbol
 _atom_site_label
 _atom_site_symmetry_multiplicity
 _atom_site_fract_x
 _atom_site_fract_y
 _atom_site_fract_z
 _atom_site_occupancy
  Na  Na0  1  0.79368500  0.20329600  0.20539900  1
  Na  Na1  1  0.20329600  0.20539900  0.79368500  1
  Na  Na2  1  0.70329600  0.29368500  0.70539900  1
  Na  Na3  1  0.70539900  0.70329600  0.29368500  1
  Na  Na4  1  0.29368500  0.70539900  0.70329600  1
  Na  Na5  1  0.20539900  0.79368500  0.20329600  1
  Ca  Ca0  1  0.32012600  0.32012600  0.32012600  1
  Ca  Ca1  1  0.82012600  0.82012600  0.82012600  1
  Al  Al0  1  0.99743100  0.25143700  0.50144100  1
  Al  Al1  1  0.75143700  0.49743100  0.00144100  1
  Al  Al2  1  0.25143700  0.50144100  0.99743100  1
  Al  Al3  1  0.00144100  0.75143700  0.49743100  1
  Al  Al4  1  0.50144100  0.99743100  0.25143700  1
  Al  Al5  1  0.49743100  0.00144100  0.75143700  1
  Si  Si0  1  0.24963300  0.00223300  0.50003600  1
  Si  Si1  1  0.50003600  0.24963300  0.00223300  1
  Si  Si2  1  0.00003600  0.50223300  0.74963300  1
  Si  Si3  1  0.00223300  0.50003600  0.24963300  1
  Si  Si4  1  0.50223300  0.74963300  0.00003600  1
  Si  Si5  1  0.74963300  0.00003600  0.50223300  1
  S  S0  1  0.99440800  0.99440800  0.99440800  1
  S  S1  1  0.49440800  0.49440800  0.49440800  1
  O  O0  1  0.35076300  0.05794000  0.35926700  1
  O  O1  1  0.65331800  0.04687000  0.64730500  1
  O  O2  1  0.08758300  0.08758300  0.08758300  1
  O  O3  1  0.89802600  0.08366500  0.89279000  1
  O  O4  1  0.84846000  0.14118700  0.45179200  1
  O  O5  1  0.15331800  0.14730500  0.54687000  1
  O  O6  1  0.54687000  0.15331800  0.14730500  1
  O  O7  1  0.44798400  0.15112900  0.86279600  1
  O  O8  1  0.35926700  0.35076300  0.05794000  1
  O  O9  1  0.64118700  0.34846000  0.95179200  1
  O  O10  1  0.05794000  0.35926700  0.35076300  1
  O  O11  1  0.94798400  0.36279600  0.65112900  1
  O  O12  1  0.58366500  0.39802600  0.39279000  1
  O  O13  1  0.39802600  0.39279000  0.58366500  1
  O  O14  1  0.86279600  0.44798400  0.15112900  1
  O  O15  1  0.14118700  0.45179200  0.84846000  1
  O  O16  1  0.14730500  0.54687000  0.15331800  1
  O  O17  1  0.85926700  0.55794000  0.85076300  1
  O  O18  1  0.39279000  0.58366500  0.39802600  1
  O  O19  1  0.58758300  0.58758300  0.58758300  1
  O  O20  1  0.95179200  0.64118700  0.34846000  1
  O  O21  1  0.04687000  0.64730500  0.65331800  1
  O  O22  1  0.64730500  0.65331800  0.04687000  1
  O  O23  1  0.36279600  0.65112900  0.94798400  1
  O  O24  1  0.45179200  0.84846000  0.14118700  1
  O  O25  1  0.55794000  0.85076300  0.85926700  1
  O  O26  1  0.85076300  0.85926700  0.55794000  1
  O  O27  1  0.15112900  0.86279600  0.44798400  1
  O  O28  1  0.89279000  0.89802600  0.08366500  1
  O  O29  1  0.08366500  0.89279000  0.89802600  1
  O  O30  1  0.65112900  0.94798400  0.36279600  1
  O  O31  1  0.34846000  0.95179200  0.64118700  1
loop_
_geom_bond_atom_site_label_1
_geom_bond_atom_site_label_2
_geom_bond_distance
_geom_bond_site_symmetry_2
Na0 O6 2.351971 1_555
Na0 O4 2.361747 1_555
Na0 O14 2.362769 1_555
Na1 O5 2.351972 1_555
Na1 O15 2.361746 1_555
Na1 O7 2.362769 1_555
Na2 O1 2.351971 1_555
Na2 O9 2.361747 1_555
Na2 O11 2.362769 1_555
Na3 O22 2.351972 1_555
Na3 O20 2.361746 1_555
Na3 O30 2.362769 1_555
Na4 O21 2.351971 1_555
Na4 O31 2.361746 1_555
Na4 O23 2.362769 1_555
Na5 O16 2.351971 1_555
Na5 O24 2.361746 1_555
Na5 O27 2.362769 1_555
Ca0 O10 2.423365 1_555
Ca0 O0 2.423365 1_555
Ca0 O8 2.423365 1_555
Ca0 O12 2.587888 1_555
Ca0 O18 2.587888 1_555
Ca0 O13 2.587889 1_555
Ca1 O17 2.423365 1_555
Ca1 O25 2.423365 1_555
Ca1 O26 2.423365 1_555
Ca1 O3 2.587888 1_565
Ca1 O29 2.587888 1_655
Ca1 O28 2.587889 1_556
Al0 O4 1.748048 1_555
Al0 O5 1.750966 1_655
Al0 O11 1.754628 1_555
Al0 O10 1.768642 1_655
Al1 O9 1.748048 1_554
Al1 O22 1.750966 1_555
Al1 O14 1.754628 1_555
Al1 O17 1.768642 1_554
Al2 O15 1.748048 1_555
Al2 O16 1.750966 1_556
Al2 O23 1.754628 1_555
Al2 O8 1.768642 1_556
Al3 O20 1.748048 1_455
Al3 O21 1.750966 1_555
Al3 O27 1.754628 1_555
Al3 O26 1.768642 1_455
Al4 O24 1.748048 1_555
Al4 O6 1.750966 1_565
Al4 O30 1.754628 1_555
Al4 O0 1.768642 1_565
Al5 O31 1.748048 1_545
Al5 O1 1.750966 1_555
Al5 O7 1.754628 1_555
Al5 O25 1.768642 1_545
O0 Si0 1.651997 1_555
O1 Si5 1.636914 1_555
O2 S0 1.471275 1_444
O3 S0 1.507982 1_545
O4 Si5 1.631963 1_555
O5 Si0 1.636914 1_555
O6 Si1 1.636914 1_555
O7 Si1 1.626217 1_556
O8 Si1 1.651997 1_555
O9 Si1 1.631963 1_556
O10 Si3 1.651997 1_555
O11 Si2 1.626217 1_655
O12 S1 1.507982 1_555
O13 S1 1.507982 1_555
O14 Si3 1.626217 1_655
O15 Si2 1.631963 1_555
O16 Si3 1.636914 1_555
O17 Si2 1.651997 1_655
O18 S1 1.507982 1_555
O19 S1 1.471275 1_555
O20 Si3 1.631963 1_655
O21 Si2 1.636914 1_555
O22 Si4 1.636914 1_555
O23 Si4 1.626217 1_556
O24 Si4 1.631963 1_555
O25 Si4 1.651997 1_556
O26 Si5 1.651997 1_565
O27 Si0 1.626217 1_565
O28 S0 1.507982 1_554
O29 S0 1.507982 1_455
O30 Si5 1.626217 1_565
O31 Si0 1.631963 1_565
