# generated using pymatgen
data_K3NaCe(CO5)3
_symmetry_space_group_name_H-M   'P 1'
_cell_length_a   8.29341200
_cell_length_b   9.67550766
_cell_length_c   10.36028081
_cell_angle_alpha   99.50385557
_cell_angle_beta   99.03873789
_cell_angle_gamma   109.22866029
_symmetry_Int_Tables_number   1
_chemical_formula_structural   K3NaCe(CO5)3
_chemical_formula_sum   'K6 Na2 Ce2 C6 O30'
_cell_volume   753.95964815
_cell_formula_units_Z   2
loop_
 _symmetry_equiv_pos_site_id
 _symmetry_equiv_pos_as_xyz
  1  'x, y, z'
loop_
 _atom_site_type_symbol
 _atom_site_label
 _atom_site_symmetry_multiplicity
 _atom_site_fract_x
 _atom_site_fract_y
 _atom_site_fract_z
 _atom_site_occupancy
  K  K0  1  0.72349200  0.77615200  0.02113300  1
  K  K1  1  0.27650800  0.22384800  0.97886700  1
  K  K2  1  0.60244900  0.99479600  0.34927700  1
  K  K3  1  0.39755100  0.00520400  0.65072300  1
  K  K4  1  0.82735100  0.67028100  0.59388600  1
  K  K5  1  0.17264900  0.32971900  0.40611400  1
  Na  Na0  1  0.23632000  0.61017200  0.73693400  1
  Na  Na1  1  0.76368000  0.38982800  0.26306600  1
  Ce  Ce0  1  0.17952600  0.64386500  0.16051900  1
  Ce  Ce1  1  0.82047400  0.35613500  0.83948100  1
  C  C0  1  0.48180300  0.57191800  0.23047400  1
  C  C1  1  0.51819700  0.42808200  0.76952600  1
  C  C2  1  0.18165500  0.94519900  0.15833700  1
  C  C3  1  0.81834500  0.05480100  0.84166300  1
  C  C4  1  0.17663100  0.69105300  0.43711000  1
  C  C5  1  0.82336900  0.30894700  0.56289000  1
  O  O0  1  0.93122000  0.39150800  0.07902700  1
  O  O1  1  0.06878000  0.60849200  0.92097300  1
  O  O2  1  0.85714700  0.50067800  0.06462400  1
  O  O3  1  0.14285300  0.49932200  0.93537600  1
  O  O4  1  0.32105700  0.47680000  0.21994500  1
  O  O5  1  0.67894300  0.52320000  0.78005500  1
  O  O6  1  0.48714700  0.69255100  0.18385700  1
  O  O7  1  0.51285300  0.30744900  0.81614300  1
  O  O8  1  0.61706000  0.54978500  0.28021600  1
  O  O9  1  0.38294000  0.45021500  0.71978400  1
  O  O10  1  0.32018400  0.91516200  0.13887500  1
  O  O11  1  0.67981600  0.08483800  0.86112500  1
  O  O12  1  0.18274300  0.07973000  0.17494500  1
  O  O13  1  0.81725700  0.92027000  0.82505500  1
  O  O14  1  0.04675100  0.83010800  0.15987800  1
  O  O15  1  0.95324900  0.16989200  0.84012200  1
  O  O16  1  0.29905000  0.77954300  0.39022200  1
  O  O17  1  0.70095000  0.22045700  0.60977800  1
  O  O18  1  0.05513400  0.57874400  0.34522300  1
  O  O19  1  0.94486600  0.42125600  0.65477700  1
  O  O20  1  0.17500200  0.71188900  0.56060600  1
  O  O21  1  0.82499800  0.28811100  0.43939400  1
  O  O22  1  0.63242400  0.84738800  0.57512200  1
  O  O23  1  0.36757600  0.15261200  0.42487800  1
  O  O24  1  0.94892500  0.93662300  0.46710100  1
  O  O25  1  0.05107500  0.06337700  0.53289900  1
  O  O26  1  0.07824400  0.93013200  0.79060700  1
  O  O27  1  0.92175600  0.06986800  0.20939300  1
  O  O28  1  0.52765300  0.13494000  0.12485900  1
  O  O29  1  0.47234700  0.86506000  0.87514100  1
loop_
_geom_bond_atom_site_label_1
_geom_bond_atom_site_label_2
_geom_bond_distance
_geom_bond_site_symmetry_2
K0 O14 2.673122 1_655
K0 O13 2.719066 1_554
K0 O6 2.789754 1_555
K0 O29 2.825942 1_554
K0 O27 2.944148 1_565
K0 O5 3.075789 1_554
K0 O2 3.274365 1_555
K1 O15 2.673122 1_455
K1 O12 2.719066 1_556
K1 O7 2.789754 1_555
K1 O28 2.825942 1_556
K1 O26 2.944148 1_545
K1 O4 3.075789 1_556
K1 O3 3.274365 1_555
K2 O21 2.732352 1_565
K2 O10 2.734827 1_555
K2 O16 2.832698 1_555
K2 O6 2.896822 1_555
K2 O22 2.953562 1_555
K2 O28 2.961617 1_565
K2 O23 2.963600 1_565
K2 O17 2.984105 1_565
K2 O27 3.150723 1_565
K2 O24 3.202155 1_555
K3 O20 2.732352 1_545
K3 O11 2.734827 1_555
K3 O17 2.832698 1_555
K3 O7 2.896822 1_555
K3 O23 2.953562 1_555
K3 O29 2.961617 1_545
K3 O22 2.963600 1_545
K3 O16 2.984105 1_545
K3 O26 3.150723 1_545
K3 O25 3.202155 1_555
K4 O22 2.724627 1_555
K4 O5 2.785460 1_555
K4 O20 2.861383 1_655
K4 O26 2.886880 1_655
K4 O19 3.001455 1_555
K4 O24 3.034032 1_555
K4 O13 3.142731 1_555
K4 O8 3.254270 1_555
K5 O23 2.724627 1_555
K5 O4 2.785460 1_555
K5 O21 2.861383 1_455
K5 O27 2.886880 1_455
K5 O18 3.001455 1_555
K5 O25 3.034032 1_555
K5 O12 3.142731 1_555
K5 O9 3.254270 1_555
Na0 O9 2.263207 1_555
Na0 O20 2.279448 1_555
Na0 O19 2.416147 1_455
Na0 O1 2.528673 1_555
Na0 O3 2.580555 1_555
Na0 O29 2.595652 1_555
Na1 O8 2.263207 1_555
Na1 O21 2.279448 1_555
Na1 O18 2.416147 1_655
Na1 O0 2.528673 1_555
Na1 O2 2.580555 1_555
Na1 O28 2.595652 1_555
Ce0 O18 2.390265 1_555
Ce0 O4 2.391857 1_555
Ce0 O16 2.395688 1_555
Ce0 O6 2.401271 1_555
Ce0 O14 2.401757 1_555
Ce0 O3 2.430807 1_554
Ce0 O1 2.432307 1_554
Ce0 O2 2.515102 1_455
Ce0 O0 2.525148 1_455
Ce0 O10 2.561448 1_555
Ce1 O19 2.390265 1_555
Ce1 O5 2.391857 1_555
Ce1 O17 2.395688 1_555
Ce1 O7 2.401271 1_555
Ce1 O15 2.401757 1_555
Ce1 O2 2.430807 1_556
Ce1 O0 2.432307 1_556
Ce1 O3 2.515102 1_655
Ce1 O1 2.525148 1_655
Ce1 O11 2.561448 1_555
C0 O8 1.258084 1_555
C0 O4 1.322552 1_555
C0 O6 1.325272 1_555
C1 O9 1.258084 1_555
C1 O5 1.322552 1_555
C1 O7 1.325272 1_555
C2 O12 1.281332 1_565
C2 O14 1.297259 1_555
C2 O10 1.310877 1_555
C3 O13 1.281332 1_545
C3 O15 1.297259 1_555
C3 O11 1.310877 1_555
C4 O20 1.264861 1_555
C4 O16 1.311316 1_555
C4 O18 1.318391 1_555
C5 O21 1.264861 1_555
C5 O17 1.311316 1_555
C5 O19 1.318391 1_555
O0 O2 1.402150 1_555
O1 O3 1.402150 1_555
O24 O25 1.242815 1_665
