# generated using pymatgen
data_Dy2Ge5Ir3
_symmetry_space_group_name_H-M   'P 1'
_cell_length_a   8.39524834
_cell_length_b   8.39524834
_cell_length_c   8.39524834
_cell_angle_alpha   137.88995817
_cell_angle_beta   104.51111866
_cell_angle_gamma   90.43395070
_symmetry_Int_Tables_number   1
_chemical_formula_structural   Dy2Ge5Ir3
_chemical_formula_sum   'Dy4 Ge10 Ir6'
_cell_volume   366.65698527
_cell_formula_units_Z   2
loop_
 _symmetry_equiv_pos_site_id
 _symmetry_equiv_pos_as_xyz
  1  'x, y, z'
loop_
 _atom_site_type_symbol
 _atom_site_label
 _atom_site_symmetry_multiplicity
 _atom_site_fract_x
 _atom_site_fract_y
 _atom_site_fract_z
 _atom_site_occupancy
  Dy  Dy0  1  0.86088900  0.63445300  0.22643600  1
  Dy  Dy1  1  0.13911100  0.36554700  0.77356400  1
  Dy  Dy2  1  0.40801600  0.13445300  0.27356400  1
  Dy  Dy3  1  0.59198400  0.86554700  0.72643600  1
  Ge  Ge0  1  0.50000000  0.75000000  0.25000000  1
  Ge  Ge1  1  0.50000000  0.25000000  0.75000000  1
  Ge  Ge2  1  0.22348300  0.97348300  0.75000000  1
  Ge  Ge3  1  0.77651700  0.52651700  0.75000000  1
  Ge  Ge4  1  0.77651700  0.02651700  0.25000000  1
  Ge  Ge5  1  0.22348300  0.47348300  0.25000000  1
  Ge  Ge6  1  0.06396700  0.90183000  0.16213600  1
  Ge  Ge7  1  0.93603300  0.09817000  0.83786400  1
  Ge  Ge8  1  0.73969400  0.40183000  0.33786400  1
  Ge  Ge9  1  0.26030600  0.59817000  0.66213600  1
  Ir  Ir0  1  0.00000000  0.75000000  0.75000000  1
  Ir  Ir1  1  0.00000000  0.25000000  0.25000000  1
  Ir  Ir2  1  0.24685900  0.85793500  0.38892400  1
  Ir  Ir3  1  0.75314100  0.14206500  0.61107600  1
  Ir  Ir4  1  0.46901000  0.35793500  0.11107600  1
  Ir  Ir5  1  0.53099000  0.64206500  0.88892400  1
loop_
_geom_bond_atom_site_label_1
_geom_bond_atom_site_label_2
_geom_bond_distance
_geom_bond_site_symmetry_2
Dy0 Ge8 2.980224 1_555
Dy0 Ir2 3.126657 1_655
Dy0 Ge0 3.196824 1_555
Dy0 Ge1 3.196824 1_554
Dy0 Ge6 3.230758 1_655
Dy0 Ir3 3.242051 1_554
Dy0 Ir3 3.242051 1_565
Dy0 Ge4 3.242545 1_565
Dy0 Ge3 3.242545 1_554
Dy0 Ge7 3.254647 1_554
Dy0 Ge7 3.254652 1_565
Dy0 Ge2 3.359896 1_655
Dy0 Ge5 3.359896 1_655
Dy0 Ir5 3.470160 1_554
Dy0 Ir4 3.478852 1_555
Dy0 Ir0 3.564967 1_655
Dy0 Ir1 3.564967 1_655
Dy1 Ge9 2.980224 1_555
Dy1 Ir3 3.126657 1_455
Dy1 Ge0 3.196824 1_556
Dy1 Ge1 3.196824 1_555
Dy1 Ge7 3.230758 1_455
Dy1 Ir2 3.242051 1_545
Dy1 Ir2 3.242051 1_556
Dy1 Ge5 3.242545 1_556
Dy1 Ge2 3.242545 1_545
Dy1 Ge6 3.254647 1_556
Dy1 Ge6 3.254652 1_545
Dy1 Ge3 3.359896 1_455
Dy1 Ge4 3.359896 1_455
Dy1 Ir4 3.470160 1_556
Dy1 Ir5 3.478852 1_555
Dy1 Ir1 3.564967 1_555
Dy1 Ir0 3.564967 1_555
Dy2 Ge6 2.980209 1_545
Dy2 Ir4 3.126657 1_555
Dy2 Ge1 3.196823 1_555
Dy2 Ge0 3.196826 1_545
Dy2 Ge8 3.230760 1_555
Dy2 Ir5 3.242050 1_555
Dy2 Ir5 3.242061 1_544
Dy2 Ge3 3.242550 1_555
Dy2 Ge4 3.242553 1_555
Dy2 Ge9 3.254645 1_555
Dy2 Ge9 3.254651 1_544
Dy2 Ge5 3.359892 1_555
Dy2 Ge2 3.359895 1_544
Dy2 Ir3 3.470170 1_555
Dy2 Ir2 3.478841 1_545
Dy2 Ir1 3.564959 1_555
Dy2 Ir0 3.564961 1_544
Dy3 Ge7 2.980209 1_565
Dy3 Ir5 3.126657 1_555
Dy3 Ge0 3.196823 1_555
Dy3 Ge1 3.196826 1_565
Dy3 Ge9 3.230760 1_555
Dy3 Ir4 3.242050 1_555
Dy3 Ir4 3.242061 1_566
Dy3 Ge5 3.242550 1_555
Dy3 Ge2 3.242553 1_555
Dy3 Ge8 3.254645 1_555
Dy3 Ge8 3.254651 1_566
Dy3 Ge3 3.359892 1_555
Dy3 Ge4 3.359895 1_566
Dy3 Ir2 3.470170 1_555
Dy3 Ir3 3.478841 1_565
Dy3 Ir0 3.564959 1_655
Dy3 Ir1 3.564961 1_666
Ge0 Ir4 2.530018 1_555
Ge0 Ir2 2.530018 1_555
Ge0 Ir3 2.530018 1_565
Ge0 Ir5 2.530022 1_554
Ge1 Ir5 2.530018 1_555
Ge1 Ir3 2.530018 1_555
Ge1 Ir2 2.530018 1_545
Ge1 Ir4 2.530022 1_556
Ge2 Ir4 2.471129 1_566
Ge2 Ir2 2.471133 1_555
Ge2 Ir0 2.643274 1_555
Ge2 Ge9 2.692229 1_555
Ge2 Ge7 2.692237 1_465
Ge3 Ir5 2.471125 1_555
Ge3 Ir3 2.471133 1_555
Ge3 Ir0 2.643274 1_655
Ge3 Ge8 2.692229 1_555
Ge3 Ge6 2.692234 1_656
Ge4 Ir5 2.471129 1_544
Ge4 Ir3 2.471133 1_555
Ge4 Ir1 2.643274 1_655
Ge4 Ge8 2.692229 1_555
Ge4 Ge6 2.692237 1_645
Ge5 Ir4 2.471125 1_555
Ge5 Ir2 2.471133 1_555
Ge5 Ir1 2.643274 1_555
Ge5 Ge9 2.692229 1_555
Ge5 Ge7 2.692234 1_454
Ge6 Ir2 2.388074 1_555
Ge6 Ir0 2.529724 1_554
Ge6 Ir1 2.529728 1_565
Ge7 Ir3 2.388074 1_555
Ge7 Ir1 2.529724 1_656
Ge7 Ir0 2.529728 1_645
Ge8 Ir4 2.388084 1_555
Ge8 Ir0 2.529725 1_655
Ge8 Ir1 2.529725 1_655
Ge9 Ir5 2.388084 1_555
Ge9 Ir1 2.529725 1_555
Ge9 Ir0 2.529725 1_555
