# generated using pymatgen
data_Zn4CdSe5
_symmetry_space_group_name_H-M   'P 1'
_cell_length_a   4.11792826
_cell_length_b   14.94453966
_cell_length_c   4.11792826
_cell_angle_alpha   82.08096125
_cell_angle_beta   90.00000000
_cell_angle_gamma   82.08096125
_symmetry_Int_Tables_number   1
_chemical_formula_structural   Zn4CdSe5
_chemical_formula_sum   'Zn4 Cd1 Se5'
_cell_volume   248.56269259
_cell_formula_units_Z   1
loop_
 _symmetry_equiv_pos_site_id
 _symmetry_equiv_pos_as_xyz
  1  'x, y, z'
loop_
 _atom_site_type_symbol
 _atom_site_label
 _atom_site_symmetry_multiplicity
 _atom_site_fract_x
 _atom_site_fract_y
 _atom_site_fract_z
 _atom_site_occupancy
  Zn  Zn0  1  0.99545100  0.00909900  0.99545100  1
  Zn  Zn1  1  0.39919300  0.20161400  0.39919300  1
  Zn  Zn2  1  0.80080700  0.39838600  0.80080700  1
  Zn  Zn3  1  0.20454900  0.59090100  0.20454900  1
  Cd  Cd0  1  0.60000000  0.80000000  0.60000000  1
  Se  Se0  1  0.35000000  0.30000000  0.85000000  1
  Se  Se1  1  0.75242400  0.49515200  0.25242400  1
  Se  Se2  1  0.15692800  0.68614400  0.65692800  1
  Se  Se3  1  0.54307200  0.91385600  0.04307200  1
  Se  Se4  1  0.94757600  0.10484800  0.44757600  1
loop_
_geom_bond_atom_site_label_1
_geom_bond_atom_site_label_2
_geom_bond_distance
_geom_bond_site_symmetry_2
Cd0 Se2 2.650398 1_655
Cd0 Se3 2.650398 1_556
Cd0 Se3 2.650398 1_555
Cd0 Se2 2.650398 1_555
Se0 Zn2 2.513790 1_555
Se0 Zn2 2.513790 1_455
Se0 Zn1 2.513790 1_556
Se0 Zn1 2.513790 1_555
Se1 Zn3 2.491814 1_655
Se1 Zn3 2.491818 1_555
Se1 Zn2 2.500243 1_555
Se1 Zn2 2.500243 1_554
Se2 Zn3 2.487644 1_556
Se2 Zn3 2.487648 1_555
Se3 Zn0 2.487644 1_464
Se3 Zn0 2.487648 1_564
Se4 Zn0 2.491814 1_554
Se4 Zn0 2.491818 1_555
Se4 Zn1 2.500243 1_655
Se4 Zn1 2.500243 1_555
