# generated using pymatgen
data_Li4Y3VO8
_symmetry_space_group_name_H-M   'P 1'
_cell_length_a   5.87913434
_cell_length_b   8.60922007
_cell_length_c   8.50801103
_cell_angle_alpha   86.79607303
_cell_angle_beta   108.38609623
_cell_angle_gamma   72.96952760
_symmetry_Int_Tables_number   1
_chemical_formula_structural   Li4Y3VO8
_chemical_formula_sum   'Li8 Y6 V2 O16'
_cell_volume   385.47658073
_cell_formula_units_Z   2
loop_
 _symmetry_equiv_pos_site_id
 _symmetry_equiv_pos_as_xyz
  1  'x, y, z'
loop_
 _atom_site_type_symbol
 _atom_site_label
 _atom_site_symmetry_multiplicity
 _atom_site_fract_x
 _atom_site_fract_y
 _atom_site_fract_z
 _atom_site_occupancy
  Li  Li0  1  0.00968500  0.25699300  0.24613100  1
  Li  Li1  1  0.00874300  0.75683900  0.74627400  1
  Li  Li2  1  0.50552700  0.25396900  0.74632900  1
  Li  Li3  1  0.50374200  0.75329300  0.24718800  1
  Li  Li4  1  0.48193000  0.36708300  0.37876800  1
  Li  Li5  1  0.47831000  0.86622900  0.87923500  1
  Li  Li6  1  0.98691800  0.36544700  0.88867600  1
  Li  Li7  1  0.99033200  0.86741800  0.38680200  1
  Y  Y0  1  0.49972500  0.99920300  0.50054500  1
  Y  Y1  1  0.49858500  0.49892800  0.00061300  1
  Y  Y2  1  0.00407800  0.13238400  0.62551300  1
  Y  Y3  1  0.00301500  0.63202500  0.12574400  1
  Y  Y4  1  0.50550800  0.12280900  0.11966500  1
  Y  Y5  1  0.50524200  0.62306200  0.61996300  1
  V  V0  1  0.99904000  0.50073900  0.50021800  1
  V  V1  1  0.99884100  0.00018600  0.99963600  1
  O  O0  1  0.72514000  0.11123200  0.38802600  1
  O  O1  1  0.72369400  0.61134600  0.88848800  1
  O  O2  1  0.27090500  0.38519000  0.11565200  1
  O  O3  1  0.27189900  0.88572900  0.61549600  1
  O  O4  1  0.20637200  0.10554000  0.89592800  1
  O  O5  1  0.20604400  0.60680800  0.39564700  1
  O  O6  1  0.78921200  0.39597700  0.60318000  1
  O  O7  1  0.78996800  0.89615100  0.10283600  1
  O  O8  1  0.78031100  0.01112400  0.75214900  1
  O  O9  1  0.77954600  0.51078000  0.25257800  1
  O  O10  1  0.23594700  0.24960000  0.50792900  1
  O  O11  1  0.23537000  0.74907800  0.00776000  1
  O  O12  1  0.26171800  0.00426100  0.22829900  1
  O  O13  1  0.26178000  0.50441500  0.72814700  1
  O  O14  1  0.74144500  0.23832400  0.00301000  1
  O  O15  1  0.74142700  0.73783700  0.50358300  1
loop_
_geom_bond_atom_site_label_1
_geom_bond_atom_site_label_2
_geom_bond_distance
_geom_bond_site_symmetry_2
Li0 O10 2.190939 1_555
Li0 O14 2.217936 1_455
Li0 O9 2.221726 1_455
Li0 O12 2.289759 1_555
Li0 O2 2.596221 1_555
Li1 O11 2.188702 1_556
Li1 O15 2.213907 1_455
Li1 O8 2.220606 1_465
Li1 O13 2.290858 1_555
Li1 O3 2.610838 1_555
Li2 O10 2.154732 1_555
Li2 O14 2.158233 1_556
Li2 O13 2.177023 1_555
Li2 O8 2.223256 1_555
Li3 O11 2.157453 1_555
Li3 O15 2.159772 1_555
Li3 O12 2.175984 1_565
Li3 O9 2.224810 1_555
Li4 O2 2.161130 1_555
Li4 O0 2.228720 1_555
Li4 O6 2.260828 1_555
Li4 O5 2.264974 1_555
Li4 O10 2.461112 1_555
Li5 O3 2.157928 1_555
Li5 O1 2.226498 1_555
Li5 O4 2.251106 1_565
Li5 O7 2.274877 1_556
Li5 O11 2.441046 1_556
Li6 O2 2.171321 1_656
Li6 O4 2.217781 1_655
Li6 O1 2.226111 1_555
Li6 O6 2.299738 1_555
Li6 O14 2.432805 1_556
Li7 O3 2.169389 1_655
Li7 O5 2.214081 1_655
Li7 O0 2.220949 1_565
Li7 O7 2.291934 1_555
Li7 O15 2.474403 1_555
O0 Y4 2.220288 1_555
O0 Y2 2.220548 1_655
O0 Y0 2.246947 1_545
O1 Y3 2.218862 1_656
O1 Y5 2.219566 1_555
O1 Y1 2.245389 1_556
O2 Y4 2.267777 1_555
O2 Y3 2.269135 1_555
O2 Y1 2.279394 1_555
O3 Y5 2.266604 1_555
O3 Y2 2.267623 1_565
O3 Y0 2.278368 1_555
O4 V1 2.080330 1_455
O4 Y4 2.193501 1_556
O4 Y2 2.194199 1_555
O5 V0 2.085602 1_455
O5 Y3 2.192812 1_555
O5 Y5 2.193702 1_555
O6 V0 2.085124 1_555
O6 Y5 2.213471 1_555
O6 Y2 2.214250 1_655
O7 V1 2.077891 1_564
O7 Y4 2.212653 1_565
O7 Y3 2.214871 1_655
O8 V1 2.072087 1_555
O8 Y0 2.282587 1_545
O8 Y2 2.356748 1_655
O9 V0 2.076288 1_555
O9 Y1 2.285562 1_555
O9 Y3 2.356241 1_655
O10 V0 2.186660 1_455
O10 Y0 2.274728 1_545
O10 Y2 2.330388 1_555
O11 V1 2.184905 1_464
O11 Y1 2.271173 1_555
O11 Y3 2.334004 1_555
O12 V1 2.077802 1_454
O12 Y0 2.287664 1_545
O12 Y4 2.353138 1_555
O13 V0 2.072068 1_455
O13 Y1 2.286389 1_556
O13 Y5 2.349839 1_555
O14 V1 2.170420 1_554
O14 Y1 2.274391 1_555
O14 Y4 2.337589 1_555
O15 V0 2.164316 1_555
O15 Y0 2.276069 1_555
O15 Y5 2.333795 1_555
