# generated using pymatgen
data_Ca4Al5FeSi6(HO13)2
_symmetry_space_group_name_H-M   'P 1'
_cell_length_a   5.68003000
_cell_length_b   8.97631300
_cell_length_c   10.26444000
_cell_angle_alpha   64.68913386
_cell_angle_beta   90.00000000
_cell_angle_gamma   90.00000000
_symmetry_Int_Tables_number   1
_chemical_formula_structural   Ca4Al5FeSi6(HO13)2
_chemical_formula_sum   'Ca4 Al5 Fe1 Si6 H2 O26'
_cell_volume   473.10008005
_cell_formula_units_Z   1
loop_
 _symmetry_equiv_pos_site_id
 _symmetry_equiv_pos_as_xyz
  1  'x, y, z'
loop_
 _atom_site_type_symbol
 _atom_site_label
 _atom_site_symmetry_multiplicity
 _atom_site_fract_x
 _atom_site_fract_y
 _atom_site_fract_z
 _atom_site_occupancy
  Ca  Ca0  1  0.50000000  0.23981100  0.15665000  1
  Ca  Ca1  1  0.00000000  0.75928400  0.84638200  1
  Ca  Ca2  1  0.50000000  0.39059100  0.42301100  1
  Ca  Ca3  1  0.00000000  0.60798300  0.57806900  1
  Al  Al0  1  0.75014900  0.99653200  0.00166500  1
  Al  Al1  1  0.24985100  0.99653200  0.00166500  1
  Al  Al2  1  0.75056100  0.00092900  0.49956000  1
  Al  Al3  1  0.24943900  0.00092900  0.49956000  1
  Al  Al4  1  0.00000000  0.71091100  0.22549400  1
  Fe  Fe0  1  0.50000000  0.29066800  0.77915200  1
  Si  Si0  1  0.00000000  0.32240600  0.27393000  1
  Si  Si1  1  0.50000000  0.68557400  0.72453100  1
  Si  Si2  1  0.50000000  0.81690700  0.31582400  1
  Si  Si3  1  0.00000000  0.18138500  0.68304200  1
  Si  Si4  1  0.50000000  0.66062700  0.04879900  1
  Si  Si5  1  0.00000000  0.33724900  0.95302700  1
  H  H0  1  0.00000000  0.93947700  0.32591600  1
  H  H1  1  0.50000000  0.06133000  0.67330800  1
  O  O0  1  0.50000000  0.48234600  0.17993800  1
  O  O1  1  0.00000000  0.51484400  0.82095300  1
  O  O2  1  0.73726900  0.70062700  0.34961400  1
  O  O3  1  0.23153500  0.30232600  0.64359200  1
  O  O4  1  0.76846500  0.30232600  0.64359200  1
  O  O5  1  0.26273100  0.70062700  0.34961400  1
  O  O6  1  0.74687700  0.76321900  0.04515600  1
  O  O7  1  0.24411400  0.23078500  0.95998700  1
  O  O8  1  0.75588600  0.23078500  0.95998700  1
  O  O9  1  0.25312300  0.76321900  0.04515600  1
  O  O10  1  0.00000000  0.93979600  0.13194600  1
  O  O11  1  0.50000000  0.04622100  0.87228300  1
  O  O12  1  0.00000000  0.36583400  0.10114300  1
  O  O13  1  0.50000000  0.63306800  0.89924800  1
  O  O14  1  0.00000000  0.49038200  0.29474300  1
  O  O15  1  0.50000000  0.52553400  0.69153000  1
  O  O16  1  0.50000000  0.96034600  0.14407400  1
  O  O17  1  0.00000000  0.03983300  0.85609600  1
  O  O18  1  0.50000000  0.93668800  0.40342000  1
  O  O19  1  0.00000000  0.06169700  0.59669900  1
  O  O20  1  0.00000000  0.91922400  0.42774200  1
  O  O21  1  0.50000000  0.08187500  0.57124300  1
  O  O22  1  0.76500200  0.21037900  0.34376100  1
  O  O23  1  0.26228500  0.79426000  0.65756800  1
  O  O24  1  0.73771500  0.79426000  0.65756800  1
  O  O25  1  0.23499800  0.21037900  0.34376100  1
loop_
_geom_bond_atom_site_label_1
_geom_bond_atom_site_label_2
_geom_bond_distance
_geom_bond_site_symmetry_2
Ca0 O0 2.289487 1_555
Ca0 O25 2.364379 1_555
Ca0 O22 2.364379 1_555
Ca0 O7 2.516702 1_554
Ca0 O8 2.516702 1_554
Ca0 O16 2.566408 1_545
Ca0 O18 2.815361 1_545
Ca0 O12 3.019746 1_555
Ca0 O12 3.019746 1_655
Ca1 O1 2.317803 1_555
Ca1 O23 2.356665 1_555
Ca1 O24 2.356665 1_455
Ca1 O6 2.508550 1_456
Ca1 O9 2.508550 1_556
Ca1 O17 2.562510 1_565
Ca2 O0 2.268551 1_555
Ca2 O21 2.527643 1_555
Ca2 O3 2.558415 1_555
Ca2 O4 2.558415 1_555
Ca2 O25 2.582500 1_555
Ca2 O22 2.582500 1_555
Ca2 O2 2.887229 1_555
Ca2 O5 2.887229 1_555
Ca3 O1 2.265424 1_555
Ca3 O20 2.549540 1_555
Ca3 O2 2.598077 1_455
Ca3 O5 2.598077 1_555
Ca3 O23 2.616844 1_555
Ca3 O24 2.616844 1_455
Ca3 O4 2.851633 1_455
Ca3 O3 2.851633 1_555
Ca3 O15 3.038544 1_455
Ca3 O15 3.038544 1_555
Al0 O11 1.864123 1_564
Al0 O10 1.865294 1_655
Al0 O6 1.945835 1_555
Al0 O8 1.958666 1_564
Al0 O16 1.963430 1_555
Al0 O17 1.975118 1_664
Al1 O11 1.864123 1_564
Al1 O10 1.865294 1_555
Al1 O9 1.945835 1_555
Al1 O7 1.958666 1_564
Al1 O16 1.963430 1_555
Al1 O17 1.975118 1_564
Al2 O24 1.872055 1_545
Al2 O22 1.878306 1_555
Al2 O20 1.884404 1_645
Al2 O21 1.884658 1_555
Al2 O19 1.940137 1_655
Al2 O18 1.954071 1_545
Al3 O23 1.872055 1_545
Al3 O25 1.878306 1_555
Al3 O20 1.884404 1_545
Al3 O21 1.884658 1_555
Al3 O19 1.940137 1_555
Al3 O18 1.954071 1_545
Al4 O14 1.794628 1_555
Al4 O10 1.859113 1_555
Al4 O5 1.938585 1_555
Al4 O2 1.938585 1_455
Al4 O6 2.229544 1_455
Al4 O9 2.229544 1_555
Fe0 O15 1.905845 1_555
Fe0 O11 1.983670 1_555
Fe0 O4 2.036629 1_555
Fe0 O3 2.036629 1_555
Fe0 O7 2.234650 1_555
Fe0 O8 2.234650 1_555
H0 O20 0.981323 1_555
H1 O21 0.983036 1_555
O0 Si4 1.590905 1_555
O1 Si5 1.590988 1_555
O2 Si2 1.648175 1_555
O3 Si3 1.642005 1_555
O4 Si3 1.642005 1_655
O5 Si2 1.648175 1_555
O6 Si4 1.669241 1_555
O7 Si5 1.668110 1_555
O8 Si5 1.668110 1_655
O9 Si4 1.669241 1_555
O12 Si0 1.645089 1_555
O12 Si5 1.646448 1_554
O13 Si1 1.647905 1_555
O13 Si4 1.655988 1_556
O14 Si0 1.610759 1_555
O15 Si1 1.610764 1_555
O16 Si2 1.680719 1_555
O17 Si3 1.685185 1_555
O18 Si2 1.670650 1_555
O19 Si3 1.659475 1_555
O22 Si0 1.640228 1_655
O23 Si1 1.635228 1_555
O24 Si1 1.635228 1_555
O25 Si0 1.640228 1_555
