# generated using pymatgen
data_Ti2Zn(PO5)2
_symmetry_space_group_name_H-M   'P 1'
_cell_length_a   10.14451262
_cell_length_b   9.17580710
_cell_length_c   6.66472280
_cell_angle_alpha   77.86899388
_cell_angle_beta   62.16690090
_cell_angle_gamma   39.96410522
_symmetry_Int_Tables_number   1
_chemical_formula_structural   Ti2Zn(PO5)2
_chemical_formula_sum   'Ti4 Zn2 P4 O20'
_cell_volume   340.25279857
_cell_formula_units_Z   2
loop_
 _symmetry_equiv_pos_site_id
 _symmetry_equiv_pos_as_xyz
  1  'x, y, z'
loop_
 _atom_site_type_symbol
 _atom_site_label
 _atom_site_symmetry_multiplicity
 _atom_site_fract_x
 _atom_site_fract_y
 _atom_site_fract_z
 _atom_site_occupancy
  Ti  Ti0  1  0.88822400  0.38219600  0.37448900  1
  Ti  Ti1  1  0.35509100  0.37448900  0.38219600  1
  Ti  Ti2  1  0.86780400  0.36177600  0.89490900  1
  Ti  Ti3  1  0.87551100  0.89490900  0.36177600  1
  Zn  Zn0  1  0.51613100  0.98386900  0.98386900  1
  Zn  Zn1  1  0.26613100  0.73386900  0.73386900  1
  P  P0  1  0.03004900  0.55139600  0.96379600  1
  P  P1  1  0.69860400  0.21995100  0.79524100  1
  P  P2  1  0.45475900  0.96379600  0.55139600  1
  P  P3  1  0.28620400  0.79524100  0.21995100  1
  O  O0  1  0.59351300  0.72279700  0.44034400  1
  O  O1  1  0.65671600  0.18083100  0.33735400  1
  O  O2  1  0.30181100  0.66849900  0.42230700  1
  O  O3  1  0.80965600  0.00665400  0.65648700  1
  O  O4  1  0.21611400  0.08903400  0.75745700  1
  O  O5  1  0.42933300  0.09818800  0.35164300  1
  O  O6  1  0.06916900  0.59328400  0.42490100  1
  O  O7  1  0.82509900  0.33735400  0.18083100  1
  O  O8  1  0.91264600  0.42490100  0.59328400  1
  O  O9  1  0.16096600  0.03388600  0.31260600  1
  O  O10  1  0.24334600  0.44034400  0.72279700  1
  O  O11  1  0.49254300  0.31260600  0.03388600  1
  O  O12  1  0.93739400  0.75745700  0.08903400  1
  O  O13  1  0.15181200  0.82066700  0.12916500  1
  O  O14  1  0.12083500  0.35164300  0.09818800  1
  O  O15  1  0.89835700  0.12916500  0.82066700  1
  O  O16  1  0.82769300  0.64261600  0.94818900  1
  O  O17  1  0.60738400  0.42230700  0.66849900  1
  O  O18  1  0.52720300  0.65648700  0.00665400  1
  O  O19  1  0.58150100  0.94818900  0.64261600  1
loop_
_geom_bond_atom_site_label_1
_geom_bond_atom_site_label_2
_geom_bond_distance
_geom_bond_site_symmetry_2
O0 P2 1.537160 1_555
O0 Ti0 1.981593 1_555
O1 Ti3 1.751464 1_545
O1 Ti1 1.908958 1_555
O2 P3 1.566631 1_555
O2 Zn1 2.071567 1_555
O2 Ti1 2.361063 1_555
O3 P1 1.537160 1_555
O3 Ti3 1.981593 1_545
O4 P2 1.536763 1_545
O4 Ti2 1.993311 1_455
O5 P2 1.581974 1_545
O5 Ti1 2.045277 1_555
O5 Zn0 2.352238 1_544
O6 Ti1 1.751464 1_555
O6 Ti3 1.908958 1_455
O7 Ti2 1.751464 1_554
O7 Ti0 1.908958 1_555
O8 Ti0 1.751464 1_555
O8 Ti2 1.908958 1_555
O9 P3 1.536765 1_545
O9 Ti0 1.993311 1_455
O10 P0 1.537160 1_555
O10 Ti1 1.981593 1_555
O11 P1 1.536760 1_554
O11 Ti1 1.993311 1_555
O12 P0 1.536757 1_654
O12 Ti3 1.993317 1_555
O13 P3 1.581969 1_555
O13 Ti3 2.045275 1_455
O13 Zn1 2.352245 1_554
O14 P0 1.581974 1_554
O14 Ti0 2.045270 1_455
O14 Zn0 2.352243 1_544
O15 P1 1.581978 1_555
O15 Ti2 2.045268 1_555
O15 Zn1 2.352242 1_645
O16 P0 1.566636 1_655
O16 Zn0 2.071570 1_555
O16 Ti2 2.361054 1_555
O17 P1 1.566632 1_555
O17 Zn1 2.071572 1_555
O17 Ti0 2.361056 1_555
O18 P3 1.537160 1_555
O18 Ti2 1.981593 1_554
O19 P2 1.566626 1_555
O19 Zn0 2.071574 1_555
O19 Ti3 2.361061 1_555
