# generated using pymatgen
data_Te4MoW3(SeS)2
_symmetry_space_group_name_H-M   'P 1'
_cell_length_a   3.39739939
_cell_length_b   3.39739939
_cell_length_c   41.15675700
_cell_angle_alpha   90.00000000
_cell_angle_beta   90.00000000
_cell_angle_gamma   119.99998808
_symmetry_Int_Tables_number   1
_chemical_formula_structural   Te4MoW3(SeS)2
_chemical_formula_sum   'Te4 Mo1 W3 Se2 S2'
_cell_volume   411.40071193
_cell_formula_units_Z   1
loop_
 _symmetry_equiv_pos_site_id
 _symmetry_equiv_pos_as_xyz
  1  'x, y, z'
loop_
 _atom_site_type_symbol
 _atom_site_label
 _atom_site_symmetry_multiplicity
 _atom_site_fract_x
 _atom_site_fract_y
 _atom_site_fract_z
 _atom_site_occupancy
  Te  Te0  1  0.33333300  0.66666700  0.70575200  1
  Te  Te1  1  0.66666700  0.33333300  0.42184600  1
  Te  Te2  1  0.66666700  0.33333300  0.51337200  1
  Te  Te3  1  0.33333300  0.66666700  0.61421900  1
  Mo  Mo0  1  0.66666700  0.33333300  0.28135600  1
  W  W0  1  0.33333300  0.66666700  0.09392000  1
  W  W1  1  0.33333300  0.66666700  0.46760300  1
  W  W2  1  0.66666700  0.33333300  0.66003800  1
  Se  Se0  1  0.33333300  0.66666700  0.32144800  1
  Se  Se1  1  0.33333300  0.66666700  0.24132000  1
  S  S0  1  0.66666700  0.33333300  0.05736200  1
  S  S1  1  0.66666700  0.33333300  0.13051200  1
loop_
_geom_bond_atom_site_label_1
_geom_bond_atom_site_label_2
_geom_bond_distance
_geom_bond_site_symmetry_2
Te0 W2 2.717950 1_455
Te0 W2 2.717950 1_565
Te0 W2 2.717954 1_555
Te1 W1 2.719175 1_545
Te1 W1 2.719175 1_655
Te1 W1 2.719179 1_555
Te2 W1 2.719517 1_655
Te2 W1 2.719517 1_545
Te2 W1 2.719521 1_555
Te3 W2 2.720943 1_455
Te3 W2 2.720943 1_565
Te3 W2 2.720947 1_555
Mo0 Se1 2.561742 1_545
Mo0 Se1 2.561742 1_655
Mo0 Se1 2.561746 1_555
Mo0 Se0 2.563225 1_545
Mo0 Se0 2.563225 1_655
Mo0 Se0 2.563229 1_555
S0 W0 2.472101 1_545
S0 W0 2.472101 1_655
S0 W0 2.472105 1_555
S1 W0 2.472953 1_655
S1 W0 2.472953 1_545
S1 W0 2.472957 1_555
