# generated using pymatgen
data_Ca3W3N5
_symmetry_space_group_name_H-M   'P 1'
_cell_length_a   5.72493500
_cell_length_b   8.21147366
_cell_length_c   8.29533901
_cell_angle_alpha   109.80888292
_cell_angle_beta   102.77606134
_cell_angle_gamma   103.55682145
_symmetry_Int_Tables_number   1
_chemical_formula_structural   Ca3W3N5
_chemical_formula_sum   'Ca6 W6 N10'
_cell_volume   336.85693452
_cell_formula_units_Z   2
loop_
 _symmetry_equiv_pos_site_id
 _symmetry_equiv_pos_as_xyz
  1  'x, y, z'
loop_
 _atom_site_type_symbol
 _atom_site_label
 _atom_site_symmetry_multiplicity
 _atom_site_fract_x
 _atom_site_fract_y
 _atom_site_fract_z
 _atom_site_occupancy
  Ca  Ca0  1  0.79462600  0.44461900  0.62108700  1
  Ca  Ca1  1  0.20537400  0.55538100  0.37891300  1
  Ca  Ca2  1  0.65081500  0.87473900  0.88956800  1
  Ca  Ca3  1  0.34918500  0.12526100  0.11043200  1
  Ca  Ca4  1  0.67009500  0.67769600  0.21103700  1
  Ca  Ca5  1  0.32990500  0.32230400  0.78896300  1
  W  W0  1  0.89149800  0.30730800  0.96266700  1
  W  W1  1  0.10850200  0.69269200  0.03733300  1
  W  W2  1  0.74017300  0.05499800  0.62804300  1
  W  W3  1  0.25982700  0.94500200  0.37195700  1
  W  W4  1  0.05663100  0.86422900  0.65128100  1
  W  W5  1  0.94336900  0.13577100  0.34871900  1
  N  N0  1  0.03675800  0.08770700  0.84797100  1
  N  N1  1  0.96324200  0.91229300  0.15202900  1
  N  N2  1  0.81524000  0.64070200  0.48323500  1
  N  N3  1  0.18476000  0.35929800  0.51676500  1
  N  N4  1  0.74892100  0.50610500  0.93251000  1
  N  N5  1  0.25107900  0.49389500  0.06749000  1
  N  N6  1  0.39577800  0.89586300  0.60025500  1
  N  N7  1  0.60422100  0.10413700  0.39974500  1
  N  N8  1  0.18753800  0.78180300  0.86316200  1
  N  N9  1  0.81246200  0.21819700  0.13683800  1
loop_
_geom_bond_atom_site_label_1
_geom_bond_atom_site_label_2
_geom_bond_distance
_geom_bond_site_symmetry_2
Ca0 N2 2.265532 1_555
Ca0 N4 2.544406 1_555
Ca0 N7 2.565739 1_555
Ca0 N3 2.721355 1_655
Ca0 N8 2.841190 1_655
Ca1 N3 2.265532 1_555
Ca1 N5 2.544406 1_555
Ca1 N6 2.565739 1_555
Ca1 N2 2.721355 1_455
Ca1 N9 2.841190 1_455
Ca2 N1 2.366119 1_556
Ca2 N8 2.519036 1_555
Ca2 N6 2.602448 1_555
Ca2 N0 2.644597 1_665
Ca2 N9 2.652140 1_566
Ca3 N0 2.366119 1_554
Ca3 N9 2.519036 1_555
Ca3 N7 2.602446 1_555
Ca3 N1 2.644597 1_445
Ca3 N8 2.652140 1_544
Ca4 N5 2.295967 1_555
Ca4 N2 2.373731 1_555
Ca4 N4 2.465776 1_554
Ca4 N1 2.500768 1_555
Ca5 N4 2.295967 1_555
Ca5 N3 2.373731 1_555
Ca5 N5 2.465776 1_556
Ca5 N0 2.500768 1_555
N0 W4 2.047749 1_545
N0 W2 2.089857 1_455
N0 W0 2.176845 1_455
N1 W5 2.047749 1_565
N1 W3 2.089857 1_655
N1 W1 2.176845 1_655
N2 W4 1.856511 1_655
N3 W5 1.856511 1_455
N4 W1 2.041567 1_656
N4 W0 2.050552 1_555
N5 W0 2.041567 1_454
N5 W1 2.050552 1_555
N6 W2 2.008734 1_565
N6 W4 2.053773 1_555
N6 W3 2.090057 1_555
N7 W3 2.008730 1_545
N7 W5 2.053779 1_555
N7 W2 2.090059 1_555
N8 W1 1.917836 1_556
N8 W4 2.137878 1_555
N9 W0 1.917836 1_554
N9 W5 2.137878 1_555
