# generated using pymatgen
data_Na2Lu3Te4(IO4)3
_symmetry_space_group_name_H-M   'P 1'
_cell_length_a   5.48956433
_cell_length_b   9.21935123
_cell_length_c   16.52273675
_cell_angle_alpha   89.99646913
_cell_angle_beta   90.00000000
_cell_angle_gamma   90.00000000
_symmetry_Int_Tables_number   1
_chemical_formula_structural   Na2Lu3Te4(IO4)3
_chemical_formula_sum   'Na4 Lu6 Te8 I6 O24'
_cell_volume   836.21936823
_cell_formula_units_Z   2
loop_
 _symmetry_equiv_pos_site_id
 _symmetry_equiv_pos_as_xyz
  1  'x, y, z'
loop_
 _atom_site_type_symbol
 _atom_site_label
 _atom_site_symmetry_multiplicity
 _atom_site_fract_x
 _atom_site_fract_y
 _atom_site_fract_z
 _atom_site_occupancy
  Na  Na0  1  0.26213328  0.70560079  0.08667499  1
  Na  Na1  1  0.26213328  0.29439921  0.41332501  1
  Na  Na2  1  0.73786672  0.29439921  0.91332501  1
  Na  Na3  1  0.73786672  0.70560079  0.58667499  1
  Lu  Lu0  1  0.24585399  -0.00000000  0.25000000  1
  Lu  Lu1  1  0.75414601  -0.00000000  0.75000000  1
  Lu  Lu2  1  0.25397787  -0.00099990  0.91541094  1
  Lu  Lu3  1  0.25397787  0.00099990  0.58458906  1
  Lu  Lu4  1  0.74602213  0.00099990  0.08458906  1
  Lu  Lu5  1  0.74602213  -0.00099990  0.41541094  1
  Te  Te0  1  0.20929053  0.75193919  0.73283627  1
  Te  Te1  1  0.20929053  0.24806081  0.76716373  1
  Te  Te2  1  0.79070947  0.24806081  0.26716373  1
  Te  Te3  1  0.79070947  0.75193919  0.23283627  1
  Te  Te4  1  0.28645285  0.75543214  0.43363812  1
  Te  Te5  1  0.28645285  0.24456786  0.06636188  1
  Te  Te6  1  0.71354715  0.24456786  0.56636188  1
  Te  Te7  1  0.71354715  0.75543214  0.93363812  1
  I  I0  1  0.25628527  0.50000000  0.25000000  1
  I  I1  1  0.74371473  0.50000000  0.75000000  1
  I  I2  1  0.24415092  0.50484646  0.91737328  1
  I  I3  1  0.24415092  0.49515354  0.58262672  1
  I  I4  1  0.75584908  0.49515354  0.08262672  1
  I  I5  1  0.75584908  0.50484646  0.41737328  1
  O  O0  1  0.45995578  0.86757120  0.68755744  1
  O  O1  1  0.45995578  0.13242880  0.81244256  1
  O  O2  1  0.54004422  0.13242880  0.31244256  1
  O  O3  1  0.54004422  0.86757120  0.18755744  1
  O  O4  1  0.07624210  0.87348375  0.81439228  1
  O  O5  1  0.07624210  0.12651625  0.68560772  1
  O  O6  1  0.92375790  0.12651625  0.18560772  1
  O  O7  1  0.92375790  0.87348375  0.31439228  1
  O  O8  1  0.00637819  0.84396524  0.15875778  1
  O  O9  1  0.00637819  0.15603476  0.34124222  1
  O  O10  1  0.99362181  0.15603476  0.84124222  1
  O  O11  1  0.99362181  0.84396524  0.65875778  1
  O  O12  1  0.04120244  0.87337234  0.47894042  1
  O  O13  1  0.04120244  0.12662766  0.02105958  1
  O  O14  1  0.95879756  0.12662766  0.52105958  1
  O  O15  1  0.95879756  0.87337234  0.97894042  1
  O  O16  1  0.41795484  0.88062598  0.35426448  1
  O  O17  1  0.41795484  0.11937402  0.14573552  1
  O  O18  1  0.58204516  0.11937402  0.64573552  1
  O  O19  1  0.58204516  0.88062598  0.85426448  1
  O  O20  1  0.49393135  0.84856217  0.00670019  1
  O  O21  1  0.49393135  0.15143783  0.49329981  1
  O  O22  1  0.50606865  0.15143783  0.99329981  1
  O  O23  1  0.50606865  0.84856217  0.50670019  1
loop_
_geom_bond_atom_site_label_1
_geom_bond_atom_site_label_2
_geom_bond_distance
_geom_bond_site_symmetry_2
Na0 O8 2.239885 1_555
Na0 O20 2.258810 1_555
Na0 O3 2.708510 1_555
Na0 O15 2.886790 1_454
Na1 O9 2.239885 1_555
Na1 O21 2.258810 1_555
Na1 O2 2.708510 1_555
Na1 O14 2.886790 1_455
Na2 O10 2.239885 1_555
Na2 O22 2.258810 1_555
Na2 O1 2.708510 1_555
Na2 O13 2.886790 1_656
Na3 O11 2.239885 1_555
Na3 O23 2.258810 1_555
Na3 O0 2.708510 1_555
Na3 O12 2.886790 1_655
Lu0 O16 2.251969 1_545
Lu0 O17 2.251969 1_555
Lu0 O2 2.272305 1_555
Lu0 O3 2.272305 1_545
Lu0 O7 2.370381 1_445
Lu0 O6 2.370381 1_455
Lu0 O8 2.463870 1_545
Lu0 O9 2.463870 1_555
Lu1 O19 2.251969 1_545
Lu1 O18 2.251969 1_555
Lu1 O1 2.272305 1_555
Lu1 O0 2.272305 1_545
Lu1 O5 2.370381 1_655
Lu1 O4 2.370381 1_645
Lu1 O11 2.463870 1_545
Lu1 O10 2.463870 1_555
Lu2 O15 2.251412 1_445
Lu2 O4 2.253261 1_545
Lu2 O19 2.335652 1_545
Lu2 O22 2.355124 1_555
Lu2 O10 2.374930 1_455
Lu2 O1 2.384531 1_555
Lu2 O13 2.407531 1_556
Lu2 O20 2.435894 1_546
Lu3 O14 2.251412 1_455
Lu3 O5 2.253261 1_555
Lu3 O18 2.335652 1_555
Lu3 O23 2.355124 1_545
Lu3 O11 2.374930 1_445
Lu3 O0 2.384531 1_545
Lu3 O12 2.407531 1_545
Lu3 O21 2.435894 1_555
Lu4 O13 2.251412 1_655
Lu4 O6 2.253261 1_555
Lu4 O17 2.335652 1_555
Lu4 O20 2.355124 1_545
Lu4 O8 2.374930 1_645
Lu4 O3 2.384531 1_545
Lu4 O15 2.407531 1_544
Lu4 O22 2.435894 1_554
Lu5 O12 2.251412 1_645
Lu5 O7 2.253261 1_545
Lu5 O16 2.335652 1_545
Lu5 O21 2.355124 1_555
Lu5 O9 2.374930 1_655
Lu5 O2 2.384531 1_555
Lu5 O14 2.407531 1_555
Lu5 O23 2.435894 1_545
I0 Na0 3.297826 1_555
I0 Na1 3.297826 1_555
I1 Na2 3.297826 1_555
I1 Na3 3.297826 1_555
I2 Na2 3.333835 1_555
I2 Na0 3.355738 1_556
I2 Na2 3.390164 1_455
I2 Te1 3.435347 1_555
I2 Te5 3.445467 1_556
I2 Te7 3.471209 1_555
I3 Na3 3.333835 1_555
I3 Na1 3.355738 1_555
I3 Na3 3.390164 1_455
I3 Te0 3.435347 1_555
I3 Te4 3.445467 1_555
I3 Te6 3.471209 1_555
I4 Na0 3.333835 1_555
I4 Na2 3.355738 1_554
I4 Na0 3.390164 1_655
I4 Te3 3.435347 1_555
I4 Te7 3.445467 1_554
I4 Te5 3.471209 1_555
I5 Na1 3.333835 1_555
I5 Na3 3.355738 1_555
I5 Na1 3.390164 1_655
I5 Te2 3.435347 1_555
I5 Te6 3.445467 1_555
I5 Te4 3.471209 1_555
O0 Te0 1.894614 1_555
O1 Te1 1.894614 1_555
O2 Te2 1.894614 1_555
O3 Te3 1.894614 1_555
O4 Te0 1.898718 1_555
O5 Te1 1.898718 1_555
O6 Te2 1.898718 1_555
O7 Te3 1.898718 1_555
O8 Te3 1.902498 1_455
O9 Te2 1.902498 1_455
O10 Te1 1.902498 1_655
O11 Te0 1.902498 1_655
O12 Te4 1.885535 1_555
O13 Te5 1.885535 1_555
O14 Te6 1.885535 1_555
O15 Te7 1.885535 1_555
O16 Te4 1.890260 1_555
O17 Te5 1.890260 1_555
O18 Te6 1.890260 1_555
O19 Te7 1.890260 1_555
O20 Te7 1.909993 1_554
O21 Te6 1.909993 1_555
O22 Te5 1.909993 1_556
O23 Te4 1.909993 1_555
