# generated using pymatgen
data_Na4Fe3P4O15
_symmetry_space_group_name_H-M   'P 1'
_cell_length_a   6.60584900
_cell_length_b   10.81444000
_cell_length_c   18.44405000
_cell_angle_alpha   90.00000000
_cell_angle_beta   90.00000000
_cell_angle_gamma   90.00000000
_symmetry_Int_Tables_number   1
_chemical_formula_structural   Na4Fe3P4O15
_chemical_formula_sum   'Na16 Fe12 P16 O60'
_cell_volume   1317.61632940
_cell_formula_units_Z   4
loop_
 _symmetry_equiv_pos_site_id
 _symmetry_equiv_pos_as_xyz
  1  'x, y, z'
loop_
 _atom_site_type_symbol
 _atom_site_label
 _atom_site_symmetry_multiplicity
 _atom_site_fract_x
 _atom_site_fract_y
 _atom_site_fract_z
 _atom_site_occupancy
  Na  Na0  1  0.33524500  0.48108900  0.99116600  1
  Na  Na1  1  0.83524500  0.51891100  0.00883400  1
  Na  Na2  1  0.83524500  0.98108900  0.50883400  1
  Na  Na3  1  0.33524500  0.01891100  0.49116600  1
  Na  Na4  1  0.37386500  0.24671000  0.79519300  1
  Na  Na5  1  0.87386500  0.75329000  0.20480700  1
  Na  Na6  1  0.87386500  0.74671000  0.70480700  1
  Na  Na7  1  0.37386500  0.25329000  0.29519300  1
  Na  Na8  1  0.96170500  0.76707700  0.89614400  1
  Na  Na9  1  0.46170500  0.23292300  0.10385600  1
  Na  Na10  1  0.46170500  0.26707700  0.60385600  1
  Na  Na11  1  0.96170500  0.73292300  0.39614400  1
  Na  Na12  1  0.20051400  0.04364100  0.96368600  1
  Na  Na13  1  0.70051400  0.95635900  0.03631400  1
  Na  Na14  1  0.70051400  0.54364100  0.53631400  1
  Na  Na15  1  0.20051400  0.45635900  0.46368600  1
  Fe  Fe0  1  0.63693900  0.00259200  0.83587500  1
  Fe  Fe1  1  0.13693900  0.99740800  0.16412500  1
  Fe  Fe2  1  0.13693900  0.50259200  0.66412500  1
  Fe  Fe3  1  0.63693900  0.49740800  0.33587500  1
  Fe  Fe4  1  0.11982900  0.99533700  0.64059900  1
  Fe  Fe5  1  0.61982900  0.00466300  0.35940100  1
  Fe  Fe6  1  0.61982900  0.49533700  0.85940100  1
  Fe  Fe7  1  0.11982900  0.50466300  0.14059900  1
  Fe  Fe8  1  0.85329200  0.24537900  0.73999300  1
  Fe  Fe9  1  0.35329200  0.75462100  0.26000700  1
  Fe  Fe10  1  0.35329200  0.74537900  0.76000700  1
  Fe  Fe11  1  0.85329200  0.25462100  0.23999300  1
  P  P0  1  0.12452900  0.00245800  0.79531200  1
  P  P1  1  0.62452900  0.99754200  0.20468800  1
  P  P2  1  0.62452900  0.50245800  0.70468800  1
  P  P3  1  0.12452900  0.49754200  0.29531200  1
  P  P4  1  0.61244400  0.98998700  0.68013000  1
  P  P5  1  0.11244400  0.01001300  0.31987000  1
  P  P6  1  0.11244400  0.48998700  0.81987000  1
  P  P7  1  0.61244400  0.51001300  0.18013000  1
  P  P8  1  0.98496000  0.24146300  0.06604800  1
  P  P9  1  0.48496000  0.75853700  0.93395200  1
  P  P10  1  0.48496000  0.74146300  0.43395200  1
  P  P11  1  0.98496000  0.25853700  0.56604800  1
  P  P12  1  0.67050200  0.22796000  0.94894200  1
  P  P13  1  0.17050200  0.77204000  0.05105800  1
  P  P14  1  0.17050200  0.72796000  0.55105800  1
  P  P15  1  0.67050200  0.27204000  0.44894200  1
  O  O0  1  0.08429300  0.11198500  0.74121200  1
  O  O1  1  0.58429300  0.88801500  0.25878800  1
  O  O2  1  0.58429300  0.61198500  0.75878800  1
  O  O3  1  0.08429300  0.38801500  0.24121200  1
  O  O4  1  0.94843500  0.97670500  0.84783400  1
  O  O5  1  0.44843500  0.02329500  0.15216600  1
  O  O6  1  0.44843500  0.47670500  0.65216600  1
  O  O7  1  0.94843500  0.52329500  0.34783400  1
  O  O8  1  0.31637700  0.03336500  0.84005100  1
  O  O9  1  0.81637700  0.96663500  0.15994900  1
  O  O10  1  0.81637700  0.53336500  0.65994900  1
  O  O11  1  0.31637700  0.46663500  0.34005100  1
  O  O12  1  0.14829000  0.88778400  0.74339600  1
  O  O13  1  0.64829000  0.11221600  0.25660400  1
  O  O14  1  0.64829000  0.38778400  0.75660400  1
  O  O15  1  0.14829000  0.61221600  0.24339600  1
  O  O16  1  0.63421700  0.10494300  0.73180700  1
  O  O17  1  0.13421700  0.89505700  0.26819300  1
  O  O18  1  0.13421700  0.60494300  0.76819300  1
  O  O19  1  0.63421700  0.39505700  0.23180700  1
  O  O20  1  0.43199700  0.01386800  0.62845000  1
  O  O21  1  0.93199700  0.98613200  0.37155000  1
  O  O22  1  0.93199700  0.51386800  0.87155000  1
  O  O23  1  0.43199700  0.48613200  0.12845000  1
  O  O24  1  0.57997300  0.87773800  0.73334500  1
  O  O25  1  0.07997300  0.12226200  0.26665500  1
  O  O26  1  0.07997300  0.37773800  0.76665500  1
  O  O27  1  0.57997300  0.62226200  0.23334500  1
  O  O28  1  0.80704300  0.96327100  0.63619100  1
  O  O29  1  0.30704300  0.03672900  0.36380900  1
  O  O30  1  0.30704300  0.46327100  0.86380900  1
  O  O31  1  0.80704300  0.53672900  0.13619100  1
  O  O32  1  0.89705200  0.20292400  0.98567100  1
  O  O33  1  0.39705200  0.79707600  0.01432900  1
  O  O34  1  0.39705200  0.70292400  0.51432900  1
  O  O35  1  0.89705200  0.29707600  0.48567100  1
  O  O36  1  0.09149400  0.36661600  0.05483600  1
  O  O37  1  0.59149400  0.63338400  0.94516400  1
  O  O38  1  0.59149400  0.86661600  0.44516400  1
  O  O39  1  0.09149400  0.13338400  0.55483600  1
  O  O40  1  0.81238000  0.24645200  0.12086100  1
  O  O41  1  0.31238000  0.75354800  0.87913900  1
  O  O42  1  0.31238000  0.74645200  0.37913900  1
  O  O43  1  0.81238000  0.25354800  0.62086100  1
  O  O44  1  0.13702400  0.13752300  0.08171300  1
  O  O45  1  0.63702400  0.86247700  0.91828700  1
  O  O46  1  0.63702400  0.63752300  0.41828700  1
  O  O47  1  0.13702400  0.36247700  0.58171300  1
  O  O48  1  0.62692900  0.36708700  0.95630500  1
  O  O49  1  0.12692900  0.63291300  0.04369500  1
  O  O50  1  0.12692900  0.86708700  0.54369500  1
  O  O51  1  0.62692900  0.13291300  0.45630500  1
  O  O52  1  0.69340400  0.18929500  0.86941400  1
  O  O53  1  0.19340400  0.81070500  0.13058600  1
  O  O54  1  0.19340400  0.68929500  0.63058600  1
  O  O55  1  0.69340400  0.31070500  0.36941400  1
  O  O56  1  0.52626700  0.14505500  0.99136800  1
  O  O57  1  0.02626700  0.85494500  0.00863200  1
  O  O58  1  0.02626700  0.64505500  0.50863200  1
  O  O59  1  0.52626700  0.35494500  0.49136800  1
loop_
_geom_bond_atom_site_label_1
_geom_bond_atom_site_label_2
_geom_bond_distance
_geom_bond_site_symmetry_2
Na0 O36 2.346123 1_556
Na0 O49 2.351199 1_556
Na0 O30 2.364221 1_555
Na0 O48 2.376136 1_555
Na0 O37 2.509547 1_555
Na0 O23 2.612059 1_556
Na1 O37 2.346123 1_554
Na1 O48 2.351199 1_554
Na1 O31 2.364221 1_555
Na1 O49 2.376136 1_655
Na1 O36 2.509547 1_655
Na1 O22 2.612059 1_554
Na2 O38 2.346123 1_555
Na2 O51 2.351199 1_565
Na2 O28 2.364221 1_555
Na2 O50 2.376136 1_655
Na2 O39 2.509547 1_665
Na2 O21 2.612059 1_555
Na3 O39 2.346123 1_555
Na3 O50 2.351199 1_545
Na3 O29 2.364221 1_555
Na3 O51 2.376136 1_555
Na3 O38 2.509547 1_545
Na3 O20 2.612059 1_555
Na4 O26 2.460484 1_555
Na4 O14 2.473948 1_555
Na4 O8 2.480312 1_555
Na4 O16 2.583630 1_555
Na4 O52 2.591352 1_555
Na4 O0 2.602522 1_555
Na4 O30 2.698403 1_555
Na5 O27 2.460484 1_555
Na5 O15 2.473948 1_655
Na5 O9 2.480312 1_555
Na5 O17 2.583630 1_655
Na5 O53 2.591352 1_655
Na5 O1 2.602522 1_555
Na5 O31 2.698403 1_555
Na6 O24 2.460484 1_555
Na6 O12 2.473948 1_655
Na6 O10 2.480312 1_555
Na6 O18 2.583630 1_655
Na6 O54 2.591352 1_655
Na6 O2 2.602522 1_555
Na6 O28 2.698403 1_555
Na7 O25 2.460484 1_555
Na7 O13 2.473948 1_555
Na7 O11 2.480312 1_555
Na7 O19 2.583630 1_555
Na7 O55 2.591352 1_555
Na7 O3 2.602522 1_555
Na7 O29 2.698403 1_555
Na8 O57 2.321503 1_656
Na8 O41 2.342216 1_655
Na8 O45 2.414816 1_555
Na8 O4 2.437407 1_555
Na8 O22 2.782560 1_555
Na9 O56 2.321503 1_554
Na9 O40 2.342216 1_555
Na9 O44 2.414816 1_555
Na9 O5 2.437407 1_555
Na9 O23 2.782560 1_555
Na10 O59 2.321503 1_555
Na10 O43 2.342216 1_555
Na10 O47 2.414816 1_555
Na10 O6 2.437407 1_555
Na10 O20 2.782560 1_555
Na11 O58 2.321503 1_655
Na11 O42 2.342216 1_655
Na11 O46 2.414816 1_555
Na11 O7 2.437407 1_555
Na11 O21 2.782560 1_555
Na12 O8 2.407914 1_555
Na12 O44 2.438354 1_556
Na12 O56 2.468618 1_555
Na12 O57 2.485227 1_546
Na12 O32 2.673975 1_455
Na12 O4 2.804051 1_445
Na13 O9 2.407914 1_555
Na13 O45 2.438354 1_554
Na13 O57 2.468618 1_655
Na13 O56 2.485227 1_564
Na13 O33 2.673975 1_555
Na13 O5 2.804051 1_565
Na14 O10 2.407914 1_555
Na14 O46 2.438354 1_555
Na14 O58 2.468618 1_655
Na14 O59 2.485227 1_555
Na14 O34 2.673975 1_555
Na14 O6 2.804051 1_555
Na15 O11 2.407914 1_555
Na15 O47 2.438354 1_555
Na15 O59 2.468618 1_555
Na15 O58 2.485227 1_555
Na15 O35 2.673975 1_455
Na15 O7 2.804051 1_455
Fe0 O4 2.088334 1_545
Fe0 O52 2.144413 1_555
Fe0 O8 2.144958 1_555
Fe0 O45 2.146267 1_545
Fe0 O16 2.215787 1_555
Fe0 O24 2.353903 1_545
Fe1 O5 2.088334 1_565
Fe1 O53 2.144413 1_555
Fe1 O9 2.144958 1_455
Fe1 O44 2.146267 1_565
Fe1 O17 2.215787 1_555
Fe1 O25 2.353903 1_565
Fe2 O6 2.088334 1_555
Fe2 O54 2.144413 1_555
Fe2 O10 2.144958 1_455
Fe2 O47 2.146267 1_555
Fe2 O18 2.215787 1_555
Fe2 O26 2.353903 1_555
Fe3 O7 2.088334 1_555
Fe3 O55 2.144413 1_555
Fe3 O11 2.144958 1_555
Fe3 O46 2.146267 1_555
Fe3 O19 2.215787 1_555
Fe3 O27 2.353903 1_555
Fe4 O20 2.083932 1_565
Fe4 O28 2.096692 1_455
Fe4 O39 2.183102 1_565
Fe4 O12 2.232263 1_555
Fe4 O0 2.256127 1_565
Fe4 O50 2.262805 1_555
Fe5 O21 2.083932 1_545
Fe5 O29 2.096692 1_555
Fe5 O38 2.183102 1_545
Fe5 O13 2.232263 1_555
Fe5 O1 2.256127 1_545
Fe5 O51 2.262805 1_555
Fe6 O22 2.083932 1_555
Fe6 O30 2.096692 1_555
Fe6 O37 2.183102 1_555
Fe6 O14 2.232263 1_555
Fe6 O2 2.256127 1_555
Fe6 O48 2.262805 1_555
Fe7 O23 2.083932 1_555
Fe7 O31 2.096692 1_455
Fe7 O36 2.183102 1_555
Fe7 O15 2.232263 1_555
Fe7 O3 2.256127 1_555
Fe7 O49 2.262805 1_555
Fe8 O14 2.073511 1_555
Fe8 O0 2.100022 1_655
Fe8 O16 2.103254 1_555
Fe8 O26 2.129076 1_655
Fe8 O43 2.215597 1_555
Fe8 O52 2.679815 1_555
Fe9 O15 2.073511 1_555
Fe9 O1 2.100022 1_555
Fe9 O17 2.103254 1_555
Fe9 O27 2.129076 1_555
Fe9 O42 2.215597 1_555
Fe9 O53 2.679815 1_555
Fe10 O12 2.073511 1_555
Fe10 O2 2.100022 1_555
Fe10 O18 2.103254 1_555
Fe10 O24 2.129076 1_555
Fe10 O41 2.215597 1_555
Fe10 O54 2.679815 1_555
Fe11 O13 2.073511 1_555
Fe11 O3 2.100022 1_655
Fe11 O19 2.103254 1_555
Fe11 O25 2.129076 1_655
Fe11 O40 2.215597 1_555
Fe11 O55 2.679815 1_555
O0 P0 1.571392 1_555
O1 P1 1.571392 1_555
O2 P2 1.571392 1_555
O3 P3 1.571392 1_555
O4 P0 1.539198 1_665
O5 P1 1.539198 1_545
O6 P2 1.539198 1_555
O7 P3 1.539198 1_655
O8 P0 1.548779 1_555
O9 P1 1.548779 1_555
O10 P2 1.548779 1_555
O11 P3 1.548779 1_555
O12 P0 1.574629 1_565
O13 P1 1.574629 1_545
O14 P2 1.574629 1_555
O15 P3 1.574629 1_555
O16 P4 1.573105 1_545
O17 P5 1.573105 1_565
O18 P6 1.573105 1_555
O19 P7 1.573105 1_555
O20 P4 1.547948 1_545
O21 P5 1.547948 1_665
O22 P6 1.547948 1_655
O23 P7 1.547948 1_555
O24 P4 1.575732 1_555
O25 P5 1.575732 1_555
O26 P6 1.575732 1_555
O27 P7 1.575732 1_555
O28 P4 1.546846 1_555
O29 P5 1.546846 1_555
O30 P6 1.546846 1_555
O31 P7 1.546846 1_555
O32 P8 1.645802 1_556
O32 P12 1.664901 1_555
O33 P9 1.645802 1_554
O33 P13 1.664901 1_555
O34 P10 1.645802 1_555
O34 P14 1.664901 1_555
O35 P11 1.645802 1_555
O35 P15 1.664901 1_555
O36 P8 1.539441 1_455
O37 P9 1.539441 1_555
O38 P10 1.539441 1_555
O39 P11 1.539441 1_455
O40 P8 1.524685 1_555
O41 P9 1.524685 1_555
O42 P10 1.524685 1_555
O43 P11 1.524685 1_555
O44 P8 1.534932 1_455
O45 P9 1.534932 1_555
O46 P10 1.534932 1_555
O47 P11 1.534932 1_455
O48 P12 1.537874 1_555
O49 P13 1.537874 1_555
O50 P14 1.537874 1_555
O51 P15 1.537874 1_555
O52 P12 1.532738 1_555
O53 P13 1.532738 1_555
O54 P14 1.532738 1_555
O55 P15 1.532738 1_555
O56 P12 1.524459 1_555
O57 P13 1.524459 1_555
O58 P14 1.524459 1_555
O59 P15 1.524459 1_555
