# generated using pymatgen
data_CaNi(PO3)4
_symmetry_space_group_name_H-M   'P 1'
_cell_length_a   7.44340422
_cell_length_b   7.44340422
_cell_length_c   9.73373186
_cell_angle_alpha   67.48984673
_cell_angle_beta   67.48984673
_cell_angle_gamma   71.53216400
_symmetry_Int_Tables_number   1
_chemical_formula_structural   CaNi(PO3)4
_chemical_formula_sum   'Ca2 Ni2 P8 O24'
_cell_volume   450.99995039
_cell_formula_units_Z   2
loop_
 _symmetry_equiv_pos_site_id
 _symmetry_equiv_pos_as_xyz
  1  'x, y, z'
loop_
 _atom_site_type_symbol
 _atom_site_label
 _atom_site_symmetry_multiplicity
 _atom_site_fract_x
 _atom_site_fract_y
 _atom_site_fract_z
 _atom_site_occupancy
  Ca  Ca0  1  0.94776378  0.05223622  0.25000000  1
  Ca  Ca1  1  0.05223622  0.94776378  0.75000000  1
  Ni  Ni0  1  0.00000000  0.50000000  -0.00000000  1
  Ni  Ni1  1  0.50000000  -0.00000000  0.50000000  1
  P  P0  1  0.69301354  0.69106564  0.30021906  1
  P  P1  1  0.30893436  0.30698646  0.19978094  1
  P  P2  1  0.30698646  0.30893436  0.69978094  1
  P  P3  1  0.69106564  0.69301354  0.80021906  1
  P  P4  1  0.72311539  0.28523458  0.52884877  1
  P  P5  1  0.71476542  0.27688461  0.97115123  1
  P  P6  1  0.27688461  0.71476542  0.47115123  1
  P  P7  1  0.28523458  0.72311539  0.02884877  1
  O  O0  1  0.46695141  0.69961768  0.32264766  1
  O  O1  1  0.30038232  0.53304859  0.17735234  1
  O  O2  1  0.53304859  0.30038232  0.67735234  1
  O  O3  1  0.69961768  0.46695141  0.82264766  1
  O  O4  1  0.73967598  0.51172035  0.44503523  1
  O  O5  1  0.48827965  0.26032402  0.05496477  1
  O  O6  1  0.26032402  0.48827965  0.55496477  1
  O  O7  1  0.51172035  0.73967598  0.94503523  1
  O  O8  1  0.81853506  0.65374139  0.15148438  1
  O  O9  1  0.34625861  0.18146494  0.34851562  1
  O  O10  1  0.18146494  0.34625861  0.84851562  1
  O  O11  1  0.65374139  0.81853506  0.65148438  1
  O  O12  1  0.70098795  0.87460038  0.32629271  1
  O  O13  1  0.12539962  0.29901205  0.17370729  1
  O  O14  1  0.29901205  0.12539962  0.67370729  1
  O  O15  1  0.87460038  0.70098795  0.82629271  1
  O  O16  1  0.67551170  0.20814498  0.42704613  1
  O  O17  1  0.79185502  0.32448830  0.07295387  1
  O  O18  1  0.32448830  0.79185502  0.57295387  1
  O  O19  1  0.20814498  0.67551170  0.92704613  1
  O  O20  1  0.90081555  0.18035624  0.57913672  1
  O  O21  1  0.81964376  0.09918445  0.92086328  1
  O  O22  1  0.09918445  0.81964376  0.42086328  1
  O  O23  1  0.18035624  0.90081555  0.07913672  1
loop_
_geom_bond_atom_site_label_1
_geom_bond_atom_site_label_2
_geom_bond_distance
_geom_bond_site_symmetry_2
Ca0 O23 2.242326 1_645
Ca0 O22 2.242326 1_645
Ca0 O12 2.327265 1_545
Ca0 O13 2.327265 1_655
Ca0 O16 2.406362 1_555
Ca0 O17 2.406362 1_555
Ca1 O20 2.242326 1_465
Ca1 O21 2.242326 1_465
Ca1 O15 2.327265 1_455
Ca1 O14 2.327265 1_565
Ca1 O19 2.406362 1_555
Ca1 O18 2.406362 1_555
Ni0 O10 2.023836 1_554
Ni0 O8 2.023836 1_455
Ni0 O17 2.083478 1_455
Ni0 O19 2.083478 1_554
Ni0 O15 2.086895 1_454
Ni0 O13 2.086895 1_555
Ni1 O11 2.023836 1_545
Ni1 O9 2.023836 1_555
Ni1 O16 2.083478 1_555
Ni1 O18 2.083478 1_545
Ni1 O14 2.086895 1_555
Ni1 O12 2.086895 1_545
O0 P0 1.595180 1_555
O0 P6 1.600485 1_555
O1 P1 1.595180 1_555
O1 P7 1.600485 1_555
O2 P2 1.595180 1_555
O2 P4 1.600485 1_555
O3 P3 1.595180 1_555
O3 P5 1.600485 1_555
O4 P4 1.588815 1_555
O4 P0 1.590589 1_555
O5 P5 1.588815 1_554
O5 P1 1.590589 1_555
O6 P6 1.588815 1_555
O6 P2 1.590589 1_555
O7 P7 1.588815 1_556
O7 P3 1.590589 1_555
O8 P0 1.467614 1_555
O9 P1 1.467614 1_555
O10 P2 1.467614 1_555
O11 P3 1.467614 1_555
O12 P0 1.504198 1_555
O13 P1 1.504198 1_555
O14 P2 1.504198 1_555
O15 P3 1.504198 1_555
O16 P4 1.506573 1_555
O17 P5 1.506573 1_554
O18 P6 1.506573 1_555
O19 P7 1.506573 1_556
O20 P4 1.465442 1_555
O21 P5 1.465442 1_555
O22 P6 1.465442 1_555
O23 P7 1.465442 1_555
