# generated using pymatgen
data_B6H7O6
_symmetry_space_group_name_H-M   'P 1'
_cell_length_a   8.28428800
_cell_length_b   8.36436800
_cell_length_c   11.74267519
_cell_angle_alpha   90.00000000
_cell_angle_beta   134.47223372
_cell_angle_gamma   90.00000000
_symmetry_Int_Tables_number   1
_chemical_formula_structural   B6H7O6
_chemical_formula_sum   'B24 H28 O24'
_cell_volume   580.63624901
_cell_formula_units_Z   4
loop_
 _symmetry_equiv_pos_site_id
 _symmetry_equiv_pos_as_xyz
  1  'x, y, z'
loop_
 _atom_site_type_symbol
 _atom_site_label
 _atom_site_symmetry_multiplicity
 _atom_site_fract_x
 _atom_site_fract_y
 _atom_site_fract_z
 _atom_site_occupancy
  B  B0  1  0.55872200  0.50397700  0.88861300  1
  B  B1  1  0.55872200  0.99602300  0.38861300  1
  B  B2  1  0.44127800  0.49602300  0.11138700  1
  B  B3  1  0.44127800  0.00397700  0.61138700  1
  B  B4  1  0.35448300  0.36885300  0.84343200  1
  B  B5  1  0.35448300  0.13114700  0.34343200  1
  B  B6  1  0.64551700  0.63114700  0.15656800  1
  B  B7  1  0.64551700  0.86885300  0.65656800  1
  B  B8  1  0.22405100  0.46600900  0.89828900  1
  B  B9  1  0.22405100  0.03399100  0.39828900  1
  B  B10  1  0.77594900  0.53399100  0.10171100  1
  B  B11  1  0.77594900  0.96600900  0.60171100  1
  B  B12  1  0.35201800  0.66007400  0.98015500  1
  B  B13  1  0.35201800  0.83992600  0.48015500  1
  B  B14  1  0.64798200  0.33992600  0.01984500  1
  B  B15  1  0.64798200  0.16007400  0.51984500  1
  B  B16  1  0.56070400  0.68344900  0.97349000  1
  B  B17  1  0.56070400  0.81655100  0.47349000  1
  B  B18  1  0.43929600  0.31655100  0.02651000  1
  B  B19  1  0.43929600  0.18344900  0.52651000  1
  B  B20  1  0.29846700  0.58232700  0.81253400  1
  B  B21  1  0.29846700  0.91767300  0.31253400  1
  B  B22  1  0.70153300  0.41767300  0.18746600  1
  B  B23  1  0.70153300  0.08232700  0.68746600  1
  H  H0  1  0.67548200  0.61624500  0.78629200  1
  H  H1  1  0.67548200  0.88375500  0.28629200  1
  H  H2  1  0.32451800  0.38375500  0.21370800  1
  H  H3  1  0.32451800  0.11624500  0.71370800  1
  H  H4  1  0.52014300  0.43422200  0.69251200  1
  H  H5  1  0.52014300  0.06577800  0.19251200  1
  H  H6  1  0.47985700  0.56577800  0.30748800  1
  H  H7  1  0.47985700  0.93422200  0.80748800  1
  H  H8  1  0.07358600  0.24218300  0.65447100  1
  H  H9  1  0.07358600  0.25781700  0.15447100  1
  H  H10  1  0.92641400  0.75781700  0.34552900  1
  H  H11  1  0.92641400  0.74218300  0.84552900  1
  H  H12  1  0.95725900  0.35276700  0.84210200  1
  H  H13  1  0.95725900  0.14723300  0.34210200  1
  H  H14  1  0.04274100  0.64723300  0.15789800  1
  H  H15  1  0.04274100  0.85276700  0.65789800  1
  H  H16  1  0.17071800  0.86676900  0.88280500  1
  H  H17  1  0.17071800  0.63323100  0.38280500  1
  H  H18  1  0.82928200  0.13323100  0.11719500  1
  H  H19  1  0.82928200  0.36676900  0.61719500  1
  H  H20  1  0.77479500  0.85392000  0.01529200  1
  H  H21  1  0.77479500  0.64608000  0.51529200  1
  H  H22  1  0.22520500  0.14608000  0.98470800  1
  H  H23  1  0.22520500  0.35392000  0.48470800  1
  H  H24  1  0.16525600  0.66106000  0.59549900  1
  H  H25  1  0.16525600  0.83894000  0.09549900  1
  H  H26  1  0.83474400  0.33894000  0.40450100  1
  H  H27  1  0.83474400  0.16106000  0.90450100  1
  O  O0  1  0.61425300  0.50705300  0.79477800  1
  O  O1  1  0.61425300  0.99294700  0.29477800  1
  O  O2  1  0.38574700  0.49294700  0.20522200  1
  O  O3  1  0.38574700  0.00705300  0.70522200  1
  O  O4  1  0.23550300  0.25602300  0.71317300  1
  O  O5  1  0.23550300  0.24397700  0.21317300  1
  O  O6  1  0.76449700  0.74397700  0.28682700  1
  O  O7  1  0.76449700  0.75602300  0.78682700  1
  O  O8  1  0.98869600  0.44625700  0.80849200  1
  O  O9  1  0.98869600  0.05374300  0.30849200  1
  O  O10  1  0.01130400  0.55374300  0.19150800  1
  O  O11  1  0.01130400  0.94625700  0.69150800  1
  O  O12  1  0.22036400  0.78733300  0.96575000  1
  O  O13  1  0.22036400  0.71266700  0.46575000  1
  O  O14  1  0.77963600  0.21266700  0.03425000  1
  O  O15  1  0.77963600  0.28733300  0.53425000  1
  O  O16  1  0.61297600  0.83913500  0.95184700  1
  O  O17  1  0.61297600  0.66086500  0.45184700  1
  O  O18  1  0.38702400  0.16086500  0.04815300  1
  O  O19  1  0.38702400  0.33913500  0.54815300  1
  O  O20  1  0.12298700  0.65264800  0.65562300  1
  O  O21  1  0.12298700  0.84735200  0.15562300  1
  O  O22  1  0.87701300  0.34735200  0.34437700  1
  O  O23  1  0.87701300  0.15264800  0.84437700  1
loop_
_geom_bond_atom_site_label_1
_geom_bond_atom_site_label_2
_geom_bond_distance
_geom_bond_site_symmetry_2
B0 O0 1.461729 1_555
B1 O1 1.461729 1_555
B2 O2 1.461729 1_555
B3 O3 1.461729 1_555
B4 O4 1.445482 1_555
B5 O5 1.445482 1_555
B6 O6 1.445482 1_555
B7 O7 1.445482 1_555
B8 O8 1.435298 1_455
B9 O9 1.435298 1_455
B10 O10 1.435298 1_655
B11 O11 1.435298 1_655
B12 O12 1.446615 1_555
B13 O13 1.446615 1_555
B14 O14 1.446615 1_555
B15 O15 1.446615 1_555
B16 O16 1.449854 1_555
B17 O17 1.449854 1_555
B18 O18 1.449854 1_555
B19 O19 1.449854 1_555
B20 O20 1.449579 1_555
B21 O21 1.449579 1_555
B22 O22 1.449579 1_555
B23 O23 1.449579 1_555
H0 O0 1.082681 1_555
H0 O7 1.379952 1_555
H1 O1 1.082681 1_555
H1 O6 1.379952 1_555
H2 O2 1.082681 1_555
H2 O5 1.379952 1_555
H3 O3 1.082681 1_555
H3 O4 1.379952 1_555
H4 O0 1.053206 1_555
H4 O19 1.450176 1_555
H5 O1 1.053206 1_545
H5 O18 1.450176 1_555
H6 O2 1.053206 1_555
H6 O17 1.450176 1_555
H7 O3 1.053206 1_565
H7 O16 1.450176 1_555
H8 O4 0.996144 1_555
H9 O5 0.996144 1_555
H10 O6 0.996144 1_555
H11 O7 0.996144 1_555
H12 O8 0.989498 1_555
H13 O9 0.989498 1_555
H14 O10 0.989498 1_555
H15 O11 0.989498 1_555
H16 O12 0.999008 1_555
H17 O13 0.999008 1_555
H18 O14 0.999008 1_555
H19 O15 0.999008 1_555
H20 O16 0.983909 1_554
H21 O17 0.983909 1_555
H22 O18 0.983909 1_556
H23 O19 0.983909 1_555
H24 O20 0.986114 1_555
H25 O21 0.986114 1_555
H26 O22 0.986114 1_555
H27 O23 0.986114 1_555
