# generated using pymatgen
data_Li9Mn2Co5O16
_symmetry_space_group_name_H-M   'P 1'
_cell_length_a   7.44368176
_cell_length_b   7.44368176
_cell_length_c   4.94818000
_cell_angle_alpha   77.54523196
_cell_angle_beta   77.54523196
_cell_angle_gamma   98.33126572
_symmetry_Int_Tables_number   1
_chemical_formula_structural   Li9Mn2Co5O16
_chemical_formula_sum   'Li9 Mn2 Co5 O16'
_cell_volume   256.09658085
_cell_formula_units_Z   1
loop_
 _symmetry_equiv_pos_site_id
 _symmetry_equiv_pos_as_xyz
  1  'x, y, z'
loop_
 _atom_site_type_symbol
 _atom_site_label
 _atom_site_symmetry_multiplicity
 _atom_site_fract_x
 _atom_site_fract_y
 _atom_site_fract_z
 _atom_site_occupancy
  Li  Li0  1  0.87355786  0.12644214  0.50000000  1
  Li  Li1  1  0.00491653  0.50185785  0.49745277  1
  Li  Li2  1  0.13302523  0.86697477  0.50000000  1
  Li  Li3  1  0.26148248  0.26638985  0.48171209  1
  Li  Li4  1  0.38235193  0.61764807  0.50000000  1
  Li  Li5  1  0.49814215  0.99508347  0.50254723  1
  Li  Li6  1  0.61316424  0.38683576  0.50000000  1
  Li  Li7  1  0.73361015  0.73851752  0.51828791  1
  Li  Li8  1  0.49518655  0.50481345  -0.00000000  1
  Mn  Mn0  1  0.00186503  0.99813497  -0.00000000  1
  Mn  Mn1  1  0.74393643  0.25606357  -0.00000000  1
  Co  Co0  1  0.12825505  0.37622656  0.99764713  1
  Co  Co1  1  0.25291742  0.74708258  -0.00000000  1
  Co  Co2  1  0.37625439  0.12715505  0.99716427  1
  Co  Co3  1  0.62377344  0.87174495  0.00235287  1
  Co  Co4  1  0.87284495  0.62374561  0.00283573  1
  O  O0  1  0.76076413  0.00772929  0.22329015  1
  O  O1  1  0.87571079  0.37816524  0.22120975  1
  O  O2  1  0.00430951  0.75789866  0.22199745  1
  O  O3  1  0.12938007  0.12699871  0.22024667  1
  O  O4  1  0.24040562  0.50463688  0.22636536  1
  O  O5  1  0.38141718  0.87915027  0.21674625  1
  O  O6  1  0.50853738  0.24087389  0.22818439  1
  O  O7  1  0.63782583  0.63817940  0.22816706  1
  O  O8  1  0.99227071  0.23923587  0.77670985  1
  O  O9  1  0.12084973  0.61858282  0.78325375  1
  O  O10  1  0.24210134  0.99569049  0.77800255  1
  O  O11  1  0.36182060  0.36217417  0.77183294  1
  O  O12  1  0.49536312  0.75959438  0.77363464  1
  O  O13  1  0.62183476  0.12428921  0.77879025  1
  O  O14  1  0.75912611  0.49146262  0.77181561  1
  O  O15  1  0.87300129  0.87061993  0.77975333  1
loop_
_geom_bond_atom_site_label_1
_geom_bond_atom_site_label_2
_geom_bond_distance
_geom_bond_site_symmetry_2
Li0 O0 2.040407 1_555
Li0 O8 2.040407 1_555
Li0 O13 2.069067 1_555
Li0 O1 2.069067 1_555
Li0 O15 2.097773 1_545
Li0 O3 2.097773 1_655
Li1 O4 1.958504 1_555
Li1 O14 2.009659 1_455
Li1 O9 2.082957 1_555
Li1 O2 2.091615 1_555
Li1 O8 2.113105 1_455
Li1 O1 2.120010 1_455
Li2 O5 2.042091 1_555
Li2 O9 2.042091 1_555
Li2 O10 2.072278 1_555
Li2 O2 2.072278 1_555
Li2 O15 2.130486 1_455
Li2 O3 2.130486 1_565
Li3 O11 1.968935 1_555
Li3 O4 1.991417 1_555
Li3 O6 2.049549 1_555
Li3 O3 2.132952 1_555
Li3 O8 2.163549 1_455
Li3 O10 2.186494 1_545
Li4 O11 2.042724 1_555
Li4 O7 2.042724 1_555
Li4 O12 2.123244 1_555
Li4 O4 2.123244 1_555
Li4 O5 2.141227 1_555
Li4 O9 2.141227 1_555
Li5 O12 1.958504 1_555
Li5 O6 2.009659 1_565
Li5 O5 2.082957 1_555
Li5 O10 2.091615 1_555
Li5 O0 2.113105 1_565
Li5 O13 2.120010 1_565
Li6 O7 2.012901 1_555
Li6 O11 2.012901 1_555
Li6 O6 2.105457 1_555
Li6 O14 2.105457 1_555
Li6 O1 2.153744 1_555
Li6 O13 2.153744 1_555
Li7 O7 1.968935 1_555
Li7 O12 1.991417 1_555
Li7 O14 2.049549 1_555
Li7 O15 2.132952 1_555
Li7 O0 2.163549 1_565
Li7 O2 2.186494 1_655
Li8 O12 1.983362 1_554
Li8 O4 1.983362 1_555
Li8 O7 2.020539 1_555
Li8 O11 2.020539 1_554
Li8 O14 2.071920 1_554
Li8 O6 2.071920 1_555
Mn0 O2 1.890915 1_555
Mn0 O10 1.890915 1_554
Mn0 O15 1.908406 1_454
Mn0 O3 1.908406 1_565
Mn0 O8 1.913794 1_464
Mn0 O0 1.913794 1_465
Mn1 O6 1.841770 1_555
Mn1 O14 1.841770 1_554
Mn1 O1 1.902684 1_555
Mn1 O13 1.902684 1_554
Mn1 O8 1.974668 1_554
Mn1 O0 1.974668 1_555
Co0 O4 1.879967 1_556
Co0 O11 1.883434 1_555
Co0 O9 1.900394 1_555
Co0 O3 1.944747 1_556
Co0 O1 1.968649 1_456
Co0 O8 1.979555 1_455
Co1 O12 1.885357 1_554
Co1 O4 1.885357 1_555
Co1 O5 1.912163 1_555
Co1 O9 1.912163 1_554
Co1 O2 1.960156 1_555
Co1 O10 1.960156 1_554
Co2 O11 1.892074 1_555
Co2 O6 1.911601 1_556
Co2 O13 1.918059 1_555
Co2 O3 1.928554 1_556
Co2 O5 1.939944 1_546
Co2 O10 1.942295 1_545
Co3 O12 1.879967 1_554
Co3 O7 1.883434 1_555
Co3 O5 1.900394 1_555
Co3 O15 1.944747 1_554
Co3 O13 1.968649 1_564
Co3 O0 1.979555 1_565
Co4 O7 1.892074 1_555
Co4 O14 1.911601 1_554
Co4 O1 1.918059 1_555
Co4 O15 1.928554 1_554
Co4 O9 1.939944 1_654
Co4 O2 1.942295 1_655
