# generated using pymatgen
data_P2H12N8O3
_symmetry_space_group_name_H-M   'P 1'
_cell_length_a   5.63536100
_cell_length_b   8.15482812
_cell_length_c   11.27586648
_cell_angle_alpha   94.89147015
_cell_angle_beta   98.59010967
_cell_angle_gamma   101.05403289
_symmetry_Int_Tables_number   1
_chemical_formula_structural   P2H12N8O3
_chemical_formula_sum   'P4 H24 N16 O6'
_cell_volume   499.39174564
_cell_formula_units_Z   2
loop_
 _symmetry_equiv_pos_site_id
 _symmetry_equiv_pos_as_xyz
  1  'x, y, z'
loop_
 _atom_site_type_symbol
 _atom_site_label
 _atom_site_symmetry_multiplicity
 _atom_site_fract_x
 _atom_site_fract_y
 _atom_site_fract_z
 _atom_site_occupancy
  P  P0  1  0.00250700  0.75732500  0.87135700  1
  P  P1  1  0.99749300  0.24267500  0.12864300  1
  P  P2  1  0.70127100  0.80523000  0.65190300  1
  P  P3  1  0.29872900  0.19477000  0.34809700  1
  H  H0  1  0.76514400  0.55054700  0.58236800  1
  H  H1  1  0.23485600  0.44945300  0.41763200  1
  H  H2  1  0.75319500  0.67930300  0.46942700  1
  H  H3  1  0.24680500  0.32069700  0.53057300  1
  H  H4  1  0.01624300  0.00773100  0.61599300  1
  H  H5  1  0.98375700  0.99226900  0.38400700  1
  H  H6  1  0.78413000  0.09226300  0.65448500  1
  H  H7  1  0.21587000  0.90773700  0.34551500  1
  H  H8  1  0.34196800  0.83793800  0.54065900  1
  H  H9  1  0.65803200  0.16206200  0.45934100  1
  H  H10  1  0.28818800  0.72334000  0.65720700  1
  H  H11  1  0.71181200  0.27666000  0.34279300  1
  H  H12  1  0.06635400  0.73264800  0.07240700  1
  H  H13  1  0.93364600  0.26735200  0.92759300  1
  H  H14  1  0.76202400  0.68083800  0.01506400  1
  H  H15  1  0.23797600  0.31916200  0.98493600  1
  H  H16  1  0.28591100  0.58682200  0.85365600  1
  H  H17  1  0.71408900  0.41317800  0.14634400  1
  H  H18  1  0.00139000  0.49450600  0.77912800  1
  H  H19  1  0.99861000  0.50549400  0.22087200  1
  H  H20  1  0.35937500  0.91836700  0.83574600  1
  H  H21  1  0.64062500  0.08163300  0.16425400  1
  H  H22  1  0.22295500  0.02659900  0.93509100  1
  H  H23  1  0.77704500  0.97340100  0.06490900  1
  N  N0  1  0.79629700  0.67112100  0.56049900  1
  N  N1  1  0.20370300  0.32887900  0.43950100  1
  N  N2  1  0.83102300  0.98869100  0.61344300  1
  N  N3  1  0.16897700  0.01130900  0.38655700  1
  N  N4  1  0.40756400  0.81359800  0.62517000  1
  N  N5  1  0.59243600  0.18640200  0.37483000  1
  N  N6  1  0.92942100  0.75065000  0.00796500  1
  N  N7  1  0.07057900  0.24935000  0.99203500  1
  N  N8  1  0.12212600  0.60574300  0.81132800  1
  N  N9  1  0.87787400  0.39425700  0.18867200  1
  N  N10  1  0.24239700  0.91271600  0.89672400  1
  N  N11  1  0.75760300  0.08728400  0.10327600  1
  N  N12  1  0.74999300  0.76343800  0.78745800  1
  N  N13  1  0.25000700  0.23656200  0.21254200  1
  N  N14  1  0.51020100  0.31982100  0.76116200  1
  N  N15  1  0.48979900  0.68017900  0.23883800  1
  O  O0  1  0.55568300  0.35467300  0.87490900  1
  O  O1  1  0.44431700  0.64532700  0.12509100  1
  O  O2  1  0.68749800  0.31378000  0.70257900  1
  O  O3  1  0.31250200  0.68622000  0.29742100  1
  O  O4  1  0.29193900  0.29188700  0.70485900  1
  O  O5  1  0.70806100  0.70811300  0.29514100  1
loop_
_geom_bond_atom_site_label_1
_geom_bond_atom_site_label_2
_geom_bond_distance
_geom_bond_site_symmetry_2
H0 N0 1.022994 1_555
H1 N1 1.022994 1_555
H2 N0 1.030239 1_555
H3 N1 1.030239 1_555
H4 N2 1.021049 1_445
H5 N3 1.021049 1_665
H6 N2 1.026077 1_545
H7 N3 1.026077 1_565
H8 N4 1.019456 1_555
H9 N5 1.019456 1_555
H10 N4 1.026098 1_555
H11 N5 1.026098 1_555
H12 N6 1.019389 1_455
H13 N7 1.019389 1_655
H14 N6 1.022154 1_555
H15 N7 1.022154 1_555
H16 N8 1.019356 1_555
H17 N9 1.019356 1_555
H18 N8 1.025175 1_555
H19 N9 1.025175 1_555
H20 N10 1.019122 1_555
H21 N11 1.019122 1_555
H22 N10 1.022889 1_545
H23 N11 1.022889 1_565
N0 P2 1.655988 1_555
N1 P3 1.655988 1_555
N2 P2 1.657376 1_555
N3 P3 1.657376 1_555
N4 P2 1.653119 1_555
N5 P3 1.653119 1_555
N6 P0 1.655467 1_654
N7 P1 1.655467 1_456
N8 P0 1.659435 1_555
N9 P1 1.659435 1_555
N10 P0 1.637342 1_555
N11 P1 1.637342 1_555
N12 P2 1.589717 1_555
N12 P0 1.598595 1_655
N13 P3 1.589717 1_555
N13 P1 1.598595 1_455
N14 O4 1.265872 1_555
N14 O0 1.266183 1_555
N14 O2 1.283564 1_555
N15 O5 1.265872 1_555
N15 O1 1.266183 1_555
N15 O3 1.283564 1_555
