# generated using pymatgen
data_BaMgSn
_symmetry_space_group_name_H-M   'P 1'
_cell_length_a   5.00226100
_cell_length_b   5.00226100
_cell_length_c   8.44130400
_cell_angle_alpha   90.00000000
_cell_angle_beta   90.00000000
_cell_angle_gamma   90.00000000
_symmetry_Int_Tables_number   1
_chemical_formula_structural   BaMgSn
_chemical_formula_sum   'Ba2 Mg2 Sn2'
_cell_volume   211.22350104
_cell_formula_units_Z   2
loop_
 _symmetry_equiv_pos_site_id
 _symmetry_equiv_pos_as_xyz
  1  'x, y, z'
loop_
 _atom_site_type_symbol
 _atom_site_label
 _atom_site_symmetry_multiplicity
 _atom_site_fract_x
 _atom_site_fract_y
 _atom_site_fract_z
 _atom_site_occupancy
  Ba  Ba0  1  0.00000000  0.00000000  0.00000000  1
  Ba  Ba1  1  0.50000000  0.50000000  0.00000000  1
  Mg  Mg0  1  0.00000000  0.50000000  0.64063800  1
  Mg  Mg1  1  0.50000000  0.00000000  0.35936200  1
  Sn  Sn0  1  0.00000000  0.50000000  0.30261900  1
  Sn  Sn1  1  0.50000000  0.00000000  0.69738100  1
loop_
_geom_bond_atom_site_label_1
_geom_bond_atom_site_label_2
_geom_bond_distance
_geom_bond_site_symmetry_2
Ba0 Ba1 3.537133 1_445
Ba0 Ba1 3.537133 1_455
Ba0 Ba1 3.537133 1_545
Ba0 Ba1 3.537133 1_555
Ba0 Sn1 3.575069 1_554
Ba0 Sn0 3.575069 1_555
Ba0 Sn1 3.575069 1_454
Ba0 Sn0 3.575069 1_545
Ba0 Mg0 3.931625 1_544
Ba0 Mg0 3.931625 1_554
Ba0 Mg1 3.931625 1_555
Ba0 Mg1 3.931625 1_455
Ba1 Sn1 3.575069 1_564
Ba1 Sn1 3.575069 1_554
Ba1 Sn0 3.575069 1_555
Ba1 Sn0 3.575069 1_655
Ba1 Mg0 3.931625 1_654
Ba1 Mg0 3.931625 1_554
Ba1 Mg1 3.931625 1_555
Ba1 Mg1 3.931625 1_565
Mg0 Sn0 2.853321 1_555
Mg1 Sn1 2.853321 1_555
