# generated using pymatgen
data_CsMg6SbO8
_symmetry_space_group_name_H-M   'P 1'
_cell_length_a   9.11384481
_cell_length_b   4.78604028
_cell_length_c   4.78604028
_cell_angle_alpha   90.00000000
_cell_angle_beta   90.00000000
_cell_angle_gamma   90.00000000
_symmetry_Int_Tables_number   1
_chemical_formula_structural   CsMg6SbO8
_chemical_formula_sum   'Cs1 Mg6 Sb1 O8'
_cell_volume   208.76338394
_cell_formula_units_Z   1
loop_
 _symmetry_equiv_pos_site_id
 _symmetry_equiv_pos_as_xyz
  1  'x, y, z'
loop_
 _atom_site_type_symbol
 _atom_site_label
 _atom_site_symmetry_multiplicity
 _atom_site_fract_x
 _atom_site_fract_y
 _atom_site_fract_z
 _atom_site_occupancy
  Cs  Cs0  1  -0.00000000  0.00000000  0.00000000  1
  Mg  Mg0  1  0.50000000  0.00000000  0.00000000  1
  Mg  Mg1  1  0.50000000  0.50000000  0.50000000  1
  Mg  Mg2  1  0.27497244  -0.00000000  0.50000000  1
  Mg  Mg3  1  0.72502756  0.00000000  0.50000000  1
  Mg  Mg4  1  0.27497244  0.50000000  -0.00000000  1
  Mg  Mg5  1  0.72502756  0.50000000  0.00000000  1
  Sb  Sb0  1  -0.00000000  0.50000000  0.50000000  1
  O  O0  1  0.29078031  0.00000000  0.00000000  1
  O  O1  1  0.70921969  -0.00000000  -0.00000000  1
  O  O2  1  0.26604551  0.50000000  0.50000000  1
  O  O3  1  0.73395449  0.50000000  0.50000000  1
  O  O4  1  -0.00000000  0.00000000  0.50000000  1
  O  O5  1  0.50000000  0.00000000  0.50000000  1
  O  O6  1  -0.00000000  0.50000000  0.00000000  1
  O  O7  1  0.50000000  0.50000000  0.00000000  1
loop_
_geom_bond_atom_site_label_1
_geom_bond_atom_site_label_2
_geom_bond_distance
_geom_bond_site_symmetry_2
Cs0 O6 2.393020 1_555
Cs0 O4 2.393020 1_555
Cs0 O4 2.393020 1_554
Cs0 O6 2.393020 1_545
Cs0 O1 2.650127 1_455
Cs0 O0 2.650127 1_555
Mg0 O0 1.906796 1_555
Mg0 O1 1.906796 1_555
Mg0 O7 2.393020 1_545
Mg0 O7 2.393020 1_555
Mg0 O5 2.393020 1_554
Mg0 O5 2.393020 1_555
Mg1 O2 2.132225 1_555
Mg1 O3 2.132225 1_555
Mg1 O7 2.393020 1_555
Mg1 O7 2.393020 1_556
Mg1 O5 2.393020 1_555
Mg1 O5 2.393020 1_565
Mg2 O5 2.050866 1_555
Mg2 O2 2.394403 1_555
Mg2 O2 2.394403 1_545
Mg2 O0 2.397353 1_555
Mg2 O0 2.397353 1_556
Mg2 O4 2.506056 1_555
Mg3 O5 2.050866 1_555
Mg3 O3 2.394403 1_545
Mg3 O3 2.394403 1_555
Mg3 O1 2.397353 1_555
Mg3 O1 2.397353 1_556
Mg3 O4 2.506056 1_655
Mg4 O7 2.050866 1_555
Mg4 O2 2.394403 1_555
Mg4 O2 2.394403 1_554
Mg4 O0 2.397353 1_555
Mg4 O0 2.397353 1_565
Mg4 O6 2.506056 1_555
Mg5 O7 2.050866 1_555
Mg5 O3 2.394403 1_555
Mg5 O3 2.394403 1_554
Mg5 O1 2.397353 1_555
Mg5 O1 2.397353 1_565
Mg5 O6 2.506056 1_655
O2 Sb0 2.424697 1_555
O3 Sb0 2.424697 1_655
O4 Sb0 2.393020 1_545
O4 Sb0 2.393020 1_555
O6 Sb0 2.393020 1_555
O6 Sb0 2.393020 1_554
