# generated using pymatgen
data_BaNaMg6
_symmetry_space_group_name_H-M   'P 1'
_cell_length_a   5.38615000
_cell_length_b   6.68111300
_cell_length_c   12.86992900
_cell_angle_alpha   90.00000000
_cell_angle_beta   90.00000000
_cell_angle_gamma   90.00000000
_symmetry_Int_Tables_number   1
_chemical_formula_structural   BaNaMg6
_chemical_formula_sum   'Ba2 Na2 Mg12'
_cell_volume   463.13053125
_cell_formula_units_Z   2
loop_
 _symmetry_equiv_pos_site_id
 _symmetry_equiv_pos_as_xyz
  1  'x, y, z'
loop_
 _atom_site_type_symbol
 _atom_site_label
 _atom_site_symmetry_multiplicity
 _atom_site_fract_x
 _atom_site_fract_y
 _atom_site_fract_z
 _atom_site_occupancy
  Ba  Ba0  1  0.50000000  0.50000000  0.17770200  1
  Ba  Ba1  1  0.50000000  0.00000000  0.67770200  1
  Na  Na0  1  0.50000000  0.00000000  0.16871500  1
  Na  Na1  1  0.50000000  0.50000000  0.66871500  1
  Mg  Mg0  1  0.50000000  0.25338300  0.42444600  1
  Mg  Mg1  1  0.50000000  0.74661700  0.42444600  1
  Mg  Mg2  1  0.00000000  0.75821400  0.06153000  1
  Mg  Mg3  1  0.00000000  0.24178600  0.06153000  1
  Mg  Mg4  1  0.00000000  0.00000000  0.33244700  1
  Mg  Mg5  1  0.00000000  0.50000000  0.34918000  1
  Mg  Mg6  1  0.50000000  0.75338300  0.92444600  1
  Mg  Mg7  1  0.50000000  0.24661700  0.92444600  1
  Mg  Mg8  1  0.00000000  0.25821400  0.56153000  1
  Mg  Mg9  1  0.00000000  0.74178600  0.56153000  1
  Mg  Mg10  1  0.00000000  0.50000000  0.83244700  1
  Mg  Mg11  1  0.00000000  0.00000000  0.84918000  1
loop_
_geom_bond_atom_site_label_1
_geom_bond_atom_site_label_2
_geom_bond_distance
_geom_bond_site_symmetry_2
Ba0 Na0 3.342558 1_565
Ba0 Na0 3.342558 1_555
Ba0 Mg5 3.481825 1_655
Ba0 Mg5 3.481825 1_555
Ba0 Mg2 3.530470 1_655
Ba0 Mg2 3.530470 1_555
Ba0 Mg3 3.530470 1_555
Ba0 Mg3 3.530470 1_655
Ba0 Mg1 3.577587 1_555
Ba0 Mg0 3.577587 1_555
Ba0 Mg6 3.672798 1_554
Ba0 Mg7 3.672798 1_554
Ba1 Na1 3.342558 1_545
Ba1 Na1 3.342558 1_555
Ba1 Mg11 3.481825 1_555
Ba1 Mg11 3.481825 1_655
Ba1 Mg8 3.530470 1_655
Ba1 Mg8 3.530470 1_555
Ba1 Mg9 3.530470 1_545
Ba1 Mg9 3.530470 1_645
Ba1 Mg7 3.577587 1_555
Ba1 Mg6 3.577587 1_545
Ba1 Mg0 3.672798 1_555
Ba1 Mg1 3.672798 1_545
Mg0 Mg8 3.219676 1_555
Mg0 Mg8 3.219676 1_655
Mg0 Mg1 3.295352 1_555
Mg0 Mg5 3.302394 1_655
Mg0 Mg5 3.302394 1_555
Mg0 Mg1 3.385761 1_545
Mg0 Mg4 3.394172 1_655
Mg0 Mg4 3.394172 1_555
Mg0 Na1 3.549344 1_555
Mg0 Na0 3.701095 1_555
Mg1 Mg9 3.219676 1_655
Mg1 Mg9 3.219676 1_555
Mg1 Mg5 3.302394 1_555
Mg1 Mg5 3.302394 1_655
Mg1 Mg4 3.394172 1_665
Mg1 Mg4 3.394172 1_565
Mg1 Na1 3.549344 1_555
Mg1 Na0 3.701095 1_565
Mg2 Mg6 3.219676 1_554
Mg2 Mg6 3.219676 1_454
Mg2 Mg3 3.230799 1_565
Mg2 Na0 3.430027 1_565
Mg2 Na0 3.430027 1_465
Mg2 Mg3 3.450314 1_555
Mg3 Mg7 3.219676 1_554
Mg3 Mg7 3.219676 1_454
Mg3 Na0 3.430027 1_455
Mg3 Na0 3.430027 1_555
Mg4 Mg5 3.347491 1_555
Mg4 Mg5 3.347491 1_545
Mg4 Mg8 3.415923 1_555
Mg4 Mg9 3.415923 1_545
Mg4 Na0 3.419507 1_455
Mg4 Na0 3.419507 1_555
Mg5 Mg8 3.174653 1_555
Mg5 Mg9 3.174653 1_555
Mg6 Mg7 3.295352 1_565
Mg6 Mg7 3.385761 1_555
Mg6 Na0 3.549344 1_566
Mg6 Na1 3.701095 1_555
Mg7 Na0 3.549344 1_556
Mg7 Na1 3.701095 1_555
Mg8 Mg9 3.230799 1_555
Mg8 Na1 3.430027 1_455
Mg8 Na1 3.430027 1_555
Mg8 Mg9 3.450314 1_545
Mg9 Na1 3.430027 1_455
Mg9 Na1 3.430027 1_555
Mg10 Mg11 3.347491 1_565
Mg10 Mg11 3.347491 1_555
Mg10 Mg6 3.394172 1_455
Mg10 Mg6 3.394172 1_555
Mg10 Mg7 3.394172 1_455
Mg10 Mg7 3.394172 1_555
Mg10 Mg2 3.415923 1_556
Mg10 Mg3 3.415923 1_556
Mg10 Na1 3.419507 1_555
Mg10 Na1 3.419507 1_455
Mg11 Mg3 3.174653 1_556
Mg11 Mg2 3.174653 1_546
Mg11 Mg7 3.302394 1_455
Mg11 Mg7 3.302394 1_555
Mg11 Mg6 3.302394 1_445
Mg11 Mg6 3.302394 1_545
