# generated using pymatgen
data_AlV2
_symmetry_space_group_name_H-M   'P 1'
_cell_length_a   13.30381949
_cell_length_b   13.03416046
_cell_length_c   5.21479622
_cell_angle_alpha   81.50065246
_cell_angle_beta   75.68959467
_cell_angle_gamma   22.80975287
_symmetry_Int_Tables_number   1
_chemical_formula_structural   AlV2
_chemical_formula_sum   'Al8 V16'
_cell_volume   331.88008282
_cell_formula_units_Z   8
loop_
 _symmetry_equiv_pos_site_id
 _symmetry_equiv_pos_as_xyz
  1  'x, y, z'
loop_
 _atom_site_type_symbol
 _atom_site_label
 _atom_site_symmetry_multiplicity
 _atom_site_fract_x
 _atom_site_fract_y
 _atom_site_fract_z
 _atom_site_occupancy
  Al  Al0_0  1  0.00000000  0.00000000  0.00000000  1
  Al  Al0_1  1  0.00000000  0.00000000  0.50000000  1
  Al  Al0_2  1  0.00000000  0.50000000  0.00000000  1
  Al  Al0_3  1  0.00000000  0.50000000  0.50000000  1
  Al  Al0_4  1  0.50000000  0.00000000  0.00000000  1
  Al  Al0_5  1  0.50000000  0.00000000  0.50000000  1
  Al  Al0_6  1  0.50000000  0.50000000  0.00000000  1
  Al  Al0_7  1  0.50000000  0.50000000  0.50000000  1
  V  V0_0  1  0.16512432  0.16512432  0.33487568  1
  V  V0_1  1  0.16512432  0.16512432  0.83487568  1
  V  V0_2  1  0.16512432  0.66512432  0.33487568  1
  V  V0_3  1  0.16512432  0.66512432  0.83487568  1
  V  V0_4  1  0.66512432  0.16512432  0.33487568  1
  V  V0_5  1  0.66512432  0.16512432  0.83487568  1
  V  V0_6  1  0.66512432  0.66512432  0.33487568  1
  V  V0_7  1  0.66512432  0.66512432  0.83487568  1
  V  V1_0  1  0.33487568  0.33487568  0.16512432  1
  V  V1_1  1  0.33487568  0.33487568  0.66512432  1
  V  V1_2  1  0.33487568  0.83487568  0.16512432  1
  V  V1_3  1  0.33487568  0.83487568  0.66512432  1
  V  V1_4  1  0.83487568  0.33487568  0.16512432  1
  V  V1_5  1  0.83487568  0.33487568  0.66512432  1
  V  V1_6  1  0.83487568  0.83487568  0.16512432  1
  V  V1_7  1  0.83487568  0.83487568  0.66512432  1
loop_
_geom_bond_atom_site_label_1
_geom_bond_atom_site_label_2
_geom_bond_distance
_geom_bond_site_symmetry_2
Al0_0 Al0_1 2.607398 1_554
Al0_0 Al0_6 2.607398 1_545
Al0_0 Al0_1 2.607398 1_555
Al0_0 Al0_6 2.607398 1_455
Al0_0 V0_3 2.667855 1_544
Al0_0 V0_4 2.667855 1_455
Al0_0 V1_4 2.667855 1_455
Al0_0 V1_3 2.667855 1_544
Al0_1 Al0_7 2.607398 1_455
Al0_1 Al0_7 2.607398 1_545
Al0_1 V0_5 2.667855 1_455
Al0_1 V0_2 2.667855 1_545
Al0_1 V1_5 2.667855 1_455
Al0_1 V1_2 2.667855 1_545
Al0_2 Al0_3 2.607398 1_555
Al0_2 Al0_4 2.607398 1_555
Al0_2 Al0_4 2.607398 1_465
Al0_2 Al0_3 2.607398 1_554
Al0_2 V0_1 2.667855 1_554
Al0_2 V0_6 2.667855 1_455
Al0_2 V1_6 2.667855 1_455
Al0_2 V1_1 2.667855 1_554
Al0_3 Al0_5 2.607398 1_555
Al0_3 Al0_5 2.607398 1_465
Al0_3 V0_7 2.667855 1_455
Al0_3 V1_7 2.667855 1_455
Al0_3 V0_0 2.667855 1_555
Al0_3 V1_0 2.667855 1_555
Al0_4 Al0_5 2.607398 1_555
Al0_4 Al0_5 2.607398 1_554
Al0_4 V0_7 2.667855 1_544
Al0_4 V0_0 2.667855 1_555
Al0_4 V1_7 2.667855 1_544
Al0_4 V1_0 2.667855 1_555
Al0_5 V0_1 2.667855 1_555
Al0_5 V0_6 2.667855 1_545
Al0_5 V1_6 2.667855 1_545
Al0_5 V1_1 2.667855 1_555
Al0_6 Al0_7 2.607398 1_555
Al0_6 Al0_7 2.607398 1_554
Al0_6 V0_5 2.667855 1_554
Al0_6 V0_2 2.667855 1_555
Al0_6 V1_2 2.667855 1_555
Al0_6 V1_5 2.667855 1_554
Al0_7 V0_3 2.667855 1_555
Al0_7 V0_4 2.667855 1_555
Al0_7 V1_4 2.667855 1_555
Al0_7 V1_3 2.667855 1_555
V0_0 V1_2 2.574674 1_545
V0_0 V1_5 2.574674 1_455
V0_0 V0_1 2.607398 1_554
V0_0 V0_6 2.607398 1_545
V0_0 V0_1 2.607398 1_555
V0_0 V0_6 2.607398 1_455
V0_1 V1_3 2.574674 1_545
V0_1 V1_4 2.574674 1_456
V0_1 V0_7 2.607398 1_455
V0_1 V0_7 2.607398 1_545
V0_2 V1_7 2.574674 1_455
V0_2 V1_0 2.574674 1_555
V0_2 V0_3 2.607398 1_555
V0_2 V0_4 2.607398 1_555
V0_2 V0_4 2.607398 1_465
V0_2 V0_3 2.607398 1_554
V0_3 V1_1 2.574674 1_555
V0_3 V1_6 2.574674 1_456
V0_3 V0_5 2.607398 1_465
V0_3 V0_5 2.607398 1_555
V0_4 V1_1 2.574674 1_555
V0_4 V1_6 2.574674 1_545
V0_4 V0_5 2.607398 1_554
V0_4 V0_5 2.607398 1_555
V0_5 V1_0 2.574674 1_556
V0_5 V1_7 2.574674 1_545
V0_6 V1_3 2.574674 1_555
V0_6 V1_4 2.574674 1_555
V0_6 V0_7 2.607398 1_554
V0_6 V0_7 2.607398 1_555
V0_7 V1_5 2.574674 1_555
V0_7 V1_2 2.574674 1_556
V1_0 V1_1 2.607398 1_554
V1_0 V1_6 2.607398 1_545
V1_0 V1_1 2.607398 1_555
V1_0 V1_6 2.607398 1_455
V1_1 V1_7 2.607398 1_455
V1_1 V1_7 2.607398 1_545
V1_2 V1_3 2.607398 1_555
V1_2 V1_4 2.607398 1_555
V1_2 V1_4 2.607398 1_465
V1_2 V1_3 2.607398 1_554
V1_3 V1_5 2.607398 1_465
V1_3 V1_5 2.607398 1_555
V1_4 V1_5 2.607398 1_554
V1_4 V1_5 2.607398 1_555
V1_6 V1_7 2.607398 1_555
V1_6 V1_7 2.607398 1_554
