# generated using pymatgen
data_Ba3AlN3
_symmetry_space_group_name_H-M   'P 1'
_cell_length_a   8.38481600
_cell_length_b   8.38455607
_cell_length_c   5.60998100
_cell_angle_alpha   90.00000000
_cell_angle_beta   90.00000000
_cell_angle_gamma   120.00165442
_symmetry_Int_Tables_number   1
_chemical_formula_structural   Ba3AlN3
_chemical_formula_sum   'Ba6 Al2 N6'
_cell_volume   341.55322603
_cell_formula_units_Z   2
loop_
 _symmetry_equiv_pos_site_id
 _symmetry_equiv_pos_as_xyz
  1  'x, y, z'
loop_
 _atom_site_type_symbol
 _atom_site_label
 _atom_site_symmetry_multiplicity
 _atom_site_fract_x
 _atom_site_fract_y
 _atom_site_fract_z
 _atom_site_occupancy
  Ba  Ba0  1  0.94233500  0.63672300  0.25000000  1
  Ba  Ba1  1  0.69438700  0.05766200  0.25000000  1
  Ba  Ba2  1  0.36327600  0.30561400  0.25000000  1
  Ba  Ba3  1  0.05766500  0.36327700  0.75000000  1
  Ba  Ba4  1  0.30561300  0.94233800  0.75000000  1
  Ba  Ba5  1  0.63672400  0.69438600  0.75000000  1
  Al  Al0  1  0.66665600  0.33332800  0.75000000  1
  Al  Al1  1  0.33334400  0.66667200  0.25000000  1
  N  N0  1  0.87540900  0.56575100  0.75000000  1
  N  N1  1  0.69034500  0.12459700  0.75000000  1
  N  N2  1  0.43425300  0.30965600  0.75000000  1
  N  N3  1  0.12459100  0.43424900  0.25000000  1
  N  N4  1  0.30965500  0.87540300  0.25000000  1
  N  N5  1  0.56574700  0.69034400  0.25000000  1
loop_
_geom_bond_atom_site_label_1
_geom_bond_atom_site_label_2
_geom_bond_distance
_geom_bond_site_symmetry_2
Ba0 N4 2.706815 1_655
Ba0 N3 2.794965 1_655
Ba0 N0 2.864094 1_554
Ba0 N0 2.864094 1_555
Ba0 N5 3.404762 1_555
Ba1 N5 2.706747 1_545
Ba1 N4 2.794960 1_545
Ba1 N1 2.864107 1_555
Ba1 N1 2.864107 1_554
Ba1 N3 3.404609 1_655
Ba2 N3 2.706884 1_555
Ba2 N5 2.794854 1_555
Ba2 N2 2.864110 1_555
Ba2 N2 2.864110 1_554
Ba2 N4 3.404653 1_545
Ba3 N1 2.706815 1_455
Ba3 N0 2.794965 1_455
Ba3 N3 2.864094 1_555
Ba3 N3 2.864094 1_556
Ba3 N2 3.404762 1_555
Ba4 N2 2.706747 1_565
Ba4 N1 2.794960 1_565
Ba4 N4 2.864107 1_556
Ba4 N4 2.864107 1_555
Ba4 N0 3.404609 1_455
Ba5 N0 2.706884 1_555
Ba5 N2 2.794854 1_555
Ba5 N5 2.864110 1_556
Ba5 N5 2.864110 1_555
Ba5 N1 3.404653 1_565
Al0 N2 1.857382 1_555
Al0 N1 1.857418 1_555
Al0 N0 1.857478 1_555
Al1 N5 1.857382 1_555
Al1 N4 1.857418 1_555
Al1 N3 1.857478 1_555
