# generated using pymatgen
data_SnPbO3
_symmetry_space_group_name_H-M   'P 1'
_cell_length_a   5.83809600
_cell_length_b   8.18661500
_cell_length_c   11.82027700
_cell_angle_alpha   90.00000000
_cell_angle_beta   90.00000000
_cell_angle_gamma   90.00000000
_symmetry_Int_Tables_number   1
_chemical_formula_structural   SnPbO3
_chemical_formula_sum   'Sn8 Pb8 O24'
_cell_volume   564.94120645
_cell_formula_units_Z   8
loop_
 _symmetry_equiv_pos_site_id
 _symmetry_equiv_pos_as_xyz
  1  'x, y, z'
loop_
 _atom_site_type_symbol
 _atom_site_label
 _atom_site_symmetry_multiplicity
 _atom_site_fract_x
 _atom_site_fract_y
 _atom_site_fract_z
 _atom_site_occupancy
  Sn  Sn0  1  0.24912700  0.24994800  0.12511300  1
  Sn  Sn1  1  0.24912700  0.75005200  0.12511300  1
  Sn  Sn2  1  0.25087300  0.75005200  0.62511300  1
  Sn  Sn3  1  0.25087300  0.24994800  0.62511300  1
  Sn  Sn4  1  0.74912700  0.75005200  0.37488700  1
  Sn  Sn5  1  0.74912700  0.24994800  0.37488700  1
  Sn  Sn6  1  0.75087300  0.24994800  0.87488700  1
  Sn  Sn7  1  0.75087300  0.75005200  0.87488700  1
  Pb  Pb0  1  0.23134000  0.50000000  0.37200400  1
  Pb  Pb1  1  0.22662600  0.00000000  0.37897100  1
  Pb  Pb2  1  0.27337400  0.00000000  0.87897100  1
  Pb  Pb3  1  0.26866000  0.50000000  0.87200400  1
  Pb  Pb4  1  0.73134000  0.50000000  0.12799600  1
  Pb  Pb5  1  0.72662600  0.00000000  0.12102900  1
  Pb  Pb6  1  0.77337400  0.00000000  0.62102900  1
  Pb  Pb7  1  0.76866000  0.50000000  0.62799600  1
  O  O0  1  0.00000000  0.21556900  0.00000000  1
  O  O1  1  0.00000000  0.78443100  0.00000000  1
  O  O2  1  0.00000000  0.20237700  0.50000000  1
  O  O3  1  0.00000000  0.79762300  0.50000000  1
  O  O4  1  0.02988300  0.28790700  0.26100200  1
  O  O5  1  0.02988300  0.71209300  0.26100200  1
  O  O6  1  0.20624600  0.50000000  0.59040900  1
  O  O7  1  0.22618700  0.00000000  0.66123800  1
  O  O8  1  0.27381300  0.00000000  0.16123800  1
  O  O9  1  0.29375400  0.50000000  0.09040900  1
  O  O10  1  0.47011700  0.28790700  0.76100200  1
  O  O11  1  0.47011700  0.71209300  0.76100200  1
  O  O12  1  0.50000000  0.20237700  0.00000000  1
  O  O13  1  0.50000000  0.79762300  0.00000000  1
  O  O14  1  0.50000000  0.78443100  0.50000000  1
  O  O15  1  0.50000000  0.21556900  0.50000000  1
  O  O16  1  0.52988300  0.71209300  0.23899800  1
  O  O17  1  0.52988300  0.28790700  0.23899800  1
  O  O18  1  0.70624600  0.50000000  0.90959100  1
  O  O19  1  0.72618700  0.00000000  0.83876200  1
  O  O20  1  0.77381300  0.00000000  0.33876200  1
  O  O21  1  0.79375400  0.50000000  0.40959100  1
  O  O22  1  0.97011700  0.28790700  0.73899800  1
  O  O23  1  0.97011700  0.71209300  0.73899800  1
loop_
_geom_bond_atom_site_label_1
_geom_bond_atom_site_label_2
_geom_bond_distance
_geom_bond_site_symmetry_2
O0 Sn0 2.093234 1_555
O0 Sn6 2.093234 1_454
O0 Pb5 2.776368 1_455
O0 Pb2 2.776368 1_554
O1 Sn7 2.093234 1_454
O1 Sn1 2.093234 1_555
O1 Pb5 2.776368 1_465
O1 Pb2 2.776368 1_564
O2 Sn3 2.117508 1_555
O2 Sn5 2.117508 1_455
O2 Pb6 2.557740 1_455
O2 Pb1 2.557740 1_555
O3 Sn4 2.117508 1_455
O3 Sn2 2.117508 1_555
O3 Pb1 2.557740 1_565
O3 Pb6 2.557740 1_465
O4 Sn0 2.077236 1_555
O4 Sn5 2.143660 1_455
O4 Pb0 2.473789 1_555
O5 Sn1 2.077236 1_555
O5 Sn4 2.143660 1_455
O5 Pb0 2.473789 1_555
O6 Sn3 2.103969 1_555
O6 Sn2 2.103969 1_555
O6 Pb0 2.585761 1_555
O6 Pb7 2.593015 1_455
O7 Sn2 2.095270 1_545
O7 Sn3 2.095270 1_555
O7 Pb2 2.588366 1_555
O7 Pb6 2.685951 1_455
O8 Sn1 2.095270 1_545
O8 Sn0 2.095270 1_555
O8 Pb1 2.588366 1_555
O8 Pb5 2.685951 1_555
O9 Sn0 2.103969 1_555
O9 Sn1 2.103969 1_555
O9 Pb3 2.585761 1_554
O9 Pb4 2.593015 1_555
O10 Sn3 2.077236 1_555
O10 Sn6 2.143660 1_555
O10 Pb3 2.473789 1_555
O11 Sn2 2.077236 1_555
O11 Sn7 2.143660 1_555
O11 Pb3 2.473789 1_555
O12 Sn0 2.117508 1_555
O12 Sn6 2.117508 1_554
O12 Pb2 2.557740 1_554
O12 Pb5 2.557740 1_555
O13 Sn7 2.117508 1_554
O13 Sn1 2.117508 1_555
O13 Pb5 2.557740 1_565
O13 Pb2 2.557740 1_564
O14 Sn4 2.093234 1_555
O14 Sn2 2.093234 1_555
O14 Pb1 2.776368 1_565
O14 Pb6 2.776368 1_565
O15 Sn5 2.093234 1_555
O15 Sn3 2.093234 1_555
O15 Pb1 2.776368 1_555
O15 Pb6 2.776368 1_555
O16 Sn4 2.077236 1_555
O16 Sn1 2.143660 1_555
O16 Pb4 2.473789 1_555
O17 Sn5 2.077236 1_555
O17 Sn0 2.143660 1_555
O17 Pb4 2.473789 1_555
O18 Sn6 2.103969 1_555
O18 Sn7 2.103969 1_555
O18 Pb4 2.585761 1_556
O18 Pb3 2.593015 1_555
O19 Sn7 2.095270 1_545
O19 Sn6 2.095270 1_555
O19 Pb6 2.588366 1_555
O19 Pb2 2.685951 1_555
O20 Sn4 2.095270 1_545
O20 Sn5 2.095270 1_555
O20 Pb5 2.588366 1_555
O20 Pb1 2.685951 1_655
O21 Sn4 2.103969 1_555
O21 Sn5 2.103969 1_555
O21 Pb7 2.585761 1_555
O21 Pb0 2.593015 1_655
O22 Sn6 2.077236 1_555
O22 Sn3 2.143660 1_655
O22 Pb7 2.473789 1_555
O23 Sn7 2.077236 1_555
O23 Sn2 2.143660 1_655
O23 Pb7 2.473789 1_555
