# generated using pymatgen
data_MgFe8(O7F)2
_symmetry_space_group_name_H-M   'P 1'
_cell_length_a   7.30933740
_cell_length_b   8.04411766
_cell_length_c   5.91983122
_cell_angle_alpha   115.84345939
_cell_angle_beta   111.19500292
_cell_angle_gamma   79.24091428
_symmetry_Int_Tables_number   1
_chemical_formula_structural   MgFe8(O7F)2
_chemical_formula_sum   'Mg1 Fe8 O14 F2'
_cell_volume   291.89267254
_cell_formula_units_Z   1
loop_
 _symmetry_equiv_pos_site_id
 _symmetry_equiv_pos_as_xyz
  1  'x, y, z'
loop_
 _atom_site_type_symbol
 _atom_site_label
 _atom_site_symmetry_multiplicity
 _atom_site_fract_x
 _atom_site_fract_y
 _atom_site_fract_z
 _atom_site_occupancy
  Mg  Mg0  1  0.25705400  0.23663000  0.96473800  1
  Fe  Fe0  1  0.75412900  0.23655600  0.49386100  1
  Fe  Fe1  1  0.54264700  0.96426500  0.99074100  1
  Fe  Fe2  1  0.22390700  0.31142200  0.48210000  1
  Fe  Fe3  1  0.75711400  0.77594300  0.47664200  1
  Fe  Fe4  1  0.50023700  0.53300000  0.97397700  1
  Fe  Fe5  1  0.00898600  0.95149300  0.03647400  1
  Fe  Fe6  1  0.26031700  0.74520500  0.50364000  1
  Fe  Fe7  1  0.98369600  0.52090700  0.99679300  1
  O  O0  1  0.98645200  0.17798900  0.34309200  1
  O  O1  1  0.95335500  0.25937200  0.82927200  1
  O  O2  1  0.55905500  0.22187100  0.15404400  1
  O  O3  1  0.34118800  0.99934100  0.70715600  1
  O  O4  1  0.51869700  0.33452800  0.65643000  1
  O  O5  1  0.77349400  0.57628900  0.15180800  1
  O  O6  1  0.73954400  0.91511800  0.81793500  1
  O  O7  1  0.23884300  0.44322000  0.84987300  1
  O  O8  1  0.49217500  0.68579700  0.32543200  1
  O  O9  1  0.69682800  0.96791800  0.32558200  1
  O  O10  1  0.19273100  0.47151700  0.30287000  1
  O  O11  1  0.44418300  0.72577300  0.83559900  1
  O  O12  1  0.07863500  0.76668700  0.17528100  1
  O  O13  1  0.02874500  0.81144400  0.66120100  1
  F  F0  1  0.81641100  0.51510100  0.64187900  1
  F  F1  1  0.26824400  0.07483800  0.16072000  1
loop_
_geom_bond_atom_site_label_1
_geom_bond_atom_site_label_2
_geom_bond_distance
_geom_bond_site_symmetry_2
Mg0 O3 2.012220 1_545
Mg0 O7 2.019636 1_555
Mg0 O1 2.072032 1_455
Mg0 O2 2.090957 1_556
Mg0 O10 2.202121 1_556
Fe0 O1 1.946298 1_555
Fe0 O2 1.968618 1_555
Fe0 O9 1.999241 1_545
Fe0 O0 2.081546 1_555
Fe0 O4 2.130383 1_555
Fe1 O2 1.872288 1_566
Fe1 O3 1.880580 1_555
Fe1 O11 1.882390 1_555
Fe1 O9 1.883172 1_556
Fe1 O6 1.942575 1_555
Fe2 O0 1.932468 1_455
Fe2 O7 1.932594 1_555
Fe2 O10 1.934690 1_555
Fe2 O4 2.028985 1_555
Fe3 O6 1.874515 1_555
Fe3 O13 1.894298 1_655
Fe3 O5 1.921888 1_555
Fe3 O8 1.944787 1_555
Fe3 O9 2.010867 1_555
Fe4 O4 1.894020 1_555
Fe4 O5 1.907485 1_556
Fe4 O8 1.917040 1_556
Fe4 O7 1.936336 1_555
Fe4 O11 1.967516 1_555
Fe5 O12 1.903762 1_555
Fe5 O6 1.918540 1_454
Fe5 O0 1.965268 1_465
Fe5 O13 2.052953 1_554
Fe6 O3 1.941401 1_555
Fe6 O12 1.977999 1_555
Fe6 O11 1.993004 1_555
Fe6 O10 2.050328 1_555
Fe6 O13 2.095352 1_555
Fe6 O8 2.182727 1_555
Fe7 O1 1.911787 1_555
Fe7 O12 1.915108 1_656
Fe7 O5 1.951599 1_556
Fe7 O10 2.043172 1_656
Fe7 O7 2.211089 1_655
F0 Fe7 1.997438 1_555
F0 Fe0 2.091948 1_555
F0 Fe3 2.586617 1_555
F1 Fe5 2.043136 1_545
F1 Mg0 2.062667 1_554
F1 Fe2 2.098892 1_555
F1 Fe1 2.416507 1_544
