# generated using pymatgen
data_NaMg6BO8
_symmetry_space_group_name_H-M   'P 1'
_cell_length_a   8.40022376
_cell_length_b   4.27922951
_cell_length_c   4.27922951
_cell_angle_alpha   90.00000000
_cell_angle_beta   90.00000000
_cell_angle_gamma   90.00000000
_symmetry_Int_Tables_number   1
_chemical_formula_structural   NaMg6BO8
_chemical_formula_sum   'Na1 Mg6 B1 O8'
_cell_volume   153.82326112
_cell_formula_units_Z   1
loop_
 _symmetry_equiv_pos_site_id
 _symmetry_equiv_pos_as_xyz
  1  'x, y, z'
loop_
 _atom_site_type_symbol
 _atom_site_label
 _atom_site_symmetry_multiplicity
 _atom_site_fract_x
 _atom_site_fract_y
 _atom_site_fract_z
 _atom_site_occupancy
  Na  Na0  1  0.00000000  -0.00000000  -0.00000000  1
  Mg  Mg0  1  0.50000000  -0.00000000  -0.00000000  1
  Mg  Mg1  1  0.50000000  0.50000000  0.50000000  1
  Mg  Mg2  1  0.22972203  0.00000000  0.50000000  1
  Mg  Mg3  1  0.77027797  -0.00000000  0.50000000  1
  Mg  Mg4  1  0.22972203  0.50000000  0.00000000  1
  Mg  Mg5  1  0.77027797  0.50000000  -0.00000000  1
  B  B0  1  0.00000000  0.50000000  0.50000000  1
  O  O0  1  0.26518080  0.00000000  0.00000000  1
  O  O1  1  0.73481920  -0.00000000  -0.00000000  1
  O  O2  1  0.18100128  0.50000000  0.50000000  1
  O  O3  1  0.81899872  0.50000000  0.50000000  1
  O  O4  1  0.00000000  -0.00000000  0.50000000  1
  O  O5  1  0.50000000  -0.00000000  0.50000000  1
  O  O6  1  0.00000000  0.50000000  -0.00000000  1
  O  O7  1  0.50000000  0.50000000  -0.00000000  1
loop_
_geom_bond_atom_site_label_1
_geom_bond_atom_site_label_2
_geom_bond_distance
_geom_bond_site_symmetry_2
Na0 O4 2.139615 1_555
Na0 O4 2.139615 1_554
Na0 O6 2.139615 1_545
Na0 O6 2.139615 1_555
Na0 O1 2.227578 1_455
Na0 O0 2.227578 1_555
Mg0 O0 1.972534 1_555
Mg0 O1 1.972534 1_555
Mg0 O7 2.139615 1_555
Mg0 O5 2.139615 1_554
Mg0 O5 2.139615 1_555
Mg0 O7 2.139615 1_545
Mg1 O7 2.139615 1_555
Mg1 O7 2.139615 1_556
Mg1 O5 2.139615 1_555
Mg1 O5 2.139615 1_565
Mg1 O3 2.679661 1_555
Mg1 O2 2.679661 1_555
Mg2 O4 1.929716 1_555
Mg2 O0 2.160248 1_555
Mg2 O0 2.160248 1_556
Mg2 O2 2.178405 1_545
Mg2 O2 2.178405 1_555
Mg2 O5 2.270395 1_555
Mg3 O4 1.929716 1_655
Mg3 O1 2.160248 1_556
Mg3 O1 2.160248 1_555
Mg3 O3 2.178405 1_555
Mg3 O3 2.178405 1_545
Mg3 O5 2.270395 1_555
Mg4 O6 1.929716 1_555
Mg4 O0 2.160248 1_555
Mg4 O0 2.160248 1_565
Mg4 O2 2.178405 1_554
Mg4 O2 2.178405 1_555
Mg4 O7 2.270395 1_555
Mg5 O6 1.929716 1_655
Mg5 O1 2.160248 1_565
Mg5 O1 2.160248 1_555
Mg5 O3 2.178405 1_555
Mg5 O3 2.178405 1_554
Mg5 O7 2.270395 1_555
B0 O2 1.520451 1_555
B0 O3 1.520451 1_455
B0 O4 2.139615 1_555
B0 O4 2.139615 1_565
B0 O6 2.139615 1_556
B0 O6 2.139615 1_555
