# generated using pymatgen
data_C3N4
_symmetry_space_group_name_H-M   'P 1'
_cell_length_a   7.14164972
_cell_length_b   7.14164972
_cell_length_c   3.61941700
_cell_angle_alpha   90.00000000
_cell_angle_beta   90.00000000
_cell_angle_gamma   119.99999739
_symmetry_Int_Tables_number   1
_chemical_formula_structural   C3N4
_chemical_formula_sum   'C6 N8'
_cell_volume   159.86977196
_cell_formula_units_Z   2
loop_
 _symmetry_equiv_pos_site_id
 _symmetry_equiv_pos_as_xyz
  1  'x, y, z'
loop_
 _atom_site_type_symbol
 _atom_site_label
 _atom_site_symmetry_multiplicity
 _atom_site_fract_x
 _atom_site_fract_y
 _atom_site_fract_z
 _atom_site_occupancy
  C  C0  1  0.78617500  0.21382500  0.00000000  1
  C  C1  1  0.42765100  0.21382500  0.00000000  1
  C  C2  1  0.78617500  0.57234900  0.00000000  1
  C  C3  1  0.77405100  0.88702600  0.00000000  1
  C  C4  1  0.11297400  0.22594900  0.00000000  1
  C  C5  1  0.11297400  0.88702600  0.00000000  1
  N  N0  1  0.66666700  0.33333300  0.00000000  1
  N  N1  1  0.67014300  0.99806400  0.00000000  1
  N  N2  1  0.32792100  0.32985700  0.00000000  1
  N  N3  1  0.00193600  0.67207900  0.00000000  1
  N  N4  1  0.67014300  0.67207900  0.00000000  1
  N  N5  1  0.00193600  0.32985700  0.00000000  1
  N  N6  1  0.32792100  0.99806400  0.00000000  1
  N  N7  1  0.00000000  0.00000000  0.00000000  1
loop_
_geom_bond_atom_site_label_1
_geom_bond_atom_site_label_2
_geom_bond_distance
_geom_bond_site_symmetry_2
C0 N5 1.335719 1_655
C0 N1 1.335719 1_545
C0 N0 1.478278 1_555
C1 N6 1.335718 1_545
C1 N2 1.335725 1_555
C1 N0 1.478278 1_555
C2 N3 1.335718 1_655
C2 N4 1.335725 1_555
C2 N0 1.478278 1_555
C3 N1 1.329653 1_555
C3 N4 1.329659 1_555
C3 N7 1.397461 1_665
C4 N5 1.329653 1_555
C4 N2 1.329659 1_555
C4 N7 1.397461 1_555
C5 N6 1.329659 1_555
C5 N3 1.329659 1_555
C5 N7 1.397454 1_565
