# generated using pymatgen
data_FeSb2C6(OF2)6
_symmetry_space_group_name_H-M   'P 1'
_cell_length_a   8.37742100
_cell_length_b   8.37742100
_cell_length_c   12.64294100
_cell_angle_alpha   90.00000000
_cell_angle_beta   90.00000000
_cell_angle_gamma   90.00000000
_symmetry_Int_Tables_number   1
_chemical_formula_structural   FeSb2C6(OF2)6
_chemical_formula_sum   'Fe2 Sb4 C12 O12 F24'
_cell_volume   887.29655106
_cell_formula_units_Z   2
loop_
 _symmetry_equiv_pos_site_id
 _symmetry_equiv_pos_as_xyz
  1  'x, y, z'
loop_
 _atom_site_type_symbol
 _atom_site_label
 _atom_site_symmetry_multiplicity
 _atom_site_fract_x
 _atom_site_fract_y
 _atom_site_fract_z
 _atom_site_occupancy
  Fe  Fe0  1  0.50000000  0.50000000  0.50000000  1
  Fe  Fe1  1  0.00000000  0.00000000  0.00000000  1
  Sb  Sb0  1  0.50000000  0.00000000  0.75000000  1
  Sb  Sb1  1  0.00000000  0.50000000  0.75000000  1
  Sb  Sb2  1  0.50000000  0.00000000  0.25000000  1
  Sb  Sb3  1  0.00000000  0.50000000  0.25000000  1
  C  C0  1  0.11893200  0.80995900  0.00000000  1
  C  C1  1  0.38106800  0.30995900  0.50000000  1
  C  C2  1  0.00000000  0.00000000  0.14802900  1
  C  C3  1  0.50000000  0.50000000  0.35197100  1
  C  C4  1  0.00000000  0.00000000  0.85197100  1
  C  C5  1  0.50000000  0.50000000  0.64802900  1
  C  C6  1  0.61893200  0.69004100  0.50000000  1
  C  C7  1  0.80995900  0.88106800  0.00000000  1
  C  C8  1  0.30995900  0.61893200  0.50000000  1
  C  C9  1  0.69004100  0.38106800  0.50000000  1
  C  C10  1  0.19004100  0.11893200  0.00000000  1
  C  C11  1  0.88106800  0.19004100  0.00000000  1
  O  O0  1  0.69014400  0.80537400  0.50000000  1
  O  O1  1  0.50000000  0.50000000  0.73791300  1
  O  O2  1  0.00000000  0.00000000  0.76208700  1
  O  O3  1  0.50000000  0.50000000  0.26208700  1
  O  O4  1  0.00000000  0.00000000  0.23791300  1
  O  O5  1  0.30985600  0.19462600  0.50000000  1
  O  O6  1  0.30537400  0.19014400  0.00000000  1
  O  O7  1  0.80985600  0.30537400  0.00000000  1
  O  O8  1  0.19014400  0.69462600  0.00000000  1
  O  O9  1  0.80537400  0.30985600  0.50000000  1
  O  O10  1  0.19462600  0.69014400  0.50000000  1
  O  O11  1  0.69462600  0.80985600  0.00000000  1
  F  F0  1  0.33840700  0.16159300  0.75000000  1
  F  F1  1  0.16159300  0.66159300  0.25000000  1
  F  F2  1  0.83840700  0.33840700  0.75000000  1
  F  F3  1  0.39245000  0.87970000  0.35843400  1
  F  F4  1  0.16159300  0.66159300  0.75000000  1
  F  F5  1  0.66159300  0.83840700  0.75000000  1
  F  F6  1  0.62030000  0.10755000  0.14156600  1
  F  F7  1  0.89245000  0.62030000  0.14156600  1
  F  F8  1  0.10755000  0.37970000  0.14156600  1
  F  F9  1  0.12030000  0.39245000  0.35843400  1
  F  F10  1  0.87970000  0.60755000  0.35843400  1
  F  F11  1  0.37970000  0.89245000  0.14156600  1
  F  F12  1  0.60755000  0.12030000  0.35843400  1
  F  F13  1  0.83840700  0.33840700  0.25000000  1
  F  F14  1  0.37970000  0.89245000  0.85843400  1
  F  F15  1  0.10755000  0.37970000  0.85843400  1
  F  F16  1  0.89245000  0.62030000  0.85843400  1
  F  F17  1  0.87970000  0.60755000  0.64156600  1
  F  F18  1  0.12030000  0.39245000  0.64156600  1
  F  F19  1  0.62030000  0.10755000  0.85843400  1
  F  F20  1  0.39245000  0.87970000  0.64156600  1
  F  F21  1  0.60755000  0.12030000  0.64156600  1
  F  F22  1  0.33840700  0.16159300  0.25000000  1
  F  F23  1  0.66159300  0.83840700  0.25000000  1
loop_
_geom_bond_atom_site_label_1
_geom_bond_atom_site_label_2
_geom_bond_distance
_geom_bond_site_symmetry_2
C0 O8 1.135530 1_555
C0 Fe1 1.878120 1_565
C1 O5 1.135530 1_555
C1 Fe0 1.878120 1_555
C2 O4 1.136398 1_555
C2 Fe1 1.871522 1_555
C3 O3 1.136398 1_555
C3 Fe0 1.871522 1_555
C4 O2 1.136398 1_555
C4 Fe1 1.871522 1_556
C5 O1 1.136398 1_555
C5 Fe0 1.871522 1_555
C6 O0 1.135530 1_555
C6 Fe0 1.878120 1_555
C7 O11 1.135530 1_555
C7 Fe1 1.878120 1_665
C8 O10 1.135530 1_555
C8 Fe0 1.878120 1_555
C9 O9 1.135530 1_555
C9 Fe0 1.878120 1_555
C10 O6 1.135530 1_555
C10 Fe1 1.878120 1_555
C11 O7 1.135530 1_555
C11 Fe1 1.878120 1_655
F0 Sb0 1.914467 1_555
F1 Sb3 1.914467 1_555
F2 Sb1 1.914467 1_655
F3 Sb2 1.925328 1_565
F4 Sb1 1.914467 1_555
F5 Sb0 1.914467 1_565
F6 Sb2 1.925328 1_555
F7 Sb3 1.925328 1_655
F8 Sb3 1.925328 1_555
F9 Sb3 1.925328 1_555
F10 Sb3 1.925328 1_655
F11 Sb2 1.925328 1_565
F12 Sb2 1.925328 1_555
F13 Sb3 1.914467 1_655
F14 Sb0 1.925328 1_565
F15 Sb1 1.925328 1_555
F16 Sb1 1.925328 1_655
F17 Sb1 1.925328 1_655
F18 Sb1 1.925328 1_555
F19 Sb0 1.925328 1_555
F20 Sb0 1.925328 1_565
F21 Sb0 1.925328 1_555
F22 Sb2 1.914467 1_555
F23 Sb2 1.914467 1_565
