# generated using pymatgen
data_CrMo2N3
_symmetry_space_group_name_H-M   'P 1'
_cell_length_a   6.12625343
_cell_length_b   2.82149749
_cell_length_c   11.33742935
_cell_angle_alpha   89.99999719
_cell_angle_beta   22.28408299
_cell_angle_gamma   76.68648960
_symmetry_Int_Tables_number   1
_chemical_formula_structural   CrMo2N3
_chemical_formula_sum   'Cr1 Mo2 N3'
_cell_volume   59.03978765
_cell_formula_units_Z   1
loop_
 _symmetry_equiv_pos_site_id
 _symmetry_equiv_pos_as_xyz
  1  'x, y, z'
loop_
 _atom_site_type_symbol
 _atom_site_label
 _atom_site_symmetry_multiplicity
 _atom_site_fract_x
 _atom_site_fract_y
 _atom_site_fract_z
 _atom_site_occupancy
  Cr  Cr0  1  0.00000000  0.00000000  0.00000000  1
  Mo  Mo0  1  0.00000000  0.00000000  0.64690000  1
  Mo  Mo1  1  0.00000000  0.00000000  0.35310000  1
  N  N0  1  0.00000000  0.50000000  0.50000000  1
  N  N1  1  0.00000000  0.00000000  0.82707700  1
  N  N2  1  0.00000000  0.00000000  0.17292300  1
loop_
_geom_bond_atom_site_label_1
_geom_bond_atom_site_label_2
_geom_bond_distance
_geom_bond_site_symmetry_2
Cr0 N0 1.845655 1_644
Cr0 N0 1.845655 1_455
Cr0 N2 1.960502 1_555
Cr0 N1 1.960502 1_554
Mo0 N1 2.042744 1_555
Mo0 N0 2.182658 1_555
Mo0 N0 2.182658 1_545
Mo0 N2 2.341730 1_456
Mo0 N2 2.341730 1_655
Mo0 N2 2.341730 1_645
Mo0 N2 2.341730 1_466
Mo1 N2 2.042744 1_555
Mo1 N0 2.182658 1_545
Mo1 N0 2.182658 1_555
Mo1 N1 2.341730 1_654
Mo1 N1 2.341730 1_455
Mo1 N1 2.341730 1_465
Mo1 N1 2.341730 1_644
