# generated using pymatgen
data_PrUN2
_symmetry_space_group_name_H-M   'P 1'
_cell_length_a   6.20340256
_cell_length_b   6.20340256
_cell_length_c   6.20340331
_cell_angle_alpha   33.20437938
_cell_angle_beta   33.20437938
_cell_angle_gamma   33.20436943
_symmetry_Int_Tables_number   1
_chemical_formula_structural   PrUN2
_chemical_formula_sum   'Pr1 U1 N2'
_cell_volume   63.73117747
_cell_formula_units_Z   1
loop_
 _symmetry_equiv_pos_site_id
 _symmetry_equiv_pos_as_xyz
  1  'x, y, z'
loop_
 _atom_site_type_symbol
 _atom_site_label
 _atom_site_symmetry_multiplicity
 _atom_site_fract_x
 _atom_site_fract_y
 _atom_site_fract_z
 _atom_site_occupancy
  Pr  Pr0  1  0.00000000  -0.00000000  0.00000000  1
  U  U0  1  0.50000000  0.50000000  0.50000000  1
  N  N0  1  0.23397619  0.23397619  0.23397619  1
  N  N1  1  0.76602381  0.76602381  0.76602381  1
loop_
_geom_bond_atom_site_label_1
_geom_bond_atom_site_label_2
_geom_bond_distance
_geom_bond_site_symmetry_2
N0 U0 2.363719 1_545
N0 U0 2.363719 1_455
N0 U0 2.363720 1_554
N0 Pr0 2.689925 1_655
N0 Pr0 2.689925 1_565
N0 Pr0 2.689926 1_556
N1 U0 2.363719 1_565
N1 U0 2.363719 1_655
N1 U0 2.363720 1_556
N1 Pr0 2.689925 1_656
N1 Pr0 2.689925 1_566
N1 Pr0 2.689926 1_665
