# generated using pymatgen
data_LiTi(SiO3)2
_symmetry_space_group_name_H-M   'P 1'
_cell_length_a   6.61366893
_cell_length_b   6.61366893
_cell_length_c   5.32000770
_cell_angle_alpha   75.21482436
_cell_angle_beta   75.21482436
_cell_angle_gamma   81.96363488
_symmetry_Int_Tables_number   1
_chemical_formula_structural   LiTi(SiO3)2
_chemical_formula_sum   'Li2 Ti2 Si4 O12'
_cell_volume   216.85069963
_cell_formula_units_Z   2
loop_
 _symmetry_equiv_pos_site_id
 _symmetry_equiv_pos_as_xyz
  1  'x, y, z'
loop_
 _atom_site_type_symbol
 _atom_site_label
 _atom_site_symmetry_multiplicity
 _atom_site_fract_x
 _atom_site_fract_y
 _atom_site_fract_z
 _atom_site_occupancy
  Li  Li0  1  0.72911900  0.27088100  0.25000000  1
  Li  Li1  1  0.27088100  0.72911900  0.75000000  1
  Ti  Ti0  1  0.91195200  0.08804800  0.75000000  1
  Ti  Ti1  1  0.08804800  0.91195200  0.25000000  1
  Si  Si0  1  0.79598400  0.61018300  0.77844100  1
  Si  Si1  1  0.38981700  0.20401600  0.72155900  1
  Si  Si2  1  0.20401600  0.38981700  0.22155900  1
  Si  Si3  1  0.61018300  0.79598400  0.27844100  1
  O  O0  1  0.36606600  0.34069500  0.42288500  1
  O  O1  1  0.65930500  0.63393400  0.07711500  1
  O  O2  1  0.88624600  0.36728900  0.82676600  1
  O  O3  1  0.63271100  0.11375400  0.67323400  1
  O  O4  1  0.63393400  0.65930500  0.57711500  1
  O  O5  1  0.34069500  0.36606600  0.92288500  1
  O  O6  1  0.78504700  0.97218600  0.16370000  1
  O  O7  1  0.02781400  0.21495300  0.33630000  1
  O  O8  1  0.21495300  0.02781400  0.83630000  1
  O  O9  1  0.97218600  0.78504700  0.66370000  1
  O  O10  1  0.36728900  0.88624600  0.32676600  1
  O  O11  1  0.11375400  0.63271100  0.17323400  1
loop_
_geom_bond_atom_site_label_1
_geom_bond_atom_site_label_2
_geom_bond_distance
_geom_bond_site_symmetry_2
Li0 O6 2.102859 1_545
Li0 O7 2.102859 1_655
Li0 O3 2.194193 1_555
Li0 O2 2.194193 1_554
Li0 O0 2.367293 1_555
Li0 O1 2.367293 1_555
Li1 O9 2.102859 1_455
Li1 O8 2.102859 1_565
Li1 O11 2.194193 1_556
Li1 O10 2.194193 1_555
Li1 O4 2.367293 1_555
Li1 O5 2.367293 1_555
O0 Si2 1.646897 1_555
O0 Si1 1.649592 1_555
O1 Si3 1.646897 1_555
O1 Si0 1.649592 1_554
O2 Si0 1.613213 1_555
O2 Ti0 1.966752 1_555
O3 Si1 1.613213 1_555
O3 Ti0 1.966752 1_555
O4 Si0 1.646897 1_555
O4 Si3 1.649592 1_555
O5 Si1 1.646897 1_555
O5 Si2 1.649592 1_556
O6 Si3 1.649715 1_555
O6 Ti0 2.124093 1_564
O6 Ti1 2.130333 1_655
O7 Si2 1.649715 1_555
O7 Ti0 2.124093 1_455
O7 Ti1 2.130333 1_545
O8 Si1 1.649715 1_555
O8 Ti1 2.124093 1_546
O8 Ti0 2.130333 1_455
O9 Si0 1.649715 1_555
O9 Ti1 2.124093 1_655
O9 Ti0 2.130333 1_565
O10 Si3 1.613213 1_555
O10 Ti1 1.966752 1_555
O11 Si2 1.613213 1_555
O11 Ti1 1.966752 1_555
