# generated using pymatgen
data_Li9Co7O16
_symmetry_space_group_name_H-M   'P 1'
_cell_length_a   2.98362000
_cell_length_b   9.74424399
_cell_length_c   10.11371034
_cell_angle_alpha   77.44947545
_cell_angle_beta   89.18801387
_cell_angle_gamma   88.67283281
_symmetry_Int_Tables_number   1
_chemical_formula_structural   Li9Co7O16
_chemical_formula_sum   'Li9 Co7 O16'
_cell_volume   286.92146617
_cell_formula_units_Z   1
loop_
 _symmetry_equiv_pos_site_id
 _symmetry_equiv_pos_as_xyz
  1  'x, y, z'
loop_
 _atom_site_type_symbol
 _atom_site_label
 _atom_site_symmetry_multiplicity
 _atom_site_fract_x
 _atom_site_fract_y
 _atom_site_fract_z
 _atom_site_occupancy
  Li  Li0  1  0.00286200  0.49977200  0.75578900  1
  Li  Li1  1  0.50217300  0.24895700  0.37283200  1
  Li  Li2  1  0.00000000  0.00000000  0.00000000  1
  Li  Li3  1  0.49782700  0.75104300  0.62716800  1
  Li  Li4  1  0.49889500  0.24849600  0.87855900  1
  Li  Li5  1  0.00000000  0.00000000  0.50000000  1
  Li  Li6  1  0.50110500  0.75150400  0.12144100  1
  Li  Li7  1  0.99713800  0.50022800  0.24421100  1
  Li  Li8  1  0.50000000  0.50000000  0.00000000  1
  Co  Co0  1  0.00171100  0.73959300  0.87926500  1
  Co  Co1  1  0.99828900  0.26040700  0.12073500  1
  Co  Co2  1  0.50000000  0.50000000  0.50000000  1
  Co  Co3  1  0.50303000  0.99724700  0.75063000  1
  Co  Co4  1  0.00249900  0.75075100  0.36963800  1
  Co  Co5  1  0.99750100  0.24924900  0.63036200  1
  Co  Co6  1  0.49697000  0.00275300  0.24937000  1
  O  O0  1  0.47001400  0.63408600  0.81733200  1
  O  O1  1  0.98796000  0.37705700  0.44991500  1
  O  O2  1  0.45889900  0.12575400  0.07406100  1
  O  O3  1  0.00872900  0.86963400  0.70390600  1
  O  O4  1  0.99749000  0.35988600  0.95553600  1
  O  O5  1  0.50323400  0.12236900  0.57301400  1
  O  O6  1  0.00128900  0.87809300  0.19581200  1
  O  O7  1  0.51246400  0.62964500  0.31615700  1
  O  O8  1  0.48753600  0.37035500  0.68384300  1
  O  O9  1  0.99127100  0.13036600  0.29609400  1
  O  O10  1  0.54110100  0.87424600  0.92593900  1
  O  O11  1  0.01204000  0.62294300  0.55008500  1
  O  O12  1  0.99871100  0.12190700  0.80418800  1
  O  O13  1  0.49676600  0.87763100  0.42698600  1
  O  O14  1  0.00251000  0.64011400  0.04446400  1
  O  O15  1  0.52998600  0.36591400  0.18266800  1
loop_
_geom_bond_atom_site_label_1
_geom_bond_atom_site_label_2
_geom_bond_distance
_geom_bond_site_symmetry_2
Li0 O8 2.120239 1_555
Li0 O0 2.122772 1_555
Li0 O11 2.164295 1_555
Li0 O4 2.177783 1_455
Li0 O0 2.203966 1_455
Li0 O8 2.236985 1_455
Li1 O15 2.012938 1_555
Li1 O9 2.084891 1_555
Li1 O5 2.129586 1_555
Li1 O9 2.183165 1_455
Li1 O1 2.192120 1_555
Li1 O1 2.195448 1_455
Li2 O12 2.076209 1_454
Li2 O6 2.076209 1_545
Li2 O2 2.107827 1_555
Li2 O10 2.107827 1_444
Li2 O10 2.223060 1_544
Li2 O2 2.223060 1_455
Li3 O0 2.012938 1_555
Li3 O3 2.084891 1_555
Li3 O13 2.129586 1_555
Li3 O3 2.183165 1_655
Li3 O11 2.192120 1_555
Li3 O11 2.195448 1_655
Li4 O8 2.067131 1_555
Li4 O4 2.069120 1_455
Li4 O2 2.080001 1_556
Li4 O4 2.114732 1_555
Li4 O12 2.144154 1_555
Li4 O12 2.198809 1_455
Li5 O13 2.105632 1_545
Li5 O5 2.105632 1_455
Li5 O13 2.172213 1_445
Li5 O5 2.172213 1_555
Li5 O9 2.174559 1_455
Li5 O3 2.174559 1_545
Li6 O7 2.067131 1_555
Li6 O14 2.069120 1_655
Li6 O10 2.080001 1_554
Li6 O14 2.114732 1_555
Li6 O6 2.144154 1_555
Li6 O6 2.198809 1_655
Li7 O7 2.120239 1_555
Li7 O15 2.122772 1_555
Li7 O1 2.164295 1_555
Li7 O14 2.177783 1_655
Li7 O15 2.203966 1_655
Li7 O7 2.236985 1_655
Li8 O15 2.019510 1_555
Li8 O0 2.019510 1_554
Li8 O4 2.103220 1_554
Li8 O14 2.103220 1_555
Li8 O14 2.166782 1_655
Li8 O4 2.166782 1_454
Co0 O14 1.739906 1_556
Co0 O0 1.894755 1_555
Co0 O3 1.942937 1_555
Co0 O10 2.000084 1_455
Co0 O0 2.085543 1_455
Co0 O10 2.218760 1_555
Co1 O4 1.739906 1_554
Co1 O15 1.894755 1_555
Co1 O9 1.942937 1_555
Co1 O2 2.000084 1_655
Co1 O15 2.085543 1_655
Co1 O2 2.218760 1_555
Co2 O1 1.993340 1_555
Co2 O11 1.993340 1_555
Co2 O8 2.008434 1_555
Co2 O7 2.008434 1_555
Co2 O11 2.096705 1_655
Co2 O1 2.096705 1_455
Co3 O10 1.915435 1_555
Co3 O5 1.939473 1_565
Co3 O3 2.048013 1_655
Co3 O12 2.052132 1_465
Co3 O3 2.074781 1_555
Co3 O12 2.085195 1_565
Co4 O6 1.918930 1_555
Co4 O11 1.973437 1_555
Co4 O7 2.042342 1_555
Co4 O7 2.050020 1_455
Co4 O13 2.083797 1_455
Co4 O13 2.111886 1_555
Co5 O12 1.918930 1_555
Co5 O1 1.973437 1_555
Co5 O8 2.042342 1_555
Co5 O8 2.050020 1_655
Co5 O5 2.083797 1_655
Co5 O5 2.111886 1_555
Co6 O2 1.915435 1_555
Co6 O13 1.939473 1_545
Co6 O9 2.048013 1_455
Co6 O6 2.052132 1_645
Co6 O9 2.074781 1_555
Co6 O6 2.085195 1_545
