# generated using pymatgen
data_Tb2(Ni2B)5
_symmetry_space_group_name_H-M   'P 1'
_cell_length_a   9.02213600
_cell_length_b   9.49121300
_cell_length_c   17.59174400
_cell_angle_alpha   90.00000000
_cell_angle_beta   90.00000000
_cell_angle_gamma   90.00000000
_symmetry_Int_Tables_number   1
_chemical_formula_structural   Tb2(Ni2B)5
_chemical_formula_sum   'Tb16 Ni80 B40'
_cell_volume   1506.39888539
_cell_formula_units_Z   8
loop_
 _symmetry_equiv_pos_site_id
 _symmetry_equiv_pos_as_xyz
  1  'x, y, z'
loop_
 _atom_site_type_symbol
 _atom_site_label
 _atom_site_symmetry_multiplicity
 _atom_site_fract_x
 _atom_site_fract_y
 _atom_site_fract_z
 _atom_site_occupancy
  Tb  Tb0  1  0.12496000  0.85810700  0.27811400  1
  Tb  Tb1  1  0.37504000  0.14189300  0.77811400  1
  Tb  Tb2  1  0.62496000  0.64189300  0.72188600  1
  Tb  Tb3  1  0.87504000  0.35810700  0.22188600  1
  Tb  Tb4  1  0.87504000  0.14189300  0.72188600  1
  Tb  Tb5  1  0.62496000  0.85810700  0.22188600  1
  Tb  Tb6  1  0.37504000  0.35810700  0.27811400  1
  Tb  Tb7  1  0.12496000  0.64189300  0.77811400  1
  Tb  Tb8  1  0.21869200  0.88707100  0.47976400  1
  Tb  Tb9  1  0.28130800  0.11292900  0.97976400  1
  Tb  Tb10  1  0.71869200  0.61292900  0.52023600  1
  Tb  Tb11  1  0.78130800  0.38707100  0.02023600  1
  Tb  Tb12  1  0.78130800  0.11292900  0.52023600  1
  Tb  Tb13  1  0.71869200  0.88707100  0.02023600  1
  Tb  Tb14  1  0.28130800  0.38707100  0.47976400  1
  Tb  Tb15  1  0.21869200  0.61292900  0.97976400  1
  Ni  Ni0  1  0.12157600  0.96127300  0.72706500  1
  Ni  Ni1  1  0.37842400  0.03872700  0.22706500  1
  Ni  Ni2  1  0.62157600  0.53872700  0.27293500  1
  Ni  Ni3  1  0.87842400  0.46127300  0.77293500  1
  Ni  Ni4  1  0.87842400  0.03872700  0.27293500  1
  Ni  Ni5  1  0.62157600  0.96127300  0.77293500  1
  Ni  Ni6  1  0.37842400  0.46127300  0.72706500  1
  Ni  Ni7  1  0.12157600  0.53872700  0.22706500  1
  Ni  Ni8  1  0.12642100  0.17626700  0.23708200  1
  Ni  Ni9  1  0.37357900  0.82373300  0.73708200  1
  Ni  Ni10  1  0.62642100  0.32373300  0.76291800  1
  Ni  Ni11  1  0.87357900  0.67626700  0.26291800  1
  Ni  Ni12  1  0.87357900  0.82373300  0.76291800  1
  Ni  Ni13  1  0.62642100  0.17626700  0.26291800  1
  Ni  Ni14  1  0.37357900  0.67626700  0.23708200  1
  Ni  Ni15  1  0.12642100  0.32373300  0.73708200  1
  Ni  Ni16  1  0.07885500  0.88648500  0.01554800  1
  Ni  Ni17  1  0.42114500  0.11351500  0.51554800  1
  Ni  Ni18  1  0.57885500  0.61351500  0.98445200  1
  Ni  Ni19  1  0.92114500  0.38648500  0.48445200  1
  Ni  Ni20  1  0.92114500  0.11351500  0.98445200  1
  Ni  Ni21  1  0.57885500  0.88648500  0.48445200  1
  Ni  Ni22  1  0.42114500  0.38648500  0.01554800  1
  Ni  Ni23  1  0.07885500  0.61351500  0.51554800  1
  Ni  Ni24  1  0.16170300  0.78121600  0.62776600  1
  Ni  Ni25  1  0.33829700  0.21878400  0.12776600  1
  Ni  Ni26  1  0.66170300  0.71878400  0.37223400  1
  Ni  Ni27  1  0.83829700  0.28121600  0.87223400  1
  Ni  Ni28  1  0.83829700  0.21878400  0.37223400  1
  Ni  Ni29  1  0.66170300  0.78121600  0.87223400  1
  Ni  Ni30  1  0.33829700  0.28121600  0.62776600  1
  Ni  Ni31  1  0.16170300  0.71878400  0.12776600  1
  Ni  Ni32  1  0.17693000  0.99432000  0.13139300  1
  Ni  Ni33  1  0.32307000  0.00568000  0.63139300  1
  Ni  Ni34  1  0.67693000  0.50568000  0.86860700  1
  Ni  Ni35  1  0.82307000  0.49432000  0.36860700  1
  Ni  Ni36  1  0.82307000  0.00568000  0.86860700  1
  Ni  Ni37  1  0.67693000  0.99432000  0.36860700  1
  Ni  Ni38  1  0.32307000  0.49432000  0.13139300  1
  Ni  Ni39  1  0.17693000  0.50568000  0.63139300  1
  Ni  Ni40  1  0.23018900  0.89304400  0.86507800  1
  Ni  Ni41  1  0.26981100  0.10695600  0.36507800  1
  Ni  Ni42  1  0.73018900  0.60695600  0.13492200  1
  Ni  Ni43  1  0.76981100  0.39304400  0.63492200  1
  Ni  Ni44  1  0.76981100  0.10695600  0.13492200  1
  Ni  Ni45  1  0.73018900  0.89304400  0.63492200  1
  Ni  Ni46  1  0.26981100  0.39304400  0.86507800  1
  Ni  Ni47  1  0.23018900  0.60695600  0.36507800  1
  Ni  Ni48  1  0.08920700  0.14703200  0.84992000  1
  Ni  Ni49  1  0.41079300  0.85296800  0.34992000  1
  Ni  Ni50  1  0.58920700  0.35296800  0.15008000  1
  Ni  Ni51  1  0.91079300  0.64703200  0.65008000  1
  Ni  Ni52  1  0.91079300  0.85296800  0.15008000  1
  Ni  Ni53  1  0.58920700  0.14703200  0.65008000  1
  Ni  Ni54  1  0.41079300  0.64703200  0.84992000  1
  Ni  Ni55  1  0.08920700  0.35296800  0.34992000  1
  Ni  Ni56  1  0.04394600  0.02146700  0.59644700  1
  Ni  Ni57  1  0.45605400  0.97853300  0.09644700  1
  Ni  Ni58  1  0.54394600  0.47853300  0.40355300  1
  Ni  Ni59  1  0.95605400  0.52146700  0.90355300  1
  Ni  Ni60  1  0.95605400  0.97853300  0.40355300  1
  Ni  Ni61  1  0.54394600  0.02146700  0.90355300  1
  Ni  Ni62  1  0.45605400  0.52146700  0.59644700  1
  Ni  Ni63  1  0.04394600  0.47853300  0.09644700  1
  Ni  Ni64  1  0.04466500  0.21804300  0.09881500  1
  Ni  Ni65  1  0.45533500  0.78195700  0.59881500  1
  Ni  Ni66  1  0.54466500  0.28195700  0.90118500  1
  Ni  Ni67  1  0.95533500  0.71804300  0.40118500  1
  Ni  Ni68  1  0.95533500  0.78195700  0.90118500  1
  Ni  Ni69  1  0.54466500  0.21804300  0.40118500  1
  Ni  Ni70  1  0.45533500  0.71804300  0.09881500  1
  Ni  Ni71  1  0.04466500  0.28195700  0.59881500  1
  Ni  Ni72  1  0.08188900  0.16670900  0.46888100  1
  Ni  Ni73  1  0.41811100  0.83329100  0.96888100  1
  Ni  Ni74  1  0.58188900  0.33329100  0.53111900  1
  Ni  Ni75  1  0.91811100  0.66670900  0.03111900  1
  Ni  Ni76  1  0.91811100  0.83329100  0.53111900  1
  Ni  Ni77  1  0.58188900  0.16670900  0.03111900  1
  Ni  Ni78  1  0.41811100  0.66670900  0.46888100  1
  Ni  Ni79  1  0.08188900  0.33329100  0.96888100  1
  B  B0  1  0.97615600  0.06452500  0.17659100  1
  B  B1  1  0.52384400  0.93547500  0.67659100  1
  B  B2  1  0.47615600  0.43547500  0.82340900  1
  B  B3  1  0.02384400  0.56452500  0.32340900  1
  B  B4  1  0.02384400  0.93547500  0.82340900  1
  B  B5  1  0.47615600  0.06452500  0.32340900  1
  B  B6  1  0.52384400  0.56452500  0.17659100  1
  B  B7  1  0.97615600  0.43547500  0.67659100  1
  B  B8  1  0.16713600  0.14980500  0.66606400  1
  B  B9  1  0.33286400  0.85019500  0.16606400  1
  B  B10  1  0.66713600  0.35019500  0.33393600  1
  B  B11  1  0.83286400  0.64980500  0.83393600  1
  B  B12  1  0.83286400  0.85019500  0.33393600  1
  B  B13  1  0.66713600  0.14980500  0.83393600  1
  B  B14  1  0.33286400  0.64980500  0.66606400  1
  B  B15  1  0.16713600  0.35019500  0.16606400  1
  B  B16  1  0.04663200  0.14194900  0.34447400  1
  B  B17  1  0.45336800  0.85805100  0.84447400  1
  B  B18  1  0.54663200  0.35805100  0.65552600  1
  B  B19  1  0.95336800  0.64194900  0.15552600  1
  B  B20  1  0.95336800  0.85805100  0.65552600  1
  B  B21  1  0.54663200  0.14194900  0.15552600  1
  B  B22  1  0.45336800  0.64194900  0.34447400  1
  B  B23  1  0.04663200  0.35805100  0.84447400  1
  B  B24  1  0.21324100  0.14828700  0.56106700  1
  B  B25  1  0.28675900  0.85171300  0.06106700  1
  B  B26  1  0.71324100  0.35171300  0.43893300  1
  B  B27  1  0.78675900  0.64828700  0.93893300  1
  B  B28  1  0.78675900  0.85171300  0.43893300  1
  B  B29  1  0.71324100  0.14828700  0.93893300  1
  B  B30  1  0.28675900  0.64828700  0.56106700  1
  B  B31  1  0.21324100  0.35171300  0.06106700  1
  B  B32  1  0.03853800  0.98076300  0.91817900  1
  B  B33  1  0.46146200  0.01923700  0.41817900  1
  B  B34  1  0.53853800  0.51923700  0.08182100  1
  B  B35  1  0.96146200  0.48076300  0.58182100  1
  B  B36  1  0.96146200  0.01923700  0.08182100  1
  B  B37  1  0.53853800  0.98076300  0.58182100  1
  B  B38  1  0.46146200  0.48076300  0.91817900  1
  B  B39  1  0.03853800  0.51923700  0.41817900  1
loop_
_geom_bond_atom_site_label_1
_geom_bond_atom_site_label_2
_geom_bond_distance
_geom_bond_site_symmetry_2
Ni0 Tb4 2.809726 1_465
Ni0 Tb1 2.995781 1_565
Ni0 Tb7 3.161679 1_555
Ni1 Tb5 2.809726 1_545
Ni1 Tb0 2.995781 1_545
Ni1 Tb6 3.161679 1_555
Ni2 Tb6 2.809726 1_555
Ni2 Tb3 2.995781 1_555
Ni2 Tb5 3.161679 1_555
Ni3 Tb7 2.809726 1_655
Ni3 Tb2 2.995781 1_555
Ni3 Tb4 3.161679 1_555
Ni4 Tb0 2.809726 1_645
Ni4 Tb5 2.995781 1_545
Ni4 Tb3 3.161679 1_555
Ni5 Tb1 2.809726 1_565
Ni5 Tb4 2.995781 1_565
Ni5 Tb2 3.161679 1_555
Ni6 Tb2 2.809726 1_555
Ni6 Tb7 2.995781 1_555
Ni6 Tb1 3.161679 1_555
Ni7 Tb3 2.809726 1_455
Ni7 Tb6 2.995781 1_555
Ni7 Tb0 3.161679 1_555
Ni8 Tb3 2.862504 1_455
Ni8 Tb6 2.920802 1_555
Ni8 Tb0 3.104825 1_545
Ni9 Tb2 2.862504 1_555
Ni9 Tb7 2.920802 1_555
Ni9 Tb1 3.104825 1_565
Ni10 Tb1 2.862504 1_555
Ni10 Tb4 2.920802 1_555
Ni10 Tb2 3.104825 1_555
Ni11 Tb0 2.862504 1_655
Ni11 Tb5 2.920802 1_555
Ni11 Tb3 3.104825 1_555
Ni12 Tb7 2.862504 1_655
Ni12 Tb2 2.920802 1_555
Ni12 Tb4 3.104825 1_565
Ni13 Tb6 2.862504 1_555
Ni13 Tb3 2.920802 1_555
Ni13 Tb5 3.104825 1_545
Ni14 Tb5 2.862504 1_555
Ni14 Tb0 2.920802 1_555
Ni14 Tb6 3.104825 1_555
Ni15 Tb4 2.862504 1_455
Ni15 Tb1 2.920802 1_555
Ni15 Tb7 3.104825 1_555
Ni16 Tb9 2.889943 1_564
Ni16 Tb15 2.954515 1_554
Ni16 Tb13 3.250491 1_455
Ni17 Tb8 2.889943 1_545
Ni17 Tb14 2.954515 1_555
Ni17 Tb12 3.250491 1_555
Ni18 Tb11 2.889943 1_556
Ni18 Tb13 2.954515 1_556
Ni18 Tb15 3.250491 1_555
Ni19 Tb10 2.889943 1_555
Ni19 Tb12 2.954515 1_555
Ni19 Tb14 3.250491 1_655
Ni20 Tb13 2.889943 1_546
Ni20 Tb11 2.954515 1_556
Ni20 Tb9 3.250491 1_655
Ni21 Tb12 2.889943 1_565
Ni21 Tb10 2.954515 1_555
Ni21 Tb8 3.250491 1_555
Ni22 Tb15 2.889943 1_554
Ni22 Tb9 2.954515 1_554
Ni22 Tb11 3.250491 1_555
Ni23 Tb14 2.889943 1_555
Ni23 Tb8 2.954515 1_555
Ni23 Tb10 3.250491 1_455
Ni24 Tb8 2.837705 1_555
Ni24 Tb7 2.975550 1_555
Ni25 Tb9 2.837705 1_554
Ni25 Tb6 2.975550 1_555
Ni26 Tb10 2.837705 1_555
Ni26 Tb5 2.975550 1_555
Ni27 Tb11 2.837705 1_556
Ni27 Tb4 2.975550 1_555
Ni28 Tb12 2.837705 1_555
Ni28 Tb3 2.975550 1_555
Ni29 Tb13 2.837705 1_556
Ni29 Tb2 2.975550 1_555
Ni30 Tb14 2.837705 1_555
Ni30 Tb1 2.975550 1_555
Ni31 Tb15 2.837705 1_554
Ni31 Tb0 2.975550 1_555
Ni32 Tb0 2.924588 1_555
Ni32 Tb9 3.044543 1_564
Ni33 Tb1 2.924588 1_555
Ni33 Tb8 3.044543 1_545
Ni34 Tb2 2.924588 1_555
Ni34 Tb11 3.044543 1_556
Ni35 Tb3 2.924588 1_555
Ni35 Tb10 3.044543 1_555
Ni36 Tb4 2.924588 1_555
Ni36 Tb13 3.044543 1_546
Ni37 Tb5 2.924588 1_555
Ni37 Tb12 3.044543 1_565
Ni38 Tb6 2.924588 1_555
Ni38 Tb15 3.044543 1_554
Ni39 Tb7 2.924588 1_555
Ni39 Tb14 3.044543 1_555
Ni40 Tb9 2.939148 1_565
Ni40 Tb7 2.987296 1_555
Ni40 Tb1 3.102709 1_565
Ni40 Tb15 3.339086 1_555
Ni41 Tb8 2.939148 1_545
Ni41 Tb6 2.987296 1_555
Ni41 Tb0 3.102709 1_545
Ni41 Tb14 3.339086 1_555
Ni42 Tb11 2.939148 1_555
Ni42 Tb5 2.987296 1_555
Ni42 Tb3 3.102709 1_555
Ni42 Tb13 3.339086 1_555
Ni43 Tb10 2.939148 1_555
Ni43 Tb4 2.987296 1_555
Ni43 Tb2 3.102709 1_555
Ni43 Tb12 3.339086 1_555
Ni44 Tb13 2.939148 1_545
Ni44 Tb3 2.987296 1_555
Ni44 Tb5 3.102709 1_545
Ni44 Tb11 3.339086 1_555
Ni45 Tb12 2.939148 1_565
Ni45 Tb2 2.987296 1_555
Ni45 Tb4 3.102709 1_565
Ni45 Tb10 3.339086 1_555
Ni46 Tb15 2.939148 1_555
Ni46 Tb1 2.987296 1_555
Ni46 Tb7 3.102709 1_555
Ni46 Tb9 3.339086 1_555
Ni47 Tb14 2.939148 1_555
Ni47 Tb0 2.987296 1_555
Ni47 Tb6 3.102709 1_555
Ni47 Tb8 3.339086 1_555
Ni48 Tb1 2.871997 1_555
Ni48 Tb9 2.885499 1_555
Ni48 Tb4 2.967994 1_455
Ni49 Tb0 2.871997 1_555
Ni49 Tb8 2.885499 1_555
Ni49 Tb5 2.967994 1_555
Ni50 Tb3 2.871997 1_555
Ni50 Tb11 2.885499 1_555
Ni50 Tb6 2.967994 1_555
Ni51 Tb2 2.871997 1_555
Ni51 Tb10 2.885499 1_555
Ni51 Tb7 2.967994 1_655
Ni52 Tb5 2.871997 1_555
Ni52 Tb13 2.885499 1_555
Ni52 Tb0 2.967994 1_655
Ni53 Tb4 2.871997 1_555
Ni53 Tb12 2.885499 1_555
Ni53 Tb1 2.967994 1_555
Ni54 Tb7 2.871997 1_555
Ni54 Tb15 2.885499 1_555
Ni54 Tb2 2.967994 1_555
Ni55 Tb6 2.871997 1_555
Ni55 Tb14 2.885499 1_555
Ni55 Tb3 2.967994 1_455
Ni56 Tb12 2.857587 1_455
Ni56 Tb8 2.885502 1_545
Ni56 Tb4 2.915160 1_455
Ni57 Tb13 2.857587 1_555
Ni57 Tb9 2.885502 1_564
Ni57 Tb5 2.915160 1_555
Ni58 Tb14 2.857587 1_555
Ni58 Tb10 2.885502 1_555
Ni58 Tb6 2.915160 1_555
Ni59 Tb15 2.857587 1_655
Ni59 Tb11 2.885502 1_556
Ni59 Tb7 2.915160 1_655
Ni60 Tb8 2.857587 1_655
Ni60 Tb12 2.885502 1_565
Ni60 Tb0 2.915160 1_655
Ni61 Tb9 2.857587 1_555
Ni61 Tb13 2.885502 1_546
Ni61 Tb1 2.915160 1_555
Ni62 Tb10 2.857587 1_555
Ni62 Tb14 2.885502 1_555
Ni62 Tb2 2.915160 1_555
Ni63 Tb11 2.857587 1_455
Ni63 Tb15 2.885502 1_554
Ni63 Tb3 2.915160 1_455
Ni64 Tb3 2.965919 1_455
Ni64 Tb9 3.152747 1_554
Ni64 Tb11 3.182792 1_455
Ni65 Tb2 2.965919 1_555
Ni65 Tb8 3.152747 1_555
Ni65 Tb10 3.182792 1_555
Ni66 Tb1 2.965919 1_555
Ni66 Tb11 3.152747 1_556
Ni66 Tb9 3.182792 1_555
Ni67 Tb0 2.965919 1_655
Ni67 Tb10 3.152747 1_555
Ni67 Tb8 3.182792 1_655
Ni68 Tb7 2.965919 1_655
Ni68 Tb13 3.152747 1_556
Ni68 Tb15 3.182792 1_655
Ni69 Tb6 2.965919 1_555
Ni69 Tb12 3.152747 1_555
Ni69 Tb14 3.182792 1_555
Ni70 Tb5 2.965919 1_555
Ni70 Tb15 3.152747 1_554
Ni70 Tb13 3.182792 1_555
Ni71 Tb4 2.965919 1_455
Ni71 Tb14 3.152747 1_555
Ni71 Tb12 3.182792 1_455
Ni72 Tb14 2.765521 1_555
Ni72 Tb12 2.903623 1_455
Ni72 Tb8 2.933310 1_545
Ni73 Tb15 2.765521 1_555
Ni73 Tb13 2.903623 1_556
Ni73 Tb9 2.933310 1_565
Ni74 Tb12 2.765521 1_555
Ni74 Tb14 2.903623 1_555
Ni74 Tb10 2.933310 1_555
Ni75 Tb13 2.765521 1_555
Ni75 Tb15 2.903623 1_654
Ni75 Tb11 2.933310 1_555
Ni76 Tb10 2.765521 1_555
Ni76 Tb8 2.903623 1_655
Ni76 Tb12 2.933310 1_565
Ni77 Tb11 2.765521 1_555
Ni77 Tb9 2.903623 1_554
Ni77 Tb13 2.933310 1_545
Ni78 Tb8 2.765521 1_555
Ni78 Tb10 2.903623 1_555
Ni78 Tb14 2.933310 1_555
Ni79 Tb9 2.765521 1_555
Ni79 Tb11 2.903623 1_456
Ni79 Tb15 2.933310 1_555
B0 B36 1.726786 1_555
B0 Ni4 1.926132 1_555
B0 Ni8 2.023649 1_655
B0 Ni44 2.040917 1_555
B0 Ni32 2.087440 1_645
B0 Ni64 2.092156 1_655
B0 Ni52 2.144076 1_545
B0 Tb0 2.971592 1_645
B0 Tb3 3.038335 1_555
B1 B37 1.726786 1_555
B1 Ni5 1.926132 1_555
B1 Ni9 2.023649 1_555
B1 Ni45 2.040917 1_555
B1 Ni33 2.087440 1_565
B1 Ni65 2.092156 1_555
B1 Ni53 2.144076 1_565
B1 Tb1 2.971592 1_565
B1 Tb2 3.038335 1_555
B2 B38 1.726786 1_555
B2 Ni6 1.926132 1_555
B2 Ni10 2.023649 1_555
B2 Ni46 2.040917 1_555
B2 Ni34 2.087440 1_555
B2 Ni66 2.092156 1_555
B2 Ni54 2.144076 1_555
B2 Tb2 2.971592 1_555
B2 Tb1 3.038335 1_555
B3 B39 1.726786 1_555
B3 Ni7 1.926132 1_555
B3 Ni11 2.023649 1_455
B3 Ni47 2.040917 1_555
B3 Ni35 2.087440 1_455
B3 Ni67 2.092156 1_455
B3 Ni55 2.144076 1_555
B3 Tb3 2.971592 1_455
B3 Tb0 3.038335 1_555
B4 Ni0 1.926132 1_555
B4 Ni12 2.023649 1_455
B4 Ni40 2.040917 1_555
B4 Ni36 2.087440 1_465
B4 Ni68 2.092156 1_455
B4 Ni48 2.144076 1_565
B4 Tb4 2.971592 1_465
B4 Tb7 3.038335 1_555
B5 Ni1 1.926132 1_555
B5 Ni13 2.023649 1_555
B5 Ni41 2.040917 1_555
B5 Ni37 2.087440 1_545
B5 Ni69 2.092156 1_555
B5 Ni49 2.144076 1_545
B5 Tb5 2.971592 1_545
B5 Tb6 3.038335 1_555
B6 Ni2 1.926132 1_555
B6 Ni14 2.023649 1_555
B6 Ni42 2.040917 1_555
B6 Ni38 2.087440 1_555
B6 Ni70 2.092156 1_555
B6 Ni50 2.144076 1_555
B6 Tb6 2.971592 1_555
B6 Tb5 3.038335 1_555
B7 Ni3 1.926132 1_555
B7 Ni15 2.023649 1_655
B7 Ni43 2.040917 1_555
B7 Ni39 2.087440 1_655
B7 Ni71 2.092156 1_655
B7 Ni51 2.144076 1_555
B7 Tb7 2.971592 1_655
B7 Tb4 3.038335 1_555
B8 Ni71 2.047851 1_555
B8 Ni56 2.053989 1_555
B8 Ni33 2.054863 1_555
B8 Ni30 2.096238 1_555
B8 Ni15 2.102585 1_555
B8 Ni0 2.126612 1_545
B8 Tb1 2.722037 1_555
B8 Tb4 2.813350 1_455
B9 Ni70 2.047851 1_555
B9 Ni57 2.053989 1_555
B9 Ni32 2.054863 1_555
B9 Ni31 2.096238 1_555
B9 Ni14 2.102585 1_555
B9 Ni1 2.126612 1_565
B9 Tb0 2.722037 1_555
B9 Tb5 2.813350 1_555
B10 B26 1.893394 1_555
B10 Ni69 2.047851 1_555
B10 Ni58 2.053989 1_555
B10 Ni35 2.054863 1_555
B10 Ni28 2.096238 1_555
B10 Ni13 2.102585 1_555
B10 Ni2 2.126612 1_555
B10 Tb3 2.722037 1_555
B10 Tb6 2.813350 1_555
B11 B27 1.893394 1_555
B11 Ni68 2.047851 1_555
B11 Ni59 2.053989 1_555
B11 Ni34 2.054863 1_555
B11 Ni29 2.096238 1_555
B11 Ni12 2.102585 1_555
B11 Ni3 2.126612 1_555
B11 Tb2 2.722037 1_555
B11 Tb7 2.813350 1_655
B12 B28 1.893394 1_555
B12 Ni67 2.047851 1_555
B12 Ni60 2.053989 1_555
B12 Ni37 2.054863 1_555
B12 Ni26 2.096238 1_555
B12 Ni11 2.102585 1_555
B12 Ni4 2.126612 1_565
B12 Tb5 2.722037 1_555
B12 Tb0 2.813350 1_655
B13 B29 1.893394 1_555
B13 Ni66 2.047851 1_555
B13 Ni61 2.053989 1_555
B13 Ni36 2.054863 1_555
B13 Ni27 2.096238 1_555
B13 Ni10 2.102585 1_555
B13 Ni5 2.126612 1_545
B13 Tb4 2.722037 1_555
B13 Tb1 2.813350 1_555
B14 B30 1.893394 1_555
B14 Ni65 2.047851 1_555
B14 Ni62 2.053989 1_555
B14 Ni39 2.054863 1_555
B14 Ni24 2.096238 1_555
B14 Ni9 2.102585 1_555
B14 Ni6 2.126612 1_555
B14 Tb7 2.722037 1_555
B14 Tb2 2.813350 1_555
B15 B31 1.893394 1_555
B15 Ni64 2.047851 1_555
B15 Ni63 2.053989 1_555
B15 Ni38 2.054863 1_555
B15 Ni25 2.096238 1_555
B15 Ni8 2.102585 1_555
B15 Ni7 2.126612 1_555
B15 Tb6 2.722037 1_555
B15 Tb3 2.813350 1_455
B16 Ni60 2.038045 1_445
B16 Ni55 2.041577 1_555
B16 Ni8 2.047786 1_555
B16 Ni41 2.072697 1_555
B16 Ni28 2.074439 1_455
B16 Ni4 2.201528 1_455
B16 Ni72 2.223983 1_555
B16 Tb0 3.019911 1_545
B17 Ni61 2.038045 1_565
B17 Ni54 2.041577 1_555
B17 Ni9 2.047786 1_555
B17 Ni40 2.072697 1_555
B17 Ni29 2.074439 1_555
B17 Ni5 2.201528 1_555
B17 Ni73 2.223983 1_555
B17 Tb1 3.019911 1_565
B18 Ni62 2.038045 1_555
B18 Ni53 2.041577 1_555
B18 Ni10 2.047786 1_555
B18 Ni43 2.072697 1_555
B18 Ni30 2.074439 1_555
B18 Ni6 2.201528 1_555
B18 Ni74 2.223983 1_555
B18 Tb2 3.019911 1_555
B19 Ni63 2.038045 1_655
B19 Ni52 2.041577 1_555
B19 Ni11 2.047786 1_555
B19 Ni42 2.072697 1_555
B19 Ni31 2.074439 1_655
B19 Ni7 2.201528 1_655
B19 Ni75 2.223983 1_555
B19 Tb3 3.019911 1_555
B20 Ni56 2.038045 1_665
B20 Ni51 2.041577 1_555
B20 Ni12 2.047786 1_555
B20 Ni45 2.072697 1_555
B20 Ni24 2.074439 1_655
B20 Ni0 2.201528 1_655
B20 Ni76 2.223983 1_555
B20 Tb4 3.019911 1_565
B21 Ni57 2.038045 1_545
B21 Ni50 2.041577 1_555
B21 Ni13 2.047786 1_555
B21 Ni44 2.072697 1_555
B21 Ni25 2.074439 1_555
B21 Ni1 2.201528 1_555
B21 Ni77 2.223983 1_555
B21 Tb5 3.019911 1_545
B22 Ni58 2.038045 1_555
B22 Ni49 2.041577 1_555
B22 Ni14 2.047786 1_555
B22 Ni47 2.072697 1_555
B22 Ni26 2.074439 1_555
B22 Ni2 2.201528 1_555
B22 Ni78 2.223983 1_555
B22 Tb6 3.019911 1_555
B23 Ni59 2.038045 1_455
B23 Ni48 2.041577 1_555
B23 Ni15 2.047786 1_555
B23 Ni46 2.072697 1_555
B23 Ni27 2.074439 1_455
B23 Ni3 2.201528 1_455
B23 Ni79 2.223983 1_555
B23 Tb7 3.019911 1_555
B24 B8 1.893394 1_555
B24 Ni72 2.016166 1_555
B24 Ni56 2.041855 1_555
B24 Ni30 2.059498 1_555
B24 Ni17 2.066041 1_555
B24 Ni33 2.084328 1_555
B24 Ni71 2.088953 1_555
B24 Tb14 2.749385 1_555
B24 Tb8 2.862653 1_545
B25 B9 1.893394 1_555
B25 Ni73 2.016166 1_554
B25 Ni57 2.041855 1_555
B25 Ni31 2.059498 1_555
B25 Ni16 2.066041 1_555
B25 Ni32 2.084328 1_555
B25 Ni70 2.088953 1_555
B25 Tb15 2.749385 1_554
B25 Tb9 2.862653 1_564
B26 Ni74 2.016166 1_555
B26 Ni58 2.041855 1_555
B26 Ni28 2.059498 1_555
B26 Ni19 2.066041 1_555
B26 Ni35 2.084328 1_555
B26 Ni69 2.088953 1_555
B26 Tb12 2.749385 1_555
B26 Tb10 2.862653 1_555
B27 Ni75 2.016166 1_556
B27 Ni59 2.041855 1_555
B27 Ni29 2.059498 1_555
B27 Ni18 2.066041 1_555
B27 Ni34 2.084328 1_555
B27 Ni68 2.088953 1_555
B27 Tb13 2.749385 1_556
B27 Tb11 2.862653 1_556
B28 Ni76 2.016166 1_555
B28 Ni60 2.041855 1_555
B28 Ni26 2.059498 1_555
B28 Ni21 2.066041 1_555
B28 Ni37 2.084328 1_555
B28 Ni67 2.088953 1_555
B28 Tb10 2.749385 1_555
B28 Tb12 2.862653 1_565
B29 Ni77 2.016166 1_556
B29 Ni61 2.041855 1_555
B29 Ni27 2.059498 1_555
B29 Ni20 2.066041 1_555
B29 Ni36 2.084328 1_555
B29 Ni66 2.088953 1_555
B29 Tb11 2.749385 1_556
B29 Tb13 2.862653 1_546
B30 Ni78 2.016166 1_555
B30 Ni62 2.041855 1_555
B30 Ni24 2.059498 1_555
B30 Ni23 2.066041 1_555
B30 Ni39 2.084328 1_555
B30 Ni65 2.088953 1_555
B30 Tb8 2.749385 1_555
B30 Tb14 2.862653 1_555
B31 Ni79 2.016166 1_554
B31 Ni63 2.041855 1_555
B31 Ni25 2.059498 1_555
B31 Ni22 2.066041 1_555
B31 Ni38 2.084328 1_555
B31 Ni64 2.088953 1_555
B31 Tb9 2.749385 1_554
B31 Tb15 2.862653 1_554
B32 B4 1.726786 1_555
B32 Ni16 1.966467 1_556
B32 Ni20 2.017061 1_465
B32 Ni48 2.035011 1_565
B32 Ni68 2.052634 1_455
B32 Ni40 2.134377 1_555
B32 Ni36 2.143707 1_465
B32 Tb9 2.746765 1_565
B33 B5 1.726786 1_555
B33 Ni17 1.966467 1_555
B33 Ni21 2.017061 1_545
B33 Ni49 2.035011 1_545
B33 Ni69 2.052634 1_555
B33 Ni41 2.134377 1_555
B33 Ni37 2.143707 1_545
B33 Tb8 2.746765 1_545
B34 B6 1.726786 1_555
B34 Ni18 1.966467 1_554
B34 Ni22 2.017061 1_555
B34 Ni50 2.035011 1_555
B34 Ni70 2.052634 1_555
B34 Ni42 2.134377 1_555
B34 Ni38 2.143707 1_555
B34 Tb11 2.746765 1_555
B35 B7 1.726786 1_555
B35 Ni19 1.966467 1_555
B35 Ni23 2.017061 1_655
B35 Ni51 2.035011 1_555
B35 Ni71 2.052634 1_655
B35 Ni43 2.134377 1_555
B35 Ni39 2.143707 1_655
B35 Tb10 2.746765 1_555
B36 Ni20 1.966467 1_554
B36 Ni16 2.017061 1_645
B36 Ni52 2.035011 1_545
B36 Ni64 2.052634 1_655
B36 Ni44 2.134377 1_555
B36 Ni32 2.143707 1_645
B36 Tb13 2.746765 1_545
B37 Ni21 1.966467 1_555
B37 Ni17 2.017061 1_565
B37 Ni53 2.035011 1_565
B37 Ni65 2.052634 1_555
B37 Ni45 2.134377 1_555
B37 Ni33 2.143707 1_565
B37 Tb12 2.746765 1_565
B38 Ni22 1.966467 1_556
B38 Ni18 2.017061 1_555
B38 Ni54 2.035011 1_555
B38 Ni66 2.052634 1_555
B38 Ni46 2.134377 1_555
B38 Ni34 2.143707 1_555
B38 Tb15 2.746765 1_555
B39 Ni23 1.966467 1_555
B39 Ni19 2.017061 1_455
B39 Ni55 2.035011 1_555
B39 Ni67 2.052634 1_455
B39 Ni47 2.134377 1_555
B39 Ni35 2.143707 1_455
B39 Tb14 2.746765 1_555
