# generated using pymatgen
data_Nd2Ge5Rh3
_symmetry_space_group_name_H-M   'P 1'
_cell_length_a   8.45333303
_cell_length_b   8.45333303
_cell_length_c   6.04838109
_cell_angle_alpha   69.68622570
_cell_angle_beta   69.68622570
_cell_angle_gamma   92.03292758
_symmetry_Int_Tables_number   1
_chemical_formula_structural   Nd2Ge5Rh3
_chemical_formula_sum   'Nd4 Ge10 Rh6'
_cell_volume   374.09274035
_cell_formula_units_Z   2
loop_
 _symmetry_equiv_pos_site_id
 _symmetry_equiv_pos_as_xyz
  1  'x, y, z'
loop_
 _atom_site_type_symbol
 _atom_site_label
 _atom_site_symmetry_multiplicity
 _atom_site_fract_x
 _atom_site_fract_y
 _atom_site_fract_z
 _atom_site_occupancy
  Nd  Nd0  1  0.86489500  0.59528000  0.76791000  1
  Nd  Nd1  1  0.40472000  0.13510500  0.73209000  1
  Nd  Nd2  1  0.13510500  0.40472000  0.23209000  1
  Nd  Nd3  1  0.59528000  0.86489500  0.26791000  1
  Ge  Ge0  1  0.06517600  0.26065300  0.83618400  1
  Ge  Ge1  1  0.73934700  0.93482400  0.66381600  1
  Ge  Ge2  1  0.93482400  0.73934700  0.16381600  1
  Ge  Ge3  1  0.26065300  0.06517600  0.33618400  1
  Ge  Ge4  1  0.21671100  0.78328900  0.75000000  1
  Ge  Ge5  1  0.78328900  0.21671100  0.25000000  1
  Ge  Ge6  1  0.50493000  0.49507000  0.75000000  1
  Ge  Ge7  1  0.49507000  0.50493000  0.25000000  1
  Ge  Ge8  1  0.77669000  0.22331000  0.75000000  1
  Ge  Ge9  1  0.22331000  0.77669000  0.25000000  1
  Rh  Rh0  1  0.25444700  0.53704700  0.61418500  1
  Rh  Rh1  1  0.46295300  0.74555300  0.88581500  1
  Rh  Rh2  1  0.74555300  0.46295300  0.38581500  1
  Rh  Rh3  1  0.53704700  0.25444700  0.11418500  1
  Rh  Rh4  1  0.00130700  0.99869300  0.75000000  1
  Rh  Rh5  1  0.99869300  0.00130700  0.25000000  1
loop_
_geom_bond_atom_site_label_1
_geom_bond_atom_site_label_2
_geom_bond_distance
_geom_bond_site_symmetry_2
Nd0 Rh0 3.202762 1_655
Nd0 Rh2 3.261295 1_556
Nd0 Rh2 3.308123 1_555
Nd0 Rh3 3.403227 1_556
Nd0 Rh4 3.514057 1_655
Nd0 Rh5 3.559766 1_565
Nd0 Rh1 3.594409 1_555
Nd1 Rh1 3.202762 1_545
Nd1 Rh3 3.261295 1_555
Nd1 Rh3 3.308123 1_556
Nd1 Rh2 3.403227 1_555
Nd1 Rh4 3.514057 1_545
Nd1 Rh5 3.559766 1_456
Nd1 Rh0 3.594409 1_555
Nd2 Rh2 3.202762 1_455
Nd2 Rh0 3.261295 1_554
Nd2 Rh0 3.308123 1_555
Nd2 Rh1 3.403227 1_554
Nd2 Rh5 3.514057 1_455
Nd2 Rh4 3.559766 1_545
Nd2 Rh3 3.594409 1_555
Nd3 Rh3 3.202762 1_565
Nd3 Rh1 3.261295 1_555
Nd3 Rh1 3.308123 1_554
Nd3 Rh0 3.403227 1_555
Nd3 Rh5 3.514057 1_565
Nd3 Rh4 3.559766 1_654
Nd3 Rh2 3.594409 1_555
Ge0 Rh0 2.426260 1_555
Ge0 Rh4 2.525670 1_545
Ge0 Rh5 2.552017 1_456
Ge0 Ge5 2.689114 1_456
Ge0 Ge8 2.694577 1_455
Ge0 Nd1 3.030938 1_555
Ge0 Nd2 3.243951 1_556
Ge0 Nd2 3.246919 1_555
Ge0 Nd0 3.324560 1_455
Ge1 Rh1 2.426260 1_555
Ge1 Rh4 2.525670 1_655
Ge1 Rh5 2.552017 1_565
Ge1 Ge5 2.689114 1_565
Ge1 Ge8 2.694577 1_565
Ge1 Nd0 3.030938 1_555
Ge1 Nd3 3.243951 1_555
Ge1 Nd3 3.246919 1_556
Ge1 Nd1 3.324560 1_565
Ge2 Rh2 2.426260 1_555
Ge2 Rh5 2.525670 1_565
Ge2 Rh4 2.552017 1_654
Ge2 Ge4 2.689114 1_654
Ge2 Ge9 2.694577 1_655
Ge2 Nd3 3.030938 1_555
Ge2 Nd0 3.243951 1_554
Ge2 Nd0 3.246919 1_555
Ge2 Nd2 3.324560 1_655
Ge3 Rh3 2.426260 1_555
Ge3 Rh5 2.525670 1_455
Ge3 Rh4 2.552017 1_545
Ge3 Ge4 2.689114 1_545
Ge3 Ge9 2.694577 1_545
Ge3 Nd2 3.030938 1_555
Ge3 Nd1 3.243951 1_555
Ge3 Nd1 3.246919 1_554
Ge3 Nd3 3.324560 1_545
Ge4 Rh0 2.482313 1_555
Ge4 Rh1 2.482313 1_555
Ge4 Rh4 2.620392 1_555
Ge4 Nd0 3.271671 1_455
Ge4 Nd1 3.271671 1_565
Ge4 Nd2 3.344710 1_556
Ge4 Nd3 3.344710 1_555
Ge5 Rh3 2.482313 1_555
Ge5 Rh2 2.482313 1_555
Ge5 Rh5 2.620392 1_555
Ge5 Nd2 3.271671 1_655
Ge5 Nd3 3.271671 1_545
Ge5 Nd1 3.344710 1_555
Ge5 Nd0 3.344710 1_554
Ge6 Rh1 2.518485 1_555
Ge6 Rh0 2.518485 1_555
Ge6 Rh2 2.531136 1_555
Ge6 Rh3 2.531136 1_556
Ge6 Nd1 3.177781 1_555
Ge6 Nd0 3.177781 1_555
Ge6 Nd2 3.288484 1_556
Ge6 Nd3 3.288484 1_555
Ge7 Rh3 2.518485 1_555
Ge7 Rh2 2.518485 1_555
Ge7 Rh1 2.531136 1_554
Ge7 Rh0 2.531136 1_555
Ge7 Nd2 3.177781 1_555
Ge7 Nd3 3.177781 1_555
Ge7 Nd1 3.288484 1_555
Ge7 Nd0 3.288484 1_554
Ge8 Rh3 2.523339 1_556
Ge8 Rh2 2.523339 1_555
Ge8 Rh4 2.732469 1_645
Ge8 Nd1 3.252860 1_555
Ge8 Nd0 3.252860 1_555
Ge8 Nd2 3.330058 1_655
Ge8 Nd3 3.330058 1_546
Ge9 Rh1 2.523339 1_554
Ge9 Rh0 2.523339 1_555
Ge9 Rh5 2.732469 1_465
Ge9 Nd3 3.252860 1_555
Ge9 Nd2 3.252860 1_555
Ge9 Nd0 3.330058 1_455
Ge9 Nd1 3.330058 1_564
