# generated using pymatgen
data_BaP3
_symmetry_space_group_name_H-M   'P 1'
_cell_length_a   6.58781623
_cell_length_b   7.82632956
_cell_length_c   8.22922964
_cell_angle_alpha   90.00000000
_cell_angle_beta   105.00292570
_cell_angle_gamma   90.00000000
_symmetry_Int_Tables_number   1
_chemical_formula_structural   BaP3
_chemical_formula_sum   'Ba4 P12'
_cell_volume   409.82327963
_cell_formula_units_Z   4
loop_
 _symmetry_equiv_pos_site_id
 _symmetry_equiv_pos_as_xyz
  1  'x, y, z'
loop_
 _atom_site_type_symbol
 _atom_site_label
 _atom_site_symmetry_multiplicity
 _atom_site_fract_x
 _atom_site_fract_y
 _atom_site_fract_z
 _atom_site_occupancy
  Ba  Ba0  1  0.31172796  0.88850762  0.69702331  1
  Ba  Ba1  1  0.68827204  0.38850762  0.80297669  1
  Ba  Ba2  1  0.68827204  0.11149238  0.30297669  1
  Ba  Ba3  1  0.31172796  0.61149238  0.19702331  1
  P  P0  1  0.03833272  0.36941992  0.55410925  1
  P  P1  1  0.96166728  0.86941992  0.94589075  1
  P  P2  1  0.96166728  0.63058008  0.44589075  1
  P  P3  1  0.03833272  0.13058008  0.05410925  1
  P  P4  1  0.18772462  0.45697355  0.81183253  1
  P  P5  1  0.81227538  0.95697355  0.68816747  1
  P  P6  1  0.81227538  0.54302645  0.18816747  1
  P  P7  1  0.18772462  0.04302645  0.31183253  1
  P  P8  1  0.29867964  0.22863566  0.95746134  1
  P  P9  1  0.70132036  0.72863566  0.54253866  1
  P  P10  1  0.70132036  0.77136434  0.04253866  1
  P  P11  1  0.29867964  0.27136434  0.45746134  1
loop_
_geom_bond_atom_site_label_1
_geom_bond_atom_site_label_2
_geom_bond_distance
_geom_bond_site_symmetry_2
Ba0 P7 3.291946 1_565
Ba0 P5 3.315776 1_455
Ba0 P2 3.346127 1_455
Ba0 P5 3.360127 1_555
Ba0 P9 3.385003 1_555
Ba0 P10 3.425500 1_556
Ba0 P8 3.432506 1_565
Ba0 P1 3.461223 1_455
Ba0 P11 3.575514 1_565
Ba0 P4 3.655942 1_555
Ba1 P6 3.291946 1_556
Ba1 P4 3.315776 1_655
Ba1 P3 3.346127 1_656
Ba1 P4 3.360127 1_555
Ba1 P8 3.385003 1_555
Ba1 P11 3.425500 1_555
Ba1 P9 3.432506 1_555
Ba1 P0 3.461223 1_655
Ba1 P10 3.575514 1_556
Ba1 P5 3.655942 1_545
Ba2 P5 3.291946 1_545
Ba2 P7 3.315776 1_655
Ba2 P0 3.346127 1_655
Ba2 P7 3.360127 1_555
Ba2 P11 3.385003 1_555
Ba2 P8 3.425500 1_554
Ba2 P10 3.432506 1_545
Ba2 P3 3.461223 1_655
Ba2 P9 3.575514 1_545
Ba2 P6 3.655942 1_555
Ba3 P4 3.291946 1_554
Ba3 P6 3.315776 1_455
Ba3 P1 3.346127 1_454
Ba3 P6 3.360127 1_555
Ba3 P10 3.385003 1_555
Ba3 P9 3.425500 1_555
Ba3 P11 3.432506 1_555
Ba3 P2 3.461223 1_455
Ba3 P8 3.575514 1_554
Ba3 P7 3.655942 1_565
P0 P4 2.203524 1_555
P0 P11 2.206663 1_555
P0 P2 2.234487 1_455
P1 P5 2.203524 1_555
P1 P10 2.206663 1_556
P1 P3 2.234487 1_666
P2 P6 2.203524 1_555
P2 P9 2.206663 1_555
P3 P7 2.203524 1_555
P3 P8 2.206663 1_554
P4 P8 2.170367 1_555
P5 P9 2.170367 1_555
P10 P6 2.170367 1_555
P11 P7 2.170367 1_555
