# generated using pymatgen
data_La2MnCoO6
_symmetry_space_group_name_H-M   'P 1'
_cell_length_a   5.55215000
_cell_length_b   5.58289100
_cell_length_c   9.65382147
_cell_angle_alpha   54.72007826
_cell_angle_beta   90.00000000
_cell_angle_gamma   90.00000000
_symmetry_Int_Tables_number   1
_chemical_formula_structural   La2MnCoO6
_chemical_formula_sum   'La4 Mn2 Co2 O12'
_cell_volume   244.28156897
_cell_formula_units_Z   2
loop_
 _symmetry_equiv_pos_site_id
 _symmetry_equiv_pos_as_xyz
  1  'x, y, z'
loop_
 _atom_site_type_symbol
 _atom_site_label
 _atom_site_symmetry_multiplicity
 _atom_site_fract_x
 _atom_site_fract_y
 _atom_site_fract_z
 _atom_site_occupancy
  La  La0  1  0.53169900  0.25764600  0.24909000  1
  La  La1  1  0.96830100  0.25764600  0.74909000  1
  La  La2  1  0.46830100  0.74235400  0.75091000  1
  La  La3  1  0.03169900  0.74235400  0.25091000  1
  Mn  Mn0  1  0.00000000  0.00000000  0.50000000  1
  Mn  Mn1  1  0.50000000  0.00000000  0.00000000  1
  Co  Co0  1  0.50000000  0.50000000  0.50000000  1
  Co  Co1  1  0.00000000  0.50000000  0.00000000  1
  O  O0  1  0.98930400  0.16706700  0.25776500  1
  O  O1  1  0.51069600  0.16706700  0.75776500  1
  O  O2  1  0.01069600  0.83293300  0.74223500  1
  O  O3  1  0.48930400  0.83293300  0.24223500  1
  O  O4  1  0.78950800  0.31434800  0.45978100  1
  O  O5  1  0.71049200  0.31434800  0.95978100  1
  O  O6  1  0.21049200  0.68565200  0.54021900  1
  O  O7  1  0.28950800  0.68565200  0.04021900  1
  O  O8  1  0.77753400  0.75047500  0.04027800  1
  O  O9  1  0.72246600  0.75047500  0.54027800  1
  O  O10  1  0.22246600  0.24952500  0.95972200  1
  O  O11  1  0.27753400  0.24952500  0.45972200  1
loop_
_geom_bond_atom_site_label_1
_geom_bond_atom_site_label_2
_geom_bond_distance
_geom_bond_site_symmetry_2
La0 O3 2.421422 1_545
La0 O7 2.453177 1_555
La0 O11 2.453909 1_555
La0 O0 2.582428 1_555
La0 O4 2.651399 1_555
La0 O8 2.662698 1_555
La0 O9 2.801231 1_545
La0 O5 2.804431 1_554
La1 O2 2.421422 1_645
La1 O6 2.453177 1_655
La1 O10 2.453909 1_655
La1 O1 2.582428 1_555
La1 O5 2.651399 1_555
La1 O9 2.662698 1_555
La1 O8 2.801231 1_546
La1 O4 2.804431 1_555
La2 O1 2.421422 1_565
La2 O5 2.453177 1_555
La2 O9 2.453909 1_555
La2 O2 2.582428 1_555
La2 O6 2.651399 1_555
La2 O10 2.662698 1_555
La2 O11 2.801231 1_565
La2 O7 2.804431 1_556
La3 O0 2.421422 1_465
La3 O4 2.453177 1_455
La3 O8 2.453909 1_455
La3 O3 2.582428 1_555
La3 O7 2.651399 1_555
La3 O11 2.662698 1_555
La3 O10 2.801231 1_564
La3 O6 2.804431 1_555
Mn0 O6 1.951764 1_545
Mn0 O4 1.951764 1_455
Mn0 O2 1.955120 1_545
Mn0 O0 1.955120 1_455
Mn0 O9 1.959727 1_445
Mn0 O11 1.959727 1_555
Mn1 O7 1.951764 1_545
Mn1 O5 1.951764 1_554
Mn1 O1 1.955120 1_554
Mn1 O3 1.955120 1_545
Mn1 O8 1.959727 1_545
Mn1 O10 1.959727 1_554
Co0 O11 2.064067 1_555
Co0 O9 2.064067 1_555
Co0 O4 2.067269 1_555
Co0 O6 2.067269 1_555
Co0 O3 2.075511 1_555
Co0 O1 2.075511 1_555
Co1 O8 2.064067 1_455
Co1 O10 2.064067 1_554
Co1 O5 2.067269 1_454
Co1 O7 2.067269 1_555
Co1 O2 2.075511 1_554
Co1 O0 2.075511 1_455
