# generated using pymatgen
data_HoFeB4
_symmetry_space_group_name_H-M   'P 1'
_cell_length_a   3.39725091
_cell_length_b   5.87392095
_cell_length_c   11.37231464
_cell_angle_alpha   90.00000000
_cell_angle_beta   90.00000000
_cell_angle_gamma   90.00000000
_symmetry_Int_Tables_number   1
_chemical_formula_structural   HoFeB4
_chemical_formula_sum   'Ho4 Fe4 B16'
_cell_volume   226.93662310
_cell_formula_units_Z   4
loop_
 _symmetry_equiv_pos_site_id
 _symmetry_equiv_pos_as_xyz
  1  'x, y, z'
loop_
 _atom_site_type_symbol
 _atom_site_label
 _atom_site_symmetry_multiplicity
 _atom_site_fract_x
 _atom_site_fract_y
 _atom_site_fract_z
 _atom_site_occupancy
  Ho  Ho0  1  0.50000000  0.37289046  0.15027495  1
  Ho  Ho1  1  0.50000000  0.62710954  0.84972505  1
  Ho  Ho2  1  0.50000000  0.12710954  0.65027495  1
  Ho  Ho3  1  0.50000000  0.87289046  0.34972505  1
  Fe  Fe0  1  0.50000000  0.37110475  0.41612230  1
  Fe  Fe1  1  0.50000000  0.62889525  0.58387770  1
  Fe  Fe2  1  0.50000000  0.12889525  0.91612230  1
  Fe  Fe3  1  0.50000000  0.87110475  0.08387770  1
  B  B0  1  0.00000000  0.11259502  0.04671974  1
  B  B1  1  0.00000000  0.88740498  0.95328026  1
  B  B2  1  -0.00000000  0.38740498  0.54671974  1
  B  B3  1  -0.00000000  0.61259502  0.45328026  1
  B  B4  1  0.00000000  0.13825107  0.46719287  1
  B  B5  1  -0.00000000  0.86174893  0.53280713  1
  B  B6  1  -0.00000000  0.36174893  0.96719287  1
  B  B7  1  0.00000000  0.63825107  0.03280713  1
  B  B8  1  -0.00000000  0.02281937  0.19084809  1
  B  B9  1  -0.00000000  0.97718063  0.80915191  1
  B  B10  1  -0.00000000  0.47718063  0.69084809  1
  B  B11  1  -0.00000000  0.52281937  0.30915191  1
  B  B12  1  -0.00000000  0.21859581  0.31637316  1
  B  B13  1  -0.00000000  0.78140419  0.68362684  1
  B  B14  1  -0.00000000  0.28140419  0.81637316  1
  B  B15  1  -0.00000000  0.71859581  0.18362684  1
loop_
_geom_bond_atom_site_label_1
_geom_bond_atom_site_label_2
_geom_bond_distance
_geom_bond_site_symmetry_2
B0 B1 1.696712 1_544
B0 B6 1.720410 1_554
B0 B8 1.721814 1_555
B0 Fe3 2.253003 1_545
B0 Fe3 2.253003 1_445
B0 Fe2 2.258384 1_454
B0 Fe2 2.258384 1_554
B0 Ho0 2.570976 1_555
B0 Ho0 2.570976 1_455
B1 B7 1.720410 1_556
B1 B9 1.721814 1_555
B1 Fe2 2.253003 1_565
B1 Fe2 2.253003 1_465
B1 Fe3 2.258384 1_456
B1 Fe3 2.258384 1_556
B1 Ho1 2.570976 1_555
B1 Ho1 2.570976 1_455
B2 B3 1.696712 1_555
B2 B4 1.720410 1_555
B2 Fe1 2.253003 1_455
B2 Fe1 2.253003 1_555
B2 Fe0 2.258384 1_455
B2 Fe0 2.258384 1_555
B2 Ho2 2.570976 1_455
B2 Ho2 2.570976 1_555
B3 B5 1.720410 1_555
B3 Fe0 2.253003 1_555
B3 Fe0 2.253003 1_455
B3 Fe1 2.258384 1_555
B3 Fe1 2.258384 1_455
B3 Ho3 2.570976 1_555
B3 Ho3 2.570976 1_455
B4 B5 1.787362 1_545
B4 Fe0 2.256862 1_555
B4 Fe0 2.256862 1_455
B4 Ho3 2.664484 1_445
B4 Ho3 2.664484 1_545
B4 Ho2 2.687864 1_455
B4 Ho2 2.687864 1_555
B5 Fe1 2.256862 1_455
B5 Fe1 2.256862 1_555
B5 Ho2 2.664484 1_565
B5 Ho2 2.664484 1_465
B5 Ho3 2.687864 1_555
B5 Ho3 2.687864 1_455
B6 B7 1.787362 1_556
B6 Fe2 2.256862 1_555
B6 Fe2 2.256862 1_455
B6 Ho1 2.664484 1_555
B6 Ho1 2.664484 1_455
B6 Ho0 2.687864 1_556
B6 Ho0 2.687864 1_456
B7 Fe3 2.256862 1_455
B7 Fe3 2.256862 1_555
B7 Ho0 2.664484 1_555
B7 Ho0 2.664484 1_455
B7 Ho1 2.687864 1_454
B7 Ho1 2.687864 1_554
B8 Fe3 2.271424 1_545
B8 Fe3 2.271424 1_445
B8 Ho3 2.631621 1_445
B8 Ho3 2.631621 1_545
B8 Ho0 2.706761 1_555
B8 Ho0 2.706761 1_455
B9 Fe2 2.271424 1_465
B9 Fe2 2.271424 1_565
B9 Ho2 2.631621 1_565
B9 Ho2 2.631621 1_465
B9 Ho1 2.706761 1_555
B9 Ho1 2.706761 1_455
B10 B2 1.721814 1_555
B10 B13 1.788871 1_555
B10 B14 1.833093 1_555
B10 Fe1 2.271424 1_455
B10 Fe1 2.271424 1_555
B10 Ho1 2.631621 1_555
B10 Ho1 2.631621 1_455
B10 Ho2 2.706761 1_455
B10 Ho2 2.706761 1_555
B11 B3 1.721814 1_555
B11 B12 1.788871 1_555
B11 B15 1.833093 1_555
B11 Fe0 2.271424 1_555
B11 Fe0 2.271424 1_455
B11 Ho0 2.631621 1_455
B11 Ho0 2.631621 1_555
B11 Ho3 2.706761 1_555
B11 Ho3 2.706761 1_455
B12 B4 1.778913 1_555
B12 B8 1.833093 1_555
B12 Fe0 2.230392 1_555
B12 Fe0 2.230392 1_455
B12 Ho3 2.674455 1_445
B12 Ho3 2.674455 1_545
B12 Ho0 2.697176 1_555
B12 Ho0 2.697176 1_455
B13 B5 1.778913 1_555
B13 B9 1.833093 1_555
B13 Fe1 2.230392 1_555
B13 Fe1 2.230392 1_455
B13 Ho2 2.674455 1_465
B13 Ho2 2.674455 1_565
B13 Ho1 2.697176 1_555
B13 Ho1 2.697176 1_455
B14 B6 1.778913 1_555
B14 B9 1.788871 1_545
B14 Fe2 2.230392 1_555
B14 Fe2 2.230392 1_455
B14 Ho1 2.674455 1_455
B14 Ho1 2.674455 1_555
B14 Ho2 2.697176 1_555
B14 Ho2 2.697176 1_455
B15 B7 1.778913 1_555
B15 B8 1.788871 1_565
B15 Fe3 2.230392 1_555
B15 Fe3 2.230392 1_455
B15 Ho0 2.674455 1_455
B15 Ho0 2.674455 1_555
B15 Ho3 2.697176 1_455
B15 Ho3 2.697176 1_555
