# generated using pymatgen
data_TiCrCuS4
_symmetry_space_group_name_H-M   'P 1'
_cell_length_a   7.03412621
_cell_length_b   7.03412621
_cell_length_c   7.03412621
_cell_angle_alpha   120.62019403
_cell_angle_beta   119.20229228
_cell_angle_gamma   90.15817453
_symmetry_Int_Tables_number   1
_chemical_formula_structural   TiCrCuS4
_chemical_formula_sum   'Ti2 Cr2 Cu2 S8'
_cell_volume   246.38432611
_cell_formula_units_Z   2
loop_
 _symmetry_equiv_pos_site_id
 _symmetry_equiv_pos_as_xyz
  1  'x, y, z'
loop_
 _atom_site_type_symbol
 _atom_site_label
 _atom_site_symmetry_multiplicity
 _atom_site_fract_x
 _atom_site_fract_y
 _atom_site_fract_z
 _atom_site_occupancy
  Ti  Ti0  1  0.00000000  0.50000000  0.00000000  1
  Ti  Ti1  1  0.00000000  0.00000000  0.50000000  1
  Cr  Cr0  1  0.50000000  0.50000000  0.00000000  1
  Cr  Cr1  1  0.00000000  0.50000000  0.50000000  1
  Cu  Cu0  1  0.62446700  0.87446700  0.75000000  1
  Cu  Cu1  1  0.37553300  0.12553300  0.25000000  1
  S  S0  1  0.23270500  0.74291000  0.48979500  1
  S  S1  1  0.75311500  0.74291000  0.01020500  1
  S  S2  1  0.75556900  0.73860400  0.48303500  1
  S  S3  1  0.75556900  0.27253300  0.01696500  1
  S  S4  1  0.76729500  0.25709000  0.51020500  1
  S  S5  1  0.24688500  0.25709000  0.98979500  1
  S  S6  1  0.24443100  0.26139600  0.51696500  1
  S  S7  1  0.24443100  0.72746700  0.98303500  1
loop_
_geom_bond_atom_site_label_1
_geom_bond_atom_site_label_2
_geom_bond_distance
_geom_bond_site_symmetry_2
Cr0 S2 2.409796 1_555
Cr0 S6 2.409796 1_554
Cr0 S3 2.409800 1_555
Cr0 S7 2.409800 1_554
Cr0 S5 2.414165 1_554
Cr0 S1 2.414165 1_555
Cr1 S7 2.409795 1_555
Cr1 S3 2.409795 1_455
Cr1 S2 2.409796 1_455
Cr1 S6 2.409796 1_555
Cr1 S4 2.414165 1_455
Cr1 S0 2.414165 1_555
Cu0 S1 2.266963 1_556
Cu0 S0 2.266963 1_555
Cu0 S3 2.270818 1_566
Cu0 S2 2.270823 1_555
Cu1 S4 2.266963 1_555
Cu1 S5 2.266963 1_554
Cu1 S7 2.270818 1_544
Cu1 S6 2.270823 1_555
S0 Ti1 2.440000 1_565
S0 Ti0 2.440000 1_555
S1 Ti0 2.440000 1_655
S1 Ti1 2.440000 1_665
S2 Ti1 2.431057 1_665
S3 Ti0 2.431062 1_655
S4 Ti0 2.440000 1_656
S4 Ti1 2.440000 1_655
S5 Ti0 2.440000 1_556
S5 Ti1 2.440000 1_555
S6 Ti1 2.431057 1_555
S7 Ti0 2.431062 1_556
