# generated using pymatgen
data_Sc2FeB2Ru4Rh
_symmetry_space_group_name_H-M   'P 1'
_cell_length_a   9.33195300
_cell_length_b   9.33195300
_cell_length_c   3.02948800
_cell_angle_alpha   90.00000000
_cell_angle_beta   90.00000000
_cell_angle_gamma   90.00000000
_symmetry_Int_Tables_number   1
_chemical_formula_structural   Sc2FeB2Ru4Rh
_chemical_formula_sum   'Sc4 Fe2 B4 Ru8 Rh2'
_cell_volume   263.82401309
_cell_formula_units_Z   2
loop_
 _symmetry_equiv_pos_site_id
 _symmetry_equiv_pos_as_xyz
  1  'x, y, z'
loop_
 _atom_site_type_symbol
 _atom_site_label
 _atom_site_symmetry_multiplicity
 _atom_site_fract_x
 _atom_site_fract_y
 _atom_site_fract_z
 _atom_site_occupancy
  Sc  Sc0  1  0.67608400  0.17608400  0.00000000  1
  Sc  Sc1  1  0.32391600  0.82391600  0.00000000  1
  Sc  Sc2  1  0.17608400  0.32391600  0.00000000  1
  Sc  Sc3  1  0.82391600  0.67608400  0.00000000  1
  Fe  Fe0  1  0.50000000  0.50000000  0.00000000  1
  Fe  Fe1  1  0.00000000  0.00000000  0.00000000  1
  B  B0  1  0.12705600  0.62705600  0.00000000  1
  B  B1  1  0.87294400  0.37294400  0.00000000  1
  B  B2  1  0.62705600  0.87294400  0.00000000  1
  B  B3  1  0.37294400  0.12705600  0.00000000  1
  Ru  Ru0  1  0.57051300  0.71374400  0.50000000  1
  Ru  Ru1  1  0.42948700  0.28625600  0.50000000  1
  Ru  Ru2  1  0.07051300  0.78625600  0.50000000  1
  Ru  Ru3  1  0.92948700  0.21374400  0.50000000  1
  Ru  Ru4  1  0.28625600  0.57051300  0.50000000  1
  Ru  Ru5  1  0.71374400  0.42948700  0.50000000  1
  Ru  Ru6  1  0.21374400  0.07051300  0.50000000  1
  Ru  Ru7  1  0.78625600  0.92948700  0.50000000  1
  Rh  Rh0  1  0.50000000  0.00000000  0.50000000  1
  Rh  Rh1  1  0.00000000  0.50000000  0.50000000  1
loop_
_geom_bond_atom_site_label_1
_geom_bond_atom_site_label_2
_geom_bond_distance
_geom_bond_site_symmetry_2
Fe0 Ru1 2.589608 1_555
Fe0 Ru4 2.589608 1_555
Fe0 Ru1 2.589608 1_554
Fe0 Ru4 2.589608 1_554
Fe0 Ru0 2.589608 1_555
Fe0 Ru5 2.589608 1_554
Fe0 Ru5 2.589608 1_555
Fe0 Ru0 2.589608 1_554
Fe1 Ru6 2.589608 1_554
Fe1 Ru3 2.589608 1_454
Fe1 Ru3 2.589608 1_455
Fe1 Ru6 2.589608 1_555
Fe1 Ru2 2.589608 1_545
Fe1 Ru7 2.589608 1_444
Fe1 Ru7 2.589608 1_445
Fe1 Ru2 2.589608 1_544
B0 Ru4 2.186325 1_555
B0 Ru2 2.186325 1_555
B0 Ru4 2.186325 1_554
B0 Ru2 2.186325 1_554
B0 Rh1 2.259674 1_555
B0 Rh1 2.259674 1_554
B0 Sc1 2.598035 1_555
B0 Sc2 2.865648 1_555
B0 Sc3 2.865648 1_455
B1 Ru3 2.186325 1_554
B1 Ru5 2.186325 1_555
B1 Ru3 2.186325 1_555
B1 Ru5 2.186325 1_554
B1 Rh1 2.259674 1_655
B1 Rh1 2.259674 1_654
B1 Sc0 2.598035 1_555
B1 Sc2 2.865648 1_655
B1 Sc3 2.865648 1_555
B2 Ru7 2.186325 1_554
B2 Ru0 2.186325 1_554
B2 Ru0 2.186325 1_555
B2 Ru7 2.186325 1_555
B2 Rh0 2.259674 1_565
B2 Rh0 2.259674 1_564
B2 Sc3 2.598035 1_555
B2 Sc0 2.865648 1_565
B2 Sc1 2.865648 1_555
B3 Ru6 2.186325 1_554
B3 Ru1 2.186325 1_554
B3 Ru6 2.186325 1_555
B3 Ru1 2.186325 1_555
B3 Rh0 2.259674 1_554
B3 Rh0 2.259674 1_555
B3 Sc2 2.598035 1_555
B3 Sc0 2.865648 1_555
B3 Sc1 2.865648 1_545
Ru0 Sc3 2.830191 1_555
Ru0 Sc3 2.830191 1_556
Ru0 Sc1 2.940603 1_555
Ru0 Sc1 2.940603 1_556
Ru1 Sc2 2.830191 1_555
Ru1 Sc2 2.830191 1_556
Ru1 Sc0 2.940603 1_556
Ru1 Sc0 2.940603 1_555
Ru2 Sc1 2.830191 1_555
Ru2 Sc1 2.830191 1_556
Ru2 Sc3 2.940603 1_455
Ru2 Sc3 2.940603 1_456
Ru3 Sc0 2.830191 1_555
Ru3 Sc0 2.830191 1_556
Ru3 Sc2 2.940603 1_656
Ru3 Sc2 2.940603 1_655
Ru4 Sc1 2.830191 1_555
Ru4 Sc1 2.830191 1_556
Ru4 Sc2 2.940603 1_555
Ru4 Sc2 2.940603 1_556
Ru5 Sc0 2.830191 1_556
Ru5 Sc0 2.830191 1_555
Ru5 Sc3 2.940603 1_556
Ru5 Sc3 2.940603 1_555
Ru6 Sc2 2.830191 1_555
Ru6 Sc2 2.830191 1_556
Ru6 Sc1 2.940603 1_545
Ru6 Sc1 2.940603 1_546
Ru7 Sc3 2.830191 1_555
Ru7 Sc3 2.830191 1_556
Ru7 Sc0 2.940603 1_565
Ru7 Sc0 2.940603 1_566
Rh0 Sc0 2.773934 1_555
Rh0 Sc0 2.773934 1_556
Rh0 Sc1 2.773934 1_545
Rh0 Sc1 2.773934 1_546
Rh1 Sc2 2.773934 1_555
Rh1 Sc2 2.773934 1_556
Rh1 Sc3 2.773934 1_455
Rh1 Sc3 2.773934 1_456
