# generated using pymatgen
data_PrZn(BiO3)2
_symmetry_space_group_name_H-M   'P 1'
_cell_length_a   8.45102952
_cell_length_b   8.45102952
_cell_length_c   8.45102952
_cell_angle_alpha   90.00000000
_cell_angle_beta   90.00000000
_cell_angle_gamma   90.00000000
_symmetry_Int_Tables_number   1
_chemical_formula_structural   PrZn(BiO3)2
_chemical_formula_sum   'Pr4 Zn4 Bi8 O24'
_cell_volume   603.57168278
_cell_formula_units_Z   4
loop_
 _symmetry_equiv_pos_site_id
 _symmetry_equiv_pos_as_xyz
  1  'x, y, z'
loop_
 _atom_site_type_symbol
 _atom_site_label
 _atom_site_symmetry_multiplicity
 _atom_site_fract_x
 _atom_site_fract_y
 _atom_site_fract_z
 _atom_site_occupancy
  Pr  Pr0  1  0.75000000  0.75000000  0.75000000  1
  Pr  Pr1  1  0.75000000  0.25000000  0.25000000  1
  Pr  Pr2  1  0.25000000  0.75000000  0.25000000  1
  Pr  Pr3  1  0.25000000  0.25000000  0.75000000  1
  Zn  Zn0  1  0.25000000  0.25000000  0.25000000  1
  Zn  Zn1  1  0.25000000  0.75000000  0.75000000  1
  Zn  Zn2  1  0.75000000  0.25000000  0.75000000  1
  Zn  Zn3  1  0.75000000  0.75000000  0.25000000  1
  Bi  Bi0  1  0.50000000  0.50000000  0.50000000  1
  Bi  Bi1  1  0.00000000  0.00000000  0.00000000  1
  Bi  Bi2  1  0.00000000  0.00000000  0.50000000  1
  Bi  Bi3  1  0.00000000  0.50000000  0.00000000  1
  Bi  Bi4  1  0.50000000  0.00000000  0.00000000  1
  Bi  Bi5  1  0.50000000  0.50000000  0.00000000  1
  Bi  Bi6  1  0.50000000  0.00000000  0.50000000  1
  Bi  Bi7  1  0.00000000  0.50000000  0.50000000  1
  O  O0  1  0.19905846  0.32043478  0.48499552  1
  O  O1  1  0.19905846  0.67956522  0.51500448  1
  O  O2  1  0.80094154  0.32043478  0.51500448  1
  O  O3  1  0.80094154  0.67956522  0.48499552  1
  O  O4  1  0.32043478  0.48499552  0.19905846  1
  O  O5  1  0.67956522  0.51500448  0.19905846  1
  O  O6  1  0.32043478  0.51500448  0.80094154  1
  O  O7  1  0.67956522  0.48499552  0.80094154  1
  O  O8  1  0.48499552  0.19905846  0.32043478  1
  O  O9  1  0.51500448  0.19905846  0.67956522  1
  O  O10  1  0.51500448  0.80094154  0.32043478  1
  O  O11  1  0.48499552  0.80094154  0.67956522  1
  O  O12  1  0.30094154  0.17956522  0.01500448  1
  O  O13  1  0.30094154  0.82043478  0.98499552  1
  O  O14  1  0.69905846  0.17956522  0.98499552  1
  O  O15  1  0.69905846  0.82043478  0.01500448  1
  O  O16  1  0.17956522  0.01500448  0.30094154  1
  O  O17  1  0.82043478  0.98499552  0.30094154  1
  O  O18  1  0.17956522  0.98499552  0.69905846  1
  O  O19  1  0.82043478  0.01500448  0.69905846  1
  O  O20  1  0.01500448  0.30094154  0.17956522  1
  O  O21  1  0.98499552  0.30094154  0.82043478  1
  O  O22  1  0.98499552  0.69905846  0.17956522  1
  O  O23  1  0.01500448  0.69905846  0.82043478  1
loop_
_geom_bond_atom_site_label_1
_geom_bond_atom_site_label_2
_geom_bond_distance
_geom_bond_site_symmetry_2
Bi2 O17 2.269114 1_445
Bi2 O16 2.269114 1_555
Bi2 O18 2.269114 1_545
Bi2 O19 2.269114 1_455
Bi3 O21 2.269114 1_454
Bi3 O23 2.269114 1_554
Bi3 O20 2.269114 1_555
Bi3 O22 2.269114 1_455
Bi4 O13 2.269114 1_544
Bi4 O15 2.269114 1_545
Bi4 O12 2.269114 1_555
Bi4 O14 2.269114 1_554
Bi5 O4 2.269114 1_555
Bi5 O5 2.269114 1_555
Bi5 O7 2.269114 1_554
Bi5 O6 2.269114 1_554
Bi6 O9 2.269114 1_555
Bi6 O11 2.269114 1_545
Bi6 O8 2.269114 1_555
Bi6 O10 2.269114 1_545
Bi7 O1 2.269114 1_555
Bi7 O3 2.269114 1_455
Bi7 O0 2.269114 1_555
Bi7 O2 2.269114 1_455
O0 Zn0 2.117468 1_555
O0 Pr3 2.356966 1_555
O1 Zn1 2.117468 1_555
O1 Pr2 2.356966 1_555
O2 Zn2 2.117468 1_555
O2 Pr1 2.356966 1_555
O3 Zn3 2.117468 1_555
O3 Pr0 2.356966 1_555
O4 Zn0 2.117468 1_555
O4 Pr2 2.356966 1_555
O5 Zn3 2.117468 1_555
O5 Pr1 2.356966 1_555
O6 Zn1 2.117468 1_555
O6 Pr3 2.356966 1_555
O7 Zn2 2.117468 1_555
O7 Pr0 2.356966 1_555
O8 Zn0 2.117468 1_555
O8 Pr1 2.356966 1_555
O9 Zn2 2.117468 1_555
O9 Pr3 2.356966 1_555
O10 Zn3 2.117468 1_555
O10 Pr2 2.356966 1_555
O11 Zn1 2.117468 1_555
O11 Pr0 2.356966 1_555
O12 Zn0 2.117468 1_555
O12 Pr3 2.356966 1_554
O13 Zn1 2.117468 1_555
O13 Pr2 2.356966 1_556
O14 Zn2 2.117468 1_555
O14 Pr1 2.356966 1_556
O15 Zn3 2.117468 1_555
O15 Pr0 2.356966 1_554
O16 Zn0 2.117468 1_555
O16 Pr2 2.356966 1_545
O17 Zn3 2.117468 1_555
O17 Pr1 2.356966 1_565
O18 Zn1 2.117468 1_555
O18 Pr3 2.356966 1_565
O19 Zn2 2.117468 1_555
O19 Pr0 2.356966 1_545
O20 Zn0 2.117468 1_555
O20 Pr1 2.356966 1_455
O21 Zn2 2.117468 1_555
O21 Pr3 2.356966 1_655
O22 Zn3 2.117468 1_555
O22 Pr2 2.356966 1_655
O23 Zn1 2.117468 1_555
O23 Pr0 2.356966 1_455
