# generated using pymatgen
data_Zr6Ga2Fe
_symmetry_space_group_name_H-M   'P 1'
_cell_length_a   15.69320816
_cell_length_b   15.69321483
_cell_length_c   6.70803392
_cell_angle_alpha   90.00000000
_cell_angle_beta   90.00000000
_cell_angle_gamma   120.00002249
_symmetry_Int_Tables_number   1
_chemical_formula_structural   Zr6Ga2Fe
_chemical_formula_sum   'Zr48 Ga16 Fe8'
_cell_volume   1430.70283797
_cell_formula_units_Z   8
loop_
 _symmetry_equiv_pos_site_id
 _symmetry_equiv_pos_as_xyz
  1  'x, y, z'
loop_
 _atom_site_type_symbol
 _atom_site_label
 _atom_site_symmetry_multiplicity
 _atom_site_fract_x
 _atom_site_fract_y
 _atom_site_fract_z
 _atom_site_occupancy
  Zr  Zr0_0  1  0.12469564  0.00000050  0.25000000  1
  Zr  Zr0_1  1  0.12469564  0.00000050  0.75000000  1
  Zr  Zr0_2  1  0.12469564  0.50000050  0.25000000  1
  Zr  Zr0_3  1  0.12469564  0.50000050  0.75000000  1
  Zr  Zr0_4  1  0.62469564  0.00000050  0.25000000  1
  Zr  Zr0_5  1  0.62469564  0.00000050  0.75000000  1
  Zr  Zr0_6  1  0.62469564  0.50000050  0.25000000  1
  Zr  Zr0_7  1  0.62469564  0.50000050  0.75000000  1
  Zr  Zr1_0  1  0.00000000  0.12469464  0.25000000  1
  Zr  Zr1_1  1  0.00000000  0.12469464  0.75000000  1
  Zr  Zr1_2  1  0.00000000  0.62469464  0.25000000  1
  Zr  Zr1_3  1  0.00000000  0.62469464  0.75000000  1
  Zr  Zr1_4  1  0.50000000  0.12469464  0.25000000  1
  Zr  Zr1_5  1  0.50000000  0.12469464  0.75000000  1
  Zr  Zr1_6  1  0.50000000  0.62469464  0.25000000  1
  Zr  Zr1_7  1  0.50000000  0.62469464  0.75000000  1
  Zr  Zr2_0  1  0.37530436  0.37530486  0.25000000  1
  Zr  Zr2_1  1  0.37530436  0.37530486  0.75000000  1
  Zr  Zr2_2  1  0.37530436  0.87530486  0.25000000  1
  Zr  Zr2_3  1  0.37530436  0.87530486  0.75000000  1
  Zr  Zr2_4  1  0.87530436  0.37530486  0.25000000  1
  Zr  Zr2_5  1  0.87530436  0.37530486  0.75000000  1
  Zr  Zr2_6  1  0.87530436  0.87530486  0.25000000  1
  Zr  Zr2_7  1  0.87530436  0.87530486  0.75000000  1
  Zr  Zr3_0  1  0.29873052  0.49999950  0.00000000  1
  Zr  Zr3_1  1  0.29873052  0.49999950  0.50000000  1
  Zr  Zr3_2  1  0.29873051  0.99999950  0.00000000  1
  Zr  Zr3_3  1  0.29873051  0.99999950  0.50000000  1
  Zr  Zr3_4  1  0.79873052  0.49999950  0.00000000  1
  Zr  Zr3_5  1  0.79873052  0.49999950  0.50000000  1
  Zr  Zr3_6  1  0.79873052  0.99999950  0.00000000  1
  Zr  Zr3_7  1  0.79873052  0.99999950  0.50000000  1
  Zr  Zr4_0  1  0.00000000  0.29873102  0.00000000  1
  Zr  Zr4_1  1  0.00000000  0.29873102  0.50000000  1
  Zr  Zr4_2  1  0.00000000  0.79873102  0.00000000  1
  Zr  Zr4_3  1  0.00000000  0.79873102  0.50000000  1
  Zr  Zr4_4  1  0.50000000  0.29873101  0.00000000  1
  Zr  Zr4_5  1  0.50000000  0.29873101  0.50000000  1
  Zr  Zr4_6  1  0.50000000  0.79873101  0.00000000  1
  Zr  Zr4_7  1  0.50000000  0.79873101  0.50000000  1
  Zr  Zr5_0  1  0.20126949  0.20126948  0.00000000  1
  Zr  Zr5_1  1  0.20126949  0.20126948  0.50000000  1
  Zr  Zr5_2  1  0.20126949  0.70126949  0.00000000  1
  Zr  Zr5_3  1  0.20126949  0.70126949  0.50000000  1
  Zr  Zr5_4  1  0.70126949  0.20126948  0.00000000  1
  Zr  Zr5_5  1  0.70126949  0.20126948  0.50000000  1
  Zr  Zr5_6  1  0.70126949  0.70126948  0.00000000  1
  Zr  Zr5_7  1  0.70126949  0.70126948  0.50000000  1
  Ga  Ga0_0  1  0.16666700  0.33333400  0.25000000  1
  Ga  Ga0_1  1  0.16666700  0.33333400  0.75000000  1
  Ga  Ga0_2  1  0.16666700  0.83333400  0.25000000  1
  Ga  Ga0_3  1  0.16666700  0.83333400  0.75000000  1
  Ga  Ga0_4  1  0.66666700  0.33333400  0.25000000  1
  Ga  Ga0_5  1  0.66666700  0.33333400  0.75000000  1
  Ga  Ga0_6  1  0.66666700  0.83333400  0.25000000  1
  Ga  Ga0_7  1  0.66666700  0.83333400  0.75000000  1
  Ga  Ga1_0  1  0.33333300  0.16666600  0.25000000  1
  Ga  Ga1_1  1  0.33333300  0.16666600  0.75000000  1
  Ga  Ga1_2  1  0.33333300  0.66666600  0.25000000  1
  Ga  Ga1_3  1  0.33333300  0.66666600  0.75000000  1
  Ga  Ga1_4  1  0.83333300  0.16666600  0.25000000  1
  Ga  Ga1_5  1  0.83333300  0.16666600  0.75000000  1
  Ga  Ga1_6  1  0.83333300  0.66666600  0.25000000  1
  Ga  Ga1_7  1  0.83333300  0.66666600  0.75000000  1
  Fe  Fe0_0  1  0.00000000  0.00000000  0.00000000  1
  Fe  Fe0_1  1  0.00000000  0.00000000  0.50000000  1
  Fe  Fe0_2  1  0.00000000  0.50000000  0.00000000  1
  Fe  Fe0_3  1  0.00000000  0.50000000  0.50000000  1
  Fe  Fe0_4  1  0.50000000  1.00000000  0.00000000  1
  Fe  Fe0_5  1  0.50000000  1.00000000  0.50000000  1
  Fe  Fe0_6  1  0.50000000  0.50000000  0.00000000  1
  Fe  Fe0_7  1  0.50000000  0.50000000  0.50000000  1
loop_
_geom_bond_atom_site_label_1
_geom_bond_atom_site_label_2
_geom_bond_distance
_geom_bond_site_symmetry_2
Zr0_0 Zr3_2 3.204944 1_545
Zr0_0 Zr3_3 3.204944 1_545
Zr0_0 Zr5_0 3.230680 1_555
Zr0_0 Zr5_1 3.230680 1_555
Zr0_0 Zr4_3 3.230686 1_545
Zr0_0 Zr4_2 3.230686 1_545
Zr0_1 Zr3_2 3.204944 1_546
Zr0_1 Zr3_3 3.204944 1_545
Zr0_1 Zr5_0 3.230680 1_556
Zr0_1 Zr5_1 3.230680 1_555
Zr0_1 Zr4_2 3.230686 1_546
Zr0_1 Zr4_3 3.230686 1_545
Zr0_2 Zr3_1 3.204944 1_555
Zr0_2 Zr3_0 3.204944 1_555
Zr0_2 Zr5_2 3.230680 1_555
Zr0_2 Zr5_3 3.230680 1_555
Zr0_2 Zr4_0 3.230686 1_555
Zr0_2 Zr4_1 3.230686 1_555
Zr0_3 Zr3_0 3.204944 1_556
Zr0_3 Zr3_1 3.204944 1_555
Zr0_3 Zr5_2 3.230680 1_556
Zr0_3 Zr5_3 3.230680 1_555
Zr0_3 Zr4_0 3.230686 1_556
Zr0_3 Zr4_1 3.230686 1_555
Zr0_4 Zr3_7 3.204944 1_545
Zr0_4 Zr3_6 3.204944 1_545
Zr0_4 Zr5_4 3.230680 1_555
Zr0_4 Zr5_5 3.230680 1_555
Zr0_4 Zr4_7 3.230686 1_545
Zr0_4 Zr4_6 3.230686 1_545
Zr0_5 Zr3_6 3.204944 1_546
Zr0_5 Zr3_7 3.204944 1_545
Zr0_5 Zr5_4 3.230680 1_556
Zr0_5 Zr5_5 3.230680 1_555
Zr0_5 Zr4_6 3.230686 1_546
Zr0_5 Zr4_7 3.230686 1_545
Zr0_6 Zr3_4 3.204944 1_555
Zr0_6 Zr3_5 3.204944 1_555
Zr0_6 Zr5_7 3.230680 1_555
Zr0_6 Zr5_6 3.230680 1_555
Zr0_6 Zr4_4 3.230686 1_555
Zr0_6 Zr4_5 3.230686 1_555
Zr0_7 Zr3_4 3.204944 1_556
Zr0_7 Zr3_5 3.204944 1_555
Zr0_7 Zr5_6 3.230680 1_556
Zr0_7 Zr5_7 3.230680 1_555
Zr0_7 Zr4_4 3.230686 1_556
Zr0_7 Zr4_5 3.230686 1_555
Zr1_0 Zr4_0 3.204958 1_555
Zr1_0 Zr4_1 3.204958 1_555
Zr1_0 Zr5_0 3.230683 1_555
Zr1_0 Zr5_1 3.230683 1_555
Zr1_0 Zr3_6 3.230684 1_445
Zr1_0 Zr3_7 3.230684 1_445
Zr1_1 Zr4_0 3.204958 1_556
Zr1_1 Zr4_1 3.204958 1_555
Zr1_1 Zr5_0 3.230683 1_556
Zr1_1 Zr5_1 3.230683 1_555
Zr1_1 Zr3_6 3.230684 1_446
Zr1_1 Zr3_7 3.230684 1_445
Zr1_2 Zr4_3 3.204958 1_555
Zr1_2 Zr4_2 3.204958 1_555
Zr1_2 Zr5_2 3.230683 1_555
Zr1_2 Zr5_3 3.230683 1_555
Zr1_2 Zr3_5 3.230684 1_455
Zr1_2 Zr3_4 3.230684 1_455
Zr1_3 Zr4_2 3.204958 1_556
Zr1_3 Zr4_3 3.204958 1_555
Zr1_3 Zr5_2 3.230683 1_556
Zr1_3 Zr5_3 3.230683 1_555
Zr1_3 Zr3_4 3.230684 1_456
Zr1_3 Zr3_5 3.230684 1_455
Zr1_4 Zr4_4 3.204958 1_555
Zr1_4 Zr4_5 3.204958 1_555
Zr1_4 Zr5_4 3.230683 1_555
Zr1_4 Zr5_5 3.230683 1_555
Zr1_4 Zr3_2 3.230684 1_545
Zr1_4 Zr3_3 3.230684 1_545
Zr1_5 Zr4_4 3.204958 1_556
Zr1_5 Zr4_5 3.204958 1_555
Zr1_5 Zr5_4 3.230683 1_556
Zr1_5 Zr5_5 3.230683 1_555
Zr1_5 Zr3_2 3.230684 1_546
Zr1_5 Zr3_3 3.230684 1_545
Zr1_6 Zr4_7 3.204958 1_555
Zr1_6 Zr4_6 3.204958 1_555
Zr1_6 Zr5_6 3.230683 1_555
Zr1_6 Zr5_7 3.230683 1_555
Zr1_6 Zr3_0 3.230684 1_555
Zr1_6 Zr3_1 3.230684 1_555
Zr1_7 Zr4_6 3.204958 1_556
Zr1_7 Zr4_7 3.204958 1_555
Zr1_7 Zr5_6 3.230683 1_556
Zr1_7 Zr5_7 3.230683 1_555
Zr1_7 Zr3_0 3.230684 1_556
Zr1_7 Zr3_1 3.230684 1_555
Zr2_0 Zr5_0 3.204940 1_555
Zr2_0 Zr5_1 3.204940 1_555
Zr2_0 Zr3_1 3.230674 1_555
Zr2_0 Zr3_0 3.230674 1_555
Zr2_0 Zr4_4 3.230686 1_555
Zr2_0 Zr4_5 3.230686 1_555
Zr2_1 Zr5_0 3.204940 1_556
Zr2_1 Zr5_1 3.204940 1_555
Zr2_1 Zr3_0 3.230674 1_556
Zr2_1 Zr3_1 3.230674 1_555
Zr2_1 Zr4_4 3.230686 1_556
Zr2_1 Zr4_5 3.230686 1_555
Zr2_2 Zr5_3 3.204940 1_555
Zr2_2 Zr5_2 3.204940 1_555
Zr2_2 Zr3_2 3.230674 1_555
Zr2_2 Zr3_3 3.230674 1_555
Zr2_2 Zr4_6 3.230686 1_555
Zr2_2 Zr4_7 3.230686 1_555
Zr2_3 Zr5_2 3.204940 1_556
Zr2_3 Zr5_3 3.204940 1_555
Zr2_3 Zr3_2 3.230674 1_556
Zr2_3 Zr3_3 3.230674 1_555
Zr2_3 Zr4_6 3.230686 1_556
Zr2_3 Zr4_7 3.230686 1_555
Zr2_4 Zr5_5 3.204940 1_555
Zr2_4 Zr5_4 3.204940 1_555
Zr2_4 Zr3_4 3.230674 1_555
Zr2_4 Zr3_5 3.230674 1_555
Zr2_4 Zr4_1 3.230686 1_655
Zr2_4 Zr4_0 3.230686 1_655
Zr2_5 Zr5_4 3.204940 1_556
Zr2_5 Zr5_5 3.204940 1_555
Zr2_5 Zr3_4 3.230674 1_556
Zr2_5 Zr3_5 3.230674 1_555
Zr2_5 Zr4_0 3.230686 1_656
Zr2_5 Zr4_1 3.230686 1_655
Zr2_6 Zr5_7 3.204940 1_555
Zr2_6 Zr5_6 3.204940 1_555
Zr2_6 Zr3_7 3.230674 1_555
Zr2_6 Zr3_6 3.230674 1_555
Zr2_6 Zr4_2 3.230686 1_655
Zr2_6 Zr4_3 3.230686 1_655
Zr2_7 Zr5_6 3.204940 1_556
Zr2_7 Zr5_7 3.204940 1_555
Zr2_7 Zr3_6 3.230674 1_556
Zr2_7 Zr3_7 3.230674 1_555
Zr2_7 Zr4_2 3.230686 1_656
Zr2_7 Zr4_3 3.230686 1_655
Zr3_0 Zr3_1 3.354017 1_554
Zr3_0 Zr3_1 3.354017 1_555
Zr3_2 Zr3_3 3.354017 1_554
Zr3_2 Zr3_3 3.354017 1_555
Zr3_4 Zr3_5 3.354017 1_555
Zr3_4 Zr3_5 3.354017 1_554
Zr3_6 Zr3_7 3.354017 1_554
Zr3_6 Zr3_7 3.354017 1_555
Zr4_0 Zr4_1 3.354017 1_554
Zr4_0 Zr4_1 3.354017 1_555
Zr4_2 Zr4_3 3.354017 1_555
Zr4_2 Zr4_3 3.354017 1_554
Zr4_4 Zr4_5 3.354017 1_555
Zr4_4 Zr4_5 3.354017 1_554
Zr4_6 Zr4_7 3.354017 1_555
Zr4_6 Zr4_7 3.354017 1_554
Zr5_0 Zr5_1 3.354017 1_554
Zr5_0 Zr5_1 3.354017 1_555
Zr5_2 Zr5_3 3.354017 1_554
Zr5_2 Zr5_3 3.354017 1_555
Zr5_4 Zr5_5 3.354017 1_554
Zr5_4 Zr5_5 3.354017 1_555
Zr5_6 Zr5_7 3.354017 1_554
Zr5_6 Zr5_7 3.354017 1_555
Ga0_0 Zr3_0 2.920254 1_555
Ga0_0 Zr3_1 2.920254 1_555
Ga0_0 Zr4_0 2.920268 1_555
Ga0_0 Zr4_1 2.920268 1_555
Ga0_0 Zr5_0 2.920271 1_555
Ga0_0 Zr5_1 2.920271 1_555
Ga0_0 Zr2_0 2.999596 1_555
Ga0_0 Zr0_2 2.999603 1_555
Ga0_0 Zr1_0 2.999619 1_555
Ga0_1 Zr3_0 2.920254 1_556
Ga0_1 Zr3_1 2.920254 1_555
Ga0_1 Zr4_0 2.920268 1_556
Ga0_1 Zr4_1 2.920268 1_555
Ga0_1 Zr5_0 2.920271 1_556
Ga0_1 Zr5_1 2.920271 1_555
Ga0_1 Zr2_1 2.999596 1_555
Ga0_1 Zr0_3 2.999603 1_555
Ga0_1 Zr1_1 2.999619 1_555
Ga0_2 Zr3_3 2.920254 1_555
Ga0_2 Zr3_2 2.920254 1_555
Ga0_2 Zr4_2 2.920268 1_555
Ga0_2 Zr4_3 2.920268 1_555
Ga0_2 Zr5_3 2.920271 1_555
Ga0_2 Zr5_2 2.920271 1_555
Ga0_2 Zr2_2 2.999596 1_555
Ga0_2 Zr0_0 2.999603 1_565
Ga0_2 Zr1_2 2.999619 1_555
Ga0_3 Zr3_2 2.920254 1_556
Ga0_3 Zr3_3 2.920254 1_555
Ga0_3 Zr4_2 2.920268 1_556
Ga0_3 Zr4_3 2.920268 1_555
Ga0_3 Zr5_2 2.920271 1_556
Ga0_3 Zr5_3 2.920271 1_555
Ga0_3 Zr2_3 2.999596 1_555
Ga0_3 Zr0_1 2.999603 1_565
Ga0_3 Zr1_3 2.999619 1_555
Ga0_4 Zr3_4 2.920254 1_555
Ga0_4 Zr3_5 2.920254 1_555
Ga0_4 Zr4_4 2.920268 1_555
Ga0_4 Zr4_5 2.920268 1_555
Ga0_4 Zr5_5 2.920271 1_555
Ga0_4 Zr5_4 2.920271 1_555
Ga0_4 Zr2_4 2.999596 1_555
Ga0_4 Zr0_6 2.999603 1_555
Ga0_4 Zr1_4 2.999619 1_555
Ga0_5 Zr3_4 2.920254 1_556
Ga0_5 Zr3_5 2.920254 1_555
Ga0_5 Zr4_4 2.920268 1_556
Ga0_5 Zr4_5 2.920268 1_555
Ga0_5 Zr5_4 2.920271 1_556
Ga0_5 Zr5_5 2.920271 1_555
Ga0_5 Zr2_5 2.999596 1_555
Ga0_5 Zr0_7 2.999603 1_555
Ga0_5 Zr1_5 2.999619 1_555
Ga0_6 Zr3_7 2.920254 1_555
Ga0_6 Zr3_6 2.920254 1_555
Ga0_6 Zr4_6 2.920268 1_555
Ga0_6 Zr4_7 2.920268 1_555
Ga0_6 Zr5_7 2.920271 1_555
Ga0_6 Zr5_6 2.920271 1_555
Ga0_6 Zr2_6 2.999596 1_555
Ga0_6 Zr0_4 2.999603 1_565
Ga0_6 Zr1_6 2.999619 1_555
Ga0_7 Zr3_6 2.920254 1_556
Ga0_7 Zr3_7 2.920254 1_555
Ga0_7 Zr4_6 2.920268 1_556
Ga0_7 Zr4_7 2.920268 1_555
Ga0_7 Zr5_6 2.920271 1_556
Ga0_7 Zr5_7 2.920271 1_555
Ga0_7 Zr2_7 2.999596 1_555
Ga0_7 Zr0_5 2.999603 1_565
Ga0_7 Zr1_7 2.999619 1_555
Ga1_0 Zr3_2 2.920265 1_545
Ga1_0 Zr3_3 2.920265 1_545
Ga1_0 Zr5_1 2.920267 1_555
Ga1_0 Zr5_0 2.920267 1_555
Ga1_0 Zr4_4 2.920272 1_555
Ga1_0 Zr4_5 2.920272 1_555
Ga1_0 Zr0_0 2.999590 1_555
Ga1_0 Zr1_4 2.999609 1_555
Ga1_0 Zr2_0 2.999618 1_555
Ga1_1 Zr3_2 2.920265 1_546
Ga1_1 Zr3_3 2.920265 1_545
Ga1_1 Zr5_0 2.920267 1_556
Ga1_1 Zr5_1 2.920267 1_555
Ga1_1 Zr4_4 2.920272 1_556
Ga1_1 Zr4_5 2.920272 1_555
Ga1_1 Zr0_1 2.999590 1_555
Ga1_1 Zr1_5 2.999609 1_555
Ga1_1 Zr2_1 2.999618 1_555
Ga1_2 Zr3_0 2.920265 1_555
Ga1_2 Zr3_1 2.920265 1_555
Ga1_2 Zr5_3 2.920267 1_555
Ga1_2 Zr5_2 2.920267 1_555
Ga1_2 Zr4_7 2.920272 1_555
Ga1_2 Zr4_6 2.920272 1_555
Ga1_2 Zr0_2 2.999590 1_555
Ga1_2 Zr1_6 2.999609 1_555
Ga1_2 Zr2_2 2.999618 1_555
Ga1_3 Zr3_0 2.920265 1_556
Ga1_3 Zr3_1 2.920265 1_555
Ga1_3 Zr5_2 2.920267 1_556
Ga1_3 Zr5_3 2.920267 1_555
Ga1_3 Zr4_6 2.920272 1_556
Ga1_3 Zr4_7 2.920272 1_555
Ga1_3 Zr0_3 2.999590 1_555
Ga1_3 Zr1_7 2.999609 1_555
Ga1_3 Zr2_3 2.999618 1_555
Ga1_4 Zr3_6 2.920265 1_545
Ga1_4 Zr3_7 2.920265 1_545
Ga1_4 Zr5_4 2.920267 1_555
Ga1_4 Zr5_5 2.920267 1_555
Ga1_4 Zr4_0 2.920272 1_655
Ga1_4 Zr4_1 2.920272 1_655
Ga1_4 Zr0_4 2.999590 1_555
Ga1_4 Zr1_0 2.999609 1_655
Ga1_4 Zr2_4 2.999618 1_555
Ga1_5 Zr3_6 2.920265 1_546
Ga1_5 Zr3_7 2.920265 1_545
Ga1_5 Zr5_4 2.920267 1_556
Ga1_5 Zr5_5 2.920267 1_555
Ga1_5 Zr4_0 2.920272 1_656
Ga1_5 Zr4_1 2.920272 1_655
Ga1_5 Zr0_5 2.999590 1_555
Ga1_5 Zr1_1 2.999609 1_655
Ga1_5 Zr2_5 2.999618 1_555
Ga1_6 Zr3_4 2.920265 1_555
Ga1_6 Zr3_5 2.920265 1_555
Ga1_6 Zr5_7 2.920267 1_555
Ga1_6 Zr5_6 2.920267 1_555
Ga1_6 Zr4_2 2.920272 1_655
Ga1_6 Zr4_3 2.920272 1_655
Ga1_6 Zr0_6 2.999590 1_555
Ga1_6 Zr1_2 2.999609 1_655
Ga1_6 Zr2_6 2.999618 1_555
Ga1_7 Zr3_4 2.920265 1_556
Ga1_7 Zr3_5 2.920265 1_555
Ga1_7 Zr5_6 2.920267 1_556
Ga1_7 Zr5_7 2.920267 1_555
Ga1_7 Zr4_2 2.920272 1_656
Ga1_7 Zr4_3 2.920272 1_655
Ga1_7 Zr0_7 2.999590 1_555
Ga1_7 Zr1_3 2.999609 1_655
Ga1_7 Zr2_7 2.999618 1_555
Fe0_0 Zr1_0 2.577141 1_555
Fe0_0 Zr1_1 2.577141 1_554
Fe0_0 Zr2_7 2.577149 1_444
Fe0_0 Zr2_6 2.577149 1_445
Fe0_0 Zr0_1 2.577150 1_554
Fe0_0 Zr0_0 2.577150 1_555
Fe0_0 Zr4_2 3.158557 1_545
Fe0_0 Zr3_6 3.158560 1_445
Fe0_0 Zr5_0 3.158564 1_555
Fe0_1 Zr1_0 2.577141 1_555
Fe0_1 Zr1_1 2.577141 1_555
Fe0_1 Zr2_6 2.577149 1_445
Fe0_1 Zr2_7 2.577149 1_445
Fe0_1 Zr0_0 2.577150 1_555
Fe0_1 Zr0_1 2.577150 1_555
Fe0_1 Zr4_3 3.158557 1_545
Fe0_1 Zr3_7 3.158560 1_445
Fe0_1 Zr5_1 3.158564 1_555
Fe0_2 Zr1_3 2.577141 1_554
Fe0_2 Zr1_2 2.577141 1_555
Fe0_2 Zr2_5 2.577149 1_454
Fe0_2 Zr2_4 2.577149 1_455
Fe0_2 Zr0_3 2.577150 1_554
Fe0_2 Zr0_2 2.577150 1_555
Fe0_2 Zr4_0 3.158557 1_555
Fe0_2 Zr3_4 3.158560 1_455
Fe0_2 Zr5_2 3.158564 1_555
Fe0_3 Zr1_2 2.577141 1_555
Fe0_3 Zr1_3 2.577141 1_555
Fe0_3 Zr2_4 2.577149 1_455
Fe0_3 Zr2_5 2.577149 1_455
Fe0_3 Zr0_2 2.577150 1_555
Fe0_3 Zr0_3 2.577150 1_555
Fe0_3 Zr4_1 3.158557 1_555
Fe0_3 Zr3_5 3.158560 1_455
Fe0_3 Zr5_3 3.158564 1_555
Fe0_4 Zr1_4 2.577141 1_565
Fe0_4 Zr1_5 2.577141 1_564
Fe0_4 Zr2_3 2.577149 1_554
Fe0_4 Zr2_2 2.577149 1_555
Fe0_4 Zr0_4 2.577150 1_565
Fe0_4 Zr0_5 2.577150 1_564
Fe0_4 Zr4_6 3.158557 1_555
Fe0_4 Zr3_2 3.158560 1_555
Fe0_4 Zr5_4 3.158564 1_565
Fe0_5 Zr1_4 2.577141 1_565
Fe0_5 Zr1_5 2.577141 1_565
Fe0_5 Zr2_2 2.577149 1_555
Fe0_5 Zr2_3 2.577149 1_555
Fe0_5 Zr0_4 2.577150 1_565
Fe0_5 Zr0_5 2.577150 1_565
Fe0_5 Zr4_7 3.158557 1_555
Fe0_5 Zr3_3 3.158560 1_555
Fe0_5 Zr5_5 3.158564 1_565
Fe0_6 Zr1_7 2.577141 1_554
Fe0_6 Zr1_6 2.577141 1_555
Fe0_6 Zr2_1 2.577149 1_554
Fe0_6 Zr2_0 2.577149 1_555
Fe0_6 Zr0_7 2.577150 1_554
Fe0_6 Zr0_6 2.577150 1_555
Fe0_6 Zr4_4 3.158557 1_555
Fe0_6 Zr3_0 3.158560 1_555
Fe0_6 Zr5_6 3.158564 1_555
Fe0_7 Zr1_6 2.577141 1_555
Fe0_7 Zr1_7 2.577141 1_555
Fe0_7 Zr2_0 2.577149 1_555
Fe0_7 Zr2_1 2.577149 1_555
Fe0_7 Zr0_6 2.577150 1_555
Fe0_7 Zr0_7 2.577150 1_555
Fe0_7 Zr4_5 3.158557 1_555
Fe0_7 Zr3_1 3.158560 1_555
Fe0_7 Zr5_7 3.158564 1_555
