# generated using pymatgen
data_CaSi4NiO10
_symmetry_space_group_name_H-M   'P 1'
_cell_length_a   7.30577800
_cell_length_b   7.30577800
_cell_length_c   15.45442100
_cell_angle_alpha   90.00000000
_cell_angle_beta   90.00000000
_cell_angle_gamma   90.00000000
_symmetry_Int_Tables_number   1
_chemical_formula_structural   CaSi4NiO10
_chemical_formula_sum   'Ca4 Si16 Ni4 O40'
_cell_volume   824.87032745
_cell_formula_units_Z   4
loop_
 _symmetry_equiv_pos_site_id
 _symmetry_equiv_pos_as_xyz
  1  'x, y, z'
loop_
 _atom_site_type_symbol
 _atom_site_label
 _atom_site_symmetry_multiplicity
 _atom_site_fract_x
 _atom_site_fract_y
 _atom_site_fract_z
 _atom_site_occupancy
  Ca  Ca0  1  0.50000000  0.50000000  0.50000000  1
  Ca  Ca1  1  0.00000000  0.00000000  0.50000000  1
  Ca  Ca2  1  0.00000000  0.00000000  0.00000000  1
  Ca  Ca3  1  0.50000000  0.50000000  0.00000000  1
  Si  Si0  1  0.17874800  0.25128700  0.64794100  1
  Si  Si1  1  0.82125200  0.74871300  0.64794100  1
  Si  Si2  1  0.25128700  0.17874800  0.85205900  1
  Si  Si3  1  0.75128700  0.32125200  0.64794100  1
  Si  Si4  1  0.24871300  0.67874800  0.64794100  1
  Si  Si5  1  0.32125200  0.75128700  0.85205900  1
  Si  Si6  1  0.67874800  0.24871300  0.85205900  1
  Si  Si7  1  0.74871300  0.82125200  0.85205900  1
  Si  Si8  1  0.32125200  0.24871300  0.35205900  1
  Si  Si9  1  0.67874800  0.75128700  0.35205900  1
  Si  Si10  1  0.24871300  0.32125200  0.14794100  1
  Si  Si11  1  0.74871300  0.17874800  0.35205900  1
  Si  Si12  1  0.25128700  0.82125200  0.35205900  1
  Si  Si13  1  0.17874800  0.74871300  0.14794100  1
  Si  Si14  1  0.82125200  0.25128700  0.14794100  1
  Si  Si15  1  0.75128700  0.67874800  0.14794100  1
  Ni  Ni0  1  0.50000000  0.00000000  0.58424500  1
  Ni  Ni1  1  0.00000000  0.50000000  0.91575500  1
  Ni  Ni2  1  0.00000000  0.50000000  0.41575500  1
  Ni  Ni3  1  0.50000000  0.00000000  0.08424500  1
  O  O0  1  0.25956000  0.09924400  0.58317400  1
  O  O1  1  0.74044000  0.90075600  0.58317400  1
  O  O2  1  0.09924400  0.25956000  0.91682600  1
  O  O3  1  0.59924400  0.24044000  0.58317400  1
  O  O4  1  0.40075600  0.75956000  0.58317400  1
  O  O5  1  0.24044000  0.59924400  0.91682600  1
  O  O6  1  0.75956000  0.40075600  0.91682600  1
  O  O7  1  0.90075600  0.74044000  0.91682600  1
  O  O8  1  0.24044000  0.40075600  0.41682600  1
  O  O9  1  0.75956000  0.59924400  0.41682600  1
  O  O10  1  0.40075600  0.24044000  0.08317400  1
  O  O11  1  0.90075600  0.25956000  0.41682600  1
  O  O12  1  0.09924400  0.74044000  0.41682600  1
  O  O13  1  0.25956000  0.90075600  0.08317400  1
  O  O14  1  0.74044000  0.09924400  0.08317400  1
  O  O15  1  0.24456000  0.04238400  0.37367000  1
  O  O16  1  0.59924400  0.75956000  0.08317400  1
  O  O17  1  0.74456000  0.54238400  0.62633000  1
  O  O18  1  0.45761600  0.25544000  0.87367000  1
  O  O19  1  0.95761600  0.24456000  0.62633000  1
  O  O20  1  0.04238400  0.75544000  0.62633000  1
  O  O21  1  0.24456000  0.95761600  0.87367000  1
  O  O22  1  0.75544000  0.04238400  0.87367000  1
  O  O23  1  0.54238400  0.74456000  0.87367000  1
  O  O24  1  0.71099200  0.71099200  0.25000000  1
  O  O25  1  0.78900800  0.21099200  0.25000000  1
  O  O26  1  0.21099200  0.78900800  0.25000000  1
  O  O27  1  0.28900800  0.28900800  0.25000000  1
  O  O28  1  0.78900800  0.78900800  0.75000000  1
  O  O29  1  0.71099200  0.28900800  0.75000000  1
  O  O30  1  0.28900800  0.71099200  0.75000000  1
  O  O31  1  0.21099200  0.21099200  0.75000000  1
  O  O32  1  0.95761600  0.75544000  0.12633000  1
  O  O33  1  0.74456000  0.45761600  0.12633000  1
  O  O34  1  0.25544000  0.54238400  0.12633000  1
  O  O35  1  0.45761600  0.74456000  0.37367000  1
  O  O36  1  0.54238400  0.25544000  0.37367000  1
  O  O37  1  0.04238400  0.24456000  0.12633000  1
  O  O38  1  0.75544000  0.95761600  0.37367000  1
  O  O39  1  0.25544000  0.45761600  0.62633000  1
loop_
_geom_bond_atom_site_label_1
_geom_bond_atom_site_label_2
_geom_bond_distance
_geom_bond_site_symmetry_2
Ca0 O4 2.402890 1_555
Ca0 O3 2.402890 1_555
Ca0 O8 2.402890 1_555
Ca0 O9 2.402890 1_555
Ca0 O36 2.664560 1_555
Ca0 O35 2.664560 1_555
Ca0 O39 2.664560 1_555
Ca0 O17 2.664560 1_555
Ca1 O1 2.402890 1_445
Ca1 O0 2.402890 1_555
Ca1 O12 2.402890 1_545
Ca1 O11 2.402890 1_455
Ca1 O38 2.664560 1_445
Ca1 O15 2.664560 1_555
Ca1 O19 2.664560 1_455
Ca1 O20 2.664560 1_545
Ca2 O7 2.402890 1_444
Ca2 O2 2.402890 1_554
Ca2 O13 2.402890 1_545
Ca2 O14 2.402890 1_455
Ca2 O32 2.664560 1_445
Ca2 O37 2.664560 1_555
Ca2 O22 2.664560 1_454
Ca2 O21 2.664560 1_544
Ca3 O5 2.402890 1_554
Ca3 O6 2.402890 1_554
Ca3 O10 2.402890 1_555
Ca3 O16 2.402890 1_555
Ca3 O33 2.664560 1_555
Ca3 O34 2.664560 1_555
Ca3 O18 2.664560 1_554
Ca3 O23 2.664560 1_554
Ni0 O3 1.900428 1_555
Ni0 O4 1.900428 1_545
Ni0 O0 1.900428 1_555
Ni0 O1 1.900428 1_545
Ni1 O7 1.900428 1_455
Ni1 O6 1.900428 1_455
Ni1 O5 1.900428 1_555
Ni1 O2 1.900428 1_555
Ni2 O9 1.900428 1_455
Ni2 O8 1.900428 1_555
Ni2 O11 1.900428 1_455
Ni2 O12 1.900428 1_555
Ni3 O13 1.900428 1_545
Ni3 O10 1.900428 1_555
Ni3 O16 1.900428 1_545
Ni3 O14 1.900428 1_555
O0 Si0 1.607576 1_555
O1 Si1 1.607576 1_555
O2 Si2 1.607576 1_555
O3 Si3 1.607576 1_555
O4 Si4 1.607576 1_555
O5 Si5 1.607576 1_555
O6 Si6 1.607576 1_555
O7 Si7 1.607576 1_555
O8 Si8 1.607576 1_555
O9 Si9 1.607576 1_555
O10 Si10 1.607576 1_555
O11 Si11 1.607576 1_555
O12 Si12 1.607576 1_555
O13 Si13 1.607576 1_555
O14 Si14 1.607576 1_555
O15 Si8 1.642472 1_555
O15 Si12 1.650435 1_545
O16 Si15 1.607576 1_555
O17 Si1 1.642472 1_555
O17 Si3 1.650435 1_555
O18 Si2 1.642472 1_555
O18 Si6 1.650435 1_555
O19 Si3 1.642472 1_555
O19 Si0 1.650435 1_655
O20 Si4 1.642472 1_555
O20 Si1 1.650435 1_455
O21 Si5 1.642472 1_555
O21 Si2 1.650435 1_565
O22 Si6 1.642472 1_555
O22 Si7 1.650435 1_545
O23 Si7 1.642472 1_555
O23 Si5 1.650435 1_555
O24 Si15 1.621701 1_555
O24 Si9 1.621701 1_555
O25 Si14 1.621701 1_555
O25 Si11 1.621701 1_555
O26 Si12 1.621701 1_555
O26 Si13 1.621701 1_555
O27 Si8 1.621701 1_555
O27 Si10 1.621701 1_555
O28 Si7 1.621701 1_555
O28 Si1 1.621701 1_555
O29 Si6 1.621701 1_555
O29 Si3 1.621701 1_555
O30 Si4 1.621701 1_555
O30 Si5 1.621701 1_555
O31 Si2 1.621701 1_555
O31 Si0 1.621701 1_555
O32 Si15 1.642472 1_555
O32 Si13 1.650435 1_655
O33 Si14 1.642472 1_555
O33 Si15 1.650435 1_555
O34 Si13 1.642472 1_555
O34 Si10 1.650435 1_555
O35 Si12 1.642472 1_555
O35 Si9 1.650435 1_555
O36 Si11 1.642472 1_555
O36 Si8 1.650435 1_555
O37 Si10 1.642472 1_555
O37 Si14 1.650435 1_455
O38 Si9 1.642472 1_555
O38 Si11 1.650435 1_565
O39 Si0 1.642472 1_555
O39 Si4 1.650435 1_555
