# generated using pymatgen
data_KRu2C4(ClO4)2
_symmetry_space_group_name_H-M   'P 1'
_cell_length_a   11.92008900
_cell_length_b   11.92008900
_cell_length_c   9.97903000
_cell_angle_alpha   90.00000000
_cell_angle_beta   90.00000000
_cell_angle_gamma   90.00000000
_symmetry_Int_Tables_number   1
_chemical_formula_structural   KRu2C4(ClO4)2
_chemical_formula_sum   'K4 Ru8 C16 Cl8 O32'
_cell_volume   1417.90562138
_cell_formula_units_Z   4
loop_
 _symmetry_equiv_pos_site_id
 _symmetry_equiv_pos_as_xyz
  1  'x, y, z'
loop_
 _atom_site_type_symbol
 _atom_site_label
 _atom_site_symmetry_multiplicity
 _atom_site_fract_x
 _atom_site_fract_y
 _atom_site_fract_z
 _atom_site_occupancy
  K  K0  1  0.00000000  0.50000000  0.03624000  1
  K  K1  1  0.00000000  0.50000000  0.53624000  1
  K  K2  1  0.50000000  0.00000000  0.46376000  1
  K  K3  1  0.50000000  0.00000000  0.96376000  1
  Ru  Ru0  1  0.22741100  0.65231400  0.26514000  1
  Ru  Ru1  1  0.77258900  0.34768600  0.26514000  1
  Ru  Ru2  1  0.84768600  0.72741100  0.76514000  1
  Ru  Ru3  1  0.15231400  0.27258900  0.76514000  1
  Ru  Ru4  1  0.27258900  0.84768600  0.23486000  1
  Ru  Ru5  1  0.72741100  0.15231400  0.23486000  1
  Ru  Ru6  1  0.65231400  0.77258900  0.73486000  1
  Ru  Ru7  1  0.34768600  0.22741100  0.73486000  1
  C  C0  1  0.18131700  0.79384700  0.49400400  1
  C  C1  1  0.81868300  0.20615300  0.49400400  1
  C  C2  1  0.70615300  0.68131700  0.99400400  1
  C  C3  1  0.29384700  0.31868300  0.99400400  1
  C  C4  1  0.31868300  0.70615300  0.00599600  1
  C  C5  1  0.68131700  0.29384700  0.00599600  1
  C  C6  1  0.79384700  0.81868300  0.50599600  1
  C  C7  1  0.20615300  0.18131700  0.50599600  1
  C  C8  1  0.45046300  0.71128700  0.34614200  1
  C  C9  1  0.54953700  0.28871300  0.34614200  1
  C  C10  1  0.78871300  0.95046300  0.84614200  1
  C  C11  1  0.21128700  0.04953700  0.84614200  1
  C  C12  1  0.04953700  0.78871300  0.15385800  1
  C  C13  1  0.95046300  0.21128700  0.15385800  1
  C  C14  1  0.71128700  0.54953700  0.65385800  1
  C  C15  1  0.28871300  0.45046300  0.65385800  1
  Cl  Cl0  1  0.18000500  0.45199000  0.30445700  1
  Cl  Cl1  1  0.81999500  0.54801000  0.30445700  1
  Cl  Cl2  1  0.04801000  0.68000500  0.80445700  1
  Cl  Cl3  1  0.95199000  0.31999500  0.80445700  1
  Cl  Cl4  1  0.31999500  0.04801000  0.19554300  1
  Cl  Cl5  1  0.68000500  0.95199000  0.19554300  1
  Cl  Cl6  1  0.45199000  0.81999500  0.69554300  1
  Cl  Cl7  1  0.54801000  0.18000500  0.69554300  1
  O  O0  1  0.39342400  0.62582000  0.34237500  1
  O  O1  1  0.60657600  0.37418000  0.34237500  1
  O  O2  1  0.87418000  0.89342400  0.84237500  1
  O  O3  1  0.12582000  0.10657600  0.84237500  1
  O  O4  1  0.10657600  0.87418000  0.15762500  1
  O  O5  1  0.89342400  0.12582000  0.15762500  1
  O  O6  1  0.62582000  0.60657600  0.65762500  1
  O  O7  1  0.37418000  0.39342400  0.65762500  1
  O  O8  1  0.43651400  0.81039400  0.31403100  1
  O  O9  1  0.56348600  0.18960600  0.31403100  1
  O  O10  1  0.68960600  0.93651400  0.81403100  1
  O  O11  1  0.31039400  0.06348600  0.81403100  1
  O  O12  1  0.06348600  0.68960600  0.18596900  1
  O  O13  1  0.93651400  0.31039400  0.18596900  1
  O  O14  1  0.81039400  0.56348600  0.68596900  1
  O  O15  1  0.18960600  0.43651400  0.68596900  1
  O  O16  1  0.17058200  0.69400700  0.46462600  1
  O  O17  1  0.82941800  0.30599300  0.46462600  1
  O  O18  1  0.80599300  0.67058200  0.96462600  1
  O  O19  1  0.19400700  0.32941800  0.96462600  1
  O  O20  1  0.32941800  0.80599300  0.03537400  1
  O  O21  1  0.67058200  0.19400700  0.03537400  1
  O  O22  1  0.69400700  0.82941800  0.53537400  1
  O  O23  1  0.30599300  0.17058200  0.53537400  1
  O  O24  1  0.28468600  0.62154500  0.06356300  1
  O  O25  1  0.71531400  0.37845500  0.06356300  1
  O  O26  1  0.87845500  0.78468600  0.56356300  1
  O  O27  1  0.12154500  0.21531400  0.56356300  1
  O  O28  1  0.21531400  0.87845500  0.43643700  1
  O  O29  1  0.78468600  0.12154500  0.43643700  1
  O  O30  1  0.62154500  0.71531400  0.93643700  1
  O  O31  1  0.37845500  0.28468600  0.93643700  1
loop_
_geom_bond_atom_site_label_1
_geom_bond_atom_site_label_2
_geom_bond_distance
_geom_bond_site_symmetry_2
K0 O13 2.813061 1_455
K0 O12 2.813061 1_555
K0 O19 3.161212 1_554
K0 O18 3.161212 1_454
K1 O15 2.813061 1_555
K1 O14 2.813061 1_455
K1 O17 3.161212 1_455
K1 O16 3.161212 1_555
K2 O8 2.813061 1_545
K2 O9 2.813061 1_555
K2 O23 3.161212 1_555
K2 O22 3.161212 1_545
K3 O11 2.813061 1_555
K3 O10 2.813061 1_545
K3 O21 3.161212 1_556
K3 O20 3.161212 1_546
C0 O28 1.229380 1_555
C0 O16 1.232340 1_555
C1 O29 1.229380 1_555
C1 O17 1.232340 1_555
C2 O30 1.229380 1_555
C2 O18 1.232340 1_555
C3 O31 1.229380 1_555
C3 O19 1.232340 1_555
C4 O24 1.229380 1_555
C4 O20 1.232340 1_555
C5 O25 1.229380 1_555
C5 O21 1.232340 1_555
C6 O26 1.229380 1_555
C6 O22 1.232340 1_555
C7 O27 1.229380 1_555
C7 O23 1.232340 1_555
C8 O0 1.225394 1_555
C8 O8 1.235293 1_555
C9 O1 1.225394 1_555
C9 O9 1.235293 1_555
C10 O2 1.225394 1_555
C10 O10 1.235293 1_555
C11 O3 1.225394 1_555
C11 O11 1.235293 1_555
C12 O4 1.225394 1_555
C12 O12 1.235293 1_555
C13 O5 1.225394 1_555
C13 O13 1.235293 1_555
C14 O6 1.225394 1_555
C14 O14 1.235293 1_555
C15 O7 1.225394 1_555
C15 O15 1.235293 1_555
Cl0 Ru0 2.485000 1_555
Cl0 K1 3.206440 1_555
Cl0 K0 3.477834 1_555
Cl1 Ru1 2.485000 1_555
Cl1 K1 3.206440 1_655
Cl1 K0 3.477834 1_655
Cl2 Ru2 2.485000 1_455
Cl2 K0 3.206440 1_556
Cl2 K1 3.477834 1_555
Cl3 Ru3 2.485000 1_655
Cl3 K0 3.206440 1_656
Cl3 K1 3.477834 1_655
Cl4 Ru4 2.485000 1_545
Cl4 K3 3.206440 1_554
Cl4 K2 3.477834 1_555
Cl5 Ru5 2.485000 1_565
Cl5 K3 3.206440 1_564
Cl5 K2 3.477834 1_565
Cl6 Ru6 2.485000 1_555
Cl6 K2 3.206440 1_565
Cl6 K3 3.477834 1_565
Cl7 Ru7 2.485000 1_555
Cl7 K2 3.206440 1_555
Cl7 K3 3.477834 1_555
O0 Ru0 2.147037 1_555
O1 Ru1 2.147037 1_555
O2 Ru2 2.147037 1_555
O3 Ru3 2.147037 1_555
O4 Ru4 2.147037 1_555
O5 Ru5 2.147037 1_555
O6 Ru6 2.147037 1_555
O7 Ru7 2.147037 1_555
O8 Ru4 2.154042 1_555
O9 Ru5 2.154042 1_555
O10 Ru6 2.154042 1_555
O11 Ru7 2.154042 1_555
O12 Ru0 2.154042 1_555
O13 Ru1 2.154042 1_555
O14 Ru2 2.154042 1_555
O15 Ru3 2.154042 1_555
O16 Ru0 2.160710 1_555
O17 Ru1 2.160710 1_555
O18 Ru2 2.160710 1_555
O19 Ru3 2.160710 1_555
O20 Ru4 2.160710 1_555
O21 Ru5 2.160710 1_555
O22 Ru6 2.160710 1_555
O23 Ru7 2.160710 1_555
O24 Ru0 2.155675 1_555
O25 Ru1 2.155675 1_555
O26 Ru2 2.155675 1_555
O27 Ru3 2.155675 1_555
O28 Ru4 2.155675 1_555
O29 Ru5 2.155675 1_555
O30 Ru6 2.155675 1_555
O31 Ru7 2.155675 1_555
