# generated using pymatgen
data_Ba2SnSe4O5
_symmetry_space_group_name_H-M   'P 1'
_cell_length_a   6.16259800
_cell_length_b   12.96878200
_cell_length_c   14.56892400
_cell_angle_alpha   90.00000000
_cell_angle_beta   90.00000000
_cell_angle_gamma   90.00000000
_symmetry_Int_Tables_number   1
_chemical_formula_structural   Ba2SnSe4O5
_chemical_formula_sum   'Ba8 Sn4 Se16 O20'
_cell_volume   1164.36865711
_cell_formula_units_Z   4
loop_
 _symmetry_equiv_pos_site_id
 _symmetry_equiv_pos_as_xyz
  1  'x, y, z'
loop_
 _atom_site_type_symbol
 _atom_site_label
 _atom_site_symmetry_multiplicity
 _atom_site_fract_x
 _atom_site_fract_y
 _atom_site_fract_z
 _atom_site_occupancy
  Ba  Ba0  1  0.61313300  0.59043600  0.10637600  1
  Ba  Ba1  1  0.88686700  0.90956400  0.60637600  1
  Ba  Ba2  1  0.38686700  0.09043600  0.89362400  1
  Ba  Ba3  1  0.11313300  0.40956400  0.39362400  1
  Ba  Ba4  1  0.38686700  0.40956400  0.89362400  1
  Ba  Ba5  1  0.11313300  0.09043600  0.39362400  1
  Ba  Ba6  1  0.61313300  0.90956400  0.10637600  1
  Ba  Ba7  1  0.88686700  0.59043600  0.60637600  1
  Sn  Sn0  1  0.41121500  0.75000000  0.34095900  1
  Sn  Sn1  1  0.08878500  0.75000000  0.84095900  1
  Sn  Sn2  1  0.58878500  0.25000000  0.65904100  1
  Sn  Sn3  1  0.91121500  0.25000000  0.15904100  1
  Se  Se0  1  0.57444600  0.55264700  0.35488000  1
  Se  Se1  1  0.92555400  0.94735300  0.85488000  1
  Se  Se2  1  0.42555400  0.05264700  0.64512000  1
  Se  Se3  1  0.07444600  0.44735300  0.14512000  1
  Se  Se4  1  0.42555400  0.44735300  0.64512000  1
  Se  Se5  1  0.07444600  0.05264700  0.14512000  1
  Se  Se6  1  0.57444600  0.94735300  0.35488000  1
  Se  Se7  1  0.92555400  0.55264700  0.85488000  1
  Se  Se8  1  0.99765700  0.75000000  0.38038800  1
  Se  Se9  1  0.50234300  0.75000000  0.88038800  1
  Se  Se10  1  0.00234300  0.25000000  0.61961200  1
  Se  Se11  1  0.49765700  0.25000000  0.11961200  1
  Se  Se12  1  0.37190700  0.75000000  0.61350700  1
  Se  Se13  1  0.12809300  0.75000000  0.11350700  1
  Se  Se14  1  0.62809300  0.25000000  0.38649300  1
  Se  Se15  1  0.87190700  0.25000000  0.88649300  1
  O  O0  1  0.72397000  0.53416000  0.93989000  1
  O  O1  1  0.77603000  0.96584000  0.43989000  1
  O  O2  1  0.27603000  0.03416000  0.06011000  1
  O  O3  1  0.22397000  0.46584000  0.56011000  1
  O  O4  1  0.27603000  0.46584000  0.06011000  1
  O  O5  1  0.22397000  0.03416000  0.56011000  1
  O  O6  1  0.72397000  0.96584000  0.93989000  1
  O  O7  1  0.77603000  0.53416000  0.43989000  1
  O  O8  1  0.51452400  0.75000000  0.00346600  1
  O  O9  1  0.98547600  0.75000000  0.50346600  1
  O  O10  1  0.48547600  0.25000000  0.99653400  1
  O  O11  1  0.01452400  0.25000000  0.49653400  1
  O  O12  1  0.36370000  0.75000000  0.19869600  1
  O  O13  1  0.13630000  0.75000000  0.69869600  1
  O  O14  1  0.63630000  0.25000000  0.80130400  1
  O  O15  1  0.86370000  0.25000000  0.30130400  1
  O  O16  1  0.87896500  0.75000000  0.17237800  1
  O  O17  1  0.62103500  0.75000000  0.67237800  1
  O  O18  1  0.12103500  0.25000000  0.82762200  1
  O  O19  1  0.37896500  0.25000000  0.32762200  1
loop_
_geom_bond_atom_site_label_1
_geom_bond_atom_site_label_2
_geom_bond_distance
_geom_bond_site_symmetry_2
Ba0 O0 2.623425 1_554
Ba0 O8 2.626663 1_555
Ba0 O4 2.716809 1_555
Ba0 O16 2.809020 1_555
Ba0 O12 2.907592 1_555
Ba0 Se3 3.441499 1_655
Ba0 Se0 3.661226 1_555
Ba1 O1 2.623425 1_555
Ba1 O9 2.626663 1_555
Ba1 O5 2.716809 1_665
Ba1 O17 2.809020 1_555
Ba1 O13 2.907592 1_655
Ba1 Se2 3.441499 1_565
Ba1 Se1 3.661226 1_555
Ba2 O2 2.623425 1_556
Ba2 O10 2.626663 1_555
Ba2 O6 2.716809 1_545
Ba2 O18 2.809020 1_555
Ba2 O14 2.907592 1_555
Ba2 Se1 3.441499 1_445
Ba2 Se2 3.661226 1_555
Ba3 O3 2.623425 1_555
Ba3 O11 2.626663 1_555
Ba3 O7 2.716809 1_455
Ba3 O19 2.809020 1_555
Ba3 O15 2.907592 1_455
Ba3 Se0 3.441499 1_555
Ba3 Se3 3.661226 1_555
Ba4 O4 2.623425 1_556
Ba4 O10 2.626663 1_555
Ba4 O0 2.716809 1_555
Ba4 O18 2.809020 1_555
Ba4 O14 2.907592 1_555
Ba4 Se7 3.441499 1_455
Ba4 Se4 3.661226 1_555
Ba5 O5 2.623425 1_555
Ba5 O11 2.626663 1_555
Ba5 O1 2.716809 1_445
Ba5 O19 2.809020 1_555
Ba5 O15 2.907592 1_455
Ba5 Se6 3.441499 1_545
Ba5 Se5 3.661226 1_555
Ba6 O6 2.623425 1_554
Ba6 O8 2.626663 1_555
Ba6 O2 2.716809 1_565
Ba6 O16 2.809020 1_555
Ba6 O12 2.907592 1_555
Ba6 Se5 3.441499 1_665
Ba6 Se6 3.661226 1_555
Ba7 O7 2.623425 1_555
Ba7 O9 2.626663 1_555
Ba7 O3 2.716809 1_655
Ba7 O17 2.809020 1_555
Ba7 O13 2.907592 1_655
Ba7 Se4 3.441499 1_555
Ba7 Se7 3.661226 1_555
Se0 Sn0 2.757480 1_555
Se1 Sn1 2.757480 1_655
Se2 Sn2 2.757480 1_555
Se3 Sn3 2.757480 1_455
Se4 Sn2 2.757480 1_555
Se5 Sn3 2.757480 1_455
Se6 Sn0 2.757480 1_555
Se7 Sn1 2.757480 1_655
Se8 Sn0 2.612527 1_655
Se9 Sn1 2.612527 1_555
Se10 Sn2 2.612527 1_455
Se11 Sn3 2.612527 1_555
O0 Se7 1.770491 1_555
O1 Se6 1.770491 1_555
O2 Se5 1.770491 1_555
O3 Se4 1.770491 1_555
O4 Se3 1.770491 1_555
O5 Se2 1.770491 1_555
O6 Se1 1.770491 1_555
O7 Se0 1.770491 1_555
O8 Se9 1.794685 1_554
O9 Se8 1.794685 1_555
O10 Se11 1.794685 1_556
O11 Se10 1.794685 1_555
O12 Se13 1.910110 1_555
O12 Sn0 2.093201 1_555
O13 Se12 1.910110 1_555
O13 Sn1 2.093201 1_555
O14 Se15 1.910110 1_555
O14 Sn2 2.093201 1_555
O15 Se14 1.910110 1_555
O15 Sn3 2.093201 1_555
O16 Se13 1.758607 1_655
O17 Se12 1.758607 1_555
O18 Se15 1.758607 1_455
O19 Se14 1.758607 1_555
