# generated using pymatgen
data_Tm(BC)2
_symmetry_space_group_name_H-M   'P 1'
_cell_length_a   3.47830307
_cell_length_b   5.30912476
_cell_length_c   5.30912476
_cell_angle_alpha   90.00000000
_cell_angle_beta   90.00000000
_cell_angle_gamma   90.00000000
_symmetry_Int_Tables_number   1
_chemical_formula_structural   Tm(BC)2
_chemical_formula_sum   'Tm2 B4 C4'
_cell_volume   98.04225286
_cell_formula_units_Z   2
loop_
 _symmetry_equiv_pos_site_id
 _symmetry_equiv_pos_as_xyz
  1  'x, y, z'
loop_
 _atom_site_type_symbol
 _atom_site_label
 _atom_site_symmetry_multiplicity
 _atom_site_fract_x
 _atom_site_fract_y
 _atom_site_fract_z
 _atom_site_occupancy
  Tm  Tm0  1  -0.00000000  0.50000000  0.50000000  1
  Tm  Tm1  1  -0.00000000  -0.00000000  0.00000000  1
  B  B0  1  0.50000000  0.63583276  0.13583276  1
  B  B1  1  0.50000000  0.86416724  0.63583276  1
  B  B2  1  0.50000000  0.36416724  0.86416724  1
  B  B3  1  0.50000000  0.13583276  0.36416724  1
  C  C0  1  0.50000000  0.66286601  0.83713399  1
  C  C1  1  0.50000000  0.83713399  0.33713399  1
  C  C2  1  0.50000000  0.16286601  0.66286601  1
  C  C3  1  0.50000000  0.33713399  0.16286601  1
loop_
_geom_bond_atom_site_label_1
_geom_bond_atom_site_label_2
_geom_bond_distance
_geom_bond_site_symmetry_2
B0 C1 1.511417 1_555
B0 C3 1.592310 1_555
B0 C0 1.592310 1_554
B0 Tm1 2.698663 1_665
B0 Tm0 2.698663 1_555
B0 Tm0 2.698663 1_655
B0 Tm1 2.698663 1_565
B1 C0 1.511417 1_555
B1 C1 1.592310 1_555
B1 C2 1.592310 1_565
B1 Tm1 2.698663 1_566
B1 Tm0 2.698663 1_555
B1 Tm1 2.698663 1_666
B1 Tm0 2.698663 1_655
B2 C2 1.511417 1_555
B2 C0 1.592310 1_555
B2 C3 1.592310 1_556
B2 Tm0 2.698663 1_555
B2 Tm1 2.698663 1_556
B2 Tm0 2.698663 1_655
B2 Tm1 2.698663 1_656
B3 C3 1.511417 1_555
B3 C1 1.592310 1_545
B3 C2 1.592310 1_555
B3 Tm1 2.698663 1_555
B3 Tm0 2.698663 1_555
B3 Tm0 2.698663 1_655
B3 Tm1 2.698663 1_655
C0 Tm1 2.641213 1_566
C0 Tm0 2.641213 1_555
C0 Tm0 2.641213 1_655
C0 Tm1 2.641213 1_666
C1 Tm1 2.641213 1_565
C1 Tm1 2.641213 1_665
C1 Tm0 2.641213 1_555
C1 Tm0 2.641213 1_655
C2 Tm1 2.641213 1_656
C2 Tm0 2.641213 1_555
C2 Tm0 2.641213 1_655
C2 Tm1 2.641213 1_556
C3 Tm1 2.641213 1_655
C3 Tm1 2.641213 1_555
C3 Tm0 2.641213 1_555
C3 Tm0 2.641213 1_655
