# generated using pymatgen
data_La4Zr8Ni15As16
_symmetry_space_group_name_H-M   'P 1'
_cell_length_a   3.96907200
_cell_length_b   9.41854900
_cell_length_c   19.70772924
_cell_angle_alpha   82.31936645
_cell_angle_beta   90.00000000
_cell_angle_gamma   90.00000000
_symmetry_Int_Tables_number   1
_chemical_formula_structural   La4Zr8Ni15As16
_chemical_formula_sum   'La4 Zr8 Ni15 As16'
_cell_volume   730.12241201
_cell_formula_units_Z   1
loop_
 _symmetry_equiv_pos_site_id
 _symmetry_equiv_pos_as_xyz
  1  'x, y, z'
loop_
 _atom_site_type_symbol
 _atom_site_label
 _atom_site_symmetry_multiplicity
 _atom_site_fract_x
 _atom_site_fract_y
 _atom_site_fract_z
 _atom_site_occupancy
  La  La0  1  0.50000000  0.36486300  0.37508500  1
  La  La1  1  0.50000000  0.36415000  0.87788900  1
  La  La2  1  0.00000000  0.62310300  0.12712800  1
  La  La3  1  0.00000000  0.63611900  0.62262700  1
  Zr  Zr0  1  0.50000000  0.12755600  0.05293100  1
  Zr  Zr1  1  0.50000000  0.12838900  0.55258300  1
  Zr  Zr2  1  0.00000000  0.87227000  0.44669500  1
  Zr  Zr3  1  0.00000000  0.87046600  0.94870400  1
  Zr  Zr4  1  0.50000000  0.15290500  0.22593400  1
  Zr  Zr5  1  0.50000000  0.14193400  0.72693000  1
  Zr  Zr6  1  0.00000000  0.85965900  0.27240900  1
  Zr  Zr7  1  0.00000000  0.85818600  0.77314000  1
  Ni  Ni0  1  0.50000000  0.88744700  0.16053200  1
  Ni  Ni1  1  0.50000000  0.88489000  0.65963000  1
  Ni  Ni2  1  0.00000000  0.11520100  0.34045000  1
  Ni  Ni3  1  0.00000000  0.11467900  0.84056900  1
  Ni  Ni4  1  0.50000000  0.61131700  0.49062000  1
  Ni  Ni5  1  0.50000000  0.61207200  0.98941600  1
  Ni  Ni6  1  0.00000000  0.38751300  0.00916900  1
  Ni  Ni7  1  0.00000000  0.38936200  0.50969500  1
  Ni  Ni8  1  0.50000000  0.70924000  0.36205500  1
  Ni  Ni9  1  0.50000000  0.70991100  0.86180700  1
  Ni  Ni10  1  0.00000000  0.28823400  0.13629600  1
  Ni  Ni11  1  0.00000000  0.29044000  0.63769100  1
  Ni  Ni12  1  0.50000000  0.43441700  0.70390700  1
  Ni  Ni13  1  0.00000000  0.56760300  0.29588000  1
  Ni  Ni14  1  0.00000000  0.56556200  0.79623400  1
  As  As0  1  0.50000000  0.97212800  0.34934900  1
  As  As1  1  0.50000000  0.97036900  0.85099800  1
  As  As2  1  0.00000000  0.02981300  0.14993700  1
  As  As3  1  0.00000000  0.02927700  0.64914600  1
  As  As4  1  0.50000000  0.82811900  0.04464300  1
  As  As5  1  0.50000000  0.83287100  0.54197800  1
  As  As6  1  0.00000000  0.16946200  0.45725500  1
  As  As7  1  0.00000000  0.16636400  0.95794700  1
  As  As8  1  0.50000000  0.66634400  0.24043400  1
  As  As9  1  0.50000000  0.66817100  0.74080000  1
  As  As10  1  0.00000000  0.33504700  0.25688900  1
  As  As11  1  0.00000000  0.33171100  0.75929000  1
  As  As12  1  0.50000000  0.40567500  0.08215500  1
  As  As13  1  0.50000000  0.40742800  0.58150100  1
  As  As14  1  0.00000000  0.59258000  0.41836500  1
  As  As15  1  0.00000000  0.59255300  0.91835600  1
loop_
_geom_bond_atom_site_label_1
_geom_bond_atom_site_label_2
_geom_bond_distance
_geom_bond_site_symmetry_2
La0 Ni13 3.037181 1_555
La0 Ni13 3.037181 1_655
La0 Ni2 3.219109 1_555
La0 Ni2 3.219109 1_655
La0 Ni8 3.219286 1_555
La0 Ni7 3.345580 1_655
La0 Ni7 3.345580 1_555
La1 Ni14 3.051337 1_555
La1 Ni14 3.051337 1_655
La1 Ni9 3.229518 1_555
La1 Ni3 3.234525 1_655
La1 Ni3 3.234525 1_555
La1 Ni6 3.291313 1_556
La1 Ni6 3.291313 1_656
La1 Ni12 3.404120 1_555
La1 Ni5 3.413997 1_555
La2 Ni10 3.134950 1_555
La2 Ni13 3.296810 1_555
La2 Ni0 3.317932 1_455
La2 Ni0 3.317932 1_555
La2 Ni5 3.374951 1_454
La2 Ni5 3.374951 1_554
La2 Ni6 3.421501 1_555
La3 Ni12 3.049570 1_555
La3 Ni12 3.049570 1_455
La3 Ni1 3.227515 1_455
La3 Ni1 3.227515 1_555
La3 Ni11 3.229546 1_555
La3 Ni4 3.305072 1_555
La3 Ni4 3.305072 1_455
La3 Ni14 3.397034 1_555
La3 Ni7 3.426003 1_555
Ni0 Zr0 2.886040 1_565
Ni0 Zr6 2.951942 1_555
Ni0 Zr6 2.951942 1_655
Ni0 Zr4 2.962074 1_565
Ni1 Zr1 2.901218 1_565
Ni1 Zr5 2.911806 1_565
Ni1 Zr7 2.975823 1_555
Ni1 Zr7 2.975823 1_655
Ni2 Zr2 2.887698 1_545
Ni2 Zr6 2.907516 1_545
Ni2 Zr4 2.990591 1_555
Ni2 Zr4 2.990591 1_455
Ni3 Zr7 2.908620 1_545
Ni3 Zr3 2.919231 1_545
Ni3 Zr5 2.977627 1_555
Ni3 Zr5 2.977627 1_455
Ni4 Ni8 2.577933 1_555
Ni5 Ni9 2.560144 1_555
Ni8 Zr6 2.897888 1_655
Ni8 Zr6 2.897888 1_555
Ni8 Zr2 3.124618 1_555
Ni8 Zr2 3.124618 1_655
Ni9 Zr7 2.879215 1_555
Ni9 Zr7 2.879215 1_655
Ni9 Zr3 3.138495 1_555
Ni9 Zr3 3.138495 1_655
Ni10 Ni6 2.554425 1_555
Ni10 Zr4 2.842861 1_455
Ni10 Zr4 2.842861 1_555
Ni10 Zr0 3.097170 1_455
Ni10 Zr0 3.097170 1_555
Ni11 Ni7 2.569612 1_555
Ni11 Ni12 2.820146 1_555
Ni11 Ni12 2.820146 1_455
Ni11 Zr5 2.886218 1_555
Ni11 Zr5 2.886218 1_455
Ni11 Zr1 3.124982 1_555
Ni11 Zr1 3.124982 1_455
Ni12 Zr5 2.731391 1_555
Ni13 Zr6 2.727717 1_555
Ni13 Ni8 2.807820 1_555
Ni13 Ni8 2.807820 1_455
Ni14 Zr7 2.732745 1_555
Ni14 Ni9 2.815394 1_455
Ni14 Ni9 2.815394 1_555
As0 Ni2 2.392035 1_565
As0 Ni2 2.392035 1_665
As0 Ni8 2.455130 1_555
As0 Zr4 2.776295 1_565
As0 Zr6 2.790885 1_555
As0 Zr6 2.790885 1_655
As0 Zr2 2.832167 1_655
As0 Zr2 2.832167 1_555
As1 Ni3 2.398615 1_565
As1 Ni3 2.398615 1_665
As1 Ni9 2.433839 1_555
As1 Zr5 2.744722 1_565
As1 Zr7 2.800455 1_555
As1 Zr7 2.800455 1_655
As1 Zr3 2.836765 1_555
As1 Zr3 2.836765 1_655
As2 Ni0 2.388536 1_545
As2 Ni0 2.388536 1_445
As2 Ni10 2.412775 1_555
As2 Zr6 2.712944 1_545
As2 Zr0 2.823171 1_455
As2 Zr0 2.823171 1_555
As2 Zr4 2.826624 1_455
As2 Zr4 2.826624 1_555
As3 Ni1 2.399029 1_445
As3 Ni1 2.399029 1_545
As3 Ni11 2.439884 1_555
As3 Zr7 2.741443 1_545
As3 Zr5 2.801598 1_455
As3 Zr5 2.801598 1_555
As3 Zr1 2.820724 1_455
As3 Zr1 2.820724 1_555
As4 Ni0 2.422729 1_555
As4 Ni5 2.432535 1_554
As4 Zr3 2.733273 1_654
As4 Zr3 2.733273 1_554
As4 Zr0 2.846698 1_565
As4 La2 3.077412 1_555
As4 La2 3.077412 1_655
As5 Ni1 2.433076 1_555
As5 Ni4 2.437908 1_555
As5 Zr2 2.723233 1_655
As5 Zr2 2.723233 1_555
As5 Zr1 2.818904 1_565
As5 La3 3.018501 1_655
As5 La3 3.018501 1_555
As6 Ni2 2.423773 1_555
As6 Ni7 2.435125 1_555
As6 Zr1 2.724569 1_455
As6 Zr1 2.724569 1_555
As6 Zr2 2.834446 1_545
As6 La0 3.025094 1_455
As6 La0 3.025094 1_555
As7 Ni3 2.426751 1_555
As7 Ni6 2.433012 1_556
As7 Zr0 2.719039 1_456
As7 Zr0 2.719039 1_556
As7 Zr3 2.817066 1_545
As7 La1 3.018660 1_455
As7 La1 3.018660 1_555
As8 Ni13 2.392836 1_655
As8 Ni13 2.392836 1_555
As8 Ni0 2.437164 1_555
As8 Ni8 2.483362 1_555
As8 Zr6 2.820866 1_555
As8 Zr6 2.820866 1_655
As8 La2 3.055102 1_655
As8 La2 3.055102 1_555
As9 Ni14 2.404923 1_655
As9 Ni14 2.404923 1_555
As9 Ni12 2.409081 1_555
As9 Ni1 2.419209 1_555
As9 Ni9 2.468258 1_555
As9 Zr7 2.802212 1_555
As9 Zr7 2.802212 1_655
As9 La3 3.105048 1_655
As9 La3 3.105048 1_555
As10 Ni13 2.416188 1_555
As10 Ni2 2.467382 1_555
As10 Ni10 2.474429 1_555
As10 Zr4 2.744682 1_455
As10 Zr4 2.744682 1_555
As10 La0 3.101304 1_455
As10 La0 3.101304 1_555
As10 La2 3.470724 1_555
As11 Ni12 2.404833 1_555
As11 Ni12 2.404833 1_455
As11 Ni14 2.410379 1_555
As11 Ni3 2.422614 1_555
As11 Ni11 2.478512 1_555
As11 Zr5 2.800836 1_455
As11 Zr5 2.800836 1_555
As11 La1 3.112180 1_455
As11 La1 3.112180 1_555
As12 Ni10 2.446405 1_555
As12 Ni10 2.446405 1_655
As12 Ni6 2.470299 1_655
As12 Ni6 2.470299 1_555
As12 Ni5 2.483882 1_554
As12 Zr0 2.756199 1_555
As12 La2 3.066402 1_555
As12 La2 3.066402 1_655
As13 Ni4 2.444631 1_555
As13 Ni7 2.456482 1_655
As13 Ni7 2.456482 1_555
As13 Ni12 2.459255 1_555
As13 Ni11 2.460204 1_655
As13 Ni11 2.460204 1_555
As13 Zr1 2.762661 1_555
As13 La3 3.114705 1_555
As13 La3 3.114705 1_655
As14 Ni7 2.445866 1_555
As14 Ni13 2.456431 1_555
As14 Ni8 2.459932 1_555
As14 Ni8 2.459932 1_455
As14 Ni4 2.462605 1_455
As14 Ni4 2.462605 1_555
As14 Zr2 2.764826 1_555
As14 La0 3.123286 1_455
As14 La0 3.123286 1_555
As15 Ni5 2.449940 1_455
As15 Ni5 2.449940 1_555
As15 Ni6 2.451260 1_556
As15 Ni14 2.453692 1_555
As15 Ni9 2.464324 1_455
As15 Ni9 2.464324 1_555
As15 Zr3 2.761826 1_555
As15 La1 3.108178 1_455
As15 La1 3.108178 1_555
