# generated using pymatgen
data_Ca5Si6W5O17
_symmetry_space_group_name_H-M   'P 1'
_cell_length_a   7.04527111
_cell_length_b   6.84867416
_cell_length_c   11.98644833
_cell_angle_alpha   88.67541408
_cell_angle_beta   78.91099563
_cell_angle_gamma   65.51747812
_symmetry_Int_Tables_number   1
_chemical_formula_structural   Ca5Si6W5O17
_chemical_formula_sum   'Ca5 Si6 W5 O17'
_cell_volume   515.48887715
_cell_formula_units_Z   1
loop_
 _symmetry_equiv_pos_site_id
 _symmetry_equiv_pos_as_xyz
  1  'x, y, z'
loop_
 _atom_site_type_symbol
 _atom_site_label
 _atom_site_symmetry_multiplicity
 _atom_site_fract_x
 _atom_site_fract_y
 _atom_site_fract_z
 _atom_site_occupancy
  Ca  Ca0  1  0.63196500  0.08288000  0.95702900  1
  Ca  Ca1  1  0.18065100  0.05646800  0.79843800  1
  Ca  Ca2  1  0.68124700  0.57491500  0.82770100  1
  Ca  Ca3  1  0.13402900  0.60596200  0.99997100  1
  Ca  Ca4  1  0.31266800  0.24292600  0.51087300  1
  Si  Si0  1  0.25988700  0.51650300  0.71780800  1
  Si  Si1  1  0.68481500  0.09015100  0.70649600  1
  Si  Si2  1  0.11944800  0.86090100  0.53873400  1
  Si  Si3  1  0.63966400  0.57038000  0.08143900  1
  Si  Si4  1  0.22141100  0.80672600  0.25358300  1
  Si  Si5  1  0.06088000  0.14589300  0.07094300  1
  W  W0  1  0.68784200  0.83384700  0.38149300  1
  W  W1  1  0.82228200  0.52551800  0.56041400  1
  W  W2  1  0.52573400  0.15728000  0.21904500  1
  W  W3  1  0.07223300  0.42437200  0.30692800  1
  W  W4  1  0.71640100  0.30487600  0.38380100  1
  O  O0  1  0.21869500  0.99768700  0.59490200  1
  O  O1  1  0.47615000  0.28685500  0.66480600  1
  O  O2  1  0.17338100  0.83802600  0.39562200  1
  O  O3  1  0.85705500  0.95826000  0.58869500  1
  O  O4  1  0.12484600  0.65795500  0.20219600  1
  O  O5  1  0.52046000  0.47455300  0.00811800  1
  O  O6  1  0.21173000  0.61506600  0.58969500  1
  O  O7  1  0.58475600  0.94096300  0.78207300  1
  O  O8  1  0.48113600  0.70195100  0.20285800  1
  O  O9  1  0.12415100  0.03849400  0.19358600  1
  O  O10  1  0.84639800  0.37219000  0.11967700  1
  O  O11  1  0.24316500  0.21378700  0.99908600  1
  O  O12  1  0.30703600  0.66384100  0.80192200  1
  O  O13  1  0.79060100  0.18928500  0.78625000  1
  O  O14  1  0.73677600  0.71766900  0.00170200  1
  O  O15  1  0.07463600  0.44169500  0.77564700  1
  O  O16  1  0.00547000  0.99312500  0.99266700  1
loop_
_geom_bond_atom_site_label_1
_geom_bond_atom_site_label_2
_geom_bond_distance
_geom_bond_site_symmetry_2
Ca0 O14 2.376430 1_546
Ca0 O13 2.386740 1_555
Ca0 O11 2.452634 1_555
Ca0 O7 2.466496 1_545
Ca0 O5 2.516336 1_556
Ca0 O16 2.562111 1_645
Ca0 W2 3.088225 1_556
Ca1 O0 2.427005 1_545
Ca1 O15 2.450510 1_555
Ca1 O12 2.459635 1_545
Ca1 O16 2.534433 1_545
Ca1 O13 2.544956 1_455
Ca1 O7 2.587569 1_545
Ca1 O11 2.838959 1_555
Ca2 O7 2.390215 1_555
Ca2 O13 2.458160 1_555
Ca2 O5 2.463049 1_556
Ca2 O15 2.483626 1_655
Ca2 O14 2.486766 1_556
Ca2 O12 2.528033 1_555
Ca2 W1 3.148518 1_555
Ca3 O16 2.426520 1_555
Ca3 O4 2.442754 1_556
Ca3 O11 2.468151 1_555
Ca3 O5 2.509774 1_556
Ca3 O12 2.553847 1_555
Ca3 O14 2.573418 1_456
Ca4 O0 2.204689 1_545
Ca4 O1 2.439647 1_555
Ca4 O6 2.498943 1_555
Ca4 W0 3.118826 1_545
Ca4 W1 3.123556 1_455
Ca4 W4 3.145544 1_555
Ca4 W2 3.489771 1_555
W0 W2 2.926039 1_565
W2 W3 2.935023 1_555
W2 W4 2.994063 1_555
O0 Si2 1.604038 1_555
O1 Si1 1.683969 1_555
O1 Si0 1.698941 1_555
O2 Si4 1.671601 1_555
O2 Si2 1.680444 1_555
O3 Si1 1.665412 1_565
O3 Si2 1.670815 1_655
O4 Si4 1.626374 1_555
O4 W3 2.119463 1_555
O5 Si3 1.635793 1_555
O6 Si2 1.681797 1_555
O6 Si0 1.700461 1_555
O7 Si1 1.634040 1_565
O8 Si4 1.654327 1_555
O8 Si3 1.666952 1_555
O9 Si4 1.655759 1_545
O9 Si5 1.682590 1_555
O10 Si3 1.662314 1_555
O10 Si5 1.669682 1_655
O11 Si5 1.630425 1_556
O12 Si0 1.612070 1_555
O13 Si1 1.629034 1_555
O14 Si3 1.635555 1_555
O15 Si0 1.623658 1_555
O16 Si5 1.628548 1_566
