# generated using pymatgen
data_AlNi6Ge
_symmetry_space_group_name_H-M   'P 1'
_cell_length_a   3.52768578
_cell_length_b   3.52768478
_cell_length_c   7.05756312
_cell_angle_alpha   90.00000000
_cell_angle_beta   90.00000000
_cell_angle_gamma   90.00000000
_symmetry_Int_Tables_number   1
_chemical_formula_structural   AlNi6Ge
_chemical_formula_sum   'Al1 Ni6 Ge1'
_cell_volume   87.82829194
_cell_formula_units_Z   1
loop_
 _symmetry_equiv_pos_site_id
 _symmetry_equiv_pos_as_xyz
  1  'x, y, z'
loop_
 _atom_site_type_symbol
 _atom_site_label
 _atom_site_symmetry_multiplicity
 _atom_site_fract_x
 _atom_site_fract_y
 _atom_site_fract_z
 _atom_site_occupancy
  Al  Al0  1  -0.00000000  -0.00000000  0.00000000  1
  Ni  Ni0  1  0.50000000  0.50000000  -0.00000000  1
  Ni  Ni1  1  0.50000000  0.50000000  0.50000000  1
  Ni  Ni2  1  0.50000000  -0.00000000  0.25006392  1
  Ni  Ni3  1  0.50000000  0.00000000  0.74993608  1
  Ni  Ni4  1  -0.00000000  0.50000000  0.25006392  1
  Ni  Ni5  1  0.00000000  0.50000000  0.74993608  1
  Ge  Ge0  1  -0.00000000  -0.00000000  0.50000000  1
loop_
_geom_bond_atom_site_label_1
_geom_bond_atom_site_label_2
_geom_bond_distance
_geom_bond_site_symmetry_2
Al0 Ni0 2.494450 1_445
Al0 Ni0 2.494450 1_545
Al0 Ni0 2.494450 1_555
Al0 Ni0 2.494450 1_455
Al0 Ni5 2.495157 1_544
Al0 Ni4 2.495157 1_545
Al0 Ni4 2.495157 1_555
Al0 Ni5 2.495157 1_554
Al0 Ni3 2.495157 1_454
Al0 Ni3 2.495157 1_554
Al0 Ni2 2.495157 1_455
Al0 Ni2 2.495157 1_555
Ni0 Ni2 2.495157 1_555
Ni0 Ni3 2.495157 1_564
Ni0 Ni3 2.495157 1_554
Ni0 Ni2 2.495157 1_565
Ni0 Ni5 2.495157 1_654
Ni0 Ni5 2.495157 1_554
Ni0 Ni4 2.495157 1_555
Ni0 Ni4 2.495157 1_655
Ni1 Ni2 2.494519 1_555
Ni1 Ni2 2.494519 1_565
Ni1 Ni3 2.494519 1_555
Ni1 Ni3 2.494519 1_565
Ni1 Ni5 2.494519 1_655
Ni1 Ni4 2.494519 1_555
Ni1 Ni5 2.494519 1_555
Ni1 Ni4 2.494519 1_655
Ni2 Ni4 2.494450 1_655
Ni2 Ni4 2.494450 1_545
Ni2 Ni4 2.494450 1_645
Ni2 Ni4 2.494450 1_555
Ni3 Ni5 2.494450 1_645
Ni3 Ni5 2.494450 1_555
Ni3 Ni5 2.494450 1_545
Ni3 Ni5 2.494450 1_655
Ge0 Ni1 2.494450 1_445
Ge0 Ni1 2.494450 1_545
Ge0 Ni1 2.494450 1_455
Ge0 Ni1 2.494450 1_555
Ge0 Ni4 2.494519 1_545
Ge0 Ni5 2.494519 1_555
Ge0 Ni5 2.494519 1_545
Ge0 Ni4 2.494519 1_555
Ge0 Ni3 2.494519 1_555
Ge0 Ni3 2.494519 1_455
Ge0 Ni2 2.494519 1_455
Ge0 Ni2 2.494519 1_555
