# generated using pymatgen
data_RbYTe2
_symmetry_space_group_name_H-M   'P 1'
_cell_length_a   4.51541384
_cell_length_b   4.51541315
_cell_length_c   17.03131253
_cell_angle_alpha   90.00000000
_cell_angle_beta   90.00000000
_cell_angle_gamma   120.00000504
_symmetry_Int_Tables_number   1
_chemical_formula_structural   RbYTe2
_chemical_formula_sum   'Rb2 Y2 Te4'
_cell_volume   300.72794151
_cell_formula_units_Z   2
loop_
 _symmetry_equiv_pos_site_id
 _symmetry_equiv_pos_as_xyz
  1  'x, y, z'
loop_
 _atom_site_type_symbol
 _atom_site_label
 _atom_site_symmetry_multiplicity
 _atom_site_fract_x
 _atom_site_fract_y
 _atom_site_fract_z
 _atom_site_occupancy
  Rb  Rb0  1  0.33333300  0.66666700  0.25000000  1
  Rb  Rb1  1  0.66666700  0.33333300  0.75000000  1
  Y  Y0  1  -0.00000000  -0.00000000  -0.00000000  1
  Y  Y1  1  0.00000000  -0.00000000  0.50000000  1
  Te  Te0  1  0.33333300  0.66666700  0.60014039  1
  Te  Te1  1  0.66666700  0.33333300  0.10014039  1
  Te  Te2  1  0.66666700  0.33333300  0.39985961  1
  Te  Te3  1  0.33333300  0.66666700  0.89985961  1
loop_
_geom_bond_atom_site_label_1
_geom_bond_atom_site_label_2
_geom_bond_distance
_geom_bond_site_symmetry_2
Rb0 Te1 3.648365 1_565
Rb0 Te2 3.648365 1_565
Rb0 Te1 3.648366 1_455
Rb0 Te2 3.648366 1_455
Rb0 Te1 3.648371 1_555
Rb0 Te2 3.648371 1_555
Rb1 Te0 3.648365 1_545
Rb1 Te3 3.648365 1_545
Rb1 Te0 3.648366 1_655
Rb1 Te3 3.648366 1_655
Rb1 Te3 3.648371 1_555
Rb1 Te0 3.648371 1_555
Te0 Y1 3.115303 1_565
Te0 Y1 3.115306 1_555
Te0 Y1 3.115306 1_665
Te1 Y0 3.115303 1_655
Te1 Y0 3.115306 1_665
Te1 Y0 3.115306 1_555
Te2 Y1 3.115303 1_655
Te2 Y1 3.115306 1_665
Te2 Y1 3.115306 1_555
Te3 Y0 3.115303 1_566
Te3 Y0 3.115306 1_556
Te3 Y0 3.115306 1_666
