# generated using pymatgen
data_MgCuP4(RuO7)2
_symmetry_space_group_name_H-M   'P 1'
_cell_length_a   4.97188144
_cell_length_b   6.85103397
_cell_length_c   8.41441723
_cell_angle_alpha   92.46213775
_cell_angle_beta   91.54637675
_cell_angle_gamma   108.09263175
_symmetry_Int_Tables_number   1
_chemical_formula_structural   MgCuP4(RuO7)2
_chemical_formula_sum   'Mg1 Cu1 P4 Ru2 O14'
_cell_volume   271.94774372
_cell_formula_units_Z   1
loop_
 _symmetry_equiv_pos_site_id
 _symmetry_equiv_pos_as_xyz
  1  'x, y, z'
loop_
 _atom_site_type_symbol
 _atom_site_label
 _atom_site_symmetry_multiplicity
 _atom_site_fract_x
 _atom_site_fract_y
 _atom_site_fract_z
 _atom_site_occupancy
  Mg  Mg0  1  0.41778300  0.53575800  0.06549700  1
  Cu  Cu0  1  0.01709600  0.99969800  0.51327500  1
  P  P0  1  0.38355200  0.76227800  0.79765100  1
  P  P1  1  0.60335800  0.23350700  0.20277100  1
  P  P2  1  0.03517300  0.66099700  0.27191600  1
  P  P3  1  0.95714500  0.34223200  0.72963100  1
  Ru  Ru0  1  0.50071000  0.49724900  0.50040200  1
  Ru  Ru1  1  0.99585900  0.00030700  0.99681300  1
  O  O0  1  0.14581500  0.82469600  0.15370800  1
  O  O1  1  0.84537300  0.16919300  0.83964100  1
  O  O2  1  0.48013000  0.75664200  0.62846600  1
  O  O3  1  0.51458400  0.23308000  0.37421300  1
  O  O4  1  0.19446600  0.52251100  0.84329300  1
  O  O5  1  0.78354400  0.48352000  0.16912400  1
  O  O6  1  0.20268700  0.90270800  0.81547800  1
  O  O7  1  0.78929800  0.10020000  0.17637000  1
  O  O8  1  0.27088500  0.56090300  0.29825200  1
  O  O9  1  0.73605100  0.44064300  0.68364600  1
  O  O10  1  0.61050500  0.77600000  0.93481400  1
  O  O11  1  0.37030700  0.23048900  0.07319600  1
  O  O12  1  0.12847300  0.28609900  0.59074000  1
  O  O13  1  0.89220600  0.71832800  0.41923000  1
loop_
_geom_bond_atom_site_label_1
_geom_bond_atom_site_label_2
_geom_bond_distance
_geom_bond_site_symmetry_2
Mg0 O10 2.017208 1_554
Mg0 O11 2.034637 1_555
Mg0 O8 2.127246 1_555
Mg0 O5 2.130932 1_555
Mg0 O4 2.132521 1_554
Cu0 O12 1.943526 1_565
Cu0 O13 1.956189 1_455
O0 P2 1.513904 1_555
O0 Ru1 2.094447 1_464
O1 P3 1.511274 1_555
O1 Ru1 2.064787 1_555
O2 P0 1.517354 1_555
O2 Ru0 2.069815 1_555
O3 P1 1.519801 1_555
O3 Ru0 2.079439 1_555
O4 P3 1.662783 1_455
O4 P0 1.686457 1_555
O5 P2 1.642597 1_655
O5 P1 1.708465 1_555
O6 P0 1.512939 1_555
O6 Ru1 2.063201 1_465
O7 P1 1.502052 1_555
O7 Ru1 2.058460 1_554
O8 P2 1.546278 1_555
O8 Ru0 2.158126 1_555
O9 P3 1.507458 1_555
O9 Ru0 2.032922 1_555
O10 P0 1.571192 1_555
O10 Ru1 2.086377 1_565
O11 P1 1.564214 1_555
O11 Ru1 2.095415 1_454
O12 P3 1.567770 1_455
O12 Ru0 2.145498 1_555
O13 P2 1.541161 1_655
O13 Ru0 2.208810 1_555
