# generated using pymatgen
data_P6H17S6(NO)7
_symmetry_space_group_name_H-M   'P 1'
_cell_length_a   11.62142400
_cell_length_b   11.65537863
_cell_length_c   11.72415441
_cell_angle_alpha   60.84443698
_cell_angle_beta   61.89622179
_cell_angle_gamma   72.83599396
_symmetry_Int_Tables_number   1
_chemical_formula_structural   P6H17S6(NO)7
_chemical_formula_sum   'P12 H34 S12 N14 O14'
_cell_volume   1218.89302323
_cell_formula_units_Z   2
loop_
 _symmetry_equiv_pos_site_id
 _symmetry_equiv_pos_as_xyz
  1  'x, y, z'
loop_
 _atom_site_type_symbol
 _atom_site_label
 _atom_site_symmetry_multiplicity
 _atom_site_fract_x
 _atom_site_fract_y
 _atom_site_fract_z
 _atom_site_occupancy
  P  P0  1  0.12066400  0.78470900  0.16840400  1
  P  P1  1  0.87933600  0.21529100  0.83159600  1
  P  P2  1  0.85898800  0.77376500  0.18824300  1
  P  P3  1  0.14101200  0.22623500  0.81175700  1
  P  P4  1  0.09784600  0.77972200  0.92936700  1
  P  P5  1  0.90215400  0.22027800  0.07063300  1
  P  P6  1  0.11111300  0.05490600  0.70715800  1
  P  P7  1  0.88888700  0.94509400  0.29284200  1
  P  P8  1  0.85104000  0.94114900  0.90198600  1
  P  P9  1  0.14896000  0.05885100  0.09801400  1
  P  P10  1  0.27866700  0.95641300  0.87210500  1
  P  P11  1  0.72133300  0.04358700  0.12789500  1
  H  H0  1  0.34947900  0.76723000  0.04522100  1
  H  H1  1  0.65052100  0.23277000  0.95477900  1
  H  H2  1  0.95876000  0.75585100  0.84870400  1
  H  H3  1  0.04124000  0.24414900  0.15129600  1
  H  H4  1  0.23413600  0.24329400  0.57513100  1
  H  H5  1  0.76586400  0.75670600  0.42486900  1
  H  H6  1  0.33645300  0.31743000  0.35177000  1
  H  H7  1  0.66354700  0.68257000  0.64823000  1
  H  H8  1  0.36085200  0.39461200  0.41725500  1
  H  H9  1  0.63914800  0.60538800  0.58274500  1
  H  H10  1  0.28204100  0.44678600  0.16438500  1
  H  H11  1  0.71795900  0.55321400  0.83561500  1
  H  H12  1  0.31289400  0.30518100  0.17277900  1
  H  H13  1  0.68710600  0.69481900  0.82722100  1
  H  H14  1  0.46657200  0.62326100  0.16629000  1
  H  H15  1  0.53342800  0.37673900  0.83371000  1
  H  H16  1  0.51246800  0.63131500  0.01043700  1
  H  H17  1  0.48753200  0.36868500  0.98956300  1
  H  H18  1  0.44032400  0.58163000  0.38834700  1
  H  H19  1  0.55967600  0.41837000  0.61165300  1
  H  H20  1  0.53313900  0.46026300  0.36549000  1
  H  H21  1  0.46686100  0.53973700  0.63451000  1
  H  H22  1  0.02079700  0.69494600  0.68614200  1
  H  H23  1  0.97920300  0.30505400  0.31385800  1
  H  H24  1  0.96908600  0.57646400  0.83582600  1
  H  H25  1  0.03091400  0.42353600  0.16417400  1
  H  H26  1  0.46201700  0.74767000  0.42961300  1
  H  H27  1  0.53798300  0.25233000  0.57038700  1
  H  H28  1  0.31571100  0.71264400  0.49967500  1
  H  H29  1  0.68428900  0.28735600  0.50032500  1
  H  H30  1  0.14169500  0.73336700  0.45089800  1
  H  H31  1  0.85830500  0.26663300  0.54910200  1
  H  H32  1  0.13326100  0.85274800  0.48264400  1
  H  H33  1  0.86673900  0.14725200  0.51735600  1
  S  S0  1  0.78611900  0.61668200  0.24957800  1
  S  S1  1  0.21388100  0.38331800  0.75042200  1
  S  S2  1  0.13574600  0.62963200  0.33083700  1
  S  S3  1  0.86425400  0.37036800  0.66916300  1
  S  S4  1  0.20665900  0.62630700  0.90741100  1
  S  S5  1  0.79334100  0.37369300  0.09258900  1
  S  S6  1  0.15535100  0.04154600  0.53436800  1
  S  S7  1  0.84464900  0.95845400  0.46563200  1
  S  S8  1  0.71502800  0.95751000  0.84620200  1
  S  S9  1  0.28497200  0.04249000  0.15379800  1
  S  S10  1  0.45229500  0.98169300  0.73032200  1
  S  S11  1  0.54770500  0.01830700  0.26967800  1
  N  N0  1  0.16771900  0.92712700  0.83084500  1
  N  N1  1  0.83228100  0.07287300  0.16915500  1
  N  N2  1  0.26087600  0.82875700  0.02874500  1
  N  N3  1  0.73912400  0.17124300  0.97125500  1
  N  N4  1  0.02669600  0.77466400  0.09735000  1
  N  N5  1  0.97330400  0.22533600  0.90265000  1
  N  N6  1  0.96731100  0.81737400  0.88963100  1
  N  N7  1  0.03268900  0.18262600  0.11036900  1
  N  N8  1  0.16416800  0.18443700  0.68539200  1
  N  N9  1  0.83583200  0.81556300  0.31460800  1
  N  N10  1  0.19420300  0.08245000  0.92581000  1
  N  N11  1  0.80579700  0.91755000  0.07419000  1
  N  N12  1  0.05400400  0.92730700  0.19249600  1
  N  N13  1  0.94599600  0.07269300  0.80750400  1
  O  O0  1  0.33318700  0.31003800  0.44112400  1
  O  O1  1  0.66681300  0.68996200  0.55887600  1
  O  O2  1  0.34737000  0.37075700  0.17470600  1
  O  O3  1  0.65263000  0.62924300  0.82529400  1
  O  O4  1  0.46610300  0.68082200  0.06993400  1
  O  O5  1  0.53389700  0.31917800  0.93006600  1
  O  O6  1  0.46227300  0.52331100  0.33928600  1
  O  O7  1  0.53772700  0.47668900  0.66071400  1
  O  O8  1  0.94962600  0.67023700  0.78316000  1
  O  O9  1  0.05037400  0.32976300  0.21684000  1
  O  O10  1  0.40781100  0.67399300  0.48119200  1
  O  O11  1  0.59218900  0.32600700  0.51880800  1
  O  O12  1  0.14800400  0.75667000  0.51853100  1
  O  O13  1  0.85199600  0.24333000  0.48146900  1
loop_
_geom_bond_atom_site_label_1
_geom_bond_atom_site_label_2
_geom_bond_distance
_geom_bond_site_symmetry_2
P0 S2 1.923017 1_555
P1 S3 1.923017 1_555
P2 S0 1.909148 1_555
P3 S1 1.909148 1_555
P4 S4 1.915709 1_555
P5 S5 1.915709 1_555
P6 S6 1.916083 1_555
P7 S7 1.916083 1_555
P8 S8 1.907121 1_555
P9 S9 1.907121 1_555
P10 S10 1.906601 1_555
P11 S11 1.906601 1_555
H0 N2 1.108351 1_555
H0 O4 1.488351 1_555
H1 N3 1.108351 1_555
H1 O5 1.488351 1_555
H2 N6 1.084689 1_555
H2 O8 1.576081 1_555
H3 N7 1.084689 1_555
H3 O9 1.576081 1_555
H4 N8 1.130363 1_555
H4 O0 1.425621 1_555
H5 N9 1.130363 1_555
H5 O1 1.425621 1_555
H6 O0 0.991390 1_555
H7 O1 0.991390 1_555
H8 O0 0.993414 1_555
H9 O1 0.993414 1_555
H10 O2 0.980458 1_555
H11 O3 0.980458 1_555
H12 O2 0.975350 1_555
H13 O3 0.975350 1_555
H14 O4 0.995742 1_555
H15 O5 0.995742 1_555
H16 O4 0.982056 1_555
H17 O5 0.982056 1_555
H18 O6 0.999171 1_555
H19 O7 0.999171 1_555
H20 O6 0.986839 1_555
H21 O7 0.986839 1_555
H22 O8 0.997946 1_455
H23 O9 0.997946 1_655
H24 O8 0.977282 1_555
H25 O9 0.977282 1_555
H26 O10 0.976907 1_555
H27 O11 0.976907 1_555
H28 O10 0.993743 1_555
H29 O11 0.993743 1_555
H30 O12 0.992105 1_555
H31 O13 0.992105 1_555
H32 O12 0.977744 1_555
H33 O13 0.977744 1_555
N0 P4 1.717973 1_555
N0 P6 1.723325 1_565
N0 P10 1.738183 1_555
N1 P5 1.717973 1_555
N1 P7 1.723325 1_545
N1 P11 1.738183 1_555
N2 P0 1.661548 1_555
N2 P10 1.670507 1_554
N3 P1 1.661548 1_555
N3 P11 1.670507 1_556
N4 P0 1.711085 1_555
N4 P4 1.716781 1_554
N4 P2 1.725900 1_455
N5 P1 1.711085 1_555
N5 P5 1.716781 1_556
N5 P3 1.725900 1_655
N6 P4 1.668719 1_655
N6 P8 1.672337 1_555
N7 P5 1.668719 1_455
N7 P9 1.672337 1_555
N8 P6 1.658421 1_555
N8 P3 1.659796 1_555
N9 P7 1.658421 1_555
N9 P2 1.659796 1_555
N10 P3 1.721200 1_555
N10 P9 1.724067 1_556
N10 P10 1.727959 1_545
N11 P2 1.721200 1_555
N11 P8 1.724067 1_554
N11 P11 1.727959 1_565
N12 P0 1.712777 1_555
N12 P7 1.727764 1_455
N12 P9 1.728471 1_565
N13 P1 1.712777 1_555
N13 P6 1.727764 1_655
N13 P8 1.728471 1_545
