# generated using pymatgen
data_Dy4Ni13C4
_symmetry_space_group_name_H-M   'P 1'
_cell_length_a   8.38430404
_cell_length_b   8.38430404
_cell_length_c   3.86256900
_cell_angle_alpha   90.00000000
_cell_angle_beta   90.00000000
_cell_angle_gamma   91.37813407
_symmetry_Int_Tables_number   1
_chemical_formula_structural   Dy4Ni13C4
_chemical_formula_sum   'Dy4 Ni13 C4'
_cell_volume   271.44674993
_cell_formula_units_Z   1
loop_
 _symmetry_equiv_pos_site_id
 _symmetry_equiv_pos_as_xyz
  1  'x, y, z'
loop_
 _atom_site_type_symbol
 _atom_site_label
 _atom_site_symmetry_multiplicity
 _atom_site_fract_x
 _atom_site_fract_y
 _atom_site_fract_z
 _atom_site_occupancy
  Dy  Dy0  1  0.81187400  0.18812600  0.50000000  1
  Dy  Dy1  1  0.18812600  0.81187400  0.50000000  1
  Dy  Dy2  1  0.65157900  0.65157900  0.50000000  1
  Dy  Dy3  1  0.34842100  0.34842100  0.50000000  1
  Ni  Ni0  1  0.50000000  0.00000000  0.50000000  1
  Ni  Ni1  1  0.00000000  0.50000000  0.50000000  1
  Ni  Ni2  1  0.00000000  0.00000000  0.00000000  1
  Ni  Ni3  1  0.43097300  0.78414900  0.00000000  1
  Ni  Ni4  1  0.56902700  0.21585100  0.00000000  1
  Ni  Ni5  1  0.21585100  0.56902700  0.00000000  1
  Ni  Ni6  1  0.78414900  0.43097300  0.00000000  1
  Ni  Ni7  1  0.70852100  0.92551200  0.00000000  1
  Ni  Ni8  1  0.29147900  0.07448800  0.00000000  1
  Ni  Ni9  1  0.07448800  0.29147900  0.00000000  1
  Ni  Ni10  1  0.92551200  0.70852100  0.00000000  1
  Ni  Ni11  1  0.87634800  0.87634800  0.50000000  1
  Ni  Ni12  1  0.12365200  0.12365200  0.50000000  1
  C  C0  1  0.44318200  0.55681800  0.00000000  1
  C  C1  1  0.55681800  0.44318200  0.00000000  1
  C  C2  1  0.50000000  0.00000000  0.00000000  1
  C  C3  1  0.00000000  0.50000000  0.00000000  1
loop_
_geom_bond_atom_site_label_1
_geom_bond_atom_site_label_2
_geom_bond_distance
_geom_bond_site_symmetry_2
Dy0 Ni11 2.682051 1_545
Dy0 Ni12 2.682051 1_655
Dy0 Ni6 2.819996 1_555
Dy0 Ni4 2.819996 1_556
Dy0 Ni4 2.819996 1_555
Dy0 Ni6 2.819996 1_556
Dy0 Ni2 2.970743 1_656
Dy0 Ni2 2.970743 1_655
Dy0 Ni1 3.021080 1_655
Dy0 Ni0 3.021080 1_555
Dy0 Ni7 3.039253 1_546
Dy0 Ni7 3.039253 1_545
Dy0 Ni9 3.039253 1_656
Dy0 Ni9 3.039253 1_655
Dy1 Ni11 2.682051 1_455
Dy1 Ni12 2.682051 1_565
Dy1 Ni3 2.819996 1_555
Dy1 Ni5 2.819996 1_556
Dy1 Ni3 2.819996 1_556
Dy1 Ni5 2.819996 1_555
Dy1 Ni2 2.970743 1_565
Dy1 Ni2 2.970743 1_566
Dy1 Ni1 3.021080 1_555
Dy1 Ni0 3.021080 1_565
Dy1 Ni10 3.039253 1_455
Dy1 Ni10 3.039253 1_456
Dy1 Ni8 3.039253 1_565
Dy1 Ni8 3.039253 1_566
Dy2 Ni11 2.632886 1_555
Dy2 Ni6 2.912957 1_556
Dy2 Ni3 2.912957 1_556
Dy2 Ni3 2.912957 1_555
Dy2 Ni6 2.912957 1_555
Dy2 Ni10 3.029860 1_556
Dy2 Ni7 3.029860 1_555
Dy2 Ni10 3.029860 1_555
Dy2 Ni7 3.029860 1_556
Dy2 Ni1 3.213648 1_655
Dy2 Ni0 3.213648 1_565
Dy3 Ni12 2.632886 1_555
Dy3 Ni5 2.912957 1_555
Dy3 Ni4 2.912957 1_556
Dy3 Ni5 2.912957 1_556
Dy3 Ni4 2.912957 1_555
Dy3 Ni9 3.029860 1_555
Dy3 Ni9 3.029860 1_556
Dy3 Ni8 3.029860 1_556
Dy3 Ni8 3.029860 1_555
Dy3 Ni1 3.213648 1_555
Dy3 Ni0 3.213648 1_555
Ni2 Ni8 2.507792 1_555
Ni2 Ni9 2.507792 1_555
Ni2 Ni7 2.507792 1_445
Ni10 Ni11 2.430564 1_555
Ni10 Ni11 2.430564 1_554
Ni10 Ni2 2.507792 1_665
Ni11 Ni2 2.414084 1_665
Ni11 Ni2 2.414084 1_666
Ni11 Ni7 2.430564 1_555
Ni11 Ni7 2.430564 1_556
Ni12 Ni2 2.414084 1_556
Ni12 Ni2 2.414084 1_555
Ni12 Ni8 2.430564 1_555
Ni12 Ni9 2.430564 1_555
Ni12 Ni9 2.430564 1_556
Ni12 Ni8 2.430564 1_556
C0 C1 1.363511 1_555
C0 Ni3 1.911216 1_555
C0 Ni5 1.911216 1_555
C0 Dy2 2.710582 1_554
C0 Dy2 2.710582 1_555
C0 Dy3 2.710582 1_555
C0 Dy3 2.710582 1_554
C1 Ni6 1.911216 1_555
C1 Ni4 1.911216 1_555
C1 Dy2 2.710582 1_554
C1 Dy2 2.710582 1_555
C1 Dy3 2.710582 1_555
C1 Dy3 2.710582 1_554
C2 Ni7 1.870594 1_545
C2 Ni8 1.870594 1_555
C2 Ni4 1.886742 1_555
C2 Ni3 1.886742 1_545
C2 Ni0 1.931285 1_554
C2 Ni0 1.931285 1_555
C3 Ni10 1.870594 1_455
C3 Ni9 1.870594 1_555
C3 Ni5 1.886742 1_555
C3 Ni6 1.886742 1_455
C3 Ni1 1.931285 1_554
C3 Ni1 1.931285 1_555
