# generated using pymatgen
data_AlSnO3
_symmetry_space_group_name_H-M   'P 1'
_cell_length_a   5.76870742
_cell_length_b   5.76870742
_cell_length_c   12.34695000
_cell_angle_alpha   90.00000000
_cell_angle_beta   90.00000000
_cell_angle_gamma   119.99999330
_symmetry_Int_Tables_number   1
_chemical_formula_structural   AlSnO3
_chemical_formula_sum   'Al6 Sn6 O18'
_cell_volume   355.83394484
_cell_formula_units_Z   6
loop_
 _symmetry_equiv_pos_site_id
 _symmetry_equiv_pos_as_xyz
  1  'x, y, z'
loop_
 _atom_site_type_symbol
 _atom_site_label
 _atom_site_symmetry_multiplicity
 _atom_site_fract_x
 _atom_site_fract_y
 _atom_site_fract_z
 _atom_site_occupancy
  Al  Al0  1  0.66666700  0.33333300  0.27061000  1
  Al  Al1  1  0.33333300  0.66666700  0.77061000  1
  Al  Al2  1  0.66666700  0.33333300  0.77061000  1
  Al  Al3  1  0.33333300  0.66666700  0.27061000  1
  Al  Al4  1  0.00000000  0.00000000  0.73200600  1
  Al  Al5  1  0.00000000  0.00000000  0.23200600  1
  Sn  Sn0  1  0.69976900  0.00000000  0.49746700  1
  Sn  Sn1  1  0.69976900  0.69976900  0.99746700  1
  Sn  Sn2  1  0.00000000  0.30023100  0.99746700  1
  Sn  Sn3  1  0.00000000  0.69976900  0.49746700  1
  Sn  Sn4  1  0.30023100  0.30023100  0.49746700  1
  Sn  Sn5  1  0.30023100  0.00000000  0.99746700  1
  O  O0  1  0.66666700  0.33333300  0.02788700  1
  O  O1  1  0.33333300  0.66666700  0.52788700  1
  O  O2  1  0.66666700  0.33333300  0.52788700  1
  O  O3  1  0.33333300  0.66666700  0.02788700  1
  O  O4  1  0.00000000  0.00000000  0.87868000  1
  O  O5  1  0.00000000  0.00000000  0.37868000  1
  O  O6  1  0.45505400  0.00000000  0.84151300  1
  O  O7  1  0.45505400  0.45505400  0.34151300  1
  O  O8  1  0.00000000  0.54494600  0.34151300  1
  O  O9  1  0.00000000  0.45505400  0.84151300  1
  O  O10  1  0.54494600  0.54494600  0.84151300  1
  O  O11  1  0.54494600  0.00000000  0.34151300  1
  O  O12  1  0.29938900  0.00000000  0.18346000  1
  O  O13  1  0.29938900  0.29938900  0.68346000  1
  O  O14  1  0.00000000  0.70061100  0.68346000  1
  O  O15  1  0.00000000  0.29938900  0.18346000  1
  O  O16  1  0.70061100  0.70061100  0.18346000  1
  O  O17  1  0.70061100  0.00000000  0.68346000  1
loop_
_geom_bond_atom_site_label_1
_geom_bond_atom_site_label_2
_geom_bond_distance
_geom_bond_site_symmetry_2
Al0 O11 1.899151 1_555
Al0 O8 1.899151 1_655
Al0 O7 1.899155 1_555
Al0 O15 2.295708 1_655
Al0 O12 2.295711 1_555
Al0 O16 2.295713 1_555
Al1 O6 1.899151 1_565
Al1 O9 1.899151 1_555
Al1 O10 1.899155 1_555
Al1 O14 2.295708 1_555
Al1 O17 2.295711 1_565
Al1 O13 2.295713 1_555
Al2 O9 1.899151 1_655
Al2 O6 1.899151 1_555
Al2 O10 1.899155 1_555
Al2 O17 2.295708 1_555
Al2 O14 2.295711 1_655
Al2 O13 2.295713 1_555
Al3 O8 1.899151 1_555
Al3 O11 1.899151 1_565
Al3 O7 1.899155 1_555
Al3 O12 2.295708 1_565
Al3 O15 2.295711 1_555
Al3 O16 2.295713 1_555
Al4 O4 1.810977 1_555
Al4 O17 1.828143 1_455
Al4 O14 1.828143 1_545
Al4 O13 1.828143 1_555
Al5 O5 1.810977 1_555
Al5 O15 1.828143 1_555
Al5 O12 1.828143 1_555
Al5 O16 1.828143 1_445
O0 Sn2 2.059677 1_654
O0 Sn5 2.059681 1_554
O0 Sn1 2.059683 1_554
O1 Sn3 2.059677 1_555
O1 Sn0 2.059681 1_565
O1 Sn4 2.059683 1_555
O2 Sn0 2.059677 1_555
O2 Sn3 2.059681 1_655
O2 Sn4 2.059683 1_555
O3 Sn5 2.059677 1_564
O3 Sn2 2.059681 1_554
O3 Sn1 2.059683 1_554
O4 Sn5 2.269519 1_555
O4 Sn2 2.269519 1_555
O4 Sn1 2.269519 1_445
O5 Sn3 2.269519 1_545
O5 Sn0 2.269519 1_455
O5 Sn4 2.269519 1_555
O6 Sn5 2.122603 1_555
O7 Sn4 2.122604 1_555
O8 Sn3 2.122603 1_555
O9 Sn2 2.122603 1_555
O10 Sn1 2.122604 1_555
O11 Sn0 2.122603 1_555
O12 Sn5 2.296451 1_554
O13 Sn4 2.296451 1_555
O14 Sn3 2.296451 1_555
O15 Sn2 2.296451 1_554
O16 Sn1 2.296451 1_554
O17 Sn0 2.296451 1_555
