# generated using pymatgen
data_Li8CoNi9O20
_symmetry_space_group_name_H-M   'P 1'
_cell_length_a   2.81502900
_cell_length_b   11.59908300
_cell_length_c   21.32615236
_cell_angle_alpha   82.63644146
_cell_angle_beta   90.00000000
_cell_angle_gamma   90.00000000
_symmetry_Int_Tables_number   1
_chemical_formula_structural   Li8CoNi9O20
_chemical_formula_sum   'Li16 Co2 Ni18 O40'
_cell_volume   690.59353257
_cell_formula_units_Z   2
loop_
 _symmetry_equiv_pos_site_id
 _symmetry_equiv_pos_as_xyz
  1  'x, y, z'
loop_
 _atom_site_type_symbol
 _atom_site_label
 _atom_site_symmetry_multiplicity
 _atom_site_fract_x
 _atom_site_fract_y
 _atom_site_fract_z
 _atom_site_occupancy
  Li  Li0  1  0.50000000  0.65423800  0.90745100  1
  Li  Li1  1  0.50000000  0.14894300  0.89938800  1
  Li  Li2  1  0.00000000  0.54920300  0.80172100  1
  Li  Li3  1  0.50000000  0.96012300  0.70710400  1
  Li  Li4  1  0.50000000  0.45054500  0.69988000  1
  Li  Li5  1  0.00000000  0.85014800  0.59612600  1
  Li  Li6  1  0.00000000  0.35045600  0.59675400  1
  Li  Li7  1  0.50000000  0.74135700  0.48860600  1
  Li  Li8  1  0.50000000  0.24989600  0.49933400  1
  Li  Li9  1  0.00000000  0.14939300  0.40042200  1
  Li  Li10  1  0.50000000  0.55517700  0.30893800  1
  Li  Li11  1  0.50000000  0.05116200  0.30139800  1
  Li  Li12  1  0.00000000  0.95459000  0.20056900  1
  Li  Li13  1  0.00000000  0.44639800  0.20083200  1
  Li  Li14  1  0.50000000  0.84408800  0.09349800  1
  Li  Li15  1  0.50000000  0.34379000  0.09155900  1
  Co  Co0  1  0.00000000  0.00004000  0.99940200  1
  Co  Co1  1  0.00000000  0.50071000  0.99980900  1
  Ni  Ni0  1  0.50000000  0.89851900  0.90029300  1
  Ni  Ni1  1  0.50000000  0.39599800  0.90270500  1
  Ni  Ni2  1  0.00000000  0.79577700  0.80099000  1
  Ni  Ni3  1  0.00000000  0.30260200  0.80009600  1
  Ni  Ni4  1  0.50000000  0.69807300  0.70225800  1
  Ni  Ni5  1  0.50000000  0.19747200  0.70346100  1
  Ni  Ni6  1  0.00000000  0.59936900  0.60103200  1
  Ni  Ni7  1  0.00000000  0.10136400  0.60045000  1
  Ni  Ni8  1  0.50000000  0.00104900  0.49968700  1
  Ni  Ni9  1  0.50000000  0.50243600  0.49808600  1
  Ni  Ni10  1  0.00000000  0.90371500  0.39885500  1
  Ni  Ni11  1  0.00000000  0.39610000  0.40089400  1
  Ni  Ni12  1  0.50000000  0.79884800  0.30048600  1
  Ni  Ni13  1  0.50000000  0.29885600  0.30050100  1
  Ni  Ni14  1  0.00000000  0.70156100  0.19929300  1
  Ni  Ni15  1  0.00000000  0.19892100  0.19971400  1
  Ni  Ni16  1  0.50000000  0.60407100  0.09679800  1
  Ni  Ni17  1  0.50000000  0.10519100  0.09594600  1
  O  O0  1  0.50000000  0.60935300  0.00004100  1
  O  O1  1  0.50000000  0.10753200  0.99898900  1
  O  O2  1  0.00000000  0.78471900  0.88864900  1
  O  O3  1  0.00000000  0.51595100  0.90910100  1
  O  O4  1  0.00000000  0.28405000  0.88796800  1
  O  O5  1  0.00000000  0.01170100  0.91086200  1
  O  O6  1  0.50000000  0.90213400  0.79976000  1
  O  O7  1  0.50000000  0.68475600  0.80198700  1
  O  O8  1  0.50000000  0.41436600  0.79915500  1
  O  O9  1  0.50000000  0.19632900  0.80095800  1
  O  O10  1  0.00000000  0.80910000  0.70914700  1
  O  O11  1  0.00000000  0.58615200  0.70197300  1
  O  O12  1  0.00000000  0.31139600  0.70848100  1
  O  O13  1  0.00000000  0.08917500  0.69713600  1
  O  O14  1  0.50000000  0.98819200  0.60163800  1
  O  O15  1  0.50000000  0.71223200  0.60319300  1
  O  O16  1  0.50000000  0.48618300  0.60256800  1
  O  O17  1  0.50000000  0.21513900  0.60072600  1
  O  O18  1  0.00000000  0.88915800  0.49997600  1
  O  O19  1  0.00000000  0.61133200  0.50451200  1
  O  O20  1  0.00000000  0.38891200  0.50003200  1
  O  O21  1  0.00000000  0.11288100  0.50091400  1
  O  O22  1  0.50000000  0.79550200  0.39684100  1
  O  O23  1  0.50000000  0.50445900  0.40097800  1
  O  O24  1  0.50000000  0.28398100  0.40022000  1
  O  O25  1  0.50000000  0.01605000  0.39949600  1
  O  O26  1  0.00000000  0.91185000  0.29780300  1
  O  O27  1  0.00000000  0.68908500  0.29021800  1
  O  O28  1  0.00000000  0.41101000  0.30004900  1
  O  O29  1  0.00000000  0.18717500  0.29956600  1
  O  O30  1  0.50000000  0.81133800  0.19845200  1
  O  O31  1  0.50000000  0.59071400  0.20049400  1
  O  O32  1  0.50000000  0.31205400  0.20009300  1
  O  O33  1  0.50000000  0.08560700  0.20006000  1
  O  O34  1  0.00000000  0.99201400  0.09171800  1
  O  O35  1  0.00000000  0.71811500  0.11104700  1
  O  O36  1  0.00000000  0.48348500  0.08998500  1
  O  O37  1  0.00000000  0.21255600  0.10376600  1
  O  O38  1  0.50000000  0.89181300  0.99962400  1
  O  O39  1  0.50000000  0.39215000  0.99904400  1
loop_
_geom_bond_atom_site_label_1
_geom_bond_atom_site_label_2
_geom_bond_distance
_geom_bond_site_symmetry_2
Li0 O0 1.976496 1_556
Li0 O2 2.068063 1_555
Li0 O2 2.068063 1_655
Li0 O3 2.130890 1_555
Li0 O3 2.130890 1_655
Li0 O7 2.231560 1_555
Li1 O4 2.097245 1_555
Li1 O4 2.097245 1_655
Li1 O9 2.100647 1_555
Li1 O5 2.115470 1_555
Li1 O5 2.115470 1_655
Li1 O1 2.116841 1_555
Li2 O8 2.109995 1_555
Li2 O8 2.109995 1_455
Li2 O7 2.110809 1_455
Li2 O7 2.110809 1_555
Li2 O11 2.115453 1_555
Li2 O3 2.272987 1_555
Li3 O6 2.004069 1_555
Li3 O13 2.045821 1_565
Li3 O13 2.045821 1_665
Li3 O14 2.230947 1_555
Li3 O10 2.243208 1_555
Li3 O10 2.243208 1_655
Li4 O16 2.063446 1_555
Li4 O8 2.104924 1_555
Li4 O11 2.115456 1_655
Li4 O11 2.115456 1_555
Li4 O12 2.131632 1_555
Li4 O12 2.131632 1_655
Li5 O18 2.042425 1_555
Li5 O15 2.121568 1_455
Li5 O15 2.121568 1_555
Li5 O14 2.146381 1_455
Li5 O14 2.146381 1_555
Li5 O10 2.396266 1_555
Li6 O20 2.053749 1_555
Li6 O17 2.101830 1_555
Li6 O17 2.101830 1_455
Li6 O16 2.127194 1_455
Li6 O16 2.127194 1_555
Li6 O12 2.367667 1_555
Li7 O22 1.977172 1_555
Li7 O19 2.059030 1_555
Li7 O19 2.059030 1_655
Li7 O18 2.255097 1_555
Li7 O18 2.255097 1_655
Li7 O15 2.423671 1_555
Li8 O24 2.099979 1_555
Li8 O21 2.119957 1_655
Li8 O21 2.119957 1_555
Li8 O20 2.141843 1_555
Li8 O20 2.141843 1_655
Li8 O17 2.148168 1_555
Li9 O25 2.093194 1_455
Li9 O25 2.093194 1_555
Li9 O24 2.101527 1_555
Li9 O24 2.101527 1_455
Li9 O21 2.130638 1_555
Li9 O29 2.139318 1_555
Li10 O23 1.975577 1_555
Li10 O27 2.096186 1_655
Li10 O27 2.096186 1_555
Li10 O28 2.212365 1_555
Li10 O28 2.212365 1_655
Li10 O31 2.296541 1_555
Li11 O25 2.079460 1_555
Li11 O29 2.110860 1_655
Li11 O29 2.110860 1_555
Li11 O33 2.146827 1_555
Li11 O26 2.151705 1_645
Li11 O26 2.151705 1_545
Li12 O26 2.069345 1_555
Li12 O33 2.070363 1_565
Li12 O33 2.070363 1_465
Li12 O30 2.182488 1_455
Li12 O30 2.182488 1_555
Li12 O34 2.306275 1_555
Li13 O32 2.101389 1_455
Li13 O32 2.101389 1_555
Li13 O28 2.103084 1_555
Li13 O31 2.186346 1_555
Li13 O31 2.186346 1_455
Li13 O36 2.347893 1_555
Li14 O38 2.007549 1_554
Li14 O35 2.028795 1_555
Li14 O35 2.028795 1_655
Li14 O34 2.215814 1_555
Li14 O34 2.215814 1_655
Li14 O30 2.221753 1_555
Li15 O39 1.980820 1_554
Li15 O37 2.065034 1_555
Li15 O37 2.065034 1_655
Li15 O36 2.143307 1_555
Li15 O36 2.143307 1_655
Li15 O32 2.296636 1_555
Co0 O5 1.875685 1_555
Co0 O1 1.879599 1_555
Co0 O1 1.879599 1_455
Co0 O38 1.885593 1_445
Co0 O38 1.885593 1_545
Co0 O34 1.958991 1_546
Co1 O0 1.889635 1_456
Co1 O0 1.889635 1_556
Co1 O39 1.890028 1_455
Co1 O39 1.890028 1_555
Co1 O36 1.907818 1_556
Co1 O3 1.919818 1_555
Ni0 O5 1.957348 1_565
Ni0 O5 1.957348 1_665
Ni0 O2 1.967007 1_555
Ni0 O2 1.967007 1_655
Ni0 O38 2.109790 1_555
Ni0 O6 2.139012 1_555
Ni1 O4 1.967375 1_555
Ni1 O4 1.967375 1_655
Ni1 O3 1.996044 1_655
Ni1 O3 1.996044 1_555
Ni1 O39 2.049298 1_555
Ni1 O8 2.191228 1_555
Ni2 O2 1.857352 1_555
Ni2 O6 1.869590 1_455
Ni2 O6 1.869590 1_555
Ni2 O7 1.905993 1_555
Ni2 O7 1.905993 1_455
Ni2 O10 1.944900 1_555
Ni3 O4 1.858685 1_555
Ni3 O9 1.869519 1_555
Ni3 O9 1.869519 1_455
Ni3 O8 1.911905 1_555
Ni3 O8 1.911905 1_455
Ni3 O12 1.943357 1_555
Ni4 O11 1.915315 1_655
Ni4 O11 1.915315 1_555
Ni4 O10 1.926042 1_655
Ni4 O10 1.926042 1_555
Ni4 O15 2.097959 1_555
Ni4 O7 2.112600 1_555
Ni5 O13 1.902794 1_655
Ni5 O13 1.902794 1_555
Ni5 O12 1.942924 1_655
Ni5 O12 1.942924 1_555
Ni5 O9 2.077578 1_555
Ni5 O17 2.174198 1_555
Ni6 O16 1.922168 1_455
Ni6 O16 1.922168 1_555
Ni6 O15 1.926771 1_455
Ni6 O15 1.926771 1_555
Ni6 O19 2.045251 1_555
Ni6 O11 2.138447 1_555
Ni7 O14 1.922595 1_445
Ni7 O14 1.922595 1_545
Ni7 O17 1.929946 1_555
Ni7 O17 1.929946 1_455
Ni7 O13 2.048624 1_555
Ni7 O21 2.109763 1_555
Ni8 O18 1.914015 1_545
Ni8 O18 1.914015 1_645
Ni8 O21 1.916527 1_555
Ni8 O21 1.916527 1_655
Ni8 O25 2.121418 1_555
Ni8 O14 2.160178 1_545
Ni9 O19 1.907788 1_555
Ni9 O19 1.907788 1_655
Ni9 O20 1.924242 1_555
Ni9 O20 1.924242 1_655
Ni9 O23 2.068064 1_555
Ni9 O16 2.211953 1_555
Ni10 O22 1.890031 1_455
Ni10 O22 1.890031 1_555
Ni10 O25 1.919274 1_565
Ni10 O25 1.919274 1_465
Ni10 O18 2.141439 1_555
Ni10 O26 2.144999 1_555
Ni11 O23 1.887164 1_455
Ni11 O23 1.887164 1_555
Ni11 O24 1.917638 1_455
Ni11 O24 1.917638 1_555
Ni11 O20 2.105171 1_555
Ni11 O28 2.135370 1_555
Ni12 O26 1.919149 1_655
Ni12 O26 1.919149 1_555
Ni12 O27 1.929099 1_555
Ni12 O27 1.929099 1_655
Ni12 O22 2.050269 1_555
Ni12 O30 2.162204 1_555
Ni13 O29 1.914724 1_655
Ni13 O29 1.914724 1_555
Ni13 O28 1.915796 1_655
Ni13 O28 1.915796 1_555
Ni13 O24 2.111454 1_555
Ni13 O32 2.127121 1_555
Ni14 O35 1.867075 1_555
Ni14 O30 1.896547 1_555
Ni14 O30 1.896547 1_455
Ni14 O31 1.904310 1_555
Ni14 O31 1.904310 1_455
Ni14 O27 1.925889 1_555
Ni15 O32 1.925059 1_455
Ni15 O32 1.925059 1_555
Ni15 O33 1.925137 1_455
Ni15 O33 1.925137 1_555
Ni15 O37 2.031995 1_555
Ni15 O29 2.116315 1_555
Ni16 O35 1.981487 1_555
Ni16 O35 1.981487 1_655
Ni16 O36 2.002654 1_655
Ni16 O36 2.002654 1_555
Ni16 O0 2.056500 1_555
Ni16 O31 2.196960 1_555
Ni17 O37 1.900791 1_555
Ni17 O37 1.900791 1_655
Ni17 O34 1.934652 1_645
Ni17 O34 1.934652 1_545
Ni17 O1 2.064415 1_554
Ni17 O33 2.202788 1_555
