# generated using pymatgen
data_V6GaSb
_symmetry_space_group_name_H-M   'P 1'
_cell_length_a   4.86964700
_cell_length_b   4.86964700
_cell_length_c   4.86964700
_cell_angle_alpha   90.00000000
_cell_angle_beta   90.00000000
_cell_angle_gamma   90.00000000
_symmetry_Int_Tables_number   1
_chemical_formula_structural   V6GaSb
_chemical_formula_sum   'V6 Ga1 Sb1'
_cell_volume   115.47618862
_cell_formula_units_Z   1
loop_
 _symmetry_equiv_pos_site_id
 _symmetry_equiv_pos_as_xyz
  1  'x, y, z'
loop_
 _atom_site_type_symbol
 _atom_site_label
 _atom_site_symmetry_multiplicity
 _atom_site_fract_x
 _atom_site_fract_y
 _atom_site_fract_z
 _atom_site_occupancy
  V  V0  1  0.74370400  0.00000000  0.50000000  1
  V  V1  1  0.00000000  0.50000000  0.74370400  1
  V  V2  1  0.50000000  0.25629600  0.00000000  1
  V  V3  1  0.25629600  0.00000000  0.50000000  1
  V  V4  1  0.00000000  0.50000000  0.25629600  1
  V  V5  1  0.50000000  0.74370400  0.00000000  1
  Ga  Ga0  1  0.50000000  0.50000000  0.50000000  1
  Sb  Sb0  1  0.00000000  0.00000000  0.00000000  1
loop_
_geom_bond_atom_site_label_1
_geom_bond_atom_site_label_2
_geom_bond_distance
_geom_bond_site_symmetry_2
V0 V3 2.373505 1_555
V0 V3 2.496142 1_655
V1 V4 2.373505 1_555
V1 V4 2.496142 1_556
V2 V5 2.373505 1_555
V2 V5 2.496142 1_545
Ga0 V0 2.708643 1_555
Ga0 V1 2.708643 1_655
Ga0 V1 2.708643 1_555
Ga0 V5 2.708643 1_555
Ga0 V0 2.708643 1_565
Ga0 V5 2.708643 1_556
Ga0 V4 2.708643 1_555
Ga0 V2 2.708643 1_556
Ga0 V4 2.708643 1_655
Ga0 V2 2.708643 1_555
Ga0 V3 2.708643 1_565
Ga0 V3 2.708643 1_555
Sb0 V2 2.736064 1_455
Sb0 V3 2.736064 1_555
Sb0 V4 2.736064 1_545
Sb0 V4 2.736064 1_555
Sb0 V3 2.736064 1_554
Sb0 V2 2.736064 1_555
Sb0 V1 2.736064 1_554
Sb0 V0 2.736064 1_455
Sb0 V1 2.736064 1_544
Sb0 V0 2.736064 1_454
Sb0 V5 2.736064 1_445
Sb0 V5 2.736064 1_545
