# generated using pymatgen
data_Li2CaHfF8
_symmetry_space_group_name_H-M   'P 1'
_cell_length_a   6.34374537
_cell_length_b   6.34374537
_cell_length_c   6.34374537
_cell_angle_alpha   132.87721100
_cell_angle_beta   132.87721100
_cell_angle_gamma   68.84704647
_symmetry_Int_Tables_number   1
_chemical_formula_structural   Li2CaHfF8
_chemical_formula_sum   'Li2 Ca1 Hf1 F8'
_cell_volume   134.59394518
_cell_formula_units_Z   1
loop_
 _symmetry_equiv_pos_site_id
 _symmetry_equiv_pos_as_xyz
  1  'x, y, z'
loop_
 _atom_site_type_symbol
 _atom_site_label
 _atom_site_symmetry_multiplicity
 _atom_site_fract_x
 _atom_site_fract_y
 _atom_site_fract_z
 _atom_site_occupancy
  Li  Li0  1  0.75000000  0.25000000  0.50000000  1
  Li  Li1  1  -0.00000000  -0.00000000  0.00000000  1
  Ca  Ca0  1  0.50000000  0.50000000  0.00000000  1
  Hf  Hf0  1  0.25000000  0.75000000  0.50000000  1
  F  F0  1  0.49458625  0.46533729  0.59982700  1
  F  F1  1  0.23488142  0.80165108  0.85816959  1
  F  F2  1  0.53466271  0.13448971  0.02924996  1
  F  F3  1  0.10524075  0.50541375  0.97075004  1
  F  F4  1  0.86551029  0.89475925  0.40017300  1
  F  F5  1  0.19834892  0.05651852  0.43323035  1
  F  F6  1  0.94348148  0.37671183  0.14183041  1
  F  F7  1  0.62328817  0.76511858  0.56676965  1
loop_
_geom_bond_atom_site_label_1
_geom_bond_atom_site_label_2
_geom_bond_distance
_geom_bond_site_symmetry_2
Ca0 F6 2.293684 1_555
Ca0 F7 2.293684 1_555
Ca0 F5 2.293684 1_554
Ca0 F1 2.293684 1_554
Ca0 F3 2.370893 1_554
Ca0 F4 2.370897 1_555
Ca0 F0 2.370897 1_554
Ca0 F2 2.370901 1_555
F0 Li0 1.874591 1_555
F0 Hf0 2.065528 1_555
F1 Li1 1.882446 1_566
F1 Hf0 2.130702 1_555
F2 Li0 1.874586 1_555
F2 Hf0 2.065529 1_544
F3 Li0 1.874590 1_455
F3 Hf0 2.065533 1_556
F4 Li0 1.874591 1_565
F4 Hf0 2.065528 1_655
F5 Li1 1.882446 1_555
F5 Hf0 2.130702 1_545
F6 Li1 1.882446 1_655
F6 Hf0 2.130702 1_655
F7 Li1 1.882446 1_666
F7 Hf0 2.130702 1_555
