# generated using pymatgen
data_CeMg
_symmetry_space_group_name_H-M   'P 1'
_cell_length_a   5.56600052
_cell_length_b   5.56600052
_cell_length_c   6.46998300
_cell_angle_alpha   90.00000000
_cell_angle_beta   90.00000000
_cell_angle_gamma   120.00000620
_symmetry_Int_Tables_number   1
_chemical_formula_structural   CeMg
_chemical_formula_sum   'Ce2 Mg2'
_cell_volume   173.58821188
_cell_formula_units_Z   2
loop_
 _symmetry_equiv_pos_site_id
 _symmetry_equiv_pos_as_xyz
  1  'x, y, z'
loop_
 _atom_site_type_symbol
 _atom_site_label
 _atom_site_symmetry_multiplicity
 _atom_site_fract_x
 _atom_site_fract_y
 _atom_site_fract_z
 _atom_site_occupancy
  Ce  Ce0  1  0.33333300  0.66666700  0.75000000  1
  Ce  Ce1  1  0.66666700  0.33333300  0.25000000  1
  Mg  Mg0  1  0.33333300  0.66666700  0.25000000  1
  Mg  Mg1  1  0.66666700  0.33333300  0.75000000  1
loop_
_geom_bond_atom_site_label_1
_geom_bond_atom_site_label_2
_geom_bond_distance
_geom_bond_site_symmetry_2
Ce0 Mg1 3.213528 1_455
Ce0 Mg1 3.213528 1_565
Ce0 Mg1 3.213538 1_555
Ce0 Mg0 3.234992 1_556
Ce0 Mg0 3.234992 1_555
Ce1 Mg0 3.213528 1_545
Ce1 Mg0 3.213528 1_655
Ce1 Mg0 3.213538 1_555
Ce1 Mg1 3.234992 1_555
Ce1 Mg1 3.234992 1_554
