# generated using pymatgen
data_Li3Mo15Se19
_symmetry_space_group_name_H-M   'P 1'
_cell_length_a   9.72197740
_cell_length_b   9.61627497
_cell_length_c   19.84678844
_cell_angle_alpha   90.00000000
_cell_angle_beta   90.00000000
_cell_angle_gamma   119.92050046
_symmetry_Int_Tables_number   1
_chemical_formula_structural   Li3Mo15Se19
_chemical_formula_sum   'Li6 Mo30 Se38'
_cell_volume   1608.16165953
_cell_formula_units_Z   2
loop_
 _symmetry_equiv_pos_site_id
 _symmetry_equiv_pos_as_xyz
  1  'x, y, z'
loop_
 _atom_site_type_symbol
 _atom_site_label
 _atom_site_symmetry_multiplicity
 _atom_site_fract_x
 _atom_site_fract_y
 _atom_site_fract_z
 _atom_site_occupancy
  Li  Li0  1  0.66662955  0.33054529  0.60127336  1
  Li  Li1  1  0.33337045  0.66945471  0.10127336  1
  Li  Li2  1  0.33337045  0.66945471  0.39872664  1
  Li  Li3  1  0.66662955  0.33054529  0.89872664  1
  Li  Li4  1  0.82454564  0.79001761  0.75000000  1
  Li  Li5  1  0.17545436  0.20998239  0.25000000  1
  Mo  Mo0  1  0.35145356  0.83773912  0.75000000  1
  Mo  Mo1  1  0.16151955  0.51278612  0.75000000  1
  Mo  Mo2  1  0.48012315  0.64462079  0.75000000  1
  Mo  Mo3  1  0.64854644  0.16226088  0.25000000  1
  Mo  Mo4  1  0.83848045  0.48721388  0.25000000  1
  Mo  Mo5  1  0.51987685  0.35537921  0.25000000  1
  Mo  Mo6  1  0.18949911  0.69156609  0.63442608  1
  Mo  Mo7  1  0.30718694  0.49574072  0.63512058  1
  Mo  Mo8  1  0.50052425  0.80998838  0.63521683  1
  Mo  Mo9  1  0.81050089  0.30843391  0.13442608  1
  Mo  Mo10  1  0.69281306  0.50425928  0.13512058  1
  Mo  Mo11  1  0.49947575  0.19001162  0.13521683  1
  Mo  Mo12  1  0.81050089  0.30843391  0.36557392  1
  Mo  Mo13  1  0.69281306  0.50425928  0.36487942  1
  Mo  Mo14  1  0.49947575  0.19001162  0.36478317  1
  Mo  Mo15  1  0.18949911  0.69156609  0.86557392  1
  Mo  Mo16  1  0.30718694  0.49574072  0.86487942  1
  Mo  Mo17  1  0.50052425  0.80998838  0.86478317  1
  Mo  Mo18  1  0.15316505  0.98367568  0.55716621  1
  Mo  Mo19  1  0.01714879  0.16762597  0.55639755  1
  Mo  Mo20  1  0.83067090  0.84625721  0.55931972  1
  Mo  Mo21  1  0.84683495  0.01632432  0.05716621  1
  Mo  Mo22  1  0.98285121  0.83237403  0.05639755  1
  Mo  Mo23  1  0.16932910  0.15374279  0.05931972  1
  Mo  Mo24  1  0.84683495  0.01632432  0.44283379  1
  Mo  Mo25  1  0.98285121  0.83237403  0.44360245  1
  Mo  Mo26  1  0.16932910  0.15374279  0.44068028  1
  Mo  Mo27  1  0.15316505  0.98367568  0.94283379  1
  Mo  Mo28  1  0.01714879  0.16762597  0.94360245  1
  Mo  Mo29  1  0.83067090  0.84625721  0.94068028  1
  Se  Se0  1  0.04590358  0.70446559  0.75000000  1
  Se  Se1  1  0.29091020  0.33540723  0.75000000  1
  Se  Se2  1  0.65803553  0.95615097  0.75000000  1
  Se  Se3  1  0.95409642  0.29553441  0.25000000  1
  Se  Se4  1  0.70908980  0.66459277  0.25000000  1
  Se  Se5  1  0.34196447  0.04384903  0.25000000  1
  Se  Se6  1  0.00493197  0.00028044  0.65944538  1
  Se  Se7  1  0.99506803  0.99971956  0.15944538  1
  Se  Se8  1  0.99506803  0.99971956  0.34055462  1
  Se  Se9  1  0.00493197  0.00028044  0.84055462  1
  Se  Se10  1  0.96240981  0.67102588  0.55080827  1
  Se  Se11  1  0.32665916  0.29254186  0.54710120  1
  Se  Se12  1  0.70967943  0.03429868  0.55066905  1
  Se  Se13  1  0.03759019  0.32897412  0.05080827  1
  Se  Se14  1  0.67334084  0.70745814  0.04710120  1
  Se  Se15  1  0.29032057  0.96570132  0.05066905  1
  Se  Se16  1  0.03759019  0.32897412  0.44919173  1
  Se  Se17  1  0.67334084  0.70745814  0.45289880  1
  Se  Se18  1  0.29032057  0.96570132  0.44933095  1
  Se  Se19  1  0.96240981  0.67102588  0.94919173  1
  Se  Se20  1  0.32665916  0.29254186  0.95289880  1
  Se  Se21  1  0.70967943  0.03429868  0.94933095  1
  Se  Se22  1  0.38209214  0.00569674  0.64291995  1
  Se  Se23  1  0.99623942  0.37687155  0.64307576  1
  Se  Se24  1  0.61987052  0.61232127  0.64369336  1
  Se  Se25  1  0.61790786  0.99430326  0.14291995  1
  Se  Se26  1  0.00376058  0.62312845  0.14307576  1
  Se  Se27  1  0.38012948  0.38767873  0.14369336  1
  Se  Se28  1  0.61790786  0.99430326  0.35708005  1
  Se  Se29  1  0.00376058  0.62312845  0.35692424  1
  Se  Se30  1  0.38012948  0.38767873  0.35630664  1
  Se  Se31  1  0.38209214  0.00569674  0.85708005  1
  Se  Se32  1  0.99623942  0.37687155  0.85692424  1
  Se  Se33  1  0.61987052  0.61232127  0.85630664  1
  Se  Se34  1  0.66739327  0.33366086  0.03224957  1
  Se  Se35  1  0.33260673  0.66633914  0.53224957  1
  Se  Se36  1  0.33260673  0.66633914  0.96775043  1
  Se  Se37  1  0.66739327  0.33366086  0.46775043  1
loop_
_geom_bond_atom_site_label_1
_geom_bond_atom_site_label_2
_geom_bond_distance
_geom_bond_site_symmetry_2
Li0 Se37 2.650139 1_555
Li0 Se22 3.077852 1_555
Li0 Se24 3.079998 1_555
Li0 Se23 3.119490 1_555
Li0 Se12 3.238655 1_555
Li1 Se36 2.650139 1_554
Li1 Se25 3.077852 1_555
Li1 Se27 3.079998 1_555
Li1 Se26 3.119490 1_555
Li1 Se15 3.238655 1_555
Li2 Se35 2.650139 1_555
Li2 Se28 3.077852 1_555
Li2 Se30 3.079998 1_555
Li2 Se29 3.119490 1_555
Li2 Se18 3.238655 1_555
Li3 Se34 2.650139 1_556
Li3 Se31 3.077852 1_555
Li3 Se33 3.079998 1_555
Li3 Se32 3.119490 1_555
Li3 Se21 3.238655 1_555
Li4 Se9 2.618469 1_665
Li4 Se6 2.618469 1_665
Li4 Se0 2.659754 1_655
Li4 Se2 2.784381 1_555
Li4 Se24 2.817592 1_555
Li4 Se33 2.817592 1_555
Li4 Mo2 2.914900 1_555
Li5 Se7 2.618469 1_445
Li5 Se8 2.618469 1_445
Li5 Se3 2.659754 1_455
Li5 Se5 2.784381 1_555
Li5 Se27 2.817592 1_555
Li5 Se30 2.817592 1_555
Li5 Mo5 2.914900 1_555
Mo0 Se0 2.582395 1_555
Mo0 Se22 2.594971 1_565
Mo0 Se31 2.594971 1_565
Mo0 Se2 2.606664 1_555
Mo0 Mo2 2.707587 1_555
Mo1 Se1 2.575348 1_555
Mo1 Se23 2.588131 1_455
Mo1 Se32 2.588131 1_455
Mo1 Se0 2.593802 1_555
Mo1 Mo2 2.698901 1_555
Mo2 Se1 2.601693 1_555
Mo2 Se2 2.607127 1_555
Mo2 Se24 2.610507 1_555
Mo2 Se33 2.610507 1_555
Mo2 Mo8 2.728210 1_555
Mo2 Mo7 2.770105 1_555
Mo3 Se3 2.582395 1_555
Mo3 Se28 2.594971 1_545
Mo3 Se25 2.594971 1_545
Mo3 Se5 2.606664 1_555
Mo3 Mo5 2.707587 1_555
Mo4 Se4 2.575348 1_555
Mo4 Se26 2.588131 1_655
Mo4 Se29 2.588131 1_655
Mo4 Se3 2.593802 1_555
Mo4 Mo5 2.698901 1_555
Mo5 Se4 2.601693 1_555
Mo5 Se5 2.607127 1_555
Mo5 Se27 2.610507 1_555
Mo5 Se30 2.610507 1_555
Mo6 Se35 2.538408 1_555
Mo6 Se22 2.648931 1_565
Mo6 Se23 2.654297 1_455
Mo6 Se10 2.689287 1_455
Mo6 Se0 2.720006 1_555
Mo7 Se35 2.552706 1_555
Mo7 Se23 2.650092 1_455
Mo7 Se24 2.669645 1_555
Mo7 Se11 2.697166 1_555
Mo7 Se1 2.712411 1_555
Mo8 Se35 2.549457 1_555
Mo8 Se22 2.655682 1_565
Mo8 Se24 2.681019 1_555
Mo8 Se12 2.688425 1_565
Mo8 Se2 2.713478 1_555
Mo9 Se34 2.538408 1_555
Mo9 Se25 2.648931 1_545
Mo9 Se26 2.654297 1_655
Mo9 Se13 2.689287 1_655
Mo9 Se3 2.720006 1_555
Mo10 Se34 2.552706 1_555
Mo10 Se26 2.650092 1_655
Mo10 Se27 2.669645 1_555
Mo10 Se14 2.697166 1_555
Mo10 Se4 2.712411 1_555
Mo10 Mo5 2.770105 1_555
Mo11 Se34 2.549457 1_555
Mo11 Se25 2.655682 1_545
Mo11 Se27 2.681019 1_555
Mo11 Se15 2.688425 1_545
Mo11 Se5 2.713478 1_555
Mo11 Mo5 2.728210 1_555
Mo12 Se37 2.538408 1_555
Mo12 Se28 2.648931 1_545
Mo12 Se29 2.654297 1_655
Mo12 Se16 2.689287 1_655
Mo12 Se3 2.720006 1_555
Mo13 Se37 2.552706 1_555
Mo13 Se29 2.650092 1_655
Mo13 Se30 2.669645 1_555
Mo13 Se17 2.697166 1_555
Mo13 Se4 2.712411 1_555
Mo13 Mo5 2.770105 1_555
Mo14 Se37 2.549457 1_555
Mo14 Se28 2.655682 1_545
Mo14 Se30 2.681019 1_555
Mo14 Se18 2.688425 1_545
Mo14 Se5 2.713478 1_555
Mo14 Mo5 2.728210 1_555
Mo15 Se36 2.538408 1_555
Mo15 Se31 2.648931 1_565
Mo15 Se32 2.654297 1_455
Mo15 Se19 2.689287 1_455
Mo15 Se0 2.720006 1_555
Mo16 Se36 2.552706 1_555
Mo16 Se32 2.650092 1_455
Mo16 Se33 2.669645 1_555
Mo16 Se20 2.697166 1_555
Mo16 Se1 2.712411 1_555
Mo16 Mo2 2.770105 1_555
Mo17 Se36 2.549457 1_555
Mo17 Se31 2.655682 1_565
Mo17 Se33 2.681019 1_555
Mo17 Se21 2.688425 1_565
Mo17 Se2 2.713478 1_555
Mo17 Mo2 2.728210 1_555
Mo18 Se6 2.540162 1_565
Mo18 Se18 2.572587 1_555
Mo18 Se11 2.590157 1_565
Mo18 Se10 2.632890 1_455
Mo18 Se22 2.724824 1_565
Mo19 Se6 2.568230 1_555
Mo19 Se16 2.581923 1_555
Mo19 Se12 2.601697 1_455
Mo19 Se11 2.631639 1_555
Mo19 Se23 2.730852 1_455
Mo20 Se6 2.551381 1_665
Mo20 Se17 2.558406 1_555
Mo20 Se10 2.580959 1_555
Mo20 Se12 2.608601 1_565
Mo20 Se24 2.732320 1_555
Mo21 Se7 2.540162 1_545
Mo21 Se21 2.572587 1_554
Mo21 Se14 2.590157 1_545
Mo21 Se13 2.632890 1_655
Mo21 Se25 2.724824 1_545
Mo22 Se7 2.568230 1_555
Mo22 Se19 2.581923 1_554
Mo22 Se15 2.601697 1_655
Mo22 Se14 2.631639 1_555
Mo22 Se26 2.730852 1_655
Mo23 Se7 2.551381 1_445
Mo23 Se20 2.558406 1_554
Mo23 Se13 2.580959 1_555
Mo23 Se15 2.608601 1_545
Mo23 Se27 2.732320 1_555
Mo24 Se8 2.540162 1_545
Mo24 Se12 2.572587 1_555
Mo24 Se17 2.590157 1_545
Mo24 Se16 2.632890 1_655
Mo24 Se28 2.724824 1_545
Mo25 Se8 2.568230 1_555
Mo25 Se10 2.581923 1_555
Mo25 Se18 2.601697 1_655
Mo25 Se17 2.631639 1_555
Mo25 Se29 2.730852 1_655
Mo26 Se8 2.551381 1_445
Mo26 Se11 2.558406 1_555
Mo26 Se16 2.580959 1_555
Mo26 Se18 2.608601 1_545
Mo26 Se30 2.732320 1_555
Mo27 Se9 2.540162 1_565
Mo27 Se15 2.572587 1_556
Mo27 Se20 2.590157 1_565
Mo27 Se19 2.632890 1_455
Mo27 Se31 2.724824 1_565
Mo28 Se9 2.568230 1_555
Mo28 Se13 2.581923 1_556
Mo28 Se21 2.601697 1_455
Mo28 Se20 2.631639 1_555
Mo28 Se32 2.730852 1_455
Mo29 Se9 2.551381 1_665
Mo29 Se14 2.558406 1_556
Mo29 Se19 2.580959 1_555
Mo29 Se21 2.608601 1_565
Mo29 Se33 2.732320 1_555
