# generated using pymatgen
data_CaUCu(PO7)2
_symmetry_space_group_name_H-M   'P 1'
_cell_length_a   7.07603500
_cell_length_b   12.70770300
_cell_length_c   13.09587925
_cell_angle_alpha   85.84408071
_cell_angle_beta   90.00000000
_cell_angle_gamma   90.00000000
_symmetry_Int_Tables_number   1
_chemical_formula_structural   CaUCu(PO7)2
_chemical_formula_sum   'Ca4 U4 Cu4 P8 O56'
_cell_volume   1174.48701934
_cell_formula_units_Z   4
loop_
 _symmetry_equiv_pos_site_id
 _symmetry_equiv_pos_as_xyz
  1  'x, y, z'
loop_
 _atom_site_type_symbol
 _atom_site_label
 _atom_site_symmetry_multiplicity
 _atom_site_fract_x
 _atom_site_fract_y
 _atom_site_fract_z
 _atom_site_occupancy
  Ca  Ca0  1  0.48344500  0.73863700  0.16876200  1
  Ca  Ca1  1  0.98344500  0.76136300  0.83123800  1
  Ca  Ca2  1  0.51655500  0.26136300  0.83123800  1
  Ca  Ca3  1  0.01655500  0.23863700  0.16876200  1
  U  U0  1  0.98178900  0.76266400  0.31470600  1
  U  U1  1  0.48178900  0.73733600  0.68529400  1
  U  U2  1  0.01821100  0.23733600  0.68529400  1
  U  U3  1  0.51821100  0.26266400  0.31470600  1
  Cu  Cu0  1  0.00000000  0.00000000  0.00000000  1
  Cu  Cu1  1  0.50000000  0.50000000  0.00000000  1
  Cu  Cu2  1  0.00000000  0.50000000  0.50000000  1
  Cu  Cu3  1  0.50000000  0.00000000  0.50000000  1
  P  P0  1  0.98323800  0.75178200  0.07572200  1
  P  P1  1  0.48323800  0.74821800  0.92427800  1
  P  P2  1  0.01676200  0.24821800  0.92427800  1
  P  P3  1  0.51676200  0.25178200  0.07572200  1
  P  P4  1  0.99031000  0.71884700  0.59672700  1
  P  P5  1  0.49031000  0.78115300  0.40327300  1
  P  P6  1  0.00969000  0.28115300  0.40327300  1
  P  P7  1  0.50969000  0.21884700  0.59672700  1
  O  O0  1  0.15401900  0.75286600  0.14963800  1
  O  O1  1  0.65401900  0.74713400  0.85036200  1
  O  O2  1  0.84598100  0.24713400  0.85036200  1
  O  O3  1  0.34598100  0.25286600  0.14963800  1
  O  O4  1  0.31216600  0.74716900  0.85099900  1
  O  O5  1  0.81216600  0.75283100  0.14900100  1
  O  O6  1  0.68783400  0.25283100  0.14900100  1
  O  O7  1  0.18783400  0.24716900  0.85099900  1
  O  O8  1  0.98616500  0.85150100  0.99412700  1
  O  O9  1  0.48616500  0.64849900  0.00587300  1
  O  O10  1  0.01383500  0.14849900  0.00587300  1
  O  O11  1  0.51383500  0.35150100  0.99412700  1
  O  O12  1  0.98200200  0.66568700  0.99981800  1
  O  O13  1  0.48200200  0.83431300  0.00018200  1
  O  O14  1  0.01799800  0.33431300  0.00018200  1
  O  O15  1  0.51799800  0.16568700  0.99981800  1
  O  O16  1  0.80693800  0.73180200  0.65929500  1
  O  O17  1  0.30693800  0.76819800  0.34070500  1
  O  O18  1  0.19306200  0.26819800  0.34070500  1
  O  O19  1  0.69306200  0.23180200  0.65929500  1
  O  O20  1  0.97445300  0.77098400  0.48803700  1
  O  O21  1  0.47445300  0.72901600  0.51196300  1
  O  O22  1  0.02554700  0.22901600  0.51196300  1
  O  O23  1  0.52554700  0.27098400  0.48803700  1
  O  O24  1  0.14965400  0.76471100  0.66154500  1
  O  O25  1  0.64965400  0.73528900  0.33845500  1
  O  O26  1  0.85034600  0.23528900  0.33845500  1
  O  O27  1  0.35034600  0.26471100  0.66154500  1
  O  O28  1  0.04066700  0.59766200  0.59794800  1
  O  O29  1  0.54066700  0.90233800  0.40205200  1
  O  O30  1  0.95933300  0.40233800  0.40205200  1
  O  O31  1  0.45933300  0.09766200  0.59794800  1
  O  O32  1  0.76168100  0.00432500  0.04283100  1
  O  O33  1  0.26168100  0.49567500  0.95716900  1
  O  O34  1  0.23831900  0.99567500  0.95716900  1
  O  O35  1  0.73831900  0.50432500  0.04283100  1
  O  O36  1  0.40592000  0.53402200  0.17192200  1
  O  O37  1  0.90592000  0.96597800  0.82807800  1
  O  O38  1  0.59408000  0.46597800  0.82807800  1
  O  O39  1  0.09408000  0.03402200  0.17192200  1
  O  O40  1  0.75176000  0.51134000  0.50039600  1
  O  O41  1  0.25176000  0.98866000  0.49960400  1
  O  O42  1  0.24824000  0.48866000  0.49960400  1
  O  O43  1  0.74824000  0.01134000  0.50039600  1
  O  O44  1  0.99951000  0.62039700  0.33511500  1
  O  O45  1  0.49951000  0.87960300  0.66488500  1
  O  O46  1  0.00049000  0.37960300  0.66488500  1
  O  O47  1  0.50049000  0.12039700  0.33511500  1
  O  O48  1  0.47863200  0.93409700  0.20256100  1
  O  O49  1  0.97863200  0.56590300  0.79743900  1
  O  O50  1  0.52136800  0.06590300  0.79743900  1
  O  O51  1  0.02136800  0.43409700  0.20256100  1
  O  O52  1  0.96523300  0.90593900  0.29286300  1
  O  O53  1  0.46523300  0.59406100  0.70713700  1
  O  O54  1  0.03476700  0.09406100  0.70713700  1
  O  O55  1  0.53476700  0.40593900  0.29286300  1
loop_
_geom_bond_atom_site_label_1
_geom_bond_atom_site_label_2
_geom_bond_distance
_geom_bond_site_symmetry_2
Ca0 O5 2.345892 1_555
Ca0 O0 2.350012 1_555
Ca0 O13 2.441973 1_555
Ca0 O9 2.493393 1_555
Ca0 O25 2.511940 1_555
Ca0 O48 2.554590 1_555
Ca0 O17 2.625642 1_555
Ca0 O36 2.654810 1_555
Ca1 O4 2.345892 1_655
Ca1 O1 2.350012 1_555
Ca1 O12 2.441973 1_555
Ca1 O8 2.493393 1_555
Ca1 O24 2.511940 1_655
Ca1 O49 2.554590 1_555
Ca1 O16 2.625642 1_555
Ca1 O37 2.654810 1_555
Ca2 O7 2.345892 1_555
Ca2 O2 2.350012 1_555
Ca2 O15 2.441973 1_555
Ca2 O11 2.493393 1_555
Ca2 O27 2.511940 1_555
Ca2 O50 2.554590 1_555
Ca2 O19 2.625642 1_555
Ca2 O38 2.654810 1_555
Ca3 O6 2.345892 1_455
Ca3 O3 2.350012 1_555
Ca3 O14 2.441973 1_555
Ca3 O10 2.493393 1_555
Ca3 O26 2.511940 1_455
Ca3 O51 2.554590 1_555
Ca3 O18 2.625642 1_555
Ca3 O39 2.654810 1_555
Cu0 O34 1.779297 1_544
Cu0 O32 1.779297 1_455
Cu0 O10 1.896737 1_555
Cu0 O8 1.896737 1_444
Cu0 O37 2.416671 1_444
Cu0 O39 2.416671 1_555
Cu1 O35 1.779297 1_555
Cu1 O33 1.779297 1_554
Cu1 O9 1.896737 1_555
Cu1 O11 1.896737 1_554
Cu1 O36 2.416671 1_555
Cu1 O38 2.416671 1_554
Cu2 O40 1.762494 1_455
Cu2 O42 1.762494 1_555
Cu2 O28 1.870596 1_555
Cu2 O30 1.870596 1_455
Cu3 O41 1.762494 1_545
Cu3 O43 1.762494 1_555
Cu3 O31 1.870596 1_555
Cu3 O29 1.870596 1_545
O0 P0 1.549030 1_455
O0 U0 2.492539 1_455
O1 P1 1.549030 1_555
O1 U1 2.492539 1_555
O2 P2 1.549030 1_655
O2 U2 2.492539 1_655
O3 P3 1.549030 1_555
O3 U3 2.492539 1_555
O4 P1 1.545414 1_555
O4 U1 2.490916 1_555
O5 P0 1.545414 1_555
O5 U0 2.490916 1_555
O6 P3 1.545414 1_555
O6 U3 2.490916 1_555
O7 P2 1.545414 1_555
O7 U2 2.490916 1_555
O8 P0 1.597429 1_556
O9 P1 1.597429 1_554
O10 P2 1.597429 1_554
O11 P3 1.597429 1_556
O12 P0 1.530617 1_556
O13 P1 1.530617 1_554
O14 P2 1.530617 1_554
O15 P3 1.530617 1_556
O16 P4 1.549732 1_555
O16 U1 2.327631 1_555
O17 P5 1.549732 1_555
O17 U0 2.327631 1_455
O18 P6 1.549732 1_555
O18 U3 2.327631 1_555
O19 P7 1.549732 1_555
O19 U2 2.327631 1_655
O20 P4 1.530002 1_555
O20 U0 2.280615 1_555
O21 P5 1.530002 1_555
O21 U1 2.280615 1_555
O22 P6 1.530002 1_555
O22 U2 2.280615 1_555
O23 P7 1.530002 1_555
O23 U3 2.280615 1_555
O24 P4 1.550241 1_455
O24 U1 2.392801 1_555
O25 P5 1.550241 1_555
O25 U0 2.392801 1_555
O26 P6 1.550241 1_655
O26 U3 2.392801 1_555
O27 P7 1.550241 1_555
O27 U2 2.392801 1_555
O28 P4 1.579621 1_455
O29 P5 1.579621 1_555
O30 P6 1.579621 1_655
O31 P7 1.579621 1_555
O44 U0 1.812616 1_555
O45 U1 1.812616 1_555
O46 U2 1.812616 1_555
O47 U3 1.812616 1_555
O52 U0 1.826197 1_555
O53 U1 1.826197 1_555
O54 U2 1.826197 1_555
O55 U3 1.826197 1_555
