# generated using pymatgen
data_InAgP2(HO4)2
_symmetry_space_group_name_H-M   'P 1'
_cell_length_a   6.71893036
_cell_length_b   6.77223216
_cell_length_c   14.99862700
_cell_angle_alpha   90.00000000
_cell_angle_beta   90.00000000
_cell_angle_gamma   96.62467366
_symmetry_Int_Tables_number   1
_chemical_formula_structural   InAgP2(HO4)2
_chemical_formula_sum   'In4 Ag4 P8 H8 O32'
_cell_volume   677.91313933
_cell_formula_units_Z   4
loop_
 _symmetry_equiv_pos_site_id
 _symmetry_equiv_pos_as_xyz
  1  'x, y, z'
loop_
 _atom_site_type_symbol
 _atom_site_label
 _atom_site_symmetry_multiplicity
 _atom_site_fract_x
 _atom_site_fract_y
 _atom_site_fract_z
 _atom_site_occupancy
  In  In0  1  0.22738600  0.37995400  0.10867800  1
  In  In1  1  0.77261400  0.12004600  0.60867800  1
  In  In2  1  0.77261400  0.62004600  0.89132200  1
  In  In3  1  0.22738600  0.87995400  0.39132200  1
  Ag  Ag0  1  0.79085700  0.51291400  0.43565900  1
  Ag  Ag1  1  0.20914300  0.98708600  0.93565900  1
  Ag  Ag2  1  0.20914300  0.48708600  0.56434100  1
  Ag  Ag3  1  0.79085700  0.01291400  0.06434100  1
  P  P0  1  0.26786300  0.38221100  0.34397900  1
  P  P1  1  0.73213700  0.11778900  0.84397900  1
  P  P2  1  0.73213700  0.61778900  0.65602100  1
  P  P3  1  0.26786300  0.88221100  0.15602100  1
  P  P4  1  0.25123100  0.49850900  0.88578100  1
  P  P5  1  0.74876900  0.00149100  0.38578100  1
  P  P6  1  0.74876900  0.50149100  0.11421900  1
  P  P7  1  0.25123100  0.99850900  0.61421900  1
  H  H0  1  0.55230400  0.42927000  0.26824500  1
  H  H1  1  0.44769600  0.07073000  0.76824500  1
  H  H2  1  0.44769600  0.57073000  0.73175500  1
  H  H3  1  0.55230400  0.92927000  0.23175500  1
  H  H4  1  0.06342500  0.31407300  0.78333900  1
  H  H5  1  0.93657500  0.18592700  0.28333900  1
  H  H6  1  0.93657500  0.68592700  0.21666100  1
  H  H7  1  0.06342500  0.81407300  0.71666100  1
  O  O0  1  0.25148900  0.35042600  0.96414800  1
  O  O1  1  0.74851100  0.14957400  0.46414800  1
  O  O2  1  0.74851100  0.64957400  0.03585200  1
  O  O3  1  0.25148900  0.85042600  0.53585200  1
  O  O4  1  0.90099100  0.34943100  0.09965800  1
  O  O5  1  0.09900900  0.15056900  0.59965800  1
  O  O6  1  0.09900900  0.65056900  0.90034200  1
  O  O7  1  0.90099100  0.84943100  0.40034200  1
  O  O8  1  0.54164200  0.39111400  0.13591400  1
  O  O9  1  0.45835800  0.10888600  0.63591400  1
  O  O10  1  0.45835800  0.60888600  0.86408600  1
  O  O11  1  0.54164200  0.89111400  0.36408600  1
  O  O12  1  0.19596700  0.05445800  0.10122800  1
  O  O13  1  0.80403300  0.44554200  0.60122800  1
  O  O14  1  0.80403300  0.94554200  0.89877200  1
  O  O15  1  0.19596700  0.55445800  0.39877200  1
  O  O16  1  0.23337000  0.69428100  0.09906100  1
  O  O17  1  0.76663000  0.80571900  0.59906100  1
  O  O18  1  0.76663000  0.30571900  0.90093900  1
  O  O19  1  0.23337000  0.19428100  0.40093900  1
  O  O20  1  0.16333500  0.35455700  0.25320300  1
  O  O21  1  0.83666500  0.14544300  0.75320300  1
  O  O22  1  0.83666500  0.64544300  0.74679700  1
  O  O23  1  0.16333500  0.85455700  0.24679700  1
  O  O24  1  0.50458300  0.43644600  0.33025700  1
  O  O25  1  0.49541700  0.06355400  0.83025700  1
  O  O26  1  0.49541700  0.56355400  0.66974300  1
  O  O27  1  0.50458300  0.93644600  0.16974300  1
  O  O28  1  0.20135800  0.37535900  0.79620300  1
  O  O29  1  0.79864200  0.12464100  0.29620300  1
  O  O30  1  0.79864200  0.62464100  0.20379700  1
  O  O31  1  0.20135800  0.87535900  0.70379700  1
loop_
_geom_bond_atom_site_label_1
_geom_bond_atom_site_label_2
_geom_bond_distance
_geom_bond_site_symmetry_2
In0 O16 2.129324 1_555
In0 O8 2.143373 1_555
In0 O4 2.183071 1_455
In0 O0 2.184682 1_554
In0 O12 2.192891 1_555
In0 O20 2.212810 1_555
In1 O17 2.129324 1_545
In1 O9 2.143373 1_555
In1 O5 2.183071 1_655
In1 O1 2.184682 1_555
In1 O13 2.192891 1_555
In1 O21 2.212810 1_555
In2 O18 2.129324 1_555
In2 O10 2.143373 1_555
In2 O6 2.183071 1_655
In2 O2 2.184682 1_556
In2 O14 2.192891 1_555
In2 O22 2.212810 1_555
In3 O19 2.129324 1_565
In3 O11 2.143373 1_555
In3 O7 2.183071 1_455
In3 O3 2.184682 1_555
In3 O15 2.192891 1_555
In3 O23 2.212810 1_555
Ag0 O7 2.373346 1_555
Ag0 O1 2.481263 1_555
Ag0 O24 2.497445 1_555
Ag0 O13 2.528269 1_555
Ag0 O15 2.759950 1_655
Ag1 O6 2.373346 1_555
Ag1 O0 2.481263 1_565
Ag1 O25 2.497445 1_565
Ag1 O12 2.528269 1_566
Ag1 O14 2.759950 1_455
Ag2 O5 2.373346 1_555
Ag2 O3 2.481263 1_555
Ag2 O26 2.497445 1_555
Ag2 O15 2.528269 1_555
Ag2 O13 2.759950 1_455
Ag3 O4 2.373346 1_555
Ag3 O2 2.481263 1_545
Ag3 O27 2.497445 1_545
Ag3 O14 2.528269 1_544
Ag3 O12 2.759950 1_655
H0 O24 0.986833 1_555
H1 O25 0.986833 1_555
H2 O26 0.986833 1_555
H3 O27 0.986833 1_555
H4 O28 0.989761 1_555
H5 O29 0.989761 1_555
H6 O30 0.989761 1_555
H7 O31 0.989761 1_555
O0 P4 1.545211 1_555
O1 P5 1.545211 1_555
O2 P6 1.545211 1_555
O3 P7 1.545211 1_555
O4 P6 1.548297 1_555
O5 P7 1.548297 1_545
O6 P4 1.548297 1_555
O7 P5 1.548297 1_565
O8 P6 1.536673 1_555
O9 P7 1.536673 1_545
O10 P4 1.536673 1_555
O11 P5 1.536673 1_565
O12 P3 1.549022 1_545
O13 P2 1.549022 1_555
O14 P1 1.549022 1_565
O15 P0 1.549022 1_555
O16 P3 1.528169 1_555
O17 P2 1.528169 1_555
O18 P1 1.528169 1_555
O19 P0 1.528169 1_555
O20 P0 1.533525 1_555
O21 P1 1.533525 1_555
O22 P2 1.533525 1_555
O23 P3 1.533525 1_555
O24 P0 1.603802 1_555
O25 P1 1.603802 1_555
O26 P2 1.603802 1_555
O27 P3 1.603802 1_555
O28 P4 1.596396 1_555
O29 P5 1.596396 1_555
O30 P6 1.596396 1_555
O31 P7 1.596396 1_555
