# generated using pymatgen
data_NpSbTe
_symmetry_space_group_name_H-M   'P 1'
_cell_length_a   4.33880711
_cell_length_b   4.33880711
_cell_length_c   9.29900576
_cell_angle_alpha   90.00000000
_cell_angle_beta   90.00000000
_cell_angle_gamma   90.00000000
_symmetry_Int_Tables_number   1
_chemical_formula_structural   NpSbTe
_chemical_formula_sum   'Np2 Sb2 Te2'
_cell_volume   175.05608157
_cell_formula_units_Z   2
loop_
 _symmetry_equiv_pos_site_id
 _symmetry_equiv_pos_as_xyz
  1  'x, y, z'
loop_
 _atom_site_type_symbol
 _atom_site_label
 _atom_site_symmetry_multiplicity
 _atom_site_fract_x
 _atom_site_fract_y
 _atom_site_fract_z
 _atom_site_occupancy
  Np  Np0  1  0.75000000  0.75000000  0.72705908  1
  Np  Np1  1  0.25000000  0.25000000  0.27294092  1
  Sb  Sb0  1  0.75000000  0.25000000  -0.00000000  1
  Sb  Sb1  1  0.25000000  0.75000000  -0.00000000  1
  Te  Te0  1  0.75000000  0.75000000  0.37106952  1
  Te  Te1  1  0.25000000  0.25000000  0.62893048  1
loop_
_geom_bond_atom_site_label_1
_geom_bond_atom_site_label_2
_geom_bond_distance
_geom_bond_site_symmetry_2
Np0 Te1 3.200824 1_555
Np0 Te1 3.200824 1_565
Np0 Te1 3.200824 1_655
Np0 Te1 3.200824 1_665
Np0 Te0 3.310349 1_555
Np0 Sb1 3.338886 1_556
Np0 Sb0 3.338886 1_556
Np0 Sb0 3.338886 1_566
Np0 Sb1 3.338886 1_656
Np1 Te0 3.200824 1_545
Np1 Te0 3.200824 1_555
Np1 Te0 3.200824 1_455
Np1 Te0 3.200824 1_445
Np1 Te1 3.310349 1_555
Np1 Sb0 3.338886 1_455
Np1 Sb0 3.338886 1_555
Np1 Sb1 3.338886 1_545
Np1 Sb1 3.338886 1_555
Sb0 Sb1 3.068000 1_655
Sb0 Sb1 3.068000 1_545
Sb0 Sb1 3.068000 1_555
Sb0 Sb1 3.068000 1_645
