# generated using pymatgen
data_Nd2Ta6O19
_symmetry_space_group_name_H-M   'P 1'
_cell_length_a   6.46310378
_cell_length_b   6.46310378
_cell_length_c   20.57772800
_cell_angle_alpha   90.00000000
_cell_angle_beta   90.00000000
_cell_angle_gamma   119.99999777
_symmetry_Int_Tables_number   1
_chemical_formula_structural   Nd2Ta6O19
_chemical_formula_sum   'Nd4 Ta12 O38'
_cell_volume   744.40678559
_cell_formula_units_Z   2
loop_
 _symmetry_equiv_pos_site_id
 _symmetry_equiv_pos_as_xyz
  1  'x, y, z'
loop_
 _atom_site_type_symbol
 _atom_site_label
 _atom_site_symmetry_multiplicity
 _atom_site_fract_x
 _atom_site_fract_y
 _atom_site_fract_z
 _atom_site_occupancy
  Nd  Nd0  1  0.66666700  0.33333300  0.00000000  1
  Nd  Nd1  1  0.33333300  0.66666700  0.00000000  1
  Nd  Nd2  1  0.33333300  0.66666700  0.50000000  1
  Nd  Nd3  1  0.66666700  0.33333300  0.50000000  1
  Ta  Ta0  1  0.65471000  0.65471000  0.84329200  1
  Ta  Ta1  1  0.34529000  0.34529000  0.15670800  1
  Ta  Ta2  1  0.00000000  0.34529000  0.84329200  1
  Ta  Ta3  1  0.34529000  0.34529000  0.34329200  1
  Ta  Ta4  1  0.00000000  0.34529000  0.65670800  1
  Ta  Ta5  1  0.00000000  0.65471000  0.15670800  1
  Ta  Ta6  1  0.65471000  0.65471000  0.65670800  1
  Ta  Ta7  1  0.00000000  0.65471000  0.34329200  1
  Ta  Ta8  1  0.34529000  0.00000000  0.84329200  1
  Ta  Ta9  1  0.65471000  0.00000000  0.15670800  1
  Ta  Ta10  1  0.65471000  0.00000000  0.34329200  1
  Ta  Ta11  1  0.34529000  0.00000000  0.65670800  1
  O  O0  1  0.59786000  0.59786000  0.75000000  1
  O  O1  1  0.40214000  0.40214000  0.25000000  1
  O  O2  1  0.00000000  0.40214000  0.75000000  1
  O  O3  1  0.00000000  0.59786000  0.25000000  1
  O  O4  1  0.40214000  0.00000000  0.75000000  1
  O  O5  1  0.59786000  0.00000000  0.25000000  1
  O  O6  1  0.66666700  0.33333300  0.84311700  1
  O  O7  1  0.33333300  0.66666700  0.15688300  1
  O  O8  1  0.33333300  0.66666700  0.34311700  1
  O  O9  1  0.33333300  0.66666700  0.65688300  1
  O  O10  1  0.66666700  0.33333300  0.65688300  1
  O  O11  1  0.66666700  0.33333300  0.34311700  1
  O  O12  1  0.66666700  0.33333300  0.15688300  1
  O  O13  1  0.33333300  0.66666700  0.84311700  1
  O  O14  1  0.76782400  0.76782400  0.34317900  1
  O  O15  1  0.23217600  0.23217600  0.65682100  1
  O  O16  1  0.00000000  0.23217600  0.34317900  1
  O  O17  1  0.23217600  0.23217600  0.84317900  1
  O  O18  1  0.00000000  0.23217600  0.15682100  1
  O  O19  1  0.00000000  0.76782400  0.65682100  1
  O  O20  1  0.76782400  0.76782400  0.15682100  1
  O  O21  1  0.00000000  0.76782400  0.84317900  1
  O  O22  1  0.23217600  0.00000000  0.34317900  1
  O  O23  1  0.76782400  0.00000000  0.65682100  1
  O  O24  1  0.76782400  0.00000000  0.84317900  1
  O  O25  1  0.23217600  0.00000000  0.15682100  1
  O  O26  1  0.59567300  0.59567300  0.93580900  1
  O  O27  1  0.40432700  0.40432700  0.06419100  1
  O  O28  1  0.00000000  0.40432700  0.93580900  1
  O  O29  1  0.40432700  0.40432700  0.43580900  1
  O  O30  1  0.00000000  0.40432700  0.56419100  1
  O  O31  1  0.00000000  0.59567300  0.06419100  1
  O  O32  1  0.59567300  0.59567300  0.56419100  1
  O  O33  1  0.00000000  0.59567300  0.43580900  1
  O  O34  1  0.40432700  0.00000000  0.93580900  1
  O  O35  1  0.59567300  0.00000000  0.06419100  1
  O  O36  1  0.59567300  0.00000000  0.43580900  1
  O  O37  1  0.40432700  0.00000000  0.56419100  1
loop_
_geom_bond_atom_site_label_1
_geom_bond_atom_site_label_2
_geom_bond_distance
_geom_bond_site_symmetry_2
Nd0 O35 2.368144 1_555
Nd0 O28 2.368144 1_654
Nd0 O31 2.368145 1_655
Nd0 O34 2.368145 1_554
Nd0 O26 2.368149 1_554
Nd0 O27 2.368149 1_555
Nd1 O31 2.368144 1_555
Nd1 O34 2.368144 1_564
Nd1 O28 2.368145 1_554
Nd1 O35 2.368145 1_565
Nd1 O26 2.368149 1_554
Nd1 O27 2.368149 1_555
Nd2 O37 2.368144 1_565
Nd2 O33 2.368144 1_555
Nd2 O30 2.368145 1_555
Nd2 O36 2.368145 1_565
Nd2 O29 2.368149 1_555
Nd2 O32 2.368149 1_555
Nd3 O30 2.368144 1_655
Nd3 O36 2.368144 1_555
Nd3 O37 2.368145 1_555
Nd3 O33 2.368145 1_655
Nd3 O29 2.368149 1_555
Nd3 O32 2.368149 1_555
O0 Ta6 1.954583 1_555
O0 Ta0 1.954583 1_555
O1 Ta3 1.954583 1_555
O1 Ta1 1.954583 1_555
O2 Ta2 1.954583 1_555
O2 Ta4 1.954583 1_555
O3 Ta7 1.954583 1_555
O3 Ta5 1.954583 1_555
O4 Ta11 1.954583 1_555
O4 Ta8 1.954583 1_555
O5 Ta10 1.954583 1_555
O5 Ta9 1.954583 1_555
O6 Ta2 2.116787 1_655
O6 Ta8 2.116791 1_555
O6 Ta0 2.116794 1_555
O7 Ta5 2.116787 1_555
O7 Ta9 2.116791 1_565
O7 Ta1 2.116794 1_555
O8 Ta7 2.116787 1_555
O8 Ta10 2.116791 1_565
O8 Ta3 2.116794 1_555
O9 Ta11 2.116787 1_565
O9 Ta4 2.116791 1_555
O9 Ta6 2.116794 1_555
O10 Ta4 2.116787 1_655
O10 Ta11 2.116791 1_555
O10 Ta6 2.116794 1_555
O11 Ta10 2.116787 1_555
O11 Ta7 2.116791 1_655
O11 Ta3 2.116794 1_555
O12 Ta9 2.116787 1_555
O12 Ta5 2.116791 1_655
O12 Ta1 2.116794 1_555
O13 Ta8 2.116787 1_565
O13 Ta2 2.116791 1_555
O13 Ta0 2.116794 1_555
O14 Ta10 1.970589 1_565
O14 Ta7 1.970589 1_655
O15 Ta11 1.970589 1_555
O15 Ta4 1.970589 1_555
O16 Ta3 1.970589 1_555
O16 Ta10 1.970589 1_455
O17 Ta8 1.970589 1_555
O17 Ta2 1.970589 1_555
O18 Ta1 1.970589 1_555
O18 Ta9 1.970589 1_455
O19 Ta6 1.970589 1_455
O19 Ta11 1.970589 1_565
O20 Ta5 1.970589 1_655
O20 Ta9 1.970589 1_565
O21 Ta0 1.970589 1_455
O21 Ta8 1.970589 1_565
O22 Ta3 1.970589 1_555
O22 Ta7 1.970589 1_545
O23 Ta6 1.970589 1_545
O23 Ta4 1.970589 1_655
O24 Ta0 1.970589 1_545
O24 Ta2 1.970589 1_655
O25 Ta1 1.970589 1_555
O25 Ta5 1.970589 1_545
O26 Ta0 1.941650 1_555
O27 Ta1 1.941650 1_555
O28 Ta2 1.941650 1_555
O29 Ta3 1.941650 1_555
O30 Ta4 1.941650 1_555
O31 Ta5 1.941650 1_555
O32 Ta6 1.941650 1_555
O33 Ta7 1.941650 1_555
O34 Ta8 1.941650 1_555
O35 Ta9 1.941650 1_555
O36 Ta10 1.941650 1_555
O37 Ta11 1.941650 1_555
