# generated using pymatgen
data_CaCd2Pd
_symmetry_space_group_name_H-M   'P 1'
_cell_length_a   5.55354028
_cell_length_b   8.03224592
_cell_length_c   8.07232418
_cell_angle_alpha   90.00000000
_cell_angle_beta   90.00000000
_cell_angle_gamma   90.00000000
_symmetry_Int_Tables_number   1
_chemical_formula_structural   CaCd2Pd
_chemical_formula_sum   'Ca4 Cd8 Pd4'
_cell_volume   360.08540376
_cell_formula_units_Z   4
loop_
 _symmetry_equiv_pos_site_id
 _symmetry_equiv_pos_as_xyz
  1  'x, y, z'
loop_
 _atom_site_type_symbol
 _atom_site_label
 _atom_site_symmetry_multiplicity
 _atom_site_fract_x
 _atom_site_fract_y
 _atom_site_fract_z
 _atom_site_occupancy
  Ca  Ca0  1  0.39895902  0.53484603  0.25000000  1
  Ca  Ca1  1  0.10104098  0.03484603  0.25000000  1
  Ca  Ca2  1  0.60104098  0.46515397  0.75000000  1
  Ca  Ca3  1  0.89895902  0.96515397  0.75000000  1
  Cd  Cd0  1  0.90481138  0.67284392  0.05513731  1
  Cd  Cd1  1  0.59518862  0.17284392  0.44486269  1
  Cd  Cd2  1  0.09518862  0.32715608  0.55513731  1
  Cd  Cd3  1  0.40481138  0.82715608  0.94486269  1
  Cd  Cd4  1  0.09518862  0.32715608  0.94486269  1
  Cd  Cd5  1  0.40481138  0.82715608  0.55513731  1
  Cd  Cd6  1  0.90481138  0.67284392  0.44486269  1
  Cd  Cd7  1  0.59518862  0.17284392  0.05513731  1
  Pd  Pd0  1  0.61924995  0.88000035  0.25000000  1
  Pd  Pd1  1  0.88075005  0.38000035  0.25000000  1
  Pd  Pd2  1  0.38075005  0.11999965  0.75000000  1
  Pd  Pd3  1  0.11924995  0.61999965  0.75000000  1
loop_
_geom_bond_atom_site_label_1
_geom_bond_atom_site_label_2
_geom_bond_distance
_geom_bond_site_symmetry_2
Ca0 Pd1 2.950596 1_555
Ca0 Pd0 3.030297 1_555
Ca0 Pd1 3.135157 1_455
Ca0 Cd6 3.351708 1_455
Ca0 Cd0 3.351708 1_455
Ca0 Cd3 3.403074 1_554
Ca0 Cd5 3.403074 1_555
Ca0 Cd0 3.405135 1_555
Ca0 Cd6 3.405135 1_555
Ca0 Cd2 3.419958 1_555
Ca0 Cd4 3.419958 1_554
Ca0 Cd1 3.480886 1_555
Ca0 Cd7 3.480886 1_555
Ca1 Pd0 2.950596 1_445
Ca1 Pd1 3.030297 1_455
Ca1 Pd0 3.135157 1_545
Ca1 Cd7 3.351708 1_555
Ca1 Cd1 3.351708 1_555
Ca1 Cd2 3.403074 1_555
Ca1 Cd4 3.403074 1_554
Ca1 Cd7 3.405135 1_455
Ca1 Cd1 3.405135 1_455
Ca1 Cd5 3.419958 1_545
Ca1 Cd3 3.419958 1_544
Ca1 Cd6 3.480886 1_445
Ca1 Cd0 3.480886 1_445
Ca2 Pd3 2.950596 1_555
Ca2 Pd2 3.030297 1_555
Ca2 Pd3 3.135157 1_655
Ca2 Cd2 3.351708 1_655
Ca2 Cd4 3.351708 1_655
Ca2 Cd1 3.403074 1_555
Ca2 Cd7 3.403074 1_556
Ca2 Cd4 3.405135 1_555
Ca2 Cd2 3.405135 1_555
Ca2 Cd6 3.419958 1_555
Ca2 Cd0 3.419958 1_556
Ca2 Cd3 3.480886 1_555
Ca2 Cd5 3.480886 1_555
Ca3 Pd2 2.950596 1_665
Ca3 Pd3 3.030297 1_655
Ca3 Pd2 3.135157 1_565
Ca3 Cd5 3.351708 1_555
Ca3 Cd3 3.351708 1_555
Ca3 Cd6 3.403074 1_555
Ca3 Cd0 3.403074 1_556
Ca3 Cd5 3.405135 1_655
Ca3 Cd3 3.405135 1_655
Ca3 Cd1 3.419958 1_565
Ca3 Cd7 3.419958 1_566
Ca3 Cd4 3.480886 1_665
Ca3 Cd2 3.480886 1_665
Cd0 Pd3 2.768679 1_654
Cd0 Pd0 2.785316 1_555
Cd0 Pd1 2.832838 1_555
Cd1 Pd2 2.768679 1_555
Cd1 Pd1 2.785316 1_555
Cd1 Pd0 2.832838 1_545
Cd2 Pd1 2.768679 1_455
Cd2 Pd2 2.785316 1_555
Cd2 Pd3 2.832838 1_555
Cd3 Pd0 2.768679 1_556
Cd3 Pd3 2.785316 1_555
Cd3 Pd2 2.832838 1_565
Cd4 Pd1 2.768679 1_456
Cd4 Pd2 2.785316 1_555
Cd4 Pd3 2.832838 1_555
Cd5 Pd0 2.768679 1_555
Cd5 Pd3 2.785316 1_555
Cd5 Pd2 2.832838 1_565
Cd6 Pd3 2.768679 1_655
Cd6 Pd0 2.785316 1_555
Cd6 Pd1 2.832838 1_555
Cd7 Pd2 2.768679 1_554
Cd7 Pd1 2.785316 1_555
Cd7 Pd0 2.832838 1_545
