# generated using pymatgen
data_MoPRu
_symmetry_space_group_name_H-M   'P 1'
_cell_length_a   3.85743999
_cell_length_b   6.01326427
_cell_length_c   6.01315085
_cell_angle_alpha   120.00048896
_cell_angle_beta   89.99999994
_cell_angle_gamma   89.99999831
_symmetry_Int_Tables_number   1
_chemical_formula_structural   MoPRu
_chemical_formula_sum   'Mo3 P3 Ru3'
_cell_volume   120.79252511
_cell_formula_units_Z   3
loop_
 _symmetry_equiv_pos_site_id
 _symmetry_equiv_pos_as_xyz
  1  'x, y, z'
loop_
 _atom_site_type_symbol
 _atom_site_label
 _atom_site_symmetry_multiplicity
 _atom_site_fract_x
 _atom_site_fract_y
 _atom_site_fract_z
 _atom_site_occupancy
  Mo  Mo0  1  0.49999998  0.59405493  0.99999907  1
  Mo  Mo1  1  0.50000000  0.40592649  0.40593097  1
  Mo  Mo2  1  0.50000001  0.99999461  0.59406789  1
  P  P0  1  -0.00000002  0.33332591  0.66666900  1
  P  P1  1  -0.00000000  0.66665320  0.33332997  1
  P  P2  1  0.50000000  0.99999405  0.00000220  1
  Ru  Ru0  1  0.00000002  0.26156084  0.00000390  1
  Ru  Ru1  1  0.00000000  0.73840691  0.73842575  1
  Ru  Ru2  1  -0.00000000  0.99998506  0.26157126  1
loop_
_geom_bond_atom_site_label_1
_geom_bond_atom_site_label_2
_geom_bond_distance
_geom_bond_site_symmetry_2
Mo0 P2 2.441010 1_556
Mo0 P0 2.655745 1_655
Mo0 P0 2.655745 1_555
Mo0 P1 2.655750 1_556
Mo0 P1 2.655750 1_656
Mo0 Ru0 2.778042 1_556
Mo0 Ru0 2.778042 1_656
Mo0 Ru1 2.883176 1_555
Mo0 Ru1 2.883176 1_655
Mo0 Ru2 2.883195 1_556
Mo0 Ru2 2.883196 1_656
Mo1 P2 2.440927 1_545
Mo1 P1 2.655760 1_555
Mo1 P1 2.655760 1_655
Mo1 P0 2.655788 1_655
Mo1 P0 2.655788 1_555
Mo1 Ru1 2.777979 1_555
Mo1 Ru1 2.777980 1_655
Mo1 Ru0 2.883153 1_555
Mo1 Ru0 2.883153 1_655
Mo1 Ru2 2.883251 1_645
Mo1 Ru2 2.883252 1_545
Mo2 P2 2.440946 1_556
Mo2 P0 2.655775 1_665
Mo2 P0 2.655775 1_565
Mo2 P1 2.655799 1_655
Mo2 P1 2.655799 1_555
Mo2 Ru2 2.777995 1_655
Mo2 Ru2 2.777995 1_555
Mo2 Ru0 2.883189 1_566
Mo2 Ru0 2.883189 1_666
Mo2 Ru1 2.883268 1_655
Mo2 Ru1 2.883268 1_555
P0 Ru1 2.251341 1_555
P0 Ru2 2.251396 1_545
P0 Ru0 2.251403 1_556
P1 Ru0 2.251360 1_555
P1 Ru1 2.251387 1_555
P1 Ru2 2.251392 1_555
P2 Ru0 2.488748 1_565
P2 Ru0 2.488748 1_665
P2 Ru2 2.488758 1_555
P2 Ru2 2.488758 1_655
P2 Ru1 2.488791 1_654
P2 Ru1 2.488791 1_554
Ru0 Ru2 2.724322 1_545
Ru0 Ru1 2.724384 1_544
Ru1 Ru2 2.724288 1_556
