# generated using pymatgen
data_Ca(Sn2O3)2
_symmetry_space_group_name_H-M   'P 1'
_cell_length_a   5.74170540
_cell_length_b   5.74170540
_cell_length_c   17.65925900
_cell_angle_alpha   90.00000000
_cell_angle_beta   90.00000000
_cell_angle_gamma   145.56351036
_symmetry_Int_Tables_number   1
_chemical_formula_structural   Ca(Sn2O3)2
_chemical_formula_sum   'Ca2 Sn8 O12'
_cell_volume   329.21608097
_cell_formula_units_Z   2
loop_
 _symmetry_equiv_pos_site_id
 _symmetry_equiv_pos_as_xyz
  1  'x, y, z'
loop_
 _atom_site_type_symbol
 _atom_site_label
 _atom_site_symmetry_multiplicity
 _atom_site_fract_x
 _atom_site_fract_y
 _atom_site_fract_z
 _atom_site_occupancy
  Ca  Ca0  1  0.32269300  0.67730700  0.75000000  1
  Ca  Ca1  1  0.67730700  0.32269300  0.25000000  1
  Sn  Sn0  1  0.14314600  0.85685400  0.05368100  1
  Sn  Sn1  1  0.59569000  0.40431000  0.64017800  1
  Sn  Sn2  1  0.85685400  0.14314600  0.94631900  1
  Sn  Sn3  1  0.40431000  0.59569000  0.35982200  1
  Sn  Sn4  1  0.14314600  0.85685400  0.44631900  1
  Sn  Sn5  1  0.85685400  0.14314600  0.55368100  1
  Sn  Sn6  1  0.40431000  0.59569000  0.14017800  1
  Sn  Sn7  1  0.59569000  0.40431000  0.85982200  1
  O  O0  1  0.50000000  0.50000000  0.50000000  1
  O  O1  1  0.50000000  0.50000000  0.00000000  1
  O  O2  1  0.95587000  0.04413000  0.83730400  1
  O  O3  1  0.04413000  0.95587000  0.16269600  1
  O  O4  1  0.04413000  0.95587000  0.33730400  1
  O  O5  1  0.95587000  0.04413000  0.66269600  1
  O  O6  1  0.23181400  0.76818600  0.87307200  1
  O  O7  1  0.76818600  0.23181400  0.12692800  1
  O  O8  1  0.76818600  0.23181400  0.37307200  1
  O  O9  1  0.23181400  0.76818600  0.62692800  1
  O  O10  1  0.66561400  0.33438600  0.75000000  1
  O  O11  1  0.33438600  0.66561400  0.25000000  1
loop_
_geom_bond_atom_site_label_1
_geom_bond_atom_site_label_2
_geom_bond_distance
_geom_bond_site_symmetry_2
Ca0 O6 2.391060 1_555
Ca0 O9 2.391060 1_555
Ca0 O10 2.420185 1_565
Ca0 O10 2.420185 1_455
Ca0 O2 2.720203 1_455
Ca0 O2 2.720203 1_565
Ca0 O5 2.720203 1_455
Ca0 O5 2.720203 1_565
Ca1 O8 2.391060 1_555
Ca1 O7 2.391060 1_555
Ca1 O11 2.420185 1_655
Ca1 O11 2.420185 1_545
Ca1 O4 2.720203 1_545
Ca1 O4 2.720203 1_655
Ca1 O3 2.720203 1_545
Ca1 O3 2.720203 1_655
O0 Sn5 2.500532 1_455
O0 Sn5 2.500532 1_565
O0 Sn4 2.500532 1_655
O0 Sn4 2.500532 1_545
O0 Sn3 2.688766 1_555
O0 Sn1 2.688766 1_555
O1 Sn0 2.500532 1_545
O1 Sn0 2.500532 1_655
O1 Sn2 2.500532 1_454
O1 Sn2 2.500532 1_564
O1 Sn6 2.688766 1_555
O1 Sn7 2.688766 1_554
O2 Sn2 2.210358 1_555
O2 Sn7 2.323556 1_655
O2 Sn7 2.323556 1_545
O3 Sn0 2.210358 1_555
O3 Sn6 2.323556 1_565
O3 Sn6 2.323556 1_455
O4 Sn4 2.210358 1_555
O4 Sn3 2.323556 1_565
O4 Sn3 2.323556 1_455
O5 Sn5 2.210358 1_555
O5 Sn1 2.323556 1_545
O5 Sn1 2.323556 1_655
O6 Sn7 2.274385 1_455
O6 Sn7 2.274385 1_565
O6 Sn2 2.538289 1_455
O6 Sn2 2.538289 1_565
O7 Sn6 2.274385 1_545
O7 Sn6 2.274385 1_655
O7 Sn0 2.538289 1_545
O7 Sn0 2.538289 1_655
O8 Sn3 2.274385 1_545
O8 Sn3 2.274385 1_655
O8 Sn4 2.538289 1_545
O8 Sn4 2.538289 1_655
O9 Sn1 2.274385 1_455
O9 Sn1 2.274385 1_565
O9 Sn5 2.538289 1_455
O9 Sn5 2.538289 1_565
O10 Sn7 2.085530 1_555
O10 Sn1 2.085530 1_555
O11 Sn3 2.085530 1_555
O11 Sn6 2.085530 1_555
