# generated using pymatgen
data_Te2MoWSeS
_symmetry_space_group_name_H-M   'P 1'
_cell_length_a   3.39900999
_cell_length_b   3.39900999
_cell_length_c   38.74635100
_cell_angle_alpha   90.00000000
_cell_angle_beta   90.00000000
_cell_angle_gamma   119.99999987
_symmetry_Int_Tables_number   1
_chemical_formula_structural   Te2MoWSeS
_chemical_formula_sum   'Te4 Mo2 W2 Se2 S2'
_cell_volume   387.67368599
_cell_formula_units_Z   2
loop_
 _symmetry_equiv_pos_site_id
 _symmetry_equiv_pos_as_xyz
  1  'x, y, z'
loop_
 _atom_site_type_symbol
 _atom_site_label
 _atom_site_symmetry_multiplicity
 _atom_site_fract_x
 _atom_site_fract_y
 _atom_site_fract_z
 _atom_site_occupancy
  Te  Te0  1  0.00000000  0.00000000  0.33006100  1
  Te  Te1  1  0.00000000  0.00000000  0.70613900  1
  Te  Te2  1  0.00000000  0.00000000  0.23344700  1
  Te  Te3  1  0.00000000  0.00000000  0.60894700  1
  Mo  Mo0  1  0.00000000  0.00000000  0.09398000  1
  Mo  Mo1  1  0.33333300  0.66666700  0.28180800  1
  W  W0  1  0.00000000  0.00000000  0.46963600  1
  W  W1  1  0.33333300  0.66666700  0.65754000  1
  Se  Se0  1  0.33333300  0.66666700  0.42694300  1
  Se  Se1  1  0.33333300  0.66666700  0.51237000  1
  S  S0  1  0.33333300  0.66666700  0.05514800  1
  S  S1  1  0.33333300  0.66666700  0.13272900  1
loop_
_geom_bond_atom_site_label_1
_geom_bond_atom_site_label_2
_geom_bond_distance
_geom_bond_site_symmetry_2
Te1 W1 2.719724 1_545
Te1 W1 2.719726 1_445
Te1 W1 2.719726 1_555
Te3 W1 2.719563 1_545
Te3 W1 2.719565 1_555
Te3 W1 2.719565 1_445
Mo0 S1 2.470877 1_545
Mo0 S1 2.470879 1_445
Mo0 S1 2.470879 1_555
Mo0 S0 2.472832 1_545
Mo0 S0 2.472834 1_555
Mo0 S0 2.472834 1_445
Mo1 Te0 2.710459 1_565
Mo1 Te0 2.710461 1_665
Mo1 Te0 2.710461 1_555
Mo1 Te2 2.713347 1_565
Mo1 Te2 2.713350 1_555
Mo1 Te2 2.713350 1_665
Se0 W0 2.566603 1_565
Se0 W0 2.566606 1_665
Se0 W0 2.566606 1_555
Se1 W0 2.567628 1_565
Se1 W0 2.567630 1_665
Se1 W0 2.567630 1_555
