# generated using pymatgen
data_Y3Mg2MoS8
_symmetry_space_group_name_H-M   'P 1'
_cell_length_a   7.83836780
_cell_length_b   7.71401683
_cell_length_c   7.83841900
_cell_angle_alpha   59.46553212
_cell_angle_beta   59.99855798
_cell_angle_gamma   59.46530586
_symmetry_Int_Tables_number   1
_chemical_formula_structural   Y3Mg2MoS8
_chemical_formula_sum   'Y3 Mg2 Mo1 S8'
_cell_volume   332.39783725
_cell_formula_units_Z   1
loop_
 _symmetry_equiv_pos_site_id
 _symmetry_equiv_pos_as_xyz
  1  'x, y, z'
loop_
 _atom_site_type_symbol
 _atom_site_label
 _atom_site_symmetry_multiplicity
 _atom_site_fract_x
 _atom_site_fract_y
 _atom_site_fract_z
 _atom_site_occupancy
  Y  Y0  1  0.49999900  0.50002300  0.49997900  1
  Y  Y1  1  0.50000000  0.49998800  0.00000200  1
  Y  Y2  1  0.00000400  0.49998800  0.50001200  1
  Mg  Mg0  1  0.87466800  0.87597900  0.87468100  1
  Mg  Mg1  1  0.12532900  0.12403200  0.12531700  1
  Mo  Mo0  1  0.50000100  0.99999600  0.50000600  1
  S  S0  1  0.73395300  0.76419600  0.73396200  1
  S  S1  1  0.26604400  0.23581000  0.73210800  1
  S  S2  1  0.25487700  0.73536000  0.25487700  1
  S  S3  1  0.73211400  0.23580600  0.26603500  1
  S  S4  1  0.74511000  0.26464300  0.74510900  1
  S  S5  1  0.26788500  0.76419200  0.73396700  1
  S  S6  1  0.26604600  0.23578400  0.26605600  1
  S  S7  1  0.73397400  0.76419800  0.26789000  1
loop_
_geom_bond_atom_site_label_1
_geom_bond_atom_site_label_2
_geom_bond_distance
_geom_bond_site_symmetry_2
Mg0 S4 2.428030 1_565
Mg0 S7 2.515133 1_556
Mg0 S5 2.515161 1_655
Mg0 S0 2.515209 1_555
Mg1 S2 2.428080 1_545
Mg1 S1 2.515135 1_554
Mg1 S3 2.515154 1_455
Mg1 S6 2.515164 1_555
Mo0 S7 2.572645 1_555
Mo0 S1 2.572654 1_565
Mo0 S6 2.572662 1_565
Mo0 S0 2.572677 1_555
Mo0 S5 2.572678 1_555
Mo0 S3 2.572693 1_565
S0 Y2 2.742286 1_655
S0 Y1 2.742300 1_556
S1 Y2 2.742232 1_555
S1 Y0 2.742339 1_555
S2 Y0 2.698447 1_555
S2 Y2 2.698482 1_555
S2 Y1 2.698494 1_555
S3 Y1 2.742290 1_555
S3 Y0 2.742305 1_555
S4 Y1 2.698454 1_556
S4 Y2 2.698459 1_655
S4 Y0 2.698527 1_555
S5 Y0 2.742276 1_555
S5 Y1 2.742309 1_556
S6 Y1 2.742289 1_555
S6 Y2 2.742292 1_555
S7 Y0 2.742247 1_555
S7 Y2 2.742316 1_655
