# generated using pymatgen
data_LiMg14Ga
_symmetry_space_group_name_H-M   'P 1'
_cell_length_a   6.28922821
_cell_length_b   6.28922772
_cell_length_c   10.35841214
_cell_angle_alpha   90.00000000
_cell_angle_beta   90.00000000
_cell_angle_gamma   120.00000264
_symmetry_Int_Tables_number   1
_chemical_formula_structural   LiMg14Ga
_chemical_formula_sum   'Li1 Mg14 Ga1'
_cell_volume   354.82848788
_cell_formula_units_Z   1
loop_
 _symmetry_equiv_pos_site_id
 _symmetry_equiv_pos_as_xyz
  1  'x, y, z'
loop_
 _atom_site_type_symbol
 _atom_site_label
 _atom_site_symmetry_multiplicity
 _atom_site_fract_x
 _atom_site_fract_y
 _atom_site_fract_z
 _atom_site_occupancy
  Li  Li0  1  0.16666700  0.33333300  0.12500000  1
  Mg  Mg0  1  0.16700131  0.83350016  0.12500000  1
  Mg  Mg1  1  0.16627842  0.83313871  0.62500000  1
  Mg  Mg2  1  0.66649984  0.33299869  0.12500000  1
  Mg  Mg3  1  0.66686129  0.33372158  0.62500000  1
  Mg  Mg4  1  0.66649984  0.83350016  0.12500000  1
  Mg  Mg5  1  0.66686129  0.83313871  0.62500000  1
  Mg  Mg6  1  0.33236484  0.16763516  0.37547415  1
  Mg  Mg7  1  0.33236484  0.16763516  0.87452585  1
  Mg  Mg8  1  0.33236484  0.66473067  0.37547415  1
  Mg  Mg9  1  0.33236484  0.66473067  0.87452585  1
  Mg  Mg10  1  0.83526933  0.16763516  0.37547415  1
  Mg  Mg11  1  0.83526933  0.16763516  0.87452585  1
  Mg  Mg12  1  0.83333300  0.66666700  0.37434300  1
  Mg  Mg13  1  0.83333300  0.66666700  0.87565700  1
  Ga  Ga0  1  0.16666700  0.33333300  0.62500000  1
loop_
_geom_bond_atom_site_label_1
_geom_bond_atom_site_label_2
_geom_bond_distance
_geom_bond_site_symmetry_2
Li0 Mg0 3.144614 1_545
Li0 Mg4 3.144614 1_555
Li0 Mg4 3.144614 1_445
Li0 Mg0 3.144614 1_555
Li0 Mg2 3.144615 1_555
Li0 Mg2 3.144615 1_455
Li0 Mg7 3.160616 1_554
Li0 Mg6 3.160616 1_555
Li0 Mg9 3.160622 1_554
Li0 Mg8 3.160622 1_555
Li0 Mg11 3.160622 1_454
Li0 Mg10 3.160622 1_455
Mg0 Mg2 3.141460 1_565
Mg0 Mg4 3.141460 1_555
Mg0 Mg2 3.147768 1_455
Mg0 Mg4 3.147768 1_455
Mg0 Mg12 3.158112 1_455
Mg0 Mg13 3.158112 1_454
Mg0 Mg9 3.169172 1_554
Mg0 Mg8 3.169172 1_555
Mg0 Mg7 3.169179 1_564
Mg0 Mg6 3.169179 1_565
Mg1 Mg3 3.140948 1_455
Mg1 Mg5 3.140948 1_455
Mg1 Mg3 3.148280 1_565
Mg1 Mg5 3.148280 1_555
Mg1 Mg8 3.162260 1_555
Mg1 Mg9 3.162260 1_555
Mg1 Mg6 3.162266 1_565
Mg1 Mg7 3.162266 1_565
Mg1 Mg12 3.166997 1_455
Mg1 Mg13 3.166997 1_455
Mg2 Mg4 3.141460 1_545
Mg2 Mg4 3.147768 1_555
Mg2 Mg7 3.169179 1_554
Mg2 Mg6 3.169179 1_555
Mg3 Mg5 3.140948 1_555
Mg3 Mg5 3.148280 1_545
Mg3 Mg6 3.162266 1_555
Mg3 Mg7 3.162266 1_555
Mg4 Mg9 3.169179 1_554
Mg4 Mg8 3.169179 1_555
Mg5 Mg8 3.162266 1_555
Mg5 Mg9 3.162266 1_555
Mg6 Mg8 3.126347 1_555
Mg6 Mg8 3.162881 1_545
Mg7 Mg9 3.126347 1_555
Mg7 Mg9 3.162881 1_545
Mg10 Mg8 3.126347 1_655
Mg10 Mg6 3.126347 1_655
Mg10 Mg12 3.144653 1_545
Mg10 Mg12 3.144653 1_555
Mg10 Mg3 3.162260 1_555
Mg10 Mg5 3.162266 1_545
Mg10 Mg8 3.162881 1_545
Mg10 Mg6 3.162881 1_555
Mg10 Mg2 3.169172 1_555
Mg10 Mg4 3.169178 1_545
Mg11 Mg9 3.126347 1_655
Mg11 Mg7 3.126347 1_655
Mg11 Mg13 3.144653 1_545
Mg11 Mg13 3.144653 1_555
Mg11 Mg3 3.162260 1_555
Mg11 Mg5 3.162266 1_545
Mg11 Mg9 3.162881 1_545
Mg11 Mg7 3.162881 1_555
Mg11 Mg2 3.169172 1_556
Mg11 Mg4 3.169178 1_546
Mg12 Mg6 3.144653 1_665
Mg12 Mg6 3.144653 1_555
Mg12 Mg8 3.144654 1_555
Mg12 Mg8 3.144654 1_655
Mg12 Mg4 3.158106 1_555
Mg12 Mg2 3.158112 1_555
Mg12 Mg5 3.166991 1_555
Mg12 Mg3 3.166997 1_555
Mg13 Mg7 3.144653 1_665
Mg13 Mg7 3.144653 1_555
Mg13 Mg9 3.144654 1_555
Mg13 Mg9 3.144654 1_655
Mg13 Mg4 3.158106 1_556
Mg13 Mg2 3.158112 1_556
Mg13 Mg5 3.166991 1_555
Mg13 Mg3 3.166997 1_555
Ga0 Mg5 3.144615 1_445
Ga0 Mg5 3.144615 1_555
Ga0 Mg1 3.144615 1_545
Ga0 Mg1 3.144615 1_555
Ga0 Mg3 3.144615 1_555
Ga0 Mg3 3.144615 1_455
Ga0 Mg6 3.152558 1_555
Ga0 Mg7 3.152558 1_555
Ga0 Mg8 3.152564 1_555
Ga0 Mg9 3.152564 1_555
Ga0 Mg10 3.152564 1_455
Ga0 Mg11 3.152564 1_455
