# generated using pymatgen
data_Li9Mn2Co5O16
_symmetry_space_group_name_H-M   'P 1'
_cell_length_a   10.59826190
_cell_length_b   10.59826190
_cell_length_c   9.89078886
_cell_angle_alpha   72.39803442
_cell_angle_beta   72.39803442
_cell_angle_gamma   15.87492688
_symmetry_Int_Tables_number   1
_chemical_formula_structural   Li9Mn2Co5O16
_chemical_formula_sum   'Li9 Mn2 Co5 O16'
_cell_volume   289.37976637
_cell_formula_units_Z   1
loop_
 _symmetry_equiv_pos_site_id
 _symmetry_equiv_pos_as_xyz
  1  'x, y, z'
loop_
 _atom_site_type_symbol
 _atom_site_label
 _atom_site_symmetry_multiplicity
 _atom_site_fract_x
 _atom_site_fract_y
 _atom_site_fract_z
 _atom_site_occupancy
  Li  Li0  1  0.43703000  0.43703000  0.81387700  1
  Li  Li1  1  0.30685900  0.30685900  0.42862700  1
  Li  Li2  1  0.19303300  0.19303300  0.07375700  1
  Li  Li3  1  0.80856400  0.80856400  0.94727900  1
  Li  Li4  1  0.68655300  0.68655300  0.55537400  1
  Li  Li5  1  0.56469300  0.56469300  0.19281800  1
  Li  Li6  1  0.06663100  0.06663100  0.67922200  1
  Li  Li7  1  0.93681700  0.93681700  0.30959600  1
  Li  Li8  1  0.74992600  0.74992600  0.25101800  1
  Mn  Mn0  1  0.99966000  0.99966000  0.00082600  1
  Mn  Mn1  1  0.87486700  0.87486700  0.62488100  1
  Co  Co0  1  0.62854000  0.62854000  0.87617600  1
  Co  Co1  1  0.50603600  0.50603600  0.49479100  1
  Co  Co2  1  0.36500000  0.36500000  0.12979200  1
  Co  Co3  1  0.24635300  0.24635300  0.75106300  1
  Co  Co4  1  0.13516100  0.13516100  0.36751600  1
  O  O0  1  0.52815300  0.52815300  0.86156900  1
  O  O1  1  0.40358600  0.40358600  0.48845000  1
  O  O2  1  0.28775700  0.28775700  0.08933000  1
  O  O3  1  0.91175100  0.91175100  0.98079400  1
  O  O4  1  0.78470900  0.78470900  0.60630400  1
  O  O5  1  0.65342400  0.65342400  0.22820800  1
  O  O6  1  0.15500500  0.15500500  0.72866500  1
  O  O7  1  0.02755400  0.02755400  0.35363900  1
  O  O8  1  0.34648700  0.34648700  0.76197800  1
  O  O9  1  0.21275900  0.21275900  0.40938000  1
  O  O10  1  0.09017300  0.09017300  0.01743000  1
  O  O11  1  0.71940400  0.71940400  0.89898900  1
  O  O12  1  0.58896500  0.58896500  0.52696800  1
  O  O13  1  0.47325800  0.47325800  0.13551800  1
  O  O14  1  0.96252900  0.96252900  0.64693200  1
  O  O15  1  0.84876300  0.84876300  0.26923300  1
loop_
_geom_bond_atom_site_label_1
_geom_bond_atom_site_label_2
_geom_bond_distance
_geom_bond_site_symmetry_2
Li0 O0 2.105485 1_555
Li0 O8 2.114808 1_555
Li0 O3 2.148060 1_545
Li0 O3 2.148060 1_455
Li0 O14 2.148313 1_545
Li0 O14 2.148313 1_455
Li1 O9 2.041672 1_555
Li1 O15 2.134097 1_455
Li1 O15 2.134097 1_545
Li1 O4 2.224295 1_455
Li1 O4 2.224295 1_545
Li1 O1 2.281949 1_555
Li2 O2 2.040890 1_555
Li2 O5 2.095559 1_455
Li2 O5 2.095559 1_545
Li2 O11 2.202744 1_544
Li2 O11 2.202744 1_454
Li2 O10 2.389136 1_555
Li3 O2 1.982924 1_566
Li3 O2 1.982924 1_656
Li3 O11 2.068237 1_555
Li3 O3 2.289331 1_555
Li3 O8 2.289934 1_655
Li3 O8 2.289934 1_565
Li4 O9 2.011123 1_655
Li4 O9 2.011123 1_565
Li4 O12 2.151195 1_555
Li4 O6 2.196617 1_655
Li4 O6 2.196617 1_565
Li4 O4 2.265796 1_555
Li5 O5 1.997650 1_555
Li5 O7 2.126655 1_655
Li5 O7 2.126655 1_565
Li5 O13 2.161050 1_555
Li5 O10 2.206967 1_565
Li5 O10 2.206967 1_655
Li6 O12 2.048995 1_545
Li6 O12 2.048995 1_455
Li6 O6 2.057969 1_555
Li6 O0 2.271038 1_545
Li6 O0 2.271038 1_455
Li6 O14 2.303141 1_445
Li7 O15 2.006787 1_555
Li7 O7 2.079680 1_665
Li7 O13 2.210732 1_565
Li7 O13 2.210732 1_655
Li7 O1 2.237051 1_655
Li7 O1 2.237051 1_565
Li8 O5 2.105782 1_555
Li8 O9 2.111354 1_655
Li8 O9 2.111354 1_565
Li8 O2 2.134154 1_655
Li8 O2 2.134154 1_565
Li8 O15 2.136835 1_555
Mn0 O3 1.915324 1_554
Mn0 O13 1.942429 1_655
Mn0 O13 1.942429 1_565
Mn0 O10 1.956583 1_665
Mn0 O0 1.973260 1_564
Mn0 O0 1.973260 1_654
Mn1 O14 1.918197 1_555
Mn1 O4 1.956667 1_555
Mn1 O1 1.956920 1_655
Mn1 O1 1.956920 1_565
Mn1 O8 1.960177 1_565
Mn1 O8 1.960177 1_655
Co0 O11 1.988087 1_555
Co0 O10 2.013814 1_566
Co0 O10 2.013814 1_656
Co0 O6 2.020965 1_565
Co0 O6 2.020965 1_655
Co0 O0 2.155975 1_555
Co1 O12 1.862954 1_555
Co1 O7 1.977370 1_655
Co1 O7 1.977370 1_565
Co1 O14 2.097922 1_455
Co1 O14 2.097922 1_545
Co1 O1 2.170750 1_555
Co2 O2 1.784946 1_555
Co2 O15 1.968043 1_455
Co2 O15 1.968043 1_545
Co2 O3 2.096135 1_454
Co2 O3 2.096135 1_544
Co2 O13 2.290636 1_555
Co3 O6 1.996526 1_555
Co3 O11 2.024159 1_455
Co3 O11 2.024159 1_545
Co3 O4 2.033788 1_455
Co3 O4 2.033788 1_545
Co3 O8 2.137594 1_555
Co4 O9 1.799212 1_555
Co4 O5 1.965924 1_455
Co4 O5 1.965924 1_545
Co4 O12 2.153078 1_545
Co4 O12 2.153078 1_455
Co4 O7 2.304659 1_555
