# generated using pymatgen
data_BaLiP
_symmetry_space_group_name_H-M   'P 1'
_cell_length_a   4.52361713
_cell_length_b   4.52361826
_cell_length_c   8.75238429
_cell_angle_alpha   90.00000000
_cell_angle_beta   90.00000000
_cell_angle_gamma   119.99999939
_symmetry_Int_Tables_number   1
_chemical_formula_structural   BaLiP
_chemical_formula_sum   'Ba2 Li2 P2'
_cell_volume   155.10607242
_cell_formula_units_Z   2
loop_
 _symmetry_equiv_pos_site_id
 _symmetry_equiv_pos_as_xyz
  1  'x, y, z'
loop_
 _atom_site_type_symbol
 _atom_site_label
 _atom_site_symmetry_multiplicity
 _atom_site_fract_x
 _atom_site_fract_y
 _atom_site_fract_z
 _atom_site_occupancy
  Ba  Ba0  1  -0.00000000  -0.00000000  0.00000000  1
  Ba  Ba1  1  -0.00000000  -0.00000000  0.50000000  1
  Li  Li0  1  0.33333300  0.66666700  0.25000000  1
  Li  Li1  1  0.66666700  0.33333300  0.75000000  1
  P  P0  1  0.33333300  0.66666700  0.75000000  1
  P  P1  1  0.66666700  0.33333300  0.25000000  1
loop_
_geom_bond_atom_site_label_1
_geom_bond_atom_site_label_2
_geom_bond_distance
_geom_bond_site_symmetry_2
Ba0 P1 3.407167 1_455
Ba0 Li0 3.407167 1_545
Ba0 P0 3.407167 1_544
Ba0 Li1 3.407167 1_454
Ba0 Li1 3.407170 1_554
Ba0 P1 3.407170 1_555
Ba0 Li0 3.407170 1_445
Ba0 P0 3.407170 1_444
Ba0 P0 3.407171 1_554
Ba0 P1 3.407171 1_445
Ba0 Li0 3.407171 1_555
Ba0 Li1 3.407171 1_444
Ba1 P1 3.407167 1_455
Ba1 Li0 3.407167 1_545
Ba1 P0 3.407167 1_545
Ba1 Li1 3.407167 1_455
Ba1 P1 3.407170 1_555
Ba1 Li0 3.407170 1_445
Ba1 Li1 3.407170 1_555
Ba1 P0 3.407170 1_445
Ba1 P1 3.407171 1_445
Ba1 Li0 3.407171 1_555
Ba1 P0 3.407171 1_555
Ba1 Li1 3.407171 1_445
Li0 P1 2.611709 1_455
Li0 P1 2.611710 1_565
Li0 P1 2.611717 1_555
Li1 P0 2.611709 1_655
Li1 P0 2.611710 1_545
Li1 P0 2.611717 1_555
