# generated using pymatgen
data_Sr3(FeN2)2
_symmetry_space_group_name_H-M   'P 1'
_cell_length_a   7.07007624
_cell_length_b   8.60288118
_cell_length_c   5.50391755
_cell_angle_alpha   90.00000373
_cell_angle_beta   93.71125422
_cell_angle_gamma   127.47397566
_symmetry_Int_Tables_number   1
_chemical_formula_structural   Sr3(FeN2)2
_chemical_formula_sum   'Sr6 Fe4 N8'
_cell_volume   264.79427764
_cell_formula_units_Z   2
loop_
 _symmetry_equiv_pos_site_id
 _symmetry_equiv_pos_as_xyz
  1  'x, y, z'
loop_
 _atom_site_type_symbol
 _atom_site_label
 _atom_site_symmetry_multiplicity
 _atom_site_fract_x
 _atom_site_fract_y
 _atom_site_fract_z
 _atom_site_occupancy
  Sr  Sr0  1  0.25099000  0.99096900  0.05592300  1
  Sr  Sr1  1  0.74901000  0.73997900  0.44407700  1
  Sr  Sr2  1  0.74901000  0.00903100  0.94407700  1
  Sr  Sr3  1  0.25099000  0.26002100  0.55592300  1
  Sr  Sr4  1  0.00000000  0.59643800  0.75000000  1
  Sr  Sr5  1  0.00000000  0.40356200  0.25000000  1
  Fe  Fe0  1  0.58024500  0.16345700  0.57233800  1
  Fe  Fe1  1  0.41975500  0.58321200  0.92766200  1
  Fe  Fe2  1  0.41975500  0.83654300  0.42766200  1
  Fe  Fe3  1  0.58024500  0.41678800  0.07233800  1
  N  N0  1  0.25491600  0.93835000  0.52889300  1
  N  N1  1  0.74508400  0.68343300  0.97110700  1
  N  N2  1  0.74508400  0.06165000  0.47110700  1
  N  N3  1  0.25491600  0.31656700  0.02889300  1
  N  N4  1  0.64404300  0.26908200  0.88888100  1
  N  N5  1  0.35595700  0.62503900  0.61111900  1
  N  N6  1  0.35595700  0.73091800  0.11111900  1
  N  N7  1  0.64404300  0.37496100  0.38888100  1
loop_
_geom_bond_atom_site_label_1
_geom_bond_atom_site_label_2
_geom_bond_distance
_geom_bond_site_symmetry_2
Fe0 N4 1.861195 1_555
Fe0 N7 1.895801 1_555
Fe0 N0 1.899140 1_545
Fe0 N2 1.939537 1_555
Fe1 N5 1.861195 1_555
Fe1 N6 1.895801 1_556
Fe1 N1 1.899143 1_555
Fe1 N3 1.939530 1_556
Fe2 N6 1.861195 1_555
Fe2 N5 1.895801 1_555
Fe2 N2 1.899140 1_565
Fe2 N0 1.939537 1_555
Fe3 N7 1.861195 1_555
Fe3 N4 1.895801 1_554
Fe3 N3 1.899143 1_555
Fe3 N1 1.939530 1_554
N0 Sr0 2.643522 1_555
N0 Sr4 2.685986 1_555
N0 Sr3 2.788340 1_565
N0 Sr1 2.877532 1_455
N0 Sr0 2.940345 1_556
N1 Sr1 2.643523 1_556
N1 Sr4 2.685981 1_655
N1 Sr2 2.788348 1_565
N1 Sr0 2.877533 1_656
N1 Sr1 2.940347 1_555
N2 Sr2 2.643522 1_555
N2 Sr5 2.685986 1_655
N2 Sr1 2.788340 1_545
N2 Sr3 2.877532 1_655
N2 Sr2 2.940345 1_554
N3 Sr3 2.643523 1_554
N3 Sr5 2.685981 1_555
N3 Sr0 2.788348 1_545
N3 Sr2 2.877533 1_454
N3 Sr3 2.940347 1_555
N4 Sr4 2.544384 1_655
N4 Sr0 2.555889 1_546
N4 Sr5 2.726181 1_656
N4 Sr2 2.763890 1_555
N5 Sr4 2.544384 1_555
N5 Sr1 2.555889 1_555
N5 Sr5 2.726181 1_555
N5 Sr3 2.763889 1_555
N6 Sr5 2.544384 1_555
N6 Sr2 2.555889 1_564
N6 Sr4 2.726181 1_554
N6 Sr0 2.763890 1_555
N7 Sr5 2.544384 1_655
N7 Sr3 2.555889 1_555
N7 Sr4 2.726181 1_655
N7 Sr1 2.763889 1_555
