# generated using pymatgen
data_Rb2Ba8Li(Sb3O)2
_symmetry_space_group_name_H-M   'P 1'
_cell_length_a   9.28762556
_cell_length_b   9.28748369
_cell_length_c   10.64331042
_cell_angle_alpha   117.71429666
_cell_angle_beta   117.66905934
_cell_angle_gamma   86.34638136
_symmetry_Int_Tables_number   1
_chemical_formula_structural   Rb2Ba8Li(Sb3O)2
_chemical_formula_sum   'Rb2 Ba8 Li1 Sb6 O2'
_cell_volume   706.11197553
_cell_formula_units_Z   1
loop_
 _symmetry_equiv_pos_site_id
 _symmetry_equiv_pos_as_xyz
  1  'x, y, z'
loop_
 _atom_site_type_symbol
 _atom_site_label
 _atom_site_symmetry_multiplicity
 _atom_site_fract_x
 _atom_site_fract_y
 _atom_site_fract_z
 _atom_site_occupancy
  Rb  Rb0  1  0.00776800  0.00669300  0.01425400  1
  Rb  Rb1  1  0.50721900  0.50650700  0.01420500  1
  Ba  Ba0  1  0.50644100  0.69206400  0.69878800  1
  Ba  Ba1  1  0.19278800  0.00586800  0.69890400  1
  Ba  Ba2  1  0.81021800  0.00314800  0.31331900  1
  Ba  Ba3  1  0.05848000  0.55344900  0.70649900  1
  Ba  Ba4  1  0.50194200  0.30984400  0.31171900  1
  Ba  Ba5  1  0.65274700  0.14771700  0.70739000  1
  Ba  Ba6  1  0.99811500  0.49818000  0.29787500  1
  Ba  Ba7  1  0.29971300  0.79973000  0.29803600  1
  Li  Li0  1  0.84498700  0.36139600  0.70699100  1
  Sb  Sb0  1  0.87587100  0.60922000  0.98524300  1
  Sb  Sb1  1  0.62521000  0.12453800  0.00626000  1
  Sb  Sb2  1  0.10341700  0.37643500  0.98015800  1
  Sb  Sb3  1  0.38169100  0.88100800  0.00602200  1
  Sb  Sb4  1  0.25171800  0.24995600  0.50094600  1
  Sb  Sb5  1  0.75084400  0.74926300  0.50084200  1
  O  O0  1  0.74775700  0.24934800  0.49562200  1
  O  O1  1  0.24736000  0.74706600  0.49442600  1
loop_
_geom_bond_atom_site_label_1
_geom_bond_atom_site_label_2
_geom_bond_distance
_geom_bond_site_symmetry_2
Rb0 Sb3 3.619641 1_545
Rb0 Sb1 3.624855 1_455
Rb0 Sb0 3.793177 1_444
Rb0 Sb2 3.815799 1_554
Rb0 Sb4 3.992172 1_555
Rb0 Sb5 4.211342 1_444
Rb1 Sb1 3.620027 1_555
Rb1 Sb3 3.624243 1_555
Rb1 Sb0 3.794485 1_554
Rb1 Sb2 3.816277 1_554
Rb1 Sb5 3.991728 1_555
Rb1 Sb4 4.210107 1_554
Ba0 O1 2.607300 1_555
Ba0 Sb3 3.610665 1_556
Ba0 Sb1 3.611839 1_566
Ba0 Sb4 3.931940 1_555
Ba0 Sb5 3.938209 1_555
Ba1 O1 2.602748 1_545
Ba1 Sb3 3.612183 1_546
Ba1 Sb1 3.613121 1_556
Ba1 Sb5 3.938179 1_445
Ba1 Sb4 3.943289 1_555
Ba2 O0 2.465650 1_555
Ba2 Sb3 3.586007 1_545
Ba2 Sb1 3.587341 1_555
Ba2 Sb4 3.923201 1_655
Ba2 Sb5 3.925903 1_545
Ba3 Li0 2.753603 1_455
Ba3 O0 3.235710 1_455
Ba3 Sb3 3.418276 1_556
Ba3 Sb4 3.635718 1_555
Ba3 Sb5 3.673442 1_455
Ba4 O0 2.463401 1_555
Ba4 Sb3 3.582624 1_545
Ba4 Sb1 3.583809 1_555
Ba4 Sb5 3.910382 1_555
Ba4 Sb4 3.914088 1_555
Ba5 Li0 2.755491 1_555
Ba5 O0 3.268305 1_555
Ba5 Sb1 3.410250 1_556
Ba5 Sb5 3.636086 1_545
Ba5 Sb4 3.673075 1_555
Ba6 O1 2.600942 1_655
Ba6 Sb5 3.823373 1_555
Ba6 Sb4 3.840380 1_655
Ba6 Sb1 3.898848 1_555
Ba7 O1 2.601906 1_555
Ba7 Sb4 3.821577 1_565
Ba7 Sb5 3.837412 1_555
Ba7 Sb3 3.906702 1_555
Li0 O0 1.736353 1_555
Li0 Sb0 2.665636 1_555
Li0 Sb2 2.723506 1_655
Sb1 Sb3 3.297320 1_545
