# generated using pymatgen
data_Er5(ReO6)2
_symmetry_space_group_name_H-M   'P 1'
_cell_length_a   6.73400170
_cell_length_b   6.73399930
_cell_length_c   7.42690373
_cell_angle_alpha   73.71170594
_cell_angle_beta   73.71171200
_cell_angle_gamma   49.08761286
_symmetry_Int_Tables_number   1
_chemical_formula_structural   Er5(ReO6)2
_chemical_formula_sum   'Er5 Re2 O12'
_cell_volume   242.11319368
_cell_formula_units_Z   1
loop_
 _symmetry_equiv_pos_site_id
 _symmetry_equiv_pos_as_xyz
  1  'x, y, z'
loop_
 _atom_site_type_symbol
 _atom_site_label
 _atom_site_symmetry_multiplicity
 _atom_site_fract_x
 _atom_site_fract_y
 _atom_site_fract_z
 _atom_site_occupancy
  Er  Er0  1  0.69718442  0.69730993  0.64074023  1
  Er  Er1  1  0.30268937  0.30281654  0.35925873  1
  Er  Er2  1  0.68562536  0.68561741  0.17706603  1
  Er  Er3  1  0.31438253  0.31437447  0.82293386  1
  Er  Er4  1  -0.00001945  0.00001927  0.50000006  1
  Re  Re0  1  0.78595201  0.21404814  0.00000041  1
  Re  Re1  1  0.21407929  0.78592053  0.00000054  1
  O  O0  1  0.00180864  0.00201325  0.20831363  1
  O  O1  1  0.99798663  0.99819121  0.79168646  1
  O  O2  1  0.57926937  0.08753585  0.08602277  1
  O  O3  1  0.42094807  0.91247590  0.91394498  1
  O  O4  1  0.91246426  0.42073048  0.91397780  1
  O  O5  1  0.08752474  0.57905150  0.08605495  1
  O  O6  1  0.49919280  0.49905703  0.18007985  1
  O  O7  1  0.50094291  0.50080756  0.81992013  1
  O  O8  1  0.40586963  0.90168778  0.42726495  1
  O  O9  1  0.59413841  0.09835133  0.57268931  1
  O  O10  1  0.09831234  0.59412964  0.57273500  1
  O  O11  1  0.90164866  0.40586219  0.42731031  1
loop_
_geom_bond_atom_site_label_1
_geom_bond_atom_site_label_2
_geom_bond_distance
_geom_bond_site_symmetry_2
Er0 O9 2.237585 1_565
Er0 O10 2.237766 1_655
Er0 O8 2.289214 1_555
Er0 O11 2.289455 1_555
Er0 O7 2.363134 1_555
Er0 O3 2.382940 1_555
Er0 O4 2.383725 1_555
Er1 O11 2.237583 1_455
Er1 O8 2.237770 1_545
Er1 O10 2.289212 1_555
Er1 O9 2.289464 1_555
Er1 O6 2.363132 1_555
Er1 O5 2.382929 1_555
Er1 O2 2.383718 1_555
Er2 O5 2.235734 1_655
Er2 O2 2.236411 1_565
Er2 O8 2.254260 1_555
Er2 O11 2.254414 1_555
Er2 O6 2.277982 1_555
Er2 O3 2.458065 1_554
Er2 O4 2.458639 1_554
Er3 O3 2.235729 1_545
Er3 O4 2.236411 1_455
Er3 O10 2.254258 1_555
Er3 O9 2.254417 1_555
Er3 O7 2.277986 1_555
Er3 O5 2.458065 1_556
Er3 O2 2.458643 1_556
Er4 O1 2.159223 1_445
Er4 O0 2.159223 1_555
Er4 O9 2.280675 1_455
Er4 O11 2.280679 1_455
Er4 O8 2.280968 1_545
Er4 O10 2.280970 1_545
O0 Re0 1.961903 1_455
O0 Re1 1.962708 1_545
O1 Re0 1.961908 1_566
O1 Re1 1.962714 1_656
O2 Re0 1.954493 1_555
O3 Re1 1.955865 1_556
O4 Re0 1.954491 1_556
O5 Re1 1.955861 1_555
O6 Re0 2.082780 1_555
O6 Re1 2.083228 1_555
O7 Re0 2.082784 1_556
O7 Re1 2.083232 1_556
