# generated using pymatgen
data_NaAlGeO4
_symmetry_space_group_name_H-M   'P 1'
_cell_length_a   8.38498600
_cell_length_b   8.90829100
_cell_length_c   17.97896270
_cell_angle_alpha   60.40338799
_cell_angle_beta   90.00000000
_cell_angle_gamma   90.00000000
_symmetry_Int_Tables_number   1
_chemical_formula_structural   NaAlGeO4
_chemical_formula_sum   'Na12 Al12 Ge12 O48'
_cell_volume   1167.73153834
_cell_formula_units_Z   12
loop_
 _symmetry_equiv_pos_site_id
 _symmetry_equiv_pos_as_xyz
  1  'x, y, z'
loop_
 _atom_site_type_symbol
 _atom_site_label
 _atom_site_symmetry_multiplicity
 _atom_site_fract_x
 _atom_site_fract_y
 _atom_site_fract_z
 _atom_site_occupancy
  Na  Na0  1  0.02369600  0.71321400  0.06542800  1
  Na  Na1  1  0.52369600  0.28678600  0.43457200  1
  Na  Na2  1  0.97630400  0.28678600  0.93457200  1
  Na  Na3  1  0.47630400  0.71321400  0.56542800  1
  Na  Na4  1  0.46892700  0.64068000  0.08969700  1
  Na  Na5  1  0.96892700  0.35932000  0.41030300  1
  Na  Na6  1  0.53107300  0.35932000  0.91030300  1
  Na  Na7  1  0.03107300  0.64068000  0.58969700  1
  Na  Na8  1  0.44798700  0.00286400  0.25327300  1
  Na  Na9  1  0.94798700  0.99713600  0.24672700  1
  Na  Na10  1  0.55201300  0.99713600  0.74672700  1
  Na  Na11  1  0.05201300  0.00286400  0.75327300  1
  Al  Al0  1  0.16607100  0.34775800  0.09196500  1
  Al  Al1  1  0.66607100  0.65224200  0.40803500  1
  Al  Al2  1  0.83392900  0.65224200  0.90803500  1
  Al  Al3  1  0.33392900  0.34775800  0.59196500  1
  Al  Al4  1  0.16937400  0.97715200  0.42251500  1
  Al  Al5  1  0.66937400  0.02284800  0.07748500  1
  Al  Al6  1  0.83062600  0.02284800  0.57748500  1
  Al  Al7  1  0.33062600  0.97715200  0.92251500  1
  Al  Al8  1  0.17009100  0.68539700  0.23694300  1
  Al  Al9  1  0.67009100  0.31460300  0.26305700  1
  Al  Al10  1  0.82990900  0.31460300  0.76305700  1
  Al  Al11  1  0.32990900  0.68539700  0.73694300  1
  Ge  Ge0  1  0.28356600  0.03004100  0.07847800  1
  Ge  Ge1  1  0.78356600  0.96995900  0.42152200  1
  Ge  Ge2  1  0.71643400  0.96995900  0.92152200  1
  Ge  Ge3  1  0.21643400  0.03004100  0.57847800  1
  Ge  Ge4  1  0.27872700  0.65165900  0.40996100  1
  Ge  Ge5  1  0.77872700  0.34834100  0.09003900  1
  Ge  Ge6  1  0.72127300  0.34834100  0.59003900  1
  Ge  Ge7  1  0.22127300  0.65165900  0.90996100  1
  Ge  Ge8  1  0.28290000  0.31531900  0.26629200  1
  Ge  Ge9  1  0.78290000  0.68468100  0.23370800  1
  Ge  Ge10  1  0.71710000  0.68468100  0.73370800  1
  Ge  Ge11  1  0.21710000  0.31531900  0.76629200  1
  O  O0  1  0.47175300  0.59195700  0.39431400  1
  O  O1  1  0.97175300  0.40804300  0.10568600  1
  O  O2  1  0.52824700  0.40804300  0.60568600  1
  O  O3  1  0.02824700  0.59195700  0.89431400  1
  O  O4  1  0.47739300  0.11727500  0.05049800  1
  O  O5  1  0.97739300  0.88272500  0.44950200  1
  O  O6  1  0.52260700  0.88272500  0.94950200  1
  O  O7  1  0.02260700  0.11727500  0.55049800  1
  O  O8  1  0.47749500  0.26223800  0.30964100  1
  O  O9  1  0.97749500  0.73776200  0.19035900  1
  O  O10  1  0.52250500  0.73776200  0.69035900  1
  O  O11  1  0.02250500  0.26223800  0.80964100  1
  O  O12  1  0.14890200  0.59921800  0.34877500  1
  O  O13  1  0.64890200  0.40078200  0.15122500  1
  O  O14  1  0.85109800  0.40078200  0.65122500  1
  O  O15  1  0.35109800  0.59921800  0.84877500  1
  O  O16  1  0.15149200  0.20384200  0.05087200  1
  O  O17  1  0.65149200  0.79615800  0.44912800  1
  O  O18  1  0.84850800  0.79615800  0.94912800  1
  O  O19  1  0.34850800  0.20384200  0.55087200  1
  O  O20  1  0.27230700  0.87699100  0.37237500  1
  O  O21  1  0.15317000  0.20397000  0.35426500  1
  O  O22  1  0.84683000  0.79603000  0.64573500  1
  O  O23  1  0.34683000  0.20397000  0.85426500  1
  O  O24  1  0.26777900  0.54197100  0.02053700  1
  O  O25  1  0.76777900  0.45802900  0.47946300  1
  O  O26  1  0.73222100  0.45802900  0.97946300  1
  O  O27  1  0.23222100  0.54197100  0.52053700  1
  O  O28  1  0.23282400  0.92341100  0.02058700  1
  O  O29  1  0.73282400  0.07658900  0.47941300  1
  O  O30  1  0.76717600  0.07658900  0.97941300  1
  O  O31  1  0.26717600  0.92341100  0.52058700  1
  O  O32  1  0.25782400  0.54104300  0.20806000  1
  O  O33  1  0.75782400  0.45895700  0.29194000  1
  O  O34  1  0.74217600  0.45895700  0.79194000  1
  O  O35  1  0.24217600  0.54104300  0.70806000  1
  O  O36  1  0.23772900  0.23901000  0.69253400  1
  O  O37  1  0.73772900  0.76099000  0.80746600  1
  O  O38  1  0.76227100  0.76099000  0.30746600  1
  O  O39  1  0.26227100  0.23901000  0.19253400  1
  O  O40  1  0.22296900  0.88257600  0.68973200  1
  O  O41  1  0.72296900  0.11742400  0.81026800  1
  O  O42  1  0.77703100  0.11742400  0.31026800  1
  O  O43  1  0.27703100  0.88257600  0.18973200  1
  O  O44  1  0.22769300  0.87699100  0.87237500  1
  O  O45  1  0.72769300  0.12300900  0.62762500  1
  O  O46  1  0.77230700  0.12300900  0.12762500  1
  O  O47  1  0.65317000  0.79603000  0.14573500  1
loop_
_geom_bond_atom_site_label_1
_geom_bond_atom_site_label_2
_geom_bond_distance
_geom_bond_site_symmetry_2
Na0 O18 2.355791 1_454
Na0 O9 2.393361 1_455
Na0 O28 2.395814 1_555
Na0 O1 2.482029 1_455
Na0 O24 2.895404 1_555
Na1 O19 2.355791 1_555
Na1 O8 2.393361 1_555
Na1 O29 2.395814 1_555
Na1 O0 2.482029 1_555
Na1 O25 2.895404 1_555
Na2 O16 2.355791 1_656
Na2 O11 2.393361 1_655
Na2 O30 2.395814 1_555
Na2 O3 2.482029 1_655
Na2 O26 2.895404 1_555
Na3 O17 2.355791 1_555
Na3 O10 2.393361 1_555
Na3 O31 2.395814 1_555
Na3 O2 2.482029 1_555
Na3 O27 2.895404 1_555
Na4 O13 2.394366 1_555
Na4 O6 2.415908 1_554
Na4 O24 2.498808 1_555
Na4 O32 2.565906 1_555
Na4 O47 2.587305 1_555
Na4 O28 2.952205 1_555
Na5 O12 2.394366 1_655
Na5 O7 2.415908 1_655
Na5 O25 2.498808 1_555
Na5 O33 2.565906 1_555
Na5 O21 2.587305 1_655
Na5 O29 2.952205 1_555
Na6 O15 2.394366 1_555
Na6 O4 2.415908 1_556
Na6 O26 2.498808 1_555
Na6 O34 2.565906 1_555
Na6 O23 2.587305 1_555
Na6 O30 2.952205 1_555
Na7 O14 2.394366 1_455
Na7 O5 2.415908 1_455
Na7 O27 2.498808 1_555
Na7 O35 2.565906 1_555
Na7 O22 2.587305 1_455
Na7 O31 2.952205 1_555
Na8 O20 2.375042 1_545
Na8 O43 2.391095 1_545
Na8 O39 2.402846 1_555
Na9 O46 2.375042 1_565
Na9 O42 2.391095 1_565
Na9 O38 2.402846 1_555
Na10 O45 2.375042 1_565
Na10 O41 2.391095 1_565
Na10 O37 2.402846 1_555
Na11 O44 2.375042 1_545
Na11 O40 2.391095 1_545
Na11 O36 2.402846 1_555
Al0 O39 1.768683 1_555
Al0 O1 1.770570 1_455
Al0 O16 1.772015 1_555
Al0 O24 1.781877 1_555
Al1 O38 1.768683 1_555
Al1 O0 1.770570 1_555
Al1 O17 1.772015 1_555
Al1 O25 1.781877 1_555
Al2 O37 1.768683 1_555
Al2 O3 1.770570 1_655
Al2 O18 1.772015 1_555
Al2 O26 1.781877 1_555
Al3 O36 1.768683 1_555
Al3 O2 1.770570 1_555
Al3 O19 1.772015 1_555
Al3 O27 1.781877 1_555
Al4 O5 1.769512 1_455
Al4 O20 1.774321 1_555
Al4 O21 1.777006 1_565
Al4 O31 1.782380 1_555
Al5 O4 1.769512 1_555
Al5 O46 1.774321 1_555
Al5 O47 1.777006 1_545
Al5 O30 1.782380 1_554
Al6 O7 1.769512 1_655
Al6 O45 1.774321 1_555
Al6 O22 1.777006 1_545
Al6 O29 1.782380 1_555
Al7 O6 1.769512 1_555
Al7 O44 1.774321 1_555
Al7 O23 1.777006 1_565
Al7 O28 1.782380 1_556
Al8 O32 1.767513 1_555
Al8 O43 1.771209 1_555
Al8 O12 1.771677 1_555
Al8 O9 1.772314 1_455
Al9 O33 1.767513 1_555
Al9 O42 1.771209 1_555
Al9 O13 1.771677 1_555
Al9 O8 1.772314 1_555
Al10 O34 1.767513 1_555
Al10 O41 1.771209 1_555
Al10 O14 1.771677 1_555
Al10 O11 1.772314 1_655
Al11 O35 1.767513 1_555
Al11 O40 1.771209 1_555
Al11 O15 1.771677 1_555
Al11 O10 1.772314 1_555
Ge0 O16 1.763758 1_555
Ge0 O4 1.764143 1_555
Ge0 O43 1.770343 1_545
Ge0 O28 1.772910 1_545
Ge1 O17 1.763758 1_555
Ge1 O5 1.764143 1_555
Ge1 O42 1.770343 1_565
Ge1 O29 1.772910 1_565
Ge2 O18 1.763758 1_555
Ge2 O6 1.764143 1_555
Ge2 O41 1.770343 1_565
Ge2 O30 1.772910 1_565
Ge3 O19 1.763758 1_555
Ge3 O7 1.764143 1_555
Ge3 O40 1.770343 1_545
Ge3 O31 1.772910 1_545
Ge4 O12 1.766637 1_555
Ge4 O0 1.769009 1_555
Ge4 O27 1.772094 1_555
Ge4 O20 1.774543 1_555
Ge5 O13 1.766637 1_555
Ge5 O1 1.769009 1_555
Ge5 O26 1.772094 1_554
Ge5 O46 1.774543 1_555
Ge6 O14 1.766637 1_555
Ge6 O2 1.769009 1_555
Ge6 O25 1.772094 1_555
Ge6 O45 1.774543 1_555
Ge7 O15 1.766637 1_555
Ge7 O3 1.769009 1_555
Ge7 O24 1.772094 1_556
Ge7 O44 1.774543 1_555
Ge8 O32 1.761872 1_555
Ge8 O21 1.766106 1_555
Ge8 O8 1.768998 1_555
Ge8 O39 1.772282 1_555
Ge9 O33 1.761872 1_555
Ge9 O47 1.766106 1_555
Ge9 O9 1.768998 1_555
Ge9 O38 1.772282 1_555
Ge10 O34 1.761872 1_555
Ge10 O22 1.766106 1_555
Ge10 O10 1.768998 1_555
Ge10 O37 1.772282 1_555
Ge11 O35 1.761872 1_555
Ge11 O23 1.766106 1_555
Ge11 O11 1.768998 1_555
Ge11 O36 1.772282 1_555
