# generated using pymatgen
data_MgN(ClO2)3
_symmetry_space_group_name_H-M   'P 1'
_cell_length_a   6.54250517
_cell_length_b   6.54250517
_cell_length_c   14.79319416
_cell_angle_alpha   106.94347344
_cell_angle_beta   106.94347344
_cell_angle_gamma   44.01557424
_symmetry_Int_Tables_number   1
_chemical_formula_structural   MgN(ClO2)3
_chemical_formula_sum   'Mg2 N2 Cl6 O12'
_cell_volume   417.68894728
_cell_formula_units_Z   2
loop_
 _symmetry_equiv_pos_site_id
 _symmetry_equiv_pos_as_xyz
  1  'x, y, z'
loop_
 _atom_site_type_symbol
 _atom_site_label
 _atom_site_symmetry_multiplicity
 _atom_site_fract_x
 _atom_site_fract_y
 _atom_site_fract_z
 _atom_site_occupancy
  Mg  Mg0  1  0.00000000  0.00000000  0.00000000  1
  Mg  Mg1  1  0.00000000  0.00000000  0.50000000  1
  N  N0  1  0.66713700  0.33286300  0.75000000  1
  N  N1  1  0.33286300  0.66713700  0.25000000  1
  Cl  Cl0  1  0.50000000  0.50000000  0.00000000  1
  Cl  Cl1  1  0.50000000  0.50000000  0.50000000  1
  Cl  Cl2  1  0.74069900  0.04505600  0.77113800  1
  Cl  Cl3  1  0.95494400  0.25930100  0.72886200  1
  Cl  Cl4  1  0.25930100  0.95494400  0.22886200  1
  Cl  Cl5  1  0.04505600  0.74069900  0.27113800  1
  O  O0  1  0.45277200  0.95785500  0.96533100  1
  O  O1  1  0.04214500  0.54722800  0.53466900  1
  O  O2  1  0.54722800  0.04214500  0.03466900  1
  O  O3  1  0.95785500  0.45277200  0.46533100  1
  O  O4  1  0.95807500  0.45337500  0.96501700  1
  O  O5  1  0.54662500  0.04192500  0.53498300  1
  O  O6  1  0.04192500  0.54662500  0.03498300  1
  O  O7  1  0.45337500  0.95807500  0.46501700  1
  O  O8  1  0.04156200  0.12731000  0.13730600  1
  O  O9  1  0.87269000  0.95843800  0.36269400  1
  O  O10  1  0.95843800  0.87269000  0.86269400  1
  O  O11  1  0.12731000  0.04156200  0.63730600  1
loop_
_geom_bond_atom_site_label_1
_geom_bond_atom_site_label_2
_geom_bond_distance
_geom_bond_site_symmetry_2
Mg0 O8 1.977674 1_555
Mg0 O10 1.977674 1_444
Mg1 O11 1.977674 1_555
Mg1 O9 1.977674 1_445
Cl0 Mg0 2.451690 1_565
Cl0 Mg0 2.451690 1_655
Cl1 Mg1 2.451690 1_655
Cl1 Mg1 2.451690 1_565
Cl2 O10 1.609519 1_545
Cl2 N0 1.681382 1_555
Cl3 O11 1.609519 1_655
Cl3 N0 1.681382 1_555
Cl4 O8 1.609519 1_565
Cl4 N1 1.681382 1_555
Cl5 O9 1.609519 1_455
Cl5 N1 1.681382 1_555
O0 O2 1.236587 1_566
O1 O3 1.236587 1_455
O4 O6 1.235643 1_656
O5 O7 1.235643 1_545
