# generated using pymatgen
data_NaMg14Bi
_symmetry_space_group_name_H-M   'P 1'
_cell_length_a   6.47085921
_cell_length_b   6.37390295
_cell_length_c   10.54901422
_cell_angle_alpha   90.00000000
_cell_angle_beta   90.00000000
_cell_angle_gamma   119.50557996
_symmetry_Int_Tables_number   1
_chemical_formula_structural   NaMg14Bi
_chemical_formula_sum   'Na1 Mg14 Bi1'
_cell_volume   378.66234383
_cell_formula_units_Z   1
loop_
 _symmetry_equiv_pos_site_id
 _symmetry_equiv_pos_as_xyz
  1  'x, y, z'
loop_
 _atom_site_type_symbol
 _atom_site_label
 _atom_site_symmetry_multiplicity
 _atom_site_fract_x
 _atom_site_fract_y
 _atom_site_fract_z
 _atom_site_occupancy
  Na  Na0  1  0.16617192  0.33308546  0.12500000  1
  Mg  Mg0  1  0.16668140  0.33334020  0.62500000  1
  Mg  Mg1  1  0.16586744  0.83293322  0.62500000  1
  Mg  Mg2  1  0.66749195  0.33173914  0.12500000  1
  Mg  Mg3  1  0.66655032  0.33402201  0.62500000  1
  Mg  Mg4  1  0.66749195  0.83575180  0.12500000  1
  Mg  Mg5  1  0.66655032  0.83252731  0.62500000  1
  Mg  Mg6  1  0.33713649  0.16977067  0.38229351  1
  Mg  Mg7  1  0.33713649  0.16977067  0.86770649  1
  Mg  Mg8  1  0.33713649  0.66736682  0.38229351  1
  Mg  Mg9  1  0.33713649  0.66736682  0.86770649  1
  Mg  Mg10  1  0.82961121  0.16480610  0.38028793  1
  Mg  Mg11  1  0.82961121  0.16480610  0.86971207  1
  Mg  Mg12  1  0.82750925  0.66375512  0.37788730  1
  Mg  Mg13  1  0.82750925  0.66375512  0.87211270  1
  Bi  Bi0  1  0.17040782  0.83520341  0.12500000  1
loop_
_geom_bond_atom_site_label_1
_geom_bond_atom_site_label_2
_geom_bond_distance
_geom_bond_site_symmetry_2
Mg0 Mg6 3.160931 1_555
Mg0 Mg7 3.160931 1_555
Mg0 Mg8 3.160937 1_555
Mg0 Mg9 3.160937 1_555
Mg0 Mg1 3.186955 1_545
Mg0 Mg1 3.186955 1_555
Mg0 Mg11 3.204274 1_455
Mg0 Mg10 3.204274 1_455
Mg0 Mg5 3.232443 1_555
Mg0 Mg3 3.232443 1_555
Mg0 Mg5 3.238420 1_445
Mg0 Mg3 3.238420 1_455
Mg1 Mg8 3.170037 1_555
Mg1 Mg9 3.170037 1_555
Mg1 Mg6 3.170044 1_565
Mg1 Mg7 3.170044 1_565
Mg1 Mg13 3.228987 1_455
Mg1 Mg12 3.228987 1_455
Mg1 Mg3 3.229737 1_455
Mg1 Mg5 3.229737 1_455
Mg1 Mg3 3.241123 1_565
Mg1 Mg5 3.241123 1_555
Mg2 Mg4 3.161375 1_545
Mg2 Mg4 3.212528 1_555
Mg2 Na0 3.222670 1_655
Mg2 Na0 3.248206 1_555
Mg2 Mg7 3.290670 1_554
Mg2 Mg6 3.290670 1_555
Mg3 Mg6 3.161765 1_555
Mg3 Mg7 3.161765 1_555
Mg3 Mg5 3.177424 1_555
Mg3 Mg5 3.196479 1_545
Mg4 Na0 3.222670 1_665
Mg4 Na0 3.248206 1_555
Mg4 Mg9 3.290670 1_554
Mg4 Mg8 3.290670 1_555
Mg5 Mg8 3.161765 1_555
Mg5 Mg9 3.161765 1_555
Mg6 Mg8 3.171630 1_555
Mg6 Mg8 3.202273 1_545
Mg6 Na0 3.287649 1_555
Mg7 Mg9 3.171630 1_555
Mg7 Mg9 3.202273 1_545
Mg7 Na0 3.287649 1_556
Mg8 Na0 3.287655 1_555
Mg9 Na0 3.287655 1_556
Mg10 Mg3 3.172005 1_555
Mg10 Mg5 3.172011 1_545
Mg10 Mg12 3.187074 1_545
Mg10 Mg12 3.187074 1_555
Mg10 Mg8 3.202507 1_545
Mg10 Mg6 3.202508 1_555
Mg10 Mg2 3.253392 1_555
Mg10 Mg4 3.253398 1_545
Mg10 Mg8 3.268724 1_655
Mg10 Mg6 3.268724 1_655
Mg10 Na0 3.293166 1_655
Mg11 Mg3 3.172005 1_555
Mg11 Mg5 3.172011 1_545
Mg11 Mg13 3.187074 1_545
Mg11 Mg13 3.187074 1_555
Mg11 Mg9 3.202507 1_545
Mg11 Mg7 3.202508 1_555
Mg11 Mg2 3.253392 1_556
Mg11 Mg4 3.253398 1_546
Mg11 Mg9 3.268724 1_655
Mg11 Mg7 3.268724 1_655
Mg11 Na0 3.293166 1_656
Mg12 Mg5 3.184500 1_555
Mg12 Mg3 3.184507 1_555
Mg12 Mg6 3.184873 1_555
Mg12 Mg8 3.184873 1_555
Mg12 Mg4 3.241734 1_555
Mg12 Mg2 3.241740 1_555
Mg12 Mg6 3.286778 1_665
Mg12 Mg8 3.286778 1_655
Mg13 Mg5 3.184500 1_555
Mg13 Mg3 3.184507 1_555
Mg13 Mg7 3.184873 1_555
Mg13 Mg9 3.184873 1_555
Mg13 Mg4 3.241734 1_556
Mg13 Mg2 3.241740 1_556
Mg13 Mg7 3.286778 1_665
Mg13 Mg9 3.286778 1_655
Bi0 Na0 3.187041 1_555
Bi0 Na0 3.187041 1_565
Bi0 Mg2 3.214841 1_565
Bi0 Mg4 3.214841 1_555
Bi0 Mg2 3.256020 1_455
Bi0 Mg4 3.256021 1_455
Bi0 Mg8 3.288176 1_555
Bi0 Mg9 3.288176 1_554
Bi0 Mg6 3.288182 1_565
Bi0 Mg7 3.288182 1_564
Bi0 Mg12 3.293290 1_455
Bi0 Mg13 3.293290 1_454
