# generated using pymatgen
data_HgH4C2S2(N3Cl)2
_symmetry_space_group_name_H-M   'P 1'
_cell_length_a   8.56332000
_cell_length_b   11.26917500
_cell_length_c   20.36917900
_cell_angle_alpha   90.00000000
_cell_angle_beta   90.00000000
_cell_angle_gamma   90.00000000
_symmetry_Int_Tables_number   1
_chemical_formula_structural   HgH4C2S2(N3Cl)2
_chemical_formula_sum   'Hg4 H16 C8 S8 N24 Cl8'
_cell_volume   1965.65737956
_cell_formula_units_Z   4
loop_
 _symmetry_equiv_pos_site_id
 _symmetry_equiv_pos_as_xyz
  1  'x, y, z'
loop_
 _atom_site_type_symbol
 _atom_site_label
 _atom_site_symmetry_multiplicity
 _atom_site_fract_x
 _atom_site_fract_y
 _atom_site_fract_z
 _atom_site_occupancy
  Hg  Hg0  1  0.22403300  0.00000000  0.25000000  1
  Hg  Hg1  1  0.27596700  0.50000000  0.75000000  1
  Hg  Hg2  1  0.77596700  0.00000000  0.75000000  1
  Hg  Hg3  1  0.72403300  0.50000000  0.25000000  1
  H  H0  1  0.26518500  0.68816700  0.27377800  1
  H  H1  1  0.23481500  0.81183300  0.77377800  1
  H  H2  1  0.23481500  0.18816700  0.72622200  1
  H  H3  1  0.26518500  0.31183300  0.22622200  1
  H  H4  1  0.73481500  0.31183300  0.72622200  1
  H  H5  1  0.76518500  0.18816700  0.22622200  1
  H  H6  1  0.76518500  0.81183300  0.27377800  1
  H  H7  1  0.73481500  0.68816700  0.77377800  1
  H  H8  1  0.04047600  0.67097900  0.49755500  1
  H  H9  1  0.45952400  0.82902100  0.99755500  1
  H  H10  1  0.45952400  0.17097900  0.50244500  1
  H  H11  1  0.04047600  0.32902100  0.00244500  1
  H  H12  1  0.95952400  0.32902100  0.50244500  1
  H  H13  1  0.54047600  0.17097900  0.00244500  1
  H  H14  1  0.54047600  0.82902100  0.49755500  1
  H  H15  1  0.95952400  0.67097900  0.99755500  1
  C  C0  1  0.08423600  0.83978800  0.46479000  1
  C  C1  1  0.41576400  0.66021200  0.96479000  1
  C  C2  1  0.41576400  0.33978800  0.53521000  1
  C  C3  1  0.08423600  0.16021200  0.03521000  1
  C  C4  1  0.91576400  0.16021200  0.53521000  1
  C  C5  1  0.58423600  0.33978800  0.03521000  1
  C  C6  1  0.58423600  0.66021200  0.46479000  1
  C  C7  1  0.91576400  0.83978800  0.96479000  1
  S  S0  1  0.14304300  0.95129400  0.42554500  1
  S  S1  1  0.35695700  0.54870600  0.92554500  1
  S  S2  1  0.35695700  0.45129400  0.57445500  1
  S  S3  1  0.14304300  0.04870600  0.07445500  1
  S  S4  1  0.85695700  0.04870600  0.57445500  1
  S  S5  1  0.64304300  0.45129400  0.07445500  1
  S  S6  1  0.64304300  0.54870600  0.42554500  1
  S  S7  1  0.85695700  0.95129400  0.92554500  1
  N  N0  1  0.12379300  0.51476000  0.38804200  1
  N  N1  1  0.37620700  0.98524000  0.88804200  1
  N  N2  1  0.37620700  0.01476000  0.61195800  1
  N  N3  1  0.12379300  0.48524000  0.11195800  1
  N  N4  1  0.87620700  0.48524000  0.61195800  1
  N  N5  1  0.62379300  0.01476000  0.11195800  1
  N  N6  1  0.62379300  0.98524000  0.38804200  1
  N  N7  1  0.87620700  0.51476000  0.88804200  1
  N  N8  1  0.15875400  0.59691800  0.36145000  1
  N  N9  1  0.34124600  0.90308200  0.86145000  1
  N  N10  1  0.34124600  0.09691800  0.63855000  1
  N  N11  1  0.15875400  0.40308200  0.13855000  1
  N  N12  1  0.84124600  0.40308200  0.63855000  1
  N  N13  1  0.65875400  0.09691800  0.13855000  1
  N  N14  1  0.65875400  0.90308200  0.36145000  1
  N  N15  1  0.84124600  0.59691800  0.86145000  1
  N  N16  1  0.02964800  0.76039400  0.49739200  1
  N  N17  1  0.47035200  0.73960600  0.99739200  1
  N  N18  1  0.47035200  0.26039400  0.50260800  1
  N  N19  1  0.02964800  0.23960600  0.00260800  1
  N  N20  1  0.97035200  0.23960600  0.50260800  1
  N  N21  1  0.52964800  0.26039400  0.00260800  1
  N  N22  1  0.52964800  0.73960600  0.49739200  1
  N  N23  1  0.97035200  0.76039400  0.99739200  1
  Cl  Cl0  1  0.84821100  0.19493400  0.27890500  1
  Cl  Cl1  1  0.65178900  0.30506600  0.77890500  1
  Cl  Cl2  1  0.65178900  0.69493400  0.72109500  1
  Cl  Cl3  1  0.84821100  0.80506600  0.22109500  1
  Cl  Cl4  1  0.15178900  0.80506600  0.72109500  1
  Cl  Cl5  1  0.34821100  0.69493400  0.22109500  1
  Cl  Cl6  1  0.34821100  0.30506600  0.27890500  1
  Cl  Cl7  1  0.15178900  0.19493400  0.77890500  1
loop_
_geom_bond_atom_site_label_1
_geom_bond_atom_site_label_2
_geom_bond_distance
_geom_bond_site_symmetry_2
H8 N16 1.011896 1_555
H9 N17 1.011896 1_555
H10 N18 1.011896 1_555
H11 N19 1.011896 1_555
H12 N20 1.011896 1_555
H13 N21 1.011896 1_555
H14 N22 1.011896 1_555
H15 N23 1.011896 1_555
C0 N16 1.208308 1_555
C0 S0 1.572136 1_555
C1 N17 1.208308 1_555
C1 S1 1.572136 1_555
C2 N18 1.208308 1_555
C2 S2 1.572136 1_555
C3 N19 1.208308 1_555
C3 S3 1.572136 1_555
C4 N20 1.208308 1_555
C4 S4 1.572136 1_555
C5 N21 1.208308 1_555
C5 S5 1.572136 1_555
C6 N22 1.208308 1_555
C6 S6 1.572136 1_555
C7 N23 1.208308 1_555
C7 S7 1.572136 1_555
N0 N8 1.113654 1_555
N1 N9 1.113654 1_555
N10 N2 1.113654 1_555
N11 N3 1.113654 1_555
N12 N4 1.113654 1_555
N13 N5 1.113654 1_555
N14 N6 1.113654 1_555
N15 N7 1.113654 1_555
Cl0 H5 1.289523 1_555
Cl1 H4 1.289523 1_555
Cl2 H7 1.289523 1_555
Cl3 H6 1.289523 1_555
Cl4 H1 1.289523 1_555
Cl5 H0 1.289523 1_555
Cl6 H3 1.289523 1_555
Cl7 H2 1.289523 1_555
