# generated using pymatgen
data_Cr3In(CoS4)2
_symmetry_space_group_name_H-M   'P 1'
_cell_length_a   7.16777426
_cell_length_b   7.16777426
_cell_length_c   7.16777518
_cell_angle_alpha   59.36448259
_cell_angle_beta   59.36448259
_cell_angle_gamma   59.36448379
_symmetry_Int_Tables_number   1
_chemical_formula_structural   Cr3In(CoS4)2
_chemical_formula_sum   'Cr3 In1 Co2 S8'
_cell_volume   256.63151326
_cell_formula_units_Z   1
loop_
 _symmetry_equiv_pos_site_id
 _symmetry_equiv_pos_as_xyz
  1  'x, y, z'
loop_
 _atom_site_type_symbol
 _atom_site_label
 _atom_site_symmetry_multiplicity
 _atom_site_fract_x
 _atom_site_fract_y
 _atom_site_fract_z
 _atom_site_occupancy
  Cr  Cr0  1  0.00000000  0.50000000  0.50000000  1
  Cr  Cr1  1  0.50000000  0.50000000  0.00000000  1
  Cr  Cr2  1  0.50000000  0.00000000  0.50000000  1
  In  In0  1  0.50000000  0.50000000  0.50000000  1
  Co  Co0  1  0.12559200  0.12559200  0.12559200  1
  Co  Co1  1  0.87440800  0.87440800  0.87440800  1
  S  S0  1  0.25816900  0.25816900  0.25816900  1
  S  S1  1  0.73543500  0.24405300  0.24405300  1
  S  S2  1  0.24405300  0.24405300  0.73543500  1
  S  S3  1  0.24405300  0.73543500  0.24405300  1
  S  S4  1  0.74183100  0.74183100  0.74183100  1
  S  S5  1  0.26456500  0.75594700  0.75594700  1
  S  S6  1  0.75594700  0.75594700  0.26456500  1
  S  S7  1  0.75594700  0.26456500  0.75594700  1
loop_
_geom_bond_atom_site_label_1
_geom_bond_atom_site_label_2
_geom_bond_distance
_geom_bond_site_symmetry_2
Cr0 S3 2.419967 1_555
Cr0 S7 2.419967 1_455
Cr0 S2 2.419967 1_555
Cr0 S6 2.419967 1_455
Cr0 S0 2.440837 1_555
Cr0 S4 2.440837 1_455
Cr1 S1 2.419967 1_555
Cr1 S3 2.419967 1_555
Cr1 S7 2.419967 1_554
Cr1 S5 2.419967 1_554
Cr1 S0 2.440837 1_555
Cr1 S4 2.440837 1_554
Cr2 S1 2.419967 1_555
Cr2 S5 2.419967 1_545
Cr2 S2 2.419967 1_555
Cr2 S6 2.419967 1_545
Cr2 S0 2.440837 1_555
Cr2 S4 2.440837 1_545
In0 S6 2.588202 1_555
In0 S2 2.588202 1_555
In0 S7 2.588203 1_555
In0 S5 2.588203 1_555
In0 S3 2.588203 1_555
In0 S1 2.588203 1_555
Co0 S3 2.270989 1_545
Co0 S1 2.270989 1_455
Co0 S2 2.270990 1_554
Co0 S0 2.338823 1_555
Co1 S5 2.270989 1_655
Co1 S7 2.270989 1_565
Co1 S6 2.270990 1_556
Co1 S4 2.338823 1_555
