# generated using pymatgen
data_KTl4(CoSe)10
_symmetry_space_group_name_H-M   'P 1'
_cell_length_a   3.86391200
_cell_length_b   3.86391200
_cell_length_c   33.57856356
_cell_angle_alpha   86.70164136
_cell_angle_beta   86.70164136
_cell_angle_gamma   90.00000000
_symmetry_Int_Tables_number   1
_chemical_formula_structural   KTl4(CoSe)10
_chemical_formula_sum   'K1 Tl4 Co10 Se10'
_cell_volume   499.65947954
_cell_formula_units_Z   1
loop_
 _symmetry_equiv_pos_site_id
 _symmetry_equiv_pos_as_xyz
  1  'x, y, z'
loop_
 _atom_site_type_symbol
 _atom_site_label
 _atom_site_symmetry_multiplicity
 _atom_site_fract_x
 _atom_site_fract_y
 _atom_site_fract_z
 _atom_site_occupancy
  K  K0  1  0.00000000  0.00000000  0.00000000  1
  Tl  Tl0  1  0.40004800  0.40004800  0.19990400  1
  Tl  Tl1  1  0.79999500  0.79999500  0.40001100  1
  Tl  Tl2  1  0.20000500  0.20000500  0.59998900  1
  Tl  Tl3  1  0.59995200  0.59995200  0.80009600  1
  Co  Co0  1  0.95007700  0.45007700  0.09984600  1
  Co  Co1  1  0.35001300  0.85001300  0.29997400  1
  Co  Co2  1  0.75000000  0.25000000  0.50000000  1
  Co  Co3  1  0.14998700  0.64998700  0.70002600  1
  Co  Co4  1  0.54992300  0.04992300  0.90015400  1
  Co  Co5  1  0.45007700  0.95007700  0.09984600  1
  Co  Co6  1  0.85001300  0.35001300  0.29997400  1
  Co  Co7  1  0.25000000  0.75000000  0.50000000  1
  Co  Co8  1  0.64998700  0.14998700  0.70002600  1
  Co  Co9  1  0.04992300  0.54992300  0.90015400  1
  Se  Se0  1  0.46981600  0.46981600  0.06036900  1
  Se  Se1  1  0.86954000  0.86954000  0.26091900  1
  Se  Se2  1  0.26958500  0.26958500  0.46083000  1
  Se  Se3  1  0.66954300  0.66954300  0.66091300  1
  Se  Se4  1  0.06959800  0.06959800  0.86080300  1
  Se  Se5  1  0.93040200  0.93040200  0.13919700  1
  Se  Se6  1  0.33045600  0.33045600  0.33908700  1
  Se  Se7  1  0.73041500  0.73041500  0.53917000  1
  Se  Se8  1  0.13046000  0.13046000  0.73908100  1
  Se  Se9  1  0.53018400  0.53018400  0.93963100  1
loop_
_geom_bond_atom_site_label_1
_geom_bond_atom_site_label_2
_geom_bond_distance
_geom_bond_site_symmetry_2
K0 Se9 3.398064 1_554
K0 Se0 3.398064 1_445
K0 Se9 3.398066 1_544
K0 Se9 3.398066 1_454
K0 Se0 3.398066 1_545
K0 Se0 3.398066 1_455
K0 Se0 3.398069 1_555
K0 Se9 3.398069 1_444
Co0 Se5 2.338130 1_545
Co0 Se5 2.338133 1_555
Co0 Se0 2.340508 1_555
Co0 Se0 2.340511 1_655
Co1 Se1 2.332565 1_555
Co1 Se1 2.332568 1_455
Co1 Se6 2.333653 1_565
Co1 Se6 2.333656 1_555
Co2 Se2 2.334725 1_655
Co2 Se7 2.334725 1_545
Co2 Se7 2.334725 1_555
Co2 Se2 2.334725 1_555
Co3 Se8 2.332565 1_555
Co3 Se8 2.332568 1_565
Co3 Se3 2.333653 1_555
Co3 Se3 2.333656 1_455
Co4 Se4 2.338130 1_655
Co4 Se4 2.338133 1_555
Co4 Se9 2.340508 1_555
Co4 Se9 2.340511 1_545
Co5 Se5 2.338130 1_455
Co5 Se5 2.338133 1_555
Co5 Se0 2.340508 1_555
Co5 Se0 2.340511 1_565
Co6 Se1 2.332565 1_555
Co6 Se1 2.332568 1_545
Co6 Se6 2.333653 1_655
Co6 Se6 2.333656 1_555
Co7 Se2 2.334725 1_565
Co7 Se7 2.334725 1_455
Co7 Se7 2.334725 1_555
Co7 Se2 2.334725 1_555
Co8 Se8 2.332565 1_555
Co8 Se8 2.332568 1_655
Co8 Se3 2.333653 1_555
Co8 Se3 2.333656 1_545
Co9 Se4 2.338130 1_565
Co9 Se4 2.338133 1_555
Co9 Se9 2.340508 1_555
Co9 Se9 2.340511 1_455
Se1 Tl0 3.410963 1_555
Se1 Tl0 3.410965 1_565
Se1 Tl0 3.410965 1_655
Se1 Tl0 3.410967 1_665
Se2 Tl1 3.407040 1_445
Se2 Tl1 3.407042 1_455
Se2 Tl1 3.407042 1_545
Se2 Tl1 3.407044 1_555
Se3 Tl2 3.409143 1_665
Se3 Tl2 3.409143 1_565
Se3 Tl2 3.409143 1_655
Se3 Tl2 3.409143 1_555
Se4 Tl3 3.404802 1_445
Se4 Tl3 3.404804 1_545
Se4 Tl3 3.404804 1_455
Se4 Tl3 3.404806 1_555
Se5 Tl0 3.404802 1_665
Se5 Tl0 3.404804 1_655
Se5 Tl0 3.404804 1_565
Se5 Tl0 3.404806 1_555
Se6 Tl1 3.409138 1_445
Se6 Tl1 3.409143 1_545
Se6 Tl1 3.409143 1_455
Se6 Tl1 3.409147 1_555
Se7 Tl2 3.407040 1_665
Se7 Tl2 3.407042 1_565
Se7 Tl2 3.407042 1_655
Se7 Tl2 3.407044 1_555
Se8 Tl3 3.410963 1_555
Se8 Tl3 3.410965 1_455
Se8 Tl3 3.410965 1_545
Se8 Tl3 3.410967 1_445
