# generated using pymatgen
data_Li4V2Co3Cu3O16
_symmetry_space_group_name_H-M   'P 1'
_cell_length_a   5.79238900
_cell_length_b   5.84588885
_cell_length_c   9.44959744
_cell_angle_alpha   93.87327846
_cell_angle_beta   89.14671004
_cell_angle_gamma   119.31643902
_symmetry_Int_Tables_number   1
_chemical_formula_structural   Li4V2Co3Cu3O16
_chemical_formula_sum   'Li4 V2 Co3 Cu3 O16'
_cell_volume   278.30090933
_cell_formula_units_Z   1
loop_
 _symmetry_equiv_pos_site_id
 _symmetry_equiv_pos_as_xyz
  1  'x, y, z'
loop_
 _atom_site_type_symbol
 _atom_site_label
 _atom_site_symmetry_multiplicity
 _atom_site_fract_x
 _atom_site_fract_y
 _atom_site_fract_z
 _atom_site_occupancy
  Li  Li0  1  0.66660400  0.32439200  0.90062300  1
  Li  Li1  1  0.99318500  0.99591100  0.99000000  1
  Li  Li2  1  0.00236200  0.99961000  0.49391700  1
  Li  Li3  1  0.33659400  0.66867200  0.40202900  1
  V  V0  1  0.66121100  0.32270000  0.49571500  1
  V  V1  1  0.33318600  0.64202500  0.99639700  1
  Co  Co0  1  0.34308300  0.16560400  0.21162300  1
  Co  Co1  1  0.16889300  0.34891000  0.71300800  1
  Co  Co2  1  0.17144800  0.83045000  0.72677400  1
  Cu  Cu0  1  0.83406500  0.17347200  0.21685000  1
  Cu  Cu1  1  0.82919600  0.65809800  0.21559300  1
  Cu  Cu2  1  0.65960300  0.82465000  0.71023600  1
  O  O0  1  0.85856200  0.22094400  0.58477900  1
  O  O1  1  0.95703100  0.49356200  0.35127600  1
  O  O2  1  0.65777600  0.31731200  0.11130800  1
  O  O3  1  0.01537200  0.01349800  0.30251900  1
  O  O4  1  0.99829000  0.01741300  0.79559800  1
  O  O5  1  0.82116400  0.67214200  0.58806300  1
  O  O6  1  0.52877400  0.04143200  0.35358100  1
  O  O7  1  0.50873300  0.46809000  0.33965500  1
  O  O8  1  0.65195800  0.81504700  0.08510300  1
  O  O9  1  0.35240800  0.19150000  0.59330200  1
  O  O10  1  0.44046100  0.47752600  0.85241000  1
  O  O11  1  0.49318600  0.94995300  0.84259300  1
  O  O12  1  0.33309300  0.65735500  0.61451200  1
  O  O13  1  0.16488500  0.34842000  0.09171500  1
  O  O14  1  0.03758500  0.51984000  0.84332700  1
  O  O15  1  0.18129400  0.84117300  0.08533500  1
loop_
_geom_bond_atom_site_label_1
_geom_bond_atom_site_label_2
_geom_bond_distance
_geom_bond_site_symmetry_2
Li0 O11 1.949919 1_545
Li0 O14 1.964900 1_655
Li0 O10 1.986457 1_555
Li0 O2 1.993487 1_556
Li1 O4 1.848583 1_565
Li1 O8 1.964986 1_556
Li1 O13 1.978244 1_666
Li1 O15 1.980304 1_656
Li2 O3 1.814722 1_565
Li2 O5 1.947425 1_455
Li2 O9 1.984587 1_565
Li2 O0 1.997292 1_465
Li3 O7 1.936648 1_555
Li3 O1 1.967937 1_455
Li3 O6 1.985309 1_565
Li3 O12 2.012905 1_555
Co0 O2 1.867307 1_555
Co0 O3 1.879742 1_555
Co0 O7 1.896129 1_555
Co0 O15 1.971403 1_545
Co0 O6 2.102954 1_555
Co0 O13 2.184067 1_555
Co1 O12 1.882324 1_555
Co1 O10 1.882738 1_555
Co1 O14 1.908815 1_555
Co1 O4 1.909739 1_455
Co1 O0 1.970955 1_455
Co1 O9 2.009407 1_555
Co2 O4 1.892511 1_465
Co2 O12 1.944007 1_555
Co2 O11 1.959971 1_555
Co2 O14 1.994332 1_555
Co2 O5 2.183544 1_455
Co2 O9 2.301765 1_565
Cu0 O3 1.929308 1_655
Cu0 O2 1.931041 1_555
Cu0 O1 2.005742 1_555
Cu0 O6 2.030353 1_555
Cu0 O13 2.071938 1_655
Cu0 O8 2.138982 1_545
Cu1 O2 1.937186 1_555
Cu1 O3 1.938034 1_665
Cu1 O1 2.002430 1_555
Cu1 O7 2.036131 1_555
Cu1 O8 2.128199 1_555
Cu1 O15 2.187630 1_655
Cu2 O12 1.863260 1_555
Cu2 O4 1.878471 1_565
Cu2 O11 1.887287 1_555
Cu2 O5 1.910301 1_555
Cu2 O10 2.308499 1_555
Cu2 O0 2.411741 1_565
O0 V0 1.769497 1_555
O1 V0 2.057960 1_555
O5 V0 1.929452 1_555
O6 V0 1.895560 1_555
O7 V0 2.149520 1_555
O8 V1 1.799373 1_554
O9 V0 1.827861 1_555
O10 V1 1.882912 1_555
O11 V1 2.211624 1_555
O13 V1 1.803270 1_554
O14 V1 2.066565 1_555
O15 V1 1.919528 1_554
