# generated using pymatgen
data_BaNaNd(GeO3)3
_symmetry_space_group_name_H-M   'P 1'
_cell_length_a   5.94402000
_cell_length_b   11.87215600
_cell_length_c   13.06412900
_cell_angle_alpha   90.00000000
_cell_angle_beta   90.00000000
_cell_angle_gamma   90.00000000
_symmetry_Int_Tables_number   1
_chemical_formula_structural   BaNaNd(GeO3)3
_chemical_formula_sum   'Ba4 Na4 Nd4 Ge12 O36'
_cell_volume   921.91380180
_cell_formula_units_Z   4
loop_
 _symmetry_equiv_pos_site_id
 _symmetry_equiv_pos_as_xyz
  1  'x, y, z'
loop_
 _atom_site_type_symbol
 _atom_site_label
 _atom_site_symmetry_multiplicity
 _atom_site_fract_x
 _atom_site_fract_y
 _atom_site_fract_z
 _atom_site_occupancy
  Ba  Ba0  1  0.10657400  0.61394000  0.08194600  1
  Ba  Ba1  1  0.60657400  0.88606000  0.91805400  1
  Ba  Ba2  1  0.89342600  0.11394000  0.41805400  1
  Ba  Ba3  1  0.39342600  0.38606000  0.58194600  1
  Na  Na0  1  0.06248500  0.27884100  0.11440700  1
  Na  Na1  1  0.56248500  0.22115900  0.88559300  1
  Na  Na2  1  0.43751500  0.72115900  0.61440700  1
  Na  Na3  1  0.93751500  0.77884100  0.38559300  1
  Nd  Nd0  1  0.38317100  0.03619600  0.64154500  1
  Nd  Nd1  1  0.88317100  0.46380400  0.35845500  1
  Nd  Nd2  1  0.61682900  0.53619600  0.85845500  1
  Nd  Nd3  1  0.11682900  0.96380400  0.14154500  1
  Ge  Ge0  1  0.10103300  0.08983600  0.88367900  1
  Ge  Ge1  1  0.60805800  0.79595500  0.18813300  1
  Ge  Ge2  1  0.89194200  0.20404500  0.68813300  1
  Ge  Ge3  1  0.10805800  0.70404500  0.81186700  1
  Ge  Ge4  1  0.40232800  0.63975600  0.36081500  1
  Ge  Ge5  1  0.90232800  0.86024400  0.63918500  1
  Ge  Ge6  1  0.59767200  0.13975600  0.13918500  1
  Ge  Ge7  1  0.09767200  0.36024400  0.86081500  1
  Ge  Ge8  1  0.39896700  0.91016400  0.38367900  1
  Ge  Ge9  1  0.89896700  0.58983600  0.61632100  1
  Ge  Ge10  1  0.39194200  0.29595500  0.31186700  1
  Ge  Ge11  1  0.60103300  0.41016400  0.11632100  1
  O  O0  1  0.14222700  0.93704000  0.32329500  1
  O  O1  1  0.64222700  0.56296000  0.67670500  1
  O  O2  1  0.85777300  0.43704000  0.17670500  1
  O  O3  1  0.35777300  0.06296000  0.82329500  1
  O  O4  1  0.35473400  0.68868700  0.88219300  1
  O  O5  1  0.85473400  0.81131300  0.11780700  1
  O  O6  1  0.64526600  0.18868700  0.61780700  1
  O  O7  1  0.14526600  0.31131300  0.38219300  1
  O  O8  1  0.50061200  0.50738600  0.02896000  1
  O  O9  1  0.00061200  0.99261400  0.97104000  1
  O  O10  1  0.49938800  0.00738600  0.47104000  1
  O  O11  1  0.99938800  0.49261400  0.52896000  1
  O  O12  1  0.38312600  0.76859500  0.43848600  1
  O  O13  1  0.88312600  0.73140500  0.56151400  1
  O  O14  1  0.11446300  0.83381800  0.73778600  1
  O  O15  1  0.61687400  0.26859500  0.06151400  1
  O  O16  1  0.36066200  0.80297000  0.11709400  1
  O  O17  1  0.86066200  0.69703000  0.88290600  1
  O  O18  1  0.63933800  0.30297000  0.38290600  1
  O  O19  1  0.13933800  0.19703000  0.61709400  1
  O  O20  1  0.12402600  0.60014600  0.70988500  1
  O  O21  1  0.62402600  0.89985400  0.29011500  1
  O  O22  1  0.87597400  0.10014600  0.79011500  1
  O  O23  1  0.37597400  0.39985400  0.20988500  1
  O  O24  1  0.36777200  0.38324200  0.81245800  1
  O  O25  1  0.86777200  0.11675800  0.18754200  1
  O  O26  1  0.63222800  0.88324200  0.68754200  1
  O  O27  1  0.13222800  0.61675800  0.31245800  1
  O  O28  1  0.95973700  0.46133700  0.93350500  1
  O  O29  1  0.45973700  0.03866300  0.06649500  1
  O  O30  1  0.04026300  0.96133700  0.56649500  1
  O  O31  1  0.54026300  0.53866300  0.43350500  1
  O  O32  1  0.38553700  0.16618200  0.23778600  1
  O  O33  1  0.88553700  0.33381800  0.76221400  1
  O  O34  1  0.61446300  0.66618200  0.26221400  1
  O  O35  1  0.11687400  0.23140500  0.93848600  1
loop_
_geom_bond_atom_site_label_1
_geom_bond_atom_site_label_2
_geom_bond_distance
_geom_bond_site_symmetry_2
Ba0 O16 2.743769 1_555
Ba0 O8 2.750493 1_555
Ba0 O28 2.793714 1_454
Ba0 O5 2.819771 1_455
Ba0 O2 2.851379 1_455
Ba0 O27 3.015482 1_555
Ba0 O4 3.126232 1_554
Ba0 O17 3.141840 1_454
Ba1 O17 2.743769 1_555
Ba1 O9 2.750493 1_655
Ba1 O29 2.793714 1_566
Ba1 O4 2.819771 1_555
Ba1 O3 2.851379 1_565
Ba1 O26 3.015482 1_555
Ba1 O5 3.126232 1_556
Ba1 O16 3.141840 1_556
Ba2 O18 2.743769 1_555
Ba2 O10 2.750493 1_555
Ba2 O30 2.793714 1_645
Ba2 O7 2.819771 1_655
Ba2 O0 2.851379 1_645
Ba2 O25 3.015482 1_555
Ba2 O6 3.126232 1_555
Ba2 O19 3.141840 1_655
Ba3 O19 2.743769 1_555
Ba3 O11 2.750493 1_455
Ba3 O31 2.793714 1_555
Ba3 O6 2.819771 1_555
Ba3 O1 2.851379 1_555
Ba3 O24 3.015482 1_555
Ba3 O7 3.126232 1_555
Ba3 O18 3.141840 1_555
Na0 O2 2.381284 1_455
Na0 O35 2.388231 1_554
Na0 O25 2.440334 1_455
Na0 O23 2.663103 1_555
Na0 O15 2.740073 1_455
Na0 O32 2.841517 1_555
Na1 O3 2.381284 1_555
Na1 O15 2.388231 1_556
Na1 O24 2.440334 1_555
Na1 O22 2.663103 1_555
Na1 O35 2.740073 1_555
Na1 O33 2.841517 1_555
Na2 O1 2.381284 1_555
Na2 O12 2.388231 1_555
Na2 O26 2.440334 1_555
Na2 O20 2.663103 1_555
Na2 O13 2.740073 1_555
Na2 O14 2.841517 1_555
Na3 O0 2.381284 1_655
Na3 O13 2.388231 1_555
Na3 O27 2.440334 1_655
Na3 O21 2.663103 1_555
Na3 O12 2.740073 1_655
Na3 O34 2.841517 1_555
Nd0 O10 2.357105 1_555
Nd0 O3 2.400324 1_555
Nd0 O6 2.408476 1_555
Nd0 O19 2.418394 1_555
Nd0 O26 2.418708 1_545
Nd0 O30 2.430151 1_545
Nd1 O11 2.357105 1_555
Nd1 O2 2.400324 1_555
Nd1 O7 2.408476 1_655
Nd1 O18 2.418394 1_555
Nd1 O27 2.418708 1_655
Nd1 O31 2.430151 1_555
Nd2 O8 2.357105 1_556
Nd2 O1 2.400324 1_555
Nd2 O4 2.408476 1_555
Nd2 O17 2.418394 1_555
Nd2 O24 2.418708 1_555
Nd2 O28 2.430151 1_555
Nd3 O9 2.357105 1_554
Nd3 O0 2.400324 1_555
Nd3 O5 2.408476 1_455
Nd3 O16 2.418394 1_555
Nd3 O25 2.418708 1_465
Nd3 O29 2.430151 1_565
Ge0 O9 1.729482 1_545
Ge0 O3 1.747283 1_555
Ge0 O22 1.816223 1_455
Ge0 O35 1.829312 1_555
Ge1 O5 1.739892 1_555
Ge1 O16 1.740886 1_555
Ge1 O21 1.818126 1_555
Ge1 O34 1.819836 1_555
Ge2 O6 1.739892 1_555
Ge2 O19 1.740886 1_655
Ge2 O22 1.818126 1_555
Ge2 O33 1.819836 1_555
Ge3 O4 1.739892 1_555
Ge3 O17 1.740886 1_455
Ge3 O20 1.818126 1_555
Ge3 O14 1.819836 1_555
Ge4 O31 1.736225 1_555
Ge4 O27 1.746772 1_555
Ge4 O34 1.829667 1_555
Ge4 O12 1.839108 1_555
Ge5 O30 1.736225 1_655
Ge5 O26 1.746772 1_555
Ge5 O14 1.829667 1_655
Ge5 O13 1.839108 1_555
Ge6 O29 1.736225 1_555
Ge6 O25 1.746772 1_555
Ge6 O32 1.829667 1_555
Ge6 O15 1.839108 1_555
Ge7 O28 1.736225 1_455
Ge7 O24 1.746772 1_555
Ge7 O33 1.829667 1_455
Ge7 O35 1.839108 1_555
Ge8 O10 1.729482 1_565
Ge8 O0 1.747283 1_555
Ge8 O21 1.816223 1_555
Ge8 O12 1.829312 1_555
Ge9 O11 1.729482 1_555
Ge9 O1 1.747283 1_555
Ge9 O20 1.816223 1_655
Ge9 O13 1.829312 1_555
Ge10 O7 1.739892 1_555
Ge10 O18 1.740886 1_555
Ge10 O23 1.818126 1_555
Ge10 O32 1.819836 1_555
Ge11 O8 1.729482 1_555
Ge11 O2 1.747283 1_555
Ge11 O23 1.816223 1_555
Ge11 O15 1.829312 1_555
