# generated using pymatgen
data_MoW(SeS)2
_symmetry_space_group_name_H-M   'P 1'
_cell_length_a   3.25312758
_cell_length_b   3.25312758
_cell_length_c   36.87998600
_cell_angle_alpha   90.00000000
_cell_angle_beta   90.00000000
_cell_angle_gamma   119.99999137
_symmetry_Int_Tables_number   1
_chemical_formula_structural   MoW(SeS)2
_chemical_formula_sum   'Mo2 W2 Se4 S4'
_cell_volume   338.00537544
_cell_formula_units_Z   2
loop_
 _symmetry_equiv_pos_site_id
 _symmetry_equiv_pos_as_xyz
  1  'x, y, z'
loop_
 _atom_site_type_symbol
 _atom_site_label
 _atom_site_symmetry_multiplicity
 _atom_site_fract_x
 _atom_site_fract_y
 _atom_site_fract_z
 _atom_site_occupancy
  Mo  Mo0  1  0.00000000  0.00000000  0.09391700  1
  Mo  Mo1  1  0.33333300  0.66666700  0.28180500  1
  W  W0  1  0.00000000  0.00000000  0.46966900  1
  W  W1  1  0.33333300  0.66666700  0.65754600  1
  Se  Se0  1  0.00000000  0.00000000  0.32779000  1
  Se  Se1  1  0.00000000  0.00000000  0.70392600  1
  Se  Se2  1  0.00000000  0.00000000  0.23577100  1
  Se  Se3  1  0.00000000  0.00000000  0.61117000  1
  S  S0  1  0.33333300  0.66666700  0.05200000  1
  S  S1  1  0.33333300  0.66666700  0.42766600  1
  S  S2  1  0.33333300  0.66666700  0.13583300  1
  S  S3  1  0.33333300  0.66666700  0.51165600  1
loop_
_geom_bond_atom_site_label_1
_geom_bond_atom_site_label_2
_geom_bond_distance
_geom_bond_site_symmetry_2
Mo0 S2 2.432549 1_545
Mo0 S2 2.432551 1_555
Mo0 S2 2.432551 1_445
Mo0 S0 2.432572 1_545
Mo0 S0 2.432575 1_555
Mo0 S0 2.432575 1_445
Mo1 Se0 2.530567 1_565
Mo1 Se0 2.530570 1_555
Mo1 Se0 2.530570 1_665
Mo1 Se2 2.531779 1_565
Mo1 Se2 2.531781 1_665
Mo1 Se2 2.531781 1_555
Se1 W1 2.540353 1_545
Se1 W1 2.540355 1_555
Se1 W1 2.540355 1_445
Se3 W1 2.540254 1_545
Se3 W1 2.540256 1_555
Se3 W1 2.540256 1_445
S1 W0 2.434589 1_565
S1 W0 2.434591 1_665
S1 W0 2.434591 1_555
S3 W0 2.434214 1_565
S3 W0 2.434216 1_555
S3 W0 2.434216 1_665
