# generated using pymatgen
data_VFe3(PO4)4
_symmetry_space_group_name_H-M   'P 1'
_cell_length_a   5.87676600
_cell_length_b   4.88080600
_cell_length_c   9.98086822
_cell_angle_alpha   89.98808260
_cell_angle_beta   90.00000000
_cell_angle_gamma   90.00000000
_symmetry_Int_Tables_number   1
_chemical_formula_structural   VFe3(PO4)4
_chemical_formula_sum   'V1 Fe3 P4 O16'
_cell_volume   286.28477759
_cell_formula_units_Z   1
loop_
 _symmetry_equiv_pos_site_id
 _symmetry_equiv_pos_as_xyz
  1  'x, y, z'
loop_
 _atom_site_type_symbol
 _atom_site_label
 _atom_site_symmetry_multiplicity
 _atom_site_fract_x
 _atom_site_fract_y
 _atom_site_fract_z
 _atom_site_occupancy
  V  V0  1  0.50000000  0.53297400  0.22922000  1
  Fe  Fe0  1  0.50000000  0.95310800  0.72592600  1
  Fe  Fe1  1  0.00000000  0.45298700  0.77422700  1
  Fe  Fe2  1  0.00000000  0.04387900  0.27283700  1
  P  P0  1  0.50000000  0.09758900  0.40697200  1
  P  P1  1  0.50000000  0.40088800  0.90422600  1
  P  P2  1  0.00000000  0.90199000  0.59437000  1
  P  P3  1  0.00000000  0.60098900  0.09473600  1
  O  O0  1  0.50000000  0.79199700  0.37991800  1
  O  O1  1  0.50000000  0.70896400  0.87780600  1
  O  O2  1  0.00000000  0.20991600  0.62143000  1
  O  O3  1  0.00000000  0.29276200  0.12205500  1
  O  O4  1  0.29575600  0.24821900  0.33316800  1
  O  O5  1  0.70427500  0.25255800  0.83110500  1
  O  O6  1  0.79563500  0.75333600  0.66755200  1
  O  O7  1  0.20428800  0.75037700  0.16708400  1
  O  O8  1  0.20436500  0.75333600  0.66755200  1
  O  O9  1  0.79571200  0.75037700  0.16708400  1
  O  O10  1  0.70424400  0.24821900  0.33316800  1
  O  O11  1  0.29572500  0.25255800  0.83110500  1
  O  O12  1  0.50000000  0.34558900  0.05401500  1
  O  O13  1  0.50000000  0.15709800  0.55692000  1
  O  O14  1  0.00000000  0.65349000  0.94350300  1
  O  O15  1  0.00000000  0.84680100  0.44402000  1
loop_
_geom_bond_atom_site_label_1
_geom_bond_atom_site_label_2
_geom_bond_distance
_geom_bond_site_symmetry_2
Fe0 O1 1.927989 1_555
Fe0 O13 1.958565 1_565
Fe0 O6 2.075786 1_555
Fe0 O8 2.075786 1_555
Fe0 O11 2.163323 1_565
Fe0 O5 2.163323 1_565
Fe1 O2 1.932362 1_555
Fe1 O14 1.952655 1_555
Fe1 O5 2.073486 1_455
Fe1 O11 2.073486 1_555
Fe1 O8 2.173560 1_555
Fe1 O6 2.173560 1_455
Fe2 O3 1.933827 1_555
Fe2 O15 1.960543 1_545
Fe2 O4 2.092484 1_555
Fe2 O10 2.092484 1_455
Fe2 O9 2.146668 1_445
Fe2 O7 2.146668 1_545
O0 P0 1.515835 1_565
O0 V0 1.965045 1_555
O1 P1 1.526552 1_555
O2 P2 1.527057 1_545
O3 P3 1.528851 1_555
O4 P0 1.588589 1_555
O4 V0 2.109060 1_555
O5 P1 1.580544 1_555
O6 P2 1.581813 1_655
O7 P3 1.579432 1_555
O7 V0 2.128457 1_555
O8 P2 1.581813 1_555
O9 P3 1.579432 1_655
O9 V0 2.128457 1_555
O10 P0 1.588589 1_555
O10 V0 2.109060 1_555
O11 P1 1.580544 1_555
O12 P1 1.519137 1_554
O12 V0 1.973597 1_555
O13 P0 1.524594 1_555
O14 P3 1.530980 1_556
O15 P2 1.524663 1_555
