# generated using pymatgen
data_Ca9(Si3O16)2
_symmetry_space_group_name_H-M   'P 1'
_cell_length_a   7.39645800
_cell_length_b   10.13477355
_cell_length_c   10.69863808
_cell_angle_alpha   100.32270144
_cell_angle_beta   109.95683656
_cell_angle_gamma   101.87958449
_symmetry_Int_Tables_number   1
_chemical_formula_structural   Ca9(Si3O16)2
_chemical_formula_sum   'Ca9 Si6 O32'
_cell_volume   710.03518134
_cell_formula_units_Z   1
loop_
 _symmetry_equiv_pos_site_id
 _symmetry_equiv_pos_as_xyz
  1  'x, y, z'
loop_
 _atom_site_type_symbol
 _atom_site_label
 _atom_site_symmetry_multiplicity
 _atom_site_fract_x
 _atom_site_fract_y
 _atom_site_fract_z
 _atom_site_occupancy
  Ca  Ca0  1  0.63630800  0.64720200  0.93706100  1
  Ca  Ca1  1  0.36369200  0.35279800  0.06293900  1
  Ca  Ca2  1  0.22034300  0.64625100  0.58341600  1
  Ca  Ca3  1  0.77965700  0.35374900  0.41658400  1
  Ca  Ca4  1  0.14882400  0.63028400  0.95080800  1
  Ca  Ca5  1  0.85117600  0.36971600  0.04919200  1
  Ca  Ca6  1  0.68864100  0.66796300  0.57322800  1
  Ca  Ca7  1  0.31135900  0.33203700  0.42677200  1
  Ca  Ca8  1  0.50000000  0.00000000  0.00000000  1
  Si  Si0  1  0.07482800  0.82425500  0.22031800  1
  Si  Si1  1  0.92517200  0.17574500  0.77968200  1
  Si  Si2  1  0.76702200  0.64075400  0.28704300  1
  Si  Si3  1  0.23297800  0.35924600  0.71295700  1
  Si  Si4  1  0.33637500  0.63103600  0.28729800  1
  Si  Si5  1  0.66362500  0.36896400  0.71270200  1
  O  O0  1  0.99350300  0.77191500  0.05636000  1
  O  O1  1  0.00649700  0.22808500  0.94364000  1
  O  O2  1  0.04890400  0.74826500  0.73812200  1
  O  O3  1  0.95109600  0.25173500  0.26187800  1
  O  O4  1  0.88204800  0.59126300  0.42340700  1
  O  O5  1  0.11795200  0.40873700  0.57659300  1
  O  O6  1  0.69523500  0.52863400  0.13815100  1
  O  O7  1  0.30476500  0.47136600  0.86184900  1
  O  O8  1  0.90765200  0.79082200  0.28618400  1
  O  O9  1  0.09234800  0.20917800  0.71381600  1
  O  O10  1  0.27236200  0.77908900  0.30440100  1
  O  O11  1  0.72763800  0.22091100  0.69559900  1
  O  O12  1  0.57787100  0.68405800  0.31706900  1
  O  O13  1  0.42212900  0.31594200  0.68293100  1
  O  O14  1  0.15942100  0.00930700  0.26424600  1
  O  O15  1  0.84057900  0.99069300  0.73575400  1
  O  O16  1  0.33086700  0.56812600  0.41661200  1
  O  O17  1  0.66913300  0.43187400  0.58338800  1
  O  O18  1  0.19992200  0.52557900  0.13461700  1
  O  O19  1  0.80007800  0.47442100  0.86538300  1
  O  O20  1  0.53897000  0.67884100  0.72149100  1
  O  O21  1  0.46103000  0.32115900  0.27850900  1
  O  O22  1  0.44888700  0.78035100  0.99350900  1
  O  O23  1  0.55111300  0.21964900  0.00649100  1
  O  O24  1  0.81467600  0.92698900  0.60608300  1
  O  O25  1  0.18532400  0.07301100  0.39391700  1
  O  O26  1  0.70458900  0.07575700  0.37756600  1
  O  O27  1  0.29541100  0.92424300  0.62243400  1
  O  O28  1  0.85453700  0.14237200  0.15432200  1
  O  O29  1  0.14546300  0.85762800  0.84567800  1
  O  O30  1  0.55734000  0.06681200  0.26944800  1
  O  O31  1  0.44266000  0.93318800  0.73055200  1
loop_
_geom_bond_atom_site_label_1
_geom_bond_atom_site_label_2
_geom_bond_distance
_geom_bond_site_symmetry_2
Ca0 O22 2.270896 1_555
Ca0 O20 2.273065 1_555
Ca0 O0 2.439632 1_556
Ca0 O19 2.479483 1_555
Ca0 O7 2.485284 1_555
Ca0 O6 2.600861 1_556
Ca1 O23 2.270896 1_555
Ca1 O21 2.273065 1_555
Ca1 O1 2.439632 1_554
Ca1 O18 2.479483 1_555
Ca1 O6 2.485284 1_555
Ca1 O7 2.600861 1_554
Ca2 O20 2.230143 1_555
Ca2 O16 2.288200 1_555
Ca2 O5 2.349891 1_555
Ca2 O4 2.379504 1_455
Ca2 O2 2.602983 1_555
Ca2 O27 2.682620 1_555
Ca3 O21 2.230143 1_555
Ca3 O17 2.288200 1_555
Ca3 O4 2.349891 1_555
Ca3 O5 2.379504 1_655
Ca3 O3 2.602983 1_555
Ca3 O26 2.682620 1_555
Ca4 O22 2.262017 1_555
Ca4 O18 2.354080 1_556
Ca4 O0 2.374655 1_456
Ca4 O7 2.407283 1_555
Ca4 O19 2.485966 1_455
Ca4 O2 2.710084 1_555
Ca4 O29 2.740020 1_555
Ca5 O23 2.262017 1_555
Ca5 O19 2.354080 1_554
Ca5 O1 2.374655 1_654
Ca5 O6 2.407283 1_555
Ca5 O18 2.485966 1_655
Ca5 O3 2.710084 1_555
Ca5 O28 2.740020 1_555
Ca6 O20 2.222613 1_555
Ca6 O17 2.391540 1_555
Ca6 O16 2.469271 1_555
Ca6 O2 2.501738 1_655
Ca6 O24 2.514392 1_555
Ca6 O4 2.606991 1_555
Ca6 O12 2.625072 1_555
Ca7 O21 2.222613 1_555
Ca7 O16 2.391540 1_555
Ca7 O17 2.469271 1_555
Ca7 O3 2.501738 1_455
Ca7 O25 2.514392 1_555
Ca7 O5 2.606991 1_555
Ca7 O13 2.625072 1_555
Ca8 O22 2.164122 1_544
Ca8 O23 2.164122 1_555
Ca8 O29 2.513446 1_544
Ca8 O28 2.513446 1_555
Ca8 O30 2.701133 1_555
Ca8 O31 2.701133 1_544
O0 Si0 1.592189 1_655
O1 Si1 1.592189 1_455
O2 O29 1.310986 1_555
O4 Si2 1.641491 1_555
O5 Si3 1.641491 1_555
O6 Si2 1.623614 1_555
O7 Si3 1.623614 1_555
O8 Si0 1.627332 1_655
O8 Si2 1.659937 1_555
O9 Si1 1.627332 1_455
O9 Si3 1.659937 1_555
O10 Si0 1.636818 1_555
O10 Si4 1.662029 1_555
O11 Si1 1.636818 1_555
O11 Si5 1.662029 1_555
O12 Si4 1.654053 1_555
O12 Si2 1.661986 1_555
O13 Si5 1.654053 1_555
O13 Si3 1.661986 1_555
O14 O25 1.350847 1_555
O14 Si0 1.769173 1_545
O15 O24 1.350847 1_555
O15 Si1 1.769173 1_565
O16 Si4 1.632819 1_555
O17 Si5 1.632819 1_555
O18 Si4 1.622960 1_555
O19 Si5 1.622960 1_555
O26 O30 1.262612 1_555
O27 O31 1.262612 1_555
O28 O3 1.310986 1_555
