# generated using pymatgen
data_Mg(IO3)2
_symmetry_space_group_name_H-M   'P 1'
_cell_length_a   5.02378001
_cell_length_b   5.64877284
_cell_length_c   5.64932420
_cell_angle_alpha   120.01450455
_cell_angle_beta   89.99611461
_cell_angle_gamma   89.99603401
_symmetry_Int_Tables_number   1
_chemical_formula_structural   Mg(IO3)2
_chemical_formula_sum   'Mg1 I2 O6'
_cell_volume   138.81882261
_cell_formula_units_Z   1
loop_
 _symmetry_equiv_pos_site_id
 _symmetry_equiv_pos_as_xyz
  1  'x, y, z'
loop_
 _atom_site_type_symbol
 _atom_site_label
 _atom_site_symmetry_multiplicity
 _atom_site_fract_x
 _atom_site_fract_y
 _atom_site_fract_z
 _atom_site_occupancy
  Mg  Mg0  1  0.57230700  0.00003200  0.99999400  1
  I  I0  1  0.52441900  0.33343900  0.66673000  1
  I  I1  1  0.98095900  0.66666100  0.33333900  1
  O  O0  1  0.34856900  0.24931400  0.34900400  1
  O  O1  1  0.34861800  0.65092400  0.90029000  1
  O  O2  1  0.34853900  0.09963000  0.75063100  1
  O  O3  1  0.80786300  0.73815900  0.64687700  1
  O  O4  1  0.80785600  0.35309200  0.09126600  1
  O  O5  1  0.80787000  0.90874800  0.26186700  1
loop_
_geom_bond_atom_site_label_1
_geom_bond_atom_site_label_2
_geom_bond_distance
_geom_bond_site_symmetry_2
Mg0 O0 2.087011 1_556
Mg0 O2 2.087541 1_555
Mg0 O1 2.087620 1_545
Mg0 O4 2.148314 1_556
Mg0 O3 2.148331 1_545
Mg0 O5 2.149031 1_546
I0 O1 1.835630 1_555
I0 O0 1.837120 1_555
I0 O2 1.837417 1_555
I1 O3 1.827783 1_555
I1 O4 1.827808 1_555
I1 O5 1.827972 1_555
