# generated using pymatgen
data_Sr2YCoCu2O7
_symmetry_space_group_name_H-M   'P 1'
_cell_length_a   5.46120630
_cell_length_b   5.48844657
_cell_length_c   12.21560166
_cell_angle_alpha   103.08136373
_cell_angle_beta   102.96579686
_cell_angle_gamma   89.73779229
_symmetry_Int_Tables_number   1
_chemical_formula_structural   Sr2YCoCu2O7
_chemical_formula_sum   'Sr4 Y2 Co2 Cu4 O14'
_cell_volume   347.13829283
_cell_formula_units_Z   2
loop_
 _symmetry_equiv_pos_site_id
 _symmetry_equiv_pos_as_xyz
  1  'x, y, z'
loop_
 _atom_site_type_symbol
 _atom_site_label
 _atom_site_symmetry_multiplicity
 _atom_site_fract_x
 _atom_site_fract_y
 _atom_site_fract_z
 _atom_site_occupancy
  Sr  Sr0  1  0.16033300  0.16332300  0.30205900  1
  Sr  Sr1  1  0.35827300  0.36189200  0.69667400  1
  Sr  Sr2  1  0.64172700  0.63810800  0.30332600  1
  Sr  Sr3  1  0.83966700  0.83667700  0.69794100  1
  Y  Y0  1  0.00000000  0.00000000  0.00000000  1
  Y  Y1  1  0.50000000  0.50000000  0.00000000  1
  Co  Co0  1  0.18278900  0.80701800  0.49976800  1
  Co  Co1  1  0.81721100  0.19298200  0.50023200  1
  Cu  Cu0  1  0.07248700  0.57335800  0.14479700  1
  Cu  Cu1  1  0.42474700  0.92672700  0.85261500  1
  Cu  Cu2  1  0.57525300  0.07327300  0.14738500  1
  Cu  Cu3  1  0.92751300  0.42664200  0.85520300  1
  O  O0  1  0.18464200  0.18615800  0.87179400  1
  O  O1  1  0.18703400  0.68703600  0.87586800  1
  O  O2  1  0.17660700  0.16451200  0.49942000  1
  O  O3  1  0.18653600  0.64758400  0.35179400  1
  O  O4  1  0.33383400  0.79620500  0.64798200  1
  O  O5  1  0.31118500  0.31165900  0.12228500  1
  O  O6  1  0.31413800  0.81388100  0.12777100  1
  O  O7  1  0.68586200  0.18611900  0.87222900  1
  O  O8  1  0.68881500  0.68834100  0.87771500  1
  O  O9  1  0.66616600  0.20379500  0.35201800  1
  O  O10  1  0.81346400  0.35241600  0.64820600  1
  O  O11  1  0.82339300  0.83548800  0.50058000  1
  O  O12  1  0.81296600  0.31296400  0.12413200  1
  O  O13  1  0.81535800  0.81384200  0.12820600  1
loop_
_geom_bond_atom_site_label_1
_geom_bond_atom_site_label_2
_geom_bond_distance
_geom_bond_site_symmetry_2
Co0 O3 1.825910 1_555
Co0 O4 1.827557 1_555
Co0 O2 1.963173 1_565
Co0 O11 1.970298 1_455
Co1 O10 1.825910 1_555
Co1 O9 1.827557 1_555
Co1 O11 1.963173 1_545
Co1 O2 1.970298 1_655
Cu0 O13 1.931698 1_455
Cu0 O6 1.947033 1_555
Cu0 O5 1.950100 1_555
Cu0 O12 1.951828 1_455
Cu0 O3 2.403534 1_555
Cu1 O0 1.942029 1_565
Cu1 O7 1.956669 1_565
Cu1 O1 1.961348 1_555
Cu1 O8 1.962519 1_555
Cu1 O4 2.375709 1_555
Cu2 O13 1.942029 1_545
Cu2 O6 1.956669 1_545
Cu2 O12 1.961348 1_555
Cu2 O5 1.962519 1_555
Cu2 O9 2.375709 1_555
Cu3 O0 1.931698 1_655
Cu3 O7 1.947033 1_555
Cu3 O8 1.950100 1_555
Cu3 O1 1.951828 1_655
Cu3 O10 2.403534 1_555
O0 Y0 2.440459 1_556
O0 Y1 2.445710 1_556
O0 Sr3 2.851735 1_445
O0 Sr1 2.873705 1_555
O1 Y0 2.406869 1_566
O1 Y1 2.408302 1_556
O1 Sr3 2.817958 1_455
O1 Sr1 2.825904 1_555
O2 Sr0 2.391032 1_555
O2 Sr1 2.391525 1_555
O3 Sr0 2.585966 1_555
O3 Sr2 2.679224 1_555
O3 Sr2 2.898746 1_455
O3 Sr0 3.022856 1_565
O4 Sr1 2.580101 1_555
O4 Sr3 2.690854 1_555
O4 Sr3 2.894346 1_455
O4 Sr1 3.023781 1_565
O5 Y1 2.400657 1_555
O5 Y0 2.403372 1_555
O5 Sr0 2.791316 1_555
O5 Sr2 2.793589 1_555
O6 Y1 2.431443 1_555
O6 Y0 2.434515 1_565
O6 Sr0 2.802856 1_565
O6 Sr2 2.815905 1_555
O7 Y1 2.431443 1_556
O7 Y0 2.434515 1_656
O7 Sr3 2.802856 1_545
O7 Sr1 2.815905 1_555
O8 Y1 2.400657 1_556
O8 Y0 2.403372 1_666
O8 Sr3 2.791316 1_555
O8 Sr1 2.793589 1_555
O9 Sr2 2.580101 1_555
O9 Sr0 2.690854 1_555
O9 Sr0 2.894346 1_655
O9 Sr2 3.023781 1_545
O10 Sr3 2.585966 1_555
O10 Sr1 2.679224 1_555
O10 Sr1 2.898746 1_655
O10 Sr3 3.022856 1_545
O11 Sr3 2.391032 1_555
O11 Sr2 2.391525 1_555
O12 Y0 2.406869 1_655
O12 Y1 2.408302 1_555
O12 Sr0 2.817958 1_655
O12 Sr2 2.825904 1_555
O13 Y0 2.440459 1_665
O13 Y1 2.445710 1_555
O13 Sr0 2.851735 1_665
O13 Sr2 2.873705 1_555
