# generated using pymatgen
data_Y2Cr3O9
_symmetry_space_group_name_H-M   'P 1'
_cell_length_a   5.25416500
_cell_length_b   7.55172811
_cell_length_c   16.32470574
_cell_angle_alpha   90.11463303
_cell_angle_beta   90.16524318
_cell_angle_gamma   90.10677344
_symmetry_Int_Tables_number   1
_chemical_formula_structural   Y2Cr3O9
_chemical_formula_sum   'Y8 Cr12 O36'
_cell_volume   647.72696940
_cell_formula_units_Z   4
loop_
 _symmetry_equiv_pos_site_id
 _symmetry_equiv_pos_as_xyz
  1  'x, y, z'
loop_
 _atom_site_type_symbol
 _atom_site_label
 _atom_site_symmetry_multiplicity
 _atom_site_fract_x
 _atom_site_fract_y
 _atom_site_fract_z
 _atom_site_occupancy
  Y  Y0  1  0.01172500  0.24758100  0.48321500  1
  Y  Y1  1  0.01909300  0.24507000  0.81212800  1
  Y  Y2  1  0.51075100  0.74938900  0.01736600  1
  Y  Y3  1  0.51705000  0.75497800  0.68697300  1
  Y  Y4  1  0.48924900  0.25061100  0.98263400  1
  Y  Y5  1  0.48295000  0.24502200  0.31302700  1
  Y  Y6  1  0.98090700  0.75493000  0.18787200  1
  Y  Y7  1  0.98827500  0.75241900  0.51678500  1
  Cr  Cr0  1  0.00000000  0.50000000  0.00000000  1
  Cr  Cr1  1  0.99049600  0.50373900  0.33500500  1
  Cr  Cr2  1  0.00950400  0.49626100  0.66499500  1
  Cr  Cr3  1  0.51154300  0.50511900  0.83417000  1
  Cr  Cr4  1  0.48845700  0.49488100  0.16583000  1
  Cr  Cr5  1  0.50000000  0.50000000  0.50000000  1
  Cr  Cr6  1  0.50530500  0.99034500  0.83413800  1
  Cr  Cr7  1  0.49469500  0.00965500  0.16586200  1
  Cr  Cr8  1  0.50000000  0.00000000  0.50000000  1
  Cr  Cr9  1  0.00000000  0.00000000  0.00000000  1
  Cr  Cr10  1  0.99433700  0.99038100  0.33500800  1
  Cr  Cr11  1  0.00566300  0.00961900  0.66499200  1
  O  O0  1  0.69198600  0.53389000  0.93665900  1
  O  O1  1  0.72320000  0.54083700  0.26244800  1
  O  O2  1  0.71446900  0.56475200  0.59806600  1
  O  O3  1  0.21634400  0.43644200  0.90251100  1
  O  O4  1  0.21987000  0.46487700  0.23974600  1
  O  O5  1  0.18323900  0.46606500  0.56495100  1
  O  O6  1  0.78281700  0.93734600  0.09720000  1
  O  O7  1  0.81151300  0.96663500  0.43763400  1
  O  O8  1  0.78470100  0.96500400  0.76396100  1
  O  O9  1  0.30614200  0.03302900  0.06269300  1
  O  O10  1  0.28404900  0.06140800  0.40224700  1
  O  O11  1  0.28674200  0.03549800  0.73624700  1
  O  O12  1  0.30801400  0.46611000  0.06334100  1
  O  O13  1  0.28553100  0.43524800  0.40193400  1
  O  O14  1  0.27680000  0.45916300  0.73755200  1
  O  O15  1  0.78365600  0.56355800  0.09748900  1
  O  O16  1  0.81676100  0.53393500  0.43504900  1
  O  O17  1  0.78013000  0.53512300  0.76025400  1
  O  O18  1  0.21718300  0.06265400  0.90280000  1
  O  O19  1  0.21529900  0.03499600  0.23603900  1
  O  O20  1  0.18848700  0.03336500  0.56236600  1
  O  O21  1  0.69385800  0.96697100  0.93730700  1
  O  O22  1  0.71325800  0.96450200  0.26375300  1
  O  O23  1  0.71595100  0.93859200  0.59775300  1
  O  O24  1  0.08271400  0.74898900  0.99232000  1
  O  O25  1  0.07834000  0.75636700  0.32644100  1
  O  O26  1  0.10276700  0.75183700  0.65521700  1
  O  O27  1  0.60284200  0.24892300  0.84549200  1
  O  O28  1  0.57221500  0.25358300  0.17144700  1
  O  O29  1  0.58329400  0.24427800  0.50675000  1
  O  O30  1  0.39715800  0.75107700  0.15450800  1
  O  O31  1  0.41670600  0.75572200  0.49325000  1
  O  O32  1  0.42778500  0.74641700  0.82855300  1
  O  O33  1  0.91728600  0.25101100  0.00768000  1
  O  O34  1  0.89723300  0.24816300  0.34478300  1
  O  O35  1  0.92166000  0.24363300  0.67355900  1
loop_
_geom_bond_atom_site_label_1
_geom_bond_atom_site_label_2
_geom_bond_distance
_geom_bond_site_symmetry_2
Cr0 O33 1.933473 1_455
Cr0 O24 1.933473 1_554
Cr0 O12 1.935647 1_555
Cr0 O0 1.935647 1_454
Cr0 O15 2.016109 1_455
Cr0 O3 2.016109 1_554
Cr1 O1 1.856622 1_555
Cr1 O16 1.886916 1_555
Cr1 O13 1.964630 1_655
Cr1 O25 1.967319 1_655
Cr1 O4 1.991763 1_655
Cr1 O34 1.997201 1_555
Cr2 O14 1.856622 1_555
Cr2 O5 1.886916 1_555
Cr2 O2 1.964630 1_455
Cr2 O35 1.967319 1_455
Cr2 O17 1.991763 1_455
Cr2 O26 1.997201 1_555
Cr3 O17 1.873118 1_555
Cr3 O32 1.877758 1_555
Cr3 O0 1.932345 1_555
Cr3 O3 1.982074 1_555
Cr3 O27 2.002949 1_555
Cr3 O14 2.028400 1_555
Cr4 O4 1.873118 1_555
Cr4 O28 1.877758 1_555
Cr4 O12 1.932345 1_555
Cr4 O15 1.982074 1_555
Cr4 O30 2.002949 1_555
Cr4 O1 2.028400 1_555
Cr5 O29 1.984114 1_555
Cr5 O31 1.984114 1_555
Cr5 O5 1.992371 1_555
Cr5 O16 1.992371 1_555
Cr5 O13 2.014001 1_555
Cr5 O2 2.014001 1_555
Cr6 O8 1.874550 1_555
Cr6 O32 1.887797 1_555
Cr6 O21 1.959944 1_555
Cr6 O18 1.963848 1_565
Cr6 O11 1.995446 1_565
Cr6 O27 2.025917 1_565
Cr7 O19 1.874550 1_555
Cr7 O28 1.887797 1_555
Cr7 O9 1.959944 1_555
Cr7 O6 1.963848 1_545
Cr7 O22 1.995446 1_545
Cr7 O30 2.025917 1_545
Cr8 O31 1.898043 1_545
Cr8 O29 1.898043 1_555
Cr8 O7 1.946553 1_545
Cr8 O20 1.946553 1_555
Cr8 O23 2.010842 1_545
Cr8 O10 2.010842 1_555
Cr9 O9 1.919630 1_555
Cr9 O21 1.919630 1_444
Cr9 O24 1.949409 1_544
Cr9 O33 1.949409 1_455
Cr9 O18 2.013767 1_554
Cr9 O6 2.013767 1_445
Cr10 O25 1.827476 1_655
Cr10 O22 1.886906 1_555
Cr10 O7 1.942032 1_555
Cr10 O10 1.947971 1_665
Cr10 O34 2.019489 1_565
Cr10 O19 2.020693 1_665
Cr11 O35 1.827476 1_455
Cr11 O11 1.886906 1_555
Cr11 O20 1.942032 1_555
Cr11 O23 1.947971 1_445
Cr11 O26 2.019489 1_545
Cr11 O8 2.020693 1_445
O0 Y2 2.301183 1_556
O0 Y4 2.505372 1_555
O1 Y6 2.436950 1_555
O1 Y5 2.696006 1_555
O2 Y3 2.291717 1_555
O2 Y7 2.418613 1_555
O3 Y1 2.305812 1_555
O3 Y4 2.395884 1_555
O4 Y5 2.470887 1_555
O4 Y6 2.665131 1_455
O5 Y0 2.300757 1_555
O5 Y7 2.520770 1_455
O6 Y6 2.275195 1_555
O6 Y2 2.393930 1_555
O7 Y7 2.270708 1_555
O7 Y0 2.478392 1_665
O8 Y3 2.458921 1_555
O8 Y1 2.566353 1_665
O9 Y4 2.311596 1_554
O9 Y2 2.509608 1_545
O10 Y5 2.268841 1_555
O10 Y0 2.404577 1_555
O11 Y1 2.455053 1_555
O11 Y3 2.570473 1_545
O12 Y4 2.301183 1_554
O12 Y2 2.505372 1_555
O13 Y5 2.291717 1_555
O13 Y0 2.418613 1_555
O14 Y1 2.436950 1_555
O14 Y3 2.696006 1_555
O15 Y6 2.305812 1_555
O15 Y2 2.395884 1_555
O16 Y7 2.300757 1_555
O16 Y0 2.520770 1_655
O17 Y3 2.470887 1_555
O17 Y1 2.665131 1_655
O18 Y1 2.275195 1_555
O18 Y4 2.393930 1_555
O19 Y5 2.458921 1_555
O19 Y6 2.566353 1_445
O20 Y0 2.270708 1_555
O20 Y7 2.478392 1_445
O21 Y2 2.311596 1_556
O21 Y4 2.509608 1_565
O22 Y6 2.455053 1_555
O22 Y5 2.570473 1_565
O23 Y3 2.268841 1_555
O23 Y7 2.404577 1_555
O24 Y2 2.284676 1_556
O25 Y6 2.317861 1_455
O26 Y3 2.236209 1_555
O26 Y7 2.336895 1_455
O27 Y1 2.255601 1_655
O27 Y4 2.318671 1_555
O28 Y5 2.360673 1_555
O29 Y0 2.284790 1_655
O30 Y6 2.255601 1_455
O30 Y2 2.318671 1_555
O31 Y7 2.284790 1_455
O32 Y3 2.360673 1_555
O33 Y4 2.284676 1_554
O34 Y5 2.236209 1_555
O34 Y0 2.336895 1_655
O35 Y1 2.317861 1_655
