# generated using pymatgen
data_Ca2Al4Si8O33
_symmetry_space_group_name_H-M   'P 1'
_cell_length_a   10.04166192
_cell_length_b   10.04166192
_cell_length_c   7.53729391
_cell_angle_alpha   75.27774724
_cell_angle_beta   75.27774724
_cell_angle_gamma   82.89991064
_symmetry_Int_Tables_number   1
_chemical_formula_structural   Ca2Al4Si8O33
_chemical_formula_sum   'Ca2 Al4 Si8 O33'
_cell_volume   709.52112897
_cell_formula_units_Z   1
loop_
 _symmetry_equiv_pos_site_id
 _symmetry_equiv_pos_as_xyz
  1  'x, y, z'
loop_
 _atom_site_type_symbol
 _atom_site_label
 _atom_site_symmetry_multiplicity
 _atom_site_fract_x
 _atom_site_fract_y
 _atom_site_fract_z
 _atom_site_occupancy
  Ca  Ca0  1  0.73824000  0.73824000  0.28037500  1
  Ca  Ca1  1  0.26176000  0.26176000  0.71962500  1
  Al  Al0  1  0.82495800  0.43319600  0.27094800  1
  Al  Al1  1  0.43319600  0.82495800  0.27094800  1
  Al  Al2  1  0.17504200  0.56680400  0.72905200  1
  Al  Al3  1  0.56680400  0.17504200  0.72905200  1
  Si  Si0  1  0.85243800  0.61739700  0.85650700  1
  Si  Si1  1  0.61739700  0.85243800  0.85650700  1
  Si  Si2  1  0.14756200  0.38260300  0.14349300  1
  Si  Si3  1  0.38260300  0.14756200  0.14349300  1
  Si  Si4  1  0.69622400  0.45954800  0.68747200  1
  Si  Si5  1  0.45954800  0.69622400  0.68747200  1
  Si  Si6  1  0.30377600  0.54045200  0.31252800  1
  Si  Si7  1  0.54045200  0.30377600  0.31252800  1
  O  O0  1  0.75456600  0.75456600  0.78603400  1
  O  O1  1  0.24543400  0.24543400  0.21396600  1
  O  O2  1  0.83122100  0.59027400  0.08716200  1
  O  O3  1  0.59027400  0.83122100  0.08716200  1
  O  O4  1  0.16877900  0.40972600  0.91283800  1
  O  O5  1  0.40972600  0.16877900  0.91283800  1
  O  O6  1  0.76631800  0.52104900  0.46058000  1
  O  O7  1  0.52104900  0.76631800  0.46058000  1
  O  O8  1  0.23368200  0.47895100  0.53942000  1
  O  O9  1  0.47895100  0.23368200  0.53942000  1
  O  O10  1  0.80087500  0.48342600  0.81090300  1
  O  O11  1  0.48342600  0.80087500  0.81090300  1
  O  O12  1  0.19912500  0.51657400  0.18909700  1
  O  O13  1  0.51657400  0.19912500  0.18909700  1
  O  O14  1  0.01010400  0.64603400  0.74700300  1
  O  O15  1  0.64603400  0.01010400  0.74700300  1
  O  O16  1  0.98989600  0.35396600  0.25299700  1
  O  O17  1  0.35396600  0.98989600  0.25299700  1
  O  O18  1  0.54980500  0.54980500  0.74202800  1
  O  O19  1  0.45019500  0.45019500  0.25797200  1
  O  O20  1  0.70182300  0.32593900  0.27402200  1
  O  O21  1  0.32593900  0.70182300  0.27402200  1
  O  O22  1  0.29817700  0.67406100  0.72597800  1
  O  O23  1  0.67406100  0.29817700  0.72597800  1
  O  O24  1  0.92080000  0.07920000  0.00000000  1
  O  O25  1  0.07920000  0.92080000  0.00000000  1
  O  O26  1  0.93908000  0.93908000  0.96124000  1
  O  O27  1  0.06092000  0.06092000  0.03876000  1
  O  O28  1  0.00000000  0.00000000  0.50000000  1
  O  O29  1  0.07074200  0.16559400  0.61765800  1
  O  O30  1  0.16559400  0.07074200  0.61765800  1
  O  O31  1  0.92925800  0.83440600  0.38234200  1
  O  O32  1  0.83440600  0.92925800  0.38234200  1
loop_
_geom_bond_atom_site_label_1
_geom_bond_atom_site_label_2
_geom_bond_distance
_geom_bond_site_symmetry_2
Ca0 O6 2.284280 1_555
Ca0 O7 2.284280 1_555
Ca0 O3 2.294777 1_555
Ca0 O2 2.294777 1_555
Ca0 O31 2.605157 1_555
Ca0 O32 2.605157 1_555
Ca1 O9 2.284280 1_555
Ca1 O8 2.284280 1_555
Ca1 O4 2.294777 1_555
Ca1 O5 2.294777 1_555
Ca1 O30 2.605157 1_555
Ca1 O29 2.605157 1_555
Al0 O20 1.729566 1_555
Al0 O16 1.734798 1_555
Al0 O6 1.803502 1_555
Al0 O2 1.811217 1_555
Al1 O21 1.729566 1_555
Al1 O17 1.734798 1_555
Al1 O7 1.803502 1_555
Al1 O3 1.811217 1_555
Al2 O22 1.729566 1_555
Al2 O14 1.734798 1_555
Al2 O8 1.803502 1_555
Al2 O4 1.811217 1_555
Al3 O23 1.729566 1_555
Al3 O15 1.734798 1_555
Al3 O9 1.803502 1_555
Al3 O5 1.811217 1_555
O0 Si0 1.644415 1_555
O0 Si1 1.644415 1_555
O1 Si3 1.644415 1_555
O1 Si2 1.644415 1_555
O2 Si0 1.651491 1_554
O3 Si1 1.651491 1_554
O4 Si2 1.651491 1_556
O5 Si3 1.651491 1_556
O6 Si4 1.661410 1_555
O7 Si5 1.661410 1_555
O8 Si6 1.661410 1_555
O9 Si7 1.661410 1_555
O10 Si0 1.641262 1_555
O10 Si4 1.643145 1_555
O11 Si1 1.641262 1_555
O11 Si5 1.643145 1_555
O12 Si2 1.641262 1_555
O12 Si6 1.643145 1_555
O13 Si3 1.641262 1_555
O13 Si7 1.643145 1_555
O14 Si0 1.611915 1_455
O15 Si1 1.611915 1_545
O16 Si2 1.611915 1_655
O17 Si3 1.611915 1_565
O18 Si4 1.644685 1_555
O18 Si5 1.644685 1_555
O19 Si7 1.644685 1_555
O19 Si6 1.644685 1_555
O20 Si7 1.605257 1_555
O21 Si6 1.605257 1_555
O22 Si5 1.605257 1_555
O23 Si4 1.605257 1_555
O24 O26 1.488833 1_544
O24 O27 1.488833 1_655
O25 O26 1.488833 1_454
O25 O27 1.488833 1_565
O29 O30 1.261007 1_555
O31 O32 1.261007 1_555
