# generated using pymatgen
data_Te2MoWSe2
_symmetry_space_group_name_H-M   'P 1'
_cell_length_a   3.44003638
_cell_length_b   3.44003638
_cell_length_c   14.57671600
_cell_angle_alpha   90.00000000
_cell_angle_beta   90.00000000
_cell_angle_gamma   120.00000723
_symmetry_Int_Tables_number   1
_chemical_formula_structural   Te2MoWSe2
_chemical_formula_sum   'Te2 Mo1 W1 Se2'
_cell_volume   149.38822339
_cell_formula_units_Z   1
loop_
 _symmetry_equiv_pos_site_id
 _symmetry_equiv_pos_as_xyz
  1  'x, y, z'
loop_
 _atom_site_type_symbol
 _atom_site_label
 _atom_site_symmetry_multiplicity
 _atom_site_fract_x
 _atom_site_fract_y
 _atom_site_fract_z
 _atom_site_occupancy
  Te  Te0  1  0.33333300  0.66666700  0.62908100  1
  Te  Te1  1  0.66666700  0.33333300  0.37135500  1
  Mo  Mo0  1  0.66666700  0.33333300  0.75723900  1
  W  W0  1  0.33333300  0.66666700  0.24279500  1
  Se  Se0  1  0.66666700  0.33333300  0.13123700  1
  Se  Se1  1  0.33333300  0.66666700  0.86829300  1
loop_
_geom_bond_atom_site_label_1
_geom_bond_atom_site_label_2
_geom_bond_distance
_geom_bond_site_symmetry_2
Te1 W0 2.730644 1_545
Te1 W0 2.730644 1_655
Te1 W0 2.730649 1_555
Mo0 Se1 2.562251 1_655
Mo0 Se1 2.562251 1_545
Mo0 Se1 2.562256 1_555
Mo0 Te0 2.726626 1_545
Mo0 Te0 2.726626 1_655
Mo0 Te0 2.726631 1_555
Se0 W0 2.566899 1_545
Se0 W0 2.566899 1_655
Se0 W0 2.566904 1_555
