# generated using pymatgen
data_CoMoO4
_symmetry_space_group_name_H-M   'P 1'
_cell_length_a   4.59387324
_cell_length_b   4.89199058
_cell_length_c   5.66192484
_cell_angle_alpha   90.00000000
_cell_angle_beta   90.00000000
_cell_angle_gamma   90.90300925
_symmetry_Int_Tables_number   1
_chemical_formula_structural   CoMoO4
_chemical_formula_sum   'Co2 Mo2 O8'
_cell_volume   127.22567958
_cell_formula_units_Z   2
loop_
 _symmetry_equiv_pos_site_id
 _symmetry_equiv_pos_as_xyz
  1  'x, y, z'
loop_
 _atom_site_type_symbol
 _atom_site_label
 _atom_site_symmetry_multiplicity
 _atom_site_fract_x
 _atom_site_fract_y
 _atom_site_fract_z
 _atom_site_occupancy
  Co  Co0  1  0.50000000  0.25000000  0.66429534  1
  Co  Co1  1  0.50000000  0.75000000  0.33570466  1
  Mo  Mo0  1  -0.00000000  0.25000000  0.18471927  1
  Mo  Mo1  1  -0.00000000  0.75000000  0.81528073  1
  O  O0  1  0.74002564  0.40238980  0.37695212  1
  O  O1  1  0.25997436  0.09761020  0.37695212  1
  O  O2  1  0.25997436  0.59761020  0.62304788  1
  O  O3  1  0.74002564  0.90238980  0.62304788  1
  O  O4  1  0.77911143  0.92982321  0.10971268  1
  O  O5  1  0.22088857  0.57017679  0.10971268  1
  O  O6  1  0.22088857  0.07017679  0.89028732  1
  O  O7  1  0.77911143  0.42982321  0.89028732  1
loop_
_geom_bond_atom_site_label_1
_geom_bond_atom_site_label_2
_geom_bond_distance
_geom_bond_site_symmetry_2
Co0 O7 2.004894 1_555
Co0 O6 2.004894 1_555
Co0 O2 2.054554 1_555
Co0 O3 2.054554 1_545
Co0 O0 2.095837 1_555
Co0 O1 2.095837 1_555
Co1 O4 2.004894 1_555
Co1 O5 2.004894 1_555
Co1 O1 2.054554 1_565
Co1 O0 2.054554 1_555
Co1 O3 2.095837 1_555
Co1 O2 2.095837 1_555
Mo0 O0 1.787394 1_455
Mo0 O1 1.787394 1_555
Mo0 O4 1.900854 1_445
Mo0 O5 1.900854 1_555
Mo0 O7 2.147264 1_454
Mo0 O6 2.147264 1_554
Mo1 O3 1.787394 1_455
Mo1 O2 1.787394 1_555
Mo1 O7 1.900854 1_455
Mo1 O6 1.900854 1_565
Mo1 O4 2.147264 1_456
Mo1 O5 2.147264 1_556
