# generated using pymatgen
data_Rb8Ti3Cr2Ni3(P2O7)8
_symmetry_space_group_name_H-M   'P 1'
_cell_length_a   7.65960517
_cell_length_b   8.38356104
_cell_length_c   20.24913997
_cell_angle_alpha   90.03659543
_cell_angle_beta   90.03274547
_cell_angle_gamma   105.80263576
_symmetry_Int_Tables_number   1
_chemical_formula_structural   Rb8Ti3Cr2Ni3(P2O7)8
_chemical_formula_sum   'Rb8 Ti3 Cr2 Ni3 P16 O56'
_cell_volume   1251.14918709
_cell_formula_units_Z   1
loop_
 _symmetry_equiv_pos_site_id
 _symmetry_equiv_pos_as_xyz
  1  'x, y, z'
loop_
 _atom_site_type_symbol
 _atom_site_label
 _atom_site_symmetry_multiplicity
 _atom_site_fract_x
 _atom_site_fract_y
 _atom_site_fract_z
 _atom_site_occupancy
  Rb  Rb0  1  0.18231300  0.55123400  0.40302500  1
  Rb  Rb1  1  0.19103500  0.54242200  0.90478000  1
  Rb  Rb2  1  0.18689800  0.06118200  0.34373400  1
  Rb  Rb3  1  0.19166100  0.04860200  0.84244100  1
  Rb  Rb4  1  0.81313900  0.96337700  0.15747200  1
  Rb  Rb5  1  0.80968600  0.94386900  0.65629700  1
  Rb  Rb6  1  0.80773600  0.43714600  0.09694100  1
  Rb  Rb7  1  0.81338000  0.45441300  0.59688700  1
  Ti  Ti0  1  0.23843500  0.75868900  0.20109400  1
  Ti  Ti1  1  0.23875800  0.25791400  0.55054400  1
  Ti  Ti2  1  0.76249200  0.74142000  0.95075000  1
  Cr  Cr0  1  0.75920600  0.74095800  0.44826100  1
  Cr  Cr1  1  0.76278000  0.24032900  0.79906200  1
  Ni  Ni0  1  0.23776700  0.75966400  0.70079700  1
  Ni  Ni1  1  0.23723000  0.25942400  0.04970900  1
  Ni  Ni2  1  0.76092700  0.24115900  0.30140300  1
  P  P0  1  0.12729900  0.83249300  0.04833900  1
  P  P1  1  0.12701500  0.82884000  0.54778600  1
  P  P2  1  0.13208800  0.32931600  0.20214800  1
  P  P3  1  0.12857800  0.33165700  0.70267100  1
  P  P4  1  0.42620700  0.68846500  0.06366700  1
  P  P5  1  0.43105000  0.68524700  0.56553100  1
  P  P6  1  0.57464800  0.81235500  0.31428000  1
  P  P7  1  0.56730400  0.81323900  0.81602700  1
  P  P8  1  0.43546100  0.18409100  0.18242600  1
  P  P9  1  0.43031900  0.18877000  0.68667700  1
  P  P10  1  0.57425800  0.31581600  0.43574400  1
  P  P11  1  0.56505400  0.31337600  0.93231700  1
  P  P12  1  0.87178700  0.66856000  0.29790100  1
  P  P13  1  0.86814800  0.66821800  0.79838000  1
  P  P14  1  0.87136300  0.16776700  0.45251300  1
  P  P15  1  0.86814300  0.17080300  0.95106300  1
  O  O0  1  0.01894700  0.77322900  0.24978700  1
  O  O1  1  0.00580300  0.77867100  0.75317700  1
  O  O2  1  0.09073700  0.75658700  0.11859000  1
  O  O3  1  0.07859200  0.76537900  0.61729400  1
  O  O4  1  0.00435100  0.27360900  0.99866700  1
  O  O5  1  0.01587300  0.26573200  0.50283900  1
  O  O6  1  0.16510800  0.52111000  0.20698400  1
  O  O7  1  0.13998200  0.51131200  0.70563000  1
  O  O8  1  0.08070100  0.26869200  0.13221900  1
  O  O9  1  0.09468100  0.25974200  0.63106100  1
  O  O10  1  0.31909000  0.80452000  0.02442100  1
  O  O11  1  0.31813400  0.79533600  0.52561400  1
  O  O12  1  0.13714700  0.01111000  0.04404300  1
  O  O13  1  0.16037800  0.01814400  0.54199300  1
  O  O14  1  0.38305500  0.76276800  0.28232000  1
  O  O15  1  0.37320100  0.76443000  0.79254100  1
  O  O16  1  0.32459000  0.51275600  0.05024000  1
  O  O17  1  0.32213600  0.50354600  0.55128700  1
  O  O18  1  0.43681700  0.74493600  0.13694800  1
  O  O19  1  0.44466700  0.73283200  0.63782700  1
  O  O20  1  0.32682000  0.29883600  0.22166400  1
  O  O21  1  0.32325300  0.30596100  0.72510600  1
  O  O22  1  0.38675300  0.26965000  0.47072300  1
  O  O23  1  0.37399400  0.26833100  0.95866900  1
  O  O24  1  0.32230600  0.00163300  0.19800900  1
  O  O25  1  0.32668100  0.01299400  0.70025000  1
  O  O26  1  0.55429800  0.75242800  0.38661500  1
  O  O27  1  0.57149300  0.76514700  0.89084700  1
  O  O28  1  0.44126800  0.22641900  0.10948500  1
  O  O29  1  0.43349500  0.24100400  0.61238700  1
  O  O30  1  0.67940200  0.98811100  0.30223200  1
  O  O31  1  0.67854800  0.98931500  0.80128400  1
  O  O32  1  0.61901000  0.73117500  0.53362700  1
  O  O33  1  0.61939200  0.74071500  0.03396900  1
  O  O34  1  0.68076700  0.69747100  0.27354700  1
  O  O35  1  0.67083600  0.69246800  0.77863700  1
  O  O36  1  0.55007600  0.26198800  0.36428200  1
  O  O37  1  0.56399400  0.26730400  0.85861900  1
  O  O38  1  0.68326600  0.49308800  0.44969000  1
  O  O39  1  0.67441200  0.49462200  0.94804500  1
  O  O40  1  0.62322800  0.22598200  0.21243000  1
  O  O41  1  0.62586600  0.24325300  0.71230400  1
  O  O42  1  0.84687200  0.98409700  0.45849300  1
  O  O43  1  0.84335400  0.98216900  0.95601900  1
  O  O44  1  0.68234800  0.20224200  0.47624200  1
  O  O45  1  0.67270800  0.19784700  0.97124800  1
  O  O46  1  0.91446800  0.74858100  0.36670900  1
  O  O47  1  0.90455600  0.73363300  0.87122200  1
  O  O48  1  0.85814700  0.48886100  0.29381900  1
  O  O49  1  0.85399300  0.48571200  0.79526100  1
  O  O50  1  0.98881800  0.73140300  0.49755700  1
  O  O51  1  0.98040100  0.72420700  0.00173300  1
  O  O52  1  0.92140500  0.24248700  0.38481600  1
  O  O53  1  0.91238600  0.23328300  0.87982400  1
  O  O54  1  0.99992700  0.23335000  0.25290800  1
  O  O55  1  0.98530800  0.21897800  0.74758200  1
loop_
_geom_bond_atom_site_label_1
_geom_bond_atom_site_label_2
_geom_bond_distance
_geom_bond_site_symmetry_2
Cr0 O42 1.975499 1_555
Cr0 O38 1.999791 1_555
Cr0 O32 2.025394 1_555
Cr0 O46 2.026415 1_555
Cr0 O26 2.027544 1_555
Cr0 O50 2.042256 1_555
Cr1 O49 1.985827 1_555
Cr1 O37 2.003296 1_555
Cr1 O53 2.006460 1_555
Cr1 O31 2.026678 1_545
Cr1 O55 2.047412 1_555
Cr1 O41 2.049048 1_555
Ni0 O7 2.014097 1_555
Ni0 O25 2.046157 1_565
Ni0 O3 2.092217 1_555
Ni0 O19 2.093815 1_555
Ni0 O1 2.112666 1_555
Ni0 O15 2.122275 1_555
Ni1 O12 2.016171 1_555
Ni1 O16 2.045590 1_555
Ni1 O28 2.053766 1_555
Ni1 O8 2.070702 1_555
Ni1 O4 2.092312 1_554
Ni1 O23 2.112145 1_554
Ni2 O48 2.012158 1_555
Ni2 O30 2.041882 1_545
Ni2 O40 2.073385 1_555
Ni2 O52 2.086639 1_555
Ni2 O54 2.094537 1_555
Ni2 O36 2.101346 1_555
O0 P12 1.566328 1_455
O0 Ti0 1.981615 1_555
O0 Rb2 3.066184 1_565
O0 Rb4 3.144787 1_455
O1 P13 1.509110 1_455
O1 Rb3 2.941438 1_565
O1 Rb5 3.025928 1_455
O2 P0 1.552902 1_555
O2 Ti0 2.014481 1_555
O2 Rb6 2.983053 1_455
O2 Rb4 3.186590 1_455
O3 P1 1.515154 1_555
O3 Rb7 2.864809 1_455
O3 Rb5 2.963840 1_455
O4 P15 1.506165 1_455
O4 Rb1 2.998532 1_555
O4 Rb6 3.038450 1_456
O5 P14 1.562281 1_455
O5 Ti1 1.977658 1_555
O5 Rb0 3.128329 1_555
O5 Rb7 3.141702 1_455
O6 P2 1.561163 1_555
O6 Ti0 1.920384 1_555
O6 Rb6 3.448949 1_455
O7 P3 1.485910 1_555
O7 Rb7 3.267533 1_455
O8 P2 1.519140 1_555
O8 Rb4 2.856408 1_445
O8 Rb6 2.912726 1_455
O9 P3 1.564199 1_555
O9 Ti1 1.971687 1_555
O9 Rb5 2.982208 1_445
O9 Rb7 3.114469 1_455
O10 P0 1.623562 1_555
O10 P4 1.639021 1_555
O10 Rb1 3.236668 1_554
O11 P1 1.627266 1_555
O11 P5 1.639540 1_555
O11 Rb0 3.203617 1_555
O12 P0 1.481302 1_545
O12 Rb4 3.325897 1_445
O13 P1 1.541800 1_545
O13 Ti1 1.942466 1_555
O13 Rb5 3.472511 1_445
O14 P6 1.552922 1_555
O14 Ti0 1.977543 1_555
O14 Rb0 3.163521 1_555
O14 Rb2 3.479691 1_565
O15 P7 1.507195 1_555
O15 Rb1 3.028364 1_555
O15 Rb3 3.230023 1_565
O16 P4 1.491458 1_555
O16 Rb1 3.149606 1_554
O17 P5 1.551328 1_555
O17 Ti1 1.983015 1_555
O17 Rb0 3.248229 1_555
O18 P4 1.552624 1_555
O18 Ti0 2.026546 1_555
O18 Rb4 2.992944 1_555
O19 P5 1.513122 1_555
O19 Rb5 2.896712 1_555
O20 P2 1.628893 1_555
O20 P8 1.638572 1_555
O20 Rb2 3.174022 1_555
O21 P3 1.628058 1_555
O21 P9 1.637653 1_555
O21 Rb3 3.184494 1_555
O22 P10 1.553367 1_555
O22 Ti1 1.961808 1_555
O22 Rb2 3.246944 1_555
O22 Rb0 3.452413 1_555
O23 P11 1.506374 1_555
O23 Rb3 3.077726 1_555
O23 Rb1 3.192198 1_555
O24 P8 1.571446 1_555
O24 Ti0 1.962770 1_545
O24 Rb2 3.211829 1_555
O25 P9 1.496968 1_555
O25 Rb3 3.101483 1_555
O26 P6 1.542939 1_555
O26 Rb0 2.908262 1_555
O27 P7 1.570574 1_555
O27 Ti2 1.951404 1_555
O27 Rb1 3.016027 1_555
O28 P8 1.517089 1_555
O28 Rb6 2.892281 1_555
O29 P9 1.565369 1_555
O29 Ti1 1.981522 1_555
O29 Rb7 2.988744 1_555
O30 P6 1.493711 1_555
O30 Rb4 3.130974 1_555
O31 P7 1.519857 1_555
O31 Rb5 3.159711 1_555
O32 P5 1.528987 1_555
O32 Rb5 3.170880 1_555
O32 Rb7 3.335264 1_555
O33 P4 1.546418 1_555
O33 Ti2 2.009888 1_554
O33 Rb4 3.228319 1_555
O33 Rb6 3.490825 1_555
O34 P12 1.623327 1_555
O34 P6 1.641576 1_555
O34 Rb4 3.209419 1_555
O35 P13 1.628508 1_555
O35 P7 1.632253 1_555
O35 Rb5 3.240213 1_555
O36 P10 1.511696 1_555
O36 Rb2 2.862298 1_555
O37 P11 1.540720 1_555
O37 Rb3 2.958497 1_555
O38 P10 1.519523 1_555
O38 Rb7 3.186891 1_555
O39 P11 1.554917 1_555
O39 Ti2 1.994656 1_555
O39 Rb6 3.260631 1_556
O40 P8 1.511479 1_555
O40 Rb6 3.040809 1_555
O40 Rb4 3.153454 1_545
O41 P9 1.532171 1_555
O41 Rb7 3.046814 1_555
O41 Rb5 3.389860 1_545
O42 P14 1.504594 1_565
O42 Rb2 3.419489 1_665
O43 P15 1.543927 1_565
O43 Ti2 1.946140 1_555
O43 Rb3 3.452037 1_665
O44 P14 1.624499 1_555
O44 P10 1.641377 1_555
O44 Rb7 3.206197 1_555
O45 P15 1.626275 1_555
O45 P11 1.635447 1_555
O45 Rb6 3.229974 1_556
O46 P12 1.541771 1_555
O46 Rb2 2.909135 1_665
O46 Rb0 3.055417 1_655
O47 P13 1.571405 1_555
O47 Ti2 1.955046 1_555
O47 Rb3 2.998169 1_665
O47 Rb1 3.124419 1_655
O48 P12 1.483728 1_555
O48 Rb0 3.257867 1_655
O49 P13 1.505428 1_555
O49 Rb1 3.336525 1_655
O50 P1 1.532648 1_655
O50 Rb0 3.059582 1_655
O50 Rb7 3.090825 1_555
O51 P0 1.556327 1_655
O51 Ti2 2.000471 1_554
O51 Rb6 3.087532 1_555
O51 Rb1 3.180999 1_654
O52 P14 1.513061 1_555
O52 Rb0 2.830222 1_655
O52 Rb2 2.970117 1_655
O53 P15 1.541086 1_555
O53 Rb1 2.917526 1_655
O53 Rb3 3.057830 1_655
O54 P2 1.512338 1_655
O54 Rb2 2.939901 1_655
O54 Rb4 3.021881 1_545
O55 P3 1.536648 1_655
O55 Rb5 2.974500 1_545
O55 Rb3 3.075325 1_655
