# generated using pymatgen
data_SrMg14FeO16
_symmetry_space_group_name_H-M   'P 1'
_cell_length_a   8.69339045
_cell_length_b   8.63271187
_cell_length_c   4.41807687
_cell_angle_alpha   90.00000000
_cell_angle_beta   90.00000000
_cell_angle_gamma   90.00000000
_symmetry_Int_Tables_number   1
_chemical_formula_structural   SrMg14FeO16
_chemical_formula_sum   'Sr1 Mg14 Fe1 O16'
_cell_volume   331.56577822
_cell_formula_units_Z   1
loop_
 _symmetry_equiv_pos_site_id
 _symmetry_equiv_pos_as_xyz
  1  'x, y, z'
loop_
 _atom_site_type_symbol
 _atom_site_label
 _atom_site_symmetry_multiplicity
 _atom_site_fract_x
 _atom_site_fract_y
 _atom_site_fract_z
 _atom_site_occupancy
  Sr  Sr0  1  0.00000000  0.50000000  0.00000000  1
  Mg  Mg0  1  0.50000000  0.00000000  0.00000000  1
  Mg  Mg1  1  0.50000000  0.50000000  0.00000000  1
  Mg  Mg2  1  0.00000000  0.24042177  0.50000000  1
  Mg  Mg3  1  0.00000000  0.75957823  0.50000000  1
  Mg  Mg4  1  0.50000000  0.24799669  0.50000000  1
  Mg  Mg5  1  0.50000000  0.75200331  0.50000000  1
  Mg  Mg6  1  0.25012831  0.00000000  0.50000000  1
  Mg  Mg7  1  0.25965655  0.50000000  0.50000000  1
  Mg  Mg8  1  0.74987169  0.00000000  0.50000000  1
  Mg  Mg9  1  0.74034345  0.50000000  0.50000000  1
  Mg  Mg10  1  0.25755280  0.24389613  0.00000000  1
  Mg  Mg11  1  0.25755280  0.75610387  0.00000000  1
  Mg  Mg12  1  0.74244720  0.24389613  0.00000000  1
  Mg  Mg13  1  0.74244720  0.75610387  0.00000000  1
  Fe  Fe0  1  0.00000000  0.00000000  0.00000000  1
  O  O0  1  0.26164133  0.00000000  0.00000000  1
  O  O1  1  0.27125531  0.50000000  0.00000000  1
  O  O2  1  0.73835867  0.00000000  0.00000000  1
  O  O3  1  0.72874469  0.50000000  0.00000000  1
  O  O4  1  0.24910117  0.24993122  0.50000000  1
  O  O5  1  0.24910117  0.75006878  0.50000000  1
  O  O6  1  0.75089883  0.24993122  0.50000000  1
  O  O7  1  0.75089883  0.75006878  0.50000000  1
  O  O8  1  0.00000000  0.00000000  0.50000000  1
  O  O9  1  0.00000000  0.50000000  0.50000000  1
  O  O10  1  0.50000000  0.00000000  0.50000000  1
  O  O11  1  0.50000000  0.50000000  0.50000000  1
  O  O12  1  0.00000000  0.23005609  0.00000000  1
  O  O13  1  0.00000000  0.76994391  0.00000000  1
  O  O14  1  0.50000000  0.24710537  0.00000000  1
  O  O15  1  0.50000000  0.75289463  0.00000000  1
loop_
_geom_bond_atom_site_label_1
_geom_bond_atom_site_label_2
_geom_bond_distance
_geom_bond_site_symmetry_2
Mg0 O2 2.072145 1_555
Mg0 O0 2.072145 1_555
Mg0 O15 2.133189 1_545
Mg0 O14 2.133189 1_555
Mg0 O10 2.209038 1_555
Mg0 O10 2.209038 1_554
Mg1 O3 1.988567 1_555
Mg1 O1 1.988567 1_555
Mg1 O15 2.183166 1_555
Mg1 O14 2.183166 1_555
Mg1 O11 2.209038 1_554
Mg1 O11 2.209038 1_555
Mg2 O8 2.075492 1_555
Mg2 O4 2.167089 1_555
Mg2 O6 2.167089 1_455
Mg2 O12 2.210850 1_555
Mg2 O12 2.210850 1_556
Mg2 O9 2.240864 1_555
Mg3 O8 2.075492 1_565
Mg3 O7 2.167089 1_455
Mg3 O5 2.167089 1_555
Mg3 O13 2.210850 1_555
Mg3 O13 2.210850 1_556
Mg3 O9 2.240864 1_555
Mg4 O10 2.140884 1_555
Mg4 O11 2.175472 1_555
Mg4 O6 2.181225 1_555
Mg4 O4 2.181225 1_555
Mg4 O14 2.209052 1_555
Mg4 O14 2.209052 1_556
Mg5 O10 2.140884 1_565
Mg5 O11 2.175472 1_555
Mg5 O5 2.181225 1_555
Mg5 O7 2.181225 1_555
Mg5 O15 2.209052 1_556
Mg5 O15 2.209052 1_555
Mg6 O4 2.157603 1_555
Mg6 O5 2.157603 1_545
Mg6 O10 2.172232 1_555
Mg6 O8 2.174463 1_555
Mg6 O0 2.211305 1_555
Mg6 O0 2.211305 1_556
Mg7 O11 2.089399 1_555
Mg7 O4 2.160721 1_555
Mg7 O5 2.160721 1_555
Mg7 O1 2.211339 1_556
Mg7 O1 2.211339 1_555
Mg7 O9 2.257296 1_555
Mg8 O6 2.157603 1_555
Mg8 O7 2.157603 1_545
Mg8 O10 2.172232 1_555
Mg8 O8 2.174463 1_655
Mg8 O2 2.211305 1_556
Mg8 O2 2.211305 1_555
Mg9 O11 2.089399 1_555
Mg9 O6 2.160721 1_555
Mg9 O7 2.160721 1_555
Mg9 O3 2.211339 1_556
Mg9 O3 2.211339 1_555
Mg9 O9 2.257296 1_655
Mg10 O0 2.105785 1_555
Mg10 O14 2.107870 1_555
Mg10 O4 2.210874 1_554
Mg10 O4 2.210874 1_555
Mg10 O1 2.214078 1_555
Mg10 O12 2.242193 1_555
Mg11 O0 2.105785 1_565
Mg11 O15 2.107870 1_555
Mg11 O5 2.210874 1_554
Mg11 O5 2.210874 1_555
Mg11 O1 2.214078 1_555
Mg11 O13 2.242193 1_555
Mg12 O2 2.105785 1_555
Mg12 O14 2.107870 1_555
Mg12 O6 2.210874 1_555
Mg12 O6 2.210874 1_554
Mg12 O3 2.214078 1_555
Mg12 O12 2.242193 1_655
Mg13 O2 2.105785 1_565
Mg13 O15 2.107870 1_555
Mg13 O7 2.210874 1_555
Mg13 O7 2.210874 1_554
Mg13 O3 2.214078 1_555
Mg13 O13 2.242193 1_655
Fe0 O13 1.986008 1_545
Fe0 O12 1.986008 1_555
Fe0 O8 2.209038 1_555
Fe0 O8 2.209038 1_554
Fe0 O0 2.274550 1_555
Fe0 O2 2.274550 1_455
O1 Sr0 2.358128 1_555
O3 Sr0 2.358128 1_655
O9 Sr0 2.209038 1_556
O9 Sr0 2.209038 1_555
O12 Sr0 2.330348 1_555
O13 Sr0 2.330348 1_555
