# generated using pymatgen
data_Na2MnCdFe(PO4)3
_symmetry_space_group_name_H-M   'P 1'
_cell_length_a   8.88997052
_cell_length_b   8.88997052
_cell_length_c   6.64713826
_cell_angle_alpha   73.39023832
_cell_angle_beta   73.39023832
_cell_angle_gamma   92.57370365
_symmetry_Int_Tables_number   1
_chemical_formula_structural   Na2MnCdFe(PO4)3
_chemical_formula_sum   'Na4 Mn2 Cd2 Fe2 P6 O24'
_cell_volume   477.80052263
_cell_formula_units_Z   2
loop_
 _symmetry_equiv_pos_site_id
 _symmetry_equiv_pos_as_xyz
  1  'x, y, z'
loop_
 _atom_site_type_symbol
 _atom_site_label
 _atom_site_symmetry_multiplicity
 _atom_site_fract_x
 _atom_site_fract_y
 _atom_site_fract_z
 _atom_site_occupancy
  Na  Na0  1  0.98007000  0.01993000  0.50000000  1
  Na  Na1  1  0.02463700  0.97536300  0.00000000  1
  Na  Na2  1  0.50183700  0.49827900  0.25069800  1
  Na  Na3  1  0.50172100  0.49816300  0.74930200  1
  Mn  Mn0  1  0.37534800  0.07090900  0.61103700  1
  Mn  Mn1  1  0.92909100  0.62465200  0.38896300  1
  Cd  Cd0  1  0.27089600  0.72910400  0.50000000  1
  Cd  Cd1  1  0.73011700  0.26988300  0.00000000  1
  Fe  Fe0  1  0.61756000  0.93306300  0.88378500  1
  Fe  Fe1  1  0.06693700  0.38244000  0.11621500  1
  P  P0  1  0.65918700  0.87209600  0.37555100  1
  P  P1  1  0.12790400  0.34081300  0.62444900  1
  P  P2  1  0.34282900  0.13247100  0.12171400  1
  P  P3  1  0.86752900  0.65717100  0.87828600  1
  P  P4  1  0.71972600  0.28027400  0.50000000  1
  P  P5  1  0.28453000  0.71547000  0.00000000  1
  O  O0  1  0.15416100  0.16571200  0.65662200  1
  O  O1  1  0.83428800  0.84583900  0.34337800  1
  O  O2  1  0.81536500  0.82534900  0.87425400  1
  O  O3  1  0.17465100  0.18463500  0.12574600  1
  O  O4  1  0.25638100  0.82703700  0.79200300  1
  O  O5  1  0.17296300  0.74361900  0.20799700  1
  O  O6  1  0.73970100  0.15314700  0.70964700  1
  O  O7  1  0.84685300  0.26029900  0.29035300  1
  O  O8  1  0.31654800  0.00834000  0.35088500  1
  O  O9  1  0.99166000  0.68345200  0.64911500  1
  O  O10  1  0.65534200  0.99182800  0.14923400  1
  O  O11  1  0.00817200  0.34465800  0.85076600  1
  O  O12  1  0.28028400  0.45548100  0.57138000  1
  O  O13  1  0.54451900  0.71971600  0.42862000  1
  O  O14  1  0.72088100  0.53752600  0.92458300  1
  O  O15  1  0.46247400  0.27911900  0.07541700  1
  O  O16  1  0.55763200  0.26019800  0.46603500  1
  O  O17  1  0.73980200  0.44236800  0.53396500  1
  O  O18  1  0.45947900  0.74081300  0.00139700  1
  O  O19  1  0.25918700  0.54052100  0.99860300  1
  O  O20  1  0.60501200  0.94635300  0.56657500  1
  O  O21  1  0.05364700  0.39498800  0.43342500  1
  O  O22  1  0.40327600  0.05219700  0.93804400  1
  O  O23  1  0.94780300  0.59672400  0.06195600  1
loop_
_geom_bond_atom_site_label_1
_geom_bond_atom_site_label_2
_geom_bond_distance
_geom_bond_site_symmetry_2
Na0 O3 2.560236 1_655
Na0 O2 2.560236 1_545
Na0 O0 2.582853 1_655
Na0 O1 2.582853 1_545
Na0 O6 2.716456 1_555
Na0 O7 2.716456 1_555
Na0 O8 2.886492 1_655
Na0 O9 2.886492 1_545
Na1 O1 2.348069 1_455
Na1 O0 2.348069 1_564
Na1 O2 2.691066 1_454
Na1 O3 2.691066 1_565
Na1 O4 2.748182 1_554
Na1 O5 2.748182 1_555
Na2 O16 2.354306 1_555
Na2 O12 2.374164 1_555
Na2 O14 2.388735 1_554
Na2 O18 2.433873 1_555
Na2 O15 2.597224 1_555
Na2 O13 2.634093 1_555
Na3 O17 2.354306 1_555
Na3 O13 2.374164 1_555
Na3 O15 2.388735 1_556
Na3 O19 2.433873 1_555
Na3 O14 2.597224 1_555
Na3 O12 2.634093 1_555
Mn0 O16 2.078852 1_555
Mn0 O8 2.147927 1_555
Mn0 O0 2.150078 1_555
Mn0 O4 2.200366 1_545
Mn0 O22 2.218026 1_555
Mn0 O20 2.350995 1_545
Mn1 O17 2.078852 1_555
Mn1 O9 2.147927 1_555
Mn1 O1 2.150078 1_555
Mn1 O5 2.200366 1_655
Mn1 O23 2.218026 1_555
Mn1 O21 2.350995 1_655
Cd0 O4 2.318416 1_555
Cd0 O5 2.318416 1_555
Cd0 O13 2.351635 1_555
Cd0 O12 2.351635 1_555
Cd0 O9 2.362694 1_455
Cd0 O8 2.362694 1_565
Cd1 O14 2.297491 1_554
Cd1 O15 2.297491 1_555
Cd1 O11 2.368498 1_654
Cd1 O10 2.368498 1_545
Cd1 O7 2.422441 1_555
Cd1 O6 2.422441 1_554
Fe0 O18 1.974707 1_556
Fe0 O2 2.033577 1_555
Fe0 O6 2.035392 1_565
Fe0 O10 2.085467 1_556
Fe0 O20 2.113190 1_555
Fe0 O22 2.210767 1_565
Fe1 O19 1.974707 1_554
Fe1 O3 2.033577 1_555
Fe1 O7 2.035392 1_455
Fe1 O11 2.085467 1_554
Fe1 O21 2.113190 1_555
Fe1 O23 2.210767 1_455
O0 P1 1.547324 1_555
O1 P0 1.547324 1_555
O2 P3 1.580364 1_555
O3 P2 1.580364 1_555
O4 P5 1.547258 1_556
O5 P5 1.547258 1_555
O6 P4 1.584260 1_555
O7 P4 1.584260 1_555
O8 P2 1.550873 1_555
O9 P3 1.550873 1_555
O10 P0 1.585706 1_555
O11 P1 1.585706 1_555
O12 P1 1.547867 1_555
O13 P0 1.547867 1_555
O14 P3 1.544222 1_555
O15 P2 1.544222 1_555
O16 P4 1.531428 1_555
O17 P4 1.531428 1_555
O18 P5 1.564532 1_555
O19 P5 1.564532 1_556
O20 P0 1.561471 1_555
O21 P1 1.561471 1_555
O22 P2 1.563987 1_556
O23 P3 1.563987 1_554
