# generated using pymatgen
data_Hf2Mg
_symmetry_space_group_name_H-M   'P 1'
_cell_length_a   5.67863200
_cell_length_b   5.67863200
_cell_length_c   4.96858200
_cell_angle_alpha   90.00000000
_cell_angle_beta   90.00000000
_cell_angle_gamma   90.00000000
_symmetry_Int_Tables_number   1
_chemical_formula_structural   Hf2Mg
_chemical_formula_sum   'Hf4 Mg2'
_cell_volume   160.22117507
_cell_formula_units_Z   2
loop_
 _symmetry_equiv_pos_site_id
 _symmetry_equiv_pos_as_xyz
  1  'x, y, z'
loop_
 _atom_site_type_symbol
 _atom_site_label
 _atom_site_symmetry_multiplicity
 _atom_site_fract_x
 _atom_site_fract_y
 _atom_site_fract_z
 _atom_site_occupancy
  Hf  Hf0  1  0.32993600  0.32993600  0.00000000  1
  Hf  Hf1  1  0.67006400  0.67006400  0.00000000  1
  Hf  Hf2  1  0.17006400  0.82993600  0.50000000  1
  Hf  Hf3  1  0.82993600  0.17006400  0.50000000  1
  Mg  Mg0  1  0.00000000  0.00000000  0.00000000  1
  Mg  Mg1  1  0.50000000  0.50000000  0.50000000  1
loop_
_geom_bond_atom_site_label_1
_geom_bond_atom_site_label_2
_geom_bond_distance
_geom_bond_site_symmetry_2
Hf0 Mg0 2.649649 1_555
Hf0 Hf1 2.731499 1_555
Hf0 Mg1 2.834956 1_554
Hf0 Mg1 2.834956 1_555
Hf1 Mg0 2.649649 1_665
Hf1 Mg1 2.834956 1_554
Hf1 Mg1 2.834956 1_555
Hf2 Mg1 2.649649 1_555
Hf2 Hf3 2.731499 1_465
Hf2 Mg0 2.834956 1_566
Hf2 Mg0 2.834956 1_565
Hf3 Mg1 2.649649 1_555
Hf3 Mg0 2.834956 1_656
Hf3 Mg0 2.834956 1_655
