# generated using pymatgen
data_ZrSn
_symmetry_space_group_name_H-M   'P 1'
_cell_length_a   5.22696800
_cell_length_b   5.61123300
_cell_length_c   9.54573200
_cell_angle_alpha   90.00000000
_cell_angle_beta   90.00000000
_cell_angle_gamma   90.00000000
_symmetry_Int_Tables_number   1
_chemical_formula_structural   ZrSn
_chemical_formula_sum   'Zr6 Sn6'
_cell_volume   279.97379311
_cell_formula_units_Z   6
loop_
 _symmetry_equiv_pos_site_id
 _symmetry_equiv_pos_as_xyz
  1  'x, y, z'
loop_
 _atom_site_type_symbol
 _atom_site_label
 _atom_site_symmetry_multiplicity
 _atom_site_fract_x
 _atom_site_fract_y
 _atom_site_fract_z
 _atom_site_occupancy
  Zr  Zr0  1  0.00000000  0.95593200  0.26381400  1
  Zr  Zr1  1  0.00000000  0.02527800  0.93783200  1
  Zr  Zr2  1  0.50000000  0.33447100  0.23817200  1
  Zr  Zr3  1  0.00000000  0.52527800  0.06216800  1
  Zr  Zr4  1  0.00000000  0.45593200  0.73618600  1
  Zr  Zr5  1  0.50000000  0.83447100  0.76182800  1
  Sn  Sn0  1  0.00000000  0.94595000  0.60707600  1
  Sn  Sn1  1  0.50000000  0.40504600  0.56874200  1
  Sn  Sn2  1  0.50000000  0.33338400  0.91144800  1
  Sn  Sn3  1  0.00000000  0.44595000  0.39292400  1
  Sn  Sn4  1  0.50000000  0.90504600  0.43125800  1
  Sn  Sn5  1  0.50000000  0.83338400  0.08855200  1
loop_
_geom_bond_atom_site_label_1
_geom_bond_atom_site_label_2
_geom_bond_distance
_geom_bond_site_symmetry_2
Sn0 Zr4 3.013181 1_555
Sn0 Zr5 3.066557 1_455
Sn0 Zr5 3.066557 1_555
Sn0 Sn4 3.114435 1_555
Sn0 Sn4 3.114435 1_455
Sn0 Zr4 3.115742 1_565
Sn0 Zr1 3.188532 1_565
Sn0 Zr0 3.277166 1_555
Sn1 Zr5 3.033708 1_555
Sn1 Zr4 3.076789 1_655
Sn1 Zr4 3.076789 1_555
Sn1 Sn4 3.097392 1_555
Sn1 Sn4 3.097392 1_545
Sn1 Sn3 3.114435 1_655
Sn1 Sn3 3.114435 1_555
Sn1 Zr2 3.180285 1_555
Sn1 Sn2 3.296000 1_555
Sn1 Zr5 3.694269 1_545
Sn2 Zr2 3.118826 1_556
Sn2 Zr5 3.142792 1_545
Sn2 Zr1 3.143671 1_655
Sn2 Zr1 3.143671 1_555
Sn2 Zr5 3.153664 1_555
Sn2 Zr3 3.171698 1_556
Sn2 Zr3 3.171698 1_656
Sn2 Zr4 3.178380 1_555
Sn2 Zr4 3.178380 1_655
Sn3 Zr0 3.013181 1_545
Sn3 Zr2 3.066557 1_555
Sn3 Zr2 3.066557 1_455
Sn3 Zr0 3.115742 1_555
Sn3 Zr3 3.188532 1_555
Sn3 Zr4 3.277166 1_555
Sn4 Zr2 3.033708 1_565
Sn4 Zr0 3.076789 1_655
Sn4 Zr0 3.076789 1_555
Sn4 Zr5 3.180285 1_555
Sn4 Sn5 3.296000 1_555
Sn4 Zr2 3.694269 1_555
Sn5 Zr5 3.118826 1_554
Sn5 Zr2 3.142792 1_555
Sn5 Zr3 3.143671 1_655
Sn5 Zr3 3.143671 1_555
Sn5 Zr2 3.153664 1_565
Sn5 Zr1 3.171698 1_664
Sn5 Zr1 3.171698 1_564
Sn5 Zr0 3.178380 1_555
Sn5 Zr0 3.178380 1_655
