# generated using pymatgen
data_Cr(FeO2)3
_symmetry_space_group_name_H-M   'P 1'
_cell_length_a   10.16757023
_cell_length_b   10.22136074
_cell_length_c   10.16764639
_cell_angle_alpha   89.71490053
_cell_angle_beta   91.43533103
_cell_angle_gamma   91.67526470
_symmetry_Int_Tables_number   1
_chemical_formula_structural   Cr(FeO2)3
_chemical_formula_sum   'Cr8 Fe24 O48'
_cell_volume   1055.89433095
_cell_formula_units_Z   8
loop_
 _symmetry_equiv_pos_site_id
 _symmetry_equiv_pos_as_xyz
  1  'x, y, z'
loop_
 _atom_site_type_symbol
 _atom_site_label
 _atom_site_symmetry_multiplicity
 _atom_site_fract_x
 _atom_site_fract_y
 _atom_site_fract_z
 _atom_site_occupancy
  Cr  Cr0  1  0.62654800  0.82172200  0.63522100  1
  Cr  Cr1  1  0.33664900  0.04907300  0.89025400  1
  Cr  Cr2  1  0.55052400  0.29924300  0.94106100  1
  Cr  Cr3  1  0.76200200  0.54667500  0.78730300  1
  Cr  Cr4  1  0.75578000  0.36703900  0.52544700  1
  Cr  Cr5  1  0.30208500  0.61189500  0.16417200  1
  Cr  Cr6  1  0.04379400  0.06854300  0.51320300  1
  Cr  Cr7  1  0.04520900  0.27465800  0.81833100  1
  Fe  Fe0  1  0.12466600  0.78018800  0.43534800  1
  Fe  Fe1  1  0.32777800  0.33309300  0.70305300  1
  Fe  Fe2  1  0.67056300  0.04684200  0.97333100  1
  Fe  Fe3  1  0.02845200  0.53266800  0.66175500  1
  Fe  Fe4  1  0.84638300  0.77135400  0.37474500  1
  Fe  Fe5  1  0.32103000  0.53663500  0.51257300  1
  Fe  Fe6  1  0.45236800  0.91427200  0.34540900  1
  Fe  Fe7  1  0.84803100  0.79810800  0.83022600  1
  Fe  Fe8  1  0.66885700  0.80500700  0.12594400  1
  Fe  Fe9  1  0.02251500  0.55673800  0.95428800  1
  Fe  Fe10  1  0.69494600  0.44934000  0.18739400  1
  Fe  Fe11  1  0.33236300  0.98950000  0.61416200  1
  Fe  Fe12  1  0.32881000  0.22027400  0.37410500  1
  Fe  Fe13  1  0.56904700  0.64813100  0.37000100  1
  Fe  Fe14  1  0.45985300  0.55873400  0.86677500  1
  Fe  Fe15  1  0.80574000  0.12196000  0.73409100  1
  Fe  Fe16  1  0.88415700  0.05509100  0.25846500  1
  Fe  Fe17  1  0.21429600  0.99462300  0.19707000  1
  Fe  Fe18  1  0.87593300  0.27500300  0.05085000  1
  Fe  Fe19  1  0.24748800  0.31419000  0.05480100  1
  Fe  Fe20  1  0.06109800  0.02386300  0.96753200  1
  Fe  Fe21  1  0.04066200  0.51570400  0.23280000  1
  Fe  Fe22  1  0.16546500  0.80138800  0.77154800  1
  Fe  Fe23  1  0.55306600  0.14083300  0.18490000  1
  O  O0  1  0.74441800  0.20829700  0.57539700  1
  O  O1  1  0.80184700  0.88649800  0.23804600  1
  O  O2  1  0.24381500  0.44047900  0.20069600  1
  O  O3  1  0.16357000  0.88393500  0.59914600  1
  O  O4  1  0.54052700  0.92887900  0.17576000  1
  O  O5  1  0.34062300  0.35336100  0.50200800  1
  O  O6  1  0.96150800  0.16392800  0.39079300  1
  O  O7  1  0.99102600  0.66987300  0.33944900  1
  O  O8  1  0.18791600  0.16883100  0.91352800  1
  O  O9  1  0.48064900  0.12423400  0.99824300  1
  O  O10  1  0.54820300  0.32751600  0.13190400  1
  O  O11  1  0.37279100  0.37632800  0.90942300  1
  O  O12  1  0.38282900  0.61652900  0.34757100  1
  O  O13  1  0.67626300  0.45500000  0.63370300  1
  O  O14  1  0.39594000  0.52495300  0.68910500  1
  O  O15  1  0.99107600  0.13159500  0.67114400  1
  O  O16  1  0.22296400  0.09404900  0.47375700  1
  O  O17  1  0.27042500  0.18023600  0.19611100  1
  O  O18  1  0.75249900  0.93684400  0.70111000  1
  O  O19  1  0.25499900  0.85555100  0.31677200  1
  O  O20  1  0.88528100  0.66624900  0.68494900  1
  O  O21  1  0.33487800  0.89150700  0.78579000  1
  O  O22  1  0.68397700  0.64549100  0.22273900  1
  O  O23  1  0.37322500  0.14652800  0.71833600  1
  O  O24  1  0.62179300  0.47585200  0.90460400  1
  O  O25  1  0.92060300  0.43072500  0.80132700  1
  O  O26  1  0.13181400  0.62432000  0.81394300  1
  O  O27  1  0.88337400  0.42275600  0.16492400  1
  O  O28  1  0.75027100  0.14149700  0.14905000  1
  O  O29  1  0.67915100  0.38738200  0.38170100  1
  O  O30  1  0.07663000  0.37214400  0.98886900  1
  O  O31  1  0.01791400  0.88338100  0.84995300  1
  O  O32  1  0.90993000  0.42600600  0.52341300  1
  O  O33  1  0.92049600  0.14503700  0.91076800  1
  O  O34  1  0.15852900  0.61626600  0.53449200  1
  O  O35  1  0.68999600  0.75255100  0.48097400  1
  O  O36  1  0.47810000  0.88889100  0.54692400  1
  O  O37  1  0.03244500  0.02633200  0.15252900  1
  O  O38  1  0.14924800  0.37573100  0.69655900  1
  O  O39  1  0.72579500  0.86807600  0.96160900  1
  O  O40  1  0.23813200  0.94507900  0.02202100  1
  O  O41  1  0.85534500  0.64041600  0.94034000  1
  O  O42  1  0.68078200  0.19867400  0.84927600  1
  O  O43  1  0.61687300  0.69624100  0.75697500  1
  O  O44  1  0.48275300  0.11921700  0.35793500  1
  O  O45  1  0.97320800  0.91107700  0.43672400  1
  O  O46  1  0.13812600  0.64233200  0.09848800  1
  O  O47  1  0.41198300  0.63592700  0.03477300  1
loop_
_geom_bond_atom_site_label_1
_geom_bond_atom_site_label_2
_geom_bond_distance
_geom_bond_site_symmetry_2
Cr0 O43 1.780492 1_555
Cr0 O18 1.830349 1_555
Cr0 O35 1.861208 1_555
Cr0 O36 1.882042 1_555
Cr1 O21 1.933054 1_545
Cr1 O9 1.949760 1_555
Cr1 O40 1.979648 1_546
Cr1 O8 1.992574 1_555
Cr1 O23 2.044419 1_555
Cr2 O42 1.957739 1_555
Cr2 O24 1.962524 1_555
Cr2 O10 1.964075 1_556
Cr2 O9 1.994676 1_555
Cr2 O11 2.010361 1_555
Cr3 O13 1.993909 1_555
Cr3 O24 1.998763 1_555
Cr3 O20 2.027585 1_555
Cr3 O25 2.030747 1_555
Cr3 O41 2.031677 1_555
Cr3 O43 2.171188 1_555
Cr4 O29 1.654036 1_555
Cr4 O32 1.663278 1_555
Cr4 O13 1.664483 1_555
Cr4 O0 1.699341 1_555
Cr5 O47 1.759068 1_555
Cr5 O46 1.815048 1_555
Cr5 O2 1.871536 1_555
Cr5 O12 2.018759 1_555
Cr6 O6 1.784116 1_455
Cr6 O15 1.831709 1_455
Cr6 O16 1.885550 1_555
Cr6 O45 1.904536 1_445
Cr6 O3 2.423202 1_545
Cr7 O38 1.925684 1_555
Cr7 O30 2.018028 1_555
Cr7 O33 2.048340 1_455
Cr7 O8 2.055066 1_555
Cr7 O25 2.069830 1_455
Cr7 O15 2.148106 1_455
Fe0 O19 1.952981 1_555
Fe0 O7 1.980776 1_455
Fe0 O34 1.985343 1_555
Fe0 O3 2.003679 1_555
Fe0 O45 2.069608 1_455
Fe1 O38 1.878636 1_555
Fe1 O23 1.979671 1_555
Fe1 O5 2.060612 1_555
Fe1 O14 2.066133 1_555
Fe1 O11 2.181032 1_555
Fe2 O39 1.932321 1_545
Fe2 O42 1.996981 1_555
Fe2 O9 2.129402 1_555
Fe2 O28 2.164209 1_556
Fe3 O34 2.040178 1_555
Fe3 O20 2.043418 1_455
Fe3 O26 2.062015 1_555
Fe3 O38 2.072353 1_555
Fe3 O25 2.073292 1_455
Fe3 O32 2.114925 1_455
Fe4 O7 1.867333 1_555
Fe4 O1 1.872272 1_555
Fe4 O35 1.948845 1_555
Fe4 O45 1.990013 1_555
Fe4 O22 2.556989 1_555
Fe5 O34 1.881740 1_555
Fe5 O5 1.893518 1_555
Fe5 O14 1.936695 1_555
Fe5 O12 1.971164 1_555
Fe6 O4 1.966778 1_555
Fe6 O36 2.075019 1_555
Fe6 O19 2.091452 1_555
Fe6 O44 2.112526 1_565
Fe7 O31 1.918291 1_655
Fe7 O41 1.960076 1_555
Fe7 O39 1.996319 1_555
Fe7 O20 2.054151 1_555
Fe7 O18 2.162404 1_555
Fe7 O43 2.634344 1_555
Fe8 O39 1.886412 1_554
Fe8 O22 1.908345 1_555
Fe8 O1 1.920356 1_555
Fe8 O4 1.923088 1_555
Fe9 O41 1.926758 1_455
Fe9 O26 1.942471 1_555
Fe9 O30 2.007684 1_555
Fe9 O46 2.040380 1_556
Fe9 O25 2.238904 1_455
Fe10 O27 1.962018 1_555
Fe10 O10 1.987757 1_555
Fe10 O22 2.045382 1_555
Fe10 O29 2.080270 1_555
Fe11 O23 1.956160 1_565
Fe11 O36 1.966585 1_555
Fe11 O3 2.003302 1_555
Fe11 O21 2.007729 1_555
Fe11 O16 2.095713 1_565
Fe12 O5 1.885837 1_555
Fe12 O44 1.911294 1_555
Fe12 O17 1.932493 1_555
Fe12 O16 1.951885 1_555
Fe13 O12 1.919530 1_555
Fe13 O22 1.923042 1_555
Fe13 O35 1.946877 1_555
Fe14 O24 1.903498 1_555
Fe14 O14 1.933697 1_555
Fe14 O47 1.963344 1_556
Fe14 O11 2.088646 1_555
Fe14 O43 2.390219 1_555
Fe15 O0 1.933558 1_555
Fe15 O42 1.934584 1_555
Fe15 O18 1.980658 1_545
Fe15 O15 2.004819 1_555
Fe15 O33 2.127715 1_555
Fe16 O6 1.891326 1_555
Fe16 O1 1.903580 1_545
Fe16 O37 1.905326 1_655
Fe16 O28 1.963526 1_555
Fe16 O45 2.498174 1_545
Fe17 O40 1.876368 1_555
Fe17 O19 1.914470 1_555
Fe17 O37 1.928863 1_565
Fe17 O17 1.965200 1_565
Fe18 O27 1.907401 1_555
Fe18 O33 2.021143 1_554
Fe18 O28 2.107122 1_555
Fe18 O30 2.342394 1_654
Fe19 O30 1.953478 1_554
Fe19 O2 1.973025 1_555
Fe19 O17 1.993928 1_555
Fe19 O11 2.061350 1_554
Fe19 O8 2.136047 1_554
Fe20 O31 1.907300 1_545
Fe20 O37 1.911012 1_556
Fe20 O33 1.991464 1_455
Fe20 O8 2.018771 1_555
Fe20 O40 2.055673 1_546
Fe21 O27 1.949064 1_455
Fe21 O7 2.001169 1_455
Fe21 O46 2.120717 1_555
Fe21 O2 2.256876 1_555
Fe22 O26 1.882006 1_555
Fe22 O31 1.930979 1_555
Fe22 O21 1.931993 1_555
Fe22 O3 1.941533 1_555
Fe23 O44 1.924881 1_555
Fe23 O10 1.981868 1_555
Fe23 O9 2.024526 1_554
Fe23 O28 2.046733 1_555
Fe23 O4 2.168800 1_545
