# generated using pymatgen
data_CsRuN2
_symmetry_space_group_name_H-M   'P 1'
_cell_length_a   10.55128560
_cell_length_b   13.52904389
_cell_length_c   8.81575652
_cell_angle_alpha   89.93342368
_cell_angle_beta   65.27957130
_cell_angle_gamma   129.94752699
_symmetry_Int_Tables_number   1
_chemical_formula_structural   CsRuN2
_chemical_formula_sum   'Cs10 Ru10 N20'
_cell_volume   807.96940458
_cell_formula_units_Z   10
loop_
 _symmetry_equiv_pos_site_id
 _symmetry_equiv_pos_as_xyz
  1  'x, y, z'
loop_
 _atom_site_type_symbol
 _atom_site_label
 _atom_site_symmetry_multiplicity
 _atom_site_fract_x
 _atom_site_fract_y
 _atom_site_fract_z
 _atom_site_occupancy
  Cs  Cs0  1  0.60384900  0.70113100  0.96612100  1
  Cs  Cs1  1  0.39604300  0.29881700  0.57002200  1
  Cs  Cs2  1  0.79841700  0.59721600  0.11880200  1
  Cs  Cs3  1  0.20166600  0.40278800  0.91721400  1
  Cs  Cs4  1  0.60277100  0.20066300  0.71105500  1
  Cs  Cs5  1  0.39736200  0.79941300  0.31372500  1
  Cs  Cs6  1  0.79843800  0.09789300  0.36319800  1
  Cs  Cs7  1  0.20149800  0.90209100  0.16174200  1
  Cs  Cs8  1  0.00006400  0.00003900  0.51448400  1
  Cs  Cs9  1  0.99991800  0.49996400  0.76461400  1
  Ru  Ru0  1  0.00000500  0.50006700  0.26542100  1
  Ru  Ru1  1  0.00003500  0.99997600  0.01511700  1
  Ru  Ru2  1  0.19947400  0.39920500  0.41451500  1
  Ru  Ru3  1  0.80037700  0.60065300  0.61419700  1
  Ru  Ru4  1  0.59909900  0.69973300  0.46511400  1
  Ru  Ru5  1  0.40095300  0.30026700  0.06415500  1
  Ru  Ru6  1  0.40079500  0.80020400  0.81523600  1
  Ru  Ru7  1  0.59918800  0.19981500  0.21604200  1
  Ru  Ru8  1  0.19956600  0.89942200  0.66605700  1
  Ru  Ru9  1  0.80048700  0.10066300  0.86572300  1
  N  N0  1  0.09779000  0.44838700  0.34117700  1
  N  N1  1  0.90223900  0.55161300  0.43888500  1
  N  N2  1  0.79891800  0.85055900  0.24062000  1
  N  N3  1  0.20091500  0.14933700  0.03952200  1
  N  N4  1  0.09812400  0.94862800  0.84151700  1
  N  N5  1  0.90186900  0.05136700  0.93956100  1
  N  N6  1  0.79919500  0.35053700  0.24101000  1
  N  N7  1  0.20091700  0.64950900  0.04004300  1
  N  N8  1  0.30004000  0.35006400  0.23896700  1
  N  N9  1  0.69991900  0.64999700  0.53889900  1
  N  N10  1  0.40009300  0.54999600  0.43895300  1
  N  N11  1  0.60004000  0.45009200  0.83887900  1
  N  N12  1  0.30000300  0.84990000  0.74113400  1
  N  N13  1  0.69998200  0.15003100  0.04104100  1
  N  N14  1  0.39982200  0.04987000  0.44121200  1
  N  N15  1  0.60009600  0.95006000  0.84094500  1
  N  N16  1  0.49962600  0.74967200  0.64039800  1
  N  N17  1  0.50039400  0.25032600  0.14004900  1
  N  N18  1  0.99972100  0.75006700  0.64037700  1
  N  N19  1  0.00029200  0.24996700  0.64005200  1
loop_
_geom_bond_atom_site_label_1
_geom_bond_atom_site_label_2
_geom_bond_distance
_geom_bond_site_symmetry_2
Cs0 N4 3.520227 1_655
Cs0 N18 3.541736 1_555
Cs0 N8 3.548640 1_556
Cs0 N5 3.555630 1_565
Cs0 N11 3.558954 1_555
Cs0 N15 3.572167 1_555
Cs0 N7 3.585526 1_556
Cs0 N0 3.591190 1_556
Cs0 N2 3.607358 1_556
Cs0 N10 3.608050 1_556
Cs0 N9 3.661213 1_555
Cs0 N16 3.667447 1_555
Cs1 N5 3.515579 1_455
Cs1 N19 3.543057 1_555
Cs1 N4 3.551333 1_545
Cs1 N9 3.553529 1_555
Cs1 N10 3.556386 1_555
Cs1 N14 3.574644 1_555
Cs1 N6 3.584791 1_555
Cs1 N1 3.595667 1_555
Cs1 N3 3.600882 1_556
Cs1 N11 3.613930 1_555
Cs1 N8 3.659809 1_555
Cs1 N17 3.667907 1_555
Cs2 N6 3.511803 1_555
Cs2 N17 3.535864 1_555
Cs2 N10 3.558715 1_555
Cs2 N7 3.562714 1_655
Cs2 N8 3.564788 1_555
Cs2 N4 3.574846 1_654
Cs2 N12 3.575371 1_654
Cs2 N2 3.590410 1_555
Cs2 N1 3.604485 1_555
Cs2 N9 3.611882 1_555
Cs2 N11 3.662534 1_554
Cs2 N18 3.663765 1_554
Cs3 N7 3.514153 1_556
Cs3 N16 3.531737 1_555
Cs3 N11 3.559684 1_555
Cs3 N9 3.560502 1_555
Cs3 N6 3.561346 1_456
Cs3 N5 3.579486 1_455
Cs3 N13 3.580310 1_456
Cs3 N3 3.587440 1_556
Cs3 N0 3.605359 1_556
Cs3 N8 3.611159 1_556
Cs3 N10 3.656401 1_555
Cs3 N19 3.670418 1_555
Cs4 N0 3.520806 1_655
Cs4 N12 3.551908 1_545
Cs4 N19 3.555236 1_655
Cs4 N15 3.556403 1_545
Cs4 N1 3.556879 1_555
Cs4 N11 3.572772 1_555
Cs4 N3 3.576432 1_556
Cs4 N4 3.585390 1_545
Cs4 N6 3.602609 1_555
Cs4 N14 3.615009 1_555
Cs4 N13 3.657497 1_556
Cs4 N17 3.666363 1_556
Cs5 N1 3.525337 1_455
Cs5 N13 3.546627 1_565
Cs5 N18 3.554554 1_455
Cs5 N14 3.558886 1_565
Cs5 N0 3.561430 1_555
Cs5 N10 3.570548 1_555
Cs5 N2 3.577148 1_555
Cs5 N5 3.580855 1_564
Cs5 N15 3.609145 1_554
Cs5 N7 3.609204 1_555
Cs5 N12 3.659074 1_555
Cs5 N16 3.665753 1_555
Cs6 N2 3.519993 1_545
Cs6 N16 3.544232 1_545
Cs6 N14 3.557429 1_555
Cs6 N12 3.560275 1_545
Cs6 N3 3.567286 1_655
Cs6 N0 3.570820 1_655
Cs6 N6 3.576662 1_555
Cs6 N8 3.578518 1_655
Cs6 N5 3.607459 1_554
Cs6 N13 3.612014 1_555
Cs6 N15 3.653995 1_545
Cs6 N19 3.668543 1_655
Cs7 N3 3.517612 1_565
Cs7 N17 3.548506 1_565
Cs7 N15 3.556678 1_554
Cs7 N13 3.564032 1_565
Cs7 N1 3.566048 1_455
Cs7 N2 3.569074 1_455
Cs7 N9 3.573909 1_455
Cs7 N7 3.579862 1_555
Cs7 N4 3.606751 1_554
Cs7 N12 3.612908 1_554
Cs7 N14 3.660189 1_565
Cs7 N18 3.662022 1_455
Cs8 N8 3.555015 1_555
Cs8 N18 3.555431 1_445
Cs8 N19 3.557947 1_555
Cs8 N9 3.559606 1_445
Cs8 N17 3.560167 1_555
Cs8 N16 3.564786 1_445
Cs8 N15 3.566874 1_445
Cs8 N14 3.568117 1_555
Cs8 N3 3.628347 1_555
Cs8 N2 3.634325 1_445
Cs8 N4 3.644260 1_545
Cs8 N5 3.644332 1_455
Cs9 N13 3.556667 1_556
Cs9 N18 3.556825 1_555
Cs9 N17 3.558790 1_556
Cs9 N19 3.559132 1_655
Cs9 N12 3.561101 1_655
Cs9 N16 3.563743 1_655
Cs9 N10 3.565856 1_655
Cs9 N11 3.566313 1_555
Cs9 N1 3.632042 1_555
Cs9 N0 3.632526 1_655
Cs9 N6 3.640505 1_556
Cs9 N7 3.646251 1_656
N0 Ru0 1.871098 1_555
N0 Ru2 1.872904 1_555
N1 Ru0 1.869717 1_655
N1 Ru3 1.874226 1_555
N2 Ru1 1.869531 1_655
N2 Ru4 1.871284 1_555
N3 Ru1 1.871991 1_545
N3 Ru5 1.876530 1_555
N4 Ru1 1.870003 1_556
N4 Ru8 1.874598 1_555
N5 Ru1 1.871003 1_646
N5 Ru9 1.873585 1_555
N6 Ru0 1.872471 1_655
N6 Ru7 1.877083 1_555
N7 Ru0 1.869012 1_555
N7 Ru6 1.872244 1_554
N8 Ru2 1.870245 1_555
N8 Ru5 1.874502 1_555
N9 Ru4 1.872015 1_555
N9 Ru3 1.872422 1_555
N10 Ru4 1.873421 1_555
N10 Ru2 1.877754 1_555
N11 Ru5 1.870540 1_556
N11 Ru3 1.870873 1_555
N12 Ru8 1.872797 1_555
N12 Ru6 1.872980 1_555
N13 Ru9 1.870974 1_554
N13 Ru7 1.874780 1_555
N14 Ru7 1.870527 1_555
N14 Ru8 1.871172 1_545
N15 Ru6 1.873131 1_555
N15 Ru9 1.877445 1_565
N16 Ru4 1.871486 1_555
N16 Ru6 1.871931 1_555
N17 Ru7 1.870881 1_555
N17 Ru5 1.871229 1_555
N18 Ru8 1.873308 1_655
N18 Ru3 1.873658 1_555
N19 Ru2 1.869033 1_555
N19 Ru9 1.869967 1_455
