# generated using pymatgen
data_Li2IO
_symmetry_space_group_name_H-M   'P 1'
_cell_length_a   5.87172200
_cell_length_b   10.32253000
_cell_length_c   5.57018600
_cell_angle_alpha   90.00000000
_cell_angle_beta   90.00000000
_cell_angle_gamma   90.00000000
_symmetry_Int_Tables_number   1
_chemical_formula_structural   Li2IO
_chemical_formula_sum   'Li8 I4 O4'
_cell_volume   337.61469124
_cell_formula_units_Z   4
loop_
 _symmetry_equiv_pos_site_id
 _symmetry_equiv_pos_as_xyz
  1  'x, y, z'
loop_
 _atom_site_type_symbol
 _atom_site_label
 _atom_site_symmetry_multiplicity
 _atom_site_fract_x
 _atom_site_fract_y
 _atom_site_fract_z
 _atom_site_occupancy
  Li  Li0  1  0.99791600  0.59515700  0.62073700  1
  Li  Li1  1  0.00208400  0.40484300  0.37926300  1
  Li  Li2  1  0.00208400  0.90484300  0.12073700  1
  Li  Li3  1  0.49791600  0.40484300  0.37926300  1
  Li  Li4  1  0.99791600  0.09515700  0.87926300  1
  Li  Li5  1  0.50208400  0.59515700  0.62073700  1
  Li  Li6  1  0.50208400  0.09515700  0.87926300  1
  Li  Li7  1  0.49791600  0.90484300  0.12073700  1
  I  I0  1  0.75000000  0.84057700  0.56560900  1
  I  I1  1  0.25000000  0.15942300  0.43439100  1
  I  I2  1  0.25000000  0.65942300  0.06560900  1
  I  I3  1  0.75000000  0.34057700  0.93439100  1
  O  O0  1  0.75000000  0.98073800  0.95345400  1
  O  O1  1  0.25000000  0.01926200  0.04654600  1
  O  O2  1  0.25000000  0.51926200  0.45345400  1
  O  O3  1  0.75000000  0.48073800  0.54654600  1
loop_
_geom_bond_atom_site_label_1
_geom_bond_atom_site_label_2
_geom_bond_distance
_geom_bond_site_symmetry_2
Li0 O2 1.916482 1_655
Li0 O3 1.919585 1_555
Li1 O3 1.916482 1_455
Li1 O2 1.919585 1_555
Li2 O0 1.916482 1_454
Li2 O1 1.919585 1_565
Li3 O3 1.916482 1_555
Li3 O2 1.919585 1_555
Li4 O1 1.916482 1_656
Li4 O0 1.919585 1_545
Li5 O2 1.916482 1_555
Li5 O3 1.919585 1_555
Li6 O1 1.916482 1_556
Li6 O0 1.919585 1_545
Li7 O0 1.916482 1_554
Li7 O1 1.919585 1_565
I0 O0 2.600090 1_555
I0 Li5 2.937895 1_555
I0 Li0 2.937895 1_555
I0 Li2 2.961682 1_655
I0 Li7 2.961682 1_555
I1 O1 2.600090 1_555
I1 Li1 2.937895 1_555
I1 Li3 2.937895 1_555
I1 Li6 2.961682 1_555
I1 Li4 2.961682 1_455
I2 O2 2.600090 1_555
I2 Li7 2.937895 1_555
I2 Li2 2.937895 1_555
I2 Li5 2.961682 1_554
I2 Li0 2.961682 1_454
I3 O3 2.600090 1_555
I3 Li6 2.937895 1_555
I3 Li4 2.937895 1_555
I3 Li1 2.961682 1_656
I3 Li3 2.961682 1_556
