# generated using pymatgen
data_ThAlPt
_symmetry_space_group_name_H-M   'P 1'
_cell_length_a   7.29865989
_cell_length_b   7.29865989
_cell_length_c   4.16757059
_cell_angle_alpha   90.00000000
_cell_angle_beta   90.00000000
_cell_angle_gamma   120.00000318
_symmetry_Int_Tables_number   1
_chemical_formula_structural   ThAlPt
_chemical_formula_sum   'Th3 Al3 Pt3'
_cell_volume   192.26482428
_cell_formula_units_Z   3
loop_
 _symmetry_equiv_pos_site_id
 _symmetry_equiv_pos_as_xyz
  1  'x, y, z'
loop_
 _atom_site_type_symbol
 _atom_site_label
 _atom_site_symmetry_multiplicity
 _atom_site_fract_x
 _atom_site_fract_y
 _atom_site_fract_z
 _atom_site_occupancy
  Th  Th0  1  0.42053274  0.42053274  0.50000000  1
  Th  Th1  1  0.57946726  0.00000000  0.50000000  1
  Th  Th2  1  0.00000000  0.57946726  0.50000000  1
  Al  Al0  1  0.76955442  0.76955442  0.00000000  1
  Al  Al1  1  0.23044558  0.00000000  0.00000000  1
  Al  Al2  1  0.00000000  0.23044558  -0.00000000  1
  Pt  Pt0  1  0.66666700  0.33333300  -0.00000000  1
  Pt  Pt1  1  0.33333300  0.66666700  -0.00000000  1
  Pt  Pt2  1  0.00000000  0.00000000  0.50000000  1
loop_
_geom_bond_atom_site_label_1
_geom_bond_atom_site_label_2
_geom_bond_distance
_geom_bond_site_symmetry_2
Al0 Pt2 2.677890 1_665
Al0 Pt2 2.677890 1_664
Al0 Pt1 2.882677 1_555
Al0 Pt0 2.882677 1_555
Al1 Pt2 2.677890 1_554
Al1 Pt2 2.677890 1_555
Al1 Pt1 2.882670 1_545
Al1 Pt0 2.882675 1_555
Al2 Pt2 2.677890 1_554
Al2 Pt2 2.677890 1_555
Al2 Pt0 2.882670 1_455
Al2 Pt1 2.882675 1_555
Pt0 Th1 3.019562 1_554
Pt0 Th1 3.019562 1_555
Pt0 Th2 3.019564 1_654
Pt0 Th2 3.019564 1_655
Pt0 Th0 3.019567 1_554
Pt0 Th0 3.019567 1_555
Pt1 Th2 3.019562 1_555
Pt1 Th2 3.019562 1_554
Pt1 Th1 3.019564 1_565
Pt1 Th1 3.019564 1_564
Pt1 Th0 3.019567 1_554
Pt1 Th0 3.019567 1_555
Pt2 Th0 3.069325 1_555
Pt2 Th1 3.069325 1_455
Pt2 Th2 3.069325 1_545
