# generated using pymatgen
data_Tm2MgS4
_symmetry_space_group_name_H-M   'P 1'
_cell_length_a   7.83688600
_cell_length_b   7.29728600
_cell_length_c   11.30322700
_cell_angle_alpha   90.00000000
_cell_angle_beta   90.00000000
_cell_angle_gamma   90.00000000
_symmetry_Int_Tables_number   1
_chemical_formula_structural   Tm2MgS4
_chemical_formula_sum   'Tm8 Mg4 S16'
_cell_volume   646.40892862
_cell_formula_units_Z   4
loop_
 _symmetry_equiv_pos_site_id
 _symmetry_equiv_pos_as_xyz
  1  'x, y, z'
loop_
 _atom_site_type_symbol
 _atom_site_label
 _atom_site_symmetry_multiplicity
 _atom_site_fract_x
 _atom_site_fract_y
 _atom_site_fract_z
 _atom_site_occupancy
  Tm  Tm0  1  0.04503100  0.75000000  0.30609600  1
  Tm  Tm1  1  0.95496900  0.25000000  0.69390400  1
  Tm  Tm2  1  0.45496900  0.25000000  0.80609600  1
  Tm  Tm3  1  0.54503100  0.75000000  0.19390400  1
  Tm  Tm4  1  0.06428700  0.25000000  0.01520500  1
  Tm  Tm5  1  0.93571300  0.75000000  0.98479500  1
  Tm  Tm6  1  0.43571300  0.75000000  0.51520500  1
  Tm  Tm7  1  0.56428700  0.25000000  0.48479500  1
  Mg  Mg0  1  0.17496000  0.25000000  0.40158500  1
  Mg  Mg1  1  0.82504000  0.75000000  0.59841500  1
  Mg  Mg2  1  0.32504000  0.75000000  0.90158500  1
  Mg  Mg3  1  0.67496000  0.25000000  0.09841500  1
  S  S0  1  0.12067000  0.50474300  0.84112300  1
  S  S1  1  0.87933000  0.49525700  0.15887700  1
  S  S2  1  0.37933000  0.49525700  0.34112300  1
  S  S3  1  0.62067000  0.50474300  0.65887700  1
  S  S4  1  0.62067000  0.99525700  0.65887700  1
  S  S5  1  0.37933000  0.00474300  0.34112300  1
  S  S6  1  0.87933000  0.00474300  0.15887700  1
  S  S7  1  0.12067000  0.99525700  0.84112300  1
  S  S8  1  0.88805900  0.25000000  0.46125500  1
  S  S9  1  0.11194100  0.75000000  0.53874500  1
  S  S10  1  0.61194100  0.75000000  0.96125500  1
  S  S11  1  0.38805900  0.25000000  0.03874500  1
  S  S12  1  0.22912600  0.75000000  0.10923600  1
  S  S13  1  0.77087400  0.25000000  0.89076400  1
  S  S14  1  0.27087400  0.25000000  0.60923600  1
  S  S15  1  0.72912600  0.75000000  0.39076400  1
loop_
_geom_bond_atom_site_label_1
_geom_bond_atom_site_label_2
_geom_bond_distance
_geom_bond_site_symmetry_2
Mg0 S8 2.347392 1_455
Mg0 S14 2.464550 1_555
Mg0 S5 2.497063 1_555
Mg0 S2 2.497063 1_555
Mg1 S9 2.347392 1_655
Mg1 S15 2.464550 1_555
Mg1 S4 2.497063 1_555
Mg1 S3 2.497063 1_555
Mg2 S10 2.347392 1_555
Mg2 S12 2.464550 1_556
Mg2 S7 2.497063 1_555
Mg2 S0 2.497063 1_555
Mg3 S11 2.347392 1_555
Mg3 S13 2.464550 1_554
Mg3 S1 2.497063 1_555
Mg3 S6 2.497063 1_555
S0 Tm4 2.742749 1_556
S0 Tm1 2.812650 1_455
S0 Tm5 2.818034 1_455
S0 Tm2 3.236675 1_555
S1 Tm5 2.742749 1_554
S1 Tm0 2.812650 1_655
S1 Tm4 2.818034 1_655
S1 Tm3 3.236675 1_555
S2 Tm6 2.742749 1_555
S2 Tm3 2.812650 1_555
S2 Tm7 2.818034 1_555
S2 Tm0 3.236675 1_555
S3 Tm7 2.742749 1_555
S3 Tm2 2.812650 1_555
S3 Tm6 2.818034 1_555
S3 Tm1 3.236675 1_555
S4 Tm7 2.742749 1_565
S4 Tm2 2.812650 1_565
S4 Tm6 2.818034 1_555
S4 Tm1 3.236675 1_565
S5 Tm6 2.742749 1_545
S5 Tm3 2.812650 1_545
S5 Tm7 2.818034 1_555
S5 Tm0 3.236675 1_545
S6 Tm5 2.742749 1_544
S6 Tm0 2.812650 1_645
S6 Tm4 2.818034 1_655
S6 Tm3 3.236675 1_545
S7 Tm4 2.742749 1_566
S7 Tm1 2.812650 1_465
S7 Tm5 2.818034 1_455
S7 Tm2 3.236675 1_565
S8 Tm7 2.551277 1_555
S8 Tm1 2.681455 1_555
S9 Tm6 2.551277 1_555
S9 Tm0 2.681455 1_555
S10 Tm5 2.551277 1_555
S10 Tm3 2.681455 1_556
S11 Tm4 2.551277 1_555
S11 Tm2 2.681455 1_554
S12 Tm0 2.651939 1_555
S12 Tm3 2.654249 1_555
S12 Tm5 2.695538 1_454
S13 Tm1 2.651939 1_555
S13 Tm2 2.654249 1_555
S13 Tm4 2.695538 1_656
S14 Tm2 2.651939 1_555
S14 Tm1 2.654249 1_455
S14 Tm7 2.695538 1_555
S15 Tm3 2.651939 1_555
S15 Tm0 2.654249 1_655
S15 Tm6 2.695538 1_555
