# generated using pymatgen
data_MgV2O4
_symmetry_space_group_name_H-M   'P 1'
_cell_length_a   2.96438400
_cell_length_b   9.16955400
_cell_length_c   10.55983400
_cell_angle_alpha   90.00000000
_cell_angle_beta   90.00000000
_cell_angle_gamma   90.00000000
_symmetry_Int_Tables_number   1
_chemical_formula_structural   MgV2O4
_chemical_formula_sum   'Mg4 V8 O16'
_cell_volume   287.03824375
_cell_formula_units_Z   4
loop_
 _symmetry_equiv_pos_site_id
 _symmetry_equiv_pos_as_xyz
  1  'x, y, z'
loop_
 _atom_site_type_symbol
 _atom_site_label
 _atom_site_symmetry_multiplicity
 _atom_site_fract_x
 _atom_site_fract_y
 _atom_site_fract_z
 _atom_site_occupancy
  Mg  Mg0  1  0.75000000  0.74518400  0.34880200  1
  Mg  Mg1  1  0.25000000  0.25481600  0.65119800  1
  Mg  Mg2  1  0.75000000  0.24518400  0.15119800  1
  Mg  Mg3  1  0.25000000  0.75481600  0.84880200  1
  V  V0  1  0.25000000  0.91139900  0.10294800  1
  V  V1  1  0.75000000  0.58860100  0.60294800  1
  V  V2  1  0.25000000  0.41139900  0.39705200  1
  V  V3  1  0.75000000  0.08860100  0.89705200  1
  V  V4  1  0.75000000  0.06411600  0.38202600  1
  V  V5  1  0.25000000  0.93588400  0.61797400  1
  V  V6  1  0.75000000  0.56411600  0.11797400  1
  V  V7  1  0.25000000  0.43588400  0.88202600  1
  O  O0  1  0.25000000  0.40959600  0.07334300  1
  O  O1  1  0.75000000  0.59040400  0.92665700  1
  O  O2  1  0.25000000  0.90959600  0.42665700  1
  O  O3  1  0.75000000  0.09040400  0.57334300  1
  O  O4  1  0.25000000  0.53159500  0.71569700  1
  O  O5  1  0.75000000  0.46840500  0.28430300  1
  O  O6  1  0.25000000  0.03159500  0.78430300  1
  O  O7  1  0.75000000  0.96840500  0.21569700  1
  O  O8  1  0.25000000  0.12567100  0.03445800  1
  O  O9  1  0.75000000  0.87432900  0.96554200  1
  O  O10  1  0.25000000  0.62567100  0.46554200  1
  O  O11  1  0.75000000  0.37432900  0.53445800  1
  O  O12  1  0.75000000  0.29346200  0.81540100  1
  O  O13  1  0.25000000  0.70653800  0.18459900  1
  O  O14  1  0.25000000  0.20653800  0.31540100  1
  O  O15  1  0.75000000  0.79346200  0.68459900  1
loop_
_geom_bond_atom_site_label_1
_geom_bond_atom_site_label_2
_geom_bond_distance
_geom_bond_site_symmetry_2
Mg0 O10 2.217551 1_655
Mg0 O10 2.217551 1_555
Mg0 O2 2.268394 1_555
Mg0 O2 2.268394 1_655
Mg0 O13 2.308479 1_555
Mg0 O13 2.308479 1_655
Mg0 O7 2.482974 1_555
Mg0 O5 2.627743 1_555
Mg1 O11 2.217551 1_555
Mg1 O11 2.217551 1_455
Mg1 O3 2.268394 1_455
Mg1 O3 2.268394 1_555
Mg1 O12 2.308479 1_555
Mg1 O12 2.308479 1_455
Mg1 O6 2.482974 1_555
Mg1 O4 2.627743 1_555
Mg2 O8 2.217551 1_555
Mg2 O8 2.217551 1_655
Mg2 O0 2.268394 1_555
Mg2 O0 2.268394 1_655
Mg2 O14 2.308479 1_555
Mg2 O14 2.308479 1_655
Mg2 O5 2.482974 1_555
Mg2 O7 2.627743 1_545
Mg3 O9 2.217551 1_455
Mg3 O9 2.217551 1_555
Mg3 O1 2.268394 1_455
Mg3 O1 2.268394 1_555
Mg3 O15 2.308479 1_455
Mg3 O15 2.308479 1_555
Mg3 O4 2.482974 1_555
Mg3 O6 2.627743 1_565
O0 V7 2.034605 1_554
O0 V6 2.103939 1_555
O0 V6 2.103939 1_455
O1 V6 2.034605 1_556
O1 V7 2.103939 1_655
O1 V7 2.103939 1_555
O2 V5 2.034605 1_555
O2 V4 2.103939 1_565
O2 V4 2.103939 1_465
O3 V4 2.034605 1_555
O3 V5 2.103939 1_545
O3 V5 2.103939 1_645
O4 V7 1.963465 1_555
O4 V1 1.971721 1_455
O4 V1 1.971721 1_555
O5 V6 1.963465 1_555
O5 V2 1.971721 1_655
O5 V2 1.971721 1_555
O6 V5 1.963465 1_545
O6 V3 1.971721 1_455
O6 V3 1.971721 1_555
O7 V4 1.963465 1_565
O7 V0 1.971721 1_655
O7 V0 1.971721 1_555
O8 V0 2.093666 1_545
O8 V3 2.101854 1_454
O8 V3 2.101854 1_554
O9 V3 2.093666 1_565
O9 V0 2.101854 1_556
O9 V0 2.101854 1_656
O10 V2 2.093666 1_555
O10 V1 2.101854 1_455
O10 V1 2.101854 1_555
O11 V1 2.093666 1_555
O11 V2 2.101854 1_655
O11 V2 2.101854 1_555
O12 V3 2.066912 1_555
O12 V7 2.096991 1_655
O12 V7 2.096991 1_555
O13 V0 2.066912 1_555
O13 V6 2.096991 1_555
O13 V6 2.096991 1_455
O14 V2 2.066912 1_555
O14 V4 2.096991 1_455
O14 V4 2.096991 1_555
O15 V1 2.066912 1_555
O15 V5 2.096991 1_555
O15 V5 2.096991 1_655
