# generated using pymatgen
data_ThPb
_symmetry_space_group_name_H-M   'P 1'
_cell_length_a   4.56110574
_cell_length_b   5.14066235
_cell_length_c   5.14066235
_cell_angle_alpha   90.00000000
_cell_angle_beta   90.00000000
_cell_angle_gamma   90.00000000
_symmetry_Int_Tables_number   1
_chemical_formula_structural   ThPb
_chemical_formula_sum   'Th2 Pb2'
_cell_volume   120.53364759
_cell_formula_units_Z   2
loop_
 _symmetry_equiv_pos_site_id
 _symmetry_equiv_pos_as_xyz
  1  'x, y, z'
loop_
 _atom_site_type_symbol
 _atom_site_label
 _atom_site_symmetry_multiplicity
 _atom_site_fract_x
 _atom_site_fract_y
 _atom_site_fract_z
 _atom_site_occupancy
  Th  Th0  1  0.50000000  0.00000000  0.50000000  1
  Th  Th1  1  0.50000000  0.50000000  0.00000000  1
  Pb  Pb0  1  0.00000000  0.00000000  0.00000000  1
  Pb  Pb1  1  -0.00000000  0.50000000  0.50000000  1
loop_
_geom_bond_atom_site_label_1
_geom_bond_atom_site_label_2
_geom_bond_distance
_geom_bond_site_symmetry_2
Pb0 Th1 3.436208 1_445
Pb0 Th1 3.436208 1_555
Pb0 Th1 3.436208 1_545
Pb0 Th0 3.436208 1_455
Pb0 Th0 3.436208 1_554
Pb0 Th1 3.436208 1_455
Pb0 Th0 3.436208 1_454
Pb0 Th0 3.436208 1_555
Pb1 Th1 3.436208 1_556
Pb1 Th1 3.436208 1_555
Pb1 Th0 3.436208 1_455
Pb1 Th1 3.436208 1_455
Pb1 Th0 3.436208 1_565
Pb1 Th0 3.436208 1_555
Pb1 Th1 3.436208 1_456
Pb1 Th0 3.436208 1_465
