# generated using pymatgen
data_Si4H36C13
_symmetry_space_group_name_H-M   'P 1'
_cell_length_a   13.22981400
_cell_length_b   13.22981400
_cell_length_c   13.22981400
_cell_angle_alpha   90.00000000
_cell_angle_beta   90.00000000
_cell_angle_gamma   90.00000000
_symmetry_Int_Tables_number   1
_chemical_formula_structural   Si4H36C13
_chemical_formula_sum   'Si16 H144 C52'
_cell_volume   2315.58760001
_cell_formula_units_Z   4
loop_
 _symmetry_equiv_pos_site_id
 _symmetry_equiv_pos_as_xyz
  1  'x, y, z'
loop_
 _atom_site_type_symbol
 _atom_site_label
 _atom_site_symmetry_multiplicity
 _atom_site_fract_x
 _atom_site_fract_y
 _atom_site_fract_z
 _atom_site_occupancy
  Si  Si0  1  0.91173958  0.91173958  0.91173958  1
  Si  Si1  1  0.08826042  0.41173958  0.58826042  1
  Si  Si2  1  0.41173958  0.58826042  0.08826042  1
  Si  Si3  1  0.58826042  0.08826042  0.41173958  1
  Si  Si4  1  0.99791046  0.94213062  0.13103579  1
  Si  Si5  1  0.86896421  0.49791046  0.55786938  1
  Si  Si6  1  0.44213062  0.36896421  0.00208954  1
  Si  Si7  1  0.49791046  0.55786938  0.86896421  1
  Si  Si8  1  0.36896421  0.00208954  0.44213062  1
  Si  Si9  1  0.94213062  0.13103579  0.99791046  1
  Si  Si10  1  0.00208954  0.44213062  0.36896421  1
  Si  Si11  1  0.13103579  0.99791046  0.94213062  1
  Si  Si12  1  0.55786938  0.86896421  0.49791046  1
  Si  Si13  1  0.50208954  0.05786938  0.63103579  1
  Si  Si14  1  0.63103579  0.50208954  0.05786938  1
  Si  Si15  1  0.05786938  0.63103579  0.50208954  1
  H  H0  1  0.92754340  0.00721141  0.74708304  1
  H  H1  1  0.25291696  0.42754340  0.49278859  1
  H  H2  1  0.50721141  0.75291696  0.07245660  1
  H  H3  1  0.42754340  0.49278859  0.25291696  1
  H  H4  1  0.75291696  0.07245660  0.50721141  1
  H  H5  1  0.00721141  0.74708304  0.92754340  1
  H  H6  1  0.07245660  0.50721141  0.75291696  1
  H  H7  1  0.74708304  0.92754340  0.00721141  1
  H  H8  1  0.49278859  0.25291696  0.42754340  1
  H  H9  1  0.57245660  0.99278859  0.24708304  1
  H  H10  1  0.24708304  0.57245660  0.99278859  1
  H  H11  1  0.99278859  0.24708304  0.57245660  1
  H  H12  1  0.88480440  0.88113352  0.72944273  1
  H  H13  1  0.27055727  0.38480440  0.61886648  1
  H  H14  1  0.38113352  0.77055727  0.11519560  1
  H  H15  1  0.38480440  0.61886648  0.27055727  1
  H  H16  1  0.77055727  0.11519560  0.38113352  1
  H  H17  1  0.88113352  0.72944273  0.88480440  1
  H  H18  1  0.11519560  0.38113352  0.77055727  1
  H  H19  1  0.72944273  0.88480440  0.88113352  1
  H  H20  1  0.61886648  0.27055727  0.38480440  1
  H  H21  1  0.61519560  0.11886648  0.22944273  1
  H  H22  1  0.22944273  0.61519560  0.11886648  1
  H  H23  1  0.11886648  0.22944273  0.61519560  1
  H  H24  1  0.01465702  0.90514387  0.75078414  1
  H  H25  1  0.24921586  0.51465702  0.59485613  1
  H  H26  1  0.40514387  0.74921586  0.98534298  1
  H  H27  1  0.51465702  0.59485613  0.24921586  1
  H  H28  1  0.74921586  0.98534298  0.40514387  1
  H  H29  1  0.90514387  0.75078414  0.01465702  1
  H  H30  1  0.98534298  0.40514387  0.74921586  1
  H  H31  1  0.75078414  0.01465702  0.90514387  1
  H  H32  1  0.59485613  0.24921586  0.51465702  1
  H  H33  1  0.48534298  0.09485613  0.25078414  1
  H  H34  1  0.25078414  0.48534298  0.09485613  1
  H  H35  1  0.09485613  0.25078414  0.48534298  1
  H  H36  1  0.16541569  0.84817647  0.12736134  1
  H  H37  1  0.87263866  0.66541569  0.65182353  1
  H  H38  1  0.34817647  0.37263866  0.83458431  1
  H  H39  1  0.66541569  0.65182353  0.87263866  1
  H  H40  1  0.37263866  0.83458431  0.34817647  1
  H  H41  1  0.84817647  0.12736134  0.16541569  1
  H  H42  1  0.83458431  0.34817647  0.37263866  1
  H  H43  1  0.12736134  0.16541569  0.84817647  1
  H  H44  1  0.65182353  0.87263866  0.66541569  1
  H  H45  1  0.33458431  0.15182353  0.62736134  1
  H  H46  1  0.62736134  0.33458431  0.15182353  1
  H  H47  1  0.15182353  0.62736134  0.33458431  1
  H  H48  1  0.06321724  0.76465264  0.10234555  1
  H  H49  1  0.89765445  0.56321724  0.73534736  1
  H  H50  1  0.26465264  0.39765445  0.93678276  1
  H  H51  1  0.56321724  0.73534736  0.89765445  1
  H  H52  1  0.39765445  0.93678276  0.26465264  1
  H  H53  1  0.76465264  0.10234555  0.06321724  1
  H  H54  1  0.93678276  0.26465264  0.39765445  1
  H  H55  1  0.10234555  0.06321724  0.76465264  1
  H  H56  1  0.73534736  0.89765445  0.56321724  1
  H  H57  1  0.43678276  0.23534736  0.60234555  1
  H  H58  1  0.60234555  0.43678276  0.23534736  1
  H  H59  1  0.23534736  0.60234555  0.43678276  1
  H  H60  1  0.08522326  0.80911291  0.22709117  1
  H  H61  1  0.77290883  0.58522326  0.69088709  1
  H  H62  1  0.30911291  0.27290883  0.91477674  1
  H  H63  1  0.58522326  0.69088709  0.77290883  1
  H  H64  1  0.27290883  0.91477674  0.30911291  1
  H  H65  1  0.80911291  0.22709117  0.08522326  1
  H  H66  1  0.91477674  0.30911291  0.27290883  1
  H  H67  1  0.22709117  0.08522326  0.80911291  1
  H  H68  1  0.69088709  0.77290883  0.58522326  1
  H  H69  1  0.41477674  0.19088709  0.72709117  1
  H  H70  1  0.72709117  0.41477674  0.19088709  1
  H  H71  1  0.19088709  0.72709117  0.41477674  1
  H  H72  1  0.11580683  0.06836836  0.21255282  1
  H  H73  1  0.78744718  0.61580683  0.43163164  1
  H  H74  1  0.56836836  0.28744718  0.88419317  1
  H  H75  1  0.61580683  0.43163164  0.78744718  1
  H  H76  1  0.28744718  0.88419317  0.56836836  1
  H  H77  1  0.06836836  0.21255282  0.11580683  1
  H  H78  1  0.88419317  0.56836836  0.28744718  1
  H  H79  1  0.21255282  0.11580683  0.06836836  1
  H  H80  1  0.43163164  0.78744718  0.61580683  1
  H  H81  1  0.38419317  0.93163164  0.71255282  1
  H  H82  1  0.71255282  0.38419317  0.93163164  1
  H  H83  1  0.93163164  0.71255282  0.38419317  1
  H  H84  1  0.04555300  0.99740372  0.30233445  1
  H  H85  1  0.69766555  0.54555300  0.50259628  1
  H  H86  1  0.49740372  0.19766555  0.95444700  1
  H  H87  1  0.54555300  0.50259628  0.69766555  1
  H  H88  1  0.19766555  0.95444700  0.49740372  1
  H  H89  1  0.99740372  0.30233445  0.04555300  1
  H  H90  1  0.95444700  0.49740372  0.19766555  1
  H  H91  1  0.30233445  0.04555300  0.99740372  1
  H  H92  1  0.50259628  0.69766555  0.54555300  1
  H  H93  1  0.45444700  0.00259628  0.80233445  1
  H  H94  1  0.80233445  0.45444700  0.00259628  1
  H  H95  1  0.00259628  0.80233445  0.45444700  1
  H  H96  1  0.98823509  0.10057989  0.23947854  1
  H  H97  1  0.76052146  0.48823509  0.39942011  1
  H  H98  1  0.60057989  0.26052146  0.01176491  1
  H  H99  1  0.48823509  0.39942011  0.76052146  1
  H  H100  1  0.26052146  0.01176491  0.60057989  1
  H  H101  1  0.10057989  0.23947854  0.98823509  1
  H  H102  1  0.01176491  0.60057989  0.26052146  1
  H  H103  1  0.23947854  0.98823509  0.10057989  1
  H  H104  1  0.39942011  0.76052146  0.48823509  1
  H  H105  1  0.51176491  0.89942011  0.73947854  1
  H  H106  1  0.73947854  0.51176491  0.89942011  1
  H  H107  1  0.89942011  0.73947854  0.51176491  1
  H  H108  1  0.81086666  0.95155622  0.17422253  1
  H  H109  1  0.82577747  0.31086666  0.54844378  1
  H  H110  1  0.45155622  0.32577747  0.18913334  1
  H  H111  1  0.31086666  0.54844378  0.82577747  1
  H  H112  1  0.32577747  0.18913334  0.45155622  1
  H  H113  1  0.95155622  0.17422253  0.81086666  1
  H  H114  1  0.18913334  0.45155622  0.32577747  1
  H  H115  1  0.17422253  0.81086666  0.95155622  1
  H  H116  1  0.54844378  0.82577747  0.31086666  1
  H  H117  1  0.68913334  0.04844378  0.67422253  1
  H  H118  1  0.67422253  0.68913334  0.04844378  1
  H  H119  1  0.04844378  0.67422253  0.68913334  1
  H  H120  1  0.87974594  0.86919663  0.25498340  1
  H  H121  1  0.74501660  0.37974594  0.63080337  1
  H  H122  1  0.36919663  0.24501660  0.12025406  1
  H  H123  1  0.37974594  0.63080337  0.74501660  1
  H  H124  1  0.24501660  0.12025406  0.36919663  1
  H  H125  1  0.86919663  0.25498340  0.87974594  1
  H  H126  1  0.12025406  0.36919663  0.24501660  1
  H  H127  1  0.25498340  0.87974594  0.86919663  1
  H  H128  1  0.63080337  0.74501660  0.37974594  1
  H  H129  1  0.62025406  0.13080337  0.75498340  1
  H  H130  1  0.75498340  0.62025406  0.13080337  1
  H  H131  1  0.13080337  0.75498340  0.62025406  1
  H  H132  1  0.84422414  0.82841414  0.13289007  1
  H  H133  1  0.86710993  0.34422414  0.67158586  1
  H  H134  1  0.32841414  0.36710993  0.15577586  1
  H  H135  1  0.34422414  0.67158586  0.86710993  1
  H  H136  1  0.36710993  0.15577586  0.32841414  1
  H  H137  1  0.82841414  0.13289007  0.84422414  1
  H  H138  1  0.15577586  0.32841414  0.36710993  1
  H  H139  1  0.13289007  0.84422414  0.82841414  1
  H  H140  1  0.67158586  0.86710993  0.34422414  1
  H  H141  1  0.65577586  0.17158586  0.63289007  1
  H  H142  1  0.63289007  0.65577586  0.17158586  1
  H  H143  1  0.17158586  0.63289007  0.65577586  1
  C  C0  1  0.99584115  0.99584115  0.99584115  1
  C  C1  1  0.00415885  0.49584115  0.50415885  1
  C  C2  1  0.49584115  0.50415885  0.00415885  1
  C  C3  1  0.50415885  0.00415885  0.49584115  1
  C  C4  1  0.93809512  0.92882998  0.77193529  1
  C  C5  1  0.22806471  0.43809512  0.57117002  1
  C  C6  1  0.42882998  0.72806471  0.06190488  1
  C  C7  1  0.43809512  0.57117002  0.22806471  1
  C  C8  1  0.72806471  0.06190488  0.42882998  1
  C  C9  1  0.92882998  0.77193529  0.93809512  1
  C  C10  1  0.06190488  0.42882998  0.72806471  1
  C  C11  1  0.77193529  0.93809512  0.92882998  1
  C  C12  1  0.57117002  0.22806471  0.43809512  1
  C  C13  1  0.56190488  0.07117002  0.27193529  1
  C  C14  1  0.27193529  0.56190488  0.07117002  1
  C  C15  1  0.07117002  0.27193529  0.56190488  1
  C  C16  1  0.08666360  0.83073272  0.14669311  1
  C  C17  1  0.85330689  0.58666360  0.66926728  1
  C  C18  1  0.33073272  0.35330689  0.91333640  1
  C  C19  1  0.58666360  0.66926728  0.85330689  1
  C  C20  1  0.35330689  0.91333640  0.33073272  1
  C  C21  1  0.83073272  0.14669311  0.08666360  1
  C  C22  1  0.91333640  0.33073272  0.35330689  1
  C  C23  1  0.14669311  0.08666360  0.83073272  1
  C  C24  1  0.66926728  0.85330689  0.58666360  1
  C  C25  1  0.41333640  0.16926728  0.64669311  1
  C  C26  1  0.64669311  0.41333640  0.16926728  1
  C  C27  1  0.16926728  0.64669311  0.41333640  1
  C  C28  1  0.04086510  0.03729381  0.22930970  1
  C  C29  1  0.77069030  0.54086510  0.46270619  1
  C  C30  1  0.53729381  0.27069030  0.95913490  1
  C  C31  1  0.54086510  0.46270619  0.77069030  1
  C  C32  1  0.27069030  0.95913490  0.53729381  1
  C  C33  1  0.03729381  0.22930970  0.04086510  1
  C  C34  1  0.95913490  0.53729381  0.27069030  1
  C  C35  1  0.22930970  0.04086510  0.03729381  1
  C  C36  1  0.46270619  0.77069030  0.54086510  1
  C  C37  1  0.45913490  0.96270619  0.72930970  1
  C  C38  1  0.72930970  0.45913490  0.96270619  1
  C  C39  1  0.96270619  0.72930970  0.45913490  1
  C  C40  1  0.87064511  0.89391941  0.17598841  1
  C  C41  1  0.82401159  0.37064511  0.60608059  1
  C  C42  1  0.39391941  0.32401159  0.12935489  1
  C  C43  1  0.37064511  0.60608059  0.82401159  1
  C  C44  1  0.32401159  0.12935489  0.39391941  1
  C  C45  1  0.89391941  0.17598841  0.87064511  1
  C  C46  1  0.12935489  0.39391941  0.32401159  1
  C  C47  1  0.17598841  0.87064511  0.89391941  1
  C  C48  1  0.60608059  0.82401159  0.37064511  1
  C  C49  1  0.62935489  0.10608059  0.67598841  1
  C  C50  1  0.67598841  0.62935489  0.10608059  1
  C  C51  1  0.10608059  0.67598841  0.62935489  1
loop_
_geom_bond_atom_site_label_1
_geom_bond_atom_site_label_2
_geom_bond_distance
_geom_bond_site_symmetry_2
C0 Si9 1.924776 1_565
C0 Si11 1.924776 1_655
C0 Si4 1.924776 1_556
C0 Si0 1.927163 1_555
C1 Si5 1.924776 1_455
C1 Si15 1.924776 1_555
C1 Si10 1.924776 1_555
C1 Si1 1.927163 1_555
C2 Si7 1.924776 1_554
C2 Si14 1.924776 1_555
C2 Si6 1.924776 1_555
C2 Si2 1.927163 1_555
C3 Si12 1.924776 1_545
C3 Si13 1.924776 1_555
C3 Si8 1.924776 1_555
C3 Si3 1.927163 1_555
C4 H24 1.096569 1_655
C4 H0 1.096768 1_565
C4 H12 1.100580 1_555
C4 Si0 1.895696 1_555
C5 H25 1.096569 1_555
C5 H1 1.096768 1_555
C5 H13 1.100580 1_555
C5 Si1 1.895696 1_555
C6 H26 1.096569 1_554
C6 H2 1.096768 1_555
C6 H14 1.100580 1_555
C6 Si2 1.895696 1_555
C7 H27 1.096569 1_555
C7 H3 1.096768 1_555
C7 H15 1.100580 1_555
C7 Si2 1.895696 1_555
C8 H28 1.096569 1_545
C8 H4 1.096768 1_555
C8 H16 1.100580 1_555
C8 Si3 1.895696 1_555
C9 H29 1.096569 1_556
C9 H5 1.096768 1_655
C9 H17 1.100580 1_555
C9 Si0 1.895696 1_555
C10 H30 1.096569 1_455
C10 H6 1.096768 1_555
C10 H18 1.100580 1_555
C10 Si1 1.895696 1_555
C11 H31 1.096569 1_565
C11 H7 1.096768 1_556
C11 H19 1.100580 1_555
C11 Si0 1.895696 1_555
C12 H32 1.096569 1_555
C12 H8 1.096768 1_555
C12 H20 1.100580 1_555
C12 Si3 1.895696 1_555
C13 H33 1.096569 1_555
C13 H9 1.096768 1_545
C13 H21 1.100580 1_555
C13 Si3 1.895696 1_555
C14 H34 1.096569 1_555
C14 H10 1.096768 1_554
C14 H22 1.100580 1_555
C14 Si2 1.895696 1_555
C15 H35 1.096569 1_555
C15 H11 1.096768 1_455
C15 H23 1.100580 1_555
C15 Si1 1.895696 1_555
C16 H36 1.097349 1_555
C16 H48 1.097597 1_555
C16 H60 1.101603 1_555
C16 Si4 1.895688 1_455
C17 H37 1.097349 1_555
C17 H49 1.097597 1_555
C17 H61 1.101603 1_555
C17 Si5 1.895688 1_555
C18 H38 1.097349 1_555
C18 H50 1.097597 1_555
C18 H62 1.101603 1_555
C18 Si6 1.895688 1_556
C19 H39 1.097349 1_555
C19 H51 1.097597 1_555
C19 H63 1.101603 1_555
C19 Si7 1.895688 1_555
C20 H40 1.097349 1_555
C20 H52 1.097597 1_555
C20 H64 1.101603 1_555
C20 Si8 1.895688 1_565
C21 H41 1.097349 1_555
C21 H53 1.097597 1_555
C21 H65 1.101603 1_555
C21 Si9 1.895688 1_554
C22 H42 1.097349 1_555
C22 H54 1.097597 1_555
C22 H66 1.101603 1_555
C22 Si10 1.895688 1_655
C23 H43 1.097349 1_555
C23 H55 1.097597 1_555
C23 H67 1.101603 1_555
C23 Si11 1.895688 1_545
C24 H44 1.097349 1_555
C24 H56 1.097597 1_555
C24 H68 1.101603 1_555
C24 Si12 1.895688 1_555
C25 H45 1.097349 1_555
C25 H57 1.097597 1_555
C25 H69 1.101603 1_555
C25 Si13 1.895688 1_555
C26 H46 1.097349 1_555
C26 H58 1.097597 1_555
C26 H70 1.101603 1_555
C26 Si14 1.895688 1_555
C27 H47 1.097349 1_555
C27 H59 1.097597 1_555
C27 H71 1.101603 1_555
C27 Si15 1.895688 1_555
C28 H72 1.095975 1_555
C28 H96 1.097234 1_455
C28 H84 1.102593 1_545
C28 Si4 1.896940 1_445
C29 H73 1.095975 1_555
C29 H97 1.097234 1_555
C29 H85 1.102593 1_555
C29 Si5 1.896940 1_555
C30 H74 1.095975 1_555
C30 H98 1.097234 1_556
C30 H86 1.102593 1_555
C30 Si6 1.896940 1_556
C31 H75 1.095975 1_555
C31 H99 1.097234 1_555
C31 H87 1.102593 1_555
C31 Si7 1.896940 1_555
C32 H76 1.095975 1_555
C32 H100 1.097234 1_565
C32 H88 1.102593 1_555
C32 Si8 1.896940 1_565
C33 H77 1.095975 1_555
C33 H101 1.097234 1_554
C33 H89 1.102593 1_455
C33 Si9 1.896940 1_454
C34 H78 1.095975 1_555
C34 H102 1.097234 1_655
C34 H90 1.102593 1_555
C34 Si10 1.896940 1_655
C35 H79 1.095975 1_555
C35 H103 1.097234 1_545
C35 H91 1.102593 1_554
C35 Si11 1.896940 1_544
C36 H80 1.095975 1_555
C36 H104 1.097234 1_555
C36 H92 1.102593 1_555
C36 Si12 1.896940 1_555
C37 H81 1.095975 1_555
C37 H105 1.097234 1_555
C37 H93 1.102593 1_565
C37 Si13 1.896940 1_565
C38 H82 1.095975 1_555
C38 H106 1.097234 1_555
C38 H94 1.102593 1_556
C38 Si14 1.896940 1_556
C39 H83 1.095975 1_555
C39 H107 1.097234 1_555
C39 H95 1.102593 1_655
C39 Si15 1.896940 1_655
C40 H132 1.094680 1_555
C40 H108 1.098838 1_555
C40 H120 1.101675 1_555
C40 Si4 1.896139 1_555
C41 H133 1.094680 1_555
C41 H109 1.098838 1_555
C41 H121 1.101675 1_555
C41 Si5 1.896139 1_555
C42 H134 1.094680 1_555
C42 H110 1.098838 1_555
C42 H122 1.101675 1_555
C42 Si6 1.896139 1_555
C43 H135 1.094680 1_555
C43 H111 1.098838 1_555
C43 H123 1.101675 1_555
C43 Si7 1.896139 1_555
C44 H136 1.094680 1_555
C44 H112 1.098838 1_555
C44 H124 1.101675 1_555
C44 Si8 1.896139 1_555
C45 H137 1.094680 1_555
C45 H113 1.098838 1_555
C45 H125 1.101675 1_555
C45 Si9 1.896139 1_555
C46 H138 1.094680 1_555
C46 H114 1.098838 1_555
C46 H126 1.101675 1_555
C46 Si10 1.896139 1_555
C47 H139 1.094680 1_555
C47 H115 1.098838 1_555
C47 H127 1.101675 1_555
C47 Si11 1.896139 1_555
C48 H140 1.094680 1_555
C48 H116 1.098838 1_555
C48 H128 1.101675 1_555
C48 Si12 1.896139 1_555
C49 H141 1.094680 1_555
C49 H117 1.098838 1_555
C49 H129 1.101675 1_555
C49 Si13 1.896139 1_555
C50 H142 1.094680 1_555
C50 H118 1.098838 1_555
C50 H130 1.101675 1_555
C50 Si14 1.896139 1_555
C51 H143 1.094680 1_555
C51 H119 1.098838 1_555
C51 H131 1.101675 1_555
C51 Si15 1.896139 1_555
