# generated using pymatgen
data_Nd2Ni7
_symmetry_space_group_name_H-M   'P 1'
_cell_length_a   5.03474965
_cell_length_b   5.03474900
_cell_length_c   12.54537477
_cell_angle_alpha   78.42434962
_cell_angle_beta   78.42434989
_cell_angle_gamma   59.99999771
_symmetry_Int_Tables_number   1
_chemical_formula_structural   Nd2Ni7
_chemical_formula_sum   'Nd4 Ni14'
_cell_volume   267.90907344
_cell_formula_units_Z   2
loop_
 _symmetry_equiv_pos_site_id
 _symmetry_equiv_pos_as_xyz
  1  'x, y, z'
loop_
 _atom_site_type_symbol
 _atom_site_label
 _atom_site_symmetry_multiplicity
 _atom_site_fract_x
 _atom_site_fract_y
 _atom_site_fract_z
 _atom_site_occupancy
  Nd  Nd0  1  0.94952400  0.94952400  0.15142900  1
  Nd  Nd1  1  0.05047600  0.05047600  0.84857100  1
  Nd  Nd2  1  0.85252300  0.85252300  0.44243200  1
  Nd  Nd3  1  0.14747700  0.14747700  0.55756800  1
  Ni  Ni0  1  0.50000000  0.50000000  0.50000000  1
  Ni  Ni1  1  0.72157400  0.72157400  0.83527900  1
  Ni  Ni2  1  0.27842600  0.27842600  0.16472100  1
  Ni  Ni3  1  0.61195800  0.61195800  0.16412600  1
  Ni  Ni4  1  0.38804200  0.38804200  0.83587400  1
  Ni  Ni5  1  0.00000000  0.50000000  0.00000000  1
  Ni  Ni6  1  0.50000000  0.00000000  0.00000000  1
  Ni  Ni7  1  0.50000000  0.50000000  0.00000000  1
  Ni  Ni8  1  0.39145500  0.39145500  0.32577100  1
  Ni  Ni9  1  0.89131800  0.39145500  0.32577100  1
  Ni  Ni10  1  0.39145500  0.89131800  0.32577100  1
  Ni  Ni11  1  0.60854500  0.60854500  0.67422900  1
  Ni  Ni12  1  0.10868200  0.60854500  0.67422900  1
  Ni  Ni13  1  0.60854500  0.10868200  0.67422900  1
loop_
_geom_bond_atom_site_label_1
_geom_bond_atom_site_label_2
_geom_bond_distance
_geom_bond_site_symmetry_2
Nd0 Ni3 2.910939 1_565
Nd0 Ni3 2.910940 1_655
Nd0 Ni3 2.910944 1_555
Nd0 Ni2 2.911331 1_665
Nd0 Ni2 2.911339 1_655
Nd0 Ni2 2.911340 1_565
Nd0 Ni5 3.122882 1_665
Nd0 Ni6 3.122883 1_665
Nd0 Ni7 3.122884 1_565
Nd0 Ni7 3.122884 1_655
Nd0 Ni5 3.122886 1_655
Nd0 Ni6 3.122887 1_565
Nd0 Ni9 3.296074 1_565
Nd0 Ni10 3.296074 1_655
Nd0 Ni8 3.296078 1_655
Nd0 Ni8 3.296078 1_565
Nd0 Ni9 3.296082 1_555
Nd0 Ni10 3.296082 1_555
Nd1 Ni4 2.910939 1_545
Nd1 Ni4 2.910940 1_455
Nd1 Ni4 2.910944 1_555
Nd1 Ni1 2.911331 1_445
Nd1 Ni1 2.911339 1_455
Nd1 Ni1 2.911340 1_545
Nd1 Ni5 3.122882 1_546
Nd1 Ni6 3.122883 1_456
Nd1 Ni7 3.122884 1_546
Nd1 Ni7 3.122884 1_456
Nd1 Ni5 3.122886 1_556
Nd1 Ni6 3.122887 1_556
Nd1 Ni12 3.296074 1_545
Nd1 Ni13 3.296074 1_455
Nd1 Ni11 3.296078 1_455
Nd1 Ni11 3.296078 1_545
Nd1 Ni12 3.296082 1_555
Nd1 Ni13 3.296082 1_555
Nd2 Ni9 2.892084 1_565
Nd2 Ni10 2.892084 1_655
Nd2 Ni8 2.892088 1_565
Nd2 Ni8 2.892088 1_655
Nd2 Ni9 2.892093 1_555
Nd2 Ni10 2.892093 1_555
Nd2 Ni0 2.990509 1_565
Nd2 Ni0 2.990509 1_655
Nd2 Ni0 2.990514 1_555
Nd2 Ni13 3.180551 1_565
Nd2 Ni11 3.180551 1_555
Nd2 Ni12 3.180551 1_655
Nd3 Ni12 2.892084 1_545
Nd3 Ni13 2.892084 1_455
Nd3 Ni11 2.892088 1_545
Nd3 Ni11 2.892088 1_455
Nd3 Ni12 2.892093 1_555
Nd3 Ni13 2.892093 1_555
Nd3 Ni0 2.990509 1_545
Nd3 Ni0 2.990509 1_455
Nd3 Ni0 2.990514 1_555
Nd3 Ni10 3.180551 1_545
Nd3 Ni8 3.180551 1_555
Nd3 Ni9 3.180551 1_455
Ni0 Ni10 2.575329 1_555
Ni0 Ni13 2.575329 1_555
Ni0 Ni9 2.575329 1_555
Ni0 Ni12 2.575329 1_555
Ni0 Ni11 2.575331 1_555
Ni0 Ni8 2.575331 1_555
Ni1 Ni13 2.444696 1_565
Ni1 Ni12 2.444696 1_655
Ni1 Ni11 2.444696 1_555
Ni1 Ni6 2.480623 1_566
Ni1 Ni5 2.480623 1_656
Ni1 Ni7 2.480626 1_556
Ni2 Ni9 2.444696 1_455
Ni2 Ni8 2.444696 1_555
Ni2 Ni6 2.480623 1_555
Ni2 Ni5 2.480623 1_555
Ni2 Ni7 2.480626 1_555
Ni3 Ni9 2.450065 1_555
Ni3 Ni8 2.450067 1_555
Ni3 Ni6 2.474743 1_565
Ni3 Ni5 2.474743 1_655
Ni3 Ni7 2.474743 1_555
Ni4 Ni6 2.474743 1_556
Ni4 Ni5 2.474743 1_556
Ni4 Ni7 2.474743 1_556
Ni5 Ni6 2.517375 1_465
Ni5 Ni6 2.517375 1_555
Ni5 Ni7 2.517375 1_455
Ni5 Ni7 2.517375 1_555
Ni6 Ni7 2.517374 1_545
Ni6 Ni7 2.517374 1_555
Ni8 Ni9 2.516685 1_555
Ni8 Ni9 2.518065 1_455
Ni10 Ni2 2.444696 1_565
Ni10 Ni3 2.450065 1_555
Ni10 Ni8 2.516685 1_555
Ni10 Ni9 2.516685 1_555
Ni10 Ni8 2.518064 1_565
Ni10 Ni9 2.518064 1_465
Ni11 Ni4 2.450067 1_555
Ni11 Ni13 2.516685 1_555
Ni11 Ni12 2.516685 1_555
Ni11 Ni13 2.518064 1_565
Ni11 Ni12 2.518065 1_655
Ni12 Ni4 2.450065 1_555
Ni12 Ni13 2.516685 1_555
Ni12 Ni13 2.518064 1_465
Ni13 Ni4 2.450065 1_555
