# generated using pymatgen
data_Li2B3O4F3
_symmetry_space_group_name_H-M   'P 1'
_cell_length_a   4.80176247
_cell_length_b   8.74029931
_cell_length_c   12.28257993
_cell_angle_alpha   90.00000000
_cell_angle_beta   90.00000000
_cell_angle_gamma   90.00000000
_symmetry_Int_Tables_number   1
_chemical_formula_structural   Li2B3O4F3
_chemical_formula_sum   'Li8 B12 O16 F12'
_cell_volume   515.48564665
_cell_formula_units_Z   4
loop_
 _symmetry_equiv_pos_site_id
 _symmetry_equiv_pos_as_xyz
  1  'x, y, z'
loop_
 _atom_site_type_symbol
 _atom_site_label
 _atom_site_symmetry_multiplicity
 _atom_site_fract_x
 _atom_site_fract_y
 _atom_site_fract_z
 _atom_site_occupancy
  Li  Li0  1  0.58727749  0.14511462  0.10341665  1
  Li  Li1  1  0.91272251  0.85488538  0.60341665  1
  Li  Li2  1  0.08727749  0.35488538  0.89658335  1
  Li  Li3  1  0.41272251  0.64511462  0.39658335  1
  Li  Li4  1  0.33114034  0.70365886  0.92986139  1
  Li  Li5  1  0.16885966  0.29634114  0.42986139  1
  Li  Li6  1  0.83114034  0.79634114  0.07013861  1
  Li  Li7  1  0.66885966  0.20365886  0.57013861  1
  B  B0  1  0.91456731  0.81823601  0.84026987  1
  B  B1  1  0.58543269  0.18176399  0.34026987  1
  B  B2  1  0.41456731  0.68176399  0.15973013  1
  B  B3  1  0.08543269  0.31823601  0.65973013  1
  B  B4  1  0.09724225  0.03102828  0.96176536  1
  B  B5  1  0.40275775  0.96897172  0.46176536  1
  B  B6  1  0.59724225  0.46897172  0.03823464  1
  B  B7  1  0.90275775  0.53102828  0.53823464  1
  B  B8  1  0.98068539  0.07848551  0.76922235  1
  B  B9  1  0.51931461  0.92151449  0.26922235  1
  B  B10  1  0.48068539  0.42151449  0.23077765  1
  B  B11  1  0.01931461  0.57848551  0.73077765  1
  O  O0  1  0.03486574  0.87328705  0.94160859  1
  O  O1  1  0.46513426  0.12671295  0.44160859  1
  O  O2  1  0.53486574  0.62671295  0.05839141  1
  O  O3  1  0.96513426  0.37328705  0.55839141  1
  O  O4  1  0.04198810  0.13364875  0.87127827  1
  O  O5  1  0.45801190  0.86635125  0.37127827  1
  O  O6  1  0.54198810  0.36635125  0.12872173  1
  O  O7  1  0.95801190  0.63364875  0.62872173  1
  O  O8  1  0.94232839  0.92565791  0.75138267  1
  O  O9  1  0.55767161  0.07434209  0.25138267  1
  O  O10  1  0.44232839  0.57434209  0.24861733  1
  O  O11  1  0.05767161  0.42565791  0.74861733  1
  O  O12  1  0.95410007  0.17181571  0.68124145  1
  O  O13  1  0.54589993  0.82818429  0.18124145  1
  O  O14  1  0.45410007  0.32818429  0.31875855  1
  O  O15  1  0.04589993  0.67181571  0.81875855  1
  F  F0  1  0.93951200  0.08086364  0.05578170  1
  F  F1  1  0.56048800  0.91913636  0.55578170  1
  F  F2  1  0.43951200  0.41913636  0.94421830  1
  F  F3  1  0.06048800  0.58086364  0.44421830  1
  F  F4  1  0.38238045  0.04919991  0.99394451  1
  F  F5  1  0.11761955  0.95080009  0.49394451  1
  F  F6  1  0.88238045  0.45080009  0.00605549  1
  F  F7  1  0.61761955  0.54919991  0.50605549  1
  F  F8  1  0.61873163  0.79106785  0.85516561  1
  F  F9  1  0.88126837  0.20893215  0.35516561  1
  F  F10  1  0.11873163  0.70893215  0.14483439  1
  F  F11  1  0.38126837  0.29106785  0.64483439  1
loop_
_geom_bond_atom_site_label_1
_geom_bond_atom_site_label_2
_geom_bond_distance
_geom_bond_site_symmetry_2
Li0 O9 1.925046 1_555
Li0 O6 1.970531 1_555
Li1 O8 1.925046 1_555
Li1 O7 1.970531 1_555
Li2 O11 1.925046 1_555
Li2 O4 1.970531 1_555
Li3 O10 1.925046 1_555
Li3 O5 1.970531 1_555
Li4 O15 1.953365 1_555
Li4 O2 1.975217 1_556
Li4 O0 2.059813 1_555
Li5 O14 1.953365 1_555
Li5 O3 1.975217 1_455
Li5 O1 2.059813 1_555
Li6 O13 1.953365 1_555
Li6 O0 1.975217 1_654
Li6 O2 2.059813 1_555
Li7 O12 1.953365 1_555
Li7 O1 1.975217 1_555
Li7 O3 2.059813 1_555
B0 O8 1.446116 1_555
B0 O15 1.450958 1_655
B0 F8 1.451817 1_555
B0 O0 1.454122 1_655
B1 O9 1.446116 1_555
B1 O14 1.450958 1_555
B1 F9 1.451817 1_555
B1 O1 1.454122 1_555
B2 O10 1.446116 1_555
B2 O13 1.450958 1_555
B2 F10 1.451817 1_555
B2 O2 1.454122 1_555
B3 O11 1.446116 1_555
B3 O12 1.450958 1_455
B3 F11 1.451817 1_555
B3 O3 1.454122 1_455
B4 O0 1.432422 1_545
B4 F4 1.433896 1_555
B4 F0 1.448045 1_456
B4 O4 1.452627 1_555
B5 O1 1.432422 1_565
B5 F5 1.433896 1_555
B5 F1 1.448045 1_555
B5 O5 1.452627 1_555
B6 O2 1.432422 1_555
B6 F6 1.433896 1_555
B6 F2 1.448045 1_554
B6 O6 1.452627 1_555
B7 O3 1.432422 1_555
B7 F7 1.433896 1_555
B7 F3 1.448045 1_655
B7 O7 1.452627 1_555
B8 O12 1.359957 1_555
B8 O8 1.366085 1_545
B8 O4 1.374917 1_655
B9 O13 1.359957 1_555
B9 O9 1.366085 1_565
B9 O5 1.374917 1_555
B10 O14 1.359957 1_555
B10 O10 1.366085 1_555
B10 O6 1.374917 1_555
B11 O15 1.359957 1_555
B11 O11 1.366085 1_555
B11 O7 1.374917 1_455
F0 Li0 1.875723 1_555
F1 Li1 1.875723 1_555
F2 Li2 1.875723 1_555
F3 Li3 1.875723 1_555
F4 Li0 1.865135 1_556
F5 Li1 1.865135 1_455
F6 Li2 1.865135 1_654
F7 Li3 1.865135 1_555
F8 Li4 1.825487 1_555
F9 Li5 1.825487 1_655
F10 Li6 1.825487 1_455
F11 Li7 1.825487 1_555
