# generated using pymatgen
data_NdEr3Fe34
_symmetry_space_group_name_H-M   'P 1'
_cell_length_a   6.40735137
_cell_length_b   6.40735137
_cell_length_c   12.79611169
_cell_angle_alpha   82.86974020
_cell_angle_beta   82.86974020
_cell_angle_gamma   82.81195779
_symmetry_Int_Tables_number   1
_chemical_formula_structural   NdEr3Fe34
_chemical_formula_sum   'Nd1 Er3 Fe34'
_cell_volume   514.01805192
_cell_formula_units_Z   1
loop_
 _symmetry_equiv_pos_site_id
 _symmetry_equiv_pos_as_xyz
  1  'x, y, z'
loop_
 _atom_site_type_symbol
 _atom_site_label
 _atom_site_symmetry_multiplicity
 _atom_site_fract_x
 _atom_site_fract_y
 _atom_site_fract_z
 _atom_site_occupancy
  Nd  Nd0  1  0.34157400  0.34157400  0.67121600  1
  Er  Er0  1  0.34071700  0.34071700  0.17046400  1
  Er  Er1  1  0.65997000  0.65997000  0.82957000  1
  Er  Er2  1  0.65925800  0.65925800  0.32951200  1
  Fe  Fe0  1  0.70486600  0.29482200  0.00054900  1
  Fe  Fe1  1  0.70852300  0.29300700  0.49872500  1
  Fe  Fe2  1  0.29373800  0.99754100  0.85426600  1
  Fe  Fe3  1  0.29536200  0.99987400  0.35187100  1
  Fe  Fe4  1  0.99919600  0.70743100  0.64684700  1
  Fe  Fe5  1  0.00046500  0.70460100  0.14772700  1
  Fe  Fe6  1  0.70743100  0.99919600  0.64684700  1
  Fe  Fe7  1  0.70460100  0.00046500  0.14772700  1
  Fe  Fe8  1  0.99754100  0.29373800  0.85426600  1
  Fe  Fe9  1  0.99987400  0.29536200  0.35187100  1
  Fe  Fe10  1  0.29300700  0.70852300  0.49872500  1
  Fe  Fe11  1  0.29482200  0.70486600  0.00054900  1
  Fe  Fe12  1  0.99902700  0.99902700  0.75063100  1
  Fe  Fe13  1  0.99989500  0.99989500  0.24987800  1
  Fe  Fe14  1  0.99990400  0.50000100  0.00046800  1
  Fe  Fe15  1  0.99908800  0.50081500  0.49900400  1
  Fe  Fe16  1  0.50000100  0.99990400  0.00046800  1
  Fe  Fe17  1  0.50081500  0.99908800  0.49900400  1
  Fe  Fe18  1  0.09590600  0.09590600  0.54804700  1
  Fe  Fe19  1  0.09693300  0.09693300  0.04906400  1
  Fe  Fe20  1  0.90266800  0.90266800  0.95176600  1
  Fe  Fe21  1  0.90295800  0.90295800  0.45031200  1
  Fe  Fe22  1  0.15478200  0.65816900  0.82950500  1
  Fe  Fe23  1  0.15630400  0.65641900  0.32778300  1
  Fe  Fe24  1  0.65798100  0.65798100  0.57708100  1
  Fe  Fe25  1  0.65584100  0.65584100  0.07783200  1
  Fe  Fe26  1  0.65816900  0.15478200  0.82950500  1
  Fe  Fe27  1  0.65641900  0.15630400  0.32778300  1
  Fe  Fe28  1  0.84367400  0.34352900  0.67167600  1
  Fe  Fe29  1  0.84366800  0.34368600  0.17184900  1
  Fe  Fe30  1  0.34396700  0.34396700  0.92355900  1
  Fe  Fe31  1  0.34384200  0.34384200  0.42052500  1
  Fe  Fe32  1  0.34352900  0.84367400  0.67167600  1
  Fe  Fe33  1  0.34368600  0.84366800  0.17184900  1
loop_
_geom_bond_atom_site_label_1
_geom_bond_atom_site_label_2
_geom_bond_distance
_geom_bond_site_symmetry_2
Er0 Fe3 2.995860 1_545
Er0 Fe9 2.995860 1_455
Er0 Fe0 2.997573 1_555
Er0 Fe11 2.997573 1_555
Er0 Fe7 2.998436 1_555
Er0 Fe5 2.998436 1_555
Er0 Fe19 3.017995 1_555
Er0 Fe27 3.059847 1_555
Er0 Fe23 3.059847 1_555
Er0 Fe25 3.064403 1_555
Er0 Fe30 3.154405 1_554
Er0 Fe33 3.180304 1_545
Er0 Fe29 3.180304 1_455
Er0 Fe31 3.204916 1_555
Er0 Fe29 3.227278 1_555
Er0 Fe33 3.227278 1_555
Er0 Fe14 3.257674 1_455
Er0 Fe16 3.257674 1_545
Er0 Fe13 3.265261 1_445
Er1 Fe8 3.000003 1_555
Er1 Fe2 3.000003 1_555
Er1 Fe4 3.001823 1_555
Er1 Fe6 3.001823 1_555
Er1 Fe0 3.010059 1_556
Er1 Fe11 3.010059 1_556
Er1 Fe20 3.015582 1_555
Er1 Fe32 3.067230 1_555
Er1 Fe28 3.067230 1_555
Er1 Fe30 3.076119 1_555
Er1 Fe22 3.168908 1_655
Er1 Fe26 3.168908 1_565
Er1 Fe25 3.170462 1_556
Er1 Fe24 3.234096 1_555
Er1 Fe26 3.238485 1_555
Er1 Fe22 3.238485 1_555
Er1 Fe12 3.248233 1_555
Er1 Fe14 3.262535 1_556
Er1 Fe16 3.262535 1_556
Er2 Fe9 2.999550 1_555
Er2 Fe3 2.999550 1_555
Er2 Fe7 3.000610 1_565
Er2 Fe5 3.000610 1_655
Er2 Fe10 3.002982 1_555
Er2 Fe1 3.002982 1_555
Er2 Fe21 3.012366 1_555
Er2 Fe33 3.062312 1_555
Er2 Fe29 3.062312 1_555
Er2 Fe31 3.062446 1_555
Er2 Fe24 3.165912 1_555
Er2 Fe23 3.179867 1_655
Er2 Fe27 3.179867 1_565
Er2 Fe25 3.226123 1_555
Er2 Fe27 3.227764 1_555
Er2 Fe23 3.227764 1_555
Er2 Fe17 3.247796 1_555
Er2 Fe15 3.247796 1_555
Er2 Fe13 3.263979 1_555
Fe0 Fe16 2.432147 1_545
Fe0 Fe14 2.433739 1_555
Fe0 Fe8 2.479733 1_554
Fe0 Fe7 2.494442 1_555
Fe0 Fe26 2.530284 1_554
Fe0 Fe29 2.533323 1_555
Fe0 Fe30 2.592924 1_554
Fe0 Fe25 2.595448 1_555
Fe0 Fe19 2.774602 1_655
Fe0 Fe20 2.775875 1_544
Fe1 Fe15 2.421200 1_555
Fe1 Fe17 2.437655 1_545
Fe1 Fe9 2.479015 1_555
Fe1 Fe6 2.500147 1_545
Fe1 Fe27 2.528528 1_555
Fe1 Fe28 2.544848 1_555
Fe1 Fe31 2.622282 1_555
Fe1 Fe24 2.625033 1_555
Fe1 Fe18 2.749658 1_655
Fe1 Fe21 2.755962 1_545
Fe1 Nd0 3.032448 1_555
Fe2 Fe8 2.510423 1_465
Fe2 Fe22 2.519326 1_555
Fe2 Fe30 2.560261 1_565
Fe2 Fe32 2.615488 1_555
Fe2 Fe26 2.625578 1_565
Fe2 Fe20 2.760716 1_455
Fe2 Nd0 3.024669 1_565
Fe3 Fe9 2.504414 1_465
Fe3 Fe31 2.538752 1_565
Fe3 Fe33 2.592650 1_555
Fe4 Fe6 2.472860 1_555
Fe4 Nd0 3.017665 1_655
Fe5 Fe7 2.507601 1_465
Fe6 Nd0 3.017665 1_565
Fe8 Nd0 3.024669 1_655
Fe10 Fe17 2.421200 1_555
Fe10 Fe15 2.437655 1_455
Fe10 Fe3 2.479015 1_555
Fe10 Fe4 2.500147 1_455
Fe10 Fe23 2.528528 1_555
Fe10 Fe32 2.544848 1_555
Fe10 Fe31 2.622282 1_555
Fe10 Fe24 2.625033 1_555
Fe10 Fe18 2.749658 1_565
Fe10 Fe21 2.755962 1_455
Fe10 Nd0 3.032448 1_555
Fe11 Fe14 2.432147 1_455
Fe11 Fe16 2.433739 1_555
Fe11 Fe2 2.479733 1_554
Fe11 Fe5 2.494442 1_555
Fe11 Fe22 2.530284 1_554
Fe11 Fe33 2.533323 1_555
Fe11 Fe30 2.592924 1_554
Fe11 Fe25 2.595448 1_555
Fe11 Fe19 2.774602 1_565
Fe11 Fe20 2.775875 1_454
Fe12 Fe6 2.422713 1_555
Fe12 Fe4 2.422713 1_555
Fe12 Fe2 2.436896 1_655
Fe12 Fe8 2.436896 1_565
Fe12 Fe26 2.437589 1_565
Fe12 Fe22 2.437589 1_655
Fe12 Fe28 2.455629 1_565
Fe12 Fe32 2.455629 1_655
Fe12 Fe20 2.587079 1_555
Fe12 Fe18 2.605393 1_665
Fe12 Nd0 3.281046 1_665
Fe13 Fe7 2.428895 1_565
Fe13 Fe5 2.428895 1_655
Fe13 Fe9 2.429125 1_565
Fe13 Fe3 2.429125 1_655
Fe13 Fe27 2.448048 1_565
Fe13 Fe23 2.448048 1_655
Fe13 Fe29 2.449802 1_565
Fe13 Fe33 2.449802 1_655
Fe13 Fe21 2.579775 1_555
Fe13 Fe19 2.584510 1_665
Fe14 Fe8 2.423354 1_554
Fe14 Fe5 2.425993 1_655
Fe14 Fe22 2.441320 1_654
Fe14 Fe29 2.444421 1_555
Fe14 Fe30 2.445837 1_654
Fe14 Fe25 2.447400 1_555
Fe14 Fe20 2.593850 1_554
Fe14 Fe19 2.595861 1_655
Fe15 Fe9 2.426705 1_555
Fe15 Fe24 2.438434 1_555
Fe15 Fe4 2.440056 1_555
Fe15 Fe23 2.443405 1_655
Fe15 Fe28 2.457926 1_555
Fe15 Fe31 2.458378 1_655
Fe15 Fe21 2.589668 1_555
Fe15 Fe18 2.607535 1_655
Fe15 Nd0 3.285512 1_655
Fe16 Fe2 2.423354 1_554
Fe16 Fe7 2.425993 1_565
Fe16 Fe26 2.441320 1_564
Fe16 Fe33 2.444421 1_555
Fe16 Fe30 2.445837 1_564
Fe16 Fe25 2.447400 1_555
Fe16 Fe20 2.593850 1_554
Fe16 Fe19 2.595861 1_565
Fe17 Fe3 2.426705 1_555
Fe17 Fe24 2.438434 1_555
Fe17 Fe6 2.440056 1_555
Fe17 Fe27 2.443405 1_565
Fe17 Fe32 2.457926 1_555
Fe17 Fe31 2.458378 1_565
Fe17 Fe21 2.589668 1_555
Fe17 Fe18 2.607535 1_565
Fe17 Nd0 3.285512 1_565
Fe18 Fe21 2.402295 1_445
Fe18 Fe28 2.641698 1_455
Fe18 Fe32 2.641698 1_545
Fe18 Fe31 2.656049 1_555
Fe18 Fe6 2.754670 1_445
Fe18 Fe4 2.754670 1_445
Fe18 Fe9 2.775546 1_455
Fe18 Fe3 2.775546 1_545
Fe18 Nd0 3.048168 1_555
Fe19 Fe20 2.409556 1_444
Fe19 Fe33 2.635006 1_545
Fe19 Fe29 2.635006 1_455
Fe19 Fe30 2.637186 1_554
Fe19 Fe2 2.760765 1_544
Fe19 Fe8 2.760765 1_454
Fe19 Fe7 2.775328 1_455
Fe19 Fe5 2.775328 1_545
Fe20 Fe22 2.618964 1_655
Fe20 Fe26 2.618964 1_565
Fe20 Fe25 2.638908 1_556
Fe20 Fe8 2.760716 1_565
Fe20 Fe7 2.773452 1_566
Fe20 Fe5 2.773452 1_656
Fe21 Fe24 2.628949 1_555
Fe21 Fe27 2.632484 1_565
Fe21 Fe23 2.632484 1_655
Fe21 Fe4 2.771985 1_555
Fe21 Fe6 2.771985 1_555
Fe21 Fe9 2.775644 1_565
Fe21 Fe3 2.775644 1_655
Fe22 Fe32 2.472159 1_555
Fe22 Fe30 2.474024 1_555
Fe22 Fe4 2.621641 1_455
Fe22 Fe8 2.625578 1_455
Fe22 Nd0 3.075809 1_555
Fe23 Fe31 2.454612 1_555
Fe23 Fe33 2.456382 1_555
Fe23 Fe3 2.541443 1_555
Fe23 Fe5 2.591956 1_555
Fe23 Fe9 2.603475 1_455
Fe24 Fe28 2.468284 1_555
Fe24 Fe32 2.468284 1_555
Fe24 Fe6 2.530870 1_555
Fe24 Fe4 2.530870 1_555
Fe24 Nd0 3.080127 1_555
Fe25 Fe29 2.460842 1_555
Fe25 Fe33 2.460842 1_555
Fe25 Fe7 2.550616 1_565
Fe25 Fe5 2.550616 1_655
Fe26 Fe28 2.472159 1_555
Fe26 Fe30 2.474024 1_555
Fe26 Fe8 2.519326 1_555
Fe26 Fe6 2.621641 1_545
Fe26 Nd0 3.075809 1_555
Fe27 Fe31 2.454612 1_555
Fe27 Fe29 2.456382 1_555
Fe27 Fe9 2.541443 1_555
Fe27 Fe7 2.591956 1_555
Fe27 Fe3 2.603475 1_545
Fe28 Fe6 2.540755 1_545
Fe28 Fe8 2.615488 1_555
Fe28 Fe4 2.617146 1_555
Fe28 Nd0 3.187954 1_655
Fe28 Nd0 3.219461 1_555
Fe29 Fe7 2.540202 1_555
Fe29 Fe9 2.592650 1_555
Fe29 Fe5 2.603752 1_655
Fe30 Fe8 2.560261 1_455
Fe30 Nd0 3.232895 1_555
Fe31 Fe9 2.538752 1_455
Fe31 Nd0 3.204335 1_555
Fe32 Fe4 2.540755 1_455
Fe32 Fe6 2.617146 1_555
Fe32 Nd0 3.187954 1_565
Fe32 Nd0 3.219461 1_555
Fe33 Fe5 2.540202 1_555
Fe33 Fe7 2.603752 1_565
