# generated using pymatgen
data_ZrCrAgS4
_symmetry_space_group_name_H-M   'P 1'
_cell_length_a   6.67626517
_cell_length_b   7.79263157
_cell_length_c   12.93696286
_cell_angle_alpha   81.60687072
_cell_angle_beta   85.18831931
_cell_angle_gamma   90.31521030
_symmetry_Int_Tables_number   1
_chemical_formula_structural   ZrCrAgS4
_chemical_formula_sum   'Zr4 Cr4 Ag4 S16'
_cell_volume   663.39161571
_cell_formula_units_Z   4
loop_
 _symmetry_equiv_pos_site_id
 _symmetry_equiv_pos_as_xyz
  1  'x, y, z'
loop_
 _atom_site_type_symbol
 _atom_site_label
 _atom_site_symmetry_multiplicity
 _atom_site_fract_x
 _atom_site_fract_y
 _atom_site_fract_z
 _atom_site_occupancy
  Zr  Zr0  1  0.14525700  0.70268800  0.69605800  1
  Zr  Zr1  1  0.85474300  0.29731200  0.30394200  1
  Zr  Zr2  1  0.23937200  0.88389300  0.00075700  1
  Zr  Zr3  1  0.76062800  0.11610700  0.99924300  1
  Cr  Cr0  1  0.36259800  0.55626100  0.29456500  1
  Cr  Cr1  1  0.63740200  0.44373900  0.70543500  1
  Cr  Cr2  1  0.36499900  0.04798500  0.29857000  1
  Cr  Cr3  1  0.63500100  0.95201500  0.70143000  1
  Ag  Ag0  1  0.11826200  0.19713800  0.69269600  1
  Ag  Ag1  1  0.88173800  0.80286200  0.30730400  1
  Ag  Ag2  1  0.26802300  0.37113500  0.00048900  1
  Ag  Ag3  1  0.73197700  0.62886500  0.99951100  1
  S  S0  1  0.12530700  0.66173900  0.88407300  1
  S  S1  1  0.87469300  0.33826100  0.11592700  1
  S  S2  1  0.09622500  0.14381600  0.89376600  1
  S  S3  1  0.90377500  0.85618400  0.10623400  1
  S  S4  1  0.23185100  0.78212000  0.36078100  1
  S  S5  1  0.76814900  0.21788000  0.63921900  1
  S  S6  1  0.20774900  0.28886400  0.35686300  1
  S  S7  1  0.79225100  0.71113600  0.64313700  1
  S  S8  1  0.33705100  0.96537300  0.62421400  1
  S  S9  1  0.66294900  0.03462700  0.37578600  1
  S  S10  1  0.33728700  0.46580700  0.63452700  1
  S  S11  1  0.66271300  0.53419300  0.36547300  1
  S  S12  1  0.41526800  0.07382800  0.11741100  1
  S  S13  1  0.58473200  0.92617200  0.88258900  1
  S  S14  1  0.37303600  0.60643400  0.12173000  1
  S  S15  1  0.62696400  0.39356600  0.87827000  1
loop_
_geom_bond_atom_site_label_1
_geom_bond_atom_site_label_2
_geom_bond_distance
_geom_bond_site_symmetry_2
Cr0 S14 2.208074 1_555
Cr0 S4 2.219258 1_555
Cr0 S11 2.269750 1_555
Cr0 S6 2.325187 1_555
Cr1 S15 2.208074 1_555
Cr1 S5 2.219258 1_555
Cr1 S10 2.269750 1_555
Cr1 S7 2.325187 1_555
Cr2 S4 2.259024 1_545
Cr2 S9 2.295841 1_555
Cr2 S12 2.318489 1_555
Cr2 S6 2.344447 1_555
Cr3 S5 2.259024 1_565
Cr3 S8 2.295841 1_555
Cr3 S13 2.318489 1_555
Cr3 S7 2.344447 1_555
Ag0 S5 2.492231 1_455
Ag0 S10 2.531723 1_555
Ag0 S8 2.541538 1_545
Ag0 S2 2.565212 1_555
Ag1 S4 2.492231 1_655
Ag1 S11 2.531723 1_555
Ag1 S9 2.541538 1_565
Ag1 S3 2.565212 1_555
Ag2 S2 2.704993 1_554
Ag2 S14 2.706233 1_555
Ag2 S15 2.748142 1_554
Ag2 S0 2.751944 1_554
Ag2 S12 2.805965 1_555
Ag2 S1 2.900805 1_455
Ag3 S3 2.704993 1_556
Ag3 S15 2.706233 1_555
Ag3 S14 2.748142 1_556
Ag3 S1 2.751944 1_556
Ag3 S13 2.805965 1_555
Ag3 S0 2.900805 1_655
S0 Zr0 2.398845 1_555
S0 Zr2 2.607065 1_556
S1 Zr1 2.398845 1_555
S1 Zr3 2.607065 1_554
S2 Zr3 2.514832 1_455
S2 Zr2 2.521218 1_546
S3 Zr2 2.514832 1_655
S3 Zr3 2.521218 1_564
S6 Zr1 2.507314 1_455
S7 Zr0 2.507314 1_655
S8 Zr0 2.431005 1_555
S9 Zr1 2.431005 1_555
S10 Zr0 2.443057 1_555
S11 Zr1 2.443057 1_555
S12 Zr2 2.603367 1_545
S12 Zr3 2.648618 1_554
S13 Zr3 2.603367 1_565
S13 Zr2 2.648618 1_556
S14 Zr2 2.681075 1_555
S15 Zr3 2.681075 1_555
