# generated using pymatgen
data_Nd5Pb4
_symmetry_space_group_name_H-M   'P 1'
_cell_length_a   8.45988880
_cell_length_b   8.54481689
_cell_length_c   16.11165345
_cell_angle_alpha   90.00026323
_cell_angle_beta   90.00652938
_cell_angle_gamma   90.00027873
_symmetry_Int_Tables_number   1
_chemical_formula_structural   Nd5Pb4
_chemical_formula_sum   'Nd20 Pb16'
_cell_volume   1164.68243096
_cell_formula_units_Z   4
loop_
 _symmetry_equiv_pos_site_id
 _symmetry_equiv_pos_as_xyz
  1  'x, y, z'
loop_
 _atom_site_type_symbol
 _atom_site_label
 _atom_site_symmetry_multiplicity
 _atom_site_fract_x
 _atom_site_fract_y
 _atom_site_fract_z
 _atom_site_occupancy
  Nd  Nd0  1  0.38417350  0.84192611  0.88290053  1
  Nd  Nd1  1  0.88410100  0.65804612  0.61711903  1
  Nd  Nd2  1  0.61589451  0.15805027  0.38282276  1
  Nd  Nd3  1  0.11582054  0.34191774  0.11716058  1
  Nd  Nd4  1  0.61582046  0.15808169  0.11716062  1
  Nd  Nd5  1  0.11589183  0.34194546  0.38282383  1
  Nd  Nd6  1  0.38409948  0.84195664  0.61711796  1
  Nd  Nd7  1  0.88417982  0.65807850  0.88289912  1
  Nd  Nd8  1  0.53829187  0.32485705  0.89711403  1
  Nd  Nd9  1  0.03820798  0.17518147  0.60286935  1
  Nd  Nd10  1  0.46179916  0.67519956  0.39708338  1
  Nd  Nd11  1  0.96171984  0.82483448  0.10294333  1
  Nd  Nd12  1  0.46172092  0.67516271  0.10294292  1
  Nd  Nd13  1  0.96179970  0.82479863  0.39708343  1
  Nd  Nd14  1  0.53820647  0.32482183  0.60287036  1
  Nd  Nd15  1  0.03828991  0.17514831  0.89711530  1
  Nd  Nd16  1  0.21671806  0.50298613  0.74998165  1
  Nd  Nd17  1  0.71672229  0.99701509  0.74998151  1
  Nd  Nd18  1  0.78328341  0.49703230  0.25002207  1
  Nd  Nd19  1  0.28328013  0.00296558  0.25002117  1
  Pb  Pb0  1  0.27379012  0.02939885  0.04418779  1
  Pb  Pb1  1  0.77385946  0.47052475  0.45582639  1
  Pb  Pb2  1  0.72613039  0.97047820  0.54409647  1
  Pb  Pb3  1  0.22620504  0.52943459  0.95587542  1
  Pb  Pb4  1  0.72620755  0.97056542  0.95587653  1
  Pb  Pb5  1  0.22612775  0.52952154  0.54409709  1
  Pb  Pb6  1  0.27386766  0.02947208  0.45582068  1
  Pb  Pb7  1  0.77380922  0.47059653  0.04418096  1
  Pb  Pb8  1  0.58216090  0.62403414  0.75001344  1
  Pb  Pb9  1  0.08215990  0.87596744  0.75001315  1
  Pb  Pb10  1  0.41779975  0.37603944  0.24998418  1
  Pb  Pb11  1  0.91780282  0.12395279  0.24998295  1
  Pb  Pb12  1  0.34648341  0.14453280  0.74999390  1
  Pb  Pb13  1  0.84648466  0.35546972  0.74999309  1
  Pb  Pb14  1  0.65354627  0.85545389  0.25001343  1
  Pb  Pb15  1  0.15354624  0.64454715  0.25001360  1
loop_
_geom_bond_atom_site_label_1
_geom_bond_atom_site_label_2
_geom_bond_distance
_geom_bond_site_symmetry_2
Nd0 Pb0 3.192407 1_566
Nd0 Pb3 3.209137 1_555
Nd0 Pb8 3.294960 1_555
Nd0 Pb4 3.310980 1_555
Nd0 Pb9 3.345959 1_555
Nd0 Pb12 3.372369 1_565
Nd1 Pb1 3.192158 1_555
Nd1 Pb2 3.208903 1_555
Nd1 Pb9 3.295225 1_655
Nd1 Pb5 3.311107 1_655
Nd1 Pb8 3.345905 1_555
Nd1 Pb13 3.371822 1_555
Nd2 Pb2 3.192130 1_545
Nd2 Pb1 3.209053 1_555
Nd2 Pb10 3.295146 1_555
Nd2 Pb6 3.311117 1_555
Nd2 Pb11 3.345201 1_555
Nd2 Pb14 3.371307 1_545
Nd3 Pb3 3.192579 1_554
Nd3 Pb0 3.209325 1_555
Nd3 Pb11 3.294767 1_455
Nd3 Pb7 3.310958 1_455
Nd3 Pb10 3.345135 1_555
Nd3 Pb15 3.371981 1_555
Nd4 Pb4 3.192561 1_544
Nd4 Pb7 3.209403 1_555
Nd4 Pb10 3.294756 1_555
Nd4 Pb0 3.311058 1_555
Nd4 Pb11 3.345152 1_555
Nd4 Pb14 3.371985 1_545
Nd5 Pb5 3.192124 1_555
Nd5 Pb6 3.209063 1_555
Nd5 Pb11 3.295142 1_455
Nd5 Pb1 3.311193 1_455
Nd5 Pb10 3.345194 1_555
Nd5 Pb15 3.371366 1_555
Nd6 Pb6 3.192186 1_565
Nd6 Pb5 3.208898 1_555
Nd6 Pb8 3.295276 1_555
Nd6 Pb2 3.311121 1_555
Nd6 Pb9 3.345909 1_555
Nd6 Pb12 3.371827 1_565
Nd7 Pb7 3.192351 1_556
Nd7 Pb4 3.209134 1_555
Nd7 Pb9 3.294904 1_655
Nd7 Pb3 3.310943 1_655
Nd7 Pb8 3.345974 1_555
Nd7 Pb13 3.372363 1_555
Nd8 Pb12 3.259583 1_555
Nd8 Pb3 3.305066 1_555
Nd8 Pb7 3.336770 1_556
Nd8 Pb8 3.505751 1_555
Nd8 Pb13 3.533601 1_555
Nd8 Pb4 3.547995 1_545
Nd9 Pb13 3.259398 1_455
Nd9 Pb2 3.305439 1_445
Nd9 Pb6 3.337514 1_555
Nd9 Pb9 3.506472 1_545
Nd9 Pb12 3.533782 1_555
Nd9 Pb5 3.548489 1_555
Nd10 Pb14 3.258734 1_555
Nd10 Pb1 3.305073 1_555
Nd10 Pb5 3.337075 1_555
Nd10 Pb10 3.505674 1_555
Nd10 Pb15 3.533049 1_555
Nd10 Pb6 3.547897 1_565
Nd11 Pb15 3.258943 1_655
Nd11 Pb0 3.304858 1_665
Nd11 Pb4 3.336731 1_554
Nd11 Pb11 3.504751 1_565
Nd11 Pb14 3.532936 1_555
Nd11 Pb7 3.547563 1_555
Nd12 Pb14 3.258940 1_555
Nd12 Pb7 3.305027 1_555
Nd12 Pb3 3.336733 1_554
Nd12 Pb10 3.504816 1_555
Nd12 Pb15 3.532947 1_555
Nd12 Pb0 3.547616 1_565
Nd13 Pb15 3.258716 1_655
Nd13 Pb6 3.305074 1_665
Nd13 Pb2 3.337061 1_555
Nd13 Pb11 3.505667 1_565
Nd13 Pb14 3.533060 1_555
Nd13 Pb1 3.547958 1_555
Nd14 Pb12 3.259401 1_555
Nd14 Pb5 3.305450 1_555
Nd14 Pb1 3.337407 1_555
Nd14 Pb8 3.506437 1_555
Nd14 Pb13 3.533776 1_555
Nd14 Pb2 3.548544 1_545
Nd15 Pb13 3.259600 1_455
Nd15 Pb4 3.305050 1_445
Nd15 Pb0 3.336795 1_556
Nd15 Pb9 3.505779 1_545
Nd15 Pb12 3.533613 1_555
Nd15 Pb3 3.547923 1_555
Nd16 Pb12 3.253716 1_555
Nd16 Pb8 3.260037 1_555
Nd16 Pb5 3.325844 1_555
Nd16 Pb3 3.325937 1_555
Nd16 Pb13 3.376253 1_455
Nd16 Pb9 3.384258 1_555
Nd17 Pb13 3.253708 1_565
Nd17 Pb9 3.260003 1_655
Nd17 Pb2 3.325850 1_555
Nd17 Pb4 3.325959 1_555
Nd17 Pb12 3.376311 1_565
Nd17 Pb8 3.384254 1_555
Nd18 Pb14 3.253380 1_555
Nd18 Pb10 3.260215 1_555
Nd18 Pb1 3.324541 1_555
Nd18 Pb7 3.325081 1_555
Nd18 Pb15 3.376479 1_655
Nd18 Pb11 3.384938 1_555
Nd19 Pb15 3.253335 1_545
Nd19 Pb11 3.260158 1_455
Nd19 Pb6 3.324459 1_555
Nd19 Pb0 3.324960 1_555
Nd19 Pb14 3.376506 1_545
Nd19 Pb10 3.384883 1_555
Pb10 Pb15 3.203404 1_555
Pb11 Pb14 3.203352 1_545
Pb12 Pb9 3.204154 1_545
Pb13 Pb8 3.204166 1_555
