# generated using pymatgen
data_La2Al7Ni
_symmetry_space_group_name_H-M   'P 1'
_cell_length_a   6.13547000
_cell_length_b   6.14323800
_cell_length_c   11.57395084
_cell_angle_alpha   74.60983003
_cell_angle_beta   74.62977158
_cell_angle_gamma   90.00000000
_symmetry_Int_Tables_number   1
_chemical_formula_structural   La2Al7Ni
_chemical_formula_sum   'La4 Al14 Ni2'
_cell_volume   404.39208072
_cell_formula_units_Z   2
loop_
 _symmetry_equiv_pos_site_id
 _symmetry_equiv_pos_as_xyz
  1  'x, y, z'
loop_
 _atom_site_type_symbol
 _atom_site_label
 _atom_site_symmetry_multiplicity
 _atom_site_fract_x
 _atom_site_fract_y
 _atom_site_fract_z
 _atom_site_occupancy
  La  La0  1  0.99633800  0.99633800  0.00732400  1
  La  La1  1  0.49952500  0.49952500  0.00094900  1
  La  La2  1  0.74865500  0.24865500  0.50269100  1
  La  La3  1  0.24689400  0.74689400  0.50621300  1
  Al  Al0  1  0.20435200  0.20435200  0.59129700  1
  Al  Al1  1  0.81063100  0.81063100  0.37873800  1
  Al  Al2  1  0.60251400  0.13140800  0.25511800  1
  Al  Al3  1  0.14236700  0.61347300  0.25511800  1
  Al  Al4  1  0.60251400  0.61347300  0.25511800  1
  Al  Al5  1  0.14236700  0.13140800  0.25511800  1
  Al  Al6  1  0.86453800  0.34974200  0.75493900  1
  Al  Al7  1  0.38052300  0.89531800  0.75493900  1
  Al  Al8  1  0.86453800  0.89531800  0.75493900  1
  Al  Al9  1  0.38052300  0.34974200  0.75493900  1
  Al  Al10  1  0.69212000  0.69212000  0.61576000  1
  Al  Al11  1  0.06176700  0.56176700  0.87646600  1
  Al  Al12  1  0.45380600  0.95380600  0.09238700  1
  Al  Al13  1  0.94300200  0.44300200  0.11399600  1
  Ni  Ni0  1  0.31434100  0.31434100  0.37131800  1
  Ni  Ni1  1  0.56351600  0.06351600  0.87296900  1
loop_
_geom_bond_atom_site_label_1
_geom_bond_atom_site_label_2
_geom_bond_distance
_geom_bond_site_symmetry_2
La0 Ni1 3.389523 1_564
La0 Ni1 3.389529 1_664
La1 Ni1 3.364548 1_554
La1 Ni1 3.364560 1_564
La2 Ni0 3.376041 1_655
La2 Ni0 3.376047 1_555
La3 Ni0 3.395505 1_565
La3 Ni0 3.395510 1_555
Al0 Ni0 2.360145 1_555
Al0 La3 3.204397 1_545
Al0 La3 3.204397 1_555
Al0 La2 3.211656 1_455
Al0 La2 3.211656 1_555
Al1 Al10 2.542999 1_555
Al1 Al5 2.651943 1_665
Al1 Al3 2.651946 1_655
Al1 Al2 2.651947 1_565
Al1 Al4 2.651950 1_555
Al1 La2 3.347151 1_555
Al1 La2 3.347157 1_565
Al1 La3 3.358796 1_555
Al1 La3 3.358802 1_655
Al2 Ni0 2.395714 1_555
Al2 La1 3.409036 1_555
Al2 La3 3.432365 1_545
Al2 La2 3.462762 1_555
Al2 La0 3.513077 1_545
Al3 Ni0 2.395714 1_555
Al3 La1 3.409036 1_555
Al3 La3 3.432376 1_555
Al3 La2 3.462751 1_455
Al3 La0 3.513077 1_455
Al4 Ni0 2.395710 1_555
Al4 La1 3.409036 1_555
Al4 La3 3.432371 1_555
Al4 La2 3.462757 1_555
Al4 La0 3.513080 1_555
Al5 Ni0 2.395717 1_555
Al5 La1 3.409036 1_555
Al5 La3 3.432370 1_545
Al5 La2 3.462756 1_455
Al5 La0 3.513074 1_445
Al6 Ni1 2.399294 1_555
Al6 La2 3.387827 1_555
Al6 La0 3.433106 1_546
Al6 La1 3.461161 1_556
Al6 La3 3.526358 1_655
Al7 Ni1 2.399305 1_565
Al7 La2 3.387835 1_565
Al7 La0 3.433108 1_456
Al7 La1 3.461158 1_556
Al7 La3 3.526349 1_555
Al8 Ni1 2.399301 1_565
Al8 La2 3.387832 1_565
Al8 La0 3.433108 1_556
Al8 La1 3.461161 1_556
Al8 La3 3.526352 1_655
Al9 Ni1 2.399298 1_555
Al9 La2 3.387830 1_555
Al9 La0 3.433106 1_446
Al9 La1 3.461158 1_556
Al9 La3 3.526355 1_555
Al10 Al8 2.691245 1_555
Al10 Al7 2.691245 1_555
Al10 Al6 2.691249 1_555
Al10 Al9 2.691249 1_555
Al10 La3 3.285174 1_555
Al10 La3 3.285180 1_655
Al10 La2 3.302494 1_555
Al10 La2 3.302500 1_565
Al11 Al13 2.548449 1_456
Al11 Al8 2.648383 1_455
Al11 Al7 2.648383 1_555
Al11 Al6 2.648387 1_455
Al11 Al9 2.648387 1_555
Al11 La1 3.345853 1_556
Al11 La1 3.345859 1_456
Al11 La0 3.377273 1_456
Al11 La0 3.377273 1_446
Al12 Ni1 2.354126 1_564
Al12 La0 3.200607 1_455
Al12 La0 3.200613 1_555
Al12 La1 3.224480 1_555
Al12 La1 3.224480 1_565
Al13 Al3 2.688446 1_655
Al13 Al5 2.688449 1_655
Al13 Al4 2.688449 1_555
Al13 Al2 2.688453 1_555
Al13 La0 3.277907 1_555
Al13 La0 3.277907 1_545
Al13 La1 3.298795 1_655
Al13 La1 3.298801 1_555
