# generated using pymatgen
data_BaSrTbSbO6
_symmetry_space_group_name_H-M   'P 1'
_cell_length_a   8.46820551
_cell_length_b   8.46569216
_cell_length_c   8.46082471
_cell_angle_alpha   90.00000000
_cell_angle_beta   90.00000000
_cell_angle_gamma   90.00000000
_symmetry_Int_Tables_number   1
_chemical_formula_structural   BaSrTbSbO6
_chemical_formula_sum   'Ba4 Sr4 Tb4 Sb4 O24'
_cell_volume   606.54993244
_cell_formula_units_Z   4
loop_
 _symmetry_equiv_pos_site_id
 _symmetry_equiv_pos_as_xyz
  1  'x, y, z'
loop_
 _atom_site_type_symbol
 _atom_site_label
 _atom_site_symmetry_multiplicity
 _atom_site_fract_x
 _atom_site_fract_y
 _atom_site_fract_z
 _atom_site_occupancy
  Ba  Ba0  1  -0.00000000  -0.00000000  -0.00000000  1
  Ba  Ba1  1  0.50000000  0.50000000  0.50000000  1
  Ba  Ba2  1  -0.00000000  0.50000000  -0.00000000  1
  Ba  Ba3  1  -0.00000000  -0.00000000  0.50000000  1
  Sr  Sr0  1  -0.00000000  0.50000000  0.50000000  1
  Sr  Sr1  1  0.50000000  -0.00000000  0.50000000  1
  Sr  Sr2  1  0.50000000  0.50000000  0.00000000  1
  Sr  Sr3  1  0.50000000  -0.00000000  0.00000000  1
  Tb  Tb0  1  0.25204266  0.25048815  0.25076447  1
  Tb  Tb1  1  0.74795734  0.74951185  0.25076447  1
  Tb  Tb2  1  0.74795734  0.25048815  0.74923553  1
  Tb  Tb3  1  0.25204266  0.74951185  0.74923553  1
  Sb  Sb0  1  0.74668682  0.74921881  0.74993359  1
  Sb  Sb1  1  0.25331318  0.25078119  0.74993359  1
  Sb  Sb2  1  0.25331318  0.74921881  0.25006641  1
  Sb  Sb3  1  0.74668682  0.25078119  0.25006641  1
  O  O0  1  0.98433025  0.22939466  0.26878036  1
  O  O1  1  0.01566975  0.77060534  0.26878036  1
  O  O2  1  0.01566975  0.22939466  0.73121964  1
  O  O3  1  0.98433025  0.77060534  0.73121964  1
  O  O4  1  0.27916776  0.98587010  0.22455623  1
  O  O5  1  0.27916776  0.01412990  0.77544377  1
  O  O6  1  0.72083224  0.01412990  0.22455623  1
  O  O7  1  0.72083224  0.98587010  0.77544377  1
  O  O8  1  0.23320397  0.27284899  0.98662968  1
  O  O9  1  0.76679603  0.27284899  0.01337032  1
  O  O10  1  0.23320397  0.72715101  0.01337032  1
  O  O11  1  0.76679603  0.72715101  0.98662968  1
  O  O12  1  0.51260555  0.28221988  0.22324367  1
  O  O13  1  0.48739445  0.71778012  0.22324367  1
  O  O14  1  0.48739445  0.28221988  0.77675633  1
  O  O15  1  0.51260555  0.71778012  0.77675633  1
  O  O16  1  0.22572241  0.51392193  0.28187254  1
  O  O17  1  0.22572241  0.48607807  0.71812746  1
  O  O18  1  0.77427759  0.48607807  0.28187254  1
  O  O19  1  0.77427759  0.51392193  0.71812746  1
  O  O20  1  0.28066753  0.22092862  0.51489035  1
  O  O21  1  0.71933247  0.22092862  0.48510965  1
  O  O22  1  0.28066753  0.77907138  0.48510965  1
  O  O23  1  0.71933247  0.77907138  0.51489035  1
loop_
_geom_bond_atom_site_label_1
_geom_bond_atom_site_label_2
_geom_bond_distance
_geom_bond_site_symmetry_2
Ba0 O1 2.993403 1_545
Ba0 O0 2.993403 1_455
Ba0 O2 2.993403 1_554
Ba0 O3 2.993403 1_444
Ba0 O5 3.035256 1_554
Ba0 O6 3.035256 1_455
Ba0 O7 3.035256 1_444
Ba0 O4 3.035256 1_545
Ba0 O11 3.041076 1_444
Ba0 O10 3.041076 1_545
Ba0 O8 3.041076 1_554
Ba0 O9 3.041076 1_455
Ba1 O18 2.968931 1_555
Ba1 O19 2.968931 1_555
Ba1 O16 2.968931 1_555
Ba1 O17 2.968931 1_555
Ba1 O14 2.982198 1_555
Ba1 O15 2.982198 1_555
Ba1 O12 2.982198 1_555
Ba1 O13 2.982198 1_555
Ba1 O20 3.007855 1_555
Ba1 O23 3.007855 1_555
Ba1 O21 3.007855 1_555
Ba1 O22 3.007855 1_555
Ba2 O8 2.758732 1_554
Ba2 O9 2.758732 1_455
Ba2 O10 2.758732 1_555
Ba2 O11 2.758732 1_454
Ba2 O17 3.058629 1_554
Ba2 O19 3.058629 1_454
Ba2 O16 3.058629 1_555
Ba2 O18 3.058629 1_455
Ba2 O0 3.230666 1_455
Ba2 O1 3.230666 1_555
Ba2 O2 3.230666 1_554
Ba2 O3 3.230666 1_454
Ba3 O2 2.759720 1_555
Ba3 O3 2.759720 1_445
Ba3 O1 2.759720 1_545
Ba3 O0 2.759720 1_455
Ba3 O20 3.027026 1_555
Ba3 O23 3.027026 1_445
Ba3 O22 3.027026 1_545
Ba3 O21 3.027026 1_455
Ba3 O7 3.321774 1_445
Ba3 O6 3.321774 1_455
Ba3 O5 3.321774 1_555
Ba3 O4 3.321774 1_545
O0 Sb3 2.026736 1_555
O0 Tb0 2.279169 1_655
O0 Sr0 3.015427 1_655
O1 Sb2 2.026736 1_555
O1 Tb1 2.279169 1_455
O1 Sr0 3.015427 1_555
O2 Sb1 2.026736 1_555
O2 Tb2 2.279169 1_455
O2 Sr0 3.015427 1_555
O3 Sb0 2.026736 1_555
O3 Tb3 2.279169 1_655
O3 Sr0 3.015427 1_655
O4 Sb2 2.026870 1_555
O4 Tb0 2.262812 1_565
O4 Sr3 2.668547 1_565
O4 Sr1 2.990410 1_565
O5 Sb1 2.026870 1_555
O5 Tb3 2.262812 1_545
O5 Sr3 2.668547 1_556
O5 Sr1 2.990410 1_555
O6 Sb3 2.026870 1_555
O6 Tb1 2.262812 1_545
O6 Sr3 2.668547 1_555
O6 Sr1 2.990410 1_555
O7 Sb0 2.026870 1_555
O7 Tb2 2.262812 1_565
O7 Sr3 2.668547 1_566
O7 Sr1 2.990410 1_565
O8 Sb1 2.018535 1_555
O8 Tb0 2.248468 1_556
O8 Sr2 2.969015 1_556
O8 Sr3 3.233047 1_556
O9 Sb3 2.018535 1_555
O9 Tb2 2.248468 1_554
O9 Sr2 2.969015 1_555
O9 Sr3 3.233047 1_555
O10 Sb2 2.018535 1_555
O10 Tb3 2.248468 1_554
O10 Sr2 2.969015 1_555
O10 Sr3 3.233047 1_565
O11 Sb0 2.018535 1_555
O11 Tb1 2.248468 1_556
O11 Sr2 2.969015 1_556
O11 Sr3 3.233047 1_566
O12 Sb3 2.012870 1_555
O12 Tb0 2.234955 1_555
O12 Sr2 2.641616 1_555
O12 Sr3 3.047502 1_555
O13 Sb2 2.012870 1_555
O13 Tb1 2.234955 1_555
O13 Sr2 2.641616 1_555
O13 Sr3 3.047502 1_565
O14 Sb1 2.012870 1_555
O14 Tb2 2.234955 1_555
O14 Sr2 2.641616 1_556
O14 Sr3 3.047502 1_556
O15 Sb0 2.012870 1_555
O15 Tb3 2.234955 1_555
O15 Sr2 2.641616 1_556
O15 Sr3 3.047502 1_566
O16 Sb2 2.023580 1_555
O16 Tb0 2.256661 1_555
O16 Sr0 2.659623 1_555
O17 Sb1 2.023580 1_555
O17 Tb3 2.256661 1_555
O17 Sr0 2.659623 1_555
O18 Sb3 2.023580 1_555
O18 Tb1 2.256661 1_555
O18 Sr0 2.659623 1_655
O19 Sb0 2.023580 1_555
O19 Tb2 2.256661 1_555
O19 Sr0 2.659623 1_655
O20 Sb1 2.017993 1_555
O20 Tb0 2.261717 1_555
O20 Sr1 2.638883 1_555
O21 Sb3 2.017993 1_555
O21 Tb2 2.261717 1_555
O21 Sr1 2.638883 1_555
O22 Sb2 2.017993 1_555
O22 Tb3 2.261717 1_555
O22 Sr1 2.638883 1_565
O23 Sb0 2.017993 1_555
O23 Tb1 2.261717 1_555
O23 Sr1 2.638883 1_565
