# generated using pymatgen
data_PrWO5
_symmetry_space_group_name_H-M   'P 1'
_cell_length_a   13.26608700
_cell_length_b   5.39910600
_cell_length_c   7.28813685
_cell_angle_alpha   64.18930130
_cell_angle_beta   90.00000000
_cell_angle_gamma   90.00000000
_symmetry_Int_Tables_number   1
_chemical_formula_structural   PrWO5
_chemical_formula_sum   'Pr4 W4 O20'
_cell_volume   469.93555782
_cell_formula_units_Z   4
loop_
 _symmetry_equiv_pos_site_id
 _symmetry_equiv_pos_as_xyz
  1  'x, y, z'
loop_
 _atom_site_type_symbol
 _atom_site_label
 _atom_site_symmetry_multiplicity
 _atom_site_fract_x
 _atom_site_fract_y
 _atom_site_fract_z
 _atom_site_occupancy
  Pr  Pr0  1  0.55795300  0.62957200  0.21757700  1
  Pr  Pr1  1  0.44204700  0.37042800  0.78242300  1
  Pr  Pr2  1  0.05795300  0.37042800  0.28242300  1
  Pr  Pr3  1  0.94204700  0.62957200  0.71757700  1
  W  W0  1  0.85994800  0.88089100  0.15495500  1
  W  W1  1  0.14005200  0.11910900  0.84504500  1
  W  W2  1  0.35994800  0.11910900  0.34504500  1
  W  W3  1  0.64005200  0.88089100  0.65495500  1
  O  O0  1  0.90634100  0.54614400  0.41828400  1
  O  O1  1  0.09365900  0.45385600  0.58171600  1
  O  O2  1  0.40634100  0.45385600  0.08171600  1
  O  O3  1  0.59365900  0.54614400  0.91828400  1
  O  O4  1  0.43182100  0.00331700  0.16269800  1
  O  O5  1  0.56817900  0.99668300  0.83730200  1
  O  O6  1  0.93182100  0.99668300  0.33730200  1
  O  O7  1  0.06817900  0.00331700  0.66269800  1
  O  O8  1  0.92952600  0.69806700  0.02885700  1
  O  O9  1  0.07047400  0.30193300  0.97114300  1
  O  O10  1  0.42952600  0.30193300  0.47114300  1
  O  O11  1  0.57047400  0.69806700  0.52885700  1
  O  O12  1  0.72834200  0.79469200  0.19820100  1
  O  O13  1  0.27165800  0.20530800  0.80179900  1
  O  O14  1  0.22834200  0.20530800  0.30179900  1
  O  O15  1  0.77165800  0.79469200  0.69820100  1
  O  O16  1  0.14351400  0.77840400  0.05840900  1
  O  O17  1  0.85648600  0.22159600  0.94159100  1
  O  O18  1  0.64351400  0.22159600  0.44159100  1
  O  O19  1  0.35648600  0.77840400  0.55840900  1
loop_
_geom_bond_atom_site_label_1
_geom_bond_atom_site_label_2
_geom_bond_distance
_geom_bond_site_symmetry_2
O0 W0 2.075581 1_555
O0 Pr3 2.457818 1_555
O0 Pr2 2.596888 1_655
O1 W1 2.075581 1_555
O1 Pr2 2.457818 1_555
O1 Pr3 2.596888 1_455
O2 W2 2.075581 1_555
O2 Pr1 2.457818 1_554
O2 Pr0 2.596888 1_555
O3 W3 2.075581 1_555
O3 Pr0 2.457818 1_556
O3 Pr1 2.596888 1_555
O4 W2 1.946691 1_555
O4 Pr0 2.515730 1_545
O4 Pr1 2.616227 1_554
O5 W3 1.946691 1_555
O5 Pr1 2.515730 1_565
O5 Pr0 2.616227 1_556
O6 W0 1.946691 1_555
O6 Pr2 2.515730 1_665
O6 Pr3 2.616227 1_555
O7 W1 1.946691 1_555
O7 Pr3 2.515730 1_445
O7 Pr2 2.616227 1_555
O8 W0 1.860339 1_555
O8 Pr3 2.457988 1_554
O8 Pr2 2.569119 1_655
O9 W1 1.860339 1_555
O9 Pr2 2.457988 1_556
O9 Pr3 2.569119 1_455
O10 W2 1.860339 1_555
O10 Pr1 2.457988 1_555
O10 Pr0 2.569119 1_555
O11 W3 1.860339 1_555
O11 Pr0 2.457988 1_555
O11 Pr1 2.569119 1_555
O12 W0 1.798988 1_555
O12 Pr0 2.411322 1_555
O13 W1 1.798988 1_555
O13 Pr1 2.411322 1_555
O14 W2 1.798988 1_555
O14 Pr2 2.411322 1_555
O15 W3 1.798988 1_555
O15 Pr3 2.411322 1_555
O16 W1 1.820189 1_564
O16 Pr2 2.382059 1_555
O17 W0 1.820189 1_546
O17 Pr3 2.382059 1_555
O18 W3 1.820189 1_545
O18 Pr0 2.382059 1_555
O19 W2 1.820189 1_565
O19 Pr1 2.382059 1_555
