# generated using pymatgen
data_NaFe5O8
_symmetry_space_group_name_H-M   'P 1'
_cell_length_a   8.62192200
_cell_length_b   8.62192200
_cell_length_c   8.62192200
_cell_angle_alpha   90.00000000
_cell_angle_beta   90.00000000
_cell_angle_gamma   90.00000000
_symmetry_Int_Tables_number   1
_chemical_formula_structural   NaFe5O8
_chemical_formula_sum   'Na4 Fe20 O32'
_cell_volume   640.93246271
_cell_formula_units_Z   4
loop_
 _symmetry_equiv_pos_site_id
 _symmetry_equiv_pos_as_xyz
  1  'x, y, z'
loop_
 _atom_site_type_symbol
 _atom_site_label
 _atom_site_symmetry_multiplicity
 _atom_site_fract_x
 _atom_site_fract_y
 _atom_site_fract_z
 _atom_site_occupancy
  Na  Na0  1  0.12500000  0.87500000  0.37500000  1
  Na  Na1  1  0.37500000  0.12500000  0.87500000  1
  Na  Na2  1  0.62500000  0.62500000  0.62500000  1
  Na  Na3  1  0.87500000  0.37500000  0.12500000  1
  Fe  Fe0  1  0.99675800  0.99675800  0.99675800  1
  Fe  Fe1  1  0.00324200  0.49675800  0.50324200  1
  Fe  Fe2  1  0.12788800  0.12211200  0.62500000  1
  Fe  Fe3  1  0.12211200  0.62500000  0.12788800  1
  Fe  Fe4  1  0.12500000  0.37211200  0.87788800  1
  Fe  Fe5  1  0.25324200  0.25324200  0.25324200  1
  Fe  Fe6  1  0.24675800  0.74675800  0.75324200  1
  Fe  Fe7  1  0.37788800  0.37500000  0.62788800  1
  Fe  Fe8  1  0.37500000  0.62788800  0.37788800  1
  Fe  Fe9  1  0.37211200  0.87788800  0.12500000  1
  Fe  Fe10  1  0.50324200  0.00324200  0.49675800  1
  Fe  Fe11  1  0.49675800  0.50324200  0.00324200  1
  Fe  Fe12  1  0.62500000  0.12788800  0.12211200  1
  Fe  Fe13  1  0.62788800  0.37788800  0.37500000  1
  Fe  Fe14  1  0.62211200  0.87500000  0.87211200  1
  Fe  Fe15  1  0.75324200  0.24675800  0.74675800  1
  Fe  Fe16  1  0.74675800  0.75324200  0.24675800  1
  Fe  Fe17  1  0.87788800  0.12500000  0.37211200  1
  Fe  Fe18  1  0.87211200  0.62211200  0.87500000  1
  Fe  Fe19  1  0.87500000  0.87211200  0.62211200  1
  O  O0  1  0.14072800  0.38459000  0.11093500  1
  O  O1  1  0.13641700  0.36358300  0.63641700  1
  O  O2  1  0.13906500  0.86541000  0.10927200  1
  O  O3  1  0.11541000  0.88906500  0.64072800  1
  O  O4  1  0.11093500  0.14072800  0.38459000  1
  O  O5  1  0.10927200  0.13906500  0.86541000  1
  O  O6  1  0.13459000  0.60927200  0.36093500  1
  O  O7  1  0.11358300  0.61358300  0.88641700  1
  O  O8  1  0.38459000  0.11093500  0.14072800  1
  O  O9  1  0.38641700  0.38641700  0.38641700  1
  O  O10  1  0.36093500  0.13459000  0.60927200  1
  O  O11  1  0.36541000  0.39072800  0.86093500  1
  O  O12  1  0.36358300  0.63641700  0.13641700  1
  O  O13  1  0.39072800  0.86093500  0.36541000  1
  O  O14  1  0.35927200  0.61541000  0.61093500  1
  O  O15  1  0.38906500  0.85927200  0.88459000  1
  O  O16  1  0.63641700  0.13641700  0.36358300  1
  O  O17  1  0.60927200  0.36093500  0.13459000  1
  O  O18  1  0.61093500  0.35927200  0.61541000  1
  O  O19  1  0.61541000  0.61093500  0.35927200  1
  O  O20  1  0.64072800  0.11541000  0.88906500  1
  O  O21  1  0.63906500  0.63459000  0.89072800  1
  O  O22  1  0.61358300  0.88641700  0.11358300  1
  O  O23  1  0.63459000  0.89072800  0.63906500  1
  O  O24  1  0.86541000  0.10927200  0.13906500  1
  O  O25  1  0.88641700  0.11358300  0.61358300  1
  O  O26  1  0.86093500  0.36541000  0.39072800  1
  O  O27  1  0.88906500  0.64072800  0.11541000  1
  O  O28  1  0.89072800  0.63906500  0.63459000  1
  O  O29  1  0.88459000  0.38906500  0.85927200  1
  O  O30  1  0.85927200  0.88459000  0.38906500  1
  O  O31  1  0.86358300  0.86358300  0.86358300  1
loop_
_geom_bond_atom_site_label_1
_geom_bond_atom_site_label_2
_geom_bond_distance
_geom_bond_site_symmetry_2
Na0 O13 2.295783 1_555
Na0 O3 2.295783 1_555
Na0 O4 2.295783 1_565
Na0 O2 2.295783 1_555
Na0 O30 2.295783 1_455
Na0 O6 2.295783 1_555
Na1 O11 2.295783 1_555
Na1 O20 2.295783 1_555
Na1 O5 2.295783 1_555
Na1 O8 2.295783 1_556
Na1 O10 2.295783 1_555
Na1 O15 2.295783 1_545
Na2 O28 2.295783 1_555
Na2 O23 2.295783 1_555
Na2 O21 2.295783 1_555
Na2 O18 2.295783 1_555
Na2 O19 2.295783 1_555
Na2 O14 2.295783 1_555
Na3 O26 2.295783 1_555
Na3 O27 2.295783 1_555
Na3 O0 2.295783 1_655
Na3 O24 2.295783 1_555
Na3 O17 2.295783 1_555
Na3 O29 2.295783 1_554
Fe0 O24 1.931060 1_566
Fe0 O2 1.931060 1_656
Fe0 O5 1.931060 1_665
Fe0 O31 1.988783 1_555
Fe1 O28 1.931060 1_455
Fe1 O26 1.931060 1_455
Fe1 O6 1.931060 1_555
Fe1 O1 1.988783 1_555
Fe2 O3 2.016755 1_545
Fe2 O10 2.016755 1_555
Fe2 O4 2.084133 1_555
Fe2 O5 2.084133 1_555
Fe2 O1 2.085567 1_555
Fe2 O25 2.085567 1_455
Fe3 O27 2.016755 1_455
Fe3 O6 2.016755 1_555
Fe3 O0 2.084133 1_555
Fe3 O2 2.084133 1_555
Fe3 O12 2.085567 1_555
Fe3 O7 2.085567 1_554
Fe4 O0 2.016755 1_556
Fe4 O5 2.016755 1_555
Fe4 O11 2.084133 1_555
Fe4 O29 2.084133 1_455
Fe4 O1 2.085567 1_555
Fe4 O7 2.085567 1_555
Fe5 O0 1.931060 1_555
Fe5 O4 1.931060 1_555
Fe5 O8 1.931060 1_555
Fe5 O9 1.988783 1_555
Fe6 O14 1.931060 1_555
Fe6 O3 1.931060 1_555
Fe6 O15 1.931060 1_555
Fe6 O7 1.988783 1_555
Fe7 O11 2.016755 1_555
Fe7 O18 2.016755 1_555
Fe7 O14 2.084133 1_555
Fe7 O10 2.084133 1_555
Fe7 O9 2.085567 1_555
Fe7 O1 2.085567 1_555
Fe8 O13 2.016755 1_555
Fe8 O14 2.016755 1_555
Fe8 O19 2.084133 1_555
Fe8 O6 2.084133 1_555
Fe8 O9 2.085567 1_555
Fe8 O12 2.085567 1_555
Fe9 O8 2.016755 1_565
Fe9 O2 2.016755 1_555
Fe9 O13 2.084133 1_555
Fe9 O15 2.084133 1_554
Fe9 O12 2.085567 1_555
Fe9 O22 2.085567 1_555
Fe10 O23 1.931060 1_545
Fe10 O13 1.931060 1_545
Fe10 O10 1.931060 1_555
Fe10 O16 1.988783 1_555
Fe11 O21 1.931060 1_554
Fe11 O11 1.931060 1_554
Fe11 O17 1.931060 1_555
Fe11 O12 1.988783 1_555
Fe12 O20 2.016755 1_554
Fe12 O17 2.016755 1_555
Fe12 O8 2.084133 1_555
Fe12 O24 2.084133 1_555
Fe12 O16 2.085567 1_555
Fe12 O22 2.085567 1_545
Fe13 O26 2.016755 1_555
Fe13 O19 2.016755 1_555
Fe13 O18 2.084133 1_555
Fe13 O17 2.084133 1_555
Fe13 O9 2.085567 1_555
Fe13 O16 2.085567 1_555
Fe14 O23 2.016755 1_555
Fe14 O15 2.016755 1_555
Fe14 O21 2.084133 1_555
Fe14 O20 2.084133 1_565
Fe14 O22 2.085567 1_556
Fe14 O31 2.085567 1_555
Fe15 O18 1.931060 1_555
Fe15 O20 1.931060 1_555
Fe15 O29 1.931060 1_555
Fe15 O25 1.988783 1_555
Fe16 O19 1.931060 1_555
Fe16 O27 1.931060 1_555
Fe16 O30 1.931060 1_555
Fe16 O22 1.988783 1_555
Fe17 O4 2.016755 1_655
Fe17 O24 2.016755 1_555
Fe17 O26 2.084133 1_555
Fe17 O30 2.084133 1_545
Fe17 O16 2.085567 1_555
Fe17 O25 2.085567 1_555
Fe18 O21 2.016755 1_555
Fe18 O29 2.016755 1_555
Fe18 O28 2.084133 1_555
Fe18 O27 2.084133 1_556
Fe18 O7 2.085567 1_655
Fe18 O31 2.085567 1_555
Fe19 O28 2.016755 1_555
Fe19 O30 2.016755 1_555
Fe19 O23 2.084133 1_555
Fe19 O3 2.084133 1_655
Fe19 O25 2.085567 1_565
Fe19 O31 2.085567 1_555
