# generated using pymatgen
data_LaMg14Nb
_symmetry_space_group_name_H-M   'P 1'
_cell_length_a   6.54383902
_cell_length_b   6.18062031
_cell_length_c   10.43377641
_cell_angle_alpha   90.00000000
_cell_angle_beta   90.00000000
_cell_angle_gamma   118.18027672
_symmetry_Int_Tables_number   1
_chemical_formula_structural   LaMg14Nb
_chemical_formula_sum   'La1 Mg14 Nb1'
_cell_volume   371.97332519
_cell_formula_units_Z   1
loop_
 _symmetry_equiv_pos_site_id
 _symmetry_equiv_pos_as_xyz
  1  'x, y, z'
loop_
 _atom_site_type_symbol
 _atom_site_label
 _atom_site_symmetry_multiplicity
 _atom_site_fract_x
 _atom_site_fract_y
 _atom_site_fract_z
 _atom_site_occupancy
  La  La0  1  0.16070195  0.33035047  0.12500000  1
  Mg  Mg0  1  0.16570874  0.33285387  0.62500000  1
  Mg  Mg1  1  0.16445065  0.83222483  0.62500000  1
  Mg  Mg2  1  0.66137332  0.32782746  0.12500000  1
  Mg  Mg3  1  0.66448292  0.33296171  0.62500000  1
  Mg  Mg4  1  0.66137332  0.83354486  0.12500000  1
  Mg  Mg5  1  0.66448292  0.83152021  0.62500000  1
  Mg  Mg6  1  0.33534560  0.15921545  0.37911341  1
  Mg  Mg7  1  0.33534560  0.15921545  0.87088659  1
  Mg  Mg8  1  0.33534560  0.67613115  0.37911341  1
  Mg  Mg9  1  0.33534560  0.67613115  0.87088659  1
  Mg  Mg10  1  0.82885402  0.16442751  0.38395821  1
  Mg  Mg11  1  0.82885402  0.16442751  0.86604179  1
  Mg  Mg12  1  0.84396566  0.67198333  0.36716530  1
  Mg  Mg13  1  0.84396566  0.67198333  0.88283470  1
  Nb  Nb0  1  0.17040439  0.83520170  0.12500000  1
loop_
_geom_bond_atom_site_label_1
_geom_bond_atom_site_label_2
_geom_bond_distance
_geom_bond_site_symmetry_2
La0 Nb0 3.090817 1_545
La0 Nb0 3.090817 1_555
La0 Mg7 3.255194 1_554
La0 Mg6 3.255194 1_555
La0 Mg9 3.255200 1_554
La0 Mg8 3.255200 1_555
La0 Mg4 3.260191 1_445
La0 Mg2 3.260191 1_455
La0 Mg4 3.283706 1_555
La0 Mg2 3.283706 1_555
La0 Mg11 3.311242 1_454
La0 Mg10 3.311242 1_455
Mg0 Mg1 3.090319 1_545
Mg0 Mg1 3.090319 1_555
Mg0 Mg6 3.176655 1_555
Mg0 Mg7 3.176655 1_555
Mg0 Mg9 3.176661 1_555
Mg0 Mg8 3.176661 1_555
Mg0 Mg10 3.178127 1_455
Mg0 Mg11 3.178127 1_455
Mg0 Mg5 3.263583 1_555
Mg0 Mg3 3.263583 1_555
Mg0 Mg5 3.280256 1_445
Mg0 Mg3 3.280256 1_455
Mg1 Mg9 3.127667 1_555
Mg1 Mg8 3.127667 1_555
Mg1 Mg7 3.127673 1_565
Mg1 Mg6 3.127673 1_565
Mg1 Mg13 3.264121 1_455
Mg1 Mg12 3.264121 1_455
Mg1 Mg3 3.269654 1_455
Mg1 Mg5 3.269654 1_455
Mg1 Mg3 3.274189 1_565
Mg1 Mg5 3.274190 1_555
Mg2 Mg4 3.054973 1_545
Mg2 Mg4 3.125647 1_555
Mg2 Nb0 3.217670 1_545
Mg2 Mg7 3.250772 1_554
Mg2 Mg6 3.250772 1_555
Mg2 Nb0 3.326193 1_655
Mg3 Mg5 3.081401 1_555
Mg3 Mg5 3.099220 1_545
Mg3 Mg6 3.192103 1_555
Mg3 Mg7 3.192103 1_555
Mg4 Nb0 3.217670 1_555
Mg4 Mg8 3.250772 1_555
Mg4 Mg9 3.250772 1_554
Mg4 Nb0 3.326194 1_655
Mg5 Mg8 3.192103 1_555
Mg5 Mg9 3.192103 1_555
Mg6 Mg8 2.985761 1_545
Mg6 Nb0 3.188042 1_545
Mg6 Mg8 3.194860 1_555
Mg7 Mg9 2.985761 1_545
Mg7 Nb0 3.188042 1_546
Mg7 Mg9 3.194860 1_555
Mg8 Nb0 3.188036 1_555
Mg9 Nb0 3.188036 1_556
Mg10 Mg12 3.096500 1_555
Mg10 Mg12 3.096500 1_545
Mg10 Mg3 3.102468 1_555
Mg10 Mg5 3.102474 1_545
Mg10 Mg8 3.214749 1_545
Mg10 Mg6 3.214750 1_555
Mg10 Mg2 3.250660 1_555
Mg10 Mg4 3.250666 1_545
Mg10 Mg8 3.330117 1_655
Mg10 Mg6 3.330117 1_655
Mg11 Mg13 3.096500 1_555
Mg11 Mg13 3.096500 1_545
Mg11 Mg3 3.102468 1_555
Mg11 Mg5 3.102474 1_545
Mg11 Mg9 3.214749 1_545
Mg11 Mg7 3.214750 1_555
Mg11 Mg2 3.250660 1_556
Mg11 Mg4 3.250666 1_546
Mg11 Mg9 3.330117 1_655
Mg11 Mg7 3.330117 1_655
Mg12 Nb0 3.151147 1_655
Mg12 Mg4 3.152124 1_555
Mg12 Mg2 3.152130 1_555
Mg12 Mg6 3.205909 1_665
Mg12 Mg8 3.205909 1_655
Mg12 Mg5 3.268437 1_555
Mg12 Mg3 3.268443 1_555
Mg12 Mg6 3.342836 1_555
Mg12 Mg8 3.342836 1_555
Mg13 Nb0 3.151147 1_656
Mg13 Mg4 3.152124 1_556
Mg13 Mg2 3.152130 1_556
Mg13 Mg7 3.205909 1_665
Mg13 Mg9 3.205909 1_655
Mg13 Mg5 3.268437 1_555
Mg13 Mg3 3.268443 1_555
Mg13 Mg7 3.342836 1_555
Mg13 Mg9 3.342836 1_555
