# generated using pymatgen
data_Mn2B4Mo
_symmetry_space_group_name_H-M   'P 1'
_cell_length_a   6.79473347
_cell_length_b   6.79473347
_cell_length_c   6.79473347
_cell_angle_alpha   154.31241270
_cell_angle_beta   153.73711043
_cell_angle_gamma   37.06576908
_symmetry_Int_Tables_number   1
_chemical_formula_structural   Mn2B4Mo
_chemical_formula_sum   'Mn2 B4 Mo1'
_cell_volume   60.08400598
_cell_formula_units_Z   1
loop_
 _symmetry_equiv_pos_site_id
 _symmetry_equiv_pos_as_xyz
  1  'x, y, z'
loop_
 _atom_site_type_symbol
 _atom_site_label
 _atom_site_symmetry_multiplicity
 _atom_site_fract_x
 _atom_site_fract_y
 _atom_site_fract_z
 _atom_site_occupancy
  Mn  Mn0  1  0.18649100  0.18649100  0.00000000  1
  Mn  Mn1  1  0.81350900  0.81350900  0.00000000  1
  B  B0  1  0.35226400  0.35226400  0.00000000  1
  B  B1  1  0.64773600  0.64773600  0.00000000  1
  B  B2  1  0.42780600  0.92780600  0.50000000  1
  B  B3  1  0.57219400  0.07219400  0.50000000  1
  Mo  Mo0  1  0.00000000  0.50000000  0.50000000  1
loop_
_geom_bond_atom_site_label_1
_geom_bond_atom_site_label_2
_geom_bond_distance
_geom_bond_site_symmetry_2
B0 B2 1.796880 1_544
B0 B2 1.796880 1_555
B0 Mn0 2.135941 1_555
B0 Mn1 2.216675 1_444
B0 Mn1 2.216675 1_556
B0 Mn1 2.216675 1_545
B0 Mn1 2.216675 1_455
B0 Mo0 2.450790 1_655
B0 Mo0 2.450790 1_554
B1 B3 1.796880 1_565
B1 B3 1.796880 1_554
B1 Mn1 2.135941 1_555
B1 Mn0 2.216675 1_655
B1 Mn0 2.216675 1_565
B1 Mn0 2.216675 1_666
B1 Mn0 2.216675 1_554
B1 Mo0 2.450790 1_655
B1 Mo0 2.450790 1_554
B2 B3 1.860401 1_565
B2 Mn1 2.133475 1_455
B2 Mn1 2.133475 1_556
B2 Mo0 2.351504 1_655
B2 Mo0 2.351504 1_666
B2 Mo0 2.351504 1_554
B2 Mo0 2.351504 1_565
B3 Mn0 2.133475 1_555
B3 Mn0 2.133475 1_656
B3 Mo0 2.351504 1_656
B3 Mo0 2.351504 1_544
B3 Mo0 2.351504 1_645
B3 Mo0 2.351504 1_555
