# generated using pymatgen
data_Be2BH3O5
_symmetry_space_group_name_H-M   'P 1'
_cell_length_a   10.84102000
_cell_length_b   4.43484900
_cell_length_c   4.45596924
_cell_angle_alpha   60.22054523
_cell_angle_beta   90.00000000
_cell_angle_gamma   90.00000000
_symmetry_Int_Tables_number   1
_chemical_formula_structural   Be2BH3O5
_chemical_formula_sum   'Be4 B2 H6 O10'
_cell_volume   185.94421618
_cell_formula_units_Z   2
loop_
 _symmetry_equiv_pos_site_id
 _symmetry_equiv_pos_as_xyz
  1  'x, y, z'
loop_
 _atom_site_type_symbol
 _atom_site_label
 _atom_site_symmetry_multiplicity
 _atom_site_fract_x
 _atom_site_fract_y
 _atom_site_fract_z
 _atom_site_occupancy
  Be  Be0  1  0.79987600  0.01321200  0.99098200  1
  Be  Be1  1  0.29987600  0.98678800  0.00901800  1
  Be  Be2  1  0.69724300  0.35028700  0.31503300  1
  Be  Be3  1  0.19724300  0.64971300  0.68496700  1
  B  B0  1  0.75093100  0.67894800  0.65533200  1
  B  B1  1  0.25093100  0.32105200  0.34466800  1
  H  H0  1  0.99496200  0.87532600  0.91050500  1
  H  H1  1  0.99554500  0.26304700  0.89267700  1
  H  H2  1  0.49496200  0.12467400  0.08949500  1
  H  H3  1  0.49554500  0.73695300  0.10732300  1
  H  H4  1  0.51004700  0.24149000  0.50145500  1
  H  H5  1  0.01004700  0.75851000  0.49854500  1
  O  O0  1  0.74996200  0.98682100  0.34797500  1
  O  O1  1  0.75574200  0.67827400  0.96554800  1
  O  O2  1  0.74756500  0.36713600  0.65727200  1
  O  O3  1  0.24996200  0.01317900  0.65202500  1
  O  O4  1  0.25574200  0.32172600  0.03445200  1
  O  O5  1  0.24756500  0.63286400  0.34272800  1
  O  O6  1  0.54821600  0.37087000  0.27206900  1
  O  O7  1  0.04821600  0.62913000  0.72793100  1
  O  O8  1  0.95469000  0.01515800  0.00635000  1
  O  O9  1  0.45469000  0.98484200  0.99365000  1
loop_
_geom_bond_atom_site_label_1
_geom_bond_atom_site_label_2
_geom_bond_distance
_geom_bond_site_symmetry_2
Be0 O1 1.617220 1_545
Be0 O0 1.628513 1_546
Be0 O2 1.636461 1_555
Be0 O8 1.679935 1_556
Be1 O4 1.617220 1_565
Be1 O3 1.628513 1_564
Be1 O5 1.636461 1_555
Be1 O9 1.679935 1_554
Be2 O6 1.624132 1_555
Be2 O1 1.641056 1_554
Be2 O0 1.646644 1_545
Be2 O2 1.655909 1_555
Be3 O7 1.624132 1_555
Be3 O4 1.641056 1_556
Be3 O3 1.646644 1_565
Be3 O5 1.655909 1_555
B0 O0 1.372073 1_555
B0 O2 1.379049 1_555
B0 O1 1.381815 1_555
B1 O3 1.372073 1_555
B1 O5 1.379049 1_555
B1 O4 1.381815 1_555
H0 O8 1.010275 1_566
H1 O8 1.052699 1_556
H1 O7 1.522138 1_655
H2 O9 1.010275 1_544
H3 O9 1.052699 1_554
H3 O6 1.522138 1_555
H4 O6 0.981144 1_555
H5 O7 0.981144 1_555
