# generated using pymatgen
data_AlIn(AgS2)2
_symmetry_space_group_name_H-M   'P 1'
_cell_length_a   6.87686096
_cell_length_b   6.87686096
_cell_length_c   6.87686096
_cell_angle_alpha   129.71685854
_cell_angle_beta   129.71685854
_cell_angle_gamma   73.85982014
_symmetry_Int_Tables_number   1
_chemical_formula_structural   AlIn(AgS2)2
_chemical_formula_sum   'Al1 In1 Ag2 S4'
_cell_volume   187.69961671
_cell_formula_units_Z   1
loop_
 _symmetry_equiv_pos_site_id
 _symmetry_equiv_pos_as_xyz
  1  'x, y, z'
loop_
 _atom_site_type_symbol
 _atom_site_label
 _atom_site_symmetry_multiplicity
 _atom_site_fract_x
 _atom_site_fract_y
 _atom_site_fract_z
 _atom_site_occupancy
  Al  Al0  1  0.25000000  0.75000000  0.50000000  1
  In  In0  1  0.00000000  0.00000000  0.00000000  1
  Ag  Ag0  1  0.75000000  0.25000000  0.50000000  1
  Ag  Ag1  1  0.50000000  0.50000000  0.00000000  1
  S  S0  1  0.13419200  0.08991800  0.49012000  1
  S  S1  1  0.59979800  0.64407200  0.50988000  1
  S  S2  1  0.35592800  0.86580800  0.95572600  1
  S  S3  1  0.91008200  0.40020200  0.04427400  1
loop_
_geom_bond_atom_site_label_1
_geom_bond_atom_site_label_2
_geom_bond_distance
_geom_bond_site_symmetry_2
Al0 S1 2.280765 1_555
Al0 S0 2.280765 1_565
Al0 S3 2.280765 1_455
Al0 S2 2.280765 1_555
In0 S2 2.504572 1_544
In0 S3 2.504572 1_455
In0 S0 2.504572 1_555
In0 S1 2.504572 1_444
Ag0 S3 2.591065 1_556
Ag0 S0 2.591065 1_655
Ag0 S1 2.591065 1_555
Ag0 S2 2.591065 1_544
Ag1 S2 2.571037 1_554
Ag1 S3 2.571037 1_555
Ag1 S0 2.571037 1_554
Ag1 S1 2.571037 1_555
