# generated using pymatgen
data_Al6B5O18
_symmetry_space_group_name_H-M   'P 1'
_cell_length_a   8.65464798
_cell_length_b   8.65464798
_cell_length_c   8.30951900
_cell_angle_alpha   90.00000000
_cell_angle_beta   90.00000000
_cell_angle_gamma   119.99999981
_symmetry_Int_Tables_number   1
_chemical_formula_structural   Al6B5O18
_chemical_formula_sum   'Al12 B10 O36'
_cell_volume   539.02056296
_cell_formula_units_Z   2
loop_
 _symmetry_equiv_pos_site_id
 _symmetry_equiv_pos_as_xyz
  1  'x, y, z'
loop_
 _atom_site_type_symbol
 _atom_site_label
 _atom_site_symmetry_multiplicity
 _atom_site_fract_x
 _atom_site_fract_y
 _atom_site_fract_z
 _atom_site_occupancy
  Al  Al0  1  0.35243300  0.01391200  0.07587500  1
  Al  Al1  1  0.64756700  0.98608800  0.92412500  1
  Al  Al2  1  0.98608800  0.33852100  0.07587500  1
  Al  Al3  1  0.64756700  0.98608800  0.57587500  1
  Al  Al4  1  0.01391200  0.66147900  0.92412500  1
  Al  Al5  1  0.35243300  0.01391200  0.42412500  1
  Al  Al6  1  0.66147900  0.64756700  0.07587500  1
  Al  Al7  1  0.01391200  0.66147900  0.57587500  1
  Al  Al8  1  0.33852100  0.35243300  0.92412500  1
  Al  Al9  1  0.98608800  0.33852100  0.42412500  1
  Al  Al10  1  0.33852100  0.35243300  0.57587500  1
  Al  Al11  1  0.66147900  0.64756700  0.42412500  1
  B  B0  1  0.33333300  0.66666700  0.05755900  1
  B  B1  1  0.66666700  0.33333300  0.94244100  1
  B  B2  1  0.66666700  0.33333300  0.55755900  1
  B  B3  1  0.33333300  0.66666700  0.44244100  1
  B  B4  1  0.23268500  0.23324300  0.25000000  1
  B  B5  1  0.76731500  0.76675700  0.75000000  1
  B  B6  1  0.76675700  0.99944200  0.25000000  1
  B  B7  1  0.23324300  0.00055800  0.75000000  1
  B  B8  1  0.00055800  0.76731500  0.25000000  1
  B  B9  1  0.99944200  0.23268500  0.75000000  1
  O  O0  1  0.28641500  0.19670700  0.10220200  1
  O  O1  1  0.71358500  0.80329300  0.89779800  1
  O  O2  1  0.80329300  0.08970800  0.10220200  1
  O  O3  1  0.71358500  0.80329300  0.60220200  1
  O  O4  1  0.19670700  0.91029200  0.89779800  1
  O  O5  1  0.28641500  0.19670700  0.39779800  1
  O  O6  1  0.91029200  0.71358500  0.10220200  1
  O  O7  1  0.19670700  0.91029200  0.60220200  1
  O  O8  1  0.08970800  0.28641500  0.89779800  1
  O  O9  1  0.80329300  0.08970800  0.39779800  1
  O  O10  1  0.08970800  0.28641500  0.60220200  1
  O  O11  1  0.91029200  0.71358500  0.39779800  1
  O  O12  1  0.11976700  0.30113900  0.25000000  1
  O  O13  1  0.88023300  0.69886100  0.75000000  1
  O  O14  1  0.69886100  0.81862700  0.25000000  1
  O  O15  1  0.30113900  0.18137300  0.75000000  1
  O  O16  1  0.18137300  0.88023300  0.25000000  1
  O  O17  1  0.81862700  0.11976700  0.75000000  1
  O  O18  1  0.50194500  0.11922900  0.25000000  1
  O  O19  1  0.49805500  0.88077100  0.75000000  1
  O  O20  1  0.88077100  0.38271600  0.25000000  1
  O  O21  1  0.11922900  0.61728400  0.75000000  1
  O  O22  1  0.61728400  0.49805500  0.25000000  1
  O  O23  1  0.38271600  0.50194500  0.75000000  1
  O  O24  1  0.15001400  0.58850000  0.05834000  1
  O  O25  1  0.84998600  0.41150000  0.94166000  1
  O  O26  1  0.41150000  0.56151400  0.05834000  1
  O  O27  1  0.84998600  0.41150000  0.55834000  1
  O  O28  1  0.58850000  0.43848600  0.94166000  1
  O  O29  1  0.15001400  0.58850000  0.44166000  1
  O  O30  1  0.43848600  0.84998600  0.05834000  1
  O  O31  1  0.58850000  0.43848600  0.55834000  1
  O  O32  1  0.56151400  0.15001400  0.94166000  1
  O  O33  1  0.41150000  0.56151400  0.44166000  1
  O  O34  1  0.56151400  0.15001400  0.55834000  1
  O  O35  1  0.43848600  0.84998600  0.44166000  1
loop_
_geom_bond_atom_site_label_1
_geom_bond_atom_site_label_2
_geom_bond_distance
_geom_bond_site_symmetry_2
Al0 O18 1.849118 1_555
Al0 O4 1.897798 1_544
Al0 O30 1.909260 1_545
Al0 O32 1.942730 1_554
Al0 O0 1.944487 1_555
Al0 O16 1.977621 1_545
Al1 O19 1.849118 1_555
Al1 O2 1.897798 1_566
Al1 O32 1.909260 1_565
Al1 O30 1.942730 1_556
Al1 O1 1.944487 1_555
Al1 O17 1.977621 1_565
Al2 O20 1.849118 1_555
Al2 O8 1.897798 1_654
Al2 O24 1.909260 1_655
Al2 O25 1.942730 1_554
Al2 O2 1.944487 1_555
Al2 O12 1.977625 1_655
Al3 O19 1.849118 1_555
Al3 O9 1.897798 1_565
Al3 O34 1.909260 1_565
Al3 O35 1.942730 1_555
Al3 O3 1.944487 1_555
Al3 O17 1.977621 1_565
Al4 O21 1.849118 1_555
Al4 O6 1.897798 1_456
Al4 O25 1.909260 1_455
Al4 O24 1.942730 1_556
Al4 O4 1.944487 1_555
Al4 O13 1.977625 1_455
Al5 O18 1.849118 1_555
Al5 O7 1.897798 1_545
Al5 O35 1.909260 1_545
Al5 O34 1.942730 1_555
Al5 O5 1.944487 1_555
Al5 O16 1.977621 1_545
Al6 O22 1.849118 1_555
Al6 O1 1.897798 1_554
Al6 O26 1.909260 1_555
Al6 O28 1.942730 1_554
Al6 O6 1.944487 1_555
Al6 O14 1.977619 1_555
Al7 O21 1.849118 1_555
Al7 O11 1.897798 1_455
Al7 O27 1.909260 1_455
Al7 O29 1.942730 1_555
Al7 O7 1.944487 1_555
Al7 O13 1.977625 1_455
Al8 O23 1.849118 1_555
Al8 O0 1.897798 1_556
Al8 O28 1.909260 1_555
Al8 O26 1.942730 1_556
Al8 O8 1.944487 1_555
Al8 O15 1.977619 1_555
Al9 O20 1.849118 1_555
Al9 O10 1.897798 1_655
Al9 O29 1.909260 1_655
Al9 O27 1.942730 1_555
Al9 O9 1.944487 1_555
Al9 O12 1.977625 1_655
Al10 O23 1.849118 1_555
Al10 O5 1.897798 1_555
Al10 O31 1.909260 1_555
Al10 O33 1.942730 1_555
Al10 O10 1.944487 1_555
Al10 O15 1.977619 1_555
Al11 O22 1.849118 1_555
Al11 O3 1.897798 1_555
Al11 O33 1.909260 1_555
Al11 O31 1.942730 1_555
Al11 O11 1.944487 1_555
Al11 O14 1.977619 1_555
B0 O24 1.378971 1_555
B0 O30 1.378972 1_555
B0 O26 1.378979 1_555
B1 O25 1.378971 1_555
B1 O32 1.378972 1_555
B1 O28 1.378979 1_555
B2 O27 1.378971 1_555
B2 O34 1.378972 1_555
B2 O31 1.378979 1_555
B3 O29 1.378971 1_555
B3 O35 1.378972 1_555
B3 O33 1.378979 1_555
B4 O12 1.369159 1_555
B4 O0 1.404126 1_555
B4 O5 1.404126 1_555
B5 O13 1.369159 1_555
B5 O3 1.404126 1_555
B5 O1 1.404126 1_555
B6 O14 1.369167 1_555
B6 O9 1.404126 1_565
B6 O2 1.404126 1_565
B7 O15 1.369167 1_555
B7 O7 1.404126 1_545
B7 O4 1.404126 1_545
B8 O16 1.369166 1_555
B8 O11 1.404126 1_455
B8 O6 1.404126 1_455
B9 O17 1.369166 1_555
B9 O8 1.404126 1_655
B9 O10 1.404126 1_655
