# generated using pymatgen
data_Sm2As3Au
_symmetry_space_group_name_H-M   'P 1'
_cell_length_a   9.20001273
_cell_length_b   9.20001273
_cell_length_c   36.41929273
_cell_angle_alpha   90.00000000
_cell_angle_beta   90.00000000
_cell_angle_gamma   90.00000000
_symmetry_Int_Tables_number   1
_chemical_formula_structural   Sm2As3Au
_chemical_formula_sum   'Sm2 As3 Au1'
_cell_volume   3082.53746724
_cell_formula_units_Z   1
loop_
 _symmetry_equiv_pos_site_id
 _symmetry_equiv_pos_as_xyz
  1  'x, y, z'
loop_
 _atom_site_type_symbol
 _atom_site_label
 _atom_site_symmetry_multiplicity
 _atom_site_fract_x
 _atom_site_fract_y
 _atom_site_fract_z
 _atom_site_occupancy
  Sm  Sm0  1  0.50000000  0.50000000  0.24223627  1
  Sm  Sm1  1  0.50000000  0.50000000  0.75776373  1
  As  As0  1  0.50000000  0.50000000  0.69008957  1
  As  As1  1  0.50000000  0.50000000  0.30991043  1
  As  As2  1  0.50000000  0.50000000  0.00000000  1
  Au  Au0  1  0.50000000  0.50000000  0.50000000  1
loop_
_geom_bond_atom_site_label_1
_geom_bond_atom_site_label_2
_geom_bond_distance
_geom_bond_site_symmetry_2
As0 Sm1 2.464645 1_555
As1 Sm0 2.464645 1_555
