# generated using pymatgen
data_NaLaMg30O32
_symmetry_space_group_name_H-M   'P 1'
_cell_length_a   8.62432300
_cell_length_b   8.62432300
_cell_length_c   8.66695700
_cell_angle_alpha   90.00000000
_cell_angle_beta   90.00000000
_cell_angle_gamma   90.00000000
_symmetry_Int_Tables_number   1
_chemical_formula_structural   NaLaMg30O32
_chemical_formula_sum   'Na1 La1 Mg30 O32'
_cell_volume   644.63913716
_cell_formula_units_Z   1
loop_
 _symmetry_equiv_pos_site_id
 _symmetry_equiv_pos_as_xyz
  1  'x, y, z'
loop_
 _atom_site_type_symbol
 _atom_site_label
 _atom_site_symmetry_multiplicity
 _atom_site_fract_x
 _atom_site_fract_y
 _atom_site_fract_z
 _atom_site_occupancy
  Na  Na0  1  0.00000000  0.00000000  0.50000000  1
  La  La0  1  0.00000000  0.00000000  0.00000000  1
  Mg  Mg0  1  0.00000000  0.50000000  0.00000000  1
  Mg  Mg1  1  0.00000000  0.50000000  0.50000000  1
  Mg  Mg2  1  0.50000000  0.00000000  0.00000000  1
  Mg  Mg3  1  0.50000000  0.00000000  0.50000000  1
  Mg  Mg4  1  0.50000000  0.50000000  0.00000000  1
  Mg  Mg5  1  0.50000000  0.50000000  0.50000000  1
  Mg  Mg6  1  0.00000000  0.25662500  0.26048000  1
  Mg  Mg7  1  0.00000000  0.25662500  0.73952000  1
  Mg  Mg8  1  0.00000000  0.74337500  0.26048000  1
  Mg  Mg9  1  0.00000000  0.74337500  0.73952000  1
  Mg  Mg10  1  0.50000000  0.25038300  0.25180400  1
  Mg  Mg11  1  0.50000000  0.25038300  0.74819600  1
  Mg  Mg12  1  0.50000000  0.74961700  0.25180400  1
  Mg  Mg13  1  0.50000000  0.74961700  0.74819600  1
  Mg  Mg14  1  0.25662500  0.00000000  0.26048000  1
  Mg  Mg15  1  0.25662500  0.00000000  0.73952000  1
  Mg  Mg16  1  0.25038300  0.50000000  0.25180400  1
  Mg  Mg17  1  0.25038300  0.50000000  0.74819600  1
  Mg  Mg18  1  0.74337500  0.00000000  0.26048000  1
  Mg  Mg19  1  0.74337500  0.00000000  0.73952000  1
  Mg  Mg20  1  0.74961700  0.50000000  0.25180400  1
  Mg  Mg21  1  0.74961700  0.50000000  0.74819600  1
  Mg  Mg22  1  0.25795100  0.25795100  0.00000000  1
  Mg  Mg23  1  0.24944200  0.24944200  0.50000000  1
  Mg  Mg24  1  0.25795100  0.74204900  0.00000000  1
  Mg  Mg25  1  0.24944200  0.75055800  0.50000000  1
  Mg  Mg26  1  0.74204900  0.25795100  0.00000000  1
  Mg  Mg27  1  0.75055800  0.24944200  0.50000000  1
  Mg  Mg28  1  0.74204900  0.74204900  0.00000000  1
  Mg  Mg29  1  0.75055800  0.75055800  0.50000000  1
  O  O0  1  0.26939800  0.00000000  0.00000000  1
  O  O1  1  0.26558800  0.00000000  0.50000000  1
  O  O2  1  0.25367800  0.50000000  0.00000000  1
  O  O3  1  0.25287800  0.50000000  0.50000000  1
  O  O4  1  0.73060200  0.00000000  0.00000000  1
  O  O5  1  0.73441200  0.00000000  0.50000000  1
  O  O6  1  0.74632200  0.50000000  0.00000000  1
  O  O7  1  0.74712200  0.50000000  0.50000000  1
  O  O8  1  0.24930200  0.24930200  0.24883500  1
  O  O9  1  0.24930200  0.24930200  0.75116500  1
  O  O10  1  0.24930200  0.75069800  0.24883500  1
  O  O11  1  0.24930200  0.75069800  0.75116500  1
  O  O12  1  0.75069800  0.24930200  0.24883500  1
  O  O13  1  0.75069800  0.24930200  0.75116500  1
  O  O14  1  0.75069800  0.75069800  0.24883500  1
  O  O15  1  0.75069800  0.75069800  0.75116500  1
  O  O16  1  0.00000000  0.00000000  0.25858600  1
  O  O17  1  0.00000000  0.00000000  0.74141400  1
  O  O18  1  0.00000000  0.50000000  0.25037200  1
  O  O19  1  0.00000000  0.50000000  0.74962800  1
  O  O20  1  0.50000000  0.00000000  0.25037200  1
  O  O21  1  0.50000000  0.00000000  0.74962800  1
  O  O22  1  0.50000000  0.50000000  0.24956100  1
  O  O23  1  0.50000000  0.50000000  0.75043900  1
  O  O24  1  0.00000000  0.26939800  0.00000000  1
  O  O25  1  0.00000000  0.26558800  0.50000000  1
  O  O26  1  0.00000000  0.73060200  0.00000000  1
  O  O27  1  0.00000000  0.73441200  0.50000000  1
  O  O28  1  0.50000000  0.25367800  0.00000000  1
  O  O29  1  0.50000000  0.25287800  0.50000000  1
  O  O30  1  0.50000000  0.74632200  0.00000000  1
  O  O31  1  0.50000000  0.74712200  0.50000000  1
loop_
_geom_bond_atom_site_label_1
_geom_bond_atom_site_label_2
_geom_bond_distance
_geom_bond_site_symmetry_2
Na0 O17 2.092325 1_555
Na0 O16 2.092325 1_555
Na0 O1 2.290517 1_555
Na0 O25 2.290517 1_555
Na0 O5 2.290517 1_455
Na0 O27 2.290517 1_545
La0 O17 2.241154 1_554
La0 O16 2.241154 1_555
La0 O26 2.323375 1_545
La0 O0 2.323375 1_555
La0 O24 2.323375 1_555
La0 O4 2.323375 1_455
Mg0 O26 1.988786 1_555
Mg0 O24 1.988786 1_555
Mg0 O18 2.169963 1_555
Mg0 O19 2.169963 1_554
Mg0 O6 2.187801 1_455
Mg0 O2 2.187801 1_555
Mg1 O27 2.021645 1_555
Mg1 O25 2.021645 1_555
Mg1 O19 2.163515 1_555
Mg1 O18 2.163515 1_555
Mg1 O3 2.180902 1_555
Mg1 O7 2.180902 1_455
Mg2 O4 1.988786 1_555
Mg2 O0 1.988786 1_555
Mg2 O20 2.169963 1_555
Mg2 O21 2.169963 1_554
Mg2 O30 2.187801 1_545
Mg2 O28 2.187801 1_555
Mg3 O5 2.021645 1_555
Mg3 O1 2.021645 1_555
Mg3 O21 2.163515 1_555
Mg3 O20 2.163515 1_555
Mg3 O29 2.180902 1_555
Mg3 O31 2.180902 1_545
Mg4 O28 2.124360 1_555
Mg4 O2 2.124360 1_555
Mg4 O6 2.124360 1_555
Mg4 O30 2.124360 1_555
Mg4 O22 2.162934 1_555
Mg4 O23 2.162934 1_554
Mg5 O7 2.131260 1_555
Mg5 O31 2.131260 1_555
Mg5 O3 2.131260 1_555
Mg5 O29 2.131260 1_555
Mg5 O22 2.170544 1_555
Mg5 O23 2.170544 1_555
Mg6 O25 2.077348 1_555
Mg6 O18 2.100772 1_555
Mg6 O8 2.153355 1_555
Mg6 O12 2.153355 1_455
Mg6 O16 2.213278 1_555
Mg6 O24 2.260255 1_555
Mg7 O25 2.077348 1_555
Mg7 O19 2.100772 1_555
Mg7 O9 2.153355 1_555
Mg7 O13 2.153355 1_455
Mg7 O17 2.213278 1_555
Mg7 O24 2.260255 1_556
Mg8 O27 2.077348 1_555
Mg8 O18 2.100772 1_555
Mg8 O10 2.153355 1_555
Mg8 O14 2.153355 1_455
Mg8 O16 2.213278 1_565
Mg8 O26 2.260255 1_555
Mg9 O27 2.077348 1_555
Mg9 O19 2.100772 1_555
Mg9 O11 2.153355 1_555
Mg9 O15 2.153355 1_455
Mg9 O17 2.213278 1_565
Mg9 O26 2.260255 1_556
Mg10 O29 2.151212 1_555
Mg10 O22 2.152865 1_555
Mg10 O20 2.159420 1_555
Mg10 O12 2.162274 1_555
Mg10 O8 2.162274 1_555
Mg10 O28 2.182559 1_555
Mg11 O29 2.151212 1_555
Mg11 O23 2.152865 1_555
Mg11 O21 2.159420 1_555
Mg11 O9 2.162274 1_555
Mg11 O13 2.162274 1_555
Mg11 O28 2.182559 1_556
Mg12 O31 2.151212 1_555
Mg12 O22 2.152865 1_555
Mg12 O20 2.159420 1_565
Mg12 O10 2.162274 1_555
Mg12 O14 2.162274 1_555
Mg12 O30 2.182559 1_555
Mg13 O31 2.151212 1_555
Mg13 O23 2.152865 1_555
Mg13 O21 2.159420 1_565
Mg13 O15 2.162274 1_555
Mg13 O11 2.162274 1_555
Mg13 O30 2.182559 1_556
Mg14 O1 2.077348 1_555
Mg14 O20 2.100772 1_555
Mg14 O8 2.153355 1_555
Mg14 O10 2.153355 1_545
Mg14 O16 2.213278 1_555
Mg14 O0 2.260255 1_555
Mg15 O1 2.077348 1_555
Mg15 O21 2.100772 1_555
Mg15 O9 2.153355 1_555
Mg15 O11 2.153355 1_545
Mg15 O17 2.213278 1_555
Mg15 O0 2.260255 1_556
Mg16 O3 2.151212 1_555
Mg16 O22 2.152865 1_555
Mg16 O18 2.159420 1_555
Mg16 O10 2.162274 1_555
Mg16 O8 2.162274 1_555
Mg16 O2 2.182559 1_555
Mg17 O3 2.151212 1_555
Mg17 O23 2.152865 1_555
Mg17 O19 2.159420 1_555
Mg17 O9 2.162274 1_555
Mg17 O11 2.162274 1_555
Mg17 O2 2.182559 1_556
Mg18 O5 2.077348 1_555
Mg18 O20 2.100772 1_555
Mg18 O12 2.153355 1_555
Mg18 O14 2.153355 1_545
Mg18 O16 2.213278 1_655
Mg18 O4 2.260255 1_555
Mg19 O5 2.077348 1_555
Mg19 O21 2.100772 1_555
Mg19 O13 2.153355 1_555
Mg19 O15 2.153355 1_545
Mg19 O17 2.213278 1_655
Mg19 O4 2.260255 1_556
Mg20 O7 2.151212 1_555
Mg20 O22 2.152865 1_555
Mg20 O18 2.159420 1_655
Mg20 O12 2.162274 1_555
Mg20 O14 2.162274 1_555
Mg20 O6 2.182559 1_555
Mg21 O7 2.151212 1_555
Mg21 O23 2.152865 1_555
Mg21 O19 2.159420 1_655
Mg21 O15 2.162274 1_555
Mg21 O13 2.162274 1_555
Mg21 O6 2.182559 1_556
Mg22 O2 2.087834 1_555
Mg22 O28 2.087834 1_555
Mg22 O8 2.159221 1_555
Mg22 O9 2.159221 1_554
Mg22 O24 2.226842 1_555
Mg22 O0 2.226842 1_555
Mg23 O25 2.155770 1_555
Mg23 O1 2.155770 1_555
Mg23 O29 2.161096 1_555
Mg23 O3 2.161096 1_555
Mg23 O8 2.176837 1_555
Mg23 O9 2.176837 1_555
Mg24 O2 2.087834 1_555
Mg24 O30 2.087834 1_555
Mg24 O10 2.159221 1_555
Mg24 O11 2.159221 1_554
Mg24 O26 2.226842 1_555
Mg24 O0 2.226842 1_565
Mg25 O27 2.155770 1_555
Mg25 O1 2.155770 1_565
Mg25 O3 2.161096 1_555
Mg25 O31 2.161096 1_555
Mg25 O10 2.176837 1_555
Mg25 O11 2.176837 1_555
Mg26 O28 2.087834 1_555
Mg26 O6 2.087834 1_555
Mg26 O12 2.159221 1_555
Mg26 O13 2.159221 1_554
Mg26 O4 2.226842 1_555
Mg26 O24 2.226842 1_655
Mg27 O5 2.155770 1_555
Mg27 O25 2.155770 1_655
Mg27 O29 2.161096 1_555
Mg27 O7 2.161096 1_555
Mg27 O13 2.176837 1_555
Mg27 O12 2.176837 1_555
Mg28 O30 2.087834 1_555
Mg28 O6 2.087834 1_555
Mg28 O14 2.159221 1_555
Mg28 O15 2.159221 1_554
Mg28 O4 2.226842 1_565
Mg28 O26 2.226842 1_655
Mg29 O27 2.155770 1_655
Mg29 O5 2.155770 1_565
Mg29 O31 2.161096 1_555
Mg29 O7 2.161096 1_555
Mg29 O15 2.176837 1_555
Mg29 O14 2.176837 1_555
