# generated using pymatgen
data_Ho3Mn3Ga2Ge
_symmetry_space_group_name_H-M   'P 1'
_cell_length_a   7.09235869
_cell_length_b   7.09235869
_cell_length_c   4.02042900
_cell_angle_alpha   90.00000000
_cell_angle_beta   90.00000000
_cell_angle_gamma   120.00000646
_symmetry_Int_Tables_number   1
_chemical_formula_structural   Ho3Mn3Ga2Ge
_chemical_formula_sum   'Ho3 Mn3 Ga2 Ge1'
_cell_volume   175.13961222
_cell_formula_units_Z   1
loop_
 _symmetry_equiv_pos_site_id
 _symmetry_equiv_pos_as_xyz
  1  'x, y, z'
loop_
 _atom_site_type_symbol
 _atom_site_label
 _atom_site_symmetry_multiplicity
 _atom_site_fract_x
 _atom_site_fract_y
 _atom_site_fract_z
 _atom_site_occupancy
  Ho  Ho0  1  0.41195300  0.00000000  0.50000000  1
  Ho  Ho1  1  0.00000000  0.41195300  0.50000000  1
  Ho  Ho2  1  0.58804700  0.58804700  0.50000000  1
  Mn  Mn0  1  0.76919300  0.00000000  0.00000000  1
  Mn  Mn1  1  0.00000000  0.76919300  0.00000000  1
  Mn  Mn2  1  0.23080700  0.23080700  0.00000000  1
  Ga  Ga0  1  0.33333300  0.66666700  0.00000000  1
  Ga  Ga1  1  0.66666700  0.33333300  0.00000000  1
  Ge  Ge0  1  0.00000000  0.00000000  0.50000000  1
loop_
_geom_bond_atom_site_label_1
_geom_bond_atom_site_label_2
_geom_bond_distance
_geom_bond_site_symmetry_2
Ho0 Mn0 3.234265 1_556
Ho0 Mn0 3.234265 1_555
Ho0 Mn1 3.236403 1_545
Ho0 Mn1 3.236403 1_546
Ho0 Mn2 3.236403 1_555
Ho0 Mn2 3.236403 1_556
Ho1 Mn1 3.234265 1_555
Ho1 Mn1 3.234265 1_556
Ho1 Mn0 3.236403 1_455
Ho1 Mn0 3.236403 1_456
Ho1 Mn2 3.236403 1_555
Ho1 Mn2 3.236403 1_556
Ho2 Mn2 3.234264 1_555
Ho2 Mn2 3.234264 1_556
Ho2 Mn0 3.236403 1_566
Ho2 Mn0 3.236403 1_565
Ho2 Mn1 3.236403 1_655
Ho2 Mn1 3.236403 1_656
Mn0 Mn2 2.835308 1_655
Mn0 Mn1 2.835308 1_645
Mn1 Mn2 2.835308 1_565
Ga0 Mn1 2.799441 1_555
Ga0 Mn0 2.799446 1_565
Ga0 Mn2 2.799448 1_555
Ga0 Ho0 2.936443 1_564
Ga0 Ho0 2.936443 1_565
Ga0 Ho1 2.936444 1_555
Ga0 Ho1 2.936444 1_554
Ga0 Ho2 2.936448 1_555
Ga0 Ho2 2.936448 1_554
Ga1 Mn0 2.799441 1_555
Ga1 Mn1 2.799446 1_655
Ga1 Mn2 2.799448 1_555
Ga1 Ho1 2.936443 1_655
Ga1 Ho1 2.936443 1_654
Ga1 Ho0 2.936444 1_555
Ga1 Ho0 2.936444 1_554
Ga1 Ho2 2.936448 1_555
Ga1 Ho2 2.936448 1_554
Ge0 Mn2 2.592416 1_555
Ge0 Mn2 2.592416 1_556
Ge0 Mn1 2.592416 1_546
Ge0 Mn0 2.592416 1_456
Ge0 Mn1 2.592416 1_545
Ge0 Mn0 2.592416 1_455
Ge0 Ho2 2.921718 1_445
Ge0 Ho0 2.921718 1_555
Ge0 Ho1 2.921718 1_555
