# generated using pymatgen
data_PrAl4
_symmetry_space_group_name_H-M   'P 1'
_cell_length_a   8.82187426
_cell_length_b   8.82187426
_cell_length_c   8.82187426
_cell_angle_alpha   151.67509332
_cell_angle_beta   99.84879031
_cell_angle_gamma   87.05830295
_symmetry_Int_Tables_number   1
_chemical_formula_structural   PrAl4
_chemical_formula_sum   'Pr3 Al12'
_cell_volume   313.63815409
_cell_formula_units_Z   3
loop_
 _symmetry_equiv_pos_site_id
 _symmetry_equiv_pos_as_xyz
  1  'x, y, z'
loop_
 _atom_site_type_symbol
 _atom_site_label
 _atom_site_symmetry_multiplicity
 _atom_site_fract_x
 _atom_site_fract_y
 _atom_site_fract_z
 _atom_site_occupancy
  Pr  Pr0  1  0.99603700  0.00000000  0.99603700  1
  Pr  Pr1  1  0.33444100  0.33344300  0.00099800  1
  Pr  Pr2  1  0.66755500  0.66655700  0.00099800  1
  Al  Al0  1  0.39001200  0.00000000  0.39001200  1
  Al  Al1  1  0.61405800  0.00000000  0.61405800  1
  Al  Al2  1  0.74999300  0.50000000  0.24999300  1
  Al  Al3  1  0.25234300  0.50000000  0.75234300  1
  Al  Al4  1  0.08357600  0.83630700  0.24726900  1
  Al  Al5  1  0.41096300  0.16369300  0.24726900  1
  Al  Al6  1  0.05470700  0.66879000  0.38591700  1
  Al  Al7  1  0.71712700  0.33121000  0.38591700  1
  Al  Al8  1  0.27451300  0.66448300  0.61003000  1
  Al  Al9  1  0.94554700  0.33551700  0.61003000  1
  Al  Al10  1  0.57995300  0.83038900  0.74956400  1
  Al  Al11  1  0.91917500  0.16961100  0.74956400  1
loop_
_geom_bond_atom_site_label_1
_geom_bond_atom_site_label_2
_geom_bond_distance
_geom_bond_site_symmetry_2
Al0 Al1 2.544940 1_555
Al0 Al4 2.648352 1_545
Al0 Al5 2.648354 1_555
Al0 Al3 2.665407 1_544
Al0 Al3 2.665407 1_555
Al0 Pr2 3.284488 1_556
Al0 Pr2 3.284488 1_545
Al0 Pr1 3.284488 1_556
Al0 Pr1 3.284488 1_545
Al1 Al2 2.653899 1_556
Al1 Al2 2.653899 1_545
Al1 Al11 2.660211 1_555
Al1 Al10 2.660211 1_545
Al1 Pr2 3.293602 1_556
Al1 Pr2 3.293602 1_545
Al1 Pr1 3.293602 1_556
Al1 Pr1 3.293602 1_545
Al2 Al7 2.654412 1_555
Al2 Al6 2.654412 1_655
Al2 Pr0 3.531285 1_554
Al2 Pr0 3.531285 1_565
Al2 Pr2 3.541049 1_555
Al2 Pr1 3.541049 1_555
Al3 Al8 2.653371 1_555
Al3 Al9 2.653371 1_455
Al3 Al4 3.007834 1_556
Al3 Al4 3.007834 1_545
Al3 Al5 3.007837 1_566
Al3 Al5 3.007840 1_555
Al3 Pr2 3.537965 1_556
Al3 Pr1 3.537965 1_556
Al3 Pr0 3.624241 1_454
Al3 Pr0 3.624241 1_465
Al4 Al6 2.659389 1_555
Al4 Al9 2.662563 1_454
Al4 Al9 2.662563 1_465
Al4 Pr0 3.539582 1_464
Al4 Pr2 3.541282 1_455
Al4 Pr1 3.600955 1_555
Al4 Pr1 3.600955 1_566
Al5 Al7 2.659380 1_555
Al5 Al8 2.662565 1_544
Al5 Al8 2.662568 1_555
Al5 Pr0 3.539590 1_454
Al5 Pr1 3.541283 1_555
Al5 Pr2 3.600949 1_545
Al5 Pr2 3.600951 1_556
Al6 Al8 2.546297 1_555
Al6 Pr1 3.286961 1_566
Al6 Pr1 3.286961 1_555
Al6 Pr0 3.299347 1_454
Al6 Pr0 3.299347 1_465
Al7 Al9 2.546297 1_555
Al7 Pr2 3.286961 1_556
Al7 Pr2 3.286961 1_545
Al7 Pr0 3.299347 1_554
Al7 Pr0 3.299347 1_565
Al8 Pr0 3.280671 1_454
Al8 Pr0 3.280671 1_465
Al8 Pr1 3.296107 1_555
Al8 Pr1 3.296107 1_566
Al9 Pr0 3.280671 1_565
Al9 Pr0 3.280671 1_554
Al9 Pr2 3.296107 1_556
Al9 Pr2 3.296107 1_545
Al10 Al8 2.648821 1_555
Al10 Al7 2.656685 1_555
Al10 Al7 2.656685 1_566
Al10 Al5 3.034262 1_566
Al10 Al5 3.034265 1_555
Al10 Al2 3.060481 1_555
Al10 Al2 3.060481 1_566
Al10 Pr0 3.542006 1_565
Al10 Pr2 3.542483 1_556
Al10 Pr1 3.554215 1_555
Al10 Pr1 3.554215 1_566
Al11 Al9 2.648821 1_555
Al11 Al6 2.656685 1_645
Al11 Al6 2.656685 1_656
Al11 Al4 3.034268 1_656
Al11 Al4 3.034268 1_645
Al11 Al2 3.060481 1_545
Al11 Al2 3.060481 1_556
Al11 Pr0 3.542006 1_555
Al11 Pr1 3.542483 1_656
Al11 Pr2 3.554215 1_545
Al11 Pr2 3.554215 1_556
