# generated using pymatgen
data_Tm9B5S21
_symmetry_space_group_name_H-M   'P 1'
_cell_length_a   11.08006946
_cell_length_b   11.08006946
_cell_length_c   11.08006969
_cell_angle_alpha   93.83373365
_cell_angle_beta   93.83373365
_cell_angle_gamma   93.83373256
_symmetry_Int_Tables_number   1
_chemical_formula_structural   Tm9B5S21
_chemical_formula_sum   'Tm18 B10 S42'
_cell_volume   1350.71557214
_cell_formula_units_Z   2
loop_
 _symmetry_equiv_pos_site_id
 _symmetry_equiv_pos_as_xyz
  1  'x, y, z'
loop_
 _atom_site_type_symbol
 _atom_site_label
 _atom_site_symmetry_multiplicity
 _atom_site_fract_x
 _atom_site_fract_y
 _atom_site_fract_z
 _atom_site_occupancy
  Tm  Tm0  1  0.76122400  0.92267500  0.53242300  1
  Tm  Tm1  1  0.41595400  0.55520900  0.19769900  1
  Tm  Tm2  1  0.08437800  0.23987400  0.85024600  1
  Tm  Tm3  1  0.55520900  0.19769900  0.41595400  1
  Tm  Tm4  1  0.23987400  0.85024600  0.08437800  1
  Tm  Tm5  1  0.92267500  0.53242300  0.76122400  1
  Tm  Tm6  1  0.85024600  0.08437800  0.23987400  1
  Tm  Tm7  1  0.53242300  0.76122400  0.92267500  1
  Tm  Tm8  1  0.19769900  0.41595400  0.55520900  1
  Tm  Tm9  1  0.86611500  0.72234600  0.08031800  1
  Tm  Tm10  1  0.53327800  0.37618500  0.76620500  1
  Tm  Tm11  1  0.21152300  0.05690400  0.44654600  1
  Tm  Tm12  1  0.05690400  0.44654600  0.21152300  1
  Tm  Tm13  1  0.72234600  0.08031800  0.86611500  1
  Tm  Tm14  1  0.37618500  0.76620500  0.53327800  1
  Tm  Tm15  1  0.76620500  0.53327800  0.37618500  1
  Tm  Tm16  1  0.44654600  0.21152300  0.05690400  1
  Tm  Tm17  1  0.08031800  0.86611500  0.72234600  1
  B  B0  1  0.08505100  0.76013900  0.42198000  1
  B  B1  1  0.76013900  0.42198000  0.08505100  1
  B  B2  1  0.42198000  0.08505100  0.76013900  1
  B  B3  1  0.26106000  0.58595900  0.92038900  1
  B  B4  1  0.92038900  0.26106000  0.58595900  1
  B  B5  1  0.58595900  0.92038900  0.26106000  1
  B  B6  1  0.02130700  0.02130700  0.02130700  1
  B  B7  1  0.69543400  0.69543400  0.69543400  1
  B  B8  1  0.19500200  0.19500200  0.19500200  1
  B  B9  1  0.52157400  0.52157400  0.52157400  1
  S  S0  1  0.14090900  0.68357700  0.56760200  1
  S  S1  1  0.81968900  0.34643000  0.22917600  1
  S  S2  1  0.47932600  0.01135700  0.90494400  1
  S  S3  1  0.01135700  0.90494400  0.47932600  1
  S  S4  1  0.68357700  0.56760200  0.14090900  1
  S  S5  1  0.34643000  0.22917600  0.81968900  1
  S  S6  1  0.22917600  0.81968900  0.34643000  1
  S  S7  1  0.90494500  0.47932600  0.01135700  1
  S  S8  1  0.56760200  0.14090900  0.68357700  1
  S  S9  1  0.28942900  0.74588100  0.86171400  1
  S  S10  1  0.95013400  0.42077100  0.52548800  1
  S  S11  1  0.60987100  0.08034300  0.19959100  1
  S  S12  1  0.42077100  0.52548800  0.95013400  1
  S  S13  1  0.08034300  0.19959100  0.60987100  1
  S  S14  1  0.74588100  0.86171400  0.28942900  1
  S  S15  1  0.19959100  0.60987100  0.08034300  1
  S  S16  1  0.86171400  0.28942900  0.74588100  1
  S  S17  1  0.52548800  0.95013400  0.42077100  1
  S  S18  1  0.30895800  0.97213300  0.65553400  1
  S  S19  1  0.97213300  0.65553400  0.30895800  1
  S  S20  1  0.65553400  0.30895800  0.97213300  1
  S  S21  1  0.15659100  0.47337900  0.80684500  1
  S  S22  1  0.80684500  0.15659100  0.47337900  1
  S  S23  1  0.47337900  0.80684500  0.15659100  1
  S  S24  1  0.24956400  0.50844700  0.35340900  1
  S  S25  1  0.92583100  0.14941800  0.01762700  1
  S  S26  1  0.59400100  0.81843000  0.68768900  1
  S  S27  1  0.81843000  0.68768900  0.59400100  1
  S  S28  1  0.50844700  0.35340900  0.24956400  1
  S  S29  1  0.14941800  0.01762700  0.92583100  1
  S  S30  1  0.01762700  0.92583100  0.14941800  1
  S  S31  1  0.68768900  0.59400100  0.81843000  1
  S  S32  1  0.35340900  0.24956400  0.50844700  1
  S  S33  1  0.99255400  0.73373100  0.88604900  1
  S  S34  1  0.63614700  0.41253000  0.54450500  1
  S  S35  1  0.30513900  0.08089900  0.21306500  1
  S  S36  1  0.41253000  0.54450500  0.63614700  1
  S  S37  1  0.08089900  0.21306500  0.30513900  1
  S  S38  1  0.73373100  0.88604900  0.99255400  1
  S  S39  1  0.21306500  0.30513900  0.08089900  1
  S  S40  1  0.88604900  0.99255400  0.73373100  1
  S  S41  1  0.54450500  0.63614700  0.41253000  1
loop_
_geom_bond_atom_site_label_1
_geom_bond_atom_site_label_2
_geom_bond_distance
_geom_bond_site_symmetry_2
B0 S3 1.937255 1_555
B0 S6 1.948833 1_555
B0 S0 1.955959 1_555
B0 S19 1.969624 1_455
B1 S7 1.937265 1_555
B1 S1 1.948833 1_555
B1 S4 1.955959 1_555
B1 S20 1.969624 1_554
B2 S2 1.937256 1_555
B2 S5 1.948833 1_555
B2 S8 1.955959 1_555
B2 S18 1.969624 1_545
B3 S9 1.941173 1_555
B3 S15 1.948813 1_556
B3 S12 1.949143 1_555
B3 S21 1.970010 1_555
B4 S16 1.941173 1_555
B4 S13 1.948813 1_655
B4 S10 1.949143 1_555
B4 S22 1.970010 1_555
B5 S14 1.941173 1_555
B5 S11 1.948813 1_565
B5 S17 1.949143 1_555
B5 S23 1.970010 1_555
B6 S25 1.827148 1_455
B6 S29 1.827148 1_554
B6 S30 1.827148 1_545
B7 S26 1.826273 1_555
B7 S27 1.826273 1_555
B7 S31 1.826273 1_555
B8 S35 1.826229 1_555
B8 S37 1.826229 1_555
B8 S39 1.826229 1_555
B9 S34 1.827275 1_555
B9 S36 1.827275 1_555
B9 S41 1.827275 1_555
S0 Tm17 2.711623 1_555
S0 Tm14 2.763802 1_555
S0 Tm8 3.068274 1_555
S1 Tm15 2.670710 1_555
S1 Tm12 2.808012 1_655
S1 Tm6 2.954899 1_555
S2 Tm16 2.752429 1_556
S2 Tm13 2.818367 1_555
S2 Tm7 2.888126 1_545
S3 Tm11 2.752429 1_565
S3 Tm17 2.818367 1_555
S3 Tm0 2.888126 1_455
S4 Tm9 2.711623 1_555
S4 Tm15 2.763802 1_555
S4 Tm1 3.068274 1_555
S5 Tm10 2.670710 1_555
S5 Tm16 2.808012 1_556
S5 Tm2 2.954899 1_555
S6 Tm14 2.670710 1_555
S6 Tm11 2.808012 1_565
S6 Tm4 2.954899 1_555
S7 Tm12 2.752423 1_655
S7 Tm9 2.818370 1_555
S7 Tm5 2.888124 1_554
S8 Tm13 2.711623 1_555
S8 Tm10 2.763802 1_555
S8 Tm3 3.068274 1_555
S9 Tm7 2.722931 1_555
S9 Tm4 2.758617 1_556
S9 Tm17 3.120427 1_555
S10 Tm8 2.745302 1_655
S10 Tm5 2.858305 1_555
S10 Tm15 2.934029 1_555
S11 Tm6 2.667810 1_555
S11 Tm3 2.772614 1_555
S11 Tm16 2.857165 1_555
S12 Tm1 2.745302 1_556
S12 Tm7 2.858305 1_555
S12 Tm10 2.934029 1_555
S13 Tm2 2.667810 1_555
S13 Tm8 2.772614 1_555
S13 Tm11 2.857165 1_555
S14 Tm0 2.722931 1_555
S14 Tm6 2.758617 1_565
S14 Tm9 3.120427 1_555
S15 Tm4 2.667810 1_555
S15 Tm1 2.772614 1_555
S15 Tm12 2.857165 1_555
S16 Tm5 2.722931 1_555
S16 Tm2 2.758617 1_655
S16 Tm13 3.120427 1_555
S17 Tm3 2.745302 1_565
S17 Tm0 2.858305 1_555
S17 Tm14 2.934029 1_555
S18 Tm11 2.738958 1_565
S18 Tm14 2.746786 1_555
S18 Tm17 2.883553 1_555
S19 Tm12 2.738958 1_655
S19 Tm15 2.746786 1_555
S19 Tm9 2.883553 1_555
S20 Tm16 2.738958 1_556
S20 Tm10 2.746786 1_555
S20 Tm13 2.883553 1_555
S21 Tm5 2.738016 1_455
S21 Tm2 2.739768 1_555
S21 Tm8 2.890917 1_555
S22 Tm0 2.738016 1_545
S22 Tm6 2.739768 1_555
S22 Tm3 2.890917 1_555
S23 Tm7 2.738016 1_554
S23 Tm4 2.739768 1_555
S23 Tm1 2.890917 1_555
S24 Tm12 2.590382 1_555
S24 Tm8 2.603751 1_555
S24 Tm1 2.657270 1_555
S25 Tm13 2.752987 1_554
S25 Tm6 2.777960 1_555
S25 Tm2 2.824688 1_654
S26 Tm7 2.836677 1_555
S26 Tm0 2.851765 1_555
S26 Tm14 2.866228 1_555
S27 Tm0 2.836677 1_555
S27 Tm5 2.851765 1_555
S27 Tm15 2.866228 1_555
S28 Tm16 2.590382 1_555
S28 Tm1 2.603751 1_555
S28 Tm3 2.657270 1_555
S29 Tm17 2.752987 1_545
S29 Tm2 2.777960 1_555
S29 Tm4 2.824688 1_546
S30 Tm9 2.752987 1_455
S30 Tm4 2.777960 1_555
S30 Tm6 2.824688 1_465
S31 Tm5 2.836677 1_555
S31 Tm7 2.851765 1_555
S31 Tm10 2.866228 1_555
S32 Tm11 2.590382 1_555
S32 Tm3 2.603751 1_555
S32 Tm8 2.657270 1_555
S33 Tm5 2.588602 1_555
S33 Tm17 2.605402 1_655
S33 Tm9 2.651005 1_556
S34 Tm3 2.754889 1_555
S34 Tm15 2.789273 1_555
S34 Tm10 2.817937 1_555
S35 Tm16 2.817377 1_555
S35 Tm4 2.866194 1_545
S35 Tm11 2.872811 1_555
S36 Tm8 2.754889 1_555
S36 Tm10 2.789273 1_555
S36 Tm14 2.817936 1_555
S37 Tm11 2.817377 1_555
S37 Tm6 2.866194 1_455
S37 Tm12 2.872811 1_555
S38 Tm7 2.588602 1_555
S38 Tm9 2.605402 1_556
S38 Tm13 2.651005 1_565
S39 Tm12 2.817377 1_555
S39 Tm2 2.866194 1_554
S39 Tm16 2.872811 1_555
S40 Tm0 2.588602 1_555
S40 Tm13 2.605402 1_565
S40 Tm17 2.651005 1_655
S41 Tm1 2.754889 1_555
S41 Tm14 2.789273 1_555
S41 Tm15 2.817936 1_555
