# generated using pymatgen
data_Mg4Si7
_symmetry_space_group_name_H-M   'P 1'
_cell_length_a   8.24367876
_cell_length_b   8.24367876
_cell_length_c   6.76847200
_cell_angle_alpha   89.62801910
_cell_angle_beta   89.62801910
_cell_angle_gamma   25.59535803
_symmetry_Int_Tables_number   1
_chemical_formula_structural   Mg4Si7
_chemical_formula_sum   'Mg4 Si7'
_cell_volume   198.70995674
_cell_formula_units_Z   1
loop_
 _symmetry_equiv_pos_site_id
 _symmetry_equiv_pos_as_xyz
  1  'x, y, z'
loop_
 _atom_site_type_symbol
 _atom_site_label
 _atom_site_symmetry_multiplicity
 _atom_site_fract_x
 _atom_site_fract_y
 _atom_site_fract_z
 _atom_site_occupancy
  Mg  Mg0  1  0.92050400  0.92050400  0.39927400  1
  Mg  Mg1  1  0.07949600  0.07949600  0.60072600  1
  Mg  Mg2  1  0.16480500  0.16480500  0.00729000  1
  Mg  Mg3  1  0.83519500  0.83519500  0.99271000  1
  Si  Si0  1  0.69006200  0.69006200  0.34164100  1
  Si  Si1  1  0.30993800  0.30993800  0.65835900  1
  Si  Si2  1  0.54519400  0.54519400  0.24194900  1
  Si  Si3  1  0.45480600  0.45480600  0.75805100  1
  Si  Si4  1  0.28801200  0.28801200  0.28957400  1
  Si  Si5  1  0.71198800  0.71198800  0.71042600  1
  Si  Si6  1  0.00000000  0.00000000  0.00000000  1
loop_
_geom_bond_atom_site_label_1
_geom_bond_atom_site_label_2
_geom_bond_distance
_geom_bond_site_symmetry_2
Mg0 Mg1 2.905161 1_665
Mg0 Si4 2.905939 1_655
Mg0 Si4 2.905939 1_565
Mg0 Si2 2.908421 1_565
Mg0 Si2 2.908421 1_655
Mg0 Si6 2.981773 1_665
Mg0 Mg3 3.082853 1_554
Mg0 Si1 3.086771 1_565
Mg0 Si1 3.086771 1_655
Mg0 Si3 3.090862 1_655
Mg0 Si3 3.090862 1_565
Mg1 Si5 2.905939 1_545
Mg1 Si5 2.905939 1_455
Mg1 Si3 2.908421 1_545
Mg1 Si3 2.908421 1_455
Mg1 Si6 2.981773 1_556
Mg1 Mg2 3.082853 1_556
Mg1 Si0 3.086771 1_545
Mg1 Si0 3.086771 1_455
Mg1 Si2 3.090862 1_455
Mg1 Si2 3.090862 1_545
Mg2 Si6 2.650487 1_555
Mg2 Si4 2.761314 1_555
Mg2 Si5 2.815489 1_454
Mg2 Si5 2.815489 1_544
Mg2 Si0 2.938191 1_455
Mg2 Si0 2.938191 1_545
Mg2 Si2 3.084585 1_455
Mg2 Si2 3.084585 1_545
Mg3 Si6 2.650487 1_666
Mg3 Si5 2.761314 1_555
Mg3 Si4 2.815489 1_566
Mg3 Si4 2.815489 1_656
Mg3 Si1 2.938191 1_655
Mg3 Si1 2.938191 1_565
Mg3 Si3 3.084585 1_565
Mg3 Si3 3.084585 1_655
Si0 Si2 2.429239 1_555
Si0 Si4 2.435429 1_565
Si0 Si4 2.435429 1_655
Si0 Si5 2.523204 1_555
Si1 Si3 2.429239 1_555
Si1 Si5 2.435429 1_545
Si1 Si5 2.435429 1_455
Si1 Si4 2.523204 1_555
Si2 Si6 2.561267 1_565
Si2 Si6 2.561267 1_655
Si3 Si6 2.561267 1_656
Si3 Si6 2.561267 1_566
