# generated using pymatgen
data_MnZnBiO5
_symmetry_space_group_name_H-M   'P 1'
_cell_length_a   5.36199437
_cell_length_b   7.64565485
_cell_length_c   11.70002200
_cell_angle_alpha   90.00000000
_cell_angle_beta   90.00000000
_cell_angle_gamma   107.02026055
_symmetry_Int_Tables_number   1
_chemical_formula_structural   MnZnBiO5
_chemical_formula_sum   'Mn4 Zn4 Bi4 O20'
_cell_volume   458.64541334
_cell_formula_units_Z   4
loop_
 _symmetry_equiv_pos_site_id
 _symmetry_equiv_pos_as_xyz
  1  'x, y, z'
loop_
 _atom_site_type_symbol
 _atom_site_label
 _atom_site_symmetry_multiplicity
 _atom_site_fract_x
 _atom_site_fract_y
 _atom_site_fract_z
 _atom_site_occupancy
  Mn  Mn0  1  0.78459800  0.96932400  0.64691900  1
  Mn  Mn1  1  0.21540200  0.03067600  0.35308100  1
  Mn  Mn2  1  0.71540200  0.53067600  0.14691900  1
  Mn  Mn3  1  0.28459800  0.46932400  0.85308100  1
  Zn  Zn0  1  0.62176600  0.17521500  0.91865700  1
  Zn  Zn1  1  0.37823400  0.82478500  0.08134300  1
  Zn  Zn2  1  0.87823400  0.32478400  0.41865700  1
  Zn  Zn3  1  0.12176600  0.67521500  0.58134300  1
  Bi  Bi0  1  0.11456600  0.17774900  0.10127400  1
  Bi  Bi1  1  0.88543400  0.82225100  0.89872600  1
  Bi  Bi2  1  0.61456600  0.67774900  0.39872600  1
  Bi  Bi3  1  0.38543400  0.32225100  0.60127400  1
  O  O0  1  0.57269400  0.33061000  0.07437700  1
  O  O1  1  0.03241400  0.32808900  0.93018800  1
  O  O2  1  0.48453300  0.64104000  0.18009100  1
  O  O3  1  0.75509900  0.51236200  0.52398500  1
  O  O4  1  0.80158000  0.49171400  0.28631200  1
  O  O5  1  0.30158000  0.99171400  0.21368800  1
  O  O6  1  0.53241400  0.82808900  0.56981200  1
  O  O7  1  0.46758600  0.17191100  0.43018800  1
  O  O8  1  0.24490100  0.48763800  0.47601500  1
  O  O9  1  0.92730600  0.16939000  0.57437700  1
  O  O10  1  0.19842000  0.50828600  0.71368800  1
  O  O11  1  0.42730600  0.66939000  0.92562300  1
  O  O12  1  0.07269400  0.83061000  0.42562300  1
  O  O13  1  0.69842000  0.00828600  0.78631200  1
  O  O14  1  0.74490100  0.98763800  0.02398500  1
  O  O15  1  0.25509900  0.01236200  0.97601500  1
  O  O16  1  0.51546700  0.35896000  0.81990900  1
  O  O17  1  0.96758600  0.67191100  0.06981200  1
  O  O18  1  0.01546700  0.85896000  0.68009100  1
  O  O19  1  0.98453300  0.14104000  0.31990900  1
loop_
_geom_bond_atom_site_label_1
_geom_bond_atom_site_label_2
_geom_bond_distance
_geom_bond_site_symmetry_2
Mn0 O6 1.718600 1_555
Mn0 O9 1.720599 1_565
Mn0 O18 1.733951 1_655
Mn0 O13 1.744329 1_565
Mn1 O7 1.718600 1_555
Mn1 O12 1.720599 1_545
Mn1 O19 1.733951 1_455
Mn1 O5 1.744329 1_545
Mn2 O17 1.718600 1_555
Mn2 O0 1.720599 1_555
Mn2 O2 1.733951 1_555
Mn2 O4 1.744329 1_555
Mn3 O1 1.718600 1_555
Mn3 O11 1.720599 1_555
Mn3 O16 1.733951 1_555
Mn3 O10 1.744329 1_555
Bi0 O15 2.207342 1_554
Bi0 O14 2.274356 1_445
Bi0 O5 2.365059 1_545
Bi0 O1 2.412162 1_554
Bi0 O0 2.412163 1_555
Bi0 O19 2.644596 1_455
Bi1 O14 2.207342 1_556
Bi1 O15 2.274356 1_665
Bi1 O13 2.365059 1_565
Bi1 O17 2.412162 1_556
Bi1 O11 2.412163 1_555
Bi1 O18 2.644596 1_655
Bi2 O3 2.207342 1_555
Bi2 O8 2.274356 1_555
Bi2 O4 2.365059 1_555
Bi2 O6 2.412162 1_555
Bi2 O12 2.412163 1_655
Bi2 O2 2.644596 1_555
Bi3 O8 2.207342 1_555
Bi3 O3 2.274356 1_555
Bi3 O10 2.365059 1_555
Bi3 O7 2.412162 1_555
Bi3 O9 2.412163 1_455
Bi3 O16 2.644596 1_555
O0 Zn0 2.232317 1_554
O1 Zn0 2.173943 1_455
O2 Zn1 2.025360 1_555
O3 Zn3 2.105469 1_655
O3 Zn2 2.136757 1_555
O4 Zn2 2.121936 1_555
O5 Zn1 2.121931 1_555
O6 Zn3 2.173943 1_555
O7 Zn2 2.173941 1_555
O8 Zn2 2.105471 1_455
O8 Zn3 2.136751 1_555
O9 Zn2 2.232313 1_555
O10 Zn3 2.121931 1_555
O11 Zn1 2.232317 1_556
O12 Zn3 2.232317 1_555
O13 Zn0 2.121931 1_555
O14 Zn1 2.105469 1_555
O14 Zn0 2.136751 1_564
O15 Zn0 2.105469 1_555
O15 Zn1 2.136751 1_546
O16 Zn0 2.025360 1_555
O17 Zn1 2.173943 1_655
O18 Zn3 2.025360 1_555
O19 Zn2 2.025354 1_555
