# generated using pymatgen
data_Li3(CoO2)4
_symmetry_space_group_name_H-M   'P 1'
_cell_length_a   5.74256021
_cell_length_b   10.33873509
_cell_length_c   5.70803372
_cell_angle_alpha   106.00874898
_cell_angle_beta   61.27569243
_cell_angle_gamma   105.36531278
_symmetry_Int_Tables_number   1
_chemical_formula_structural   Li3(CoO2)4
_chemical_formula_sum   'Li6 Co8 O16'
_cell_volume   282.11492622
_cell_formula_units_Z   2
loop_
 _symmetry_equiv_pos_site_id
 _symmetry_equiv_pos_as_xyz
  1  'x, y, z'
loop_
 _atom_site_type_symbol
 _atom_site_label
 _atom_site_symmetry_multiplicity
 _atom_site_fract_x
 _atom_site_fract_y
 _atom_site_fract_z
 _atom_site_occupancy
  Li  Li0  1  0.51236100  0.00654900  0.99610400  1
  Li  Li1  1  0.98763700  0.49345100  0.50389600  1
  Li  Li2  1  0.99710900  0.00492700  0.50266900  1
  Li  Li3  1  0.50289000  0.49507300  0.99733000  1
  Li  Li4  1  0.51047300  0.00165100  0.49726000  1
  Li  Li5  1  0.98952800  0.49834900  0.00273900  1
  Co  Co0  1  0.25000000  0.74999900  0.74999800  1
  Co  Co1  1  0.75000000  0.75000000  0.75000100  1
  Co  Co2  1  0.74999900  0.74999900  0.24999900  1
  Co  Co3  1  0.75000100  0.25000100  0.74999900  1
  Co  Co4  1  0.25000200  0.74999900  0.25000300  1
  Co  Co5  1  0.75000000  0.25000000  0.25000000  1
  Co  Co6  1  0.25000000  0.25000000  0.25000000  1
  Co  Co7  1  0.24999900  0.25000000  0.75000000  1
  O  O0  1  0.37420000  0.13428400  0.37686900  1
  O  O1  1  0.86059700  0.63869500  0.88881500  1
  O  O2  1  0.12580000  0.36571700  0.12313100  1
  O  O3  1  0.63940100  0.86130500  0.61118600  1
  O  O4  1  0.87667800  0.14098300  0.39234300  1
  O  O5  1  0.36478300  0.64739800  0.89740100  1
  O  O6  1  0.10125300  0.35881500  0.63218800  1
  O  O7  1  0.59563800  0.85482000  0.13825700  1
  O  O8  1  0.87639100  0.13959000  0.87476200  1
  O  O9  1  0.38628100  0.65060900  0.38102400  1
  O  O10  1  0.62360800  0.36041100  0.62523900  1
  O  O11  1  0.11371900  0.84939200  0.11897700  1
  O  O12  1  0.39874800  0.14118600  0.86781200  1
  O  O13  1  0.90436200  0.64517900  0.36174400  1
  O  O14  1  0.62332400  0.35901700  0.10765600  1
  O  O15  1  0.13521600  0.85260000  0.60260000  1
loop_
_geom_bond_atom_site_label_1
_geom_bond_atom_site_label_2
_geom_bond_distance
_geom_bond_site_symmetry_2
Li0 O8 2.086065 1_555
Li0 O12 2.098156 1_555
Li0 O0 2.100457 1_556
Li0 O7 2.195556 1_546
Li0 O3 2.198772 1_545
Li0 O11 2.342347 1_546
Li1 O10 2.086056 1_555
Li1 O6 2.098159 1_655
Li1 O2 2.100453 1_655
Li1 O13 2.195536 1_555
Li1 O1 2.198775 1_555
Li1 O9 2.342359 1_655
Li2 O4 2.067914 1_555
Li2 O8 2.096474 1_555
Li2 O3 2.115650 1_545
Li2 O0 2.119860 1_655
Li2 O15 2.242049 1_645
Li2 O11 2.247066 1_645
Li3 O14 2.067926 1_556
Li3 O10 2.096461 1_555
Li3 O1 2.115647 1_555
Li3 O2 2.119851 1_556
Li3 O5 2.242024 1_555
Li3 O9 2.247078 1_556
Li4 O7 2.111211 1_545
Li4 O12 2.114153 1_555
Li4 O4 2.125106 1_555
Li4 O0 2.137828 1_555
Li4 O3 2.151506 1_545
Li4 O15 2.210380 1_545
Li5 O13 2.111213 1_555
Li5 O6 2.114144 1_654
Li5 O14 2.125102 1_555
Li5 O2 2.137819 1_655
Li5 O1 2.151510 1_554
Li5 O5 2.210362 1_654
Co0 O15 1.914012 1_555
Co0 O5 1.914030 1_555
Co0 O9 1.937080 1_555
Co0 O11 1.937112 1_556
Co0 O3 2.094909 1_555
Co0 O1 2.094910 1_455
Co1 O1 1.931155 1_555
Co1 O3 1.931167 1_555
Co1 O7 2.041510 1_556
Co1 O13 2.041518 1_555
Co1 O15 2.046060 1_655
Co1 O5 2.046071 1_555
Co2 O9 1.939794 1_555
Co2 O11 1.939814 1_655
Co2 O1 1.948889 1_554
Co2 O3 1.948910 1_555
Co2 O7 1.949565 1_555
Co2 O13 1.949578 1_555
Co3 O6 1.922863 1_655
Co3 O12 1.922871 1_555
Co3 O14 1.924889 1_556
Co3 O4 1.924893 1_555
Co3 O10 1.929050 1_555
Co3 O8 1.929058 1_555
Co4 O15 1.878360 1_555
Co4 O5 1.878381 1_554
Co4 O7 1.882905 1_555
Co4 O13 1.882918 1_455
Co4 O9 1.907945 1_555
Co4 O11 1.908007 1_555
Co5 O14 1.991837 1_555
Co5 O4 1.991841 1_555
Co5 O8 2.003418 1_554
Co5 O10 2.003427 1_555
Co5 O0 2.054359 1_555
Co5 O2 2.054363 1_655
Co6 O0 1.972534 1_555
Co6 O2 1.972542 1_555
Co6 O4 2.019117 1_455
Co6 O14 2.019125 1_555
Co6 O12 2.029492 1_554
Co6 O6 2.029495 1_555
Co7 O6 1.981455 1_555
Co7 O12 1.981460 1_555
Co7 O0 2.015652 1_555
Co7 O2 2.015656 1_556
Co7 O8 2.023642 1_455
Co7 O10 2.023650 1_555
