# generated using pymatgen
data_SrMg6CO8
_symmetry_space_group_name_H-M   'P 1'
_cell_length_a   8.74141117
_cell_length_b   4.43981535
_cell_length_c   4.43981535
_cell_angle_alpha   90.00000000
_cell_angle_beta   90.00000000
_cell_angle_gamma   90.00000000
_symmetry_Int_Tables_number   1
_chemical_formula_structural   SrMg6CO8
_chemical_formula_sum   'Sr1 Mg6 C1 O8'
_cell_volume   172.31035032
_cell_formula_units_Z   1
loop_
 _symmetry_equiv_pos_site_id
 _symmetry_equiv_pos_as_xyz
  1  'x, y, z'
loop_
 _atom_site_type_symbol
 _atom_site_label
 _atom_site_symmetry_multiplicity
 _atom_site_fract_x
 _atom_site_fract_y
 _atom_site_fract_z
 _atom_site_occupancy
  Sr  Sr0  1  -0.00000000  0.00000000  0.00000000  1
  Mg  Mg0  1  0.50000000  0.00000000  0.00000000  1
  Mg  Mg1  1  0.50000000  0.50000000  0.50000000  1
  Mg  Mg2  1  0.25779685  -0.00000000  0.50000000  1
  Mg  Mg3  1  0.74220315  0.00000000  0.50000000  1
  Mg  Mg4  1  0.25779685  0.50000000  -0.00000000  1
  Mg  Mg5  1  0.74220315  0.50000000  0.00000000  1
  C  C0  1  0.00000000  0.50000000  0.50000000  1
  O  O0  1  0.27235351  0.00000000  0.00000000  1
  O  O1  1  0.72764649  -0.00000000  -0.00000000  1
  O  O2  1  0.25283578  0.50000000  0.50000000  1
  O  O3  1  0.74716422  0.50000000  0.50000000  1
  O  O4  1  0.00000000  -0.00000000  0.50000000  1
  O  O5  1  0.50000000  -0.00000000  0.50000000  1
  O  O6  1  0.00000000  0.50000000  0.00000000  1
  O  O7  1  0.50000000  0.50000000  0.00000000  1
loop_
_geom_bond_atom_site_label_1
_geom_bond_atom_site_label_2
_geom_bond_distance
_geom_bond_site_symmetry_2
Mg0 O0 1.989952 1_555
Mg0 O1 1.989952 1_555
Mg0 O7 2.219908 1_555
Mg0 O5 2.219908 1_554
Mg0 O5 2.219908 1_555
Mg0 O7 2.219908 1_545
Mg1 O2 2.160564 1_555
Mg1 O3 2.160564 1_555
Mg1 O7 2.219908 1_555
Mg1 O7 2.219908 1_556
Mg1 O5 2.219908 1_555
Mg1 O5 2.219908 1_565
Mg2 O5 2.117197 1_555
Mg2 O2 2.220331 1_545
Mg2 O2 2.220331 1_555
Mg2 O0 2.223552 1_555
Mg2 O0 2.223552 1_556
Mg2 O4 2.253508 1_555
Mg3 O5 2.117197 1_555
Mg3 O3 2.220331 1_545
Mg3 O3 2.220331 1_555
Mg3 O1 2.223552 1_555
Mg3 O1 2.223552 1_556
Mg3 O4 2.253508 1_655
Mg4 O7 2.117197 1_555
Mg4 O2 2.220331 1_554
Mg4 O2 2.220331 1_555
Mg4 O0 2.223552 1_565
Mg4 O0 2.223552 1_555
Mg4 O6 2.253508 1_555
Mg5 O7 2.117197 1_555
Mg5 O3 2.220331 1_554
Mg5 O3 2.220331 1_555
Mg5 O1 2.223552 1_555
Mg5 O1 2.223552 1_565
Mg5 O6 2.253508 1_655
O0 Sr0 2.380754 1_555
O1 Sr0 2.380754 1_655
O4 Sr0 2.219908 1_555
O4 Sr0 2.219908 1_556
O6 Sr0 2.219908 1_555
O6 Sr0 2.219908 1_565
