# generated using pymatgen
data_NaSbO7
_symmetry_space_group_name_H-M   'P 1'
_cell_length_a   7.24881707
_cell_length_b   7.24881707
_cell_length_c   6.48532000
_cell_angle_alpha   90.00000000
_cell_angle_beta   90.00000000
_cell_angle_gamma   122.96653153
_symmetry_Int_Tables_number   1
_chemical_formula_structural   NaSbO7
_chemical_formula_sum   'Na2 Sb2 O14'
_cell_volume   285.90498840
_cell_formula_units_Z   2
loop_
 _symmetry_equiv_pos_site_id
 _symmetry_equiv_pos_as_xyz
  1  'x, y, z'
loop_
 _atom_site_type_symbol
 _atom_site_label
 _atom_site_symmetry_multiplicity
 _atom_site_fract_x
 _atom_site_fract_y
 _atom_site_fract_z
 _atom_site_occupancy
  Na  Na0  1  0.77335900  0.22664100  0.65890200  1
  Na  Na1  1  0.22664100  0.77335900  0.15890200  1
  Sb  Sb0  1  0.37038100  0.62961900  0.58721800  1
  Sb  Sb1  1  0.62961900  0.37038100  0.08721800  1
  O  O0  1  0.55354800  0.44645200  0.47183900  1
  O  O1  1  0.52956000  0.90367300  0.45833300  1
  O  O2  1  0.09632700  0.47044000  0.45833300  1
  O  O3  1  0.44645200  0.55354800  0.97183900  1
  O  O4  1  0.47044000  0.09632700  0.95833300  1
  O  O5  1  0.90367300  0.52956000  0.95833300  1
  O  O6  1  0.58680200  0.74093100  0.83910700  1
  O  O7  1  0.10451600  0.89548400  0.68797400  1
  O  O8  1  0.25906900  0.41319800  0.83910700  1
  O  O9  1  0.41319800  0.25906900  0.33910700  1
  O  O10  1  0.89548400  0.10451600  0.18797400  1
  O  O11  1  0.74093100  0.58680200  0.33910700  1
  O  O12  1  0.01347100  0.98652900  0.62418700  1
  O  O13  1  0.98652900  0.01347100  0.12418700  1
loop_
_geom_bond_atom_site_label_1
_geom_bond_atom_site_label_2
_geom_bond_distance
_geom_bond_site_symmetry_2
Na0 O1 2.406940 1_545
Na0 O2 2.406940 1_655
Na0 O4 2.688403 1_555
Na0 O5 2.688403 1_555
Na1 O5 2.406940 1_454
Na1 O4 2.406940 1_564
Na1 O2 2.688403 1_555
Na1 O1 2.688403 1_555
O0 O9 1.455029 1_555
O0 O11 1.455029 1_555
O0 Sb0 2.450364 1_555
O1 Sb0 1.865981 1_555
O2 Sb0 1.865981 1_555
O3 O8 1.455029 1_555
O3 O6 1.455029 1_555
O3 Sb1 2.450364 1_556
O4 Sb1 1.865981 1_556
O5 Sb1 1.865981 1_556
O6 Sb0 2.098371 1_555
O8 Sb0 2.098371 1_555
O9 Sb1 2.098371 1_555
O10 O13 1.231367 1_555
O11 Sb1 2.098371 1_555
O12 O7 1.231367 1_555
