# generated using pymatgen
data_Mg3Si2O9
_symmetry_space_group_name_H-M   'P 1'
_cell_length_a   5.38355623
_cell_length_b   5.38355623
_cell_length_c   28.73341612
_cell_angle_alpha   88.18573261
_cell_angle_beta   88.18573261
_cell_angle_gamma   117.48296924
_symmetry_Int_Tables_number   1
_chemical_formula_structural   Mg3Si2O9
_chemical_formula_sum   'Mg12 Si8 O36'
_cell_volume   737.41507668
_cell_formula_units_Z   4
loop_
 _symmetry_equiv_pos_site_id
 _symmetry_equiv_pos_as_xyz
  1  'x, y, z'
loop_
 _atom_site_type_symbol
 _atom_site_label
 _atom_site_symmetry_multiplicity
 _atom_site_fract_x
 _atom_site_fract_y
 _atom_site_fract_z
 _atom_site_occupancy
  Mg  Mg0  1  0.91665400  0.08334600  0.25000000  1
  Mg  Mg1  1  0.08334600  0.91665400  0.75000000  1
  Mg  Mg2  1  0.67691900  0.85240500  0.99996000  1
  Mg  Mg3  1  0.32308100  0.14759500  0.00004000  1
  Mg  Mg4  1  0.14759500  0.32308100  0.50004000  1
  Mg  Mg5  1  0.85240500  0.67691900  0.49996000  1
  Mg  Mg6  1  0.58467700  0.41532300  0.25000000  1
  Mg  Mg7  1  0.41532300  0.58467700  0.75000000  1
  Mg  Mg8  1  0.24876300  0.75123700  0.25000000  1
  Mg  Mg9  1  0.75123700  0.24876300  0.75000000  1
  Mg  Mg10  1  0.50000000  0.00000000  0.50000000  1
  Mg  Mg11  1  0.00000000  0.50000000  0.00000000  1
  Si  Si0  1  0.63554900  0.13913100  0.09652100  1
  Si  Si1  1  0.36445100  0.86086900  0.90347900  1
  Si  Si2  1  0.86086900  0.36445100  0.40347900  1
  Si  Si3  1  0.13913100  0.63554900  0.59652100  1
  Si  Si4  1  0.80185200  0.97416100  0.59646000  1
  Si  Si5  1  0.19814800  0.02583900  0.40354000  1
  Si  Si6  1  0.02583900  0.19814800  0.90354000  1
  Si  Si7  1  0.97416100  0.80185200  0.09646000  1
  O  O0  1  0.34570100  0.49659400  0.02884300  1
  O  O1  1  0.65429900  0.50340600  0.97115700  1
  O  O2  1  0.50340600  0.65429900  0.47115700  1
  O  O3  1  0.49659400  0.34570100  0.52884300  1
  O  O4  1  0.82310300  0.99639400  0.53909300  1
  O  O5  1  0.17689700  0.00360600  0.46090700  1
  O  O6  1  0.00360600  0.17689700  0.96090700  1
  O  O7  1  0.99639400  0.82310300  0.03909300  1
  O  O8  1  0.53500500  0.20098900  0.38592300  1
  O  O9  1  0.46499500  0.79901100  0.61407700  1
  O  O10  1  0.79901100  0.46499500  0.11407700  1
  O  O11  1  0.20098900  0.53500500  0.88592300  1
  O  O12  1  0.29915300  0.96607200  0.11444400  1
  O  O13  1  0.70084700  0.03392800  0.88555600  1
  O  O14  1  0.03392800  0.70084700  0.38555600  1
  O  O15  1  0.96607200  0.29915300  0.61444400  1
  O  O16  1  0.61528400  0.78176300  0.21965400  1
  O  O17  1  0.38471600  0.21823700  0.78034600  1
  O  O18  1  0.21823700  0.38471600  0.28034600  1
  O  O19  1  0.78176300  0.61528400  0.71965400  1
  O  O20  1  0.28276000  0.11699500  0.21898900  1
  O  O21  1  0.71724000  0.88300500  0.78101100  1
  O  O22  1  0.88300500  0.71724000  0.28101100  1
  O  O23  1  0.11699500  0.28276000  0.71898900  1
  O  O24  1  0.55055200  0.04965100  0.28099000  1
  O  O25  1  0.44944800  0.95034900  0.71901000  1
  O  O26  1  0.95034900  0.44944800  0.21901000  1
  O  O27  1  0.04965100  0.55055200  0.78099000  1
  O  O28  1  0.79760700  0.96293600  0.11558900  1
  O  O29  1  0.20239300  0.03706400  0.88441100  1
  O  O30  1  0.03706400  0.20239300  0.38441100  1
  O  O31  1  0.96293600  0.79760700  0.61558900  1
  O  O32  1  0.65780600  0.15402200  0.03922000  1
  O  O33  1  0.34219400  0.84597800  0.96078000  1
  O  O34  1  0.84597800  0.34219400  0.46078000  1
  O  O35  1  0.15402200  0.65780600  0.53922000  1
loop_
_geom_bond_atom_site_label_1
_geom_bond_atom_site_label_2
_geom_bond_distance
_geom_bond_site_symmetry_2
Mg0 O16 1.943346 1_545
Mg0 O18 1.943346 1_655
Mg0 O26 2.063743 1_555
Mg0 O24 2.063743 1_555
Mg0 O22 2.064093 1_545
Mg0 O20 2.064093 1_655
Mg1 O19 1.943346 1_455
Mg1 O17 1.943346 1_565
Mg1 O25 2.063743 1_555
Mg1 O27 2.063743 1_555
Mg1 O21 2.064093 1_455
Mg1 O23 2.064093 1_565
Mg2 O1 2.030648 1_555
Mg2 O32 2.045145 1_566
Mg2 O0 2.047110 1_556
Mg2 O6 2.078284 1_665
Mg2 O33 2.142238 1_555
Mg2 O7 2.146846 1_556
Mg3 O0 2.030648 1_555
Mg3 O33 2.045145 1_544
Mg3 O1 2.047110 1_554
Mg3 O7 2.078284 1_445
Mg3 O32 2.142238 1_555
Mg3 O6 2.146846 1_554
Mg4 O3 2.030648 1_555
Mg4 O34 2.045145 1_455
Mg4 O2 2.047110 1_555
Mg4 O4 2.078284 1_445
Mg4 O35 2.142238 1_555
Mg4 O5 2.146846 1_555
Mg5 O2 2.030648 1_555
Mg5 O35 2.045145 1_655
Mg5 O3 2.047110 1_555
Mg5 O5 2.078284 1_665
Mg5 O34 2.142238 1_555
Mg5 O4 2.146846 1_555
Mg6 O22 1.946338 1_555
Mg6 O20 1.946338 1_555
Mg6 O24 2.060811 1_555
Mg6 O26 2.060811 1_555
Mg6 O18 2.064255 1_555
Mg6 O16 2.064255 1_555
Mg7 O21 1.946338 1_555
Mg7 O23 1.946338 1_555
Mg7 O27 2.060811 1_555
Mg7 O25 2.060811 1_555
Mg7 O17 2.064255 1_555
Mg7 O19 2.064255 1_555
Mg8 O26 1.945918 1_455
Mg8 O24 1.945918 1_565
Mg8 O20 2.061720 1_565
Mg8 O22 2.061720 1_455
Mg8 O18 2.064813 1_555
Mg8 O16 2.064813 1_555
Mg9 O25 1.945918 1_545
Mg9 O27 1.945918 1_655
Mg9 O23 2.061720 1_655
Mg9 O21 2.061720 1_545
Mg9 O17 2.064813 1_555
Mg9 O19 2.064813 1_555
Mg10 O3 2.068591 1_555
Mg10 O2 2.068591 1_545
Mg10 O4 2.107437 1_545
Mg10 O5 2.107437 1_555
Mg10 O34 2.168325 1_555
Mg10 O35 2.168325 1_545
Mg11 O0 2.068591 1_555
Mg11 O1 2.068591 1_454
Mg11 O7 2.107437 1_455
Mg11 O6 2.107437 1_554
Mg11 O33 2.168325 1_554
Mg11 O32 2.168325 1_455
O4 Si4 1.645418 1_555
O5 Si5 1.645418 1_555
O6 Si6 1.645418 1_555
O7 Si7 1.645418 1_555
O8 Si2 1.663048 1_555
O8 Si5 1.663572 1_555
O9 Si3 1.663048 1_555
O9 Si4 1.663572 1_555
O10 Si0 1.663048 1_555
O10 Si7 1.663572 1_555
O11 Si1 1.663048 1_555
O11 Si6 1.663572 1_555
O12 Si0 1.663203 1_565
O12 Si7 1.663818 1_455
O13 Si1 1.663203 1_545
O13 Si6 1.663818 1_655
O14 Si2 1.663203 1_455
O14 Si5 1.663818 1_565
O15 Si3 1.663203 1_655
O15 Si4 1.663818 1_545
O28 Si7 1.647864 1_555
O28 Si0 1.649935 1_565
O29 Si6 1.647864 1_555
O29 Si1 1.649935 1_545
O30 Si5 1.647864 1_555
O30 Si2 1.649935 1_455
O31 Si4 1.647864 1_555
O31 Si3 1.649935 1_655
O32 Si0 1.643739 1_555
O33 Si1 1.643739 1_555
O34 Si2 1.643739 1_555
O35 Si3 1.643739 1_555
