# generated using pymatgen
data_Sm2NiSn4
_symmetry_space_group_name_H-M   'P 1'
_cell_length_a   4.49552900
_cell_length_b   4.49955900
_cell_length_c   8.88309652
_cell_angle_alpha   90.00000000
_cell_angle_beta   75.34261470
_cell_angle_gamma   90.00000000
_symmetry_Int_Tables_number   1
_chemical_formula_structural   Sm2NiSn4
_chemical_formula_sum   'Sm2 Ni1 Sn4'
_cell_volume   173.83869676
_cell_formula_units_Z   1
loop_
 _symmetry_equiv_pos_site_id
 _symmetry_equiv_pos_as_xyz
  1  'x, y, z'
loop_
 _atom_site_type_symbol
 _atom_site_label
 _atom_site_symmetry_multiplicity
 _atom_site_fract_x
 _atom_site_fract_y
 _atom_site_fract_z
 _atom_site_occupancy
  Sm  Sm0  1  0.10429800  0.75000000  0.79140300  1
  Sm  Sm1  1  0.89787700  0.25000000  0.20424500  1
  Ni  Ni0  1  0.31165500  0.75000000  0.37669000  1
  Sn  Sn0  1  0.74255800  0.75000000  0.51488400  1
  Sn  Sn1  1  0.24187100  0.25000000  0.51625800  1
  Sn  Sn2  1  0.45471900  0.75000000  0.09056200  1
  Sn  Sn3  1  0.56702100  0.25000000  0.86595800  1
loop_
_geom_bond_atom_site_label_1
_geom_bond_atom_site_label_2
_geom_bond_distance
_geom_bond_site_symmetry_2
Sm0 Sn3 3.244144 1_455
Sm0 Sn3 3.244144 1_465
Sm0 Sn3 3.244148 1_565
Sm0 Sn3 3.244148 1_555
Sm0 Sn1 3.263868 1_565
Sm0 Sn1 3.263868 1_555
Sm0 Sn0 3.271046 1_455
Sm0 Sn0 3.271049 1_555
Sm0 Sn2 3.415018 1_456
Sm0 Sn2 3.415021 1_556
Sm1 Sn2 3.326929 1_545
Sm1 Sn2 3.326929 1_555
Sm1 Sn2 3.326932 1_655
Sm1 Sn2 3.326932 1_645
Sm1 Sn0 3.491196 1_545
Sm1 Sn0 3.491196 1_555
Sm1 Sn1 3.498938 1_555
Sm1 Sn1 3.498941 1_655
Sm1 Sn3 3.674845 1_554
Sm1 Sn3 3.674847 1_654
Ni0 Sn2 2.458986 1_555
Ni0 Sn0 2.542230 1_455
Ni0 Sn0 2.542230 1_555
Ni0 Sn1 2.549546 1_565
Ni0 Sn1 2.549546 1_555
Ni0 Sm1 3.508596 1_565
Ni0 Sm1 3.508596 1_555
Ni0 Sm1 3.508599 1_465
Ni0 Sm1 3.508599 1_455
Sn2 Sn3 2.964349 1_564
Sn2 Sn3 2.964349 1_554
