# generated using pymatgen
data_MgTl2Pb16(Br9O4)2
_symmetry_space_group_name_H-M   'P 1'
_cell_length_a   8.48296736
_cell_length_b   12.60176692
_cell_length_c   12.80211276
_cell_angle_alpha   90.38755270
_cell_angle_beta   88.37155075
_cell_angle_gamma   89.56675584
_symmetry_Int_Tables_number   1
_chemical_formula_structural   MgTl2Pb16(Br9O4)2
_chemical_formula_sum   'Mg1 Tl2 Pb16 Br18 O8'
_cell_volume   1367.92551661
_cell_formula_units_Z   1
loop_
 _symmetry_equiv_pos_site_id
 _symmetry_equiv_pos_as_xyz
  1  'x, y, z'
loop_
 _atom_site_type_symbol
 _atom_site_label
 _atom_site_symmetry_multiplicity
 _atom_site_fract_x
 _atom_site_fract_y
 _atom_site_fract_z
 _atom_site_occupancy
  Mg  Mg0  1  0.80927980  0.36398797  0.90656745  1
  Tl  Tl0  1  0.66188866  0.75682200  0.74912175  1
  Tl  Tl1  1  0.33023419  0.25325517  0.24847156  1
  Pb  Pb0  1  0.87471063  0.28526059  0.11346343  1
  Pb  Pb1  1  0.35527164  0.18695991  0.61062641  1
  Pb  Pb2  1  0.18850734  0.67113172  0.01881313  1
  Pb  Pb3  1  0.62664233  0.39303473  0.66733579  1
  Pb  Pb4  1  0.65375380  0.12862692  0.79748507  1
  Pb  Pb5  1  0.64316067  0.80584822  0.38290078  1
  Pb  Pb6  1  0.17131737  0.83263971  0.47556747  1
  Pb  Pb7  1  0.82244335  0.97903950  0.16404076  1
  Pb  Pb8  1  0.36283630  0.61050050  0.30129490  1
  Pb  Pb9  1  0.16589063  0.47946568  0.64960663  1
  Pb  Pb10  1  0.81889420  0.16211925  0.50445012  1
  Pb  Pb11  1  0.35811060  0.88527625  0.19543252  1
  Pb  Pb12  1  0.35491368  0.31725184  0.87332462  1
  Pb  Pb13  1  0.18723315  0.02265318  0.83503892  1
  Pb  Pb14  1  0.65450266  0.69133299  0.11360424  1
  Pb  Pb15  1  0.82594078  0.51764622  0.33081202  1
  Br  Br0  1  0.89089095  0.86691599  0.96194593  1
  Br  Br1  1  0.14269418  0.12735767  0.04481008  1
  Br  Br2  1  0.11590131  0.46813263  0.13498428  1
  Br  Br3  1  0.58463283  0.43746377  0.12833287  1
  Br  Br4  1  0.39791720  0.57246372  0.85913395  1
  Br  Br5  1  0.39624038  0.62689319  0.55872914  1
  Br  Br6  1  0.11028378  0.36157336  0.45502430  1
  Br  Br7  1  0.11833839  0.03554615  0.36725486  1
  Br  Br8  1  0.59227214  0.06619497  0.36691282  1
  Br  Br9  1  0.00344247  0.75406854  0.24917094  1
  Br  Br10  1  0.87243271  0.96514830  0.62646562  1
  Br  Br11  1  0.38127256  0.92750084  0.63102894  1
  Br  Br12  1  0.89220758  0.55163432  0.84977326  1
  Br  Br13  1  0.59804136  0.36747935  0.42160243  1
  Br  Br14  1  0.39949016  0.87270630  0.93204126  1
  Br  Br15  1  0.87988971  0.63099667  0.53114624  1
  Br  Br16  1  0.60452372  0.12452134  0.06105948  1
  Br  Br17  1  0.99436499  0.25723216  0.75202453  1
  O  O0  1  0.62558940  0.20579375  0.62967102  1
  O  O1  1  0.37640439  0.14563820  0.79113103  1
  O  O2  1  0.38044666  0.70286604  0.13905664  1
  O  O3  1  0.63340126  0.64229250  0.29376381  1
  O  O4  1  0.63018931  0.85633239  0.20258281  1
  O  O5  1  0.36232801  0.35882683  0.68998111  1
  O  O6  1  0.62234431  0.31181920  0.83654485  1
  O  O7  1  0.37267847  0.79474950  0.35516225  1
loop_
_geom_bond_atom_site_label_1
_geom_bond_atom_site_label_2
_geom_bond_distance
_geom_bond_site_symmetry_2
Mg0 O6 1.959348 1_555
Mg0 Pb0 2.901512 1_556
Br0 Pb7 2.979959 1_556
Br1 Pb13 2.997094 1_554
Br1 Pb0 3.113559 1_455
Br2 Pb2 3.026313 1_555
Br2 Pb0 3.109276 1_455
Br3 Pb0 3.109225 1_555
Br3 Pb14 3.263774 1_555
Br4 Pb2 2.933663 1_556
Br4 Pb12 3.245211 1_555
Br5 Pb9 2.928889 1_555
Br6 Pb9 2.943195 1_555
Br7 Pb6 2.954466 1_545
Br8 Pb10 2.907921 1_555
Br10 Pb10 2.980476 1_565
Br11 Pb6 2.960347 1_555
Br11 Pb13 3.263733 1_565
Br11 Pb1 3.288063 1_565
Br12 Mg0 2.575765 1_555
Br13 Pb15 2.937157 1_555
Br13 Pb3 3.176501 1_555
Br14 Pb13 2.908978 1_565
Br15 Pb15 2.975658 1_555
Br16 Pb7 2.938795 1_545
Br16 Pb0 3.153657 1_555
Br17 Mg0 2.818662 1_555
O0 Pb10 2.320940 1_555
O0 Pb1 2.326648 1_555
O0 Pb4 2.381628 1_555
O0 Pb3 2.405268 1_555
O1 Pb13 2.300269 1_555
O1 Pb4 2.364629 1_555
O1 Pb1 2.383629 1_555
O1 Pb12 2.402043 1_555
O2 Pb2 2.307520 1_555
O2 Pb14 2.341629 1_555
O2 Pb8 2.389297 1_555
O2 Pb11 2.409144 1_555
O3 Pb15 2.318459 1_555
O3 Pb8 2.332289 1_555
O3 Pb5 2.352294 1_555
O3 Pb14 2.393959 1_555
O4 Pb7 2.301542 1_555
O4 Pb11 2.338412 1_555
O4 Pb14 2.368894 1_555
O4 Pb5 2.403963 1_555
O5 Pb3 2.297077 1_555
O5 Pb9 2.318713 1_555
O5 Pb1 2.387909 1_555
O5 Pb12 2.407585 1_555
O6 Pb12 2.304228 1_555
O6 Pb4 2.370219 1_555
O6 Pb3 2.401548 1_555
O7 Pb6 2.312970 1_555
O7 Pb5 2.336846 1_555
O7 Pb11 2.354146 1_555
O7 Pb8 2.420358 1_555
