# generated using pymatgen
data_Ba2YMn3O8
_symmetry_space_group_name_H-M   'P 1'
_cell_length_a   3.97741700
_cell_length_b   23.70471900
_cell_length_c   3.97741400
_cell_angle_alpha   90.00028666
_cell_angle_beta   89.99507339
_cell_angle_gamma   90.00024326
_symmetry_Int_Tables_number   1
_chemical_formula_structural   Ba2YMn3O8
_chemical_formula_sum   'Ba4 Y2 Mn6 O16'
_cell_volume   375.00472031
_cell_formula_units_Z   2
loop_
 _symmetry_equiv_pos_site_id
 _symmetry_equiv_pos_as_xyz
  1  'x, y, z'
loop_
 _atom_site_type_symbol
 _atom_site_label
 _atom_site_symmetry_multiplicity
 _atom_site_fract_x
 _atom_site_fract_y
 _atom_site_fract_z
 _atom_site_occupancy
  Ba  Ba0  1  0.50000200  0.08208500  0.49999400  1
  Ba  Ba1  1  0.50000200  0.58208600  0.49999400  1
  Ba  Ba2  1  0.49999900  0.41793800  0.49999400  1
  Ba  Ba3  1  0.49999800  0.91792500  0.49999400  1
  Y  Y0  1  0.50000200  0.25000800  0.50000700  1
  Y  Y1  1  0.50000200  0.74998700  0.50000800  1
  Mn  Mn0  1  0.99999400  0.50000200  0.99998800  1
  Mn  Mn1  1  0.99998900  0.67147100  0.00001200  1
  Mn  Mn2  1  0.00000700  0.32852400  0.99999500  1
  Mn  Mn3  1  0.99999200  0.00000700  0.99998700  1
  Mn  Mn4  1  0.99998200  0.17145600  0.00000300  1
  Mn  Mn5  1  0.00001000  0.82853400  0.00000700  1
  O  O0  1  0.99999400  0.00000300  0.50000100  1
  O  O1  1  0.99999400  0.50000100  0.50000000  1
  O  O2  1  0.50000400  0.00000300  0.99999800  1
  O  O3  1  0.50000400  0.50000100  0.99999900  1
  O  O4  1  0.00000200  0.08583600  0.99999600  1
  O  O5  1  0.00000200  0.58583100  0.99999500  1
  O  O6  1  0.00000100  0.41416300  0.99999400  1
  O  O7  1  0.00000000  0.91414600  0.99999300  1
  O  O8  1  0.49999500  0.19070600  0.00001600  1
  O  O9  1  0.49999600  0.69069600  0.00001500  1
  O  O10  1  0.00000400  0.19070600  0.50001100  1
  O  O11  1  0.00000600  0.69069600  0.50001100  1
  O  O12  1  0.50000500  0.30930200  0.99999200  1
  O  O13  1  0.50000500  0.80929300  0.99999300  1
  O  O14  1  0.00000300  0.30930200  0.50000200  1
  O  O15  1  0.00000300  0.80929300  0.50000200  1
loop_
_geom_bond_atom_site_label_1
_geom_bond_atom_site_label_2
_geom_bond_distance
_geom_bond_site_symmetry_2
Ba0 O2 2.782215 1_554
Ba0 O0 2.782218 1_555
Ba0 O0 2.782251 1_455
Ba0 O2 2.782252 1_555
Ba0 O4 2.813736 1_654
Ba0 O4 2.813747 1_555
Ba0 O4 2.813978 1_554
Ba0 O4 2.813989 1_655
Ba0 O8 3.253369 1_555
Ba0 O10 3.253414 1_655
Ba0 O10 3.253417 1_555
Ba0 O8 3.253460 1_556
Ba1 O3 2.782262 1_554
Ba1 O1 2.782268 1_555
Ba1 O1 2.782301 1_455
Ba1 O3 2.782304 1_555
Ba1 O5 2.813735 1_654
Ba1 O5 2.813740 1_555
Ba1 O5 2.813977 1_554
Ba1 O5 2.813981 1_655
Ba1 O9 3.253165 1_555
Ba1 O11 3.253206 1_555
Ba1 O11 3.253212 1_655
Ba1 O9 3.253251 1_556
Ba2 O1 2.781900 1_555
Ba2 O3 2.781911 1_554
Ba2 O3 2.781926 1_555
Ba2 O1 2.781940 1_455
Ba2 O6 2.813754 1_555
Ba2 O6 2.813765 1_654
Ba2 O6 2.813995 1_554
Ba2 O6 2.814008 1_655
Ba2 O14 3.253681 1_555
Ba2 O12 3.253693 1_554
Ba2 O12 3.253699 1_555
Ba2 O14 3.253713 1_655
Ba3 O0 2.782151 1_565
Ba3 O2 2.782163 1_564
Ba3 O2 2.782172 1_565
Ba3 O0 2.782186 1_465
Ba3 O7 2.813754 1_555
Ba3 O7 2.813771 1_654
Ba3 O7 2.814001 1_554
Ba3 O7 2.814008 1_655
Ba3 O15 3.253603 1_555
Ba3 O13 3.253616 1_554
Ba3 O13 3.253626 1_555
Ba3 O15 3.253641 1_655
Mn0 O1 1.988659 1_555
Mn0 O3 1.988669 1_555
Mn0 O3 1.988748 1_655
Mn0 O1 1.988755 1_556
Mn0 O5 2.034552 1_655
Mn0 O6 2.034789 1_655
Mn1 O5 2.030072 1_654
Mn1 O9 2.040231 1_555
Mn1 O11 2.040249 1_655
Mn1 O11 2.040261 1_654
Mn1 O9 2.040281 1_655
Mn2 O6 2.030048 1_555
Mn2 O14 2.040209 1_555
Mn2 O12 2.040234 1_555
Mn2 O12 2.040246 1_455
Mn2 O14 2.040268 1_556
Mn3 O0 1.988651 1_555
Mn3 O2 1.988661 1_555
Mn3 O2 1.988756 1_655
Mn3 O0 1.988763 1_556
Mn3 O4 2.034552 1_655
Mn3 O7 2.035311 1_645
Mn4 O4 2.029598 1_654
Mn4 O8 2.040340 1_555
Mn4 O10 2.040358 1_654
Mn4 O10 2.040416 1_655
Mn4 O8 2.040437 1_655
Mn5 O7 2.029408 1_554
Mn5 O15 2.040322 1_555
Mn5 O13 2.040323 1_554
Mn5 O15 2.040357 1_554
Mn5 O13 2.040358 1_454
O8 Y0 2.435340 1_555
O8 Y0 2.435410 1_554
O9 Y1 2.435196 1_555
O9 Y1 2.435253 1_554
O10 Y0 2.435365 1_555
O10 Y0 2.435388 1_455
O11 Y1 2.435208 1_555
O11 Y1 2.435244 1_455
O12 Y0 2.435211 1_555
O12 Y0 2.435320 1_556
O13 Y1 2.435376 1_555
O13 Y1 2.435484 1_556
O14 Y0 2.435265 1_455
O14 Y0 2.435269 1_555
O15 Y1 2.435430 1_455
O15 Y1 2.435433 1_555
