# generated using pymatgen
data_MoH14C6N2(O2F)2
_symmetry_space_group_name_H-M   'P 1'
_cell_length_a   7.54563719
_cell_length_b   7.54563719
_cell_length_c   11.73608145
_cell_angle_alpha   82.35140185
_cell_angle_beta   82.35140185
_cell_angle_gamma   64.16425889
_symmetry_Int_Tables_number   1
_chemical_formula_structural   MoH14C6N2(O2F)2
_chemical_formula_sum   'Mo2 H28 C12 N4 O8 F4'
_cell_volume   593.95649789
_cell_formula_units_Z   2
loop_
 _symmetry_equiv_pos_site_id
 _symmetry_equiv_pos_as_xyz
  1  'x, y, z'
loop_
 _atom_site_type_symbol
 _atom_site_label
 _atom_site_symmetry_multiplicity
 _atom_site_fract_x
 _atom_site_fract_y
 _atom_site_fract_z
 _atom_site_occupancy
  Mo  Mo0  1  0.05551700  0.94448300  0.75000000  1
  Mo  Mo1  1  0.94448300  0.05551700  0.25000000  1
  H  H0  1  0.11436300  0.76353800  0.00947400  1
  H  H1  1  0.23646200  0.88563700  0.49052600  1
  H  H2  1  0.88563700  0.23646200  0.99052600  1
  H  H3  1  0.76353800  0.11436300  0.50947400  1
  H  H4  1  0.36601900  0.29813100  0.88326000  1
  H  H5  1  0.70186900  0.63398000  0.61674000  1
  H  H6  1  0.63398100  0.70186900  0.11674000  1
  H  H7  1  0.29813100  0.36601900  0.38326000  1
  H  H8  1  0.29964900  0.17636300  0.01156600  1
  H  H9  1  0.82363700  0.70035100  0.48843400  1
  H  H10  1  0.70035100  0.82363700  0.98843400  1
  H  H11  1  0.17636300  0.29964900  0.51156600  1
  H  H12  1  0.52787700  0.19929700  0.99696800  1
  H  H13  1  0.80070300  0.47212300  0.50303200  1
  H  H14  1  0.47212300  0.80070300  0.00303200  1
  H  H15  1  0.19929700  0.52787700  0.49696800  1
  H  H16  1  0.40602800  0.37944300  0.18368000  1
  H  H17  1  0.62055700  0.59397200  0.31632000  1
  H  H18  1  0.59397200  0.62055700  0.81632000  1
  H  H19  1  0.37944200  0.40602800  0.68368000  1
  H  H20  1  0.17035000  0.37511600  0.19165200  1
  H  H21  1  0.62488400  0.82965000  0.30834800  1
  H  H22  1  0.82965000  0.62488400  0.80834800  1
  H  H23  1  0.37511600  0.17035000  0.69165200  1
  H  H24  1  0.18668100  0.60593700  0.18122900  1
  H  H25  1  0.39406300  0.81331900  0.31877100  1
  H  H26  1  0.81331900  0.39406300  0.81877100  1
  H  H27  1  0.60593700  0.18668100  0.68122900  1
  C  C0  1  0.19303800  0.63056200  0.96184800  1
  C  C1  1  0.36943800  0.80696200  0.53815200  1
  C  C2  1  0.80696200  0.36943800  0.03815200  1
  C  C3  1  0.63056200  0.19303800  0.46184800  1
  C  C4  1  0.37292800  0.27222600  0.97661300  1
  C  C5  1  0.72777400  0.62707200  0.52338700  1
  C  C6  1  0.62707200  0.72777400  0.02338700  1
  C  C7  1  0.27222600  0.37292800  0.47661300  1
  C  C8  1  0.25748700  0.45591100  0.15299000  1
  C  C9  1  0.54408900  0.74251300  0.34701000  1
  C  C10  1  0.74251300  0.54408900  0.84701000  1
  C  C11  1  0.45591100  0.25748700  0.65299000  1
  N  N0  1  0.27186400  0.46189400  0.02707900  1
  N  N1  1  0.53810600  0.72813600  0.47292100  1
  N  N2  1  0.72813600  0.53810600  0.97292100  1
  N  N3  1  0.46189400  0.27186300  0.52707900  1
  O  O0  1  0.99229400  0.14978400  0.65076700  1
  O  O1  1  0.85021600  0.00770600  0.84923300  1
  O  O2  1  0.00770600  0.85021600  0.34923300  1
  O  O3  1  0.14978400  0.99229400  0.15076700  1
  O  O4  1  0.20369900  0.64353000  0.85245400  1
  O  O5  1  0.35647000  0.79630100  0.64754600  1
  O  O6  1  0.79630100  0.35647000  0.14754600  1
  O  O7  1  0.64353000  0.20369900  0.35245400  1
  F  F0  1  0.99651900  0.78040200  0.66176500  1
  F  F1  1  0.21959800  0.00348100  0.83823500  1
  F  F2  1  0.00348100  0.21959800  0.33823500  1
  F  F3  1  0.78040200  0.99651900  0.16176500  1
loop_
_geom_bond_atom_site_label_1
_geom_bond_atom_site_label_2
_geom_bond_distance
_geom_bond_site_symmetry_2
Mo0 O0 1.734131 1_465
Mo0 O1 1.734131 1_465
Mo0 O4 2.295836 1_555
Mo0 O5 2.295836 1_555
Mo1 O2 1.734131 1_645
Mo1 O3 1.734131 1_645
Mo1 O7 2.295836 1_555
Mo1 O6 2.295836 1_555
C0 H0 1.101554 1_556
C0 O4 1.268961 1_555
C0 N0 1.327291 1_556
C1 H1 1.101554 1_555
C1 O5 1.268961 1_555
C1 N1 1.327291 1_555
C2 H2 1.101554 1_554
C2 O6 1.268961 1_555
C2 N2 1.327291 1_554
C3 H3 1.101554 1_555
C3 O7 1.268961 1_555
C3 N3 1.327290 1_555
C4 H4 1.091136 1_555
C4 H12 1.097941 1_555
C4 H8 1.098400 1_556
C4 N0 1.461072 1_556
C5 H5 1.091135 1_555
C5 H13 1.097941 1_555
C5 H9 1.098400 1_555
C5 N1 1.461072 1_555
C6 H6 1.091136 1_555
C6 H14 1.097941 1_555
C6 H10 1.098400 1_554
C6 N2 1.461072 1_554
C7 H7 1.091136 1_555
C7 H15 1.097941 1_555
C7 H11 1.098400 1_555
C7 N3 1.461073 1_555
C8 H24 1.096534 1_555
C8 H20 1.098265 1_555
C8 H16 1.098818 1_555
C8 N0 1.463300 1_555
C9 H25 1.096534 1_555
C9 H21 1.098265 1_555
C9 H17 1.098818 1_555
C9 N1 1.463300 1_555
C10 H26 1.096534 1_555
C10 H22 1.098265 1_555
C10 H18 1.098818 1_555
C10 N2 1.463300 1_555
C11 H27 1.096534 1_555
C11 H23 1.098265 1_555
C11 H19 1.098818 1_555
C11 N3 1.463300 1_555
F0 Mo0 1.935920 1_655
F1 Mo0 1.935920 1_545
F2 Mo1 1.935920 1_455
F3 Mo1 1.935920 1_565
