# generated using pymatgen
data_Mg6ZrMo
_symmetry_space_group_name_H-M   'P 1'
_cell_length_a   4.92312500
_cell_length_b   6.12466500
_cell_length_c   11.15664700
_cell_angle_alpha   90.00000000
_cell_angle_beta   90.00000000
_cell_angle_gamma   90.00000000
_symmetry_Int_Tables_number   1
_chemical_formula_structural   Mg6ZrMo
_chemical_formula_sum   'Mg12 Zr2 Mo2'
_cell_volume   336.40070248
_cell_formula_units_Z   2
loop_
 _symmetry_equiv_pos_site_id
 _symmetry_equiv_pos_as_xyz
  1  'x, y, z'
loop_
 _atom_site_type_symbol
 _atom_site_label
 _atom_site_symmetry_multiplicity
 _atom_site_fract_x
 _atom_site_fract_y
 _atom_site_fract_z
 _atom_site_occupancy
  Mg  Mg0  1  0.00000000  0.25637000  0.07141500  1
  Mg  Mg1  1  0.00000000  0.74363000  0.07141500  1
  Mg  Mg2  1  0.00000000  0.00000000  0.32970900  1
  Mg  Mg3  1  0.50000000  0.74685400  0.42665300  1
  Mg  Mg4  1  0.50000000  0.25314600  0.42665300  1
  Mg  Mg5  1  0.50000000  0.00000000  0.17325000  1
  Mg  Mg6  1  0.00000000  0.75637000  0.57141500  1
  Mg  Mg7  1  0.00000000  0.24363000  0.57141500  1
  Mg  Mg8  1  0.00000000  0.50000000  0.82970900  1
  Mg  Mg9  1  0.50000000  0.24685400  0.92665300  1
  Mg  Mg10  1  0.50000000  0.75314600  0.92665300  1
  Mg  Mg11  1  0.50000000  0.50000000  0.67325000  1
  Zr  Zr0  1  0.00000000  0.50000000  0.30107800  1
  Zr  Zr1  1  0.00000000  0.00000000  0.80107800  1
  Mo  Mo0  1  0.50000000  0.50000000  0.19982700  1
  Mo  Mo1  1  0.50000000  0.00000000  0.69982700  1
loop_
_geom_bond_atom_site_label_1
_geom_bond_atom_site_label_2
_geom_bond_distance
_geom_bond_site_symmetry_2
Mg0 Mg9 2.944673 1_454
Mg0 Mg9 2.944673 1_554
Mg0 Zr0 2.965087 1_555
Mg0 Mg1 2.984304 1_555
Mg0 Mg8 3.081935 1_554
Mg0 Mg5 3.132980 1_455
Mg0 Mg5 3.132980 1_555
Mg0 Mg1 3.140361 1_545
Mg0 Mo0 3.215321 1_555
Mg0 Mo0 3.215321 1_455
Mg0 Mg2 3.281712 1_555
Mg0 Zr1 3.400302 1_554
Mg1 Mg10 2.944673 1_554
Mg1 Mg10 2.944673 1_454
Mg1 Zr0 2.965087 1_555
Mg1 Mg8 3.081935 1_554
Mg1 Mg5 3.132980 1_465
Mg1 Mg5 3.132980 1_565
Mg1 Mo0 3.215321 1_555
Mg1 Mo0 3.215321 1_455
Mg1 Mg2 3.281712 1_565
Mg1 Zr1 3.400302 1_564
Mg2 Mg5 3.017658 1_455
Mg2 Mg5 3.017658 1_555
Mg2 Zr0 3.078947 1_545
Mg2 Zr0 3.078947 1_555
Mg2 Mg7 3.081935 1_555
Mg2 Mg6 3.081935 1_545
Mg2 Mg3 3.103696 1_545
Mg2 Mg4 3.103696 1_455
Mg2 Mg4 3.103696 1_555
Mg2 Mg3 3.103696 1_445
Mg3 Mg6 2.944673 1_555
Mg3 Mg6 2.944673 1_655
Mg3 Mo0 2.947857 1_555
Mg3 Mo1 3.419409 1_565
Mg4 Mg7 2.944673 1_555
Mg4 Mg7 2.944673 1_655
Mg4 Mo0 2.947857 1_555
Mg4 Mo1 3.419409 1_555
Mg5 Mo0 3.076654 1_545
Mg5 Mo0 3.076654 1_555
Mg6 Zr1 2.965087 1_565
Mg6 Mg7 2.984304 1_565
Mg6 Mg7 3.140361 1_555
Mg6 Mo1 3.215321 1_565
Mg6 Mo1 3.215321 1_465
Mg6 Mg8 3.281712 1_555
Mg6 Zr0 3.400302 1_555
Mg7 Zr1 2.965087 1_555
Mg7 Mo1 3.215321 1_555
Mg7 Mo1 3.215321 1_455
Mg7 Mg8 3.281712 1_555
Mg7 Zr0 3.400302 1_555
Mg8 Zr1 3.078947 1_565
Mg8 Zr1 3.078947 1_555
Mg8 Mg9 3.103696 1_455
Mg8 Mg9 3.103696 1_555
Mg9 Mo1 2.947857 1_555
Mg9 Mo0 3.419409 1_556
Mg10 Mo1 2.947857 1_565
Mg10 Mg8 3.103696 1_655
Mg10 Mg8 3.103696 1_555
Mg10 Mo0 3.419409 1_556
Mg11 Mg8 3.017658 1_655
Mg11 Mg8 3.017658 1_555
Mg11 Mo1 3.076654 1_555
Mg11 Mo1 3.076654 1_565
Mg11 Mg7 3.132980 1_655
Mg11 Mg6 3.132980 1_555
Mg11 Mg7 3.132980 1_555
Mg11 Mg6 3.132980 1_655
Mo0 Zr0 2.708382 1_555
Mo0 Zr0 2.708382 1_655
Mo1 Zr1 2.708382 1_655
Mo1 Zr1 2.708382 1_555
