# generated using pymatgen
data_Cr7FeO12
_symmetry_space_group_name_H-M   'P 1'
_cell_length_a   9.64248868
_cell_length_b   9.88831978
_cell_length_c   10.40954416
_cell_angle_alpha   90.86018068
_cell_angle_beta   87.23508019
_cell_angle_gamma   89.86149826
_symmetry_Int_Tables_number   1
_chemical_formula_structural   Cr7FeO12
_chemical_formula_sum   'Cr28 Fe4 O48'
_cell_volume   991.25726725
_cell_formula_units_Z   4
loop_
 _symmetry_equiv_pos_site_id
 _symmetry_equiv_pos_as_xyz
  1  'x, y, z'
loop_
 _atom_site_type_symbol
 _atom_site_label
 _atom_site_symmetry_multiplicity
 _atom_site_fract_x
 _atom_site_fract_y
 _atom_site_fract_z
 _atom_site_occupancy
  Cr  Cr0  1  0.58893700  0.11929700  0.69059300  1
  Cr  Cr1  1  0.46774900  0.62873400  0.05089200  1
  Cr  Cr2  1  0.15976400  0.93494900  0.14229400  1
  Cr  Cr3  1  0.37514400  0.20817900  0.17799800  1
  Cr  Cr4  1  0.68654300  0.34240400  0.30538800  1
  Cr  Cr5  1  0.58730900  0.45912600  0.56295600  1
  Cr  Cr6  1  0.02211200  0.72996200  0.38871100  1
  Cr  Cr7  1  0.55755900  0.80623500  0.81035300  1
  Cr  Cr8  1  0.38195400  0.21541400  0.88442800  1
  Cr  Cr9  1  0.53101400  0.86807700  0.52642200  1
  Cr  Cr10  1  0.79814500  0.76039500  0.57919200  1
  Cr  Cr11  1  0.32620200  0.68704500  0.29322100  1
  Cr  Cr12  1  0.28924100  0.39484600  0.70151700  1
  Cr  Cr13  1  0.22824200  0.64762100  0.58603300  1
  Cr  Cr14  1  0.78547200  0.97884300  0.28115400  1
  Cr  Cr15  1  0.99446100  0.98751600  0.57407600  1
  Cr  Cr16  1  0.79436100  0.83270500  0.03319800  1
  Cr  Cr17  1  0.17896800  0.42910600  0.24501200  1
  Cr  Cr18  1  0.74653000  0.53910400  0.97397800  1
  Cr  Cr19  1  0.01400100  0.59633200  0.81186500  1
  Cr  Cr20  1  0.86782700  0.32041100  0.70020600  1
  Cr  Cr21  1  0.14055500  0.21668400  0.47326700  1
  Cr  Cr22  1  0.49794200  0.14467900  0.41418400  1
  Cr  Cr23  1  0.27796700  0.87701800  0.83796000  1
  Cr  Cr24  1  0.76683200  0.12407200  0.95809900  1
  Cr  Cr25  1  0.67854000  0.64121100  0.31037100  1
  Cr  Cr26  1  0.06892200  0.34372500  0.97617500  1
  Cr  Cr27  1  0.26734200  0.93036000  0.56582300  1
  Fe  Fe0  1  0.92501700  0.61231900  0.17360700  1
  Fe  Fe1  1  0.98570700  0.20382200  0.19955100  1
  Fe  Fe2  1  0.49462700  0.98120700  0.04528800  1
  Fe  Fe3  1  0.99957800  0.87701800  0.81124600  1
  O  O0  1  0.60267600  0.98525500  0.38011500  1
  O  O1  1  0.62040600  0.26347700  0.48617900  1
  O  O2  1  0.87781900  0.89082000  0.44666300  1
  O  O3  1  0.57476700  0.48783500  0.38082000  1
  O  O4  1  0.14338400  0.03455100  0.45434700  1
  O  O5  1  0.19017300  0.26364100  0.12130900  1
  O  O6  1  0.73758600  0.50027700  0.16510500  1
  O  O7  1  0.96142000  0.18454400  0.58740100  1
  O  O8  1  0.88965600  0.72175300  0.73241500  1
  O  O9  1  0.93612300  0.20324200  0.01910100  1
  O  O10  1  0.49384700  0.20195000  0.02271100  1
  O  O11  1  0.74271600  0.20435900  0.79456100  1
  O  O12  1  0.63797100  0.70558100  0.49113700  1
  O  O13  1  0.15473300  0.78087300  0.24140500  1
  O  O14  1  0.13753900  0.92574200  0.97613700  1
  O  O15  1  0.54958200  0.48650000  0.97562400  1
  O  O16  1  0.79850400  0.78221800  0.21507900  1
  O  O17  1  0.32498500  0.01706600  0.17425800  1
  O  O18  1  0.32231700  0.22465700  0.36985200  1
  O  O19  1  0.16399600  0.72344000  0.78485400  1
  O  O20  1  0.18019900  0.58312200  0.39193700  1
  O  O21  1  0.42473200  0.02093200  0.86444100  1
  O  O22  1  0.14951100  0.99333600  0.71871200  1
  O  O23  1  0.02552200  0.44687000  0.13431300  1
  O  O24  1  0.23225200  0.25712000  0.61298100  1
  O  O25  1  0.83284200  0.95563700  0.89068600  1
  O  O26  1  0.65358900  0.71621000  0.96638400  1
  O  O27  1  0.55167200  0.21949900  0.25156100  1
  O  O28  1  0.91737100  0.66873000  0.98260200  1
  O  O29  1  0.24310500  0.37040700  0.87497000  1
  O  O30  1  0.39465600  0.81567900  0.68157800  1
  O  O31  1  0.10265400  0.80202900  0.54472200  1
  O  O32  1  0.40319100  0.77646200  0.95506600  1
  O  O33  1  0.11833700  0.50129900  0.66689200  1
  O  O34  1  0.87353600  0.60450700  0.38092800  1
  O  O35  1  0.67086200  0.90187200  0.66234800  1
  O  O36  1  0.31816300  0.54543600  0.15628500  1
  O  O37  1  0.46520200  0.29111000  0.73521200  1
  O  O38  1  0.99550900  0.00733600  0.20972200  1
  O  O39  1  0.43755100  0.04740300  0.56898000  1
  O  O40  1  0.69523100  0.99555700  0.10286600  1
  O  O41  1  0.38786500  0.52147900  0.61121400  1
  O  O42  1  0.81085800  0.18395000  0.27939600  1
  O  O43  1  0.36143500  0.79856700  0.44514100  1
  O  O44  1  0.74473200  0.46230100  0.65589800  1
  O  O45  1  0.51276300  0.70693700  0.21132300  1
  O  O46  1  0.05580600  0.31050700  0.35154500  1
  O  O47  1  0.91835500  0.42532000  0.86589300  1
loop_
_geom_bond_atom_site_label_1
_geom_bond_atom_site_label_2
_geom_bond_distance
_geom_bond_site_symmetry_2
Cr0 O11 2.052078 1_555
Cr0 O39 2.096449 1_555
Cr0 O37 2.106821 1_555
Cr0 O35 2.298532 1_545
Cr0 O21 2.551833 1_555
Cr0 O1 2.585217 1_555
Cr1 O15 1.765372 1_554
Cr1 O45 1.899503 1_555
Cr1 O32 1.901490 1_554
Cr1 O36 1.960288 1_555
Cr1 O26 2.147427 1_554
Cr2 O14 1.754116 1_554
Cr2 O17 1.832331 1_565
Cr2 O38 1.840026 1_465
Cr2 O13 1.852214 1_555
Cr3 O27 1.902733 1_555
Cr3 O10 1.935205 1_555
Cr3 O17 1.952117 1_555
Cr3 O5 1.984109 1_555
Cr3 O18 2.041118 1_555
Cr4 O27 1.881420 1_555
Cr4 O3 1.929561 1_555
Cr4 O42 1.977878 1_555
Cr4 O1 2.118553 1_555
Cr4 O6 2.194201 1_555
Cr5 O44 1.839072 1_555
Cr5 O3 1.930795 1_555
Cr5 O41 2.054926 1_555
Cr5 O1 2.099859 1_555
Cr6 O34 1.901246 1_455
Cr6 O31 1.959074 1_555
Cr6 O13 2.019194 1_555
Cr6 O20 2.104468 1_555
Cr6 O2 2.170098 1_455
Cr7 O35 2.085170 1_555
Cr7 O32 2.090603 1_555
Cr7 O26 2.114818 1_555
Cr7 O30 2.116414 1_555
Cr7 O21 2.519107 1_565
Cr8 O10 1.846282 1_556
Cr8 O37 1.880104 1_555
Cr8 O21 1.971704 1_555
Cr8 O29 2.039231 1_555
Cr9 O12 1.928243 1_555
Cr9 O43 1.995876 1_555
Cr9 O39 2.020636 1_565
Cr9 O0 2.023579 1_555
Cr9 O35 2.025872 1_555
Cr9 O30 2.104599 1_555
Cr10 O8 1.902903 1_555
Cr10 O12 1.909209 1_555
Cr10 O35 2.016328 1_555
Cr10 O2 2.027971 1_555
Cr10 O34 2.630274 1_555
Cr11 O43 1.957977 1_555
Cr11 O45 1.964779 1_555
Cr11 O36 1.987440 1_555
Cr11 O13 1.994765 1_555
Cr11 O20 1.998267 1_555
Cr12 O24 1.738061 1_555
Cr12 O41 1.819565 1_555
Cr12 O29 1.858091 1_555
Cr12 O33 2.003492 1_555
Cr12 O37 2.028260 1_555
Cr13 O33 1.970516 1_555
Cr13 O41 2.008240 1_555
Cr13 O31 2.010881 1_555
Cr13 O20 2.180971 1_555
Cr13 O19 2.248715 1_555
Cr13 O43 2.433427 1_555
Cr13 O30 2.538293 1_555
Cr14 O0 1.998579 1_555
Cr14 O42 2.043718 1_565
Cr14 O16 2.054135 1_555
Cr14 O40 2.095982 1_555
Cr14 O38 2.144249 1_565
Cr14 O2 2.169812 1_555
Cr15 O4 1.918247 1_665
Cr15 O7 1.975132 1_565
Cr15 O2 2.012307 1_555
Cr15 O31 2.118733 1_655
Cr15 O22 2.172633 1_655
Cr16 O26 1.930748 1_554
Cr16 O25 1.954300 1_554
Cr16 O16 1.967482 1_555
Cr16 O40 1.980755 1_555
Cr16 O28 2.053809 1_554
Cr17 O23 1.928015 1_555
Cr17 O36 1.974206 1_555
Cr17 O46 1.983485 1_555
Cr17 O5 2.066239 1_555
Cr17 O20 2.142564 1_555
Cr18 O15 1.969577 1_555
Cr18 O26 1.969716 1_555
Cr18 O6 2.029698 1_556
Cr18 O28 2.094219 1_555
Cr18 O47 2.247220 1_555
Cr19 O19 1.931538 1_555
Cr19 O8 1.943955 1_455
Cr19 O33 1.994740 1_555
Cr19 O47 2.003118 1_455
Cr19 O28 2.082847 1_455
Cr20 O44 1.911626 1_555
Cr20 O11 1.913941 1_555
Cr20 O7 1.960313 1_555
Cr20 O47 2.077979 1_555
Cr21 O24 1.779082 1_555
Cr21 O46 1.807074 1_555
Cr21 O4 1.808781 1_555
Cr21 O18 2.014449 1_555
Cr21 O7 2.076569 1_455
Cr22 O1 1.844365 1_555
Cr22 O0 1.889914 1_545
Cr22 O27 1.906911 1_555
Cr22 O18 1.945789 1_555
Cr22 O39 1.954361 1_555
Cr23 O19 1.964949 1_555
Cr23 O14 1.980572 1_555
Cr23 O30 2.018463 1_555
Cr23 O32 2.026150 1_555
Cr23 O21 2.034560 1_565
Cr23 O22 2.140640 1_555
Cr24 O25 1.894276 1_545
Cr24 O11 1.913178 1_555
Cr24 O9 1.942174 1_556
Cr24 O40 2.079395 1_546
Cr25 O3 1.951706 1_555
Cr25 O12 1.997688 1_555
Cr25 O16 2.050559 1_555
Cr25 O45 2.052989 1_555
Cr25 O34 2.084330 1_555
Cr25 O6 2.098266 1_555
Cr26 O9 1.934199 1_456
Cr26 O23 1.950960 1_556
Cr26 O29 1.959634 1_555
Cr26 O47 2.063890 1_455
Cr26 O5 2.116210 1_556
Cr27 O43 1.983646 1_555
Cr27 O4 2.000109 1_565
Cr27 O22 2.000990 1_555
Cr27 O39 2.011832 1_565
Cr27 O31 2.053126 1_555
Cr27 O30 2.102843 1_555
Fe0 O23 1.927961 1_655
Fe0 O28 2.077756 1_554
Fe0 O16 2.101068 1_555
Fe0 O6 2.126922 1_555
Fe0 O34 2.193556 1_555
Fe1 O42 1.855603 1_555
Fe1 O38 1.949698 1_555
Fe1 O9 1.960447 1_555
Fe1 O46 2.032141 1_655
Fe1 O5 2.182996 1_655
Fe1 O23 2.532371 1_655
Fe2 O40 2.057084 1_555
Fe2 O21 2.072629 1_564
Fe2 O17 2.091619 1_565
Fe2 O10 2.198932 1_565
Fe2 O32 2.406190 1_554
Fe3 O25 1.928584 1_555
Fe3 O8 2.051326 1_555
Fe3 O22 2.061029 1_655
Fe3 O19 2.197501 1_655
Fe3 O14 2.268594 1_655
