# generated using pymatgen
data_Zn2NiIrO6
_symmetry_space_group_name_H-M   'P 1'
_cell_length_a   7.39489527
_cell_length_b   9.24987708
_cell_length_c   7.39512635
_cell_angle_alpha   66.88279264
_cell_angle_beta   90.38066275
_cell_angle_gamma   113.11788129
_symmetry_Int_Tables_number   1
_chemical_formula_structural   Zn2NiIrO6
_chemical_formula_sum   'Zn8 Ni4 Ir4 O24'
_cell_volume   421.30930327
_cell_formula_units_Z   4
loop_
 _symmetry_equiv_pos_site_id
 _symmetry_equiv_pos_as_xyz
  1  'x, y, z'
loop_
 _atom_site_type_symbol
 _atom_site_label
 _atom_site_symmetry_multiplicity
 _atom_site_fract_x
 _atom_site_fract_y
 _atom_site_fract_z
 _atom_site_occupancy
  Zn  Zn0  1  0.62833400  0.24162900  0.40248200  1
  Zn  Zn1  1  0.12837900  0.24163100  0.90248800  1
  Zn  Zn2  1  0.65222800  0.25781500  0.87893200  1
  Zn  Zn3  1  0.15227800  0.25781500  0.37895300  1
  Zn  Zn4  1  0.84754500  0.74166900  0.62161500  1
  Zn  Zn5  1  0.34746700  0.74159600  0.12158200  1
  Zn  Zn6  1  0.87105500  0.75782200  0.09770500  1
  Zn  Zn7  1  0.37103000  0.75780500  0.59775600  1
  Ni  Ni0  1  0.25057300  0.00048500  0.24919800  1
  Ni  Ni1  1  0.00047600  0.50029800  0.99996100  1
  Ni  Ni2  1  0.75063300  0.00082700  0.74915600  1
  Ni  Ni3  1  0.50110000  0.50081000  0.49960400  1
  Ir  Ir0  1  0.50004900  0.49972100  0.00009900  1
  Ir  Ir1  1  0.00008100  0.49970100  0.50017800  1
  Ir  Ir2  1  0.74990100  0.99969700  0.24993200  1
  Ir  Ir3  1  0.24987200  0.99970500  0.74987300  1
  O  O0  1  0.72115700  0.73939200  0.86792700  1
  O  O1  1  0.22116100  0.73936800  0.36793600  1
  O  O2  1  0.61784900  0.76070700  0.47196300  1
  O  O3  1  0.11780800  0.76067600  0.97193000  1
  O  O4  1  0.88200600  0.23935200  0.02881100  1
  O  O5  1  0.38204200  0.23938800  0.52882600  1
  O  O6  1  0.77802300  0.26071500  0.63211800  1
  O  O7  1  0.27805600  0.26069500  0.13213100  1
  O  O8  1  0.53363300  0.05645800  0.30003400  1
  O  O9  1  0.03359100  0.05648900  0.80000400  1
  O  O10  1  0.55023200  0.44329000  0.78381600  1
  O  O11  1  0.05024400  0.44330700  0.28380900  1
  O  O12  1  0.94993200  0.55644300  0.71639900  1
  O  O13  1  0.44998300  0.55647700  0.21643500  1
  O  O14  1  0.96621800  0.94335600  0.19971400  1
  O  O15  1  0.46619000  0.94330900  0.69976300  1
  O  O16  1  0.70010200  0.42543300  0.11887300  1
  O  O17  1  0.20012200  0.42548000  0.61879400  1
  O  O18  1  0.36881500  0.07494300  0.94956900  1
  O  O19  1  0.86875400  0.07492000  0.44957900  1
  O  O20  1  0.13114300  0.92547700  0.54980700  1
  O  O21  1  0.63114400  0.92547300  0.04985500  1
  O  O22  1  0.80042800  0.57492500  0.38119900  1
  O  O23  1  0.30036300  0.57490200  0.88119500  1
loop_
_geom_bond_atom_site_label_1
_geom_bond_atom_site_label_2
_geom_bond_distance
_geom_bond_site_symmetry_2
Ni0 O8 2.020457 1_555
Ni0 O14 2.025805 1_445
Ni0 O18 2.122070 1_554
Ni0 O20 2.130044 1_545
Ni0 O7 2.136827 1_555
Ni0 O1 2.139323 1_545
Ni1 O11 2.023045 1_556
Ni1 O12 2.023264 1_455
Ni1 O23 2.124562 1_555
Ni1 O16 2.127591 1_456
Ni1 O3 2.136799 1_555
Ni1 O4 2.139321 1_456
Ni2 O9 2.020001 1_655
Ni2 O15 2.025957 1_545
Ni2 O19 2.122292 1_555
Ni2 O21 2.129996 1_546
Ni2 O6 2.134302 1_555
Ni2 O0 2.141884 1_545
Ni3 O13 2.022077 1_555
Ni3 O10 2.023893 1_555
Ni3 O22 2.121102 1_555
Ni3 O17 2.131238 1_555
Ni3 O2 2.133809 1_555
Ni3 O5 2.142332 1_555
Ir0 O16 1.933719 1_555
Ir0 O23 1.935526 1_554
Ir0 O10 1.945237 1_554
Ir0 O13 1.947343 1_555
Ir0 O7 2.003166 1_555
Ir0 O0 2.004229 1_554
Ir1 O17 1.932981 1_555
Ir1 O22 1.935668 1_455
Ir1 O11 1.945555 1_555
Ir1 O12 1.946652 1_455
Ir1 O6 2.003094 1_455
Ir1 O1 2.004158 1_555
Ir2 O21 1.933581 1_555
Ir2 O19 1.935360 1_565
Ir2 O14 1.944955 1_555
Ir2 O8 1.946948 1_565
Ir2 O2 2.003114 1_555
Ir2 O4 2.004174 1_565
Ir3 O20 1.933462 1_555
Ir3 O18 1.935959 1_565
Ir3 O15 1.945059 1_555
Ir3 O9 1.947244 1_565
Ir3 O3 2.003407 1_555
Ir3 O5 2.004146 1_565
O0 Zn4 2.041789 1_555
O0 Zn6 2.049206 1_556
O1 Zn5 2.042022 1_555
O1 Zn7 2.049377 1_555
O2 Zn7 2.040082 1_555
O2 Zn4 2.048859 1_555
O3 Zn6 2.039815 1_456
O3 Zn5 2.048702 1_556
O4 Zn1 2.041923 1_654
O4 Zn2 2.049170 1_554
O5 Zn0 2.041643 1_555
O5 Zn3 2.048993 1_555
O6 Zn2 2.040103 1_555
O6 Zn0 2.048730 1_555
O7 Zn3 2.040194 1_555
O7 Zn1 2.048689 1_554
O8 Zn0 2.016960 1_555
O9 Zn1 2.016925 1_555
O10 Zn2 2.017052 1_555
O11 Zn3 2.017388 1_555
O12 Zn4 2.017083 1_555
O13 Zn5 2.016912 1_555
O14 Zn6 2.017597 1_555
O15 Zn7 2.017347 1_555
O16 Zn0 2.019229 1_555
O17 Zn1 2.019824 1_555
O18 Zn2 2.015811 1_555
O19 Zn3 2.016471 1_655
O20 Zn4 2.019104 1_455
O21 Zn5 2.019766 1_555
O22 Zn6 2.016380 1_555
O23 Zn7 2.016090 1_555
