# generated using pymatgen
data_K2Hg3(GeSe4)2
_symmetry_space_group_name_H-M   'P 1'
_cell_length_a   6.84304868
_cell_length_b   6.84304868
_cell_length_c   20.46749200
_cell_angle_alpha   90.00000000
_cell_angle_beta   90.00000000
_cell_angle_gamma   97.00362762
_symmetry_Int_Tables_number   1
_chemical_formula_structural   K2Hg3(GeSe4)2
_chemical_formula_sum   'K4 Hg6 Ge4 Se16'
_cell_volume   951.28625445
_cell_formula_units_Z   2
loop_
 _symmetry_equiv_pos_site_id
 _symmetry_equiv_pos_as_xyz
  1  'x, y, z'
loop_
 _atom_site_type_symbol
 _atom_site_label
 _atom_site_symmetry_multiplicity
 _atom_site_fract_x
 _atom_site_fract_y
 _atom_site_fract_z
 _atom_site_occupancy
  K  K0  1  0.88238700  0.47244300  0.38211900  1
  K  K1  1  0.47244300  0.88238700  0.61788100  1
  K  K2  1  0.38238700  0.97244300  0.11788100  1
  K  K3  1  0.97244300  0.38238700  0.88211900  1
  Hg  Hg0  1  0.83252000  0.92494000  0.24467600  1
  Hg  Hg1  1  0.92494000  0.83252000  0.75532400  1
  Hg  Hg2  1  0.33252000  0.42494000  0.25532400  1
  Hg  Hg3  1  0.42494000  0.33252000  0.74467600  1
  Hg  Hg4  1  0.54002600  0.54002600  0.00000000  1
  Hg  Hg5  1  0.04002600  0.04002600  0.50000000  1
  Ge  Ge0  1  0.89614800  0.47411600  0.13556600  1
  Ge  Ge1  1  0.47411600  0.89614800  0.86443400  1
  Ge  Ge2  1  0.97411600  0.39614800  0.63556600  1
  Ge  Ge3  1  0.39614800  0.97411600  0.36443400  1
  Se  Se0  1  0.30415100  0.77164200  0.96310200  1
  Se  Se1  1  0.77164200  0.30415100  0.03689800  1
  Se  Se2  1  0.82980200  0.24407600  0.72965900  1
  Se  Se3  1  0.24407600  0.82980200  0.27034100  1
  Se  Se4  1  0.32980200  0.74407600  0.77034100  1
  Se  Se5  1  0.74407600  0.32980100  0.22965900  1
  Se  Se6  1  0.42830500  0.23891800  0.86825000  1
  Se  Se7  1  0.23891800  0.42830500  0.13175000  1
  Se  Se8  1  0.92830500  0.73891800  0.63175000  1
  Se  Se9  1  0.73891800  0.92830500  0.36825000  1
  Se  Se10  1  0.31472400  0.35033300  0.62341200  1
  Se  Se11  1  0.35033300  0.31472400  0.37658800  1
  Se  Se12  1  0.81472400  0.85033300  0.87658800  1
  Se  Se13  1  0.85033300  0.81472400  0.12341200  1
  Se  Se14  1  0.80415100  0.27164200  0.53689800  1
  Se  Se15  1  0.27164200  0.80415100  0.46310200  1
loop_
_geom_bond_atom_site_label_1
_geom_bond_atom_site_label_2
_geom_bond_distance
_geom_bond_site_symmetry_2
K0 Se5 3.370556 1_555
K0 Se9 3.394480 1_555
K0 Se14 3.468599 1_555
K0 Se11 3.503484 1_655
K0 Se11 3.670876 1_555
K0 Se15 3.677032 1_655
K0 Se9 3.744045 1_545
K1 Se4 3.370554 1_555
K1 Se8 3.394480 1_555
K1 Se15 3.468599 1_555
K1 Se10 3.503484 1_565
K1 Se10 3.670876 1_555
K1 Se14 3.677032 1_565
K1 Se8 3.744045 1_455
K2 Se3 3.370554 1_555
K2 Se7 3.394480 1_565
K2 Se0 3.468599 1_554
K2 Se13 3.503484 1_555
K2 Se13 3.670876 1_455
K2 Se1 3.677032 1_565
K2 Se7 3.744045 1_555
K3 Se2 3.370554 1_555
K3 Se6 3.394480 1_655
K3 Se1 3.468599 1_556
K3 Se12 3.503484 1_555
K3 Se12 3.670876 1_545
K3 Se0 3.677032 1_655
K3 Se6 3.744045 1_555
Hg0 Se13 2.601210 1_555
Hg0 Se9 2.609885 1_555
Hg0 Se5 2.923226 1_565
Hg0 Se3 3.013045 1_655
Hg1 Se12 2.601210 1_555
Hg1 Se8 2.609885 1_555
Hg1 Se4 2.923233 1_655
Hg1 Se2 3.013045 1_565
Hg2 Se11 2.601210 1_555
Hg2 Se7 2.609885 1_555
Hg2 Se3 2.923233 1_555
Hg2 Se5 3.013048 1_555
Hg3 Se10 2.601210 1_555
Hg3 Se6 2.609885 1_555
Hg3 Se2 2.923233 1_555
Hg3 Se4 3.013045 1_555
Hg4 Se0 2.512299 1_554
Hg4 Se1 2.512299 1_555
Hg5 Se15 2.512299 1_545
Hg5 Se14 2.512299 1_455
Ge0 Se5 2.348715 1_555
Ge0 Se13 2.402288 1_555
Ge0 Se7 2.405305 1_655
Ge0 Se1 2.432145 1_555
Ge1 Se4 2.348712 1_555
Ge1 Se12 2.402288 1_555
Ge1 Se6 2.405305 1_565
Ge1 Se0 2.432145 1_555
Ge2 Se2 2.348712 1_555
Ge2 Se10 2.402288 1_655
Ge2 Se8 2.405305 1_555
Ge2 Se14 2.432145 1_555
Ge3 Se3 2.348712 1_555
Ge3 Se11 2.402288 1_565
Ge3 Se9 2.405305 1_555
Ge3 Se15 2.432145 1_555
