# generated using pymatgen
data_TiZn(SiO3)2
_symmetry_space_group_name_H-M   'P 1'
_cell_length_a   6.80222024
_cell_length_b   6.80222024
_cell_length_c   5.29417484
_cell_angle_alpha   76.43316448
_cell_angle_beta   76.43316448
_cell_angle_gamma   84.90365037
_symmetry_Int_Tables_number   1
_chemical_formula_structural   TiZn(SiO3)2
_chemical_formula_sum   'Ti2 Zn2 Si4 O12'
_cell_volume   231.33469456
_cell_formula_units_Z   2
loop_
 _symmetry_equiv_pos_site_id
 _symmetry_equiv_pos_as_xyz
  1  'x, y, z'
loop_
 _atom_site_type_symbol
 _atom_site_label
 _atom_site_symmetry_multiplicity
 _atom_site_fract_x
 _atom_site_fract_y
 _atom_site_fract_z
 _atom_site_occupancy
  Ti  Ti0  1  0.91762200  0.08237800  0.75000000  1
  Ti  Ti1  1  0.08237800  0.91762200  0.25000000  1
  Zn  Zn0  1  0.74147600  0.25852400  0.25000000  1
  Zn  Zn1  1  0.25852400  0.74147600  0.75000000  1
  Si  Si0  1  0.39200500  0.21202500  0.73394800  1
  Si  Si1  1  0.78797500  0.60799500  0.76605200  1
  Si  Si2  1  0.21202500  0.39200500  0.23394800  1
  Si  Si3  1  0.60799500  0.78797500  0.26605200  1
  O  O0  1  0.37513500  0.32758700  0.97915900  1
  O  O1  1  0.67241300  0.62486500  0.52084100  1
  O  O2  1  0.62486500  0.67241300  0.02084100  1
  O  O3  1  0.32758700  0.37513500  0.47915900  1
  O  O4  1  0.62604200  0.14036700  0.63200100  1
  O  O5  1  0.85963300  0.37395800  0.86799900  1
  O  O6  1  0.37395800  0.85963300  0.36799900  1
  O  O7  1  0.14036700  0.62604200  0.13200100  1
  O  O8  1  0.03157400  0.22435100  0.34334400  1
  O  O9  1  0.77564900  0.96842600  0.15665600  1
  O  O10  1  0.22435100  0.03157400  0.84334400  1
  O  O11  1  0.96842600  0.77564900  0.65665600  1
loop_
_geom_bond_atom_site_label_1
_geom_bond_atom_site_label_2
_geom_bond_distance
_geom_bond_site_symmetry_2
O0 Si0 1.645975 1_555
O0 Si2 1.652672 1_556
O1 Si1 1.645975 1_555
O1 Si3 1.652672 1_555
O2 Si3 1.645975 1_555
O2 Si1 1.652672 1_554
O3 Si2 1.645975 1_555
O3 Si0 1.652672 1_555
O4 Si0 1.626566 1_555
O4 Zn0 1.989237 1_555
O4 Ti0 2.192350 1_555
O5 Si1 1.626566 1_555
O5 Zn0 1.989237 1_556
O5 Ti0 2.192350 1_555
O6 Si3 1.626566 1_555
O6 Zn1 1.989237 1_555
O6 Ti1 2.192350 1_555
O7 Si2 1.626566 1_555
O7 Zn1 1.989237 1_554
O7 Ti1 2.192350 1_555
O8 Si2 1.657696 1_555
O8 Zn0 2.124694 1_455
O8 Ti0 2.131455 1_455
O8 Ti1 2.234363 1_545
O9 Si3 1.657696 1_555
O9 Zn0 2.124694 1_565
O9 Ti0 2.131455 1_564
O9 Ti1 2.234363 1_655
O10 Si0 1.657696 1_555
O10 Zn1 2.124694 1_545
O10 Ti1 2.131455 1_546
O10 Ti0 2.234363 1_455
O11 Si1 1.657696 1_555
O11 Zn1 2.124694 1_655
O11 Ti1 2.131455 1_655
O11 Ti0 2.234363 1_565
