# generated using pymatgen
data_Ti6Ga16Os7
_symmetry_space_group_name_H-M   'P 1'
_cell_length_a   8.64468728
_cell_length_b   8.64468728
_cell_length_c   8.64468728
_cell_angle_alpha   60.00000000
_cell_angle_beta   60.00000000
_cell_angle_gamma   60.00000000
_symmetry_Int_Tables_number   1
_chemical_formula_structural   Ti6Ga16Os7
_chemical_formula_sum   'Ti6 Ga16 Os7'
_cell_volume   456.80712056
_cell_formula_units_Z   1
loop_
 _symmetry_equiv_pos_site_id
 _symmetry_equiv_pos_as_xyz
  1  'x, y, z'
loop_
 _atom_site_type_symbol
 _atom_site_label
 _atom_site_symmetry_multiplicity
 _atom_site_fract_x
 _atom_site_fract_y
 _atom_site_fract_z
 _atom_site_occupancy
  Ti  Ti0  1  0.72806900  0.72806900  0.27193100  1
  Ti  Ti1  1  0.27193100  0.72806900  0.27193100  1
  Ti  Ti2  1  0.72806900  0.27193100  0.27193100  1
  Ti  Ti3  1  0.27193100  0.27193100  0.72806900  1
  Ti  Ti4  1  0.72806900  0.27193100  0.72806900  1
  Ti  Ti5  1  0.27193100  0.72806900  0.72806900  1
  Ga  Ga0  1  0.87606400  0.87606400  0.37180800  1
  Ga  Ga1  1  0.87606400  0.37180800  0.87606400  1
  Ga  Ga2  1  0.37180800  0.87606400  0.87606400  1
  Ga  Ga3  1  0.87606400  0.87606400  0.87606400  1
  Ga  Ga4  1  0.12393600  0.12393600  0.62819200  1
  Ga  Ga5  1  0.12393600  0.62819200  0.12393600  1
  Ga  Ga6  1  0.62819200  0.12393600  0.12393600  1
  Ga  Ga7  1  0.12393600  0.12393600  0.12393600  1
  Ga  Ga8  1  0.64725000  0.64725000  0.05824900  1
  Ga  Ga9  1  0.64725000  0.05824900  0.64725000  1
  Ga  Ga10  1  0.05824900  0.64725000  0.64725000  1
  Ga  Ga11  1  0.64725000  0.64725000  0.64725000  1
  Ga  Ga12  1  0.35275000  0.35275000  0.94175100  1
  Ga  Ga13  1  0.35275000  0.94175100  0.35275000  1
  Ga  Ga14  1  0.94175100  0.35275000  0.35275000  1
  Ga  Ga15  1  0.35275000  0.35275000  0.35275000  1
  Os  Os0  1  0.00000000  0.00000000  0.00000000  1
  Os  Os1  1  0.00000000  0.00000000  0.50000000  1
  Os  Os2  1  0.50000000  0.00000000  0.50000000  1
  Os  Os3  1  0.00000000  0.50000000  0.50000000  1
  Os  Os4  1  0.50000000  0.50000000  0.00000000  1
  Os  Os5  1  0.00000000  0.50000000  0.00000000  1
  Os  Os6  1  0.50000000  0.00000000  0.00000000  1
loop_
_geom_bond_atom_site_label_1
_geom_bond_atom_site_label_2
_geom_bond_distance
_geom_bond_site_symmetry_2
Ga0 Os0 2.624354 1_665
Ga0 Os2 2.654479 1_565
Ga0 Os3 2.654479 1_655
Ga0 Os1 2.654479 1_665
Ga0 Ti0 2.804473 1_555
Ga0 Ti1 2.804473 1_655
Ga0 Ti2 2.804473 1_565
Ga1 Os0 2.624354 1_656
Ga1 Os4 2.654479 1_556
Ga1 Os3 2.654479 1_655
Ga1 Os5 2.654479 1_656
Ga1 Ti4 2.804473 1_555
Ga1 Ti2 2.804473 1_556
Ga1 Ti3 2.804473 1_655
Ga2 Os0 2.624354 1_566
Ga2 Os4 2.654479 1_556
Ga2 Os2 2.654479 1_565
Ga2 Os6 2.654479 1_566
Ga2 Ti5 2.804473 1_555
Ga2 Ti3 2.804473 1_565
Ga2 Ti1 2.804473 1_556
Ga3 Os0 2.624354 1_666
Ga3 Os5 2.654479 1_656
Ga3 Os6 2.654479 1_566
Ga3 Os1 2.654479 1_665
Ga3 Ti4 2.804473 1_565
Ga3 Ti0 2.804473 1_556
Ga3 Ti5 2.804473 1_655
Ga4 Os0 2.624354 1_556
Ga4 Os1 2.654479 1_555
Ga4 Os2 2.654479 1_555
Ga4 Os3 2.654479 1_555
Ga4 Ti5 2.804473 1_545
Ga4 Ti4 2.804473 1_455
Ga4 Ti3 2.804473 1_555
Ga5 Os0 2.624354 1_565
Ga5 Os5 2.654479 1_555
Ga5 Os4 2.654479 1_555
Ga5 Os3 2.654479 1_555
Ga5 Ti5 2.804473 1_554
Ga5 Ti0 2.804473 1_455
Ga5 Ti1 2.804473 1_555
Ga6 Os0 2.624354 1_655
Ga6 Os6 2.654479 1_555
Ga6 Os4 2.654479 1_555
Ga6 Os2 2.654479 1_555
Ga6 Ti0 2.804473 1_545
Ga6 Ti4 2.804473 1_554
Ga6 Ti2 2.804473 1_555
Ga7 Os0 2.624354 1_555
Ga7 Os1 2.654479 1_555
Ga7 Os5 2.654479 1_555
Ga7 Os6 2.654479 1_555
Ga7 Ti1 2.804473 1_545
Ga7 Ti2 2.804473 1_455
Ga7 Ti3 2.804473 1_554
Ga8 Os4 2.529143 1_555
Ga8 Os5 2.529150 1_655
Ga8 Os6 2.529150 1_565
Ga8 Ti1 2.730870 1_555
Ga8 Ti2 2.730870 1_555
Ga8 Ti0 2.730877 1_555
Ga9 Os2 2.529143 1_555
Ga9 Os6 2.529150 1_556
Ga9 Os1 2.529150 1_655
Ga9 Ti3 2.730870 1_555
Ga9 Ti2 2.730870 1_555
Ga9 Ti4 2.730877 1_555
Ga10 Os3 2.529143 1_555
Ga10 Os5 2.529150 1_556
Ga10 Os1 2.529150 1_565
Ga10 Ti3 2.730870 1_555
Ga10 Ti1 2.730870 1_555
Ga10 Ti5 2.730877 1_555
Ga11 Os3 2.529149 1_655
Ga11 Os4 2.529149 1_556
Ga11 Os2 2.529149 1_565
Ga11 Ti5 2.730869 1_555
Ga11 Ti0 2.730869 1_555
Ga11 Ti4 2.730869 1_555
Ga12 Os4 2.529143 1_556
Ga12 Os5 2.529150 1_556
Ga12 Os6 2.529150 1_556
Ga12 Ti4 2.730870 1_555
Ga12 Ti5 2.730870 1_555
Ga12 Ti3 2.730877 1_555
Ga13 Os2 2.529143 1_565
Ga13 Os1 2.529150 1_565
Ga13 Os6 2.529150 1_565
Ga13 Ti0 2.730870 1_555
Ga13 Ti5 2.730870 1_555
Ga13 Ti1 2.730877 1_555
Ga14 Os3 2.529143 1_655
Ga14 Os1 2.529150 1_655
Ga14 Os5 2.529150 1_655
Ga14 Ti0 2.730870 1_555
Ga14 Ti4 2.730870 1_555
Ga14 Ti2 2.730877 1_555
Ga15 Os4 2.529149 1_555
Ga15 Os2 2.529149 1_555
Ga15 Os3 2.529149 1_555
Ga15 Ti2 2.730869 1_555
Ga15 Ti3 2.730869 1_555
Ga15 Ti1 2.730869 1_555
