# generated using pymatgen
data_YP5O14
_symmetry_space_group_name_H-M   'P 1'
_cell_length_a   8.69415919
_cell_length_b   8.92967668
_cell_length_c   12.69226963
_cell_angle_alpha   90.00000000
_cell_angle_beta   90.00000000
_cell_angle_gamma   90.00000000
_symmetry_Int_Tables_number   1
_chemical_formula_structural   YP5O14
_chemical_formula_sum   'Y4 P20 O56'
_cell_volume   985.37743301
_cell_formula_units_Z   4
loop_
 _symmetry_equiv_pos_site_id
 _symmetry_equiv_pos_as_xyz
  1  'x, y, z'
loop_
 _atom_site_type_symbol
 _atom_site_label
 _atom_site_symmetry_multiplicity
 _atom_site_fract_x
 _atom_site_fract_y
 _atom_site_fract_z
 _atom_site_occupancy
  Y  Y0  1  0.01848662  0.05581277  0.25000000  1
  Y  Y1  1  0.51848662  0.44418723  0.25000000  1
  Y  Y2  1  0.48151338  0.55581277  0.75000000  1
  Y  Y3  1  0.98151338  0.94418723  0.75000000  1
  P  P0  1  0.24379102  0.77344908  0.93155263  1
  P  P1  1  0.74379102  0.72655092  0.56844737  1
  P  P2  1  0.25620898  0.27344908  0.06844737  1
  P  P3  1  0.75620898  0.22655092  0.43155263  1
  P  P4  1  0.75620898  0.22655092  0.06844737  1
  P  P5  1  0.25620898  0.27344908  0.43155263  1
  P  P6  1  0.74379102  0.72655092  0.93155263  1
  P  P7  1  0.24379102  0.77344908  0.56844737  1
  P  P8  1  0.42853153  0.00742731  0.25000000  1
  P  P9  1  0.92853153  0.49257269  0.25000000  1
  P  P10  1  0.07146847  0.50742731  0.75000000  1
  P  P11  1  0.57146847  0.99257269  0.75000000  1
  P  P12  1  0.50833336  0.20175490  0.91777057  1
  P  P13  1  0.00833336  0.29824510  0.58222943  1
  P  P14  1  0.99166664  0.70175490  0.08222943  1
  P  P15  1  0.49166664  0.79824510  0.41777057  1
  P  P16  1  0.49166664  0.79824510  0.08222943  1
  P  P17  1  0.99166664  0.70175490  0.41777057  1
  P  P18  1  0.00833336  0.29824510  0.91777057  1
  P  P19  1  0.50833336  0.20175490  0.58222943  1
  O  O0  1  0.00679993  0.15404581  0.86407774  1
  O  O1  1  0.50679993  0.34595419  0.63592226  1
  O  O2  1  0.49320007  0.65404581  0.13592226  1
  O  O3  1  0.99320007  0.84595419  0.36407774  1
  O  O4  1  0.99320007  0.84595419  0.13592226  1
  O  O5  1  0.49320007  0.65404581  0.36407774  1
  O  O6  1  0.50679993  0.34595419  0.86407774  1
  O  O7  1  0.00679993  0.15404581  0.63592226  1
  O  O8  1  0.66384192  0.15546884  0.97069675  1
  O  O9  1  0.16384192  0.34453116  0.52930325  1
  O  O10  1  0.83615808  0.65546884  0.02930325  1
  O  O11  1  0.33615808  0.84453116  0.47069675  1
  O  O12  1  0.33615808  0.84453116  0.02930325  1
  O  O13  1  0.83615808  0.65546884  0.47069675  1
  O  O14  1  0.16384192  0.34453116  0.97069675  1
  O  O15  1  0.66384192  0.15546884  0.52930325  1
  O  O16  1  0.84350807  0.83989416  0.88252249  1
  O  O17  1  0.34350807  0.66010584  0.61747751  1
  O  O18  1  0.65649193  0.33989416  0.11747751  1
  O  O19  1  0.38649247  0.18105169  0.00617171  1
  O  O20  1  0.15649193  0.16010584  0.38252249  1
  O  O21  1  0.65649193  0.33989416  0.38252249  1
  O  O22  1  0.34350807  0.66010584  0.88252249  1
  O  O23  1  0.84350807  0.83989416  0.61747751  1
  O  O24  1  0.72733165  0.05833337  0.75000000  1
  O  O25  1  0.22733165  0.44166663  0.75000000  1
  O  O26  1  0.77266835  0.55833337  0.25000000  1
  O  O27  1  0.27266835  0.94166663  0.25000000  1
  O  O28  1  0.47440756  0.06356544  0.65315469  1
  O  O29  1  0.97440756  0.43643456  0.84684531  1
  O  O30  1  0.02559244  0.56356544  0.34684531  1
  O  O31  1  0.52559244  0.93643456  0.15315469  1
  O  O32  1  0.52559244  0.93643456  0.34684531  1
  O  O33  1  0.02559244  0.56356544  0.15315469  1
  O  O34  1  0.97440756  0.43643456  0.65315469  1
  O  O35  1  0.47440756  0.06356544  0.84684531  1
  O  O36  1  0.04011157  0.66855452  0.75000000  1
  O  O37  1  0.54011157  0.83144548  0.75000000  1
  O  O38  1  0.45988843  0.16855452  0.25000000  1
  O  O39  1  0.95988843  0.33144548  0.25000000  1
  O  O40  1  0.17452853  0.89709846  0.62801778  1
  O  O41  1  0.67452853  0.60290154  0.87198222  1
  O  O42  1  0.32547147  0.39709846  0.37198222  1
  O  O43  1  0.82547147  0.10290154  0.12801778  1
  O  O44  1  0.82547147  0.10290154  0.37198222  1
  O  O45  1  0.32547147  0.39709846  0.12801778  1
  O  O46  1  0.67452853  0.60290154  0.62801778  1
  O  O47  1  0.17452853  0.89709846  0.87198222  1
  O  O48  1  0.38649247  0.18105169  0.49382829  1
  O  O49  1  0.88649247  0.31894831  0.00617171  1
  O  O50  1  0.11350753  0.68105169  0.50617171  1
  O  O51  1  0.61350753  0.81894831  0.99382829  1
  O  O52  1  0.61350753  0.81894831  0.50617171  1
  O  O53  1  0.11350753  0.68105169  0.99382829  1
  O  O54  1  0.88649247  0.31894831  0.49382829  1
  O  O55  1  0.15649193  0.16010584  0.11747751  1
loop_
_geom_bond_atom_site_label_1
_geom_bond_atom_site_label_2
_geom_bond_distance
_geom_bond_site_symmetry_2
O0 P18 1.456931 1_555
O0 Y3 2.378345 1_445
O1 P19 1.456931 1_555
O1 Y2 2.378345 1_555
O2 P16 1.456931 1_555
O2 Y1 2.378345 1_555
O3 P17 1.456931 1_555
O3 Y0 2.378345 1_665
O4 P14 1.456931 1_555
O4 Y0 2.378345 1_665
O5 P15 1.456931 1_555
O5 Y1 2.378345 1_555
O6 P12 1.456931 1_555
O6 Y2 2.378345 1_555
O7 P13 1.456931 1_555
O7 Y3 2.378345 1_445
O8 P12 1.565258 1_555
O8 P4 1.608437 1_556
O9 P13 1.565258 1_555
O9 P5 1.608437 1_555
O10 P14 1.565258 1_555
O10 P6 1.608437 1_554
O11 P15 1.565258 1_555
O11 P7 1.608437 1_555
O12 P16 1.565258 1_555
O12 P0 1.608437 1_554
O13 P17 1.565258 1_555
O13 P1 1.608437 1_555
O14 P18 1.565258 1_555
O14 P2 1.608437 1_556
O15 P19 1.565258 1_555
O15 P3 1.608437 1_555
O16 P6 1.470802 1_555
O16 Y3 2.266297 1_555
O17 P7 1.470802 1_555
O17 Y2 2.266297 1_555
O18 P4 1.470802 1_555
O18 Y1 2.266297 1_555
O19 P12 1.554095 1_554
O19 P2 1.608894 1_555
O20 P5 1.470802 1_555
O20 Y0 2.266297 1_555
O21 P3 1.470802 1_555
O21 Y1 2.266297 1_555
O22 P0 1.470802 1_555
O22 Y2 2.266297 1_555
O23 P1 1.470802 1_555
O23 Y3 2.266297 1_555
O24 P11 1.476863 1_545
O24 Y3 2.433637 1_545
O25 P10 1.476863 1_555
O25 Y2 2.433637 1_555
O26 P9 1.476863 1_555
O26 Y1 2.433637 1_555
O27 P8 1.476863 1_565
O27 Y0 2.433637 1_565
O28 P19 1.555663 1_555
O28 P11 1.620151 1_545
O29 P18 1.555663 1_655
O29 P10 1.620151 1_655
O30 P17 1.555663 1_455
O30 P9 1.620151 1_455
O31 P16 1.555663 1_555
O31 P8 1.620151 1_565
O32 P15 1.555663 1_555
O32 P8 1.620151 1_565
O33 P14 1.555663 1_455
O33 P9 1.620151 1_455
O34 P13 1.555663 1_655
O34 P10 1.620151 1_655
O35 P12 1.555663 1_555
O35 P11 1.620151 1_545
O36 P10 1.464414 1_555
O36 Y3 2.513484 1_455
O37 P11 1.464414 1_555
O37 Y2 2.513484 1_555
O38 P8 1.464414 1_555
O38 Y1 2.513484 1_555
O39 P9 1.464414 1_555
O39 Y0 2.513484 1_655
O40 P7 1.467456 1_555
O40 Y3 2.321608 1_455
O41 P6 1.467456 1_555
O41 Y2 2.321608 1_555
O42 P5 1.467456 1_555
O42 Y1 2.321608 1_555
O43 P4 1.467456 1_555
O43 Y0 2.321608 1_655
O44 P3 1.467456 1_555
O44 Y0 2.321608 1_655
O45 P2 1.467456 1_555
O45 Y1 2.321608 1_555
O46 P1 1.467456 1_555
O46 Y2 2.321608 1_555
O47 P0 1.467456 1_555
O47 Y3 2.321608 1_455
O48 P19 1.554095 1_555
O48 P5 1.608894 1_555
O49 P18 1.554095 1_654
O49 P4 1.608894 1_555
O50 P17 1.554095 1_455
O50 P7 1.608894 1_555
O51 P16 1.554095 1_556
O51 P6 1.608894 1_555
O52 P15 1.554095 1_555
O52 P1 1.608894 1_555
O53 P14 1.554095 1_456
O53 P0 1.608894 1_555
O54 P13 1.554095 1_655
O54 P3 1.608894 1_555
O55 P2 1.470802 1_555
O55 Y0 2.266297 1_555
