# generated using pymatgen
data_Hf3AlGe5
_symmetry_space_group_name_H-M   'P 1'
_cell_length_a   22.38887178
_cell_length_b   22.38887178
_cell_length_c   3.78537000
_cell_angle_alpha   90.00000000
_cell_angle_beta   90.00000000
_cell_angle_gamma   170.17743056
_symmetry_Int_Tables_number   1
_chemical_formula_structural   Hf3AlGe5
_chemical_formula_sum   'Hf6 Al2 Ge10'
_cell_volume   323.70230836
_cell_formula_units_Z   2
loop_
 _symmetry_equiv_pos_site_id
 _symmetry_equiv_pos_as_xyz
  1  'x, y, z'
loop_
 _atom_site_type_symbol
 _atom_site_label
 _atom_site_symmetry_multiplicity
 _atom_site_fract_x
 _atom_site_fract_y
 _atom_site_fract_z
 _atom_site_occupancy
  Hf  Hf0  1  0.13115500  0.86884500  0.50000000  1
  Hf  Hf1  1  0.79976700  0.20023300  0.50000000  1
  Hf  Hf2  1  0.46681400  0.53318600  0.50000000  1
  Hf  Hf3  1  0.53541600  0.46458400  0.00000000  1
  Hf  Hf4  1  0.19975100  0.80024900  0.00000000  1
  Hf  Hf5  1  0.86680000  0.13320000  0.00000000  1
  Al  Al0  1  0.75006300  0.24993700  0.00000000  1
  Al  Al1  1  0.41678100  0.58321900  0.00000000  1
  Ge  Ge0  1  0.58314500  0.41685500  0.50000000  1
  Ge  Ge1  1  0.24994000  0.75006000  0.50000000  1
  Ge  Ge2  1  0.91656100  0.08343900  0.50000000  1
  Ge  Ge3  1  0.08330300  0.91669700  0.00000000  1
  Ge  Ge4  1  0.02026800  0.97973200  0.50000000  1
  Ge  Ge5  1  0.68869400  0.31130600  0.50000000  1
  Ge  Ge6  1  0.35495000  0.64505000  0.50000000  1
  Ge  Ge7  1  0.64657000  0.35343000  0.00000000  1
  Ge  Ge8  1  0.31193600  0.68806400  0.00000000  1
  Ge  Ge9  1  0.97807900  0.02192100  0.00000000  1
loop_
_geom_bond_atom_site_label_1
_geom_bond_atom_site_label_2
_geom_bond_distance
_geom_bond_site_symmetry_2
Al0 Ge1 2.693759 1_655
Al0 Ge1 2.693759 1_654
Al0 Ge1 2.693759 1_544
Al0 Ge1 2.693759 1_545
Al0 Hf1 2.915372 1_554
Al0 Hf1 2.915372 1_555
Al0 Hf4 2.951647 1_655
Al0 Hf4 2.951647 1_545
Al1 Ge2 2.693772 1_565
Al1 Ge2 2.693772 1_564
Al1 Ge2 2.693772 1_454
Al1 Ge2 2.693772 1_455
Al1 Hf2 2.926551 1_554
Al1 Hf2 2.926551 1_555
Al1 Hf5 2.940433 1_565
Al1 Hf5 2.940433 1_455
Ge0 Ge3 2.693763 1_656
Ge0 Ge3 2.693763 1_655
Ge0 Ge3 2.693763 1_546
Ge0 Ge3 2.693763 1_545
Ge0 Hf3 2.848928 1_555
Ge0 Hf3 2.848928 1_556
Ge0 Hf0 2.874323 1_655
Ge0 Hf0 2.874323 1_545
Ge1 Hf4 2.931863 1_555
Ge1 Hf4 2.931863 1_556
Ge1 Hf1 2.935227 1_455
Ge1 Hf1 2.935227 1_565
Ge2 Hf5 2.917306 1_555
Ge2 Hf5 2.917306 1_556
Ge2 Hf2 2.949646 1_545
Ge2 Hf2 2.949646 1_655
Ge3 Hf0 2.853031 1_555
Ge3 Hf0 2.853031 1_554
Ge3 Hf3 2.870236 1_565
Ge3 Hf3 2.870236 1_455
Ge4 Ge9 2.669252 1_466
Ge4 Ge9 2.669252 1_465
Ge4 Hf3 2.777232 1_455
Ge4 Hf3 2.777232 1_456
Ge4 Hf3 2.777232 1_565
Ge4 Hf3 2.777232 1_566
Ge4 Hf2 3.059598 1_455
Ge4 Hf2 3.059598 1_565
Ge5 Ge7 2.667208 1_556
Ge5 Ge7 2.667208 1_555
Ge5 Hf4 2.738548 1_656
Ge5 Hf4 2.738548 1_655
Ge5 Hf4 2.738548 1_546
Ge5 Hf4 2.738548 1_545
Ge5 Hf0 3.203682 1_545
Ge5 Hf0 3.203682 1_655
Ge6 Ge8 2.695331 1_556
Ge6 Ge8 2.695331 1_555
Ge6 Hf5 2.745141 1_566
Ge6 Hf5 2.745141 1_565
Ge6 Hf5 2.745141 1_455
Ge6 Hf5 2.745141 1_456
Ge6 Hf1 3.120095 1_565
Ge6 Hf1 3.120095 1_455
Ge7 Hf0 2.780155 1_544
Ge7 Hf0 2.780155 1_545
Ge7 Hf0 2.780155 1_655
Ge7 Hf0 2.780155 1_654
Ge7 Hf4 3.050115 1_655
Ge7 Hf4 3.050115 1_545
Ge8 Hf1 2.747917 1_564
Ge8 Hf1 2.747917 1_565
Ge8 Hf1 2.747917 1_455
Ge8 Hf1 2.747917 1_454
Ge8 Hf5 3.108878 1_565
Ge8 Hf5 3.108878 1_455
Ge9 Hf2 2.740235 1_655
Ge9 Hf2 2.740235 1_654
Ge9 Hf2 2.740235 1_544
Ge9 Hf2 2.740235 1_545
Ge9 Hf3 3.196466 1_545
Ge9 Hf3 3.196466 1_655
