# generated using pymatgen
data_CaSi7Ir3
_symmetry_space_group_name_H-M   'P 1'
_cell_length_a   8.03018608
_cell_length_b   8.03018608
_cell_length_c   8.03018601
_cell_angle_alpha   56.79927370
_cell_angle_beta   56.79927370
_cell_angle_gamma   56.79927159
_symmetry_Int_Tables_number   1
_chemical_formula_structural   CaSi7Ir3
_chemical_formula_sum   'Ca2 Si14 Ir6'
_cell_volume   339.10317112
_cell_formula_units_Z   2
loop_
 _symmetry_equiv_pos_site_id
 _symmetry_equiv_pos_as_xyz
  1  'x, y, z'
loop_
 _atom_site_type_symbol
 _atom_site_label
 _atom_site_symmetry_multiplicity
 _atom_site_fract_x
 _atom_site_fract_y
 _atom_site_fract_z
 _atom_site_occupancy
  Ca  Ca0  1  0.50000000  0.50000000  0.50000000  1
  Ca  Ca1  1  0.00000000  0.00000000  0.00000000  1
  Si  Si0  1  0.06671900  0.84976500  0.67252000  1
  Si  Si1  1  0.67252000  0.06671900  0.84976500  1
  Si  Si2  1  0.84976500  0.67252000  0.06671900  1
  Si  Si3  1  0.17252000  0.34976500  0.56671900  1
  Si  Si4  1  0.56671900  0.17252000  0.34976500  1
  Si  Si5  1  0.34976500  0.56671900  0.17252000  1
  Si  Si6  1  0.93328100  0.15023500  0.32748000  1
  Si  Si7  1  0.32748000  0.93328100  0.15023500  1
  Si  Si8  1  0.15023500  0.32748000  0.93328100  1
  Si  Si9  1  0.82748000  0.65023500  0.43328100  1
  Si  Si10  1  0.43328100  0.82748000  0.65023500  1
  Si  Si11  1  0.65023500  0.43328100  0.82748000  1
  Si  Si12  1  0.75000000  0.75000000  0.75000000  1
  Si  Si13  1  0.25000000  0.25000000  0.25000000  1
  Ir  Ir0  1  0.07038700  0.75000000  0.42961300  1
  Ir  Ir1  1  0.42961300  0.07038700  0.75000000  1
  Ir  Ir2  1  0.75000000  0.42961300  0.07038700  1
  Ir  Ir3  1  0.92961300  0.25000000  0.57038700  1
  Ir  Ir4  1  0.57038700  0.92961300  0.25000000  1
  Ir  Ir5  1  0.25000000  0.57038700  0.92961300  1
loop_
_geom_bond_atom_site_label_1
_geom_bond_atom_site_label_2
_geom_bond_distance
_geom_bond_site_symmetry_2
Ca0 Ir3 3.091826 1_555
Ca0 Ir0 3.091826 1_555
Ca0 Ir5 3.091826 1_555
Ca0 Ir2 3.091826 1_555
Ca0 Ir4 3.091826 1_555
Ca0 Ir1 3.091826 1_555
Ca0 Si11 3.143487 1_555
Ca0 Si5 3.143487 1_555
Ca0 Si10 3.143487 1_555
Ca0 Si4 3.143487 1_555
Ca0 Si9 3.143487 1_555
Ca0 Si3 3.143487 1_555
Ca0 Si0 3.192807 1_555
Ca0 Si6 3.192807 1_555
Ca0 Si1 3.192807 1_555
Ca0 Si7 3.192807 1_555
Ca0 Si2 3.192807 1_555
Ca0 Si8 3.192807 1_555
Ca1 Ir2 3.091826 1_455
Ca1 Ir5 3.091826 1_544
Ca1 Ir0 3.091826 1_545
Ca1 Ir3 3.091826 1_454
Ca1 Ir1 3.091826 1_554
Ca1 Ir4 3.091826 1_445
Ca1 Si6 3.143487 1_455
Ca1 Si0 3.143487 1_544
Ca1 Si7 3.143487 1_545
Ca1 Si1 3.143487 1_454
Ca1 Si8 3.143487 1_554
Ca1 Si2 3.143487 1_445
Ca1 Si11 3.192807 1_454
Ca1 Si5 3.192807 1_545
Ca1 Si10 3.192807 1_544
Ca1 Si4 3.192807 1_455
Ca1 Si9 3.192807 1_445
Ca1 Si3 3.192807 1_554
Ir0 Si12 2.447312 1_455
Ir0 Si0 2.463752 1_555
Ir0 Si9 2.463752 1_455
Ir0 Si5 2.469952 1_555
Ir0 Si7 2.469952 1_555
Ir0 Si6 2.537974 1_465
Ir0 Si3 2.537974 1_555
Ir1 Si12 2.447312 1_545
Ir1 Si10 2.463752 1_545
Ir1 Si1 2.463752 1_555
Ir1 Si3 2.469952 1_555
Ir1 Si8 2.469952 1_555
Ir1 Si7 2.537974 1_546
Ir1 Si4 2.537974 1_555
Ir2 Si12 2.447312 1_554
Ir2 Si11 2.463752 1_554
Ir2 Si2 2.463752 1_555
Ir2 Si6 2.469952 1_555
Ir2 Si4 2.469952 1_555
Ir2 Si5 2.537974 1_555
Ir2 Si8 2.537974 1_654
Ir3 Si13 2.447312 1_655
Ir3 Si6 2.463752 1_555
Ir3 Si3 2.463752 1_655
Ir3 Si11 2.469952 1_555
Ir3 Si1 2.469952 1_555
Ir3 Si0 2.537974 1_645
Ir3 Si9 2.537974 1_555
Ir4 Si13 2.447312 1_565
Ir4 Si7 2.463752 1_555
Ir4 Si4 2.463752 1_565
Ir4 Si2 2.469952 1_555
Ir4 Si9 2.469952 1_555
Ir4 Si1 2.537974 1_564
Ir4 Si10 2.537974 1_555
Ir5 Si13 2.447312 1_556
Ir5 Si5 2.463752 1_556
Ir5 Si8 2.463752 1_555
Ir5 Si0 2.469952 1_555
Ir5 Si10 2.469952 1_555
Ir5 Si11 2.537974 1_555
Ir5 Si2 2.537974 1_456
