# generated using pymatgen
data_Mg6MoC
_symmetry_space_group_name_H-M   'P 1'
_cell_length_a   6.31935000
_cell_length_b   19.86401000
_cell_length_c   21.57325200
_cell_angle_alpha   90.00000000
_cell_angle_beta   90.00000000
_cell_angle_gamma   90.00000000
_symmetry_Int_Tables_number   1
_chemical_formula_structural   Mg6MoC
_chemical_formula_sum   'Mg96 Mo16 C16'
_cell_volume   2708.03922933
_cell_formula_units_Z   16
loop_
 _symmetry_equiv_pos_site_id
 _symmetry_equiv_pos_as_xyz
  1  'x, y, z'
loop_
 _atom_site_type_symbol
 _atom_site_label
 _atom_site_symmetry_multiplicity
 _atom_site_fract_x
 _atom_site_fract_y
 _atom_site_fract_z
 _atom_site_occupancy
  Mg  Mg0_0  1  0.00000000  0.34576900  0.04568100  1
  Mg  Mg0_1  1  0.00000000  0.34576900  0.54568100  1
  Mg  Mg0_2  1  0.00000000  0.84576900  0.04568100  1
  Mg  Mg0_3  1  0.00000000  0.84576900  0.54568100  1
  Mg  Mg0_4  1  0.50000000  0.34576900  0.04568100  1
  Mg  Mg0_5  1  0.50000000  0.34576900  0.54568100  1
  Mg  Mg0_6  1  0.50000000  0.84576900  0.04568100  1
  Mg  Mg0_7  1  0.50000000  0.84576900  0.54568100  1
  Mg  Mg1_0  1  0.00000000  0.15423100  0.04568100  1
  Mg  Mg1_1  1  0.00000000  0.15423100  0.54568100  1
  Mg  Mg1_2  1  0.00000000  0.65423100  0.04568100  1
  Mg  Mg1_3  1  0.00000000  0.65423100  0.54568100  1
  Mg  Mg1_4  1  0.50000000  0.15423100  0.04568100  1
  Mg  Mg1_5  1  0.50000000  0.15423100  0.54568100  1
  Mg  Mg1_6  1  0.50000000  0.65423100  0.04568100  1
  Mg  Mg1_7  1  0.50000000  0.65423100  0.54568100  1
  Mg  Mg2_0  1  0.00000000  0.25000000  0.42968200  1
  Mg  Mg2_1  1  0.00000000  0.25000000  0.92968200  1
  Mg  Mg2_2  1  0.00000000  0.75000000  0.42968200  1
  Mg  Mg2_3  1  0.00000000  0.75000000  0.92968200  1
  Mg  Mg2_4  1  0.50000000  0.25000000  0.42968200  1
  Mg  Mg2_5  1  0.50000000  0.25000000  0.92968200  1
  Mg  Mg2_6  1  0.50000000  0.75000000  0.42968200  1
  Mg  Mg2_7  1  0.50000000  0.75000000  0.92968200  1
  Mg  Mg3_0  1  0.25000000  0.38265050  0.42214200  1
  Mg  Mg3_1  1  0.25000000  0.38265050  0.92214200  1
  Mg  Mg3_2  1  0.25000000  0.88265050  0.42214200  1
  Mg  Mg3_3  1  0.25000000  0.88265050  0.92214200  1
  Mg  Mg3_4  1  0.75000000  0.38265050  0.42214200  1
  Mg  Mg3_5  1  0.75000000  0.38265050  0.92214200  1
  Mg  Mg3_6  1  0.75000000  0.88265050  0.42214200  1
  Mg  Mg3_7  1  0.75000000  0.88265050  0.92214200  1
  Mg  Mg4_0  1  0.25000000  0.11734950  0.42214200  1
  Mg  Mg4_1  1  0.25000000  0.11734950  0.92214200  1
  Mg  Mg4_2  1  0.25000000  0.61734950  0.42214200  1
  Mg  Mg4_3  1  0.25000000  0.61734950  0.92214200  1
  Mg  Mg4_4  1  0.75000000  0.11734950  0.42214200  1
  Mg  Mg4_5  1  0.75000000  0.11734950  0.92214200  1
  Mg  Mg4_6  1  0.75000000  0.61734950  0.42214200  1
  Mg  Mg4_7  1  0.75000000  0.61734950  0.92214200  1
  Mg  Mg5_0  1  0.25000000  0.25000000  0.29686700  1
  Mg  Mg5_1  1  0.25000000  0.25000000  0.79686700  1
  Mg  Mg5_2  1  0.25000000  0.75000000  0.29686700  1
  Mg  Mg5_3  1  0.25000000  0.75000000  0.79686700  1
  Mg  Mg5_4  1  0.75000000  0.25000000  0.29686700  1
  Mg  Mg5_5  1  0.75000000  0.25000000  0.79686700  1
  Mg  Mg5_6  1  0.75000000  0.75000000  0.29686700  1
  Mg  Mg5_7  1  0.75000000  0.75000000  0.79686700  1
  Mg  Mg6_0  1  0.00000000  0.09576900  0.29568100  1
  Mg  Mg6_1  1  0.00000000  0.09576900  0.79568100  1
  Mg  Mg6_2  1  0.00000000  0.59576900  0.29568100  1
  Mg  Mg6_3  1  0.00000000  0.59576900  0.79568100  1
  Mg  Mg6_4  1  0.50000000  0.09576900  0.29568100  1
  Mg  Mg6_5  1  0.50000000  0.09576900  0.79568100  1
  Mg  Mg6_6  1  0.50000000  0.59576900  0.29568100  1
  Mg  Mg6_7  1  0.50000000  0.59576900  0.79568100  1
  Mg  Mg7_0  1  0.00000000  0.40423100  0.29568100  1
  Mg  Mg7_1  1  0.00000000  0.40423100  0.79568100  1
  Mg  Mg7_2  1  0.00000000  0.90423100  0.29568100  1
  Mg  Mg7_3  1  0.00000000  0.90423100  0.79568100  1
  Mg  Mg7_4  1  0.50000000  0.40423100  0.29568100  1
  Mg  Mg7_5  1  0.50000000  0.40423100  0.79568100  1
  Mg  Mg7_6  1  0.50000000  0.90423100  0.29568100  1
  Mg  Mg7_7  1  0.50000000  0.90423100  0.79568100  1
  Mg  Mg8_0  1  0.00000000  0.00000000  0.17968200  1
  Mg  Mg8_1  1  0.00000000  0.00000000  0.67968200  1
  Mg  Mg8_2  1  0.00000000  0.50000000  0.17968200  1
  Mg  Mg8_3  1  0.00000000  0.50000000  0.67968200  1
  Mg  Mg8_4  1  0.50000000  0.00000000  0.17968200  1
  Mg  Mg8_5  1  0.50000000  0.00000000  0.67968200  1
  Mg  Mg8_6  1  0.50000000  0.50000000  0.17968200  1
  Mg  Mg8_7  1  0.50000000  0.50000000  0.67968200  1
  Mg  Mg9_0  1  0.25000000  0.13265050  0.17214200  1
  Mg  Mg9_1  1  0.25000000  0.13265050  0.67214200  1
  Mg  Mg9_2  1  0.25000000  0.63265050  0.17214200  1
  Mg  Mg9_3  1  0.25000000  0.63265050  0.67214200  1
  Mg  Mg9_4  1  0.75000000  0.13265050  0.17214200  1
  Mg  Mg9_5  1  0.75000000  0.13265050  0.67214200  1
  Mg  Mg9_6  1  0.75000000  0.63265050  0.17214200  1
  Mg  Mg9_7  1  0.75000000  0.63265050  0.67214200  1
  Mg  Mg10_0  1  0.25000000  0.36734950  0.17214200  1
  Mg  Mg10_1  1  0.25000000  0.36734950  0.67214200  1
  Mg  Mg10_2  1  0.25000000  0.86734950  0.17214200  1
  Mg  Mg10_3  1  0.25000000  0.86734950  0.67214200  1
  Mg  Mg10_4  1  0.75000000  0.36734950  0.17214200  1
  Mg  Mg10_5  1  0.75000000  0.36734950  0.67214200  1
  Mg  Mg10_6  1  0.75000000  0.86734950  0.17214200  1
  Mg  Mg10_7  1  0.75000000  0.86734950  0.67214200  1
  Mg  Mg11_0  1  0.25000000  0.00000000  0.04686700  1
  Mg  Mg11_1  1  0.25000000  0.00000000  0.54686700  1
  Mg  Mg11_2  1  0.25000000  0.50000000  0.04686700  1
  Mg  Mg11_3  1  0.25000000  0.50000000  0.54686700  1
  Mg  Mg11_4  1  0.75000000  0.00000000  0.04686700  1
  Mg  Mg11_5  1  0.75000000  0.00000000  0.54686700  1
  Mg  Mg11_6  1  0.75000000  0.50000000  0.04686700  1
  Mg  Mg11_7  1  0.75000000  0.50000000  0.54686700  1
  Mo  Mo0_0  1  0.00000000  0.25000000  0.14199750  1
  Mo  Mo0_1  1  0.00000000  0.25000000  0.64199750  1
  Mo  Mo0_2  1  0.00000000  0.75000000  0.14199750  1
  Mo  Mo0_3  1  0.00000000  0.75000000  0.64199750  1
  Mo  Mo0_4  1  0.50000000  0.25000000  0.14199750  1
  Mo  Mo0_5  1  0.50000000  0.25000000  0.64199750  1
  Mo  Mo0_6  1  0.50000000  0.75000000  0.14199750  1
  Mo  Mo0_7  1  0.50000000  0.75000000  0.64199750  1
  Mo  Mo1_0  1  0.00000000  0.00000000  0.39199750  1
  Mo  Mo1_1  1  0.00000000  0.00000000  0.89199750  1
  Mo  Mo1_2  1  0.00000000  0.50000000  0.39199750  1
  Mo  Mo1_3  1  0.00000000  0.50000000  0.89199750  1
  Mo  Mo1_4  1  0.50000000  0.00000000  0.39199750  1
  Mo  Mo1_5  1  0.50000000  0.00000000  0.89199750  1
  Mo  Mo1_6  1  0.50000000  0.50000000  0.39199750  1
  Mo  Mo1_7  1  0.50000000  0.50000000  0.89199750  1
  C  C0_0  1  0.25000000  0.25000000  0.19580750  1
  C  C0_1  1  0.25000000  0.25000000  0.69580750  1
  C  C0_2  1  0.25000000  0.75000000  0.19580750  1
  C  C0_3  1  0.25000000  0.75000000  0.69580750  1
  C  C0_4  1  0.75000000  0.25000000  0.19580750  1
  C  C0_5  1  0.75000000  0.25000000  0.69580750  1
  C  C0_6  1  0.75000000  0.75000000  0.19580750  1
  C  C0_7  1  0.75000000  0.75000000  0.69580750  1
  C  C1_0  1  0.25000000  0.00000000  0.44580750  1
  C  C1_1  1  0.25000000  0.00000000  0.94580750  1
  C  C1_2  1  0.25000000  0.50000000  0.44580750  1
  C  C1_3  1  0.25000000  0.50000000  0.94580750  1
  C  C1_4  1  0.75000000  0.00000000  0.44580750  1
  C  C1_5  1  0.75000000  0.00000000  0.94580750  1
  C  C1_6  1  0.75000000  0.50000000  0.44580750  1
  C  C1_7  1  0.75000000  0.50000000  0.94580750  1
loop_
_geom_bond_atom_site_label_1
_geom_bond_atom_site_label_2
_geom_bond_distance
_geom_bond_site_symmetry_2
Mg0_0 Mo0_0 2.817173 1_555
Mg0_0 Mg2_1 3.143461 1_554
Mg0_1 Mo0_1 2.817173 1_555
Mg0_1 Mg2_0 3.143461 1_555
Mg0_2 Mo0_2 2.817173 1_555
Mg0_2 Mg2_3 3.143461 1_554
Mg0_3 Mo0_3 2.817173 1_555
Mg0_3 Mg2_2 3.143461 1_555
Mg0_4 Mo0_4 2.817173 1_555
Mg0_4 Mg2_5 3.143461 1_554
Mg0_5 Mo0_5 2.817173 1_555
Mg0_5 Mg2_4 3.143461 1_555
Mg0_6 Mo0_6 2.817173 1_555
Mg0_6 Mg2_7 3.143461 1_554
Mg0_7 Mo0_7 2.817173 1_555
Mg0_7 Mg2_6 3.143461 1_555
Mg1_0 Mo0_0 2.817173 1_555
Mg1_0 Mg2_1 3.143461 1_554
Mg1_1 Mo0_1 2.817173 1_555
Mg1_1 Mg2_0 3.143461 1_555
Mg1_2 Mo0_2 2.817173 1_555
Mg1_2 Mg2_3 3.143461 1_554
Mg1_3 Mo0_3 2.817173 1_555
Mg1_3 Mg2_2 3.143461 1_555
Mg1_4 Mo0_4 2.817173 1_555
Mg1_4 Mg2_5 3.143461 1_554
Mg1_5 Mo0_5 2.817173 1_555
Mg1_5 Mg2_4 3.143461 1_555
Mg1_6 Mo0_6 2.817173 1_555
Mg1_6 Mg2_7 3.143461 1_554
Mg1_7 Mo0_7 2.817173 1_555
Mg1_7 Mg2_6 3.143461 1_555
Mg2_0 Mg4_0 3.076592 1_555
Mg2_0 Mg3_4 3.076592 1_455
Mg2_0 Mg4_4 3.076592 1_455
Mg2_0 Mg3_0 3.076592 1_555
Mg2_0 Mg2_4 3.159675 1_555
Mg2_0 Mg2_4 3.159675 1_455
Mg2_0 Mg5_0 3.271934 1_555
Mg2_0 Mg5_4 3.271934 1_455
Mg2_1 Mg3_1 3.076592 1_555
Mg2_1 Mg3_5 3.076592 1_455
Mg2_1 Mg4_1 3.076592 1_555
Mg2_1 Mg4_5 3.076592 1_455
Mg2_1 Mg2_5 3.159675 1_555
Mg2_1 Mg2_5 3.159675 1_455
Mg2_1 Mg5_5 3.271934 1_455
Mg2_1 Mg5_1 3.271934 1_555
Mg2_2 Mg3_2 3.076592 1_555
Mg2_2 Mg3_6 3.076592 1_455
Mg2_2 Mg4_6 3.076592 1_455
Mg2_2 Mg4_2 3.076592 1_555
Mg2_2 Mg2_6 3.159675 1_555
Mg2_2 Mg2_6 3.159675 1_455
Mg2_2 Mg5_6 3.271934 1_455
Mg2_2 Mg5_2 3.271934 1_555
Mg2_3 Mg3_7 3.076592 1_455
Mg2_3 Mg4_7 3.076592 1_455
Mg2_3 Mg3_3 3.076592 1_555
Mg2_3 Mg4_3 3.076592 1_555
Mg2_3 Mg2_7 3.159675 1_555
Mg2_3 Mg2_7 3.159675 1_455
Mg2_3 Mg5_3 3.271934 1_555
Mg2_3 Mg5_7 3.271934 1_455
Mg2_4 Mg4_0 3.076592 1_555
Mg2_4 Mg3_0 3.076592 1_555
Mg2_4 Mg3_4 3.076592 1_555
Mg2_4 Mg4_4 3.076592 1_555
Mg2_4 Mg5_0 3.271934 1_555
Mg2_4 Mg5_4 3.271934 1_555
Mg2_5 Mg3_1 3.076592 1_555
Mg2_5 Mg4_1 3.076592 1_555
Mg2_5 Mg4_5 3.076592 1_555
Mg2_5 Mg3_5 3.076592 1_555
Mg2_5 Mg5_1 3.271934 1_555
Mg2_5 Mg5_5 3.271934 1_555
Mg2_6 Mg3_2 3.076592 1_555
Mg2_6 Mg4_2 3.076592 1_555
Mg2_6 Mg4_6 3.076592 1_555
Mg2_6 Mg3_6 3.076592 1_555
Mg2_6 Mg5_2 3.271934 1_555
Mg2_6 Mg5_6 3.271934 1_555
Mg2_7 Mg3_3 3.076592 1_555
Mg2_7 Mg4_3 3.076592 1_555
Mg2_7 Mg3_7 3.076592 1_555
Mg2_7 Mg4_7 3.076592 1_555
Mg2_7 Mg5_3 3.271934 1_555
Mg2_7 Mg5_7 3.271934 1_555
Mg6_0 Mo1_0 2.817173 1_555
Mg6_0 Mg8_0 3.143461 1_555
Mg6_1 Mo1_1 2.817173 1_555
Mg6_1 Mg8_1 3.143461 1_555
Mg6_2 Mo1_2 2.817173 1_555
Mg6_2 Mg8_2 3.143461 1_555
Mg6_3 Mo1_3 2.817173 1_555
Mg6_3 Mg8_3 3.143461 1_555
Mg6_4 Mo1_4 2.817173 1_555
Mg6_4 Mg8_4 3.143461 1_555
Mg6_5 Mo1_5 2.817173 1_555
Mg6_5 Mg8_5 3.143461 1_555
Mg6_6 Mo1_6 2.817173 1_555
Mg6_6 Mg8_6 3.143461 1_555
Mg6_7 Mo1_7 2.817173 1_555
Mg6_7 Mg8_7 3.143461 1_555
Mg7_0 Mo1_2 2.817173 1_555
Mg7_0 Mg8_2 3.143461 1_555
Mg7_1 Mo1_3 2.817173 1_555
Mg7_1 Mg8_3 3.143461 1_555
Mg7_2 Mo1_0 2.817173 1_565
Mg7_2 Mg8_0 3.143461 1_565
Mg7_3 Mo1_1 2.817173 1_565
Mg7_3 Mg8_1 3.143461 1_565
Mg7_4 Mo1_6 2.817173 1_555
Mg7_4 Mg8_6 3.143461 1_555
Mg7_5 Mo1_7 2.817173 1_555
Mg7_5 Mg8_7 3.143461 1_555
Mg7_6 Mo1_4 2.817173 1_565
Mg7_6 Mg8_4 3.143461 1_565
Mg7_7 Mo1_5 2.817173 1_565
Mg7_7 Mg8_5 3.143461 1_565
Mg8_0 Mg9_0 3.076592 1_555
Mg8_0 Mg9_4 3.076592 1_455
Mg8_0 Mg8_4 3.159675 1_555
Mg8_0 Mg8_4 3.159675 1_455
Mg8_1 Mg9_5 3.076592 1_455
Mg8_1 Mg9_1 3.076592 1_555
Mg8_1 Mg8_5 3.159675 1_555
Mg8_1 Mg8_5 3.159675 1_455
Mg8_2 Mg9_6 3.076592 1_455
Mg8_2 Mg9_2 3.076592 1_555
Mg8_2 Mg8_6 3.159675 1_555
Mg8_2 Mg8_6 3.159675 1_455
Mg8_3 Mg9_7 3.076592 1_455
Mg8_3 Mg9_3 3.076592 1_555
Mg8_3 Mg8_7 3.159675 1_555
Mg8_3 Mg8_7 3.159675 1_455
Mg8_4 Mg9_0 3.076592 1_555
Mg8_4 Mg9_4 3.076592 1_555
Mg8_5 Mg9_5 3.076592 1_555
Mg8_5 Mg9_1 3.076592 1_555
Mg8_6 Mg9_6 3.076592 1_555
Mg8_6 Mg9_2 3.076592 1_555
Mg8_7 Mg9_3 3.076592 1_555
Mg8_7 Mg9_7 3.076592 1_555
Mg10_0 Mg8_2 3.076592 1_555
Mg10_0 Mg8_6 3.076592 1_555
Mg10_1 Mg8_3 3.076592 1_555
Mg10_1 Mg8_7 3.076592 1_555
Mg10_2 Mg8_0 3.076592 1_565
Mg10_2 Mg8_4 3.076592 1_565
Mg10_3 Mg8_5 3.076592 1_565
Mg10_3 Mg8_1 3.076592 1_565
Mg10_4 Mg8_2 3.076592 1_655
Mg10_4 Mg8_6 3.076592 1_555
Mg10_5 Mg8_7 3.076592 1_555
Mg10_5 Mg8_3 3.076592 1_655
Mg10_6 Mg8_4 3.076592 1_565
Mg10_6 Mg8_0 3.076592 1_665
Mg10_7 Mg8_1 3.076592 1_665
Mg10_7 Mg8_5 3.076592 1_565
Mg11_0 Mg8_0 3.271934 1_555
Mg11_0 Mg8_4 3.271934 1_555
Mg11_1 Mg8_5 3.271934 1_555
Mg11_1 Mg8_1 3.271934 1_555
Mg11_2 Mg8_2 3.271934 1_555
Mg11_2 Mg8_6 3.271934 1_555
Mg11_3 Mg8_7 3.271934 1_555
Mg11_3 Mg8_3 3.271934 1_555
Mg11_4 Mg8_0 3.271934 1_655
Mg11_4 Mg8_4 3.271934 1_555
Mg11_5 Mg8_1 3.271934 1_655
Mg11_5 Mg8_5 3.271934 1_555
Mg11_6 Mg8_2 3.271934 1_655
Mg11_6 Mg8_6 3.271934 1_555
Mg11_7 Mg8_3 3.271934 1_655
Mg11_7 Mg8_7 3.271934 1_555
C0_0 Mo0_0 1.960478 1_555
C0_0 Mo0_4 1.960478 1_555
C0_0 Mg5_0 2.180182 1_555
C0_0 Mg9_0 2.386286 1_555
C0_0 Mg10_0 2.386286 1_555
C0_1 Mo0_1 1.960478 1_555
C0_1 Mo0_5 1.960478 1_555
C0_1 Mg5_1 2.180182 1_555
C0_1 Mg10_1 2.386286 1_555
C0_1 Mg9_1 2.386286 1_555
C0_2 Mo0_2 1.960478 1_555
C0_2 Mo0_6 1.960478 1_555
C0_2 Mg5_2 2.180182 1_555
C0_2 Mg10_2 2.386286 1_555
C0_2 Mg9_2 2.386286 1_555
C0_3 Mo0_7 1.960478 1_555
C0_3 Mo0_3 1.960478 1_555
C0_3 Mg5_3 2.180182 1_555
C0_3 Mg9_3 2.386286 1_555
C0_3 Mg10_3 2.386286 1_555
C0_4 Mo0_0 1.960478 1_655
C0_4 Mo0_4 1.960478 1_555
C0_4 Mg5_4 2.180182 1_555
C0_4 Mg10_4 2.386286 1_555
C0_4 Mg9_4 2.386286 1_555
C0_5 Mo0_1 1.960478 1_655
C0_5 Mo0_5 1.960478 1_555
C0_5 Mg5_5 2.180182 1_555
C0_5 Mg10_5 2.386286 1_555
C0_5 Mg9_5 2.386286 1_555
C0_6 Mo0_2 1.960478 1_655
C0_6 Mo0_6 1.960478 1_555
C0_6 Mg5_6 2.180182 1_555
C0_6 Mg10_6 2.386286 1_555
C0_6 Mg9_6 2.386286 1_555
C0_7 Mo0_3 1.960478 1_655
C0_7 Mo0_7 1.960478 1_555
C0_7 Mg5_7 2.180182 1_555
C0_7 Mg10_7 2.386286 1_555
C0_7 Mg9_7 2.386286 1_555
C1_0 Mo1_0 1.960478 1_555
C1_0 Mo1_4 1.960478 1_555
C1_0 Mg11_1 2.180182 1_555
C1_0 Mg4_0 2.386286 1_555
C1_0 Mg3_2 2.386286 1_545
C1_1 Mo1_1 1.960478 1_555
C1_1 Mo1_5 1.960478 1_555
C1_1 Mg11_0 2.180182 1_556
C1_1 Mg3_3 2.386286 1_545
C1_1 Mg4_1 2.386286 1_555
C1_2 Mo1_6 1.960478 1_555
C1_2 Mo1_2 1.960478 1_555
C1_2 Mg11_3 2.180182 1_555
C1_2 Mg4_2 2.386286 1_555
C1_2 Mg3_0 2.386286 1_555
C1_3 Mo1_3 1.960478 1_555
C1_3 Mo1_7 1.960478 1_555
C1_3 Mg11_2 2.180182 1_556
C1_3 Mg3_1 2.386286 1_555
C1_3 Mg4_3 2.386286 1_555
C1_4 Mo1_0 1.960478 1_655
C1_4 Mo1_4 1.960478 1_555
C1_4 Mg11_5 2.180182 1_555
C1_4 Mg3_6 2.386286 1_545
C1_4 Mg4_4 2.386286 1_555
C1_5 Mo1_1 1.960478 1_655
C1_5 Mo1_5 1.960478 1_555
C1_5 Mg11_4 2.180182 1_556
C1_5 Mg4_5 2.386286 1_555
C1_5 Mg3_7 2.386286 1_545
C1_6 Mo1_2 1.960478 1_655
C1_6 Mo1_6 1.960478 1_555
C1_6 Mg11_7 2.180182 1_555
C1_6 Mg3_4 2.386286 1_555
C1_6 Mg4_6 2.386286 1_555
C1_7 Mo1_3 1.960478 1_655
C1_7 Mo1_7 1.960478 1_555
C1_7 Mg11_6 2.180182 1_556
C1_7 Mg4_7 2.386286 1_555
C1_7 Mg3_5 2.386286 1_555
