# generated using pymatgen
data_Rb2Cd2O3
_symmetry_space_group_name_H-M   'P 1'
_cell_length_a   6.82178088
_cell_length_b   6.49151338
_cell_length_c   6.88391569
_cell_angle_alpha   64.00103655
_cell_angle_beta   90.00000000
_cell_angle_gamma   90.00000000
_symmetry_Int_Tables_number   1
_chemical_formula_structural   Rb2Cd2O3
_chemical_formula_sum   'Rb4 Cd4 O6'
_cell_volume   273.99540788
_cell_formula_units_Z   2
loop_
 _symmetry_equiv_pos_site_id
 _symmetry_equiv_pos_as_xyz
  1  'x, y, z'
loop_
 _atom_site_type_symbol
 _atom_site_label
 _atom_site_symmetry_multiplicity
 _atom_site_fract_x
 _atom_site_fract_y
 _atom_site_fract_z
 _atom_site_occupancy
  Rb  Rb0  1  0.64359174  0.18092087  0.07497547  1
  Rb  Rb1  1  0.35640826  0.81907913  0.92502453  1
  Rb  Rb2  1  0.14359174  0.81907913  0.42502453  1
  Rb  Rb3  1  0.85640826  0.18092087  0.57497547  1
  Cd  Cd0  1  0.87943444  0.66679805  0.07232923  1
  Cd  Cd1  1  0.12056556  0.33320195  0.92767077  1
  Cd  Cd2  1  0.37943444  0.33320195  0.42767077  1
  Cd  Cd3  1  0.62056556  0.66679805  0.57232923  1
  O  O0  1  0.62176798  0.59777671  0.28139067  1
  O  O1  1  0.37823202  0.40222329  0.71860933  1
  O  O2  1  0.12176798  0.40222329  0.21860933  1
  O  O3  1  0.87823202  0.59777671  0.78139067  1
  O  O4  1  0.00000000  -0.00000000  0.00000000  1
  O  O5  1  0.50000000  -0.00000000  0.50000000  1
loop_
_geom_bond_atom_site_label_1
_geom_bond_atom_site_label_2
_geom_bond_distance
_geom_bond_site_symmetry_2
Cd0 O4 2.158399 1_665
Cd0 O0 2.190041 1_555
Cd0 O3 2.235785 1_554
Cd0 O2 2.276055 1_655
Cd1 O4 2.158399 1_556
Cd1 O1 2.190041 1_555
Cd1 O2 2.235785 1_556
Cd1 O3 2.276055 1_455
Cd2 O5 2.158399 1_555
Cd2 O2 2.190041 1_555
Cd2 O1 2.235785 1_555
Cd2 O0 2.276055 1_555
Cd3 O5 2.158399 1_565
Cd3 O3 2.190041 1_555
Cd3 O0 2.235785 1_555
Cd3 O1 2.276055 1_555
O0 Rb1 2.875611 1_554
O0 Rb3 3.028951 1_555
O1 Rb0 2.875611 1_556
O1 Rb2 3.028951 1_555
O2 Rb3 2.875611 1_455
O2 Rb1 3.028951 1_554
O3 Rb2 2.875611 1_655
O3 Rb0 3.028951 1_556
O4 Rb3 2.808338 1_454
O4 Rb2 2.808338 1_545
O4 Rb1 2.844039 1_544
O4 Rb0 2.844039 1_455
O5 Rb0 2.808338 1_555
O5 Rb1 2.808338 1_545
O5 Rb2 2.844039 1_545
O5 Rb3 2.844039 1_555
