# generated using pymatgen
data_BaUTe4
_symmetry_space_group_name_H-M   'P 1'
_cell_length_a   8.84532149
_cell_length_b   8.84532149
_cell_length_c   10.65717984
_cell_angle_alpha   53.54691826
_cell_angle_beta   53.54691826
_cell_angle_gamma   41.61627563
_symmetry_Int_Tables_number   1
_chemical_formula_structural   BaUTe4
_chemical_formula_sum   'Ba2 U2 Te8'
_cell_volume   427.50923672
_cell_formula_units_Z   2
loop_
 _symmetry_equiv_pos_site_id
 _symmetry_equiv_pos_as_xyz
  1  'x, y, z'
loop_
 _atom_site_type_symbol
 _atom_site_label
 _atom_site_symmetry_multiplicity
 _atom_site_fract_x
 _atom_site_fract_y
 _atom_site_fract_z
 _atom_site_occupancy
  Ba  Ba0  1  0.89863709  0.89863709  0.30599907  1
  Ba  Ba1  1  0.10136291  0.10136291  0.69400093  1
  U  U0  1  0.63632599  0.63632599  0.22772954  1
  U  U1  1  0.36367401  0.36367401  0.77227046  1
  Te  Te0  1  0.10458060  0.60936461  0.04314792  1
  Te  Te1  1  0.39063539  0.89541940  0.95685208  1
  Te  Te2  1  0.89541940  0.39063539  0.95685208  1
  Te  Te3  1  0.60936461  0.10458060  0.04314792  1
  Te  Te4  1  0.09724936  0.09724936  0.34519712  1
  Te  Te5  1  0.90275064  0.90275064  0.65480288  1
  Te  Te6  1  0.61272667  0.61272667  0.54823220  1
  Te  Te7  1  0.38727333  0.38727333  0.45176780  1
loop_
_geom_bond_atom_site_label_1
_geom_bond_atom_site_label_2
_geom_bond_distance
_geom_bond_site_symmetry_2
Ba0 Te7 3.457021 1_565
Ba0 Te7 3.457021 1_655
Ba0 Te4 3.564550 1_665
Ba0 Te0 3.632721 1_655
Ba0 Te3 3.632721 1_565
Ba0 Te2 3.671918 1_564
Ba0 Te1 3.671918 1_654
Ba0 Te6 3.674556 1_555
Ba0 Te5 3.760870 1_555
Ba1 Te6 3.457021 1_545
Ba1 Te6 3.457021 1_455
Ba1 Te5 3.564550 1_445
Ba1 Te1 3.632721 1_545
Ba1 Te2 3.632721 1_455
Ba1 Te0 3.671918 1_546
Ba1 Te3 3.671918 1_456
Ba1 Te7 3.674556 1_555
Ba1 Te4 3.760870 1_555
Te0 Te3 3.112145 1_465
Te0 Te3 3.172274 1_555
Te0 U1 3.233416 1_554
Te0 U0 3.237292 1_455
Te1 Te2 3.112145 1_465
Te1 Te2 3.172274 1_555
Te1 U0 3.233416 1_556
Te1 U1 3.237292 1_565
Te2 U0 3.233416 1_556
Te2 U1 3.237292 1_655
Te3 U1 3.233416 1_554
Te3 U0 3.237292 1_545
Te4 Te5 2.782237 1_445
Te4 U0 3.290874 1_455
Te4 U0 3.290874 1_545
Te5 U1 3.290874 1_565
Te5 U1 3.290874 1_655
Te6 U0 3.181894 1_555
Te6 U1 3.187826 1_555
Te7 U1 3.181894 1_555
Te7 U0 3.187826 1_555
