# generated using pymatgen
data_Ba3(InP2)2
_symmetry_space_group_name_H-M   'P 1'
_cell_length_a   8.93565707
_cell_length_b   8.93565707
_cell_length_c   7.14371634
_cell_angle_alpha   89.74601271
_cell_angle_beta   89.74601271
_cell_angle_gamma   75.55284417
_symmetry_Int_Tables_number   1
_chemical_formula_structural   Ba3(InP2)2
_chemical_formula_sum   'Ba6 In4 P8'
_cell_volume   552.35125084
_cell_formula_units_Z   2
loop_
 _symmetry_equiv_pos_site_id
 _symmetry_equiv_pos_as_xyz
  1  'x, y, z'
loop_
 _atom_site_type_symbol
 _atom_site_label
 _atom_site_symmetry_multiplicity
 _atom_site_fract_x
 _atom_site_fract_y
 _atom_site_fract_z
 _atom_site_occupancy
  Ba  Ba0  1  0.40091452  0.59908548  0.75000000  1
  Ba  Ba1  1  0.59908548  0.40091452  0.25000000  1
  Ba  Ba2  1  0.00620411  0.74770559  0.04531033  1
  Ba  Ba3  1  0.25229441  0.99379589  0.45468967  1
  Ba  Ba4  1  0.99379589  0.25229441  0.95468967  1
  Ba  Ba5  1  0.74770559  0.00620411  0.54531033  1
  In  In0  1  0.41873443  0.17414866  0.91529961  1
  In  In1  1  0.82585134  0.58126657  0.58470039  1
  In  In2  1  0.58126557  0.82585134  0.08470039  1
  In  In3  1  0.17414866  0.41873443  0.41529961  1
  P  P0  1  0.74274816  0.57418924  0.93038923  1
  P  P1  1  0.42581076  0.25725184  0.56961077  1
  P  P2  1  0.25725184  0.42581076  0.06961077  1
  P  P3  1  0.57418924  0.74274816  0.43038923  1
  P  P4  1  0.05786980  0.70719397  0.52632953  1
  P  P5  1  0.29280603  0.94213020  0.97367047  1
  P  P6  1  0.70719397  0.05786980  0.02632953  1
  P  P7  1  0.94213020  0.29280603  0.47367047  1
loop_
_geom_bond_atom_site_label_1
_geom_bond_atom_site_label_2
_geom_bond_distance
_geom_bond_site_symmetry_2
Ba0 P3 3.192605 1_555
Ba0 P2 3.192605 1_556
Ba0 P0 3.276190 1_555
Ba0 P1 3.276190 1_555
Ba0 P5 3.381527 1_555
Ba0 P4 3.381527 1_555
Ba1 P0 3.192605 1_554
Ba1 P1 3.192605 1_555
Ba1 P3 3.276190 1_555
Ba1 P2 3.276190 1_555
Ba1 P7 3.381527 1_555
Ba1 P6 3.381527 1_555
Ba2 P2 3.180440 1_555
Ba2 P0 3.235695 1_454
Ba2 P6 3.338179 1_465
Ba2 P5 3.469770 1_554
Ba2 P4 3.474441 1_555
Ba2 P4 3.742020 1_554
Ba3 P3 3.180440 1_555
Ba3 P1 3.235695 1_565
Ba3 P7 3.338179 1_465
Ba3 P4 3.469770 1_555
Ba3 P5 3.474441 1_554
Ba3 P5 3.742020 1_555
Ba4 P0 3.180440 1_555
Ba4 P2 3.235695 1_656
Ba4 P5 3.338179 1_645
Ba4 P6 3.469770 1_556
Ba4 P7 3.474441 1_555
Ba4 P7 3.742020 1_556
Ba5 P1 3.180440 1_555
Ba5 P3 3.235695 1_545
Ba5 P4 3.338179 1_645
Ba5 P7 3.469770 1_555
Ba5 P6 3.474441 1_556
Ba5 P6 3.742020 1_555
In0 P1 2.580631 1_555
In0 P2 2.596733 1_556
In0 P5 2.625000 1_545
In0 P6 2.650862 1_556
In1 P0 2.580632 1_555
In1 P3 2.596730 1_555
In1 P4 2.624994 1_655
In1 P7 2.650870 1_555
In2 P3 2.580631 1_555
In2 P0 2.596733 1_554
In2 P6 2.625000 1_565
In2 P5 2.650862 1_554
In3 P2 2.580631 1_555
In3 P1 2.596733 1_555
In3 P7 2.625000 1_455
In3 P4 2.650862 1_555
