# generated using pymatgen
data_Sb2(I3N)3
_symmetry_space_group_name_H-M   'P 1'
_cell_length_a   8.11189800
_cell_length_b   14.00482500
_cell_length_c   23.57456113
_cell_angle_alpha   54.53243605
_cell_angle_beta   90.00000000
_cell_angle_gamma   90.00000000
_symmetry_Int_Tables_number   1
_chemical_formula_structural   Sb2(I3N)3
_chemical_formula_sum   'Sb8 I36 N12'
_cell_volume   2181.24818636
_cell_formula_units_Z   4
loop_
 _symmetry_equiv_pos_site_id
 _symmetry_equiv_pos_as_xyz
  1  'x, y, z'
loop_
 _atom_site_type_symbol
 _atom_site_label
 _atom_site_symmetry_multiplicity
 _atom_site_fract_x
 _atom_site_fract_y
 _atom_site_fract_z
 _atom_site_occupancy
  Sb  Sb0  1  0.99419500  0.51303600  0.65562300  1
  Sb  Sb1  1  0.50580500  0.51303600  0.15562300  1
  Sb  Sb2  1  0.00580500  0.48696400  0.34437700  1
  Sb  Sb3  1  0.49419500  0.48696400  0.84437700  1
  Sb  Sb4  1  0.98086600  0.99110800  0.84511700  1
  Sb  Sb5  1  0.51913400  0.99110800  0.34511700  1
  Sb  Sb6  1  0.01913400  0.00889200  0.15488300  1
  Sb  Sb7  1  0.48086600  0.00889200  0.65488300  1
  I  I0  1  0.79316800  0.46557400  0.57560800  1
  I  I1  1  0.70683200  0.46557400  0.07560800  1
  I  I2  1  0.20683200  0.53442600  0.42439200  1
  I  I3  1  0.29316800  0.53442600  0.92439200  1
  I  I4  1  0.29171100  0.54119900  0.58474400  1
  I  I5  1  0.20828900  0.54119900  0.08474400  1
  I  I6  1  0.70828900  0.45880100  0.41525600  1
  I  I7  1  0.79171100  0.45880100  0.91525600  1
  I  I8  1  0.17227800  0.55405900  0.75433800  1
  I  I9  1  0.32772200  0.55405900  0.25433800  1
  I  I10  1  0.82772200  0.44594100  0.24566200  1
  I  I11  1  0.67227800  0.44594100  0.74566200  1
  I  I12  1  0.10077700  0.25156000  0.75039200  1
  I  I13  1  0.39922300  0.25156000  0.25039200  1
  I  I14  1  0.89922300  0.74844000  0.24960800  1
  I  I15  1  0.60077700  0.74844000  0.74960800  1
  I  I16  1  0.91001800  0.75255500  0.57790000  1
  I  I17  1  0.58998200  0.75255500  0.07790000  1
  I  I18  1  0.08998200  0.24744500  0.42210000  1
  I  I19  1  0.41001800  0.24744500  0.92210000  1
  I  I20  1  0.81487700  0.04470800  0.71358400  1
  I  I21  1  0.68512300  0.04470800  0.21358400  1
  I  I22  1  0.18512300  0.95529200  0.28641600  1
  I  I23  1  0.31487700  0.95529200  0.78641600  1
  I  I24  1  0.69305200  0.04242600  0.88903200  1
  I  I25  1  0.80694800  0.04242600  0.38903200  1
  I  I26  1  0.30694800  0.95757400  0.11096800  1
  I  I27  1  0.19305200  0.95757400  0.61096800  1
  I  I28  1  0.19734100  0.96517500  0.94805100  1
  I  I29  1  0.30265900  0.96517500  0.44805100  1
  I  I30  1  0.80265900  0.03482500  0.05194900  1
  I  I31  1  0.69734100  0.03482500  0.55194900  1
  I  I32  1  0.91583100  0.74835700  0.92150600  1
  I  I33  1  0.58416900  0.74835700  0.42150600  1
  I  I34  1  0.08416900  0.25164300  0.07849400  1
  I  I35  1  0.41583100  0.25164300  0.57849400  1
  N  N0  1  0.02447800  0.75853400  0.77508900  1
  N  N1  1  0.47552200  0.75853400  0.27508900  1
  N  N2  1  0.97552200  0.24146600  0.22491100  1
  N  N3  1  0.52447800  0.24146600  0.72491100  1
  N  N4  1  0.96925700  0.25843000  0.88975700  1
  N  N5  1  0.53074300  0.25843000  0.38975700  1
  N  N6  1  0.03074300  0.74157000  0.11024300  1
  N  N7  1  0.46925700  0.74157000  0.61024300  1
  N  N8  1  0.01964500  0.75228500  0.43556100  1
  N  N9  1  0.48035500  0.75228500  0.93556100  1
  N  N10  1  0.98035500  0.24771500  0.56443900  1
  N  N11  1  0.51964500  0.24771500  0.06443900  1
loop_
_geom_bond_atom_site_label_1
_geom_bond_atom_site_label_2
_geom_bond_distance
_geom_bond_site_symmetry_2
I0 Sb0 2.848559 1_555
I1 Sb1 2.848559 1_555
I2 Sb2 2.848559 1_555
I3 Sb3 2.848559 1_555
I4 Sb0 2.829733 1_455
I5 Sb1 2.829733 1_555
I6 Sb2 2.829733 1_655
I7 Sb3 2.829733 1_555
I8 Sb0 3.063360 1_455
I8 Sb3 3.145325 1_555
I9 Sb1 3.063360 1_555
I9 Sb2 3.145325 1_555
I10 Sb2 3.063360 1_655
I10 Sb1 3.145325 1_555
I11 Sb3 3.063360 1_555
I11 Sb0 3.145325 1_555
I12 Sb0 3.107148 1_455
I12 Sb4 3.128120 1_445
I13 Sb1 3.107148 1_555
I13 Sb5 3.128120 1_545
I14 Sb2 3.107148 1_655
I14 Sb6 3.128120 1_665
I15 Sb3 3.107148 1_555
I15 Sb7 3.128120 1_565
I16 Sb0 2.818341 1_555
I17 Sb1 2.818341 1_555
I18 Sb2 2.818341 1_555
I19 Sb3 2.818341 1_555
I20 Sb4 3.048025 1_545
I20 Sb7 3.211443 1_555
I21 Sb5 3.048025 1_545
I21 Sb6 3.211443 1_655
I22 Sb6 3.048025 1_565
I22 Sb5 3.211443 1_555
I23 Sb7 3.048025 1_565
I23 Sb4 3.211443 1_455
I24 Sb4 2.811173 1_545
I25 Sb5 2.811173 1_545
I26 Sb6 2.811173 1_565
I27 Sb7 2.811173 1_565
I28 Sb4 2.842757 1_455
I29 Sb5 2.842757 1_555
I30 Sb6 2.842757 1_655
I31 Sb7 2.842757 1_555
I32 Sb4 2.823895 1_555
I33 Sb5 2.823895 1_555
I34 Sb6 2.823895 1_555
I35 Sb7 2.823895 1_555
