# generated using pymatgen
data_LiBe2Rh
_symmetry_space_group_name_H-M   'P 1'
_cell_length_a   17.85057302
_cell_length_b   10.12589279
_cell_length_c   10.12589182
_cell_angle_alpha   30.00974894
_cell_angle_beta   28.18439783
_cell_angle_gamma   28.18440150
_symmetry_Int_Tables_number   1
_chemical_formula_structural   LiBe2Rh
_chemical_formula_sum   'Li8 Be16 Rh8'
_cell_volume   374.37898716
_cell_formula_units_Z   8
loop_
 _symmetry_equiv_pos_site_id
 _symmetry_equiv_pos_as_xyz
  1  'x, y, z'
loop_
 _atom_site_type_symbol
 _atom_site_label
 _atom_site_symmetry_multiplicity
 _atom_site_fract_x
 _atom_site_fract_y
 _atom_site_fract_z
 _atom_site_occupancy
  Li  Li0_0  1  0.00000000  0.00000000  0.00000000  1
  Li  Li0_1  1  0.00000000  0.00000000  0.50000000  1
  Li  Li0_2  1  0.00000000  0.50000000  0.00000000  1
  Li  Li0_3  1  1.00000000  0.50000000  0.50000000  1
  Li  Li0_4  1  0.50000000  0.00000000  0.00000000  1
  Li  Li0_5  1  0.50000000  0.00000000  0.50000000  1
  Li  Li0_6  1  0.50000000  0.50000000  0.00000000  1
  Li  Li0_7  1  0.50000000  0.50000000  0.50000000  1
  Be  Be0_0  1  0.12676950  0.00000000  0.00000000  1
  Be  Be0_1  1  0.12676950  0.00000000  0.50000000  1
  Be  Be0_2  1  0.12676950  0.50000000  0.00000000  1
  Be  Be0_3  1  0.12676950  0.50000000  0.50000000  1
  Be  Be0_4  1  0.62676950  0.00000000  0.00000000  1
  Be  Be0_5  1  0.62676950  0.00000000  0.50000000  1
  Be  Be0_6  1  0.62676950  0.50000000  0.00000000  1
  Be  Be0_7  1  0.62676950  0.50000000  0.50000000  1
  Be  Be1_0  1  0.37323050  0.00000000  0.00000000  1
  Be  Be1_1  1  0.37323050  1.00000000  0.50000000  1
  Be  Be1_2  1  0.37323050  0.50000000  0.00000000  1
  Be  Be1_3  1  0.37323050  0.50000000  0.50000000  1
  Be  Be1_4  1  0.87323050  0.00000000  0.00000000  1
  Be  Be1_5  1  0.87323050  0.00000000  0.50000000  1
  Be  Be1_6  1  0.87323050  0.50000000  0.00000000  1
  Be  Be1_7  1  0.87323050  0.50000000  0.50000000  1
  Rh  Rh0_0  1  0.25000000  0.00000000  0.00000000  1
  Rh  Rh0_1  1  0.25000000  1.00000000  0.50000000  1
  Rh  Rh0_2  1  0.25000000  0.50000000  0.00000000  1
  Rh  Rh0_3  1  0.25000000  0.50000000  0.50000000  1
  Rh  Rh0_4  1  0.75000000  1.00000000  0.00000000  1
  Rh  Rh0_5  1  0.75000000  0.00000000  0.50000000  1
  Rh  Rh0_6  1  0.75000000  0.50000000  0.00000000  1
  Rh  Rh0_7  1  0.75000000  0.50000000  0.50000000  1
loop_
_geom_bond_atom_site_label_1
_geom_bond_atom_site_label_2
_geom_bond_distance
_geom_bond_site_symmetry_2
Li0_0 Rh0_1 2.391284 1_544
Li0_0 Rh0_5 2.391284 1_455
Li0_0 Rh0_2 2.391284 1_545
Li0_0 Rh0_6 2.391284 1_455
Li0_0 Li0_3 2.621606 1_445
Li0_0 Li0_3 2.621606 1_454
Li0_1 Rh0_4 2.391284 1_446
Li0_1 Rh0_0 2.391284 1_555
Li0_1 Rh0_3 2.391284 1_545
Li0_1 Rh0_7 2.391284 1_455
Li0_1 Li0_2 2.621606 1_546
Li0_1 Li0_2 2.621606 1_555
Li0_2 Rh0_3 2.391284 1_554
Li0_2 Rh0_7 2.391284 1_455
Li0_2 Rh0_4 2.391284 1_455
Li0_2 Rh0_0 2.391284 1_555
Li0_3 Rh0_6 2.391284 1_556
Li0_3 Rh0_2 2.391284 1_655
Li0_3 Rh0_5 2.391284 1_565
Li0_3 Rh0_1 2.391284 1_645
Li0_4 Rh0_1 2.391284 1_545
Li0_4 Rh0_5 2.391284 1_554
Li0_4 Rh0_2 2.391284 1_555
Li0_4 Rh0_6 2.391284 1_545
Li0_4 Li0_7 2.621606 1_545
Li0_4 Li0_7 2.621606 1_554
Li0_5 Rh0_0 2.391284 1_556
Li0_5 Rh0_4 2.391284 1_545
Li0_5 Rh0_7 2.391284 1_545
Li0_5 Rh0_3 2.391284 1_555
Li0_5 Li0_6 2.621606 1_555
Li0_5 Li0_6 2.621606 1_546
Li0_6 Rh0_7 2.391284 1_554
Li0_6 Rh0_3 2.391284 1_555
Li0_6 Rh0_4 2.391284 1_545
Li0_6 Rh0_0 2.391284 1_565
Li0_7 Rh0_2 2.391284 1_556
Li0_7 Rh0_6 2.391284 1_555
Li0_7 Rh0_1 2.391284 1_555
Li0_7 Rh0_5 2.391284 1_555
Be0_0 Rh0_0 2.199735 1_555
Be0_0 Li0_0 2.262908 1_555
Be0_0 Be1_1 2.392118 1_544
Be0_0 Be1_5 2.392118 1_455
Be0_0 Be1_6 2.392119 1_455
Be0_0 Be1_2 2.392119 1_545
Be0_1 Rh0_1 2.199735 1_545
Be0_1 Li0_1 2.262908 1_555
Be0_1 Be1_0 2.392118 1_555
Be0_1 Be1_4 2.392118 1_456
Be0_1 Be1_7 2.392119 1_455
Be0_1 Be1_3 2.392119 1_545
Be0_2 Rh0_2 2.199735 1_555
Be0_2 Li0_2 2.262908 1_555
Be0_2 Be1_3 2.392118 1_554
Be0_2 Be1_7 2.392118 1_455
Be0_2 Be1_4 2.392119 1_465
Be0_2 Be1_0 2.392119 1_555
Be0_3 Rh0_3 2.199735 1_555
Be0_3 Li0_3 2.262908 1_455
Be0_3 Be1_2 2.392118 1_555
Be0_3 Be1_6 2.392118 1_456
Be0_3 Be1_5 2.392119 1_465
Be0_3 Be1_1 2.392119 1_545
Be0_4 Rh0_4 2.199735 1_545
Be0_4 Li0_4 2.262908 1_555
Be0_4 Be1_5 2.392118 1_554
Be0_4 Be1_1 2.392118 1_545
Be0_4 Be1_2 2.392119 1_555
Be0_4 Be1_6 2.392119 1_545
Be0_5 Rh0_5 2.199735 1_555
Be0_5 Li0_5 2.262908 1_555
Be0_5 Be1_4 2.392118 1_555
Be0_5 Be1_0 2.392118 1_556
Be0_5 Be1_3 2.392119 1_555
Be0_5 Be1_7 2.392119 1_545
Be0_6 Rh0_6 2.199735 1_555
Be0_6 Li0_6 2.262908 1_555
Be0_6 Be1_7 2.392118 1_554
Be0_6 Be1_3 2.392118 1_555
Be0_6 Be1_0 2.392119 1_565
Be0_6 Be1_4 2.392119 1_555
Be0_7 Rh0_7 2.199735 1_555
Be0_7 Li0_7 2.262908 1_555
Be0_7 Be1_6 2.392118 1_555
Be0_7 Be1_2 2.392118 1_556
Be0_7 Be1_1 2.392119 1_555
Be0_7 Be1_5 2.392119 1_555
Be1_0 Rh0_0 2.199735 1_555
Be1_0 Li0_4 2.262908 1_555
Be1_1 Rh0_1 2.199735 1_555
Be1_1 Li0_5 2.262908 1_565
Be1_2 Rh0_2 2.199735 1_555
Be1_2 Li0_6 2.262908 1_555
Be1_3 Rh0_3 2.199735 1_555
Be1_3 Li0_7 2.262908 1_555
Be1_4 Rh0_4 2.199735 1_545
Be1_4 Li0_0 2.262908 1_655
Be1_5 Rh0_5 2.199735 1_555
Be1_5 Li0_1 2.262908 1_655
Be1_6 Rh0_6 2.199735 1_555
Be1_6 Li0_2 2.262908 1_655
Be1_7 Rh0_7 2.199735 1_555
Be1_7 Li0_3 2.262908 1_555
Rh0_0 Rh0_3 2.621606 1_554
Rh0_0 Rh0_3 2.621606 1_545
Rh0_1 Rh0_2 2.621606 1_565
Rh0_1 Rh0_2 2.621606 1_556
Rh0_4 Rh0_7 2.621606 1_555
Rh0_4 Rh0_7 2.621606 1_564
Rh0_5 Rh0_6 2.621606 1_546
Rh0_5 Rh0_6 2.621606 1_555
