# generated using pymatgen
data_Ca3Ge4
_symmetry_space_group_name_H-M   'P 1'
_cell_length_a   8.78910954
_cell_length_b   8.78910954
_cell_length_c   15.28419700
_cell_angle_alpha   90.00000000
_cell_angle_beta   90.00000000
_cell_angle_gamma   119.99999650
_symmetry_Int_Tables_number   1
_chemical_formula_structural   Ca3Ge4
_chemical_formula_sum   'Ca18 Ge24'
_cell_volume   1022.49931947
_cell_formula_units_Z   6
loop_
 _symmetry_equiv_pos_site_id
 _symmetry_equiv_pos_as_xyz
  1  'x, y, z'
loop_
 _atom_site_type_symbol
 _atom_site_label
 _atom_site_symmetry_multiplicity
 _atom_site_fract_x
 _atom_site_fract_y
 _atom_site_fract_z
 _atom_site_occupancy
  Ca  Ca0  1  0.09087100  0.66517400  0.60001100  1
  Ca  Ca1  1  0.33482600  0.42569700  0.60001100  1
  Ca  Ca2  1  0.57430300  0.90912900  0.60001100  1
  Ca  Ca3  1  0.90912900  0.33482600  0.10001100  1
  Ca  Ca4  1  0.66517400  0.57430300  0.10001100  1
  Ca  Ca5  1  0.42569700  0.09087100  0.10001100  1
  Ca  Ca6  1  0.90912900  0.33482600  0.39998900  1
  Ca  Ca7  1  0.66517400  0.57430300  0.39998900  1
  Ca  Ca8  1  0.42569700  0.09087100  0.39998900  1
  Ca  Ca9  1  0.09087100  0.66517400  0.89998900  1
  Ca  Ca10  1  0.33482600  0.42569700  0.89998900  1
  Ca  Ca11  1  0.57430300  0.90912900  0.89998900  1
  Ca  Ca12  1  0.66666700  0.33333300  0.75000000  1
  Ca  Ca13  1  0.33333300  0.66666700  0.25000000  1
  Ca  Ca14  1  0.00000000  0.00000000  0.50000000  1
  Ca  Ca15  1  0.00000000  0.00000000  0.00000000  1
  Ca  Ca16  1  0.00000000  0.00000000  0.75000000  1
  Ca  Ca17  1  0.00000000  0.00000000  0.25000000  1
  Ge  Ge0  1  0.74429000  0.65546000  0.60373300  1
  Ge  Ge1  1  0.34454000  0.08883000  0.60373300  1
  Ge  Ge2  1  0.91117000  0.25571000  0.60373300  1
  Ge  Ge3  1  0.25571000  0.34454000  0.10373300  1
  Ge  Ge4  1  0.65546000  0.91117000  0.10373300  1
  Ge  Ge5  1  0.08883000  0.74429000  0.10373300  1
  Ge  Ge6  1  0.25571000  0.34454000  0.39626700  1
  Ge  Ge7  1  0.65546000  0.91117000  0.39626700  1
  Ge  Ge8  1  0.08883000  0.74429000  0.39626700  1
  Ge  Ge9  1  0.74429000  0.65546000  0.89626700  1
  Ge  Ge10  1  0.34454000  0.08883000  0.89626700  1
  Ge  Ge11  1  0.91117000  0.25571000  0.89626700  1
  Ge  Ge12  1  0.31222800  0.94373300  0.75000000  1
  Ge  Ge13  1  0.05626700  0.36849500  0.75000000  1
  Ge  Ge14  1  0.63150500  0.68777200  0.75000000  1
  Ge  Ge15  1  0.68777200  0.05626700  0.25000000  1
  Ge  Ge16  1  0.94373300  0.63150500  0.25000000  1
  Ge  Ge17  1  0.36849500  0.31222800  0.25000000  1
  Ge  Ge18  1  0.66666700  0.33333300  0.55100500  1
  Ge  Ge19  1  0.33333300  0.66666700  0.05100500  1
  Ge  Ge20  1  0.33333300  0.66666700  0.44899500  1
  Ge  Ge21  1  0.66666700  0.33333300  0.94899500  1
  Ge  Ge22  1  0.33333300  0.66666700  0.75000000  1
  Ge  Ge23  1  0.66666700  0.33333300  0.25000000  1
loop_
_geom_bond_atom_site_label_1
_geom_bond_atom_site_label_2
_geom_bond_distance
_geom_bond_site_symmetry_2
Ca0 Ge0 3.004898 1_455
Ca0 Ge2 3.124946 1_455
Ca0 Ge22 3.125517 1_555
Ca0 Ge20 3.137048 1_555
Ca0 Ge8 3.192759 1_555
Ca0 Ge12 3.204896 1_555
Ca0 Ge1 3.246096 1_565
Ca0 Ge13 3.369586 1_555
Ca0 Ge18 3.477666 1_455
Ca1 Ge1 3.004898 1_555
Ca1 Ge0 3.124946 1_555
Ca1 Ge22 3.125523 1_555
Ca1 Ge20 3.137054 1_555
Ca1 Ge6 3.192759 1_555
Ca1 Ge13 3.204896 1_555
Ca1 Ge2 3.246096 1_455
Ca1 Ge14 3.369586 1_555
Ca1 Ge18 3.477671 1_555
Ca2 Ge2 3.004898 1_565
Ca2 Ge1 3.124946 1_565
Ca2 Ge22 3.125520 1_555
Ca2 Ge20 3.137051 1_555
Ca2 Ge7 3.192759 1_555
Ca2 Ge14 3.204896 1_555
Ca2 Ge0 3.246096 1_555
Ca2 Ge12 3.369586 1_555
Ca2 Ge18 3.477663 1_565
Ca3 Ge3 3.004898 1_655
Ca3 Ge5 3.124946 1_655
Ca3 Ge23 3.125517 1_555
Ca3 Ge21 3.137048 1_554
Ca3 Ge11 3.192759 1_554
Ca3 Ge15 3.204896 1_555
Ca3 Ge4 3.246096 1_545
Ca3 Ge16 3.369586 1_555
Ca3 Ge19 3.477666 1_655
Ca4 Ge4 3.004898 1_555
Ca4 Ge3 3.124946 1_555
Ca4 Ge23 3.125523 1_555
Ca4 Ge21 3.137054 1_554
Ca4 Ge9 3.192759 1_554
Ca4 Ge16 3.204896 1_555
Ca4 Ge5 3.246096 1_655
Ca4 Ge17 3.369586 1_555
Ca4 Ge19 3.477671 1_555
Ca5 Ge5 3.004898 1_545
Ca5 Ge4 3.124946 1_545
Ca5 Ge23 3.125520 1_555
Ca5 Ge21 3.137051 1_554
Ca5 Ge10 3.192759 1_554
Ca5 Ge17 3.204896 1_555
Ca5 Ge3 3.246096 1_555
Ca5 Ge15 3.369586 1_555
Ca5 Ge19 3.477663 1_545
Ca6 Ge6 3.004898 1_655
Ca6 Ge8 3.124946 1_655
Ca6 Ge23 3.125517 1_555
Ca6 Ge18 3.137048 1_555
Ca6 Ge2 3.192759 1_555
Ca6 Ge15 3.204896 1_555
Ca6 Ge7 3.246096 1_545
Ca6 Ge16 3.369586 1_555
Ca6 Ge20 3.477666 1_655
Ca7 Ge7 3.004898 1_555
Ca7 Ge6 3.124946 1_555
Ca7 Ge23 3.125523 1_555
Ca7 Ge18 3.137054 1_555
Ca7 Ge0 3.192759 1_555
Ca7 Ge16 3.204896 1_555
Ca7 Ge8 3.246096 1_655
Ca7 Ge17 3.369586 1_555
Ca7 Ge20 3.477671 1_555
Ca8 Ge8 3.004898 1_545
Ca8 Ge7 3.124946 1_545
Ca8 Ge23 3.125520 1_555
Ca8 Ge18 3.137051 1_555
Ca8 Ge1 3.192759 1_555
Ca8 Ge17 3.204896 1_555
Ca8 Ge6 3.246096 1_555
Ca8 Ge15 3.369586 1_555
Ca8 Ge20 3.477663 1_545
Ca9 Ge9 3.004898 1_455
Ca9 Ge11 3.124946 1_455
Ca9 Ge22 3.125517 1_555
Ca9 Ge19 3.137048 1_556
Ca9 Ge5 3.192759 1_556
Ca9 Ge12 3.204896 1_555
Ca9 Ge10 3.246096 1_565
Ca9 Ge13 3.369586 1_555
Ca9 Ge21 3.477666 1_455
Ca10 Ge10 3.004898 1_555
Ca10 Ge9 3.124946 1_555
Ca10 Ge22 3.125523 1_555
Ca10 Ge19 3.137054 1_556
Ca10 Ge3 3.192759 1_556
Ca10 Ge13 3.204896 1_555
Ca10 Ge11 3.246096 1_455
Ca10 Ge14 3.369586 1_555
Ca10 Ge21 3.477671 1_555
Ca11 Ge11 3.004898 1_565
Ca11 Ge10 3.124946 1_565
Ca11 Ge22 3.125520 1_555
Ca11 Ge19 3.137051 1_556
Ca11 Ge4 3.192759 1_556
Ca11 Ge14 3.204896 1_555
Ca11 Ge9 3.246096 1_555
Ca11 Ge12 3.369586 1_555
Ca11 Ge21 3.477663 1_565
Ca12 Ge21 3.041479 1_555
Ca12 Ge18 3.041479 1_555
Ca12 Ge13 3.280651 1_655
Ca12 Ge12 3.280655 1_545
Ca12 Ge14 3.280660 1_555
Ca12 Ge11 3.398144 1_555
Ca12 Ge2 3.398144 1_555
Ca12 Ge1 3.398149 1_555
Ca12 Ge10 3.398149 1_555
Ca12 Ge0 3.398151 1_555
Ca12 Ge9 3.398151 1_555
Ca13 Ge20 3.041479 1_555
Ca13 Ge19 3.041479 1_555
Ca13 Ge16 3.280651 1_455
Ca13 Ge15 3.280655 1_565
Ca13 Ge17 3.280660 1_555
Ca13 Ge8 3.398144 1_555
Ca13 Ge5 3.398144 1_555
Ca13 Ge4 3.398149 1_555
Ca13 Ge7 3.398149 1_555
Ca13 Ge6 3.398151 1_555
Ca13 Ge3 3.398151 1_555
Ca14 Ge2 3.151040 1_455
Ca14 Ge8 3.151040 1_545
Ca14 Ge1 3.151040 1_555
Ca14 Ge7 3.151040 1_445
Ca14 Ge0 3.151040 1_445
Ca14 Ge6 3.151040 1_555
Ca15 Ge11 3.151040 1_454
Ca15 Ge5 3.151040 1_545
Ca15 Ge4 3.151040 1_445
Ca15 Ge10 3.151040 1_554
Ca15 Ge3 3.151040 1_555
Ca15 Ge9 3.151040 1_444
Ca16 Ge12 3.021977 1_545
Ca16 Ge13 3.021977 1_555
Ca16 Ge14 3.021977 1_445
Ca16 Ge11 3.523224 1_455
Ca16 Ge2 3.523224 1_455
Ca16 Ge10 3.523224 1_555
Ca16 Ge1 3.523224 1_555
Ca16 Ge9 3.523224 1_445
Ca16 Ge0 3.523224 1_445
Ca17 Ge15 3.021977 1_455
Ca17 Ge16 3.021977 1_445
Ca17 Ge17 3.021977 1_555
Ca17 Ge5 3.523224 1_545
Ca17 Ge8 3.523224 1_545
Ca17 Ge4 3.523224 1_445
Ca17 Ge7 3.523224 1_445
Ca17 Ge3 3.523224 1_555
Ca17 Ge6 3.523224 1_555
Ge0 Ge14 2.518451 1_555
Ge0 Ge18 2.683118 1_555
Ge1 Ge12 2.518451 1_545
Ge1 Ge18 2.683116 1_555
Ge10 Ge12 2.518451 1_545
Ge10 Ge21 2.683116 1_555
Ge11 Ge13 2.518451 1_655
Ge11 Ge21 2.683110 1_555
Ge12 Ge22 2.533010 1_555
Ge13 Ge2 2.518451 1_455
Ge13 Ge22 2.533015 1_555
Ge14 Ge9 2.518451 1_555
Ge14 Ge22 2.533018 1_555
Ge15 Ge7 2.518451 1_545
Ge15 Ge4 2.518451 1_545
Ge15 Ge23 2.533010 1_555
Ge16 Ge5 2.518451 1_655
Ge16 Ge8 2.518451 1_655
Ge16 Ge23 2.533015 1_555
Ge17 Ge6 2.518451 1_555
Ge17 Ge3 2.518451 1_555
Ge17 Ge23 2.533018 1_555
Ge18 Ge2 2.683110 1_555
Ge19 Ge5 2.683110 1_555
Ge19 Ge4 2.683116 1_555
Ge19 Ge3 2.683118 1_555
Ge20 Ge8 2.683110 1_555
Ge20 Ge7 2.683116 1_555
Ge20 Ge6 2.683118 1_555
Ge21 Ge9 2.683118 1_555
