# generated using pymatgen
data_MoO3
_symmetry_space_group_name_H-M   'P 1'
_cell_length_a   3.53326813
_cell_length_b   3.53326813
_cell_length_c   10.78896200
_cell_angle_alpha   90.00000000
_cell_angle_beta   90.00000000
_cell_angle_gamma   120.00000249
_symmetry_Int_Tables_number   1
_chemical_formula_structural   MoO3
_chemical_formula_sum   'Mo2 O6'
_cell_volume   116.64428819
_cell_formula_units_Z   2
loop_
 _symmetry_equiv_pos_site_id
 _symmetry_equiv_pos_as_xyz
  1  'x, y, z'
loop_
 _atom_site_type_symbol
 _atom_site_label
 _atom_site_symmetry_multiplicity
 _atom_site_fract_x
 _atom_site_fract_y
 _atom_site_fract_z
 _atom_site_occupancy
  Mo  Mo0  1  0.66666700  0.33333300  0.75000000  1
  Mo  Mo1  1  0.33333300  0.66666700  0.25000000  1
  O  O0  1  0.33333300  0.66666700  0.41522300  1
  O  O1  1  0.66666700  0.33333300  0.91522300  1
  O  O2  1  0.66666700  0.33333300  0.58477700  1
  O  O3  1  0.33333300  0.66666700  0.08477700  1
  O  O4  1  0.00000000  0.00000000  0.25000000  1
  O  O5  1  0.00000000  0.00000000  0.75000000  1
loop_
_geom_bond_atom_site_label_1
_geom_bond_atom_site_label_2
_geom_bond_distance
_geom_bond_site_symmetry_2
Mo0 O1 1.782585 1_555
Mo0 O2 1.782585 1_555
Mo0 O5 2.039931 1_655
Mo0 O5 2.039934 1_665
Mo0 O5 2.039934 1_555
Mo1 O0 1.782585 1_555
Mo1 O3 1.782585 1_555
Mo1 O4 2.039931 1_565
Mo1 O4 2.039934 1_555
Mo1 O4 2.039934 1_665
