# generated using pymatgen
data_Sr(In4Ir)2
_symmetry_space_group_name_H-M   'P 1'
_cell_length_a   4.49545900
_cell_length_b   14.15501900
_cell_length_c   16.23174800
_cell_angle_alpha   90.00000000
_cell_angle_beta   90.00000000
_cell_angle_gamma   90.00000000
_symmetry_Int_Tables_number   1
_chemical_formula_structural   Sr(In4Ir)2
_chemical_formula_sum   'Sr4 In32 Ir8'
_cell_volume   1032.87981270
_cell_formula_units_Z   4
loop_
 _symmetry_equiv_pos_site_id
 _symmetry_equiv_pos_as_xyz
  1  'x, y, z'
loop_
 _atom_site_type_symbol
 _atom_site_label
 _atom_site_symmetry_multiplicity
 _atom_site_fract_x
 _atom_site_fract_y
 _atom_site_fract_z
 _atom_site_occupancy
  Sr  Sr0  1  0.00000000  0.84194600  0.18085400  1
  Sr  Sr1  1  0.00000000  0.15805400  0.81914600  1
  Sr  Sr2  1  0.00000000  0.34194600  0.31914600  1
  Sr  Sr3  1  0.00000000  0.65805400  0.68085400  1
  In  In0  1  0.50000000  0.51980200  0.36627400  1
  In  In1  1  0.50000000  0.48019800  0.63372600  1
  In  In2  1  0.50000000  0.01980200  0.13372600  1
  In  In3  1  0.50000000  0.98019800  0.86627400  1
  In  In4  1  0.50000000  0.66648900  0.12213600  1
  In  In5  1  0.50000000  0.33351100  0.87786400  1
  In  In6  1  0.50000000  0.16648900  0.37786400  1
  In  In7  1  0.50000000  0.83351100  0.62213600  1
  In  In8  1  0.50000000  0.73967400  0.32330800  1
  In  In9  1  0.50000000  0.26032600  0.67669200  1
  In  In10  1  0.50000000  0.23967400  0.17669200  1
  In  In11  1  0.50000000  0.76032600  0.82330800  1
  In  In12  1  0.50000000  0.82984400  0.01035300  1
  In  In13  1  0.50000000  0.17015600  0.98964700  1
  In  In14  1  0.50000000  0.32984400  0.48964700  1
  In  In15  1  0.50000000  0.67015600  0.51035300  1
  In  In16  1  0.50000000  0.94906900  0.31746400  1
  In  In17  1  0.50000000  0.05093100  0.68253600  1
  In  In18  1  0.50000000  0.44906900  0.18253600  1
  In  In19  1  0.50000000  0.55093100  0.81746400  1
  In  In20  1  0.00000000  0.59975800  0.24697800  1
  In  In21  1  0.00000000  0.40024200  0.75302200  1
  In  In22  1  0.00000000  0.09975800  0.25302200  1
  In  In23  1  0.00000000  0.90024200  0.74697800  1
  In  In24  1  0.00000000  0.83991100  0.45601100  1
  In  In25  1  0.00000000  0.16008900  0.54398900  1
  In  In26  1  0.00000000  0.33991100  0.04398900  1
  In  In27  1  0.00000000  0.66008900  0.95601100  1
  In  In28  1  0.50000000  0.50000000  0.00000000  1
  In  In29  1  0.50000000  0.00000000  0.50000000  1
  In  In30  1  0.00000000  0.50000000  0.50000000  1
  In  In31  1  0.00000000  0.00000000  0.00000000  1
  Ir  Ir0  1  0.00000000  0.53554300  0.09505800  1
  Ir  Ir1  1  0.00000000  0.46445700  0.90494200  1
  Ir  Ir2  1  0.00000000  0.03554300  0.40494200  1
  Ir  Ir3  1  0.00000000  0.96445700  0.59505800  1
  Ir  Ir4  1  0.00000000  0.65455800  0.40386300  1
  Ir  Ir5  1  0.00000000  0.34544200  0.59613700  1
  Ir  Ir6  1  0.00000000  0.15455800  0.09613700  1
  Ir  Ir7  1  0.00000000  0.84544200  0.90386300  1
loop_
_geom_bond_atom_site_label_1
_geom_bond_atom_site_label_2
_geom_bond_distance
_geom_bond_site_symmetry_2
In0 Ir4 3.010483 1_555
In0 Ir4 3.010483 1_655
In0 In30 3.137258 1_555
In0 In30 3.137258 1_655
In0 In18 3.145966 1_555
In0 In15 3.162089 1_555
In0 In20 3.175341 1_555
In0 In20 3.175341 1_655
In0 In8 3.189475 1_555
In0 In14 3.352642 1_555
In0 Sr2 3.460571 1_555
In0 Sr2 3.460571 1_655
In1 Ir5 3.010483 1_555
In1 Ir5 3.010483 1_655
In1 In30 3.137258 1_655
In1 In30 3.137258 1_555
In1 In19 3.145966 1_555
In1 In14 3.162089 1_555
In1 In21 3.175341 1_555
In1 In21 3.175341 1_655
In1 In9 3.189475 1_555
In1 In15 3.352642 1_555
In1 Sr3 3.460571 1_555
In1 Sr3 3.460571 1_655
In2 Ir6 3.010483 1_555
In2 Ir6 3.010483 1_655
In2 In31 3.137258 1_555
In2 In31 3.137258 1_655
In2 In22 3.175341 1_555
In2 In22 3.175341 1_655
In2 Sr0 3.460571 1_645
In2 Sr0 3.460571 1_545
In3 Ir7 3.010483 1_655
In3 Ir7 3.010483 1_555
In3 In31 3.137258 1_566
In3 In31 3.137258 1_666
In3 Sr1 3.460571 1_665
In3 Sr1 3.460571 1_565
In4 Ir0 2.946369 1_655
In4 Ir0 2.946369 1_555
In4 In8 3.425759 1_555
In4 Sr0 3.482662 1_655
In4 Sr0 3.482662 1_555
In5 Ir1 2.946369 1_655
In5 Ir1 2.946369 1_555
In5 In9 3.425759 1_555
In5 Sr1 3.482662 1_655
In5 Sr1 3.482662 1_555
In6 Ir2 2.946369 1_555
In6 Ir2 2.946369 1_655
In6 Sr2 3.482662 1_555
In6 Sr2 3.482662 1_655
In7 Ir3 2.946369 1_655
In7 Ir3 2.946369 1_555
In7 Sr3 3.482662 1_655
In7 Sr3 3.482662 1_555
In8 Ir4 2.865931 1_655
In8 Ir4 2.865931 1_555
In8 Sr0 3.534776 1_655
In8 Sr0 3.534776 1_555
In9 Ir5 2.865931 1_555
In9 Ir5 2.865931 1_655
In9 Sr1 3.534776 1_555
In9 Sr1 3.534776 1_655
In10 Ir6 2.865931 1_655
In10 Ir6 2.865931 1_555
In10 In18 2.965508 1_555
In10 In2 3.189475 1_555
In10 In13 3.191554 1_554
In10 In22 3.241877 1_555
In10 In22 3.241877 1_655
In10 In26 3.421281 1_655
In10 In26 3.421281 1_555
In10 In6 3.425759 1_555
In10 Sr2 3.534776 1_555
In10 Sr2 3.534776 1_655
In11 Ir7 2.865931 1_655
In11 Ir7 2.865931 1_555
In11 In19 2.965508 1_555
In11 In3 3.189475 1_555
In11 In12 3.191554 1_556
In11 In23 3.241877 1_655
In11 In23 3.241877 1_555
In11 In27 3.421281 1_655
In11 In27 3.421281 1_555
In11 In7 3.425759 1_555
In11 Sr3 3.534776 1_555
In11 Sr3 3.534776 1_655
In12 Ir7 2.844084 1_554
In12 Ir7 2.844084 1_654
In12 In4 2.939195 1_555
In12 In3 3.162089 1_554
In12 In2 3.352642 1_565
In12 Sr0 3.569433 1_555
In12 Sr0 3.569433 1_655
In13 Ir6 2.844084 1_556
In13 Ir6 2.844084 1_656
In13 In5 2.939195 1_555
In13 In2 3.162089 1_556
In13 In3 3.352642 1_545
In13 Sr1 3.569433 1_655
In13 Sr1 3.569433 1_555
In14 Ir5 2.844084 1_555
In14 Ir5 2.844084 1_655
In14 In6 2.939195 1_555
In14 In9 3.191554 1_555
In14 Sr2 3.569433 1_555
In14 Sr2 3.569433 1_655
In15 Ir4 2.844084 1_655
In15 Ir4 2.844084 1_555
In15 In7 2.939195 1_555
In15 In8 3.191554 1_555
In15 Sr3 3.569433 1_555
In15 Sr3 3.569433 1_655
In16 Ir2 2.926899 1_665
In16 Ir2 2.926899 1_565
In16 In8 2.965508 1_555
In16 In29 3.049326 1_565
In16 In2 3.145966 1_565
In16 In6 3.229970 1_565
In16 In22 3.270494 1_565
In16 In22 3.270494 1_665
In16 Sr0 3.502640 1_655
In16 Sr0 3.502640 1_555
In17 Ir3 2.926899 1_545
In17 Ir3 2.926899 1_645
In17 In9 2.965508 1_555
In17 In29 3.049326 1_555
In17 In3 3.145966 1_545
In17 In7 3.229970 1_545
In17 In23 3.270494 1_645
In17 In23 3.270494 1_545
In17 Sr1 3.502640 1_655
In17 Sr1 3.502640 1_555
In18 Ir0 2.926899 1_655
In18 Ir0 2.926899 1_555
In18 In28 3.049326 1_555
In18 In4 3.229970 1_555
In18 In20 3.270494 1_555
In18 In20 3.270494 1_655
In18 Sr2 3.502640 1_555
In18 Sr2 3.502640 1_655
In19 Ir1 2.926899 1_655
In19 Ir1 2.926899 1_555
In19 In28 3.049326 1_556
In19 In5 3.229970 1_555
In19 In21 3.270494 1_655
In19 In21 3.270494 1_555
In19 Sr3 3.502640 1_555
In19 Sr3 3.502640 1_655
In20 Ir0 2.628120 1_555
In20 Ir4 2.662040 1_555
In20 In8 3.241877 1_555
In20 In8 3.241877 1_455
In20 Sr0 3.592267 1_555
In20 Sr2 3.832733 1_555
In21 Ir1 2.628120 1_555
In21 Ir5 2.662040 1_555
In21 In9 3.241877 1_455
In21 In9 3.241877 1_555
In21 Sr1 3.592267 1_555
In21 Sr3 3.832733 1_555
In22 Ir2 2.628120 1_555
In22 Ir6 2.662040 1_555
In22 Sr2 3.592267 1_555
In22 Sr0 3.832733 1_545
In23 Ir3 2.628120 1_555
In23 Ir7 2.662040 1_555
In23 In3 3.175341 1_555
In23 In3 3.175341 1_455
In23 Sr3 3.592267 1_555
In23 Sr1 3.832733 1_565
In24 Ir4 2.756838 1_555
In24 Ir3 2.863902 1_555
In24 Ir2 2.890583 1_565
In24 In8 3.421281 1_455
In24 In8 3.421281 1_555
In25 Ir5 2.756838 1_555
In25 Ir2 2.863902 1_555
In25 Ir3 2.890583 1_545
In25 In9 3.421281 1_455
In25 In9 3.421281 1_555
In26 Ir6 2.756838 1_555
In26 Ir1 2.863902 1_554
In26 Ir0 2.890583 1_555
In27 Ir7 2.756838 1_555
In27 Ir0 2.863902 1_556
In27 Ir1 2.890583 1_555
In28 Ir0 2.772387 1_555
In28 Ir0 2.772387 1_655
In28 Ir1 2.772387 1_654
In28 Ir1 2.772387 1_554
In29 Ir3 2.772387 1_545
In29 Ir3 2.772387 1_645
In29 Ir2 2.772387 1_555
In29 Ir2 2.772387 1_655
In30 Ir4 2.687269 1_555
In30 Ir5 2.687269 1_555
In30 Sr3 3.690925 1_555
In30 Sr2 3.690925 1_555
In31 Ir6 2.687269 1_555
In31 Ir7 2.687269 1_544
In31 Sr0 3.690925 1_545
In31 Sr1 3.690925 1_554
