# generated using pymatgen
data_Cs2ZnBi2S5
_symmetry_space_group_name_H-M   'P 1'
_cell_length_a   4.11740153
_cell_length_b   15.96577456
_cell_length_c   18.29161297
_cell_angle_alpha   90.00000000
_cell_angle_beta   90.00000000
_cell_angle_gamma   90.00000000
_symmetry_Int_Tables_number   1
_chemical_formula_structural   Cs2ZnBi2S5
_chemical_formula_sum   'Cs8 Zn4 Bi8 S20'
_cell_volume   1202.44499177
_cell_formula_units_Z   4
loop_
 _symmetry_equiv_pos_site_id
 _symmetry_equiv_pos_as_xyz
  1  'x, y, z'
loop_
 _atom_site_type_symbol
 _atom_site_label
 _atom_site_symmetry_multiplicity
 _atom_site_fract_x
 _atom_site_fract_y
 _atom_site_fract_z
 _atom_site_occupancy
  Cs  Cs0  1  0.25000000  0.00571381  0.37834529  1
  Cs  Cs1  1  0.25000000  0.50571381  0.12165471  1
  Cs  Cs2  1  0.75000000  0.99428619  0.62165471  1
  Cs  Cs3  1  0.75000000  0.49428619  0.87834529  1
  Cs  Cs4  1  0.25000000  0.46104392  0.61921051  1
  Cs  Cs5  1  0.25000000  0.96104392  0.88078949  1
  Cs  Cs6  1  0.75000000  0.53895608  0.38078949  1
  Cs  Cs7  1  0.75000000  0.03895608  0.11921051  1
  Zn  Zn0  1  0.25000000  0.20562958  0.64429087  1
  Zn  Zn1  1  0.25000000  0.70562958  0.85570913  1
  Zn  Zn2  1  0.75000000  0.79437042  0.35570913  1
  Zn  Zn3  1  0.75000000  0.29437042  0.14429087  1
  Bi  Bi0  1  0.25000000  0.25048112  0.98322530  1
  Bi  Bi1  1  0.25000000  0.75048112  0.51677470  1
  Bi  Bi2  1  0.75000000  0.74951888  0.01677470  1
  Bi  Bi3  1  0.75000000  0.24951888  0.48322530  1
  Bi  Bi4  1  0.25000000  0.29148789  0.30155567  1
  Bi  Bi5  1  0.25000000  0.79148789  0.19844433  1
  Bi  Bi6  1  0.75000000  0.70851211  0.69844433  1
  Bi  Bi7  1  0.75000000  0.20851211  0.80155567  1
  S  S0  1  0.25000000  0.10909745  0.74241975  1
  S  S1  1  0.25000000  0.60909745  0.75758025  1
  S  S2  1  0.75000000  0.89090255  0.25758025  1
  S  S3  1  0.75000000  0.39090255  0.24241975  1
  S  S4  1  0.25000000  0.14239397  0.52870232  1
  S  S5  1  0.25000000  0.64239397  0.97129768  1
  S  S6  1  0.75000000  0.85760603  0.47129768  1
  S  S7  1  0.75000000  0.35760603  0.02870232  1
  S  S8  1  0.25000000  0.21555859  0.15536152  1
  S  S9  1  0.25000000  0.71555859  0.34463848  1
  S  S10  1  0.75000000  0.78444141  0.84463848  1
  S  S11  1  0.75000000  0.28444141  0.65536152  1
  S  S12  1  0.25000000  0.31819706  0.85173440  1
  S  S13  1  0.25000000  0.81819706  0.64826560  1
  S  S14  1  0.75000000  0.68180294  0.14826560  1
  S  S15  1  0.75000000  0.18180294  0.35173440  1
  S  S16  1  0.25000000  0.36622679  0.43743573  1
  S  S17  1  0.25000000  0.86622679  0.06256427  1
  S  S18  1  0.75000000  0.63377321  0.56256427  1
  S  S19  1  0.75000000  0.13377321  0.93743573  1
loop_
_geom_bond_atom_site_label_1
_geom_bond_atom_site_label_2
_geom_bond_distance
_geom_bond_site_symmetry_2
Cs0 S4 3.510843 1_555
Cs0 S15 3.518401 1_555
Cs0 S15 3.518401 1_455
Cs0 S2 3.532414 1_545
Cs0 S2 3.532414 1_445
Cs0 S6 3.566608 1_545
Cs0 S6 3.566608 1_445
Cs1 S5 3.510843 1_554
Cs1 S14 3.518401 1_455
Cs1 S14 3.518401 1_555
Cs1 S3 3.532414 1_455
Cs1 S3 3.532414 1_555
Cs1 S7 3.566608 1_455
Cs1 S7 3.566608 1_555
Cs2 S6 3.510843 1_555
Cs2 S13 3.518401 1_655
Cs2 S13 3.518401 1_555
Cs2 S0 3.532414 1_565
Cs2 S0 3.532414 1_665
Cs2 S4 3.566608 1_565
Cs2 S4 3.566608 1_665
Cs3 S7 3.510843 1_556
Cs3 S12 3.518401 1_655
Cs3 S12 3.518401 1_555
Cs3 S1 3.532414 1_555
Cs3 S1 3.532414 1_655
Cs3 S5 3.566608 1_555
Cs3 S5 3.566608 1_655
Cs4 S1 3.463162 1_555
Cs4 S11 3.553257 1_555
Cs4 S11 3.553257 1_455
Cs4 S18 3.594034 1_555
Cs4 S18 3.594034 1_455
Cs4 S16 3.653354 1_555
Cs5 S0 3.463162 1_565
Cs5 S10 3.553257 1_555
Cs5 S10 3.553257 1_455
Cs5 S19 3.594034 1_565
Cs5 S19 3.594034 1_465
Cs5 S17 3.653354 1_556
Cs6 S3 3.463162 1_555
Cs6 S9 3.553257 1_655
Cs6 S9 3.553257 1_555
Cs6 S16 3.594034 1_655
Cs6 S16 3.594034 1_555
Cs6 S18 3.653354 1_555
Cs7 S2 3.463162 1_545
Cs7 S8 3.553257 1_555
Cs7 S8 3.553257 1_655
Cs7 S17 3.594034 1_645
Cs7 S17 3.594034 1_545
Cs7 S19 3.653354 1_554
Bi0 S12 2.636997 1_555
Bi0 S7 2.802759 1_556
Bi0 S7 2.802759 1_456
Bi0 S19 2.900305 1_555
Bi0 S19 2.900305 1_455
Bi0 S8 3.197635 1_556
Bi1 S13 2.636997 1_555
Bi1 S6 2.802759 1_455
Bi1 S6 2.802759 1_555
Bi1 S18 2.900305 1_455
Bi1 S18 2.900305 1_555
Bi1 S9 3.197635 1_555
Bi2 S14 2.636997 1_555
Bi2 S5 2.802759 1_554
Bi2 S5 2.802759 1_654
Bi2 S17 2.900305 1_555
Bi2 S17 2.900305 1_655
Bi2 S10 3.197635 1_554
Bi3 S15 2.636997 1_555
Bi3 S4 2.802759 1_555
Bi3 S4 2.802759 1_655
Bi3 S16 2.900305 1_655
Bi3 S16 2.900305 1_555
Bi3 S11 3.197635 1_555
Bi4 S16 2.757067 1_555
Bi4 S3 2.815601 1_455
Bi4 S3 2.815601 1_555
Bi4 S15 2.854368 1_455
Bi4 S15 2.854368 1_555
Bi4 S8 2.936078 1_555
Bi5 S17 2.757067 1_555
Bi5 S2 2.815601 1_455
Bi5 S2 2.815601 1_555
Bi5 S14 2.854368 1_455
Bi5 S14 2.854368 1_555
Bi5 S9 2.936078 1_555
Bi6 S18 2.757067 1_555
Bi6 S1 2.815601 1_555
Bi6 S1 2.815601 1_655
Bi6 S13 2.854368 1_555
Bi6 S13 2.854368 1_655
Bi6 S10 2.936078 1_555
Bi7 S19 2.757067 1_555
Bi7 S0 2.815601 1_555
Bi7 S0 2.815601 1_655
Bi7 S12 2.854368 1_655
Bi7 S12 2.854368 1_555
Bi7 S11 2.936078 1_555
S0 Zn0 2.365824 1_555
S1 Zn1 2.365824 1_555
S2 Zn2 2.365824 1_555
S3 Zn3 2.365824 1_555
S4 Zn0 2.342984 1_555
S5 Zn1 2.342984 1_555
S6 Zn2 2.342984 1_555
S7 Zn3 2.342984 1_555
S8 Zn3 2.421271 1_455
S8 Zn3 2.421271 1_555
S9 Zn2 2.421271 1_455
S9 Zn2 2.421271 1_555
S10 Zn1 2.421271 1_655
S10 Zn1 2.421271 1_555
S11 Zn0 2.421271 1_555
S11 Zn0 2.421271 1_655
