# generated using pymatgen
data_Al2Si2O9
_symmetry_space_group_name_H-M   'P 1'
_cell_length_a   5.24289215
_cell_length_b   5.24289215
_cell_length_c   29.97935375
_cell_angle_alpha   90.76661302
_cell_angle_beta   90.76661302
_cell_angle_gamma   119.80969349
_symmetry_Int_Tables_number   1
_chemical_formula_structural   Al2Si2O9
_chemical_formula_sum   'Al8 Si8 O36'
_cell_volume   714.77562086
_cell_formula_units_Z   4
loop_
 _symmetry_equiv_pos_site_id
 _symmetry_equiv_pos_as_xyz
  1  'x, y, z'
loop_
 _atom_site_type_symbol
 _atom_site_label
 _atom_site_symmetry_multiplicity
 _atom_site_fract_x
 _atom_site_fract_y
 _atom_site_fract_z
 _atom_site_occupancy
  Al  Al0  1  0.09039900  0.39496100  0.50112100  1
  Al  Al1  1  0.39496100  0.09039900  0.00112100  1
  Al  Al2  1  0.72786800  0.75762500  0.50117300  1
  Al  Al3  1  0.75762500  0.72786800  0.00117300  1
  Al  Al4  1  0.10610800  0.07623800  0.75118100  1
  Al  Al5  1  0.07623800  0.10610800  0.25118100  1
  Al  Al6  1  0.74374000  0.43816700  0.75124900  1
  Al  Al7  1  0.43816700  0.74374000  0.25124900  1
  Si  Si0  1  0.78413800  0.10947600  0.59361100  1
  Si  Si1  1  0.10947600  0.78413800  0.09361100  1
  Si  Si2  1  0.44182700  0.45188300  0.59365200  1
  Si  Si3  1  0.45188300  0.44182700  0.09365200  1
  Si  Si4  1  0.07849200  0.75359800  0.84368700  1
  Si  Si5  1  0.75359800  0.07849200  0.34368700  1
  Si  Si6  1  0.42071800  0.41135400  0.84366200  1
  Si  Si7  1  0.41135400  0.42071800  0.34366200  1
  O  O0  1  0.41969300  0.46889900  0.53866200  1
  O  O1  1  0.46889900  0.41969300  0.03866200  1
  O  O2  1  0.80253400  0.08776600  0.53866100  1
  O  O3  1  0.08776600  0.80253400  0.03866100  1
  O  O4  1  0.61472100  0.28278700  0.60774600  1
  O  O5  1  0.28278700  0.61472100  0.10774600  1
  O  O6  1  0.61799600  0.78407600  0.61401700  1
  O  O7  1  0.78407600  0.61799600  0.11401700  1
  O  O8  1  0.11632000  0.28663800  0.61434200  1
  O  O9  1  0.28663800  0.11632000  0.11434200  1
  O  O10  1  0.42541200  0.37647400  0.78868000  1
  O  O11  1  0.37647400  0.42541200  0.28868000  1
  O  O12  1  0.04393400  0.75795000  0.78870600  1
  O  O13  1  0.75795000  0.04393400  0.28870600  1
  O  O14  1  0.25196300  0.58477500  0.85801200  1
  O  O15  1  0.58477500  0.25196300  0.35801200  1
  O  O16  1  0.75233600  0.58489200  0.86415100  1
  O  O17  1  0.58489200  0.75233600  0.36415100  1
  O  O18  1  0.25198700  0.08527100  0.86415100  1
  O  O19  1  0.08527100  0.25198700  0.36415100  1
  O  O20  1  0.03067700  0.69782100  0.52506000  1
  O  O21  1  0.69782100  0.03067700  0.02506000  1
  O  O22  1  0.42960800  0.14779800  0.71611900  1
  O  O23  1  0.14779800  0.42960800  0.21611900  1
  O  O24  1  0.81568800  0.76159400  0.71619000  1
  O  O25  1  0.76159400  0.81568800  0.21619000  1
  O  O26  1  0.04441000  0.37679300  0.72100100  1
  O  O27  1  0.37679300  0.04441000  0.22100100  1
  O  O28  1  0.80960000  0.14192700  0.77503500  1
  O  O29  1  0.14192700  0.80960000  0.27503500  1
  O  O30  1  0.67772800  0.39345200  0.96636500  1
  O  O31  1  0.39345200  0.67772800  0.46636500  1
  O  O32  1  0.06033400  0.01028600  0.96633100  1
  O  O33  1  0.01028600  0.06033400  0.46633100  1
  O  O34  1  0.44859800  0.78147100  0.97070600  1
  O  O35  1  0.78147100  0.44859800  0.47070600  1
loop_
_geom_bond_atom_site_label_1
_geom_bond_atom_site_label_2
_geom_bond_distance
_geom_bond_site_symmetry_2
Al0 O33 1.883841 1_555
Al0 O31 1.884604 1_555
Al0 O20 1.898486 1_555
Al0 O0 1.915330 1_555
Al0 O2 1.953351 1_455
Al0 O35 1.988478 1_455
Al1 O32 1.883841 1_554
Al1 O30 1.884604 1_554
Al1 O21 1.898486 1_555
Al1 O1 1.915330 1_555
Al1 O3 1.953351 1_545
Al1 O34 1.988478 1_544
Al2 O31 1.883513 1_555
Al2 O33 1.884573 1_665
Al2 O20 1.897919 1_655
Al2 O2 1.916977 1_565
Al2 O0 1.956416 1_555
Al2 O35 1.989537 1_555
Al3 O30 1.883513 1_554
Al3 O32 1.884573 1_664
Al3 O21 1.897919 1_565
Al3 O3 1.916977 1_655
Al3 O1 1.956416 1_555
Al3 O34 1.989537 1_554
Al4 O22 1.883589 1_555
Al4 O24 1.885147 1_445
Al4 O28 1.897930 1_455
Al4 O12 1.917229 1_545
Al4 O10 1.956130 1_555
Al4 O26 1.985810 1_555
Al5 O23 1.883589 1_555
Al5 O25 1.885147 1_445
Al5 O29 1.897930 1_545
Al5 O13 1.917229 1_455
Al5 O11 1.956130 1_555
Al5 O27 1.985810 1_555
Al6 O24 1.882739 1_555
Al6 O22 1.886030 1_555
Al6 O28 1.896384 1_555
Al6 O10 1.916349 1_555
Al6 O12 1.956480 1_655
Al6 O26 1.986352 1_655
Al7 O25 1.882739 1_555
Al7 O23 1.886030 1_555
Al7 O29 1.896384 1_555
Al7 O11 1.916349 1_555
Al7 O13 1.956480 1_565
Al7 O27 1.986352 1_565
O0 Si2 1.657800 1_555
O1 Si3 1.657800 1_555
O2 Si0 1.657172 1_555
O3 Si1 1.657172 1_555
O4 Si2 1.607781 1_555
O4 Si0 1.611333 1_555
O5 Si3 1.607781 1_555
O5 Si1 1.611333 1_555
O6 Si0 1.615005 1_565
O6 Si2 1.617489 1_555
O7 Si1 1.615005 1_655
O7 Si3 1.617489 1_555
O8 Si2 1.618792 1_555
O8 Si0 1.621543 1_455
O9 Si3 1.618792 1_555
O9 Si1 1.621543 1_545
O10 Si6 1.657865 1_555
O11 Si7 1.657865 1_555
O12 Si4 1.657513 1_555
O13 Si5 1.657513 1_555
O14 Si6 1.610626 1_555
O14 Si4 1.610942 1_555
O15 Si7 1.610626 1_555
O15 Si5 1.610942 1_555
O16 Si6 1.616064 1_555
O16 Si4 1.619145 1_655
O17 Si7 1.616064 1_555
O17 Si5 1.619145 1_565
O18 Si4 1.616019 1_545
O18 Si6 1.619146 1_555
O19 Si5 1.616019 1_455
O19 Si7 1.619146 1_555
