# generated using pymatgen
data_RbSrMg6
_symmetry_space_group_name_H-M   'P 1'
_cell_length_a   5.29825100
_cell_length_b   7.19143600
_cell_length_c   13.55489700
_cell_angle_alpha   90.00000000
_cell_angle_beta   90.00000000
_cell_angle_gamma   90.00000000
_symmetry_Int_Tables_number   1
_chemical_formula_structural   RbSrMg6
_chemical_formula_sum   'Rb2 Sr2 Mg12'
_cell_volume   516.46913251
_cell_formula_units_Z   2
loop_
 _symmetry_equiv_pos_site_id
 _symmetry_equiv_pos_as_xyz
  1  'x, y, z'
loop_
 _atom_site_type_symbol
 _atom_site_label
 _atom_site_symmetry_multiplicity
 _atom_site_fract_x
 _atom_site_fract_y
 _atom_site_fract_z
 _atom_site_occupancy
  Rb  Rb0  1  0.50000000  0.00000000  0.17538200  1
  Rb  Rb1  1  0.50000000  0.50000000  0.67538200  1
  Sr  Sr0  1  0.50000000  0.50000000  0.17052100  1
  Sr  Sr1  1  0.50000000  0.00000000  0.67052100  1
  Mg  Mg0  1  0.50000000  0.25468300  0.42259700  1
  Mg  Mg1  1  0.50000000  0.74531700  0.42259700  1
  Mg  Mg2  1  0.00000000  0.73774700  0.04715900  1
  Mg  Mg3  1  0.00000000  0.26225300  0.04715900  1
  Mg  Mg4  1  0.00000000  0.00000000  0.36059800  1
  Mg  Mg5  1  0.00000000  0.50000000  0.35398400  1
  Mg  Mg6  1  0.50000000  0.75468300  0.92259700  1
  Mg  Mg7  1  0.50000000  0.24531700  0.92259700  1
  Mg  Mg8  1  0.00000000  0.23774700  0.54715900  1
  Mg  Mg9  1  0.00000000  0.76225300  0.54715900  1
  Mg  Mg10  1  0.00000000  0.50000000  0.86059800  1
  Mg  Mg11  1  0.00000000  0.00000000  0.85398400  1
loop_
_geom_bond_atom_site_label_1
_geom_bond_atom_site_label_2
_geom_bond_distance
_geom_bond_site_symmetry_2
Rb0 Sr0 3.596322 1_555
Rb0 Sr0 3.596322 1_545
Rb1 Sr1 3.596322 1_565
Rb1 Sr1 3.596322 1_555
Mg0 Mg8 3.143800 1_555
Mg0 Mg8 3.143800 1_655
Mg0 Mg5 3.315898 1_555
Mg0 Mg5 3.315898 1_655
Mg0 Mg4 3.328460 1_655
Mg0 Mg4 3.328460 1_555
Mg0 Rb0 3.818842 1_555
Mg0 Sr1 3.827277 1_555
Mg0 Sr0 3.845426 1_555
Mg0 Rb1 3.853967 1_555
Mg1 Mg9 3.143800 1_655
Mg1 Mg9 3.143800 1_555
Mg1 Mg5 3.315898 1_555
Mg1 Mg5 3.315898 1_655
Mg1 Mg4 3.328460 1_665
Mg1 Mg4 3.328460 1_565
Mg1 Rb0 3.818842 1_565
Mg1 Sr1 3.827277 1_565
Mg1 Sr0 3.845426 1_555
Mg1 Rb1 3.853967 1_555
Mg2 Mg6 3.143800 1_454
Mg2 Mg6 3.143800 1_554
Mg2 Mg3 3.419485 1_555
Mg2 Sr0 3.568922 1_455
Mg2 Sr0 3.568922 1_555
Mg2 Rb0 3.687219 1_565
Mg2 Rb0 3.687219 1_465
Mg3 Mg7 3.143800 1_554
Mg3 Mg7 3.143800 1_454
Mg3 Sr0 3.568922 1_455
Mg3 Sr0 3.568922 1_555
Mg3 Rb0 3.687219 1_555
Mg3 Rb0 3.687219 1_455
Mg4 Mg8 3.052560 1_555
Mg4 Mg9 3.052560 1_545
Mg4 Rb0 3.649780 1_455
Mg4 Rb0 3.649780 1_555
Mg5 Mg9 3.226961 1_555
Mg5 Mg8 3.226961 1_555
Mg5 Sr0 3.633476 1_455
Mg5 Sr0 3.633476 1_555
Mg6 Rb1 3.818842 1_555
Mg6 Sr0 3.827277 1_556
Mg6 Sr1 3.845426 1_565
Mg6 Rb0 3.853967 1_566
Mg7 Rb1 3.818842 1_555
Mg7 Sr0 3.827277 1_556
Mg7 Sr1 3.845426 1_555
Mg7 Rb0 3.853967 1_556
Mg8 Mg9 3.419485 1_545
Mg8 Sr1 3.568922 1_555
Mg8 Sr1 3.568922 1_455
Mg8 Rb1 3.687219 1_455
Mg8 Rb1 3.687219 1_555
Mg9 Sr1 3.568922 1_565
Mg9 Sr1 3.568922 1_465
Mg9 Rb1 3.687219 1_455
Mg9 Rb1 3.687219 1_555
Mg10 Mg2 3.052560 1_556
Mg10 Mg3 3.052560 1_556
Mg10 Mg6 3.328460 1_455
Mg10 Mg6 3.328460 1_555
Mg10 Mg7 3.328460 1_455
Mg10 Mg7 3.328460 1_555
Mg10 Rb1 3.649780 1_455
Mg10 Rb1 3.649780 1_555
Mg11 Mg3 3.226961 1_556
Mg11 Mg2 3.226961 1_546
Mg11 Mg7 3.315898 1_555
Mg11 Mg7 3.315898 1_455
Mg11 Mg6 3.315898 1_445
Mg11 Mg6 3.315898 1_545
Mg11 Sr1 3.633476 1_455
Mg11 Sr1 3.633476 1_555
