# generated using pymatgen
data_Ca2Mg(CO3)3
_symmetry_space_group_name_H-M   'P 1'
_cell_length_a   4.91062612
_cell_length_b   4.91062612
_cell_length_c   16.74626000
_cell_angle_alpha   90.00000000
_cell_angle_beta   90.00000000
_cell_angle_gamma   120.00000158
_symmetry_Int_Tables_number   1
_chemical_formula_structural   Ca2Mg(CO3)3
_chemical_formula_sum   'Ca4 Mg2 C6 O18'
_cell_volume   349.72138778
_cell_formula_units_Z   2
loop_
 _symmetry_equiv_pos_site_id
 _symmetry_equiv_pos_as_xyz
  1  'x, y, z'
loop_
 _atom_site_type_symbol
 _atom_site_label
 _atom_site_symmetry_multiplicity
 _atom_site_fract_x
 _atom_site_fract_y
 _atom_site_fract_z
 _atom_site_occupancy
  Ca  Ca0  1  0.00000000  0.00000000  0.49795300  1
  Ca  Ca1  1  0.00000000  0.00000000  0.99795300  1
  Ca  Ca2  1  0.33333300  0.66666700  0.31681000  1
  Ca  Ca3  1  0.66666700  0.33333300  0.81681000  1
  Mg  Mg0  1  0.66666700  0.33333300  0.15829000  1
  Mg  Mg1  1  0.33333300  0.66666700  0.65829000  1
  C  C0  1  0.66666700  0.33333300  0.40576600  1
  C  C1  1  0.33333300  0.66666700  0.90576600  1
  C  C2  1  0.00000000  0.00000000  0.23172800  1
  C  C3  1  0.00000000  0.00000000  0.73172800  1
  C  C4  1  0.33333300  0.66666700  0.08568300  1
  C  C5  1  0.66666700  0.33333300  0.58568300  1
  O  O0  1  0.66894100  0.07008100  0.40607400  1
  O  O1  1  0.40114000  0.33105900  0.40607400  1
  O  O2  1  0.92991900  0.59886000  0.40607400  1
  O  O3  1  0.59886000  0.92991900  0.90607400  1
  O  O4  1  0.07008100  0.66894100  0.90607400  1
  O  O5  1  0.33105900  0.40114000  0.90607400  1
  O  O6  1  0.28216400  0.03960100  0.23278300  1
  O  O7  1  0.75743700  0.71783600  0.23278300  1
  O  O8  1  0.96039900  0.24256300  0.23278300  1
  O  O9  1  0.24256300  0.96039900  0.73278300  1
  O  O10  1  0.03960100  0.28216400  0.73278300  1
  O  O11  1  0.71783600  0.75743700  0.73278300  1
  O  O12  1  0.05128800  0.62744100  0.08429000  1
  O  O13  1  0.57615300  0.94871200  0.08429000  1
  O  O14  1  0.37255900  0.42384700  0.08429000  1
  O  O15  1  0.42384700  0.37255900  0.58429000  1
  O  O16  1  0.62744100  0.05128800  0.58429000  1
  O  O17  1  0.94871200  0.57615300  0.58429000  1
loop_
_geom_bond_atom_site_label_1
_geom_bond_atom_site_label_2
_geom_bond_distance
_geom_bond_site_symmetry_2
Ca0 O1 2.384997 1_555
Ca0 O2 2.384997 1_445
Ca0 O0 2.384997 1_455
Ca0 O15 2.441652 1_555
Ca0 O17 2.441652 1_445
Ca0 O16 2.441652 1_455
Ca1 O5 2.384997 1_555
Ca1 O3 2.384997 1_445
Ca1 O4 2.384997 1_545
Ca1 O14 2.441652 1_556
Ca1 O13 2.441652 1_446
Ca1 O12 2.441652 1_546
Ca2 O2 2.368588 1_455
Ca2 O0 2.368589 1_565
Ca2 O1 2.368591 1_555
Ca2 O6 2.420154 1_565
Ca2 O8 2.420156 1_455
Ca2 O7 2.420157 1_555
Ca3 O3 2.368588 1_545
Ca3 O4 2.368589 1_655
Ca3 O5 2.368591 1_555
Ca3 O10 2.420154 1_655
Ca3 O9 2.420156 1_545
Ca3 O11 2.420157 1_555
Mg0 O13 2.112116 1_545
Mg0 O12 2.112117 1_655
Mg0 O14 2.112120 1_555
Mg0 O8 2.116214 1_555
Mg0 O6 2.116217 1_555
Mg0 O7 2.116218 1_555
Mg1 O17 2.112116 1_455
Mg1 O16 2.112117 1_565
Mg1 O15 2.112120 1_555
Mg1 O9 2.116214 1_555
Mg1 O10 2.116217 1_555
Mg1 O11 2.116218 1_555
C0 O0 1.298362 1_555
C0 O2 1.298364 1_555
C0 O1 1.298367 1_555
C1 O4 1.298362 1_555
C1 O3 1.298364 1_555
C1 O5 1.298367 1_555
C2 O7 1.299450 1_445
C2 O6 1.299450 1_555
C2 O8 1.299450 1_455
C3 O11 1.299450 1_445
C3 O10 1.299450 1_555
C3 O9 1.299450 1_545
C4 O12 1.299667 1_555
C4 O13 1.299669 1_555
C4 O14 1.299672 1_555
C5 O16 1.299667 1_555
C5 O17 1.299669 1_555
C5 O15 1.299672 1_555
