# generated using pymatgen
data_Rb2SbN2(O2F)3
_symmetry_space_group_name_H-M   'P 1'
_cell_length_a   7.36929393
_cell_length_b   11.25450183
_cell_length_c   11.49078200
_cell_angle_alpha   105.06829463
_cell_angle_beta   90.00000000
_cell_angle_gamma   90.00000000
_symmetry_Int_Tables_number   1
_chemical_formula_structural   Rb2SbN2(O2F)3
_chemical_formula_sum   'Rb8 Sb4 N8 O24 F12'
_cell_volume   920.25138601
_cell_formula_units_Z   4
loop_
 _symmetry_equiv_pos_site_id
 _symmetry_equiv_pos_as_xyz
  1  'x, y, z'
loop_
 _atom_site_type_symbol
 _atom_site_label
 _atom_site_symmetry_multiplicity
 _atom_site_fract_x
 _atom_site_fract_y
 _atom_site_fract_z
 _atom_site_occupancy
  Rb  Rb0  1  0.23792449  0.44187375  0.34463408  1
  Rb  Rb1  1  0.24841423  0.44918066  0.86636194  1
  Rb  Rb2  1  0.46270444  0.12710707  0.06455811  1
  Rb  Rb3  1  0.48888668  0.15008922  0.49419568  1
  Rb  Rb4  1  0.73792449  0.55812625  0.65536592  1
  Rb  Rb5  1  0.74841423  0.55081934  0.13363806  1
  Rb  Rb6  1  0.96270444  0.87289293  0.93544189  1
  Rb  Rb7  1  0.98888668  0.84991078  0.50580432  1
  Sb  Sb0  1  0.04008288  0.11225829  0.30112234  1
  Sb  Sb1  1  0.25319932  0.71655485  0.17615900  1
  Sb  Sb2  1  0.54008288  0.88774171  0.69887766  1
  Sb  Sb3  1  0.75319932  0.28344515  0.82384100  1
  N  N0  1  0.19291494  0.61406121  0.65963930  1
  N  N1  1  0.22779889  0.08707639  0.77107666  1
  N  N2  1  0.46985514  0.76005736  0.95455286  1
  N  N3  1  0.49030314  0.72911934  0.42815345  1
  N  N4  1  0.69291494  0.38593879  0.34036070  1
  N  N5  1  0.72779889  0.91292361  0.22892334  1
  N  N6  1  0.96985514  0.23994264  0.04544714  1
  N  N7  1  0.99030314  0.27088066  0.57184655  1
  O  O0  1  0.09651234  0.24150706  0.11848633  1
  O  O1  1  0.11009512  0.62610426  0.56704382  1
  O  O2  1  0.12169378  0.27890635  0.50367525  1
  O  O3  1  0.11791501  0.64801492  0.76182099  1
  O  O4  1  0.16080340  0.19158871  0.78883565  1
  O  O5  1  0.21451107  0.02456617  0.84637253  1
  O  O6  1  0.31421738  0.04162218  0.67238216  1
  O  O7  1  0.34887888  0.56712416  0.64986163  1
  O  O8  1  0.36604182  0.84969938  0.98755029  1
  O  O9  1  0.38304315  0.81814248  0.45662268  1
  O  O10  1  0.44720906  0.66579503  0.99640445  1
  O  O11  1  0.46802170  0.64592817  0.33129676  1
  O  O12  1  0.59651234  0.75849294  0.88151367  1
  O  O13  1  0.61009512  0.37389574  0.43295618  1
  O  O14  1  0.62169378  0.72109365  0.49632475  1
  O  O15  1  0.61791501  0.35198508  0.23817901  1
  O  O16  1  0.66080340  0.80841129  0.21116435  1
  O  O17  1  0.71451107  0.97543383  0.15362747  1
  O  O18  1  0.81421738  0.95837782  0.32761784  1
  O  O19  1  0.84887888  0.43287584  0.35013837  1
  O  O20  1  0.86604182  0.15030062  0.01244971  1
  O  O21  1  0.88304315  0.18185752  0.54337732  1
  O  O22  1  0.94720906  0.33420497  0.00359555  1
  O  O23  1  0.96802170  0.35407183  0.66870324  1
  F  F0  1  0.05987892  0.68432748  0.05389965  1
  F  F1  1  0.06280460  0.67427830  0.28159426  1
  F  F2  1  0.10754964  0.97338053  0.16607972  1
  F  F3  1  0.15611098  0.01905898  0.40118910  1
  F  F4  1  0.29277445  0.17089511  0.28910183  1
  F  F5  1  0.29695556  0.53935078  0.12837778  1
  F  F6  1  0.55987892  0.31567252  0.94610035  1
  F  F7  1  0.56280460  0.32572170  0.71840574  1
  F  F8  1  0.60754964  0.02661947  0.83392028  1
  F  F9  1  0.65611098  0.98094102  0.59881090  1
  F  F10  1  0.79277445  0.82910489  0.71089817  1
  F  F11  1  0.79695556  0.46064922  0.87162222  1
loop_
_geom_bond_atom_site_label_1
_geom_bond_atom_site_label_2
_geom_bond_distance
_geom_bond_site_symmetry_2
N0 O7 1.257699 1_555
N0 O3 1.263659 1_555
N0 O1 1.264093 1_555
N1 O4 1.242625 1_555
N1 O5 1.252837 1_555
N1 O6 1.285205 1_555
N2 O8 1.244177 1_555
N2 O12 1.252278 1_555
N2 O10 1.284463 1_555
N3 O9 1.251082 1_555
N3 O14 1.263365 1_555
N3 O11 1.265090 1_555
N4 O19 1.257699 1_555
N4 O15 1.263659 1_555
N4 O13 1.264093 1_555
N5 O16 1.242625 1_555
N5 O17 1.252837 1_555
N5 O18 1.285205 1_555
N6 O20 1.244177 1_555
N6 O0 1.252278 1_655
N6 O22 1.284463 1_555
N7 O21 1.251082 1_555
N7 O2 1.263365 1_655
N7 O23 1.265090 1_555
O0 Rb2 2.984825 1_555
O0 Rb0 3.142787 1_555
O1 Rb7 2.925596 1_455
O1 Rb0 2.993782 1_555
O1 Rb4 3.088862 1_455
O2 Rb0 3.029884 1_555
O2 Rb3 3.058394 1_555
O3 Rb1 2.961959 1_555
O3 Rb6 3.011404 1_455
O3 Rb4 3.117342 1_455
O4 Rb1 2.876149 1_555
O5 Rb6 2.883252 1_445
O5 Rb2 3.075452 1_556
O6 Rb3 2.939202 1_555
O6 Rb7 3.452480 1_445
O7 Rb4 2.870057 1_555
O7 Rb1 3.196249 1_555
O8 Rb6 3.056560 1_455
O8 Rb2 3.098617 1_566
O9 Rb7 2.962967 1_455
O10 Rb1 2.903146 1_555
O10 Rb5 3.185747 1_556
O11 Rb0 2.890637 1_555
O11 Rb5 3.051208 1_555
O12 Rb6 2.984825 1_555
O12 Rb4 3.142787 1_555
O13 Rb3 2.925596 1_555
O13 Rb4 2.993782 1_555
O13 Rb0 3.088862 1_555
O14 Rb4 3.029884 1_555
O14 Rb7 3.058394 1_555
O15 Rb5 2.961959 1_555
O15 Rb2 3.011404 1_555
O15 Rb0 3.117342 1_555
O16 Rb5 2.876149 1_555
O17 Rb2 2.883252 1_565
O17 Rb6 3.075452 1_554
O18 Rb7 2.939202 1_555
O18 Rb3 3.452480 1_565
O19 Rb0 2.870057 1_655
O19 Rb5 3.196249 1_555
O20 Rb2 3.056560 1_555
O20 Rb6 3.098617 1_544
O21 Rb3 2.962967 1_555
O22 Rb5 2.903146 1_555
O22 Rb1 3.185747 1_654
O23 Rb4 2.890637 1_555
O23 Rb1 3.051208 1_655
F0 Sb1 1.967187 1_555
F0 Rb6 2.893324 1_454
F0 Rb5 3.013527 1_455
F0 Rb1 3.257716 1_554
F1 Sb1 1.990613 1_555
F1 Rb7 2.862454 1_455
F1 Rb5 2.993418 1_455
F1 Rb0 3.164902 1_555
F2 Sb0 1.958831 1_565
F2 Rb6 2.807777 1_454
F3 Sb0 1.944365 1_555
F3 Rb7 2.788823 1_445
F3 Rb3 2.917411 1_555
F4 Sb0 1.992388 1_555
F4 Rb2 2.794145 1_555
F4 Rb3 2.825662 1_555
F4 Rb0 2.976505 1_555
F5 Sb1 1.952820 1_555
F5 Rb1 2.938353 1_554
F5 Rb0 2.997531 1_555
F5 Rb5 3.329374 1_555
F6 Sb3 1.967187 1_555
F6 Rb2 2.893324 1_556
F6 Rb1 3.013527 1_555
F6 Rb5 3.257716 1_556
F7 Sb3 1.990613 1_555
F7 Rb3 2.862454 1_555
F7 Rb1 2.993418 1_555
F7 Rb4 3.164902 1_555
F8 Sb2 1.958831 1_545
F8 Rb2 2.807777 1_556
F9 Sb2 1.944365 1_555
F9 Rb3 2.788823 1_565
F9 Rb7 2.917411 1_555
F10 Sb2 1.992388 1_555
F10 Rb6 2.794145 1_555
F10 Rb7 2.825662 1_555
F10 Rb4 2.976505 1_555
F11 Sb3 1.952820 1_555
F11 Rb5 2.938353 1_556
F11 Rb4 2.997531 1_555
F11 Rb1 3.329374 1_655
