# generated using pymatgen
data_Zr8As5
_symmetry_space_group_name_H-M   'P 1'
_cell_length_a   3.74925600
_cell_length_b   10.23768400
_cell_length_c   28.82554571
_cell_angle_alpha   89.16096101
_cell_angle_beta   90.00000000
_cell_angle_gamma   90.00000000
_symmetry_Int_Tables_number   1
_chemical_formula_structural   Zr8As5
_chemical_formula_sum   'Zr32 As20'
_cell_volume   1106.31241304
_cell_formula_units_Z   4
loop_
 _symmetry_equiv_pos_site_id
 _symmetry_equiv_pos_as_xyz
  1  'x, y, z'
loop_
 _atom_site_type_symbol
 _atom_site_label
 _atom_site_symmetry_multiplicity
 _atom_site_fract_x
 _atom_site_fract_y
 _atom_site_fract_z
 _atom_site_occupancy
  Zr  Zr0  1  0.50000000  0.24843600  0.98875600  1
  Zr  Zr1  1  0.50000000  0.75156400  0.01124400  1
  Zr  Zr2  1  0.50000000  0.21076300  0.49494300  1
  Zr  Zr3  1  0.50000000  0.78923700  0.50505700  1
  Zr  Zr4  1  0.50000000  0.49730200  0.76467000  1
  Zr  Zr5  1  0.50000000  0.50269800  0.23533000  1
  Zr  Zr6  1  0.50000000  0.00213500  0.26482600  1
  Zr  Zr7  1  0.50000000  0.99786500  0.73517400  1
  Zr  Zr8  1  0.00000000  0.25040300  0.71655600  1
  Zr  Zr9  1  0.00000000  0.74959700  0.28344400  1
  Zr  Zr10  1  0.00000000  0.25181400  0.21610100  1
  Zr  Zr11  1  0.00000000  0.74818600  0.78389900  1
  Zr  Zr12  1  0.50000000  0.49657100  0.58107700  1
  Zr  Zr13  1  0.50000000  0.50342900  0.41892300  1
  Zr  Zr14  1  0.50000000  0.01672900  0.08284300  1
  Zr  Zr15  1  0.50000000  0.98327100  0.91715700  1
  Zr  Zr16  1  0.00000000  0.08488500  0.82842400  1
  Zr  Zr17  1  0.00000000  0.91511500  0.17157600  1
  Zr  Zr18  1  0.00000000  0.40723000  0.32959000  1
  Zr  Zr19  1  0.00000000  0.59277000  0.67041000  1
  Zr  Zr20  1  0.50000000  0.33646400  0.87349800  1
  Zr  Zr21  1  0.50000000  0.66353600  0.12650200  1
  Zr  Zr22  1  0.50000000  0.16208700  0.37309200  1
  Zr  Zr23  1  0.50000000  0.83791300  0.62690800  1
  Zr  Zr24  1  0.50000000  0.18014800  0.62135700  1
  Zr  Zr25  1  0.50000000  0.81985200  0.37864300  1
  Zr  Zr26  1  0.50000000  0.32807800  0.11813600  1
  Zr  Zr27  1  0.50000000  0.67192200  0.88186400  1
  Zr  Zr28  1  0.00000000  0.50000000  0.50000000  1
  Zr  Zr29  1  0.00000000  0.00000000  0.00000000  1
  Zr  Zr30  1  0.00000000  0.00199400  0.55724200  1
  Zr  Zr31  1  0.00000000  0.99800600  0.44275800  1
  As  As0  1  0.00000000  0.02035300  0.66215500  1
  As  As1  1  0.00000000  0.97964700  0.33784500  1
  As  As2  1  0.00000000  0.48164700  0.16273700  1
  As  As3  1  0.00000000  0.51835300  0.83726300  1
  As  As4  1  0.50000000  0.40051800  0.67149100  1
  As  As5  1  0.50000000  0.59948200  0.32850900  1
  As  As6  1  0.50000000  0.10802500  0.17099100  1
  As  As7  1  0.50000000  0.89197500  0.82900900  1
  As  As8  1  0.00000000  0.28742600  0.56106700  1
  As  As9  1  0.00000000  0.71257400  0.43893300  1
  As  As10  1  0.00000000  0.22056000  0.05881900  1
  As  As11  1  0.00000000  0.77944000  0.94118100  1
  As  As12  1  0.50000000  0.23814400  0.78606900  1
  As  As13  1  0.50000000  0.76185600  0.21393100  1
  As  As14  1  0.50000000  0.26163800  0.28502800  1
  As  As15  1  0.50000000  0.73836200  0.71497200  1
  As  As16  1  0.00000000  0.18256500  0.92039700  1
  As  As17  1  0.00000000  0.81743500  0.07960300  1
  As  As18  1  0.00000000  0.29803300  0.42541600  1
  As  As19  1  0.00000000  0.70196700  0.57458400  1
loop_
_geom_bond_atom_site_label_1
_geom_bond_atom_site_label_2
_geom_bond_distance
_geom_bond_site_symmetry_2
As0 Zr24 2.741749 1_555
As0 Zr24 2.741749 1_455
As0 Zr7 2.825469 1_445
As0 Zr7 2.825469 1_545
As0 Zr23 2.844403 1_445
As0 Zr23 2.844403 1_545
As0 Zr8 2.848524 1_555
As0 Zr30 3.032755 1_555
As1 Zr25 2.741749 1_555
As1 Zr25 2.741749 1_455
As1 Zr6 2.825469 1_465
As1 Zr6 2.825469 1_565
As1 Zr22 2.844403 1_565
As1 Zr22 2.844403 1_465
As1 Zr9 2.848524 1_555
As1 Zr31 3.032755 1_555
As2 Zr26 2.774546 1_455
As2 Zr26 2.774546 1_555
As2 Zr10 2.792241 1_555
As2 Zr5 2.820031 1_455
As2 Zr5 2.820031 1_555
As2 Zr21 2.831207 1_455
As2 Zr21 2.831207 1_555
As3 Zr27 2.774546 1_455
As3 Zr27 2.774546 1_555
As3 Zr11 2.792241 1_555
As3 Zr4 2.820031 1_455
As3 Zr4 2.820031 1_555
As3 Zr20 2.831207 1_555
As3 Zr20 2.831207 1_455
As4 Zr24 2.696999 1_555
As4 Zr19 2.717954 1_655
As4 Zr19 2.717954 1_555
As4 Zr8 2.739538 1_555
As4 Zr8 2.739538 1_655
As4 Zr12 2.772073 1_555
As4 Zr4 2.876450 1_555
As5 Zr25 2.696999 1_555
As5 Zr18 2.717954 1_655
As5 Zr18 2.717954 1_555
As5 Zr9 2.739538 1_655
As5 Zr9 2.739538 1_555
As5 Zr13 2.772073 1_555
As5 Zr5 2.876450 1_555
As6 Zr26 2.701113 1_555
As6 Zr14 2.720181 1_555
As6 Zr17 2.722861 1_645
As6 Zr17 2.722861 1_545
As6 Zr10 2.725455 1_555
As6 Zr10 2.725455 1_655
As6 Zr6 2.899227 1_555
As7 Zr27 2.701113 1_555
As7 Zr15 2.720181 1_555
As7 Zr16 2.722861 1_565
As7 Zr16 2.722861 1_665
As7 Zr11 2.725455 1_555
As7 Zr11 2.725455 1_655
As7 Zr7 2.899227 1_555
As8 Zr24 2.772150 1_455
As8 Zr24 2.772150 1_555
As8 Zr28 2.778949 1_555
As8 Zr2 2.794119 1_555
As8 Zr2 2.794119 1_455
As8 Zr12 2.909925 1_555
As8 Zr12 2.909925 1_455
As8 Zr30 2.925855 1_555
As9 Zr25 2.772150 1_455
As9 Zr25 2.772150 1_555
As9 Zr28 2.778949 1_555
As9 Zr3 2.794119 1_555
As9 Zr3 2.794119 1_455
As9 Zr13 2.909925 1_455
As9 Zr13 2.909925 1_555
As9 Zr31 2.925855 1_555
As10 Zr0 2.767236 1_554
As10 Zr0 2.767236 1_454
As10 Zr26 2.775705 1_455
As10 Zr26 2.775705 1_555
As10 Zr29 2.843498 1_555
As10 Zr14 2.882018 1_455
As10 Zr14 2.882018 1_555
As11 Zr1 2.767236 1_456
As11 Zr1 2.767236 1_556
As11 Zr27 2.775705 1_455
As11 Zr27 2.775705 1_555
As11 Zr29 2.843498 1_566
As11 Zr15 2.882018 1_455
As11 Zr15 2.882018 1_555
As12 Zr4 2.715126 1_555
As12 Zr16 2.722233 1_555
As12 Zr16 2.722233 1_655
As12 Zr20 2.727421 1_555
As12 Zr8 2.745475 1_555
As12 Zr8 2.745475 1_655
As12 Zr7 2.882554 1_545
As13 Zr5 2.715126 1_555
As13 Zr17 2.722233 1_555
As13 Zr17 2.722233 1_655
As13 Zr21 2.727421 1_555
As13 Zr9 2.745475 1_655
As13 Zr9 2.745475 1_555
As13 Zr6 2.882554 1_565
As14 Zr22 2.721560 1_555
As14 Zr18 2.727997 1_655
As14 Zr18 2.727997 1_555
As14 Zr6 2.728100 1_555
As14 Zr10 2.734557 1_555
As14 Zr10 2.734557 1_655
As14 Zr5 2.835354 1_555
As15 Zr23 2.721560 1_555
As15 Zr19 2.727997 1_555
As15 Zr19 2.727997 1_655
As15 Zr7 2.728100 1_555
As15 Zr11 2.734557 1_555
As15 Zr11 2.734557 1_655
As15 Zr4 2.835354 1_555
As16 Zr15 2.773336 1_445
As16 Zr15 2.773336 1_545
As16 Zr20 2.786014 1_555
As16 Zr20 2.786014 1_455
As16 Zr0 2.809044 1_455
As16 Zr0 2.809044 1_555
As16 Zr16 2.847173 1_555
As16 Zr29 2.938181 1_556
As17 Zr14 2.773336 1_465
As17 Zr14 2.773336 1_565
As17 Zr21 2.786014 1_555
As17 Zr21 2.786014 1_455
As17 Zr1 2.809044 1_555
As17 Zr1 2.809044 1_455
As17 Zr17 2.847173 1_555
As17 Zr29 2.938181 1_565
As18 Zr22 2.790629 1_555
As18 Zr22 2.790629 1_455
As18 Zr13 2.821244 1_455
As18 Zr13 2.821244 1_555
As18 Zr2 2.876919 1_455
As18 Zr2 2.876919 1_555
As18 Zr18 2.964670 1_555
As18 Zr28 3.004604 1_555
As18 Zr31 3.104760 1_545
As19 Zr23 2.790629 1_555
As19 Zr23 2.790629 1_455
As19 Zr12 2.821244 1_555
As19 Zr12 2.821244 1_455
As19 Zr3 2.876919 1_455
As19 Zr3 2.876919 1_555
As19 Zr19 2.964670 1_555
As19 Zr28 3.004604 1_555
As19 Zr30 3.104760 1_565
