# generated using pymatgen
data_KCr2Fe3O14
_symmetry_space_group_name_H-M   'P 1'
_cell_length_a   7.29099171
_cell_length_b   7.29099171
_cell_length_c   7.29099233
_cell_angle_alpha   59.36045986
_cell_angle_beta   59.36045986
_cell_angle_gamma   59.36046807
_symmetry_Int_Tables_number   1
_chemical_formula_structural   KCr2Fe3O14
_chemical_formula_sum   'K1 Cr2 Fe3 O14'
_cell_volume   270.06999705
_cell_formula_units_Z   1
loop_
 _symmetry_equiv_pos_site_id
 _symmetry_equiv_pos_as_xyz
  1  'x, y, z'
loop_
 _atom_site_type_symbol
 _atom_site_label
 _atom_site_symmetry_multiplicity
 _atom_site_fract_x
 _atom_site_fract_y
 _atom_site_fract_z
 _atom_site_occupancy
  K  K0  1  0.00000000  0.00000000  0.00000000  1
  Cr  Cr0  1  0.68807000  0.68807000  0.68807000  1
  Cr  Cr1  1  0.31193000  0.31193000  0.31193000  1
  Fe  Fe0  1  0.00000000  0.50000000  0.00000000  1
  Fe  Fe1  1  0.00000000  0.00000000  0.50000000  1
  Fe  Fe2  1  0.50000000  0.00000000  0.00000000  1
  O  O0  1  0.59834300  0.59834300  0.59834300  1
  O  O1  1  0.40165700  0.40165700  0.40165700  1
  O  O2  1  0.84755100  0.47008500  0.84755100  1
  O  O3  1  0.84755100  0.84755100  0.47008500  1
  O  O4  1  0.47008500  0.84755100  0.84755100  1
  O  O5  1  0.15244900  0.52991500  0.15244900  1
  O  O6  1  0.15244900  0.15244900  0.52991500  1
  O  O7  1  0.52991500  0.15244900  0.15244900  1
  O  O8  1  0.74094800  0.09054200  0.74094800  1
  O  O9  1  0.74094800  0.74094800  0.09054200  1
  O  O10  1  0.09054200  0.74094800  0.74094800  1
  O  O11  1  0.25905200  0.90945800  0.25905200  1
  O  O12  1  0.25905200  0.25905200  0.90945800  1
  O  O13  1  0.90945800  0.25905200  0.25905200  1
loop_
_geom_bond_atom_site_label_1
_geom_bond_atom_site_label_2
_geom_bond_distance
_geom_bond_site_symmetry_2
K0 O5 2.776900 1_545
K0 O4 2.776900 1_544
K0 O2 2.776900 1_454
K0 O7 2.776900 1_455
K0 O3 2.776900 1_445
K0 O6 2.776900 1_554
K0 O12 2.943617 1_554
K0 O9 2.943617 1_445
K0 O13 2.943618 1_455
K0 O11 2.943618 1_545
K0 O10 2.943618 1_544
K0 O8 2.943618 1_454
Cr0 O0 1.610155 1_555
Cr0 O3 1.685487 1_555
Cr0 O2 1.685487 1_555
Cr0 O4 1.685487 1_555
Cr1 O1 1.610155 1_555
Cr1 O6 1.685487 1_555
Cr1 O5 1.685487 1_555
Cr1 O7 1.685487 1_555
Fe0 O10 1.902237 1_554
Fe0 O13 1.902237 1_455
Fe0 O9 1.902238 1_455
Fe0 O12 1.902238 1_554
Fe0 O5 2.066860 1_555
Fe0 O2 2.066860 1_454
Fe1 O8 1.902238 1_455
Fe1 O10 1.902238 1_545
Fe1 O13 1.902238 1_455
Fe1 O11 1.902238 1_545
Fe1 O6 2.066860 1_555
Fe1 O3 2.066860 1_445
Fe2 O8 1.902237 1_554
Fe2 O11 1.902237 1_545
Fe2 O9 1.902238 1_545
Fe2 O12 1.902238 1_554
Fe2 O7 2.066860 1_555
Fe2 O4 2.066860 1_544
