# generated using pymatgen
data_SrTi4Bi4O15
_symmetry_space_group_name_H-M   'P 1'
_cell_length_a   20.78753291
_cell_length_b   20.78753291
_cell_length_c   5.55620900
_cell_angle_alpha   90.00000000
_cell_angle_beta   90.00000000
_cell_angle_gamma   164.79938861
_symmetry_Int_Tables_number   1
_chemical_formula_structural   SrTi4Bi4O15
_chemical_formula_sum   'Sr2 Ti8 Bi8 O30'
_cell_volume   629.52979963
_cell_formula_units_Z   2
loop_
 _symmetry_equiv_pos_site_id
 _symmetry_equiv_pos_as_xyz
  1  'x, y, z'
loop_
 _atom_site_type_symbol
 _atom_site_label
 _atom_site_symmetry_multiplicity
 _atom_site_fract_x
 _atom_site_fract_y
 _atom_site_fract_z
 _atom_site_occupancy
  Sr  Sr0  1  0.75784500  0.75784500  0.76053100  1
  Sr  Sr1  1  0.24215500  0.24215500  0.26053100  1
  Ti  Ti0  1  0.20445200  0.30037900  0.76894400  1
  Ti  Ti1  1  0.30037900  0.20445200  0.76894400  1
  Ti  Ti2  1  0.79554800  0.69962100  0.26894400  1
  Ti  Ti3  1  0.69962100  0.79554800  0.26894400  1
  Ti  Ti4  1  0.09914700  0.40345100  0.77034600  1
  Ti  Ti5  1  0.40345100  0.09914700  0.77034600  1
  Ti  Ti6  1  0.90085300  0.59654900  0.27034600  1
  Ti  Ti7  1  0.59654900  0.90085300  0.27034600  1
  Bi  Bi0  1  0.85931000  0.65362000  0.71759400  1
  Bi  Bi1  1  0.65362000  0.85931000  0.71759400  1
  Bi  Bi2  1  0.14069000  0.34638000  0.21759400  1
  Bi  Bi3  1  0.34638000  0.14069000  0.21759400  1
  Bi  Bi4  1  0.93984100  0.50147000  0.73311900  1
  Bi  Bi5  1  0.50147100  0.93984100  0.73311900  1
  Bi  Bi6  1  0.06015900  0.49853000  0.23311900  1
  Bi  Bi7  1  0.49853000  0.06015900  0.23311900  1
  O  O0  1  0.11724800  0.50642400  0.78475100  1
  O  O1  1  0.50642400  0.11724800  0.78475100  1
  O  O2  1  0.88275200  0.49357600  0.28475100  1
  O  O3  1  0.49357600  0.88275200  0.28475100  1
  O  O4  1  0.51537700  0.40806700  0.09083200  1
  O  O5  1  0.40806700  0.51537700  0.09083200  1
  O  O6  1  0.48462300  0.59193300  0.59083200  1
  O  O7  1  0.59193300  0.48462300  0.59083200  1
  O  O8  1  0.75662100  0.25445700  0.99980300  1
  O  O9  1  0.25445700  0.75662100  0.99980300  1
  O  O10  1  0.24337900  0.74554300  0.49980300  1
  O  O11  1  0.74554300  0.24337900  0.49980300  1
  O  O12  1  0.07424900  0.98871300  0.52486500  1
  O  O13  1  0.98871300  0.07424900  0.52486500  1
  O  O14  1  0.92575100  0.01128700  0.02486500  1
  O  O15  1  0.01128700  0.92575100  0.02486500  1
  O  O16  1  0.09291200  0.28399700  0.81744900  1
  O  O17  1  0.28399700  0.09291200  0.81744900  1
  O  O18  1  0.90708800  0.71600300  0.31744900  1
  O  O19  1  0.71600300  0.90708800  0.31744900  1
  O  O20  1  0.30024600  0.30024600  0.80409300  1
  O  O21  1  0.69975400  0.69975400  0.30409300  1
  O  O22  1  0.11853100  0.82174400  0.56949000  1
  O  O23  1  0.82174400  0.11853100  0.56949000  1
  O  O24  1  0.88146900  0.17825600  0.06949000  1
  O  O25  1  0.17825600  0.88146900  0.06949000  1
  O  O26  1  0.65147400  0.37478500  0.02749400  1
  O  O27  1  0.37478500  0.65147400  0.02749400  1
  O  O28  1  0.34852600  0.62521500  0.52749400  1
  O  O29  1  0.62521500  0.34852600  0.52749400  1
loop_
_geom_bond_atom_site_label_1
_geom_bond_atom_site_label_2
_geom_bond_distance
_geom_bond_site_symmetry_2
Bi0 O18 2.263915 1_555
Bi0 O29 2.335258 1_555
Bi0 O22 2.362402 1_655
Bi0 O17 2.457844 1_665
Bi0 O7 2.458592 1_555
Bi0 O26 2.625904 1_556
Bi1 O19 2.263915 1_555
Bi1 O28 2.335258 1_555
Bi1 O23 2.362402 1_565
Bi1 O16 2.457844 1_665
Bi1 O6 2.458592 1_555
Bi1 O27 2.625904 1_556
Bi2 O16 2.263915 1_554
Bi2 O27 2.335258 1_555
Bi2 O24 2.362402 1_455
Bi2 O19 2.457844 1_445
Bi2 O5 2.458592 1_555
Bi2 O28 2.625904 1_555
Bi3 O17 2.263915 1_554
Bi3 O26 2.335258 1_555
Bi3 O25 2.362402 1_545
Bi3 O18 2.457844 1_445
Bi3 O4 2.458592 1_555
Bi3 O29 2.625904 1_555
Bi4 O11 2.226058 1_555
Bi4 O8 2.307070 1_555
Bi4 O10 2.334233 1_655
Bi4 O9 2.480090 1_655
Bi4 O1 2.482611 1_555
Bi4 O2 2.695484 1_555
Bi5 O10 2.226072 1_555
Bi5 O9 2.307083 1_555
Bi5 O11 2.334242 1_565
Bi5 O8 2.480098 1_565
Bi5 O0 2.482606 1_555
Bi5 O3 2.695476 1_555
Bi6 O9 2.226058 1_554
Bi6 O10 2.307070 1_555
Bi6 O8 2.334233 1_454
Bi6 O11 2.480090 1_455
Bi6 O3 2.482611 1_555
Bi6 O0 2.695484 1_554
Bi7 O8 2.226058 1_554
Bi7 O11 2.307070 1_555
Bi7 O9 2.334233 1_544
Bi7 O10 2.480090 1_545
Bi7 O2 2.482611 1_555
Bi7 O1 2.695484 1_554
O0 Ti4 1.781978 1_555
O1 Ti5 1.781978 1_555
O2 Ti6 1.781978 1_555
O3 Ti7 1.781978 1_555
O4 Ti2 1.872227 1_555
O4 Ti1 2.139698 1_554
O4 Sr1 2.689935 1_555
O5 Ti3 1.872227 1_555
O5 Ti0 2.139698 1_554
O5 Sr1 2.689935 1_555
O6 Ti0 1.872227 1_555
O6 Ti3 2.139698 1_555
O6 Sr0 2.689935 1_555
O7 Ti1 1.872227 1_555
O7 Ti2 2.139698 1_555
O7 Sr0 2.689935 1_555
O12 Ti1 1.833278 1_565
O12 Ti2 2.122446 1_455
O12 Sr1 2.570087 1_565
O12 Sr0 2.661737 1_455
O13 Ti0 1.833278 1_655
O13 Ti3 2.122446 1_545
O13 Sr1 2.570087 1_655
O13 Sr0 2.661737 1_545
O14 Ti3 1.833278 1_545
O14 Ti0 2.122446 1_654
O14 Sr0 2.570087 1_544
O14 Sr1 2.661737 1_655
O15 Ti2 1.833278 1_455
O15 Ti1 2.122446 1_564
O15 Sr0 2.570087 1_454
O15 Sr1 2.661737 1_565
O16 Ti0 2.010165 1_555
O16 Ti4 2.372801 1_555
O17 Ti1 2.010165 1_555
O17 Ti5 2.372801 1_555
O18 Ti2 2.010165 1_555
O18 Ti6 2.372801 1_555
O19 Ti3 2.010165 1_555
O19 Ti7 2.372801 1_555
O20 Ti1 2.003530 1_555
O20 Ti0 2.003530 1_555
O20 Sr0 2.527854 1_555
O20 Sr1 2.556103 1_556
O21 Ti2 2.003530 1_555
O21 Ti3 2.003530 1_555
O21 Sr1 2.527854 1_555
O21 Sr0 2.556103 1_555
O22 Ti5 1.913035 1_565
O22 Ti6 2.066208 1_455
O23 Ti4 1.913035 1_655
O23 Ti7 2.066208 1_545
O24 Ti7 1.913035 1_545
O24 Ti4 2.066208 1_654
O25 Ti6 1.913035 1_455
O25 Ti5 2.066208 1_564
O26 Ti6 1.955103 1_555
O26 Ti5 2.106662 1_554
O27 Ti7 1.955103 1_555
O27 Ti4 2.106662 1_554
O28 Ti4 1.955103 1_555
O28 Ti7 2.106662 1_555
O29 Ti5 1.955103 1_555
O29 Ti6 2.106662 1_555
