# generated using pymatgen
data_Dy2Mn12Ga5
_symmetry_space_group_name_H-M   'P 1'
_cell_length_a   8.68823800
_cell_length_b   8.69476400
_cell_length_c   8.79643259
_cell_angle_alpha   60.38160253
_cell_angle_beta   90.00000000
_cell_angle_gamma   90.00000000
_symmetry_Int_Tables_number   1
_chemical_formula_structural   Dy2Mn12Ga5
_chemical_formula_sum   'Dy4 Mn24 Ga10'
_cell_volume   577.67542415
_cell_formula_units_Z   2
loop_
 _symmetry_equiv_pos_site_id
 _symmetry_equiv_pos_as_xyz
  1  'x, y, z'
loop_
 _atom_site_type_symbol
 _atom_site_label
 _atom_site_symmetry_multiplicity
 _atom_site_fract_x
 _atom_site_fract_y
 _atom_site_fract_z
 _atom_site_occupancy
  Dy  Dy0  1  0.25000000  0.99855200  0.00289600  1
  Dy  Dy1  1  0.75000000  0.00144800  0.99710400  1
  Dy  Dy2  1  0.75000000  0.66144200  0.67711600  1
  Dy  Dy3  1  0.25000000  0.33855800  0.32288400  1
  Mn  Mn0  1  0.25000000  0.96956500  0.35894600  1
  Mn  Mn1  1  0.25000000  0.67912900  0.96223800  1
  Mn  Mn2  1  0.25000000  0.35701700  0.67126800  1
  Mn  Mn3  1  0.25000000  0.97171600  0.67126800  1
  Mn  Mn4  1  0.25000000  0.67148800  0.35894600  1
  Mn  Mn5  1  0.25000000  0.35863300  0.96223800  1
  Mn  Mn6  1  0.75000000  0.03043500  0.64105400  1
  Mn  Mn7  1  0.75000000  0.32087100  0.03776200  1
  Mn  Mn8  1  0.75000000  0.64298300  0.32873200  1
  Mn  Mn9  1  0.75000000  0.02828400  0.32873200  1
  Mn  Mn10  1  0.75000000  0.32851200  0.64105400  1
  Mn  Mn11  1  0.75000000  0.64136700  0.03776200  1
  Mn  Mn12  1  0.51837000  0.31692400  0.83793100  1
  Mn  Mn13  1  0.51475300  0.84347200  0.31305600  1
  Mn  Mn14  1  0.51837000  0.84514500  0.83793100  1
  Mn  Mn15  1  0.48163000  0.68307600  0.16206900  1
  Mn  Mn16  1  0.48524700  0.15652800  0.68694400  1
  Mn  Mn17  1  0.48163000  0.15485500  0.16206900  1
  Mn  Mn18  1  0.01837000  0.68307600  0.16206900  1
  Mn  Mn19  1  0.01475300  0.15652800  0.68694400  1
  Mn  Mn20  1  0.01837000  0.15485500  0.16206900  1
  Mn  Mn21  1  0.98163000  0.31692400  0.83793100  1
  Mn  Mn22  1  0.98524700  0.84347200  0.31305600  1
  Mn  Mn23  1  0.98163000  0.84514500  0.83793100  1
  Ga  Ga0  1  0.39330500  0.66662000  0.66676100  1
  Ga  Ga1  1  0.60669500  0.33338000  0.33323900  1
  Ga  Ga2  1  0.89330500  0.33338000  0.33323900  1
  Ga  Ga3  1  0.10669500  0.66662000  0.66676100  1
  Ga  Ga4  1  0.50000000  0.00000000  0.50000000  1
  Ga  Ga5  1  0.50000000  0.50000000  0.00000000  1
  Ga  Ga6  1  0.50000000  0.50000000  0.50000000  1
  Ga  Ga7  1  0.00000000  0.00000000  0.50000000  1
  Ga  Ga8  1  0.00000000  0.50000000  0.00000000  1
  Ga  Ga9  1  0.00000000  0.50000000  0.50000000  1
loop_
_geom_bond_atom_site_label_1
_geom_bond_atom_site_label_2
_geom_bond_distance
_geom_bond_site_symmetry_2
Dy0 Mn1 2.970380 1_554
Dy0 Mn5 2.970380 1_564
Dy0 Mn0 3.015380 1_555
Dy0 Mn4 3.015383 1_555
Dy0 Mn3 3.039238 1_554
Dy0 Mn2 3.039243 1_564
Dy0 Mn18 3.120607 1_555
Dy0 Mn15 3.120607 1_555
Dy0 Mn17 3.120607 1_565
Dy0 Mn20 3.120607 1_565
Dy0 Mn16 3.164650 1_564
Dy0 Mn19 3.164650 1_564
Dy0 Mn22 3.304025 1_455
Dy0 Mn13 3.304025 1_555
Dy0 Mn21 3.351811 1_464
Dy0 Mn23 3.351811 1_454
Dy0 Mn12 3.351811 1_564
Dy0 Mn14 3.351811 1_554
Dy1 Mn11 2.970380 1_546
Dy1 Mn7 2.970380 1_556
Dy1 Mn6 3.015380 1_555
Dy1 Mn10 3.015383 1_555
Dy1 Mn9 3.039238 1_556
Dy1 Mn8 3.039243 1_546
Dy1 Mn14 3.120607 1_545
Dy1 Mn23 3.120607 1_545
Dy1 Mn12 3.120607 1_555
Dy1 Mn21 3.120607 1_555
Dy1 Mn13 3.164650 1_546
Dy1 Mn22 3.164650 1_546
Dy1 Mn19 3.304025 1_655
Dy1 Mn16 3.304025 1_555
Dy1 Mn18 3.351811 1_646
Dy1 Mn15 3.351811 1_546
Dy1 Mn17 3.351811 1_556
Dy1 Mn20 3.351811 1_656
Dy2 Mn10 3.063958 1_555
Dy2 Mn6 3.063967 1_565
Dy2 Mn7 3.089861 1_556
Dy2 Mn11 3.089861 1_556
Dy2 Ga3 3.100063 1_655
Dy2 Ga0 3.100063 1_555
Dy2 Mn9 3.146947 1_565
Dy2 Mn8 3.146952 1_555
Dy2 Ga5 3.288519 1_556
Dy2 Ga8 3.288519 1_656
Dy2 Mn12 3.291755 1_555
Dy2 Mn14 3.291755 1_555
Dy2 Mn23 3.291755 1_555
Dy2 Mn21 3.291755 1_555
Dy2 Ga6 3.358157 1_555
Dy2 Ga9 3.358157 1_655
Dy2 Ga7 3.358157 1_665
Dy2 Ga4 3.358157 1_565
Dy2 Mn22 3.453700 1_555
Dy2 Mn13 3.453700 1_555
Dy3 Mn4 3.063958 1_555
Dy3 Mn0 3.063967 1_545
Dy3 Mn5 3.089861 1_554
Dy3 Mn1 3.089861 1_554
Dy3 Ga1 3.100063 1_555
Dy3 Ga2 3.100063 1_455
Dy3 Mn3 3.146947 1_545
Dy3 Mn2 3.146952 1_555
Dy3 Ga8 3.288519 1_555
Dy3 Ga5 3.288519 1_555
Dy3 Mn17 3.291755 1_555
Dy3 Mn20 3.291755 1_555
Dy3 Mn18 3.291755 1_555
Dy3 Mn15 3.291755 1_555
Dy3 Ga7 3.358157 1_555
Dy3 Ga4 3.358157 1_555
Dy3 Ga9 3.358157 1_555
Dy3 Ga6 3.358157 1_555
Dy3 Mn16 3.453700 1_555
Dy3 Mn19 3.453700 1_555
Mn0 Mn4 2.591709 1_555
Mn0 Mn20 2.624282 1_565
Mn0 Mn17 2.624282 1_565
Mn0 Mn13 2.663356 1_555
Mn0 Mn22 2.663356 1_455
Mn0 Mn3 2.756611 1_555
Mn1 Mn3 2.566476 1_555
Mn1 Mn23 2.675028 1_455
Mn1 Mn14 2.675028 1_555
Mn1 Mn18 2.683402 1_556
Mn1 Mn15 2.683402 1_556
Mn1 Mn5 2.786637 1_555
Mn2 Mn5 2.566471 1_555
Mn2 Mn21 2.683708 1_455
Mn2 Mn4 2.756602 1_555
Mn6 Mn9 2.756611 1_555
Mn7 Mn9 2.566476 1_555
Mn10 Mn6 2.591709 1_555
Mn10 Mn12 2.624280 1_555
Mn10 Mn21 2.624280 1_555
Mn10 Mn19 2.663360 1_655
Mn10 Mn16 2.663360 1_555
Mn10 Mn8 2.756602 1_555
Mn11 Mn8 2.566471 1_555
Mn11 Mn15 2.675028 1_555
Mn11 Mn18 2.675028 1_655
Mn11 Mn14 2.683402 1_554
Mn11 Mn23 2.683402 1_554
Mn11 Mn7 2.786637 1_555
Mn12 Mn16 2.371191 1_555
Mn12 Mn17 2.499171 1_556
Mn12 Mn5 2.675028 1_555
Mn12 Mn7 2.683402 1_556
Mn12 Mn2 2.683708 1_555
Mn13 Mn17 2.371191 1_565
Mn13 Mn15 2.371191 1_555
Mn13 Mn9 2.645298 1_565
Mn13 Mn8 2.645304 1_555
Mn13 Mn4 2.663360 1_555
Mn14 Mn16 2.371191 1_565
Mn14 Mn15 2.499171 1_556
Mn14 Mn6 2.624282 1_565
Mn14 Mn3 2.683710 1_555
Mn15 Mn4 2.624280 1_555
Mn15 Mn8 2.683708 1_555
Mn16 Mn3 2.645298 1_545
Mn16 Mn2 2.645304 1_555
Mn16 Mn6 2.663356 1_555
Mn17 Mn7 2.675028 1_555
Mn17 Mn5 2.683402 1_554
Mn17 Mn9 2.683710 1_555
Mn18 Mn22 2.371191 1_455
Mn18 Mn23 2.499171 1_454
Mn18 Mn4 2.624280 1_555
Mn18 Mn8 2.683708 1_455
Mn19 Mn21 2.371191 1_455
Mn19 Mn23 2.371191 1_445
Mn19 Mn3 2.645298 1_545
Mn19 Mn2 2.645304 1_555
Mn19 Mn6 2.663356 1_455
Mn20 Mn22 2.371191 1_445
Mn20 Mn21 2.499171 1_454
Mn20 Mn7 2.675028 1_455
Mn20 Mn5 2.683402 1_554
Mn20 Mn9 2.683710 1_455
Mn21 Mn5 2.675028 1_655
Mn21 Mn7 2.683402 1_556
Mn22 Mn9 2.645298 1_565
Mn22 Mn8 2.645304 1_555
Mn22 Mn4 2.663360 1_655
Mn23 Mn6 2.624282 1_565
Mn23 Mn3 2.683710 1_655
Ga0 Ga3 2.490136 1_555
Ga0 Ga4 2.685226 1_565
Ga0 Ga6 2.685234 1_555
Ga0 Ga5 2.711667 1_556
Ga0 Mn14 2.857860 1_555
Ga0 Mn12 2.857867 1_555
Ga0 Mn13 2.903332 1_555
Ga0 Mn1 2.932063 1_555
Ga0 Mn5 2.932067 1_555
Ga0 Mn3 2.948345 1_555
Ga0 Mn2 2.948345 1_555
Ga0 Mn0 2.961445 1_555
Ga0 Mn4 2.961453 1_555
Ga1 Ga2 2.490136 1_555
Ga1 Ga4 2.685226 1_555
Ga1 Ga6 2.685234 1_555
Ga1 Ga5 2.711667 1_555
Ga1 Mn17 2.857860 1_555
Ga1 Mn15 2.857867 1_555
Ga1 Mn16 2.903332 1_555
Ga1 Mn7 2.932063 1_555
Ga1 Mn11 2.932067 1_555
Ga1 Mn8 2.948345 1_555
Ga1 Mn9 2.948345 1_555
Ga1 Mn6 2.961445 1_555
Ga1 Mn10 2.961453 1_555
Ga2 Ga7 2.685226 1_655
Ga2 Ga9 2.685234 1_655
Ga2 Ga8 2.711667 1_655
Ga2 Mn20 2.857860 1_655
Ga2 Mn18 2.857867 1_655
Ga2 Mn19 2.903332 1_655
Ga2 Mn7 2.932063 1_555
Ga2 Mn11 2.932067 1_555
Ga2 Mn8 2.948345 1_555
Ga2 Mn9 2.948345 1_555
Ga2 Mn6 2.961445 1_555
Ga2 Mn10 2.961453 1_555
Ga3 Ga7 2.685226 1_565
Ga3 Ga9 2.685234 1_555
Ga3 Ga8 2.711667 1_556
Ga3 Mn23 2.857860 1_455
Ga3 Mn21 2.857867 1_455
Ga3 Mn22 2.903332 1_455
Ga3 Mn1 2.932063 1_555
Ga3 Mn5 2.932067 1_555
Ga3 Mn3 2.948345 1_555
Ga3 Mn2 2.948345 1_555
Ga3 Mn0 2.961445 1_555
Ga3 Mn4 2.961453 1_555
Ga4 Mn6 2.579133 1_555
Ga4 Mn0 2.579133 1_545
Ga4 Mn3 2.584917 1_545
Ga4 Mn9 2.584917 1_555
Ga4 Mn17 2.592007 1_555
Ga4 Mn14 2.592007 1_545
Ga4 Mn16 2.604810 1_555
Ga4 Mn13 2.604810 1_545
Ga5 Mn1 2.596645 1_554
Ga5 Mn11 2.596645 1_555
Ga5 Mn5 2.596645 1_554
Ga5 Mn7 2.596645 1_555
Ga5 Mn14 2.614349 1_554
Ga5 Mn17 2.614349 1_555
Ga5 Mn15 2.614349 1_555
Ga5 Mn12 2.614349 1_554
Ga6 Mn4 2.579130 1_555
Ga6 Mn10 2.579130 1_555
Ga6 Mn2 2.584915 1_555
Ga6 Mn8 2.584915 1_555
Ga6 Mn15 2.592007 1_555
Ga6 Mn12 2.592007 1_555
Ga6 Mn13 2.604810 1_555
Ga6 Mn16 2.604810 1_555
Ga7 Mn0 2.579133 1_545
Ga7 Mn6 2.579133 1_455
Ga7 Mn3 2.584917 1_545
Ga7 Mn9 2.584917 1_455
Ga7 Mn23 2.592007 1_445
Ga7 Mn20 2.592007 1_555
Ga7 Mn19 2.604810 1_555
Ga7 Mn22 2.604810 1_445
Ga8 Mn1 2.596645 1_554
Ga8 Mn11 2.596645 1_455
Ga8 Mn5 2.596645 1_554
Ga8 Mn7 2.596645 1_455
Ga8 Mn23 2.614349 1_454
Ga8 Mn21 2.614349 1_454
Ga8 Mn18 2.614349 1_555
Ga8 Mn20 2.614349 1_555
Ga9 Mn4 2.579130 1_555
Ga9 Mn10 2.579130 1_455
Ga9 Mn2 2.584915 1_555
Ga9 Mn8 2.584915 1_455
Ga9 Mn18 2.592007 1_555
Ga9 Mn21 2.592007 1_455
Ga9 Mn19 2.604810 1_555
Ga9 Mn22 2.604810 1_455
