# generated using pymatgen
data_LiMnN
_symmetry_space_group_name_H-M   'P 1'
_cell_length_a   6.78792400
_cell_length_b   3.14736700
_cell_length_c   4.96616400
_cell_angle_alpha   90.00000000
_cell_angle_beta   90.00000000
_cell_angle_gamma   90.00000000
_symmetry_Int_Tables_number   1
_chemical_formula_structural   LiMnN
_chemical_formula_sum   'Li4 Mn4 N4'
_cell_volume   106.09756470
_cell_formula_units_Z   4
loop_
 _symmetry_equiv_pos_site_id
 _symmetry_equiv_pos_as_xyz
  1  'x, y, z'
loop_
 _atom_site_type_symbol
 _atom_site_label
 _atom_site_symmetry_multiplicity
 _atom_site_fract_x
 _atom_site_fract_y
 _atom_site_fract_z
 _atom_site_occupancy
  Li  Li0  1  0.60365800  0.25000000  0.89580900  1
  Li  Li1  1  0.10365800  0.25000000  0.60419100  1
  Li  Li2  1  0.39634200  0.75000000  0.10419100  1
  Li  Li3  1  0.89634200  0.75000000  0.39580900  1
  Mn  Mn0  1  0.62590300  0.25000000  0.41537800  1
  Mn  Mn1  1  0.12590300  0.25000000  0.08462200  1
  Mn  Mn2  1  0.37409700  0.75000000  0.58462200  1
  Mn  Mn3  1  0.87409700  0.75000000  0.91537800  1
  N  N0  1  0.84365000  0.25000000  0.14594100  1
  N  N1  1  0.34365000  0.25000000  0.35405900  1
  N  N2  1  0.15635000  0.75000000  0.85405900  1
  N  N3  1  0.65635000  0.75000000  0.64594100  1
loop_
_geom_bond_atom_site_label_1
_geom_bond_atom_site_label_2
_geom_bond_distance
_geom_bond_site_symmetry_2
Li0 N3 2.035732 1_545
Li0 N3 2.035732 1_555
Li0 N0 2.048621 1_556
Li1 N2 2.035732 1_545
Li1 N2 2.035732 1_555
Li1 N1 2.048621 1_555
Li2 N1 2.035732 1_565
Li2 N1 2.035732 1_555
Li2 N2 2.048621 1_554
Li3 N0 2.035732 1_555
Li3 N0 2.035732 1_565
Li3 N3 2.048621 1_555
Mn0 N1 1.939962 1_555
Mn0 N3 1.957102 1_545
Mn0 N3 1.957102 1_555
Mn0 N0 1.993755 1_555
Mn1 N0 1.939962 1_455
Mn1 N2 1.957102 1_554
Mn1 N2 1.957102 1_544
Mn1 N1 1.993755 1_555
Mn2 N3 1.939962 1_555
Mn2 N1 1.957102 1_565
Mn2 N1 1.957102 1_555
Mn2 N2 1.993755 1_555
Mn3 N2 1.939962 1_655
Mn3 N0 1.957102 1_556
Mn3 N0 1.957102 1_566
Mn3 N3 1.993755 1_555
