# generated using pymatgen
data_Ta3Br7
_symmetry_space_group_name_H-M   'P 1'
_cell_length_a   9.97644018
_cell_length_b   9.97644018
_cell_length_c   11.85901900
_cell_angle_alpha   90.00000000
_cell_angle_beta   90.00000000
_cell_angle_gamma   92.02734437
_symmetry_Int_Tables_number   1
_chemical_formula_structural   Ta3Br7
_chemical_formula_sum   'Ta12 Br28'
_cell_volume   1179.58174148
_cell_formula_units_Z   4
loop_
 _symmetry_equiv_pos_site_id
 _symmetry_equiv_pos_as_xyz
  1  'x, y, z'
loop_
 _atom_site_type_symbol
 _atom_site_label
 _atom_site_symmetry_multiplicity
 _atom_site_fract_x
 _atom_site_fract_y
 _atom_site_fract_z
 _atom_site_occupancy
  Ta  Ta0  1  0.15985500  0.95234900  0.60679100  1
  Ta  Ta1  1  0.04765100  0.84014500  0.39320900  1
  Ta  Ta2  1  0.54765100  0.34014500  0.10679100  1
  Ta  Ta3  1  0.65985500  0.45234900  0.89320900  1
  Ta  Ta4  1  0.84014500  0.04765100  0.39320900  1
  Ta  Ta5  1  0.95234900  0.15985500  0.60679100  1
  Ta  Ta6  1  0.45234900  0.65985500  0.89320900  1
  Ta  Ta7  1  0.34014500  0.54765100  0.10679100  1
  Ta  Ta8  1  0.88095800  0.88095800  0.58529400  1
  Ta  Ta9  1  0.11904200  0.11904200  0.41470600  1
  Ta  Ta10  1  0.61904200  0.61904200  0.08529400  1
  Ta  Ta11  1  0.38095800  0.38095800  0.91470600  1
  Br  Br0  1  0.13775000  0.13775000  0.76278200  1
  Br  Br1  1  0.86225000  0.86225000  0.23721800  1
  Br  Br2  1  0.36225000  0.36225000  0.26278200  1
  Br  Br3  1  0.63775000  0.63775000  0.73721800  1
  Br  Br4  1  0.25215100  0.74784900  0.50000000  1
  Br  Br5  1  0.75215100  0.24784900  0.00000000  1
  Br  Br6  1  0.74784900  0.25215100  0.50000000  1
  Br  Br7  1  0.24784900  0.75215100  0.00000000  1
  Br  Br8  1  0.03079000  0.78492700  0.74276900  1
  Br  Br9  1  0.21507300  0.96921000  0.25723100  1
  Br  Br10  1  0.71507300  0.46921000  0.24276900  1
  Br  Br11  1  0.53079000  0.28492700  0.75723100  1
  Br  Br12  1  0.96921000  0.21507300  0.25723100  1
  Br  Br13  1  0.78492700  0.03079000  0.74276900  1
  Br  Br14  1  0.28492700  0.53079000  0.75723100  1
  Br  Br15  1  0.46921000  0.71507300  0.24276900  1
  Br  Br16  1  0.35142300  0.10500500  0.51361600  1
  Br  Br17  1  0.89499500  0.64857700  0.48638400  1
  Br  Br18  1  0.39499500  0.14857700  0.01361600  1
  Br  Br19  1  0.85142300  0.60500500  0.98638400  1
  Br  Br20  1  0.64857700  0.89499500  0.48638400  1
  Br  Br21  1  0.10500500  0.35142300  0.51361600  1
  Br  Br22  1  0.60500500  0.85142300  0.98638400  1
  Br  Br23  1  0.14857700  0.39499500  0.01361600  1
  Br  Br24  1  0.38653600  0.88653600  0.75000000  1
  Br  Br25  1  0.11346400  0.61346400  0.25000000  1
  Br  Br26  1  0.61346400  0.11346400  0.25000000  1
  Br  Br27  1  0.88653600  0.38653600  0.75000000  1
loop_
_geom_bond_atom_site_label_1
_geom_bond_atom_site_label_2
_geom_bond_distance
_geom_bond_site_symmetry_2
Br0 Ta5 2.630741 1_455
Br0 Ta0 2.630741 1_545
Br1 Ta4 2.630741 1_565
Br1 Ta1 2.630741 1_655
Br2 Ta7 2.630741 1_555
Br2 Ta2 2.630741 1_555
Br3 Ta6 2.630741 1_555
Br3 Ta3 2.630741 1_555
Br4 Ta1 2.597492 1_555
Br4 Ta0 2.597492 1_555
Br5 Ta2 2.597492 1_555
Br5 Ta3 2.597492 1_554
Br6 Ta4 2.597492 1_555
Br6 Ta5 2.597492 1_555
Br7 Ta7 2.597492 1_555
Br7 Ta6 2.597492 1_554
Br8 Ta8 2.596368 1_455
Br8 Ta0 2.626016 1_555
Br9 Ta9 2.596368 1_565
Br9 Ta1 2.626016 1_555
Br10 Ta10 2.596368 1_555
Br10 Ta2 2.626016 1_555
Br11 Ta11 2.596368 1_555
Br11 Ta3 2.626016 1_555
Br12 Ta9 2.596368 1_655
Br12 Ta4 2.626016 1_555
Br13 Ta8 2.596368 1_545
Br13 Ta5 2.626016 1_555
Br14 Ta11 2.596368 1_555
Br14 Ta6 2.626016 1_555
Br15 Ta10 2.596368 1_555
Br15 Ta7 2.626016 1_555
Br16 Ta9 2.606364 1_555
Br16 Ta0 2.643291 1_545
Br17 Ta8 2.606364 1_555
Br17 Ta1 2.643291 1_655
Br18 Ta11 2.606364 1_554
Br18 Ta2 2.643291 1_555
Br19 Ta10 2.606364 1_556
Br19 Ta3 2.643291 1_555
Br20 Ta8 2.606364 1_555
Br20 Ta4 2.643291 1_565
Br21 Ta9 2.606364 1_555
Br21 Ta5 2.643291 1_455
Br22 Ta10 2.606364 1_556
Br22 Ta6 2.643291 1_555
Br23 Ta11 2.606364 1_554
Br23 Ta7 2.643291 1_555
Br24 Ta6 2.921418 1_555
Br24 Ta0 2.921418 1_555
Br25 Ta1 2.921418 1_555
Br25 Ta7 2.921418 1_555
Br26 Ta4 2.921418 1_555
Br26 Ta2 2.921418 1_555
Br27 Ta3 2.921418 1_555
Br27 Ta5 2.921418 1_555
