# generated using pymatgen
data_Ca2Ta2CuO8
_symmetry_space_group_name_H-M   'P 1'
_cell_length_a   5.40318600
_cell_length_b   6.71245420
_cell_length_c   9.99932846
_cell_angle_alpha   108.72863526
_cell_angle_beta   92.84601649
_cell_angle_gamma   90.62878101
_symmetry_Int_Tables_number   1
_chemical_formula_structural   Ca2Ta2CuO8
_chemical_formula_sum   'Ca4 Ta4 Cu2 O16'
_cell_volume   342.89649938
_cell_formula_units_Z   2
loop_
 _symmetry_equiv_pos_site_id
 _symmetry_equiv_pos_as_xyz
  1  'x, y, z'
loop_
 _atom_site_type_symbol
 _atom_site_label
 _atom_site_symmetry_multiplicity
 _atom_site_fract_x
 _atom_site_fract_y
 _atom_site_fract_z
 _atom_site_occupancy
  Ca  Ca0  1  0.75616100  0.45782000  0.58598300  1
  Ca  Ca1  1  0.74397300  0.87215800  0.41648900  1
  Ca  Ca2  1  0.24383900  0.54218000  0.41401700  1
  Ca  Ca3  1  0.25602700  0.12784200  0.58351100  1
  Ta  Ta0  1  0.73351700  0.26116300  0.23013900  1
  Ta  Ta1  1  0.76737900  0.02353200  0.76941500  1
  Ta  Ta2  1  0.26648300  0.73883700  0.76986100  1
  Ta  Ta3  1  0.23262100  0.97646800  0.23058500  1
  Cu  Cu0  1  0.74901200  0.69698800  0.99964900  1
  Cu  Cu1  1  0.25098800  0.30301200  0.00035100  1
  O  O0  1  0.06548400  0.19828200  0.14625200  1
  O  O1  1  0.44004900  0.03786900  0.85523200  1
  O  O2  1  0.93451600  0.80171800  0.85374800  1
  O  O3  1  0.55995100  0.96213100  0.14476800  1
  O  O4  1  0.54396000  0.38564600  0.11777200  1
  O  O5  1  0.96351400  0.25488300  0.87955300  1
  O  O6  1  0.45604000  0.61435400  0.88222800  1
  O  O7  1  0.03648600  0.74511700  0.12044700  1
  O  O8  1  0.47618000  0.25086600  0.36973400  1
  O  O9  1  0.02432200  0.87782800  0.63143600  1
  O  O10  1  0.33158100  0.84762100  0.37132400  1
  O  O11  1  0.16751200  0.47294100  0.62899200  1
  O  O12  1  0.66841900  0.15237900  0.62867600  1
  O  O13  1  0.83248800  0.52705900  0.37100800  1
  O  O14  1  0.97567800  0.12217200  0.36856400  1
  O  O15  1  0.52382000  0.74913400  0.63026600  1
loop_
_geom_bond_atom_site_label_1
_geom_bond_atom_site_label_2
_geom_bond_distance
_geom_bond_site_symmetry_2
Ca0 O11 2.237706 1_655
Ca0 O15 2.269100 1_555
Ca0 O12 2.274070 1_555
Ca0 O13 2.394219 1_555
Ca0 O8 2.567897 1_555
Ca1 O10 2.245072 1_555
Ca1 O14 2.267888 1_565
Ca1 O13 2.273973 1_555
Ca1 O12 2.397175 1_565
Ca1 O9 2.557048 1_655
Ca1 O15 2.833883 1_555
Ca2 O13 2.237706 1_455
Ca2 O8 2.269100 1_555
Ca2 O10 2.274070 1_555
Ca2 O11 2.394219 1_555
Ca2 O15 2.567897 1_555
Ca3 O12 2.245072 1_555
Ca3 O9 2.267888 1_545
Ca3 O11 2.273973 1_555
Ca3 O10 2.397175 1_545
Ca3 O14 2.557048 1_455
Ca3 O8 2.833883 1_555
Cu0 O7 1.878333 1_656
Cu0 O6 1.889449 1_555
Cu0 O2 2.101338 1_555
Cu0 O3 2.201221 1_556
Cu1 O5 1.878333 1_454
Cu1 O4 1.889449 1_555
Cu1 O0 2.101338 1_555
Cu1 O1 2.201221 1_554
O0 Ta0 2.009406 1_455
O0 Ta3 2.122192 1_545
O1 Ta1 1.993757 1_555
O1 Ta2 2.101440 1_545
O2 Ta2 2.009406 1_655
O2 Ta1 2.122192 1_565
O3 Ta3 1.993757 1_555
O3 Ta0 2.101440 1_565
O4 Ta0 1.875392 1_555
O5 Ta1 1.870095 1_555
O6 Ta2 1.875392 1_555
O7 Ta3 1.870095 1_555
O8 Ta0 2.034477 1_555
O8 Ta3 2.275868 1_545
O9 Ta1 2.034942 1_465
O9 Ta2 2.274769 1_555
O10 Ta3 1.931694 1_555
O11 Ta2 1.935316 1_555
O12 Ta1 1.931694 1_555
O13 Ta0 1.935316 1_555
O14 Ta3 2.034942 1_645
O14 Ta0 2.274769 1_555
O15 Ta2 2.034477 1_555
O15 Ta1 2.275868 1_565
