# generated using pymatgen
data_SrPr3
_symmetry_space_group_name_H-M   'P 1'
_cell_length_a   5.36273900
_cell_length_b   5.36273900
_cell_length_c   5.36273900
_cell_angle_alpha   90.00000000
_cell_angle_beta   90.00000000
_cell_angle_gamma   90.00000000
_symmetry_Int_Tables_number   1
_chemical_formula_structural   SrPr3
_chemical_formula_sum   'Sr1 Pr3'
_cell_volume   154.22684778
_cell_formula_units_Z   1
loop_
 _symmetry_equiv_pos_site_id
 _symmetry_equiv_pos_as_xyz
  1  'x, y, z'
loop_
 _atom_site_type_symbol
 _atom_site_label
 _atom_site_symmetry_multiplicity
 _atom_site_fract_x
 _atom_site_fract_y
 _atom_site_fract_z
 _atom_site_occupancy
  Sr  Sr0  1  0.00000000  0.00000000  0.00000000  1
  Pr  Pr0  1  0.00000000  0.50000000  0.50000000  1
  Pr  Pr1  1  0.50000000  0.00000000  0.50000000  1
  Pr  Pr2  1  0.50000000  0.50000000  0.00000000  1
loop_
_geom_bond_atom_site_label_1
_geom_bond_atom_site_label_2
_geom_bond_distance
_geom_bond_site_symmetry_2
Pr0 Pr2 3.792029 1_456
Pr0 Pr2 3.792029 1_455
Pr0 Pr2 3.792029 1_556
Pr0 Pr1 3.792029 1_565
Pr0 Pr2 3.792029 1_555
Pr0 Sr0 3.792029 1_555
Pr0 Sr0 3.792029 1_556
Pr0 Pr1 3.792029 1_465
Pr0 Pr1 3.792029 1_455
Pr0 Sr0 3.792029 1_566
Pr0 Pr1 3.792029 1_555
Pr0 Sr0 3.792029 1_565
Pr1 Pr2 3.792029 1_546
Pr1 Pr2 3.792029 1_556
Pr1 Pr2 3.792029 1_555
Pr1 Sr0 3.792029 1_555
Pr1 Sr0 3.792029 1_556
Pr1 Sr0 3.792029 1_656
Pr1 Pr2 3.792029 1_545
Pr1 Sr0 3.792029 1_655
Pr2 Sr0 3.792029 1_555
Pr2 Sr0 3.792029 1_565
Pr2 Sr0 3.792029 1_665
Pr2 Sr0 3.792029 1_655
