# generated using pymatgen
data_Mg14VCdO16
_symmetry_space_group_name_H-M   'P 1'
_cell_length_a   8.61365695
_cell_length_b   8.66645866
_cell_length_c   4.32124931
_cell_angle_alpha   90.00000000
_cell_angle_beta   90.00000000
_cell_angle_gamma   90.00000000
_symmetry_Int_Tables_number   1
_chemical_formula_structural   Mg14VCdO16
_chemical_formula_sum   'Mg14 V1 Cd1 O16'
_cell_volume   322.58083694
_cell_formula_units_Z   1
loop_
 _symmetry_equiv_pos_site_id
 _symmetry_equiv_pos_as_xyz
  1  'x, y, z'
loop_
 _atom_site_type_symbol
 _atom_site_label
 _atom_site_symmetry_multiplicity
 _atom_site_fract_x
 _atom_site_fract_y
 _atom_site_fract_z
 _atom_site_occupancy
  Mg  Mg0  1  0.50000000  -0.00000000  0.00000000  1
  Mg  Mg1  1  0.50000000  0.50000000  0.00000000  1
  Mg  Mg2  1  0.00000000  0.24594736  0.50000000  1
  Mg  Mg3  1  0.00000000  0.75405264  0.50000000  1
  Mg  Mg4  1  0.50000000  0.24936264  0.50000000  1
  Mg  Mg5  1  0.50000000  0.75063736  0.50000000  1
  Mg  Mg6  1  0.25109468  -0.00000000  0.50000000  1
  Mg  Mg7  1  0.25518419  0.50000000  0.50000000  1
  Mg  Mg8  1  0.74890532  -0.00000000  0.50000000  1
  Mg  Mg9  1  0.74481581  0.50000000  0.50000000  1
  Mg  Mg10  1  0.25272895  0.24811106  -0.00000000  1
  Mg  Mg11  1  0.25272895  0.75188894  -0.00000000  1
  Mg  Mg12  1  0.74727105  0.24811106  0.00000000  1
  Mg  Mg13  1  0.74727105  0.75188894  0.00000000  1
  V  V0  1  0.00000000  -0.00000000  0.00000000  1
  Cd  Cd0  1  0.00000000  0.50000000  0.00000000  1
  O  O0  1  0.25598706  -0.00000000  0.00000000  1
  O  O1  1  0.26616513  0.50000000  0.00000000  1
  O  O2  1  0.74401294  -0.00000000  -0.00000000  1
  O  O3  1  0.73383487  0.50000000  -0.00000000  1
  O  O4  1  0.24914171  0.25012643  0.50000000  1
  O  O5  1  0.24914171  0.74987357  0.50000000  1
  O  O6  1  0.75085829  0.25012643  0.50000000  1
  O  O7  1  0.75085829  0.74987357  0.50000000  1
  O  O8  1  0.00000000  -0.00000000  0.50000000  1
  O  O9  1  0.00000000  0.50000000  0.50000000  1
  O  O10  1  0.50000000  -0.00000000  0.50000000  1
  O  O11  1  0.50000000  0.50000000  0.50000000  1
  O  O12  1  0.00000000  0.24131136  0.00000000  1
  O  O13  1  0.00000000  0.75868864  0.00000000  1
  O  O14  1  0.50000000  0.24735431  0.00000000  1
  O  O15  1  0.50000000  0.75264569  0.00000000  1
loop_
_geom_bond_atom_site_label_1
_geom_bond_atom_site_label_2
_geom_bond_distance
_geom_bond_site_symmetry_2
Mg0 O0 2.101844 1_555
Mg0 O2 2.101844 1_555
Mg0 O15 2.143686 1_545
Mg0 O14 2.143686 1_555
Mg0 O10 2.160625 1_555
Mg0 O10 2.160625 1_554
Mg1 O1 2.014173 1_555
Mg1 O3 2.014173 1_555
Mg1 O11 2.160625 1_554
Mg1 O11 2.160625 1_555
Mg1 O15 2.189543 1_555
Mg1 O14 2.189543 1_555
Mg2 O8 2.131493 1_555
Mg2 O6 2.146327 1_455
Mg2 O4 2.146327 1_555
Mg2 O12 2.160998 1_556
Mg2 O12 2.160998 1_555
Mg2 O9 2.201737 1_555
Mg3 O8 2.131493 1_565
Mg3 O7 2.146327 1_455
Mg3 O5 2.146327 1_555
Mg3 O13 2.160998 1_555
Mg3 O13 2.160998 1_556
Mg3 O9 2.201737 1_555
Mg4 O14 2.160695 1_556
Mg4 O14 2.160695 1_555
Mg4 O4 2.160817 1_555
Mg4 O6 2.160817 1_555
Mg4 O10 2.161091 1_555
Mg4 O11 2.172138 1_555
Mg5 O15 2.160695 1_556
Mg5 O15 2.160695 1_555
Mg5 O5 2.160817 1_555
Mg5 O7 2.160817 1_555
Mg5 O10 2.161091 1_565
Mg5 O11 2.172138 1_555
Mg6 O10 2.143985 1_555
Mg6 O0 2.161036 1_555
Mg6 O0 2.161036 1_556
Mg6 O8 2.162843 1_555
Mg6 O4 2.167776 1_555
Mg6 O5 2.167776 1_545
Mg7 O11 2.108759 1_555
Mg7 O1 2.162694 1_556
Mg7 O1 2.162694 1_555
Mg7 O5 2.166144 1_555
Mg7 O4 2.166144 1_555
Mg7 O9 2.198069 1_555
Mg8 O10 2.143985 1_555
Mg8 O2 2.161036 1_555
Mg8 O2 2.161036 1_556
Mg8 O8 2.162843 1_655
Mg8 O6 2.167776 1_555
Mg8 O7 2.167776 1_545
Mg9 O11 2.108759 1_555
Mg9 O3 2.162694 1_556
Mg9 O3 2.162694 1_555
Mg9 O6 2.166144 1_555
Mg9 O7 2.166144 1_555
Mg9 O9 2.198069 1_655
Mg10 O14 2.129918 1_555
Mg10 O0 2.150427 1_555
Mg10 O4 2.160916 1_554
Mg10 O4 2.160916 1_555
Mg10 O12 2.177718 1_555
Mg10 O1 2.186051 1_555
Mg11 O15 2.129918 1_555
Mg11 O0 2.150427 1_565
Mg11 O5 2.160916 1_554
Mg11 O5 2.160916 1_555
Mg11 O13 2.177718 1_555
Mg11 O1 2.186051 1_555
Mg12 O14 2.129918 1_555
Mg12 O2 2.150427 1_555
Mg12 O6 2.160916 1_554
Mg12 O6 2.160916 1_555
Mg12 O12 2.177718 1_655
Mg12 O3 2.186051 1_555
Mg13 O15 2.129918 1_555
Mg13 O2 2.150427 1_565
Mg13 O7 2.160916 1_554
Mg13 O7 2.160916 1_555
Mg13 O13 2.177718 1_655
Mg13 O3 2.186051 1_555
Cd0 O9 2.160625 1_554
Cd0 O9 2.160625 1_555
Cd0 O12 2.241914 1_555
Cd0 O13 2.241914 1_555
Cd0 O3 2.292655 1_455
Cd0 O1 2.292655 1_555
O0 V0 2.204985 1_555
O2 V0 2.204985 1_655
O8 V0 2.160625 1_556
O8 V0 2.160625 1_555
O12 V0 2.091315 1_555
O13 V0 2.091315 1_565
