# generated using pymatgen
data_Mo3W(Se3S)2
_symmetry_space_group_name_H-M   'P 1'
_cell_length_a   3.28637368
_cell_length_b   3.28637368
_cell_length_c   37.33540200
_cell_angle_alpha   90.00000000
_cell_angle_beta   90.00000000
_cell_angle_gamma   119.99999354
_symmetry_Int_Tables_number   1
_chemical_formula_structural   Mo3W(Se3S)2
_chemical_formula_sum   'Mo3 W1 Se6 S2'
_cell_volume   349.20896064
_cell_formula_units_Z   1
loop_
 _symmetry_equiv_pos_site_id
 _symmetry_equiv_pos_as_xyz
  1  'x, y, z'
loop_
 _atom_site_type_symbol
 _atom_site_label
 _atom_site_symmetry_multiplicity
 _atom_site_fract_x
 _atom_site_fract_y
 _atom_site_fract_z
 _atom_site_occupancy
  Mo  Mo0  1  0.00000000  0.00000000  0.09390400  1
  Mo  Mo1  1  0.33333300  0.66666700  0.28179600  1
  Mo  Mo2  1  0.33333300  0.66666700  0.65753900  1
  W  W0  1  0.00000000  0.00000000  0.46965900  1
  Se  Se0  1  0.00000000  0.00000000  0.32698200  1
  Se  Se1  1  0.00000000  0.00000000  0.70271300  1
  Se  Se2  1  0.33333300  0.66666700  0.04874300  1
  Se  Se3  1  0.33333300  0.66666700  0.13909300  1
  Se  Se4  1  0.00000000  0.00000000  0.23663900  1
  Se  Se5  1  0.00000000  0.00000000  0.61235000  1
  S  S0  1  0.33333300  0.66666700  0.42838500  1
  S  S1  1  0.33333300  0.66666700  0.51094500  1
loop_
_geom_bond_atom_site_label_1
_geom_bond_atom_site_label_2
_geom_bond_distance
_geom_bond_site_symmetry_2
Mo0 Se2 2.538311 1_545
Mo0 Se2 2.538313 1_555
Mo0 Se2 2.538313 1_445
Mo0 Se3 2.539006 1_545
Mo0 Se3 2.539008 1_555
Mo0 Se3 2.539008 1_445
Mo1 Se4 2.538212 1_565
Mo1 Se4 2.538214 1_555
Mo1 Se4 2.538214 1_665
Mo1 Se0 2.538931 1_565
Mo1 Se0 2.538934 1_555
Mo1 Se0 2.538934 1_665
Mo2 Se1 2.538634 1_565
Mo2 Se1 2.538636 1_555
Mo2 Se1 2.538636 1_665
Mo2 Se5 2.539006 1_565
Mo2 Se5 2.539008 1_665
Mo2 Se5 2.539008 1_555
S0 W0 2.444320 1_565
S0 W0 2.444322 1_555
S0 W0 2.444322 1_665
S1 W0 2.444602 1_565
S1 W0 2.444605 1_555
S1 W0 2.444605 1_665
