# generated using pymatgen
data_Sm2MgSe4
_symmetry_space_group_name_H-M   'P 1'
_cell_length_a   13.47443967
_cell_length_b   8.05869521
_cell_length_c   13.59483768
_cell_angle_alpha   90.00000000
_cell_angle_beta   90.00000000
_cell_angle_gamma   90.00000000
_symmetry_Int_Tables_number   1
_chemical_formula_structural   Sm2MgSe4
_chemical_formula_sum   'Sm16 Mg8 Se32'
_cell_volume   1476.21451524
_cell_formula_units_Z   8
loop_
 _symmetry_equiv_pos_site_id
 _symmetry_equiv_pos_as_xyz
  1  'x, y, z'
loop_
 _atom_site_type_symbol
 _atom_site_label
 _atom_site_symmetry_multiplicity
 _atom_site_fract_x
 _atom_site_fract_y
 _atom_site_fract_z
 _atom_site_occupancy
  Sm  Sm0  1  0.10794579  0.88330742  0.68531492  1
  Sm  Sm1  1  0.89205421  0.11669258  0.18531492  1
  Sm  Sm2  1  0.39205421  0.88330742  0.18531492  1
  Sm  Sm3  1  0.60794579  0.11669258  0.68531492  1
  Sm  Sm4  1  0.12749131  0.38184593  0.32634522  1
  Sm  Sm5  1  0.87250869  0.61815407  0.82634522  1
  Sm  Sm6  1  0.37250869  0.38184593  0.82634522  1
  Sm  Sm7  1  0.62749131  0.61815407  0.32634522  1
  Sm  Sm8  1  0.13353935  0.62852309  0.99154975  1
  Sm  Sm9  1  0.86646065  0.37147691  0.49154975  1
  Sm  Sm10  1  0.36646065  0.62852309  0.49154975  1
  Sm  Sm11  1  0.63353935  0.37147691  0.99154975  1
  Sm  Sm12  1  0.13417663  0.12878986  0.99246678  1
  Sm  Sm13  1  0.86582337  0.87121014  0.49246678  1
  Sm  Sm14  1  0.36582337  0.12878986  0.49246678  1
  Sm  Sm15  1  0.63417663  0.87121014  0.99246678  1
  Mg  Mg0  1  0.11128600  0.38290830  0.69203130  1
  Mg  Mg1  1  0.88871400  0.61709170  0.19203130  1
  Mg  Mg2  1  0.38871400  0.38290830  0.19203130  1
  Mg  Mg3  1  0.61128600  0.61709170  0.69203130  1
  Mg  Mg4  1  0.12639754  0.87882500  0.32001846  1
  Mg  Mg5  1  0.87360246  0.12117500  0.82001846  1
  Mg  Mg6  1  0.37360246  0.87882500  0.82001846  1
  Mg  Mg7  1  0.62639754  0.12117500  0.32001846  1
  Se  Se0  1  0.01123635  0.87986901  0.87908469  1
  Se  Se1  1  0.98876365  0.12013099  0.37908469  1
  Se  Se2  1  0.48876365  0.87986901  0.37908469  1
  Se  Se3  1  0.51123635  0.12013099  0.87908469  1
  Se  Se4  1  0.03162970  0.37982927  0.12896563  1
  Se  Se5  1  0.96837030  0.62017073  0.62896563  1
  Se  Se6  1  0.46837030  0.37982927  0.62896563  1
  Se  Se7  1  0.53162970  0.62017073  0.12896563  1
  Se  Se8  1  0.02311299  0.37138415  0.86731345  1
  Se  Se9  1  0.97688701  0.62861585  0.36731345  1
  Se  Se10  1  0.47688701  0.37138415  0.36731345  1
  Se  Se11  1  0.52311299  0.62861585  0.86731345  1
  Se  Se12  1  0.04451153  0.87160257  0.13825662  1
  Se  Se13  1  0.95548847  0.12839743  0.63825662  1
  Se  Se14  1  0.45548847  0.87160257  0.63825662  1
  Se  Se15  1  0.54451153  0.12839743  0.13825662  1
  Se  Se16  1  0.21001022  0.87914701  0.49912982  1
  Se  Se17  1  0.78998978  0.12085299  0.99912982  1
  Se  Se18  1  0.28998978  0.87914701  0.99912982  1
  Se  Se19  1  0.71001022  0.12085299  0.49912982  1
  Se  Se20  1  0.21078338  0.37998464  0.52191794  1
  Se  Se21  1  0.78921662  0.62001536  0.02191794  1
  Se  Se22  1  0.28921662  0.37998464  0.02191794  1
  Se  Se23  1  0.71078338  0.62001536  0.52191794  1
  Se  Se24  1  0.23215528  0.12856473  0.77638956  1
  Se  Se25  1  0.76784472  0.87143527  0.27638956  1
  Se  Se26  1  0.26784472  0.12856473  0.27638956  1
  Se  Se27  1  0.73215528  0.87143527  0.77638956  1
  Se  Se28  1  0.23034373  0.63240729  0.77821686  1
  Se  Se29  1  0.76965627  0.36759271  0.27821686  1
  Se  Se30  1  0.26965627  0.63240729  0.27821686  1
  Se  Se31  1  0.73034373  0.36759271  0.77821686  1
loop_
_geom_bond_atom_site_label_1
_geom_bond_atom_site_label_2
_geom_bond_distance
_geom_bond_site_symmetry_2
Mg0 Se8 2.664307 1_555
Mg0 Se20 2.673269 1_555
Mg0 Se28 2.826493 1_555
Mg0 Se5 2.845923 1_455
Mg0 Se24 2.858129 1_555
Mg0 Se13 3.024590 1_455
Mg1 Se9 2.664307 1_555
Mg1 Se21 2.673269 1_555
Mg1 Se29 2.826493 1_555
Mg1 Se4 2.845923 1_655
Mg1 Se25 2.858129 1_555
Mg1 Se12 3.024590 1_655
Mg2 Se10 2.664307 1_555
Mg2 Se22 2.673269 1_555
Mg2 Se30 2.826493 1_555
Mg2 Se7 2.845923 1_555
Mg2 Se26 2.858129 1_555
Mg2 Se15 3.024590 1_555
Mg3 Se11 2.664307 1_555
Mg3 Se23 2.673269 1_555
Mg3 Se31 2.826493 1_555
Mg3 Se6 2.845923 1_555
Mg3 Se27 2.858129 1_555
Mg3 Se14 3.024590 1_555
Mg4 Se16 2.683000 1_555
Mg4 Se12 2.706799 1_555
Mg4 Se1 2.804574 1_465
Mg4 Se30 2.827110 1_555
Mg4 Se26 2.834572 1_565
Mg4 Se9 2.921918 1_455
Mg5 Se17 2.683000 1_555
Mg5 Se13 2.706799 1_555
Mg5 Se0 2.804574 1_645
Mg5 Se31 2.827110 1_555
Mg5 Se27 2.834572 1_545
Mg5 Se8 2.921918 1_655
Mg6 Se18 2.683000 1_555
Mg6 Se14 2.706799 1_555
Mg6 Se3 2.804574 1_565
Mg6 Se28 2.827110 1_555
Mg6 Se24 2.834572 1_565
Mg6 Se11 2.921918 1_555
Mg7 Se19 2.683000 1_555
Mg7 Se15 2.706799 1_555
Mg7 Se2 2.804574 1_545
Mg7 Se29 2.827110 1_555
Mg7 Se25 2.834572 1_545
Mg7 Se10 2.921918 1_555
Se0 Sm5 2.908004 1_455
Se0 Sm0 2.939085 1_555
Se0 Sm12 3.023914 1_565
Se0 Sm8 3.025920 1_555
Se1 Sm4 2.908004 1_655
Se1 Sm1 2.939085 1_555
Se1 Sm13 3.023914 1_545
Se1 Sm9 3.025920 1_555
Se2 Sm7 2.908004 1_555
Se2 Sm2 2.939085 1_555
Se2 Sm14 3.023914 1_565
Se2 Sm10 3.025920 1_555
Se3 Sm6 2.908004 1_555
Se3 Sm3 2.939085 1_555
Se3 Sm15 3.023914 1_545
Se3 Sm11 3.025920 1_555
Se4 Sm1 2.936080 1_455
Se4 Sm4 2.978093 1_555
Se4 Sm8 3.064668 1_554
Se4 Sm12 3.073361 1_554
Se5 Sm0 2.936080 1_655
Se5 Sm5 2.978093 1_555
Se5 Sm9 3.064668 1_555
Se5 Sm13 3.073361 1_555
Se6 Sm3 2.936080 1_555
Se6 Sm6 2.978093 1_555
Se6 Sm10 3.064668 1_555
Se6 Sm14 3.073361 1_555
Se7 Sm2 2.936080 1_555
Se7 Sm7 2.978093 1_555
Se7 Sm11 3.064668 1_554
Se7 Sm15 3.073361 1_554
Se8 Sm5 2.895341 1_455
Se8 Sm12 2.992736 1_555
Se8 Sm8 3.059510 1_555
Se9 Sm4 2.895341 1_655
Se9 Sm13 2.992736 1_555
Se9 Sm9 3.059510 1_555
Se10 Sm7 2.895341 1_555
Se10 Sm14 2.992736 1_555
Se10 Sm10 3.059510 1_555
Se11 Sm6 2.895341 1_555
Se11 Sm15 2.992736 1_555
Se11 Sm11 3.059510 1_555
Se12 Sm1 2.920681 1_465
Se12 Sm8 3.042071 1_554
Se12 Sm12 3.111855 1_564
Se13 Sm0 2.920681 1_645
Se13 Sm9 3.042071 1_555
Se13 Sm13 3.111855 1_545
Se14 Sm3 2.920681 1_565
Se14 Sm10 3.042071 1_555
Se14 Sm14 3.111855 1_565
Se15 Sm2 2.920681 1_545
Se15 Sm11 3.042071 1_554
Se15 Sm15 3.111855 1_544
Se16 Sm0 2.880836 1_555
Se16 Sm14 2.909193 1_565
Se16 Sm10 2.921271 1_555
Se17 Sm1 2.880836 1_556
Se17 Sm15 2.909193 1_545
Se17 Sm11 2.921271 1_555
Se18 Sm2 2.880836 1_556
Se18 Sm12 2.909193 1_565
Se18 Sm8 2.921271 1_555
Se19 Sm3 2.880836 1_555
Se19 Sm13 2.909193 1_545
Se19 Sm9 2.921271 1_555
Se20 Sm4 2.885987 1_555
Se20 Sm10 2.929544 1_555
Se20 Sm14 2.936384 1_555
Se21 Sm5 2.885987 1_554
Se21 Sm11 2.929544 1_554
Se21 Sm15 2.936384 1_554
Se22 Sm6 2.885987 1_554
Se22 Sm8 2.929544 1_554
Se22 Sm12 2.936384 1_554
Se23 Sm7 2.885987 1_555
Se23 Sm9 2.929544 1_555
Se23 Sm13 2.936384 1_555
Se24 Sm6 2.864256 1_555
Se24 Sm0 2.870625 1_545
Se24 Sm12 3.220568 1_555
Se25 Sm7 2.864256 1_555
Se25 Sm1 2.870625 1_565
Se25 Sm13 3.220568 1_555
Se26 Sm4 2.864256 1_555
Se26 Sm2 2.870625 1_545
Se26 Sm14 3.220568 1_555
Se27 Sm5 2.864256 1_555
Se27 Sm3 2.870625 1_565
Se27 Sm15 3.220568 1_555
Se28 Sm6 2.859154 1_555
Se28 Sm0 2.898850 1_555
Se28 Sm8 3.180206 1_555
Se29 Sm7 2.859154 1_555
Se29 Sm1 2.898850 1_555
Se29 Sm9 3.180206 1_555
Se30 Sm4 2.859154 1_555
Se30 Sm2 2.898850 1_555
Se30 Sm10 3.180206 1_555
Se31 Sm5 2.859154 1_555
Se31 Sm3 2.898850 1_555
Se31 Sm11 3.180206 1_555
