# generated using pymatgen
data_Cs2Hg3Se4
_symmetry_space_group_name_H-M   'P 1'
_cell_length_a   10.34207364
_cell_length_b   10.34207364
_cell_length_c   10.34207364
_cell_angle_alpha   142.24111433
_cell_angle_beta   106.16777099
_cell_angle_gamma   86.04083348
_symmetry_Int_Tables_number   1
_chemical_formula_structural   Cs2Hg3Se4
_chemical_formula_sum   'Cs4 Hg6 Se8'
_cell_volume   628.72805254
_cell_formula_units_Z   2
loop_
 _symmetry_equiv_pos_site_id
 _symmetry_equiv_pos_as_xyz
  1  'x, y, z'
loop_
 _atom_site_type_symbol
 _atom_site_label
 _atom_site_symmetry_multiplicity
 _atom_site_fract_x
 _atom_site_fract_y
 _atom_site_fract_z
 _atom_site_occupancy
  Cs  Cs0  1  0.61981700  0.23243000  0.85224700  1
  Cs  Cs1  1  0.38018300  0.76757000  0.14775300  1
  Cs  Cs2  1  0.11981700  0.26757000  0.38738700  1
  Cs  Cs3  1  0.88018300  0.73243000  0.61261300  1
  Hg  Hg0  1  0.75000000  0.75000000  0.00000000  1
  Hg  Hg1  1  0.25000000  0.25000000  0.00000000  1
  Hg  Hg2  1  0.08335400  0.75000000  0.33335400  1
  Hg  Hg3  1  0.41664600  0.75000000  0.66664600  1
  Hg  Hg4  1  0.91664600  0.25000000  0.66664600  1
  Hg  Hg5  1  0.58335400  0.25000000  0.33335400  1
  Se  Se0  1  0.99075300  0.63840400  0.91350100  1
  Se  Se1  1  0.72490300  0.07725200  0.08649900  1
  Se  Se2  1  0.77509700  0.86159600  0.35234900  1
  Se  Se3  1  0.50924700  0.42274800  0.64765100  1
  Se  Se4  1  0.00924700  0.36159600  0.08649900  1
  Se  Se5  1  0.27509700  0.92274800  0.91350100  1
  Se  Se6  1  0.22490300  0.13840400  0.64765100  1
  Se  Se7  1  0.49075300  0.57725200  0.35234900  1
loop_
_geom_bond_atom_site_label_1
_geom_bond_atom_site_label_2
_geom_bond_distance
_geom_bond_site_symmetry_2
Cs0 Se1 3.750536 1_556
Cs0 Se4 3.750536 1_656
Cs0 Se3 3.819164 1_555
Cs0 Se6 3.819164 1_555
Cs0 Se7 3.908037 1_556
Cs0 Se2 3.908037 1_556
Cs0 Se2 4.054377 1_545
Cs0 Se7 4.054377 1_545
Cs0 Hg4 4.129338 1_555
Cs0 Hg3 4.129338 1_545
Cs1 Se0 3.750536 1_454
Cs1 Se5 3.750536 1_554
Cs1 Se2 3.819164 1_555
Cs1 Se7 3.819164 1_555
Cs1 Se3 3.908037 1_554
Cs1 Se6 3.908037 1_554
Cs1 Se3 4.054377 1_565
Cs1 Se6 4.054377 1_565
Cs1 Hg5 4.129338 1_565
Cs1 Hg2 4.129338 1_555
Cs2 Se6 3.750536 1_555
Cs2 Se3 3.750536 1_555
Cs2 Se1 3.819164 1_455
Cs2 Se4 3.819164 1_555
Cs2 Se0 3.908037 1_444
Cs2 Se5 3.908037 1_544
Cs2 Se0 4.054377 1_455
Cs2 Se5 4.054377 1_555
Cs2 Hg4 4.129338 1_455
Cs2 Hg3 4.129338 1_555
Cs3 Se7 3.750536 1_555
Cs3 Se2 3.750536 1_555
Cs3 Se0 3.819164 1_555
Cs3 Se5 3.819164 1_655
Cs3 Se1 3.908037 1_566
Cs3 Se4 3.908037 1_666
Cs3 Se1 4.054377 1_555
Cs3 Se4 4.054377 1_655
Cs3 Hg5 4.129338 1_555
Cs3 Hg2 4.129338 1_655
Hg0 Se2 2.746438 1_555
Hg0 Se0 2.746438 1_554
Hg0 Se3 2.746438 1_554
Hg0 Se1 2.746438 1_565
Hg1 Se4 2.746438 1_555
Hg1 Se7 2.746438 1_555
Hg1 Se5 2.746438 1_544
Hg1 Se6 2.746438 1_554
Hg2 Se4 2.522073 1_555
Hg2 Se6 2.522073 1_565
Hg3 Se5 2.522073 1_555
Hg3 Se7 2.522073 1_555
Hg4 Se0 2.522073 1_555
Hg4 Se2 2.522073 1_545
Hg5 Se3 2.522073 1_555
Hg5 Se1 2.522073 1_555
