# generated using pymatgen
data_Sr3MnFeO7
_symmetry_space_group_name_H-M   'P 1'
_cell_length_a   5.54333858
_cell_length_b   5.54361080
_cell_length_c   10.44883636
_cell_angle_alpha   90.01159792
_cell_angle_beta   105.39179422
_cell_angle_gamma   89.95599580
_symmetry_Int_Tables_number   1
_chemical_formula_structural   Sr3MnFeO7
_chemical_formula_sum   'Sr6 Mn2 Fe2 O14'
_cell_volume   309.57727815
_cell_formula_units_Z   2
loop_
 _symmetry_equiv_pos_site_id
 _symmetry_equiv_pos_as_xyz
  1  'x, y, z'
loop_
 _atom_site_type_symbol
 _atom_site_label
 _atom_site_symmetry_multiplicity
 _atom_site_fract_x
 _atom_site_fract_y
 _atom_site_fract_z
 _atom_site_occupancy
  Sr  Sr0  1  0.81786200  0.50001500  0.63579000  1
  Sr  Sr1  1  0.31780000  0.99999900  0.63576300  1
  Sr  Sr2  1  0.68247500  0.00001600  0.36468600  1
  Sr  Sr3  1  0.18243800  0.49999700  0.36477100  1
  Sr  Sr4  1  0.49991000  0.99997800  0.99967200  1
  Sr  Sr5  1  0.99987300  0.50001100  0.99968000  1
  Mn  Mn0  1  0.59784100  0.49999000  0.19560900  1
  Mn  Mn1  1  0.09806900  0.99999600  0.19607000  1
  Fe  Fe0  1  0.90282700  0.99995300  0.80581900  1
  Fe  Fe1  1  0.40287800  0.49999600  0.80588500  1
  O  O0  1  0.80665400  0.99996800  0.61343200  1
  O  O1  1  0.30612700  0.50005200  0.61264900  1
  O  O2  1  0.69338000  0.49992800  0.38649800  1
  O  O3  1  0.19272800  0.00005300  0.38531900  1
  O  O4  1  0.50021500  0.50003200  0.00042700  1
  O  O5  1  0.99989800  0.99996000  0.99999000  1
  O  O6  1  0.64235400  0.73810900  0.80866200  1
  O  O7  1  0.16628900  0.26187800  0.80867300  1
  O  O8  1  0.14148600  0.76252200  0.80772000  1
  O  O9  1  0.66613700  0.23754900  0.80761800  1
  O  O10  1  0.84595200  0.75032000  0.19146800  1
  O  O11  1  0.34556700  0.24965300  0.19144800  1
  O  O12  1  0.34557800  0.74992600  0.19123700  1
  O  O13  1  0.84566000  0.25010100  0.19111400  1
loop_
_geom_bond_atom_site_label_1
_geom_bond_atom_site_label_2
_geom_bond_distance
_geom_bond_site_symmetry_2
Mn0 O2 1.923030 1_555
Mn0 O13 1.959516 1_555
Mn0 O12 1.959702 1_555
Mn0 O10 1.963121 1_555
Mn0 O11 1.963190 1_555
Mn0 O4 1.966278 1_555
Mn1 O3 1.906508 1_565
Mn1 O11 1.959132 1_565
Mn1 O10 1.959218 1_455
Mn1 O12 1.959755 1_555
Mn1 O13 1.959933 1_465
Mn1 O5 1.975324 1_454
Fe0 O8 1.861847 1_655
Fe0 O9 1.862021 1_565
Fe0 O0 1.938121 1_555
Fe0 O5 1.956093 1_555
Fe0 O6 2.053956 1_555
Fe0 O7 2.054820 1_665
Fe1 O7 1.867165 1_555
Fe1 O6 1.867547 1_555
Fe1 O1 1.946674 1_555
Fe1 O4 1.959830 1_556
Fe1 O8 2.056560 1_555
Fe1 O9 2.056563 1_555
O0 Sr2 2.505886 1_565
O0 Sr1 2.780640 1_655
O0 Sr0 2.780682 1_555
O0 Sr1 2.780928 1_555
O0 Sr0 2.781202 1_565
O1 Sr3 2.497142 1_555
O1 Sr0 2.780585 1_455
O1 Sr1 2.781277 1_555
O1 Sr1 2.781861 1_545
O1 Sr0 2.782327 1_555
O2 Sr0 2.511386 1_555
O2 Sr3 2.779900 1_655
O2 Sr2 2.780016 1_555
O2 Sr3 2.780696 1_555
O2 Sr2 2.780988 1_565
O3 Sr1 2.522991 1_545
O3 Sr2 2.779068 1_455
O3 Sr3 2.779214 1_555
O3 Sr3 2.779834 1_545
O3 Sr2 2.779837 1_555
O4 Sr5 2.771504 1_454
O4 Sr4 2.771517 1_554
O4 Sr5 2.771855 1_554
O4 Sr4 2.772115 1_544
O5 Sr4 2.770723 1_555
O5 Sr5 2.771524 1_555
O5 Sr5 2.772091 1_565
O5 Sr4 2.772620 1_655
O6 Sr1 2.622985 1_555
O6 Sr0 2.623236 1_555
O6 Sr4 2.747345 1_555
O6 Sr5 2.747885 1_555
O7 Sr1 2.622927 1_545
O7 Sr0 2.623240 1_455
O7 Sr4 2.747513 1_545
O7 Sr5 2.747969 1_455
O8 Sr1 2.617596 1_555
O8 Sr0 2.618296 1_455
O8 Sr4 2.755130 1_555
O8 Sr5 2.756056 1_455
O9 Sr1 2.617170 1_545
O9 Sr0 2.617716 1_555
O9 Sr4 2.755919 1_545
O9 Sr5 2.756632 1_555
O10 Sr2 2.623133 1_565
O10 Sr3 2.624499 1_655
O10 Sr4 2.750939 1_554
O10 Sr5 2.752101 1_554
O11 Sr2 2.623386 1_555
O11 Sr3 2.624868 1_555
O11 Sr4 2.751408 1_544
O11 Sr5 2.751763 1_454
O12 Sr3 2.626530 1_555
O12 Sr2 2.626910 1_565
O12 Sr5 2.750433 1_454
O12 Sr4 2.751712 1_554
O13 Sr3 2.627084 1_655
O13 Sr2 2.627428 1_555
O13 Sr5 2.749874 1_554
O13 Sr4 2.750489 1_544
