# generated using pymatgen
data_Li5Co3O8
_symmetry_space_group_name_H-M   'P 1'
_cell_length_a   5.13730227
_cell_length_b   5.13730227
_cell_length_c   9.84852239
_cell_angle_alpha   77.95056220
_cell_angle_beta   77.95056220
_cell_angle_gamma   33.76834192
_symmetry_Int_Tables_number   1
_chemical_formula_structural   Li5Co3O8
_chemical_formula_sum   'Li5 Co3 O8'
_cell_volume   140.99361055
_cell_formula_units_Z   1
loop_
 _symmetry_equiv_pos_site_id
 _symmetry_equiv_pos_as_xyz
  1  'x, y, z'
loop_
 _atom_site_type_symbol
 _atom_site_label
 _atom_site_symmetry_multiplicity
 _atom_site_fract_x
 _atom_site_fract_y
 _atom_site_fract_z
 _atom_site_occupancy
  Li  Li0  1  0.24490300  0.24490300  0.87412300  1
  Li  Li1  1  0.75509700  0.75509700  0.12587700  1
  Li  Li2  1  0.25386000  0.25386000  0.37317000  1
  Li  Li3  1  0.74614000  0.74614000  0.62683000  1
  Li  Li4  1  0.50000000  0.50000000  0.00000000  1
  Co  Co0  1  0.99847900  0.99847900  0.76087900  1
  Co  Co1  1  0.00152100  0.00152100  0.23912100  1
  Co  Co2  1  0.50000000  0.50000000  0.50000000  1
  O  O0  1  0.38450600  0.38450600  0.68089000  1
  O  O1  1  0.88072100  0.88072100  0.91957700  1
  O  O2  1  0.38785700  0.38785700  0.19152300  1
  O  O3  1  0.88961200  0.88961200  0.42592200  1
  O  O4  1  0.11927900  0.11927900  0.08042300  1
  O  O5  1  0.61549400  0.61549400  0.31911000  1
  O  O6  1  0.11038800  0.11038800  0.57407800  1
  O  O7  1  0.61214300  0.61214300  0.80847700  1
loop_
_geom_bond_atom_site_label_1
_geom_bond_atom_site_label_2
_geom_bond_distance
_geom_bond_site_symmetry_2
Li0 O0 2.089454 1_555
Li0 O1 2.114370 1_455
Li0 O1 2.114370 1_545
Li0 O4 2.135081 1_556
Li0 O7 2.171668 1_455
Li0 O7 2.171668 1_545
Li1 O5 2.089454 1_555
Li1 O4 2.114370 1_565
Li1 O4 2.114370 1_655
Li1 O1 2.135081 1_554
Li1 O2 2.171668 1_565
Li1 O2 2.171668 1_655
Li2 O2 1.976773 1_555
Li2 O3 2.140111 1_455
Li2 O3 2.140111 1_545
Li2 O5 2.162489 1_455
Li2 O5 2.162489 1_545
Li2 O6 2.164944 1_555
Li3 O7 1.976773 1_555
Li3 O6 2.140111 1_655
Li3 O6 2.140111 1_565
Li3 O0 2.162489 1_655
Li3 O0 2.162489 1_565
Li3 O3 2.164944 1_555
Li4 O2 1.966229 1_555
Li4 O7 1.966229 1_554
Li4 O4 2.152705 1_655
Li4 O4 2.152705 1_565
Li4 O1 2.152705 1_544
Li4 O1 2.152705 1_454
Co0 O1 1.730223 1_555
Co0 O6 1.926638 1_665
Co0 O7 1.980760 1_655
Co0 O7 1.980760 1_565
Co0 O0 2.118404 1_565
Co0 O0 2.118404 1_655
Co1 O4 1.730223 1_555
Co1 O3 1.926638 1_445
Co1 O2 1.980760 1_545
Co1 O2 1.980760 1_455
Co1 O5 2.118404 1_455
Co1 O5 2.118404 1_545
Co2 O5 1.892215 1_555
Co2 O0 1.892215 1_555
Co2 O6 2.069269 1_655
Co2 O6 2.069269 1_565
Co2 O3 2.069269 1_455
Co2 O3 2.069269 1_545
