# generated using pymatgen
data_CuH6C2O7
_symmetry_space_group_name_H-M   'P 1'
_cell_length_a   6.58992400
_cell_length_b   9.60043800
_cell_length_c   10.33766700
_cell_angle_alpha   90.00000000
_cell_angle_beta   90.00000000
_cell_angle_gamma   90.00000000
_symmetry_Int_Tables_number   1
_chemical_formula_structural   CuH6C2O7
_chemical_formula_sum   'Cu4 H24 C8 O28'
_cell_volume   654.02446123
_cell_formula_units_Z   4
loop_
 _symmetry_equiv_pos_site_id
 _symmetry_equiv_pos_as_xyz
  1  'x, y, z'
loop_
 _atom_site_type_symbol
 _atom_site_label
 _atom_site_symmetry_multiplicity
 _atom_site_fract_x
 _atom_site_fract_y
 _atom_site_fract_z
 _atom_site_occupancy
  Cu  Cu0  1  0.50000000  0.75000000  0.63427900  1
  Cu  Cu1  1  0.50000000  0.25000000  0.86572100  1
  Cu  Cu2  1  0.50000000  0.25000000  0.36572100  1
  Cu  Cu3  1  0.50000000  0.75000000  0.13427900  1
  H  H0  1  0.18193000  0.63336200  0.77012500  1
  H  H1  1  0.81807000  0.86663800  0.77012500  1
  H  H2  1  0.81807000  0.13336200  0.72987500  1
  H  H3  1  0.18193000  0.36663800  0.72987500  1
  H  H4  1  0.81807000  0.36663800  0.22987500  1
  H  H5  1  0.18193000  0.13336200  0.22987500  1
  H  H6  1  0.18193000  0.86663800  0.27012500  1
  H  H7  1  0.81807000  0.63336200  0.27012500  1
  H  H8  1  0.28197000  0.75866400  0.85440700  1
  H  H9  1  0.71803000  0.74133600  0.85440700  1
  H  H10  1  0.71803000  0.25866400  0.64559300  1
  H  H11  1  0.28197000  0.24133600  0.64559300  1
  H  H12  1  0.71803000  0.24133600  0.14559300  1
  H  H13  1  0.28197000  0.25866400  0.14559300  1
  H  H14  1  0.28197000  0.74133600  0.35440700  1
  H  H15  1  0.71803000  0.75866400  0.35440700  1
  H  H16  1  0.91467700  0.52296700  0.67881300  1
  H  H17  1  0.08532300  0.97703300  0.67881300  1
  H  H18  1  0.08532300  0.02296700  0.82118700  1
  H  H19  1  0.91467700  0.47703300  0.82118700  1
  H  H20  1  0.08532300  0.47703300  0.32118700  1
  H  H21  1  0.91467700  0.02296700  0.32118700  1
  H  H22  1  0.91467700  0.97703300  0.17881300  1
  H  H23  1  0.08532300  0.52296700  0.17881300  1
  C  C0  1  0.60322200  0.48107600  0.52926800  1
  C  C1  1  0.39677800  0.01892400  0.52926800  1
  C  C2  1  0.39677800  0.98107600  0.97073200  1
  C  C3  1  0.60322200  0.51892400  0.97073200  1
  C  C4  1  0.39677800  0.51892400  0.47073200  1
  C  C5  1  0.60322200  0.98107600  0.47073200  1
  C  C6  1  0.60322200  0.01892400  0.02926800  1
  C  C7  1  0.39677800  0.48107600  0.02926800  1
  O  O0  1  0.68471500  0.57010600  0.60294500  1
  O  O1  1  0.31528500  0.92989400  0.60294500  1
  O  O2  1  0.31528500  0.07010600  0.89705500  1
  O  O3  1  0.68471500  0.42989400  0.89705500  1
  O  O4  1  0.31528500  0.42989400  0.39705500  1
  O  O5  1  0.68471500  0.07010600  0.39705500  1
  O  O6  1  0.68471500  0.92989400  0.10294500  1
  O  O7  1  0.31528500  0.57010600  0.10294500  1
  O  O8  1  0.32119200  0.63688500  0.49972900  1
  O  O9  1  0.67880800  0.86311500  0.49972900  1
  O  O10  1  0.67880800  0.13688500  0.00027100  1
  O  O11  1  0.32119200  0.36311500  0.00027100  1
  O  O12  1  0.67880800  0.36311500  0.50027100  1
  O  O13  1  0.32119200  0.13688500  0.50027100  1
  O  O14  1  0.32119200  0.86311500  0.99972900  1
  O  O15  1  0.67880800  0.63688500  0.99972900  1
  O  O16  1  0.30509700  0.69242400  0.78291100  1
  O  O17  1  0.69490300  0.80757600  0.78291100  1
  O  O18  1  0.69490300  0.19242400  0.71708900  1
  O  O19  1  0.30509700  0.30757600  0.71708900  1
  O  O20  1  0.69490300  0.30757600  0.21708900  1
  O  O21  1  0.30509700  0.19242400  0.21708900  1
  O  O22  1  0.30509700  0.80757600  0.28291100  1
  O  O23  1  0.69490300  0.69242400  0.28291100  1
  O  O24  1  0.01072900  0.50000000  0.75000000  1
  O  O25  1  0.98927100  0.00000000  0.75000000  1
  O  O26  1  0.98927100  0.50000000  0.25000000  1
  O  O27  1  0.01072900  0.00000000  0.25000000  1
loop_
_geom_bond_atom_site_label_1
_geom_bond_atom_site_label_2
_geom_bond_distance
_geom_bond_site_symmetry_2
Cu0 O16 2.077515 1_555
Cu0 O17 2.077515 1_555
Cu0 O9 2.121899 1_555
Cu0 O8 2.121899 1_555
Cu0 O0 2.137611 1_555
Cu0 O1 2.137611 1_555
Cu1 O18 2.077515 1_555
Cu1 O19 2.077515 1_555
Cu1 O10 2.121899 1_556
Cu1 O11 2.121899 1_556
Cu1 O3 2.137611 1_555
Cu1 O2 2.137611 1_555
Cu2 O21 2.077515 1_555
Cu2 O20 2.077515 1_555
Cu2 O13 2.121899 1_555
Cu2 O12 2.121899 1_555
Cu2 O5 2.137611 1_555
Cu2 O4 2.137611 1_555
Cu3 O22 2.077515 1_555
Cu3 O23 2.077515 1_555
Cu3 O15 2.121899 1_554
Cu3 O14 2.121899 1_554
Cu3 O6 2.137611 1_555
Cu3 O7 2.137611 1_555
H0 O16 0.998888 1_555
H1 O17 0.998888 1_555
H2 O18 0.998888 1_555
H3 O19 0.998888 1_555
H4 O20 0.998888 1_555
H5 O21 0.998888 1_555
H6 O22 0.998888 1_555
H7 O23 0.998888 1_555
H8 O16 0.986869 1_555
H9 O17 0.986869 1_555
H10 O18 0.986869 1_555
H11 O19 0.986869 1_555
H12 O20 0.986869 1_555
H13 O21 0.986869 1_555
H14 O22 0.986869 1_555
H15 O23 0.986869 1_555
H16 O24 0.995407 1_655
H17 O25 0.995407 1_465
H18 O25 0.995407 1_455
H19 O24 0.995407 1_655
H20 O26 0.995407 1_455
H21 O27 0.995407 1_655
H22 O27 0.995407 1_665
H23 O26 0.995407 1_455
C0 O0 1.264544 1_555
C0 O12 1.272977 1_555
C1 O1 1.264544 1_545
C1 O13 1.272977 1_555
C2 O2 1.264544 1_565
C2 O14 1.272977 1_555
C3 O3 1.264544 1_555
C3 O15 1.272977 1_555
C4 O4 1.264544 1_555
C4 O8 1.272977 1_555
C5 O5 1.264544 1_565
C5 O9 1.272977 1_555
C6 O6 1.264544 1_545
C6 O10 1.272977 1_555
C7 O7 1.264544 1_555
C7 O11 1.272977 1_555
