# generated using pymatgen
data_Ho3(Si3Pd10)2
_symmetry_space_group_name_H-M   'P 1'
_cell_length_a   8.63347129
_cell_length_b   8.63351075
_cell_length_c   8.63348671
_cell_angle_alpha   60.00011845
_cell_angle_beta   60.00013747
_cell_angle_gamma   60.00007689
_symmetry_Int_Tables_number   1
_chemical_formula_structural   Ho3(Si3Pd10)2
_chemical_formula_sum   'Ho3 Si6 Pd20'
_cell_volume   455.03541872
_cell_formula_units_Z   1
loop_
 _symmetry_equiv_pos_site_id
 _symmetry_equiv_pos_as_xyz
  1  'x, y, z'
loop_
 _atom_site_type_symbol
 _atom_site_label
 _atom_site_symmetry_multiplicity
 _atom_site_fract_x
 _atom_site_fract_y
 _atom_site_fract_z
 _atom_site_occupancy
  Ho  Ho0  1  0.25000384  0.24999800  0.24998880  1
  Ho  Ho1  1  0.74999601  0.75001421  0.74999226  1
  Ho  Ho2  1  0.00000912  -0.00001184  0.00000638  1
  Si  Si0  1  0.73296094  0.26704191  0.26703869  1
  Si  Si1  1  0.26704021  0.73295987  0.73296131  1
  Si  Si2  1  0.26703785  0.73295915  0.26703898  1
  Si  Si3  1  0.73296174  0.26704391  0.73295618  1
  Si  Si4  1  0.26703742  0.26704154  0.73295846  1
  Si  Si5  1  0.73296330  0.73295651  0.26704160  1
  Pd  Pd0  1  0.38341199  0.38341816  0.38341461  1
  Pd  Pd1  1  0.61658065  0.61658840  0.61658512  1
  Pd  Pd2  1  0.38341217  0.38341836  0.84974839  1
  Pd  Pd3  1  0.38341239  0.84975086  0.38341529  1
  Pd  Pd4  1  0.61658292  0.61658651  0.15024274  1
  Pd  Pd5  1  0.61657769  0.15025295  0.61658207  1
  Pd  Pd6  1  0.84975444  0.38341539  0.38341232  1
  Pd  Pd7  1  0.15024688  0.61658532  0.61658074  1
  Pd  Pd8  1  0.34551869  0.99999588  0.00000673  1
  Pd  Pd9  1  0.65446819  0.99999645  0.00000637  1
  Pd  Pd10  1  0.00000398  0.34553115  0.65447185  1
  Pd  Pd11  1  0.00000403  0.65448056  0.34552306  1
  Pd  Pd12  1  0.00000500  0.34552163  0.00000430  1
  Pd  Pd13  1  0.65447841  -0.00000420  0.34553127  1
  Pd  Pd14  1  0.00000482  0.65446955  0.00000501  1
  Pd  Pd15  1  0.34552995  -0.00000341  0.65447832  1
  Pd  Pd16  1  0.00000380  -0.00000662  0.34552222  1
  Pd  Pd17  1  0.00000291  -0.00000665  0.65447254  1
  Pd  Pd18  1  0.65446768  0.34552754  0.00000820  1
  Pd  Pd19  1  0.34551998  0.65447793  0.00000718  1
loop_
_geom_bond_atom_site_label_1
_geom_bond_atom_site_label_2
_geom_bond_distance
_geom_bond_site_symmetry_2
Ho0 Pd2 2.821385 1_554
Ho0 Pd3 2.821438 1_545
Ho0 Pd6 2.821442 1_455
Ho0 Pd0 2.821475 1_555
Ho1 Pd5 2.821379 1_565
Ho1 Pd1 2.821434 1_555
Ho1 Pd7 2.821452 1_655
Ho1 Pd4 2.821456 1_556
Ho2 Pd19 2.982966 1_545
Ho2 Pd8 2.982982 1_545
Ho2 Pd11 2.982984 1_545
Ho2 Pd16 2.983006 1_555
Ho2 Pd14 2.983063 1_545
Ho2 Pd15 2.983084 1_554
Ho2 Pd13 2.983113 1_455
Ho2 Pd12 2.983140 1_555
Ho2 Pd17 2.983166 1_554
Ho2 Pd9 2.983182 1_445
Ho2 Pd10 2.983214 1_554
Ho2 Pd18 2.983223 1_455
Pd0 Si2 2.463999 1_555
Pd0 Si4 2.464014 1_555
Pd0 Si0 2.464045 1_555
Pd1 Si1 2.463985 1_555
Pd1 Si5 2.464012 1_555
Pd1 Si3 2.464024 1_555
Pd2 Si4 2.463992 1_555
Pd2 Si1 2.464003 1_555
Pd2 Si3 2.464049 1_555
Pd3 Si2 2.463999 1_555
Pd3 Si1 2.464029 1_555
Pd3 Si5 2.464058 1_555
Pd4 Si2 2.464017 1_555
Pd4 Si0 2.464025 1_555
Pd4 Si5 2.464046 1_555
Pd5 Si4 2.463983 1_555
Pd5 Si0 2.464011 1_555
Pd5 Si3 2.464046 1_555
Pd6 Si0 2.463986 1_555
Pd6 Si5 2.464000 1_555
Pd6 Si3 2.464014 1_555
Pd7 Si2 2.463999 1_555
Pd7 Si4 2.464019 1_555
Pd7 Si1 2.464041 1_555
Pd8 Si2 2.402958 1_555
Pd8 Si4 2.403057 1_564
Pd9 Si5 2.403004 1_555
Pd9 Si3 2.403099 1_564
Pd10 Si4 2.402936 1_555
Pd10 Si3 2.403030 1_455
Pd11 Si2 2.402915 1_555
Pd11 Si5 2.403008 1_455
Pd12 Si0 2.402995 1_455
Pd12 Si4 2.403000 1_554
Pd13 Si0 2.403021 1_555
Pd13 Si5 2.403026 1_545
Pd14 Si5 2.402994 1_455
Pd14 Si1 2.403002 1_554
Pd15 Si4 2.402999 1_555
Pd15 Si1 2.403010 1_545
Pd16 Si2 2.402952 1_545
Pd16 Si0 2.403038 1_455
Pd17 Si1 2.402977 1_545
Pd17 Si3 2.403062 1_455
Pd18 Si0 2.402962 1_555
Pd18 Si3 2.403067 1_554
Pd19 Si2 2.402922 1_555
Pd19 Si1 2.403028 1_554
