# generated using pymatgen
data_Pr(Ni2B)6
_symmetry_space_group_name_H-M   'P 1'
_cell_length_a   6.00419494
_cell_length_b   6.00419494
_cell_length_c   10.98928582
_cell_angle_alpha   90.00000000
_cell_angle_beta   90.00000000
_cell_angle_gamma   104.69115487
_symmetry_Int_Tables_number   1
_chemical_formula_structural   Pr(Ni2B)6
_chemical_formula_sum   'Pr2 Ni24 B12'
_cell_volume   383.21573207
_cell_formula_units_Z   2
loop_
 _symmetry_equiv_pos_site_id
 _symmetry_equiv_pos_as_xyz
  1  'x, y, z'
loop_
 _atom_site_type_symbol
 _atom_site_label
 _atom_site_symmetry_multiplicity
 _atom_site_fract_x
 _atom_site_fract_y
 _atom_site_fract_z
 _atom_site_occupancy
  Pr  Pr0  1  0.83296473  0.83296473  0.49864284  1
  Pr  Pr1  1  0.16703527  0.16703527  0.99864284  1
  Ni  Ni0  1  0.56945367  0.56945367  0.91622630  1
  Ni  Ni1  1  0.43054633  0.43054633  0.41622630  1
  Ni  Ni2  1  0.77651559  0.77651559  0.09948273  1
  Ni  Ni3  1  0.22348441  0.22348441  0.59948273  1
  Ni  Ni4  1  0.53925959  0.80460685  0.73538075  1
  Ni  Ni5  1  0.80460685  0.53925959  0.73538075  1
  Ni  Ni6  1  0.46074041  0.19539315  0.23538075  1
  Ni  Ni7  1  0.19539315  0.46074041  0.23538075  1
  Ni  Ni8  1  0.14683680  0.87944648  0.75581448  1
  Ni  Ni9  1  0.87944648  0.14683680  0.75581448  1
  Ni  Ni10  1  0.85316320  0.12055352  0.25581448  1
  Ni  Ni11  1  0.12055352  0.85316320  0.25581448  1
  Ni  Ni12  1  0.65677054  0.27535725  0.56720021  1
  Ni  Ni13  1  0.27535725  0.65677054  0.56720021  1
  Ni  Ni14  1  0.34322946  0.72464275  0.06720021  1
  Ni  Ni15  1  0.72464275  0.34322946  0.06720021  1
  Ni  Ni16  1  0.62940904  0.99306987  0.93734911  1
  Ni  Ni17  1  0.99306987  0.62940904  0.93734911  1
  Ni  Ni18  1  0.37059096  0.00693013  0.43734911  1
  Ni  Ni19  1  0.00693013  0.37059096  0.43734911  1
  Ni  Ni20  1  0.47450461  0.21034014  0.77446031  1
  Ni  Ni21  1  0.21034014  0.47450461  0.77446031  1
  Ni  Ni22  1  0.52549539  0.78965986  0.27446031  1
  Ni  Ni23  1  0.78965986  0.52549539  0.27446031  1
  B  B0  1  0.83616656  0.83616656  0.83299563  1
  B  B1  1  0.16383344  0.16383344  0.33299563  1
  B  B2  1  0.48725770  0.48725770  0.65979441  1
  B  B3  1  0.51274230  0.51274230  0.15979441  1
  B  B4  1  0.32319163  0.75105407  0.88583169  1
  B  B5  1  0.75105407  0.32319163  0.88583169  1
  B  B6  1  0.67680837  0.24894593  0.38583169  1
  B  B7  1  0.24894593  0.67680837  0.38583169  1
  B  B8  1  0.39865240  0.98655484  0.62189298  1
  B  B9  1  0.98655484  0.39865240  0.62189298  1
  B  B10  1  0.60134760  0.01344516  0.12189298  1
  B  B11  1  0.01344516  0.60134760  0.12189298  1
loop_
_geom_bond_atom_site_label_1
_geom_bond_atom_site_label_2
_geom_bond_distance
_geom_bond_site_symmetry_2
Ni0 Pr1 3.087909 1_555
Ni1 Pr0 3.087909 1_555
Ni2 Pr1 3.071670 1_664
Ni3 Pr0 3.071670 1_445
Ni4 Pr0 3.123254 1_555
Ni5 Pr0 3.123254 1_555
Ni6 Pr1 3.123254 1_554
Ni7 Pr1 3.123254 1_554
Ni8 Pr1 3.164027 1_565
Ni8 Pr0 3.368927 1_455
Ni9 Pr1 3.164027 1_655
Ni9 Pr0 3.368927 1_545
Ni10 Pr0 3.164027 1_545
Ni10 Pr1 3.368927 1_654
Ni11 Pr0 3.164027 1_455
Ni11 Pr1 3.368927 1_564
Ni12 Pr0 3.188654 1_545
Ni12 Pr0 3.331558 1_555
Ni13 Pr0 3.188654 1_455
Ni13 Pr0 3.331558 1_555
Ni14 Pr1 3.188654 1_564
Ni14 Pr1 3.331558 1_554
Ni15 Pr1 3.188654 1_654
Ni15 Pr1 3.331558 1_554
Ni16 Pr1 3.202280 1_665
Ni16 Pr1 3.274559 1_565
Ni17 Pr1 3.202280 1_665
Ni17 Pr1 3.274559 1_655
Ni18 Pr0 3.202280 1_445
Ni18 Pr0 3.274559 1_545
Ni19 Pr0 3.202280 1_445
Ni19 Pr0 3.274559 1_455
Ni20 Pr1 3.049852 1_555
Ni21 Pr1 3.049852 1_555
Ni22 Pr0 3.049852 1_555
Ni23 Pr0 3.049852 1_555
B0 Ni9 2.005115 1_565
B0 Ni8 2.005115 1_655
B0 Ni4 2.047746 1_555
B0 Ni5 2.047746 1_555
B0 Ni16 2.082521 1_555
B0 Ni17 2.082521 1_555
B0 Ni0 2.159809 1_555
B0 Pr1 3.033981 1_665
B1 Ni10 2.005115 1_455
B1 Ni11 2.005115 1_545
B1 Ni6 2.047746 1_555
B1 Ni7 2.047746 1_555
B1 Ni18 2.082521 1_555
B1 Ni19 2.082521 1_555
B1 Ni1 2.159809 1_555
B1 Pr0 3.033981 1_445
B2 Ni5 2.028877 1_555
B2 Ni4 2.028877 1_555
B2 Ni3 2.045374 1_555
B2 Ni20 2.072098 1_555
B2 Ni21 2.072098 1_555
B2 Ni12 2.084903 1_555
B2 Ni13 2.084903 1_555
B2 Pr0 3.093200 1_555
B3 Ni7 2.028877 1_555
B3 Ni6 2.028877 1_555
B3 Ni2 2.045374 1_555
B3 Ni22 2.072098 1_555
B3 Ni23 2.072098 1_555
B3 Ni14 2.084903 1_555
B3 Ni15 2.084903 1_555
B3 Pr1 3.093200 1_554
B4 Ni14 2.005440 1_556
B4 Ni17 2.012077 1_455
B4 Ni21 2.035554 1_555
B4 Ni8 2.042294 1_555
B4 Ni0 2.074724 1_555
B4 Ni4 2.075667 1_555
B4 Ni16 2.111240 1_555
B4 Pr1 3.137184 1_565
B5 Ni15 2.005440 1_556
B5 Ni16 2.012077 1_545
B5 Ni20 2.035554 1_555
B5 Ni9 2.042294 1_555
B5 Ni0 2.074724 1_555
B5 Ni5 2.075667 1_555
B5 Ni17 2.111240 1_555
B5 Pr1 3.137184 1_655
B6 Ni12 2.005440 1_555
B6 Ni19 2.012077 1_655
B6 Ni23 2.035554 1_555
B6 Ni10 2.042294 1_555
B6 Ni1 2.074724 1_555
B6 Ni6 2.075667 1_555
B6 Ni18 2.111240 1_555
B6 Pr0 3.137184 1_545
B7 Ni13 2.005440 1_555
B7 Ni18 2.012077 1_565
B7 Ni22 2.035554 1_555
B7 Ni11 2.042294 1_555
B7 Ni1 2.074724 1_555
B7 Ni7 2.075667 1_555
B7 Ni19 2.111240 1_555
B7 Pr0 3.137184 1_455
B8 Ni4 1.982261 1_555
B8 Ni3 1.987312 1_565
B8 Ni13 2.021515 1_555
B8 Ni18 2.041229 1_565
B8 Ni8 2.091002 1_555
B8 Ni12 2.099252 1_565
B8 Ni20 2.124485 1_565
B8 Pr0 3.271809 1_555
B9 Ni5 1.982261 1_555
B9 Ni3 1.987312 1_655
B9 Ni12 2.021515 1_555
B9 Ni19 2.041229 1_655
B9 Ni9 2.091002 1_555
B9 Ni13 2.099252 1_655
B9 Ni21 2.124485 1_655
B9 Pr0 3.271809 1_555
B10 Ni6 1.982261 1_555
B10 Ni2 1.987312 1_545
B10 Ni15 2.021515 1_555
B10 Ni16 2.041229 1_544
B10 Ni10 2.091002 1_555
B10 Ni14 2.099252 1_545
B10 Ni22 2.124485 1_545
B10 Pr1 3.271809 1_554
B11 Ni7 1.982261 1_555
B11 Ni2 1.987312 1_455
B11 Ni14 2.021515 1_555
B11 Ni17 2.041229 1_454
B11 Ni11 2.091002 1_555
B11 Ni15 2.099252 1_455
B11 Ni23 2.124485 1_455
B11 Pr1 3.271809 1_554
