# generated using pymatgen
data_EuMgAl11O19
_symmetry_space_group_name_H-M   'P 1'
_cell_length_a   5.67286571
_cell_length_b   5.67349200
_cell_length_c   22.46383549
_cell_angle_alpha   90.00000000
_cell_angle_beta   89.97407544
_cell_angle_gamma   59.99634788
_symmetry_Int_Tables_number   1
_chemical_formula_structural   EuMgAl11O19
_chemical_formula_sum   'Eu2 Mg2 Al22 O38'
_cell_volume   626.11116479
_cell_formula_units_Z   2
loop_
 _symmetry_equiv_pos_site_id
 _symmetry_equiv_pos_as_xyz
  1  'x, y, z'
loop_
 _atom_site_type_symbol
 _atom_site_label
 _atom_site_symmetry_multiplicity
 _atom_site_fract_x
 _atom_site_fract_y
 _atom_site_fract_z
 _atom_site_occupancy
  Eu  Eu0  1  0.33456600  0.33271700  0.26063300  1
  Eu  Eu1  1  0.66543400  0.66728300  0.73936700  1
  Mg  Mg0  1  0.33394800  0.33302600  0.52519100  1
  Mg  Mg1  1  0.66605200  0.66697400  0.47480900  1
  Al  Al0  1  0.16562700  0.66790900  0.39312000  1
  Al  Al1  1  0.66730700  0.16634700  0.39318900  1
  Al  Al2  1  0.16562700  0.16646400  0.39312000  1
  Al  Al3  1  0.83437300  0.33209100  0.60688000  1
  Al  Al4  1  0.33269300  0.83365300  0.60681100  1
  Al  Al5  1  0.83437300  0.83353600  0.60688000  1
  Al  Al6  1  0.83174500  0.33515000  0.89074600  1
  Al  Al7  1  0.33409900  0.83295100  0.89062200  1
  Al  Al8  1  0.83174500  0.83310500  0.89074600  1
  Al  Al9  1  0.16825500  0.66485000  0.10925400  1
  Al  Al10  1  0.66590100  0.16704900  0.10937800  1
  Al  Al11  1  0.16825500  0.16689500  0.10925400  1
  Al  Al12  1  0.33347200  0.33326400  0.68724300  1
  Al  Al13  1  0.66652800  0.66673600  0.31275700  1
  Al  Al14  1  0.66677600  0.66661200  0.19697700  1
  Al  Al15  1  0.33322400  0.33338800  0.80302300  1
  Al  Al16  1  0.99995800  0.00002100  0.74504800  1
  Al  Al17  1  0.00004200  0.99997900  0.25495200  1
  Al  Al18  1  0.00000000  0.00000000  0.50000000  1
  Al  Al19  1  0.00000000  0.00000000  0.00000000  1
  Al  Al20  1  0.66806000  0.66597000  0.07486100  1
  Al  Al21  1  0.33194000  0.33403000  0.92513900  1
  O  O0  1  0.14857600  0.70366000  0.55604000  1
  O  O1  1  0.70446800  0.14776600  0.55610800  1
  O  O2  1  0.14857600  0.14776500  0.55604000  1
  O  O3  1  0.85142400  0.29634000  0.44396000  1
  O  O4  1  0.29553200  0.85223400  0.44389200  1
  O  O5  1  0.85142400  0.85223500  0.44396000  1
  O  O6  1  0.84839500  0.30408600  0.05607000  1
  O  O7  1  0.30585200  0.84707400  0.05608800  1
  O  O8  1  0.84839500  0.84752000  0.05607000  1
  O  O9  1  0.15160500  0.69591400  0.94393000  1
  O  O10  1  0.69414800  0.15292600  0.94391200  1
  O  O11  1  0.15160500  0.15248000  0.94393000  1
  O  O12  1  0.00056300  0.99971900  0.65483700  1
  O  O13  1  0.99943700  0.00028100  0.34516300  1
  O  O14  1  0.00077700  0.99961200  0.15350300  1
  O  O15  1  0.99922300  0.00038800  0.84649700  1
  O  O16  1  0.50629900  0.98775600  0.65262800  1
  O  O17  1  0.98767800  0.50616100  0.65280800  1
  O  O18  1  0.50629900  0.50594600  0.65262800  1
  O  O19  1  0.49370100  0.01224500  0.34737200  1
  O  O20  1  0.01232200  0.49383900  0.34719200  1
  O  O21  1  0.49370100  0.49405400  0.34737200  1
  O  O22  1  0.50974300  0.98117700  0.14888400  1
  O  O23  1  0.98038000  0.50981000  0.14850200  1
  O  O24  1  0.50974300  0.50908000  0.14888400  1
  O  O25  1  0.49025700  0.01882300  0.85111600  1
  O  O26  1  0.01962000  0.49019000  0.85149800  1
  O  O27  1  0.49025700  0.49092000  0.85111600  1
  O  O28  1  0.33265800  0.33367100  0.43715300  1
  O  O29  1  0.66734200  0.66632900  0.56284700  1
  O  O30  1  0.66575100  0.66712400  0.93142600  1
  O  O31  1  0.33424900  0.33287600  0.06857400  1
  O  O32  1  0.18239600  0.63580800  0.74861500  1
  O  O33  1  0.63571500  0.18214300  0.74851300  1
  O  O34  1  0.18239600  0.18179600  0.74861500  1
  O  O35  1  0.81760400  0.36419200  0.25138500  1
  O  O36  1  0.36428500  0.81785700  0.25148700  1
  O  O37  1  0.81760400  0.81820400  0.25138500  1
loop_
_geom_bond_atom_site_label_1
_geom_bond_atom_site_label_2
_geom_bond_distance
_geom_bond_site_symmetry_2
Eu0 O21 2.505482 1_555
Eu0 O19 2.505482 1_555
Eu0 O20 2.506749 1_555
Eu0 O35 2.841243 1_555
Eu0 O37 2.841243 1_545
Eu0 O36 2.847913 1_555
Eu0 O36 2.847919 1_545
Eu0 O37 2.855226 1_455
Eu0 O35 2.855226 1_455
Eu0 O22 3.046736 1_545
Eu0 O24 3.046736 1_555
Eu0 O23 3.062187 1_455
Eu1 O18 2.505482 1_555
Eu1 O16 2.505486 1_555
Eu1 O17 2.506749 1_555
Eu1 O34 2.841243 1_565
Eu1 O32 2.841243 1_555
Eu1 O33 2.847913 1_555
Eu1 O33 2.847919 1_565
Eu1 O32 2.855226 1_655
Eu1 O34 2.855226 1_655
Eu1 O27 3.046736 1_555
Eu1 O25 3.046736 1_565
Eu1 O26 3.062187 1_655
Mg0 O2 1.948230 1_555
Mg0 O0 1.948235 1_555
Mg0 O1 1.948576 1_555
Mg0 O28 1.977685 1_555
Mg1 O5 1.948230 1_555
Mg1 O3 1.948235 1_555
Mg1 O4 1.948576 1_555
Mg1 O29 1.977685 1_555
Al0 O21 1.911838 1_555
Al0 O20 1.912040 1_555
Al0 O28 1.917296 1_555
Al0 O5 1.925861 1_455
Al0 O4 1.925882 1_555
Al0 O13 1.956584 1_465
Al1 O21 1.911978 1_555
Al1 O19 1.911982 1_555
Al1 O28 1.917408 1_555
Al1 O3 1.925380 1_555
Al1 O5 1.925388 1_545
Al1 O13 1.955590 1_555
Al2 O19 1.911838 1_555
Al2 O20 1.912040 1_555
Al2 O28 1.917296 1_555
Al2 O3 1.925861 1_455
Al2 O4 1.925882 1_545
Al2 O13 1.956588 1_455
Al3 O18 1.911838 1_555
Al3 O17 1.912040 1_555
Al3 O29 1.917296 1_555
Al3 O2 1.925861 1_655
Al3 O1 1.925882 1_555
Al3 O12 1.956584 1_645
Al4 O18 1.911978 1_555
Al4 O16 1.911986 1_555
Al4 O29 1.917408 1_555
Al4 O0 1.925380 1_555
Al4 O2 1.925388 1_565
Al4 O12 1.955590 1_555
Al5 O16 1.911837 1_555
Al5 O17 1.912040 1_555
Al5 O29 1.917296 1_555
Al5 O0 1.925861 1_655
Al5 O1 1.925882 1_565
Al5 O12 1.956588 1_655
Al6 O30 1.869399 1_555
Al6 O27 1.901501 1_555
Al6 O26 1.903602 1_655
Al6 O15 1.921563 1_555
Al6 O10 1.977560 1_555
Al6 O11 1.978672 1_655
Al7 O30 1.869852 1_555
Al7 O25 1.902095 1_565
Al7 O27 1.902100 1_555
Al7 O15 1.921114 1_465
Al7 O11 1.978405 1_565
Al7 O9 1.978413 1_555
Al8 O30 1.869403 1_555
Al8 O25 1.901501 1_565
Al8 O26 1.903602 1_655
Al8 O15 1.921559 1_565
Al8 O10 1.977560 1_565
Al8 O9 1.978672 1_655
Al9 O31 1.869399 1_555
Al9 O24 1.901501 1_555
Al9 O23 1.903602 1_455
Al9 O14 1.921563 1_555
Al9 O7 1.977560 1_555
Al9 O8 1.978672 1_455
Al10 O31 1.869852 1_555
Al10 O22 1.902095 1_545
Al10 O24 1.902100 1_555
Al10 O14 1.921114 1_645
Al10 O8 1.978405 1_545
Al10 O6 1.978413 1_555
Al11 O31 1.869403 1_555
Al11 O22 1.901501 1_545
Al11 O23 1.903602 1_455
Al11 O14 1.921559 1_545
Al11 O7 1.977560 1_545
Al11 O6 1.978672 1_455
Al12 O17 1.866966 1_455
Al12 O16 1.866985 1_545
Al12 O18 1.866990 1_555
Al12 O33 2.025139 1_555
Al12 O32 2.027111 1_555
Al12 O34 2.027111 1_555
Al13 O20 1.866966 1_655
Al13 O19 1.866990 1_565
Al13 O21 1.866990 1_555
Al13 O36 2.025139 1_555
Al13 O37 2.027111 1_555
Al13 O35 2.027111 1_555
Al14 O24 1.885916 1_555
Al14 O22 1.885916 1_555
Al14 O23 1.886152 1_555
Al14 O37 1.924191 1_555
Al14 O35 1.924191 1_555
Al14 O36 1.925049 1_555
Al15 O25 1.885916 1_555
Al15 O27 1.885916 1_555
Al15 O26 1.886152 1_555
Al15 O34 1.924191 1_555
Al15 O32 1.924191 1_555
Al15 O33 1.925049 1_555
Al16 O33 1.791055 1_555
Al16 O34 1.791269 1_655
Al16 O32 1.791269 1_645
Al16 O12 2.026486 1_645
Al16 O15 2.278935 1_555
Al17 O36 1.791055 1_555
Al17 O35 1.791269 1_465
Al17 O37 1.791269 1_455
Al17 O13 2.026486 1_465
Al17 O14 2.278935 1_555
Al18 O1 1.922125 1_455
Al18 O4 1.922125 1_545
Al18 O3 1.924995 1_455
Al18 O0 1.924995 1_545
Al18 O2 1.924998 1_555
Al18 O5 1.924998 1_445
Al19 O11 1.953873 1_554
Al19 O8 1.953873 1_445
Al19 O6 1.953877 1_455
Al19 O9 1.953877 1_544
Al19 O7 1.961405 1_545
Al19 O10 1.961405 1_454
Al20 O6 1.827329 1_555
Al20 O8 1.827333 1_555
Al20 O7 1.828911 1_555
Al20 O23 2.256851 1_555
Al20 O22 2.272026 1_555
Al20 O24 2.272026 1_555
Al21 O9 1.827329 1_555
Al21 O11 1.827333 1_555
Al21 O10 1.828911 1_555
Al21 O26 2.256851 1_555
Al21 O27 2.272026 1_555
Al21 O25 2.272026 1_555
