# generated using pymatgen
data_Ba3Co8Sn3O20
_symmetry_space_group_name_H-M   'P 1'
_cell_length_a   10.21136858
_cell_length_b   10.21136858
_cell_length_c   5.32636706
_cell_angle_alpha   75.74281848
_cell_angle_beta   75.74281848
_cell_angle_gamma   72.56308039
_symmetry_Int_Tables_number   1
_chemical_formula_structural   Ba3Co8Sn3O20
_chemical_formula_sum   'Ba3 Co8 Sn3 O20'
_cell_volume   504.53644603
_cell_formula_units_Z   1
loop_
 _symmetry_equiv_pos_site_id
 _symmetry_equiv_pos_as_xyz
  1  'x, y, z'
loop_
 _atom_site_type_symbol
 _atom_site_label
 _atom_site_symmetry_multiplicity
 _atom_site_fract_x
 _atom_site_fract_y
 _atom_site_fract_z
 _atom_site_occupancy
  Ba  Ba0  1  0.22619800  0.22619800  0.26978600  1
  Ba  Ba1  1  0.77380200  0.77380200  0.73021400  1
  Ba  Ba2  1  0.50000000  0.50000000  0.00000000  1
  Co  Co0  1  0.48716500  0.22270300  0.65971100  1
  Co  Co1  1  0.51283500  0.77729700  0.34028900  1
  Co  Co2  1  0.77729700  0.51283500  0.34028900  1
  Co  Co3  1  0.22270300  0.48716500  0.65971100  1
  Co  Co4  1  0.36618700  0.92269600  0.83720800  1
  Co  Co5  1  0.63381300  0.07730400  0.16279200  1
  Co  Co6  1  0.07730400  0.63381300  0.16279200  1
  Co  Co7  1  0.92269600  0.36618700  0.83720800  1
  Sn  Sn0  1  0.00000000  0.00000000  0.00000000  1
  Sn  Sn1  1  0.14409700  0.85590300  0.50000000  1
  Sn  Sn2  1  0.85590300  0.14409700  0.50000000  1
  O  O0  1  0.40635000  0.40635000  0.51654400  1
  O  O1  1  0.59365000  0.59365000  0.48345600  1
  O  O2  1  0.06592900  0.06592900  0.60174400  1
  O  O3  1  0.93407100  0.93407100  0.39825600  1
  O  O4  1  0.66238900  0.16693000  0.42474900  1
  O  O5  1  0.33761100  0.83307000  0.57525100  1
  O  O6  1  0.83307000  0.33761100  0.57525100  1
  O  O7  1  0.16693000  0.66238900  0.42474900  1
  O  O8  1  0.37969600  0.10269900  0.67832500  1
  O  O9  1  0.62030400  0.89730100  0.32167500  1
  O  O10  1  0.89730100  0.62030400  0.32167500  1
  O  O11  1  0.10269900  0.37969600  0.67832500  1
  O  O12  1  0.50604200  0.78287400  0.98797700  1
  O  O13  1  0.49395800  0.21712600  0.01202300  1
  O  O14  1  0.21712600  0.49395800  0.01202300  1
  O  O15  1  0.78287400  0.50604200  0.98797700  1
  O  O16  1  0.19523500  0.95348300  0.10903100  1
  O  O17  1  0.80476500  0.04651700  0.89096900  1
  O  O18  1  0.04651700  0.80476500  0.89096900  1
  O  O19  1  0.95348300  0.19523500  0.10903100  1
loop_
_geom_bond_atom_site_label_1
_geom_bond_atom_site_label_2
_geom_bond_distance
_geom_bond_site_symmetry_2
Ba0 O2 2.690279 1_555
Ba0 O14 2.726031 1_555
Ba0 O13 2.726031 1_555
Ba0 O8 2.815309 1_555
Ba0 O11 2.815309 1_555
Ba1 O3 2.690279 1_555
Ba1 O15 2.726031 1_555
Ba1 O12 2.726031 1_555
Ba1 O10 2.815309 1_555
Ba1 O9 2.815309 1_555
Ba2 O0 2.711989 1_555
Ba2 O1 2.711989 1_554
Ba2 O15 2.892277 1_554
Ba2 O12 2.892277 1_554
Ba2 O13 2.892277 1_555
Ba2 O14 2.892277 1_555
Co0 O8 1.846144 1_555
Co0 O0 1.859394 1_555
Co0 O13 1.881111 1_556
Co0 O4 1.931191 1_555
Co1 O9 1.846144 1_555
Co1 O1 1.859394 1_555
Co1 O12 1.881111 1_554
Co1 O5 1.931191 1_555
Co2 O10 1.846144 1_555
Co2 O1 1.859394 1_555
Co2 O15 1.881111 1_554
Co2 O6 1.931191 1_555
Co3 O11 1.846144 1_555
Co3 O0 1.859394 1_555
Co3 O14 1.881111 1_556
Co3 O7 1.931191 1_555
Co4 O8 1.855268 1_565
Co4 O12 1.871111 1_555
Co4 O5 1.964461 1_555
Co4 O16 1.973010 1_556
Co5 O9 1.855268 1_545
Co5 O13 1.871111 1_555
Co5 O4 1.964461 1_555
Co5 O17 1.973010 1_554
Co6 O10 1.855268 1_455
Co6 O14 1.871111 1_555
Co6 O7 1.964461 1_555
Co6 O18 1.973010 1_554
Co7 O11 1.855268 1_655
Co7 O15 1.871111 1_555
Co7 O6 1.964461 1_555
Co7 O19 1.973010 1_556
O2 Sn0 2.066645 1_556
O2 Sn1 2.205404 1_545
O2 Sn2 2.205404 1_455
O3 Sn0 2.066645 1_665
O3 Sn2 2.205404 1_565
O3 Sn1 2.205404 1_655
O4 Sn2 2.046393 1_555
O5 Sn1 2.046393 1_555
O6 Sn2 2.046393 1_555
O7 Sn1 2.046393 1_555
O16 Sn1 2.087175 1_555
O16 Sn0 2.098630 1_565
O17 Sn2 2.087175 1_555
O17 Sn0 2.098630 1_656
O18 Sn1 2.087175 1_555
O18 Sn0 2.098630 1_566
O19 Sn2 2.087175 1_555
O19 Sn0 2.098630 1_655
