# generated using pymatgen
data_Sr4CaMn2(GaO5)2
_symmetry_space_group_name_H-M   'P 1'
_cell_length_a   6.10768887
_cell_length_b   6.04759165
_cell_length_c   9.99822861
_cell_angle_alpha   66.27440528
_cell_angle_beta   73.74638651
_cell_angle_gamma   98.06366205
_symmetry_Int_Tables_number   1
_chemical_formula_structural   Sr4CaMn2(GaO5)2
_chemical_formula_sum   'Sr4 Ca1 Mn2 Ga2 O10'
_cell_volume   310.85114213
_cell_formula_units_Z   1
loop_
 _symmetry_equiv_pos_site_id
 _symmetry_equiv_pos_as_xyz
  1  'x, y, z'
loop_
 _atom_site_type_symbol
 _atom_site_label
 _atom_site_symmetry_multiplicity
 _atom_site_fract_x
 _atom_site_fract_y
 _atom_site_fract_z
 _atom_site_occupancy
  Sr  Sr0  1  0.06786700  0.63002200  0.79583800  1
  Sr  Sr1  1  0.93213300  0.36997800  0.20416200  1
  Sr  Sr2  1  0.75728700  0.04091700  0.64778400  1
  Sr  Sr3  1  0.24271300  0.95908300  0.35221600  1
  Ca  Ca0  1  0.50000000  0.00000000  0.00000000  1
  Mn  Mn0  1  0.50000000  0.50000000  0.00000000  1
  Mn  Mn1  1  0.00000000  0.00000000  0.00000000  1
  Ga  Ga0  1  0.63046900  0.62234200  0.55223300  1
  Ga  Ga1  1  0.36953100  0.37765800  0.44776700  1
  O  O0  1  0.20869800  0.15795100  0.08452000  1
  O  O1  1  0.25211800  0.75755300  0.95105400  1
  O  O2  1  0.74788200  0.24244700  0.04894600  1
  O  O3  1  0.79130200  0.84204900  0.91548000  1
  O  O4  1  0.64623200  0.52472400  0.75005300  1
  O  O5  1  0.35376800  0.47527600  0.24994700  1
  O  O6  1  0.17838000  0.05280700  0.57290500  1
  O  O7  1  0.82162000  0.94719300  0.42709500  1
  O  O8  1  0.31179300  0.58589800  0.54773400  1
  O  O9  1  0.68820700  0.41410200  0.45226600  1
loop_
_geom_bond_atom_site_label_1
_geom_bond_atom_site_label_2
_geom_bond_distance
_geom_bond_site_symmetry_2
Ca0 O2 2.247404 1_555
Ca0 O1 2.247404 1_544
Ca0 O0 2.253173 1_555
Ca0 O3 2.253173 1_544
Ca0 O5 2.947318 1_545
Ca0 O4 2.947318 1_554
Mn0 O3 2.208568 1_554
Mn0 O0 2.208568 1_555
Mn0 O2 2.328221 1_555
Mn0 O1 2.328221 1_554
Mn0 O4 2.340433 1_554
Mn0 O5 2.340433 1_555
Mn1 O0 2.040166 1_555
Mn1 O3 2.040166 1_444
Mn1 O2 2.355724 1_455
Mn1 O1 2.355724 1_544
Ga0 O7 1.829983 1_555
Ga0 O4 1.858119 1_555
Ga0 O9 1.910366 1_555
Ga0 O8 1.943093 1_555
Ga1 O6 1.829983 1_555
Ga1 O5 1.858119 1_555
Ga1 O8 1.910366 1_555
Ga1 O9 1.943093 1_555
O0 Sr3 2.538543 1_545
O0 Sr1 2.576675 1_455
O1 Sr0 2.442716 1_555
O1 Sr1 2.625000 1_456
O2 Sr1 2.442716 1_555
O2 Sr0 2.625000 1_654
O3 Sr2 2.538543 1_565
O3 Sr0 2.576675 1_655
O4 Sr0 2.771500 1_655
O4 Sr2 2.774860 1_565
O5 Sr1 2.771500 1_455
O5 Sr3 2.774860 1_545
O6 Sr3 2.434722 1_545
O6 Sr2 2.450981 1_455
O6 Sr0 2.459413 1_545
O7 Sr2 2.434722 1_565
O7 Sr3 2.450981 1_655
O7 Sr1 2.459413 1_565
O8 Sr3 2.504287 1_555
O8 Sr0 2.649454 1_555
O9 Sr2 2.504287 1_555
O9 Sr1 2.649454 1_555
