# generated using pymatgen
data_Zr3TiCu2
_symmetry_space_group_name_H-M   'P 1'
_cell_length_a   3.15432343
_cell_length_b   3.15432343
_cell_length_c   11.01132664
_cell_angle_alpha   90.00000000
_cell_angle_beta   90.00000000
_cell_angle_gamma   90.00000000
_symmetry_Int_Tables_number   1
_chemical_formula_structural   Zr3TiCu2
_chemical_formula_sum   'Zr3 Ti1 Cu2'
_cell_volume   109.56001662
_cell_formula_units_Z   1
loop_
 _symmetry_equiv_pos_site_id
 _symmetry_equiv_pos_as_xyz
  1  'x, y, z'
loop_
 _atom_site_type_symbol
 _atom_site_label
 _atom_site_symmetry_multiplicity
 _atom_site_fract_x
 _atom_site_fract_y
 _atom_site_fract_z
 _atom_site_occupancy
  Zr  Zr0  1  -0.00000000  -0.00000000  0.65145096  1
  Zr  Zr1  1  -0.00000000  0.00000000  0.32936676  1
  Zr  Zr2  1  0.50000000  0.50000000  0.85221180  1
  Ti  Ti0  1  0.50000000  0.50000000  0.15158348  1
  Cu  Cu0  1  -0.00000000  -0.00000000  0.02410903  1
  Cu  Cu1  1  0.50000000  0.50000000  0.49127697  1
loop_
_geom_bond_atom_site_label_1
_geom_bond_atom_site_label_2
_geom_bond_distance
_geom_bond_site_symmetry_2
Ti0 Zr1 2.967691 1_665
Ti0 Zr1 2.967691 1_555
Ti0 Zr1 2.967691 1_565
Ti0 Zr1 2.967691 1_655
Cu0 Ti0 2.635365 1_455
Cu0 Ti0 2.635365 1_555
Cu0 Ti0 2.635365 1_545
Cu0 Ti0 2.635365 1_445
Cu0 Zr2 2.925343 1_454
Cu0 Zr2 2.925343 1_554
Cu0 Zr2 2.925343 1_444
Cu0 Zr2 2.925343 1_544
Cu1 Zr0 2.843522 1_655
Cu1 Zr0 2.843522 1_665
Cu1 Zr0 2.843522 1_565
Cu1 Zr0 2.843522 1_555
Cu1 Zr1 2.855419 1_565
Cu1 Zr1 2.855419 1_655
Cu1 Zr1 2.855419 1_665
Cu1 Zr1 2.855419 1_555
