# generated using pymatgen
data_HfMg30BO31
_symmetry_space_group_name_H-M   'P 1'
_cell_length_a   8.56747600
_cell_length_b   8.59668000
_cell_length_c   8.60109000
_cell_angle_alpha   90.00000000
_cell_angle_beta   90.00000000
_cell_angle_gamma   90.00000000
_symmetry_Int_Tables_number   1
_chemical_formula_structural   HfMg30BO31
_chemical_formula_sum   'Hf1 Mg30 B1 O31'
_cell_volume   633.48618690
_cell_formula_units_Z   1
loop_
 _symmetry_equiv_pos_site_id
 _symmetry_equiv_pos_as_xyz
  1  'x, y, z'
loop_
 _atom_site_type_symbol
 _atom_site_label
 _atom_site_symmetry_multiplicity
 _atom_site_fract_x
 _atom_site_fract_y
 _atom_site_fract_z
 _atom_site_occupancy
  Hf  Hf0  1  0.50000000  0.99993700  0.50000000  1
  Mg  Mg0  1  0.50000000  0.00156200  0.00000000  1
  Mg  Mg1  1  0.00000000  0.99994200  0.50000000  1
  Mg  Mg2  1  0.00000000  0.49983600  0.00000000  1
  Mg  Mg3  1  0.50000000  0.49896300  0.00000000  1
  Mg  Mg4  1  0.00000000  0.50003300  0.50000000  1
  Mg  Mg5  1  0.50000000  0.49974000  0.50000000  1
  Mg  Mg6  1  0.24211700  0.99983800  0.24018100  1
  Mg  Mg7  1  0.75788300  0.99983800  0.24018100  1
  Mg  Mg8  1  0.24211700  0.99983800  0.75981900  1
  Mg  Mg9  1  0.75788300  0.99983800  0.75981900  1
  Mg  Mg10  1  0.24886400  0.50011600  0.24798300  1
  Mg  Mg11  1  0.75113600  0.50011600  0.24798300  1
  Mg  Mg12  1  0.24886400  0.50011600  0.75201700  1
  Mg  Mg13  1  0.75113600  0.50011600  0.75201700  1
  Mg  Mg14  1  0.24527500  0.75159000  0.00000000  1
  Mg  Mg15  1  0.75472500  0.75159000  0.00000000  1
  Mg  Mg16  1  0.24421900  0.74403000  0.50000000  1
  Mg  Mg17  1  0.75578100  0.74403000  0.50000000  1
  Mg  Mg18  1  0.24672600  0.24849100  0.00000000  1
  Mg  Mg19  1  0.75327400  0.24849100  0.00000000  1
  Mg  Mg20  1  0.24451000  0.25593300  0.50000000  1
  Mg  Mg21  1  0.75549000  0.25593300  0.50000000  1
  Mg  Mg22  1  0.00000000  0.75176600  0.24661900  1
  Mg  Mg23  1  0.50000000  0.74668200  0.24591100  1
  Mg  Mg24  1  0.00000000  0.75176600  0.75338100  1
  Mg  Mg25  1  0.50000000  0.74668200  0.75408900  1
  Mg  Mg26  1  0.00000000  0.24823700  0.24634400  1
  Mg  Mg27  1  0.50000000  0.25308400  0.24547300  1
  Mg  Mg28  1  0.00000000  0.24823700  0.75365600  1
  Mg  Mg29  1  0.50000000  0.25308400  0.75452700  1
  B  B0  1  0.00000000  0.00037000  0.00000000  1
  O  O0  1  0.00000000  0.73537100  0.00000000  1
  O  O1  1  0.00000000  0.74924200  0.50000000  1
  O  O2  1  0.50000000  0.74575800  0.50000000  1
  O  O3  1  0.00000000  0.26464100  0.00000000  1
  O  O4  1  0.50000000  0.25202000  0.00000000  1
  O  O5  1  0.00000000  0.25077900  0.50000000  1
  O  O6  1  0.50000000  0.25440100  0.50000000  1
  O  O7  1  0.24964300  0.75134700  0.25178100  1
  O  O8  1  0.75035700  0.75134700  0.25178100  1
  O  O9  1  0.24964300  0.75134700  0.74821900  1
  O  O10  1  0.75035700  0.75134700  0.74821900  1
  O  O11  1  0.25037300  0.24856300  0.25090700  1
  O  O12  1  0.74962700  0.24856300  0.25090700  1
  O  O13  1  0.25037300  0.24856300  0.74909300  1
  O  O14  1  0.74962700  0.24856300  0.74909300  1
  O  O15  1  0.26452300  0.99987400  0.00000000  1
  O  O16  1  0.73547700  0.99987400  0.00000000  1
  O  O17  1  0.25534200  0.99994400  0.50000000  1
  O  O18  1  0.74465800  0.99994400  0.50000000  1
  O  O19  1  0.25147700  0.49927000  0.00000000  1
  O  O20  1  0.74852300  0.49927000  0.00000000  1
  O  O21  1  0.25052800  0.49999000  0.50000000  1
  O  O22  1  0.74947200  0.49999000  0.50000000  1
  O  O23  1  0.00000000  0.00004000  0.26673100  1
  O  O24  1  0.50000000  0.00081200  0.24796400  1
  O  O25  1  0.00000000  0.00004000  0.73326900  1
  O  O26  1  0.50000000  0.00081200  0.75203600  1
  O  O27  1  0.00000000  0.50005400  0.25252400  1
  O  O28  1  0.50000000  0.49918000  0.25132300  1
  O  O29  1  0.00000000  0.50005400  0.74747600  1
  O  O30  1  0.50000000  0.49918000  0.74867700  1
loop_
_geom_bond_atom_site_label_1
_geom_bond_atom_site_label_2
_geom_bond_distance
_geom_bond_site_symmetry_2
Hf0 O17 2.096102 1_555
Hf0 O18 2.096102 1_555
Hf0 O26 2.167797 1_565
Hf0 O24 2.167797 1_565
Hf0 O2 2.185096 1_555
Hf0 O6 2.187546 1_565
Mg0 O15 2.017496 1_545
Mg0 O16 2.017496 1_545
Mg0 O24 2.132770 1_555
Mg0 O26 2.132770 1_554
Mg0 O4 2.153107 1_555
Mg1 O25 2.006368 1_565
Mg1 O23 2.006368 1_565
Mg1 O1 2.155188 1_555
Mg1 O5 2.156365 1_565
Mg1 O18 2.187636 1_455
Mg1 O17 2.187636 1_555
Mg2 O3 2.021896 1_555
Mg2 O0 2.024819 1_555
Mg2 O20 2.154529 1_455
Mg2 O19 2.154529 1_555
Mg2 O29 2.171982 1_554
Mg2 O27 2.171982 1_555
Mg3 O4 2.122890 1_555
Mg3 O19 2.129216 1_555
Mg3 O20 2.129216 1_555
Mg3 O28 2.161653 1_555
Mg3 O30 2.161653 1_554
Mg4 O27 2.128563 1_555
Mg4 O29 2.128563 1_555
Mg4 O1 2.142370 1_555
Mg4 O5 2.142757 1_555
Mg4 O21 2.146393 1_555
Mg4 O22 2.146393 1_455
Mg5 O6 2.109101 1_555
Mg5 O2 2.114938 1_555
Mg5 O22 2.137346 1_555
Mg5 O21 2.137346 1_555
Mg5 O28 2.138899 1_555
Mg5 O30 2.138899 1_555
Mg6 O15 2.074718 1_555
Mg6 O23 2.086864 1_565
Mg6 O7 2.139498 1_555
Mg6 O11 2.141367 1_565
Mg6 O24 2.210436 1_565
Mg6 O17 2.237597 1_555
Mg7 O16 2.074718 1_555
Mg7 O23 2.086864 1_665
Mg7 O8 2.139498 1_555
Mg7 O12 2.141367 1_565
Mg7 O24 2.210436 1_565
Mg7 O18 2.237597 1_555
Mg8 O15 2.074718 1_556
Mg8 O25 2.086864 1_565
Mg8 O9 2.139498 1_555
Mg8 O13 2.141367 1_565
Mg8 O26 2.210436 1_565
Mg8 O17 2.237597 1_555
Mg9 O16 2.074718 1_556
Mg9 O25 2.086864 1_665
Mg9 O10 2.139498 1_555
Mg9 O14 2.141367 1_565
Mg9 O26 2.210436 1_565
Mg9 O18 2.237597 1_555
Mg10 O27 2.132494 1_555
Mg10 O19 2.133054 1_555
Mg10 O28 2.151808 1_555
Mg10 O7 2.160010 1_555
Mg10 O11 2.162706 1_555
Mg10 O21 2.167668 1_555
Mg11 O27 2.132494 1_655
Mg11 O20 2.133054 1_555
Mg11 O28 2.151808 1_555
Mg11 O8 2.160010 1_555
Mg11 O12 2.162706 1_555
Mg11 O22 2.167668 1_555
Mg12 O29 2.132494 1_555
Mg12 O19 2.133054 1_556
Mg12 O30 2.151808 1_555
Mg12 O9 2.160010 1_555
Mg12 O13 2.162706 1_555
Mg12 O21 2.167668 1_555
Mg13 O29 2.132494 1_655
Mg13 O20 2.133054 1_556
Mg13 O30 2.151808 1_555
Mg13 O10 2.160010 1_555
Mg13 O14 2.162706 1_555
Mg13 O22 2.167668 1_555
Mg14 O0 2.106008 1_555
Mg14 O15 2.140779 1_555
Mg14 O7 2.165915 1_555
Mg14 O9 2.165915 1_554
Mg14 O19 2.169765 1_555
Mg15 O0 2.106008 1_655
Mg15 O16 2.140779 1_555
Mg15 O8 2.165915 1_555
Mg15 O10 2.165915 1_554
Mg15 O20 2.169765 1_555
Mg16 O1 2.092820 1_555
Mg16 O21 2.098630 1_555
Mg16 O9 2.136386 1_555
Mg16 O7 2.136386 1_555
Mg16 O2 2.191448 1_555
Mg16 O17 2.202074 1_555
Mg17 O1 2.092820 1_655
Mg17 O22 2.098630 1_555
Mg17 O10 2.136386 1_555
Mg17 O8 2.136386 1_555
Mg17 O2 2.191448 1_555
Mg17 O18 2.202074 1_555
Mg18 O3 2.118374 1_555
Mg18 O15 2.142713 1_545
Mg18 O19 2.156251 1_555
Mg18 O11 2.158300 1_555
Mg18 O13 2.158300 1_554
Mg18 O4 2.170131 1_555
Mg19 O3 2.118374 1_655
Mg19 O16 2.142713 1_545
Mg19 O20 2.156251 1_555
Mg19 O12 2.158300 1_555
Mg19 O14 2.158300 1_554
Mg19 O4 2.170131 1_555
Mg20 O5 2.095302 1_555
Mg20 O21 2.098713 1_555
Mg20 O11 2.143996 1_555
Mg20 O13 2.143996 1_555
Mg20 O6 2.188944 1_555
Mg20 O17 2.202611 1_545
Mg21 O5 2.095302 1_655
Mg21 O22 2.098713 1_555
Mg21 O12 2.143996 1_555
Mg21 O14 2.143996 1_555
Mg21 O6 2.188944 1_555
Mg21 O18 2.202611 1_545
Mg22 O0 2.125870 1_555
Mg22 O8 2.139274 1_455
Mg22 O7 2.139274 1_555
Mg22 O23 2.141331 1_565
Mg22 O27 2.164483 1_555
Mg22 O1 2.179461 1_555
Mg23 O28 2.128205 1_555
Mg23 O7 2.145896 1_555
Mg23 O8 2.145896 1_555
Mg23 O24 2.184746 1_565
Mg23 O2 2.185457 1_555
Mg24 O0 2.125870 1_556
Mg24 O10 2.139274 1_455
Mg24 O9 2.139274 1_555
Mg24 O25 2.141331 1_565
Mg24 O29 2.164483 1_555
Mg24 O1 2.179461 1_555
Mg25 O30 2.128205 1_555
Mg25 O9 2.145896 1_555
Mg25 O10 2.145896 1_555
Mg25 O26 2.184746 1_565
Mg25 O2 2.185457 1_555
Mg26 O3 2.123515 1_555
Mg26 O23 2.140863 1_555
Mg26 O12 2.145426 1_455
Mg26 O11 2.145426 1_555
Mg26 O27 2.165443 1_555
Mg26 O5 2.181828 1_555
Mg27 O4 2.111355 1_555
Mg27 O28 2.116207 1_555
Mg27 O11 2.139537 1_555
Mg27 O12 2.139537 1_555
Mg27 O24 2.168807 1_555
Mg27 O6 2.189239 1_555
Mg28 O3 2.123515 1_556
Mg28 O25 2.140863 1_555
Mg28 O14 2.145426 1_455
Mg28 O13 2.145426 1_555
Mg28 O29 2.165443 1_555
Mg28 O5 2.181828 1_555
Mg29 O4 2.111355 1_556
Mg29 O30 2.116207 1_555
Mg29 O13 2.139537 1_555
Mg29 O14 2.139537 1_555
Mg29 O26 2.168807 1_555
Mg29 O6 2.189239 1_555
