# generated using pymatgen
data_CaLa4Ni3WO12
_symmetry_space_group_name_H-M   'P 1'
_cell_length_a   5.55697198
_cell_length_b   9.14479700
_cell_length_c   5.76129698
_cell_angle_alpha   90.00000000
_cell_angle_beta   89.76576692
_cell_angle_gamma   90.00000000
_symmetry_Int_Tables_number   1
_chemical_formula_structural   CaLa4Ni3WO12
_chemical_formula_sum   'Ca1 La4 Ni3 W1 O12'
_cell_volume   292.77157535
_cell_formula_units_Z   1
loop_
 _symmetry_equiv_pos_site_id
 _symmetry_equiv_pos_as_xyz
  1  'x, y, z'
loop_
 _atom_site_type_symbol
 _atom_site_label
 _atom_site_symmetry_multiplicity
 _atom_site_fract_x
 _atom_site_fract_y
 _atom_site_fract_z
 _atom_site_occupancy
  Ca  Ca0  1  0.50000000  0.50000000  0.00000000  1
  La  La0  1  0.50000000  0.17722200  0.00000000  1
  La  La1  1  0.00000000  0.68996500  0.50000000  1
  La  La2  1  0.50000000  0.82277800  0.00000000  1
  La  La3  1  0.00000000  0.31003500  0.50000000  1
  Ni  Ni0  1  0.00000000  0.00000000  0.00000000  1
  Ni  Ni1  1  0.50000000  0.50000000  0.50000000  1
  Ni  Ni2  1  0.00000000  0.50000000  0.00000000  1
  W  W0  1  0.50000000  0.00000000  0.50000000  1
  O  O0  1  0.00000000  0.25335000  0.00000000  1
  O  O1  1  0.50000000  0.76891100  0.50000000  1
  O  O2  1  0.22860800  0.50000000  0.27730500  1
  O  O3  1  0.72024200  0.00000000  0.78894100  1
  O  O4  1  0.22996100  0.50000000  0.72383300  1
  O  O5  1  0.73533700  0.00000000  0.23475500  1
  O  O6  1  0.00000000  0.74665000  0.00000000  1
  O  O7  1  0.50000000  0.23108900  0.50000000  1
  O  O8  1  0.77139200  0.50000000  0.72269500  1
  O  O9  1  0.27975800  0.00000000  0.21105900  1
  O  O10  1  0.77003900  0.50000000  0.27616700  1
  O  O11  1  0.26466300  0.00000000  0.76524500  1
loop_
_geom_bond_atom_site_label_1
_geom_bond_atom_site_label_2
_geom_bond_distance
_geom_bond_site_symmetry_2
Ca0 O10 2.191542 1_555
Ca0 O4 2.191542 1_554
Ca0 O8 2.192524 1_554
Ca0 O2 2.192524 1_555
Ca0 La0 2.951739 1_555
Ca0 La2 2.951739 1_555
La0 O3 2.364496 1_554
La0 O9 2.364496 1_555
La0 O11 2.486056 1_554
La0 O5 2.486056 1_555
La0 O0 2.864375 1_655
La0 O0 2.864375 1_555
La0 O7 2.922464 1_555
La0 O7 2.922464 1_554
La1 O2 2.502891 1_555
La1 O8 2.502891 1_455
La1 O4 2.515410 1_555
La1 O10 2.515410 1_455
La1 O1 2.870747 1_455
La1 O1 2.870747 1_555
La1 O6 2.926918 1_555
La1 O6 2.926918 1_556
La2 O3 2.364496 1_564
La2 O9 2.364496 1_565
La2 O5 2.486056 1_565
La2 O11 2.486056 1_564
La2 O6 2.864375 1_555
La2 O6 2.864375 1_655
La2 O1 2.922464 1_554
La2 O1 2.922464 1_555
La3 O8 2.502891 1_455
La3 O2 2.502891 1_555
La3 O4 2.515410 1_555
La3 O10 2.515410 1_455
La3 O7 2.870747 1_455
La3 O7 2.870747 1_555
La3 O0 2.926918 1_555
La3 O0 2.926918 1_556
Ni0 O9 1.977587 1_555
Ni0 O3 1.977587 1_454
Ni0 O5 1.993992 1_455
Ni0 O11 1.993992 1_554
Ni0 O6 2.316834 1_545
Ni0 O0 2.316834 1_555
Ni1 O10 1.974579 1_555
Ni1 O4 1.974579 1_555
Ni1 O8 1.984026 1_555
Ni1 O2 1.984026 1_555
Ni1 O7 2.459137 1_555
Ni1 O1 2.459137 1_555
Ni2 O4 2.036641 1_554
Ni2 O10 2.036641 1_455
Ni2 O2 2.045207 1_555
Ni2 O8 2.045207 1_454
Ni2 O0 2.255564 1_555
Ni2 O6 2.255564 1_555
O1 W0 2.113262 1_565
O3 W0 2.070188 1_555
O5 W0 2.007276 1_555
O7 W0 2.113262 1_555
O9 W0 2.070188 1_555
O11 W0 2.007276 1_555
