# generated using pymatgen
data_Tb2Ge2Ru
_symmetry_space_group_name_H-M   'P 1'
_cell_length_a   4.28427591
_cell_length_b   5.80359245
_cell_length_c   9.22996021
_cell_angle_alpha   82.03612142
_cell_angle_beta   76.58011606
_cell_angle_gamma   68.33952999
_symmetry_Int_Tables_number   1
_chemical_formula_structural   Tb2Ge2Ru
_chemical_formula_sum   'Tb4 Ge4 Ru2'
_cell_volume   207.11112218
_cell_formula_units_Z   2
loop_
 _symmetry_equiv_pos_site_id
 _symmetry_equiv_pos_as_xyz
  1  'x, y, z'
loop_
 _atom_site_type_symbol
 _atom_site_label
 _atom_site_symmetry_multiplicity
 _atom_site_fract_x
 _atom_site_fract_y
 _atom_site_fract_z
 _atom_site_occupancy
  Tb  Tb0  1  0.31619019  0.75555948  0.61206014  1
  Tb  Tb1  1  0.68380981  0.24444052  0.38793986  1
  Tb  Tb2  1  0.50023364  0.17220554  0.82732919  1
  Tb  Tb3  1  0.49976636  0.82779446  0.17267081  1
  Ge  Ge0  1  0.14673034  0.77120228  0.93533805  1
  Ge  Ge1  1  0.85326966  0.22879772  0.06466195  1
  Ge  Ge2  1  0.01047044  0.35448890  0.62456923  1
  Ge  Ge3  1  0.98952956  0.64551110  0.37543077  1
  Ru  Ru0  1  0.22891446  0.41478717  0.12738491  1
  Ru  Ru1  1  0.77108554  0.58521283  0.87261509  1
loop_
_geom_bond_atom_site_label_1
_geom_bond_atom_site_label_2
_geom_bond_distance
_geom_bond_site_symmetry_2
Ge0 Ru1 2.445061 1_555
Ge0 Ru1 2.445069 1_455
Ge0 Ru0 2.506138 1_556
Ge0 Ge1 2.788409 1_466
Ge0 Tb0 2.908525 1_555
Ge0 Tb3 3.049285 1_556
Ge0 Tb3 3.049293 1_456
Ge0 Tb2 3.156250 1_465
Ge0 Tb2 3.156253 1_565
Ge0 Tb2 3.427146 1_555
Ge1 Ru0 2.445061 1_555
Ge1 Ru0 2.445069 1_655
Ge1 Ru1 2.506138 1_554
Ge1 Tb1 2.908525 1_555
Ge1 Tb2 3.049285 1_554
Ge1 Tb2 3.049293 1_654
Ge1 Tb3 3.156250 1_645
Ge1 Tb3 3.156253 1_545
Ge1 Tb3 3.427146 1_555
Ge2 Ru1 2.613855 1_455
Ge2 Ge3 2.656361 1_455
Ge2 Tb2 2.942743 1_455
Ge2 Tb2 2.942752 1_555
Ge2 Tb0 3.041833 1_455
Ge2 Tb0 3.041837 1_555
Ge2 Tb1 3.098691 1_455
Ge2 Tb1 3.098693 1_555
Ge2 Tb0 3.239008 1_545
Ge3 Ru0 2.613855 1_655
Ge3 Tb3 2.942743 1_655
Ge3 Tb3 2.942752 1_555
Ge3 Tb1 3.041833 1_655
Ge3 Tb1 3.041837 1_555
Ge3 Tb0 3.098691 1_655
Ge3 Tb0 3.098693 1_555
Ge3 Tb1 3.239008 1_565
Ru0 Tb2 3.062907 1_554
Ru0 Tb3 3.134091 1_555
Ru0 Tb3 3.134099 1_455
Ru0 Tb3 3.168433 1_545
Ru0 Tb1 3.263980 1_555
Ru0 Tb1 3.263983 1_455
Ru1 Tb3 3.062907 1_556
Ru1 Tb2 3.134091 1_555
Ru1 Tb2 3.134099 1_655
Ru1 Tb2 3.168433 1_565
Ru1 Tb0 3.263980 1_555
Ru1 Tb0 3.263983 1_655
