# generated using pymatgen
data_BaSrDyNbO6
_symmetry_space_group_name_H-M   'P 1'
_cell_length_a   8.44854850
_cell_length_b   8.45465736
_cell_length_c   8.46222769
_cell_angle_alpha   90.00000000
_cell_angle_beta   90.00000000
_cell_angle_gamma   90.00000000
_symmetry_Int_Tables_number   1
_chemical_formula_structural   BaSrDyNbO6
_chemical_formula_sum   'Ba4 Sr4 Dy4 Nb4 O24'
_cell_volume   604.45339309
_cell_formula_units_Z   4
loop_
 _symmetry_equiv_pos_site_id
 _symmetry_equiv_pos_as_xyz
  1  'x, y, z'
loop_
 _atom_site_type_symbol
 _atom_site_label
 _atom_site_symmetry_multiplicity
 _atom_site_fract_x
 _atom_site_fract_y
 _atom_site_fract_z
 _atom_site_occupancy
  Ba  Ba0  1  0.00000000  0.00000000  -0.00000000  1
  Ba  Ba1  1  0.50000000  0.50000000  0.50000000  1
  Ba  Ba2  1  0.50000000  0.00000000  -0.00000000  1
  Ba  Ba3  1  0.00000000  0.00000000  0.50000000  1
  Sr  Sr0  1  0.00000000  0.50000000  0.50000000  1
  Sr  Sr1  1  0.50000000  0.00000000  0.50000000  1
  Sr  Sr2  1  0.50000000  0.50000000  -0.00000000  1
  Sr  Sr3  1  0.00000000  0.50000000  -0.00000000  1
  Dy  Dy0  1  0.74917627  0.74768217  0.74975295  1
  Dy  Dy1  1  0.25082373  0.25231783  0.74975295  1
  Dy  Dy2  1  0.25082373  0.74768217  0.25024705  1
  Dy  Dy3  1  0.74917627  0.25231783  0.25024705  1
  Nb  Nb0  1  0.24953673  0.25362513  0.25090675  1
  Nb  Nb1  1  0.75046327  0.74637487  0.25090675  1
  Nb  Nb2  1  0.75046327  0.25362513  0.74909325  1
  Nb  Nb3  1  0.24953673  0.74637487  0.74909325  1
  O  O0  1  0.01307025  0.23000929  0.27284167  1
  O  O1  1  0.98692975  0.76999071  0.27284167  1
  O  O2  1  0.98692975  0.23000929  0.72715833  1
  O  O3  1  0.01307025  0.76999071  0.72715833  1
  O  O4  1  0.27019099  0.01465633  0.22795236  1
  O  O5  1  0.27019099  0.98534367  0.77204764  1
  O  O6  1  0.72980901  0.98534367  0.22795236  1
  O  O7  1  0.72980901  0.01465633  0.77204764  1
  O  O8  1  0.22071803  0.28136090  0.01342729  1
  O  O9  1  0.77928197  0.28136090  0.98657271  1
  O  O10  1  0.22071803  0.71863910  0.98657271  1
  O  O11  1  0.77928197  0.71863910  0.01342729  1
  O  O12  1  0.48548234  0.28569850  0.21748370  1
  O  O13  1  0.51451766  0.71430150  0.21748370  1
  O  O14  1  0.51451766  0.28569850  0.78251630  1
  O  O15  1  0.48548234  0.71430150  0.78251630  1
  O  O16  1  0.21853980  0.48716517  0.28666003  1
  O  O17  1  0.21853980  0.51283483  0.71333997  1
  O  O18  1  0.78146020  0.51283483  0.28666003  1
  O  O19  1  0.78146020  0.48716517  0.71333997  1
  O  O20  1  0.28548399  0.22213121  0.48600627  1
  O  O21  1  0.71451601  0.22213121  0.51399373  1
  O  O22  1  0.28548399  0.77786879  0.51399373  1
  O  O23  1  0.71451601  0.77786879  0.48600627  1
loop_
_geom_bond_atom_site_label_1
_geom_bond_atom_site_label_2
_geom_bond_distance
_geom_bond_site_symmetry_2
Ba0 O5 2.991180 1_544
Ba0 O7 2.991180 1_454
Ba0 O6 2.991180 1_445
Ba0 O4 2.991180 1_555
Ba0 O0 3.020701 1_555
Ba0 O1 3.020701 1_445
Ba0 O2 3.020701 1_454
Ba0 O3 3.020701 1_544
Ba0 O10 3.024720 1_544
Ba0 O9 3.024720 1_454
Ba0 O8 3.024720 1_555
Ba0 O11 3.024720 1_445
Ba1 O22 2.969474 1_555
Ba1 O20 2.969474 1_555
Ba1 O23 2.969474 1_555
Ba1 O21 2.969474 1_555
Ba1 O16 2.987566 1_555
Ba1 O17 2.987566 1_555
Ba1 O18 2.987566 1_555
Ba1 O19 2.987566 1_555
Ba1 O14 3.002225 1_555
Ba1 O13 3.002225 1_555
Ba1 O12 3.002225 1_555
Ba1 O15 3.002225 1_555
Ba2 O7 2.739701 1_554
Ba2 O5 2.739701 1_544
Ba2 O4 2.739701 1_555
Ba2 O6 2.739701 1_545
Ba2 O15 3.039188 1_544
Ba2 O14 3.039188 1_554
Ba2 O13 3.039188 1_545
Ba2 O12 3.039188 1_555
Ba2 O9 3.352464 1_554
Ba2 O11 3.352464 1_545
Ba2 O10 3.352464 1_544
Ba2 O8 3.352464 1_555
Ba3 O3 2.736597 1_545
Ba3 O2 2.736597 1_455
Ba3 O0 2.736597 1_555
Ba3 O1 2.736597 1_445
Ba3 O21 3.059159 1_455
Ba3 O20 3.059159 1_555
Ba3 O23 3.059159 1_445
Ba3 O22 3.059159 1_545
Ba3 O6 3.244375 1_445
Ba3 O4 3.244375 1_555
Ba3 O5 3.244375 1_545
Ba3 O7 3.244375 1_455
Dy0 O19 2.240694 1_555
Dy0 O3 2.245639 1_655
Dy0 O11 2.259107 1_556
Dy0 O15 2.262686 1_555
Dy0 O23 2.265434 1_555
Dy0 O7 2.270948 1_565
Dy1 O17 2.240694 1_555
Dy1 O2 2.245639 1_455
Dy1 O8 2.259107 1_556
Dy1 O14 2.262686 1_555
Dy1 O20 2.265434 1_555
Dy1 O5 2.270948 1_545
Dy2 O16 2.240694 1_555
Dy2 O1 2.245639 1_455
Dy2 O10 2.259107 1_554
Dy2 O13 2.262686 1_555
Dy2 O22 2.265434 1_555
Dy2 O4 2.270948 1_565
Dy3 O18 2.240694 1_555
Dy3 O0 2.245639 1_655
Dy3 O9 2.259107 1_554
Dy3 O12 2.262686 1_555
Dy3 O21 2.265434 1_555
Dy3 O6 2.270948 1_545
Nb0 O16 2.014640 1_555
Nb0 O0 2.016313 1_555
Nb0 O20 2.030051 1_555
Nb0 O12 2.031542 1_555
Nb0 O4 2.037203 1_555
Nb0 O8 2.037838 1_555
Nb1 O18 2.014640 1_555
Nb1 O1 2.016313 1_555
Nb1 O23 2.030051 1_555
Nb1 O13 2.031542 1_555
Nb1 O6 2.037203 1_555
Nb1 O11 2.037838 1_555
Nb2 O19 2.014640 1_555
Nb2 O2 2.016313 1_555
Nb2 O21 2.030051 1_555
Nb2 O14 2.031542 1_555
Nb2 O7 2.037203 1_555
Nb2 O9 2.037838 1_555
Nb3 O17 2.014640 1_555
Nb3 O3 2.016313 1_555
Nb3 O22 2.030051 1_555
Nb3 O15 2.031542 1_555
Nb3 O5 2.037203 1_555
Nb3 O10 2.037838 1_555
O0 Sr0 2.986289 1_555
O1 Sr0 2.986289 1_655
O2 Sr0 2.986289 1_655
O3 Sr0 2.986289 1_555
O4 Sr1 3.014097 1_555
O5 Sr1 3.014097 1_565
O6 Sr1 3.014097 1_565
O7 Sr1 3.014097 1_555
O8 Sr3 2.628158 1_555
O8 Sr2 2.999550 1_555
O9 Sr3 2.628158 1_656
O9 Sr2 2.999550 1_556
O10 Sr3 2.628158 1_556
O10 Sr2 2.999550 1_556
O11 Sr3 2.628158 1_655
O11 Sr2 2.999550 1_555
O12 Sr2 2.585515 1_555
O13 Sr2 2.585515 1_555
O14 Sr2 2.585515 1_556
O15 Sr2 2.585515 1_556
O16 Sr0 2.584566 1_555
O16 Sr3 3.050440 1_555
O17 Sr0 2.584566 1_555
O17 Sr3 3.050440 1_556
O18 Sr0 2.584566 1_655
O18 Sr3 3.050440 1_655
O19 Sr0 2.584566 1_655
O19 Sr3 3.050440 1_656
O20 Sr1 2.612600 1_555
O21 Sr1 2.612600 1_555
O22 Sr1 2.612600 1_565
O23 Sr1 2.612600 1_565
