# generated using pymatgen
data_TbMgCo4
_symmetry_space_group_name_H-M   'P 1'
_cell_length_a   4.95599268
_cell_length_b   4.95602515
_cell_length_c   4.95602957
_cell_angle_alpha   59.99999009
_cell_angle_beta   59.99977336
_cell_angle_gamma   59.99974381
_symmetry_Int_Tables_number   1
_chemical_formula_structural   TbMgCo4
_chemical_formula_sum   'Tb1 Mg1 Co4'
_cell_volume   86.07587213
_cell_formula_units_Z   1
loop_
 _symmetry_equiv_pos_site_id
 _symmetry_equiv_pos_as_xyz
  1  'x, y, z'
loop_
 _atom_site_type_symbol
 _atom_site_label
 _atom_site_symmetry_multiplicity
 _atom_site_fract_x
 _atom_site_fract_y
 _atom_site_fract_z
 _atom_site_occupancy
  Tb  Tb0  1  0.00000000  -0.00000000  -0.00000000  1
  Mg  Mg0  1  0.25000000  0.25000000  0.25000000  1
  Co  Co0  1  0.62521686  0.62521686  0.12434742  1
  Co  Co1  1  0.62521686  0.12434742  0.62521686  1
  Co  Co2  1  0.12434742  0.62521686  0.62521686  1
  Co  Co3  1  0.62521686  0.62521686  0.62521686  1
loop_
_geom_bond_atom_site_label_1
_geom_bond_atom_site_label_2
_geom_bond_distance
_geom_bond_site_symmetry_2
Mg0 Tb0 3.034902 1_655
Mg0 Tb0 3.034929 1_565
Mg0 Tb0 3.034931 1_555
Mg0 Tb0 3.034932 1_556
Co0 Co2 2.473688 1_654
Co0 Co1 2.473704 1_564
Co0 Co3 2.473706 1_554
Co0 Co2 2.482306 1_555
Co0 Co1 2.482322 1_555
Co0 Co3 2.482324 1_555
Co0 Tb0 2.905243 1_565
Co0 Tb0 2.905257 1_655
Co0 Tb0 2.905267 1_665
Co0 Mg0 2.906168 1_655
Co0 Mg0 2.906175 1_555
Co0 Mg0 2.906182 1_565
Co1 Co2 2.473686 1_645
Co1 Co3 2.473704 1_545
Co1 Co2 2.482304 1_555
Co1 Co3 2.482322 1_555
Co1 Tb0 2.905244 1_556
Co1 Tb0 2.905260 1_655
Co1 Tb0 2.905268 1_656
Co1 Mg0 2.906169 1_655
Co1 Mg0 2.906176 1_555
Co1 Mg0 2.906185 1_556
Co2 Co3 2.473687 1_455
Co2 Co3 2.482305 1_555
Co2 Tb0 2.905265 1_556
Co2 Tb0 2.905267 1_565
Co2 Tb0 2.905275 1_566
Co2 Mg0 2.906183 1_555
Co2 Mg0 2.906190 1_565
Co2 Mg0 2.906192 1_556
Co3 Tb0 2.905248 1_566
Co3 Tb0 2.905262 1_656
Co3 Tb0 2.905264 1_665
Co3 Mg0 2.906165 1_655
Co3 Mg0 2.906178 1_565
Co3 Mg0 2.906180 1_556
