# generated using pymatgen
data_HfTiRu2
_symmetry_space_group_name_H-M   'P 1'
_cell_length_a   3.18654900
_cell_length_b   3.18654900
_cell_length_c   6.28337100
_cell_angle_alpha   90.00000000
_cell_angle_beta   90.00000000
_cell_angle_gamma   90.00000000
_symmetry_Int_Tables_number   1
_chemical_formula_structural   HfTiRu2
_chemical_formula_sum   'Hf1 Ti1 Ru2'
_cell_volume   63.80194310
_cell_formula_units_Z   1
loop_
 _symmetry_equiv_pos_site_id
 _symmetry_equiv_pos_as_xyz
  1  'x, y, z'
loop_
 _atom_site_type_symbol
 _atom_site_label
 _atom_site_symmetry_multiplicity
 _atom_site_fract_x
 _atom_site_fract_y
 _atom_site_fract_z
 _atom_site_occupancy
  Hf  Hf0  1  0.00000000  0.00000000  0.00000000  1
  Ti  Ti0  1  0.00000000  0.00000000  0.50000000  1
  Ru  Ru0  1  0.50000000  0.50000000  0.26043300  1
  Ru  Ru1  1  0.50000000  0.50000000  0.73956700  1
loop_
_geom_bond_atom_site_label_1
_geom_bond_atom_site_label_2
_geom_bond_distance
_geom_bond_site_symmetry_2
Hf0 Ru0 2.784752 1_555
Hf0 Ru0 2.784752 1_445
Hf0 Ru0 2.784752 1_455
Hf0 Ru0 2.784752 1_545
Hf0 Ru1 2.784752 1_554
Hf0 Ru1 2.784752 1_454
Hf0 Ru1 2.784752 1_444
Hf0 Ru1 2.784752 1_544
Ru0 Ti0 2.709786 1_555
Ru0 Ti0 2.709786 1_665
Ru0 Ti0 2.709786 1_655
Ru0 Ti0 2.709786 1_565
Ru1 Ti0 2.709786 1_555
Ru1 Ti0 2.709786 1_565
Ru1 Ti0 2.709786 1_655
Ru1 Ti0 2.709786 1_665
