# generated using pymatgen
data_Ca2Bi3Au10
_symmetry_space_group_name_H-M   'P 1'
_cell_length_a   23.73737106
_cell_length_b   23.73737106
_cell_length_c   23.73737106
_cell_angle_alpha   13.78783561
_cell_angle_beta   13.78783561
_cell_angle_gamma   13.78783498
_symmetry_Int_Tables_number   1
_chemical_formula_structural   Ca2Bi3Au10
_chemical_formula_sum   'Ca4 Bi6 Au20'
_cell_volume   661.09913640
_cell_formula_units_Z   2
loop_
 _symmetry_equiv_pos_site_id
 _symmetry_equiv_pos_as_xyz
  1  'x, y, z'
loop_
 _atom_site_type_symbol
 _atom_site_label
 _atom_site_symmetry_multiplicity
 _atom_site_fract_x
 _atom_site_fract_y
 _atom_site_fract_z
 _atom_site_occupancy
  Ca  Ca0  1  0.05013300  0.05013300  0.05013300  1
  Ca  Ca1  1  0.44989200  0.44989200  0.44989200  1
  Ca  Ca2  1  0.84971200  0.84971200  0.84971200  1
  Ca  Ca3  1  0.24944600  0.24944600  0.24944600  1
  Bi  Bi0  1  0.60146600  0.60146600  0.60146600  1
  Bi  Bi1  1  0.19969400  0.19969400  0.19969400  1
  Bi  Bi2  1  0.80023000  0.80023000  0.80023000  1
  Bi  Bi3  1  0.99897300  0.99897300  0.99897300  1
  Bi  Bi4  1  0.40009900  0.40009900  0.40009900  1
  Bi  Bi5  1  0.65037000  0.65037000  0.65037000  1
  Au  Au0  1  0.52535100  0.52535100  0.02532000  1
  Au  Au1  1  0.92558700  0.92558700  0.42376500  1
  Au  Au2  1  0.32539900  0.32539900  0.82419500  1
  Au  Au3  1  0.72495100  0.72495100  0.22593300  1
  Au  Au4  1  0.12549000  0.12549000  0.62260000  1
  Au  Au5  1  0.52535100  0.02532000  0.52535100  1
  Au  Au6  1  0.92558700  0.42376500  0.92558700  1
  Au  Au7  1  0.32539900  0.82419500  0.32539900  1
  Au  Au8  1  0.72495100  0.22593300  0.72495100  1
  Au  Au9  1  0.12549000  0.62260000  0.12549000  1
  Au  Au10  1  0.72499800  0.72499800  0.72499800  1
  Au  Au11  1  0.12481600  0.12481600  0.12481600  1
  Au  Au12  1  0.52485500  0.52485500  0.52485500  1
  Au  Au13  1  0.92483600  0.92483600  0.92483600  1
  Au  Au14  1  0.32511100  0.32511100  0.32511100  1
  Au  Au15  1  0.02532000  0.52535100  0.52535100  1
  Au  Au16  1  0.42376500  0.92558700  0.92558700  1
  Au  Au17  1  0.82419500  0.32539900  0.32539900  1
  Au  Au18  1  0.22593300  0.72495100  0.72495100  1
  Au  Au19  1  0.62260000  0.12549000  0.12549000  1
loop_
_geom_bond_atom_site_label_1
_geom_bond_atom_site_label_2
_geom_bond_distance
_geom_bond_site_symmetry_2
Bi0 Bi5 3.448945 1_555
Bi0 Ca3 3.544143 1_565
Bi0 Ca3 3.544143 1_655
Bi0 Ca3 3.544143 1_556
Bi1 Ca2 3.493246 1_544
Bi1 Ca2 3.493246 1_454
Bi1 Ca2 3.493247 1_445
Bi1 Ca3 3.508750 1_555
Bi2 Ca2 3.489708 1_555
Bi2 Ca1 3.501765 1_565
Bi2 Ca1 3.501765 1_655
Bi2 Ca1 3.501765 1_556
Bi3 Bi5 3.461770 1_565
Bi3 Bi5 3.461770 1_655
Bi3 Bi5 3.461770 1_556
Bi3 Ca0 3.608049 1_666
Bi4 Ca0 3.492867 1_565
Bi4 Ca0 3.492867 1_655
Bi4 Ca0 3.492867 1_556
Bi4 Ca1 3.511641 1_555
Au0 Au5 2.849054 1_564
Au0 Au15 2.849054 1_654
Au0 Au10 2.849395 1_554
Au0 Au5 2.849408 1_555
Au0 Au15 2.849408 1_555
Au0 Au14 2.882564 1_555
Au0 Ca0 3.342945 1_565
Au0 Ca0 3.342945 1_655
Au0 Bi4 3.352831 1_555
Au0 Bi5 3.365788 1_554
Au0 Bi3 3.402372 1_454
Au0 Bi3 3.402372 1_544
Au1 Au6 2.838849 1_564
Au1 Au16 2.838849 1_654
Au1 Au11 2.856327 1_665
Au1 Au6 2.859614 1_555
Au1 Au16 2.859614 1_555
Au1 Au10 2.871603 1_555
Au1 Bi4 3.346213 1_565
Au1 Bi4 3.346213 1_655
Au1 Ca1 3.347384 1_565
Au1 Ca1 3.347384 1_655
Au1 Ca0 3.355279 1_665
Au1 Bi2 3.385978 1_555
Au2 Au7 2.842370 1_555
Au2 Au7 2.856092 1_546
Au2 Ca2 3.340073 1_545
Au2 Ca2 3.340073 1_455
Au2 Bi2 3.342038 1_455
Au2 Bi2 3.342038 1_545
Au2 Bi1 3.350919 1_556
Au2 Ca1 3.372218 1_555
Au3 Au8 2.843635 1_555
Au3 Au8 2.854827 1_564
Au3 Ca3 3.320117 1_565
Au3 Ca3 3.320117 1_655
Au3 Bi1 3.372497 1_565
Au3 Bi1 3.372497 1_655
Au3 Ca2 3.404113 1_554
Au3 Bi0 3.439430 1_555
Au4 Au9 2.832763 1_555
Au4 Au9 2.865700 1_546
Au4 Bi0 3.280734 1_545
Au4 Bi0 3.280734 1_455
Au4 Bi3 3.338328 1_445
Au4 Ca3 3.367981 1_555
Au4 Bi5 3.382316 1_545
Au4 Bi5 3.382316 1_455
Au5 Ca0 3.342945 1_556
Au5 Ca0 3.342945 1_655
Au5 Bi4 3.352831 1_555
Au5 Bi5 3.365788 1_545
Au5 Bi3 3.402372 1_544
Au5 Bi3 3.402372 1_445
Au6 Bi4 3.346213 1_655
Au6 Bi4 3.346213 1_556
Au6 Ca1 3.347384 1_556
Au6 Ca1 3.347384 1_655
Au6 Ca0 3.355279 1_656
Au6 Bi2 3.385978 1_555
Au7 Ca2 3.340073 1_455
Au7 Ca2 3.340073 1_554
Au7 Bi2 3.342038 1_554
Au7 Bi2 3.342038 1_455
Au7 Bi1 3.350919 1_565
Au7 Ca1 3.372218 1_555
Au8 Ca3 3.320117 1_556
Au8 Ca3 3.320117 1_655
Au8 Bi1 3.372497 1_655
Au8 Bi1 3.372497 1_556
Au8 Ca2 3.404113 1_545
Au8 Bi0 3.439430 1_555
Au9 Bi0 3.280735 1_554
Au9 Bi0 3.280735 1_455
Au9 Bi3 3.338328 1_454
Au9 Ca3 3.367981 1_555
Au9 Bi5 3.382316 1_455
Au9 Bi5 3.382316 1_554
Au10 Au5 2.849395 1_565
Au10 Au15 2.849395 1_655
Au10 Au16 2.871603 1_555
Au10 Au6 2.871603 1_555
Au10 Ca0 3.340427 1_566
Au10 Ca0 3.340427 1_656
Au10 Ca0 3.340428 1_665
Au10 Bi4 3.343348 1_565
Au10 Bi4 3.343348 1_655
Au10 Bi4 3.343349 1_556
Au11 Au6 2.856327 1_454
Au11 Au16 2.856327 1_544
Au11 Au7 2.881992 1_545
Au11 Au17 2.881992 1_455
Au11 Au2 2.881992 1_554
Au11 Ca1 3.341150 1_455
Au11 Ca1 3.341150 1_545
Au11 Ca1 3.341150 1_554
Au11 Bi2 3.347346 1_454
Au11 Bi2 3.347346 1_544
Au11 Bi2 3.347346 1_445
Au12 Au7 2.858707 1_555
Au12 Au17 2.858707 1_555
Au12 Au2 2.858707 1_555
Au12 Au18 2.891897 1_555
Au12 Au8 2.891897 1_555
Au12 Au3 2.891897 1_555
Au12 Bi1 3.340111 1_565
Au12 Bi1 3.340111 1_655
Au12 Bi1 3.340111 1_556
Au12 Ca2 3.343877 1_455
Au12 Ca2 3.343877 1_545
Au12 Ca2 3.343877 1_554
Au13 Au18 2.845587 1_655
Au13 Au8 2.845587 1_565
Au13 Au3 2.845588 1_556
Au13 Au9 2.856870 1_656
Au13 Au19 2.856870 1_566
Au13 Au4 2.856870 1_665
Au13 Ca3 3.347035 1_566
Au13 Ca3 3.347035 1_656
Au13 Ca3 3.347035 1_665
Au13 Bi0 3.364207 1_565
Au13 Bi0 3.364207 1_655
Au13 Bi0 3.364207 1_556
Au14 Au5 2.882564 1_555
Au14 Au15 2.882564 1_555
Au14 Au9 2.897704 1_555
Au14 Au19 2.897704 1_555
Au14 Au4 2.897704 1_555
Au14 Bi3 3.328913 1_544
Au14 Bi3 3.328913 1_454
Au14 Bi3 3.328913 1_445
Au14 Bi5 3.338925 1_455
Au14 Bi5 3.338925 1_545
Au14 Bi5 3.338925 1_554
Au15 Au5 2.849054 1_465
Au15 Au5 2.849408 1_555
Au15 Ca0 3.342945 1_556
Au15 Ca0 3.342945 1_565
Au15 Bi4 3.352831 1_555
Au15 Bi5 3.365788 1_455
Au15 Bi3 3.402372 1_454
Au15 Bi3 3.402372 1_445
Au16 Au6 2.838848 1_465
Au16 Au6 2.859614 1_555
Au16 Bi4 3.346213 1_565
Au16 Bi4 3.346213 1_556
Au16 Ca1 3.347384 1_556
Au16 Ca1 3.347384 1_565
Au16 Ca0 3.355279 1_566
Au16 Bi2 3.385978 1_555
Au17 Au7 2.842370 1_555
Au17 Au2 2.842370 1_555
Au17 Au7 2.856092 1_645
Au17 Au2 2.856092 1_654
Au17 Ca2 3.340073 1_545
Au17 Ca2 3.340073 1_554
Au17 Bi2 3.342038 1_554
Au17 Bi2 3.342038 1_545
Au17 Bi1 3.350919 1_655
Au17 Ca1 3.372218 1_555
Au18 Au8 2.843635 1_555
Au18 Au3 2.843635 1_555
Au18 Au8 2.854827 1_465
Au18 Au3 2.854827 1_456
Au18 Ca3 3.320117 1_556
Au18 Ca3 3.320117 1_565
Au18 Bi1 3.372497 1_565
Au18 Bi1 3.372497 1_556
Au18 Ca2 3.404113 1_455
Au18 Bi0 3.439430 1_555
Au19 Au9 2.832762 1_555
Au19 Au4 2.832763 1_555
Au19 Au9 2.865700 1_645
Au19 Au4 2.865700 1_654
Au19 Bi0 3.280735 1_554
Au19 Bi0 3.280735 1_545
Au19 Bi3 3.338328 1_544
Au19 Ca3 3.367981 1_555
Au19 Bi5 3.382316 1_545
Au19 Bi5 3.382316 1_554
