# generated using pymatgen
data_CeSe2
_symmetry_space_group_name_H-M   'P 1'
_cell_length_a   18.11807781
_cell_length_b   18.11807781
_cell_length_c   18.11807781
_cell_angle_alpha   90.00000000
_cell_angle_beta   90.00000000
_cell_angle_gamma   90.00000000
_symmetry_Int_Tables_number   1
_chemical_formula_structural   CeSe2
_chemical_formula_sum   'Ce24 Se48'
_cell_volume   5947.52616554
_cell_formula_units_Z   24
loop_
 _symmetry_equiv_pos_site_id
 _symmetry_equiv_pos_as_xyz
  1  'x, y, z'
loop_
 _atom_site_type_symbol
 _atom_site_label
 _atom_site_symmetry_multiplicity
 _atom_site_fract_x
 _atom_site_fract_y
 _atom_site_fract_z
 _atom_site_occupancy
  Ce  Ce0  1  0.63743274  0.25000000  0.13743274  1
  Ce  Ce1  1  0.75000000  0.86256726  0.63743274  1
  Ce  Ce2  1  0.13743274  0.36256726  0.75000000  1
  Ce  Ce3  1  0.36256726  0.75000000  0.86256726  1
  Ce  Ce4  1  0.25000000  0.13743274  0.36256726  1
  Ce  Ce5  1  0.86256726  0.63743274  0.25000000  1
  Ce  Ce6  1  0.63743274  0.75000000  0.86256726  1
  Ce  Ce7  1  0.75000000  0.13743274  0.36256726  1
  Ce  Ce8  1  0.13743274  0.63743274  0.25000000  1
  Ce  Ce9  1  0.36256726  0.25000000  0.13743274  1
  Ce  Ce10  1  0.25000000  0.86256726  0.63743274  1
  Ce  Ce11  1  0.86256726  0.36256726  0.75000000  1
  Ce  Ce12  1  0.36256726  0.75000000  0.13743274  1
  Ce  Ce13  1  0.25000000  0.13743274  0.63743274  1
  Ce  Ce14  1  0.86256726  0.63743274  0.75000000  1
  Ce  Ce15  1  0.63743274  0.25000000  0.86256726  1
  Ce  Ce16  1  0.75000000  0.86256726  0.36256726  1
  Ce  Ce17  1  0.13743274  0.36256726  0.25000000  1
  Ce  Ce18  1  0.36256726  0.25000000  0.86256726  1
  Ce  Ce19  1  0.25000000  0.86256726  0.36256726  1
  Ce  Ce20  1  0.86256726  0.36256726  0.25000000  1
  Ce  Ce21  1  0.63743274  0.75000000  0.13743274  1
  Ce  Ce22  1  0.75000000  0.13743274  0.63743274  1
  Ce  Ce23  1  0.13743274  0.63743274  0.75000000  1
  Se  Se0  1  0.75000000  0.34961356  0.15038644  1
  Se  Se1  1  0.65038644  0.84961356  0.75000000  1
  Se  Se2  1  0.15038644  0.25000000  0.65038644  1
  Se  Se3  1  0.25000000  0.65038644  0.84961356  1
  Se  Se4  1  0.34961356  0.15038644  0.25000000  1
  Se  Se5  1  0.84961356  0.75000000  0.34961356  1
  Se  Se6  1  0.75000000  0.65038644  0.84961356  1
  Se  Se7  1  0.65038644  0.15038644  0.25000000  1
  Se  Se8  1  0.15038644  0.75000000  0.34961356  1
  Se  Se9  1  0.25000000  0.34961356  0.15038644  1
  Se  Se10  1  0.34961356  0.84961356  0.75000000  1
  Se  Se11  1  0.84961356  0.25000000  0.65038644  1
  Se  Se12  1  0.25000000  0.65038644  0.15038644  1
  Se  Se13  1  0.34961356  0.15038644  0.75000000  1
  Se  Se14  1  0.84961356  0.75000000  0.65038644  1
  Se  Se15  1  0.75000000  0.34961356  0.84961356  1
  Se  Se16  1  0.65038644  0.84961356  0.25000000  1
  Se  Se17  1  0.15038644  0.25000000  0.34961356  1
  Se  Se18  1  0.25000000  0.34961356  0.84961356  1
  Se  Se19  1  0.34961356  0.84961356  0.25000000  1
  Se  Se20  1  0.84961356  0.25000000  0.34961356  1
  Se  Se21  1  0.75000000  0.65038644  0.15038644  1
  Se  Se22  1  0.65038644  0.15038644  0.75000000  1
  Se  Se23  1  0.15038644  0.75000000  0.65038644  1
  Se  Se24  1  0.14936935  0.50000000  0.31183400  1
  Se  Se25  1  0.50000000  0.68816600  0.14936935  1
  Se  Se26  1  0.31183400  0.85063065  0.50000000  1
  Se  Se27  1  0.85063065  0.50000000  0.68816600  1
  Se  Se28  1  0.50000000  0.31183400  0.85063065  1
  Se  Se29  1  0.68816600  0.14936935  0.50000000  1
  Se  Se30  1  0.14936935  0.50000000  0.68816600  1
  Se  Se31  1  0.31183400  0.14936935  0.50000000  1
  Se  Se32  1  0.85063065  0.50000000  0.31183400  1
  Se  Se33  1  0.68816600  0.85063065  0.50000000  1
  Se  Se34  1  0.50000000  0.31183400  0.14936935  1
  Se  Se35  1  0.50000000  0.68816600  0.85063065  1
  Se  Se36  1  0.64936935  0.81183400  -0.00000000  1
  Se  Se37  1  0.00000000  0.64936935  0.18816600  1
  Se  Se38  1  0.81183400  -0.00000000  0.35063065  1
  Se  Se39  1  0.35063065  0.18816600  -0.00000000  1
  Se  Se40  1  0.00000000  0.35063065  0.81183400  1
  Se  Se41  1  0.18816600  0.00000000  0.64936935  1
  Se  Se42  1  0.64936935  0.18816600  -0.00000000  1
  Se  Se43  1  0.81183400  0.00000000  0.64936935  1
  Se  Se44  1  0.35063065  0.81183400  -0.00000000  1
  Se  Se45  1  0.18816600  -0.00000000  0.35063065  1
  Se  Se46  1  0.00000000  0.64936935  0.81183400  1
  Se  Se47  1  0.00000000  0.35063065  0.18816600  1
loop_
_geom_bond_atom_site_label_1
_geom_bond_atom_site_label_2
_geom_bond_distance
_geom_bond_site_symmetry_2
Ce0 Se0 2.733492 1_555
Ce0 Se7 2.733492 1_555
Ce0 Se42 2.738989 1_555
Ce0 Se34 2.738989 1_555
Ce1 Se14 2.733492 1_555
Ce1 Se1 2.733492 1_555
Ce1 Se33 2.738989 1_555
Ce1 Se43 2.738989 1_565
Ce2 Se2 2.733492 1_555
Ce2 Se18 2.733492 1_555
Ce2 Se40 2.738989 1_555
Ce2 Se30 2.738989 1_555
Ce3 Se10 2.733492 1_555
Ce3 Se3 2.733492 1_555
Ce3 Se35 2.738989 1_555
Ce3 Se44 2.738989 1_556
Ce4 Se4 2.733492 1_555
Ce4 Se17 2.733492 1_555
Ce4 Se31 2.738989 1_555
Ce4 Se45 2.738989 1_555
Ce5 Se21 2.733492 1_555
Ce5 Se5 2.733492 1_555
Ce5 Se37 2.738989 1_655
Ce5 Se32 2.738989 1_555
Ce6 Se6 2.733492 1_555
Ce6 Se1 2.733492 1_555
Ce6 Se36 2.738989 1_556
Ce6 Se35 2.738989 1_555
Ce7 Se20 2.733492 1_555
Ce7 Se7 2.733492 1_555
Ce7 Se29 2.738989 1_555
Ce7 Se38 2.738989 1_555
Ce8 Se8 2.733492 1_555
Ce8 Se12 2.733492 1_555
Ce8 Se37 2.738989 1_555
Ce8 Se24 2.738989 1_555
Ce9 Se4 2.733492 1_555
Ce9 Se9 2.733492 1_555
Ce9 Se39 2.738989 1_555
Ce9 Se34 2.738989 1_555
Ce10 Se10 2.733492 1_555
Ce10 Se23 2.733492 1_555
Ce10 Se41 2.738989 1_565
Ce10 Se26 2.738989 1_555
Ce11 Se15 2.733492 1_555
Ce11 Se11 2.733492 1_555
Ce11 Se27 2.738989 1_555
Ce11 Se40 2.738989 1_655
Ce12 Se19 2.733492 1_555
Ce12 Se12 2.733492 1_555
Ce12 Se44 2.738989 1_555
Ce12 Se25 2.738989 1_555
Ce13 Se13 2.733492 1_555
Ce13 Se2 2.733492 1_555
Ce13 Se41 2.738989 1_555
Ce13 Se31 2.738989 1_555
Ce14 Se6 2.733492 1_555
Ce14 Se14 2.733492 1_555
Ce14 Se27 2.738989 1_555
Ce14 Se46 2.738989 1_655
Ce15 Se15 2.733492 1_555
Ce15 Se22 2.733492 1_555
Ce15 Se42 2.738989 1_556
Ce15 Se28 2.738989 1_555
Ce16 Se5 2.733492 1_555
Ce16 Se16 2.733492 1_555
Ce16 Se33 2.738989 1_555
Ce16 Se38 2.738989 1_565
Ce17 Se17 2.733492 1_555
Ce17 Se9 2.733492 1_555
Ce17 Se24 2.738989 1_555
Ce17 Se47 2.738989 1_555
Ce18 Se13 2.733492 1_555
Ce18 Se18 2.733492 1_555
Ce18 Se28 2.738989 1_555
Ce18 Se39 2.738989 1_556
Ce19 Se8 2.733492 1_555
Ce19 Se19 2.733492 1_555
Ce19 Se26 2.738989 1_555
Ce19 Se45 2.738989 1_565
Ce20 Se0 2.733492 1_555
Ce20 Se20 2.733492 1_555
Ce20 Se32 2.738989 1_555
Ce20 Se47 2.738989 1_655
Ce21 Se21 2.733492 1_555
Ce21 Se16 2.733492 1_555
Ce21 Se36 2.738989 1_555
Ce21 Se25 2.738989 1_555
Ce22 Se22 2.733492 1_555
Ce22 Se11 2.733492 1_555
Ce22 Se43 2.738989 1_555
Ce22 Se29 2.738989 1_555
Ce23 Se23 2.733492 1_555
Ce23 Se3 2.733492 1_555
Ce23 Se46 2.738989 1_555
Ce23 Se30 2.738989 1_555
