# generated using pymatgen
data_Ce5(FeB3)2
_symmetry_space_group_name_H-M   'P 1'
_cell_length_a   5.31400137
_cell_length_b   5.31400200
_cell_length_c   8.52907023
_cell_angle_alpha   71.84896633
_cell_angle_beta   71.84896707
_cell_angle_gamma   59.99999608
_symmetry_Int_Tables_number   1
_chemical_formula_structural   Ce5(FeB3)2
_chemical_formula_sum   'Ce5 Fe2 B6'
_cell_volume   194.61941616
_cell_formula_units_Z   1
loop_
 _symmetry_equiv_pos_site_id
 _symmetry_equiv_pos_as_xyz
  1  'x, y, z'
loop_
 _atom_site_type_symbol
 _atom_site_label
 _atom_site_symmetry_multiplicity
 _atom_site_fract_x
 _atom_site_fract_y
 _atom_site_fract_z
 _atom_site_occupancy
  Ce  Ce0  1  0.00000000  0.00000000  0.00000000  1
  Ce  Ce1  1  0.74722000  0.74722000  0.75834000  1
  Ce  Ce2  1  0.25278000  0.25278000  0.24166000  1
  Ce  Ce3  1  0.58578600  0.58578600  0.24264100  1
  Ce  Ce4  1  0.41421400  0.41421400  0.75735900  1
  Fe  Fe0  1  0.88317700  0.88317700  0.35047100  1
  Fe  Fe1  1  0.11682300  0.11682300  0.64953000  1
  B  B0  1  0.50000000  0.16821100  0.50000000  1
  B  B1  1  0.83178900  0.50000000  0.50000000  1
  B  B2  1  0.16821100  0.83178900  0.50000000  1
  B  B3  1  0.16821100  0.50000000  0.50000000  1
  B  B4  1  0.83178900  0.16821100  0.50000000  1
  B  B5  1  0.50000000  0.83178900  0.50000000  1
loop_
_geom_bond_atom_site_label_1
_geom_bond_atom_site_label_2
_geom_bond_distance
_geom_bond_site_symmetry_2
Ce0 Fe1 2.789093 1_554
Ce0 Fe0 2.789101 1_445
B0 B3 1.763127 1_555
B0 B4 1.763127 1_555
B0 B5 1.787747 1_545
B0 Fe0 2.137350 1_545
B0 Fe1 2.137357 1_555
B0 Ce3 2.702467 1_555
B0 Ce4 2.702471 1_555
B0 Ce1 2.716429 1_545
B0 Ce2 2.716429 1_555
B1 B5 1.763127 1_555
B1 B4 1.763127 1_555
B1 B3 1.787747 1_655
B1 Fe1 2.137355 1_655
B1 Fe0 2.137355 1_555
B1 Ce4 2.702467 1_555
B1 Ce3 2.702471 1_555
B1 Ce2 2.716429 1_655
B1 Ce1 2.716429 1_555
B2 B5 1.763127 1_555
B2 B3 1.763127 1_555
B2 B4 1.787747 1_465
B2 Fe0 2.137346 1_455
B2 Fe1 2.137353 1_565
B2 Ce4 2.702469 1_555
B2 Ce3 2.702469 1_555
B2 Ce1 2.716429 1_455
B2 Ce2 2.716429 1_565
B3 Fe0 2.137350 1_455
B3 Fe1 2.137357 1_555
B3 Ce3 2.702467 1_555
B3 Ce4 2.702471 1_555
B3 Ce1 2.716429 1_455
B3 Ce2 2.716429 1_555
B4 Fe0 2.137346 1_545
B4 Fe1 2.137353 1_655
B4 Ce3 2.702469 1_555
B4 Ce4 2.702469 1_555
B4 Ce2 2.716429 1_655
B4 Ce1 2.716429 1_545
B5 Fe1 2.137355 1_565
B5 Fe0 2.137355 1_555
B5 Ce4 2.702467 1_555
B5 Ce3 2.702471 1_555
B5 Ce2 2.716429 1_565
B5 Ce1 2.716429 1_555
