# generated using pymatgen
data_Li4MnCo2O7
_symmetry_space_group_name_H-M   'P 1'
_cell_length_a   17.05010747
_cell_length_b   17.05010747
_cell_length_c   5.18879376
_cell_angle_alpha   86.65978874
_cell_angle_beta   86.65978874
_cell_angle_gamma   9.72792792
_symmetry_Int_Tables_number   1
_chemical_formula_structural   Li4MnCo2O7
_chemical_formula_sum   'Li8 Mn2 Co4 O14'
_cell_volume   254.44037634
_cell_formula_units_Z   2
loop_
 _symmetry_equiv_pos_site_id
 _symmetry_equiv_pos_as_xyz
  1  'x, y, z'
loop_
 _atom_site_type_symbol
 _atom_site_label
 _atom_site_symmetry_multiplicity
 _atom_site_fract_x
 _atom_site_fract_y
 _atom_site_fract_z
 _atom_site_occupancy
  Li  Li0  1  0.50229100  0.50229100  0.49653300  1
  Li  Li1  1  0.92988200  0.92988200  0.36600100  1
  Li  Li2  1  0.36026000  0.36026000  0.21956500  1
  Li  Li3  1  0.78439600  0.78439600  0.07118300  1
  Li  Li4  1  0.21028200  0.21028200  0.93052500  1
  Li  Li5  1  0.07470700  0.07470700  0.65164900  1
  Li  Li6  1  0.64109900  0.64109900  0.77281000  1
  Li  Li7  1  0.57010800  0.57010800  0.14933200  1
  Mn  Mn0  1  0.00171800  0.00171800  0.00723500  1
  Mn  Mn1  1  0.28627500  0.28627500  0.56733500  1
  Co  Co0  1  0.42803600  0.42803600  0.86424800  1
  Co  Co1  1  0.85848800  0.85848800  0.71997100  1
  Co  Co2  1  0.71181100  0.71181100  0.42470000  1
  Co  Co3  1  0.13783300  0.13783300  0.26229200  1
  O  O0  1  0.53079800  0.53079800  0.83825400  1
  O  O1  1  0.96304100  0.96304100  0.71043100  1
  O  O2  1  0.39198800  0.39198800  0.56191200  1
  O  O3  1  0.81709600  0.81709600  0.40272100  1
  O  O4  1  0.25088000  0.25088000  0.28103900  1
  O  O5  1  0.10940500  0.10940500  0.96691200  1
  O  O6  1  0.67831100  0.67831100  0.12579600  1
  O  O7  1  0.46717600  0.46717600  0.15509700  1
  O  O8  1  0.89411800  0.89411800  0.03935300  1
  O  O9  1  0.32110100  0.32110100  0.85288900  1
  O  O10  1  0.75516600  0.75516600  0.72913800  1
  O  O11  1  0.18307100  0.18307100  0.59161100  1
  O  O12  1  0.03136200  0.03136200  0.29010200  1
  O  O13  1  0.60930100  0.60930100  0.45136500  1
loop_
_geom_bond_atom_site_label_1
_geom_bond_atom_site_label_2
_geom_bond_distance
_geom_bond_site_symmetry_2
Li0 O12 2.022188 1_655
Li0 O12 2.022188 1_565
Li0 O0 2.069537 1_555
Li0 O7 2.193045 1_555
Li0 O1 2.219738 1_455
Li0 O1 2.219738 1_545
Li1 O8 2.142480 1_555
Li1 O2 2.151290 1_655
Li1 O2 2.151290 1_565
Li1 O1 2.167681 1_555
Li1 O7 2.175104 1_565
Li1 O7 2.175104 1_655
Li2 O8 2.040100 1_545
Li2 O8 2.040100 1_455
Li2 O2 2.131104 1_555
Li2 O3 2.231837 1_545
Li2 O3 2.231837 1_455
Li2 O9 2.384587 1_554
Li3 O10 2.083850 1_554
Li3 O3 2.101752 1_555
Li3 O4 2.104166 1_565
Li3 O4 2.104166 1_655
Li3 O9 2.182458 1_564
Li3 O9 2.182458 1_654
Li4 O11 2.034078 1_555
Li4 O6 2.041549 1_456
Li4 O6 2.041549 1_546
Li4 O10 2.306797 1_545
Li4 O10 2.306797 1_455
Li4 O4 2.346066 1_556
Li5 O5 2.071574 1_555
Li5 O13 2.099701 1_455
Li5 O13 2.099701 1_545
Li5 O0 2.254858 1_545
Li5 O0 2.254858 1_455
Li5 O12 2.451829 1_555
Li6 O5 2.034008 1_655
Li6 O5 2.034008 1_565
Li6 O13 2.039601 1_555
Li6 O11 2.202484 1_655
Li6 O11 2.202484 1_565
Li6 O6 2.285631 1_556
Li7 O12 2.060147 1_565
Li7 O12 2.060147 1_655
Li7 O13 2.115068 1_555
Li7 O5 2.149632 1_654
Li7 O5 2.149632 1_564
Li7 O0 2.154410 1_554
Mn0 O12 1.828019 1_555
Mn0 O0 1.932289 1_454
Mn0 O0 1.932289 1_544
Mn0 O7 1.987656 1_545
Mn0 O7 1.987656 1_455
Mn0 O1 2.082171 1_444
Mn1 O9 1.949517 1_555
Mn1 O10 1.951496 1_455
Mn1 O10 1.951496 1_545
Mn1 O3 1.952338 1_455
Mn1 O3 1.952338 1_545
Mn1 O4 1.965212 1_555
Co0 O1 2.007637 1_545
Co0 O1 2.007637 1_455
Co0 O8 2.030073 1_546
Co0 O8 2.030073 1_456
Co0 O2 2.045947 1_555
Co0 O7 2.069019 1_556
Co1 O2 1.987220 1_655
Co1 O2 1.987220 1_565
Co1 O9 2.019133 1_655
Co1 O9 2.019133 1_565
Co1 O8 2.108686 1_556
Co1 O3 2.226767 1_555
Co2 O11 1.922170 1_565
Co2 O11 1.922170 1_655
Co2 O6 1.976742 1_555
Co2 O4 2.071737 1_655
Co2 O4 2.071737 1_565
Co2 O10 2.222045 1_555
Co3 O5 1.858812 1_554
Co3 O13 1.970043 1_455
Co3 O13 1.970043 1_545
Co3 O6 2.090275 1_455
Co3 O6 2.090275 1_545
Co3 O11 2.364243 1_555
