# generated using pymatgen
data_Ba3WO6
_symmetry_space_group_name_H-M   'P 1'
_cell_length_a   6.16345500
_cell_length_b   6.62264205
_cell_length_c   8.95101525
_cell_angle_alpha   87.44999512
_cell_angle_beta   89.92970379
_cell_angle_gamma   89.87385239
_symmetry_Int_Tables_number   1
_chemical_formula_structural   Ba3WO6
_chemical_formula_sum   'Ba6 W2 O12'
_cell_volume   365.00281654
_cell_formula_units_Z   2
loop_
 _symmetry_equiv_pos_site_id
 _symmetry_equiv_pos_as_xyz
  1  'x, y, z'
loop_
 _atom_site_type_symbol
 _atom_site_label
 _atom_site_symmetry_multiplicity
 _atom_site_fract_x
 _atom_site_fract_y
 _atom_site_fract_z
 _atom_site_occupancy
  Ba  Ba0  1  0.48797200  0.40233500  0.95416700  1
  Ba  Ba1  1  0.00445700  0.99445900  0.47813000  1
  Ba  Ba2  1  0.98992800  0.03213000  0.00604200  1
  Ba  Ba3  1  0.49816300  0.43036300  0.49100900  1
  Ba  Ba4  1  0.99425500  0.50785200  0.22978000  1
  Ba  Ba5  1  0.49123000  0.92150000  0.73816700  1
  W  W0  1  0.49717900  0.99140800  0.24067400  1
  W  W1  1  0.99031400  0.43467500  0.72484500  1
  O  O0  1  0.47307700  0.99157500  0.02174800  1
  O  O1  1  0.74574200  0.61750100  0.72961200  1
  O  O2  1  0.34102200  0.73916900  0.26915300  1
  O  O3  1  0.21950300  0.22388400  0.72634100  1
  O  O4  1  0.03604900  0.44402600  0.94413100  1
  O  O5  1  0.94508000  0.39339600  0.51034500  1
  O  O6  1  0.77694300  0.21060300  0.76782400  1
  O  O7  1  0.51286600  0.02889900  0.45645400  1
  O  O8  1  0.65997400  0.25500100  0.21016500  1
  O  O9  1  0.20151300  0.64344200  0.67930700  1
  O  O10  1  0.22164000  0.15437500  0.23986300  1
  O  O11  1  0.77909200  0.85340300  0.24324400  1
loop_
_geom_bond_atom_site_label_1
_geom_bond_atom_site_label_2
_geom_bond_distance
_geom_bond_site_symmetry_2
Ba0 O8 2.670037 1_556
Ba0 O0 2.762067 1_546
Ba0 O6 2.781689 1_555
Ba0 O4 2.799610 1_555
Ba0 O1 2.888256 1_555
Ba0 O3 2.919708 1_555
Ba1 O10 2.694487 1_565
Ba1 O5 2.694552 1_465
Ba1 O11 2.722145 1_455
Ba1 O7 3.043750 1_465
Ba1 O3 3.052529 1_565
Ba1 O9 3.121261 1_555
Ba1 O7 3.147468 1_565
Ba1 O2 3.304092 1_555
Ba1 O6 3.324434 1_465
Ba2 O10 2.690466 1_655
Ba2 O11 2.715513 1_545
Ba2 O6 2.728136 1_554
Ba2 O4 2.774443 1_654
Ba2 O0 2.992280 1_645
Ba2 O3 3.098259 1_654
Ba2 O8 3.141700 1_555
Ba2 O0 3.199872 1_545
Ba3 O7 2.691633 1_555
Ba3 O5 2.769816 1_555
Ba3 O9 2.892719 1_555
Ba3 O1 2.945797 1_555
Ba3 O2 2.949355 1_555
Ba3 O8 2.985182 1_555
Ba3 O3 3.000341 1_555
Ba4 O5 2.608260 1_555
Ba4 O4 2.622323 1_654
Ba4 O11 2.649722 1_555
Ba4 O2 2.665202 1_655
Ba4 O8 2.668726 1_555
Ba4 O10 2.723858 1_655
Ba5 O1 2.553311 1_555
Ba5 O7 2.592727 1_565
Ba5 O0 2.602872 1_556
Ba5 O3 2.606380 1_565
Ba5 O6 2.626505 1_565
Ba5 O9 2.638241 1_555
O0 W0 1.965365 1_555
O1 W1 1.933008 1_555
O2 W0 1.936606 1_555
O3 W1 1.983458 1_455
O4 W1 1.987022 1_455
O5 W1 1.971596 1_555
O6 W1 2.009017 1_555
O7 W0 1.960799 1_545
O8 W0 2.023209 1_545
O9 W1 1.930968 1_455
O10 W0 2.010043 1_545
O11 W0 1.961171 1_555
