# generated using pymatgen
data_Cs2CdFe(CN)6
_symmetry_space_group_name_H-M   'P 1'
_cell_length_a   7.63005128
_cell_length_b   7.63005128
_cell_length_c   7.63005128
_cell_angle_alpha   60.00000000
_cell_angle_beta   60.00000000
_cell_angle_gamma   60.00000000
_symmetry_Int_Tables_number   1
_chemical_formula_structural   Cs2CdFe(CN)6
_chemical_formula_sum   'Cs2 Cd1 Fe1 C6 N6'
_cell_volume   314.09959199
_cell_formula_units_Z   1
loop_
 _symmetry_equiv_pos_site_id
 _symmetry_equiv_pos_as_xyz
  1  'x, y, z'
loop_
 _atom_site_type_symbol
 _atom_site_label
 _atom_site_symmetry_multiplicity
 _atom_site_fract_x
 _atom_site_fract_y
 _atom_site_fract_z
 _atom_site_occupancy
  Cs  Cs0  1  0.75000000  0.75000000  0.75000000  1
  Cs  Cs1  1  0.25000000  0.25000000  0.25000000  1
  Cd  Cd0  1  0.50000000  0.50000000  0.50000000  1
  Fe  Fe0  1  0.00000000  0.00000000  0.00000000  1
  C  C0  1  0.82557600  0.17442400  0.17442400  1
  C  C1  1  0.82557600  0.82557600  0.17442400  1
  C  C2  1  0.17442400  0.82557600  0.17442400  1
  C  C3  1  0.17442400  0.17442400  0.82557600  1
  C  C4  1  0.82557600  0.17442400  0.82557600  1
  C  C5  1  0.17442400  0.82557600  0.82557600  1
  N  N0  1  0.71614200  0.28385800  0.28385800  1
  N  N1  1  0.71614200  0.71614200  0.28385800  1
  N  N2  1  0.28385800  0.71614200  0.28385800  1
  N  N3  1  0.28385800  0.28385800  0.71614200  1
  N  N4  1  0.71614200  0.28385800  0.71614200  1
  N  N5  1  0.28385800  0.71614200  0.71614200  1
loop_
_geom_bond_atom_site_label_1
_geom_bond_atom_site_label_2
_geom_bond_distance
_geom_bond_site_symmetry_2
Cs0 N1 3.832479 1_556
Cs0 N4 3.832479 1_565
Cs0 N5 3.832479 1_655
Cs0 N2 3.832479 1_556
Cs0 N3 3.832479 1_655
Cs0 N3 3.832479 1_565
Cs0 N0 3.832479 1_565
Cs0 N4 3.832479 1_555
Cs0 N5 3.832479 1_555
Cs0 N2 3.832479 1_655
Cs0 N0 3.832479 1_556
Cs0 N1 3.832479 1_555
Cs1 N3 3.832479 1_555
Cs1 N4 3.832479 1_455
Cs1 N2 3.832479 1_555
Cs1 N0 3.832479 1_455
Cs1 N5 3.832479 1_554
Cs1 N0 3.832479 1_555
Cs1 N1 3.832479 1_545
Cs1 N5 3.832479 1_545
Cs1 N1 3.832479 1_455
Cs1 N2 3.832479 1_545
Cs1 N4 3.832479 1_554
Cs1 N3 3.832479 1_554
Cd0 N1 2.332285 1_555
Cd0 N5 2.332285 1_555
Cd0 N4 2.332285 1_555
Cd0 N2 2.332285 1_555
Cd0 N0 2.332285 1_555
Cd0 N3 2.332285 1_555
C0 N0 1.180850 1_555
C0 Fe0 1.882126 1_655
C1 N1 1.180850 1_555
C1 Fe0 1.882126 1_665
C2 N2 1.180850 1_555
C2 Fe0 1.882126 1_565
C3 N3 1.180850 1_555
C3 Fe0 1.882126 1_556
C4 N4 1.180850 1_555
C4 Fe0 1.882126 1_656
C5 N5 1.180850 1_555
C5 Fe0 1.882126 1_566
