# generated using pymatgen
data_Na4TeMo6H40(NO20)2
_symmetry_space_group_name_H-M   'P 1'
_cell_length_a   10.97243600
_cell_length_b   10.98665080
_cell_length_c   11.03972209
_cell_angle_alpha   118.77059161
_cell_angle_beta   112.83688973
_cell_angle_gamma   96.70929603
_symmetry_Int_Tables_number   1
_chemical_formula_structural   Na4TeMo6H40(NO20)2
_chemical_formula_sum   'Na4 Te1 Mo6 H40 N2 O40'
_cell_volume   996.28467220
_cell_formula_units_Z   1
loop_
 _symmetry_equiv_pos_site_id
 _symmetry_equiv_pos_as_xyz
  1  'x, y, z'
loop_
 _atom_site_type_symbol
 _atom_site_label
 _atom_site_symmetry_multiplicity
 _atom_site_fract_x
 _atom_site_fract_y
 _atom_site_fract_z
 _atom_site_occupancy
  Na  Na0  1  0.87079500  0.53900300  0.37398800  1
  Na  Na1  1  0.12920500  0.46099700  0.62601200  1
  Na  Na2  1  0.28467500  0.65220400  0.25191000  1
  Na  Na3  1  0.71532500  0.34779600  0.74809000  1
  Te  Te0  1  0.00000000  0.00000000  0.00000000  1
  Mo  Mo0  1  0.33486100  0.13446000  0.09394300  1
  Mo  Mo1  1  0.66513900  0.86554000  0.90605700  1
  Mo  Mo2  1  0.73251000  0.82584400  0.62129200  1
  Mo  Mo3  1  0.26749000  0.17415600  0.37870800  1
  Mo  Mo4  1  0.06907200  0.95974400  0.71819100  1
  Mo  Mo5  1  0.93092800  0.04025600  0.28180900  1
  H  H0  1  0.47318500  0.03531700  0.77222900  1
  H  H1  1  0.52681500  0.96468300  0.22777100  1
  H  H2  1  0.47822800  0.19873200  0.78082100  1
  H  H3  1  0.52177200  0.80126800  0.21917900  1
  H  H4  1  0.59434400  0.96993900  0.39662600  1
  H  H5  1  0.40565600  0.03006100  0.60337400  1
  H  H6  1  0.32248400  0.07139100  0.70822300  1
  H  H7  1  0.67751600  0.92860900  0.29177700  1
  H  H8  1  0.95445300  0.64585100  0.69558100  1
  H  H9  1  0.04554700  0.35414900  0.30441900  1
  H  H10  1  0.84164700  0.48665900  0.59821400  1
  H  H11  1  0.15835300  0.51334100  0.40178600  1
  H  H12  1  0.61115700  0.28028000  0.12868000  1
  H  H13  1  0.38884300  0.71972000  0.87132000  1
  H  H14  1  0.72554900  0.20608600  0.15144100  1
  H  H15  1  0.27445100  0.79391400  0.84855900  1
  H  H16  1  0.84756200  0.58162700  0.10926400  1
  H  H17  1  0.15243800  0.41837300  0.89073600  1
  H  H18  1  0.80376800  0.69783000  0.21438400  1
  H  H19  1  0.19623200  0.30217000  0.78561600  1
  H  H20  1  0.10963800  0.31600600  0.01977600  1
  H  H21  1  0.89036200  0.68399400  0.98022400  1
  H  H22  1  0.99918300  0.39136700  0.01267500  1
  H  H23  1  0.00081700  0.60863300  0.98732500  1
  H  H24  1  0.76373600  0.30017000  0.01170800  1
  H  H25  1  0.23626400  0.69983000  0.98829200  1
  H  H26  1  0.80554100  0.18026500  0.90657900  1
  H  H27  1  0.19445900  0.81973500  0.09342100  1
  H  H28  1  0.48589500  0.43205800  0.79936200  1
  H  H29  1  0.51410500  0.56794200  0.20063800  1
  H  H30  1  0.61818100  0.47441300  0.96042900  1
  H  H31  1  0.38181900  0.52558700  0.03957100  1
  H  H32  1  0.66194200  0.54525800  0.63252000  1
  H  H33  1  0.33805800  0.45474200  0.36748000  1
  H  H34  1  0.57596200  0.37957200  0.48178000  1
  H  H35  1  0.42403800  0.62042800  0.51822000  1
  H  H36  1  0.84088200  0.12009800  0.63732500  1
  H  H37  1  0.15911800  0.87990200  0.36267500  1
  H  H38  1  0.86566800  0.21240500  0.57160200  1
  H  H39  1  0.13433200  0.78759500  0.42839800  1
  N  N0  1  0.42133100  0.08440100  0.71739000  1
  N  N1  1  0.57866900  0.91559900  0.28261000  1
  O  O0  1  0.34199400  0.27317700  0.29861200  1
  O  O1  1  0.65800600  0.72682300  0.70138800  1
  O  O2  1  0.23866700  0.95911300  0.86954200  1
  O  O3  1  0.76133300  0.04088700  0.13045800  1
  O  O4  1  0.41817000  0.27149600  0.08284700  1
  O  O5  1  0.58183000  0.72850400  0.91715300  1
  O  O6  1  0.46649400  0.07200200  0.16566600  1
  O  O7  1  0.53350600  0.92799800  0.83433400  1
  O  O8  1  0.81856900  0.01045200  0.88488600  1
  O  O9  1  0.18143100  0.98954800  0.11511400  1
  O  O10  1  0.11179100  0.13156300  0.97606100  1
  O  O11  1  0.88820900  0.86843700  0.02393900  1
  O  O12  1  0.95585200  0.83804600  0.78658200  1
  O  O13  1  0.04414800  0.16195400  0.21341800  1
  O  O14  1  0.88110200  0.97265400  0.64801500  1
  O  O15  1  0.11889800  0.02734600  0.35198500  1
  O  O16  1  0.71003800  0.66192100  0.45352700  1
  O  O17  1  0.28996200  0.33807900  0.54647300  1
  O  O18  1  0.59308900  0.88001900  0.54934500  1
  O  O19  1  0.40691100  0.11998100  0.45065500  1
  O  O20  1  0.15505400  0.10463900  0.71752300  1
  O  O21  1  0.84494600  0.89536100  0.28247700  1
  O  O22  1  0.03727400  0.79255000  0.54654200  1
  O  O23  1  0.96272600  0.20745000  0.45345800  1
  O  O24  1  0.93385600  0.53920700  0.61835800  1
  O  O25  1  0.06614400  0.46079300  0.38164200  1
  O  O26  1  0.71015800  0.29437700  0.15424300  1
  O  O27  1  0.28984200  0.70562300  0.84575700  1
  O  O28  1  0.21068300  0.40946200  0.83975600  1
  O  O29  1  0.78931700  0.59053800  0.16024400  1
  O  O30  1  0.90268100  0.59117000  0.96690200  1
  O  O31  1  0.09731900  0.40883000  0.03309800  1
  O  O32  1  0.79553200  0.27716900  0.93327100  1
  O  O33  1  0.20446800  0.72283100  0.06672900  1
  O  O34  1  0.44937100  0.60745200  0.15468600  1
  O  O35  1  0.55062900  0.39254800  0.84531400  1
  O  O36  1  0.66384800  0.44302800  0.58722200  1
  O  O37  1  0.33615200  0.55697200  0.41277800  1
  O  O38  1  0.19275100  0.81107800  0.38855200  1
  O  O39  1  0.80724900  0.18892200  0.61144800  1
loop_
_geom_bond_atom_site_label_1
_geom_bond_atom_site_label_2
_geom_bond_distance
_geom_bond_site_symmetry_2
Na0 O26 2.347981 1_555
Na0 O25 2.387371 1_655
Na0 O22 2.393168 1_655
Na0 O24 2.510307 1_555
Na0 O16 2.514652 1_555
Na0 O29 2.540624 1_555
Na1 O27 2.347981 1_555
Na1 O24 2.387371 1_455
Na1 O23 2.393168 1_455
Na1 O25 2.510307 1_555
Na1 O17 2.514652 1_555
Na1 O28 2.540624 1_555
Na2 O38 2.323235 1_555
Na2 O37 2.390775 1_555
Na2 O33 2.417851 1_555
Na2 O31 2.419573 1_555
Na2 O34 2.421700 1_555
Na3 O39 2.323235 1_555
Na3 O36 2.390775 1_555
Na3 O32 2.417851 1_555
Na3 O30 2.419573 1_555
Na3 O35 2.421700 1_555
Mo0 O6 1.746663 1_555
Mo0 O4 1.749340 1_555
Mo0 O2 1.965625 1_544
Mo0 O0 1.988512 1_555
Mo0 O10 2.270442 1_554
Mo0 O9 2.336857 1_545
Mo1 O7 1.746663 1_555
Mo1 O5 1.749340 1_555
Mo1 O3 1.965625 1_566
Mo1 O1 1.988512 1_555
Mo1 O11 2.270442 1_556
Mo1 O8 2.336857 1_565
Mo2 O18 1.746443 1_555
Mo2 O16 1.750835 1_555
Mo2 O14 1.975096 1_555
Mo2 O1 1.978130 1_555
Mo2 O8 2.282890 1_565
Mo2 O12 2.360058 1_555
Mo3 O19 1.746443 1_555
Mo3 O17 1.750835 1_555
Mo3 O15 1.975096 1_555
Mo3 O0 1.978130 1_555
Mo3 O9 2.282890 1_545
Mo3 O13 2.360058 1_555
Mo4 O22 1.753042 1_555
Mo4 O20 1.757859 1_565
Mo4 O14 1.951415 1_455
Mo4 O2 1.963515 1_555
Mo4 O12 2.283147 1_455
Mo4 O10 2.339223 1_565
Mo5 O23 1.753042 1_555
Mo5 O21 1.757859 1_545
Mo5 O15 1.951415 1_655
Mo5 O3 1.963515 1_555
Mo5 O13 2.283147 1_655
Mo5 O11 2.339223 1_545
H0 N0 1.048637 1_555
H0 O7 1.704890 1_545
H1 N1 1.048637 1_555
H1 O6 1.704890 1_565
H2 N0 1.043381 1_555
H3 N1 1.043381 1_555
H4 N1 1.027105 1_555
H5 N0 1.027105 1_555
H6 N0 1.035213 1_555
H7 N1 1.035213 1_555
H8 O24 0.988794 1_555
H9 O25 0.988794 1_555
H10 O24 0.985744 1_555
H11 O25 0.985744 1_555
H12 O26 0.981986 1_555
H13 O27 0.981986 1_555
H14 O26 0.991901 1_555
H15 O27 0.991901 1_555
H16 O29 0.987696 1_555
H17 O28 0.987696 1_555
H18 O29 0.988160 1_555
H19 O28 0.988160 1_555
H20 O31 0.991568 1_555
H21 O30 0.991568 1_555
H22 O31 0.984257 1_655
H23 O30 0.984257 1_455
H24 O32 0.989877 1_554
H25 O33 0.989877 1_556
H26 O32 0.991374 1_555
H26 O8 1.793692 1_555
H27 O33 0.991374 1_555
H27 O9 1.793692 1_555
H28 O35 0.977044 1_555
H29 O34 0.977044 1_555
H30 O35 0.993057 1_555
H31 O34 0.993057 1_555
H32 O36 0.992449 1_555
H33 O37 0.992449 1_555
H34 O36 0.980495 1_555
H35 O37 0.980495 1_555
H36 O39 0.990383 1_555
H37 O38 0.990383 1_555
H38 O39 0.980010 1_555
H39 O38 0.980010 1_555
O8 Te0 1.954835 1_656
O9 Te0 1.954835 1_565
O10 Te0 1.966923 1_556
O11 Te0 1.966923 1_665
O12 Te0 1.956778 1_666
O13 Te0 1.956778 1_555
