# generated using pymatgen
data_TbNiGe
_symmetry_space_group_name_H-M   'P 1'
_cell_length_a   5.55270902
_cell_length_b   5.55270902
_cell_length_c   6.91806279
_cell_angle_alpha   51.82697169
_cell_angle_beta   51.82697169
_cell_angle_gamma   44.12225695
_symmetry_Int_Tables_number   1
_chemical_formula_structural   TbNiGe
_chemical_formula_sum   'Tb2 Ni2 Ge2'
_cell_volume   110.65835120
_cell_formula_units_Z   2
loop_
 _symmetry_equiv_pos_site_id
 _symmetry_equiv_pos_as_xyz
  1  'x, y, z'
loop_
 _atom_site_type_symbol
 _atom_site_label
 _atom_site_symmetry_multiplicity
 _atom_site_fract_x
 _atom_site_fract_y
 _atom_site_fract_z
 _atom_site_occupancy
  Tb  Tb0  1  0.45124600  0.45124600  0.80892400  1
  Tb  Tb1  1  0.54875400  0.54875400  0.19107600  1
  Ni  Ni0  1  0.17078500  0.17078500  0.77639400  1
  Ni  Ni1  1  0.82921500  0.82921500  0.22360600  1
  Ge  Ge0  1  0.82919000  0.82919000  0.60508100  1
  Ge  Ge1  1  0.17081000  0.17081000  0.39491900  1
loop_
_geom_bond_atom_site_label_1
_geom_bond_atom_site_label_2
_geom_bond_distance
_geom_bond_site_symmetry_2
Ni0 Ni1 2.724808 1_446
Ni0 Tb0 2.971143 1_545
Ni0 Tb0 2.971143 1_455
Ni0 Tb0 3.041295 1_555
Ni0 Tb1 3.058017 1_546
Ni0 Tb1 3.058017 1_456
Ni0 Tb1 3.243560 1_555
Ni1 Tb1 2.971143 1_655
Ni1 Tb1 2.971143 1_565
Ni1 Tb1 3.041295 1_555
Ni1 Tb0 3.058017 1_654
Ni1 Tb0 3.058017 1_564
Ni1 Tb0 3.243560 1_555
Ge0 Ni0 2.415617 1_655
Ge0 Ni0 2.415617 1_565
Ge0 Ni1 2.638896 1_555
Ge0 Ge1 2.767395 1_665
Ge0 Tb1 3.004522 1_655
Ge0 Tb1 3.004522 1_565
Ge0 Tb1 3.026453 1_556
Ge0 Tb0 3.131118 1_555
Ge0 Tb0 3.206115 1_565
Ge0 Tb0 3.206115 1_655
Ge1 Ni1 2.415617 1_545
Ge1 Ni1 2.415617 1_455
Ge1 Ni0 2.638896 1_555
Ge1 Tb0 3.004522 1_455
Ge1 Tb0 3.004522 1_545
Ge1 Tb0 3.026453 1_554
Ge1 Tb1 3.131118 1_555
Ge1 Tb1 3.206115 1_545
Ge1 Tb1 3.206115 1_455
