# generated using pymatgen
data_Li2TiCr3O8
_symmetry_space_group_name_H-M   'P 1'
_cell_length_a   5.87239779
_cell_length_b   5.94753435
_cell_length_c   8.66145524
_cell_angle_alpha   92.27644803
_cell_angle_beta   90.08145906
_cell_angle_gamma   90.03314527
_symmetry_Int_Tables_number   1
_chemical_formula_structural   Li2TiCr3O8
_chemical_formula_sum   'Li4 Ti2 Cr6 O16'
_cell_volume   302.27336938
_cell_formula_units_Z   2
loop_
 _symmetry_equiv_pos_site_id
 _symmetry_equiv_pos_as_xyz
  1  'x, y, z'
loop_
 _atom_site_type_symbol
 _atom_site_label
 _atom_site_symmetry_multiplicity
 _atom_site_fract_x
 _atom_site_fract_y
 _atom_site_fract_z
 _atom_site_occupancy
  Li  Li0  1  0.24998100  0.75007700  0.24999400  1
  Li  Li1  1  0.74999300  0.25012300  0.75012200  1
  Li  Li2  1  0.75008000  0.75020500  0.25018200  1
  Li  Li3  1  0.25005700  0.24974900  0.74990400  1
  Ti  Ti0  1  0.99956000  0.99563500  0.00049400  1
  Ti  Ti1  1  0.50051900  0.50491800  0.49951600  1
  Cr  Cr0  1  0.75013200  0.74993500  0.74989200  1
  Cr  Cr1  1  0.74979000  0.25006100  0.24989200  1
  Cr  Cr2  1  0.25001800  0.74979700  0.75007800  1
  Cr  Cr3  1  0.00005800  0.49845500  0.50029500  1
  Cr  Cr4  1  0.49992700  0.00095400  0.99966300  1
  Cr  Cr5  1  0.24997000  0.25014600  0.24994700  1
  O  O0  1  0.00025600  0.48470900  0.27139300  1
  O  O1  1  0.49999300  0.98425700  0.77065400  1
  O  O2  1  0.99996900  0.51556500  0.72935600  1
  O  O3  1  0.49968600  0.01536700  0.22864400  1
  O  O4  1  0.00036300  0.98443200  0.77320900  1
  O  O5  1  0.49994100  0.48594400  0.27280200  1
  O  O6  1  0.99991900  0.01434600  0.22722300  1
  O  O7  1  0.49982000  0.51548400  0.72680600  1
  O  O8  1  0.24444500  0.71797900  0.51334300  1
  O  O9  1  0.74606500  0.21600700  0.01324800  1
  O  O10  1  0.75446200  0.71809100  0.51319800  1
  O  O11  1  0.25696100  0.21562800  0.01438400  1
  O  O12  1  0.24305700  0.28427200  0.48558300  1
  O  O13  1  0.74557300  0.78191900  0.98671100  1
  O  O14  1  0.75384600  0.28399900  0.48660400  1
  O  O15  1  0.25556000  0.78194700  0.98686400  1
loop_
_geom_bond_atom_site_label_1
_geom_bond_atom_site_label_2
_geom_bond_distance
_geom_bond_site_symmetry_2
Li0 O5 2.165180 1_555
Li0 O6 2.166138 1_465
Li0 O3 2.166846 1_565
Li0 O0 2.167314 1_555
Li0 O15 2.294727 1_554
Li0 O8 2.296779 1_555
Li1 O2 2.168007 1_555
Li1 O1 2.169719 1_545
Li1 O7 2.171888 1_555
Li1 O4 2.173866 1_645
Li1 O9 2.296230 1_556
Li1 O14 2.299425 1_555
Li2 O6 2.164040 1_565
Li2 O5 2.165399 1_555
Li2 O3 2.170094 1_565
Li2 O0 2.170358 1_655
Li2 O10 2.293751 1_555
Li2 O13 2.297395 1_554
Li3 O4 2.168936 1_545
Li3 O1 2.168941 1_545
Li3 O2 2.170762 1_455
Li3 O7 2.170808 1_555
Li3 O12 2.307013 1_555
Li3 O11 2.308069 1_556
Cr0 O2 2.027456 1_555
Cr0 O1 2.028667 1_555
Cr0 O4 2.029686 1_655
Cr0 O7 2.029702 1_555
Cr0 O10 2.051535 1_555
Cr0 O13 2.052676 1_555
Cr1 O3 2.028751 1_555
Cr1 O0 2.030240 1_655
Cr1 O5 2.035037 1_555
Cr1 O6 2.035391 1_555
Cr1 O9 2.051727 1_555
Cr1 O14 2.052291 1_555
Cr2 O2 2.026359 1_455
Cr2 O1 2.026896 1_555
Cr2 O7 2.028670 1_555
Cr2 O4 2.029266 1_555
Cr2 O8 2.051898 1_555
Cr2 O15 2.052439 1_555
Cr3 O12 1.914412 1_555
Cr3 O14 1.927896 1_455
Cr3 O8 1.939769 1_555
Cr3 O10 1.946787 1_455
Cr3 O0 1.981064 1_555
Cr3 O2 1.982570 1_455
Cr4 O11 1.916209 1_556
Cr4 O9 1.929880 1_556
Cr4 O15 1.937557 1_545
Cr4 O13 1.944628 1_545
Cr4 O3 1.981758 1_556
Cr4 O1 1.982093 1_545
Cr5 O0 2.028219 1_555
Cr5 O3 2.029027 1_555
Cr5 O5 2.033596 1_555
Cr5 O6 2.033865 1_455
Cr5 O11 2.042964 1_555
Cr5 O12 2.043443 1_555
O4 Ti0 1.967112 1_456
O5 Ti1 1.962431 1_555
O6 Ti0 1.962534 1_545
O7 Ti1 1.967179 1_555
O8 Ti1 1.967762 1_555
O9 Ti0 1.984259 1_545
O10 Ti1 1.957220 1_555
O11 Ti0 1.998983 1_445
O12 Ti1 2.001799 1_555
O13 Ti0 1.959531 1_556
O14 Ti1 1.985706 1_555
O15 Ti0 1.969765 1_456
