# generated using pymatgen
data_V4O5F7
_symmetry_space_group_name_H-M   'P 1'
_cell_length_a   5.28490000
_cell_length_b   5.34791515
_cell_length_c   9.04865337
_cell_angle_alpha   105.65414800
_cell_angle_beta   90.33468438
_cell_angle_gamma   119.54846909
_symmetry_Int_Tables_number   1
_chemical_formula_structural   V4O5F7
_chemical_formula_sum   'V4 O5 F7'
_cell_volume   211.26311137
_cell_formula_units_Z   1
loop_
 _symmetry_equiv_pos_site_id
 _symmetry_equiv_pos_as_xyz
  1  'x, y, z'
loop_
 _atom_site_type_symbol
 _atom_site_label
 _atom_site_symmetry_multiplicity
 _atom_site_fract_x
 _atom_site_fract_y
 _atom_site_fract_z
 _atom_site_occupancy
  V  V0  1  0.47876400  0.73493200  0.73876600  1
  V  V1  1  0.02390000  0.53053800  0.48837900  1
  V  V2  1  0.47412800  0.26395400  0.25558500  1
  V  V3  1  0.96975500  0.01164800  0.98429800  1
  O  O0  1  0.17022500  0.36275200  0.88182900  1
  O  O1  1  0.68272900  0.84224700  0.91407500  1
  O  O2  1  0.25969400  0.40647400  0.33732100  1
  O  O3  1  0.18116200  0.86467700  0.37674900  1
  O  O4  1  0.32093900  0.65860100  0.59719300  1
  F  F0  1  0.67026700  0.32215600  0.41615700  1
  F  F1  1  0.24755000  0.91696000  0.84315500  1
  F  F2  1  0.83131600  0.12939500  0.62446700  1
  F  F3  1  0.74620300  0.57638100  0.67010600  1
  F  F4  1  0.34100700  0.16176700  0.08232600  1
  F  F5  1  0.84459000  0.63467300  0.12285900  1
  F  F6  1  0.75777100  0.08284700  0.16673500  1
loop_
_geom_bond_atom_site_label_1
_geom_bond_atom_site_label_2
_geom_bond_distance
_geom_bond_site_symmetry_2
O0 V3 2.120553 1_455
O0 V0 2.551534 1_555
O1 V3 1.359465 1_565
O1 V0 1.698893 1_555
O2 V2 1.723292 1_555
O2 V1 2.051196 1_555
O3 V1 2.103161 1_555
O3 V2 2.486187 1_565
O4 V0 1.368539 1_555
O4 V1 1.568591 1_555
F0 V1 1.643257 1_655
F0 V2 1.643952 1_555
F1 V0 2.005873 1_555
F1 V3 2.109282 1_465
F2 V0 2.512890 1_545
F2 V1 2.537952 1_655
F3 V0 2.002656 1_555
F3 V1 2.254656 1_655
F4 V2 1.548232 1_555
F4 V3 1.822812 1_454
F5 V3 2.476364 1_564
F5 V2 2.586526 1_555
F6 V3 2.056305 1_554
F6 V2 2.203949 1_555
