# generated using pymatgen
data_Cs(MoSe)3
_symmetry_space_group_name_H-M   'P 1'
_cell_length_a   9.75424783
_cell_length_b   9.75418213
_cell_length_c   4.49971743
_cell_angle_alpha   90.00000000
_cell_angle_beta   90.00000000
_cell_angle_gamma   120.00466833
_symmetry_Int_Tables_number   1
_chemical_formula_structural   Cs(MoSe)3
_chemical_formula_sum   'Cs2 Mo6 Se6'
_cell_volume   370.74908561
_cell_formula_units_Z   2
loop_
 _symmetry_equiv_pos_site_id
 _symmetry_equiv_pos_as_xyz
  1  'x, y, z'
loop_
 _atom_site_type_symbol
 _atom_site_label
 _atom_site_symmetry_multiplicity
 _atom_site_fract_x
 _atom_site_fract_y
 _atom_site_fract_z
 _atom_site_occupancy
  Cs  Cs0  1  0.33335129  0.66668141  0.25000000  1
  Cs  Cs1  1  0.66669317  0.33334080  0.75000000  1
  Mo  Mo0  1  0.14286008  0.16685654  0.25000000  1
  Mo  Mo1  1  0.85718912  0.83313620  0.75000000  1
  Mo  Mo2  1  0.83311379  0.97590792  0.25000000  1
  Mo  Mo3  1  0.02399722  0.85716171  0.25000000  1
  Mo  Mo4  1  0.97595689  0.14282074  0.75000000  1
  Mo  Mo5  1  0.16685014  0.02398856  0.75000000  1
  Se  Se0  1  0.95089050  0.28428289  0.25000000  1
  Se  Se1  1  0.04907606  0.71575816  0.75000000  1
  Se  Se2  1  0.71572148  0.66667533  0.25000000  1
  Se  Se3  1  0.33335891  0.04909850  0.25000000  1
  Se  Se4  1  0.66664407  0.95090211  0.75000000  1
  Se  Se5  1  0.28429729  0.33338814  0.75000000  1
loop_
_geom_bond_atom_site_label_1
_geom_bond_atom_site_label_2
_geom_bond_distance
_geom_bond_site_symmetry_2
Cs0 Se2 3.729763 1_555
Cs0 Se0 3.730038 1_455
Cs0 Se3 3.730129 1_565
Cs0 Se4 3.781886 1_555
Cs0 Se4 3.781886 1_554
Cs0 Se5 3.782071 1_555
Cs0 Se5 3.782071 1_554
Cs0 Se1 3.782529 1_554
Cs0 Se1 3.782529 1_555
Cs1 Se1 3.729750 1_655
Cs1 Se4 3.730137 1_545
Cs1 Se5 3.730215 1_555
Cs1 Se0 3.781833 1_555
Cs1 Se0 3.781833 1_556
Cs1 Se3 3.782149 1_555
Cs1 Se3 3.782149 1_556
Cs1 Se2 3.782467 1_556
Cs1 Se2 3.782467 1_555
Mo0 Se3 2.628084 1_555
Mo0 Se0 2.638815 1_455
Mo0 Se5 2.713388 1_555
Mo0 Se5 2.713388 1_554
Mo1 Se4 2.628562 1_555
Mo1 Se1 2.637696 1_655
Mo1 Se2 2.713213 1_556
Mo1 Se2 2.713213 1_555
Mo2 Se0 2.628963 1_565
Mo2 Se2 2.637222 1_555
Mo2 Se4 2.713287 1_554
Mo2 Se4 2.713287 1_555
Mo3 Se2 2.628010 1_455
Mo3 Se3 2.638304 1_565
Mo3 Se1 2.713220 1_555
Mo3 Se1 2.713220 1_554
Mo4 Se5 2.628615 1_655
Mo4 Se4 2.637903 1_545
Mo4 Se0 2.713494 1_556
Mo4 Se0 2.713494 1_555
Mo5 Se1 2.627661 1_545
Mo5 Se5 2.638658 1_555
Mo5 Se3 2.713285 1_555
Mo5 Se3 2.713285 1_556
