# generated using pymatgen
data_CaVO2
_symmetry_space_group_name_H-M   'P 1'
_cell_length_a   3.10299105
_cell_length_b   8.38568222
_cell_length_c   8.41312266
_cell_angle_alpha   90.56133073
_cell_angle_beta   79.36852734
_cell_angle_gamma   100.65433530
_symmetry_Int_Tables_number   1
_chemical_formula_structural   CaVO2
_chemical_formula_sum   'Ca4 V4 O8'
_cell_volume   211.38123809
_cell_formula_units_Z   4
loop_
 _symmetry_equiv_pos_site_id
 _symmetry_equiv_pos_as_xyz
  1  'x, y, z'
loop_
 _atom_site_type_symbol
 _atom_site_label
 _atom_site_symmetry_multiplicity
 _atom_site_fract_x
 _atom_site_fract_y
 _atom_site_fract_z
 _atom_site_occupancy
  Ca  Ca0  1  0.37228400  0.02899600  0.30344800  1
  Ca  Ca1  1  0.62280600  0.95106900  0.72497400  1
  Ca  Ca2  1  0.33218300  0.70337300  0.05773200  1
  Ca  Ca3  1  0.66199600  0.27682000  0.97057100  1
  V  V0  1  0.35337600  0.30830100  0.62338000  1
  V  V1  1  0.03338300  0.37626400  0.33081500  1
  V  V2  1  0.96404500  0.60368400  0.69728500  1
  V  V3  1  0.64389700  0.67142000  0.40473400  1
  O  O0  1  0.14290500  0.79261200  0.52848700  1
  O  O1  1  0.34055700  0.47135900  0.81177300  1
  O  O2  1  0.65684500  0.50855500  0.21611100  1
  O  O3  1  0.85457500  0.18701700  0.49969600  1
  O  O4  1  0.17769000  0.13962000  0.80345700  1
  O  O5  1  0.02830300  0.20239400  0.16362200  1
  O  O6  1  0.81748100  0.84038400  0.22499400  1
  O  O7  1  0.96594900  0.77746600  0.86454500  1
loop_
_geom_bond_atom_site_label_1
_geom_bond_atom_site_label_2
_geom_bond_distance
_geom_bond_site_symmetry_2
Ca0 O6 2.300644 1_445
Ca0 O6 2.301445 1_545
Ca0 O5 2.386913 1_655
Ca0 O5 2.389169 1_555
Ca0 O3 2.613080 1_455
Ca0 O3 2.618612 1_555
Ca0 O0 2.659888 1_545
Ca1 O4 2.300636 1_665
Ca1 O4 2.300910 1_565
Ca1 O7 2.387432 1_555
Ca1 O7 2.388655 1_455
Ca1 O0 2.617130 1_555
Ca1 O0 2.620753 1_655
Ca1 O3 2.658668 1_565
Ca2 O7 2.298153 1_454
Ca2 O7 2.298623 1_554
Ca2 O6 2.380879 1_455
Ca2 O6 2.382933 1_555
Ca2 O2 2.565587 1_455
Ca2 O2 2.570174 1_555
Ca2 O1 2.826291 1_554
Ca3 O5 2.298173 1_556
Ca3 O5 2.298420 1_656
Ca3 O4 2.380624 1_555
Ca3 O4 2.383261 1_655
Ca3 O1 2.564574 1_555
Ca3 O1 2.571808 1_655
Ca3 O2 2.822145 1_556
O0 V2 2.064672 1_455
O0 V3 2.121262 1_555
O0 V3 2.122888 1_455
O1 V0 2.082729 1_555
O1 V2 2.107021 1_455
O1 V2 2.107502 1_555
O2 V3 2.083128 1_555
O2 V1 2.107872 1_555
O2 V1 2.107926 1_655
O3 V1 2.067061 1_655
O3 V0 2.121998 1_555
O3 V0 2.122320 1_655
O4 V0 2.011313 1_555
O5 V1 2.015969 1_555
O6 V3 2.010867 1_555
O7 V2 2.015827 1_555
