# generated using pymatgen
data_Sm2MgSe4
_symmetry_space_group_name_H-M   'P 1'
_cell_length_a   7.62654800
_cell_length_b   8.84914278
_cell_length_c   13.92100609
_cell_angle_alpha   99.40205504
_cell_angle_beta   95.56820230
_cell_angle_gamma   89.95461216
_symmetry_Int_Tables_number   1
_chemical_formula_structural   Sm2MgSe4
_chemical_formula_sum   'Sm8 Mg4 Se16'
_cell_volume   922.40345505
_cell_formula_units_Z   4
loop_
 _symmetry_equiv_pos_site_id
 _symmetry_equiv_pos_as_xyz
  1  'x, y, z'
loop_
 _atom_site_type_symbol
 _atom_site_label
 _atom_site_symmetry_multiplicity
 _atom_site_fract_x
 _atom_site_fract_y
 _atom_site_fract_z
 _atom_site_occupancy
  Sm  Sm0  1  0.86476300  0.30043400  0.69697200  1
  Sm  Sm1  1  0.13523700  0.69956600  0.30302800  1
  Sm  Sm2  1  0.75875100  0.12795600  0.00080200  1
  Sm  Sm3  1  0.24124900  0.87204400  0.99919800  1
  Sm  Sm4  1  0.63151300  0.44373100  0.30141000  1
  Sm  Sm5  1  0.36848700  0.55626900  0.69859000  1
  Sm  Sm6  1  0.63307200  0.95731400  0.30525000  1
  Sm  Sm7  1  0.36692800  0.04268600  0.69475000  1
  Mg  Mg0  1  0.86646700  0.80020500  0.70251800  1
  Mg  Mg1  1  0.13353300  0.19979500  0.29748200  1
  Mg  Mg2  1  0.75090300  0.62198600  0.99560500  1
  Mg  Mg3  1  0.24909700  0.37801400  0.00439500  1
  Se  Se0  1  0.90976700  0.35851500  0.89909500  1
  Se  Se1  1  0.09023300  0.64148500  0.10090500  1
  Se  Se2  1  0.88948600  0.84135100  0.89080100  1
  Se  Se3  1  0.11051400  0.15864900  0.10919900  1
  Se  Se4  1  0.83528200  0.21957800  0.37464300  1
  Se  Se5  1  0.16471800  0.78042200  0.62535700  1
  Se  Se6  1  0.80924200  0.71905300  0.37928000  1
  Se  Se7  1  0.19075800  0.28094700  0.62072000  1
  Se  Se8  1  0.69864800  0.01705400  0.62656100  1
  Se  Se9  1  0.30135200  0.98294600  0.37343900  1
  Se  Se10  1  0.69643100  0.54594200  0.62626800  1
  Se  Se11  1  0.30356900  0.45405800  0.37373200  1
  Se  Se12  1  0.60872500  0.89215900  0.10279900  1
  Se  Se13  1  0.39127500  0.10784100  0.89720100  1
  Se  Se14  1  0.59264200  0.40983000  0.09977400  1
  Se  Se15  1  0.40735800  0.59017000  0.90022600  1
loop_
_geom_bond_atom_site_label_1
_geom_bond_atom_site_label_2
_geom_bond_distance
_geom_bond_site_symmetry_2
Mg0 Se2 2.575363 1_555
Mg0 Se5 2.602012 1_655
Mg0 Se10 2.613065 1_555
Mg0 Se8 2.614362 1_565
Mg1 Se3 2.575363 1_555
Mg1 Se4 2.602012 1_455
Mg1 Se11 2.613065 1_555
Mg1 Se9 2.614362 1_545
Mg2 Se15 2.812631 1_555
Mg2 Se0 2.827864 1_555
Mg2 Se1 2.838622 1_656
Mg2 Se2 2.870840 1_555
Mg2 Se12 2.874501 1_556
Mg2 Se14 2.883936 1_556
Mg3 Se14 2.812631 1_555
Mg3 Se1 2.827864 1_555
Mg3 Se0 2.838622 1_454
Mg3 Se3 2.870840 1_555
Mg3 Se13 2.874501 1_554
Mg3 Se15 2.883936 1_554
Se0 Sm0 2.763974 1_555
Se0 Sm2 2.959351 1_556
Se1 Sm1 2.763974 1_555
Se1 Sm3 2.959351 1_554
Se2 Sm3 2.937611 1_655
Se2 Sm2 2.965604 1_566
Se3 Sm2 2.937611 1_455
Se3 Sm3 2.965604 1_544
Se4 Sm6 2.771588 1_545
Se4 Sm4 2.781599 1_555
Se5 Sm7 2.771588 1_565
Se5 Sm5 2.781599 1_555
Se6 Sm6 2.783767 1_555
Se6 Sm1 2.790962 1_655
Se6 Sm4 2.793821 1_555
Se7 Sm7 2.783767 1_555
Se7 Sm0 2.790962 1_455
Se7 Sm5 2.793821 1_555
Se8 Sm7 2.783453 1_555
Se8 Sm0 2.795558 1_555
Se9 Sm6 2.783453 1_555
Se9 Sm1 2.795558 1_555
Se10 Sm5 2.781300 1_555
Se10 Sm0 2.790312 1_555
Se11 Sm4 2.781300 1_555
Se11 Sm1 2.790312 1_555
Se12 Sm6 2.770839 1_555
Se12 Sm2 2.994367 1_565
Se12 Sm3 3.016398 1_554
Se13 Sm7 2.770839 1_555
Se13 Sm3 2.994367 1_545
Se13 Sm2 3.016398 1_556
Se14 Sm4 2.760530 1_555
Se14 Sm2 2.989282 1_555
Se15 Sm5 2.760530 1_555
Se15 Sm3 2.989282 1_555
