# generated using pymatgen
data_Gd2Mn3Sb3O14
_symmetry_space_group_name_H-M   'P 1'
_cell_length_a   7.19816932
_cell_length_b   7.19816932
_cell_length_c   7.16191606
_cell_angle_alpha   61.23146641
_cell_angle_beta   61.23146641
_cell_angle_gamma   61.92473647
_symmetry_Int_Tables_number   1
_chemical_formula_structural   Gd2Mn3Sb3O14
_chemical_formula_sum   'Gd2 Mn3 Sb3 O14'
_cell_volume   270.98815479
_cell_formula_units_Z   1
loop_
 _symmetry_equiv_pos_site_id
 _symmetry_equiv_pos_as_xyz
  1  'x, y, z'
loop_
 _atom_site_type_symbol
 _atom_site_label
 _atom_site_symmetry_multiplicity
 _atom_site_fract_x
 _atom_site_fract_y
 _atom_site_fract_z
 _atom_site_occupancy
  Gd  Gd0  1  0.00000000  0.50000000  0.50000000  1
  Gd  Gd1  1  0.50000000  0.00000000  0.50000000  1
  Mn  Mn0  1  0.00000000  0.00000000  0.50000000  1
  Mn  Mn1  1  0.00000000  0.00000000  0.00000000  1
  Mn  Mn2  1  0.50000000  0.50000000  0.00000000  1
  Sb  Sb0  1  0.50000000  0.00000000  0.00000000  1
  Sb  Sb1  1  0.00000000  0.50000000  0.00000000  1
  Sb  Sb2  1  0.50000000  0.50000000  0.50000000  1
  O  O0  1  0.11234300  0.11234300  0.63579500  1
  O  O1  1  0.88765700  0.88765700  0.36420500  1
  O  O2  1  0.82916800  0.82916800  0.92284600  1
  O  O3  1  0.41596300  0.41596300  0.33510400  1
  O  O4  1  0.42712400  0.82585000  0.91520200  1
  O  O5  1  0.82688600  0.42254100  0.33035200  1
  O  O6  1  0.82585000  0.42712400  0.91520200  1
  O  O7  1  0.42254100  0.82688600  0.33035200  1
  O  O8  1  0.17083200  0.17083200  0.07715400  1
  O  O9  1  0.58403700  0.58403700  0.66489600  1
  O  O10  1  0.57287600  0.17415000  0.08479800  1
  O  O11  1  0.17311400  0.57745900  0.66964800  1
  O  O12  1  0.17415000  0.57287600  0.08479800  1
  O  O13  1  0.57745900  0.17311400  0.66964800  1
loop_
_geom_bond_atom_site_label_1
_geom_bond_atom_site_label_2
_geom_bond_distance
_geom_bond_site_symmetry_2
Gd0 O1 2.325317 1_455
Gd0 O0 2.325317 1_555
Gd0 O5 2.470474 1_455
Gd0 O11 2.470474 1_555
Gd0 O6 2.493714 1_455
Gd0 O12 2.493714 1_555
Gd0 O3 2.510954 1_555
Gd0 O9 2.510954 1_455
Gd1 O1 2.325317 1_545
Gd1 O0 2.325317 1_555
Gd1 O13 2.470474 1_555
Gd1 O7 2.470474 1_545
Gd1 O4 2.493714 1_545
Gd1 O10 2.493714 1_555
Gd1 O3 2.510954 1_555
Gd1 O9 2.510954 1_545
Mn0 O0 2.093629 1_555
Mn0 O1 2.093629 1_445
Mn0 O2 2.539629 1_445
Mn0 O8 2.539629 1_555
Mn0 O5 2.571517 1_455
Mn0 O11 2.571517 1_545
Mn0 O7 2.571517 1_545
Mn0 O13 2.571517 1_455
Mn1 O1 2.160219 1_445
Mn1 O0 2.160219 1_554
Mn1 O8 2.461890 1_555
Mn1 O2 2.461890 1_444
Mn1 O6 2.588569 1_454
Mn1 O4 2.588569 1_544
Mn1 O12 2.588569 1_545
Mn1 O10 2.588569 1_455
Mn2 O6 1.980629 1_554
Mn2 O4 1.980629 1_554
Mn2 O12 1.980629 1_555
Mn2 O10 1.980629 1_555
Mn2 O3 2.010321 1_555
Mn2 O9 2.010321 1_554
O2 Sb0 2.020612 1_566
O2 Sb1 2.020612 1_656
O3 Sb2 1.961176 1_555
O4 Sb0 1.968204 1_566
O5 Sb2 1.997254 1_555
O5 Sb1 2.001950 1_655
O6 Sb1 1.968204 1_656
O7 Sb2 1.997254 1_555
O7 Sb0 2.001950 1_565
O8 Sb1 2.020612 1_555
O8 Sb0 2.020612 1_555
O9 Sb2 1.961176 1_555
O10 Sb0 1.968204 1_555
O11 Sb2 1.997254 1_555
O11 Sb1 2.001950 1_556
O12 Sb1 1.968204 1_555
O13 Sb2 1.997254 1_555
O13 Sb0 2.001950 1_556
