# generated using pymatgen
data_LiFe(SiO3)2
_symmetry_space_group_name_H-M   'P 1'
_cell_length_a   7.78244262
_cell_length_b   7.78234160
_cell_length_c   9.58966702
_cell_angle_alpha   89.99592820
_cell_angle_beta   89.99330230
_cell_angle_gamma   89.68934274
_symmetry_Int_Tables_number   1
_chemical_formula_structural   LiFe(SiO3)2
_chemical_formula_sum   'Li4 Fe4 Si8 O24'
_cell_volume   580.79565245
_cell_formula_units_Z   4
loop_
 _symmetry_equiv_pos_site_id
 _symmetry_equiv_pos_as_xyz
  1  'x, y, z'
loop_
 _atom_site_type_symbol
 _atom_site_label
 _atom_site_symmetry_multiplicity
 _atom_site_fract_x
 _atom_site_fract_y
 _atom_site_fract_z
 _atom_site_occupancy
  Li  Li0  1  0.17201800  0.17207400  0.49999300  1
  Li  Li1  1  0.40072500  0.59929500  0.25000300  1
  Li  Li2  1  0.59925100  0.40080400  0.74999100  1
  Li  Li3  1  0.82793300  0.82798400  0.99998800  1
  Fe  Fe0  1  0.13183500  0.31352000  0.76378300  1
  Fe  Fe1  1  0.31361700  0.13174100  0.23627300  1
  Fe  Fe2  1  0.68645300  0.86812200  0.73619700  1
  Fe  Fe3  1  0.86818300  0.68647400  0.26378800  1
  Si  Si0  1  0.10961300  0.89039200  0.75000700  1
  Si  Si1  1  0.16684500  0.59890200  0.51234600  1
  Si  Si2  1  0.40109200  0.83312200  0.98767100  1
  Si  Si3  1  0.42925200  0.42920500  0.99999900  1
  Si  Si4  1  0.57073200  0.57074000  0.50000300  1
  Si  Si5  1  0.59887500  0.16684400  0.48765500  1
  Si  Si6  1  0.83316200  0.40118700  0.01233700  1
  Si  Si7  1  0.89040500  0.10963200  0.24998100  1
  O  O0  1  0.94404500  0.36527400  0.87324500  1
  O  O1  1  0.13724700  0.08522100  0.69114700  1
  O  O2  1  0.13084500  0.41201400  0.58233500  1
  O  O3  1  0.14817500  0.75517300  0.62365700  1
  O  O4  1  0.24482000  0.85189400  0.87638200  1
  O  O5  1  0.08520700  0.13728900  0.30884200  1
  O  O6  1  0.36787600  0.59867300  0.45353100  1
  O  O7  1  0.33727600  0.37747300  0.85478700  1
  O  O8  1  0.37754800  0.33718700  0.14521000  1
  O  O9  1  0.36525200  0.94395000  0.12680000  1
  O  O10  1  0.40128700  0.63208000  0.04646600  1
  O  O11  1  0.58797400  0.86910700  0.91765600  1
  O  O12  1  0.41200200  0.13080600  0.41772700  1
  O  O13  1  0.59864000  0.36786100  0.54646800  1
  O  O14  1  0.63476500  0.05594700  0.62674600  1
  O  O15  1  0.62248000  0.66270500  0.64521300  1
  O  O16  1  0.66274100  0.62248800  0.35479300  1
  O  O17  1  0.63216100  0.40138100  0.95350000  1
  O  O18  1  0.91475300  0.86269300  0.80879900  1
  O  O19  1  0.75517200  0.14811200  0.37635200  1
  O  O20  1  0.85189100  0.24490200  0.12363400  1
  O  O21  1  0.86917200  0.58805200  0.08231600  1
  O  O22  1  0.86269400  0.91481800  0.19112500  1
  O  O23  1  0.05598800  0.63486100  0.37325500  1
loop_
_geom_bond_atom_site_label_1
_geom_bond_atom_site_label_2
_geom_bond_distance
_geom_bond_site_symmetry_2
Li0 O1 1.972829 1_555
Li0 O5 1.972873 1_555
Li0 O2 2.051011 1_555
Li0 O12 2.051063 1_555
Li1 O6 1.968416 1_555
Li1 O10 1.968447 1_555
Li1 O16 2.281432 1_555
Li1 O8 2.282013 1_555
Li2 O17 1.968356 1_555
Li2 O13 1.968512 1_555
Li2 O15 2.280397 1_555
Li2 O7 2.281041 1_555
Li3 O22 1.972763 1_556
Li3 O18 1.972971 1_555
Li3 O21 2.050907 1_556
Li3 O11 2.051110 1_555
Fe0 O0 1.842091 1_455
Fe0 O7 1.890660 1_555
Fe0 O2 1.901327 1_555
Fe0 O1 1.908661 1_555
Fe1 O9 1.842058 1_545
Fe1 O8 1.890710 1_555
Fe1 O12 1.901171 1_555
Fe1 O5 1.909151 1_555
Fe2 O14 1.842171 1_565
Fe2 O15 1.890416 1_555
Fe2 O11 1.901348 1_555
Fe2 O18 1.908603 1_555
Fe3 O23 1.842138 1_655
Fe3 O16 1.890534 1_555
Fe3 O21 1.901409 1_555
Fe3 O22 1.909003 1_555
O0 Si6 1.612170 1_556
O1 Si0 1.633150 1_545
O2 Si1 1.627439 1_555
O3 Si1 1.624128 1_555
O3 Si0 1.631631 1_555
O4 Si2 1.624116 1_555
O4 Si0 1.631713 1_555
O5 Si7 1.633113 1_455
O6 Si4 1.653672 1_555
O6 Si1 1.663003 1_555
O7 Si3 1.617727 1_555
O8 Si3 1.617625 1_554
O9 Si2 1.612224 1_554
O10 Si3 1.653790 1_554
O10 Si2 1.663025 1_554
O11 Si2 1.627473 1_555
O12 Si5 1.627296 1_555
O13 Si4 1.653712 1_555
O13 Si5 1.662975 1_555
O14 Si5 1.612228 1_555
O15 Si4 1.617689 1_555
O16 Si4 1.617663 1_555
O17 Si3 1.653937 1_555
O17 Si6 1.662980 1_556
O18 Si0 1.633215 1_655
O19 Si5 1.624150 1_555
O19 Si7 1.631639 1_555
O20 Si6 1.624070 1_555
O20 Si7 1.631739 1_555
O21 Si6 1.627365 1_555
O22 Si7 1.633202 1_565
O23 Si1 1.612249 1_555
