# generated using pymatgen
data_Cd3SbN
_symmetry_space_group_name_H-M   'P 1'
_cell_length_a   6.73184600
_cell_length_b   6.63441700
_cell_length_c   9.39714600
_cell_angle_alpha   90.00000000
_cell_angle_beta   90.00000000
_cell_angle_gamma   90.00000000
_symmetry_Int_Tables_number   1
_chemical_formula_structural   Cd3SbN
_chemical_formula_sum   'Cd12 Sb4 N4'
_cell_volume   419.69414632
_cell_formula_units_Z   4
loop_
 _symmetry_equiv_pos_site_id
 _symmetry_equiv_pos_as_xyz
  1  'x, y, z'
loop_
 _atom_site_type_symbol
 _atom_site_label
 _atom_site_symmetry_multiplicity
 _atom_site_fract_x
 _atom_site_fract_y
 _atom_site_fract_z
 _atom_site_occupancy
  Cd  Cd0  1  0.77197500  0.77030300  0.04216300  1
  Cd  Cd1  1  0.72802500  0.27030300  0.45783700  1
  Cd  Cd2  1  0.22802500  0.22969700  0.54216300  1
  Cd  Cd3  1  0.27197500  0.72969700  0.95783700  1
  Cd  Cd4  1  0.22802500  0.22969700  0.95783700  1
  Cd  Cd5  1  0.27197500  0.72969700  0.54216300  1
  Cd  Cd6  1  0.77197500  0.77030300  0.45783700  1
  Cd  Cd7  1  0.72802500  0.27030300  0.04216300  1
  Cd  Cd8  1  0.42399700  0.98748000  0.25000000  1
  Cd  Cd9  1  0.07600300  0.48748000  0.25000000  1
  Cd  Cd10  1  0.57600300  0.01252000  0.75000000  1
  Cd  Cd11  1  0.92399700  0.51252000  0.75000000  1
  Sb  Sb0  1  0.50742100  0.52407400  0.25000000  1
  Sb  Sb1  1  0.99257900  0.02407400  0.25000000  1
  Sb  Sb2  1  0.49257900  0.47592600  0.75000000  1
  Sb  Sb3  1  0.00742100  0.97592600  0.75000000  1
  N  N0  1  0.00000000  0.50000000  0.00000000  1
  N  N1  1  0.50000000  0.00000000  0.50000000  1
  N  N2  1  0.00000000  0.50000000  0.50000000  1
  N  N3  1  0.50000000  0.00000000  0.00000000  1
loop_
_geom_bond_atom_site_label_1
_geom_bond_atom_site_label_2
_geom_bond_distance
_geom_bond_site_symmetry_2
Cd0 N0 2.393582 1_655
Cd0 N3 2.414838 1_565
Cd0 Sb1 2.975655 1_565
Cd0 Sb0 3.107224 1_555
Cd1 N1 2.393582 1_555
Cd1 N2 2.414838 1_655
Cd1 Sb0 2.975655 1_555
Cd1 Sb1 3.107224 1_555
Cd2 N2 2.393582 1_555
Cd2 N1 2.414838 1_555
Cd2 Sb3 2.975655 1_545
Cd2 Sb2 3.107224 1_555
Cd3 N3 2.393582 1_566
Cd3 N0 2.414838 1_556
Cd3 Sb2 2.975655 1_555
Cd3 Sb3 3.107224 1_555
Cd4 N0 2.393582 1_556
Cd4 N3 2.414838 1_556
Cd4 Sb3 2.975655 1_545
Cd4 Sb2 3.107224 1_555
Cd5 N1 2.393582 1_565
Cd5 N2 2.414838 1_555
Cd5 Sb2 2.975655 1_555
Cd5 Sb3 3.107224 1_555
Cd6 N2 2.393582 1_655
Cd6 N1 2.414838 1_565
Cd6 Sb1 2.975655 1_565
Cd6 Sb0 3.107224 1_555
Cd7 N3 2.393582 1_555
Cd7 N0 2.414838 1_655
Cd7 Sb0 2.975655 1_555
Cd7 Sb1 3.107224 1_555
Cd8 N3 2.405789 1_565
Cd8 N1 2.405789 1_565
Cd8 Sb1 2.914369 1_465
Cd8 Sb0 3.125301 1_555
Cd9 N2 2.405789 1_555
Cd9 N0 2.405789 1_555
Cd9 Sb0 2.914369 1_555
Cd9 Sb1 3.125301 1_455
Cd10 N3 2.405789 1_556
Cd10 N1 2.405789 1_555
Cd10 Sb3 2.914369 1_645
Cd10 Sb2 3.125301 1_555
Cd11 N2 2.405789 1_655
Cd11 N0 2.405789 1_656
Cd11 Sb2 2.914369 1_555
Cd11 Sb3 3.125301 1_655
