# generated using pymatgen
data_BaLa3Mn4O12
_symmetry_space_group_name_H-M   'P 1'
_cell_length_a   5.58864709
_cell_length_b   7.91277228
_cell_length_c   5.64064687
_cell_angle_alpha   89.99185993
_cell_angle_beta   90.15699838
_cell_angle_gamma   90.67083776
_symmetry_Int_Tables_number   1
_chemical_formula_structural   BaLa3Mn4O12
_chemical_formula_sum   'Ba1 La3 Mn4 O12'
_cell_volume   249.42091247
_cell_formula_units_Z   1
loop_
 _symmetry_equiv_pos_site_id
 _symmetry_equiv_pos_as_xyz
  1  'x, y, z'
loop_
 _atom_site_type_symbol
 _atom_site_label
 _atom_site_symmetry_multiplicity
 _atom_site_fract_x
 _atom_site_fract_y
 _atom_site_fract_z
 _atom_site_occupancy
  Ba  Ba0  1  0.49990700  0.25005700  0.00321500  1
  La  La0  1  0.99992400  0.75007900  0.49422400  1
  La  La1  1  0.50003600  0.75002600  0.99980900  1
  La  La2  1  0.99973800  0.25002000  0.50010600  1
  Mn  Mn0  1  0.00018900  0.50193800  0.99988400  1
  Mn  Mn1  1  0.50020900  0.99807700  0.49993200  1
  Mn  Mn2  1  0.99968300  0.99814800  0.00001400  1
  Mn  Mn3  1  0.49987300  0.50181500  0.50017100  1
  O  O0  1  0.22554700  0.53264600  0.72499700  1
  O  O1  1  0.73603400  0.01072100  0.23655600  1
  O  O2  1  0.26385800  0.48925700  0.23596200  1
  O  O3  1  0.77491500  0.96730600  0.72548900  1
  O  O4  1  0.99986200  0.75010300  0.05612600  1
  O  O5  1  0.50008700  0.24994100  0.53111400  1
  O  O6  1  0.72764100  0.54122000  0.77273800  1
  O  O7  1  0.21344000  0.02078700  0.28727800  1
  O  O8  1  0.99995800  0.24989800  0.93380100  1
  O  O9  1  0.50023500  0.75003800  0.43845200  1
  O  O10  1  0.78621300  0.47930500  0.28789200  1
  O  O11  1  0.27265100  0.95861900  0.77224100  1
loop_
_geom_bond_atom_site_label_1
_geom_bond_atom_site_label_2
_geom_bond_distance
_geom_bond_site_symmetry_2
Ba0 O5 2.662958 1_554
Ba0 O1 2.666197 1_555
Ba0 O2 2.667385 1_555
Ba0 O8 2.820262 1_454
Ba0 O8 2.822981 1_554
Ba0 O10 2.889292 1_555
Ba0 O7 2.892550 1_555
Ba0 O11 2.924321 1_544
Ba0 O6 2.925316 1_554
Ba0 O5 2.977689 1_555
Ba0 O0 3.143228 1_554
Ba0 O3 3.149070 1_544
La0 O4 2.471155 1_555
La0 O0 2.507123 1_655
La0 O3 2.509526 1_555
La0 O10 2.702741 1_555
La0 O7 2.705909 1_665
La0 O11 2.726539 1_655
La0 O6 2.732824 1_555
La0 O9 2.809389 1_555
La0 O9 2.814564 1_655
La0 O1 2.932496 1_565
La0 O2 2.939588 1_655
La0 O4 3.169492 1_556
La1 O11 2.454885 1_555
La1 O6 2.459092 1_555
La1 O9 2.474227 1_556
La1 O0 2.764181 1_555
La1 O3 2.767771 1_555
La1 O1 2.775875 1_566
La1 O2 2.778358 1_556
La1 O4 2.810484 1_556
La1 O4 2.814160 1_456
La2 O8 2.446317 1_555
La2 O10 2.488118 1_555
La2 O7 2.493363 1_655
La2 O5 2.798317 1_555
La2 O5 2.801268 1_655
La2 O1 2.809048 1_555
La2 O2 2.815688 1_655
La2 O0 2.851134 1_655
La2 O3 2.853319 1_545
Mn0 O2 1.986792 1_556
Mn0 O4 1.989201 1_456
Mn0 O0 2.013170 1_555
Mn0 O6 2.014586 1_455
Mn0 O10 2.026528 1_456
Mn0 O8 2.028908 1_455
Mn1 O1 1.990383 1_565
Mn1 O9 1.993128 1_555
Mn1 O5 2.000722 1_565
Mn1 O3 2.008210 1_555
Mn1 O7 2.008916 1_565
Mn1 O11 2.018755 1_555
Mn2 O4 1.988047 1_555
Mn2 O1 1.993839 1_565
Mn2 O3 2.004392 1_554
Mn2 O7 2.017226 1_665
Mn2 O11 2.024292 1_654
Mn2 O8 2.026681 1_564
Mn3 O2 1.989188 1_555
Mn3 O9 1.994676 1_555
Mn3 O5 2.000639 1_555
Mn3 O0 2.009400 1_555
Mn3 O10 2.010850 1_555
Mn3 O6 2.015296 1_555
