# generated using pymatgen
data_SiPbN2
_symmetry_space_group_name_H-M   'P 1'
_cell_length_a   5.20396800
_cell_length_b   11.19631800
_cell_length_c   15.32425400
_cell_angle_alpha   90.00000000
_cell_angle_beta   90.00000000
_cell_angle_gamma   90.00000000
_symmetry_Int_Tables_number   1
_chemical_formula_structural   SiPbN2
_chemical_formula_sum   'Si16 Pb16 N32'
_cell_volume   892.87195914
_cell_formula_units_Z   16
loop_
 _symmetry_equiv_pos_site_id
 _symmetry_equiv_pos_as_xyz
  1  'x, y, z'
loop_
 _atom_site_type_symbol
 _atom_site_label
 _atom_site_symmetry_multiplicity
 _atom_site_fract_x
 _atom_site_fract_y
 _atom_site_fract_z
 _atom_site_occupancy
  Si  Si0  1  0.72227400  0.99230100  0.18745100  1
  Si  Si1  1  0.22227400  0.50769900  0.81254900  1
  Si  Si2  1  0.27772600  0.49230100  0.31254900  1
  Si  Si3  1  0.77772600  0.00769900  0.68745100  1
  Si  Si4  1  0.27772600  0.00769900  0.81254900  1
  Si  Si5  1  0.77772600  0.49230100  0.18745100  1
  Si  Si6  1  0.72227400  0.50769900  0.68745100  1
  Si  Si7  1  0.22227400  0.99230100  0.31254900  1
  Si  Si8  1  0.81085000  0.25147900  0.06170700  1
  Si  Si9  1  0.31085000  0.24852100  0.93829300  1
  Si  Si10  1  0.18915000  0.75147900  0.43829300  1
  Si  Si11  1  0.68915000  0.74852100  0.56170700  1
  Si  Si12  1  0.18915000  0.74852100  0.93829300  1
  Si  Si13  1  0.68915000  0.75147900  0.06170700  1
  Si  Si14  1  0.81085000  0.24852100  0.56170700  1
  Si  Si15  1  0.31085000  0.25147900  0.43829300  1
  Pb  Pb0  1  0.72691400  0.97278200  0.43261600  1
  Pb  Pb1  1  0.22691400  0.52721800  0.56738400  1
  Pb  Pb2  1  0.27308600  0.47278200  0.06738400  1
  Pb  Pb3  1  0.77308600  0.02721800  0.93261600  1
  Pb  Pb4  1  0.27308600  0.02721800  0.56738400  1
  Pb  Pb5  1  0.77308600  0.47278200  0.43261600  1
  Pb  Pb6  1  0.72691400  0.52721800  0.93261600  1
  Pb  Pb7  1  0.22691400  0.97278200  0.06738400  1
  Pb  Pb8  1  0.86272600  0.22683600  0.31617900  1
  Pb  Pb9  1  0.36272600  0.27316400  0.68382100  1
  Pb  Pb10  1  0.13727400  0.72683600  0.18382100  1
  Pb  Pb11  1  0.63727400  0.77316400  0.81617900  1
  Pb  Pb12  1  0.13727400  0.77316400  0.68382100  1
  Pb  Pb13  1  0.63727400  0.72683600  0.31617900  1
  Pb  Pb14  1  0.86272600  0.27316400  0.81617900  1
  Pb  Pb15  1  0.36272600  0.22683600  0.18382100  1
  N  N0  1  0.60342400  0.48470000  0.28511700  1
  N  N1  1  0.10342400  0.01530000  0.71488300  1
  N  N2  1  0.39657600  0.98470000  0.21488300  1
  N  N3  1  0.89657600  0.51530000  0.78511700  1
  N  N4  1  0.39657600  0.51530000  0.71488300  1
  N  N5  1  0.89657600  0.98470000  0.28511700  1
  N  N6  1  0.60342400  0.01530000  0.78511700  1
  N  N7  1  0.10342400  0.48470000  0.21488300  1
  N  N8  1  0.64115900  0.26708300  0.46164900  1
  N  N9  1  0.14115900  0.23291700  0.53835100  1
  N  N10  1  0.35884100  0.76708300  0.03835100  1
  N  N11  1  0.85884100  0.73291700  0.96164900  1
  N  N12  1  0.35884100  0.73291700  0.53835100  1
  N  N13  1  0.85884100  0.76708300  0.46164900  1
  N  N14  1  0.64115900  0.23291700  0.96164900  1
  N  N15  1  0.14115900  0.26708300  0.03835100  1
  N  N16  1  0.68191300  0.37676100  0.11665000  1
  N  N17  1  0.18191300  0.12323900  0.88335000  1
  N  N18  1  0.31808700  0.87676100  0.38335000  1
  N  N19  1  0.81808700  0.62323900  0.61665000  1
  N  N20  1  0.31808700  0.62323900  0.88335000  1
  N  N21  1  0.81808700  0.87676100  0.11665000  1
  N  N22  1  0.68191300  0.12323900  0.61665000  1
  N  N23  1  0.18191300  0.37676100  0.38335000  1
  N  N24  1  0.75487500  0.12906900  0.13054200  1
  N  N25  1  0.25487500  0.37093100  0.86945800  1
  N  N26  1  0.24512500  0.62906900  0.36945800  1
  N  N27  1  0.74512500  0.87093100  0.63054200  1
  N  N28  1  0.24512500  0.87093100  0.86945800  1
  N  N29  1  0.74512500  0.62906900  0.13054200  1
  N  N30  1  0.75487500  0.37093100  0.63054200  1
  N  N31  1  0.25487500  0.12906900  0.36945800  1
loop_
_geom_bond_atom_site_label_1
_geom_bond_atom_site_label_2
_geom_bond_distance
_geom_bond_site_symmetry_2
N0 Si2 1.748347 1_555
N0 Si5 1.752139 1_555
N0 Pb5 2.430300 1_555
N0 Pb13 2.758134 1_555
N1 Si3 1.748347 1_455
N1 Si4 1.752139 1_555
N1 Pb4 2.430300 1_555
N1 Pb12 2.758134 1_545
N2 Si0 1.748347 1_555
N2 Si7 1.752139 1_555
N2 Pb7 2.430300 1_555
N2 Pb15 2.758134 1_565
N3 Si1 1.748347 1_655
N3 Si6 1.752139 1_555
N3 Pb6 2.430300 1_555
N3 Pb14 2.758134 1_555
N4 Si6 1.748347 1_555
N4 Si1 1.752139 1_555
N4 Pb1 2.430300 1_555
N4 Pb9 2.758134 1_555
N5 Si7 1.748347 1_655
N5 Si0 1.752139 1_555
N5 Pb0 2.430300 1_555
N5 Pb8 2.758134 1_565
N6 Si4 1.748347 1_555
N6 Si3 1.752139 1_555
N6 Pb3 2.430300 1_555
N6 Pb11 2.758134 1_545
N7 Si5 1.748347 1_455
N7 Si2 1.752139 1_555
N7 Pb2 2.430300 1_555
N7 Pb10 2.758134 1_555
N8 Si15 1.764455 1_555
N8 Si14 1.781587 1_555
N8 Pb5 2.444059 1_555
N8 Pb8 2.549892 1_555
N9 Si14 1.764455 1_455
N9 Si15 1.781587 1_555
N9 Pb4 2.444059 1_555
N9 Pb9 2.549892 1_555
N10 Si13 1.764455 1_555
N10 Si12 1.781587 1_554
N10 Pb7 2.444059 1_555
N10 Pb10 2.549892 1_555
N11 Si12 1.764455 1_655
N11 Si13 1.781587 1_556
N11 Pb6 2.444059 1_555
N11 Pb11 2.549892 1_555
N12 Si11 1.764455 1_555
N12 Si10 1.781587 1_555
N12 Pb1 2.444059 1_555
N12 Pb12 2.549892 1_555
N13 Si10 1.764455 1_655
N13 Si11 1.781587 1_555
N13 Pb0 2.444059 1_555
N13 Pb13 2.549892 1_555
N14 Si9 1.764455 1_555
N14 Si8 1.781587 1_556
N14 Pb3 2.444059 1_555
N14 Pb14 2.549892 1_555
N15 Si8 1.764455 1_455
N15 Si9 1.781587 1_554
N15 Pb2 2.444059 1_555
N15 Pb15 2.549892 1_555
N16 Si5 1.760464 1_555
N16 Si8 1.768241 1_555
N16 Pb2 2.500425 1_555
N16 Pb15 2.576107 1_555
N17 Si4 1.760464 1_555
N17 Si9 1.768241 1_555
N17 Pb3 2.500425 1_455
N17 Pb14 2.576107 1_455
N18 Si7 1.760464 1_555
N18 Si10 1.768241 1_555
N18 Pb0 2.500425 1_555
N18 Pb13 2.576107 1_555
N19 Si6 1.760464 1_555
N19 Si11 1.768241 1_555
N19 Pb1 2.500425 1_655
N19 Pb12 2.576107 1_655
N20 Si1 1.760464 1_555
N20 Si12 1.768241 1_555
N20 Pb6 2.500425 1_555
N20 Pb11 2.576107 1_555
N21 Si0 1.760464 1_555
N21 Si13 1.768241 1_555
N21 Pb7 2.500425 1_655
N21 Pb10 2.576107 1_655
N22 Si3 1.760464 1_555
N22 Si14 1.768241 1_555
N22 Pb4 2.500425 1_555
N22 Pb9 2.576107 1_555
N23 Si2 1.760464 1_555
N23 Si15 1.768241 1_555
N23 Pb5 2.500425 1_455
N23 Pb8 2.576107 1_455
N24 Si8 1.753834 1_555
N24 Si0 1.770365 1_545
N24 Pb15 2.455485 1_555
N25 Si9 1.753834 1_555
N25 Si1 1.770365 1_555
N25 Pb14 2.455485 1_455
N26 Si10 1.753834 1_555
N26 Si2 1.770365 1_555
N26 Pb13 2.455485 1_555
N27 Si11 1.753834 1_555
N27 Si3 1.770365 1_565
N27 Pb12 2.455485 1_655
N28 Si12 1.753834 1_555
N28 Si4 1.770365 1_565
N28 Pb11 2.455485 1_555
N29 Si13 1.753834 1_555
N29 Si5 1.770365 1_555
N29 Pb10 2.455485 1_655
N30 Si14 1.753834 1_555
N30 Si6 1.770365 1_555
N30 Pb9 2.455485 1_555
N31 Si15 1.753834 1_555
N31 Si7 1.770365 1_545
N31 Pb8 2.455485 1_455
