# generated using pymatgen
data_K(WO3)3
_symmetry_space_group_name_H-M   'P 1'
_cell_length_a   7.53460399
_cell_length_b   7.53460399
_cell_length_c   7.78572612
_cell_angle_alpha   89.98472445
_cell_angle_beta   89.98472445
_cell_angle_gamma   120.34083984
_symmetry_Int_Tables_number   1
_chemical_formula_structural   K(WO3)3
_chemical_formula_sum   'K2 W6 O18'
_cell_volume   381.45972174
_cell_formula_units_Z   2
loop_
 _symmetry_equiv_pos_site_id
 _symmetry_equiv_pos_as_xyz
  1  'x, y, z'
loop_
 _atom_site_type_symbol
 _atom_site_label
 _atom_site_symmetry_multiplicity
 _atom_site_fract_x
 _atom_site_fract_y
 _atom_site_fract_z
 _atom_site_occupancy
  K  K0  1  0.99999600  0.99998700  0.73322200  1
  K  K1  1  0.99998700  0.99999600  0.23322200  1
  W  W0  1  0.99956300  0.49868000  0.49980800  1
  W  W1  1  0.99985700  0.50130700  0.99980200  1
  W  W2  1  0.50089600  0.50136000  0.49951000  1
  W  W3  1  0.50136000  0.50089600  0.99951000  1
  W  W4  1  0.49868000  0.99956300  0.99980800  1
  W  W5  1  0.50130700  0.99985700  0.49980200  1
  O  O0  1  0.98555400  0.49254900  0.24328600  1
  O  O1  1  0.79018700  0.20707400  0.99129400  1
  O  O2  1  0.79173900  0.21009700  0.50903200  1
  O  O3  1  0.78600300  0.58166600  0.50879200  1
  O  O4  1  0.50754300  0.01460000  0.25651100  1
  O  O5  1  0.78945300  0.57945100  0.99146000  1
  O  O6  1  0.41640600  0.21349800  0.99143500  1
  O  O7  1  0.41920300  0.20984300  0.50892500  1
  O  O8  1  0.50723600  0.49245000  0.25002000  1
  O  O9  1  0.49245000  0.50723600  0.75002000  1
  O  O10  1  0.58166600  0.78600300  0.00879200  1
  O  O11  1  0.57945100  0.78945300  0.49146000  1
  O  O12  1  0.21349800  0.41640600  0.49143500  1
  O  O13  1  0.49254900  0.98555400  0.74328600  1
  O  O14  1  0.20984300  0.41920300  0.00892500  1
  O  O15  1  0.21009700  0.79173900  0.00903200  1
  O  O16  1  0.20707400  0.79018700  0.49129400  1
  O  O17  1  0.01460000  0.50754300  0.75651100  1
loop_
_geom_bond_atom_site_label_1
_geom_bond_atom_site_label_2
_geom_bond_distance
_geom_bond_site_symmetry_2
K0 O3 3.233806 1_555
K0 O7 3.236697 1_665
K0 O2 3.244181 1_565
K0 O12 3.297248 1_665
K0 O16 3.312529 1_655
K0 O11 3.320589 1_555
K0 O6 3.373312 1_665
K0 O1 3.385669 1_565
K0 O5 3.393447 1_555
K1 O10 3.233806 1_555
K1 O14 3.236697 1_665
K1 O15 3.244181 1_655
K1 O6 3.297248 1_664
K1 O1 3.312529 1_564
K1 O5 3.320589 1_554
K1 O12 3.373312 1_665
K1 O16 3.385669 1_655
K1 O11 3.393447 1_555
O0 W1 1.897969 1_554
O0 W0 1.999340 1_555
O1 W4 1.950271 1_545
O1 W1 1.968938 1_555
O2 W0 1.935204 1_555
O2 W5 1.949653 1_545
O3 W2 1.916481 1_555
O3 W0 2.000361 1_555
O4 W5 1.896601 1_545
O4 W4 2.001080 1_544
O5 W3 1.941124 1_555
O5 W1 1.951189 1_555
O6 W3 1.924193 1_555
O6 W4 1.999068 1_545
O7 W2 1.960283 1_555
O7 W5 1.969729 1_545
O8 W2 1.945046 1_555
O8 W3 1.952666 1_554
O9 W3 1.945046 1_555
O9 W2 1.952666 1_555
O10 W3 1.916481 1_554
O10 W4 2.000361 1_554
O11 W2 1.941124 1_555
O11 W5 1.951189 1_555
O12 W2 1.924193 1_555
O12 W0 1.999068 1_455
O13 W5 1.897969 1_555
O13 W4 1.999340 1_555
O14 W3 1.960283 1_554
O14 W1 1.969729 1_454
O15 W4 1.935204 1_554
O15 W1 1.949653 1_454
O16 W0 1.950271 1_455
O16 W5 1.968938 1_555
O17 W1 1.896601 1_455
O17 W0 2.001080 1_455
