# generated using pymatgen
data_NaTb(SiO3)2
_symmetry_space_group_name_H-M   'P 1'
_cell_length_a   5.40338482
_cell_length_b   7.58172208
_cell_length_c   13.70046239
_cell_angle_alpha   90.00000000
_cell_angle_beta   90.00000000
_cell_angle_gamma   109.85762833
_symmetry_Int_Tables_number   1
_chemical_formula_structural   NaTb(SiO3)2
_chemical_formula_sum   'Na4 Tb4 Si8 O24'
_cell_volume   527.89319664
_cell_formula_units_Z   4
loop_
 _symmetry_equiv_pos_site_id
 _symmetry_equiv_pos_as_xyz
  1  'x, y, z'
loop_
 _atom_site_type_symbol
 _atom_site_label
 _atom_site_symmetry_multiplicity
 _atom_site_fract_x
 _atom_site_fract_y
 _atom_site_fract_z
 _atom_site_occupancy
  Na  Na0  1  0.86116642  0.45364028  0.77027110  1
  Na  Na1  1  0.13883358  0.04635972  0.27027110  1
  Na  Na2  1  0.13883358  0.54635972  0.22972890  1
  Na  Na3  1  0.86116642  0.95364028  0.72972890  1
  Tb  Tb0  1  0.01787940  0.25191139  0.50590889  1
  Tb  Tb1  1  0.98212060  0.24808861  0.00590889  1
  Tb  Tb2  1  0.98212060  0.74808861  0.49409111  1
  Tb  Tb3  1  0.01787940  0.75191139  0.99409111  1
  Si  Si0  1  0.42971588  0.14378979  0.64031089  1
  Si  Si1  1  0.57028412  0.35621021  0.14031089  1
  Si  Si2  1  0.57028412  0.85621021  0.35968911  1
  Si  Si3  1  0.42971588  0.64378979  0.85968911  1
  Si  Si4  1  0.41860749  0.06793629  0.86218418  1
  Si  Si5  1  0.58139251  0.43206371  0.36218318  1
  Si  Si6  1  0.58139251  0.93206371  0.13781682  1
  Si  Si7  1  0.41860749  0.56793629  0.63781582  1
  O  O0  1  0.31351235  0.08017982  0.75090559  1
  O  O1  1  0.68648765  0.41982018  0.25090559  1
  O  O2  1  0.68648765  0.91982018  0.24909441  1
  O  O3  1  0.31351235  0.58017982  0.74909441  1
  O  O4  1  0.38668807  0.34599538  0.62217876  1
  O  O5  1  0.61331193  0.15400462  0.12217876  1
  O  O6  1  0.61331193  0.65400462  0.37782124  1
  O  O7  1  0.38668807  0.84599538  0.87782124  1
  O  O8  1  0.21484017  0.01592766  0.56552131  1
  O  O9  1  0.78515983  0.48407234  0.06552131  1
  O  O10  1  0.78515983  0.98407234  0.43447869  1
  O  O11  1  0.21484017  0.51592766  0.93447869  1
  O  O12  1  0.73447076  0.16891137  0.63585856  1
  O  O13  1  0.26552924  0.33108863  0.13585856  1
  O  O14  1  0.26552924  0.83108863  0.36414144  1
  O  O15  1  0.73447076  0.66891137  0.86414144  1
  O  O16  1  0.20233850  0.08301524  0.93838513  1
  O  O17  1  0.79766150  0.41698476  0.43838513  1
  O  O18  1  0.79766150  0.91698476  0.06161487  1
  O  O19  1  0.20233850  0.58301524  0.56161487  1
  O  O20  1  0.71611147  0.19895100  0.87456082  1
  O  O21  1  0.28388853  0.30104900  0.37456082  1
  O  O22  1  0.28388853  0.80104900  0.12543918  1
  O  O23  1  0.71611147  0.69895100  0.62543918  1
loop_
_geom_bond_atom_site_label_1
_geom_bond_atom_site_label_2
_geom_bond_distance
_geom_bond_site_symmetry_2
Na0 O20 2.314374 1_555
Na0 O3 2.320697 1_655
Na0 O15 2.354897 1_555
Na0 O12 2.741527 1_555
Na0 O11 2.884995 1_655
Na0 O23 3.000187 1_555
Na1 O21 2.314374 1_555
Na1 O2 2.320697 1_445
Na1 O14 2.354897 1_545
Na1 O13 2.741527 1_555
Na1 O10 2.884995 1_445
Na1 O22 3.000187 1_545
Na2 O22 2.314374 1_555
Na2 O1 2.320697 1_455
Na2 O13 2.354897 1_555
Na2 O14 2.741527 1_555
Na2 O9 2.884995 1_455
Na2 O21 3.000187 1_555
Na3 O23 2.314374 1_555
Na3 O0 2.320697 1_665
Na3 O12 2.354897 1_565
Na3 O15 2.741527 1_555
Na3 O8 2.884995 1_665
Na3 O20 3.000187 1_565
O0 Si4 1.640492 1_555
O0 Si0 1.648314 1_555
O1 Si5 1.640479 1_555
O1 Si1 1.648314 1_555
O2 Si6 1.640479 1_555
O2 Si2 1.648314 1_555
O3 Si7 1.640492 1_555
O3 Si3 1.648314 1_555
O4 Si0 1.645663 1_555
O4 Si7 1.646189 1_555
O4 Tb0 2.460061 1_555
O5 Si1 1.645663 1_555
O5 Si6 1.646191 1_545
O5 Tb1 2.460061 1_555
O6 Si2 1.645663 1_555
O6 Si5 1.646191 1_555
O6 Tb2 2.460061 1_555
O7 Si3 1.645663 1_555
O7 Si4 1.646189 1_565
O7 Tb3 2.460061 1_555
O8 Si0 1.604079 1_555
O8 Tb2 2.219872 1_445
O8 Tb0 2.508859 1_555
O9 Si1 1.604079 1_555
O9 Tb3 2.219872 1_654
O9 Tb1 2.508859 1_555
O10 Si2 1.604079 1_555
O10 Tb0 2.219872 1_665
O10 Tb2 2.508859 1_555
O11 Si3 1.604079 1_555
O11 Tb1 2.219872 1_456
O11 Tb3 2.508859 1_555
O12 Si0 1.593288 1_555
O12 Tb0 2.292622 1_655
O13 Si1 1.593288 1_555
O13 Tb1 2.292622 1_455
O14 Si2 1.593288 1_555
O14 Tb2 2.292622 1_455
O15 Si3 1.593288 1_555
O15 Tb3 2.292622 1_655
O16 Si4 1.599792 1_555
O16 Tb1 2.202233 1_456
O16 Tb3 2.485530 1_545
O17 Si5 1.599801 1_555
O17 Tb0 2.202233 1_655
O17 Tb2 2.485530 1_555
O18 Si6 1.599801 1_555
O18 Tb3 2.202233 1_654
O18 Tb1 2.485530 1_565
O19 Si7 1.599792 1_555
O19 Tb2 2.202233 1_455
O19 Tb0 2.485530 1_555
O20 Si4 1.585804 1_555
O20 Tb1 2.253726 1_556
O21 Si5 1.585805 1_555
O21 Tb0 2.253726 1_555
O22 Si6 1.585805 1_555
O22 Tb3 2.253726 1_554
O23 Si7 1.585804 1_555
O23 Tb2 2.253726 1_555
