# generated using pymatgen
data_B20H30C3N2
_symmetry_space_group_name_H-M   'P 1'
_cell_length_a   10.46657600
_cell_length_b   11.63818200
_cell_length_c   18.23459200
_cell_angle_alpha   90.00000000
_cell_angle_beta   90.00000000
_cell_angle_gamma   90.00000000
_symmetry_Int_Tables_number   1
_chemical_formula_structural   B20H30C3N2
_chemical_formula_sum   'B80 H120 C12 N8'
_cell_volume   2221.19059638
_cell_formula_units_Z   4
loop_
 _symmetry_equiv_pos_site_id
 _symmetry_equiv_pos_as_xyz
  1  'x, y, z'
loop_
 _atom_site_type_symbol
 _atom_site_label
 _atom_site_symmetry_multiplicity
 _atom_site_fract_x
 _atom_site_fract_y
 _atom_site_fract_z
 _atom_site_occupancy
  B  B0  1  0.71011300  0.31177900  0.36195700  1
  B  B1  1  0.78988700  0.68822100  0.86195700  1
  B  B2  1  0.21011300  0.18822100  0.63804300  1
  B  B3  1  0.28988700  0.81177900  0.13804300  1
  B  B4  1  0.79890700  0.39007300  0.30251600  1
  B  B5  1  0.70109300  0.60992700  0.80251600  1
  B  B6  1  0.29890700  0.10992700  0.69748400  1
  B  B7  1  0.20109300  0.89007300  0.19748400  1
  B  B8  1  0.72030000  0.25018100  0.27256300  1
  B  B9  1  0.77970000  0.74981900  0.77256300  1
  B  B10  1  0.22030000  0.24981900  0.72743700  1
  B  B11  1  0.27970000  0.75018100  0.22743700  1
  B  B12  1  0.57630200  0.31059300  0.30767700  1
  B  B13  1  0.92369800  0.68940700  0.80767700  1
  B  B14  1  0.07630200  0.18940700  0.69232300  1
  B  B15  1  0.42369800  0.81059300  0.19232300  1
  B  B16  1  0.64236500  0.44591500  0.33576800  1
  B  B17  1  0.85763500  0.55408500  0.83576800  1
  B  B18  1  0.14236500  0.05408500  0.66423200  1
  B  B19  1  0.35763500  0.94591500  0.16423200  1
  B  B20  1  0.76625200  0.35616800  0.20757100  1
  B  B21  1  0.73374800  0.64383200  0.70757100  1
  B  B22  1  0.26625200  0.14383200  0.79242900  1
  B  B23  1  0.23374800  0.85616800  0.29242900  1
  B  B24  1  0.60420900  0.30348800  0.21056100  1
  B  B25  1  0.89579100  0.69651200  0.71056100  1
  B  B26  1  0.10420900  0.19651200  0.78943900  1
  B  B27  1  0.39579100  0.80348800  0.28943900  1
  B  B28  1  0.54917800  0.43890400  0.25461600  1
  B  B29  1  0.95082200  0.56109600  0.75461600  1
  B  B30  1  0.04917800  0.06109600  0.74538400  1
  B  B31  1  0.45082200  0.93890400  0.24538400  1
  B  B32  1  0.70803900  0.49680500  0.25229000  1
  B  B33  1  0.79196100  0.50319500  0.75229000  1
  B  B34  1  0.20803900  0.00319500  0.74771000  1
  B  B35  1  0.29196100  0.99680500  0.24771000  1
  B  B36  1  0.64050700  0.43611900  0.17663200  1
  B  B37  1  0.85949300  0.56388100  0.67663200  1
  B  B38  1  0.14050700  0.06388100  0.82336800  1
  B  B39  1  0.35949300  0.93611900  0.32336800  1
  B  B40  1  0.87754200  0.34425000  0.37815100  1
  B  B41  1  0.62245800  0.65575000  0.87815100  1
  B  B42  1  0.37754200  0.15575000  0.62184900  1
  B  B43  1  0.12245800  0.84425000  0.12184900  1
  B  B44  1  0.97145700  0.43073100  0.32786700  1
  B  B45  1  0.52854300  0.56926900  0.82786700  1
  B  B46  1  0.47145700  0.06926900  0.67213300  1
  B  B47  1  0.02854300  0.93073100  0.17213300  1
  B  B48  1  0.93988200  0.45690500  0.42884400  1
  B  B49  1  0.56011800  0.54309500  0.92884400  1
  B  B50  1  0.43988200  0.04309500  0.57115600  1
  B  B51  1  0.06011800  0.95690500  0.07115600  1
  B  B52  1  0.97901000  0.30547200  0.44572800  1
  B  B53  1  0.52099000  0.69452800  0.94572800  1
  B  B54  1  0.47901000  0.19452800  0.55427200  1
  B  B55  1  0.02099000  0.80547200  0.05427200  1
  B  B56  1  0.01889700  0.27694600  0.35045900  1
  B  B57  1  0.48110300  0.72305400  0.85045900  1
  B  B58  1  0.51889700  0.22305400  0.64954100  1
  B  B59  1  0.98110300  0.77694600  0.14954100  1
  B  B60  1  0.08176300  0.51020700  0.38933700  1
  B  B61  1  0.41823700  0.48979300  0.88933700  1
  B  B62  1  0.58176300  0.98979300  0.61066300  1
  B  B63  1  0.91823700  0.01020700  0.11066300  1
  B  B64  1  0.08746200  0.41954500  0.47014500  1
  B  B65  1  0.41253800  0.58045500  0.97014500  1
  B  B66  1  0.58746200  0.08045500  0.52985500  1
  B  B67  1  0.91253800  0.91954500  0.02985500  1
  B  B68  1  0.14260700  0.29507200  0.41556400  1
  B  B69  1  0.35739300  0.70492800  0.91556400  1
  B  B70  1  0.64260700  0.20492800  0.58443600  1
  B  B71  1  0.85739300  0.79507200  0.08443600  1
  B  B72  1  0.13833800  0.37989500  0.33202800  1
  B  B73  1  0.36166200  0.62010500  0.83202800  1
  B  B74  1  0.63833800  0.12010500  0.66797200  1
  B  B75  1  0.86166200  0.87989500  0.16797200  1
  B  B76  1  0.21140900  0.42829700  0.40933000  1
  B  B77  1  0.28859100  0.57170300  0.90933000  1
  B  B78  1  0.71140900  0.07170300  0.59067000  1
  B  B79  1  0.78859100  0.92829700  0.09067000  1
  H  H0  1  0.75877600  0.93870800  0.48700800  1
  H  H1  1  0.74122400  0.06129200  0.98700800  1
  H  H2  1  0.25877600  0.56129200  0.51299200  1
  H  H3  1  0.24122400  0.43870800  0.01299200  1
  H  H4  1  0.84232800  0.76262100  0.53747200  1
  H  H5  1  0.65767200  0.23737900  0.03747200  1
  H  H6  1  0.34232800  0.73737900  0.46252800  1
  H  H7  1  0.15767200  0.26262100  0.96252800  1
  H  H8  1  0.95881900  0.87488600  0.53217700  1
  H  H9  1  0.54118100  0.12511400  0.03217700  1
  H  H10  1  0.45881900  0.62511400  0.46782300  1
  H  H11  1  0.04118100  0.37488600  0.96782300  1
  H  H12  1  0.95804000  0.76120100  0.46473400  1
  H  H13  1  0.54196000  0.23879900  0.96473400  1
  H  H14  1  0.45804000  0.73879900  0.53526600  1
  H  H15  1  0.04196000  0.26120100  0.03526600  1
  H  H16  1  0.95334400  0.01171300  0.43294000  1
  H  H17  1  0.54665600  0.98828700  0.93294000  1
  H  H18  1  0.45334400  0.48828700  0.56706000  1
  H  H19  1  0.04665600  0.51171300  0.06706000  1
  H  H20  1  0.81870200  0.01632900  0.37208900  1
  H  H21  1  0.68129800  0.98367100  0.87208900  1
  H  H22  1  0.31870200  0.48367100  0.62791100  1
  H  H23  1  0.18129800  0.51632900  0.12791100  1
  H  H24  1  0.93629400  0.90477900  0.36254900  1
  H  H25  1  0.56370600  0.09522100  0.86254900  1
  H  H26  1  0.43629400  0.59522100  0.63745100  1
  H  H27  1  0.06370600  0.40478000  0.13745100  1
  H  H28  1  0.67947900  0.74743500  0.44987700  1
  H  H29  1  0.82052100  0.25256500  0.94987700  1
  H  H30  1  0.17947900  0.75256500  0.55012300  1
  H  H31  1  0.32052100  0.24743500  0.05012300  1
  H  H32  1  0.77366000  0.76434200  0.36870300  1
  H  H33  1  0.72634000  0.23565800  0.86870300  1
  H  H34  1  0.27366000  0.73565800  0.63129700  1
  H  H35  1  0.22634000  0.26434200  0.13129700  1
  H  H36  1  0.64527000  0.86265000  0.38712400  1
  H  H37  1  0.85473000  0.13735000  0.88712400  1
  H  H38  1  0.14527000  0.63735000  0.61287600  1
  H  H39  1  0.35473000  0.36265000  0.11287600  1
  H  H40  1  0.44059800  0.16985100  0.31619300  1
  H  H41  1  0.05940200  0.83014900  0.81619300  1
  H  H42  1  0.94059800  0.33014900  0.68380700  1
  H  H43  1  0.55940200  0.66985100  0.18380700  1
  H  H44  1  0.37521000  0.29638700  0.33517900  1
  H  H45  1  0.12479000  0.70361300  0.83517900  1
  H  H46  1  0.87521000  0.20361300  0.66482100  1
  H  H47  1  0.62479000  0.79638700  0.16482100  1
  H  H48  1  0.46658600  0.23231300  0.39637600  1
  H  H49  1  0.03341400  0.76768700  0.89637600  1
  H  H50  1  0.96658600  0.26768700  0.60362400  1
  H  H51  1  0.53341400  0.73231300  0.10362400  1
  H  H52  1  0.69863900  0.26632500  0.42038400  1
  H  H53  1  0.80136100  0.73367500  0.92038400  1
  H  H54  1  0.19863900  0.23367500  0.57961600  1
  H  H55  1  0.30136100  0.76632500  0.07961600  1
  H  H56  1  0.76263600  0.15528500  0.26807900  1
  H  H57  1  0.73736400  0.84471500  0.76807900  1
  H  H58  1  0.26263600  0.34471500  0.73192100  1
  H  H59  1  0.23736400  0.65528500  0.23192100  1
  H  H60  1  0.61721500  0.51046100  0.38464000  1
  H  H61  1  0.88278500  0.48953900  0.88464000  1
  H  H62  1  0.11721500  0.98953900  0.61536000  1
  H  H63  1  0.38278500  0.01046100  0.11536000  1
  H  H64  1  0.85549000  0.33720500  0.16826500  1
  H  H65  1  0.64451000  0.66279500  0.66826500  1
  H  H66  1  0.35549000  0.16279500  0.83173500  1
  H  H67  1  0.14451000  0.83720500  0.33173500  1
  H  H68  1  0.54768900  0.23397800  0.17448200  1
  H  H69  1  0.95231100  0.76602200  0.67448200  1
  H  H70  1  0.04768900  0.26602200  0.82551800  1
  H  H71  1  0.45231100  0.73397800  0.32551800  1
  H  H72  1  0.44563400  0.48285400  0.25588600  1
  H  H73  1  0.05436600  0.51714600  0.75588600  1
  H  H74  1  0.94563400  0.01714600  0.74411400  1
  H  H75  1  0.55436600  0.98285400  0.24411400  1
  H  H76  1  0.75102800  0.59216400  0.24971500  1
  H  H77  1  0.74897200  0.40783600  0.74971500  1
  H  H78  1  0.25102800  0.90783600  0.75028500  1
  H  H79  1  0.24897200  0.09216400  0.25028500  1
  H  H80  1  0.62297000  0.47616200  0.11727200  1
  H  H81  1  0.87703000  0.52383800  0.61727200  1
  H  H82  1  0.12297000  0.02383800  0.88272800  1
  H  H83  1  0.37703000  0.97616200  0.38272800  1
  H  H84  1  0.96311900  0.48821400  0.27320900  1
  H  H85  1  0.53688100  0.51178600  0.77320900  1
  H  H86  1  0.46311900  0.01178600  0.72679100  1
  H  H87  1  0.03688100  0.98821400  0.22679100  1
  H  H88  1  0.86400000  0.52074700  0.45630500  1
  H  H89  1  0.63600000  0.47925300  0.95630500  1
  H  H90  1  0.36400000  0.97925300  0.54369500  1
  H  H91  1  0.13600000  0.02074700  0.04369500  1
  H  H92  1  0.93377500  0.24110100  0.49016600  1
  H  H93  1  0.56622500  0.75889900  0.99016600  1
  H  H94  1  0.43377500  0.25889900  0.50983400  1
  H  H95  1  0.06622500  0.74110100  0.00983400  1
  H  H96  1  0.00904600  0.19414400  0.31209500  1
  H  H97  1  0.49095400  0.80585600  0.81209500  1
  H  H98  1  0.50904600  0.30585600  0.68790500  1
  H  H99  1  0.99095400  0.69414400  0.18790500  1
  H  H100  1  0.09364900  0.61137100  0.37914800  1
  H  H101  1  0.40635100  0.38862900  0.87914800  1
  H  H102  1  0.59364900  0.88862900  0.62085200  1
  H  H103  1  0.90635100  0.11137100  0.12085200  1
  H  H104  1  0.10128400  0.44247300  0.53410800  1
  H  H105  1  0.39871600  0.55752700  0.03410800  1
  H  H106  1  0.60128400  0.05752700  0.46589200  1
  H  H107  1  0.89871600  0.94247300  0.96589200  1
  H  H108  1  0.20492000  0.21260800  0.43208300  1
  H  H109  1  0.29508000  0.78739200  0.93208300  1
  H  H110  1  0.70492000  0.28739200  0.56791700  1
  H  H111  1  0.79508000  0.71260800  0.06791700  1
  H  H112  1  0.19756200  0.37554700  0.27560000  1
  H  H113  1  0.30243800  0.62445300  0.77560000  1
  H  H114  1  0.69756200  0.12445300  0.72440000  1
  H  H115  1  0.80243800  0.87554700  0.22440000  1
  H  H116  1  0.32070600  0.45704300  0.41676500  1
  H  H117  1  0.17929400  0.54295700  0.91676500  1
  H  H118  1  0.82070600  0.04295700  0.58323500  1
  H  H119  1  0.67929400  0.95704300  0.08323500  1
  C  C0  1  0.89921200  0.81579600  0.50029200  1
  C  C1  1  0.60078800  0.18420400  0.00029200  1
  C  C2  1  0.39921200  0.68420400  0.49970800  1
  C  C3  1  0.10078800  0.31579600  0.99970800  1
  C  C4  1  0.88539200  0.96024700  0.40137900  1
  C  C5  1  0.61460800  0.03975300  0.90137900  1
  C  C6  1  0.38539200  0.53975300  0.59862100  1
  C  C7  1  0.11460800  0.46024700  0.09862100  1
  C  C8  1  0.72053600  0.80971000  0.41161800  1
  C  C9  1  0.77946400  0.19029000  0.91161800  1
  C  C10  1  0.22053600  0.69029000  0.58838200  1
  C  C11  1  0.27946400  0.30971000  0.08838200  1
  N  N0  1  0.45751800  0.24774200  0.34103100  1
  N  N1  1  0.04248200  0.75225800  0.84103100  1
  N  N2  1  0.95751800  0.25225800  0.65896900  1
  N  N3  1  0.54248200  0.74774200  0.15896900  1
  N  N4  1  0.81162200  0.88503700  0.45283400  1
  N  N5  1  0.68837800  0.11496300  0.95283400  1
  N  N6  1  0.31162200  0.61496300  0.54716600  1
  N  N7  1  0.18837800  0.38503700  0.04716600  1
loop_
_geom_bond_atom_site_label_1
_geom_bond_atom_site_label_2
_geom_bond_distance
_geom_bond_site_symmetry_2
B0 H52 1.195545 1_555
B0 B4 1.693757 1_555
B0 B40 1.816850 1_555
B1 H53 1.195545 1_555
B1 B5 1.693757 1_555
B1 B41 1.816850 1_555
B2 H54 1.195545 1_555
B2 B6 1.693757 1_555
B2 B42 1.816850 1_555
B3 H55 1.195545 1_555
B3 B7 1.693757 1_555
B3 B43 1.816850 1_555
B4 B40 1.692311 1_555
B4 B8 1.904179 1_555
B4 B44 1.923345 1_555
B5 B9 1.904179 1_555
B8 H56 1.192800 1_555
B9 H57 1.192800 1_555
B10 H58 1.192800 1_555
B10 B6 1.904179 1_555
B11 H59 1.192800 1_555
B11 B7 1.904179 1_555
B12 N0 1.565456 1_555
B13 N1 1.565456 1_655
B14 N2 1.565456 1_455
B15 N3 1.565456 1_555
B16 H60 1.194889 1_555
B16 B4 1.864017 1_555
B17 H61 1.194889 1_555
B17 B5 1.864017 1_555
B18 H62 1.194889 1_545
B18 B6 1.864017 1_555
B19 H63 1.194889 1_565
B19 B7 1.864017 1_555
B20 H64 1.197828 1_555
B20 B4 1.808276 1_555
B21 H65 1.197828 1_555
B21 B5 1.808276 1_555
B22 H66 1.197828 1_555
B22 B6 1.808276 1_555
B23 H67 1.197828 1_555
B23 B7 1.808276 1_555
B24 H68 1.198834 1_555
B25 H69 1.198834 1_555
B26 H70 1.198834 1_555
B27 H71 1.198834 1_555
B28 H72 1.198617 1_555
B29 H73 1.198617 1_655
B30 H74 1.198617 1_455
B31 H75 1.198617 1_555
B32 H76 1.198468 1_555
B32 B4 1.812817 1_555
B33 H77 1.198468 1_555
B33 B5 1.812817 1_555
B34 H78 1.198468 1_545
B34 B6 1.812817 1_555
B35 H79 1.198468 1_565
B35 B7 1.812817 1_555
B36 H80 1.192675 1_555
B37 H81 1.192675 1_555
B38 H82 1.192675 1_555
B39 H83 1.192675 1_555
B40 B44 1.679272 1_555
B40 B52 1.688189 1_555
B40 B48 1.731812 1_555
B40 B56 1.748559 1_655
B41 B45 1.679272 1_555
B41 B53 1.688189 1_555
B41 B5 1.692311 1_555
B41 B49 1.731812 1_555
B41 B57 1.748559 1_555
B42 B46 1.679272 1_555
B42 B54 1.688189 1_555
B42 B6 1.692311 1_555
B42 B50 1.731812 1_555
B42 B58 1.748559 1_555
B43 B47 1.679272 1_555
B43 B55 1.688189 1_555
B43 B7 1.692311 1_555
B43 B51 1.731812 1_555
B43 B59 1.748559 1_455
B44 H84 1.203544 1_555
B45 H85 1.203544 1_555
B45 B5 1.923345 1_555
B46 H86 1.203544 1_555
B46 B6 1.923345 1_555
B47 H87 1.203544 1_555
B47 B7 1.923345 1_555
B48 H88 1.197326 1_555
B49 H89 1.197326 1_555
B50 H90 1.197326 1_545
B51 H91 1.197326 1_565
B52 H92 1.200834 1_555
B53 H93 1.200834 1_555
B54 H94 1.200834 1_555
B55 H95 1.200834 1_555
B56 H96 1.195263 1_555
B57 H97 1.195263 1_555
B58 H98 1.195263 1_555
B59 H99 1.195263 1_555
B60 H100 1.198409 1_555
B61 H101 1.198409 1_555
B62 H102 1.198409 1_555
B63 H103 1.198409 1_555
B64 H104 1.205189 1_555
B65 H105 1.205189 1_556
B66 H106 1.205189 1_555
B67 H107 1.205189 1_554
B68 H108 1.198827 1_555
B69 H109 1.198827 1_555
B70 H110 1.198827 1_555
B71 H111 1.198827 1_555
B72 H112 1.202299 1_555
B73 H113 1.202299 1_555
B74 H114 1.202299 1_555
B75 H115 1.202299 1_555
B76 H116 1.199567 1_555
B77 H117 1.199567 1_555
B78 H118 1.199567 1_555
B79 H119 1.199567 1_555
H0 N4 1.041354 1_555
H1 N5 1.041354 1_555
H2 N6 1.041354 1_555
H3 N7 1.041354 1_555
H40 N0 1.028713 1_555
H41 N1 1.028713 1_555
H42 N2 1.028713 1_555
H43 N3 1.028713 1_555
H44 N0 1.036365 1_555
H45 N1 1.036365 1_555
H46 N2 1.036365 1_555
H47 N3 1.036365 1_555
H48 N0 1.029429 1_555
H49 N1 1.029429 1_555
H50 N2 1.029429 1_555
H51 N3 1.029429 1_555
C0 H4 1.094120 1_555
C0 H8 1.095535 1_555
C0 H12 1.096923 1_555
C0 N4 1.496234 1_555
C1 H5 1.094120 1_555
C1 H9 1.095535 1_555
C1 H13 1.096923 1_554
C1 N5 1.496234 1_554
C2 H6 1.094120 1_555
C2 H10 1.095535 1_555
C2 H14 1.096923 1_555
C2 N6 1.496234 1_555
C3 H7 1.094120 1_555
C3 H11 1.095535 1_555
C3 H15 1.096923 1_556
C3 N7 1.496234 1_556
C4 H16 1.093531 1_565
C4 H20 1.094754 1_565
C4 H24 1.096316 1_555
C4 N4 1.497553 1_555
C5 H17 1.093531 1_545
C5 H21 1.094754 1_545
C5 H25 1.096316 1_555
C5 N5 1.497553 1_555
C6 H18 1.093531 1_555
C6 H22 1.094754 1_555
C6 H26 1.096316 1_555
C6 N6 1.497553 1_555
C7 H19 1.093531 1_555
C7 H23 1.094754 1_555
C7 H27 1.096309 1_555
C7 N7 1.497553 1_555
C8 H28 1.093915 1_555
C8 H36 1.095303 1_555
C8 H32 1.095589 1_555
C8 N4 1.497424 1_555
C9 H29 1.093915 1_555
C9 H37 1.095303 1_555
C9 H33 1.095589 1_555
C9 N5 1.497424 1_555
C10 H30 1.093915 1_555
C10 H38 1.095303 1_555
C10 H34 1.095589 1_555
C10 N6 1.497424 1_555
C11 H31 1.093915 1_555
C11 H39 1.095303 1_555
C11 H35 1.095589 1_555
C11 N7 1.497424 1_555
