# generated using pymatgen
data_V3Bi(PbO4)3
_symmetry_space_group_name_H-M   'P 1'
_cell_length_a   9.53286958
_cell_length_b   9.53286958
_cell_length_c   9.50273087
_cell_angle_alpha   70.52049789
_cell_angle_beta   70.52049789
_cell_angle_gamma   109.50171961
_symmetry_Int_Tables_number   1
_chemical_formula_structural   V3Bi(PbO4)3
_chemical_formula_sum   'V6 Bi2 Pb6 O24'
_cell_volume   664.38730799
_cell_formula_units_Z   2
loop_
 _symmetry_equiv_pos_site_id
 _symmetry_equiv_pos_as_xyz
  1  'x, y, z'
loop_
 _atom_site_type_symbol
 _atom_site_label
 _atom_site_symmetry_multiplicity
 _atom_site_fract_x
 _atom_site_fract_y
 _atom_site_fract_z
 _atom_site_occupancy
  V  V0  1  0.87540400  0.62231400  0.74749500  1
  V  V1  1  0.62231400  0.87540400  0.24749500  1
  V  V2  1  0.75078100  0.12791000  0.62721100  1
  V  V3  1  0.24958700  0.37475800  0.87491400  1
  V  V4  1  0.37475800  0.24958700  0.37491400  1
  V  V5  1  0.12791000  0.75078100  0.12721100  1
  Bi  Bi0  1  0.50036700  0.17523500  0.99843400  1
  Bi  Bi1  1  0.17523500  0.50036700  0.49843400  1
  Pb  Pb0  1  0.66233000  0.50051500  0.49638100  1
  Pb  Pb1  1  0.84284200  0.34014400  0.16200200  1
  Pb  Pb2  1  0.99521700  0.99487200  0.34354500  1
  Pb  Pb3  1  0.50051500  0.66233000  0.99638100  1
  Pb  Pb4  1  0.34014400  0.84284200  0.66200200  1
  Pb  Pb5  1  0.99487200  0.99521700  0.84354500  1
  O  O0  1  0.15640800  0.80599200  0.92130600  1
  O  O1  1  0.22903600  0.07160200  0.57638900  1
  O  O2  1  0.26768600  0.68365900  0.16853600  1
  O  O3  1  0.33975600  0.42516000  0.35255700  1
  O  O4  1  0.80599200  0.15640800  0.42130600  1
  O  O5  1  0.07160200  0.22903600  0.07638900  1
  O  O6  1  0.68365900  0.26768600  0.66853600  1
  O  O7  1  0.42516000  0.33975600  0.85255700  1
  O  O8  1  0.65763100  0.84753400  0.07073200  1
  O  O9  1  0.84924800  0.76875100  0.80715900  1
  O  O10  1  0.41197700  0.71849400  0.42744500  1
  O  O11  1  0.07874900  0.64364700  0.68832900  1
  O  O12  1  0.35263200  0.19588200  0.21909700  1
  O  O13  1  0.16606400  0.93398000  0.14866500  1
  O  O14  1  0.57753800  0.30971500  0.34737600  1
  O  O15  1  0.92044000  0.57614500  0.27242700  1
  O  O16  1  0.19588200  0.35263200  0.71909700  1
  O  O17  1  0.93398000  0.16606400  0.64866500  1
  O  O18  1  0.30971500  0.57753800  0.84737600  1
  O  O19  1  0.57614500  0.92044000  0.77242700  1
  O  O20  1  0.84753400  0.65763100  0.57073200  1
  O  O21  1  0.76875100  0.84924800  0.30715900  1
  O  O22  1  0.71849400  0.41197700  0.92744500  1
  O  O23  1  0.64364700  0.07874900  0.18832900  1
loop_
_geom_bond_atom_site_label_1
_geom_bond_atom_site_label_2
_geom_bond_distance
_geom_bond_site_symmetry_2
Bi0 O22 2.188153 1_555
Bi0 O7 2.204304 1_555
Bi0 O12 2.215834 1_556
Bi0 O6 2.670855 1_555
Bi0 O23 2.709902 1_556
Bi0 O13 2.714015 1_546
Bi1 O10 2.188153 1_555
Bi1 O3 2.204304 1_555
Bi1 O16 2.215834 1_555
Bi1 O2 2.670855 1_555
Bi1 O11 2.709902 1_555
Bi1 O17 2.714015 1_455
O0 V5 1.744281 1_556
O0 Pb4 2.323026 1_555
O0 Pb5 2.809943 1_455
O1 V4 1.720493 1_555
O1 Pb5 2.420845 1_445
O1 Pb4 2.733676 1_545
O2 V5 1.757771 1_555
O2 Pb3 2.396965 1_554
O3 V4 1.772227 1_555
O3 Pb3 2.835429 1_554
O4 V2 1.744281 1_555
O4 Pb1 2.323026 1_555
O4 Pb2 2.809943 1_545
O5 V3 1.720493 1_554
O5 Pb2 2.420845 1_445
O5 Pb1 2.733676 1_455
O6 V2 1.757771 1_555
O6 Pb0 2.396965 1_555
O7 V3 1.772227 1_555
O7 Pb0 2.835429 1_555
O8 V1 1.727896 1_555
O8 Pb3 2.373131 1_554
O8 Pb5 2.701914 1_554
O9 V0 1.731566 1_555
O9 Pb5 2.350405 1_555
O9 Pb3 2.803401 1_555
O10 V1 1.785172 1_555
O10 Pb4 2.851031 1_555
O11 V0 1.746069 1_455
O11 Pb4 2.446595 1_555
O12 V4 1.772231 1_555
O12 Pb2 2.849828 1_445
O13 V5 1.756878 1_555
O13 Pb2 2.399082 1_455
O14 V4 1.719476 1_555
O14 Pb1 2.404511 1_555
O14 Pb0 2.732392 1_555
O15 V5 1.742591 1_655
O15 Pb0 2.324435 1_555
O15 Pb1 2.773229 1_555
O16 V3 1.772231 1_555
O16 Pb5 2.849828 1_445
O17 V2 1.756878 1_555
O17 Pb5 2.399082 1_545
O18 V3 1.719476 1_555
O18 Pb4 2.404511 1_555
O18 Pb3 2.732392 1_555
O19 V2 1.742591 1_565
O19 Pb3 2.324435 1_555
O19 Pb4 2.773229 1_555
O20 V0 1.727896 1_555
O20 Pb0 2.373131 1_555
O20 Pb2 2.701914 1_555
O21 V1 1.731566 1_555
O21 Pb2 2.350405 1_555
O21 Pb0 2.803401 1_555
O22 V0 1.785172 1_555
O22 Pb1 2.851031 1_556
O23 V1 1.746069 1_545
O23 Pb1 2.446595 1_555
