# generated using pymatgen
data_RbHg11
_symmetry_space_group_name_H-M   'P 1'
_cell_length_a   10.21881604
_cell_length_b   10.21881604
_cell_length_c   10.21881604
_cell_angle_alpha   90.00000000
_cell_angle_beta   90.00000000
_cell_angle_gamma   90.00000000
_symmetry_Int_Tables_number   1
_chemical_formula_structural   RbHg11
_chemical_formula_sum   'Rb3 Hg33'
_cell_volume   1067.09170279
_cell_formula_units_Z   3
loop_
 _symmetry_equiv_pos_site_id
 _symmetry_equiv_pos_as_xyz
  1  'x, y, z'
loop_
 _atom_site_type_symbol
 _atom_site_label
 _atom_site_symmetry_multiplicity
 _atom_site_fract_x
 _atom_site_fract_y
 _atom_site_fract_z
 _atom_site_occupancy
  Rb  Rb0  1  0.00000000  0.00000000  0.50000000  1
  Rb  Rb1  1  0.50000000  0.00000000  -0.00000000  1
  Rb  Rb2  1  0.00000000  0.50000000  -0.00000000  1
  Hg  Hg0  1  0.50000000  0.50000000  0.50000000  1
  Hg  Hg1  1  0.15283285  0.15283285  0.15283285  1
  Hg  Hg2  1  0.15283285  0.84716715  0.15283285  1
  Hg  Hg3  1  0.15283285  0.15283285  0.84716715  1
  Hg  Hg4  1  0.84716715  0.15283285  0.15283285  1
  Hg  Hg5  1  0.84716715  0.84716715  0.15283285  1
  Hg  Hg6  1  0.15283285  0.84716715  0.84716715  1
  Hg  Hg7  1  0.84716715  0.15283285  0.84716715  1
  Hg  Hg8  1  0.84716715  0.84716715  0.84716715  1
  Hg  Hg9  1  0.26750018  0.50000000  0.26750018  1
  Hg  Hg10  1  0.26750018  0.73249982  0.50000000  1
  Hg  Hg11  1  0.26750018  0.26750018  0.50000000  1
  Hg  Hg12  1  0.26750018  0.50000000  0.73249982  1
  Hg  Hg13  1  0.73249982  0.50000000  0.26750018  1
  Hg  Hg14  1  0.50000000  0.26750018  0.26750018  1
  Hg  Hg15  1  0.50000000  0.73249982  0.26750018  1
  Hg  Hg16  1  0.50000000  0.26750018  0.73249982  1
  Hg  Hg17  1  0.73249982  0.73249982  0.50000000  1
  Hg  Hg18  1  0.73249982  0.26750018  0.50000000  1
  Hg  Hg19  1  0.50000000  0.73249982  0.73249982  1
  Hg  Hg20  1  0.73249982  0.50000000  0.73249982  1
  Hg  Hg21  1  0.34524831  0.34524831  -0.00000000  1
  Hg  Hg22  1  0.34524831  0.00000000  0.34524831  1
  Hg  Hg23  1  0.34524831  0.00000000  0.65475169  1
  Hg  Hg24  1  0.00000000  0.34524831  0.65475169  1
  Hg  Hg25  1  0.00000000  0.34524831  0.34524831  1
  Hg  Hg26  1  0.65475169  0.34524831  -0.00000000  1
  Hg  Hg27  1  0.34524831  0.65475169  -0.00000000  1
  Hg  Hg28  1  0.65475169  0.00000000  0.34524831  1
  Hg  Hg29  1  0.00000000  0.65475169  0.65475169  1
  Hg  Hg30  1  0.65475169  0.00000000  0.65475169  1
  Hg  Hg31  1  0.00000000  0.65475169  0.34524831  1
  Hg  Hg32  1  0.65475169  0.65475169  -0.00000000  1
loop_
_geom_bond_atom_site_label_1
_geom_bond_atom_site_label_2
_geom_bond_distance
_geom_bond_site_symmetry_2
Hg0 Hg9 3.359992 1_555
Hg0 Hg14 3.359992 1_555
Hg0 Hg11 3.359992 1_555
Hg0 Hg18 3.359992 1_555
Hg0 Hg15 3.359992 1_555
Hg0 Hg12 3.359992 1_555
Hg0 Hg13 3.359992 1_555
Hg0 Hg10 3.359992 1_555
Hg0 Hg16 3.359992 1_555
Hg0 Hg17 3.359992 1_555
Hg0 Hg20 3.359992 1_555
Hg0 Hg19 3.359992 1_555
Hg1 Hg3 3.123542 1_554
Hg1 Hg2 3.123542 1_545
Hg1 Hg4 3.123542 1_455
Hg1 Hg22 3.189274 1_555
Hg1 Hg21 3.189274 1_555
Hg1 Hg25 3.189274 1_555
Hg1 Rb0 4.178993 1_555
Hg1 Rb2 4.178993 1_555
Hg1 Rb1 4.178993 1_555
Hg2 Hg5 3.123542 1_455
Hg2 Hg6 3.123542 1_554
Hg2 Hg27 3.189274 1_555
Hg2 Hg31 3.189274 1_555
Hg2 Hg22 3.189274 1_565
Hg2 Rb0 4.178993 1_565
Hg2 Rb1 4.178993 1_565
Hg2 Rb2 4.178993 1_555
Hg3 Hg6 3.123542 1_545
Hg3 Hg7 3.123542 1_455
Hg3 Rb1 4.178993 1_556
Hg3 Rb2 4.178993 1_556
Hg3 Rb0 4.178993 1_555
Hg4 Hg5 3.123542 1_545
Hg4 Hg7 3.123542 1_554
Hg4 Rb2 4.178993 1_655
Hg4 Rb0 4.178993 1_655
Hg4 Rb1 4.178993 1_555
Hg5 Hg8 3.123542 1_554
Hg5 Rb2 4.178993 1_655
Hg5 Rb1 4.178993 1_565
Hg5 Rb0 4.178993 1_665
Hg6 Hg8 3.123542 1_455
Hg6 Rb0 4.178993 1_565
Hg6 Rb2 4.178993 1_556
Hg6 Rb1 4.178993 1_566
Hg7 Hg8 3.123542 1_545
Hg7 Rb2 4.178993 1_656
Hg7 Rb1 4.178993 1_556
Hg7 Rb0 4.178993 1_655
Hg8 Rb2 4.178993 1_656
Hg8 Rb0 4.178993 1_665
Hg8 Rb1 4.178993 1_566
Hg9 Rb2 3.865802 1_555
Hg10 Hg22 3.256408 1_565
Hg10 Hg23 3.256408 1_565
Hg10 Hg31 3.256408 1_555
Hg10 Hg29 3.256408 1_555
Hg10 Hg15 3.359992 1_555
Hg10 Hg19 3.359992 1_555
Hg10 Hg9 3.359992 1_555
Hg10 Hg12 3.359992 1_555
Hg10 Rb0 3.865802 1_565
Hg11 Hg23 3.256408 1_555
Hg11 Hg24 3.256408 1_555
Hg11 Hg25 3.256408 1_555
Hg11 Hg22 3.256408 1_555
Hg11 Hg9 3.359992 1_555
Hg11 Hg14 3.359992 1_555
Hg11 Hg12 3.359992 1_555
Hg11 Hg16 3.359992 1_555
Hg11 Rb0 3.865802 1_555
Hg12 Hg21 3.256408 1_556
Hg12 Hg27 3.256408 1_556
Hg12 Hg24 3.256408 1_555
Hg12 Hg29 3.256408 1_555
Hg12 Hg16 3.359992 1_555
Hg12 Hg19 3.359992 1_555
Hg12 Rb2 3.865802 1_556
Hg13 Hg31 3.256408 1_655
Hg13 Hg25 3.256408 1_655
Hg13 Hg26 3.256408 1_555
Hg13 Hg32 3.256408 1_555
Hg13 Hg18 3.359992 1_555
Hg13 Hg17 3.359992 1_555
Hg13 Hg14 3.359992 1_555
Hg13 Hg15 3.359992 1_555
Hg13 Rb2 3.865802 1_655
Hg14 Hg21 3.256408 1_555
Hg14 Hg28 3.256408 1_555
Hg14 Hg26 3.256408 1_555
Hg14 Hg22 3.256408 1_555
Hg14 Hg9 3.359992 1_555
Hg14 Hg18 3.359992 1_555
Hg14 Rb1 3.865802 1_555
Hg15 Hg28 3.256408 1_565
Hg15 Hg22 3.256408 1_565
Hg15 Hg27 3.256408 1_555
Hg15 Hg32 3.256408 1_555
Hg15 Hg9 3.359992 1_555
Hg15 Hg17 3.359992 1_555
Hg15 Rb1 3.865802 1_565
Hg16 Hg21 3.256408 1_556
Hg16 Hg26 3.256408 1_556
Hg16 Hg23 3.256408 1_555
Hg16 Hg30 3.256408 1_555
Hg16 Hg20 3.359992 1_555
Hg16 Hg18 3.359992 1_555
Hg16 Rb1 3.865802 1_556
Hg17 Hg28 3.256408 1_565
Hg17 Hg29 3.256408 1_655
Hg17 Hg30 3.256408 1_565
Hg17 Hg31 3.256408 1_655
Hg17 Hg20 3.359992 1_555
Hg17 Hg19 3.359992 1_555
Hg17 Rb0 3.865802 1_665
Hg18 Hg25 3.256408 1_655
Hg18 Hg24 3.256408 1_655
Hg18 Hg28 3.256408 1_555
Hg18 Hg30 3.256408 1_555
Hg18 Hg20 3.359992 1_555
Hg18 Rb0 3.865802 1_655
Hg19 Hg32 3.256408 1_556
Hg19 Hg27 3.256408 1_556
Hg19 Hg30 3.256408 1_565
Hg19 Hg23 3.256408 1_565
Hg19 Hg20 3.359992 1_555
Hg19 Rb1 3.865802 1_566
Hg20 Hg32 3.256408 1_556
Hg20 Hg26 3.256408 1_556
Hg20 Hg29 3.256408 1_655
Hg20 Hg24 3.256408 1_655
Hg20 Rb2 3.865802 1_656
Hg21 Hg27 3.162758 1_555
Hg21 Hg26 3.162758 1_555
Hg21 Hg3 3.189274 1_554
Hg21 Hg9 3.256408 1_555
Hg21 Rb1 3.866232 1_555
Hg21 Rb2 3.866232 1_555
Hg22 Hg23 3.162758 1_555
Hg22 Hg28 3.162758 1_555
Hg22 Rb0 3.866232 1_555
Hg22 Rb1 3.866232 1_555
Hg23 Hg30 3.162758 1_555
Hg23 Hg6 3.189274 1_545
Hg23 Hg3 3.189274 1_555
Hg23 Rb0 3.866232 1_555
Hg23 Rb1 3.866232 1_556
Hg24 Hg25 3.162758 1_555
Hg24 Hg29 3.162758 1_555
Hg24 Hg7 3.189274 1_455
Hg24 Hg3 3.189274 1_555
Hg24 Rb0 3.866232 1_555
Hg24 Rb2 3.866232 1_556
Hg25 Hg31 3.162758 1_555
Hg25 Hg4 3.189274 1_455
Hg25 Hg9 3.256408 1_555
Hg25 Rb0 3.866232 1_555
Hg25 Rb2 3.866232 1_555
Hg26 Hg32 3.162758 1_555
Hg26 Hg4 3.189274 1_555
Hg26 Hg7 3.189274 1_554
Hg26 Rb2 3.866232 1_655
Hg26 Rb1 3.866232 1_555
Hg27 Hg32 3.162758 1_555
Hg27 Hg6 3.189274 1_554
Hg27 Hg9 3.256408 1_555
Hg27 Rb2 3.866232 1_555
Hg27 Rb1 3.866232 1_565
Hg28 Hg30 3.162758 1_555
Hg28 Hg5 3.189274 1_545
Hg28 Hg4 3.189274 1_555
Hg28 Rb1 3.866232 1_555
Hg28 Rb0 3.866232 1_655
Hg29 Hg31 3.162758 1_555
Hg29 Hg6 3.189274 1_555
Hg29 Hg8 3.189274 1_455
Hg29 Rb0 3.866232 1_565
Hg29 Rb2 3.866232 1_556
Hg30 Hg7 3.189274 1_555
Hg30 Hg8 3.189274 1_545
Hg30 Rb1 3.866232 1_556
Hg30 Rb0 3.866232 1_655
Hg31 Hg5 3.189274 1_455
Hg31 Hg9 3.256408 1_555
Hg31 Rb2 3.866232 1_555
Hg31 Rb0 3.866232 1_565
Hg32 Hg8 3.189274 1_554
Hg32 Hg5 3.189274 1_555
Hg32 Rb2 3.866232 1_655
Hg32 Rb1 3.866232 1_565
