# generated using pymatgen
data_PrZn(SnO3)2
_symmetry_space_group_name_H-M   'P 1'
_cell_length_a   5.57953900
_cell_length_b   6.13988400
_cell_length_c   8.17287200
_cell_angle_alpha   90.00000000
_cell_angle_beta   90.00000000
_cell_angle_gamma   90.00000000
_symmetry_Int_Tables_number   1
_chemical_formula_structural   PrZn(SnO3)2
_chemical_formula_sum   'Pr2 Zn2 Sn4 O12'
_cell_volume   279.98397883
_cell_formula_units_Z   2
loop_
 _symmetry_equiv_pos_site_id
 _symmetry_equiv_pos_as_xyz
  1  'x, y, z'
loop_
 _atom_site_type_symbol
 _atom_site_label
 _atom_site_symmetry_multiplicity
 _atom_site_fract_x
 _atom_site_fract_y
 _atom_site_fract_z
 _atom_site_occupancy
  Pr  Pr0  1  0.02893200  0.67120900  0.00000000  1
  Pr  Pr1  1  0.52893200  0.32879100  0.50000000  1
  Zn  Zn0  1  0.52335600  0.37068700  0.00000000  1
  Zn  Zn1  1  0.02335600  0.62931300  0.50000000  1
  Sn  Sn0  1  0.00780300  0.21700200  0.75563500  1
  Sn  Sn1  1  0.00780300  0.21700200  0.24436500  1
  Sn  Sn2  1  0.50780300  0.78299800  0.25563500  1
  Sn  Sn3  1  0.50780300  0.78299800  0.74436500  1
  O  O0  1  0.10566800  0.26432700  0.50000000  1
  O  O1  1  0.17613000  0.92507500  0.80639400  1
  O  O2  1  0.17613000  0.92507500  0.19360600  1
  O  O3  1  0.30419500  0.44387600  0.18814400  1
  O  O4  1  0.30419500  0.44387600  0.81185600  1
  O  O5  1  0.36588200  0.71358200  0.50000000  1
  O  O6  1  0.60566800  0.73567300  0.00000000  1
  O  O7  1  0.67613000  0.07492500  0.69360600  1
  O  O8  1  0.67613000  0.07492500  0.30639400  1
  O  O9  1  0.80419500  0.55612400  0.68814400  1
  O  O10  1  0.80419500  0.55612400  0.31185600  1
  O  O11  1  0.86588200  0.28641800  0.00000000  1
loop_
_geom_bond_atom_site_label_1
_geom_bond_atom_site_label_2
_geom_bond_distance
_geom_bond_site_symmetry_2
O0 Sn0 2.178910 1_555
O0 Sn1 2.178910 1_555
O0 Zn1 2.287548 1_555
O0 Pr1 2.394556 1_555
O1 Sn0 2.065638 1_565
O1 Sn3 2.107755 1_555
O1 Pr0 2.368085 1_556
O2 Sn1 2.065638 1_565
O2 Sn2 2.107755 1_555
O2 Pr0 2.368085 1_555
O3 Zn0 2.015358 1_555
O3 Sn1 2.210508 1_555
O3 Sn2 2.435215 1_555
O3 Pr0 2.582926 1_555
O3 Pr1 2.927082 1_555
O4 Zn0 2.015358 1_556
O4 Sn0 2.210508 1_555
O4 Sn3 2.435215 1_555
O4 Pr0 2.582926 1_556
O4 Pr1 2.927082 1_555
O5 Zn1 1.979937 1_555
O5 Sn2 2.190285 1_555
O5 Sn3 2.190285 1_555
O5 Pr1 2.531675 1_555
O6 Sn3 2.178910 1_554
O6 Sn2 2.178910 1_555
O6 Zn0 2.287548 1_555
O6 Pr0 2.394556 1_655
O7 Sn3 2.065638 1_545
O7 Sn0 2.107755 1_655
O7 Pr1 2.368085 1_555
O8 Sn2 2.065638 1_545
O8 Sn1 2.107755 1_655
O8 Pr1 2.368085 1_555
O9 Zn1 2.015358 1_655
O9 Sn3 2.210508 1_555
O9 Sn0 2.435215 1_655
O9 Pr1 2.582926 1_555
O9 Pr0 2.927082 1_656
O10 Zn1 2.015358 1_655
O10 Sn2 2.210508 1_555
O10 Sn1 2.435215 1_655
O10 Pr1 2.582926 1_555
O10 Pr0 2.927082 1_655
O11 Zn0 1.979937 1_555
O11 Sn1 2.190285 1_655
O11 Sn0 2.190285 1_654
O11 Pr0 2.531675 1_655
