# generated using pymatgen
data_NaLaMgTeO6
_symmetry_space_group_name_H-M   'P 1'
_cell_length_a   5.60154477
_cell_length_b   5.60154477
_cell_length_c   5.61900934
_cell_angle_alpha   59.81859789
_cell_angle_beta   59.81859789
_cell_angle_gamma   59.93225499
_symmetry_Int_Tables_number   1
_chemical_formula_structural   NaLaMgTeO6
_chemical_formula_sum   'Na1 La1 Mg1 Te1 O6'
_cell_volume   124.26319460
_cell_formula_units_Z   1
loop_
 _symmetry_equiv_pos_site_id
 _symmetry_equiv_pos_as_xyz
  1  'x, y, z'
loop_
 _atom_site_type_symbol
 _atom_site_label
 _atom_site_symmetry_multiplicity
 _atom_site_fract_x
 _atom_site_fract_y
 _atom_site_fract_z
 _atom_site_occupancy
  Na  Na0  1  0.75174500  0.75174500  0.75625200  1
  La  La0  1  0.25096300  0.25096300  0.23795700  1
  Mg  Mg0  1  0.99923300  0.99923300  0.99898000  1
  Te  Te0  1  0.50090600  0.50090600  0.49898300  1
  O  O0  1  0.21630200  0.69628400  0.78606600  1
  O  O1  1  0.29535300  0.78861600  0.22144300  1
  O  O2  1  0.78861600  0.29535300  0.22144300  1
  O  O3  1  0.69628400  0.21630200  0.78606600  1
  O  O4  1  0.73980400  0.73980400  0.33670900  1
  O  O5  1  0.26079500  0.26079500  0.65609900  1
loop_
_geom_bond_atom_site_label_1
_geom_bond_atom_site_label_2
_geom_bond_distance
_geom_bond_site_symmetry_2
Na0 O4 2.426507 1_555
Na0 O0 2.544038 1_655
Na0 O3 2.544038 1_565
Na0 O1 2.589506 1_556
Na0 O2 2.589506 1_556
Na0 O5 2.845226 1_655
Na0 O5 2.845226 1_565
La0 O5 2.406175 1_555
La0 O0 2.519787 1_554
La0 O3 2.519787 1_554
La0 O2 2.520108 1_455
La0 O1 2.520108 1_545
La0 O4 2.842208 1_545
La0 O4 2.842208 1_455
Mg0 O3 2.073780 1_565
Mg0 O0 2.073780 1_655
Mg0 O2 2.084911 1_566
Mg0 O1 2.084911 1_656
Mg0 O4 2.096493 1_556
Mg0 O5 2.116550 1_665
O0 Te0 1.944860 1_555
O1 Te0 1.942691 1_555
O2 Te0 1.942691 1_555
O3 Te0 1.944860 1_555
O4 Te0 1.937432 1_555
O5 Te0 1.955068 1_555
