# generated using pymatgen
data_Li3MnAs2
_symmetry_space_group_name_H-M   'P 1'
_cell_length_a   4.22582900
_cell_length_b   4.22582900
_cell_length_c   6.01789500
_cell_angle_alpha   90.00000000
_cell_angle_beta   90.00000000
_cell_angle_gamma   90.00000000
_symmetry_Int_Tables_number   1
_chemical_formula_structural   Li3MnAs2
_chemical_formula_sum   'Li3 Mn1 As2'
_cell_volume   107.46534673
_cell_formula_units_Z   1
loop_
 _symmetry_equiv_pos_site_id
 _symmetry_equiv_pos_as_xyz
  1  'x, y, z'
loop_
 _atom_site_type_symbol
 _atom_site_label
 _atom_site_symmetry_multiplicity
 _atom_site_fract_x
 _atom_site_fract_y
 _atom_site_fract_z
 _atom_site_occupancy
  Li  Li0  1  0.50000000  0.50000000  0.00000000  1
  Li  Li1  1  0.00000000  0.00000000  0.00000000  1
  Li  Li2  1  0.50000000  0.50000000  0.50000000  1
  Mn  Mn0  1  0.00000000  0.00000000  0.50000000  1
  As  As0  1  0.00000000  0.50000000  0.26791000  1
  As  As1  1  0.50000000  0.00000000  0.73209000  1
loop_
_geom_bond_atom_site_label_1
_geom_bond_atom_site_label_2
_geom_bond_distance
_geom_bond_site_symmetry_2
Li1 Mn0 3.008948 1_555
Li1 Mn0 3.008948 1_554
Li2 Mn0 2.988112 1_665
Li2 Mn0 2.988112 1_555
Li2 Mn0 2.988112 1_655
Li2 Mn0 2.988112 1_565
As0 Li2 2.532817 1_555
As0 Mn0 2.532817 1_565
As0 Mn0 2.532817 1_555
As0 Li2 2.532817 1_455
As0 Li0 2.657776 1_455
As0 Li0 2.657776 1_555
As0 Li1 2.657776 1_555
As0 Li1 2.657776 1_565
As1 Li2 2.532817 1_555
As1 Mn0 2.532817 1_655
As1 Li2 2.532817 1_545
As1 Mn0 2.532817 1_555
As1 Li1 2.657776 1_656
As1 Li0 2.657776 1_556
As1 Li1 2.657776 1_556
As1 Li0 2.657776 1_546
