# generated using pymatgen
data_Ca5(Si2Au3)2
_symmetry_space_group_name_H-M   'P 1'
_cell_length_a   5.71729047
_cell_length_b   5.71729047
_cell_length_c   26.52218744
_cell_angle_alpha   83.20778168
_cell_angle_beta   83.20778168
_cell_angle_gamma   45.89271605
_symmetry_Int_Tables_number   1
_chemical_formula_structural   Ca5(Si2Au3)2
_chemical_formula_sum   'Ca10 Si8 Au12'
_cell_volume   617.34156280
_cell_formula_units_Z   2
loop_
 _symmetry_equiv_pos_site_id
 _symmetry_equiv_pos_as_xyz
  1  'x, y, z'
loop_
 _atom_site_type_symbol
 _atom_site_label
 _atom_site_symmetry_multiplicity
 _atom_site_fract_x
 _atom_site_fract_y
 _atom_site_fract_z
 _atom_site_occupancy
  Ca  Ca0  1  0.02785734  0.02785734  0.15312920  1
  Ca  Ca1  1  0.82207907  0.82207907  0.56003584  1
  Ca  Ca2  1  0.42035868  0.42035868  0.35769320  1
  Ca  Ca3  1  0.62603437  0.62603437  0.95576219  1
  Ca  Ca4  1  0.22226002  0.22226002  0.75795351  1
  Ca  Ca5  1  0.77689347  0.77689347  0.07469816  1
  Ca  Ca6  1  0.57125975  0.57125975  0.47783668  1
  Ca  Ca7  1  0.17231403  0.17231403  0.27878029  1
  Ca  Ca8  1  0.37546865  0.37546865  0.87245246  1
  Ca  Ca9  1  0.97696020  0.97696020  0.67434978  1
  Si  Si0  1  0.33466395  0.33466395  0.98936180  1
  Si  Si1  1  0.92836554  0.92836554  0.79518625  1
  Si  Si2  1  0.52853229  0.52853229  0.59823832  1
  Si  Si3  1  0.12514641  0.12514641  0.40195973  1
  Si  Si4  1  0.73866743  0.73866743  0.19520758  1
  Si  Si5  1  0.07230446  0.07230446  0.86639841  1
  Si  Si6  1  0.67296582  0.67296582  0.66851651  1
  Si  Si7  1  0.27111071  0.27111071  0.47142021  1
  Au  Au0  1  0.86922454  0.86922454  0.27302157  1
  Au  Au1  1  0.47036552  0.47036552  0.06722446  1
  Au  Au2  1  0.68901376  0.68901376  0.84063593  1
  Au  Au3  1  0.29074950  0.29074950  0.64406366  1
  Au  Au4  1  0.88818093  0.88818093  0.44636253  1
  Au  Au5  1  0.51425125  0.51425125  0.23630364  1
  Au  Au6  1  0.11382049  0.11382049  0.03456023  1
  Au  Au7  1  0.91768968  0.91768968  0.95190010  1
  Au  Au8  1  0.51220967  0.51220967  0.75387737  1
  Au  Au9  1  0.11240527  0.11240527  0.55692705  1
  Au  Au10  1  0.70147697  0.70147697  0.36536339  1
  Au  Au11  1  0.30956722  0.30956722  0.16338097  1
loop_
_geom_bond_atom_site_label_1
_geom_bond_atom_site_label_2
_geom_bond_distance
_geom_bond_site_symmetry_2
Ca0 Si4 3.105674 1_445
Ca0 Si4 3.431859 1_545
Ca0 Si4 3.431859 1_455
Ca1 Si6 3.095623 1_555
Ca1 Si2 3.126707 1_555
Ca1 Si7 3.332306 1_565
Ca1 Si7 3.332306 1_655
Ca1 Si2 3.359562 1_565
Ca1 Si2 3.359562 1_655
Ca2 Si3 3.178651 1_555
Ca2 Si7 3.217167 1_555
Ca2 Si3 3.412772 1_655
Ca2 Si3 3.412772 1_565
Ca3 Si0 3.082993 1_555
Ca3 Si0 3.330378 1_565
Ca3 Si0 3.330378 1_655
Ca3 Si5 3.354166 1_565
Ca3 Si5 3.354166 1_655
Ca4 Si5 3.098255 1_555
Ca4 Si1 3.125217 1_445
Ca4 Si6 3.343769 1_455
Ca4 Si6 3.343769 1_545
Ca4 Si1 3.347238 1_545
Ca4 Si1 3.347238 1_455
Ca5 Si4 3.169714 1_555
Ca5 Si0 3.179209 1_564
Ca5 Si0 3.179209 1_654
Ca6 Si3 3.007809 1_565
Ca6 Si3 3.007809 1_655
Ca6 Si7 3.055131 1_565
Ca6 Si7 3.055131 1_655
Ca6 Si2 3.167119 1_555
Ca6 Si7 3.186827 1_555
Ca7 Si4 3.157815 1_455
Ca7 Si4 3.157815 1_545
Ca7 Si3 3.240849 1_555
Ca8 Si1 3.030672 1_455
Ca8 Si1 3.030672 1_545
Ca8 Si5 3.033897 1_655
Ca8 Si5 3.033897 1_565
Ca8 Si0 3.075173 1_555
Ca8 Si5 3.216813 1_555
Ca9 Si2 3.009428 1_565
Ca9 Si2 3.009428 1_655
Ca9 Si6 3.028199 1_565
Ca9 Si6 3.028199 1_655
Ca9 Si1 3.179881 1_555
Ca9 Si6 3.224512 1_555
Si1 Si5 2.568982 1_665
Si2 Si6 2.552523 1_555
Si3 Si7 2.546260 1_555
Au0 Si4 2.622580 1_555
Au0 Au5 2.804784 1_565
Au0 Au5 2.804784 1_655
Au0 Au10 2.829648 1_555
Au0 Ca7 3.034712 1_655
Au0 Ca7 3.034712 1_565
Au0 Ca7 3.214648 1_665
Au0 Ca2 3.257603 1_655
Au0 Ca2 3.257603 1_565
Au0 Ca0 3.396614 1_665
Au1 Si0 2.657878 1_554
Au1 Au6 2.768493 1_565
Au1 Au6 2.768493 1_655
Au1 Au11 2.874300 1_555
Au1 Ca5 3.009025 1_455
Au1 Ca5 3.009025 1_545
Au1 Ca3 3.190831 1_554
Au1 Ca5 3.259059 1_555
Au1 Ca0 3.298516 1_655
Au1 Ca0 3.298516 1_565
Au2 Si5 2.594195 1_565
Au2 Si5 2.594195 1_655
Au2 Si1 2.650413 1_555
Au2 Ca3 3.040216 1_555
Au2 Ca4 3.114911 1_565
Au2 Ca4 3.114911 1_655
Au2 Au8 3.140228 1_555
Au2 Ca8 3.156058 1_565
Au2 Ca8 3.156058 1_655
Au2 Ca8 3.301019 1_555
Au3 Si6 2.592412 1_545
Au3 Si6 2.592412 1_455
Au3 Si2 2.639036 1_555
Au3 Ca4 3.014070 1_555
Au3 Ca1 3.139278 1_545
Au3 Ca1 3.139278 1_455
Au3 Ca9 3.140502 1_455
Au3 Ca9 3.140502 1_545
Au3 Au9 3.159485 1_555
Au3 Ca9 3.298598 1_445
Au4 Si7 2.592154 1_565
Au4 Si7 2.592154 1_655
Au4 Si3 2.618792 1_665
Au4 Ca1 3.005804 1_555
Au4 Ca6 3.129685 1_655
Au4 Ca6 3.129685 1_565
Au4 Ca2 3.226308 1_565
Au4 Ca2 3.226308 1_655
Au4 Ca6 3.334301 1_555
Au5 Si4 2.471928 1_555
Au5 Ca7 3.080474 1_565
Au5 Ca7 3.080474 1_655
Au5 Ca0 3.126349 1_565
Au5 Ca0 3.126349 1_655
Au5 Ca2 3.244248 1_555
Au6 Si0 2.475603 1_554
Au6 Ca3 3.046898 1_454
Au6 Ca3 3.046898 1_544
Au6 Ca5 3.085403 1_545
Au6 Ca5 3.085403 1_455
Au6 Ca0 3.158697 1_555
Au6 Au7 3.199122 1_444
Au6 Ca5 3.570681 1_445
Au7 Si0 2.548877 1_565
Au7 Si0 2.548877 1_655
Au7 Si5 2.616233 1_665
Au7 Ca3 3.059593 1_555
Au7 Ca8 3.137940 1_565
Au7 Ca8 3.137940 1_655
Au7 Ca3 3.138389 1_565
Au7 Ca3 3.138389 1_655
Au7 Ca5 3.400723 1_556
Au8 Si1 2.588387 1_455
Au8 Si1 2.588387 1_545
Au8 Si6 2.646970 1_555
Au8 Ca4 3.041108 1_555
Au8 Ca9 3.123491 1_455
Au8 Ca9 3.123491 1_545
Au8 Ca4 3.151746 1_655
Au8 Ca4 3.151746 1_565
Au8 Ca8 3.286376 1_555
Au9 Si2 2.588498 1_545
Au9 Si2 2.588498 1_455
Au9 Si7 2.638608 1_555
Au9 Ca1 3.047575 1_445
Au9 Ca6 3.128850 1_455
Au9 Ca6 3.128850 1_545
Au9 Ca1 3.145859 1_545
Au9 Ca1 3.145859 1_455
Au9 Ca9 3.254547 1_445
Au10 Si3 2.521137 1_565
Au10 Si3 2.521137 1_655
Au10 Ca2 2.993044 1_555
Au10 Au4 3.092713 1_555
Au10 Ca6 3.118967 1_555
Au10 Ca2 3.193955 1_565
Au10 Ca2 3.193955 1_655
Au10 Ca7 3.243020 1_565
Au10 Ca7 3.243020 1_655
Au11 Si4 2.465040 1_545
Au11 Si4 2.465040 1_455
Au11 Ca0 3.013348 1_555
Au11 Au5 3.075151 1_555
Au11 Ca0 3.188278 1_565
Au11 Ca0 3.188278 1_655
Au11 Ca7 3.212485 1_555
Au11 Ca5 3.290417 1_545
Au11 Ca5 3.290417 1_455
