# generated using pymatgen
data_Tl5V3O10
_symmetry_space_group_name_H-M   'P 1'
_cell_length_a   8.45936700
_cell_length_b   8.45936700
_cell_length_c   19.58281300
_cell_angle_alpha   90.00000000
_cell_angle_beta   90.00000000
_cell_angle_gamma   90.00000000
_symmetry_Int_Tables_number   1
_chemical_formula_structural   Tl5V3O10
_chemical_formula_sum   'Tl20 V12 O40'
_cell_volume   1401.36352778
_cell_formula_units_Z   4
loop_
 _symmetry_equiv_pos_site_id
 _symmetry_equiv_pos_as_xyz
  1  'x, y, z'
loop_
 _atom_site_type_symbol
 _atom_site_label
 _atom_site_symmetry_multiplicity
 _atom_site_fract_x
 _atom_site_fract_y
 _atom_site_fract_z
 _atom_site_occupancy
  Tl  Tl0  1  0.47791300  0.00714900  0.13052200  1
  Tl  Tl1  1  0.52208700  0.99285100  0.63052200  1
  Tl  Tl2  1  0.49285100  0.97791300  0.38052200  1
  Tl  Tl3  1  0.02208700  0.50714900  0.11947800  1
  Tl  Tl4  1  0.50714900  0.02208700  0.88052200  1
  Tl  Tl5  1  0.97791300  0.49285100  0.61947800  1
  Tl  Tl6  1  0.00714900  0.47791300  0.86947800  1
  Tl  Tl7  1  0.99285100  0.52208700  0.36947800  1
  Tl  Tl8  1  0.99959500  0.02866200  0.10628700  1
  Tl  Tl9  1  0.00040500  0.97133800  0.60628700  1
  Tl  Tl10  1  0.47133800  0.49959500  0.35628700  1
  Tl  Tl11  1  0.50040500  0.52866200  0.14371300  1
  Tl  Tl12  1  0.52866200  0.50040500  0.85628700  1
  Tl  Tl13  1  0.49959500  0.47133800  0.64371300  1
  Tl  Tl14  1  0.02866200  0.99959500  0.89371300  1
  Tl  Tl15  1  0.97133800  0.00040500  0.39371300  1
  Tl  Tl16  1  0.75902800  0.75902800  0.00000000  1
  Tl  Tl17  1  0.24097200  0.24097200  0.50000000  1
  Tl  Tl18  1  0.74097200  0.25902800  0.25000000  1
  Tl  Tl19  1  0.25902800  0.74097200  0.75000000  1
  V  V0  1  0.23007000  0.23211600  0.26714700  1
  V  V1  1  0.76993000  0.76788400  0.76714700  1
  V  V2  1  0.26788400  0.73007000  0.51714700  1
  V  V3  1  0.26993000  0.73211600  0.98285300  1
  V  V4  1  0.73211600  0.26993000  0.01714700  1
  V  V5  1  0.73007000  0.26788400  0.48285300  1
  V  V6  1  0.23211600  0.23007000  0.73285300  1
  V  V7  1  0.76788400  0.76993000  0.23285300  1
  V  V8  1  0.30977000  0.30977000  0.00000000  1
  V  V9  1  0.69023000  0.69023000  0.50000000  1
  V  V10  1  0.19023000  0.80977000  0.25000000  1
  V  V11  1  0.80977000  0.19023000  0.75000000  1
  O  O0  1  0.06597300  0.32690600  0.23654800  1
  O  O1  1  0.93402700  0.67309400  0.73654800  1
  O  O2  1  0.17309400  0.56597300  0.48654800  1
  O  O3  1  0.43402700  0.82690600  0.01345200  1
  O  O4  1  0.82690600  0.43402700  0.98654800  1
  O  O5  1  0.56597300  0.17309400  0.51345200  1
  O  O6  1  0.32690600  0.06597300  0.76345200  1
  O  O7  1  0.67309400  0.93402700  0.26345200  1
  O  O8  1  0.23967400  0.21864500  0.07064900  1
  O  O9  1  0.76032600  0.78135500  0.57064900  1
  O  O10  1  0.28135500  0.73967400  0.32064900  1
  O  O11  1  0.26032600  0.71864500  0.17935100  1
  O  O12  1  0.71864500  0.26032600  0.82064900  1
  O  O13  1  0.73967400  0.28135500  0.67935100  1
  O  O14  1  0.21864500  0.23967400  0.92935100  1
  O  O15  1  0.78135500  0.76032600  0.42935100  1
  O  O16  1  0.23050300  0.24469200  0.35468400  1
  O  O17  1  0.76949700  0.75530800  0.85468400  1
  O  O18  1  0.25530800  0.73050300  0.60468400  1
  O  O19  1  0.26949700  0.74469200  0.89531600  1
  O  O20  1  0.74469200  0.26949700  0.10468400  1
  O  O21  1  0.73050300  0.25530800  0.39531600  1
  O  O22  1  0.24469200  0.23050300  0.64531600  1
  O  O23  1  0.75530800  0.76949700  0.14531600  1
  O  O24  1  0.22718100  0.01938200  0.24076600  1
  O  O25  1  0.77281900  0.98061800  0.74076600  1
  O  O26  1  0.48061800  0.72718100  0.49076600  1
  O  O27  1  0.27281900  0.51938200  0.00923400  1
  O  O28  1  0.51938200  0.27281900  0.99076600  1
  O  O29  1  0.72718100  0.48061800  0.50923400  1
  O  O30  1  0.01938200  0.22718100  0.75923400  1
  O  O31  1  0.98061800  0.77281900  0.25923400  1
  O  O32  1  0.40080900  0.32092300  0.23827300  1
  O  O33  1  0.59919100  0.67907700  0.73827300  1
  O  O34  1  0.17907700  0.90080900  0.48827300  1
  O  O35  1  0.09919100  0.82092300  0.01172700  1
  O  O36  1  0.82092300  0.09919100  0.98827300  1
  O  O37  1  0.90080900  0.17907700  0.51172700  1
  O  O38  1  0.32092300  0.40080900  0.76172700  1
  O  O39  1  0.67907700  0.59919100  0.26172700  1
loop_
_geom_bond_atom_site_label_1
_geom_bond_atom_site_label_2
_geom_bond_distance
_geom_bond_site_symmetry_2
O0 V0 1.711439 1_555
O0 Tl3 2.778218 1_555
O0 Tl18 2.820952 1_455
O1 V1 1.711439 1_555
O1 Tl5 2.778218 1_555
O1 Tl19 2.820952 1_655
O2 V2 1.711439 1_555
O2 Tl7 2.778218 1_455
O2 Tl17 2.820952 1_555
O3 V3 1.711439 1_554
O3 Tl0 2.778218 1_565
O3 Tl16 2.820952 1_555
O4 V4 1.711439 1_556
O4 Tl6 2.778218 1_655
O4 Tl16 2.820952 1_556
O5 V5 1.711439 1_555
O5 Tl1 2.778218 1_545
O5 Tl17 2.820952 1_555
O6 V6 1.711439 1_555
O6 Tl4 2.778218 1_555
O6 Tl19 2.820952 1_545
O7 V7 1.711439 1_555
O7 Tl2 2.778218 1_555
O7 Tl18 2.820952 1_565
O8 V8 1.691131 1_555
O8 Tl8 2.682268 1_455
O9 V9 1.691131 1_555
O9 Tl9 2.682268 1_655
O10 V10 1.691131 1_555
O10 Tl10 2.682268 1_555
O11 V10 1.691131 1_555
O11 Tl11 2.682268 1_555
O12 V11 1.691131 1_555
O12 Tl12 2.682268 1_555
O13 V11 1.691131 1_555
O13 Tl13 2.682268 1_555
O14 V8 1.691131 1_556
O14 Tl14 2.682268 1_545
O15 V9 1.691131 1_555
O15 Tl15 2.682268 1_565
O16 V0 1.717523 1_555
O16 Tl17 2.847248 1_555
O17 V1 1.717523 1_555
O17 Tl16 2.847248 1_556
O18 V2 1.717523 1_555
O18 Tl19 2.847248 1_555
O19 V3 1.717523 1_555
O19 Tl19 2.847248 1_555
O20 V4 1.717523 1_555
O20 Tl18 2.847248 1_555
O21 V5 1.717523 1_555
O21 Tl18 2.847248 1_555
O22 V6 1.717523 1_555
O22 Tl17 2.847248 1_555
O23 V7 1.717523 1_555
O23 Tl16 2.847248 1_555
O24 V10 1.809583 1_545
O24 V0 1.872439 1_555
O25 V11 1.809583 1_565
O25 V1 1.872439 1_555
O26 V9 1.809583 1_555
O26 V2 1.872439 1_555
O27 V8 1.809583 1_555
O27 V3 1.872439 1_554
O28 V8 1.809583 1_556
O28 V4 1.872439 1_556
O29 V9 1.809583 1_555
O29 V5 1.872439 1_555
O30 V11 1.809583 1_455
O30 V6 1.872439 1_555
O31 V10 1.809583 1_655
O31 V7 1.872439 1_555
O32 V0 1.723434 1_555
O32 Tl11 2.688320 1_555
O32 Tl10 2.825135 1_555
O33 V1 1.723434 1_555
O33 Tl13 2.688320 1_555
O33 Tl12 2.825135 1_555
O34 V2 1.723434 1_555
O34 Tl15 2.688320 1_465
O34 Tl9 2.825135 1_555
O35 V3 1.723434 1_554
O35 Tl8 2.688320 1_465
O35 Tl14 2.825135 1_554
O36 V4 1.723434 1_556
O36 Tl14 2.688320 1_645
O36 Tl8 2.825135 1_556
O37 V5 1.723434 1_555
O37 Tl9 2.688320 1_645
O37 Tl15 2.825135 1_555
O38 V6 1.723434 1_555
O38 Tl12 2.688320 1_555
O38 Tl13 2.825135 1_555
O39 V7 1.723434 1_555
O39 Tl10 2.688320 1_555
O39 Tl11 2.825135 1_555
