# generated using pymatgen
data_LiMn(PO3)3
_symmetry_space_group_name_H-M   'P 1'
_cell_length_a   8.56562900
_cell_length_b   8.78370200
_cell_length_c   8.88668200
_cell_angle_alpha   90.00000000
_cell_angle_beta   90.00000000
_cell_angle_gamma   90.00000000
_symmetry_Int_Tables_number   1
_chemical_formula_structural   LiMn(PO3)3
_chemical_formula_sum   'Li4 Mn4 P12 O36'
_cell_volume   668.61558116
_cell_formula_units_Z   4
loop_
 _symmetry_equiv_pos_site_id
 _symmetry_equiv_pos_as_xyz
  1  'x, y, z'
loop_
 _atom_site_type_symbol
 _atom_site_label
 _atom_site_symmetry_multiplicity
 _atom_site_fract_x
 _atom_site_fract_y
 _atom_site_fract_z
 _atom_site_occupancy
  Li  Li0  1  0.15324100  0.13642300  0.38554500  1
  Li  Li1  1  0.65324100  0.36357700  0.61445500  1
  Li  Li2  1  0.84675900  0.63642300  0.11445500  1
  Li  Li3  1  0.34675900  0.86357700  0.88554500  1
  Mn  Mn0  1  0.37233900  0.14424900  0.66367000  1
  Mn  Mn1  1  0.87233900  0.35575100  0.33633000  1
  Mn  Mn2  1  0.62766100  0.64424900  0.83633000  1
  Mn  Mn3  1  0.12766100  0.85575100  0.16367000  1
  P  P0  1  0.47136700  0.67618500  0.18123200  1
  P  P1  1  0.97136700  0.82381500  0.81876800  1
  P  P2  1  0.52863300  0.17618500  0.31876800  1
  P  P3  1  0.02863300  0.32381500  0.68123200  1
  P  P4  1  0.19096300  0.47580900  0.18894100  1
  P  P5  1  0.69096300  0.02419100  0.81105900  1
  P  P6  1  0.80903700  0.97580900  0.31105900  1
  P  P7  1  0.30903700  0.52419100  0.68894100  1
  P  P8  1  0.30147000  0.19153600  0.06472500  1
  P  P9  1  0.80147000  0.30846400  0.93527500  1
  P  P10  1  0.69853000  0.69153600  0.43527500  1
  P  P11  1  0.19853000  0.80846400  0.56472500  1
  O  O0  1  0.37006200  0.80212200  0.12052800  1
  O  O1  1  0.87006200  0.69787800  0.87947200  1
  O  O2  1  0.62993800  0.30212200  0.37947200  1
  O  O3  1  0.12993800  0.19787800  0.62052800  1
  O  O4  1  0.60256300  0.62273000  0.08224400  1
  O  O5  1  0.10256300  0.87727000  0.91775600  1
  O  O6  1  0.39743700  0.12273000  0.41775600  1
  O  O7  1  0.89743700  0.37727000  0.58224400  1
  O  O8  1  0.90766200  0.10590000  0.36621000  1
  O  O9  1  0.40766200  0.39410000  0.63379000  1
  O  O10  1  0.09233800  0.60590000  0.13379000  1
  O  O11  1  0.59233800  0.89410000  0.86621000  1
  O  O12  1  0.15679200  0.86191200  0.41002100  1
  O  O13  1  0.65679200  0.63808800  0.58997900  1
  O  O14  1  0.84320800  0.36191200  0.08997900  1
  O  O15  1  0.34320800  0.13808800  0.91002100  1
  O  O16  1  0.30628300  0.90452400  0.65911100  1
  O  O17  1  0.80628300  0.59547600  0.34088900  1
  O  O18  1  0.69371700  0.40452400  0.84088900  1
  O  O19  1  0.19371700  0.09547600  0.15911100  1
  O  O20  1  0.26768700  0.63729200  0.55012500  1
  O  O21  1  0.76768700  0.86270800  0.44987500  1
  O  O22  1  0.73231300  0.13729200  0.94987500  1
  O  O23  1  0.23231300  0.36270800  0.05012500  1
  O  O24  1  0.03846300  0.77526900  0.65687100  1
  O  O25  1  0.53846300  0.72473100  0.34312900  1
  O  O26  1  0.96153700  0.27526900  0.84312900  1
  O  O27  1  0.46153700  0.22473100  0.15687100  1
  O  O28  1  0.37263100  0.61883500  0.81687600  1
  O  O29  1  0.87263100  0.88116500  0.18312400  1
  O  O30  1  0.62736900  0.11883500  0.68312400  1
  O  O31  1  0.12736900  0.38116500  0.31687600  1
  O  O32  1  0.13766900  0.46452100  0.73451400  1
  O  O33  1  0.63766900  0.03547900  0.26548600  1
  O  O34  1  0.86233100  0.96452100  0.76548600  1
  O  O35  1  0.36233100  0.53547900  0.23451400  1
loop_
_geom_bond_atom_site_label_1
_geom_bond_atom_site_label_2
_geom_bond_distance
_geom_bond_site_symmetry_2
Li0 O19 2.073331 1_555
Li0 O6 2.114611 1_555
Li0 O8 2.127505 1_455
Li0 O3 2.166077 1_555
Li0 O31 2.245638 1_555
Li0 O12 2.421205 1_545
Li1 O18 2.073331 1_555
Li1 O7 2.114611 1_555
Li1 O9 2.127505 1_555
Li1 O2 2.166077 1_555
Li1 O30 2.245638 1_555
Li1 O13 2.421205 1_555
Li2 O17 2.073331 1_555
Li2 O4 2.114611 1_555
Li2 O10 2.127505 1_655
Li2 O1 2.166077 1_554
Li2 O29 2.245638 1_555
Li2 O14 2.421205 1_555
Li3 O16 2.073331 1_555
Li3 O5 2.114611 1_555
Li3 O11 2.127505 1_555
Li3 O0 2.166077 1_556
Li3 O28 2.245638 1_555
Li3 O15 2.421205 1_565
Mn0 O3 2.163326 1_555
Mn0 O16 2.180744 1_545
Mn0 O30 2.202663 1_555
Mn0 O6 2.204028 1_555
Mn0 O15 2.204082 1_555
Mn0 O9 2.231232 1_555
Mn1 O2 2.163326 1_555
Mn1 O17 2.180744 1_555
Mn1 O31 2.202663 1_655
Mn1 O7 2.204028 1_555
Mn1 O14 2.204082 1_555
Mn1 O8 2.231232 1_555
Mn2 O1 2.163326 1_555
Mn2 O18 2.180744 1_555
Mn2 O28 2.202663 1_555
Mn2 O4 2.204028 1_556
Mn2 O13 2.204082 1_555
Mn2 O11 2.231232 1_555
Mn3 O0 2.163326 1_555
Mn3 O19 2.180744 1_565
Mn3 O29 2.202663 1_455
Mn3 O5 2.204028 1_554
Mn3 O12 2.204082 1_555
Mn3 O10 2.231232 1_555
O0 P0 1.505872 1_555
O1 P1 1.505872 1_555
O2 P2 1.505872 1_555
O3 P3 1.505872 1_555
O4 P0 1.502385 1_555
O5 P1 1.502385 1_455
O6 P2 1.502385 1_555
O7 P3 1.502385 1_655
O8 P6 1.503193 1_545
O9 P7 1.503193 1_555
O10 P4 1.503193 1_555
O11 P5 1.503193 1_565
O12 P11 1.496098 1_555
O13 P10 1.496098 1_555
O14 P9 1.496098 1_554
O15 P8 1.496098 1_556
O16 P11 1.505776 1_555
O17 P10 1.505776 1_555
O18 P9 1.505776 1_555
O19 P8 1.505776 1_555
O20 P11 1.621211 1_555
O20 P7 1.623018 1_555
O21 P10 1.621211 1_555
O21 P6 1.623018 1_555
O22 P9 1.621211 1_555
O22 P5 1.623018 1_555
O23 P8 1.621211 1_555
O23 P4 1.623018 1_555
O24 P1 1.606881 1_455
O24 P11 1.623396 1_555
O25 P0 1.606881 1_555
O25 P10 1.623396 1_555
O26 P3 1.606881 1_655
O26 P9 1.623396 1_555
O27 P2 1.606881 1_555
O27 P8 1.623396 1_555
O28 P7 1.510101 1_555
O29 P6 1.510101 1_555
O30 P5 1.510101 1_555
O31 P4 1.510101 1_555
O32 P7 1.610398 1_555
O32 P3 1.619872 1_555
O33 P6 1.610398 1_545
O33 P2 1.619872 1_555
O34 P5 1.610398 1_565
O34 P1 1.619872 1_555
O35 P4 1.610398 1_555
O35 P0 1.619872 1_555
