# generated using pymatgen
data_NaCo(N2O3)4
_symmetry_space_group_name_H-M   'P 1'
_cell_length_a   10.46276008
_cell_length_b   10.46276008
_cell_length_c   10.46276008
_cell_angle_alpha   90.00000000
_cell_angle_beta   90.00000000
_cell_angle_gamma   90.00000000
_symmetry_Int_Tables_number   1
_chemical_formula_structural   NaCo(N2O3)4
_chemical_formula_sum   'Na4 Co4 N32 O48'
_cell_volume   1145.35152938
_cell_formula_units_Z   4
loop_
 _symmetry_equiv_pos_site_id
 _symmetry_equiv_pos_as_xyz
  1  'x, y, z'
loop_
 _atom_site_type_symbol
 _atom_site_label
 _atom_site_symmetry_multiplicity
 _atom_site_fract_x
 _atom_site_fract_y
 _atom_site_fract_z
 _atom_site_occupancy
  Na  Na0  1  0.50000000  0.50000000  0.50000000  1
  Na  Na1  1  -0.00000000  0.50000000  0.00000000  1
  Na  Na2  1  -0.00000000  0.00000000  0.50000000  1
  Na  Na3  1  0.50000000  0.00000000  0.00000000  1
  Co  Co0  1  -0.00000000  0.00000000  0.00000000  1
  Co  Co1  1  0.50000000  0.00000000  0.50000000  1
  Co  Co2  1  0.50000000  0.50000000  0.00000000  1
  Co  Co3  1  -0.00000000  0.50000000  0.50000000  1
  N  N0  1  0.89822561  0.89822561  0.10177439  1
  N  N1  1  0.89822561  0.10177439  0.89822561  1
  N  N2  1  0.10177439  0.89822561  0.89822561  1
  N  N3  1  0.10177439  0.10177439  0.10177439  1
  N  N4  1  0.66226624  0.66226624  0.33773376  1
  N  N5  1  0.66226624  0.33773376  0.66226624  1
  N  N6  1  0.33773376  0.66226624  0.66226624  1
  N  N7  1  0.33773376  0.33773376  0.33773376  1
  N  N8  1  -0.00000000  0.81600696  0.00000000  1
  N  N9  1  -0.00000000  0.00000000  0.18399304  1
  N  N10  1  0.81600696  0.00000000  0.00000000  1
  N  N11  1  -0.00000000  0.18399304  0.00000000  1
  N  N12  1  -0.00000000  0.00000000  0.81600696  1
  N  N13  1  0.18399304  0.00000000  0.00000000  1
  N  N14  1  0.50000000  0.29661825  0.00000000  1
  N  N15  1  -0.00000000  0.50000000  0.70338175  1
  N  N16  1  0.29661825  0.00000000  0.50000000  1
  N  N17  1  0.50000000  0.70338175  0.00000000  1
  N  N18  1  -0.00000000  0.50000000  0.29661825  1
  N  N19  1  0.70338175  0.00000000  0.50000000  1
  N  N20  1  -0.00000000  0.31739649  0.50000000  1
  N  N21  1  0.50000000  0.00000000  0.68260351  1
  N  N22  1  0.31739649  0.50000000  0.00000000  1
  N  N23  1  -0.00000000  0.68260351  0.50000000  1
  N  N24  1  0.50000000  0.00000000  0.31739649  1
  N  N25  1  0.68260351  0.50000000  0.00000000  1
  N  N26  1  0.50000000  0.82036296  0.50000000  1
  N  N27  1  0.50000000  0.50000000  0.17963704  1
  N  N28  1  0.82036296  0.50000000  0.50000000  1
  N  N29  1  0.50000000  0.17963704  0.50000000  1
  N  N30  1  0.50000000  0.50000000  0.82036296  1
  N  N31  1  0.17963704  0.50000000  0.50000000  1
  O  O0  1  0.58915570  0.04992268  0.23499246  1
  O  O1  1  0.76500754  0.58915570  0.95007732  1
  O  O2  1  0.04992268  0.76500754  0.41084430  1
  O  O3  1  0.58915570  0.95007732  0.76500754  1
  O  O4  1  0.76500754  0.41084430  0.04992268  1
  O  O5  1  0.04992268  0.23499246  0.58915570  1
  O  O6  1  0.41084430  0.04992268  0.76500754  1
  O  O7  1  0.23499246  0.58915570  0.04992268  1
  O  O8  1  0.95007732  0.76500754  0.58915570  1
  O  O9  1  0.41084430  0.95007732  0.23499246  1
  O  O10  1  0.23499246  0.41084430  0.95007732  1
  O  O11  1  0.95007732  0.23499246  0.41084430  1
  O  O12  1  0.67215344  0.42964864  0.74143779  1
  O  O13  1  0.25856221  0.67215344  0.57035136  1
  O  O14  1  0.42964864  0.25856221  0.32784656  1
  O  O15  1  0.67215344  0.57035136  0.25856221  1
  O  O16  1  0.25856221  0.32784656  0.42964864  1
  O  O17  1  0.42964864  0.74143779  0.67215344  1
  O  O18  1  0.32784656  0.42964864  0.25856221  1
  O  O19  1  0.74143779  0.67215344  0.42964864  1
  O  O20  1  0.57035136  0.25856221  0.67215344  1
  O  O21  1  0.32784656  0.57035136  0.74143779  1
  O  O22  1  0.74143779  0.32784656  0.57035136  1
  O  O23  1  0.57035136  0.74143779  0.32784656  1
  O  O24  1  0.07006736  0.42411506  0.23853217  1
  O  O25  1  0.76146783  0.07006736  0.57588494  1
  O  O26  1  0.42411506  0.76146783  0.92993264  1
  O  O27  1  0.07006736  0.57588494  0.76146783  1
  O  O28  1  0.76146783  0.92993264  0.42411506  1
  O  O29  1  0.42411506  0.23853217  0.07006736  1
  O  O30  1  0.92993264  0.42411506  0.76146783  1
  O  O31  1  0.23853217  0.07006736  0.42411506  1
  O  O32  1  0.57588494  0.76146783  0.07006736  1
  O  O33  1  0.92993264  0.57588494  0.23853217  1
  O  O34  1  0.23853217  0.92993264  0.57588494  1
  O  O35  1  0.57588494  0.23853217  0.92993264  1
  O  O36  1  0.32756668  0.12882307  0.71328635  1
  O  O37  1  0.28671365  0.32756668  0.87117693  1
  O  O38  1  0.12882307  0.28671365  0.67243332  1
  O  O39  1  0.32756668  0.87117693  0.28671365  1
  O  O40  1  0.28671365  0.67243332  0.12882307  1
  O  O41  1  0.12882307  0.71328635  0.32756668  1
  O  O42  1  0.67243332  0.12882307  0.28671365  1
  O  O43  1  0.71328635  0.32756668  0.12882307  1
  O  O44  1  0.87117693  0.28671365  0.32756668  1
  O  O45  1  0.67243332  0.87117693  0.71328635  1
  O  O46  1  0.71328635  0.67243332  0.87117693  1
  O  O47  1  0.87117693  0.71328635  0.67243332  1
loop_
_geom_bond_atom_site_label_1
_geom_bond_atom_site_label_2
_geom_bond_distance
_geom_bond_site_symmetry_2
Na1 O1 2.681050 1_454
Na1 O4 2.681050 1_455
Na1 O10 2.681050 1_554
Na1 O7 2.681050 1_555
Na1 O30 2.719624 1_454
Na1 O27 2.719624 1_554
Na1 O33 2.719624 1_455
Na1 O24 2.719624 1_555
Na2 O2 2.681050 1_545
Na2 O8 2.681050 1_445
Na2 O5 2.681050 1_555
Na2 O11 2.681050 1_455
Na2 O28 2.719624 1_445
Na2 O25 2.719624 1_455
Na2 O34 2.719624 1_545
Na2 O31 2.719624 1_555
Na3 O3 2.681050 1_544
Na3 O6 2.681050 1_554
Na3 O9 2.681050 1_545
Na3 O0 2.681050 1_555
Na3 O26 2.719624 1_544
Na3 O32 2.719624 1_545
Na3 O29 2.719624 1_555
Na3 O35 2.719624 1_554
Co0 N0 1.844359 1_445
Co0 N1 1.844359 1_454
Co0 N2 1.844359 1_544
Co0 N3 1.844359 1_555
Co0 N10 1.925075 1_455
Co0 N12 1.925075 1_554
Co0 N8 1.925075 1_545
Co0 N11 1.925075 1_555
Co0 N13 1.925075 1_555
Co0 N9 1.925075 1_555
Co1 N29 1.879499 1_555
Co1 N26 1.879499 1_545
Co1 N21 1.910537 1_555
Co1 N24 1.910537 1_555
Co1 N16 2.127934 1_555
Co1 N19 2.127934 1_555
Co2 N27 1.879499 1_555
Co2 N30 1.879499 1_554
Co2 N22 1.910537 1_555
Co2 N25 1.910537 1_555
Co2 N14 2.127934 1_555
Co2 N17 2.127934 1_555
Co3 N31 1.879499 1_555
Co3 N28 1.879499 1_455
Co3 N20 1.910537 1_555
Co3 N23 1.910537 1_555
Co3 N18 2.127934 1_555
Co3 N15 2.127934 1_555
N0 N10 1.734294 1_565
N0 N8 1.734294 1_655
N0 N9 1.734294 1_665
N1 N12 1.734294 1_655
N1 N11 1.734294 1_656
N1 N10 1.734294 1_556
N2 N8 1.734294 1_556
N3 N9 1.734294 1_555
N4 O19 1.273462 1_555
N4 O15 1.273462 1_555
N4 O23 1.273462 1_555
N4 Na0 2.940594 1_555
N5 O20 1.273462 1_555
N5 O12 1.273462 1_555
N5 O22 1.273462 1_555
N5 Na0 2.940594 1_555
N6 O17 1.273462 1_555
N6 O21 1.273462 1_555
N6 O13 1.273462 1_555
N6 Na0 2.940594 1_555
N7 O14 1.273462 1_555
N7 O18 1.273462 1_555
N7 O16 1.273462 1_555
N7 Na0 2.940594 1_555
N11 N3 1.734294 1_555
N12 N2 1.734294 1_545
N13 N2 1.734294 1_544
N13 N3 1.734294 1_555
N14 O29 1.239824 1_555
N14 O35 1.239824 1_554
N15 O27 1.239824 1_555
N15 O30 1.239824 1_455
N16 O31 1.239824 1_555
N16 O34 1.239824 1_545
N17 O32 1.239824 1_555
N17 O26 1.239824 1_554
N18 O24 1.239824 1_555
N18 O33 1.239824 1_455
N19 O25 1.239824 1_555
N19 O28 1.239824 1_545
N20 O5 1.373432 1_555
N20 O11 1.373432 1_455
N21 O3 1.373432 1_545
N21 O6 1.373432 1_555
N22 O7 1.373432 1_555
N22 O10 1.373432 1_554
N23 O8 1.373432 1_455
N23 O2 1.373432 1_555
N24 O0 1.373432 1_555
N24 O9 1.373432 1_545
N25 O1 1.373432 1_554
N25 O4 1.373432 1_555
O0 O42 1.316626 1_555
O1 O46 1.316626 1_555
O2 O41 1.316626 1_555
O3 O45 1.316626 1_555
O4 O43 1.316626 1_555
O10 O37 1.316626 1_555
O11 O44 1.316626 1_555
O36 O6 1.316626 1_555
O38 O5 1.316626 1_555
O39 O9 1.316626 1_555
O40 O7 1.316626 1_555
O47 O8 1.316626 1_555
