# generated using pymatgen
data_Mg6NiMo
_symmetry_space_group_name_H-M   'P 1'
_cell_length_a   4.71347800
_cell_length_b   5.87115900
_cell_length_c   10.74822100
_cell_angle_alpha   90.00000000
_cell_angle_beta   90.00000000
_cell_angle_gamma   90.00000000
_symmetry_Int_Tables_number   1
_chemical_formula_structural   Mg6NiMo
_chemical_formula_sum   'Mg12 Ni2 Mo2'
_cell_volume   297.44174060
_cell_formula_units_Z   2
loop_
 _symmetry_equiv_pos_site_id
 _symmetry_equiv_pos_as_xyz
  1  'x, y, z'
loop_
 _atom_site_type_symbol
 _atom_site_label
 _atom_site_symmetry_multiplicity
 _atom_site_fract_x
 _atom_site_fract_y
 _atom_site_fract_z
 _atom_site_occupancy
  Mg  Mg0  1  0.00000000  0.73881200  0.08479000  1
  Mg  Mg1  1  0.00000000  0.26118800  0.08479000  1
  Mg  Mg2  1  0.00000000  0.00000000  0.32850600  1
  Mg  Mg3  1  0.50000000  0.25791600  0.42094300  1
  Mg  Mg4  1  0.50000000  0.74208400  0.42094300  1
  Mg  Mg5  1  0.50000000  0.00000000  0.16955600  1
  Mg  Mg6  1  0.00000000  0.23881200  0.58479000  1
  Mg  Mg7  1  0.00000000  0.76118800  0.58479000  1
  Mg  Mg8  1  0.00000000  0.50000000  0.82850600  1
  Mg  Mg9  1  0.50000000  0.75791600  0.92094300  1
  Mg  Mg10  1  0.50000000  0.24208400  0.92094300  1
  Mg  Mg11  1  0.50000000  0.50000000  0.66955600  1
  Ni  Ni0  1  0.00000000  0.50000000  0.30326300  1
  Ni  Ni1  1  0.00000000  0.00000000  0.80326300  1
  Mo  Mo0  1  0.50000000  0.50000000  0.18721100  1
  Mo  Mo1  1  0.50000000  0.00000000  0.68721100  1
loop_
_geom_bond_atom_site_label_1
_geom_bond_atom_site_label_2
_geom_bond_distance
_geom_bond_site_symmetry_2
Mg0 Ni0 2.734944 1_555
Mg0 Mg1 2.804206 1_555
Mg0 Mg9 2.944171 1_554
Mg0 Mg9 2.944171 1_454
Mg0 Mo0 2.954990 1_455
Mg0 Mo0 2.954990 1_555
Mg0 Mg5 2.955646 1_565
Mg0 Mg5 2.955646 1_465
Mg0 Mg2 3.035358 1_565
Mg0 Mg1 3.066953 1_565
Mg0 Mg8 3.090906 1_554
Mg1 Ni0 2.734944 1_555
Mg1 Mg10 2.944171 1_554
Mg1 Mg10 2.944171 1_454
Mg1 Mo0 2.954990 1_555
Mg1 Mo0 2.954990 1_455
Mg1 Mg5 2.955646 1_455
Mg1 Mg5 2.955646 1_555
Mg1 Mg2 3.035358 1_555
Mg1 Mg8 3.090906 1_554
Mg2 Mg5 2.910833 1_555
Mg2 Mg5 2.910833 1_455
Mg2 Ni0 2.948091 1_555
Mg2 Ni0 2.948091 1_545
Mg2 Mg3 2.972260 1_555
Mg2 Mg4 2.972260 1_445
Mg2 Mg4 2.972260 1_545
Mg2 Mg3 2.972260 1_455
Mg2 Mg7 3.090906 1_545
Mg2 Mg6 3.090906 1_555
Mg3 Mg4 2.842627 1_555
Mg3 Mo0 2.886399 1_555
Mg3 Mg6 2.944171 1_555
Mg3 Mg6 2.944171 1_655
Mg3 Mg4 3.028532 1_545
Mg3 Ni0 3.028894 1_655
Mg3 Ni0 3.028894 1_555
Mg3 Mg5 3.097355 1_555
Mg3 Mo1 3.237826 1_555
Mg4 Mo0 2.886399 1_555
Mg4 Mg7 2.944171 1_655
Mg4 Mg7 2.944171 1_555
Mg4 Ni0 3.028894 1_655
Mg4 Ni0 3.028894 1_555
Mg4 Mg5 3.097355 1_565
Mg4 Mo1 3.237826 1_565
Mg5 Mo0 2.941706 1_545
Mg5 Mo0 2.941706 1_555
Mg5 Mg9 3.026633 1_544
Mg6 Ni1 2.734944 1_555
Mg6 Mg7 2.804206 1_545
Mg6 Mo1 2.954990 1_555
Mg6 Mo1 2.954990 1_455
Mg6 Mg8 3.035358 1_555
Mg6 Mg7 3.066953 1_555
Mg7 Ni1 2.734944 1_565
Mg7 Mo1 2.954990 1_565
Mg7 Mo1 2.954990 1_465
Mg7 Mg8 3.035358 1_555
Mg8 Ni1 2.948091 1_555
Mg8 Ni1 2.948091 1_565
Mg8 Mg9 2.972260 1_455
Mg8 Mg9 2.972260 1_555
Mg9 Mo1 2.886399 1_565
Mg9 Ni1 3.028894 1_565
Mg9 Ni1 3.028894 1_665
Mg9 Mo0 3.237826 1_556
Mg10 Mg9 2.842627 1_545
Mg10 Mo1 2.886399 1_555
Mg10 Mg8 2.972260 1_555
Mg10 Mg8 2.972260 1_655
Mg10 Mg5 3.026633 1_556
Mg10 Mg9 3.028532 1_555
Mg10 Ni1 3.028894 1_555
Mg10 Ni1 3.028894 1_655
Mg10 Mg11 3.097355 1_555
Mg10 Mo0 3.237826 1_556
Mg11 Mg8 2.910833 1_655
Mg11 Mg8 2.910833 1_555
Mg11 Mo1 2.941706 1_555
Mg11 Mo1 2.941706 1_565
Mg11 Mg7 2.955646 1_655
Mg11 Mg6 2.955646 1_555
Mg11 Mg7 2.955646 1_555
Mg11 Mg6 2.955646 1_655
Mg11 Mg3 3.026633 1_555
Mg11 Mg4 3.026633 1_555
Mg11 Mg9 3.097355 1_555
Mo0 Ni0 2.666478 1_655
Mo0 Ni0 2.666478 1_555
Mo1 Ni1 2.666478 1_555
Mo1 Ni1 2.666478 1_655
