# generated using pymatgen
data_Ti3N4
_symmetry_space_group_name_H-M   'P 1'
_cell_length_a   3.01233800
_cell_length_b   9.37639000
_cell_length_c   10.03035300
_cell_angle_alpha   90.00000000
_cell_angle_beta   90.00000000
_cell_angle_gamma   90.00000000
_symmetry_Int_Tables_number   1
_chemical_formula_structural   Ti3N4
_chemical_formula_sum   'Ti12 N16'
_cell_volume   283.30587511
_cell_formula_units_Z   4
loop_
 _symmetry_equiv_pos_site_id
 _symmetry_equiv_pos_as_xyz
  1  'x, y, z'
loop_
 _atom_site_type_symbol
 _atom_site_label
 _atom_site_symmetry_multiplicity
 _atom_site_fract_x
 _atom_site_fract_y
 _atom_site_fract_z
 _atom_site_occupancy
  Ti  Ti0  1  0.25000000  0.92988000  0.12501300  1
  Ti  Ti1  1  0.25000000  0.42988000  0.37498700  1
  Ti  Ti2  1  0.75000000  0.07012000  0.87498700  1
  Ti  Ti3  1  0.75000000  0.57012000  0.62501300  1
  Ti  Ti4  1  0.25000000  0.89069800  0.59301900  1
  Ti  Ti5  1  0.25000000  0.39069800  0.90698100  1
  Ti  Ti6  1  0.75000000  0.10930200  0.40698100  1
  Ti  Ti7  1  0.75000000  0.60930200  0.09301900  1
  Ti  Ti8  1  0.25000000  0.77718600  0.85631200  1
  Ti  Ti9  1  0.25000000  0.27718600  0.64368800  1
  Ti  Ti10  1  0.75000000  0.22281400  0.14368800  1
  Ti  Ti11  1  0.75000000  0.72281400  0.35631200  1
  N  N0  1  0.25000000  0.73959400  0.21413800  1
  N  N1  1  0.25000000  0.23959400  0.28586200  1
  N  N2  1  0.75000000  0.26040600  0.78586200  1
  N  N3  1  0.75000000  0.76040600  0.71413800  1
  N  N4  1  0.25000000  0.64144300  0.48408100  1
  N  N5  1  0.25000000  0.14144300  0.01591900  1
  N  N6  1  0.75000000  0.35855700  0.51591900  1
  N  N7  1  0.75000000  0.85855700  0.98408100  1
  N  N8  1  0.25000000  0.49136400  0.72569600  1
  N  N9  1  0.25000000  0.99136400  0.77430400  1
  N  N10  1  0.75000000  0.50863600  0.27430400  1
  N  N11  1  0.75000000  0.00863600  0.22569600  1
  N  N12  1  0.25000000  0.10399300  0.53283100  1
  N  N13  1  0.25000000  0.60399300  0.96716900  1
  N  N14  1  0.75000000  0.89600700  0.46716900  1
  N  N15  1  0.75000000  0.39600700  0.03283100  1
loop_
_geom_bond_atom_site_label_1
_geom_bond_atom_site_label_2
_geom_bond_distance
_geom_bond_site_symmetry_2
N0 Ti0 1.995623 1_555
N0 Ti11 2.080128 1_555
N0 Ti11 2.080128 1_455
N0 Ti7 2.288432 1_455
N0 Ti7 2.288432 1_555
N1 Ti1 1.995623 1_555
N1 Ti10 2.080128 1_455
N1 Ti10 2.080128 1_555
N1 Ti6 2.288432 1_455
N1 Ti6 2.288432 1_555
N2 Ti2 1.995623 1_555
N2 Ti9 2.080128 1_655
N2 Ti9 2.080128 1_555
N2 Ti5 2.288432 1_555
N2 Ti5 2.288432 1_655
N3 Ti3 1.995623 1_555
N3 Ti8 2.080128 1_655
N3 Ti8 2.080128 1_555
N3 Ti4 2.288432 1_655
N3 Ti4 2.288432 1_555
N4 Ti11 2.119689 1_555
N4 Ti11 2.119689 1_455
N4 Ti3 2.171182 1_455
N4 Ti3 2.171182 1_555
N4 Ti1 2.265489 1_555
N4 Ti4 2.579934 1_555
N5 Ti10 2.119689 1_455
N5 Ti10 2.119689 1_555
N5 Ti2 2.171182 1_454
N5 Ti2 2.171182 1_554
N5 Ti0 2.265489 1_545
N5 Ti5 2.579934 1_554
N6 Ti9 2.119689 1_655
N6 Ti9 2.119689 1_555
N6 Ti1 2.171182 1_555
N6 Ti1 2.171182 1_655
N6 Ti3 2.265489 1_555
N6 Ti6 2.579934 1_555
N7 Ti8 2.119689 1_655
N7 Ti8 2.119689 1_555
N7 Ti0 2.171182 1_556
N7 Ti0 2.171182 1_656
N7 Ti2 2.265489 1_565
N7 Ti7 2.579934 1_556
N8 Ti3 1.957988 1_455
N8 Ti3 1.957988 1_555
N8 Ti5 2.048737 1_555
N8 Ti9 2.170151 1_555
N9 Ti2 1.957988 1_465
N9 Ti2 1.957988 1_565
N9 Ti4 2.048737 1_555
N9 Ti8 2.170151 1_555
N10 Ti1 1.957988 1_555
N10 Ti1 1.957988 1_655
N10 Ti7 2.048737 1_555
N10 Ti11 2.170151 1_555
N11 Ti0 1.957988 1_645
N11 Ti0 1.957988 1_545
N11 Ti6 2.048737 1_555
N11 Ti10 2.170151 1_555
N12 Ti6 1.965827 1_555
N12 Ti6 1.965827 1_455
N12 Ti9 1.968129 1_555
N12 Ti4 2.089069 1_545
N13 Ti7 1.965827 1_556
N13 Ti7 1.965827 1_456
N13 Ti8 1.968129 1_555
N13 Ti5 2.089069 1_555
N14 Ti4 1.965827 1_555
N14 Ti4 1.965827 1_655
N14 Ti11 1.968129 1_555
N14 Ti6 2.089069 1_565
N15 Ti5 1.965827 1_654
N15 Ti5 1.965827 1_554
N15 Ti10 1.968129 1_555
N15 Ti7 2.089069 1_555
