# generated using pymatgen
data_CoSi7N10
_symmetry_space_group_name_H-M   'P 1'
_cell_length_a   6.66472830
_cell_length_b   6.92165000
_cell_length_c   9.70535196
_cell_angle_alpha   90.00000000
_cell_angle_beta   104.32505288
_cell_angle_gamma   90.00000000
_symmetry_Int_Tables_number   1
_chemical_formula_structural   CoSi7N10
_chemical_formula_sum   'Co2 Si14 N20'
_cell_volume   433.79620970
_cell_formula_units_Z   2
loop_
 _symmetry_equiv_pos_site_id
 _symmetry_equiv_pos_as_xyz
  1  'x, y, z'
loop_
 _atom_site_type_symbol
 _atom_site_label
 _atom_site_symmetry_multiplicity
 _atom_site_fract_x
 _atom_site_fract_y
 _atom_site_fract_z
 _atom_site_occupancy
  Co  Co0  1  0.01130100  0.89834500  0.70761300  1
  Co  Co1  1  0.01130100  0.10165500  0.20761300  1
  Si  Si0  1  0.54048700  0.98226900  0.82037900  1
  Si  Si1  1  0.54048700  0.01773100  0.32037900  1
  Si  Si2  1  0.34605400  0.02087100  0.01840700  1
  Si  Si3  1  0.34605400  0.97912900  0.51840700  1
  Si  Si4  1  0.10980500  0.40259400  0.07486900  1
  Si  Si5  1  0.10980500  0.59740600  0.57486900  1
  Si  Si6  1  0.65824000  0.36121400  0.98895400  1
  Si  Si7  1  0.65824000  0.63878600  0.48895400  1
  Si  Si8  1  0.84433700  0.61775900  0.80843800  1
  Si  Si9  1  0.84433700  0.38224100  0.30843800  1
  Si  Si10  1  0.29715200  0.61847200  0.88107400  1
  Si  Si11  1  0.29715200  0.38152800  0.38107400  1
  Si  Si12  1  0.48615200  0.36663200  0.68450000  1
  Si  Si13  1  0.48615200  0.63336800  0.18450000  1
  N  N0  1  0.74944500  0.84777300  0.80989400  1
  N  N1  1  0.74944500  0.15222700  0.30989400  1
  N  N2  1  0.54687900  0.13724500  0.96442500  1
  N  N3  1  0.54687900  0.86275500  0.46442500  1
  N  N4  1  0.30858500  0.86995200  0.86240700  1
  N  N5  1  0.30858500  0.13004800  0.36240700  1
  N  N6  1  0.15297500  0.15994700  0.04994100  1
  N  N7  1  0.15297500  0.84005300  0.54994100  1
  N  N8  1  0.28995900  0.50506500  0.72229100  1
  N  N9  1  0.28995900  0.49493500  0.22229100  1
  N  N10  1  0.44649500  0.12044800  0.66764700  1
  N  N11  1  0.44649500  0.87955200  0.16764700  1
  N  N12  1  0.87951400  0.38250000  0.13040200  1
  N  N13  1  0.87951400  0.61750000  0.63040200  1
  N  N14  1  0.07529800  0.56805000  0.93523800  1
  N  N15  1  0.07529800  0.43195000  0.43523800  1
  N  N16  1  0.70026400  0.41418800  0.82292100  1
  N  N17  1  0.70026400  0.58581200  0.32292100  1
  N  N18  1  0.49935800  0.54385600  0.01989900  1
  N  N19  1  0.49935800  0.45614400  0.51989900  1
loop_
_geom_bond_atom_site_label_1
_geom_bond_atom_site_label_2
_geom_bond_distance
_geom_bond_site_symmetry_2
Co0 N7 2.027572 1_555
Co0 N4 2.179056 1_555
Co0 N13 2.187712 1_455
Co0 N0 2.238510 1_455
Co1 N6 2.027572 1_555
Co1 N5 2.179056 1_555
Co1 N12 2.187712 1_455
Co1 N1 2.238510 1_455
N0 Si0 1.698997 1_555
N0 Si8 1.714438 1_555
N1 Si1 1.698997 1_555
N1 Si9 1.714438 1_555
N2 Si6 1.709771 1_555
N2 Si2 1.749786 1_556
N2 Si0 1.754269 1_545
N3 Si7 1.709771 1_555
N3 Si3 1.749786 1_555
N3 Si1 1.754269 1_565
N4 Si10 1.753666 1_555
N4 Si2 1.805208 1_566
N4 Si0 1.863194 1_555
N5 Si11 1.753666 1_555
N5 Si3 1.805208 1_545
N5 Si1 1.863194 1_555
N6 Si2 1.694438 1_555
N6 Si4 1.731051 1_555
N7 Si3 1.694438 1_555
N7 Si5 1.731051 1_555
N8 Si10 1.719514 1_555
N8 Si12 1.731967 1_555
N8 Si5 1.745618 1_555
N9 Si11 1.719514 1_555
N9 Si13 1.731967 1_555
N9 Si4 1.745618 1_555
N10 Si12 1.725929 1_555
N10 Si3 1.738692 1_545
N10 Si0 1.744974 1_545
N11 Si13 1.725929 1_555
N11 Si2 1.738692 1_565
N11 Si1 1.744974 1_565
N12 Si4 1.753531 1_655
N12 Si6 1.754795 1_554
N12 Si9 1.800298 1_555
N13 Si5 1.753531 1_655
N13 Si7 1.754795 1_555
N13 Si8 1.800298 1_555
N14 Si10 1.723084 1_555
N14 Si4 1.745479 1_556
N14 Si8 1.750681 1_455
N15 Si11 1.723084 1_555
N15 Si5 1.745479 1_555
N15 Si9 1.750681 1_455
N16 Si8 1.730306 1_555
N16 Si12 1.732286 1_555
N16 Si6 1.741511 1_555
N17 Si9 1.730306 1_555
N17 Si13 1.732286 1_555
N17 Si7 1.741511 1_555
N18 Si6 1.722502 1_554
N18 Si10 1.731969 1_554
N18 Si13 1.735866 1_555
N19 Si7 1.722502 1_555
N19 Si11 1.731969 1_555
N19 Si12 1.735866 1_555
