# generated using pymatgen
data_Mn3Co2As3Rh
_symmetry_space_group_name_H-M   'P 1'
_cell_length_a   3.62919900
_cell_length_b   6.20298680
_cell_length_c   6.20298804
_cell_angle_alpha   61.20471649
_cell_angle_beta   90.00000000
_cell_angle_gamma   90.00000000
_symmetry_Int_Tables_number   1
_chemical_formula_structural   Mn3Co2As3Rh
_chemical_formula_sum   'Mn3 Co2 As3 Rh1'
_cell_volume   122.37377502
_cell_formula_units_Z   1
loop_
 _symmetry_equiv_pos_site_id
 _symmetry_equiv_pos_as_xyz
  1  'x, y, z'
loop_
 _atom_site_type_symbol
 _atom_site_label
 _atom_site_symmetry_multiplicity
 _atom_site_fract_x
 _atom_site_fract_y
 _atom_site_fract_z
 _atom_site_occupancy
  Mn  Mn0  1  0.50000000  0.59355900  0.40644100  1
  Mn  Mn1  1  0.50000000  0.41204000  0.00139200  1
  Mn  Mn2  1  0.50000000  0.99860800  0.58796000  1
  Co  Co0  1  0.00000000  0.74179100  0.00253100  1
  Co  Co1  1  0.00000000  0.99746900  0.25820900  1
  As  As0  1  0.50000000  0.98335800  0.01664200  1
  As  As1  1  0.00000000  0.33708900  0.31985500  1
  As  As2  1  0.00000000  0.68014500  0.66291100  1
  Rh  Rh0  1  0.00000000  0.25584200  0.74415800  1
loop_
_geom_bond_atom_site_label_1
_geom_bond_atom_site_label_2
_geom_bond_distance
_geom_bond_site_symmetry_2
Mn0 Rh0 2.800351 1_655
Mn0 Rh0 2.800351 1_555
Mn1 Rh0 2.875217 1_654
Mn1 Rh0 2.875217 1_554
Mn2 Rh0 2.875217 1_565
Mn2 Rh0 2.875217 1_665
Co0 Mn1 2.736891 1_555
Co0 Mn1 2.736891 1_455
Co0 Rh0 2.795161 1_564
Co0 Mn0 2.862897 1_555
Co0 Mn0 2.862897 1_455
Co0 Mn2 2.914965 1_454
Co0 Mn2 2.914965 1_554
Co1 Mn2 2.736891 1_455
Co1 Mn2 2.736891 1_555
Co1 Rh0 2.795161 1_564
Co1 Mn0 2.862897 1_555
Co1 Mn0 2.862897 1_455
Co1 Mn1 2.914965 1_565
Co1 Mn1 2.914965 1_465
As0 Co0 2.381617 1_655
As0 Co0 2.381617 1_555
As0 Co1 2.381617 1_555
As0 Co1 2.381617 1_655
As0 Mn0 2.461812 1_555
As0 Rh0 2.500852 1_664
As0 Rh0 2.500852 1_564
As0 Mn1 2.614858 1_565
As0 Mn2 2.614859 1_554
As1 Co1 2.315228 1_545
As1 Co0 2.327249 1_555
As1 Rh0 2.429670 1_555
As1 Mn1 2.554692 1_555
As1 Mn1 2.554692 1_455
As1 Mn0 2.633493 1_455
As1 Mn0 2.633493 1_555
As1 Mn2 2.665145 1_445
As1 Mn2 2.665145 1_545
As2 Co0 2.315229 1_556
As2 Co1 2.327249 1_555
As2 Rh0 2.429669 1_555
As2 Mn2 2.554691 1_555
As2 Mn2 2.554691 1_455
As2 Mn0 2.633493 1_455
As2 Mn0 2.633493 1_555
As2 Mn1 2.665145 1_456
As2 Mn1 2.665145 1_556
