# generated using pymatgen
data_Sc2Au
_symmetry_space_group_name_H-M   'P 1'
_cell_length_a   4.67341103
_cell_length_b   6.56286479
_cell_length_c   8.35239846
_cell_angle_alpha   90.00000000
_cell_angle_beta   90.00000000
_cell_angle_gamma   90.00000000
_symmetry_Int_Tables_number   1
_chemical_formula_structural   Sc2Au
_chemical_formula_sum   'Sc8 Au4'
_cell_volume   256.17611831
_cell_formula_units_Z   4
loop_
 _symmetry_equiv_pos_site_id
 _symmetry_equiv_pos_as_xyz
  1  'x, y, z'
loop_
 _atom_site_type_symbol
 _atom_site_label
 _atom_site_symmetry_multiplicity
 _atom_site_fract_x
 _atom_site_fract_y
 _atom_site_fract_z
 _atom_site_occupancy
  Sc  Sc0  1  0.75000000  0.84720826  0.92247591  1
  Sc  Sc1  1  0.25000000  0.15279174  0.07752409  1
  Sc  Sc2  1  0.25000000  0.65279174  0.42247591  1
  Sc  Sc3  1  0.75000000  0.34720826  0.57752409  1
  Sc  Sc4  1  0.75000000  0.98283663  0.31564574  1
  Sc  Sc5  1  0.25000000  0.01716337  0.68435426  1
  Sc  Sc6  1  0.25000000  0.51716337  0.81564574  1
  Sc  Sc7  1  0.75000000  0.48283663  0.18435426  1
  Au  Au0  1  0.75000000  0.75786542  0.59890272  1
  Au  Au1  1  0.25000000  0.24213458  0.40109728  1
  Au  Au2  1  0.25000000  0.74213458  0.09890272  1
  Au  Au3  1  0.75000000  0.25786542  0.90109728  1
loop_
_geom_bond_atom_site_label_1
_geom_bond_atom_site_label_2
_geom_bond_distance
_geom_bond_site_symmetry_2
Au0 Sc3 2.700996 1_555
Au0 Sc0 2.765486 1_555
Au0 Sc4 2.788779 1_555
Au0 Sc2 2.847311 1_555
Au0 Sc2 2.847311 1_655
Au0 Sc5 2.977500 1_565
Au0 Sc5 2.977500 1_665
Au0 Sc6 3.351552 1_655
Au0 Sc6 3.351552 1_555
Au1 Sc2 2.700996 1_555
Au1 Sc1 2.765486 1_555
Au1 Sc5 2.788779 1_555
Au1 Sc3 2.847311 1_555
Au1 Sc3 2.847311 1_455
Au1 Sc4 2.977500 1_445
Au1 Sc4 2.977500 1_545
Au1 Sc7 3.351552 1_555
Au1 Sc7 3.351552 1_455
Au2 Sc1 2.700996 1_565
Au2 Sc2 2.765486 1_555
Au2 Sc6 2.788779 1_554
Au2 Sc0 2.847311 1_554
Au2 Sc0 2.847311 1_454
Au2 Sc7 2.977500 1_555
Au2 Sc7 2.977500 1_455
Au2 Sc4 3.351552 1_455
Au2 Sc4 3.351552 1_555
Au3 Sc0 2.700996 1_545
Au3 Sc3 2.765486 1_555
Au3 Sc7 2.788779 1_556
Au3 Sc1 2.847311 1_556
Au3 Sc1 2.847311 1_656
Au3 Sc6 2.977500 1_655
Au3 Sc6 2.977500 1_555
Au3 Sc5 3.351552 1_555
Au3 Sc5 3.351552 1_655
