# generated using pymatgen
data_Mn2Cd9N8
_symmetry_space_group_name_H-M   'P 1'
_cell_length_a   9.38496975
_cell_length_b   4.62722835
_cell_length_c   7.42612155
_cell_angle_alpha   90.00000547
_cell_angle_beta   78.47332634
_cell_angle_gamma   75.72813135
_symmetry_Int_Tables_number   1
_chemical_formula_structural   Mn2Cd9N8
_chemical_formula_sum   'Mn2 Cd9 N8'
_cell_volume   305.82102788
_cell_formula_units_Z   1
loop_
 _symmetry_equiv_pos_site_id
 _symmetry_equiv_pos_as_xyz
  1  'x, y, z'
loop_
 _atom_site_type_symbol
 _atom_site_label
 _atom_site_symmetry_multiplicity
 _atom_site_fract_x
 _atom_site_fract_y
 _atom_site_fract_z
 _atom_site_occupancy
  Mn  Mn0  1  0.41356400  0.79321800  0.77243300  1
  Mn  Mn1  1  0.58643600  0.20678200  0.22756700  1
  Cd  Cd0  1  0.00000000  0.50000000  0.50000000  1
  Cd  Cd1  1  0.08434300  0.95782900  0.79772700  1
  Cd  Cd2  1  0.91565700  0.04217100  0.20227300  1
  Cd  Cd3  1  0.68010300  0.65994800  0.41336500  1
  Cd  Cd4  1  0.31989700  0.34005200  0.58663500  1
  Cd  Cd5  1  0.79644600  0.60177600  0.94185400  1
  Cd  Cd6  1  0.20355400  0.39822400  0.05814600  1
  Cd  Cd7  1  0.40430700  0.79784600  0.23748500  1
  Cd  Cd8  1  0.59569300  0.20215400  0.76251500  1
  N  N0  1  0.28565700  0.85717100  0.98783000  1
  N  N1  1  0.71434300  0.14282900  0.01217000  1
  N  N2  1  0.32600600  0.83699700  0.57975700  1
  N  N3  1  0.67399400  0.16300300  0.42024300  1
  N  N4  1  0.61215800  0.69392100  0.74219400  1
  N  N5  1  0.38784200  0.30607900  0.25780600  1
  N  N6  1  0.95856800  0.52071600  0.22953600  1
  N  N7  1  0.04143200  0.47928400  0.77046400  1
loop_
_geom_bond_atom_site_label_1
_geom_bond_atom_site_label_2
_geom_bond_distance
_geom_bond_site_symmetry_2
Mn0 N0 1.773310 1_555
Mn0 N4 1.773639 1_555
Mn0 N2 1.775213 1_555
Mn1 N1 1.773310 1_555
Mn1 N5 1.773639 1_555
Mn1 N3 1.775213 1_555
Cd0 N6 2.118535 1_455
Cd0 N7 2.118535 1_555
Cd1 N7 2.361927 1_565
Cd1 N7 2.361932 1_555
Cd1 N2 2.446251 1_555
Cd1 N0 2.532102 1_555
Cd2 N6 2.361927 1_545
Cd2 N6 2.361932 1_555
Cd2 N3 2.446251 1_555
Cd2 N1 2.532102 1_555
Cd3 N3 2.314590 1_555
Cd3 N3 2.314594 1_565
Cd3 N4 2.392194 1_555
Cd3 N6 2.617731 1_555
Cd4 N2 2.314590 1_555
Cd4 N2 2.314594 1_545
Cd4 N5 2.392194 1_555
Cd4 N7 2.617731 1_555
Cd5 N7 2.327105 1_655
Cd5 N1 2.454034 1_556
Cd5 N1 2.454048 1_566
Cd5 N4 2.456167 1_555
Cd5 N6 2.835030 1_556
Cd6 N6 2.327105 1_455
Cd6 N0 2.454034 1_554
Cd6 N0 2.454048 1_544
Cd6 N5 2.456167 1_555
Cd6 N7 2.835030 1_554
Cd7 N5 2.321353 1_555
Cd7 N5 2.321358 1_565
Cd7 N0 2.329557 1_554
Cd7 N2 2.494240 1_555
Cd8 N4 2.321353 1_555
Cd8 N4 2.321358 1_545
Cd8 N1 2.329557 1_556
Cd8 N3 2.494240 1_555
