# generated using pymatgen
data_Zn(AgO2)2
_symmetry_space_group_name_H-M   'P 1'
_cell_length_a   5.59297800
_cell_length_b   6.33404456
_cell_length_c   11.02884404
_cell_angle_alpha   101.97262052
_cell_angle_beta   91.45985728
_cell_angle_gamma   89.78268591
_symmetry_Int_Tables_number   1
_chemical_formula_structural   Zn(AgO2)2
_chemical_formula_sum   'Zn4 Ag8 O16'
_cell_volume   382.08605131
_cell_formula_units_Z   4
loop_
 _symmetry_equiv_pos_site_id
 _symmetry_equiv_pos_as_xyz
  1  'x, y, z'
loop_
 _atom_site_type_symbol
 _atom_site_label
 _atom_site_symmetry_multiplicity
 _atom_site_fract_x
 _atom_site_fract_y
 _atom_site_fract_z
 _atom_site_occupancy
  Zn  Zn0  1  0.80086500  0.74825100  0.24984900  1
  Zn  Zn1  1  0.19913500  0.25174900  0.75015100  1
  Zn  Zn2  1  0.50841500  0.75229400  0.74965200  1
  Zn  Zn3  1  0.49158500  0.24770600  0.25034800  1
  Ag  Ag0  1  0.54773100  0.27004100  0.53517100  1
  Ag  Ag1  1  0.54513300  0.23205800  0.96861500  1
  Ag  Ag2  1  0.45226900  0.72995900  0.46482900  1
  Ag  Ag3  1  0.45486700  0.76794200  0.03138500  1
  Ag  Ag4  1  0.00000000  0.50000000  0.50000000  1
  Ag  Ag5  1  0.00000000  0.00000000  0.00000000  1
  Ag  Ag6  1  0.00000000  0.00000000  0.50000000  1
  Ag  Ag7  1  0.00000000  0.50000000  0.00000000  1
  O  O0  1  0.90909400  0.29038900  0.61768000  1
  O  O1  1  0.89564100  0.20881100  0.88460600  1
  O  O2  1  0.09090600  0.70961100  0.38232000  1
  O  O3  1  0.10435900  0.79118900  0.11539400  1
  O  O4  1  0.26262400  0.28162500  0.41422000  1
  O  O5  1  0.26581100  0.22229100  0.08755300  1
  O  O6  1  0.73737600  0.71837500  0.58578000  1
  O  O7  1  0.73418900  0.77770900  0.91244700  1
  O  O8  1  0.62522900  0.53605000  0.32684900  1
  O  O9  1  0.63815200  0.96588200  0.16931300  1
  O  O10  1  0.28700600  0.94283000  0.60433200  1
  O  O11  1  0.27756800  0.54690200  0.89500900  1
  O  O12  1  0.37477100  0.46395000  0.67315100  1
  O  O13  1  0.36184800  0.03411800  0.83068700  1
  O  O14  1  0.71299400  0.05717000  0.39566800  1
  O  O15  1  0.72243200  0.45309800  0.10499100  1
loop_
_geom_bond_atom_site_label_1
_geom_bond_atom_site_label_2
_geom_bond_distance
_geom_bond_site_symmetry_2
Ag0 O12 2.012617 1_555
Ag0 O14 2.059573 1_555
Ag0 O4 2.063706 1_555
Ag0 O0 2.188402 1_555
Ag0 O10 2.781956 1_545
Ag1 O13 2.018859 1_555
Ag1 O15 2.065582 1_556
Ag1 O5 2.074591 1_556
Ag1 O1 2.181051 1_555
Ag1 O11 2.731771 1_555
Ag2 O8 2.012617 1_555
Ag2 O10 2.059573 1_555
Ag2 O6 2.063706 1_555
Ag2 O2 2.188402 1_555
Ag2 O14 2.781956 1_565
Ag3 O9 2.018859 1_555
Ag3 O11 2.065582 1_554
Ag3 O7 2.074591 1_554
Ag3 O3 2.181051 1_555
Ag3 O15 2.731771 1_555
Ag4 O2 2.111729 1_555
Ag4 O0 2.111729 1_455
Ag4 O4 2.116188 1_555
Ag4 O6 2.116188 1_455
Ag5 O1 2.089096 1_454
Ag5 O3 2.089096 1_545
Ag5 O5 2.122199 1_555
Ag5 O7 2.122199 1_444
Ag6 O10 2.026383 1_545
Ag6 O14 2.026383 1_455
Ag6 O2 2.088598 1_545
Ag6 O0 2.088598 1_455
Ag6 O4 2.650550 1_555
Ag6 O6 2.650550 1_445
Ag7 O15 2.019137 1_455
Ag7 O11 2.019137 1_554
Ag7 O3 2.087732 1_555
Ag7 O1 2.087732 1_454
Ag7 O5 2.616959 1_555
Ag7 O7 2.616959 1_454
O0 Zn1 2.202390 1_655
O1 Zn1 2.335226 1_655
O2 Zn0 2.202390 1_455
O3 Zn0 2.335226 1_455
O4 Zn3 2.215213 1_555
O5 Zn3 2.147129 1_555
O6 Zn2 2.215213 1_555
O7 Zn2 2.147129 1_555
O8 Zn3 1.986239 1_555
O8 Zn0 2.004698 1_555
O9 Zn0 1.993647 1_555
O9 Zn3 2.005388 1_565
O10 Zn1 2.320344 1_565
O10 Zn2 2.499743 1_555
O11 Zn1 2.229625 1_555
O12 Zn2 1.986239 1_555
O12 Zn1 2.004698 1_555
O13 Zn1 1.993647 1_555
O13 Zn2 2.005388 1_545
O14 Zn0 2.320344 1_545
O14 Zn3 2.499743 1_555
O15 Zn0 2.229625 1_555
