# generated using pymatgen
data_NaIrN2
_symmetry_space_group_name_H-M   'P 1'
_cell_length_a   5.56077300
_cell_length_b   11.21492200
_cell_length_c   15.25989600
_cell_angle_alpha   90.00000000
_cell_angle_beta   90.00000000
_cell_angle_gamma   90.00000000
_symmetry_Int_Tables_number   1
_chemical_formula_structural   NaIrN2
_chemical_formula_sum   'Na16 Ir16 N32'
_cell_volume   951.66259122
_cell_formula_units_Z   16
loop_
 _symmetry_equiv_pos_site_id
 _symmetry_equiv_pos_as_xyz
  1  'x, y, z'
loop_
 _atom_site_type_symbol
 _atom_site_label
 _atom_site_symmetry_multiplicity
 _atom_site_fract_x
 _atom_site_fract_y
 _atom_site_fract_z
 _atom_site_occupancy
  Na  Na0  1  0.27312100  0.99851500  0.44673100  1
  Na  Na1  1  0.77312100  0.50148500  0.55326900  1
  Na  Na2  1  0.72687900  0.49851500  0.05326900  1
  Na  Na3  1  0.22687900  0.00148500  0.94673100  1
  Na  Na4  1  0.72687900  0.00148500  0.55326900  1
  Na  Na5  1  0.22687900  0.49851500  0.44673100  1
  Na  Na6  1  0.27312100  0.50148500  0.94673100  1
  Na  Na7  1  0.77312100  0.99851500  0.05326900  1
  Na  Na8  1  0.25970900  0.27470600  0.31803800  1
  Na  Na9  1  0.75970900  0.22529400  0.68196200  1
  Na  Na10  1  0.74029100  0.77470600  0.18196200  1
  Na  Na11  1  0.24029100  0.72529400  0.81803800  1
  Na  Na12  1  0.74029100  0.72529400  0.68196200  1
  Na  Na13  1  0.24029100  0.77470600  0.31803800  1
  Na  Na14  1  0.25970900  0.22529400  0.81803800  1
  Na  Na15  1  0.75970900  0.27470600  0.18196200  1
  Ir  Ir0  1  0.79922100  0.01900300  0.30498700  1
  Ir  Ir1  1  0.29922100  0.48099700  0.69501300  1
  Ir  Ir2  1  0.20077900  0.51900300  0.19501300  1
  Ir  Ir3  1  0.70077900  0.98099700  0.80498700  1
  Ir  Ir4  1  0.20077900  0.98099700  0.69501300  1
  Ir  Ir5  1  0.70077900  0.51900300  0.30498700  1
  Ir  Ir6  1  0.79922100  0.48099700  0.80498700  1
  Ir  Ir7  1  0.29922100  0.01900300  0.19501300  1
  Ir  Ir8  1  0.74977200  0.26962600  0.43417100  1
  Ir  Ir9  1  0.24977200  0.23037400  0.56582900  1
  Ir  Ir10  1  0.25022800  0.76962600  0.06582900  1
  Ir  Ir11  1  0.75022800  0.73037400  0.93417100  1
  Ir  Ir12  1  0.25022800  0.73037400  0.56582900  1
  Ir  Ir13  1  0.75022800  0.76962600  0.43417100  1
  Ir  Ir14  1  0.74977200  0.23037400  0.93417100  1
  Ir  Ir15  1  0.24977200  0.26962600  0.06582900  1
  N  N0  1  0.99914200  0.32176200  0.50973500  1
  N  N1  1  0.49914200  0.17823800  0.49026500  1
  N  N2  1  0.00085800  0.82176200  0.99026500  1
  N  N3  1  0.50085800  0.67823800  0.00973500  1
  N  N4  1  0.00085800  0.67823800  0.49026500  1
  N  N5  1  0.50085800  0.82176200  0.50973500  1
  N  N6  1  0.99914200  0.17823800  0.00973500  1
  N  N7  1  0.49914200  0.32176200  0.99026500  1
  N  N8  1  0.59041100  0.41323200  0.39518100  1
  N  N9  1  0.09041100  0.08676800  0.60481900  1
  N  N10  1  0.40958900  0.91323200  0.10481900  1
  N  N11  1  0.90958900  0.58676800  0.89518100  1
  N  N12  1  0.40958900  0.58676800  0.60481900  1
  N  N13  1  0.90958900  0.91323200  0.39518100  1
  N  N14  1  0.59041100  0.08676800  0.89518100  1
  N  N15  1  0.09041100  0.41323200  0.10481900  1
  N  N16  1  0.83703600  0.18488200  0.33004100  1
  N  N17  1  0.33703600  0.31511800  0.66995900  1
  N  N18  1  0.16296400  0.68488200  0.16995900  1
  N  N19  1  0.66296400  0.81511800  0.83004100  1
  N  N20  1  0.16296400  0.81511800  0.66995900  1
  N  N21  1  0.66296400  0.68488200  0.33004100  1
  N  N22  1  0.83703600  0.31511800  0.83004100  1
  N  N23  1  0.33703600  0.18488200  0.16995900  1
  N  N24  1  0.53952600  0.47855100  0.19896900  1
  N  N25  1  0.03952600  0.02144900  0.80103100  1
  N  N26  1  0.46047400  0.97855100  0.30103100  1
  N  N27  1  0.96047400  0.52144900  0.69896900  1
  N  N28  1  0.46047400  0.52144900  0.80103100  1
  N  N29  1  0.96047400  0.97855100  0.19896900  1
  N  N30  1  0.53952600  0.02144900  0.69896900  1
  N  N31  1  0.03952600  0.47855100  0.30103100  1
loop_
_geom_bond_atom_site_label_1
_geom_bond_atom_site_label_2
_geom_bond_distance
_geom_bond_site_symmetry_2
Ir0 N29 1.904527 1_545
Ir0 N16 1.910806 1_555
Ir0 N13 1.917840 1_545
Ir0 N26 1.938495 1_545
Ir1 N28 1.904527 1_555
Ir1 N17 1.910806 1_555
Ir1 N12 1.917840 1_555
Ir1 N27 1.938495 1_455
Ir2 N31 1.904527 1_555
Ir2 N18 1.910806 1_555
Ir2 N15 1.917840 1_555
Ir2 N24 1.938495 1_555
Ir3 N30 1.904527 1_565
Ir3 N19 1.910806 1_555
Ir3 N14 1.917840 1_565
Ir3 N25 1.938495 1_665
Ir4 N25 1.904527 1_565
Ir4 N20 1.910806 1_555
Ir4 N9 1.917840 1_565
Ir4 N30 1.938495 1_565
Ir5 N24 1.904527 1_555
Ir5 N21 1.910806 1_555
Ir5 N8 1.917840 1_555
Ir5 N31 1.938495 1_655
Ir6 N27 1.904527 1_555
Ir6 N22 1.910806 1_555
Ir6 N11 1.917840 1_555
Ir6 N28 1.938495 1_555
Ir7 N26 1.904527 1_545
Ir7 N23 1.910806 1_555
Ir7 N10 1.917840 1_545
Ir7 N29 1.938495 1_445
Ir8 N0 1.895896 1_555
Ir8 N16 1.914077 1_555
Ir8 N1 1.930167 1_555
Ir8 N8 1.932126 1_555
Ir9 N1 1.895896 1_555
Ir9 N17 1.914077 1_555
Ir9 N0 1.930167 1_455
Ir9 N9 1.932126 1_555
Ir10 N2 1.895896 1_554
Ir10 N18 1.914077 1_555
Ir10 N3 1.930167 1_555
Ir10 N10 1.932126 1_555
Ir11 N3 1.895896 1_556
Ir11 N19 1.914077 1_555
Ir11 N2 1.930167 1_655
Ir11 N11 1.932126 1_555
Ir12 N4 1.895896 1_555
Ir12 N20 1.914077 1_555
Ir12 N5 1.930167 1_555
Ir12 N12 1.932126 1_555
Ir13 N5 1.895896 1_555
Ir13 N21 1.914077 1_555
Ir13 N4 1.930167 1_655
Ir13 N13 1.932126 1_555
Ir14 N6 1.895896 1_556
Ir14 N22 1.914077 1_555
Ir14 N7 1.930167 1_555
Ir14 N14 1.932126 1_555
Ir15 N7 1.895896 1_554
Ir15 N23 1.914077 1_555
Ir15 N6 1.930167 1_455
Ir15 N15 1.932126 1_555
N0 Na1 2.466488 1_555
N0 Na5 2.541163 1_655
N1 Na0 2.466488 1_545
N1 Na4 2.541163 1_555
N2 Na3 2.466488 1_565
N2 Na7 2.541163 1_456
N3 Na2 2.466488 1_555
N3 Na6 2.541163 1_554
N4 Na5 2.466488 1_555
N4 Na1 2.541163 1_455
N5 Na4 2.466488 1_565
N5 Na0 2.541163 1_555
N6 Na7 2.466488 1_545
N6 Na3 2.541163 1_654
N7 Na6 2.466488 1_555
N7 Na2 2.541163 1_556
N8 Na5 2.370682 1_555
N8 Na8 2.679757 1_555
N8 Na1 2.798497 1_555
N9 Na4 2.370682 1_455
N9 Na9 2.679757 1_455
N9 Na0 2.798497 1_545
N10 Na7 2.370682 1_555
N10 Na10 2.679757 1_555
N10 Na3 2.798497 1_564
N11 Na6 2.370682 1_655
N11 Na11 2.679757 1_655
N11 Na2 2.798497 1_556
N12 Na1 2.370682 1_555
N12 Na12 2.679757 1_555
N12 Na5 2.798497 1_555
N13 Na0 2.370682 1_655
N13 Na13 2.679757 1_655
N13 Na4 2.798497 1_565
N14 Na3 2.370682 1_555
N14 Na14 2.679757 1_555
N14 Na7 2.798497 1_546
N15 Na2 2.370682 1_455
N15 Na15 2.679757 1_455
N15 Na6 2.798497 1_554
N16 Na15 2.511135 1_555
N16 Na8 2.563722 1_655
N17 Na14 2.511135 1_555
N17 Na9 2.563722 1_555
N18 Na13 2.511135 1_555
N18 Na10 2.563722 1_455
N19 Na12 2.511135 1_555
N19 Na11 2.563722 1_555
N20 Na11 2.511135 1_555
N20 Na12 2.563722 1_455
N21 Na10 2.511135 1_555
N21 Na13 2.563722 1_555
N22 Na9 2.511135 1_555
N22 Na14 2.563722 1_655
N23 Na8 2.511135 1_555
N23 Na15 2.563722 1_555
N24 Na2 2.465541 1_555
N24 Na15 2.606292 1_555
N25 Na3 2.465541 1_555
N25 Na14 2.606292 1_555
N26 Na0 2.465541 1_555
N26 Na13 2.606292 1_555
N27 Na1 2.465541 1_555
N27 Na12 2.606292 1_555
N28 Na6 2.465541 1_555
N28 Na11 2.606292 1_555
N29 Na7 2.465541 1_555
N29 Na10 2.606292 1_555
N30 Na4 2.465541 1_555
N30 Na9 2.606292 1_555
N31 Na5 2.465541 1_555
N31 Na8 2.606292 1_555
