# generated using pymatgen
data_K3NaU(CO4)3
_symmetry_space_group_name_H-M   'P 1'
_cell_length_a   8.37122675
_cell_length_b   9.40749247
_cell_length_c   9.42868880
_cell_angle_alpha   119.92565656
_cell_angle_beta   89.95494007
_cell_angle_gamma   90.09031609
_symmetry_Int_Tables_number   1
_chemical_formula_structural   K3NaU(CO4)3
_chemical_formula_sum   'K6 Na2 U2 C6 O24'
_cell_volume   643.53065072
_cell_formula_units_Z   2
loop_
 _symmetry_equiv_pos_site_id
 _symmetry_equiv_pos_as_xyz
  1  'x, y, z'
loop_
 _atom_site_type_symbol
 _atom_site_label
 _atom_site_symmetry_multiplicity
 _atom_site_fract_x
 _atom_site_fract_y
 _atom_site_fract_z
 _atom_site_occupancy
  K  K0  1  0.99875300  0.29064500  0.99993600  1
  K  K1  1  0.99912500  0.70928700  0.70885100  1
  K  K2  1  0.99895300  0.00055600  0.29061900  1
  K  K3  1  0.49875300  0.29070900  0.00006400  1
  K  K4  1  0.49895300  0.70993700  0.70938100  1
  K  K5  1  0.49912500  0.00043600  0.29115000  1
  Na  Na0  1  0.74982500  0.33324400  0.66621200  1
  Na  Na1  1  0.24982500  0.66703300  0.33378800  1
  U  U0  1  0.74998200  0.66662800  0.33309200  1
  U  U1  1  0.24998200  0.33353600  0.66690800  1
  C  C0  1  0.74954200  0.98591800  0.62721100  1
  C  C1  1  0.74940200  0.64142700  0.01366500  1
  C  C2  1  0.74958800  0.37257600  0.35924400  1
  C  C3  1  0.24954200  0.35870700  0.37278900  1
  C  C4  1  0.24940200  0.62776200  0.98633500  1
  C  C5  1  0.24958800  0.01333200  0.64075600  1
  O  O0  1  0.97025500  0.66694400  0.33340000  1
  O  O1  1  0.52962600  0.66668900  0.33334800  1
  O  O2  1  0.47025500  0.33354400  0.66660000  1
  O  O3  1  0.02962600  0.33334100  0.66665200  1
  O  O4  1  0.75002400  0.84737400  0.62924100  1
  O  O5  1  0.74940200  0.78243900  0.15272900  1
  O  O6  1  0.74973000  0.37032200  0.21879900  1
  O  O7  1  0.25002400  0.21813300  0.37075900  1
  O  O8  1  0.24940200  0.62971000  0.84727100  1
  O  O9  1  0.24973000  0.15152300  0.78120100  1
  O  O10  1  0.75021800  0.96796500  0.47944000  1
  O  O11  1  0.75037700  0.51203400  0.03349300  1
  O  O12  1  0.75016500  0.52120900  0.48802800  1
  O  O13  1  0.25021800  0.48852500  0.52056000  1
  O  O14  1  0.25037700  0.47854100  0.96650700  1
  O  O15  1  0.25016500  0.03318100  0.51197200  1
  O  O16  1  0.74860500  0.12582900  0.75539900  1
  O  O17  1  0.74880600  0.62987700  0.87432000  1
  O  O18  1  0.74930200  0.24474900  0.37169200  1
  O  O19  1  0.24860500  0.37042900  0.24460100  1
  O  O20  1  0.24880600  0.75555700  0.12568000  1
  O  O21  1  0.24930200  0.87305700  0.62830800  1
  O  O22  1  0.13832100  0.00052800  0.00356300  1
  O  O23  1  0.63832100  0.99696500  0.99643700  1
loop_
_geom_bond_atom_site_label_1
_geom_bond_atom_site_label_2
_geom_bond_distance
_geom_bond_site_symmetry_2
K0 O6 2.760575 1_556
K0 O9 2.772939 1_655
K0 O11 2.848871 1_556
K0 O14 2.864245 1_655
K0 O19 2.921426 1_656
K0 O16 2.921580 1_555
K0 O22 2.986369 1_656
K1 O4 2.753772 1_555
K1 O8 2.763586 1_655
K1 O12 2.851079 1_555
K1 O13 2.865719 1_655
K1 O21 2.913950 1_655
K1 O17 2.921645 1_555
K1 O22 2.997464 1_666
K2 O5 2.755697 1_545
K2 O7 2.761121 1_655
K2 O10 2.852368 1_545
K2 O15 2.870228 1_655
K2 O18 2.913727 1_555
K2 O20 2.922191 1_645
K2 O22 2.946344 1_655
K3 O9 2.760575 1_554
K3 O6 2.772940 1_555
K3 O14 2.848871 1_554
K3 O11 2.864245 1_555
K3 O16 2.921424 1_554
K3 O19 2.921581 1_555
K3 O23 2.986369 1_544
K4 O8 2.755696 1_555
K4 O4 2.761121 1_555
K4 O13 2.852368 1_555
K4 O12 2.870228 1_555
K4 O21 2.913727 1_555
K4 O17 2.922191 1_555
K4 O23 2.946345 1_555
K5 O7 2.753773 1_555
K5 O5 2.763587 1_545
K5 O15 2.851073 1_555
K5 O10 2.865712 1_545
K5 O18 2.913951 1_555
K5 O20 2.921646 1_545
K5 O23 2.997472 1_544
Na0 O2 2.340348 1_555
Na0 O3 2.342282 1_655
Na0 O18 2.469381 1_555
Na0 O16 2.480266 1_555
Na0 O17 2.484810 1_555
Na1 O0 2.340348 1_455
Na1 O1 2.342283 1_555
Na1 O21 2.469379 1_555
Na1 O19 2.480284 1_555
Na1 O20 2.484802 1_555
C0 O16 1.267304 1_565
C0 O4 1.313018 1_555
C0 O10 1.317197 1_555
C1 O17 1.263163 1_554
C1 O5 1.320429 1_555
C1 O11 1.320546 1_555
C2 O18 1.265178 1_555
C2 O6 1.313762 1_555
C2 O12 1.317401 1_555
C3 O19 1.267298 1_555
C3 O7 1.313018 1_555
C3 O13 1.317197 1_555
C4 O20 1.263163 1_556
C4 O8 1.320429 1_555
C4 O14 1.320546 1_555
C5 O21 1.265178 1_545
C5 O9 1.313762 1_555
C5 O15 1.317401 1_555
O0 U0 1.843955 1_555
O1 U0 1.844650 1_555
O2 U1 1.843955 1_555
O3 U1 1.844650 1_555
O4 U0 2.439450 1_555
O5 U0 2.434676 1_555
O6 U0 2.436037 1_555
O7 U1 2.439449 1_555
O8 U1 2.434676 1_555
O9 U1 2.436036 1_555
O10 U0 2.457106 1_555
O11 U0 2.448619 1_555
O12 U0 2.449400 1_555
O13 U1 2.457106 1_555
O14 U1 2.448619 1_555
O15 U1 2.449400 1_555
