# generated using pymatgen
data_KTbSnWO6
_symmetry_space_group_name_H-M   'P 1'
_cell_length_a   5.95028735
_cell_length_b   5.95028735
_cell_length_c   8.38956248
_cell_angle_alpha   90.00000000
_cell_angle_beta   90.00000000
_cell_angle_gamma   90.00000000
_symmetry_Int_Tables_number   1
_chemical_formula_structural   KTbSnWO6
_chemical_formula_sum   'K2 Tb2 Sn2 W2 O12'
_cell_volume   297.04017421
_cell_formula_units_Z   2
loop_
 _symmetry_equiv_pos_site_id
 _symmetry_equiv_pos_as_xyz
  1  'x, y, z'
loop_
 _atom_site_type_symbol
 _atom_site_label
 _atom_site_symmetry_multiplicity
 _atom_site_fract_x
 _atom_site_fract_y
 _atom_site_fract_z
 _atom_site_occupancy
  K  K0  1  0.00000000  0.00000000  0.25000000  1
  K  K1  1  -0.00000000  -0.00000000  0.75000000  1
  Tb  Tb0  1  0.50000000  -0.00000000  0.50000000  1
  Tb  Tb1  1  -0.00000000  0.50000000  0.00000000  1
  Sn  Sn0  1  0.50000000  0.50000000  0.75000000  1
  Sn  Sn1  1  0.50000000  0.50000000  0.25000000  1
  W  W0  1  0.50000000  0.00000000  0.00000000  1
  W  W1  1  -0.00000000  0.50000000  0.50000000  1
  O  O0  1  0.27444718  0.76087315  -0.00000000  1
  O  O1  1  0.72555282  0.23912685  0.00000000  1
  O  O2  1  0.23912685  0.72555282  0.50000000  1
  O  O3  1  0.76087315  0.27444718  0.50000000  1
  O  O4  1  0.72555282  0.76087315  0.00000000  1
  O  O5  1  0.76087315  0.72555282  0.50000000  1
  O  O6  1  0.27444718  0.23912685  -0.00000000  1
  O  O7  1  0.23912685  0.27444718  0.50000000  1
  O  O8  1  0.50000000  0.00000000  0.76810146  1
  O  O9  1  -0.00000000  0.50000000  0.73189854  1
  O  O10  1  0.50000000  0.00000000  0.23189854  1
  O  O11  1  -0.00000000  0.50000000  0.26810146  1
loop_
_geom_bond_atom_site_label_1
_geom_bond_atom_site_label_2
_geom_bond_distance
_geom_bond_site_symmetry_2
K0 O10 2.979017 1_555
K0 O11 2.979017 1_555
K0 O10 2.979017 1_455
K0 O11 2.979017 1_545
K0 O5 3.015035 1_445
K0 O4 3.015035 1_445
K0 O6 3.015035 1_555
K0 O2 3.015035 1_545
K0 O1 3.015035 1_455
K0 O7 3.015035 1_555
K0 O0 3.015035 1_545
K0 O3 3.015035 1_455
K1 O9 2.979017 1_545
K1 O8 2.979017 1_455
K1 O8 2.979017 1_555
K1 O9 2.979017 1_555
K1 O4 3.015035 1_446
K1 O5 3.015035 1_445
K1 O6 3.015035 1_556
K1 O2 3.015035 1_545
K1 O1 3.015035 1_456
K1 O7 3.015035 1_555
K1 O0 3.015035 1_546
K1 O3 3.015035 1_455
O0 W0 1.955968 1_565
O0 Tb1 2.253078 1_555
O1 W0 1.955968 1_555
O1 Tb1 2.253078 1_655
O2 W1 1.955968 1_555
O2 Tb0 2.253078 1_565
O3 W1 1.955968 1_655
O3 Tb0 2.253078 1_555
O4 W0 1.955968 1_565
O4 Tb1 2.253078 1_655
O5 W1 1.955968 1_655
O5 Tb0 2.253078 1_565
O6 W0 1.955968 1_555
O6 Tb1 2.253078 1_555
O7 W1 1.955968 1_555
O7 Tb0 2.253078 1_555
O8 W0 1.945527 1_556
O8 Tb0 2.249254 1_555
O9 W1 1.945527 1_555
O9 Tb1 2.249254 1_556
O10 W0 1.945527 1_555
O10 Tb0 2.249254 1_555
O11 W1 1.945527 1_555
O11 Tb1 2.249254 1_555
