# generated using pymatgen
data_ZrCd
_symmetry_space_group_name_H-M   'P 1'
_cell_length_a   6.20569276
_cell_length_b   6.20569276
_cell_length_c   18.14663270
_cell_angle_alpha   90.00000000
_cell_angle_beta   90.00000000
_cell_angle_gamma   90.00000000
_symmetry_Int_Tables_number   1
_chemical_formula_structural   ZrCd
_chemical_formula_sum   'Zr16 Cd16'
_cell_volume   698.83812394
_cell_formula_units_Z   16
loop_
 _symmetry_equiv_pos_site_id
 _symmetry_equiv_pos_as_xyz
  1  'x, y, z'
loop_
 _atom_site_type_symbol
 _atom_site_label
 _atom_site_symmetry_multiplicity
 _atom_site_fract_x
 _atom_site_fract_y
 _atom_site_fract_z
 _atom_site_occupancy
  Zr  Zr0_0  1  0.37500000  0.37500000  0.43677207  1
  Zr  Zr0_1  1  0.37500000  0.37500000  0.93677207  1
  Zr  Zr0_2  1  0.37500000  0.87500000  0.43677207  1
  Zr  Zr0_3  1  0.37500000  0.87500000  0.93677207  1
  Zr  Zr0_4  1  0.87500000  0.37500000  0.43677207  1
  Zr  Zr0_5  1  0.87500000  0.37500000  0.93677207  1
  Zr  Zr0_6  1  0.87500000  0.87500000  0.43677207  1
  Zr  Zr0_7  1  0.87500000  0.87500000  0.93677207  1
  Zr  Zr1_0  1  0.12500000  0.12500000  0.06322793  1
  Zr  Zr1_1  1  0.12500000  0.12500000  0.56322792  1
  Zr  Zr1_2  1  0.12500000  0.62500000  0.06322793  1
  Zr  Zr1_3  1  0.12500000  0.62500000  0.56322792  1
  Zr  Zr1_4  1  0.62500000  0.12500000  0.06322793  1
  Zr  Zr1_5  1  0.62500000  0.12500000  0.56322792  1
  Zr  Zr1_6  1  0.62500000  0.62500000  0.06322793  1
  Zr  Zr1_7  1  0.62500000  0.62500000  0.56322792  1
  Cd  Cd0_0  1  0.37500000  0.37500000  0.19058291  1
  Cd  Cd0_1  1  0.37500000  0.37500000  0.69058292  1
  Cd  Cd0_2  1  0.37500000  0.87500000  0.19058291  1
  Cd  Cd0_3  1  0.37500000  0.87500000  0.69058292  1
  Cd  Cd0_4  1  0.87500000  0.37500000  0.19058291  1
  Cd  Cd0_5  1  0.87500000  0.37500000  0.69058292  1
  Cd  Cd0_6  1  0.87500000  0.87500000  0.19058291  1
  Cd  Cd0_7  1  0.87500000  0.87500000  0.69058292  1
  Cd  Cd1_0  1  0.12500000  0.12500000  0.30941708  1
  Cd  Cd1_1  1  0.12500000  0.12500000  0.80941708  1
  Cd  Cd1_2  1  0.12500000  0.62500000  0.30941708  1
  Cd  Cd1_3  1  0.12500000  0.62500000  0.80941708  1
  Cd  Cd1_4  1  0.62500000  0.12500000  0.30941708  1
  Cd  Cd1_5  1  0.62500000  0.12500000  0.80941708  1
  Cd  Cd1_6  1  0.62500000  0.62500000  0.30941708  1
  Cd  Cd1_7  1  0.62500000  0.62500000  0.80941708  1
loop_
_geom_bond_atom_site_label_1
_geom_bond_atom_site_label_2
_geom_bond_distance
_geom_bond_site_symmetry_2
Zr0_0 Zr0_2 3.102846 1_545
Zr0_0 Zr0_4 3.102846 1_455
Zr0_0 Zr0_2 3.102846 1_555
Zr0_0 Zr0_4 3.102846 1_555
Zr0_0 Zr1_7 3.174854 1_555
Zr0_0 Zr1_5 3.174854 1_555
Zr0_0 Zr1_3 3.174854 1_555
Zr0_0 Zr1_1 3.174854 1_555
Zr0_1 Zr0_3 3.102846 1_545
Zr0_1 Zr0_5 3.102846 1_455
Zr0_1 Zr0_5 3.102846 1_555
Zr0_1 Zr0_3 3.102846 1_555
Zr0_1 Zr1_6 3.174854 1_556
Zr0_1 Zr1_4 3.174854 1_556
Zr0_1 Zr1_2 3.174854 1_556
Zr0_1 Zr1_0 3.174854 1_556
Zr0_2 Zr0_6 3.102846 1_455
Zr0_2 Zr0_6 3.102846 1_555
Zr0_2 Zr1_5 3.174854 1_565
Zr0_2 Zr1_7 3.174854 1_555
Zr0_2 Zr1_1 3.174854 1_565
Zr0_2 Zr1_3 3.174854 1_555
Zr0_3 Zr0_7 3.102846 1_455
Zr0_3 Zr0_7 3.102846 1_555
Zr0_3 Zr1_4 3.174854 1_566
Zr0_3 Zr1_6 3.174854 1_556
Zr0_3 Zr1_0 3.174854 1_566
Zr0_3 Zr1_2 3.174854 1_556
Zr0_4 Zr0_6 3.102846 1_545
Zr0_4 Zr0_6 3.102846 1_555
Zr0_4 Zr1_3 3.174854 1_655
Zr0_4 Zr1_7 3.174854 1_555
Zr0_4 Zr1_1 3.174854 1_655
Zr0_4 Zr1_5 3.174854 1_555
Zr0_5 Zr0_7 3.102846 1_545
Zr0_5 Zr0_7 3.102846 1_555
Zr0_5 Zr1_2 3.174854 1_656
Zr0_5 Zr1_6 3.174854 1_556
Zr0_5 Zr1_0 3.174854 1_656
Zr0_5 Zr1_4 3.174854 1_556
Zr0_6 Zr1_1 3.174854 1_665
Zr0_6 Zr1_3 3.174854 1_655
Zr0_6 Zr1_5 3.174854 1_565
Zr0_6 Zr1_7 3.174854 1_555
Zr0_7 Zr1_0 3.174854 1_666
Zr0_7 Zr1_4 3.174854 1_566
Zr0_7 Zr1_2 3.174854 1_656
Zr0_7 Zr1_6 3.174854 1_556
Zr1_0 Zr1_4 3.102846 1_455
Zr1_0 Zr1_2 3.102846 1_545
Zr1_0 Zr1_4 3.102846 1_555
Zr1_0 Zr1_2 3.102846 1_555
Zr1_1 Zr1_5 3.102846 1_455
Zr1_1 Zr1_3 3.102846 1_545
Zr1_1 Zr1_5 3.102846 1_555
Zr1_1 Zr1_3 3.102846 1_555
Zr1_2 Zr1_6 3.102846 1_455
Zr1_2 Zr1_6 3.102846 1_555
Zr1_3 Zr1_7 3.102846 1_455
Zr1_3 Zr1_7 3.102846 1_555
Zr1_4 Zr1_6 3.102846 1_545
Zr1_4 Zr1_6 3.102846 1_555
Zr1_5 Zr1_7 3.102846 1_555
Zr1_5 Zr1_7 3.102846 1_545
Cd0_0 Cd1_6 3.076371 1_555
Cd0_0 Cd1_2 3.076371 1_555
Cd0_0 Cd1_4 3.076371 1_555
Cd0_0 Cd1_0 3.076371 1_555
Cd0_0 Cd0_2 3.102846 1_545
Cd0_0 Cd0_4 3.102846 1_455
Cd0_0 Cd0_2 3.102846 1_555
Cd0_0 Cd0_4 3.102846 1_555
Cd0_0 Zr1_6 3.186667 1_555
Cd0_0 Zr1_4 3.186667 1_555
Cd0_0 Zr1_2 3.186667 1_555
Cd0_0 Zr1_0 3.186667 1_555
Cd0_1 Cd1_7 3.076371 1_555
Cd0_1 Cd1_5 3.076371 1_555
Cd0_1 Cd1_3 3.076371 1_555
Cd0_1 Cd1_1 3.076371 1_555
Cd0_1 Cd0_3 3.102846 1_545
Cd0_1 Cd0_5 3.102846 1_455
Cd0_1 Cd0_5 3.102846 1_555
Cd0_1 Cd0_3 3.102846 1_555
Cd0_1 Zr1_7 3.186667 1_555
Cd0_1 Zr1_3 3.186667 1_555
Cd0_1 Zr1_5 3.186667 1_555
Cd0_1 Zr1_1 3.186667 1_555
Cd0_2 Cd1_4 3.076371 1_565
Cd0_2 Cd1_0 3.076371 1_565
Cd0_2 Cd1_6 3.076371 1_555
Cd0_2 Cd1_2 3.076371 1_555
Cd0_2 Cd0_6 3.102846 1_455
Cd0_2 Cd0_6 3.102846 1_555
Cd0_2 Zr1_4 3.186667 1_565
Cd0_2 Zr1_0 3.186667 1_565
Cd0_2 Zr1_6 3.186667 1_555
Cd0_2 Zr1_2 3.186667 1_555
Cd0_3 Cd1_5 3.076371 1_565
Cd0_3 Cd1_1 3.076371 1_565
Cd0_3 Cd1_7 3.076371 1_555
Cd0_3 Cd1_3 3.076371 1_555
Cd0_3 Cd0_7 3.102846 1_455
Cd0_3 Cd0_7 3.102846 1_555
Cd0_3 Zr1_5 3.186667 1_565
Cd0_3 Zr1_1 3.186667 1_565
Cd0_3 Zr1_7 3.186667 1_555
Cd0_3 Zr1_3 3.186667 1_555
Cd0_4 Cd1_2 3.076371 1_655
Cd0_4 Cd1_6 3.076371 1_555
Cd0_4 Cd1_0 3.076371 1_655
Cd0_4 Cd1_4 3.076371 1_555
Cd0_4 Cd0_6 3.102846 1_545
Cd0_4 Cd0_6 3.102846 1_555
Cd0_4 Zr1_2 3.186667 1_655
Cd0_4 Zr1_0 3.186667 1_655
Cd0_4 Zr1_6 3.186667 1_555
Cd0_4 Zr1_4 3.186667 1_555
Cd0_5 Cd1_3 3.076371 1_655
Cd0_5 Cd1_1 3.076371 1_655
Cd0_5 Cd1_7 3.076371 1_555
Cd0_5 Cd1_5 3.076371 1_555
Cd0_5 Cd0_7 3.102846 1_545
Cd0_5 Cd0_7 3.102846 1_555
Cd0_5 Zr1_3 3.186667 1_655
Cd0_5 Zr1_1 3.186667 1_655
Cd0_5 Zr1_7 3.186667 1_555
Cd0_5 Zr1_5 3.186667 1_555
Cd0_6 Cd1_0 3.076371 1_665
Cd0_6 Cd1_4 3.076371 1_565
Cd0_6 Cd1_2 3.076371 1_655
Cd0_6 Cd1_6 3.076371 1_555
Cd0_6 Zr1_0 3.186667 1_665
Cd0_6 Zr1_4 3.186667 1_565
Cd0_6 Zr1_2 3.186667 1_655
Cd0_6 Zr1_6 3.186667 1_555
Cd0_7 Cd1_1 3.076371 1_665
Cd0_7 Cd1_3 3.076371 1_655
Cd0_7 Cd1_5 3.076371 1_565
Cd0_7 Cd1_7 3.076371 1_555
Cd0_7 Zr1_1 3.186667 1_665
Cd0_7 Zr1_5 3.186667 1_565
Cd0_7 Zr1_3 3.186667 1_655
Cd0_7 Zr1_7 3.186667 1_555
Cd1_0 Cd1_4 3.102846 1_555
Cd1_0 Cd1_2 3.102846 1_545
Cd1_0 Cd1_2 3.102846 1_555
Cd1_0 Cd1_4 3.102846 1_455
Cd1_0 Zr0_6 3.186667 1_445
Cd1_0 Zr0_2 3.186667 1_545
Cd1_0 Zr0_4 3.186667 1_455
Cd1_0 Zr0_0 3.186667 1_555
Cd1_1 Cd1_5 3.102846 1_455
Cd1_1 Cd1_3 3.102846 1_545
Cd1_1 Cd1_5 3.102846 1_555
Cd1_1 Cd1_3 3.102846 1_555
Cd1_1 Zr0_7 3.186667 1_445
Cd1_1 Zr0_3 3.186667 1_545
Cd1_1 Zr0_5 3.186667 1_455
Cd1_1 Zr0_1 3.186667 1_555
Cd1_2 Cd1_6 3.102846 1_555
Cd1_2 Cd1_6 3.102846 1_455
Cd1_2 Zr0_4 3.186667 1_455
Cd1_2 Zr0_6 3.186667 1_455
Cd1_2 Zr0_0 3.186667 1_555
Cd1_2 Zr0_2 3.186667 1_555
Cd1_3 Cd1_7 3.102846 1_555
Cd1_3 Cd1_7 3.102846 1_455
Cd1_3 Zr0_5 3.186667 1_455
Cd1_3 Zr0_1 3.186667 1_555
Cd1_3 Zr0_7 3.186667 1_455
Cd1_3 Zr0_3 3.186667 1_555
Cd1_4 Cd1_6 3.102846 1_555
Cd1_4 Cd1_6 3.102846 1_545
Cd1_4 Zr0_2 3.186667 1_545
Cd1_4 Zr0_0 3.186667 1_555
Cd1_4 Zr0_6 3.186667 1_545
Cd1_4 Zr0_4 3.186667 1_555
Cd1_5 Cd1_7 3.102846 1_545
Cd1_5 Cd1_7 3.102846 1_555
Cd1_5 Zr0_3 3.186667 1_545
Cd1_5 Zr0_1 3.186667 1_555
Cd1_5 Zr0_7 3.186667 1_545
Cd1_5 Zr0_5 3.186667 1_555
Cd1_6 Zr0_0 3.186667 1_555
Cd1_6 Zr0_4 3.186667 1_555
Cd1_6 Zr0_2 3.186667 1_555
Cd1_6 Zr0_6 3.186667 1_555
Cd1_7 Zr0_1 3.186667 1_555
Cd1_7 Zr0_3 3.186667 1_555
Cd1_7 Zr0_5 3.186667 1_555
Cd1_7 Zr0_7 3.186667 1_555
