# generated using pymatgen
data_LiMg14Nb
_symmetry_space_group_name_H-M   'P 1'
_cell_length_a   6.34166171
_cell_length_b   6.37648262
_cell_length_c   10.04972261
_cell_angle_alpha   90.00000000
_cell_angle_beta   90.00000000
_cell_angle_gamma   120.18180699
_symmetry_Int_Tables_number   1
_chemical_formula_structural   LiMg14Nb
_chemical_formula_sum   'Li1 Mg14 Nb1'
_cell_volume   351.29373790
_cell_formula_units_Z   1
loop_
 _symmetry_equiv_pos_site_id
 _symmetry_equiv_pos_as_xyz
  1  'x, y, z'
loop_
 _atom_site_type_symbol
 _atom_site_label
 _atom_site_symmetry_multiplicity
 _atom_site_fract_x
 _atom_site_fract_y
 _atom_site_fract_z
 _atom_site_occupancy
  Li  Li0  1  0.17039233  0.33519566  0.12500000  1
  Mg  Mg0  1  0.16758086  0.33378993  0.62500000  1
  Mg  Mg1  1  0.16715602  0.83357751  0.62500000  1
  Mg  Mg2  1  0.66417994  0.33602715  0.12500000  1
  Mg  Mg3  1  0.66637159  0.33351128  0.62500000  1
  Mg  Mg4  1  0.66417994  0.82815179  0.12500000  1
  Mg  Mg5  1  0.66637159  0.83285931  0.62500000  1
  Mg  Mg6  1  0.32769512  0.15893519  0.36786259  1
  Mg  Mg7  1  0.32769512  0.15893519  0.88213741  1
  Mg  Mg8  1  0.32769512  0.66876093  0.36786259  1
  Mg  Mg9  1  0.32769512  0.66876093  0.88213741  1
  Mg  Mg10  1  0.83510401  0.16755250  0.37171966  1
  Mg  Mg11  1  0.83510401  0.16755250  0.87828034  1
  Mg  Mg12  1  0.84264962  0.67132531  0.37013500  1
  Mg  Mg13  1  0.84264962  0.67132531  0.87986500  1
  Nb  Nb0  1  0.16748002  0.83373951  0.12500000  1
loop_
_geom_bond_atom_site_label_1
_geom_bond_atom_site_label_2
_geom_bond_distance
_geom_bond_site_symmetry_2
Li0 Mg7 3.056581 1_554
Li0 Mg6 3.056581 1_555
Li0 Mg9 3.056588 1_554
Li0 Mg8 3.056588 1_555
Li0 Mg10 3.086440 1_455
Li0 Mg11 3.086440 1_454
Li0 Mg4 3.128772 1_555
Li0 Mg2 3.128772 1_555
Li0 Nb0 3.188281 1_545
Li0 Nb0 3.188281 1_555
Li0 Mg4 3.212896 1_445
Li0 Mg2 3.212897 1_455
Mg0 Mg10 3.130654 1_455
Mg0 Mg11 3.130654 1_455
Mg0 Mg5 3.164055 1_555
Mg0 Mg3 3.164056 1_555
Mg0 Mg6 3.176533 1_555
Mg0 Mg7 3.176533 1_555
Mg0 Mg8 3.176540 1_555
Mg0 Mg9 3.176540 1_555
Mg0 Mg5 3.177606 1_445
Mg0 Mg3 3.177607 1_455
Mg0 Mg1 3.188242 1_545
Mg0 Mg1 3.188242 1_555
Mg1 Mg12 3.118487 1_455
Mg1 Mg13 3.118487 1_455
Mg1 Mg8 3.145585 1_555
Mg1 Mg9 3.145585 1_555
Mg1 Mg6 3.145591 1_565
Mg1 Mg7 3.145591 1_565
Mg1 Mg3 3.168161 1_565
Mg1 Mg5 3.168161 1_555
Mg1 Mg3 3.173505 1_455
Mg1 Mg5 3.173506 1_455
Mg2 Mg7 3.059858 1_554
Mg2 Mg6 3.059858 1_555
Mg2 Mg4 3.138024 1_555
Mg2 Nb0 3.167965 1_545
Mg2 Nb0 3.173995 1_655
Mg2 Mg4 3.238458 1_545
Mg3 Mg7 3.182136 1_555
Mg3 Mg6 3.182136 1_555
Mg3 Mg5 3.184084 1_555
Mg3 Mg5 3.192399 1_545
Mg4 Mg9 3.059859 1_554
Mg4 Mg8 3.059859 1_555
Mg4 Nb0 3.167965 1_555
Mg4 Nb0 3.173995 1_655
Mg5 Mg8 3.182136 1_555
Mg5 Mg9 3.182136 1_555
Mg6 Nb0 3.028327 1_545
Mg6 Mg8 3.125588 1_545
Mg6 Mg8 3.250895 1_555
Mg7 Nb0 3.028327 1_546
Mg7 Mg9 3.125588 1_545
Mg7 Mg9 3.250895 1_555
Mg8 Nb0 3.028321 1_555
Mg9 Nb0 3.028321 1_556
Mg10 Mg2 3.106057 1_555
Mg10 Mg4 3.106063 1_545
Mg10 Mg3 3.143640 1_555
Mg10 Mg5 3.143646 1_545
Mg10 Mg8 3.152067 1_655
Mg10 Mg6 3.152067 1_655
Mg10 Mg12 3.188549 1_545
Mg10 Mg12 3.188549 1_555
Mg10 Mg8 3.190779 1_545
Mg10 Mg6 3.190780 1_555
Mg11 Mg2 3.106057 1_556
Mg11 Mg4 3.106063 1_546
Mg11 Mg3 3.143640 1_555
Mg11 Mg5 3.143646 1_545
Mg11 Mg9 3.152067 1_655
Mg11 Mg7 3.152067 1_655
Mg11 Mg13 3.188549 1_545
Mg11 Mg13 3.188549 1_555
Mg11 Mg9 3.190779 1_545
Mg11 Mg7 3.190780 1_555
Mg12 Nb0 3.039726 1_655
Mg12 Mg4 3.080259 1_555
Mg12 Mg2 3.080265 1_555
Mg12 Mg6 3.084332 1_665
Mg12 Mg8 3.084332 1_655
Mg12 Mg5 3.166825 1_555
Mg12 Mg3 3.166831 1_555
Mg12 Mg6 3.257557 1_555
Mg12 Mg8 3.257557 1_555
Mg13 Nb0 3.039726 1_656
Mg13 Mg4 3.080259 1_556
Mg13 Mg2 3.080265 1_556
Mg13 Mg7 3.084332 1_665
Mg13 Mg9 3.084332 1_655
Mg13 Mg5 3.166825 1_555
Mg13 Mg3 3.166831 1_555
Mg13 Mg7 3.257557 1_555
Mg13 Mg9 3.257557 1_555
