# generated using pymatgen
data_In2Co(SO)2
_symmetry_space_group_name_H-M   'P 1'
_cell_length_a   9.00011545
_cell_length_b   9.00011545
_cell_length_c   9.00011545
_cell_angle_alpha   154.67129847
_cell_angle_beta   154.67129847
_cell_angle_gamma   36.12461194
_symmetry_Int_Tables_number   1
_chemical_formula_structural   In2Co(SO)2
_chemical_formula_sum   'In2 Co1 S2 O2'
_cell_volume   133.25796983
_cell_formula_units_Z   1
loop_
 _symmetry_equiv_pos_site_id
 _symmetry_equiv_pos_as_xyz
  1  'x, y, z'
loop_
 _atom_site_type_symbol
 _atom_site_label
 _atom_site_symmetry_multiplicity
 _atom_site_fract_x
 _atom_site_fract_y
 _atom_site_fract_z
 _atom_site_occupancy
  In  In0  1  0.25000000  0.75000000  0.50000000  1
  In  In1  1  0.75000000  0.25000000  0.50000000  1
  Co  Co0  1  0.00000000  0.00000000  0.00000000  1
  S  S0  1  0.86547000  0.86547000  0.00000000  1
  S  S1  1  0.13453000  0.13453000  0.00000000  1
  O  O0  1  0.00000000  0.50000000  0.50000000  1
  O  O1  1  0.50000000  0.00000000  0.50000000  1
loop_
_geom_bond_atom_site_label_1
_geom_bond_atom_site_label_2
_geom_bond_distance
_geom_bond_site_symmetry_2
In0 In1 2.790495 1_555
In0 In1 2.790495 1_454
In0 In1 2.790495 1_465
In0 In1 2.790495 1_566
In0 S0 2.792533 1_556
In0 S1 2.792533 1_555
In0 S0 2.792533 1_455
In0 S1 2.792533 1_566
In1 S0 2.792533 1_545
In1 S0 2.792533 1_556
In1 S1 2.792533 1_555
In1 S1 2.792533 1_656
Co0 O1 1.973178 1_555
Co0 O0 1.973178 1_555
Co0 O0 1.973178 1_544
Co0 O1 1.973178 1_454
Co0 S1 2.302236 1_555
Co0 S0 2.302236 1_445
