# generated using pymatgen
data_Mg6MnCu
_symmetry_space_group_name_H-M   'P 1'
_cell_length_a   4.85835500
_cell_length_b   6.07390200
_cell_length_c   10.53503400
_cell_angle_alpha   90.00000000
_cell_angle_beta   90.00000000
_cell_angle_gamma   90.00000000
_symmetry_Int_Tables_number   1
_chemical_formula_structural   Mg6MnCu
_chemical_formula_sum   'Mg12 Mn2 Cu2'
_cell_volume   310.88013192
_cell_formula_units_Z   2
loop_
 _symmetry_equiv_pos_site_id
 _symmetry_equiv_pos_as_xyz
  1  'x, y, z'
loop_
 _atom_site_type_symbol
 _atom_site_label
 _atom_site_symmetry_multiplicity
 _atom_site_fract_x
 _atom_site_fract_y
 _atom_site_fract_z
 _atom_site_occupancy
  Mg  Mg0  1  0.00000000  0.23933000  0.58750100  1
  Mg  Mg1  1  0.00000000  0.76067000  0.58750100  1
  Mg  Mg2  1  0.00000000  0.50000000  0.83440900  1
  Mg  Mg3  1  0.50000000  0.75839000  0.91137200  1
  Mg  Mg4  1  0.50000000  0.24161000  0.91137200  1
  Mg  Mg5  1  0.50000000  0.50000000  0.66672900  1
  Mg  Mg6  1  0.00000000  0.73933000  0.08750100  1
  Mg  Mg7  1  0.00000000  0.26067000  0.08750100  1
  Mg  Mg8  1  0.00000000  0.00000000  0.33440900  1
  Mg  Mg9  1  0.50000000  0.25839000  0.41137200  1
  Mg  Mg10  1  0.50000000  0.74161000  0.41137200  1
  Mg  Mg11  1  0.50000000  0.00000000  0.16672900  1
  Mn  Mn0  1  0.00000000  0.00000000  0.82718300  1
  Mn  Mn1  1  0.00000000  0.50000000  0.32718300  1
  Cu  Cu0  1  0.50000000  0.00000000  0.67393300  1
  Cu  Cu1  1  0.50000000  0.50000000  0.17393300  1
loop_
_geom_bond_atom_site_label_1
_geom_bond_atom_site_label_2
_geom_bond_distance
_geom_bond_site_symmetry_2
Mg0 Mg1 2.907334 1_545
Mg0 Mn0 2.913600 1_555
Mg0 Mg5 3.017344 1_455
Mg0 Mg5 3.017344 1_555
Mg0 Mg8 3.036853 1_555
Mg0 Mg2 3.045151 1_555
Mg0 Mg9 3.058967 1_455
Mg0 Mg9 3.058967 1_555
Mg0 Mg1 3.166568 1_555
Mg0 Mn1 3.166681 1_555
Mg1 Mn0 2.913600 1_565
Mg1 Mg5 3.017344 1_455
Mg1 Mg5 3.017344 1_555
Mg1 Mg8 3.036853 1_565
Mg1 Mg2 3.045151 1_555
Mg1 Mg10 3.058967 1_455
Mg1 Mg10 3.058967 1_555
Mg1 Mn1 3.166681 1_555
Mg2 Mg4 3.003571 1_555
Mg2 Mg3 3.003571 1_455
Mg2 Mg4 3.003571 1_455
Mg2 Mg3 3.003571 1_555
Mg2 Mg5 3.003577 1_555
Mg2 Mg5 3.003577 1_455
Mg2 Mg7 3.036853 1_556
Mg2 Mg6 3.036853 1_556
Mg2 Mn0 3.037905 1_555
Mg2 Mn0 3.037905 1_565
Mg3 Mg4 2.935031 1_565
Mg3 Mn0 2.973408 1_665
Mg3 Mn0 2.973408 1_565
Mg3 Mg5 3.017568 1_555
Mg3 Mg6 3.058967 1_656
Mg3 Mg6 3.058967 1_556
Mg3 Mg4 3.138871 1_555
Mg4 Mn0 2.973408 1_655
Mg4 Mn0 2.973408 1_555
Mg4 Mg5 3.017568 1_555
Mg4 Mg7 3.058967 1_556
Mg4 Mg7 3.058967 1_656
Mg5 Mg9 3.064433 1_555
Mg6 Mg7 2.907334 1_555
Mg6 Mn1 2.913600 1_555
Mg6 Mg8 3.045151 1_565
Mg6 Mg7 3.166568 1_565
Mg6 Mn0 3.166681 1_564
Mg7 Mn1 2.913600 1_555
Mg7 Mg8 3.045151 1_555
Mg7 Mn0 3.166681 1_554
Mg8 Mg9 3.003571 1_455
Mg8 Mg9 3.003571 1_555
Mg8 Mn1 3.037905 1_545
Mg8 Mn1 3.037905 1_555
Mg9 Mn1 2.973408 1_555
Mg9 Mn1 2.973408 1_655
Mg10 Mg9 2.935031 1_555
Mg10 Mn1 2.973408 1_555
Mg10 Mn1 2.973408 1_655
Mg10 Mg8 3.003571 1_565
Mg10 Mg8 3.003571 1_665
Mg10 Mg11 3.017568 1_565
Mg10 Mg5 3.064433 1_555
Mg10 Mg9 3.138871 1_565
Mg11 Mg8 3.003577 1_555
Mg11 Mg8 3.003577 1_655
Mg11 Mg7 3.017344 1_655
Mg11 Mg6 3.017344 1_545
Mg11 Mg7 3.017344 1_555
Mg11 Mg6 3.017344 1_645
Mg11 Mg9 3.017568 1_555
Mg11 Mg4 3.064433 1_554
Mg11 Mg3 3.064433 1_544
Cu0 Mg3 2.900128 1_545
Cu0 Mg4 2.900128 1_555
Cu0 Mn0 2.916761 1_555
Cu0 Mn0 2.916761 1_655
Cu0 Mg1 2.973748 1_545
Cu0 Mg0 2.973748 1_655
Cu0 Mg0 2.973748 1_555
Cu0 Mg1 2.973748 1_645
Cu0 Mg5 3.037899 1_545
Cu0 Mg5 3.037899 1_555
Cu0 Mg10 3.180311 1_545
Cu0 Mg9 3.180311 1_555
Cu1 Mg9 2.900128 1_555
Cu1 Mg10 2.900128 1_555
Cu1 Mn1 2.916761 1_655
Cu1 Mn1 2.916761 1_555
Cu1 Mg7 2.973748 1_655
Cu1 Mg6 2.973748 1_555
Cu1 Mg6 2.973748 1_655
Cu1 Mg7 2.973748 1_555
Cu1 Mg11 3.037899 1_555
Cu1 Mg11 3.037899 1_565
Cu1 Mg3 3.180311 1_554
Cu1 Mg4 3.180311 1_554
