# generated using pymatgen
data_KYb(WO4)2
_symmetry_space_group_name_H-M   'P 1'
_cell_length_a   7.80094104
_cell_length_b   7.80094119
_cell_length_c   7.48753952
_cell_angle_alpha   61.85836082
_cell_angle_beta   61.85836353
_cell_angle_gamma   88.08917525
_symmetry_Int_Tables_number   1
_chemical_formula_structural   KYb(WO4)2
_chemical_formula_sum   'K2 Yb2 W4 O16'
_cell_volume   343.65048909
_cell_formula_units_Z   2
loop_
 _symmetry_equiv_pos_site_id
 _symmetry_equiv_pos_as_xyz
  1  'x, y, z'
loop_
 _atom_site_type_symbol
 _atom_site_label
 _atom_site_symmetry_multiplicity
 _atom_site_fract_x
 _atom_site_fract_y
 _atom_site_fract_z
 _atom_site_occupancy
  K  K0  1  0.28637300  0.71362700  0.75000000  1
  K  K1  1  0.71362700  0.28637300  0.25000000  1
  Yb  Yb0  1  0.27485300  0.72514700  0.25000000  1
  Yb  Yb1  1  0.72514800  0.27485400  0.74999900  1
  W  W0  1  0.80201700  0.80860500  0.70148600  1
  W  W1  1  0.19798300  0.19139600  0.29851400  1
  W  W2  1  0.19139500  0.19798300  0.79851500  1
  W  W3  1  0.80860400  0.80201600  0.20148600  1
  O  O0  1  0.24356300  0.12594900  0.56291100  1
  O  O1  1  0.87405200  0.75643600  0.93708900  1
  O  O2  1  0.75643600  0.87405200  0.43709000  1
  O  O3  1  0.12595000  0.24356400  0.06291000  1
  O  O4  1  0.16340900  0.44783300  0.62472700  1
  O  O5  1  0.55216800  0.83659100  0.87527200  1
  O  O6  1  0.83659200  0.55216800  0.37527200  1
  O  O7  1  0.44783200  0.16340900  0.12472700  1
  O  O8  1  0.24391500  0.45748600  0.20211400  1
  O  O9  1  0.54251400  0.75608500  0.29788500  1
  O  O10  1  0.75608500  0.54251400  0.79788600  1
  O  O11  1  0.45748500  0.24391500  0.70211400  1
  O  O12  1  0.11983200  0.90013300  0.03895100  1
  O  O13  1  0.88016900  0.09986600  0.96104800  1
  O  O14  1  0.09986700  0.88016800  0.46104900  1
  O  O15  1  0.90013300  0.11983200  0.53895100  1
loop_
_geom_bond_atom_site_label_1
_geom_bond_atom_site_label_2
_geom_bond_distance
_geom_bond_site_symmetry_2
K0 O8 2.857938 1_556
K0 O9 2.857944 1_555
K0 O1 2.922159 1_455
K0 O0 2.922168 1_565
K0 O14 2.945731 1_555
K0 O12 2.945731 1_556
K0 O4 2.985815 1_555
K0 O5 2.985816 1_555
K0 O3 3.152422 1_556
K0 O2 3.152424 1_555
K1 O10 2.857938 1_554
K1 O11 2.857939 1_555
K1 O2 2.922159 1_545
K1 O3 2.922173 1_655
K1 O15 2.945731 1_555
K1 O13 2.945744 1_554
K1 O6 2.985820 1_555
K1 O7 2.985822 1_555
K1 O1 3.152424 1_554
K1 O0 3.152429 1_555
O0 W2 1.958584 1_555
O0 W1 2.001176 1_555
O1 W0 1.958581 1_555
O1 W3 2.001175 1_556
O2 W3 1.958595 1_555
O2 W0 2.001174 1_555
O3 W1 1.958578 1_555
O3 W2 2.001170 1_554
O4 W2 1.840363 1_555
O4 Yb0 2.325280 1_555
O5 W0 1.840353 1_555
O5 Yb0 2.325288 1_556
O6 W3 1.840354 1_555
O6 Yb1 2.325280 1_555
O7 W1 1.840358 1_555
O7 Yb1 2.325289 1_554
O8 W1 1.830418 1_555
O8 Yb0 2.316899 1_555
O9 W3 1.830420 1_555
O9 Yb0 2.316895 1_555
O10 W0 1.830426 1_555
O10 Yb1 2.316895 1_555
O11 W2 1.830417 1_555
O11 Yb1 2.316911 1_555
O12 W2 2.035681 1_564
O12 W3 2.102269 1_455
O12 Yb0 2.341091 1_555
O13 W3 2.035683 1_546
O13 W2 2.102257 1_655
O13 Yb1 2.341095 1_555
O14 W0 2.035683 1_455
O14 W1 2.102268 1_565
O14 Yb0 2.341091 1_555
O15 W1 2.035682 1_655
O15 W0 2.102261 1_545
O15 Yb1 2.341091 1_555
