# generated using pymatgen
data_Eu5P3O12F
_symmetry_space_group_name_H-M   'P 1'
_cell_length_a   9.85312340
_cell_length_b   9.85312340
_cell_length_c   7.31697300
_cell_angle_alpha   90.00000000
_cell_angle_beta   90.00000000
_cell_angle_gamma   119.99999598
_symmetry_Int_Tables_number   1
_chemical_formula_structural   Eu5P3O12F
_chemical_formula_sum   'Eu10 P6 O24 F2'
_cell_volume   615.19096095
_cell_formula_units_Z   2
loop_
 _symmetry_equiv_pos_site_id
 _symmetry_equiv_pos_as_xyz
  1  'x, y, z'
loop_
 _atom_site_type_symbol
 _atom_site_label
 _atom_site_symmetry_multiplicity
 _atom_site_fract_x
 _atom_site_fract_y
 _atom_site_fract_z
 _atom_site_occupancy
  Eu  Eu0  1  0.33333300  0.66666700  0.99979700  1
  Eu  Eu1  1  0.66666700  0.33333300  0.00020300  1
  Eu  Eu2  1  0.66666700  0.33333300  0.49979700  1
  Eu  Eu3  1  0.33333300  0.66666700  0.50020300  1
  Eu  Eu4  1  0.74812300  0.75824200  0.75000000  1
  Eu  Eu5  1  0.25187700  0.24175800  0.25000000  1
  Eu  Eu6  1  0.01011900  0.25187700  0.75000000  1
  Eu  Eu7  1  0.98988100  0.74812300  0.25000000  1
  Eu  Eu8  1  0.24175800  0.98988100  0.75000000  1
  Eu  Eu9  1  0.75824200  0.01011900  0.25000000  1
  P  P0  1  0.96987600  0.60163400  0.75000000  1
  P  P1  1  0.03012400  0.39836600  0.25000000  1
  P  P2  1  0.63175800  0.03012400  0.75000000  1
  P  P3  1  0.36824200  0.96987600  0.25000000  1
  P  P4  1  0.39836600  0.36824200  0.75000000  1
  P  P5  1  0.60163400  0.63175800  0.25000000  1
  O  O0  1  0.52028300  0.84922200  0.75000000  1
  O  O1  1  0.47971700  0.15077800  0.25000000  1
  O  O2  1  0.32893900  0.47971700  0.75000000  1
  O  O3  1  0.67106100  0.52028300  0.25000000  1
  O  O4  1  0.15077800  0.67106100  0.75000000  1
  O  O5  1  0.84922200  0.32893900  0.25000000  1
  O  O6  1  0.88223500  0.41818400  0.75000000  1
  O  O7  1  0.11776500  0.58181600  0.25000000  1
  O  O8  1  0.53594800  0.11776500  0.75000000  1
  O  O9  1  0.46405200  0.88223500  0.25000000  1
  O  O10  1  0.58181600  0.46405200  0.75000000  1
  O  O11  1  0.41818400  0.53594800  0.25000000  1
  O  O12  1  0.91685900  0.65605700  0.92223300  1
  O  O13  1  0.08314100  0.34394300  0.07776700  1
  O  O14  1  0.73919700  0.08314100  0.92223300  1
  O  O15  1  0.08314100  0.34394300  0.42223300  1
  O  O16  1  0.26080300  0.91685900  0.07776700  1
  O  O17  1  0.91685900  0.65605700  0.57776700  1
  O  O18  1  0.34394300  0.26080300  0.92223300  1
  O  O19  1  0.26080300  0.91685900  0.42223300  1
  O  O20  1  0.65605700  0.73919700  0.07776700  1
  O  O21  1  0.73919700  0.08314100  0.57776700  1
  O  O22  1  0.65605700  0.73919700  0.42223300  1
  O  O23  1  0.34394300  0.26080300  0.57776700  1
  F  F0  1  0.00000000  0.00000000  0.75000000  1
  F  F1  1  0.00000000  0.00000000  0.25000000  1
loop_
_geom_bond_atom_site_label_1
_geom_bond_atom_site_label_2
_geom_bond_distance
_geom_bond_site_symmetry_2
Eu0 O4 2.579904 1_555
Eu0 O0 2.579907 1_555
Eu0 O2 2.579911 1_555
Eu0 O7 2.605037 1_556
Eu0 O9 2.605038 1_556
Eu0 O11 2.605049 1_556
Eu0 O16 2.945335 1_556
Eu0 O13 2.945349 1_556
Eu0 O20 2.945354 1_556
Eu1 O5 2.579904 1_555
Eu1 O1 2.579907 1_555
Eu1 O3 2.579911 1_555
Eu1 O6 2.605037 1_554
Eu1 O8 2.605038 1_554
Eu1 O10 2.605049 1_554
Eu1 O14 2.945335 1_554
Eu1 O12 2.945349 1_554
Eu1 O18 2.945354 1_554
Eu2 O5 2.579904 1_555
Eu2 O1 2.579907 1_555
Eu2 O3 2.579911 1_555
Eu2 O6 2.605037 1_555
Eu2 O8 2.605038 1_555
Eu2 O10 2.605049 1_555
Eu2 O21 2.945335 1_555
Eu2 O17 2.945349 1_555
Eu2 O23 2.945354 1_555
Eu3 O4 2.579904 1_555
Eu3 O0 2.579907 1_555
Eu3 O2 2.579911 1_555
Eu3 O7 2.605037 1_555
Eu3 O9 2.605038 1_555
Eu3 O11 2.605049 1_555
Eu3 O19 2.945335 1_555
Eu3 O15 2.945349 1_555
Eu3 O22 2.945354 1_555
Eu4 F0 2.433456 1_665
Eu4 O10 2.517467 1_555
Eu4 O20 2.537626 1_556
Eu4 O22 2.537626 1_555
Eu4 O12 2.653301 1_555
Eu4 O17 2.653301 1_555
Eu4 O0 2.802816 1_555
Eu5 F1 2.433456 1_555
Eu5 O11 2.517467 1_555
Eu5 O23 2.537626 1_555
Eu5 O18 2.537626 1_554
Eu5 O15 2.653301 1_555
Eu5 O13 2.653301 1_555
Eu5 O1 2.802816 1_555
Eu6 F0 2.433456 1_555
Eu6 O6 2.517475 1_455
Eu6 O13 2.537627 1_556
Eu6 O15 2.537627 1_555
Eu6 O14 2.653308 1_455
Eu6 O21 2.653308 1_455
Eu6 O2 2.802816 1_555
Eu7 F1 2.433456 1_665
Eu7 O7 2.517475 1_655
Eu7 O17 2.537627 1_555
Eu7 O12 2.537627 1_554
Eu7 O19 2.653308 1_655
Eu7 O16 2.653308 1_655
Eu7 O3 2.802816 1_555
Eu8 F0 2.433456 1_565
Eu8 O8 2.517466 1_565
Eu8 O16 2.537629 1_556
Eu8 O19 2.537629 1_555
Eu8 O18 2.653309 1_565
Eu8 O23 2.653309 1_565
Eu8 O4 2.802816 1_555
Eu9 F1 2.433456 1_655
Eu9 O9 2.517466 1_545
Eu9 O21 2.537629 1_555
Eu9 O14 2.537629 1_554
Eu9 O22 2.653309 1_545
Eu9 O20 2.653309 1_545
Eu9 O5 2.802816 1_555
O0 P2 1.557484 1_565
O1 P3 1.557484 1_545
O2 P4 1.557484 1_555
O3 P5 1.557484 1_555
O4 P0 1.557484 1_455
O5 P1 1.557484 1_655
O6 P0 1.565906 1_555
O7 P1 1.565906 1_555
O8 P2 1.565915 1_555
O9 P3 1.565915 1_555
O10 P4 1.565906 1_555
O11 P5 1.565906 1_555
O12 P0 1.558435 1_555
O13 P1 1.558435 1_555
O14 P2 1.558430 1_555
O15 P1 1.558435 1_555
O16 P3 1.558430 1_555
O17 P0 1.558435 1_555
O18 P4 1.558430 1_555
O19 P3 1.558430 1_555
O20 P5 1.558430 1_555
O21 P2 1.558430 1_555
O22 P5 1.558430 1_555
O23 P4 1.558430 1_555
