# generated using pymatgen
data_La2Si3Rh
_symmetry_space_group_name_H-M   'P 1'
_cell_length_a   8.33693432
_cell_length_b   8.33693432
_cell_length_c   8.60907100
_cell_angle_alpha   90.00000000
_cell_angle_beta   90.00000000
_cell_angle_gamma   120.00000252
_symmetry_Int_Tables_number   1
_chemical_formula_structural   La2Si3Rh
_chemical_formula_sum   'La8 Si12 Rh4'
_cell_volume   518.20269826
_cell_formula_units_Z   4
loop_
 _symmetry_equiv_pos_site_id
 _symmetry_equiv_pos_as_xyz
  1  'x, y, z'
loop_
 _atom_site_type_symbol
 _atom_site_label
 _atom_site_symmetry_multiplicity
 _atom_site_fract_x
 _atom_site_fract_y
 _atom_site_fract_z
 _atom_site_occupancy
  La  La0  1  0.00000000  0.00000000  0.25000000  1
  La  La1  1  0.00000000  0.00000000  0.75000000  1
  La  La2  1  0.50132500  0.49867500  0.25000000  1
  La  La3  1  0.50132500  0.00265100  0.25000000  1
  La  La4  1  0.99734900  0.49867500  0.25000000  1
  La  La5  1  0.49867500  0.50132500  0.75000000  1
  La  La6  1  0.49867500  0.99734900  0.75000000  1
  La  La7  1  0.00265100  0.50132500  0.75000000  1
  Si  Si0  1  0.16591400  0.83408600  0.50128000  1
  Si  Si1  1  0.16591400  0.33182800  0.50128000  1
  Si  Si2  1  0.66817200  0.83408600  0.50128000  1
  Si  Si3  1  0.83408600  0.16591400  0.49872000  1
  Si  Si4  1  0.83408600  0.66817200  0.49872000  1
  Si  Si5  1  0.33182800  0.16591400  0.49872000  1
  Si  Si6  1  0.83408600  0.16591400  0.00128000  1
  Si  Si7  1  0.83408600  0.66817200  0.00128000  1
  Si  Si8  1  0.33182800  0.16591400  0.00128000  1
  Si  Si9  1  0.16591400  0.83408600  0.99872000  1
  Si  Si10  1  0.16591400  0.33182800  0.99872000  1
  Si  Si11  1  0.66817200  0.83408600  0.99872000  1
  Rh  Rh0  1  0.33333300  0.66666700  0.49485300  1
  Rh  Rh1  1  0.66666700  0.33333300  0.50514700  1
  Rh  Rh2  1  0.66666700  0.33333300  0.99485300  1
  Rh  Rh3  1  0.33333300  0.66666700  0.00514700  1
loop_
_geom_bond_atom_site_label_1
_geom_bond_atom_site_label_2
_geom_bond_distance
_geom_bond_site_symmetry_2
La0 Si7 3.213221 1_445
La0 Si4 3.213221 1_445
La0 Si8 3.213221 1_555
La0 Si5 3.213221 1_555
La0 Si6 3.213221 1_455
La0 Si3 3.213221 1_455
La0 Si11 3.227949 1_444
La0 Si10 3.227949 1_554
La0 Si1 3.227949 1_555
La0 Si2 3.227949 1_445
La0 Si9 3.227949 1_544
La0 Si0 3.227949 1_545
La1 Si1 3.213221 1_555
La1 Si2 3.213221 1_445
La1 Si10 3.213221 1_555
La1 Si11 3.213221 1_445
La1 Si0 3.213221 1_545
La1 Si9 3.213221 1_545
La1 Si7 3.227949 1_446
La1 Si4 3.227949 1_445
La1 Si5 3.227949 1_555
La1 Si8 3.227949 1_556
La1 Si6 3.227949 1_456
La1 Si3 3.227949 1_455
La2 Rh3 3.213721 1_555
La2 Rh0 3.213721 1_555
La2 Si8 3.218351 1_555
La2 Si7 3.218351 1_555
La2 Si5 3.218351 1_555
La2 Si4 3.218351 1_555
La2 Rh1 3.244271 1_555
La2 Rh2 3.244271 1_554
La2 Si10 3.247204 1_554
La2 Si11 3.247204 1_554
La2 Si2 3.247204 1_555
La2 Si1 3.247204 1_555
La3 Rh3 3.213721 1_545
La3 Rh0 3.213721 1_545
La3 Si8 3.218346 1_555
La3 Si5 3.218346 1_555
La3 Si6 3.218351 1_555
La3 Si3 3.218351 1_555
La3 Rh2 3.244260 1_554
La3 Rh1 3.244260 1_555
La3 Si9 3.247204 1_544
La3 Si0 3.247204 1_545
La3 Si11 3.247209 1_544
La3 Si2 3.247209 1_545
La4 Rh3 3.213721 1_655
La4 Rh0 3.213721 1_655
La4 Si7 3.218346 1_555
La4 Si4 3.218346 1_555
La4 Si6 3.218351 1_555
La4 Si3 3.218351 1_555
La4 Rh2 3.244260 1_554
La4 Rh1 3.244260 1_555
La4 Si9 3.247204 1_654
La4 Si0 3.247204 1_655
La4 Si10 3.247209 1_654
La4 Si1 3.247209 1_655
La5 Rh1 3.213721 1_555
La5 Rh2 3.213721 1_555
La5 Si1 3.218351 1_555
La5 Si2 3.218351 1_555
La5 Si11 3.218351 1_555
La5 Si10 3.218351 1_555
La5 Rh3 3.244271 1_556
La5 Rh0 3.244271 1_555
La5 Si4 3.247204 1_555
La5 Si5 3.247204 1_555
La5 Si8 3.247204 1_556
La5 Si7 3.247204 1_556
La6 Rh2 3.213721 1_565
La6 Rh1 3.213721 1_565
La6 Si2 3.218346 1_555
La6 Si11 3.218346 1_555
La6 Si0 3.218351 1_555
La6 Si9 3.218351 1_555
La6 Rh3 3.244260 1_556
La6 Rh0 3.244260 1_555
La6 Si3 3.247204 1_565
La6 Si6 3.247204 1_566
La6 Si8 3.247209 1_566
La6 Si5 3.247209 1_565
La7 Rh1 3.213721 1_455
La7 Rh2 3.213721 1_455
La7 Si1 3.218346 1_555
La7 Si10 3.218346 1_555
La7 Si0 3.218351 1_555
La7 Si9 3.218351 1_555
La7 Rh0 3.244260 1_555
La7 Rh3 3.244260 1_556
La7 Si6 3.247204 1_456
La7 Si3 3.247204 1_455
La7 Si7 3.247209 1_456
La7 Si4 3.247209 1_455
Si0 Si5 2.395898 1_565
Si0 Si4 2.395898 1_455
Si1 Si3 2.395898 1_455
Si1 Si5 2.395899 1_555
Si2 Si3 2.395898 1_565
Si2 Si4 2.395899 1_555
Si7 Si9 2.395898 1_654
Si8 Si9 2.395898 1_544
Si10 Si6 2.395898 1_456
Si10 Si8 2.395899 1_556
Si11 Si6 2.395898 1_566
Si11 Si7 2.395899 1_556
Rh0 Si0 2.418162 1_555
Rh0 Si1 2.418170 1_555
Rh0 Si2 2.418170 1_555
Rh1 Si3 2.418162 1_555
Rh1 Si4 2.418170 1_555
Rh1 Si5 2.418170 1_555
Rh2 Si6 2.418162 1_556
Rh2 Si7 2.418170 1_556
Rh2 Si8 2.418170 1_556
Rh3 Si9 2.418162 1_554
Rh3 Si10 2.418170 1_554
Rh3 Si11 2.418170 1_554
