# generated using pymatgen
data_Ba2GaBiTe5
_symmetry_space_group_name_H-M   'P 1'
_cell_length_a   9.80223800
_cell_length_b   10.04968800
_cell_length_c   13.71192600
_cell_angle_alpha   90.00000000
_cell_angle_beta   90.00000000
_cell_angle_gamma   90.00000000
_symmetry_Int_Tables_number   1
_chemical_formula_structural   Ba2GaBiTe5
_chemical_formula_sum   'Ba8 Ga4 Bi4 Te20'
_cell_volume   1350.75406385
_cell_formula_units_Z   4
loop_
 _symmetry_equiv_pos_site_id
 _symmetry_equiv_pos_as_xyz
  1  'x, y, z'
loop_
 _atom_site_type_symbol
 _atom_site_label
 _atom_site_symmetry_multiplicity
 _atom_site_fract_x
 _atom_site_fract_y
 _atom_site_fract_z
 _atom_site_occupancy
  Ba  Ba0  1  0.00726800  0.11809700  0.82557000  1
  Ba  Ba1  1  0.49273200  0.38190300  0.32557000  1
  Ba  Ba2  1  0.50726800  0.88190300  0.17443000  1
  Ba  Ba3  1  0.99273200  0.61809700  0.67443000  1
  Ba  Ba4  1  0.99273200  0.88190300  0.17443000  1
  Ba  Ba5  1  0.50726800  0.61809700  0.67443000  1
  Ba  Ba6  1  0.49273200  0.11809700  0.82557000  1
  Ba  Ba7  1  0.00726800  0.38190300  0.32557000  1
  Ga  Ga0  1  0.25000000  0.33440300  0.60117900  1
  Ga  Ga1  1  0.25000000  0.16559700  0.10117900  1
  Ga  Ga2  1  0.75000000  0.66559700  0.39882100  1
  Ga  Ga3  1  0.75000000  0.83440300  0.89882100  1
  Bi  Bi0  1  0.25000000  0.97601700  0.52744200  1
  Bi  Bi1  1  0.25000000  0.52398300  0.02744200  1
  Bi  Bi2  1  0.75000000  0.02398300  0.47255800  1
  Bi  Bi3  1  0.75000000  0.47601700  0.97255800  1
  Te  Te0  1  0.03291900  0.17913500  0.56324900  1
  Te  Te1  1  0.46708100  0.32086500  0.06324900  1
  Te  Te2  1  0.53291900  0.82086500  0.43675100  1
  Te  Te3  1  0.96708100  0.67913500  0.93675100  1
  Te  Te4  1  0.96708100  0.82086500  0.43675100  1
  Te  Te5  1  0.53291900  0.67913500  0.93675100  1
  Te  Te6  1  0.46708100  0.17913500  0.56324900  1
  Te  Te7  1  0.03291900  0.32086500  0.06324900  1
  Te  Te8  1  0.25000000  0.87341000  0.72874700  1
  Te  Te9  1  0.25000000  0.62659000  0.22874700  1
  Te  Te10  1  0.75000000  0.12659000  0.27125300  1
  Te  Te11  1  0.75000000  0.37341000  0.77125300  1
  Te  Te12  1  0.25000000  0.39257300  0.78924200  1
  Te  Te13  1  0.25000000  0.10742700  0.28924200  1
  Te  Te14  1  0.75000000  0.60742700  0.21075800  1
  Te  Te15  1  0.75000000  0.89257300  0.71075800  1
  Te  Te16  1  0.25000000  0.95516300  0.99157500  1
  Te  Te17  1  0.25000000  0.54483700  0.49157500  1
  Te  Te18  1  0.75000000  0.04483700  0.00842500  1
  Te  Te19  1  0.75000000  0.45516300  0.50842500  1
loop_
_geom_bond_atom_site_label_1
_geom_bond_atom_site_label_2
_geom_bond_distance
_geom_bond_site_symmetry_2
Ba0 Te18 3.631537 1_456
Ba0 Te0 3.657509 1_555
Ba0 Te8 3.670227 1_545
Ba0 Te11 3.673910 1_455
Ba0 Te12 3.676689 1_555
Ba0 Te16 3.677452 1_545
Ba0 Te15 3.738270 1_445
Ba0 Te7 3.851881 1_556
Ba1 Te19 3.631537 1_555
Ba1 Te1 3.657509 1_555
Ba1 Te9 3.670227 1_555
Ba1 Te10 3.673910 1_555
Ba1 Te13 3.676689 1_555
Ba1 Te17 3.677452 1_555
Ba1 Te14 3.738270 1_555
Ba1 Te6 3.851881 1_555
Ba2 Te16 3.631537 1_554
Ba2 Te2 3.657509 1_555
Ba2 Te10 3.670227 1_565
Ba2 Te9 3.673910 1_555
Ba2 Te14 3.676689 1_555
Ba2 Te18 3.677452 1_565
Ba2 Te13 3.738270 1_565
Ba2 Te5 3.851881 1_554
Ba3 Te17 3.631537 1_655
Ba3 Te3 3.657509 1_555
Ba3 Te11 3.670227 1_555
Ba3 Te8 3.673910 1_655
Ba3 Te15 3.676689 1_555
Ba3 Te19 3.677452 1_555
Ba3 Te12 3.738270 1_655
Ba3 Te4 3.851881 1_555
Ba4 Te16 3.631537 1_654
Ba4 Te4 3.657509 1_555
Ba4 Te10 3.670227 1_565
Ba4 Te9 3.673910 1_655
Ba4 Te14 3.676689 1_555
Ba4 Te18 3.677452 1_565
Ba4 Te13 3.738270 1_665
Ba4 Te3 3.851881 1_554
Ba5 Te17 3.631537 1_555
Ba5 Te5 3.657509 1_555
Ba5 Te11 3.670227 1_555
Ba5 Te8 3.673910 1_555
Ba5 Te15 3.676689 1_555
Ba5 Te19 3.677452 1_555
Ba5 Te12 3.738270 1_555
Ba5 Te2 3.851881 1_555
Ba6 Te18 3.631537 1_556
Ba6 Te6 3.657509 1_555
Ba6 Te8 3.670227 1_545
Ba6 Te11 3.673910 1_555
Ba6 Te12 3.676689 1_555
Ba6 Te16 3.677452 1_545
Ba6 Te15 3.738270 1_545
Ba6 Te1 3.851881 1_556
Ba7 Te19 3.631537 1_455
Ba7 Te7 3.657509 1_555
Ba7 Te9 3.670227 1_555
Ba7 Te10 3.673910 1_455
Ba7 Te13 3.676689 1_555
Ba7 Te17 3.677452 1_555
Ba7 Te14 3.738270 1_455
Ba7 Te0 3.851881 1_555
Ga0 Te17 2.594420 1_555
Ga0 Te12 2.644139 1_555
Ga0 Te0 2.689461 1_555
Ga0 Te6 2.689461 1_555
Ga1 Te16 2.594420 1_544
Ga1 Te13 2.644139 1_555
Ga1 Te7 2.689461 1_555
Ga1 Te1 2.689461 1_555
Ga2 Te19 2.594420 1_555
Ga2 Te14 2.644139 1_555
Ga2 Te2 2.689461 1_555
Ga2 Te4 2.689461 1_555
Ga3 Te18 2.594420 1_566
Ga3 Te15 2.644139 1_555
Ga3 Te3 2.689461 1_555
Ga3 Te5 2.689461 1_555
Bi0 Te8 2.946600 1_555
Bi0 Te6 2.989269 1_565
Bi0 Te0 2.989269 1_565
Bi0 Te2 3.415913 1_555
Bi0 Te4 3.415913 1_455
Bi0 Te13 3.523067 1_565
Bi1 Te9 2.946600 1_555
Bi1 Te7 2.989269 1_555
Bi1 Te1 2.989269 1_555
Bi1 Te5 3.415913 1_554
Bi1 Te3 3.415913 1_454
Bi1 Te12 3.523067 1_554
Bi2 Te10 2.946600 1_555
Bi2 Te2 2.989269 1_545
Bi2 Te4 2.989269 1_545
Bi2 Te0 3.415913 1_655
Bi2 Te6 3.415913 1_555
Bi2 Te15 3.523067 1_545
Bi3 Te11 2.946600 1_555
Bi3 Te3 2.989269 1_555
Bi3 Te5 2.989269 1_555
Bi3 Te7 3.415913 1_656
Bi3 Te1 3.415913 1_556
Bi3 Te14 3.523067 1_556
