# generated using pymatgen
data_Na2VBPO7
_symmetry_space_group_name_H-M   'P 1'
_cell_length_a   8.45640530
_cell_length_b   8.45529643
_cell_length_c   9.26589237
_cell_angle_alpha   87.76799428
_cell_angle_beta   87.74364727
_cell_angle_gamma   99.37261723
_symmetry_Int_Tables_number   1
_chemical_formula_structural   Na2VBPO7
_chemical_formula_sum   'Na8 V4 B4 P4 O28'
_cell_volume   652.48132349
_cell_formula_units_Z   4
loop_
 _symmetry_equiv_pos_site_id
 _symmetry_equiv_pos_as_xyz
  1  'x, y, z'
loop_
 _atom_site_type_symbol
 _atom_site_label
 _atom_site_symmetry_multiplicity
 _atom_site_fract_x
 _atom_site_fract_y
 _atom_site_fract_z
 _atom_site_occupancy
  Na  Na0  1  0.61742700  0.62114300  0.21219500  1
  Na  Na1  1  0.11650900  0.11760100  0.20300400  1
  Na  Na2  1  0.37247700  0.86760000  0.20687900  1
  Na  Na3  1  0.86634000  0.36583800  0.20779500  1
  Na  Na4  1  0.62758900  0.13243400  0.79312300  1
  Na  Na5  1  0.13394300  0.63420500  0.79197200  1
  Na  Na6  1  0.38255000  0.37878900  0.78787300  1
  Na  Na7  1  0.88341300  0.88222400  0.79701400  1
  V  V0  1  0.26383200  0.51253300  0.33807200  1
  V  V1  1  0.73597900  0.48761700  0.66200700  1
  V  V2  1  0.76597300  0.01684400  0.34503600  1
  V  V3  1  0.23383600  0.98340400  0.65489100  1
  B  B0  1  0.74178500  0.99302700  0.08554000  1
  B  B1  1  0.23725200  0.48605000  0.08260700  1
  B  B2  1  0.25818600  0.00685300  0.91441700  1
  B  B3  1  0.76282600  0.51396500  0.91749900  1
  P  P0  1  0.49024500  0.24141300  0.44097400  1
  P  P1  1  0.99325500  0.74171100  0.44025900  1
  P  P2  1  0.50972900  0.75864300  0.55906400  1
  P  P3  1  0.00658800  0.25843600  0.55969400  1
  O  O0  1  0.28595600  0.03166300  0.04996300  1
  O  O1  1  0.77795400  0.53234000  0.05554900  1
  O  O2  1  0.71399900  0.96824000  0.94999100  1
  O  O3  1  0.22208000  0.46768100  0.94452100  1
  O  O4  1  0.85389100  0.10387900  0.15112700  1
  O  O5  1  0.34971400  0.59956400  0.15364400  1
  O  O6  1  0.14616900  0.89596800  0.84878600  1
  O  O7  1  0.65032000  0.40042000  0.84646700  1
  O  O8  1  0.65073700  0.89939100  0.20877900  1
  O  O9  1  0.14250800  0.39396400  0.20000600  1
  O  O10  1  0.34928200  0.10052700  0.79118200  1
  O  O11  1  0.85756100  0.60595500  0.80004400  1
  O  O12  1  0.43995900  0.68510400  0.42120900  1
  O  O13  1  0.92970600  0.18495800  0.42212500  1
  O  O14  1  0.55988600  0.31490400  0.57890100  1
  O  O15  1  0.07028500  0.81525700  0.57775900  1
  O  O16  1  0.35136900  0.09982300  0.48128600  1
  O  O17  1  0.85266300  0.60358300  0.47986600  1
  O  O18  1  0.64904200  0.89975400  0.51860100  1
  O  O19  1  0.14729200  0.39654100  0.52027000  1
  O  O20  1  0.42299600  0.37126700  0.34778900  1
  O  O21  1  0.93822800  0.87651900  0.34685000  1
  O  O22  1  0.62251700  0.18494500  0.34514200  1
  O  O23  1  0.12560300  0.67659500  0.34914400  1
  O  O24  1  0.37774200  0.81532600  0.65497800  1
  O  O25  1  0.87428200  0.32340000  0.65092100  1
  O  O26  1  0.57684100  0.62863900  0.65226100  1
  O  O27  1  0.06168500  0.12346000  0.65292300  1
loop_
_geom_bond_atom_site_label_1
_geom_bond_atom_site_label_2
_geom_bond_distance
_geom_bond_site_symmetry_2
Na0 O1 2.185182 1_555
Na0 O8 2.322294 1_555
Na0 O5 2.328671 1_555
Na0 O12 2.532308 1_555
Na0 O20 2.691624 1_555
Na1 O0 2.202616 1_555
Na1 O4 2.276174 1_455
Na1 O9 2.310098 1_555
Na1 O21 2.614149 1_445
Na1 O13 2.659442 1_455
Na2 O0 2.197933 1_565
Na2 O5 2.317122 1_555
Na2 O8 2.325331 1_555
Na2 O12 2.605389 1_555
Na2 O23 2.687675 1_555
Na3 O1 2.191286 1_555
Na3 O4 2.282926 1_555
Na3 O9 2.306578 1_655
Na3 O13 2.585411 1_555
Na3 O22 2.612449 1_555
Na4 O2 2.197942 1_545
Na4 O7 2.316986 1_555
Na4 O10 2.325697 1_555
Na4 O14 2.605156 1_555
Na4 O25 2.686260 1_555
Na5 O3 2.192196 1_555
Na5 O6 2.281875 1_555
Na5 O11 2.308280 1_455
Na5 O15 2.586286 1_555
Na5 O24 2.611742 1_555
Na6 O3 2.185235 1_555
Na6 O10 2.322458 1_555
Na6 O7 2.329216 1_555
Na6 O14 2.531131 1_555
Na6 O26 2.690996 1_555
Na7 O2 2.202357 1_555
Na7 O6 2.277050 1_655
Na7 O11 2.309385 1_555
Na7 O27 2.616021 1_665
Na7 O15 2.659599 1_655
B0 O2 1.305499 1_554
B0 O4 1.395308 1_565
B0 O8 1.478314 1_555
B1 O3 1.303685 1_554
B1 O5 1.435306 1_555
B1 O9 1.446959 1_555
B2 O0 1.305479 1_556
B2 O6 1.395226 1_545
B2 O10 1.478585 1_555
B3 O1 1.303318 1_556
B3 O7 1.435647 1_555
B3 O11 1.446954 1_555
O4 V2 1.983986 1_555
O5 V0 1.902502 1_555
O6 V3 1.984217 1_555
O7 V1 1.902633 1_555
O8 V2 1.846405 1_565
O9 V0 1.887469 1_555
O10 V3 1.846131 1_545
O11 V1 1.887418 1_555
O12 P2 1.538854 1_555
O12 V0 2.100208 1_555
O13 P3 1.558498 1_655
O13 V2 1.990923 1_555
O14 P0 1.538895 1_555
O14 V1 2.100625 1_555
O15 P1 1.558645 1_455
O15 V3 1.990347 1_555
O16 P0 1.557133 1_555
O16 V3 1.994124 1_545
O17 P1 1.546672 1_555
O17 V1 2.051399 1_555
O18 P2 1.557108 1_555
O18 V2 1.994052 1_565
O19 P3 1.546855 1_555
O19 V0 2.051443 1_555
O20 P0 1.562891 1_555
O20 V0 1.941958 1_555
O21 P1 1.546777 1_555
O21 V2 2.023164 1_565
O22 P0 1.548017 1_555
O22 V2 2.013332 1_555
O23 P1 1.559166 1_455
O23 V0 1.957291 1_555
O24 P2 1.547450 1_555
O24 V3 2.015902 1_555
O25 P3 1.558815 1_655
O25 V1 1.958802 1_555
O26 P2 1.563311 1_555
O26 V1 1.940299 1_555
O27 P3 1.547221 1_555
O27 V3 2.020867 1_545
