# generated using pymatgen
data_RbAgTeS3
_symmetry_space_group_name_H-M   'P 1'
_cell_length_a   11.00699200
_cell_length_b   7.76295000
_cell_length_c   8.74913593
_cell_angle_alpha   73.92260487
_cell_angle_beta   90.00000000
_cell_angle_gamma   90.00000000
_symmetry_Int_Tables_number   1
_chemical_formula_structural   RbAgTeS3
_chemical_formula_sum   'Rb4 Ag4 Te4 S12'
_cell_volume   718.34586187
_cell_formula_units_Z   4
loop_
 _symmetry_equiv_pos_site_id
 _symmetry_equiv_pos_as_xyz
  1  'x, y, z'
loop_
 _atom_site_type_symbol
 _atom_site_label
 _atom_site_symmetry_multiplicity
 _atom_site_fract_x
 _atom_site_fract_y
 _atom_site_fract_z
 _atom_site_occupancy
  Rb  Rb0  1  0.24022000  0.47464300  0.88432100  1
  Rb  Rb1  1  0.75978000  0.52535700  0.11567900  1
  Rb  Rb2  1  0.74022000  0.52535700  0.61567900  1
  Rb  Rb3  1  0.25978000  0.47464300  0.38432100  1
  Ag  Ag0  1  0.24994000  0.91904700  0.51988600  1
  Ag  Ag1  1  0.75006000  0.08095300  0.48011400  1
  Ag  Ag2  1  0.74994000  0.08095300  0.98011400  1
  Ag  Ag3  1  0.25006000  0.91904700  0.01988600  1
  Te  Te0  1  0.50175000  0.91977100  0.77156400  1
  Te  Te1  1  0.49825000  0.08022900  0.22843600  1
  Te  Te2  1  0.00175000  0.08022900  0.72843600  1
  Te  Te3  1  0.99825000  0.91977100  0.27156400  1
  S  S0  1  0.05216200  0.74067000  0.53047400  1
  S  S1  1  0.94783800  0.25933000  0.46952600  1
  S  S2  1  0.55216200  0.25933000  0.96952600  1
  S  S3  1  0.44783800  0.74067000  0.03047400  1
  S  S4  1  0.71900500  0.87412200  0.78058600  1
  S  S5  1  0.28099500  0.12587800  0.21941400  1
  S  S6  1  0.21900500  0.12587800  0.71941400  1
  S  S7  1  0.78099500  0.87412200  0.28058600  1
  S  S8  1  0.44600200  0.73590500  0.60334800  1
  S  S9  1  0.55399800  0.26409500  0.39665200  1
  S  S10  1  0.94600200  0.26409500  0.89665200  1
  S  S11  1  0.05399800  0.73590500  0.10334800  1
loop_
_geom_bond_atom_site_label_1
_geom_bond_atom_site_label_2
_geom_bond_distance
_geom_bond_site_symmetry_2
Rb0 S6 3.410282 1_555
Rb0 S5 3.424992 1_556
Rb0 S8 3.539135 1_555
Rb0 S3 3.547529 1_556
Rb0 S10 3.615670 1_455
Rb0 S11 3.760286 1_556
Rb0 S2 3.801131 1_555
Rb0 S0 3.820047 1_555
Rb1 S7 3.410282 1_555
Rb1 S4 3.424992 1_554
Rb1 S9 3.539135 1_555
Rb1 S2 3.547529 1_554
Rb1 S11 3.615670 1_655
Rb1 S10 3.760286 1_554
Rb1 S3 3.801131 1_555
Rb1 S1 3.820047 1_555
Rb2 S4 3.410282 1_555
Rb2 S7 3.424992 1_555
Rb2 S10 3.539135 1_555
Rb2 S1 3.547529 1_555
Rb2 S8 3.615670 1_555
Rb2 S9 3.760286 1_555
Rb2 S0 3.801131 1_655
Rb2 S2 3.820047 1_555
Rb3 S5 3.410282 1_555
Rb3 S6 3.424992 1_555
Rb3 S11 3.539135 1_555
Rb3 S0 3.547529 1_555
Rb3 S9 3.615670 1_555
Rb3 S8 3.760286 1_555
Rb3 S1 3.801131 1_455
Rb3 S3 3.820047 1_555
Ag0 S0 2.567895 1_555
Ag0 S8 2.576178 1_555
Ag0 S5 2.695912 1_565
Ag0 S6 2.700717 1_565
Ag1 S1 2.567895 1_555
Ag1 S9 2.576178 1_555
Ag1 S4 2.695912 1_545
Ag1 S7 2.700717 1_545
Ag2 S2 2.567895 1_555
Ag2 S10 2.576178 1_555
Ag2 S7 2.695912 1_546
Ag2 S4 2.700717 1_545
Ag3 S3 2.567895 1_555
Ag3 S11 2.576178 1_555
Ag3 S6 2.695912 1_564
Ag3 S5 2.700717 1_565
S0 Te3 2.381620 1_455
S1 Te2 2.381620 1_655
S2 Te1 2.381620 1_556
S3 Te0 2.381620 1_554
S4 Te0 2.415522 1_555
S5 Te1 2.415522 1_555
S6 Te2 2.415522 1_555
S7 Te3 2.415522 1_555
S8 Te0 2.396534 1_555
S9 Te1 2.396534 1_555
S10 Te2 2.396534 1_655
S11 Te3 2.396534 1_455
