# generated using pymatgen
data_Mg3(SO6)2
_symmetry_space_group_name_H-M   'P 1'
_cell_length_a   7.42317500
_cell_length_b   9.69114700
_cell_length_c   12.94246000
_cell_angle_alpha   90.00000000
_cell_angle_beta   90.00000000
_cell_angle_gamma   90.00000000
_symmetry_Int_Tables_number   1
_chemical_formula_structural   Mg3(SO6)2
_chemical_formula_sum   'Mg12 S8 O48'
_cell_volume   931.06866704
_cell_formula_units_Z   4
loop_
 _symmetry_equiv_pos_site_id
 _symmetry_equiv_pos_as_xyz
  1  'x, y, z'
loop_
 _atom_site_type_symbol
 _atom_site_label
 _atom_site_symmetry_multiplicity
 _atom_site_fract_x
 _atom_site_fract_y
 _atom_site_fract_z
 _atom_site_occupancy
  Mg  Mg0  1  0.81440700  0.74716000  0.75000000  1
  Mg  Mg1  1  0.18559300  0.25284000  0.25000000  1
  Mg  Mg2  1  0.81440700  0.75284000  0.25000000  1
  Mg  Mg3  1  0.18559300  0.24716000  0.75000000  1
  Mg  Mg4  1  0.45516500  0.52506100  0.87366400  1
  Mg  Mg5  1  0.54483500  0.47493900  0.37366400  1
  Mg  Mg6  1  0.45516500  0.97493900  0.12633600  1
  Mg  Mg7  1  0.54483500  0.02506100  0.62633600  1
  Mg  Mg8  1  0.54483500  0.47493900  0.12633600  1
  Mg  Mg9  1  0.45516500  0.52506100  0.62633600  1
  Mg  Mg10  1  0.54483500  0.02506100  0.87366400  1
  Mg  Mg11  1  0.45516500  0.97493900  0.37366400  1
  S  S0  1  0.80430300  0.41941700  0.75000000  1
  S  S1  1  0.19569700  0.58058300  0.25000000  1
  S  S2  1  0.80430300  0.08058300  0.25000000  1
  S  S3  1  0.19569700  0.91941700  0.75000000  1
  S  S4  1  0.70427200  0.75000000  0.50000000  1
  S  S5  1  0.29572800  0.25000000  0.00000000  1
  S  S6  1  0.29572800  0.25000000  0.50000000  1
  S  S7  1  0.70427200  0.75000000  0.00000000  1
  O  O0  1  0.91477200  0.54699800  0.75000000  1
  O  O1  1  0.08522800  0.45300200  0.25000000  1
  O  O2  1  0.91477200  0.95300200  0.25000000  1
  O  O3  1  0.08522800  0.04699800  0.75000000  1
  O  O4  1  0.68636500  0.41666600  0.84386200  1
  O  O5  1  0.31363500  0.58333400  0.34386200  1
  O  O6  1  0.68636500  0.08333400  0.15613800  1
  O  O7  1  0.31363500  0.91666600  0.65613800  1
  O  O8  1  0.31363500  0.58333400  0.15613800  1
  O  O9  1  0.68636500  0.41666600  0.65613800  1
  O  O10  1  0.31363500  0.91666600  0.84386200  1
  O  O11  1  0.68636500  0.08333400  0.34386200  1
  O  O12  1  0.92032200  0.29716200  0.75000000  1
  O  O13  1  0.07967800  0.70283800  0.25000000  1
  O  O14  1  0.92032200  0.20283800  0.25000000  1
  O  O15  1  0.07967800  0.79716200  0.75000000  1
  O  O16  1  0.81520100  0.74867800  0.59270100  1
  O  O17  1  0.18479900  0.25132200  0.09270100  1
  O  O18  1  0.81520100  0.75132200  0.40729900  1
  O  O19  1  0.18479900  0.24867800  0.90729900  1
  O  O20  1  0.18479900  0.25132200  0.40729900  1
  O  O21  1  0.81520100  0.74867800  0.90729900  1
  O  O22  1  0.18479900  0.24867800  0.59270100  1
  O  O23  1  0.81520100  0.75132200  0.09270100  1
  O  O24  1  0.58143700  0.62441000  0.49781300  1
  O  O25  1  0.41856300  0.37559000  0.99781300  1
  O  O26  1  0.58143700  0.87559000  0.50218700  1
  O  O27  1  0.41856300  0.12441000  0.00218700  1
  O  O28  1  0.41856300  0.37559000  0.50218700  1
  O  O29  1  0.58143700  0.62441000  0.00218700  1
  O  O30  1  0.41856300  0.12441000  0.49781300  1
  O  O31  1  0.58143700  0.87559000  0.99781300  1
  O  O32  1  0.54790400  0.65306200  0.75000000  1
  O  O33  1  0.45209600  0.34693800  0.25000000  1
  O  O34  1  0.54790400  0.84693800  0.25000000  1
  O  O35  1  0.45209600  0.15306200  0.75000000  1
  O  O36  1  0.32676800  0.43008300  0.75000000  1
  O  O37  1  0.67323200  0.56991700  0.25000000  1
  O  O38  1  0.32676800  0.06991700  0.25000000  1
  O  O39  1  0.67323200  0.93008300  0.75000000  1
  O  O40  1  0.20790000  0.61305400  0.93165500  1
  O  O41  1  0.79210000  0.38694600  0.43165500  1
  O  O42  1  0.20790000  0.88694600  0.06834500  1
  O  O43  1  0.79210000  0.11305400  0.56834500  1
  O  O44  1  0.79210000  0.38694600  0.06834500  1
  O  O45  1  0.20790000  0.61305400  0.56834500  1
  O  O46  1  0.79210000  0.11305400  0.93165500  1
  O  O47  1  0.20790000  0.88694600  0.43165500  1
loop_
_geom_bond_atom_site_label_1
_geom_bond_atom_site_label_2
_geom_bond_distance
_geom_bond_site_symmetry_2
Mg0 O15 2.027900 1_655
Mg0 O16 2.035898 1_555
Mg0 O21 2.035898 1_555
Mg0 O39 2.059325 1_555
Mg0 O0 2.077953 1_555
Mg0 O32 2.178361 1_555
Mg1 O14 2.027900 1_455
Mg1 O20 2.035898 1_555
Mg1 O17 2.035898 1_555
Mg1 O38 2.059325 1_555
Mg1 O1 2.077953 1_555
Mg1 O33 2.178361 1_555
Mg2 O13 2.027900 1_655
Mg2 O23 2.035898 1_555
Mg2 O18 2.035898 1_555
Mg2 O37 2.059325 1_555
Mg2 O2 2.077953 1_555
Mg2 O34 2.178361 1_555
Mg3 O12 2.027900 1_455
Mg3 O22 2.035898 1_555
Mg3 O19 2.035898 1_555
Mg3 O36 2.059325 1_555
Mg3 O3 2.077953 1_555
Mg3 O35 2.178361 1_555
Mg4 O4 2.048838 1_555
Mg4 O36 2.077811 1_555
Mg4 O29 2.138343 1_556
Mg4 O32 2.138774 1_555
Mg4 O40 2.158596 1_555
Mg4 O25 2.180342 1_555
Mg5 O5 2.048838 1_555
Mg5 O37 2.077811 1_555
Mg5 O28 2.138343 1_555
Mg5 O33 2.138774 1_555
Mg5 O41 2.158596 1_555
Mg5 O24 2.180342 1_555
Mg6 O6 2.048838 1_565
Mg6 O38 2.077811 1_565
Mg6 O31 2.138343 1_554
Mg6 O34 2.138774 1_555
Mg6 O42 2.158596 1_555
Mg6 O27 2.180342 1_565
Mg7 O7 2.048838 1_545
Mg7 O39 2.077811 1_545
Mg7 O30 2.138343 1_555
Mg7 O35 2.138774 1_555
Mg7 O43 2.158596 1_555
Mg7 O26 2.180342 1_545
Mg8 O8 2.048838 1_555
Mg8 O37 2.077811 1_555
Mg8 O25 2.138343 1_554
Mg8 O33 2.138774 1_555
Mg8 O44 2.158596 1_555
Mg8 O29 2.180342 1_555
Mg9 O9 2.048838 1_555
Mg9 O36 2.077811 1_555
Mg9 O24 2.138343 1_555
Mg9 O32 2.138774 1_555
Mg9 O45 2.158596 1_555
Mg9 O28 2.180342 1_555
Mg10 O10 2.048838 1_545
Mg10 O39 2.077811 1_545
Mg10 O27 2.138343 1_556
Mg10 O35 2.138774 1_555
Mg10 O46 2.158596 1_555
Mg10 O31 2.180342 1_545
Mg11 O11 2.048838 1_565
Mg11 O38 2.077811 1_565
Mg11 O26 2.138343 1_555
Mg11 O34 2.138774 1_555
Mg11 O47 2.158596 1_555
Mg11 O30 2.180342 1_565
O0 S0 1.483628 1_555
O1 S1 1.483628 1_555
O2 S2 1.483628 1_565
O3 S3 1.483628 1_545
O4 S0 1.497637 1_555
O5 S1 1.497637 1_555
O6 S2 1.497637 1_555
O7 S3 1.497637 1_555
O8 S1 1.497637 1_555
O9 S0 1.497637 1_555
O10 S3 1.497637 1_555
O11 S2 1.497637 1_555
O12 S0 1.464734 1_555
O13 S1 1.464734 1_555
O14 S2 1.464734 1_555
O15 S3 1.464734 1_555
O16 S4 1.455231 1_555
O17 S5 1.455231 1_555
O18 S4 1.455231 1_555
O19 S5 1.455231 1_556
O20 S6 1.455231 1_555
O21 S7 1.455231 1_556
O22 S6 1.455231 1_555
O23 S7 1.455231 1_555
O24 S4 1.521048 1_555
O25 S5 1.521048 1_556
O26 S4 1.521048 1_555
O27 S5 1.521048 1_555
O28 S6 1.521048 1_555
O29 S7 1.521048 1_555
O30 S6 1.521048 1_555
O31 S7 1.521048 1_556
