# generated using pymatgen
data_Y14Ge4O29F5
_symmetry_space_group_name_H-M   'P 1'
_cell_length_a   5.63765112
_cell_length_b   11.01371320
_cell_length_c   12.22723089
_cell_angle_alpha   89.95672528
_cell_angle_beta   89.98709093
_cell_angle_gamma   79.97712826
_symmetry_Int_Tables_number   1
_chemical_formula_structural   Y14Ge4O29F5
_chemical_formula_sum   'Y14 Ge4 O29 F5'
_cell_volume   747.61981067
_cell_formula_units_Z   1
loop_
 _symmetry_equiv_pos_site_id
 _symmetry_equiv_pos_as_xyz
  1  'x, y, z'
loop_
 _atom_site_type_symbol
 _atom_site_label
 _atom_site_symmetry_multiplicity
 _atom_site_fract_x
 _atom_site_fract_y
 _atom_site_fract_z
 _atom_site_occupancy
  Y  Y0  1  0.05779600  0.82800300  0.85552600  1
  Y  Y1  1  0.55392200  0.32746000  0.35241900  1
  Y  Y2  1  0.94473700  0.17210700  0.85326300  1
  Y  Y3  1  0.44412300  0.67149900  0.35497500  1
  Y  Y4  1  0.94336700  0.17193500  0.14529700  1
  Y  Y5  1  0.44435300  0.67096400  0.64507000  1
  Y  Y6  1  0.05705100  0.82837800  0.14492300  1
  Y  Y7  1  0.55668700  0.32805700  0.64489600  1
  Y  Y8  1  0.99814600  0.49918200  0.50141500  1
  Y  Y9  1  0.49575700  0.99830400  0.00247600  1
  Y  Y10  1  0.36833300  0.32589900  0.00303700  1
  Y  Y11  1  0.87492300  0.82550100  0.49962400  1
  Y  Y12  1  0.63012600  0.67524900  0.00052300  1
  Y  Y13  1  0.12663700  0.17450000  0.50225200  1
  Ge  Ge0  1  0.00021700  0.49994400  0.22062800  1
  Ge  Ge1  1  0.50001300  0.00025000  0.72114000  1
  Ge  Ge2  1  0.00000400  0.49960200  0.77908000  1
  Ge  Ge3  1  0.50011900  0.00073400  0.27922800  1
  O  O0  1  0.80936900  0.84210500  0.99945900  1
  O  O1  1  0.30885200  0.33972900  0.49961700  1
  O  O2  1  0.18730400  0.15819400  0.99974800  1
  O  O3  1  0.68919300  0.66048600  0.49980000  1
  O  O4  1  0.93268700  0.63425300  0.86167900  1
  O  O5  1  0.43123300  0.13391900  0.36214800  1
  O  O6  1  0.06375000  0.36518100  0.86121200  1
  O  O7  1  0.56077400  0.86567700  0.36186900  1
  O  O8  1  0.06302900  0.36545800  0.13838600  1
  O  O9  1  0.56080400  0.86593800  0.63863000  1
  O  O10  1  0.92855900  0.63492600  0.13936400  1
  O  O11  1  0.43273000  0.13405200  0.63791400  1
  O  O12  1  0.24060900  0.50141800  0.31778800  1
  O  O13  1  0.74096200  0.00349600  0.81755100  1
  O  O14  1  0.75892000  0.49643300  0.31756100  1
  O  O15  1  0.25840800  0.99835600  0.81705100  1
  O  O16  1  0.75918700  0.49852700  0.68214300  1
  O  O17  1  0.25845400  0.99766100  0.18292600  1
  O  O18  1  0.24075200  0.50209800  0.68209800  1
  O  O19  1  0.74053600  0.00085300  0.18220300  1
  O  O20  1  0.69477200  0.16478300  0.00170700  1
  O  O21  1  0.19292100  0.66347700  0.49995100  1
  O  O22  1  0.30399700  0.83434400  0.99991300  1
  O  O23  1  0.80330100  0.33481800  0.50044700  1
  O  O24  1  0.43230800  0.51716100  0.99947600  1
  O  O25  1  0.57629100  0.30256600  0.16699100  1
  O  O26  1  0.07930400  0.80252300  0.66955200  1
  O  O27  1  0.92432600  0.20023700  0.67067000  1
  O  O28  1  0.07892500  0.80259100  0.33055300  1
  F  F0  1  0.93960300  0.01528800  0.49883100  1
  F  F1  1  0.43092500  0.70016100  0.17360200  1
  F  F2  1  0.43145400  0.69901000  0.82723300  1
  F  F3  1  0.92859100  0.20054100  0.32788800  1
  F  F4  1  0.57086000  0.30017100  0.82826400  1
loop_
_geom_bond_atom_site_label_1
_geom_bond_atom_site_label_2
_geom_bond_distance
_geom_bond_site_symmetry_2
Ge0 O10 1.774696 1_455
Ge0 O8 1.774839 1_555
Ge0 O12 1.804635 1_555
Ge0 O14 1.809505 1_455
Ge1 O9 1.774585 1_545
Ge1 O11 1.776074 1_555
Ge1 O15 1.800036 1_545
Ge1 O13 1.803841 1_555
Ge2 O6 1.772622 1_555
Ge2 O4 1.780319 1_455
Ge2 O16 1.804035 1_455
Ge2 O18 1.805901 1_555
Ge3 O5 1.770378 1_555
Ge3 O7 1.780845 1_545
Ge3 O19 1.801218 1_555
Ge3 O17 1.805740 1_545
O0 Y0 2.237518 1_655
O0 Y9 2.242361 1_556
O0 Y12 2.246065 1_556
O0 Y6 2.250191 1_656
O1 Y13 2.240208 1_555
O1 Y7 2.249982 1_555
O1 Y8 2.254367 1_455
O1 Y1 2.258486 1_555
O2 Y4 2.237905 1_456
O2 Y2 2.242625 1_455
O2 Y9 2.249475 1_546
O2 Y10 2.260774 1_556
O3 Y3 2.236469 1_555
O3 Y5 2.239962 1_555
O3 Y11 2.249849 1_555
O3 Y8 2.261233 1_555
O4 Y0 2.362271 1_655
O4 Y12 2.393173 1_556
O5 Y1 2.355652 1_555
O5 Y13 2.411616 1_555
O6 Y2 2.340606 1_455
O6 Y10 2.425806 1_556
O7 Y3 2.345878 1_555
O7 Y11 2.428368 1_555
O8 Y4 2.346346 1_455
O8 Y10 2.372754 1_555
O9 Y5 2.353491 1_555
O9 Y11 2.438956 1_555
O10 Y6 2.367784 1_655
O10 Y12 2.376963 1_555
O11 Y7 2.362468 1_555
O11 Y13 2.379162 1_555
O12 Y3 2.404524 1_555
O12 Y1 2.406489 1_555
O12 Y8 2.630680 1_455
O13 Y2 2.388107 1_555
O13 Y0 2.437054 1_645
O13 Y9 2.655715 1_546
O14 Y1 2.393314 1_555
O14 Y3 2.426198 1_555
O14 Y8 2.624716 1_555
O15 Y0 2.399516 1_555
O15 Y2 2.410023 1_465
O15 Y9 2.632857 1_556
O16 Y7 2.404863 1_555
O16 Y5 2.405911 1_555
O16 Y8 2.588466 1_555
O17 Y6 2.391585 1_555
O17 Y4 2.421458 1_465
O17 Y9 2.580699 1_555
O18 Y5 2.392297 1_555
O18 Y7 2.422015 1_555
O18 Y8 2.601782 1_455
O19 Y4 2.410407 1_555
O19 Y6 2.412754 1_645
O19 Y9 2.597953 1_545
O20 Y4 2.256688 1_555
O20 Y2 2.307602 1_554
O20 Y9 2.310169 1_545
O20 Y10 2.323630 1_555
O21 Y8 2.274189 1_455
O21 Y3 2.279888 1_555
O21 Y5 2.281801 1_555
O21 Y11 2.298874 1_455
O22 Y0 2.254610 1_555
O22 Y9 2.260594 1_556
O22 Y6 2.262048 1_556
O22 Y12 2.308549 1_556
O23 Y7 2.256719 1_555
O23 Y8 2.275085 1_555
O23 Y1 2.302212 1_555
O23 Y13 2.306641 1_655
O24 Y10 2.198556 1_556
O24 Y12 2.225171 1_556
O25 Y1 2.284812 1_555
O25 Y10 2.314043 1_555
O25 Y4 2.320964 1_555
O26 Y0 2.292005 1_555
O26 Y5 2.320974 1_555
O26 Y11 2.368016 1_455
O27 Y2 2.253979 1_555
O27 Y7 2.315360 1_555
O27 Y13 2.347162 1_655
O28 Y6 2.287915 1_555
O28 Y3 2.318959 1_555
O28 Y11 2.357687 1_455
F0 Y11 2.183465 1_545
F0 Y13 2.198207 1_655
F1 Y3 2.239235 1_555
F1 Y6 2.350180 1_555
F1 Y12 2.389068 1_555
F2 Y5 2.248318 1_555
F2 Y0 2.352508 1_555
F2 Y12 2.389716 1_556
F3 Y4 2.254433 1_555
F3 Y1 2.340547 1_555
F3 Y13 2.400609 1_655
F4 Y7 2.262332 1_555
F4 Y2 2.343162 1_555
F4 Y10 2.416169 1_556
