# generated using pymatgen
data_Li3Fe2(SiO4)2
_symmetry_space_group_name_H-M   'P 1'
_cell_length_a   7.34950621
_cell_length_b   7.60495204
_cell_length_c   8.29221858
_cell_angle_alpha   116.43988975
_cell_angle_beta   63.69523141
_cell_angle_gamma   90.00062070
_symmetry_Int_Tables_number   1
_chemical_formula_structural   Li3Fe2(SiO4)2
_chemical_formula_sum   'Li6 Fe4 Si4 O16'
_cell_volume   360.60862727
_cell_formula_units_Z   2
loop_
 _symmetry_equiv_pos_site_id
 _symmetry_equiv_pos_as_xyz
  1  'x, y, z'
loop_
 _atom_site_type_symbol
 _atom_site_label
 _atom_site_symmetry_multiplicity
 _atom_site_fract_x
 _atom_site_fract_y
 _atom_site_fract_z
 _atom_site_occupancy
  Li  Li0  1  0.54406000  0.62500300  0.25000000  1
  Li  Li1  1  0.06488700  0.12503900  0.25002000  1
  Li  Li2  1  0.74716600  0.55982800  0.50634200  1
  Li  Li3  1  0.25541800  0.05582900  0.49281700  1
  Li  Li4  1  0.49824100  0.19415300  0.00718600  1
  Li  Li5  1  0.00350900  0.69017200  0.99366700  1
  Fe  Fe0  1  0.51470400  0.81465800  0.98443200  1
  Fe  Fe1  1  0.24924800  0.43532500  0.51557000  1
  Fe  Fe2  1  0.00248400  0.31252200  0.99469600  1
  Fe  Fe3  1  0.74719100  0.93746700  0.50529000  1
  Si  Si0  1  0.18887000  0.62499400  0.25000500  1
  Si  Si1  1  0.69228400  0.12498900  0.24998100  1
  Si  Si2  1  0.29608500  0.88621000  0.75951100  1
  Si  Si3  1  0.80561100  0.36379400  0.74049400  1
  O  O0  1  0.68554700  0.54647900  0.74633700  1
  O  O1  1  0.16959700  0.06449000  0.75736500  1
  O  O2  1  0.67695700  0.18551600  0.74262100  1
  O  O3  1  0.18183600  0.70354000  0.75365200  1
  O  O4  1  0.84138100  0.29435700  0.24252800  1
  O  O5  1  0.33139100  0.79080900  0.24005700  1
  O  O6  1  0.83390200  0.95564000  0.25746500  1
  O  O7  1  0.32148200  0.45923300  0.25995900  1
  O  O8  1  0.95055700  0.73555200  0.45207300  1
  O  O9  1  0.46605400  0.22131200  0.45889100  1
  O  O10  1  0.15261100  0.51444700  0.04793600  1
  O  O11  1  0.67497500  0.02865000  0.04107200  1
  O  O12  1  0.53198400  0.78869900  0.54181700  1
  O  O13  1  0.03765300  0.25333000  0.52916000  1
  O  O14  1  0.31675900  0.99666300  0.97086200  1
  O  O15  1  0.82381100  0.46130000  0.95819300  1
loop_
_geom_bond_atom_site_label_1
_geom_bond_atom_site_label_2
_geom_bond_distance
_geom_bond_site_symmetry_2
Li0 O7 2.060344 1_555
Li0 O5 2.060736 1_555
Li0 O12 2.130770 1_555
Li0 O15 2.130808 1_554
Li1 O14 1.981919 1_544
Li1 O13 1.981931 1_555
Li1 O4 2.126493 1_455
Li1 O6 2.126800 1_445
Li2 O0 1.886001 1_555
Li2 O4 2.016309 1_555
Li2 O8 2.040147 1_555
Li2 O12 2.179203 1_555
Li3 O1 1.964551 1_555
Li3 O5 1.991941 1_545
Li3 O9 1.997177 1_555
Li3 O13 2.019345 1_555
Li4 O2 1.964743 1_554
Li4 O7 1.992201 1_555
Li4 O11 1.997187 1_555
Li4 O14 2.019563 1_544
Li5 O3 1.886132 1_555
Li5 O6 2.016270 1_456
Li5 O10 2.040071 1_556
Li5 O15 2.179135 1_455
Fe0 O0 1.962454 1_555
Fe0 O11 2.016462 1_566
Fe0 O5 2.037749 1_556
Fe0 O14 2.080570 1_555
Fe1 O3 1.962325 1_555
Fe1 O9 2.015921 1_555
Fe1 O7 2.037992 1_555
Fe1 O13 2.080926 1_555
Fe2 O1 1.868570 1_555
Fe2 O10 1.896951 1_556
Fe2 O4 1.934056 1_456
Fe2 O15 1.937391 1_455
Fe3 O2 1.868601 1_565
Fe3 O8 1.897013 1_555
Fe3 O6 1.934047 1_555
Fe3 O12 1.937509 1_555
O0 Si3 1.616592 1_555
O1 Si2 1.654967 1_545
O2 Si3 1.655002 1_555
O3 Si2 1.616573 1_555
O4 Si1 1.695419 1_555
O5 Si0 1.646256 1_555
O6 Si1 1.695369 1_565
O7 Si0 1.646156 1_555
O8 Si0 1.651247 1_655
O9 Si1 1.618408 1_555
O10 Si0 1.651279 1_555
O11 Si1 1.618323 1_555
O12 Si2 1.687756 1_555
O13 Si3 1.650873 1_455
O14 Si2 1.650821 1_555
O15 Si3 1.687744 1_555
