# generated using pymatgen
data_Hf9GeMo4
_symmetry_space_group_name_H-M   'P 1'
_cell_length_a   8.64622752
_cell_length_b   8.64623102
_cell_length_c   8.65674014
_cell_angle_alpha   89.99999885
_cell_angle_beta   90.00000506
_cell_angle_gamma   119.99999448
_symmetry_Int_Tables_number   1
_chemical_formula_structural   Hf9GeMo4
_chemical_formula_sum   'Hf18 Ge2 Mo8'
_cell_volume   560.45213966
_cell_formula_units_Z   2
loop_
 _symmetry_equiv_pos_site_id
 _symmetry_equiv_pos_as_xyz
  1  'x, y, z'
loop_
 _atom_site_type_symbol
 _atom_site_label
 _atom_site_symmetry_multiplicity
 _atom_site_fract_x
 _atom_site_fract_y
 _atom_site_fract_z
 _atom_site_occupancy
  Hf  Hf0  1  0.53912363  0.07824832  0.25000269  1
  Hf  Hf1  1  0.46088562  0.92177019  0.74999741  1
  Hf  Hf2  1  0.92175122  0.46087595  0.25000261  1
  Hf  Hf3  1  0.07823040  0.53911506  0.74999749  1
  Hf  Hf4  1  0.53912350  0.46087580  0.25000276  1
  Hf  Hf5  1  0.46088563  0.53911499  0.74999739  1
  Hf  Hf6  1  0.19679384  0.39358535  0.04387224  1
  Hf  Hf7  1  0.80319392  0.60639008  0.95616936  1
  Hf  Hf8  1  0.60641467  0.80320692  0.04387203  1
  Hf  Hf9  1  0.80319464  0.60639110  0.54382740  1
  Hf  Hf10  1  0.39360980  0.19680518  0.95616932  1
  Hf  Hf11  1  0.19679327  0.39358452  0.45613150  1
  Hf  Hf12  1  0.19679348  0.80320787  0.04387199  1
  Hf  Hf13  1  0.39360869  0.19680484  0.54382751  1
  Hf  Hf14  1  0.80319448  0.19680423  0.95616940  1
  Hf  Hf15  1  0.60641565  0.80320738  0.45613147  1
  Hf  Hf16  1  0.80319481  0.19680358  0.54382735  1
  Hf  Hf17  1  0.19679292  0.80320856  0.45613139  1
  Ge  Ge0  1  0.33333316  0.66666687  0.25000027  1
  Ge  Ge1  1  0.66666715  0.33333335  0.74999998  1
  Mo  Mo0  1  0.00000007  -0.00000011  -0.00000302  1
  Mo  Mo1  1  -0.00000001  -0.00000003  0.50000313  1
  Mo  Mo2  1  0.89013023  0.78026135  0.25000808  1
  Mo  Mo3  1  0.10986125  0.21972121  0.74999204  1
  Mo  Mo4  1  0.21973946  0.10986987  0.25000808  1
  Mo  Mo5  1  0.78027835  0.89013878  0.74999205  1
  Mo  Mo6  1  0.89013034  0.10986886  0.25000813  1
  Mo  Mo7  1  0.10986083  0.89013994  0.74999196  1
loop_
_geom_bond_atom_site_label_1
_geom_bond_atom_site_label_2
_geom_bond_distance
_geom_bond_site_symmetry_2
Hf0 Mo4 2.907828 1_555
Hf0 Mo6 2.907840 1_555
Hf1 Mo5 2.907950 1_555
Hf1 Mo7 2.907960 1_555
Hf2 Mo2 2.907837 1_555
Hf2 Mo6 2.907843 1_555
Hf3 Mo3 2.907958 1_555
Hf3 Mo7 2.907961 1_555
Hf4 Mo4 2.907829 1_555
Hf4 Mo2 2.907839 1_555
Hf5 Mo5 2.907949 1_555
Hf5 Mo3 2.907956 1_555
Hf6 Mo3 2.857801 1_554
Hf6 Mo0 2.971485 1_555
Hf6 Mo4 3.118957 1_555
Hf6 Mo6 3.118970 1_455
Hf7 Mo2 2.857506 1_556
Hf7 Mo0 2.971614 1_666
Hf7 Mo5 3.119279 1_555
Hf7 Mo7 3.119293 1_655
Hf8 Mo5 2.857798 1_554
Hf8 Mo0 2.971484 1_665
Hf8 Mo2 3.118958 1_555
Hf8 Mo6 3.118962 1_565
Hf9 Mo2 2.857353 1_555
Hf9 Mo1 2.971603 1_665
Hf9 Mo5 3.119212 1_555
Hf9 Mo7 3.119224 1_655
Hf10 Mo4 2.857503 1_556
Hf10 Mo0 2.971612 1_556
Hf10 Mo3 3.119279 1_555
Hf10 Mo7 3.119284 1_545
Hf11 Mo3 2.857647 1_555
Hf11 Mo1 2.971475 1_555
Hf11 Mo4 3.118892 1_555
Hf11 Mo6 3.118903 1_455
Hf12 Mo7 2.857802 1_554
Hf12 Mo0 2.971484 1_565
Hf12 Mo4 3.118964 1_565
Hf12 Mo2 3.118970 1_455
Hf13 Mo4 2.857350 1_555
Hf13 Mo1 2.971601 1_555
Hf13 Mo3 3.119209 1_555
Hf13 Mo7 3.119215 1_545
Hf14 Mo6 2.857505 1_556
Hf14 Mo0 2.971614 1_656
Hf14 Mo5 3.119286 1_545
Hf14 Mo3 3.119292 1_655
Hf15 Mo5 2.857645 1_555
Hf15 Mo1 2.971472 1_665
Hf15 Mo2 3.118890 1_555
Hf15 Mo6 3.118894 1_565
Hf16 Mo6 2.857352 1_555
Hf16 Mo1 2.971601 1_655
Hf16 Mo5 3.119218 1_545
Hf16 Mo3 3.119225 1_655
Hf17 Mo7 2.857647 1_555
Hf17 Mo1 2.971472 1_565
Hf17 Mo4 3.118894 1_565
Hf17 Mo2 3.118901 1_455
Ge0 Hf12 2.713897 1_555
Ge0 Hf6 2.713901 1_555
Ge0 Hf8 2.713902 1_555
Ge0 Hf17 2.713921 1_555
Ge0 Hf15 2.713924 1_555
Ge0 Hf11 2.713924 1_555
Ge0 Hf4 3.081862 1_555
Ge0 Hf0 3.081863 1_565
Ge0 Hf2 3.081865 1_455
Ge1 Hf14 2.713995 1_555
Ge1 Hf7 2.713997 1_555
Ge1 Hf10 2.713999 1_555
Ge1 Hf16 2.714019 1_555
Ge1 Hf9 2.714021 1_555
Ge1 Hf13 2.714023 1_555
Ge1 Hf5 3.081725 1_555
Ge1 Hf3 3.081725 1_655
Ge1 Hf1 3.081726 1_545
Mo0 Mo7 2.718582 1_544
Mo0 Mo3 2.718585 1_554
Mo0 Mo5 2.718586 1_444
Mo0 Mo2 2.718705 1_445
Mo0 Mo6 2.718706 1_455
Mo0 Mo4 2.718708 1_555
Mo1 Mo7 2.718471 1_545
Mo1 Mo3 2.718474 1_555
Mo1 Mo5 2.718475 1_445
Mo1 Mo6 2.718594 1_455
Mo1 Mo2 2.718595 1_445
Mo1 Mo4 2.718598 1_555
Mo2 Mo6 2.849862 1_565
Mo2 Mo4 2.849874 1_665
Mo3 Mo7 2.849634 1_545
Mo3 Mo5 2.849648 1_445
Mo4 Mo6 2.849871 1_455
Mo5 Mo7 2.849640 1_655
