# generated using pymatgen
data_Er2Al3Cu
_symmetry_space_group_name_H-M   'P 1'
_cell_length_a   5.37642423
_cell_length_b   5.37642423
_cell_length_c   5.37642421
_cell_angle_alpha   61.38829344
_cell_angle_beta   61.38829344
_cell_angle_gamma   61.38829273
_symmetry_Int_Tables_number   1
_chemical_formula_structural   Er2Al3Cu
_chemical_formula_sum   'Er2 Al3 Cu1'
_cell_volume   113.31917730
_cell_formula_units_Z   1
loop_
 _symmetry_equiv_pos_site_id
 _symmetry_equiv_pos_as_xyz
  1  'x, y, z'
loop_
 _atom_site_type_symbol
 _atom_site_label
 _atom_site_symmetry_multiplicity
 _atom_site_fract_x
 _atom_site_fract_y
 _atom_site_fract_z
 _atom_site_occupancy
  Er  Er0  1  0.62376600  0.62376600  0.62376600  1
  Er  Er1  1  0.37623400  0.37623400  0.37623400  1
  Al  Al0  1  0.00000000  0.50000000  0.00000000  1
  Al  Al1  1  0.50000000  0.00000000  0.00000000  1
  Al  Al2  1  0.00000000  0.00000000  0.50000000  1
  Cu  Cu0  1  0.00000000  0.00000000  0.00000000  1
loop_
_geom_bond_atom_site_label_1
_geom_bond_atom_site_label_2
_geom_bond_distance
_geom_bond_site_symmetry_2
Er0 Er1 3.225249 1_555
Er0 Er1 3.360403 1_655
Er0 Er1 3.360403 1_565
Er0 Er1 3.360403 1_556
Al0 Cu0 2.688212 1_565
Al0 Cu0 2.688212 1_555
Al0 Al1 2.744423 1_555
Al0 Al1 2.744423 1_465
Al0 Al2 2.744423 1_555
Al0 Al2 2.744423 1_564
Al0 Er1 3.157009 1_555
Al0 Er0 3.157009 1_454
Al0 Er0 3.183146 1_455
Al0 Er1 3.183146 1_554
Al0 Er0 3.183146 1_554
Al0 Er1 3.183146 1_455
Al1 Cu0 2.688212 1_655
Al1 Cu0 2.688212 1_555
Al1 Al2 2.744423 1_555
Al1 Al2 2.744423 1_654
Al1 Er1 3.157009 1_555
Al1 Er0 3.157009 1_544
Al1 Er0 3.183146 1_545
Al1 Er1 3.183146 1_554
Al1 Er0 3.183146 1_554
Al1 Er1 3.183146 1_545
Al2 Cu0 2.688212 1_556
Al2 Cu0 2.688212 1_555
Al2 Er1 3.157009 1_555
Al2 Er0 3.157009 1_445
Al2 Er0 3.183146 1_545
Al2 Er0 3.183146 1_455
Al2 Er1 3.183146 1_455
Al2 Er1 3.183146 1_545
Cu0 Er1 3.217908 1_455
Cu0 Er1 3.217908 1_545
Cu0 Er0 3.217908 1_454
Cu0 Er0 3.217908 1_544
Cu0 Er1 3.217909 1_554
Cu0 Er0 3.217909 1_445
