# generated using pymatgen
data_Ce2MgS4
_symmetry_space_group_name_H-M   'P 1'
_cell_length_a   12.93658696
_cell_length_b   7.76701172
_cell_length_c   12.92620638
_cell_angle_alpha   90.00000000
_cell_angle_beta   90.00000000
_cell_angle_gamma   90.00000000
_symmetry_Int_Tables_number   1
_chemical_formula_structural   Ce2MgS4
_chemical_formula_sum   'Ce16 Mg8 S32'
_cell_volume   1298.80741167
_cell_formula_units_Z   8
loop_
 _symmetry_equiv_pos_site_id
 _symmetry_equiv_pos_as_xyz
  1  'x, y, z'
loop_
 _atom_site_type_symbol
 _atom_site_label
 _atom_site_symmetry_multiplicity
 _atom_site_fract_x
 _atom_site_fract_y
 _atom_site_fract_z
 _atom_site_occupancy
  Ce  Ce0  1  0.10860141  0.88525240  0.68472845  1
  Ce  Ce1  1  0.89139859  0.11474760  0.18472845  1
  Ce  Ce2  1  0.39139859  0.88525240  0.18472845  1
  Ce  Ce3  1  0.60860141  0.11474760  0.68472845  1
  Ce  Ce4  1  0.12427813  0.38422353  0.32730225  1
  Ce  Ce5  1  0.87572187  0.61577647  0.82730225  1
  Ce  Ce6  1  0.37572187  0.38422353  0.82730225  1
  Ce  Ce7  1  0.62427813  0.61577647  0.32730225  1
  Ce  Ce8  1  0.13345088  0.62939433  0.99373251  1
  Ce  Ce9  1  0.86654912  0.37060567  0.49373251  1
  Ce  Ce10  1  0.36654912  0.62939433  0.49373251  1
  Ce  Ce11  1  0.63345088  0.37060567  0.99373251  1
  Ce  Ce12  1  0.13411775  0.12891122  0.99322560  1
  Ce  Ce13  1  0.86588225  0.87108878  0.49322560  1
  Ce  Ce14  1  0.36588225  0.12891122  0.49322560  1
  Ce  Ce15  1  0.63411775  0.87108878  0.99322560  1
  Mg  Mg0  1  0.10858405  0.38314899  0.69280141  1
  Mg  Mg1  1  0.89141595  0.61685101  0.19280141  1
  Mg  Mg2  1  0.39141595  0.38314899  0.19280141  1
  Mg  Mg3  1  0.60858405  0.61685101  0.69280141  1
  Mg  Mg4  1  0.12355670  0.87800871  0.32066023  1
  Mg  Mg5  1  0.87644330  0.12199129  0.82066023  1
  Mg  Mg6  1  0.37644330  0.87800871  0.82066023  1
  Mg  Mg7  1  0.62355670  0.12199129  0.32066023  1
  S  S0  1  0.01172130  0.88060579  0.87828921  1
  S  S1  1  0.98827870  0.11939421  0.37828921  1
  S  S2  1  0.48827870  0.88060579  0.37828921  1
  S  S3  1  0.51172130  0.11939421  0.87828921  1
  S  S4  1  0.02866987  0.38028265  0.13033783  1
  S  S5  1  0.97133013  0.61971735  0.63033783  1
  S  S6  1  0.47133013  0.38028265  0.63033783  1
  S  S7  1  0.52866987  0.61971735  0.13033783  1
  S  S8  1  0.02208434  0.37044472  0.86748927  1
  S  S9  1  0.97791566  0.62955528  0.36748927  1
  S  S10  1  0.47791566  0.37044472  0.36748927  1
  S  S11  1  0.52208434  0.62955528  0.86748927  1
  S  S12  1  0.04370468  0.87123561  0.14049426  1
  S  S13  1  0.95629532  0.12876439  0.64049426  1
  S  S14  1  0.45629532  0.87123561  0.64049426  1
  S  S15  1  0.54370468  0.12876439  0.14049426  1
  S  S16  1  0.20916105  0.87876225  0.49755088  1
  S  S17  1  0.79083895  0.12123775  0.99755088  1
  S  S18  1  0.29083895  0.87876225  0.99755088  1
  S  S19  1  0.70916105  0.12123775  0.49755088  1
  S  S20  1  0.20913690  0.38033799  0.52239264  1
  S  S21  1  0.79086310  0.61966201  0.02239264  1
  S  S22  1  0.29086310  0.38033799  0.02239264  1
  S  S23  1  0.70913690  0.61966201  0.52239264  1
  S  S24  1  0.23333514  0.13128360  0.77285647  1
  S  S25  1  0.76666486  0.86871640  0.27285647  1
  S  S26  1  0.26666486  0.13128360  0.27285647  1
  S  S27  1  0.73333514  0.86871640  0.77285647  1
  S  S28  1  0.23219677  0.63384666  0.77514001  1
  S  S29  1  0.76780323  0.36615334  0.27514001  1
  S  S30  1  0.26780323  0.63384666  0.27514001  1
  S  S31  1  0.73219677  0.36615334  0.77514001  1
loop_
_geom_bond_atom_site_label_1
_geom_bond_atom_site_label_2
_geom_bond_distance
_geom_bond_site_symmetry_2
Ce0 S16 2.747515 1_555
Ce0 S24 2.748296 1_565
Ce0 S28 2.781227 1_555
Ce0 S13 2.790402 1_465
Ce0 S0 2.798588 1_555
Ce0 S5 2.810942 1_455
Ce1 S17 2.747515 1_554
Ce1 S25 2.748296 1_545
Ce1 S29 2.781227 1_555
Ce1 S12 2.790402 1_645
Ce1 S1 2.798588 1_555
Ce1 S4 2.810942 1_655
Ce2 S18 2.747515 1_554
Ce2 S26 2.748296 1_565
Ce2 S30 2.781227 1_555
Ce2 S15 2.790402 1_565
Ce2 S2 2.798588 1_555
Ce2 S7 2.810942 1_555
Ce3 S19 2.747515 1_555
Ce3 S27 2.748296 1_545
Ce3 S31 2.781227 1_555
Ce3 S14 2.790402 1_545
Ce3 S3 2.798588 1_555
Ce3 S6 2.810942 1_555
Ce4 S9 2.736025 1_455
Ce4 S20 2.750528 1_555
Ce4 S30 2.767869 1_555
Ce4 S26 2.783499 1_555
Ce4 S1 2.785807 1_455
Ce4 S4 2.830698 1_555
Ce5 S8 2.736025 1_655
Ce5 S21 2.750528 1_556
Ce5 S31 2.767869 1_555
Ce5 S27 2.783499 1_555
Ce5 S0 2.785807 1_655
Ce5 S5 2.830698 1_555
Ce6 S11 2.736025 1_555
Ce6 S22 2.750528 1_556
Ce6 S28 2.767869 1_555
Ce6 S24 2.783499 1_555
Ce6 S3 2.785807 1_555
Ce6 S6 2.830698 1_555
Ce7 S10 2.736025 1_555
Ce7 S23 2.750528 1_555
Ce7 S29 2.767869 1_555
Ce7 S25 2.783499 1_555
Ce7 S2 2.785807 1_555
Ce7 S7 2.830698 1_555
Ce8 S18 2.810580 1_555
Ce8 S22 2.833032 1_556
Ce8 S12 2.911212 1_556
Ce8 S0 2.917827 1_555
Ce8 S4 2.949419 1_556
Ce8 S8 2.963736 1_555
Ce8 S28 3.101111 1_555
Ce9 S19 2.810580 1_555
Ce9 S23 2.833032 1_555
Ce9 S13 2.911212 1_555
Ce9 S1 2.917827 1_555
Ce9 S5 2.949419 1_555
Ce9 S9 2.963736 1_555
Ce9 S29 3.101111 1_555
Ce10 S16 2.810580 1_555
Ce10 S20 2.833032 1_555
Ce10 S14 2.911212 1_555
Ce10 S2 2.917827 1_555
Ce10 S6 2.949419 1_555
Ce10 S10 2.963736 1_555
Ce10 S30 3.101111 1_555
Ce11 S17 2.810580 1_555
Ce11 S21 2.833032 1_556
Ce11 S15 2.911212 1_556
Ce11 S3 2.917827 1_555
Ce11 S7 2.949419 1_556
Ce11 S11 2.963736 1_555
Ce11 S31 3.101111 1_555
Ce12 S18 2.808652 1_545
Ce12 S22 2.840330 1_556
Ce12 S8 2.874281 1_555
Ce12 S0 2.904113 1_545
Ce12 S4 2.968829 1_556
Ce12 S12 2.999553 1_546
Ce12 S24 3.124414 1_555
Ce13 S19 2.808652 1_565
Ce13 S23 2.840330 1_555
Ce13 S9 2.874281 1_555
Ce13 S1 2.904113 1_565
Ce13 S5 2.968829 1_555
Ce13 S13 2.999553 1_565
Ce13 S25 3.124414 1_555
Ce14 S16 2.808652 1_545
Ce14 S20 2.840330 1_555
Ce14 S10 2.874281 1_555
Ce14 S2 2.904113 1_545
Ce14 S6 2.968829 1_555
Ce14 S14 2.999553 1_545
Ce14 S26 3.124414 1_555
Ce15 S17 2.808652 1_565
Ce15 S21 2.840330 1_556
Ce15 S11 2.874281 1_555
Ce15 S3 2.904113 1_565
Ce15 S7 2.968829 1_556
Ce15 S15 2.999553 1_566
Ce15 S27 3.124414 1_555
Mg0 S8 2.522046 1_555
Mg0 S20 2.558250 1_555
Mg0 S5 2.679704 1_455
Mg0 S28 2.735228 1_555
Mg0 S24 2.739020 1_555
Mg0 S13 2.870933 1_455
Mg1 S9 2.522046 1_555
Mg1 S21 2.558250 1_555
Mg1 S4 2.679704 1_655
Mg1 S29 2.735228 1_555
Mg1 S25 2.739020 1_555
Mg1 S12 2.870933 1_655
Mg2 S10 2.522046 1_555
Mg2 S22 2.558250 1_555
Mg2 S7 2.679704 1_555
Mg2 S30 2.735228 1_555
Mg2 S26 2.739020 1_555
Mg2 S15 2.870933 1_555
Mg3 S11 2.522046 1_555
Mg3 S23 2.558250 1_555
Mg3 S6 2.679704 1_555
Mg3 S31 2.735228 1_555
Mg3 S27 2.739020 1_555
Mg3 S14 2.870933 1_555
Mg4 S16 2.540596 1_555
Mg4 S12 2.548231 1_555
Mg4 S1 2.670688 1_465
Mg4 S30 2.724841 1_555
Mg4 S9 2.764080 1_455
Mg4 S26 2.771116 1_565
Mg5 S17 2.540596 1_555
Mg5 S13 2.548231 1_555
Mg5 S0 2.670688 1_645
Mg5 S31 2.724841 1_555
Mg5 S8 2.764080 1_655
Mg5 S27 2.771116 1_545
Mg6 S18 2.540596 1_555
Mg6 S14 2.548231 1_555
Mg6 S3 2.670688 1_565
Mg6 S28 2.724841 1_555
Mg6 S11 2.764080 1_555
Mg6 S24 2.771116 1_565
Mg7 S19 2.540596 1_555
Mg7 S15 2.548231 1_555
Mg7 S2 2.670688 1_545
Mg7 S29 2.724841 1_555
Mg7 S10 2.764080 1_555
Mg7 S25 2.771116 1_545
