# generated using pymatgen
data_Sc2Ga3Cu
_symmetry_space_group_name_H-M   'P 1'
_cell_length_a   3.26245615
_cell_length_b   4.24960496
_cell_length_c   7.37283938
_cell_angle_alpha   90.00000000
_cell_angle_beta   90.00000000
_cell_angle_gamma   90.00000000
_symmetry_Int_Tables_number   1
_chemical_formula_structural   Sc2Ga3Cu
_chemical_formula_sum   'Sc2 Ga3 Cu1'
_cell_volume   102.21814989
_cell_formula_units_Z   1
loop_
 _symmetry_equiv_pos_site_id
 _symmetry_equiv_pos_as_xyz
  1  'x, y, z'
loop_
 _atom_site_type_symbol
 _atom_site_label
 _atom_site_symmetry_multiplicity
 _atom_site_fract_x
 _atom_site_fract_y
 _atom_site_fract_z
 _atom_site_occupancy
  Sc  Sc0  1  -0.00000000  0.00000000  0.00314241  1
  Sc  Sc1  1  -0.00000000  0.50000000  0.49792504  1
  Ga  Ga0  1  0.50000000  0.50000000  0.83656638  1
  Ga  Ga1  1  0.50000000  0.50000000  0.17673769  1
  Ga  Ga2  1  0.50000000  0.00000000  0.65554071  1
  Cu  Cu0  1  0.50000000  -0.00000000  0.33008776  1
loop_
_geom_bond_atom_site_label_1
_geom_bond_atom_site_label_2
_geom_bond_distance
_geom_bond_site_symmetry_2
Ga0 Ga1 2.508028 1_556
Ga0 Ga2 2.509211 1_555
Ga0 Ga2 2.509211 1_565
Ga0 Sc0 2.946865 1_666
Ga0 Sc0 2.946865 1_556
Ga0 Sc0 2.946865 1_656
Ga0 Sc0 2.946865 1_566
Ga0 Sc1 2.982391 1_655
Ga0 Sc1 2.982391 1_555
Ga1 Sc1 2.875522 1_655
Ga1 Sc1 2.875522 1_555
Ga1 Sc0 2.968806 1_665
Ga1 Sc0 2.968806 1_655
Ga1 Sc0 2.968806 1_565
Ga1 Sc0 2.968806 1_555
Ga2 Sc1 2.919950 1_655
Ga2 Sc1 2.919950 1_645
Ga2 Sc1 2.919950 1_555
Ga2 Sc1 2.919950 1_545
Ga2 Sc0 3.037912 1_656
Ga2 Sc0 3.037912 1_556
Cu0 Ga2 2.399512 1_555
Cu0 Ga1 2.406886 1_555
Cu0 Ga1 2.406886 1_545
Cu0 Sc0 2.910582 1_555
Cu0 Sc0 2.910582 1_655
Cu0 Sc1 2.950753 1_545
Cu0 Sc1 2.950753 1_645
Cu0 Sc1 2.950753 1_555
Cu0 Sc1 2.950753 1_655
