# generated using pymatgen
data_Na4Eu2P4Pb
_symmetry_space_group_name_H-M   'P 1'
_cell_length_a   9.65217120
_cell_length_b   9.65217120
_cell_length_c   7.26053772
_cell_angle_alpha   89.01497667
_cell_angle_beta   89.01497667
_cell_angle_gamma   120.04618757
_symmetry_Int_Tables_number   1
_chemical_formula_structural   Na4Eu2P4Pb
_chemical_formula_sum   'Na8 Eu4 P8 Pb2'
_cell_volume   585.18061022
_cell_formula_units_Z   2
loop_
 _symmetry_equiv_pos_site_id
 _symmetry_equiv_pos_as_xyz
  1  'x, y, z'
loop_
 _atom_site_type_symbol
 _atom_site_label
 _atom_site_symmetry_multiplicity
 _atom_site_fract_x
 _atom_site_fract_y
 _atom_site_fract_z
 _atom_site_occupancy
  Na  Na0  1  0.07205100  0.53355000  0.62303100  1
  Na  Na1  1  0.53355000  0.07205100  0.12303100  1
  Na  Na2  1  0.27668600  0.13417900  0.81031200  1
  Na  Na3  1  0.86337900  0.71091400  0.77718300  1
  Na  Na4  1  0.86431400  0.14796100  0.78998800  1
  Na  Na5  1  0.71091400  0.86337900  0.27718300  1
  Na  Na6  1  0.13417900  0.27668600  0.31031200  1
  Na  Na7  1  0.14796100  0.86431400  0.28998800  1
  Eu  Eu0  1  0.46781700  0.94267600  0.61669900  1
  Eu  Eu1  1  0.46348400  0.51680400  0.62456500  1
  Eu  Eu2  1  0.94267600  0.46781700  0.11669900  1
  Eu  Eu3  1  0.51680400  0.46348400  0.12456500  1
  P  P0  1  0.62965700  0.80785200  0.85983900  1
  P  P1  1  0.18779400  0.36949100  0.90778000  1
  P  P2  1  0.17904200  0.80930600  0.88664400  1
  P  P3  1  0.36949100  0.18779400  0.40778000  1
  P  P4  1  0.80785200  0.62965700  0.35983900  1
  P  P5  1  0.80930600  0.17904200  0.38664400  1
  P  P6  1  0.66508900  0.34194900  0.87221500  1
  P  P7  1  0.34194900  0.66508900  0.37221500  1
  Pb  Pb0  1  0.67786600  0.34073600  0.50732600  1
  Pb  Pb1  1  0.34073600  0.67786600  0.00732600  1
loop_
_geom_bond_atom_site_label_1
_geom_bond_atom_site_label_2
_geom_bond_distance
_geom_bond_site_symmetry_2
Na0 P7 2.856577 1_555
Na0 P2 3.050361 1_555
Na0 P1 3.125425 1_555
Na0 Pb0 3.423193 1_455
Na1 P6 2.856577 1_554
Na1 P5 3.050361 1_555
Na1 P3 3.125425 1_555
Na1 Pb1 3.423193 1_545
Na2 P2 2.826840 1_545
Na2 P1 2.895082 1_555
Na2 P3 3.000929 1_555
Na2 P6 3.292181 1_555
Na3 P2 2.833432 1_655
Na3 P0 2.900224 1_555
Na3 P4 3.130615 1_555
Na3 P6 3.141122 1_555
Na4 P1 2.919132 1_655
Na4 P0 2.936230 1_545
Na4 P5 3.021712 1_555
Na4 P6 3.341349 1_555
Na5 P5 2.833432 1_565
Na5 P4 2.900224 1_555
Na5 P0 3.130615 1_554
Na5 P7 3.141122 1_555
Na6 P5 2.826840 1_455
Na6 P3 2.895082 1_555
Na6 P1 3.000929 1_554
Na6 P7 3.292181 1_555
Na7 P3 2.919132 1_565
Na7 P4 2.936230 1_455
Na7 P2 3.021712 1_554
Na7 P7 3.341349 1_555
Eu0 P7 2.963726 1_555
Eu0 P0 3.049846 1_555
Eu0 P2 3.065928 1_555
Eu0 P3 3.312675 1_565
Eu0 P5 3.317922 1_565
Eu0 Pb0 3.397401 1_565
Eu1 P7 2.906315 1_555
Eu1 P0 3.021510 1_555
Eu1 P1 3.041952 1_555
Eu1 P3 3.274317 1_555
Eu1 Pb0 3.377146 1_555
Eu1 P4 3.465801 1_555
Eu2 P6 2.963726 1_554
Eu2 P4 3.049846 1_555
Eu2 P5 3.065928 1_555
Eu2 P1 3.312675 1_654
Eu2 P2 3.317922 1_654
Eu2 Pb1 3.397401 1_655
Eu3 P6 2.906315 1_554
Eu3 P4 3.021510 1_555
Eu3 P3 3.041952 1_555
Eu3 P1 3.274317 1_554
Eu3 Pb1 3.377146 1_555
Eu3 P0 3.465801 1_554
P0 Pb1 2.616324 1_556
P1 Pb1 2.696600 1_556
P2 Pb1 2.608577 1_556
P3 Pb0 2.696600 1_555
P4 Pb0 2.616324 1_555
P5 Pb0 2.608577 1_555
P6 Pb0 2.650540 1_555
P7 Pb1 2.650540 1_555
