# generated using pymatgen
data_GaN
_symmetry_space_group_name_H-M   'P 1'
_cell_length_a   12.10239651
_cell_length_b   11.44056583
_cell_length_c   12.09179318
_cell_angle_alpha   88.41682054
_cell_angle_beta   92.76564958
_cell_angle_gamma   79.90631554
_symmetry_Int_Tables_number   1
_chemical_formula_structural   GaN
_chemical_formula_sum   'Ga50 N50'
_cell_volume   1645.26748238
_cell_formula_units_Z   50
loop_
 _symmetry_equiv_pos_site_id
 _symmetry_equiv_pos_as_xyz
  1  'x, y, z'
loop_
 _atom_site_type_symbol
 _atom_site_label
 _atom_site_symmetry_multiplicity
 _atom_site_fract_x
 _atom_site_fract_y
 _atom_site_fract_z
 _atom_site_occupancy
  Ga  Ga0  1  0.82886778  0.72000406  0.58865304  1
  Ga  Ga1  1  0.23157820  0.31095701  0.37772291  1
  Ga  Ga2  1  0.87296862  0.27969364  0.83760937  1
  Ga  Ga3  1  0.63337117  0.70730224  0.40807890  1
  Ga  Ga4  1  0.40411510  0.18295016  0.30212525  1
  Ga  Ga5  1  0.57599675  0.69354500  0.66822359  1
  Ga  Ga6  1  0.65892824  0.88877873  0.84321171  1
  Ga  Ga7  1  0.22524017  0.57440564  0.37696847  1
  Ga  Ga8  1  0.49579868  0.33573796  0.17906029  1
  Ga  Ga9  1  0.95177783  0.69812307  0.03857544  1
  Ga  Ga10  1  0.97282268  0.81621045  0.80101152  1
  Ga  Ga11  1  0.09017200  0.87319800  0.05957186  1
  Ga  Ga12  1  0.68261231  0.53891744  0.82429613  1
  Ga  Ga13  1  0.68442085  0.28678294  0.96036338  1
  Ga  Ga14  1  0.04403712  0.22086576  0.52812699  1
  Ga  Ga15  1  0.52331916  0.72414606  0.91740251  1
  Ga  Ga16  1  0.73013870  0.13211775  0.29657145  1
  Ga  Ga17  1  0.59214608  0.52236995  0.09853837  1
  Ga  Ga18  1  0.77993176  0.60567343  0.28042246  1
  Ga  Ga19  1  0.03320526  0.10767320  0.79772116  1
  Ga  Ga20  1  0.98209178  0.08042055  0.32312112  1
  Ga  Ga21  1  0.35789738  0.60830639  0.04554174  1
  Ga  Ga22  1  0.01989644  0.36674688  0.32213929  1
  Ga  Ga23  1  0.44897090  0.59022806  0.32302816  1
  Ga  Ga24  1  0.31153682  0.62986318  0.59567177  1
  Ga  Ga25  1  0.56379976  0.01608677  0.38375783  1
  Ga  Ga26  1  0.20370058  0.03642955  0.16219944  1
  Ga  Ga27  1  0.07272667  0.58537652  0.22061633  1
  Ga  Ga28  1  0.09946510  0.76079044  0.60077421  1
  Ga  Ga29  1  0.79303434  0.02862605  0.83890888  1
  Ga  Ga30  1  0.01560751  0.40808880  0.99096842  1
  Ga  Ga31  1  0.38527601  0.80972804  0.43807082  1
  Ga  Ga32  1  0.15045024  0.57174700  0.73447755  1
  Ga  Ga33  1  0.15807766  0.44148553  0.56747619  1
  Ga  Ga34  1  0.46435206  0.88994134  0.21563176  1
  Ga  Ga35  1  0.08946873  0.13300855  0.00095264  1
  Ga  Ga36  1  0.90528308  0.86077218  0.44789380  1
  Ga  Ga37  1  0.66046578  0.80881124  0.13731824  1
  Ga  Ga38  1  0.39978998  0.89813463  0.67504585  1
  Ga  Ga39  1  0.12194267  0.81720788  0.31347206  1
  Ga  Ga40  1  0.90971642  0.08966271  0.06936405  1
  Ga  Ga41  1  0.86088057  0.86479904  0.22918175  1
  Ga  Ga42  1  0.25057373  0.09070272  0.58833532  1
  Ga  Ga43  1  0.92478948  0.56743678  0.80987420  1
  Ga  Ga44  1  0.30164143  0.78795073  0.15714610  1
  Ga  Ga45  1  0.16119881  0.60512740  0.94649769  1
  Ga  Ga46  1  0.99269628  0.97101015  0.60912659  1
  Ga  Ga47  1  0.26761664  0.00843138  0.39069900  1
  Ga  Ga48  1  0.97958819  0.59855404  0.45931889  1
  Ga  Ga49  1  0.76806377  0.64957700  0.98818558  1
  N  N0  1  0.51299223  0.28926399  0.51163156  1
  N  N1  1  0.96097233  0.37227573  0.60538131  1
  N  N2  1  0.71761296  0.41704147  0.44638156  1
  N  N3  1  0.08451927  0.09538284  0.64133411  1
  N  N4  1  0.07142566  0.73651010  0.44144359  1
  N  N5  1  0.05296459  0.76683192  0.93990492  1
  N  N6  1  0.06428506  0.54482834  0.06225930  1
  N  N7  1  0.86500247  0.72502004  0.74723205  1
  N  N8  1  0.69779390  0.95638738  0.61309670  1
  N  N9  1  0.42718948  0.43495140  0.84940881  1
  N  N10  1  0.94046083  0.53711393  0.30536213  1
  N  N11  1  0.65074239  0.79825117  0.97523500  1
  N  N12  1  0.27655154  0.25924677  0.79176461  1
  N  N13  1  0.59744514  0.35953084  0.06693197  1
  N  N14  1  0.41283578  0.98196416  0.96178198  1
  N  N15  1  0.18636388  0.29700629  0.80323288  1
  N  N16  1  0.60083183  0.07584731  0.12313332  1
  N  N17  1  0.76224030  0.18324074  0.65736041  1
  N  N18  1  0.19455061  0.26947913  0.53392070  1
  N  N19  1  0.70096314  0.61788489  0.13487183  1
  N  N20  1  0.32917181  0.27768485  0.05829395  1
  N  N21  1  0.26274077  0.35452229  0.02750559  1
  N  N22  1  0.49702304  0.16117275  0.71900656  1
  N  N23  1  0.01875516  0.78013008  0.18420690  1
  N  N24  1  0.25605502  0.84237803  0.78453350  1
  N  N25  1  0.29033293  0.73316617  0.31843751  1
  N  N26  1  0.68046027  0.69928310  0.55956621  1
  N  N27  1  0.52293621  0.85521730  0.37606974  1
  N  N28  1  0.23617427  0.86720629  0.87186637  1
  N  N29  1  0.86374016  0.31871113  0.14676291  1
  N  N30  1  0.79461507  0.17233328  0.57200146  1
  N  N31  1  0.93378476  0.98557825  0.76744871  1
  N  N32  1  0.61972286  0.99646071  0.56028254  1
  N  N33  1  0.96543002  0.23085125  0.38876519  1
  N  N34  1  0.34629845  0.03886071  0.24635795  1
  N  N35  1  0.12797770  0.98907519  0.30228022  1
  N  N36  1  0.44776370  0.46606812  0.76546201  1
  N  N37  1  0.79653064  0.34260899  0.20848754  1
  N  N38  1  0.91108893  0.39582450  0.68377485  1
  N  N39  1  0.80016748  0.14960842  0.94517448  1
  N  N40  1  0.86356286  0.04635724  0.21563033  1
  N  N41  1  0.44452429  0.36096574  0.53640457  1
  N  N42  1  0.69410105  0.42736176  0.53418684  1
  N  N43  1  0.34980304  0.06279375  0.93565777  1
  N  N44  1  0.45114890  0.51887305  0.17489363  1
  N  N45  1  0.41624094  0.74165080  0.59220757  1
  N  N46  1  0.53220398  0.83047168  0.77162291  1
  N  N47  1  0.59302257  0.09094212  0.03046397  1
  N  N48  1  0.54865850  0.17866923  0.79369229  1
  N  N49  1  0.72970090  0.37545972  0.84411412  1
loop_
_geom_bond_atom_site_label_1
_geom_bond_atom_site_label_2
_geom_bond_distance
_geom_bond_site_symmetry_2
Ga0 N26 1.870485 1_555
Ga0 N7 1.950722 1_555
Ga1 N18 2.024824 1_555
Ga2 N49 1.888113 1_555
Ga2 N39 2.268504 1_555
Ga2 N38 2.366270 1_555
Ga3 N26 1.886839 1_555
Ga3 N27 1.980122 1_555
Ga4 N34 2.020386 1_555
Ga5 N26 1.874437 1_555
Ga5 N46 2.044319 1_555
Ga5 N45 2.076893 1_555
Ga6 N11 1.894945 1_555
Ga6 N46 1.951622 1_555
Ga7 N25 2.214676 1_555
Ga7 N4 2.553888 1_555
Ga8 N13 1.919276 1_555
Ga8 N44 2.068567 1_555
Ga8 N20 2.622788 1_555
Ga9 N5 1.991893 1_654
Ga9 N6 2.027147 1_655
Ga9 N23 2.204160 1_655
Ga10 N7 1.909655 1_555
Ga10 N5 1.918020 1_655
Ga10 N31 1.938973 1_555
Ga11 N5 2.000962 1_554
Ga11 N23 2.124046 1_555
Ga12 N49 1.862199 1_555
Ga13 N13 1.828734 1_556
Ga13 N49 1.869713 1_555
Ga13 N39 1.931079 1_555
Ga14 N33 1.885293 1_455
Ga14 N3 1.937770 1_555
Ga14 N18 1.994318 1_555
Ga14 N1 2.110319 1_455
Ga15 N11 1.993216 1_555
Ga15 N46 2.131701 1_555
Ga16 N40 2.044070 1_555
Ga17 N19 1.896464 1_555
Ga17 N13 1.902805 1_555
Ga17 N44 1.984885 1_555
Ga18 N19 1.951328 1_555
Ga18 N10 1.968969 1_555
Ga19 N3 2.019587 1_555
Ga19 N31 2.026761 1_445
Ga19 Ga35 2.556112 1_556
Ga20 N33 1.897862 1_555
Ga20 N35 1.919273 1_645
Ga20 N40 1.985696 1_555
Ga21 N44 2.025689 1_555
Ga22 N33 1.960093 1_455
Ga22 N10 2.016651 1_455
Ga23 N44 1.988306 1_555
Ga23 N25 2.290742 1_555
Ga24 N45 1.952769 1_555
Ga24 Ga32 2.787159 1_555
Ga25 N27 1.991100 1_545
Ga25 N32 2.201229 1_545
Ga26 N34 1.965593 1_555
Ga26 N35 2.067732 1_545
Ga26 Ga35 2.453382 1_555
Ga27 N6 1.984689 1_555
Ga27 N10 2.086653 1_455
Ga27 N23 2.234454 1_555
Ga28 N4 1.975753 1_555
Ga28 Ga32 2.629602 1_555
Ga29 N39 1.924508 1_555
Ga29 N31 1.939669 1_545
Ga30 N6 1.971289 1_556
Ga31 N45 1.992693 1_555
Ga31 N27 2.002847 1_555
Ga31 N25 2.107723 1_555
Ga32 Ga33 2.538351 1_555
Ga32 Ga45 2.602819 1_555
Ga32 Ga43 2.928676 1_455
Ga33 N18 1.997209 1_555
Ga34 N27 2.037154 1_555
Ga34 N34 2.077250 1_565
Ga35 Ga40 2.488342 1_455
Ga36 N4 2.255976 1_655
Ga37 N11 1.966055 1_554
Ga37 N19 2.154530 1_555
Ga38 N46 1.966136 1_555
Ga38 N45 2.059468 1_555
Ga38 N24 2.397942 1_555
Ga39 N4 1.957242 1_555
Ga39 N35 1.981518 1_555
Ga39 N23 2.053423 1_555
Ga39 N25 2.092699 1_555
Ga40 N40 1.956885 1_555
Ga40 N39 1.978732 1_554
Ga41 N40 2.085116 1_565
Ga41 N23 2.089336 1_655
Ga42 N18 2.114806 1_555
Ga42 N3 2.130901 1_555
Ga43 N7 1.939572 1_555
Ga43 N38 2.542095 1_555
Ga44 N25 2.050250 1_555
Ga45 N6 2.049292 1_556
Ga45 N5 2.068094 1_555
Ga46 N3 1.988552 1_665
Ga46 N31 2.075746 1_555
Ga47 N35 2.004491 1_545
Ga47 N34 2.077782 1_555
Ga48 N10 2.070707 1_555
Ga48 N4 2.095775 1_655
Ga49 N11 2.012702 1_555
Ga49 N19 2.035587 1_556
N0 N41 1.117378 1_555
N1 N38 1.161000 1_555
N2 N42 1.116455 1_555
N12 N15 1.117959 1_555
N14 N43 1.118122 1_565
N16 N47 1.125935 1_555
N17 N30 1.124016 1_555
N20 N21 1.123847 1_555
N22 N48 1.116028 1_555
N24 N28 1.127330 1_555
N29 N37 1.133724 1_555
N32 N8 1.133364 1_555
N36 N9 1.120083 1_555
