# generated using pymatgen
data_Na3Mo(OF)3
_symmetry_space_group_name_H-M   'P 1'
_cell_length_a   5.80614613
_cell_length_b   5.80614595
_cell_length_c   5.80614606
_cell_angle_alpha   57.29251827
_cell_angle_beta   57.29251842
_cell_angle_gamma   57.29251490
_symmetry_Int_Tables_number   1
_chemical_formula_structural   Na3Mo(OF)3
_chemical_formula_sum   'Na3 Mo1 O3 F3'
_cell_volume   129.77639493
_cell_formula_units_Z   1
loop_
 _symmetry_equiv_pos_site_id
 _symmetry_equiv_pos_as_xyz
  1  'x, y, z'
loop_
 _atom_site_type_symbol
 _atom_site_label
 _atom_site_symmetry_multiplicity
 _atom_site_fract_x
 _atom_site_fract_y
 _atom_site_fract_z
 _atom_site_occupancy
  Na  Na0  1  0.77398223  0.77398223  0.77398023  1
  Na  Na1  1  0.49007933  0.49007933  0.49007933  1
  Na  Na2  1  0.27237372  0.27237372  0.27237472  1
  Mo  Mo0  1  -0.00022325  -0.00022325  -0.00022325  1
  O  O0  1  0.31132043  0.74534402  0.09397635  1
  O  O1  1  0.09397635  0.31132043  0.74534302  1
  O  O2  1  0.74534302  0.09397635  0.31132143  1
  F  F0  1  0.64021018  0.17593014  0.87120784  1
  F  F1  1  0.17593014  0.87120784  0.64020918  1
  F  F2  1  0.87120684  0.64020918  0.17593114  1
loop_
_geom_bond_atom_site_label_1
_geom_bond_atom_site_label_2
_geom_bond_distance
_geom_bond_site_symmetry_2
Na0 O2 2.334688 1_565
Na0 O1 2.334698 1_655
Na0 O0 2.334701 1_556
Na1 O2 2.407619 1_555
Na1 O0 2.407622 1_555
Na1 O1 2.407623 1_555
Na2 O1 2.451366 1_555
Na2 O2 2.451371 1_555
Na2 O0 2.451375 1_555
Mo0 O0 1.749754 1_545
Mo0 O1 1.749754 1_554
Mo0 O2 1.749759 1_455
F0 Mo0 2.124462 1_656
F0 Na1 2.233379 1_555
F0 Na2 2.245272 1_556
F0 Na0 2.315043 1_545
F1 Mo0 2.124468 1_566
F1 Na1 2.233376 1_555
F1 Na2 2.245265 1_565
F1 Na0 2.315039 1_455
F2 Mo0 2.124470 1_665
F2 Na1 2.233371 1_555
F2 Na2 2.245270 1_655
F2 Na0 2.315048 1_554
