# generated using pymatgen
data_Mg2SnWO6
_symmetry_space_group_name_H-M   'P 1'
_cell_length_a   5.57305300
_cell_length_b   5.57252500
_cell_length_c   9.78430198
_cell_angle_alpha   55.94860636
_cell_angle_beta   90.00000000
_cell_angle_gamma   90.00000000
_symmetry_Int_Tables_number   1
_chemical_formula_structural   Mg2SnWO6
_chemical_formula_sum   'Mg4 Sn2 W2 O12'
_cell_volume   251.75971992
_cell_formula_units_Z   2
loop_
 _symmetry_equiv_pos_site_id
 _symmetry_equiv_pos_as_xyz
  1  'x, y, z'
loop_
 _atom_site_type_symbol
 _atom_site_label
 _atom_site_symmetry_multiplicity
 _atom_site_fract_x
 _atom_site_fract_y
 _atom_site_fract_z
 _atom_site_occupancy
  Mg  Mg0  1  0.48403000  0.18886300  0.77673400  1
  Mg  Mg1  1  0.98403000  0.81113700  0.72326600  1
  Mg  Mg2  1  0.51597000  0.81113700  0.22326600  1
  Mg  Mg3  1  0.01597000  0.18886300  0.27673400  1
  Sn  Sn0  1  0.50000000  0.00000000  0.50000000  1
  Sn  Sn1  1  0.00000000  0.00000000  0.00000000  1
  W  W0  1  0.50000000  0.50000000  0.00000000  1
  W  W1  1  0.00000000  0.50000000  0.50000000  1
  O  O0  1  0.20525800  0.50467400  0.89377100  1
  O  O1  1  0.70525800  0.49532600  0.60622900  1
  O  O2  1  0.79474200  0.49532600  0.10622900  1
  O  O3  1  0.29474200  0.50467400  0.39377100  1
  O  O4  1  0.37141800  0.77265300  0.04419500  1
  O  O5  1  0.87141800  0.22734700  0.45580500  1
  O  O6  1  0.62858200  0.22734700  0.95580500  1
  O  O7  1  0.12858200  0.77265300  0.54419500  1
  O  O8  1  0.13522200  0.16172000  0.71263400  1
  O  O9  1  0.63522200  0.83828000  0.78736600  1
  O  O10  1  0.36477800  0.16172000  0.21263400  1
  O  O11  1  0.86477800  0.83828000  0.28736600  1
loop_
_geom_bond_atom_site_label_1
_geom_bond_atom_site_label_2
_geom_bond_distance
_geom_bond_site_symmetry_2
Mg0 O1 2.007274 1_555
Mg0 O6 2.045863 1_555
Mg0 O8 2.073959 1_555
Mg0 O9 2.076027 1_545
Mg0 O4 2.413376 1_546
Mg1 O0 2.007274 1_655
Mg1 O7 2.045863 1_655
Mg1 O9 2.073959 1_555
Mg1 O8 2.076027 1_665
Mg1 O5 2.413376 1_565
Mg2 O3 2.007274 1_555
Mg2 O4 2.045863 1_555
Mg2 O11 2.073959 1_555
Mg2 O10 2.076027 1_565
Mg2 O6 2.413376 1_564
Mg3 O2 2.007274 1_455
Mg3 O5 2.045863 1_455
Mg3 O10 2.073959 1_555
Mg3 O11 2.076027 1_445
Mg3 O7 2.413376 1_545
O0 W0 1.936193 1_556
O0 Sn1 2.650374 1_556
O1 W1 1.936193 1_655
O1 Sn0 2.650374 1_565
O2 W0 1.936193 1_555
O2 Sn1 2.650374 1_665
O3 W1 1.936193 1_555
O3 Sn0 2.650374 1_555
O4 W0 1.935128 1_555
O4 Sn1 2.337335 1_565
O5 W1 1.935128 1_655
O5 Sn0 2.337335 1_555
O6 W0 1.935128 1_556
O6 Sn1 2.337335 1_656
O7 W1 1.935128 1_555
O7 Sn0 2.337335 1_565
O8 W1 2.014403 1_555
O8 Sn1 2.539288 1_556
O9 W0 2.014403 1_556
O9 Sn0 2.539288 1_565
O10 W0 2.014403 1_555
O10 Sn0 2.539288 1_555
O11 W1 2.014403 1_655
O11 Sn1 2.539288 1_665
