# generated using pymatgen
data_Ba5BiPb4O15
_symmetry_space_group_name_H-M   'P 1'
_cell_length_a   22.13662048
_cell_length_b   22.13662048
_cell_length_c   6.22152234
_cell_angle_alpha   81.94203889
_cell_angle_beta   81.94203889
_cell_angle_gamma   15.95710942
_symmetry_Int_Tables_number   1
_chemical_formula_structural   Ba5BiPb4O15
_chemical_formula_sum   'Ba10 Bi2 Pb8 O30'
_cell_volume   829.71184032
_cell_formula_units_Z   2
loop_
 _symmetry_equiv_pos_site_id
 _symmetry_equiv_pos_as_xyz
  1  'x, y, z'
loop_
 _atom_site_type_symbol
 _atom_site_label
 _atom_site_symmetry_multiplicity
 _atom_site_fract_x
 _atom_site_fract_y
 _atom_site_fract_z
 _atom_site_occupancy
  Ba  Ba0  1  0.35127900  0.35127900  0.14500000  1
  Ba  Ba1  1  0.54962800  0.54962800  0.94349800  1
  Ba  Ba2  1  0.95033300  0.95033300  0.54300300  1
  Ba  Ba3  1  0.75006300  0.75006300  0.74832500  1
  Ba  Ba4  1  0.14875400  0.14875400  0.34959300  1
  Ba  Ba5  1  0.45037200  0.45037200  0.05650200  1
  Ba  Ba6  1  0.64872100  0.64872100  0.85500000  1
  Ba  Ba7  1  0.04966700  0.04966700  0.45699700  1
  Ba  Ba8  1  0.85124600  0.85124600  0.65040700  1
  Ba  Ba9  1  0.24993700  0.24993700  0.25167500  1
  Bi  Bi0  1  0.30002200  0.30002200  0.69882800  1
  Bi  Bi1  1  0.69997800  0.69997800  0.30117200  1
  Pb  Pb0  1  0.09964200  0.09964200  0.90217900  1
  Pb  Pb1  1  0.50000000  0.50000000  0.50000000  1
  Pb  Pb2  1  0.90035800  0.90035800  0.09782100  1
  Pb  Pb3  1  0.40055900  0.40055900  0.60097200  1
  Pb  Pb4  1  0.80036300  0.80036300  0.20038800  1
  Pb  Pb5  1  0.19963700  0.19963700  0.79961200  1
  Pb  Pb6  1  0.59944100  0.59944100  0.39902800  1
  Pb  Pb7  1  0.00000000  0.00000000  0.00000000  1
  O  O0  1  0.14227400  0.64190000  0.85732900  1
  O  O1  1  0.34403200  0.84359400  0.65614800  1
  O  O2  1  0.74214500  0.24224000  0.25794200  1
  O  O3  1  0.54011600  0.04440300  0.46050100  1
  O  O4  1  0.94223600  0.44590800  0.05973500  1
  O  O5  1  0.15640600  0.65596800  0.34385200  1
  O  O6  1  0.35810000  0.85772600  0.14267100  1
  O  O7  1  0.75776000  0.25785500  0.74205800  1
  O  O8  1  0.55409200  0.05776400  0.94026500  1
  O  O9  1  0.95559700  0.45988400  0.53949900  1
  O  O10  1  0.64190000  0.14227400  0.85732900  1
  O  O11  1  0.84359400  0.34403200  0.65614800  1
  O  O12  1  0.24224000  0.74214500  0.25794200  1
  O  O13  1  0.04440300  0.54011600  0.46050100  1
  O  O14  1  0.44590800  0.94223600  0.05973500  1
  O  O15  1  0.65596800  0.15640600  0.34385200  1
  O  O16  1  0.85772600  0.35810000  0.14267100  1
  O  O17  1  0.25785500  0.75776000  0.74205800  1
  O  O18  1  0.05776400  0.55409200  0.94026500  1
  O  O19  1  0.45988400  0.95559700  0.53949900  1
  O  O20  1  0.34917700  0.34917700  0.58860900  1
  O  O21  1  0.74975200  0.74975200  0.19044700  1
  O  O22  1  0.15029700  0.15029700  0.78698600  1
  O  O23  1  0.54988400  0.54988400  0.37944500  1
  O  O24  1  0.94999800  0.94999800  0.98015200  1
  O  O25  1  0.25024800  0.25024800  0.80955300  1
  O  O26  1  0.65082300  0.65082300  0.41139100  1
  O  O27  1  0.05000200  0.05000200  0.01984800  1
  O  O28  1  0.45011600  0.45011600  0.62055500  1
  O  O29  1  0.84970300  0.84970300  0.21301400  1
loop_
_geom_bond_atom_site_label_1
_geom_bond_atom_site_label_2
_geom_bond_distance
_geom_bond_site_symmetry_2
Ba0 O20 2.748393 1_555
Ba0 O10 2.802621 1_554
Ba0 O0 2.802621 1_554
Ba0 O18 2.935798 1_554
Ba0 O8 2.935798 1_554
Ba0 O29 3.101053 1_545
Ba0 O29 3.101053 1_455
Ba0 O15 3.244305 1_555
Ba0 O5 3.244305 1_555
Ba0 O13 3.380996 1_555
Ba0 O3 3.380996 1_555
Ba0 O20 3.475842 1_554
Ba1 O23 2.713865 1_556
Ba1 O7 2.818274 1_555
Ba1 O17 2.818274 1_555
Ba1 O1 2.885268 1_555
Ba1 O11 2.885268 1_555
Ba1 O27 3.109516 1_566
Ba1 O27 3.109516 1_656
Ba1 O12 3.336680 1_556
Ba1 O2 3.336680 1_556
Ba1 O16 3.364401 1_556
Ba1 O6 3.364401 1_556
Ba2 O24 2.717692 1_555
Ba2 O2 2.820183 1_565
Ba2 O12 2.820183 1_655
Ba2 O15 2.885288 1_565
Ba2 O5 2.885288 1_655
Ba2 O28 3.110075 1_565
Ba2 O28 3.110075 1_655
Ba2 O17 3.335933 1_655
Ba2 O7 3.335933 1_565
Ba2 O10 3.360965 1_565
Ba2 O0 3.360965 1_655
Ba3 O21 2.748775 1_556
Ba3 O3 2.844729 1_565
Ba3 O13 2.844729 1_655
Ba3 O9 2.851965 1_555
Ba3 O19 2.851965 1_555
Ba3 O25 3.096292 1_655
Ba3 O25 3.096292 1_565
Ba3 O18 3.263213 1_655
Ba3 O8 3.263213 1_565
Ba3 O4 3.280171 1_556
Ba3 O14 3.280171 1_556
Ba4 O22 2.731647 1_555
Ba4 O16 2.807161 1_455
Ba4 O6 2.807161 1_545
Ba4 O14 2.929293 1_545
Ba4 O4 2.929293 1_455
Ba4 O26 3.099500 1_455
Ba4 O26 3.099500 1_545
Ba4 O1 3.240988 1_545
Ba4 O11 3.240988 1_455
Ba4 O9 3.369055 1_455
Ba4 O19 3.369055 1_545
Ba5 O28 2.713865 1_554
Ba5 O2 2.818274 1_555
Ba5 O12 2.818274 1_555
Ba5 O15 2.885268 1_555
Ba5 O5 2.885268 1_555
Ba5 O24 3.109516 1_544
Ba5 O24 3.109516 1_454
Ba5 O7 3.336680 1_554
Ba5 O17 3.336680 1_554
Ba5 O0 3.364401 1_554
Ba5 O10 3.364401 1_554
Ba6 O26 2.748393 1_555
Ba6 O6 2.802621 1_556
Ba6 O16 2.802621 1_556
Ba6 O14 2.935798 1_556
Ba6 O4 2.935798 1_556
Ba6 O22 3.101053 1_565
Ba6 O22 3.101053 1_655
Ba6 O11 3.244305 1_555
Ba6 O1 3.244305 1_555
Ba6 O19 3.380996 1_555
Ba6 O9 3.380996 1_555
Ba6 O26 3.475842 1_556
Ba7 O27 2.717692 1_555
Ba7 O17 2.820183 1_545
Ba7 O7 2.820183 1_455
Ba7 O1 2.885288 1_545
Ba7 O11 2.885288 1_455
Ba7 O23 3.110075 1_545
Ba7 O23 3.110075 1_455
Ba7 O2 3.335933 1_455
Ba7 O12 3.335933 1_545
Ba7 O6 3.360965 1_545
Ba7 O16 3.360965 1_455
Ba8 O29 2.731647 1_555
Ba8 O10 2.807161 1_565
Ba8 O0 2.807161 1_655
Ba8 O18 2.929293 1_655
Ba8 O8 2.929293 1_565
Ba8 O20 3.099500 1_565
Ba8 O20 3.099500 1_655
Ba8 O5 3.240988 1_655
Ba8 O15 3.240988 1_565
Ba8 O13 3.369055 1_655
Ba8 O3 3.369055 1_565
Ba9 O25 2.748775 1_554
Ba9 O9 2.844729 1_455
Ba9 O19 2.844729 1_545
Ba9 O3 2.851965 1_555
Ba9 O13 2.851965 1_555
Ba9 O21 3.096292 1_455
Ba9 O21 3.096292 1_545
Ba9 O14 3.263213 1_545
Ba9 O4 3.263213 1_455
Ba9 O8 3.280171 1_554
Ba9 O18 3.280171 1_554
Bi0 O20 2.167182 1_555
Bi0 O18 2.181557 1_555
Bi0 O8 2.181557 1_555
Bi0 O3 2.185682 1_555
Bi0 O13 2.185682 1_555
Bi0 O25 2.193516 1_555
Bi1 O26 2.167182 1_555
Bi1 O14 2.181557 1_555
Bi1 O4 2.181557 1_555
Bi1 O9 2.185682 1_555
Bi1 O19 2.185682 1_555
Bi1 O21 2.193516 1_555
O0 Pb3 2.206985 1_555
O0 Pb2 2.210787 1_456
O1 Pb6 2.205499 1_555
O1 Pb0 2.209852 1_565
O2 Pb1 2.211427 1_555
O2 Pb7 2.213180 1_655
O3 Pb4 2.232319 1_545
O4 Pb5 2.227528 1_654
O5 Pb3 2.205499 1_555
O5 Pb2 2.209852 1_455
O6 Pb6 2.206985 1_555
O6 Pb0 2.210787 1_564
O7 Pb1 2.211427 1_555
O7 Pb7 2.213180 1_656
O8 Pb4 2.227528 1_546
O9 Pb5 2.232319 1_655
O10 Pb3 2.206985 1_555
O10 Pb2 2.210787 1_546
O11 Pb6 2.205499 1_555
O11 Pb0 2.209852 1_655
O12 Pb1 2.211427 1_555
O12 Pb7 2.213180 1_565
O13 Pb4 2.232319 1_455
O14 Pb5 2.227528 1_564
O15 Pb3 2.205499 1_555
O15 Pb2 2.209852 1_545
O16 Pb6 2.206985 1_555
O16 Pb0 2.210787 1_654
O17 Pb1 2.211427 1_555
O17 Pb7 2.213180 1_566
O18 Pb4 2.227528 1_456
O19 Pb5 2.232319 1_565
O20 Pb3 2.264995 1_555
O21 Pb4 2.228619 1_555
O22 Pb5 2.175805 1_555
O22 Pb0 2.235097 1_555
O23 Pb6 2.193375 1_555
O23 Pb1 2.209475 1_555
O24 Pb2 2.195864 1_556
O24 Pb7 2.213179 1_666
O25 Pb5 2.228619 1_555
O26 Pb6 2.264995 1_555
O27 Pb0 2.195864 1_554
O27 Pb7 2.213179 1_555
O28 Pb3 2.193375 1_555
O28 Pb1 2.209475 1_555
O29 Pb4 2.175805 1_555
O29 Pb2 2.235097 1_555
