# generated using pymatgen
data_AgH10Rh(N3O5)2
_symmetry_space_group_name_H-M   'P 1'
_cell_length_a   7.51444919
_cell_length_b   12.37235600
_cell_length_c   12.92874127
_cell_angle_alpha   90.00000000
_cell_angle_beta   94.29338870
_cell_angle_gamma   90.00000000
_symmetry_Int_Tables_number   1
_chemical_formula_structural   AgH10Rh(N3O5)2
_chemical_formula_sum   'Ag4 H40 Rh4 N24 O40'
_cell_volume   1198.63061130
_cell_formula_units_Z   4
loop_
 _symmetry_equiv_pos_site_id
 _symmetry_equiv_pos_as_xyz
  1  'x, y, z'
loop_
 _atom_site_type_symbol
 _atom_site_label
 _atom_site_symmetry_multiplicity
 _atom_site_fract_x
 _atom_site_fract_y
 _atom_site_fract_z
 _atom_site_occupancy
  Ag  Ag0  1  0.28689100  0.59623900  0.26783400  1
  Ag  Ag1  1  0.71310900  0.09623900  0.23216600  1
  Ag  Ag2  1  0.71310900  0.40376100  0.73216600  1
  Ag  Ag3  1  0.28689100  0.90376100  0.76783400  1
  H  H0  1  0.05205100  0.64970900  0.50984400  1
  H  H1  1  0.94794900  0.14970900  0.99015600  1
  H  H2  1  0.94794900  0.35029100  0.49015600  1
  H  H3  1  0.05205100  0.85029100  0.00984400  1
  H  H4  1  0.90384700  0.63484500  0.40714800  1
  H  H5  1  0.09615300  0.13484500  0.09285200  1
  H  H6  1  0.09615300  0.36515500  0.59285200  1
  H  H7  1  0.90384700  0.86515500  0.90714800  1
  H  H8  1  0.02425300  0.74724400  0.41909100  1
  H  H9  1  0.97574700  0.24724400  0.08090900  1
  H  H10  1  0.97574700  0.25275600  0.58090900  1
  H  H11  1  0.02425300  0.75275600  0.91909100  1
  H  H12  1  0.88987000  0.90821400  0.42106100  1
  H  H13  1  0.11013000  0.40821400  0.07893900  1
  H  H14  1  0.11013000  0.09178600  0.57893900  1
  H  H15  1  0.88987000  0.59178600  0.92106100  1
  H  H16  1  0.67415800  0.89391100  0.38709100  1
  H  H17  1  0.32584200  0.39391100  0.11290900  1
  H  H18  1  0.32584200  0.10608900  0.61290900  1
  H  H19  1  0.67415800  0.60608900  0.88709100  1
  H  H20  1  0.73677100  0.95937000  0.49564200  1
  H  H21  1  0.26322900  0.45937000  0.00435800  1
  H  H22  1  0.26322900  0.04063000  0.50435800  1
  H  H23  1  0.73677100  0.54063000  0.99564200  1
  H  H24  1  0.31077100  0.65088900  0.64006100  1
  H  H25  1  0.68922900  0.15088900  0.85993900  1
  H  H26  1  0.68922900  0.34911100  0.35993900  1
  H  H27  1  0.31077100  0.84911100  0.14006100  1
  H  H28  1  0.26741500  0.52983700  0.61619700  1
  H  H29  1  0.73258500  0.02983700  0.88380300  1
  H  H30  1  0.73258500  0.47016300  0.38380300  1
  H  H31  1  0.26741500  0.97016300  0.11619700  1
  H  H32  1  0.14601400  0.90526700  0.27866800  1
  H  H33  1  0.85398600  0.40526700  0.22133200  1
  H  H34  1  0.85398600  0.09473300  0.72133200  1
  H  H35  1  0.14601400  0.59473300  0.77866800  1
  H  H36  1  0.23817400  0.88129000  0.38741900  1
  H  H37  1  0.76182600  0.38129000  0.11258100  1
  H  H38  1  0.76182600  0.11871000  0.61258100  1
  H  H39  1  0.23817400  0.61871000  0.88741900  1
  Rh  Rh0  1  0.75762900  0.75558500  0.54173600  1
  Rh  Rh1  1  0.24237100  0.25558500  0.95826400  1
  Rh  Rh2  1  0.24237100  0.24441500  0.45826400  1
  Rh  Rh3  1  0.75762900  0.74441500  0.04173600  1
  N  N0  1  0.95780800  0.82451700  0.63951800  1
  N  N1  1  0.04219200  0.32451700  0.86048200  1
  N  N2  1  0.04219200  0.17548300  0.36048200  1
  N  N3  1  0.95780800  0.67548300  0.13951800  1
  N  N4  1  0.56312300  0.83000500  0.62121300  1
  N  N5  1  0.43687700  0.33000500  0.87878700  1
  N  N6  1  0.43687700  0.16999500  0.37878700  1
  N  N7  1  0.56312300  0.66999500  0.12121300  1
  N  N8  1  0.56437800  0.69252400  0.43497200  1
  N  N9  1  0.43562200  0.19252400  0.06502800  1
  N  N10  1  0.43562200  0.30747600  0.56502800  1
  N  N11  1  0.56437800  0.80747600  0.93497200  1
  N  N12  1  0.75519100  0.61297500  0.62603200  1
  N  N13  1  0.24480900  0.11297500  0.87396800  1
  N  N14  1  0.24480900  0.38702500  0.37396800  1
  N  N15  1  0.75519100  0.88702500  0.12603200  1
  N  N16  1  0.96040000  0.68903900  0.45941300  1
  N  N17  1  0.03960000  0.18903900  0.04058700  1
  N  N18  1  0.03960000  0.31096100  0.54058700  1
  N  N19  1  0.96040000  0.81096100  0.95941300  1
  N  N20  1  0.76661000  0.89572200  0.44949500  1
  N  N21  1  0.23339000  0.39572200  0.05050500  1
  N  N22  1  0.23339000  0.10427800  0.55050500  1
  N  N23  1  0.76661000  0.60427800  0.94949500  1
  O  O0  1  0.08783400  0.86581200  0.59859200  1
  O  O1  1  0.91216600  0.36581200  0.90140800  1
  O  O2  1  0.91216600  0.13418800  0.40140800  1
  O  O3  1  0.08783400  0.63418800  0.09859200  1
  O  O4  1  0.95315700  0.82476000  0.73552600  1
  O  O5  1  0.04684300  0.32476000  0.76447400  1
  O  O6  1  0.04684300  0.17524000  0.26447400  1
  O  O7  1  0.95315700  0.67524000  0.23552600  1
  O  O8  1  0.55813500  0.93073300  0.62516500  1
  O  O9  1  0.44186500  0.43073300  0.87483500  1
  O  O10  1  0.44186500  0.06926700  0.37483500  1
  O  O11  1  0.55813500  0.56926700  0.12516500  1
  O  O12  1  0.45064000  0.77608400  0.66680900  1
  O  O13  1  0.54936000  0.27608400  0.83319100  1
  O  O14  1  0.54936000  0.22391600  0.33319100  1
  O  O15  1  0.45064000  0.72391600  0.16680900  1
  O  O16  1  0.59337000  0.60879500  0.38410600  1
  O  O17  1  0.40663000  0.10879500  0.11589400  1
  O  O18  1  0.40663000  0.39120500  0.61589400  1
  O  O19  1  0.59337000  0.89120500  0.88410600  1
  O  O20  1  0.41890700  0.74100400  0.41804100  1
  O  O21  1  0.58109300  0.24100400  0.08195900  1
  O  O22  1  0.58109300  0.25899600  0.58195900  1
  O  O23  1  0.41890700  0.75899600  0.91804100  1
  O  O24  1  0.78831300  0.52607700  0.58126600  1
  O  O25  1  0.21168700  0.02607700  0.91873400  1
  O  O26  1  0.21168700  0.47392300  0.41873400  1
  O  O27  1  0.78831300  0.97392300  0.08126600  1
  O  O28  1  0.71872300  0.61080700  0.71858400  1
  O  O29  1  0.28127700  0.11080700  0.78141600  1
  O  O30  1  0.28127700  0.38919300  0.28141600  1
  O  O31  1  0.71872300  0.88919300  0.21858400  1
  O  O32  1  0.21314800  0.59761700  0.63756000  1
  O  O33  1  0.78685200  0.09761700  0.86244000  1
  O  O34  1  0.78685200  0.40238300  0.36244000  1
  O  O35  1  0.21314800  0.90238300  0.13756000  1
  O  O36  1  0.12157100  0.89668300  0.35241400  1
  O  O37  1  0.87842900  0.39668300  0.14758600  1
  O  O38  1  0.87842900  0.10331700  0.64758600  1
  O  O39  1  0.12157100  0.60331700  0.85241400  1
loop_
_geom_bond_atom_site_label_1
_geom_bond_atom_site_label_2
_geom_bond_distance
_geom_bond_site_symmetry_2
Ag0 O15 2.440499 1_555
Ag0 O26 2.565310 1_555
Ag0 O30 2.568221 1_555
Ag0 O3 2.599144 1_555
Ag0 O16 2.658842 1_555
Ag0 O7 2.694846 1_455
Ag0 O20 2.770373 1_555
Ag1 O14 2.440499 1_555
Ag1 O27 2.565310 1_545
Ag1 O31 2.568221 1_545
Ag1 O2 2.599144 1_555
Ag1 O17 2.658842 1_555
Ag1 O6 2.694846 1_655
Ag1 O21 2.770373 1_555
Ag2 O13 2.440499 1_555
Ag2 O24 2.565310 1_555
Ag2 O28 2.568221 1_555
Ag2 O1 2.599144 1_555
Ag2 O18 2.658842 1_555
Ag2 O5 2.694846 1_655
Ag2 O22 2.770373 1_555
Ag3 O12 2.440499 1_555
Ag3 O25 2.565310 1_565
Ag3 O29 2.568221 1_565
Ag3 O0 2.599144 1_555
Ag3 O19 2.658842 1_555
Ag3 O4 2.694846 1_455
Ag3 O23 2.770373 1_555
H0 N16 1.033917 1_455
H1 N17 1.033917 1_656
H2 N18 1.033917 1_655
H3 N19 1.033917 1_454
H4 N16 1.021655 1_555
H5 N17 1.021655 1_555
H6 N18 1.021655 1_555
H7 N19 1.021655 1_555
H8 N16 1.028610 1_455
H9 N17 1.028610 1_655
H10 N18 1.028610 1_655
H11 N19 1.028610 1_455
H12 N20 1.033399 1_555
H13 N21 1.033399 1_555
H14 N22 1.033399 1_555
H15 N23 1.033399 1_555
H16 N20 1.024772 1_555
H17 N21 1.024772 1_555
H18 N22 1.024772 1_555
H19 N23 1.024772 1_555
H20 N20 1.022929 1_555
H21 N21 1.022929 1_555
H22 N22 1.022929 1_555
H23 N23 1.022929 1_555
H24 O32 0.984912 1_555
H25 O33 0.984912 1_555
H26 O34 0.984912 1_555
H27 O35 0.984912 1_555
H28 O32 0.981165 1_555
H29 O33 0.981165 1_555
H30 O34 0.981165 1_555
H31 O35 0.981165 1_555
H32 O36 0.990096 1_555
H33 O37 0.990096 1_555
H34 O38 0.990096 1_555
H35 O39 0.990096 1_555
H36 O36 0.974400 1_555
H37 O37 0.974400 1_555
H38 O38 0.974400 1_555
H39 O39 0.974400 1_555
N0 O4 1.244371 1_555
N0 O0 1.254227 1_655
N0 Rh0 2.074499 1_555
N1 O5 1.244371 1_555
N1 O1 1.254227 1_455
N1 Rh1 2.074499 1_555
N2 O6 1.244371 1_555
N2 O2 1.254227 1_455
N2 Rh2 2.074499 1_555
N3 O7 1.244371 1_555
N3 O3 1.254227 1_655
N3 Rh3 2.074499 1_555
N4 O8 1.247968 1_555
N4 O12 1.257625 1_555
N4 Rh0 2.065133 1_555
N5 O9 1.247968 1_555
N5 O13 1.257625 1_555
N5 Rh1 2.065133 1_555
N6 O10 1.247968 1_555
N6 O14 1.257625 1_555
N6 Rh2 2.065133 1_555
N7 O11 1.247968 1_555
N7 O15 1.257625 1_555
N7 Rh3 2.065133 1_555
N8 O20 1.251721 1_555
N8 O16 1.254805 1_555
N8 Rh0 2.079114 1_555
N9 O21 1.251721 1_555
N9 O17 1.254805 1_555
N9 Rh1 2.079114 1_554
N10 O22 1.251721 1_555
N10 O18 1.254805 1_555
N10 Rh2 2.079114 1_555
N11 O23 1.251721 1_555
N11 O19 1.254805 1_555
N11 Rh3 2.079114 1_556
N12 O28 1.247685 1_555
N12 O24 1.254751 1_555
N12 Rh0 2.074672 1_555
N13 O29 1.247685 1_555
N13 O25 1.254751 1_555
N13 Rh1 2.074672 1_555
N14 O30 1.247685 1_555
N14 O26 1.254751 1_555
N14 Rh2 2.074672 1_555
N15 O31 1.247685 1_555
N15 O27 1.254751 1_555
N15 Rh3 2.074672 1_555
N16 Rh0 2.091697 1_555
N17 Rh1 2.091697 1_554
N18 Rh2 2.091697 1_555
N19 Rh3 2.091697 1_556
N20 Rh0 2.108306 1_555
N21 Rh1 2.108306 1_554
N22 Rh2 2.108306 1_555
N23 Rh3 2.108306 1_556
