# generated using pymatgen
data_NbSn6OF15
_symmetry_space_group_name_H-M   'P 1'
_cell_length_a   10.04686712
_cell_length_b   10.04686712
_cell_length_c   10.96087086
_cell_angle_alpha   90.74929769
_cell_angle_beta   90.74929769
_cell_angle_gamma   45.74449524
_symmetry_Int_Tables_number   1
_chemical_formula_structural   NbSn6OF15
_chemical_formula_sum   'Nb2 Sn12 O2 F30'
_cell_volume   792.35190689
_cell_formula_units_Z   2
loop_
 _symmetry_equiv_pos_site_id
 _symmetry_equiv_pos_as_xyz
  1  'x, y, z'
loop_
 _atom_site_type_symbol
 _atom_site_label
 _atom_site_symmetry_multiplicity
 _atom_site_fract_x
 _atom_site_fract_y
 _atom_site_fract_z
 _atom_site_occupancy
  Nb  Nb0  1  0.67215602  0.33608945  0.76249985  1
  Nb  Nb1  1  0.33608945  0.67215602  0.26249985  1
  Sn  Sn0  1  0.25260240  0.45172614  0.53633097  1
  Sn  Sn1  1  0.54931736  0.74639424  0.96825886  1
  Sn  Sn2  1  0.74639424  0.54931736  0.46825886  1
  Sn  Sn3  1  0.45172614  0.25260240  0.03633097  1
  Sn  Sn4  1  0.71022453  0.87616356  0.68428562  1
  Sn  Sn5  1  0.12546178  0.28870237  0.81856630  1
  Sn  Sn6  1  0.28870237  0.12546178  0.31856630  1
  Sn  Sn7  1  0.87616356  0.71022453  0.18428562  1
  Sn  Sn8  1  0.10693395  0.74511391  0.90764878  1
  Sn  Sn9  1  0.25702898  0.89133918  0.59327223  1
  Sn  Sn10  1  0.89133918  0.25702898  0.09327223  1
  Sn  Sn11  1  0.74511391  0.10693395  0.40764878  1
  O  O0  1  0.70641921  0.39568596  0.90651706  1
  O  O1  1  0.39568596  0.70641921  0.40651706  1
  F  F0  1  0.51280433  0.81931975  0.55150676  1
  F  F1  1  0.18555627  0.48705468  0.95008563  1
  F  F2  1  0.48705468  0.18555627  0.45008563  1
  F  F3  1  0.81931975  0.51280433  0.05150676  1
  F  F4  1  0.42033143  0.44445530  0.79686581  1
  F  F5  1  0.55778391  0.57252776  0.68441589  1
  F  F6  1  0.57252776  0.55778391  0.18441589  1
  F  F7  1  0.44445530  0.42033143  0.29686581  1
  F  F8  1  0.86833934  0.61096324  0.59157863  1
  F  F9  1  0.39005502  0.13239159  0.91092510  1
  F  F10  1  0.13239159  0.39005502  0.41092510  1
  F  F11  1  0.61096324  0.86833934  0.09157863  1
  F  F12  1  0.88525919  0.84964232  0.02045679  1
  F  F13  1  0.15073756  0.11369955  0.47904802  1
  F  F14  1  0.11369955  0.15073756  0.97904802  1
  F  F15  1  0.84964232  0.88525919  0.52045679  1
  F  F16  1  0.77780366  0.09013097  0.80781096  1
  F  F17  1  0.90638262  0.22191812  0.68535552  1
  F  F18  1  0.22191812  0.90638262  0.18535552  1
  F  F19  1  0.09013097  0.77780366  0.30781096  1
  F  F20  1  0.71618693  0.71667956  0.83782250  1
  F  F21  1  0.28259735  0.28159074  0.66212783  1
  F  F22  1  0.28159074  0.28259735  0.16212783  1
  F  F23  1  0.71667956  0.71618693  0.33782250  1
  F  F24  1  0.98565123  0.71139227  0.75828472  1
  F  F25  1  0.28760705  0.01483168  0.74400405  1
  F  F26  1  0.01483168  0.28760705  0.24400405  1
  F  F27  1  0.71139227  0.98565123  0.25828472  1
  F  F28  1  0.60839053  0.28655504  0.59233111  1
  F  F29  1  0.28655504  0.60839053  0.09233111  1
loop_
_geom_bond_atom_site_label_1
_geom_bond_atom_site_label_2
_geom_bond_distance
_geom_bond_site_symmetry_2
Nb0 O0 1.793764 1_555
Nb1 O1 1.793764 1_555
O0 Sn10 2.438303 1_556
O1 Sn9 2.438303 1_555
F0 Sn9 2.182570 1_555
F0 Sn2 2.191963 1_555
F1 Sn8 2.173905 1_555
F1 Sn3 2.189452 1_556
F2 Sn11 2.173905 1_555
F2 Sn0 2.189452 1_555
F3 Sn10 2.182570 1_555
F3 Sn1 2.191963 1_554
F4 Nb0 1.974334 1_555
F5 Nb0 1.978238 1_555
F5 Sn9 2.623779 1_555
F6 Nb1 1.978238 1_555
F6 Sn10 2.623779 1_555
F7 Nb1 1.974334 1_555
F8 Sn2 2.169231 1_555
F8 Sn4 2.172362 1_555
F9 Sn5 2.168468 1_555
F9 Sn3 2.170415 1_556
F10 Sn6 2.168468 1_555
F10 Sn0 2.170415 1_555
F11 Sn1 2.169231 1_554
F11 Sn7 2.172362 1_555
F12 Sn8 2.089379 1_654
F12 Sn7 2.333161 1_555
F13 Sn9 2.099328 1_545
F13 Sn6 2.308085 1_555
F14 Sn10 2.099328 1_456
F14 Sn5 2.308085 1_555
F15 Sn11 2.089379 1_565
F15 Sn4 2.333161 1_555
F16 Nb0 1.958866 1_555
F17 Nb0 1.956446 1_555
F18 Nb1 1.956446 1_555
F19 Nb1 1.958866 1_555
F20 Sn1 2.072878 1_555
F20 Sn4 2.310210 1_555
F21 Sn0 2.060496 1_555
F21 Sn5 2.312537 1_555
F22 Sn3 2.060496 1_555
F22 Sn6 2.312537 1_555
F23 Sn2 2.072878 1_555
F23 Sn7 2.310210 1_555
F24 Sn4 2.153694 1_555
F24 Sn8 2.188460 1_655
F25 Sn5 2.147685 1_555
F25 Sn9 2.197377 1_545
F26 Sn6 2.147685 1_555
F26 Sn10 2.197377 1_455
F27 Sn7 2.153694 1_555
F27 Sn11 2.188460 1_565
F28 Nb0 2.127561 1_555
F28 Sn11 2.399708 1_555
F29 Nb1 2.127561 1_555
F29 Sn8 2.399708 1_554
