# generated using pymatgen
data_Ho5(Si5Ir2)2
_symmetry_space_group_name_H-M   'P 1'
_cell_length_a   12.61772300
_cell_length_b   12.61772300
_cell_length_c   4.26012800
_cell_angle_alpha   90.00000000
_cell_angle_beta   90.00000000
_cell_angle_gamma   90.00000000
_symmetry_Int_Tables_number   1
_chemical_formula_structural   Ho5(Si5Ir2)2
_chemical_formula_sum   'Ho10 Si20 Ir8'
_cell_volume   678.24191607
_cell_formula_units_Z   2
loop_
 _symmetry_equiv_pos_site_id
 _symmetry_equiv_pos_as_xyz
  1  'x, y, z'
loop_
 _atom_site_type_symbol
 _atom_site_label
 _atom_site_symmetry_multiplicity
 _atom_site_fract_x
 _atom_site_fract_y
 _atom_site_fract_z
 _atom_site_occupancy
  Ho  Ho0  1  0.50000000  0.50000000  0.00000000  1
  Ho  Ho1  1  0.00000000  0.00000000  0.00000000  1
  Ho  Ho2  1  0.67552200  0.17552200  0.50000000  1
  Ho  Ho3  1  0.32447800  0.82447800  0.50000000  1
  Ho  Ho4  1  0.17552200  0.32447800  0.50000000  1
  Ho  Ho5  1  0.82447800  0.67552200  0.50000000  1
  Ho  Ho6  1  0.88390200  0.38390200  0.50000000  1
  Ho  Ho7  1  0.11609800  0.61609800  0.50000000  1
  Ho  Ho8  1  0.38390200  0.11609800  0.50000000  1
  Ho  Ho9  1  0.61609800  0.88390200  0.50000000  1
  Si  Si0  1  0.56568300  0.06568300  0.00000000  1
  Si  Si1  1  0.43431700  0.93431700  0.00000000  1
  Si  Si2  1  0.06568300  0.43431700  0.00000000  1
  Si  Si3  1  0.93431700  0.56568300  0.00000000  1
  Si  Si4  1  0.66380300  0.70070200  0.00000000  1
  Si  Si5  1  0.33619700  0.29929800  0.00000000  1
  Si  Si6  1  0.16380300  0.79929800  0.00000000  1
  Si  Si7  1  0.83619700  0.20070200  0.00000000  1
  Si  Si8  1  0.29929800  0.66380300  0.00000000  1
  Si  Si9  1  0.70070200  0.33619700  0.00000000  1
  Si  Si10  1  0.20070200  0.16380300  0.00000000  1
  Si  Si11  1  0.79929800  0.83619700  0.00000000  1
  Si  Si12  1  0.65651200  0.50349300  0.50000000  1
  Si  Si13  1  0.34348800  0.49650700  0.50000000  1
  Si  Si14  1  0.15651200  0.99650700  0.50000000  1
  Si  Si15  1  0.84348800  0.00349300  0.50000000  1
  Si  Si16  1  0.49650700  0.65651200  0.50000000  1
  Si  Si17  1  0.50349300  0.34348800  0.50000000  1
  Si  Si18  1  0.00349300  0.15651200  0.50000000  1
  Si  Si19  1  0.99650700  0.84348800  0.50000000  1
  Ir  Ir0  1  0.74570200  0.52044900  0.00000000  1
  Ir  Ir1  1  0.25429800  0.47955100  0.00000000  1
  Ir  Ir2  1  0.24570200  0.97955100  0.00000000  1
  Ir  Ir3  1  0.75429800  0.02044900  0.00000000  1
  Ir  Ir4  1  0.47955100  0.74570200  0.00000000  1
  Ir  Ir5  1  0.52044900  0.25429800  0.00000000  1
  Ir  Ir6  1  0.02044900  0.24570200  0.00000000  1
  Ir  Ir7  1  0.97955100  0.75429800  0.00000000  1
loop_
_geom_bond_atom_site_label_1
_geom_bond_atom_site_label_2
_geom_bond_distance
_geom_bond_site_symmetry_2
Ho0 Si16 2.905004 1_554
Ho0 Si12 2.905004 1_555
Ho0 Si16 2.905004 1_555
Ho0 Si12 2.905004 1_554
Ho0 Si13 2.905004 1_555
Ho0 Si17 2.905004 1_555
Ho0 Si17 2.905004 1_554
Ho0 Si13 2.905004 1_554
Ho0 Ir0 3.110918 1_555
Ho0 Ir4 3.110918 1_555
Ho0 Ir5 3.110918 1_555
Ho0 Ir1 3.110918 1_555
Ho0 Si4 3.268763 1_555
Ho0 Si8 3.268763 1_555
Ho0 Si9 3.268763 1_555
Ho0 Si5 3.268763 1_555
Ho1 Si18 2.905004 1_554
Ho1 Si14 2.905004 1_544
Ho1 Si14 2.905004 1_545
Ho1 Si18 2.905004 1_555
Ho1 Si15 2.905004 1_455
Ho1 Si15 2.905004 1_454
Ho1 Si19 2.905004 1_444
Ho1 Si19 2.905004 1_445
Ho1 Ir2 3.110918 1_545
Ho1 Ir6 3.110918 1_555
Ho1 Ir7 3.110918 1_445
Ho1 Ir3 3.110918 1_455
Ho1 Si7 3.268763 1_455
Ho1 Si10 3.268763 1_555
Ho1 Si6 3.268763 1_545
Ho1 Si11 3.268763 1_445
Ho2 Si0 2.894600 1_556
Ho2 Si0 2.894600 1_555
Ho2 Si9 2.957748 1_556
Ho2 Si9 2.957748 1_555
Ho2 Si7 2.957748 1_555
Ho2 Si7 2.957748 1_556
Ho2 Si15 3.033678 1_555
Ho2 Si17 3.033678 1_555
Ho2 Ir3 3.058383 1_555
Ho2 Ir3 3.058383 1_556
Ho2 Ir5 3.058383 1_556
Ho2 Ir5 3.058383 1_555
Ho3 Si1 2.894600 1_556
Ho3 Si1 2.894600 1_555
Ho3 Si6 2.957748 1_555
Ho3 Si6 2.957748 1_556
Ho3 Si8 2.957748 1_555
Ho3 Si8 2.957748 1_556
Ho3 Si16 3.033678 1_555
Ho3 Si14 3.033678 1_555
Ho3 Ir4 3.058383 1_556
Ho3 Ir4 3.058383 1_555
Ho3 Ir2 3.058383 1_555
Ho3 Ir2 3.058383 1_556
Ho4 Si2 2.894600 1_556
Ho4 Si2 2.894600 1_555
Ho4 Si5 2.957748 1_555
Ho4 Si5 2.957748 1_556
Ho4 Si10 2.957748 1_555
Ho4 Si10 2.957748 1_556
Ho4 Si18 3.033678 1_555
Ho4 Si13 3.033678 1_555
Ho4 Ir6 3.058383 1_555
Ho4 Ir6 3.058383 1_556
Ho4 Ir1 3.058383 1_555
Ho4 Ir1 3.058383 1_556
Ho5 Si3 2.894600 1_556
Ho5 Si3 2.894600 1_555
Ho5 Si11 2.957748 1_555
Ho5 Si11 2.957748 1_556
Ho5 Si4 2.957748 1_556
Ho5 Si4 2.957748 1_555
Ho5 Si12 3.033678 1_555
Ho5 Si19 3.033678 1_555
Ho5 Ir7 3.058383 1_555
Ho5 Ir0 3.058383 1_556
Ho5 Ir0 3.058383 1_555
Ho5 Ir7 3.058383 1_556
Ho6 Si2 3.194168 1_655
Ho6 Si2 3.194168 1_656
Ho6 Si3 3.194168 1_556
Ho6 Si3 3.194168 1_555
Ho6 Si7 3.200442 1_556
Ho6 Si7 3.200442 1_555
Ho6 Si9 3.200442 1_556
Ho6 Si9 3.200442 1_555
Ho6 Si18 3.241754 1_655
Ho6 Si12 3.241754 1_555
Ho6 Ir6 3.247511 1_655
Ho6 Ir6 3.247511 1_656
Ho6 Ir0 3.247511 1_556
Ho6 Ir0 3.247511 1_555
Ho7 Si3 3.194168 1_456
Ho7 Si3 3.194168 1_455
Ho7 Si2 3.194168 1_556
Ho7 Si2 3.194168 1_555
Ho7 Si8 3.200442 1_555
Ho7 Si8 3.200442 1_556
Ho7 Si6 3.200442 1_555
Ho7 Si6 3.200442 1_556
Ho7 Si13 3.241754 1_555
Ho7 Si19 3.241754 1_455
Ho7 Ir7 3.247511 1_455
Ho7 Ir1 3.247511 1_556
Ho7 Ir1 3.247511 1_555
Ho7 Ir7 3.247511 1_456
Ho8 Si1 3.194168 1_545
Ho8 Si1 3.194168 1_546
Ho8 Si0 3.194168 1_556
Ho8 Si0 3.194168 1_555
Ho8 Si10 3.200442 1_555
Ho8 Si10 3.200442 1_556
Ho8 Si5 3.200442 1_555
Ho8 Si5 3.200442 1_556
Ho8 Si14 3.241754 1_545
Ho8 Si17 3.241754 1_555
Ho8 Ir2 3.247511 1_546
Ho8 Ir2 3.247511 1_545
Ho8 Ir5 3.247511 1_556
Ho8 Ir5 3.247511 1_555
Ho9 Si0 3.194168 1_565
Ho9 Si0 3.194168 1_566
Ho9 Si1 3.194168 1_555
Ho9 Si1 3.194168 1_556
Ho9 Si11 3.200442 1_556
Ho9 Si4 3.200442 1_555
Ho9 Si4 3.200442 1_556
Ho9 Si11 3.200442 1_555
Ho9 Si16 3.241754 1_555
Ho9 Si15 3.241754 1_565
Ho9 Ir4 3.247511 1_555
Ho9 Ir4 3.247511 1_556
Ho9 Ir3 3.247511 1_565
Ho9 Ir3 3.247511 1_566
Si0 Si1 2.344115 1_545
Si2 Si3 2.344115 1_455
Si6 Si8 2.417794 1_555
Si7 Si9 2.417794 1_555
Si10 Si5 2.417794 1_555
Si11 Si4 2.417794 1_555
Si12 Si16 2.793520 1_555
Si12 Si17 2.793520 1_555
Si13 Si16 2.793520 1_555
Si13 Si17 2.793520 1_555
Si14 Si19 2.793520 1_455
Si14 Si18 2.793520 1_565
Si15 Si18 2.793520 1_655
Si15 Si19 2.793520 1_545
Ir0 Si9 2.393173 1_555
Ir0 Si12 2.418556 1_554
Ir0 Si12 2.418556 1_555
Ir0 Si3 2.447374 1_555
Ir0 Si4 2.498137 1_555
Ir1 Si8 2.393173 1_555
Ir1 Si13 2.418556 1_554
Ir1 Si13 2.418556 1_555
Ir1 Si2 2.447374 1_555
Ir1 Si5 2.498137 1_555
Ir2 Si10 2.393173 1_565
Ir2 Si14 2.418556 1_555
Ir2 Si14 2.418556 1_554
Ir2 Si1 2.447374 1_555
Ir2 Si6 2.498137 1_555
Ir3 Si11 2.393173 1_545
Ir3 Si15 2.418556 1_554
Ir3 Si15 2.418556 1_555
Ir3 Si0 2.447374 1_555
Ir3 Si7 2.498137 1_555
Ir4 Si4 2.393173 1_555
Ir4 Si16 2.418556 1_554
Ir4 Si16 2.418556 1_555
Ir4 Si1 2.447374 1_555
Ir4 Si8 2.498137 1_555
Ir5 Si5 2.393173 1_555
Ir5 Si17 2.418556 1_555
Ir5 Si17 2.418556 1_554
Ir5 Si0 2.447374 1_555
Ir5 Si9 2.498137 1_555
Ir6 Si7 2.393173 1_455
Ir6 Si18 2.418556 1_555
Ir6 Si18 2.418556 1_554
Ir6 Si2 2.447374 1_555
Ir6 Si10 2.498137 1_555
Ir7 Si6 2.393173 1_655
Ir7 Si19 2.418556 1_554
Ir7 Si19 2.418556 1_555
Ir7 Si3 2.447374 1_555
Ir7 Si11 2.498137 1_555
