# generated using pymatgen
data_Dy3Ge13Os4
_symmetry_space_group_name_H-M   'P 1'
_cell_length_a   9.01724794
_cell_length_b   9.01724794
_cell_length_c   9.01724794
_cell_angle_alpha   90.00000000
_cell_angle_beta   90.00000000
_cell_angle_gamma   90.00000000
_symmetry_Int_Tables_number   1
_chemical_formula_structural   Dy3Ge13Os4
_chemical_formula_sum   'Dy6 Ge26 Os8'
_cell_volume   733.19928682
_cell_formula_units_Z   2
loop_
 _symmetry_equiv_pos_site_id
 _symmetry_equiv_pos_as_xyz
  1  'x, y, z'
loop_
 _atom_site_type_symbol
 _atom_site_label
 _atom_site_symmetry_multiplicity
 _atom_site_fract_x
 _atom_site_fract_y
 _atom_site_fract_z
 _atom_site_occupancy
  Dy  Dy0  1  0.00000000  0.50000000  0.75000000  1
  Dy  Dy1  1  0.50000000  0.25000000  0.00000000  1
  Dy  Dy2  1  0.75000000  -0.00000000  0.50000000  1
  Dy  Dy3  1  0.00000000  0.50000000  0.25000000  1
  Dy  Dy4  1  0.50000000  0.75000000  0.00000000  1
  Dy  Dy5  1  0.25000000  -0.00000000  0.50000000  1
  Ge  Ge0  1  0.50000000  0.50000000  0.50000000  1
  Ge  Ge1  1  0.00000000  -0.00000000  0.00000000  1
  Ge  Ge2  1  0.79504843  0.35632378  0.50000000  1
  Ge  Ge3  1  0.64367622  0.50000000  0.79504843  1
  Ge  Ge4  1  0.50000000  0.20495157  0.64367622  1
  Ge  Ge5  1  0.20495157  0.64367622  0.50000000  1
  Ge  Ge6  1  0.35632378  0.50000000  0.20495157  1
  Ge  Ge7  1  0.50000000  0.79504843  0.35632378  1
  Ge  Ge8  1  0.79504843  0.64367622  0.50000000  1
  Ge  Ge9  1  0.64367622  0.50000000  0.20495157  1
  Ge  Ge10  1  0.20495157  0.35632378  0.50000000  1
  Ge  Ge11  1  0.35632378  0.50000000  0.79504843  1
  Ge  Ge12  1  0.50000000  0.79504843  0.64367622  1
  Ge  Ge13  1  0.50000000  0.20495157  0.35632378  1
  Ge  Ge14  1  0.29504843  -0.00000000  0.85632378  1
  Ge  Ge15  1  0.14367622  0.29504843  0.00000000  1
  Ge  Ge16  1  0.00000000  0.14367622  0.70495157  1
  Ge  Ge17  1  0.70495157  -0.00000000  0.14367622  1
  Ge  Ge18  1  0.85632378  0.70495157  0.00000000  1
  Ge  Ge19  1  0.00000000  0.85632378  0.29504843  1
  Ge  Ge20  1  0.29504843  -0.00000000  0.14367622  1
  Ge  Ge21  1  0.14367622  0.70495157  0.00000000  1
  Ge  Ge22  1  0.70495157  -0.00000000  0.85632378  1
  Ge  Ge23  1  0.85632378  0.29504843  0.00000000  1
  Ge  Ge24  1  0.00000000  0.14367622  0.29504843  1
  Ge  Ge25  1  0.00000000  0.85632378  0.70495157  1
  Os  Os0  1  0.75000000  0.25000000  0.75000000  1
  Os  Os1  1  0.25000000  0.75000000  0.25000000  1
  Os  Os2  1  0.75000000  0.75000000  0.25000000  1
  Os  Os3  1  0.25000000  0.25000000  0.75000000  1
  Os  Os4  1  0.25000000  0.75000000  0.75000000  1
  Os  Os5  1  0.75000000  0.25000000  0.25000000  1
  Os  Os6  1  0.25000000  0.25000000  0.25000000  1
  Os  Os7  1  0.75000000  0.75000000  0.75000000  1
loop_
_geom_bond_atom_site_label_1
_geom_bond_atom_site_label_2
_geom_bond_distance
_geom_bond_site_symmetry_2
Dy0 Os4 3.188079 1_555
Dy0 Os0 3.188079 1_455
Dy0 Os7 3.188079 1_455
Dy0 Os3 3.188079 1_555
Dy0 Ge21 3.189965 1_556
Dy0 Ge2 3.189965 1_455
Dy0 Ge15 3.189965 1_556
Dy0 Ge23 3.189965 1_456
Dy0 Ge10 3.189965 1_555
Dy0 Ge18 3.189965 1_456
Dy0 Ge8 3.189965 1_455
Dy0 Ge5 3.189965 1_555
Dy0 Ge3 3.238636 1_455
Dy0 Ge25 3.238636 1_555
Dy0 Ge16 3.238636 1_555
Dy0 Ge11 3.238636 1_555
Dy1 Os3 3.188079 1_554
Dy1 Os0 3.188079 1_554
Dy1 Os5 3.188079 1_555
Dy1 Os6 3.188079 1_555
Dy1 Ge17 3.189965 1_555
Dy1 Ge11 3.189965 1_554
Dy1 Ge3 3.189965 1_554
Dy1 Ge20 3.189965 1_555
Dy1 Ge6 3.189965 1_555
Dy1 Ge9 3.189965 1_555
Dy1 Ge14 3.189965 1_554
Dy1 Ge22 3.189965 1_554
Dy1 Ge23 3.238636 1_555
Dy1 Ge4 3.238636 1_554
Dy1 Ge15 3.238636 1_555
Dy1 Ge13 3.238636 1_555
Dy2 Os2 3.188079 1_545
Dy2 Os5 3.188079 1_555
Dy2 Os0 3.188079 1_555
Dy2 Os7 3.188079 1_545
Dy2 Ge7 3.189965 1_545
Dy2 Ge24 3.189965 1_655
Dy2 Ge16 3.189965 1_655
Dy2 Ge13 3.189965 1_555
Dy2 Ge25 3.189965 1_645
Dy2 Ge12 3.189965 1_545
Dy2 Ge19 3.189965 1_645
Dy2 Ge4 3.189965 1_555
Dy2 Ge17 3.238636 1_555
Dy2 Ge22 3.238636 1_555
Dy2 Ge8 3.238636 1_545
Dy2 Ge2 3.238636 1_555
Dy3 Os2 3.188079 1_455
Dy3 Os1 3.188079 1_555
Dy3 Os6 3.188079 1_555
Dy3 Os5 3.188079 1_455
Dy3 Ge2 3.189965 1_455
Dy3 Ge15 3.189965 1_555
Dy3 Ge21 3.189965 1_555
Dy3 Ge23 3.189965 1_455
Dy3 Ge10 3.189965 1_555
Dy3 Ge18 3.189965 1_455
Dy3 Ge8 3.189965 1_455
Dy3 Ge5 3.189965 1_555
Dy3 Ge19 3.238636 1_555
Dy3 Ge24 3.238636 1_555
Dy3 Ge9 3.238636 1_455
Dy3 Ge6 3.238636 1_555
Dy4 Os1 3.188079 1_555
Dy4 Os2 3.188079 1_555
Dy4 Os7 3.188079 1_554
Dy4 Os4 3.188079 1_554
Dy4 Ge20 3.189965 1_565
Dy4 Ge11 3.189965 1_554
Dy4 Ge17 3.189965 1_565
Dy4 Ge3 3.189965 1_554
Dy4 Ge6 3.189965 1_555
Dy4 Ge9 3.189965 1_555
Dy4 Ge22 3.189965 1_564
Dy4 Ge14 3.189965 1_564
Dy4 Ge12 3.238636 1_554
Dy4 Ge21 3.238636 1_555
Dy4 Ge18 3.238636 1_555
Dy4 Ge7 3.238636 1_555
Dy5 Os4 3.188079 1_545
Dy5 Os1 3.188079 1_545
Dy5 Os6 3.188079 1_555
Dy5 Os3 3.188079 1_555
Dy5 Ge7 3.189965 1_545
Dy5 Ge16 3.189965 1_555
Dy5 Ge24 3.189965 1_555
Dy5 Ge13 3.189965 1_555
Dy5 Ge25 3.189965 1_545
Dy5 Ge19 3.189965 1_545
Dy5 Ge12 3.189965 1_545
Dy5 Ge4 3.189965 1_555
Dy5 Ge14 3.238636 1_555
Dy5 Ge20 3.238636 1_555
Dy5 Ge5 3.238636 1_545
Dy5 Ge10 3.238636 1_555
Ge0 Ge7 2.959202 1_555
Ge0 Ge6 2.959202 1_555
Ge0 Ge2 2.959202 1_555
Ge0 Ge13 2.959202 1_555
Ge0 Ge10 2.959202 1_555
Ge0 Ge11 2.959202 1_555
Ge0 Ge4 2.959202 1_555
Ge0 Ge9 2.959202 1_555
Ge0 Ge3 2.959202 1_555
Ge0 Ge8 2.959202 1_555
Ge0 Ge5 2.959202 1_555
Ge0 Ge12 2.959202 1_555
Ge1 Ge16 2.959202 1_554
Ge1 Ge21 2.959202 1_545
Ge1 Ge20 2.959202 1_555
Ge1 Ge17 2.959202 1_455
Ge1 Ge24 2.959202 1_555
Ge1 Ge15 2.959202 1_555
Ge1 Ge22 2.959202 1_454
Ge1 Ge25 2.959202 1_544
Ge1 Ge14 2.959202 1_554
Ge1 Ge19 2.959202 1_545
Ge1 Ge23 2.959202 1_455
Ge1 Ge18 2.959202 1_445
Ge2 Os0 2.483169 1_555
Ge2 Os5 2.483169 1_555
Ge3 Os0 2.483169 1_555
Ge3 Os7 2.483169 1_555
Ge4 Os3 2.483169 1_555
Ge4 Os0 2.483169 1_555
Ge5 Os1 2.483169 1_555
Ge5 Os4 2.483169 1_555
Ge6 Os1 2.483169 1_555
Ge6 Os6 2.483169 1_555
Ge7 Os1 2.483169 1_555
Ge7 Os2 2.483169 1_555
Ge8 Os7 2.483169 1_555
Ge8 Os2 2.483169 1_555
Ge9 Os5 2.483169 1_555
Ge9 Os2 2.483169 1_555
Ge10 Os3 2.483169 1_555
Ge10 Os6 2.483169 1_555
Ge11 Os3 2.483169 1_555
Ge11 Os4 2.483169 1_555
Ge12 Os7 2.483169 1_555
Ge12 Os4 2.483169 1_555
Ge13 Os5 2.483169 1_555
Ge13 Os6 2.483169 1_555
Ge14 Os4 2.483169 1_545
Ge14 Os3 2.483169 1_555
Ge15 Os3 2.483169 1_554
Ge15 Os6 2.483169 1_555
Ge16 Os3 2.483169 1_555
Ge16 Os0 2.483169 1_455
Ge17 Os5 2.483169 1_555
Ge17 Os2 2.483169 1_545
Ge18 Os2 2.483169 1_555
Ge18 Os7 2.483169 1_554
Ge19 Os2 2.483169 1_455
Ge19 Os1 2.483169 1_555
Ge20 Os1 2.483169 1_545
Ge20 Os6 2.483169 1_555
Ge21 Os4 2.483169 1_554
Ge21 Os1 2.483169 1_555
Ge22 Os7 2.483169 1_545
Ge22 Os0 2.483169 1_555
Ge23 Os0 2.483169 1_554
Ge23 Os5 2.483169 1_555
Ge24 Os5 2.483169 1_455
Ge24 Os6 2.483169 1_555
Ge25 Os4 2.483169 1_555
Ge25 Os7 2.483169 1_455
