# generated using pymatgen
data_Rb2Sn4S9
_symmetry_space_group_name_H-M   'P 1'
_cell_length_a   12.01747086
_cell_length_b   12.04059581
_cell_length_c   27.11330801
_cell_angle_alpha   90.00000000
_cell_angle_beta   90.00000000
_cell_angle_gamma   90.00000000
_symmetry_Int_Tables_number   1
_chemical_formula_structural   Rb2Sn4S9
_chemical_formula_sum   'Rb16 Sn32 S72'
_cell_volume   3923.22813749
_cell_formula_units_Z   8
loop_
 _symmetry_equiv_pos_site_id
 _symmetry_equiv_pos_as_xyz
  1  'x, y, z'
loop_
 _atom_site_type_symbol
 _atom_site_label
 _atom_site_symmetry_multiplicity
 _atom_site_fract_x
 _atom_site_fract_y
 _atom_site_fract_z
 _atom_site_occupancy
  Rb  Rb0  1  0.30669135  0.47854514  0.48341387  1
  Rb  Rb1  1  0.69330865  0.02145486  0.98341387  1
  Rb  Rb2  1  0.19330865  0.97854514  0.51658613  1
  Rb  Rb3  1  0.80669135  0.52145486  0.01658613  1
  Rb  Rb4  1  0.69189303  0.42328477  0.71935973  1
  Rb  Rb5  1  0.30810697  0.07671523  0.21935973  1
  Rb  Rb6  1  0.80810697  0.92328477  0.28064027  1
  Rb  Rb7  1  0.19189303  0.57671523  0.78064027  1
  Rb  Rb8  1  0.80236816  0.55163006  0.53857659  1
  Rb  Rb9  1  0.19763184  0.94836994  0.03857659  1
  Rb  Rb10  1  0.69763184  0.05163006  0.46142341  1
  Rb  Rb11  1  0.30236816  0.44836994  0.96142341  1
  Rb  Rb12  1  0.71694609  0.95071664  0.76426507  1
  Rb  Rb13  1  0.28305391  0.54928336  0.26426507  1
  Rb  Rb14  1  0.78305391  0.45071664  0.23573493  1
  Rb  Rb15  1  0.21694609  0.04928336  0.73573493  1
  Sn  Sn0  1  0.54019229  0.18287718  0.61049959  1
  Sn  Sn1  1  0.45980771  0.31712282  0.11049959  1
  Sn  Sn2  1  0.95980771  0.68287718  0.38950041  1
  Sn  Sn3  1  0.04019229  0.81712282  0.88950041  1
  Sn  Sn4  1  0.84179039  0.20354720  0.60841083  1
  Sn  Sn5  1  0.15820961  0.29645280  0.10841083  1
  Sn  Sn6  1  0.65820961  0.70354720  0.39158917  1
  Sn  Sn7  1  0.34179039  0.79645280  0.89158917  1
  Sn  Sn8  1  0.52103789  0.86824051  0.58551405  1
  Sn  Sn9  1  0.47896211  0.63175949  0.08551405  1
  Sn  Sn10  1  0.97896211  0.36824051  0.41448595  1
  Sn  Sn11  1  0.02103789  0.13175949  0.91448595  1
  Sn  Sn12  1  0.33580115  0.68656463  0.63804077  1
  Sn  Sn13  1  0.66419885  0.81343537  0.13804077  1
  Sn  Sn14  1  0.16419885  0.18656463  0.36195923  1
  Sn  Sn15  1  0.83580115  0.31343537  0.86195923  1
  Sn  Sn16  1  0.03550474  0.39358647  0.65520665  1
  Sn  Sn17  1  0.96449526  0.10641353  0.15520665  1
  Sn  Sn18  1  0.46449526  0.89358647  0.34479335  1
  Sn  Sn19  1  0.53550474  0.60641353  0.84479335  1
  Sn  Sn20  1  0.03856159  0.70469399  0.63918740  1
  Sn  Sn21  1  0.96143841  0.79530601  0.13918740  1
  Sn  Sn22  1  0.46143841  0.20469399  0.36081260  1
  Sn  Sn23  1  0.53856159  0.29530601  0.86081260  1
  Sn  Sn24  1  0.35718492  0.36953923  0.66303085  1
  Sn  Sn25  1  0.64281508  0.13046077  0.16303085  1
  Sn  Sn26  1  0.14281508  0.86953923  0.33696915  1
  Sn  Sn27  1  0.85718492  0.63046077  0.83696915  1
  Sn  Sn28  1  0.84409736  0.89760883  0.59265672  1
  Sn  Sn29  1  0.15590264  0.60239117  0.09265672  1
  Sn  Sn30  1  0.65590264  0.39760883  0.40734328  1
  Sn  Sn31  1  0.34409736  0.10239117  0.90734328  1
  S  S0  1  0.91967718  0.06193356  0.55168317  1
  S  S1  1  0.08032282  0.43806644  0.05168317  1
  S  S2  1  0.58032282  0.56193356  0.44831683  1
  S  S3  1  0.41967718  0.93806644  0.94831683  1
  S  S4  1  0.37693614  0.31192068  0.57925624  1
  S  S5  1  0.62306386  0.18807932  0.07925624  1
  S  S6  1  0.12306386  0.81192068  0.42074376  1
  S  S7  1  0.87693614  0.68807932  0.92074376  1
  S  S8  1  0.94235874  0.55929360  0.68736006  1
  S  S9  1  0.05764126  0.94070640  0.18736006  1
  S  S10  1  0.55764126  0.05929360  0.31263994  1
  S  S11  1  0.44235874  0.44070640  0.81263994  1
  S  S12  1  0.18802579  0.32965718  0.70912872  1
  S  S13  1  0.81197421  0.17034282  0.20912872  1
  S  S14  1  0.31197421  0.82965718  0.29087128  1
  S  S15  1  0.68802579  0.67034282  0.79087128  1
  S  S16  1  0.43639164  0.54681258  0.68793953  1
  S  S17  1  0.56360836  0.95318742  0.18793953  1
  S  S18  1  0.06360836  0.04681258  0.31206047  1
  S  S19  1  0.93639164  0.45318742  0.81206047  1
  S  S20  1  0.89350239  0.84516458  0.67530945  1
  S  S21  1  0.10649761  0.65483542  0.17530945  1
  S  S22  1  0.60649761  0.34516458  0.32469055  1
  S  S23  1  0.39350239  0.15483542  0.82469055  1
  S  S24  1  0.98825388  0.34171942  0.57202740  1
  S  S25  1  0.01174612  0.15828058  0.07202740  1
  S  S26  1  0.51174612  0.84171942  0.42797260  1
  S  S27  1  0.48825388  0.65828058  0.92797260  1
  S  S28  1  0.48753166  0.82826718  0.67037388  1
  S  S29  1  0.51246834  0.67173282  0.17037388  1
  S  S30  1  0.01246834  0.32826718  0.32962612  1
  S  S31  1  0.98753166  0.17173282  0.82962612  1
  S  S32  1  0.69212353  0.81395410  0.54420443  1
  S  S33  1  0.30787647  0.68604590  0.04420443  1
  S  S34  1  0.80787647  0.31395410  0.45579557  1
  S  S35  1  0.19212353  0.18604590  0.95579557  1
  S  S36  1  0.18029565  0.55553110  0.60557896  1
  S  S37  1  0.81970435  0.94446890  0.10557896  1
  S  S38  1  0.31970435  0.05553110  0.39442104  1
  S  S39  1  0.68029565  0.44446890  0.89442104  1
  S  S40  1  0.48209872  0.22463313  0.69653338  1
  S  S41  1  0.51790128  0.27536687  0.19653338  1
  S  S42  1  0.01790128  0.72463313  0.30346662  1
  S  S43  1  0.98209872  0.77536687  0.80346662  1
  S  S44  1  0.38054355  0.73941923  0.55191308  1
  S  S45  1  0.61945645  0.76058077  0.05191308  1
  S  S46  1  0.11945645  0.23941923  0.44808692  1
  S  S47  1  0.88054355  0.26058077  0.94808692  1
  S  S48  1  0.90770125  0.24758535  0.69155485  1
  S  S49  1  0.09229875  0.25241465  0.19155485  1
  S  S50  1  0.59229875  0.74758535  0.30844515  1
  S  S51  1  0.40770125  0.75241465  0.80844515  1
  S  S52  1  0.19354959  0.79238701  0.68381966  1
  S  S53  1  0.80645041  0.70761299  0.18381966  1
  S  S54  1  0.30645041  0.29238701  0.31618034  1
  S  S55  1  0.69354959  0.20761299  0.81618034  1
  S  S56  1  0.69955160  0.05444514  0.64213588  1
  S  S57  1  0.30044840  0.44555486  0.14213588  1
  S  S58  1  0.80044840  0.55444514  0.35786412  1
  S  S59  1  0.19955160  0.94555486  0.85786412  1
  S  S60  1  0.68094695  0.31201230  0.57845474  1
  S  S61  1  0.31905305  0.18798770  0.07845474  1
  S  S62  1  0.81905305  0.81201230  0.42154526  1
  S  S63  1  0.18094695  0.68798770  0.92154526  1
  S  S64  1  0.46183424  0.04610104  0.55177998  1
  S  S65  1  0.53816576  0.45389896  0.05177998  1
  S  S66  1  0.03816576  0.54610104  0.44822002  1
  S  S67  1  0.96183424  0.95389896  0.94822002  1
  S  S68  1  0.98788402  0.76598546  0.55599358  1
  S  S69  1  0.01211598  0.73401454  0.05599358  1
  S  S70  1  0.51211598  0.26598546  0.44400642  1
  S  S71  1  0.48788402  0.23401454  0.94400642  1
loop_
_geom_bond_atom_site_label_1
_geom_bond_atom_site_label_2
_geom_bond_distance
_geom_bond_site_symmetry_2
Rb0 S4 3.389753 1_555
Rb0 S66 3.462037 1_555
Rb0 S2 3.567484 1_555
Rb0 S70 3.712987 1_555
Rb0 S44 3.755450 1_555
Rb0 S36 3.760028 1_555
Rb0 S46 3.777597 1_555
Rb1 S5 3.389753 1_556
Rb1 S67 3.462037 1_545
Rb1 S3 3.567484 1_545
Rb1 S71 3.712987 1_555
Rb1 S45 3.755450 1_546
Rb1 S37 3.760028 1_546
Rb1 S47 3.777597 1_555
Rb2 S6 3.389753 1_555
Rb2 S64 3.462037 1_565
Rb2 S0 3.567484 1_465
Rb2 S68 3.712987 1_455
Rb2 S46 3.755450 1_565
Rb2 S38 3.760028 1_565
Rb2 S44 3.777597 1_555
Rb3 S7 3.389753 1_554
Rb3 S65 3.462037 1_555
Rb3 S1 3.567484 1_655
Rb3 S69 3.712987 1_655
Rb3 S47 3.755450 1_554
Rb3 S39 3.760028 1_554
Rb3 S45 3.777597 1_555
Rb4 S48 3.430724 1_555
Rb4 S16 3.516504 1_555
Rb4 S40 3.529954 1_555
Rb4 S8 3.534751 1_555
Rb4 S15 3.551133 1_555
Rb4 S55 3.692580 1_555
Rb4 S19 3.883333 1_555
Rb5 S49 3.430724 1_555
Rb5 S17 3.516504 1_545
Rb5 S41 3.529954 1_555
Rb5 S9 3.534751 1_545
Rb5 S14 3.551133 1_545
Rb5 S54 3.692580 1_555
Rb5 S18 3.883333 1_555
Rb6 S50 3.430724 1_555
Rb6 S18 3.516504 1_665
Rb6 S42 3.529954 1_655
Rb6 S10 3.534751 1_565
Rb6 S13 3.551133 1_565
Rb6 S53 3.692580 1_555
Rb6 S17 3.883333 1_555
Rb7 S51 3.430724 1_555
Rb7 S19 3.516504 1_455
Rb7 S43 3.529954 1_455
Rb7 S11 3.534751 1_555
Rb7 S12 3.551133 1_555
Rb7 S52 3.692580 1_555
Rb7 S16 3.883333 1_555
Rb8 S60 3.409147 1_555
Rb8 S32 3.428542 1_555
Rb8 S68 3.443074 1_555
Rb8 S24 3.492962 1_555
Rb8 S2 3.622825 1_555
Rb8 S34 3.637539 1_555
Rb8 S66 3.746475 1_655
Rb9 S61 3.409147 1_565
Rb9 S33 3.428542 1_555
Rb9 S69 3.443074 1_555
Rb9 S25 3.492962 1_565
Rb9 S3 3.622825 1_554
Rb9 S35 3.637539 1_564
Rb9 S67 3.746475 1_454
Rb10 S62 3.409147 1_545
Rb10 S34 3.428542 1_555
Rb10 S70 3.443074 1_555
Rb10 S26 3.492962 1_545
Rb10 S0 3.622825 1_555
Rb10 S32 3.637539 1_545
Rb10 S64 3.746475 1_555
Rb11 S63 3.409147 1_555
Rb11 S35 3.428542 1_555
Rb11 S71 3.443074 1_555
Rb11 S27 3.492962 1_555
Rb11 S1 3.622825 1_556
Rb11 S33 3.637539 1_556
Rb11 S65 3.746475 1_556
Rb12 S55 3.410011 1_565
Rb12 S20 3.454598 1_555
Rb12 S15 3.469534 1_555
Rb12 S56 3.545203 1_565
Rb13 S54 3.410011 1_555
Rb13 S21 3.454598 1_555
Rb13 S14 3.469534 1_555
Rb13 S57 3.545203 1_555
Rb14 S53 3.410011 1_555
Rb14 S22 3.454598 1_555
Rb14 S13 3.469534 1_555
Rb14 S58 3.545203 1_555
Rb15 S52 3.410011 1_545
Rb15 S23 3.454598 1_555
Rb15 S12 3.469534 1_555
Rb15 S59 3.545203 1_545
S0 Sn28 2.444148 1_545
S0 Sn4 2.479754 1_555
S1 Sn29 2.444148 1_555
S1 Sn5 2.479754 1_555
S2 Sn30 2.444148 1_555
S2 Sn6 2.479754 1_555
S3 Sn31 2.444148 1_565
S3 Sn7 2.479754 1_555
S4 Sn24 2.386825 1_555
S4 Sn0 2.642143 1_555
S5 Sn25 2.386825 1_555
S5 Sn1 2.642143 1_555
S6 Sn26 2.386825 1_555
S6 Sn2 2.642143 1_455
S7 Sn27 2.386825 1_555
S7 Sn3 2.642143 1_655
S8 Sn16 2.448243 1_655
S8 Sn20 2.471341 1_655
S9 Sn17 2.448243 1_465
S9 Sn21 2.471341 1_455
S10 Sn18 2.448243 1_545
S10 Sn22 2.471341 1_555
S11 Sn19 2.448243 1_555
S11 Sn23 2.471341 1_555
S12 Sn24 2.434194 1_555
S12 Sn16 2.467703 1_555
S13 Sn25 2.434194 1_555
S13 Sn17 2.467703 1_555
S14 Sn26 2.434194 1_555
S14 Sn18 2.467703 1_555
S15 Sn27 2.434194 1_555
S15 Sn19 2.467703 1_555
S16 Sn24 2.432724 1_555
S16 Sn12 2.474504 1_555
S17 Sn25 2.432724 1_565
S17 Sn13 2.474504 1_555
S18 Sn26 2.432724 1_545
S18 Sn14 2.474504 1_555
S19 Sn27 2.432724 1_555
S19 Sn15 2.474504 1_555
S20 Sn28 2.402765 1_555
S20 Sn20 2.618925 1_655
S21 Sn29 2.402765 1_555
S21 Sn21 2.618925 1_455
S22 Sn30 2.402765 1_555
S22 Sn22 2.618925 1_555
S23 Sn31 2.402765 1_555
S23 Sn23 2.618925 1_555
S24 Sn16 2.408043 1_655
S24 Sn4 2.615143 1_555
S25 Sn17 2.408043 1_455
S25 Sn5 2.615143 1_555
S26 Sn18 2.408043 1_555
S26 Sn6 2.615143 1_555
S27 Sn19 2.408043 1_555
S27 Sn7 2.615143 1_555
S28 Sn8 2.384871 1_555
S28 Sn12 2.646590 1_555
S29 Sn9 2.384871 1_555
S29 Sn13 2.646590 1_555
S30 Sn10 2.384871 1_455
S30 Sn14 2.646590 1_555
S31 Sn11 2.384871 1_655
S31 Sn15 2.646590 1_555
S32 Sn8 2.430831 1_555
S32 Sn28 2.464933 1_555
S33 Sn9 2.430831 1_555
S33 Sn29 2.464933 1_555
S34 Sn10 2.430831 1_555
S34 Sn30 2.464933 1_555
S35 Sn11 2.430831 1_555
S35 Sn31 2.464933 1_555
S36 Sn12 2.599272 1_555
S36 Sn20 2.637647 1_555
S36 Sn16 2.939452 1_555
S37 Sn13 2.599272 1_555
S37 Sn21 2.637647 1_555
S37 Sn17 2.939452 1_565
S38 Sn14 2.599272 1_555
S38 Sn22 2.637647 1_555
S38 Sn18 2.939452 1_545
S39 Sn15 2.599272 1_555
S39 Sn23 2.637647 1_555
S39 Sn19 2.939452 1_555
S40 Sn24 2.474418 1_555
S40 Sn0 2.486257 1_555
S41 Sn25 2.474418 1_555
S41 Sn1 2.486257 1_555
S42 Sn26 2.474418 1_555
S42 Sn2 2.486257 1_455
S43 Sn27 2.474418 1_555
S43 Sn3 2.486257 1_655
S44 Sn8 2.467082 1_555
S44 Sn12 2.479376 1_555
S45 Sn9 2.467082 1_555
S45 Sn13 2.479376 1_555
S46 Sn10 2.467082 1_455
S46 Sn14 2.479376 1_555
S47 Sn11 2.467082 1_655
S47 Sn15 2.479376 1_555
S48 Sn4 2.447543 1_555
S48 Sn16 2.533874 1_655
S49 Sn5 2.447543 1_555
S49 Sn17 2.533874 1_455
S50 Sn6 2.447543 1_555
S50 Sn18 2.533874 1_555
S51 Sn7 2.447543 1_555
S51 Sn19 2.533874 1_555
S52 Sn20 2.459355 1_555
S52 Sn12 2.467087 1_555
S53 Sn21 2.459355 1_555
S53 Sn13 2.467087 1_555
S54 Sn22 2.459355 1_555
S54 Sn14 2.467087 1_555
S55 Sn23 2.459355 1_555
S55 Sn15 2.467087 1_555
S56 Sn0 2.606664 1_555
S56 Sn4 2.642163 1_555
S56 Sn28 2.895381 1_545
S57 Sn1 2.606664 1_555
S57 Sn5 2.642163 1_555
S57 Sn29 2.895381 1_555
S58 Sn2 2.606664 1_555
S58 Sn6 2.642163 1_555
S58 Sn30 2.895381 1_555
S59 Sn3 2.606664 1_555
S59 Sn7 2.642163 1_555
S59 Sn31 2.895381 1_565
S60 Sn0 2.456361 1_555
S60 Sn4 2.470122 1_555
S61 Sn1 2.456361 1_555
S61 Sn5 2.470122 1_555
S62 Sn2 2.456361 1_555
S62 Sn6 2.470122 1_555
S63 Sn3 2.456361 1_555
S63 Sn7 2.470122 1_555
S64 Sn8 2.434953 1_545
S64 Sn0 2.476617 1_555
S65 Sn9 2.434953 1_555
S65 Sn1 2.476617 1_555
S66 Sn10 2.434953 1_455
S66 Sn2 2.476617 1_455
S67 Sn11 2.434953 1_665
S67 Sn3 2.476617 1_655
S68 Sn20 2.450209 1_655
S68 Sn28 2.546692 1_555
S69 Sn21 2.450209 1_455
S69 Sn29 2.546692 1_555
S70 Sn22 2.450209 1_555
S70 Sn30 2.546692 1_555
S71 Sn23 2.450209 1_555
S71 Sn31 2.546692 1_555
