# generated using pymatgen
data_AlO2
_symmetry_space_group_name_H-M   'P 1'
_cell_length_a   4.99652000
_cell_length_b   6.92522000
_cell_length_c   3.54708200
_cell_angle_alpha   90.00000000
_cell_angle_beta   90.00000000
_cell_angle_gamma   90.00000000
_symmetry_Int_Tables_number   1
_chemical_formula_structural   AlO2
_chemical_formula_sum   'Al4 O8'
_cell_volume   122.73613220
_cell_formula_units_Z   4
loop_
 _symmetry_equiv_pos_site_id
 _symmetry_equiv_pos_as_xyz
  1  'x, y, z'
loop_
 _atom_site_type_symbol
 _atom_site_label
 _atom_site_symmetry_multiplicity
 _atom_site_fract_x
 _atom_site_fract_y
 _atom_site_fract_z
 _atom_site_occupancy
  Al  Al0  1  0.64451500  0.24952200  0.25000000  1
  Al  Al1  1  0.85548500  0.74952200  0.25000000  1
  Al  Al2  1  0.35548500  0.75047800  0.75000000  1
  Al  Al3  1  0.14451500  0.25047800  0.75000000  1
  O  O0  1  0.24843500  0.99974700  0.75000000  1
  O  O1  1  0.25156500  0.49974700  0.75000000  1
  O  O2  1  0.75156500  0.00025300  0.25000000  1
  O  O3  1  0.74843500  0.50025300  0.25000000  1
  O  O4  1  0.77645000  0.25022800  0.75000000  1
  O  O5  1  0.72355000  0.75022800  0.75000000  1
  O  O6  1  0.22355000  0.74977200  0.25000000  1
  O  O7  1  0.27645000  0.24977200  0.25000000  1
loop_
_geom_bond_atom_site_label_1
_geom_bond_atom_site_label_2
_geom_bond_distance
_geom_bond_site_symmetry_2
Al0 O2 1.807210 1_555
Al0 O3 1.812341 1_555
Al0 O7 1.839045 1_555
Al0 O4 1.892099 1_554
Al0 O4 1.892099 1_555
Al1 O3 1.807210 1_555
Al1 O2 1.812341 1_565
Al1 O6 1.839045 1_655
Al1 O5 1.892099 1_555
Al1 O5 1.892099 1_554
Al2 O0 1.807210 1_555
Al2 O1 1.812341 1_555
Al2 O5 1.839045 1_555
Al2 O6 1.892099 1_556
Al2 O6 1.892099 1_555
Al3 O1 1.807210 1_555
Al3 O0 1.812341 1_545
Al3 O4 1.839045 1_455
Al3 O7 1.892099 1_555
Al3 O7 1.892099 1_556
