# generated using pymatgen
data_ZnFeBiO5
_symmetry_space_group_name_H-M   'P 1'
_cell_length_a   10.49931700
_cell_length_b   5.34908500
_cell_length_c   8.52656900
_cell_angle_alpha   71.10196895
_cell_angle_beta   90.00000000
_cell_angle_gamma   90.00000000
_symmetry_Int_Tables_number   1
_chemical_formula_structural   ZnFeBiO5
_chemical_formula_sum   'Zn4 Fe4 Bi4 O20'
_cell_volume   453.05433416
_cell_formula_units_Z   4
loop_
 _symmetry_equiv_pos_site_id
 _symmetry_equiv_pos_as_xyz
  1  'x, y, z'
loop_
 _atom_site_type_symbol
 _atom_site_label
 _atom_site_symmetry_multiplicity
 _atom_site_fract_x
 _atom_site_fract_y
 _atom_site_fract_z
 _atom_site_occupancy
  Zn  Zn0  1  0.09946900  0.52774700  0.83727400  1
  Zn  Zn1  1  0.90053100  0.47225300  0.16272600  1
  Zn  Zn2  1  0.59946900  0.47225300  0.66272600  1
  Zn  Zn3  1  0.40053100  0.52774700  0.33727400  1
  Fe  Fe0  1  0.38755800  0.13483700  0.05846800  1
  Fe  Fe1  1  0.61244200  0.86516300  0.94153200  1
  Fe  Fe2  1  0.88755800  0.86516300  0.44153200  1
  Fe  Fe3  1  0.11244200  0.13483700  0.55846800  1
  Bi  Bi0  1  0.89670400  0.03601500  0.84268700  1
  Bi  Bi1  1  0.10329600  0.96398500  0.15731300  1
  Bi  Bi2  1  0.60329600  0.03601500  0.34268700  1
  Bi  Bi3  1  0.39670400  0.96398500  0.65731300  1
  O  O0  1  0.95332100  0.86908700  0.65387700  1
  O  O1  1  0.02856700  0.32437800  0.69048600  1
  O  O2  1  0.79082600  0.18247500  0.30449800  1
  O  O3  1  0.45647300  0.76189000  0.48384600  1
  O  O4  1  0.71904300  0.71629400  0.49677000  1
  O  O5  1  0.78095700  0.71629400  0.99677000  1
  O  O6  1  0.47143300  0.32437800  0.19048600  1
  O  O7  1  0.52856700  0.67562200  0.80951400  1
  O  O8  1  0.54352700  0.23811000  0.51615400  1
  O  O9  1  0.45332100  0.13091300  0.84612300  1
  O  O10  1  0.28095700  0.28370600  0.50323000  1
  O  O11  1  0.04667900  0.13091300  0.34612300  1
  O  O12  1  0.54667900  0.86908700  0.15387700  1
  O  O13  1  0.21904300  0.28370600  0.00323000  1
  O  O14  1  0.95647300  0.23811000  0.01615400  1
  O  O15  1  0.04352700  0.76189000  0.98384600  1
  O  O16  1  0.20917400  0.81752500  0.69550200  1
  O  O17  1  0.97143300  0.67562200  0.30951400  1
  O  O18  1  0.29082600  0.81752500  0.19550200  1
  O  O19  1  0.70917400  0.18247500  0.80449800  1
loop_
_geom_bond_atom_site_label_1
_geom_bond_atom_site_label_2
_geom_bond_distance
_geom_bond_site_symmetry_2
Fe0 O13 1.934785 1_555
Fe0 O9 1.944217 1_554
Fe0 O6 1.951881 1_555
Fe0 O18 1.998243 1_545
Fe0 O12 2.173599 1_545
Fe1 O5 1.934785 1_555
Fe1 O12 1.944217 1_556
Fe1 O7 1.951881 1_555
Fe1 O19 1.998243 1_565
Fe1 O9 2.173599 1_565
Fe2 O4 1.934785 1_555
Fe2 O0 1.944217 1_555
Fe2 O17 1.951881 1_555
Fe2 O2 1.998243 1_565
Fe2 O11 2.173599 1_665
Fe3 O10 1.934785 1_555
Fe3 O11 1.944217 1_555
Fe3 O1 1.951881 1_555
Fe3 O16 1.998243 1_545
Fe3 O0 2.173599 1_445
Bi0 O19 2.105054 1_555
Bi0 O5 2.161553 1_545
Bi0 O0 2.161852 1_545
Bi0 O1 2.164136 1_655
Bi0 O14 2.187650 1_556
Bi0 O15 2.198152 1_645
Bi1 O18 2.105054 1_555
Bi1 O13 2.161553 1_565
Bi1 O11 2.161852 1_565
Bi1 O17 2.164136 1_455
Bi1 O15 2.187650 1_554
Bi1 O14 2.198152 1_465
Bi2 O2 2.105054 1_555
Bi2 O4 2.161553 1_545
Bi2 O12 2.161852 1_545
Bi2 O6 2.164136 1_555
Bi2 O8 2.187650 1_555
Bi2 O3 2.198152 1_545
Bi3 O16 2.105054 1_555
Bi3 O10 2.161553 1_565
Bi3 O9 2.161852 1_565
Bi3 O7 2.164136 1_555
Bi3 O3 2.187650 1_555
Bi3 O8 2.198152 1_565
O0 Zn0 2.506813 1_655
O1 Zn0 2.045976 1_555
O2 Zn1 1.994208 1_555
O3 Zn3 2.118828 1_555
O3 Zn2 2.334529 1_555
O4 Zn2 2.021380 1_555
O5 Zn1 2.021380 1_556
O6 Zn3 2.045976 1_555
O7 Zn2 2.045976 1_555
O8 Zn2 2.118828 1_555
O8 Zn3 2.334529 1_555
O9 Zn2 2.506813 1_555
O10 Zn3 2.021380 1_555
O11 Zn1 2.506813 1_455
O12 Zn3 2.506813 1_555
O13 Zn0 2.021380 1_554
O14 Zn1 2.118828 1_555
O14 Zn0 2.334529 1_654
O15 Zn0 2.118828 1_555
O15 Zn1 2.334529 1_456
O16 Zn0 1.994208 1_555
O17 Zn1 2.045976 1_555
O18 Zn3 1.994208 1_555
O19 Zn2 1.994208 1_555
