# generated using pymatgen
data_RbHS2O7
_symmetry_space_group_name_H-M   'P 1'
_cell_length_a   11.18613500
_cell_length_b   7.47118700
_cell_length_c   8.73522796
_cell_angle_alpha   72.57722938
_cell_angle_beta   90.00000000
_cell_angle_gamma   90.00000000
_symmetry_Int_Tables_number   1
_chemical_formula_structural   RbHS2O7
_chemical_formula_sum   'Rb4 H4 S8 O28'
_cell_volume   696.54238157
_cell_formula_units_Z   4
loop_
 _symmetry_equiv_pos_site_id
 _symmetry_equiv_pos_as_xyz
  1  'x, y, z'
loop_
 _atom_site_type_symbol
 _atom_site_label
 _atom_site_symmetry_multiplicity
 _atom_site_fract_x
 _atom_site_fract_y
 _atom_site_fract_z
 _atom_site_occupancy
  Rb  Rb0  1  0.29944400  0.65628200  0.46720600  1
  Rb  Rb1  1  0.79944400  0.34371800  0.03279400  1
  Rb  Rb2  1  0.70055600  0.34371800  0.53279400  1
  Rb  Rb3  1  0.20055600  0.65628200  0.96720600  1
  H  H0  1  0.54773800  0.89617500  0.79185800  1
  H  H1  1  0.04773800  0.10382500  0.70814200  1
  H  H2  1  0.45226200  0.10382500  0.20814200  1
  H  H3  1  0.95226200  0.89617500  0.29185800  1
  S  S0  1  0.40398400  0.08635200  0.67745500  1
  S  S1  1  0.90398400  0.91364800  0.82254500  1
  S  S2  1  0.59601600  0.91364800  0.32254500  1
  S  S3  1  0.09601600  0.08635200  0.17745500  1
  S  S4  1  0.44336100  0.31825300  0.89102200  1
  S  S5  1  0.94336100  0.68174700  0.60897800  1
  S  S6  1  0.55663900  0.68174700  0.10897800  1
  S  S7  1  0.05663900  0.31825300  0.39102200  1
  O  O0  1  0.53443400  0.00974000  0.69134900  1
  O  O1  1  0.03443400  0.99026000  0.80865100  1
  O  O2  1  0.46556600  0.99026000  0.30865100  1
  O  O3  1  0.96556600  0.00974000  0.19134900  1
  O  O4  1  0.31965900  0.94091900  0.67802500  1
  O  O5  1  0.81965900  0.05908100  0.82197500  1
  O  O6  1  0.68034100  0.05908100  0.32197500  1
  O  O7  1  0.18034100  0.94091900  0.17802500  1
  O  O8  1  0.38059400  0.12520100  0.84607700  1
  O  O9  1  0.88059400  0.87479900  0.65392300  1
  O  O10  1  0.61940600  0.87479900  0.15392300  1
  O  O11  1  0.11940600  0.12520100  0.34607700  1
  O  O12  1  0.37483600  0.47664600  0.79519400  1
  O  O13  1  0.87483600  0.52335400  0.70480600  1
  O  O14  1  0.62516400  0.52335400  0.20480600  1
  O  O15  1  0.12516400  0.47664600  0.29519400  1
  O  O16  1  0.56893000  0.31406000  0.85167300  1
  O  O17  1  0.06893000  0.68594000  0.64832700  1
  O  O18  1  0.43107000  0.68594000  0.14832700  1
  O  O19  1  0.93107000  0.31406000  0.35167300  1
  O  O20  1  0.41405200  0.26505500  0.06155900  1
  O  O21  1  0.91405200  0.73494500  0.43844100  1
  O  O22  1  0.58594800  0.73494500  0.93844100  1
  O  O23  1  0.08594800  0.26505500  0.56155900  1
  O  O24  1  0.40561800  0.25917200  0.54870400  1
  O  O25  1  0.90561800  0.74082800  0.95129600  1
  O  O26  1  0.59438200  0.74082800  0.45129600  1
  O  O27  1  0.09438200  0.25917200  0.04870400  1
loop_
_geom_bond_atom_site_label_1
_geom_bond_atom_site_label_2
_geom_bond_distance
_geom_bond_site_symmetry_2
H0 O0 1.032850 1_565
H0 O22 1.532832 1_555
H1 O1 1.032850 1_545
H1 O23 1.532832 1_555
H2 O2 1.032850 1_545
H2 O20 1.532832 1_555
H3 O3 1.032850 1_565
H3 O21 1.532832 1_555
O0 S0 1.558880 1_555
O0 Rb2 3.086739 1_555
O1 S1 1.558880 1_455
O1 Rb3 3.086739 1_555
O2 S2 1.558880 1_555
O2 Rb0 3.086739 1_555
O3 S3 1.558880 1_655
O3 Rb1 3.086739 1_555
O4 S0 1.437759 1_565
O4 Rb3 3.075948 1_555
O4 Rb0 3.210911 1_555
O5 S1 1.437759 1_545
O5 Rb2 3.075948 1_555
O5 Rb1 3.210911 1_556
O6 S2 1.437759 1_545
O6 Rb1 3.075948 1_555
O6 Rb2 3.210911 1_555
O7 S3 1.437759 1_565
O7 Rb0 3.075948 1_555
O7 Rb3 3.210911 1_554
O8 S0 1.605710 1_555
O8 S4 1.751149 1_555
O9 S1 1.605710 1_555
O9 S5 1.751149 1_555
O10 S2 1.605710 1_555
O10 S6 1.751149 1_555
O11 S3 1.605710 1_555
O11 S7 1.751149 1_555
O12 S4 1.447572 1_555
O12 Rb0 2.901434 1_555
O12 Rb3 3.011171 1_555
O13 S5 1.447572 1_555
O13 Rb1 2.901434 1_556
O13 Rb2 3.011171 1_555
O14 S6 1.447572 1_555
O14 Rb2 2.901434 1_555
O14 Rb1 3.011171 1_555
O15 S7 1.447572 1_555
O15 Rb3 2.901434 1_554
O15 Rb0 3.011171 1_555
O16 S4 1.448642 1_555
O16 Rb1 3.067760 1_556
O16 Rb2 3.099405 1_555
O17 S5 1.448642 1_455
O17 Rb0 3.067760 1_555
O17 Rb3 3.099405 1_555
O18 S6 1.448642 1_555
O18 Rb3 3.067760 1_554
O18 Rb0 3.099405 1_555
O19 S7 1.448642 1_655
O19 Rb2 3.067760 1_555
O19 Rb1 3.099405 1_555
O20 S4 1.459467 1_554
O21 S5 1.459467 1_555
O22 S6 1.459467 1_556
O23 S7 1.459467 1_555
O24 S0 1.436223 1_555
O24 Rb0 3.074890 1_555
O24 Rb2 3.354186 1_555
O25 S1 1.436223 1_555
O25 Rb1 3.074890 1_556
O25 Rb3 3.354186 1_655
O26 S2 1.436223 1_555
O26 Rb2 3.074890 1_555
O26 Rb0 3.354186 1_555
O27 S3 1.436223 1_555
O27 Rb3 3.074890 1_554
O27 Rb1 3.354186 1_455
