# generated using pymatgen
data_Ir2Os(NCl)10
_symmetry_space_group_name_H-M   'P 1'
_cell_length_a   6.70666420
_cell_length_b   6.70666420
_cell_length_c   16.91689806
_cell_angle_alpha   76.33202666
_cell_angle_beta   76.33202666
_cell_angle_gamma   73.05832095
_symmetry_Int_Tables_number   1
_chemical_formula_structural   Ir2Os(NCl)10
_chemical_formula_sum   'Ir2 Os1 N10 Cl10'
_cell_volume   695.70614853
_cell_formula_units_Z   1
loop_
 _symmetry_equiv_pos_site_id
 _symmetry_equiv_pos_as_xyz
  1  'x, y, z'
loop_
 _atom_site_type_symbol
 _atom_site_label
 _atom_site_symmetry_multiplicity
 _atom_site_fract_x
 _atom_site_fract_y
 _atom_site_fract_z
 _atom_site_occupancy
  Ir  Ir0  1  0.44469100  0.44469100  0.24631700  1
  Ir  Ir1  1  0.55530900  0.55530900  0.75368300  1
  Os  Os0  1  0.00000000  0.00000000  0.00000000  1
  N  N0  1  0.26360200  0.26360200  0.23683400  1
  N  N1  1  0.73639800  0.73639800  0.76316600  1
  N  N2  1  0.68890700  0.32596900  0.19372300  1
  N  N3  1  0.32596900  0.68890700  0.19372300  1
  N  N4  1  0.31109300  0.67403100  0.80627700  1
  N  N5  1  0.67403100  0.31109300  0.80627700  1
  N  N6  1  0.23350800  0.09403900  0.52844700  1
  N  N7  1  0.09403900  0.23350800  0.52844700  1
  N  N8  1  0.76649200  0.90596100  0.47155300  1
  N  N9  1  0.90596100  0.76649200  0.47155300  1
  Cl  Cl0  1  0.92463500  0.92463500  0.14404100  1
  Cl  Cl1  1  0.07536500  0.07536500  0.85595900  1
  Cl  Cl2  1  0.46120100  0.46120100  0.37731000  1
  Cl  Cl3  1  0.53879900  0.53879900  0.62269000  1
  Cl  Cl4  1  0.20996500  0.20996500  0.00473400  1
  Cl  Cl5  1  0.79003500  0.79003500  0.99526600  1
  Cl  Cl6  1  0.71345600  0.28654400  0.00000000  1
  Cl  Cl7  1  0.28654400  0.71345600  0.00000000  1
  Cl  Cl8  1  0.14690600  0.14690600  0.32691300  1
  Cl  Cl9  1  0.85309400  0.85309400  0.67308700  1
loop_
_geom_bond_atom_site_label_1
_geom_bond_atom_site_label_2
_geom_bond_distance
_geom_bond_site_symmetry_2
Ir0 N2 1.730404 1_555
Ir0 N3 1.730404 1_555
Ir0 N0 2.004884 1_555
Ir1 N4 1.730404 1_555
Ir1 N5 1.730404 1_555
Ir1 N1 2.004884 1_555
N6 N7 1.113526 1_555
N8 N9 1.113526 1_555
Cl0 Os0 2.330958 1_665
Cl1 Os0 2.330958 1_556
Cl2 Ir0 2.274691 1_555
Cl3 Ir1 2.274691 1_555
Cl4 Os0 2.287904 1_555
Cl5 Os0 2.287904 1_666
Cl6 Os0 2.287779 1_655
Cl7 Os0 2.287779 1_565
Cl8 N0 1.666409 1_555
Cl9 N1 1.666409 1_555
