# generated using pymatgen
data_SrCaDyMnO6
_symmetry_space_group_name_H-M   'P 1'
_cell_length_a   5.69487436
_cell_length_b   5.69485727
_cell_length_c   5.69484231
_cell_angle_alpha   60.00037295
_cell_angle_beta   59.99983299
_cell_angle_gamma   59.99976235
_symmetry_Int_Tables_number   1
_chemical_formula_structural   SrCaDyMnO6
_chemical_formula_sum   'Sr1 Ca1 Dy1 Mn1 O6'
_cell_volume   130.59711763
_cell_formula_units_Z   1
loop_
 _symmetry_equiv_pos_site_id
 _symmetry_equiv_pos_as_xyz
  1  'x, y, z'
loop_
 _atom_site_type_symbol
 _atom_site_label
 _atom_site_symmetry_multiplicity
 _atom_site_fract_x
 _atom_site_fract_y
 _atom_site_fract_z
 _atom_site_occupancy
  Sr  Sr0  1  0.24999977  0.25000001  0.25000018  1
  Ca  Ca0  1  0.75000022  0.74999921  0.74999914  1
  Dy  Dy0  1  0.99999925  0.00000087  0.00000055  1
  Mn  Mn0  1  0.49999996  0.50000068  0.50000037  1
  O  O0  1  0.73082309  0.26917666  0.26917728  1
  O  O1  1  0.26917626  0.73082360  0.73082340  1
  O  O2  1  0.73082370  0.26917701  0.73082400  1
  O  O3  1  0.26917637  0.73082291  0.26917589  1
  O  O4  1  0.73082595  0.73082462  0.26917423  1
  O  O5  1  0.26917543  0.26917443  0.73082496  1
loop_
_geom_bond_atom_site_label_1
_geom_bond_atom_site_label_2
_geom_bond_distance
_geom_bond_site_symmetry_2
Ca0 O4 2.851602 1_555
Ca0 O2 2.851602 1_555
Ca0 O3 2.851606 1_655
Ca0 O5 2.851607 1_655
Ca0 O5 2.851608 1_565
Ca0 O3 2.851609 1_556
Ca0 O4 2.851609 1_556
Ca0 O1 2.851620 1_555
Ca0 O1 2.851624 1_655
Ca0 O2 2.851625 1_565
Ca0 O0 2.851625 1_565
Ca0 O0 2.851628 1_556
Dy0 O0 2.167861 1_555
Dy0 O1 2.167869 1_644
Dy0 O4 2.167875 1_545
Dy0 O5 2.167876 1_654
Dy0 O2 2.167880 1_554
Dy0 O3 2.167882 1_645
Mn0 O1 1.858976 1_555
Mn0 O0 1.858981 1_555
Mn0 O2 1.859000 1_555
Mn0 O3 1.859002 1_555
Mn0 O4 1.859014 1_555
Mn0 O5 1.859018 1_555
O0 Sr0 2.851621 1_655
O0 Sr0 2.851624 1_555
O1 Sr0 2.851626 1_565
O1 Sr0 2.851627 1_556
O2 Sr0 2.851607 1_655
O2 Sr0 2.851608 1_556
O3 Sr0 2.851608 1_555
O3 Sr0 2.851619 1_565
O4 Sr0 2.851602 1_655
O4 Sr0 2.851612 1_565
O5 Sr0 2.851605 1_555
O5 Sr0 2.851607 1_556
