# generated using pymatgen
data_CsPr(NbBr3)6
_symmetry_space_group_name_H-M   'P 1'
_cell_length_a   9.92665146
_cell_length_b   9.92665146
_cell_length_c   18.51173538
_cell_angle_alpha   90.00000000
_cell_angle_beta   90.00000000
_cell_angle_gamma   120.00000414
_symmetry_Int_Tables_number   1
_chemical_formula_structural   CsPr(NbBr3)6
_chemical_formula_sum   'Cs2 Pr2 Nb12 Br36'
_cell_volume   1579.73155801
_cell_formula_units_Z   2
loop_
 _symmetry_equiv_pos_site_id
 _symmetry_equiv_pos_as_xyz
  1  'x, y, z'
loop_
 _atom_site_type_symbol
 _atom_site_label
 _atom_site_symmetry_multiplicity
 _atom_site_fract_x
 _atom_site_fract_y
 _atom_site_fract_z
 _atom_site_occupancy
  Cs  Cs0  1  0.33333300  0.66666700  0.75000000  1
  Cs  Cs1  1  0.66666700  0.33333300  0.25000000  1
  Pr  Pr0  1  0.66666700  0.33333300  0.75000000  1
  Pr  Pr1  1  0.33333300  0.66666700  0.25000000  1
  Nb  Nb0  1  0.84816946  0.03465999  0.56492283  1
  Nb  Nb1  1  0.15183054  0.96534001  0.43507717  1
  Nb  Nb2  1  0.96534001  0.81350947  0.56492283  1
  Nb  Nb3  1  0.84816946  0.81350947  0.93507717  1
  Nb  Nb4  1  0.03465999  0.18649053  0.43507717  1
  Nb  Nb5  1  0.15183054  0.18649053  0.06492283  1
  Nb  Nb6  1  0.18649053  0.15183054  0.56492283  1
  Nb  Nb7  1  0.96534001  0.15183054  0.93507717  1
  Nb  Nb8  1  0.81350947  0.84816946  0.43507717  1
  Nb  Nb9  1  0.03465999  0.84816946  0.06492283  1
  Nb  Nb10  1  0.18649053  0.03465999  0.93507717  1
  Nb  Nb11  1  0.81350947  0.96534001  0.06492283  1
  Br  Br0  1  0.63183814  0.07424586  0.65942862  1
  Br  Br1  1  0.36816186  0.92575414  0.34057138  1
  Br  Br2  1  0.92575414  0.55759329  0.65942862  1
  Br  Br3  1  0.63183814  0.55759329  0.84057138  1
  Br  Br4  1  0.07424586  0.44240671  0.34057138  1
  Br  Br5  1  0.36816186  0.44240671  0.15942862  1
  Br  Br6  1  0.44240671  0.36816186  0.65942862  1
  Br  Br7  1  0.92575414  0.36816186  0.84057138  1
  Br  Br8  1  0.55759329  0.63183814  0.34057138  1
  Br  Br9  1  0.07424586  0.63183814  0.15942862  1
  Br  Br10  1  0.44240671  0.07424586  0.84057138  1
  Br  Br11  1  0.55759329  0.92575414  0.15942862  1
  Br  Br12  1  0.04172049  0.22925653  0.65980398  1
  Br  Br13  1  0.95827951  0.77074347  0.34019602  1
  Br  Br14  1  0.77074347  0.81246397  0.65980398  1
  Br  Br15  1  0.04172049  0.81246397  0.84019602  1
  Br  Br16  1  0.22925653  0.18753603  0.34019602  1
  Br  Br17  1  0.95827951  0.18753603  0.15980398  1
  Br  Br18  1  0.18753603  0.95827951  0.65980398  1
  Br  Br19  1  0.77074347  0.95827951  0.84019602  1
  Br  Br20  1  0.81246397  0.04172049  0.34019602  1
  Br  Br21  1  0.22925653  0.04172049  0.15980398  1
  Br  Br22  1  0.18753603  0.22925653  0.84019602  1
  Br  Br23  1  0.81246397  0.77074347  0.15980398  1
  Br  Br24  1  0.27143857  0.41620730  0.50015119  1
  Br  Br25  1  0.72856143  0.58379270  0.49984881  1
  Br  Br26  1  0.58379270  0.85523127  0.50015119  1
  Br  Br27  1  0.27143857  0.85523127  -0.00015119  1
  Br  Br28  1  0.41620730  0.14476873  0.49984881  1
  Br  Br29  1  0.72856143  0.14476873  0.00015119  1
  Br  Br30  1  0.14476873  0.72856143  0.50015119  1
  Br  Br31  1  0.58379270  0.72856143  -0.00015119  1
  Br  Br32  1  0.85523127  0.27143857  0.49984881  1
  Br  Br33  1  0.41620730  0.27143857  0.00015119  1
  Br  Br34  1  0.14476873  0.41620730  -0.00015119  1
  Br  Br35  1  0.85523127  0.58379270  0.00015119  1
loop_
_geom_bond_atom_site_label_1
_geom_bond_atom_site_label_2
_geom_bond_distance
_geom_bond_site_symmetry_2
Br0 Pr0 2.942100 1_555
Br0 Nb0 2.944557 1_555
Br0 Cs0 3.996502 1_545
Br1 Pr1 2.942100 1_555
Br1 Nb1 2.944557 1_555
Br1 Cs1 3.996502 1_565
Br2 Pr0 2.942106 1_555
Br2 Nb2 2.944549 1_555
Br2 Cs0 3.996503 1_655
Br3 Pr0 2.942116 1_555
Br3 Nb3 2.944552 1_555
Br3 Cs0 3.996503 1_555
Br4 Pr1 2.942106 1_555
Br4 Nb4 2.944549 1_555
Br4 Cs1 3.996503 1_455
Br5 Pr1 2.942116 1_555
Br5 Nb5 2.944552 1_555
Br5 Cs1 3.996503 1_555
Br6 Pr0 2.942116 1_555
Br6 Nb6 2.944552 1_555
Br6 Cs0 3.996503 1_555
Br7 Pr0 2.942100 1_555
Br7 Nb7 2.944557 1_555
Br7 Cs0 3.996502 1_655
Br8 Pr1 2.942116 1_555
Br8 Nb8 2.944552 1_555
Br8 Cs1 3.996503 1_555
Br9 Pr1 2.942100 1_555
Br9 Nb9 2.944557 1_555
Br9 Cs1 3.996502 1_455
Br10 Pr0 2.942106 1_555
Br10 Nb10 2.944549 1_555
Br10 Cs0 3.996503 1_545
Br11 Pr1 2.942106 1_555
Br11 Nb11 2.944549 1_555
Br11 Cs1 3.996503 1_565
Br12 Nb0 2.607007 1_455
Br12 Nb6 2.616377 1_555
Br12 Cs0 4.177498 1_555
Br13 Nb1 2.607007 1_655
Br13 Nb8 2.616377 1_555
Br13 Cs1 4.177498 1_555
Br14 Nb2 2.607007 1_555
Br14 Nb0 2.616376 1_565
Br14 Cs0 4.177499 1_555
Br15 Nb3 2.607007 1_455
Br15 Nb10 2.616376 1_565
Br15 Cs0 4.177491 1_555
Br16 Nb4 2.607007 1_555
Br16 Nb1 2.616376 1_545
Br16 Cs1 4.177499 1_555
Br17 Nb5 2.607007 1_655
Br17 Nb11 2.616376 1_545
Br17 Cs1 4.177491 1_555
Br18 Nb6 2.607007 1_565
Br18 Nb2 2.616376 1_455
Br18 Cs0 4.177491 1_555
Br19 Nb7 2.607007 1_565
Br19 Nb3 2.616377 1_555
Br19 Cs0 4.177498 1_555
Br20 Nb8 2.607007 1_545
Br20 Nb4 2.616376 1_655
Br20 Cs1 4.177491 1_555
Br21 Nb9 2.607007 1_545
Br21 Nb5 2.616377 1_555
Br21 Cs1 4.177498 1_555
Br22 Nb10 2.607007 1_555
Br22 Nb7 2.616376 1_455
Br22 Cs0 4.177499 1_555
Br23 Nb11 2.607007 1_555
Br23 Nb9 2.616376 1_655
Br23 Cs1 4.177499 1_555
Br24 Nb4 2.610700 1_555
Br24 Nb6 2.612107 1_555
Br25 Nb2 2.610700 1_555
Br25 Nb8 2.612107 1_555
Br26 Nb8 2.610700 1_555
Br26 Nb0 2.612107 1_565
Br27 Nb9 2.610700 1_555
Br27 Nb10 2.612107 1_564
Br28 Nb6 2.610700 1_555
Br28 Nb1 2.612107 1_545
Br29 Nb7 2.610700 1_554
Br29 Nb11 2.612107 1_545
Br30 Nb1 2.610700 1_555
Br30 Nb2 2.612107 1_455
Br31 Nb11 2.610700 1_555
Br31 Nb3 2.612107 1_554
Br32 Nb0 2.610700 1_555
Br32 Nb4 2.612107 1_655
Br33 Nb10 2.610700 1_554
Br33 Nb5 2.612107 1_555
Br34 Nb5 2.610700 1_555
Br34 Nb7 2.612107 1_454
Br35 Nb3 2.610700 1_554
Br35 Nb9 2.612107 1_655
