# generated using pymatgen
data_Li9Mn2Co5O16
_symmetry_space_group_name_H-M   'P 1'
_cell_length_a   5.90034900
_cell_length_b   6.44838843
_cell_length_c   8.58689040
_cell_angle_alpha   83.10949225
_cell_angle_beta   109.27688438
_cell_angle_gamma   113.79551529
_symmetry_Int_Tables_number   1
_chemical_formula_structural   Li9Mn2Co5O16
_chemical_formula_sum   'Li9 Mn2 Co5 O16'
_cell_volume   282.14511874
_cell_formula_units_Z   1
loop_
 _symmetry_equiv_pos_site_id
 _symmetry_equiv_pos_as_xyz
  1  'x, y, z'
loop_
 _atom_site_type_symbol
 _atom_site_label
 _atom_site_symmetry_multiplicity
 _atom_site_fract_x
 _atom_site_fract_y
 _atom_site_fract_z
 _atom_site_occupancy
  Li  Li0  1  0.74272400  0.74767100  0.24830900  1
  Li  Li1  1  0.26414300  0.00511700  0.49589800  1
  Li  Li2  1  0.25945400  0.75417600  0.25185900  1
  Li  Li3  1  0.73361900  0.00531200  0.49017000  1
  Li  Li4  1  0.74739800  0.25071400  0.74898900  1
  Li  Li5  1  0.25098100  0.24905800  0.75082000  1
  Li  Li6  1  0.25201600  0.49605000  0.00972300  1
  Li  Li7  1  0.75322700  0.49675900  0.00443300  1
  Li  Li8  1  0.50053600  0.24851100  0.25159300  1
  Mn  Mn0  1  0.00803200  0.00503900  0.00074800  1
  Mn  Mn1  1  0.49751300  0.49601200  0.49596100  1
  Co  Co0  1  0.99105300  0.49297600  0.49788300  1
  Co  Co1  1  0.50138100  0.75164300  0.74981700  1
  Co  Co2  1  0.50301600  0.00265700  0.00373600  1
  Co  Co3  1  0.00116700  0.24933700  0.24929700  1
  Co  Co4  1  0.99632600  0.74843300  0.74986300  1
  O  O0  1  0.10498500  0.01053400  0.23637700  1
  O  O1  1  0.61983300  0.26416900  0.50332500  1
  O  O2  1  0.62153000  0.00591900  0.23190400  1
  O  O3  1  0.14669300  0.27569400  0.49298700  1
  O  O4  1  0.10991900  0.51595000  0.73512100  1
  O  O5  1  0.60736800  0.51181400  0.74052400  1
  O  O6  1  0.64582400  0.77856000  0.98864000  1
  O  O7  1  0.10896600  0.75782000  0.98893900  1
  O  O8  1  0.38565600  0.50138300  0.26562900  1
  O  O9  1  0.85252000  0.72082200  0.50950700  1
  O  O10  1  0.89693500  0.48537600  0.26683900  1
  O  O11  1  0.38523700  0.74078400  0.51292900  1
  O  O12  1  0.38480000  0.98315900  0.76439500  1
  O  O13  1  0.88975000  0.98847900  0.75916700  1
  O  O14  1  0.89051000  0.24281200  0.00599600  1
  O  O15  1  0.34688400  0.21726000  0.99862200  1
loop_
_geom_bond_atom_site_label_1
_geom_bond_atom_site_label_2
_geom_bond_distance
_geom_bond_site_symmetry_2
Li0 O2 2.035312 1_565
Li0 O8 2.105534 1_555
Li0 O6 2.117059 1_554
Li0 O9 2.125588 1_555
Li0 O0 2.152141 1_665
Li0 O10 2.189911 1_555
Li1 O11 2.071532 1_545
Li1 O1 2.075390 1_555
Li1 O0 2.115478 1_555
Li1 O3 2.116352 1_555
Li1 O12 2.182139 1_545
Li1 O9 2.411686 1_445
Li2 O8 2.025051 1_555
Li2 O11 2.119098 1_555
Li2 O7 2.136944 1_554
Li2 O2 2.145950 1_565
Li2 O0 2.159665 1_565
Li2 O10 2.175454 1_455
Li3 O1 2.061410 1_555
Li3 O2 2.094566 1_555
Li3 O11 2.128162 1_545
Li3 O9 2.184879 1_545
Li3 O13 2.193488 1_545
Li3 O3 2.350087 1_655
Li4 O1 1.996104 1_555
Li4 O14 2.088854 1_556
Li4 O5 2.139209 1_555
Li4 O13 2.152849 1_545
Li4 O4 2.163778 1_655
Li4 O12 2.173690 1_545
Li5 O15 2.020870 1_555
Li5 O3 2.098665 1_555
Li5 O5 2.124190 1_555
Li5 O13 2.133865 1_445
Li5 O12 2.135576 1_545
Li5 O4 2.167715 1_555
Li6 O8 2.074576 1_555
Li6 O14 2.091439 1_455
Li6 O15 2.107766 1_554
Li6 O7 2.138115 1_554
Li6 O4 2.233463 1_554
Li6 O6 2.352327 1_554
Li7 O14 2.096615 1_555
Li7 O6 2.129658 1_554
Li7 O7 2.129944 1_654
Li7 O10 2.133201 1_555
Li7 O5 2.147667 1_554
Li7 O15 2.335549 1_554
Li8 O2 2.007413 1_555
Li8 O8 2.031231 1_555
Li8 O1 2.041704 1_555
Li8 O15 2.058749 1_554
Li8 O0 2.185334 1_555
Li8 O10 2.187134 1_555
Mn0 O0 1.912837 1_555
Mn0 O15 1.918515 1_554
Mn0 O14 1.931030 1_455
Mn0 O7 1.936774 1_544
Mn0 O13 1.959296 1_444
Mn0 O6 2.020444 1_444
Mn1 O8 1.867819 1_555
Mn1 O1 1.891517 1_555
Mn1 O3 1.975983 1_555
Mn1 O11 1.978401 1_555
Mn1 O9 1.982907 1_555
Mn1 O5 1.984934 1_555
Co0 O10 1.876371 1_555
Co0 O4 1.925871 1_655
Co0 O3 1.971332 1_655
Co0 O9 1.973554 1_555
Co0 O1 2.102348 1_555
Co0 O11 2.198108 1_655
Co1 O5 1.905812 1_555
Co1 O12 1.909965 1_555
Co1 O11 1.920229 1_555
Co1 O6 1.942700 1_555
Co1 O13 2.161893 1_555
Co1 O4 2.163711 1_555
Co2 O2 1.849735 1_555
Co2 O15 1.937282 1_554
Co2 O12 1.941876 1_544
Co2 O6 1.978548 1_544
Co2 O14 2.178705 1_555
Co2 O7 2.192146 1_544
Co3 O10 1.894510 1_455
Co3 O0 1.898910 1_555
Co3 O14 1.972586 1_455
Co3 O3 1.981444 1_555
Co3 O2 2.121745 1_455
Co3 O8 2.162671 1_555
Co4 O4 1.903950 1_655
Co4 O13 1.909490 1_555
Co4 O7 1.938128 1_655
Co4 O9 1.954832 1_555
Co4 O12 2.148790 1_655
Co4 O5 2.164172 1_555
