# generated using pymatgen
data_SrCa7Ti3Mn5O23
_symmetry_space_group_name_H-M   'P 1'
_cell_length_a   7.73277880
_cell_length_b   7.70648634
_cell_length_c   7.74044384
_cell_angle_alpha   89.97353526
_cell_angle_beta   90.04674299
_cell_angle_gamma   89.97796995
_symmetry_Int_Tables_number   1
_chemical_formula_structural   SrCa7Ti3Mn5O23
_chemical_formula_sum   'Sr1 Ca7 Ti3 Mn5 O23'
_cell_volume   461.27258244
_cell_formula_units_Z   1
loop_
 _symmetry_equiv_pos_site_id
 _symmetry_equiv_pos_as_xyz
  1  'x, y, z'
loop_
 _atom_site_type_symbol
 _atom_site_label
 _atom_site_symmetry_multiplicity
 _atom_site_fract_x
 _atom_site_fract_y
 _atom_site_fract_z
 _atom_site_occupancy
  Sr  Sr0  1  0.25713500  0.25962100  0.25035200  1
  Ca  Ca0  1  0.26882200  0.27863100  0.74655500  1
  Ca  Ca1  1  0.26349400  0.73104600  0.25223900  1
  Ca  Ca2  1  0.26797300  0.72361600  0.74608900  1
  Ca  Ca3  1  0.73887300  0.27159000  0.25226900  1
  Ca  Ca4  1  0.73297400  0.27765600  0.74599600  1
  Ca  Ca5  1  0.73929300  0.73050000  0.25241900  1
  Ca  Ca6  1  0.73253300  0.72225100  0.74577400  1
  Ti  Ti0  1  0.99974600  0.99868400  0.98578000  1
  Ti  Ti1  1  0.99860300  0.99891400  0.51426300  1
  Ti  Ti2  1  0.50320000  0.99851800  0.00449500  1
  Mn  Mn0  1  0.99930300  0.50111400  0.00321300  1
  Mn  Mn1  1  0.99946400  0.50104100  0.49544800  1
  Mn  Mn2  1  0.50124700  0.99932500  0.49627900  1
  Mn  Mn3  1  0.50068000  0.50043100  0.00000000  1
  Mn  Mn4  1  0.50042000  0.50050300  0.49828400  1
  O  O0  1  0.99734400  0.99734300  0.74941700  1
  O  O1  1  0.99564200  0.50078600  0.24969400  1
  O  O2  1  0.99764500  0.50179000  0.74895700  1
  O  O3  1  0.49891400  0.99855000  0.25268400  1
  O  O4  1  0.50213100  0.99843300  0.74985500  1
  O  O5  1  0.50375100  0.50389200  0.24889500  1
  O  O6  1  0.50144400  0.50113100  0.74986000  1
  O  O7  1  0.24213800  0.99774100  0.02798700  1
  O  O8  1  0.24485500  0.99766000  0.48066800  1
  O  O9  1  0.25051400  0.50404400  0.99168300  1
  O  O10  1  0.24975000  0.50390000  0.50775200  1
  O  O11  1  0.75721500  0.99943900  0.03253600  1
  O  O12  1  0.75473700  0.99901700  0.47613100  1
  O  O13  1  0.74936900  0.50100200  0.99485800  1
  O  O14  1  0.75015100  0.50118700  0.50455400  1
  O  O15  1  0.99759700  0.24542000  0.01778500  1
  O  O16  1  0.99737200  0.24479500  0.47969500  1
  O  O17  1  0.99864100  0.75466700  0.02151600  1
  O  O18  1  0.99896200  0.75536300  0.47523900  1
  O  O19  1  0.50191200  0.25180700  0.99363900  1
  O  O20  1  0.50361000  0.24975800  0.50740500  1
  O  O21  1  0.50117000  0.74845100  0.99558400  1
  O  O22  1  0.50137700  0.75038300  0.50415200  1
loop_
_geom_bond_atom_site_label_1
_geom_bond_atom_site_label_2
_geom_bond_distance
_geom_bond_site_symmetry_2
Ca0 O6 2.485739 1_555
Ca0 O10 2.539427 1_555
Ca0 O9 2.577038 1_555
Ca0 O20 2.603461 1_555
Ca0 O19 2.634963 1_555
Ca0 O2 2.711547 1_455
Ca0 O4 2.813390 1_545
Ca0 O16 2.955447 1_455
Ca0 O15 2.979769 1_456
Ca0 O8 2.993723 1_545
Ca0 O0 3.018294 1_445
Ca0 O7 3.077431 1_546
Ca1 O5 2.552326 1_555
Ca1 O10 2.642812 1_555
Ca1 O9 2.672275 1_554
Ca1 O22 2.683796 1_555
Ca1 O18 2.684160 1_455
Ca1 O7 2.694525 1_555
Ca1 O21 2.710798 1_554
Ca1 O8 2.715191 1_555
Ca1 O17 2.722227 1_455
Ca1 O1 2.728012 1_455
Ca1 O3 2.750779 1_555
Ca2 O6 2.489480 1_555
Ca2 O10 2.508579 1_555
Ca2 O9 2.548132 1_555
Ca2 O22 2.610081 1_555
Ca2 O21 2.648178 1_555
Ca2 O2 2.700997 1_455
Ca2 O4 2.787071 1_555
Ca2 O8 2.950953 1_555
Ca2 O18 2.962166 1_455
Ca2 O0 2.970983 1_455
Ca2 O17 2.991201 1_456
Ca2 O7 3.044434 1_556
Ca3 O5 2.551205 1_555
Ca3 O14 2.637193 1_555
Ca3 O1 2.658061 1_555
Ca3 O13 2.664461 1_554
Ca3 O16 2.670363 1_555
Ca3 O20 2.691434 1_555
Ca3 O11 2.704660 1_545
Ca3 O15 2.709891 1_555
Ca3 O19 2.717162 1_554
Ca3 O12 2.725095 1_545
Ca3 O3 2.806003 1_545
Ca4 O6 2.483965 1_555
Ca4 O14 2.544681 1_555
Ca4 O20 2.568646 1_555
Ca4 O13 2.586913 1_555
Ca4 O19 2.629078 1_555
Ca4 O2 2.678706 1_555
Ca4 O4 2.796546 1_545
Ca4 O16 2.915495 1_555
Ca4 O15 2.943957 1_556
Ca4 O0 2.973714 1_545
Ca4 O12 3.001196 1_545
Ca4 O11 3.089677 1_546
Ca5 O5 2.523960 1_555
Ca5 O14 2.633506 1_555
Ca5 O18 2.652971 1_555
Ca5 O1 2.657300 1_555
Ca5 O13 2.666850 1_554
Ca5 O11 2.684939 1_555
Ca5 O22 2.685298 1_555
Ca5 O17 2.693859 1_555
Ca5 O12 2.701493 1_555
Ca5 O21 2.712103 1_554
Ca5 O3 2.778382 1_555
Ca6 O6 2.469904 1_555
Ca6 O14 2.531863 1_555
Ca6 O13 2.576393 1_555
Ca6 O22 2.594963 1_555
Ca6 O21 2.643154 1_555
Ca6 O2 2.662152 1_555
Ca6 O4 2.775349 1_555
Ca6 O0 2.948159 1_555
Ca6 O18 2.949870 1_555
Ca6 O17 2.974222 1_556
Ca6 O12 2.988593 1_555
Ca6 O11 3.087145 1_556
Mn0 O1 1.908106 1_555
Mn0 O13 1.933714 1_554
Mn0 O9 1.944820 1_654
Mn0 O17 1.959202 1_555
Mn0 O2 1.968090 1_554
Mn0 O15 1.973726 1_555
Mn1 O1 1.902452 1_555
Mn1 O14 1.929228 1_555
Mn1 O10 1.937805 1_655
Mn1 O2 1.962345 1_555
Mn1 O18 1.966092 1_555
Mn1 O16 1.978645 1_555
Mn2 O3 1.885617 1_555
Mn2 O22 1.919407 1_555
Mn2 O20 1.932012 1_565
Mn2 O4 1.962806 1_555
Mn2 O12 1.966504 1_555
Mn2 O8 1.986250 1_555
Mn3 O21 1.911658 1_554
Mn3 O19 1.916693 1_554
Mn3 O13 1.923508 1_554
Mn3 O5 1.926882 1_555
Mn3 O9 1.935686 1_554
Mn3 O6 1.936213 1_554
Mn4 O22 1.926270 1_555
Mn4 O5 1.930739 1_555
Mn4 O14 1.931694 1_555
Mn4 O20 1.933767 1_555
Mn4 O10 1.939987 1_555
Mn4 O6 1.947328 1_555
O0 Ti1 1.820265 1_555
O0 Ti0 1.829668 1_555
O1 Sr0 2.745910 1_655
O3 Ti2 1.921406 1_555
O3 Sr0 2.746041 1_565
O4 Ti2 1.971038 1_556
O5 Sr0 2.680178 1_555
O7 Ti0 1.902371 1_454
O7 Ti2 2.027066 1_555
O7 Sr0 2.655576 1_565
O8 Ti1 1.922117 1_455
O8 Sr0 2.694412 1_565
O9 Sr0 2.748793 1_556
O10 Sr0 2.742331 1_555
O11 Ti0 1.910336 1_554
O11 Ti2 1.976037 1_555
O12 Ti1 1.908483 1_555
O15 Ti0 1.917719 1_544
O15 Sr0 2.697202 1_655
O16 Ti1 1.913574 1_545
O16 Sr0 2.684230 1_655
O17 Ti0 1.900646 1_554
O18 Ti1 1.901212 1_555
O19 Ti2 1.953759 1_546
O19 Sr0 2.746081 1_556
O20 Sr0 2.755151 1_555
O21 Ti2 1.928473 1_556
