# generated using pymatgen
data_Y2ClO4
_symmetry_space_group_name_H-M   'P 1'
_cell_length_a   6.16487600
_cell_length_b   14.44084000
_cell_length_c   15.61796200
_cell_angle_alpha   90.00000000
_cell_angle_beta   90.00000000
_cell_angle_gamma   90.00000000
_symmetry_Int_Tables_number   1
_chemical_formula_structural   Y2ClO4
_chemical_formula_sum   'Y8 Cl4 O16'
_cell_volume   1390.40449659
_cell_formula_units_Z   4
loop_
 _symmetry_equiv_pos_site_id
 _symmetry_equiv_pos_as_xyz
  1  'x, y, z'
loop_
 _atom_site_type_symbol
 _atom_site_label
 _atom_site_symmetry_multiplicity
 _atom_site_fract_x
 _atom_site_fract_y
 _atom_site_fract_z
 _atom_site_occupancy
  Y  Y0  1  0.50000000  0.85732000  0.04001000  1
  Y  Y1  1  0.50000000  0.85732000  0.45999000  1
  Y  Y2  1  0.50000000  0.14268000  0.54001000  1
  Y  Y3  1  0.50000000  0.14268000  0.95999000  1
  Y  Y4  1  0.50000000  0.36124400  0.55554700  1
  Y  Y5  1  0.50000000  0.36124400  0.94445300  1
  Y  Y6  1  0.50000000  0.63875600  0.05554700  1
  Y  Y7  1  0.50000000  0.63875600  0.44445300  1
  Cl  Cl0  1  0.50000000  0.96838800  0.60776700  1
  Cl  Cl1  1  0.50000000  0.96838800  0.89223300  1
  Cl  Cl2  1  0.50000000  0.03161200  0.10776700  1
  Cl  Cl3  1  0.50000000  0.03161200  0.39223300  1
  O  O0  1  0.50000000  0.54825000  0.20986500  1
  O  O1  1  0.50000000  0.54825000  0.29013500  1
  O  O2  1  0.50000000  0.45175000  0.70986500  1
  O  O3  1  0.50000000  0.45175000  0.79013500  1
  O  O4  1  0.50000000  0.25929400  0.46335000  1
  O  O5  1  0.50000000  0.25929400  0.03665000  1
  O  O6  1  0.50000000  0.74070600  0.96335000  1
  O  O7  1  0.50000000  0.74070600  0.53665000  1
  O  O8  1  0.50000000  0.51928800  0.54469800  1
  O  O9  1  0.50000000  0.51928800  0.95530200  1
  O  O10  1  0.50000000  0.48071200  0.04469800  1
  O  O11  1  0.50000000  0.48071200  0.45530200  1
  O  O12  1  0.50000000  0.75768800  0.13390600  1
  O  O13  1  0.50000000  0.75768800  0.36609400  1
  O  O14  1  0.50000000  0.24231200  0.63390600  1
  O  O15  1  0.50000000  0.24231200  0.86609400  1
loop_
_geom_bond_atom_site_label_1
_geom_bond_atom_site_label_2
_geom_bond_distance
_geom_bond_site_symmetry_2
Cl0 Y2 2.730338 1_565
Cl0 Y1 2.810568 1_555
Cl1 Y3 2.730338 1_565
Cl1 Y0 2.810568 1_556
Cl2 Y0 2.730338 1_545
Cl2 Y3 2.810568 1_554
Cl3 Y1 2.730338 1_545
Cl3 Y2 2.810568 1_555
O0 O1 1.253654 1_555
O0 Y6 2.741704 1_555
O1 Y7 2.741704 1_555
O2 O3 1.253654 1_555
O2 Y4 2.741704 1_555
O3 Y5 2.741704 1_555
O4 Y4 2.059344 1_555
O4 Y2 2.066236 1_555
O5 Y5 2.059344 1_554
O5 Y3 2.066236 1_554
O6 Y6 2.059344 1_556
O6 Y0 2.066236 1_556
O7 Y7 2.059344 1_555
O7 Y1 2.066236 1_555
O8 Y4 2.288569 1_555
O8 Y7 2.329711 1_555
O9 Y5 2.288569 1_555
O9 Y6 2.329711 1_556
O10 O9 1.503215 1_554
O10 Y6 2.288569 1_555
O10 Y5 2.329711 1_554
O11 O8 1.503215 1_555
O11 Y7 2.288569 1_555
O11 Y4 2.329711 1_555
O12 Y0 2.054404 1_555
O12 Y6 2.108895 1_555
O13 Y1 2.054404 1_555
O13 Y7 2.108895 1_555
O14 Y2 2.054404 1_555
O14 Y4 2.108895 1_555
O15 Y3 2.054404 1_555
O15 Y5 2.108895 1_555
