# generated using pymatgen
data_Ce2(WO4)3
_symmetry_space_group_name_H-M   'P 1'
_cell_length_a   7.14006206
_cell_length_b   7.14006206
_cell_length_c   11.74061780
_cell_angle_alpha   79.08741195
_cell_angle_beta   79.08741195
_cell_angle_gamma   111.94770476
_symmetry_Int_Tables_number   1
_chemical_formula_structural   Ce2(WO4)3
_chemical_formula_sum   'Ce4 W6 O24'
_cell_volume   522.42696884
_cell_formula_units_Z   2
loop_
 _symmetry_equiv_pos_site_id
 _symmetry_equiv_pos_as_xyz
  1  'x, y, z'
loop_
 _atom_site_type_symbol
 _atom_site_label
 _atom_site_symmetry_multiplicity
 _atom_site_fract_x
 _atom_site_fract_y
 _atom_site_fract_z
 _atom_site_occupancy
  Ce  Ce0  1  0.28790000  0.04255100  0.40512700  1
  Ce  Ce1  1  0.95744900  0.71210000  0.09487300  1
  Ce  Ce2  1  0.71210000  0.95744900  0.59487300  1
  Ce  Ce3  1  0.04255100  0.28790000  0.90512700  1
  W  W0  1  0.13435800  0.86564200  0.75000000  1
  W  W1  1  0.86564200  0.13435800  0.25000000  1
  W  W2  1  0.45962100  0.25274500  0.04647700  1
  W  W3  1  0.74725500  0.54037900  0.45352300  1
  W  W4  1  0.54037900  0.74725500  0.95352300  1
  W  W5  1  0.25274500  0.45962100  0.54647700  1
  O  O0  1  0.52812500  0.60362900  0.57096400  1
  O  O1  1  0.39637100  0.47187500  0.92903600  1
  O  O2  1  0.47187500  0.39637100  0.42903600  1
  O  O3  1  0.60362900  0.52812500  0.07096400  1
  O  O4  1  0.65971900  0.23117500  0.94036100  1
  O  O5  1  0.76882500  0.34028100  0.55963900  1
  O  O6  1  0.34028100  0.76882500  0.05963900  1
  O  O7  1  0.23117500  0.65971900  0.44036100  1
  O  O8  1  0.11076800  0.45456400  0.69560500  1
  O  O9  1  0.54543600  0.88923200  0.80439500  1
  O  O10  1  0.66227700  0.08192100  0.39060900  1
  O  O11  1  0.91807900  0.33772300  0.10939100  1
  O  O12  1  0.33772300  0.91807900  0.60939100  1
  O  O13  1  0.08192100  0.66227700  0.89060900  1
  O  O14  1  0.11621700  0.20690300  0.28112600  1
  O  O15  1  0.79309700  0.88378300  0.21887400  1
  O  O16  1  0.88378300  0.79309700  0.71887400  1
  O  O17  1  0.20690300  0.11621700  0.78112600  1
  O  O18  1  0.91564400  0.81146500  0.46037000  1
  O  O19  1  0.18853500  0.08435600  0.03963000  1
  O  O20  1  0.08435600  0.18853500  0.53963000  1
  O  O21  1  0.81146500  0.91564400  0.96037000  1
  O  O22  1  0.45456400  0.11076800  0.19560500  1
  O  O23  1  0.88923200  0.54543600  0.30439500  1
loop_
_geom_bond_atom_site_label_1
_geom_bond_atom_site_label_2
_geom_bond_distance
_geom_bond_site_symmetry_2
Ce0 O22 2.389405 1_555
Ce0 O18 2.423121 1_445
Ce0 O14 2.470498 1_555
Ce0 O2 2.472639 1_555
Ce0 O12 2.533785 1_545
Ce0 O7 2.547104 1_545
Ce0 O10 2.549717 1_555
Ce0 O20 2.564946 1_555
Ce1 O23 2.389405 1_555
Ce1 O19 2.423121 1_665
Ce1 O15 2.470498 1_555
Ce1 O3 2.472639 1_555
Ce1 O13 2.533785 1_654
Ce1 O6 2.547104 1_655
Ce1 O11 2.549717 1_555
Ce1 O21 2.564946 1_554
Ce2 O9 2.389405 1_555
Ce2 O20 2.423121 1_665
Ce2 O16 2.470498 1_555
Ce2 O0 2.472639 1_555
Ce2 O10 2.533785 1_565
Ce2 O5 2.547104 1_565
Ce2 O12 2.549717 1_555
Ce2 O18 2.564946 1_555
Ce3 O8 2.389405 1_555
Ce3 O21 2.423121 1_445
Ce3 O17 2.470498 1_555
Ce3 O1 2.472639 1_555
Ce3 O11 2.533785 1_456
Ce3 O4 2.547104 1_455
Ce3 O13 2.549717 1_555
Ce3 O19 2.564946 1_556
O0 W5 1.954643 1_555
O0 W3 2.121378 1_555
O1 W4 1.954643 1_555
O1 W2 2.121378 1_556
O2 W3 1.954643 1_555
O2 W5 2.121378 1_555
O3 W2 1.954643 1_555
O3 W4 2.121378 1_554
O4 W2 1.783343 1_556
O5 W3 1.783343 1_555
O6 W4 1.783343 1_554
O7 W5 1.783343 1_555
O8 W5 1.836063 1_555
O9 W4 1.836063 1_555
O10 W1 1.850908 1_555
O11 W1 1.850908 1_555
O12 W0 1.850908 1_555
O13 W0 1.850908 1_555
O14 W1 1.797018 1_455
O15 W1 1.797018 1_565
O16 W0 1.797018 1_655
O17 W0 1.797018 1_545
O18 W3 1.885299 1_555
O19 W2 1.885299 1_555
O20 W5 1.885299 1_555
O21 W4 1.885299 1_555
O22 W2 1.836063 1_555
O23 W3 1.836063 1_555
