# generated using pymatgen
data_La6Cr(GeS7)2
_symmetry_space_group_name_H-M   'P 1'
_cell_length_a   10.34772189
_cell_length_b   10.34772189
_cell_length_c   5.87430300
_cell_angle_alpha   90.00000000
_cell_angle_beta   90.00000000
_cell_angle_gamma   119.99999932
_symmetry_Int_Tables_number   1
_chemical_formula_structural   La6Cr(GeS7)2
_chemical_formula_sum   'La6 Cr1 Ge2 S14'
_cell_volume   544.72395537
_cell_formula_units_Z   1
loop_
 _symmetry_equiv_pos_site_id
 _symmetry_equiv_pos_as_xyz
  1  'x, y, z'
loop_
 _atom_site_type_symbol
 _atom_site_label
 _atom_site_symmetry_multiplicity
 _atom_site_fract_x
 _atom_site_fract_y
 _atom_site_fract_z
 _atom_site_occupancy
  La  La0  1  0.10349000  0.79325400  0.75268500  1
  La  La1  1  0.68976400  0.89651000  0.75268500  1
  La  La2  1  0.20674600  0.31023600  0.75268500  1
  La  La3  1  0.56155700  0.53930700  0.25120500  1
  La  La4  1  0.97775000  0.43844300  0.25120500  1
  La  La5  1  0.46069300  0.02225000  0.25120500  1
  Cr  Cr0  1  0.33333300  0.66666700  0.52105300  1
  Ge  Ge0  1  0.00000000  0.00000000  0.16794000  1
  Ge  Ge1  1  0.66666700  0.33333300  0.66296100  1
  S  S0  1  0.18129300  0.75323300  0.29010400  1
  S  S1  1  0.57194000  0.81870700  0.29010400  1
  S  S2  1  0.24676700  0.42806000  0.29010400  1
  S  S3  1  0.48751600  0.58190300  0.75499200  1
  S  S4  1  0.09438700  0.51248400  0.75499200  1
  S  S5  1  0.41809700  0.90561300  0.75499200  1
  S  S6  1  0.00000000  0.00000000  0.54214100  1
  S  S7  1  0.66666700  0.33333300  0.03770300  1
  S  S8  1  0.22694300  0.07968000  0.01849700  1
  S  S9  1  0.85273600  0.77305700  0.01849700  1
  S  S10  1  0.92032000  0.14726400  0.01849700  1
  S  S11  1  0.43914500  0.25189400  0.51436600  1
  S  S12  1  0.81275000  0.56085500  0.51436600  1
  S  S13  1  0.74810600  0.18725000  0.51436600  1
loop_
_geom_bond_atom_site_label_1
_geom_bond_atom_site_label_2
_geom_bond_distance
_geom_bond_site_symmetry_2
La0 S5 2.857450 1_555
La0 S4 2.859428 1_555
La0 S0 2.921816 1_555
La0 S9 2.944859 1_456
La0 S8 3.011362 1_566
La0 S6 3.089383 1_565
La0 S12 3.091790 1_455
La0 S0 3.334588 1_556
La1 S3 2.857450 1_555
La1 S5 2.859428 1_555
La1 S1 2.921816 1_555
La1 S10 2.944855 1_566
La1 S9 3.011354 1_556
La1 S6 3.089383 1_665
La1 S13 3.091787 1_565
La1 S1 3.334588 1_556
La2 S4 2.857450 1_555
La2 S3 2.859428 1_555
La2 S2 2.921816 1_555
La2 S8 2.944850 1_556
La2 S10 3.011361 1_456
La2 S6 3.089383 1_555
La2 S11 3.091796 1_555
La2 S2 3.334588 1_556
La3 S1 2.848140 1_555
La3 S2 2.870198 1_555
La3 S12 2.935328 1_555
La3 S11 3.011999 1_555
La3 S9 3.083781 1_555
La3 S3 3.100911 1_554
La3 S7 3.101099 1_555
La3 S3 3.142771 1_555
La4 S2 2.848140 1_655
La4 S0 2.870198 1_655
La4 S13 2.935324 1_555
La4 S12 3.011991 1_555
La4 S10 3.083778 1_555
La4 S4 3.100911 1_654
La4 S7 3.101090 1_555
La4 S4 3.142771 1_655
La5 S0 2.848140 1_545
La5 S1 2.870198 1_545
La5 S11 2.935319 1_555
La5 S13 3.011999 1_555
La5 S8 3.083787 1_555
La5 S5 3.100911 1_544
La5 S7 3.101091 1_555
La5 S5 3.142771 1_545
Cr0 S0 2.554872 1_555
Cr0 S1 2.554878 1_555
Cr0 S2 2.554880 1_555
Cr0 S5 2.569555 1_555
Cr0 S4 2.569557 1_555
Cr0 S3 2.569564 1_555
Ge0 S6 2.198170 1_555
Ge0 S8 2.242535 1_555
Ge0 S9 2.242537 1_445
Ge0 S10 2.242544 1_455
Ge1 S7 2.201348 1_556
Ge1 S13 2.242983 1_555
Ge1 S11 2.242983 1_555
Ge1 S12 2.242983 1_555
