# generated using pymatgen
data_Sm2Al4Fe13
_symmetry_space_group_name_H-M   'P 1'
_cell_length_a   6.49796801
_cell_length_b   6.49796801
_cell_length_c   6.49796878
_cell_angle_alpha   82.27958226
_cell_angle_beta   82.27958226
_cell_angle_gamma   82.27958396
_symmetry_Int_Tables_number   1
_chemical_formula_structural   Sm2Al4Fe13
_chemical_formula_sum   'Sm2 Al4 Fe13'
_cell_volume   267.52000566
_cell_formula_units_Z   1
loop_
 _symmetry_equiv_pos_site_id
 _symmetry_equiv_pos_as_xyz
  1  'x, y, z'
loop_
 _atom_site_type_symbol
 _atom_site_label
 _atom_site_symmetry_multiplicity
 _atom_site_fract_x
 _atom_site_fract_y
 _atom_site_fract_z
 _atom_site_occupancy
  Sm  Sm0  1  0.65383700  0.65383700  0.65383700  1
  Sm  Sm1  1  0.34462500  0.34462500  0.34462500  1
  Al  Al0  1  0.09056800  0.09056800  0.09056800  1
  Al  Al1  1  0.99582600  0.99582600  0.51170100  1
  Al  Al2  1  0.51170100  0.99582600  0.99582600  1
  Al  Al3  1  0.99582600  0.51170100  0.99582600  1
  Fe  Fe0  1  0.71147400  0.29185600  0.00190600  1
  Fe  Fe1  1  0.00190600  0.71147400  0.29185600  1
  Fe  Fe2  1  0.29185600  0.00190600  0.71147400  1
  Fe  Fe3  1  0.00190600  0.29185600  0.71147400  1
  Fe  Fe4  1  0.71147400  0.00190600  0.29185600  1
  Fe  Fe5  1  0.29185600  0.71147400  0.00190600  1
  Fe  Fe6  1  0.33791500  0.33791500  0.84021300  1
  Fe  Fe7  1  0.84021300  0.33791500  0.33791500  1
  Fe  Fe8  1  0.33791500  0.84021300  0.33791500  1
  Fe  Fe9  1  0.65711700  0.65711700  0.16562800  1
  Fe  Fe10  1  0.16562800  0.65711700  0.65711700  1
  Fe  Fe11  1  0.65711700  0.16562800  0.65711700  1
  Fe  Fe12  1  0.90124100  0.90124100  0.90124100  1
loop_
_geom_bond_atom_site_label_1
_geom_bond_atom_site_label_2
_geom_bond_distance
_geom_bond_site_symmetry_2
Al0 Fe12 2.400085 1_444
Al0 Fe6 2.664967 1_554
Al0 Fe8 2.664967 1_545
Al0 Fe7 2.664967 1_455
Al0 Fe1 2.724684 1_545
Al0 Fe4 2.724684 1_455
Al0 Fe5 2.724684 1_545
Al0 Fe0 2.724684 1_455
Al0 Fe2 2.724684 1_554
Al0 Fe3 2.724684 1_554
Al0 Al3 2.728193 1_454
Al0 Al2 2.728193 1_544
Al0 Al1 2.728193 1_445
Al0 Sm1 3.220662 1_555
Al1 Fe10 2.454224 1_655
Al1 Fe11 2.454224 1_565
Al1 Fe2 2.468195 1_665
Al1 Fe3 2.468195 1_665
Al1 Fe4 2.476035 1_565
Al1 Fe1 2.476035 1_655
Al1 Fe7 2.503465 1_565
Al1 Fe8 2.503465 1_655
Al1 Fe12 2.535366 1_555
Al1 Sm0 3.309622 1_555
Al1 Sm1 3.392714 1_665
Al2 Fe9 2.454224 1_556
Al2 Fe11 2.454224 1_565
Al2 Fe0 2.468195 1_566
Al2 Fe4 2.468195 1_566
Al2 Fe5 2.476035 1_556
Al2 Fe2 2.476035 1_565
Al2 Fe6 2.503465 1_565
Al2 Fe8 2.503465 1_556
Al2 Fe12 2.535365 1_555
Al2 Sm0 3.309622 1_555
Al2 Sm1 3.392714 1_566
Al3 Fe9 2.454224 1_556
Al3 Fe10 2.454224 1_655
Al3 Fe5 2.468195 1_656
Al3 Fe1 2.468195 1_656
Al3 Fe0 2.476035 1_556
Al3 Fe3 2.476035 1_655
Al3 Fe6 2.503465 1_655
Al3 Fe7 2.503465 1_556
Al3 Fe12 2.535365 1_555
Al3 Sm0 3.309622 1_555
Al3 Sm1 3.392714 1_656
Fe0 Fe4 2.479074 1_555
Fe0 Fe3 2.483195 1_654
Fe0 Fe7 2.508004 1_555
Fe0 Fe11 2.569288 1_554
Fe0 Fe9 2.691108 1_555
Fe0 Fe6 2.737005 1_554
Fe0 Fe12 2.789144 1_544
Fe0 Sm1 3.052642 1_555
Fe0 Sm0 3.057754 1_554
Fe1 Fe5 2.479074 1_555
Fe1 Fe4 2.483195 1_465
Fe1 Fe8 2.508004 1_555
Fe1 Fe9 2.569288 1_455
Fe1 Fe10 2.691108 1_555
Fe1 Fe7 2.737005 1_455
Fe1 Fe12 2.789145 1_454
Fe1 Sm1 3.052642 1_555
Fe1 Sm0 3.057754 1_455
Fe2 Fe3 2.479074 1_555
Fe2 Fe5 2.483195 1_546
Fe2 Fe6 2.508004 1_555
Fe2 Fe8 2.737005 1_545
Fe2 Sm1 3.052642 1_555
Fe2 Sm0 3.057754 1_545
Fe3 Fe6 2.508004 1_555
Fe3 Fe7 2.737005 1_455
Fe3 Sm1 3.052642 1_555
Fe3 Sm0 3.057754 1_455
Fe4 Fe7 2.508004 1_555
Fe4 Fe9 2.569288 1_545
Fe4 Fe8 2.737005 1_545
Fe4 Sm1 3.052642 1_555
Fe4 Sm0 3.057754 1_545
Fe5 Fe8 2.508004 1_555
Fe5 Fe9 2.691108 1_555
Fe5 Fe6 2.737005 1_554
Fe5 Sm1 3.052642 1_555
Fe5 Sm0 3.057754 1_554
Fe6 Sm0 3.113101 1_555
Fe6 Sm1 3.209251 1_555
Fe6 Sm1 3.290003 1_556
Fe7 Fe9 2.458034 1_555
Fe7 Sm0 3.113101 1_555
Fe7 Sm1 3.209251 1_555
Fe7 Sm1 3.290002 1_655
Fe8 Fe9 2.458034 1_555
Fe8 Sm0 3.113101 1_555
Fe8 Sm1 3.209251 1_555
Fe8 Sm1 3.290002 1_565
Fe9 Sm1 3.072117 1_555
Fe9 Sm0 3.166798 1_555
Fe9 Sm0 3.331478 1_554
Fe10 Fe6 2.458034 1_555
Fe10 Fe8 2.458034 1_555
Fe10 Fe2 2.569288 1_565
Fe10 Fe5 2.569288 1_556
Fe10 Fe12 2.682513 1_455
Fe10 Fe3 2.691108 1_555
Fe10 Sm1 3.072117 1_555
Fe10 Sm0 3.166798 1_555
Fe10 Sm0 3.331478 1_455
Fe11 Fe6 2.458034 1_555
Fe11 Fe7 2.458034 1_555
Fe11 Fe3 2.569288 1_655
Fe11 Fe12 2.682513 1_545
Fe11 Fe2 2.691108 1_555
Fe11 Fe4 2.691108 1_555
Fe11 Sm1 3.072117 1_555
Fe11 Sm0 3.166798 1_555
Fe11 Sm0 3.331478 1_545
Fe12 Fe9 2.682513 1_556
Fe12 Fe3 2.789144 1_665
Fe12 Fe2 2.789144 1_665
Fe12 Fe5 2.789144 1_656
Fe12 Fe4 2.789145 1_566
Fe12 Sm0 3.136323 1_555
