# generated using pymatgen
data_RbB6(HO)8
_symmetry_space_group_name_H-M   'P 1'
_cell_length_a   8.61556400
_cell_length_b   9.13386699
_cell_length_c   13.16249800
_cell_angle_alpha   90.00000000
_cell_angle_beta   90.00000000
_cell_angle_gamma   118.13998698
_symmetry_Int_Tables_number   1
_chemical_formula_structural   RbB6(HO)8
_chemical_formula_sum   'Rb4 B24 H32 O32'
_cell_volume   913.36799345
_cell_formula_units_Z   4
loop_
 _symmetry_equiv_pos_site_id
 _symmetry_equiv_pos_as_xyz
  1  'x, y, z'
loop_
 _atom_site_type_symbol
 _atom_site_label
 _atom_site_symmetry_multiplicity
 _atom_site_fract_x
 _atom_site_fract_y
 _atom_site_fract_z
 _atom_site_occupancy
  Rb  Rb0  1  0.17895800  0.35791600  0.50000000  1
  Rb  Rb1  1  0.67895800  0.35791600  0.00000000  1
  Rb  Rb2  1  0.82104200  0.64208400  0.50000000  1
  Rb  Rb3  1  0.32104200  0.64208400  0.00000000  1
  B  B0  1  0.30823600  0.00000000  0.46794200  1
  B  B1  1  0.69176400  0.00000000  0.53205800  1
  B  B2  1  0.19176400  0.00000000  0.96794200  1
  B  B3  1  0.80823600  0.00000000  0.03205800  1
  B  B4  1  0.56518200  0.88719700  0.42408800  1
  B  B5  1  0.32201500  0.88719700  0.57591200  1
  B  B6  1  0.82201500  0.88719700  0.92408800  1
  B  B7  1  0.06518200  0.88719700  0.07591200  1
  B  B8  1  0.43481800  0.11280300  0.57591200  1
  B  B9  1  0.67798500  0.11280300  0.42408800  1
  B  B10  1  0.17798500  0.11280300  0.07591200  1
  B  B11  1  0.93481800  0.11280300  0.92408800  1
  B  B12  1  0.48242500  0.81715800  0.54860700  1
  B  B13  1  0.33473300  0.81715800  0.45139300  1
  B  B14  1  0.83473300  0.81715800  0.04860700  1
  B  B15  1  0.98242500  0.81715800  0.95139300  1
  B  B16  1  0.51757500  0.18284200  0.45139300  1
  B  B17  1  0.66526700  0.18284200  0.54860700  1
  B  B18  1  0.16526700  0.18284200  0.95139300  1
  B  B19  1  0.01757500  0.18284200  0.04860700  1
  B  B20  1  0.04352500  0.00000000  0.87681900  1
  B  B21  1  0.95647500  0.00000000  0.12318100  1
  B  B22  1  0.45647500  0.00000000  0.37681900  1
  B  B23  1  0.54352500  0.00000000  0.62318100  1
  H  H0  1  0.15100000  0.00000000  0.36279900  1
  H  H1  1  0.84900000  0.00000000  0.63720100  1
  H  H2  1  0.34900000  0.00000000  0.86279900  1
  H  H3  1  0.65100000  0.00000000  0.13720100  1
  H  H4  1  0.72119200  0.85873100  0.31481100  1
  H  H5  1  0.13753800  0.85873100  0.68518900  1
  H  H6  1  0.63753800  0.85873100  0.81481100  1
  H  H7  1  0.22119200  0.85873100  0.18518900  1
  H  H8  1  0.27880800  0.14126900  0.68518900  1
  H  H9  1  0.86246200  0.14126900  0.31481100  1
  H  H10  1  0.36246200  0.14126900  0.18518900  1
  H  H11  1  0.77880800  0.14126900  0.81481100  1
  H  H12  1  0.44364300  0.65092400  0.65943200  1
  H  H13  1  0.20728100  0.65092400  0.34056800  1
  H  H14  1  0.70728100  0.65092400  0.15943200  1
  H  H15  1  0.94364300  0.65092400  0.84056800  1
  H  H16  1  0.55635700  0.34907600  0.34056800  1
  H  H17  1  0.79271900  0.34907600  0.65943200  1
  H  H18  1  0.29271900  0.34907600  0.84056800  1
  H  H19  1  0.05635700  0.34907600  0.15943200  1
  H  H20  1  0.98897900  0.00000000  0.72923700  1
  H  H21  1  0.01102100  0.00000000  0.27076300  1
  H  H22  1  0.51102100  0.00000000  0.22923700  1
  H  H23  1  0.48897900  0.00000000  0.77076300  1
  H  H24  1  0.45963100  0.64468500  0.28345200  1
  H  H25  1  0.18505300  0.64468500  0.71654800  1
  H  H26  1  0.68505300  0.64468500  0.78345200  1
  H  H27  1  0.95963100  0.64468500  0.21654800  1
  H  H28  1  0.54036900  0.35531500  0.71654800  1
  H  H29  1  0.81494700  0.35531500  0.28345200  1
  H  H30  1  0.31494700  0.35531500  0.21654800  1
  H  H31  1  0.04036900  0.35531500  0.78345200  1
  O  O0  1  0.36191800  0.58666100  0.23250200  1
  O  O1  1  0.22474400  0.58666100  0.76749800  1
  O  O2  1  0.72474400  0.58666100  0.73250200  1
  O  O3  1  0.86191800  0.58666100  0.26749800  1
  O  O4  1  0.63808200  0.41333900  0.76749800  1
  O  O5  1  0.77525600  0.41333900  0.23250200  1
  O  O6  1  0.27525600  0.41333900  0.26749800  1
  O  O7  1  0.13808200  0.41333900  0.73250200  1
  O  O8  1  0.14714700  0.00000000  0.43645700  1
  O  O9  1  0.85285300  0.00000000  0.56354300  1
  O  O10  1  0.35285300  0.00000000  0.93645700  1
  O  O11  1  0.64714700  0.00000000  0.06354300  1
  O  O12  1  0.61716200  0.79138300  0.35659400  1
  O  O13  1  0.17422100  0.79138300  0.64340600  1
  O  O14  1  0.67422100  0.79138300  0.85659400  1
  O  O15  1  0.11716200  0.79138300  0.14340600  1
  O  O16  1  0.38283800  0.20861700  0.64340600  1
  O  O17  1  0.82577900  0.20861700  0.35659400  1
  O  O18  1  0.32577900  0.20861700  0.14340600  1
  O  O19  1  0.88283800  0.20861700  0.85659400  1
  O  O20  1  0.47397300  0.66681500  0.58739100  1
  O  O21  1  0.19284200  0.66681500  0.41260900  1
  O  O22  1  0.69284200  0.66681500  0.08739100  1
  O  O23  1  0.97397300  0.66681500  0.91260900  1
  O  O24  1  0.52602700  0.33318500  0.41260900  1
  O  O25  1  0.80715800  0.33318500  0.58739100  1
  O  O26  1  0.30715800  0.33318500  0.91260900  1
  O  O27  1  0.02602700  0.33318500  0.08739100  1
  O  O28  1  0.08494300  0.00000000  0.76829700  1
  O  O29  1  0.91505700  0.00000000  0.23170300  1
  O  O30  1  0.41505700  0.00000000  0.26829700  1
  O  O31  1  0.58494300  0.00000000  0.73170300  1
loop_
_geom_bond_atom_site_label_1
_geom_bond_atom_site_label_2
_geom_bond_distance
_geom_bond_site_symmetry_2
B0 O8 1.448425 1_555
B1 O9 1.448425 1_555
B2 O10 1.448425 1_555
B3 O11 1.448425 1_555
B4 O12 1.457865 1_555
B5 O13 1.457865 1_555
B6 O14 1.457865 1_555
B7 O15 1.457865 1_555
B8 O16 1.457865 1_555
B9 O17 1.457865 1_555
B10 O18 1.457865 1_555
B11 O19 1.457865 1_555
B12 O20 1.434329 1_555
B13 O21 1.434329 1_555
B14 O22 1.434329 1_555
B15 O23 1.434329 1_555
B16 O24 1.434329 1_555
B17 O25 1.434329 1_555
B18 O26 1.434329 1_555
B19 O27 1.434329 1_555
B20 O28 1.472318 1_555
B21 O29 1.472318 1_555
B22 O30 1.472318 1_555
B23 O31 1.472318 1_555
H0 O8 0.970091 1_555
H1 O9 0.970091 1_555
H2 O10 0.970091 1_555
H3 O11 0.970091 1_555
H4 O12 0.981900 1_555
H5 O13 0.981906 1_555
H6 O14 0.981906 1_555
H7 O15 0.981900 1_555
H8 O16 0.981900 1_555
H9 O17 0.981906 1_555
H10 O18 0.981906 1_555
H11 O19 0.981900 1_555
H12 O20 0.976080 1_555
H13 O21 0.976080 1_555
H14 O22 0.976080 1_555
H15 O23 0.976080 1_555
H16 O24 0.976080 1_555
H17 O25 0.976080 1_555
H18 O26 0.976080 1_555
H19 O27 0.976080 1_555
H20 O28 0.973601 1_655
H21 O29 0.973601 1_455
H22 O30 0.973601 1_555
H23 O31 0.973601 1_555
H24 O0 1.009204 1_555
H25 O1 1.009214 1_555
H26 O2 1.009214 1_555
H27 O3 1.009204 1_555
H28 O4 1.009204 1_555
H29 O5 1.009214 1_555
H30 O6 1.009214 1_555
H31 O7 1.009204 1_555
O0 Rb3 3.148639 1_555
O1 Rb3 3.148638 1_556
O2 Rb2 3.148638 1_555
O3 Rb2 3.148639 1_555
O4 Rb1 3.148639 1_556
O5 Rb1 3.148638 1_555
O6 Rb0 3.148638 1_555
O7 Rb0 3.148639 1_555
O8 Rb0 3.258360 1_555
O8 Rb2 3.258360 1_445
O9 Rb0 3.258360 1_655
O9 Rb2 3.258360 1_545
O10 Rb1 3.258360 1_556
O10 Rb3 3.258360 1_546
O11 Rb1 3.258360 1_555
O11 Rb3 3.258360 1_545
O12 Rb2 3.281379 1_555
O13 Rb2 3.281379 1_455
O14 Rb3 3.281379 1_556
O15 Rb3 3.281379 1_555
O16 Rb0 3.281379 1_555
O17 Rb0 3.281379 1_655
O18 Rb1 3.281379 1_555
O19 Rb1 3.281379 1_556
O20 Rb0 2.996607 1_555
O20 Rb2 3.309467 1_555
O21 Rb0 2.996607 1_555
O21 Rb2 3.309467 1_455
O22 Rb1 2.996607 1_555
O22 Rb3 3.309467 1_555
O23 Rb1 2.996607 1_556
O23 Rb3 3.309467 1_656
O24 Rb2 2.996607 1_555
O24 Rb0 3.309467 1_555
O25 Rb2 2.996607 1_555
O25 Rb0 3.309467 1_655
O26 Rb3 2.996607 1_556
O26 Rb1 3.309467 1_556
O27 Rb3 2.996607 1_555
O27 Rb1 3.309467 1_455
