# generated using pymatgen
data_Ca4Si3O11
_symmetry_space_group_name_H-M   'P 1'
_cell_length_a   6.96168200
_cell_length_b   7.48868164
_cell_length_c   10.58227559
_cell_angle_alpha   90.49229838
_cell_angle_beta   107.75860136
_cell_angle_gamma   90.13451206
_symmetry_Int_Tables_number   1
_chemical_formula_structural   Ca4Si3O11
_chemical_formula_sum   'Ca8 Si6 O22'
_cell_volume   525.37967936
_cell_formula_units_Z   2
loop_
 _symmetry_equiv_pos_site_id
 _symmetry_equiv_pos_as_xyz
  1  'x, y, z'
loop_
 _atom_site_type_symbol
 _atom_site_label
 _atom_site_symmetry_multiplicity
 _atom_site_fract_x
 _atom_site_fract_y
 _atom_site_fract_z
 _atom_site_occupancy
  Ca  Ca0  1  0.34860400  0.63212800  0.57819300  1
  Ca  Ca1  1  0.65139600  0.36787200  0.42180700  1
  Ca  Ca2  1  0.36292100  0.11803400  0.59428000  1
  Ca  Ca3  1  0.63707900  0.88196600  0.40572000  1
  Ca  Ca4  1  0.25629200  0.87283100  0.87018800  1
  Ca  Ca5  1  0.74370800  0.12716900  0.12981200  1
  Ca  Ca6  1  0.25354800  0.37615200  0.86548700  1
  Ca  Ca7  1  0.74645200  0.62384800  0.13451300  1
  Si  Si0  1  0.89463200  0.12082100  0.71042400  1
  Si  Si1  1  0.10536800  0.87917900  0.28957600  1
  Si  Si2  1  0.70317900  0.83373500  0.84360500  1
  Si  Si3  1  0.29682100  0.16626500  0.15639500  1
  Si  Si4  1  0.69907300  0.41522000  0.83933600  1
  Si  Si5  1  0.30092700  0.58478000  0.16066400  1
  O  O0  1  0.71419000  0.11695000  0.57072500  1
  O  O1  1  0.28581000  0.88305000  0.42927500  1
  O  O2  1  0.66092700  0.63314500  0.53490100  1
  O  O3  1  0.33907300  0.36685500  0.46509900  1
  O  O4  1  0.12414700  0.12435400  0.70530500  1
  O  O5  1  0.87585300  0.87564600  0.29469500  1
  O  O6  1  0.15931000  0.62379700  0.72289500  1
  O  O7  1  0.84069000  0.37620300  0.27710500  1
  O  O8  1  0.48350800  0.87132000  0.73566800  1
  O  O9  1  0.51649200  0.12868000  0.26433200  1
  O  O10  1  0.47890300  0.37784200  0.73048900  1
  O  O11  1  0.52109700  0.62215800  0.26951100  1
  O  O12  1  0.69332000  0.87667100  0.99137600  1
  O  O13  1  0.30668000  0.12332900  0.00862400  1
  O  O14  1  0.68237200  0.37115600  0.98510800  1
  O  O15  1  0.31762800  0.62884400  0.01489200  1
  O  O16  1  0.88458600  0.94565700  0.80509400  1
  O  O17  1  0.11541400  0.05434300  0.19490600  1
  O  O18  1  0.87955300  0.30188300  0.80132200  1
  O  O19  1  0.12044700  0.69811700  0.19867800  1
  O  O20  1  0.77270200  0.62397200  0.83688200  1
  O  O21  1  0.22729800  0.37602800  0.16311800  1
loop_
_geom_bond_atom_site_label_1
_geom_bond_atom_site_label_2
_geom_bond_distance
_geom_bond_site_symmetry_2
Ca0 O3 2.300687 1_555
Ca0 O6 2.305976 1_555
Ca0 O2 2.354806 1_555
Ca0 O1 2.416601 1_555
Ca0 O8 2.419436 1_555
Ca0 O10 2.493090 1_555
Ca1 O2 2.300687 1_555
Ca1 O7 2.305976 1_555
Ca1 O3 2.354806 1_555
Ca1 O0 2.416601 1_555
Ca1 O9 2.419436 1_555
Ca1 O11 2.493090 1_555
Ca2 O3 2.296769 1_555
Ca2 O4 2.310093 1_555
Ca2 O8 2.376014 1_545
Ca2 O10 2.397810 1_555
Ca2 O1 2.409298 1_545
Ca2 O0 2.532625 1_555
Ca3 O2 2.296769 1_555
Ca3 O5 2.310093 1_555
Ca3 O9 2.376014 1_565
Ca3 O11 2.397810 1_555
Ca3 O0 2.409298 1_565
Ca3 O1 2.532625 1_555
Ca4 O13 2.329031 1_566
Ca4 O15 2.349153 1_556
Ca4 O6 2.380238 1_555
Ca4 O8 2.429418 1_555
Ca4 O16 2.528604 1_455
Ca4 O4 2.554225 1_565
Ca4 O12 2.919043 1_555
Ca5 O12 2.329031 1_544
Ca5 O14 2.349153 1_554
Ca5 O7 2.380238 1_555
Ca5 O9 2.429418 1_555
Ca5 O17 2.528604 1_655
Ca5 O5 2.554225 1_545
Ca5 O13 2.919043 1_555
Ca6 O6 2.365702 1_555
Ca6 O13 2.393031 1_556
Ca6 O15 2.407073 1_556
Ca6 O10 2.422749 1_555
Ca6 O4 2.499214 1_555
Ca6 O18 2.541175 1_455
Ca6 O14 2.865679 1_555
Ca7 O7 2.365702 1_555
Ca7 O12 2.393031 1_554
Ca7 O14 2.407073 1_554
Ca7 O11 2.422749 1_555
Ca7 O5 2.499214 1_555
Ca7 O19 2.541175 1_655
Ca7 O15 2.865679 1_555
O0 Si0 1.621900 1_555
O1 Si1 1.621900 1_555
O4 Si0 1.615320 1_455
O5 Si1 1.615320 1_655
O8 Si2 1.632351 1_555
O9 Si3 1.632351 1_555
O10 Si4 1.633984 1_555
O11 Si5 1.633984 1_555
O12 Si2 1.615659 1_555
O13 Si3 1.615659 1_555
O14 Si4 1.618640 1_555
O15 Si5 1.618640 1_555
O16 Si2 1.666837 1_555
O16 Si0 1.671561 1_565
O17 Si3 1.666837 1_555
O17 Si1 1.671561 1_545
O18 Si4 1.663823 1_555
O18 Si0 1.677691 1_555
O19 Si5 1.663823 1_555
O19 Si1 1.677691 1_555
O20 Si4 1.646908 1_555
O20 Si2 1.652130 1_555
O21 Si5 1.646908 1_555
O21 Si3 1.652130 1_555
