# generated using pymatgen
data_Li7Mn5O12
_symmetry_space_group_name_H-M   'P 1'
_cell_length_a   6.06633367
_cell_length_b   6.51126944
_cell_length_c   12.08773963
_cell_angle_alpha   105.18599478
_cell_angle_beta   95.36974104
_cell_angle_gamma   75.59874407
_symmetry_Int_Tables_number   1
_chemical_formula_structural   Li7Mn5O12
_chemical_formula_sum   'Li14 Mn10 O24'
_cell_volume   446.10193432
_cell_formula_units_Z   2
loop_
 _symmetry_equiv_pos_site_id
 _symmetry_equiv_pos_as_xyz
  1  'x, y, z'
loop_
 _atom_site_type_symbol
 _atom_site_label
 _atom_site_symmetry_multiplicity
 _atom_site_fract_x
 _atom_site_fract_y
 _atom_site_fract_z
 _atom_site_occupancy
  Li  Li0  1  0.66659400  0.33336000  0.16664600  1
  Li  Li1  1  0.16673700  0.33327100  0.66666200  1
  Li  Li2  1  0.34476400  0.64856000  0.08328200  1
  Li  Li3  1  0.83485700  0.65341700  0.59438700  1
  Li  Li4  1  0.98862500  0.01814000  0.25001100  1
  Li  Li5  1  0.49851800  0.01318200  0.73902500  1
  Li  Li6  1  0.65159300  0.33494400  0.42624300  1
  Li  Li7  1  0.14566900  0.32760200  0.92323400  1
  Li  Li8  1  0.18782700  0.33902700  0.41005700  1
  Li  Li9  1  0.68176000  0.33171800  0.90716700  1
  Li  Li10  1  0.84027800  0.66200300  0.07303200  1
  Li  Li11  1  0.31554400  0.66815800  0.59056000  1
  Li  Li12  1  0.49310400  0.00483200  0.26030300  1
  Li  Li13  1  0.01785400  0.99838300  0.74280700  1
  Mn  Mn0  1  0.66677400  0.33319500  0.66672800  1
  Mn  Mn1  1  0.16644700  0.33351000  0.16667900  1
  Mn  Mn2  1  0.98847700  0.99962300  0.00408600  1
  Mn  Mn3  1  0.49237800  0.00174600  0.50548800  1
  Mn  Mn4  1  0.34479400  0.66703400  0.32914100  1
  Mn  Mn5  1  0.84093900  0.66474800  0.82786000  1
  Mn  Mn6  1  0.49514200  0.99924800  0.00439900  1
  Mn  Mn7  1  0.00283700  0.00696000  0.50243100  1
  Mn  Mn8  1  0.83794600  0.66773500  0.32897500  1
  Mn  Mn9  1  0.33064300  0.65960800  0.83091800  1
  O  O0  1  0.77205500  0.98796300  0.37437600  1
  O  O1  1  0.22892400  0.98694100  0.89476300  1
  O  O2  1  0.10443700  0.67966400  0.43851000  1
  O  O3  1  0.56127200  0.67879600  0.95897100  1
  O  O4  1  0.92942000  0.31644500  0.04575300  1
  O  O5  1  0.43304800  0.31873000  0.54447900  1
  O  O6  1  0.40371000  0.35035700  0.28749700  1
  O  O7  1  0.90046800  0.34777500  0.78892200  1
  O  O8  1  0.56765800  0.66998500  0.22625100  1
  O  O9  1  0.09689800  0.66748700  0.71448900  1
  O  O10  1  0.76564800  0.99680600  0.10702400  1
  O  O11  1  0.23653600  0.99902200  0.61886000  1
  O  O12  1  0.26970000  0.98691300  0.37597400  1
  O  O13  1  0.75928100  0.98967200  0.88208700  1
  O  O14  1  0.57401500  0.67689700  0.45117300  1
  O  O15  1  0.06369100  0.67981400  0.95736900  1
  O  O16  1  0.38789200  0.31354000  0.05367700  1
  O  O17  1  0.88614900  0.32273800  0.55440600  1
  O  O18  1  0.94522600  0.35333300  0.27965300  1
  O  O19  1  0.44728400  0.34370700  0.77896800  1
  O  O20  1  0.11065200  0.64929300  0.20641200  1
  O  O21  1  0.60100000  0.65204700  0.70836600  1
  O  O22  1  0.22249200  0.01763200  0.12689800  1
  O  O23  1  0.73244200  0.01443500  0.62500300  1
loop_
_geom_bond_atom_site_label_1
_geom_bond_atom_site_label_2
_geom_bond_distance
_geom_bond_site_symmetry_2
Li0 O10 2.069133 1_545
Li0 O8 2.069485 1_555
Li0 O16 2.079402 1_555
Li0 O18 2.079428 1_555
Li0 O6 2.225526 1_555
Li0 O4 2.225777 1_555
Li1 O9 2.043905 1_555
Li1 O11 2.044107 1_545
Li1 O17 2.078520 1_455
Li1 O19 2.078631 1_555
Li1 O5 2.257746 1_555
Li1 O7 2.258286 1_455
Li2 O16 2.068743 1_555
Li2 O8 2.089142 1_555
Li2 O20 2.149594 1_555
Li2 O3 2.162111 1_554
Li2 O15 2.183842 1_554
Li2 O22 2.264050 1_565
Li3 O17 2.028822 1_555
Li3 O9 2.052742 1_655
Li3 O21 2.071089 1_555
Li3 O23 2.215736 1_565
Li3 O14 2.242693 1_555
Li4 O18 2.069608 1_555
Li4 O10 2.089593 1_545
Li4 O22 2.148865 1_655
Li4 O0 2.162716 1_545
Li4 O12 2.184228 1_645
Li4 O20 2.262580 1_645
Li5 O19 2.027902 1_555
Li5 O11 2.052990 1_545
Li5 O23 2.071507 1_555
Li5 O21 2.216427 1_545
Li5 O13 2.241087 1_545
Li6 O17 2.006651 1_555
Li6 O5 2.077197 1_555
Li6 O14 2.103237 1_555
Li6 O0 2.133980 1_545
Li6 O6 2.150616 1_555
Li7 O16 2.056400 1_556
Li7 O1 2.090213 1_545
Li7 O4 2.094490 1_456
Li7 O7 2.104332 1_455
Li7 O15 2.156930 1_555
Li8 O18 2.057622 1_455
Li8 O2 2.090077 1_555
Li8 O6 2.093742 1_555
Li8 O5 2.105438 1_555
Li8 O12 2.156372 1_545
Li9 O19 2.006566 1_555
Li9 O7 2.077588 1_555
Li9 O13 2.103626 1_545
Li9 O3 2.134526 1_555
Li9 O4 2.148309 1_556
Li10 O10 2.049577 1_555
Li10 O15 2.079124 1_654
Li10 O3 2.080323 1_554
Li10 O4 2.122074 1_555
Li10 O20 2.191774 1_655
Li10 O8 2.578378 1_555
Li11 O11 2.029510 1_555
Li11 O9 2.093220 1_555
Li11 O21 2.136319 1_555
Li11 O5 2.144440 1_555
Li11 O2 2.146524 1_555
Li11 O14 2.426858 1_555
Li12 O8 2.049821 1_545
Li12 O12 2.079434 1_545
Li12 O0 2.080176 1_545
Li12 O6 2.121979 1_555
Li12 O22 2.192972 1_555
Li12 O10 2.578520 1_545
Li13 O9 2.029688 1_555
Li13 O11 2.093469 1_555
Li13 O23 2.136100 1_465
Li13 O7 2.144166 1_465
Li13 O1 2.145445 1_555
Li13 O13 2.426251 1_455
Mn0 O23 1.949051 1_555
Mn0 O21 1.949596 1_555
Mn0 O7 1.949879 1_555
Mn0 O5 1.950436 1_555
Mn0 O19 1.965302 1_555
Mn0 O17 1.965641 1_555
Mn1 O20 1.933870 1_555
Mn1 O22 1.934352 1_555
Mn1 O4 1.953840 1_455
Mn1 O6 1.953885 1_555
Mn1 O18 1.961374 1_455
Mn1 O16 1.962347 1_555
Mn2 O10 1.927415 1_555
Mn2 O13 1.929524 1_554
Mn2 O4 1.938928 1_565
Mn2 O15 1.955211 1_654
Mn2 O22 1.957042 1_665
Mn2 O1 2.030859 1_654
Mn3 O5 1.940163 1_555
Mn3 O23 1.954038 1_555
Mn3 O12 1.968464 1_545
Mn3 O14 1.990613 1_545
Mn3 O11 2.170628 1_545
Mn3 O0 2.398188 1_545
Mn4 O8 1.927471 1_555
Mn4 O14 1.929891 1_555
Mn4 O6 1.938079 1_555
Mn4 O12 1.955683 1_555
Mn4 O20 1.956809 1_555
Mn4 O2 2.030937 1_555
Mn5 O7 1.940039 1_555
Mn5 O21 1.953353 1_555
Mn5 O15 1.968719 1_655
Mn5 O13 1.990982 1_555
Mn5 O9 2.171205 1_655
Mn5 O3 2.397596 1_555
Mn6 O16 1.933297 1_565
Mn6 O3 1.959781 1_554
Mn6 O10 1.961701 1_555
Mn6 O1 1.994741 1_554
Mn6 O13 2.258922 1_554
Mn6 O22 2.282459 1_565
Mn7 O11 1.903006 1_545
Mn7 O17 1.950869 1_455
Mn7 O0 1.987842 1_445
Mn7 O2 2.022774 1_545
Mn7 O12 2.286455 1_545
Mn7 O23 2.294677 1_455
Mn8 O18 1.933989 1_555
Mn8 O0 1.958452 1_555
Mn8 O8 1.961385 1_555
Mn8 O2 1.995125 1_655
Mn8 O14 2.257840 1_555
Mn8 O20 2.283153 1_655
Mn9 O9 1.903179 1_555
Mn9 O19 1.951512 1_555
Mn9 O3 1.987266 1_555
Mn9 O1 2.022919 1_555
Mn9 O15 2.286507 1_555
Mn9 O21 2.294146 1_555
