# generated using pymatgen
data_Ce2YSi2
_symmetry_space_group_name_H-M   'P 1'
_cell_length_a   7.55344400
_cell_length_b   7.55344400
_cell_length_c   4.30641100
_cell_angle_alpha   90.00000000
_cell_angle_beta   90.00000000
_cell_angle_gamma   90.00000000
_symmetry_Int_Tables_number   1
_chemical_formula_structural   Ce2YSi2
_chemical_formula_sum   'Ce4 Y2 Si4'
_cell_volume   245.70019643
_cell_formula_units_Z   2
loop_
 _symmetry_equiv_pos_site_id
 _symmetry_equiv_pos_as_xyz
  1  'x, y, z'
loop_
 _atom_site_type_symbol
 _atom_site_label
 _atom_site_symmetry_multiplicity
 _atom_site_fract_x
 _atom_site_fract_y
 _atom_site_fract_z
 _atom_site_occupancy
  Ce  Ce0  1  0.68001800  0.18001800  0.50000000  1
  Ce  Ce1  1  0.31998200  0.81998200  0.50000000  1
  Ce  Ce2  1  0.18001800  0.31998200  0.50000000  1
  Ce  Ce3  1  0.81998200  0.68001800  0.50000000  1
  Y  Y0  1  0.00000000  0.00000000  0.00000000  1
  Y  Y1  1  0.50000000  0.50000000  0.00000000  1
  Si  Si0  1  0.11451600  0.61451600  0.00000000  1
  Si  Si1  1  0.88548400  0.38548400  0.00000000  1
  Si  Si2  1  0.61451600  0.88548400  0.00000000  1
  Si  Si3  1  0.38548400  0.11451600  0.00000000  1
loop_
_geom_bond_atom_site_label_1
_geom_bond_atom_site_label_2
_geom_bond_distance
_geom_bond_site_symmetry_2
Ce0 Si1 3.074663 1_555
Ce0 Si1 3.074663 1_556
Ce0 Si2 3.135376 1_546
Ce0 Si2 3.135376 1_545
Ce0 Si3 3.135376 1_556
Ce0 Si3 3.135376 1_555
Ce1 Si0 3.074663 1_556
Ce1 Si0 3.074663 1_555
Ce1 Si3 3.135376 1_566
Ce1 Si3 3.135376 1_565
Ce1 Si2 3.135376 1_555
Ce1 Si2 3.135376 1_556
Ce2 Si3 3.074663 1_556
Ce2 Si3 3.074663 1_555
Ce2 Si0 3.135376 1_556
Ce2 Si0 3.135376 1_555
Ce2 Si1 3.135376 1_455
Ce2 Si1 3.135376 1_456
Ce3 Si2 3.074663 1_555
Ce3 Si2 3.074663 1_556
Ce3 Si0 3.135376 1_655
Ce3 Si0 3.135376 1_656
Ce3 Si1 3.135376 1_555
Ce3 Si1 3.135376 1_556
Si0 Si1 2.446562 1_455
Si0 Y0 3.037497 1_565
Si0 Y1 3.037497 1_555
Si1 Y1 3.037497 1_555
Si1 Y0 3.037497 1_655
Si2 Si3 2.446562 1_565
Si2 Y1 3.037497 1_555
Si2 Y0 3.037497 1_665
Si3 Y0 3.037497 1_555
Si3 Y1 3.037497 1_555
