# generated using pymatgen
data_Li3CoF6
_symmetry_space_group_name_H-M   'P 1'
_cell_length_a   5.36005500
_cell_length_b   5.36005543
_cell_length_c   5.36005460
_cell_angle_alpha   59.99999968
_cell_angle_beta   59.99999138
_cell_angle_gamma   59.99999646
_symmetry_Int_Tables_number   1
_chemical_formula_structural   Li3CoF6
_chemical_formula_sum   'Li3 Co1 F6'
_cell_volume   108.89117942
_cell_formula_units_Z   1
loop_
 _symmetry_equiv_pos_site_id
 _symmetry_equiv_pos_as_xyz
  1  'x, y, z'
loop_
 _atom_site_type_symbol
 _atom_site_label
 _atom_site_symmetry_multiplicity
 _atom_site_fract_x
 _atom_site_fract_y
 _atom_site_fract_z
 _atom_site_occupancy
  Li  Li0  1  0.25000000  0.25000000  0.25000000  1
  Li  Li1  1  0.75000000  0.75000000  0.75000000  1
  Li  Li2  1  0.50000000  0.50000000  0.50000000  1
  Co  Co0  1  0.00000000  0.00000000  0.00000000  1
  F  F0  1  0.24334500  0.75665500  0.24334500  1
  F  F1  1  0.75665500  0.75665500  0.24334500  1
  F  F2  1  0.75665500  0.24334500  0.75665500  1
  F  F3  1  0.75665500  0.24334500  0.24334500  1
  F  F4  1  0.24334500  0.75665500  0.75665500  1
  F  F5  1  0.24334500  0.24334500  0.75665500  1
loop_
_geom_bond_atom_site_label_1
_geom_bond_atom_site_label_2
_geom_bond_distance
_geom_bond_site_symmetry_2
Co0 F3 1.844619 1_455
Co0 F4 1.844619 1_544
Co0 F0 1.844619 1_545
Co0 F5 1.844619 1_554
Co0 F1 1.844619 1_445
Co0 F2 1.844619 1_454
F0 Li2 1.945512 1_555
F1 Li2 1.945512 1_555
F2 Li2 1.945512 1_555
F3 Li2 1.945512 1_555
F4 Li2 1.945512 1_555
F5 Li2 1.945512 1_555
