# generated using pymatgen
data_LiLa4Ni3WO12
_symmetry_space_group_name_H-M   'P 1'
_cell_length_a   5.47223381
_cell_length_b   8.69716600
_cell_length_c   5.56789786
_cell_angle_alpha   90.00000000
_cell_angle_beta   90.16787667
_cell_angle_gamma   90.00000000
_symmetry_Int_Tables_number   1
_chemical_formula_structural   LiLa4Ni3WO12
_chemical_formula_sum   'Li1 La4 Ni3 W1 O12'
_cell_volume   264.99141225
_cell_formula_units_Z   1
loop_
 _symmetry_equiv_pos_site_id
 _symmetry_equiv_pos_as_xyz
  1  'x, y, z'
loop_
 _atom_site_type_symbol
 _atom_site_label
 _atom_site_symmetry_multiplicity
 _atom_site_fract_x
 _atom_site_fract_y
 _atom_site_fract_z
 _atom_site_occupancy
  Li  Li0  1  0.50000000  0.50000000  0.00000000  1
  La  La0  1  0.50000000  0.21715600  0.00000000  1
  La  La1  1  0.00000000  0.70435000  0.50000000  1
  La  La2  1  0.50000000  0.78284400  0.00000000  1
  La  La3  1  0.00000000  0.29565000  0.50000000  1
  Ni  Ni0  1  0.00000000  0.00000000  0.00000000  1
  Ni  Ni1  1  0.50000000  0.50000000  0.50000000  1
  Ni  Ni2  1  0.00000000  0.50000000  0.00000000  1
  W  W0  1  0.50000000  0.00000000  0.50000000  1
  O  O0  1  0.00000000  0.24074300  0.00000000  1
  O  O1  1  0.50000000  0.76302000  0.50000000  1
  O  O2  1  0.28000000  0.50000000  0.22351300  1
  O  O3  1  0.79947800  0.00000000  0.67943200  1
  O  O4  1  0.20652000  0.50000000  0.70438400  1
  O  O5  1  0.67560700  0.00000000  0.17830000  1
  O  O6  1  0.00000000  0.75925700  0.00000000  1
  O  O7  1  0.50000000  0.23698000  0.50000000  1
  O  O8  1  0.72000000  0.50000000  0.77648700  1
  O  O9  1  0.20052200  0.00000000  0.32056800  1
  O  O10  1  0.79348000  0.50000000  0.29561600  1
  O  O11  1  0.32439300  0.00000000  0.82170000  1
loop_
_geom_bond_atom_site_label_1
_geom_bond_atom_site_label_2
_geom_bond_distance
_geom_bond_site_symmetry_2
Li0 O2 1.734044 1_555
Li0 O8 1.734044 1_554
Li0 O4 2.296280 1_554
Li0 O10 2.296280 1_555
La0 O5 2.338887 1_555
La0 O11 2.338887 1_554
La0 O0 2.743796 1_555
La0 O0 2.743796 1_655
La0 O7 2.789283 1_555
La0 O7 2.789283 1_554
La1 O10 2.392351 1_455
La1 O4 2.392351 1_555
La1 O1 2.783290 1_455
La1 O1 2.783290 1_555
La1 O8 2.808936 1_455
La1 O2 2.808936 1_555
La1 O6 2.824608 1_555
La1 O6 2.824608 1_556
La1 O9 2.969897 1_565
La1 O3 2.969897 1_465
La2 O5 2.338887 1_565
La2 O11 2.338887 1_564
La2 O6 2.743796 1_555
La2 O6 2.743796 1_655
La2 O1 2.789283 1_554
La2 O1 2.789283 1_555
La3 O10 2.392351 1_455
La3 O4 2.392351 1_555
La3 O7 2.783290 1_455
La3 O7 2.783290 1_555
La3 O8 2.808936 1_455
La3 O2 2.808936 1_555
La3 O0 2.824608 1_555
La3 O0 2.824608 1_556
La3 O3 2.969897 1_455
La3 O9 2.969897 1_555
Ni0 O11 2.036434 1_554
Ni0 O5 2.036434 1_455
Ni0 O9 2.092470 1_555
Ni0 O3 2.092470 1_454
Ni0 O0 2.093782 1_555
Ni0 O6 2.093782 1_545
Ni1 O8 1.951513 1_555
Ni1 O2 1.951513 1_555
Ni1 O4 1.971024 1_555
Ni1 O10 1.971024 1_555
Ni1 O7 2.287529 1_555
Ni1 O1 2.287529 1_555
Ni2 O2 1.971120 1_555
Ni2 O8 1.971120 1_454
Ni2 O10 1.999317 1_455
Ni2 O4 1.999317 1_554
Ni2 O6 2.254801 1_555
Ni2 O0 2.254801 1_555
O1 W0 2.061054 1_565
O3 W0 1.916829 1_555
O5 W0 2.035168 1_555
O7 W0 2.061054 1_555
O9 W0 1.916829 1_555
O11 W0 2.035168 1_555
