# generated using pymatgen
data_NdGa4Co9
_symmetry_space_group_name_H-M   'P 1'
_cell_length_a   8.13473869
_cell_length_b   8.13473869
_cell_length_c   8.13473869
_cell_angle_alpha   121.20048115
_cell_angle_beta   121.20048115
_cell_angle_gamma   87.93298543
_symmetry_Int_Tables_number   1
_chemical_formula_structural   NdGa4Co9
_chemical_formula_sum   'Nd2 Ga8 Co18'
_cell_volume   373.47046111
_cell_formula_units_Z   2
loop_
 _symmetry_equiv_pos_site_id
 _symmetry_equiv_pos_as_xyz
  1  'x, y, z'
loop_
 _atom_site_type_symbol
 _atom_site_label
 _atom_site_symmetry_multiplicity
 _atom_site_fract_x
 _atom_site_fract_y
 _atom_site_fract_z
 _atom_site_occupancy
  Nd  Nd0  1  0.75000000  0.75000000  0.00000000  1
  Nd  Nd1  1  0.25000000  0.25000000  0.00000000  1
  Ga  Ga0  1  0.05369300  0.55369300  0.85983800  1
  Ga  Ga1  1  0.69385500  0.19385500  0.14016200  1
  Ga  Ga2  1  0.55369300  0.69385500  0.50000000  1
  Ga  Ga3  1  0.19385500  0.05369300  0.50000000  1
  Ga  Ga4  1  0.94630700  0.44630700  0.14016200  1
  Ga  Ga5  1  0.30614500  0.80614500  0.85983800  1
  Ga  Ga6  1  0.44630700  0.30614500  0.50000000  1
  Ga  Ga7  1  0.80614500  0.94630700  0.50000000  1
  Co  Co0  1  0.06122800  0.19811600  0.25934500  1
  Co  Co1  1  0.93877200  0.80188400  0.74065500  1
  Co  Co2  1  0.56122800  0.30188400  0.86311200  1
  Co  Co3  1  0.43877200  0.69811600  0.13688800  1
  Co  Co4  1  0.80188400  0.06122800  0.86311200  1
  Co  Co5  1  0.19811600  0.93877200  0.13688800  1
  Co  Co6  1  0.69811600  0.56122800  0.25934500  1
  Co  Co7  1  0.30188400  0.43877200  0.74065500  1
  Co  Co8  1  0.43927300  0.93927300  0.72660000  1
  Co  Co9  1  0.21267300  0.71267300  0.27340000  1
  Co  Co10  1  0.93927300  0.21267300  0.50000000  1
  Co  Co11  1  0.71267300  0.43927300  0.50000000  1
  Co  Co12  1  0.56072700  0.06072700  0.27340000  1
  Co  Co13  1  0.78732700  0.28732700  0.72660000  1
  Co  Co14  1  0.06072700  0.78732700  0.50000000  1
  Co  Co15  1  0.28732700  0.56072700  0.50000000  1
  Co  Co16  1  0.00000000  0.50000000  0.50000000  1
  Co  Co17  1  0.50000000  0.00000000  0.50000000  1
loop_
_geom_bond_atom_site_label_1
_geom_bond_atom_site_label_2
_geom_bond_distance
_geom_bond_site_symmetry_2
Ga0 Nd0 3.271187 1_456
Ga0 Nd1 3.271187 1_556
Ga1 Nd0 3.271187 1_545
Ga1 Nd1 3.271187 1_555
Ga2 Nd0 3.271187 1_556
Ga2 Nd1 3.271187 1_555
Ga3 Nd1 3.271187 1_556
Ga3 Nd0 3.271187 1_445
Ga4 Nd1 3.271187 1_655
Ga4 Nd0 3.271187 1_555
Ga5 Nd1 3.271187 1_566
Ga5 Nd0 3.271187 1_556
Ga6 Nd0 3.271187 1_556
Ga6 Nd1 3.271187 1_555
Ga7 Nd0 3.271187 1_555
Ga7 Nd1 3.271187 1_666
Co0 Co5 2.342126 1_545
Co0 Co4 2.342130 1_454
Co0 Co16 2.460141 1_555
Co0 Ga3 2.545565 1_555
Co0 Ga6 2.545571 1_555
Co0 Co10 2.567922 1_455
Co0 Co15 2.567931 1_555
Co0 Ga1 2.615904 1_455
Co0 Ga4 2.615911 1_455
Co0 Co7 2.718170 1_555
Co0 Nd0 3.363458 1_445
Co0 Nd1 3.363468 1_555
Co1 Co4 2.342126 1_565
Co1 Co5 2.342130 1_656
Co1 Co16 2.460141 1_655
Co1 Ga7 2.545565 1_555
Co1 Ga2 2.545571 1_555
Co1 Co14 2.567922 1_655
Co1 Co11 2.567931 1_555
Co1 Ga5 2.615904 1_655
Co1 Ga0 2.615911 1_655
Co1 Co6 2.718170 1_555
Co1 Nd1 3.363458 1_666
Co1 Nd0 3.363468 1_556
Co2 Co7 2.342126 1_555
Co2 Co6 2.342130 1_556
Co2 Ga1 2.545571 1_556
Co2 Ga4 2.545571 1_556
Co2 Co8 2.567929 1_545
Co2 Ga6 2.615906 1_555
Co2 Ga3 2.615906 1_555
Co2 Co4 2.718181 1_555
Co2 Nd1 3.363461 1_556
Co2 Nd0 3.363461 1_556
Co3 Co6 2.342126 1_555
Co3 Co7 2.342130 1_554
Co3 Ga5 2.545571 1_554
Co3 Ga0 2.545571 1_554
Co3 Co9 2.567929 1_555
Co3 Ga7 2.615906 1_555
Co3 Ga2 2.615906 1_555
Co3 Co5 2.718181 1_555
Co3 Nd0 3.363461 1_555
Co3 Nd1 3.363461 1_555
Co4 Ga1 2.545571 1_556
Co4 Ga4 2.545571 1_556
Co4 Co8 2.567929 1_545
Co4 Ga2 2.615906 1_545
Co4 Ga7 2.615906 1_545
Co4 Nd0 3.363461 1_546
Co4 Nd1 3.363461 1_656
Co5 Ga5 2.545571 1_554
Co5 Ga0 2.545571 1_554
Co5 Co9 2.567929 1_555
Co5 Ga6 2.615906 1_565
Co5 Ga3 2.615906 1_565
Co5 Nd0 3.363461 1_455
Co5 Nd1 3.363461 1_565
Co6 Ga2 2.545565 1_555
Co6 Ga7 2.545571 1_555
Co6 Ga1 2.615904 1_555
Co6 Ga4 2.615911 1_555
Co6 Nd1 3.363458 1_555
Co6 Nd0 3.363468 1_555
Co7 Ga6 2.545565 1_555
Co7 Ga3 2.545571 1_555
Co7 Ga5 2.615904 1_555
Co7 Ga0 2.615911 1_555
Co7 Nd0 3.363458 1_556
Co7 Nd1 3.363468 1_556
Co8 Ga1 2.401705 1_566
Co8 Ga5 2.457067 1_555
Co8 Ga3 2.465900 1_565
Co8 Ga2 2.465900 1_555
Co8 Co9 2.559420 1_555
Co8 Nd1 3.338985 1_566
Co8 Nd0 3.338985 1_556
Co9 Ga0 2.401705 1_554
Co9 Ga4 2.457067 1_455
Co9 Ga3 2.465900 1_565
Co9 Ga2 2.465900 1_555
Co9 Nd1 3.338985 1_555
Co9 Nd0 3.338985 1_455
Co10 Ga3 2.401705 1_655
Co10 Co16 2.406333 1_655
Co10 Ga7 2.457067 1_545
Co10 Ga0 2.465900 1_655
Co10 Ga1 2.465900 1_555
Co10 Co13 2.537936 1_555
Co10 Co12 2.537936 1_555
Co10 Co11 2.559420 1_555
Co10 Co7 2.567931 1_655
Co10 Nd1 3.338985 1_656
Co10 Nd0 3.338985 1_545
Co11 Ga2 2.401705 1_555
Co11 Co16 2.406333 1_655
Co11 Ga6 2.457067 1_555
Co11 Ga0 2.465900 1_655
Co11 Ga1 2.465900 1_555
Co11 Co13 2.537936 1_555
Co11 Co12 2.537936 1_555
Co11 Co6 2.567922 1_555
Co11 Nd1 3.338985 1_555
Co11 Nd0 3.338985 1_556
Co12 Ga5 2.401705 1_544
Co12 Co17 2.406333 1_555
Co12 Ga1 2.457067 1_555
Co12 Ga7 2.465900 1_545
Co12 Ga6 2.465900 1_555
Co12 Co13 2.559420 1_555
Co12 Co3 2.567929 1_545
Co12 Co5 2.567929 1_545
Co12 Nd0 3.338985 1_545
Co12 Nd1 3.338985 1_555
Co13 Ga4 2.401705 1_556
Co13 Co17 2.406333 1_555
Co13 Ga0 2.457067 1_655
Co13 Ga7 2.465900 1_545
Co13 Ga6 2.465900 1_555
Co13 Co2 2.567929 1_555
Co13 Co4 2.567929 1_555
Co13 Nd1 3.338985 1_656
Co13 Nd0 3.338985 1_556
Co14 Ga7 2.401705 1_455
Co14 Co16 2.406333 1_555
Co14 Ga3 2.457067 1_565
Co14 Ga5 2.465900 1_555
Co14 Ga4 2.465900 1_455
Co14 Co8 2.537936 1_555
Co14 Co9 2.537936 1_555
Co14 Co15 2.559420 1_555
Co14 Co6 2.567931 1_455
Co14 Nd0 3.338985 1_455
Co14 Nd1 3.338985 1_566
Co15 Ga6 2.401705 1_555
Co15 Co16 2.406333 1_555
Co15 Ga2 2.457067 1_555
Co15 Ga5 2.465900 1_555
Co15 Ga4 2.465900 1_455
Co15 Co8 2.537936 1_555
Co15 Co9 2.537936 1_555
Co15 Co7 2.567922 1_555
Co15 Nd1 3.338985 1_555
Co15 Nd0 3.338985 1_556
Co16 Co7 2.460141 1_555
Co16 Co6 2.460141 1_455
Co16 Ga0 2.512857 1_555
Co16 Ga5 2.512857 1_555
Co16 Ga1 2.512857 1_455
Co16 Ga4 2.512857 1_455
Co17 Co9 2.406333 1_545
Co17 Co8 2.406333 1_545
Co17 Co4 2.460144 1_555
Co17 Co2 2.460144 1_555
Co17 Co5 2.460144 1_545
Co17 Co3 2.460144 1_545
Co17 Ga7 2.512857 1_545
Co17 Ga3 2.512857 1_555
Co17 Ga2 2.512857 1_545
Co17 Ga6 2.512857 1_555
