# generated using pymatgen
data_HfIr
_symmetry_space_group_name_H-M   'P 1'
_cell_length_a   3.63414200
_cell_length_b   4.39505200
_cell_length_c   4.39089100
_cell_angle_alpha   90.00000000
_cell_angle_beta   90.00000000
_cell_angle_gamma   90.00000000
_symmetry_Int_Tables_number   1
_chemical_formula_structural   HfIr
_chemical_formula_sum   'Hf2 Ir2'
_cell_volume   70.13237833
_cell_formula_units_Z   2
loop_
 _symmetry_equiv_pos_site_id
 _symmetry_equiv_pos_as_xyz
  1  'x, y, z'
loop_
 _atom_site_type_symbol
 _atom_site_label
 _atom_site_symmetry_multiplicity
 _atom_site_fract_x
 _atom_site_fract_y
 _atom_site_fract_z
 _atom_site_occupancy
  Hf  Hf0  1  0.00000000  0.75000000  0.75047500  1
  Hf  Hf1  1  0.00000000  0.25000000  0.24952500  1
  Ir  Ir0  1  0.50000000  0.75000000  0.25033700  1
  Ir  Ir1  1  0.50000000  0.25000000  0.74966300  1
loop_
_geom_bond_atom_site_label_1
_geom_bond_atom_site_label_2
_geom_bond_distance
_geom_bond_site_symmetry_2
Hf0 Ir0 2.849398 1_456
Hf0 Ir0 2.849398 1_556
Hf0 Ir0 2.850331 1_555
Hf0 Ir0 2.850331 1_455
Hf0 Ir1 2.851470 1_465
Hf0 Ir1 2.851470 1_555
Hf0 Ir1 2.851470 1_455
Hf0 Ir1 2.851470 1_565
Hf1 Ir1 2.849398 1_554
Hf1 Ir1 2.849398 1_454
Hf1 Ir1 2.850331 1_455
Hf1 Ir1 2.850331 1_555
Hf1 Ir0 2.851470 1_555
Hf1 Ir0 2.851470 1_455
Hf1 Ir0 2.851470 1_545
Hf1 Ir0 2.851470 1_445
