# generated using pymatgen
data_Y2Cd3N4
_symmetry_space_group_name_H-M   'P 1'
_cell_length_a   7.54080171
_cell_length_b   9.82675819
_cell_length_c   4.94233786
_cell_angle_alpha   90.00000033
_cell_angle_beta   87.05407212
_cell_angle_gamma   130.66027188
_symmetry_Int_Tables_number   1
_chemical_formula_structural   Y2Cd3N4
_chemical_formula_sum   'Y4 Cd6 N8'
_cell_volume   277.18277410
_cell_formula_units_Z   2
loop_
 _symmetry_equiv_pos_site_id
 _symmetry_equiv_pos_as_xyz
  1  'x, y, z'
loop_
 _atom_site_type_symbol
 _atom_site_label
 _atom_site_symmetry_multiplicity
 _atom_site_fract_x
 _atom_site_fract_y
 _atom_site_fract_z
 _atom_site_occupancy
  Y  Y0  1  0.77961655  0.25863151  0.51993303  1
  Y  Y1  1  0.22038345  0.47901496  0.98006697  1
  Y  Y2  1  0.22038345  0.74136849  0.48006697  1
  Y  Y3  1  0.77961655  0.52098504  0.01993303  1
  Cd  Cd0  1  0.40219101  0.08495100  0.06197158  1
  Cd  Cd1  1  0.59780899  0.68275999  0.43802842  1
  Cd  Cd2  1  0.59780899  0.91504900  0.93802842  1
  Cd  Cd3  1  0.40219101  0.31724001  0.56197158  1
  Cd  Cd4  1  0.00000000  0.90331635  0.75000000  1
  Cd  Cd5  1  0.00000000  0.09668365  0.25000000  1
  N  N0  1  0.33423362  0.04282421  0.53330564  1
  N  N1  1  0.66576638  0.70859159  0.96669436  1
  N  N2  1  0.66576638  0.95717579  0.46669436  1
  N  N3  1  0.33423362  0.29140841  0.03330564  1
  N  N4  1  0.80511351  0.28288016  0.00494955  1
  N  N5  1  0.19488649  0.47776665  0.49505045  1
  N  N6  1  0.19488649  0.71711984  0.99505045  1
  N  N7  1  0.80511351  0.52223335  0.50494955  1
loop_
_geom_bond_atom_site_label_1
_geom_bond_atom_site_label_2
_geom_bond_distance
_geom_bond_site_symmetry_2
Cd0 N4 2.303255 1_555
Cd0 N0 2.336956 1_555
Cd0 N3 2.400217 1_555
Cd0 N0 2.668730 1_554
Cd1 N5 2.303255 1_555
Cd1 N1 2.336955 1_554
Cd1 N2 2.400226 1_555
Cd1 N1 2.668730 1_555
Cd2 N6 2.303255 1_555
Cd2 N2 2.336956 1_555
Cd2 N1 2.400217 1_555
Cd2 N2 2.668730 1_556
Cd3 N7 2.303255 1_555
Cd3 N3 2.336955 1_556
Cd3 N0 2.400226 1_555
Cd3 N3 2.668730 1_555
Cd4 N1 2.144442 1_455
Cd4 N0 2.144443 1_565
Cd5 N3 2.144442 1_555
Cd5 N2 2.144443 1_445
N0 Y2 2.508133 1_545
N0 Y0 2.545022 1_555
N1 Y3 2.508143 1_556
N1 Y1 2.545022 1_555
N2 Y0 2.508133 1_565
N2 Y2 2.545022 1_555
N3 Y1 2.508143 1_554
N3 Y3 2.545022 1_555
N4 Y1 2.373027 1_654
N4 Y0 2.414038 1_554
N4 Y3 2.470200 1_555
N4 Y0 2.542027 1_555
N5 Y0 2.373027 1_455
N5 Y1 2.414038 1_555
N5 Y2 2.470200 1_555
N5 Y1 2.542027 1_554
N6 Y3 2.373027 1_456
N6 Y2 2.414038 1_556
N6 Y1 2.470200 1_555
N6 Y2 2.542027 1_555
N7 Y2 2.373027 1_655
N7 Y3 2.414038 1_555
N7 Y0 2.470200 1_555
N7 Y3 2.542027 1_556
