# generated using pymatgen
data_Mg6FeC
_symmetry_space_group_name_H-M   'P 1'
_cell_length_a   6.21783231
_cell_length_b   6.21783231
_cell_length_c   3.76208100
_cell_angle_alpha   90.00000000
_cell_angle_beta   90.00000000
_cell_angle_gamma   97.06997176
_symmetry_Int_Tables_number   1
_chemical_formula_structural   Mg6FeC
_chemical_formula_sum   'Mg6 Fe1 C1'
_cell_volume   144.34156573
_cell_formula_units_Z   1
loop_
 _symmetry_equiv_pos_site_id
 _symmetry_equiv_pos_as_xyz
  1  'x, y, z'
loop_
 _atom_site_type_symbol
 _atom_site_label
 _atom_site_symmetry_multiplicity
 _atom_site_fract_x
 _atom_site_fract_y
 _atom_site_fract_z
 _atom_site_occupancy
  Mg  Mg0  1  0.39335300  0.10672600  0.50000000  1
  Mg  Mg1  1  0.89327400  0.60664700  0.50000000  1
  Mg  Mg2  1  0.20316400  0.43413300  0.00000000  1
  Mg  Mg3  1  0.56586700  0.79683600  0.00000000  1
  Mg  Mg4  1  0.69989800  0.30010200  0.00000000  1
  Mg  Mg5  1  0.10082900  0.89917100  0.00000000  1
  Fe  Fe0  1  0.89490000  0.10510000  0.50000000  1
  C  C0  1  0.24871900  0.75128100  0.50000000  1
loop_
_geom_bond_atom_site_label_1
_geom_bond_atom_site_label_2
_geom_bond_distance
_geom_bond_site_symmetry_2
Fe0 Mg4 2.615429 1_555
Fe0 Mg4 2.615429 1_556
Fe0 Mg5 2.687175 1_645
Fe0 Mg5 2.687175 1_646
Fe0 Mg0 3.098069 1_655
Fe0 Mg1 3.098069 1_545
Fe0 Mg1 3.119796 1_555
Fe0 Mg0 3.119796 1_555
Fe0 Mg2 3.229934 1_656
Fe0 Mg2 3.229934 1_655
Fe0 Mg3 3.229934 1_546
Fe0 Mg3 3.229934 1_545
C0 Mg0 2.281233 1_565
C0 Mg1 2.281233 1_455
C0 Mg5 2.331872 1_556
C0 Mg5 2.331872 1_555
C0 Mg3 2.714724 1_555
C0 Mg2 2.714724 1_556
C0 Mg2 2.714724 1_555
C0 Mg3 2.714724 1_556
