# generated using pymatgen
data_La4CdIr
_symmetry_space_group_name_H-M   'P 1'
_cell_length_a   10.10833004
_cell_length_b   10.10845447
_cell_length_c   10.10843149
_cell_angle_alpha   59.99988381
_cell_angle_beta   60.00012655
_cell_angle_gamma   60.00001296
_symmetry_Int_Tables_number   1
_chemical_formula_structural   La4CdIr
_chemical_formula_sum   'La16 Cd4 Ir4'
_cell_volume   730.35334620
_cell_formula_units_Z   4
loop_
 _symmetry_equiv_pos_site_id
 _symmetry_equiv_pos_as_xyz
  1  'x, y, z'
loop_
 _atom_site_type_symbol
 _atom_site_label
 _atom_site_symmetry_multiplicity
 _atom_site_fract_x
 _atom_site_fract_y
 _atom_site_fract_z
 _atom_site_occupancy
  La  La0  1  0.59710015  0.59710196  0.59709992  1
  La  La1  1  0.59710075  0.59710182  0.20869670  1
  La  La2  1  0.59709796  0.20869558  0.59710341  1
  La  La3  1  0.20870161  0.59709850  0.59710021  1
  La  La4  1  0.05949357  0.44050779  0.44050712  1
  La  La5  1  0.44050822  0.05949228  0.05949174  1
  La  La6  1  0.44051001  0.05949181  0.44050676  1
  La  La7  1  0.05949416  0.44050627  0.05949097  1
  La  La8  1  0.44050784  0.44050428  0.05949356  1
  La  La9  1  0.05949486  0.05949278  0.44050443  1
  La  La10  1  0.19064852  0.80935062  0.80934681  1
  La  La11  1  0.80934607  0.19064961  0.19065396  1
  La  La12  1  0.80934539  0.19064954  0.80935123  1
  La  La13  1  0.19064805  0.80935185  0.19065324  1
  La  La14  1  0.80934622  0.80935222  0.19064962  1
  La  La15  1  0.19064236  0.19065704  0.80935211  1
  Cd  Cd0  1  0.82850283  0.82850293  0.82850152  1
  Cd  Cd1  1  0.82850663  0.82849403  0.51449897  1
  Cd  Cd2  1  0.82850188  0.51449828  0.82849625  1
  Cd  Cd3  1  0.51449556  0.82850104  0.82850211  1
  Ir  Ir0  1  0.39085445  0.39084812  0.39085055  1
  Ir  Ir1  1  0.39085045  0.39084953  0.82744703  1
  Ir  Ir2  1  0.39085140  0.82744797  0.39084927  1
  Ir  Ir3  1  0.82744907  0.39085117  0.39085150  1
loop_
_geom_bond_atom_site_label_1
_geom_bond_atom_site_label_2
_geom_bond_distance
_geom_bond_site_symmetry_2
Cd0 Cd3 3.174096 1_555
Cd0 Cd1 3.174099 1_555
Cd0 Cd2 3.174133 1_555
Cd0 La10 3.477872 1_655
Cd0 La12 3.477923 1_565
Cd0 La14 3.477932 1_556
Cd0 La2 3.633853 1_565
Cd0 La1 3.633870 1_556
Cd0 La3 3.633899 1_655
Cd0 La5 3.663697 1_566
Cd0 La7 3.663706 1_656
Cd0 La9 3.663718 1_665
Cd1 Cd2 3.174010 1_555
Cd1 Cd3 3.174109 1_555
Cd1 La13 3.477902 1_655
Cd1 La14 3.477988 1_555
Cd1 La11 3.477990 1_565
Cd1 La3 3.633812 1_655
Cd1 La0 3.633852 1_555
Cd1 La2 3.633928 1_565
Cd1 La4 3.663672 1_655
Cd1 La9 3.663711 1_665
Cd1 La6 3.663717 1_565
Cd2 Cd3 3.174082 1_555
Cd2 La15 3.477875 1_655
Cd2 La12 3.477985 1_555
Cd2 La11 3.478018 1_556
Cd2 La0 3.633828 1_555
Cd2 La3 3.633855 1_655
Cd2 La1 3.633911 1_556
Cd2 La4 3.663688 1_655
Cd2 La8 3.663709 1_556
Cd2 La7 3.663713 1_656
Cd3 La10 3.477952 1_555
Cd3 La13 3.477970 1_556
Cd3 La15 3.478021 1_565
Cd3 La2 3.633848 1_565
Cd3 La1 3.633851 1_556
Cd3 La0 3.633888 1_555
Cd3 La6 3.663704 1_565
Cd3 La5 3.663717 1_566
Cd3 La8 3.663736 1_556
Ir0 La4 2.934693 1_555
Ir0 La6 2.934702 1_555
Ir0 La8 2.934709 1_555
Ir0 La2 2.958440 1_555
Ir0 La1 2.958475 1_555
Ir0 La3 2.958498 1_555
Ir0 La11 3.613805 1_555
Ir0 La15 3.613901 1_555
Ir0 La13 3.613915 1_555
Ir1 La7 2.934676 1_556
Ir1 La5 2.934701 1_556
Ir1 La8 2.934714 1_556
Ir1 La3 2.958441 1_555
Ir1 La2 2.958477 1_555
Ir1 La0 2.958491 1_555
Ir1 La12 3.613818 1_555
Ir1 La15 3.613847 1_555
Ir1 La10 3.613905 1_555
Ir2 La9 2.934679 1_565
Ir2 La5 2.934700 1_565
Ir2 La6 2.934719 1_565
Ir2 La0 2.958464 1_555
Ir2 La3 2.958476 1_555
Ir2 La1 2.958488 1_555
Ir2 La14 3.613821 1_555
Ir2 La13 3.613839 1_555
Ir2 La10 3.613877 1_555
Ir3 La4 2.934674 1_655
Ir3 La9 2.934709 1_655
Ir3 La7 2.934721 1_655
Ir3 La1 2.958487 1_555
Ir3 La0 2.958491 1_555
Ir3 La2 2.958522 1_555
Ir3 La12 3.613872 1_555
Ir3 La14 3.613894 1_555
Ir3 La11 3.613903 1_555
