# generated using pymatgen
data_TiFe4
_symmetry_space_group_name_H-M   'P 1'
_cell_length_a   5.04764257
_cell_length_b   5.04764257
_cell_length_c   19.20956189
_cell_angle_alpha   82.42201500
_cell_angle_beta   82.42201500
_cell_angle_gamma   89.78547227
_symmetry_Int_Tables_number   1
_chemical_formula_structural   TiFe4
_chemical_formula_sum   'Ti8 Fe32'
_cell_volume   480.87636179
_cell_formula_units_Z   8
loop_
 _symmetry_equiv_pos_site_id
 _symmetry_equiv_pos_as_xyz
  1  'x, y, z'
loop_
 _atom_site_type_symbol
 _atom_site_label
 _atom_site_symmetry_multiplicity
 _atom_site_fract_x
 _atom_site_fract_y
 _atom_site_fract_z
 _atom_site_occupancy
  Ti  Ti0_0  1  0.00000000  0.00000000  0.00000000  1
  Ti  Ti0_1  1  0.00000000  0.00000000  0.50000000  1
  Ti  Ti0_2  1  0.00000000  0.50000000  0.00000000  1
  Ti  Ti0_3  1  0.00000000  0.50000000  0.50000000  1
  Ti  Ti0_4  1  0.50000000  0.00000000  0.00000000  1
  Ti  Ti0_5  1  0.50000000  1.00000000  0.50000000  1
  Ti  Ti0_6  1  0.50000000  0.50000000  0.00000000  1
  Ti  Ti0_7  1  0.50000000  0.50000000  0.50000000  1
  Fe  Fe0_0  1  0.19545400  0.19545400  0.10909150  1
  Fe  Fe0_1  1  0.19545400  0.19545400  0.60909150  1
  Fe  Fe0_2  1  0.19545400  0.69545400  0.10909150  1
  Fe  Fe0_3  1  0.19545400  0.69545400  0.60909150  1
  Fe  Fe0_4  1  0.69545400  0.19545400  0.10909150  1
  Fe  Fe0_5  1  0.69545400  0.19545400  0.60909150  1
  Fe  Fe0_6  1  0.69545400  0.69545400  0.10909150  1
  Fe  Fe0_7  1  0.69545400  0.69545400  0.60909150  1
  Fe  Fe1_0  1  0.39987650  0.39987650  0.20024750  1
  Fe  Fe1_1  1  0.39987650  0.39987650  0.70024750  1
  Fe  Fe1_2  1  0.39987650  0.89987650  0.20024750  1
  Fe  Fe1_3  1  0.39987650  0.89987650  0.70024750  1
  Fe  Fe1_4  1  0.89987650  0.39987650  0.20024750  1
  Fe  Fe1_5  1  0.89987650  0.39987650  0.70024750  1
  Fe  Fe1_6  1  0.89987650  0.89987650  0.20024750  1
  Fe  Fe1_7  1  0.89987650  0.89987650  0.70024750  1
  Fe  Fe2_0  1  0.10012350  0.10012350  0.29975250  1
  Fe  Fe2_1  1  0.10012350  0.10012350  0.79975250  1
  Fe  Fe2_2  1  0.10012350  0.60012350  0.29975250  1
  Fe  Fe2_3  1  0.10012350  0.60012350  0.79975250  1
  Fe  Fe2_4  1  0.60012350  0.10012350  0.29975250  1
  Fe  Fe2_5  1  0.60012350  0.10012350  0.79975250  1
  Fe  Fe2_6  1  0.60012350  0.60012350  0.29975250  1
  Fe  Fe2_7  1  0.60012350  0.60012350  0.79975250  1
  Fe  Fe3_0  1  0.30454600  0.30454600  0.39090850  1
  Fe  Fe3_1  1  0.30454600  0.30454600  0.89090850  1
  Fe  Fe3_2  1  0.30454600  0.80454600  0.39090850  1
  Fe  Fe3_3  1  0.30454600  0.80454600  0.89090850  1
  Fe  Fe3_4  1  0.80454600  0.30454600  0.39090850  1
  Fe  Fe3_5  1  0.80454600  0.30454600  0.89090850  1
  Fe  Fe3_6  1  0.80454600  0.80454600  0.39090850  1
  Fe  Fe3_7  1  0.80454600  0.80454600  0.89090850  1
loop_
_geom_bond_atom_site_label_1
_geom_bond_atom_site_label_2
_geom_bond_distance
_geom_bond_site_symmetry_2
Ti0_0 Ti0_2 2.523821 1_555
Ti0_0 Ti0_4 2.523821 1_455
Ti0_0 Ti0_2 2.523821 1_545
Ti0_0 Ti0_4 2.523821 1_555
Ti0_1 Ti0_5 2.523821 1_445
Ti0_1 Ti0_3 2.523821 1_545
Ti0_1 Ti0_5 2.523821 1_545
Ti0_1 Ti0_3 2.523821 1_555
Ti0_2 Ti0_6 2.523821 1_455
Ti0_2 Ti0_6 2.523821 1_555
Ti0_3 Ti0_7 2.523821 1_455
Ti0_3 Ti0_7 2.523821 1_555
Ti0_4 Ti0_6 2.523821 1_555
Ti0_4 Ti0_6 2.523821 1_545
Ti0_5 Ti0_7 2.523821 1_555
Ti0_5 Ti0_7 2.523821 1_565
Fe0_0 Fe1_4 2.476468 1_455
Fe0_0 Fe1_2 2.476468 1_545
Fe0_0 Fe1_6 2.481276 1_445
Fe0_0 Fe1_0 2.481281 1_555
Fe0_0 Fe0_4 2.523821 1_455
Fe0_0 Fe0_4 2.523821 1_555
Fe0_0 Fe0_2 2.523821 1_545
Fe0_0 Fe0_2 2.523821 1_555
Fe0_0 Ti0_2 2.722549 1_555
Fe0_0 Ti0_4 2.722549 1_555
Fe0_0 Ti0_0 2.726924 1_555
Fe0_0 Ti0_6 2.726927 1_555
Fe0_1 Fe1_3 2.476468 1_545
Fe0_1 Fe1_5 2.476468 1_455
Fe0_1 Fe1_7 2.481276 1_445
Fe0_1 Fe1_1 2.481281 1_555
Fe0_1 Fe0_5 2.523821 1_555
Fe0_1 Fe0_3 2.523821 1_555
Fe0_1 Fe0_3 2.523821 1_545
Fe0_1 Fe0_5 2.523821 1_455
Fe0_1 Ti0_5 2.722549 1_545
Fe0_1 Ti0_3 2.722549 1_555
Fe0_1 Ti0_1 2.726924 1_555
Fe0_1 Ti0_7 2.726927 1_555
Fe0_2 Fe1_6 2.476468 1_455
Fe0_2 Fe1_0 2.476468 1_555
Fe0_2 Fe1_4 2.481276 1_455
Fe0_2 Fe1_2 2.481281 1_555
Fe0_2 Fe0_6 2.523821 1_455
Fe0_2 Fe0_6 2.523821 1_555
Fe0_2 Ti0_6 2.722549 1_555
Fe0_2 Ti0_0 2.722549 1_565
Fe0_2 Ti0_2 2.726924 1_555
Fe0_2 Ti0_4 2.726927 1_565
Fe0_3 Fe1_7 2.476468 1_455
Fe0_3 Fe1_1 2.476468 1_555
Fe0_3 Fe1_5 2.481276 1_455
Fe0_3 Fe1_3 2.481281 1_555
Fe0_3 Fe0_7 2.523821 1_555
Fe0_3 Fe0_7 2.523821 1_455
Fe0_3 Ti0_7 2.722549 1_555
Fe0_3 Ti0_1 2.722549 1_565
Fe0_3 Ti0_3 2.726924 1_555
Fe0_3 Ti0_5 2.726927 1_555
Fe0_4 Fe1_0 2.476468 1_555
Fe0_4 Fe1_6 2.476468 1_545
Fe0_4 Fe1_2 2.481276 1_545
Fe0_4 Fe1_4 2.481281 1_555
Fe0_4 Fe0_6 2.523821 1_555
Fe0_4 Fe0_6 2.523821 1_545
Fe0_4 Ti0_6 2.722549 1_555
Fe0_4 Ti0_0 2.722549 1_655
Fe0_4 Ti0_4 2.726924 1_555
Fe0_4 Ti0_2 2.726927 1_655
Fe0_5 Fe1_1 2.476468 1_555
Fe0_5 Fe1_7 2.476468 1_545
Fe0_5 Fe1_3 2.481276 1_545
Fe0_5 Fe1_5 2.481281 1_555
Fe0_5 Fe0_7 2.523821 1_555
Fe0_5 Fe0_7 2.523821 1_545
Fe0_5 Ti0_7 2.722549 1_555
Fe0_5 Ti0_1 2.722549 1_655
Fe0_5 Ti0_5 2.726924 1_545
Fe0_5 Ti0_3 2.726927 1_655
Fe0_6 Fe1_2 2.476468 1_555
Fe0_6 Fe1_4 2.476468 1_555
Fe0_6 Fe1_0 2.481276 1_555
Fe0_6 Fe1_6 2.481281 1_555
Fe0_6 Ti0_4 2.722549 1_565
Fe0_6 Ti0_2 2.722549 1_655
Fe0_6 Ti0_6 2.726924 1_555
Fe0_6 Ti0_0 2.726927 1_665
Fe0_7 Fe1_5 2.476468 1_555
Fe0_7 Fe1_3 2.476468 1_555
Fe0_7 Fe1_1 2.481276 1_555
Fe0_7 Fe1_7 2.481281 1_555
Fe0_7 Ti0_3 2.722549 1_655
Fe0_7 Ti0_5 2.722549 1_555
Fe0_7 Ti0_7 2.726924 1_555
Fe0_7 Ti0_1 2.726927 1_665
Fe1_0 Fe1_2 2.523821 1_545
Fe1_0 Fe1_4 2.523821 1_455
Fe1_0 Fe1_2 2.523821 1_555
Fe1_0 Fe1_4 2.523821 1_555
Fe1_0 Fe2_4 2.588423 1_555
Fe1_0 Fe2_2 2.588423 1_555
Fe1_0 Fe2_6 2.593024 1_555
Fe1_0 Fe2_0 2.593029 1_555
Fe1_1 Fe1_5 2.523821 1_555
Fe1_1 Fe1_3 2.523821 1_545
Fe1_1 Fe1_3 2.523821 1_555
Fe1_1 Fe1_5 2.523821 1_455
Fe1_1 Fe2_5 2.588423 1_555
Fe1_1 Fe2_3 2.588423 1_555
Fe1_1 Fe2_7 2.593024 1_555
Fe1_1 Fe2_1 2.593029 1_555
Fe1_2 Fe1_6 2.523821 1_555
Fe1_2 Fe1_6 2.523821 1_455
Fe1_2 Fe2_6 2.588423 1_555
Fe1_2 Fe2_0 2.588423 1_565
Fe1_2 Fe2_4 2.593024 1_565
Fe1_2 Fe2_2 2.593029 1_555
Fe1_3 Fe1_7 2.523821 1_455
Fe1_3 Fe1_7 2.523821 1_555
Fe1_3 Fe2_1 2.588423 1_565
Fe1_3 Fe2_7 2.588423 1_555
Fe1_3 Fe2_5 2.593024 1_565
Fe1_3 Fe2_3 2.593029 1_555
Fe1_4 Fe1_6 2.523821 1_545
Fe1_4 Fe1_6 2.523821 1_555
Fe1_4 Fe2_0 2.588423 1_655
Fe1_4 Fe2_6 2.588423 1_555
Fe1_4 Fe2_2 2.593024 1_655
Fe1_4 Fe2_4 2.593029 1_555
Fe1_5 Fe1_7 2.523821 1_545
Fe1_5 Fe1_7 2.523821 1_555
Fe1_5 Fe2_1 2.588423 1_655
Fe1_5 Fe2_7 2.588423 1_555
Fe1_5 Fe2_3 2.593024 1_655
Fe1_5 Fe2_5 2.593029 1_555
Fe1_6 Fe2_2 2.588423 1_655
Fe1_6 Fe2_4 2.588423 1_565
Fe1_6 Fe2_0 2.593024 1_665
Fe1_6 Fe2_6 2.593029 1_555
Fe1_7 Fe2_5 2.588423 1_565
Fe1_7 Fe2_3 2.588423 1_655
Fe1_7 Fe2_1 2.593024 1_665
Fe1_7 Fe2_7 2.593029 1_555
Fe2_0 Fe3_4 2.476468 1_455
Fe2_0 Fe3_2 2.476468 1_545
Fe2_0 Fe3_6 2.481276 1_445
Fe2_0 Fe3_0 2.481281 1_555
Fe2_0 Fe2_4 2.523821 1_455
Fe2_0 Fe2_2 2.523821 1_555
Fe2_0 Fe2_2 2.523821 1_545
Fe2_0 Fe2_4 2.523821 1_555
Fe2_1 Fe3_5 2.476468 1_455
Fe2_1 Fe3_3 2.476468 1_545
Fe2_1 Fe3_7 2.481276 1_445
Fe2_1 Fe3_1 2.481281 1_555
Fe2_1 Fe2_5 2.523821 1_455
Fe2_1 Fe2_3 2.523821 1_555
Fe2_1 Fe2_3 2.523821 1_545
Fe2_1 Fe2_5 2.523821 1_555
Fe2_2 Fe3_6 2.476468 1_455
Fe2_2 Fe3_0 2.476468 1_555
Fe2_2 Fe3_4 2.481276 1_455
Fe2_2 Fe3_2 2.481281 1_555
Fe2_2 Fe2_6 2.523821 1_555
Fe2_2 Fe2_6 2.523821 1_455
Fe2_3 Fe3_7 2.476468 1_455
Fe2_3 Fe3_1 2.476468 1_555
Fe2_3 Fe3_5 2.481276 1_455
Fe2_3 Fe3_3 2.481281 1_555
Fe2_3 Fe2_7 2.523821 1_555
Fe2_3 Fe2_7 2.523821 1_455
Fe2_4 Fe3_6 2.476468 1_545
Fe2_4 Fe3_0 2.476468 1_555
Fe2_4 Fe3_2 2.481276 1_545
Fe2_4 Fe3_4 2.481281 1_555
Fe2_4 Fe2_6 2.523821 1_555
Fe2_4 Fe2_6 2.523821 1_545
Fe2_5 Fe3_7 2.476468 1_545
Fe2_5 Fe3_1 2.476468 1_555
Fe2_5 Fe3_3 2.481276 1_545
Fe2_5 Fe3_5 2.481281 1_555
Fe2_5 Fe2_7 2.523821 1_545
Fe2_5 Fe2_7 2.523821 1_555
Fe2_6 Fe3_2 2.476468 1_555
Fe2_6 Fe3_4 2.476468 1_555
Fe2_6 Fe3_0 2.481276 1_555
Fe2_6 Fe3_6 2.481281 1_555
Fe2_7 Fe3_5 2.476468 1_555
Fe2_7 Fe3_3 2.476468 1_555
Fe2_7 Fe3_1 2.481276 1_555
Fe2_7 Fe3_7 2.481281 1_555
Fe3_0 Fe3_4 2.523821 1_455
Fe3_0 Fe3_2 2.523821 1_545
Fe3_0 Fe3_2 2.523821 1_555
Fe3_0 Fe3_4 2.523821 1_555
Fe3_0 Ti0_5 2.722549 1_545
Fe3_0 Ti0_3 2.722549 1_555
Fe3_0 Ti0_7 2.726924 1_555
Fe3_0 Ti0_1 2.726927 1_555
Fe3_1 Fe3_5 2.523821 1_455
Fe3_1 Fe3_3 2.523821 1_545
Fe3_1 Fe3_3 2.523821 1_555
Fe3_1 Fe3_5 2.523821 1_555
Fe3_1 Ti0_4 2.722549 1_556
Fe3_1 Ti0_2 2.722549 1_556
Fe3_1 Ti0_6 2.726924 1_556
Fe3_1 Ti0_0 2.726927 1_556
Fe3_2 Fe3_6 2.523821 1_455
Fe3_2 Fe3_6 2.523821 1_555
Fe3_2 Ti0_1 2.722549 1_565
Fe3_2 Ti0_7 2.722549 1_555
Fe3_2 Ti0_5 2.726924 1_555
Fe3_2 Ti0_3 2.726927 1_555
Fe3_3 Fe3_7 2.523821 1_455
Fe3_3 Fe3_7 2.523821 1_555
Fe3_3 Ti0_6 2.722549 1_556
Fe3_3 Ti0_0 2.722549 1_566
Fe3_3 Ti0_4 2.726924 1_566
Fe3_3 Ti0_2 2.726927 1_556
Fe3_4 Fe3_6 2.523821 1_555
Fe3_4 Fe3_6 2.523821 1_545
Fe3_4 Ti0_1 2.722549 1_655
Fe3_4 Ti0_7 2.722549 1_555
Fe3_4 Ti0_3 2.726924 1_655
Fe3_4 Ti0_5 2.726927 1_545
Fe3_5 Fe3_7 2.523821 1_545
Fe3_5 Fe3_7 2.523821 1_555
Fe3_5 Ti0_0 2.722549 1_656
Fe3_5 Ti0_6 2.722549 1_556
Fe3_5 Ti0_2 2.726924 1_656
Fe3_5 Ti0_4 2.726927 1_556
Fe3_6 Ti0_5 2.722549 1_555
Fe3_6 Ti0_3 2.722549 1_655
Fe3_6 Ti0_1 2.726924 1_665
Fe3_6 Ti0_7 2.726927 1_555
Fe3_7 Ti0_2 2.722549 1_656
Fe3_7 Ti0_4 2.722549 1_566
Fe3_7 Ti0_0 2.726924 1_666
Fe3_7 Ti0_6 2.726927 1_556
