# generated using pymatgen
data_Sr4Tm8MgO16
_symmetry_space_group_name_H-M   'P 1'
_cell_length_a   3.35420992
_cell_length_b   10.74782879
_cell_length_c   12.15807245
_cell_angle_alpha   95.02285321
_cell_angle_beta   90.00000000
_cell_angle_gamma   90.00000000
_symmetry_Int_Tables_number   1
_chemical_formula_structural   Sr4Tm8MgO16
_chemical_formula_sum   'Sr4 Tm8 Mg1 O16'
_cell_volume   436.62112220
_cell_formula_units_Z   1
loop_
 _symmetry_equiv_pos_site_id
 _symmetry_equiv_pos_as_xyz
  1  'x, y, z'
loop_
 _atom_site_type_symbol
 _atom_site_label
 _atom_site_symmetry_multiplicity
 _atom_site_fract_x
 _atom_site_fract_y
 _atom_site_fract_z
 _atom_site_occupancy
  Sr  Sr0  1  0.75000000  0.76243312  0.36435000  1
  Sr  Sr1  1  0.25000000  0.30024382  0.57987825  1
  Sr  Sr2  1  0.75000000  0.25656819  0.09358521  1
  Sr  Sr3  1  0.25000000  0.72514482  0.85599240  1
  Tm  Tm0  1  0.25000000  0.07231992  0.39570738  1
  Tm  Tm1  1  0.75000000  0.94475230  0.61880598  1
  Tm  Tm2  1  0.25000000  0.56783643  0.09899348  1
  Tm  Tm3  1  0.75000000  0.43734828  0.86026294  1
  Tm  Tm4  1  0.75000000  0.44051958  0.36597571  1
  Tm  Tm5  1  0.25000000  0.60613320  0.59614976  1
  Tm  Tm6  1  0.75000000  0.90645690  0.13733697  1
  Tm  Tm7  1  0.25000000  0.01003333  0.92605940  1
  Mg  Mg0  1  0.25000000  0.19169466  0.79479134  1
  O  O0  1  0.25000000  0.04981459  0.10385227  1
  O  O1  1  0.75000000  0.87946783  0.94741522  1
  O  O2  1  0.25000000  0.59304821  0.40655323  1
  O  O3  1  0.75000000  0.46540032  0.55178595  1
  O  O4  1  0.25000000  0.99852217  0.73726622  1
  O  O5  1  0.75000000  0.98557227  0.30470651  1
  O  O6  1  0.25000000  0.52091727  0.76561602  1
  O  O7  1  0.75000000  0.48811419  0.19113238  1
  O  O8  1  0.25000000  0.38507617  0.98685051  1
  O  O9  1  0.75000000  0.61057393  0.97593691  1
  O  O10  1  0.25000000  0.89473445  0.49250147  1
  O  O11  1  0.75000000  0.12260330  0.52019583  1
  O  O12  1  0.75000000  0.14590402  0.90813090  1
  O  O13  1  0.25000000  0.77350851  0.17641204  1
  O  O14  1  0.75000000  0.73533149  0.65562939  1
  O  O15  1  0.25000000  0.29867675  0.36034833  1
loop_
_geom_bond_atom_site_label_1
_geom_bond_atom_site_label_2
_geom_bond_distance
_geom_bond_site_symmetry_2
Mg0 O4 2.132001 1_545
Mg0 O12 2.252222 1_455
Mg0 O12 2.252222 1_555
Mg0 Sr1 2.953355 1_555
O0 Tm7 2.166464 1_554
O0 Tm6 2.337151 1_445
O0 Tm6 2.337151 1_545
O0 Sr2 2.795496 1_555
O0 Sr2 2.795496 1_455
O1 Tm7 2.216560 1_665
O1 Tm7 2.216560 1_565
O1 Tm6 2.301894 1_556
O1 Sr3 2.544881 1_555
O1 Sr3 2.544881 1_655
O2 Tm5 2.297091 1_555
O2 Tm4 2.366838 1_455
O2 Tm4 2.366838 1_555
O2 Sr0 2.560044 1_555
O2 Sr0 2.560044 1_455
O3 Tm4 2.251496 1_555
O3 Tm5 2.290988 1_555
O3 Tm5 2.290988 1_655
O3 Sr1 2.487245 1_555
O3 Sr1 2.487245 1_655
O4 Tm1 2.252827 1_455
O4 Tm1 2.252827 1_555
O4 Tm7 2.287851 1_565
O5 Tm6 2.135611 1_555
O5 Tm0 2.173807 1_665
O5 Tm0 2.173807 1_565
O5 Sr0 2.565546 1_555
O6 Tm3 2.263751 1_455
O6 Tm3 2.263751 1_555
O6 Tm5 2.326900 1_555
O6 Sr3 2.367080 1_555
O6 Sr1 3.128405 1_555
O7 Tm2 2.229317 1_655
O7 Tm2 2.229317 1_555
O7 Tm4 2.229558 1_555
O7 Sr2 2.661382 1_555
O8 Tm2 2.290936 1_556
O8 Tm3 2.376642 1_455
O8 Tm3 2.376642 1_555
O8 Sr2 2.591947 1_456
O8 Sr2 2.591947 1_556
O9 Tm3 2.232865 1_555
O9 Tm2 2.320003 1_656
O9 Tm2 2.320003 1_556
O9 Sr3 2.601934 1_555
O9 Sr3 2.601934 1_655
O10 Tm1 2.305482 1_455
O10 Tm1 2.305482 1_555
O10 Tm0 2.328352 1_565
O10 Sr0 2.621884 1_455
O10 Sr0 2.621884 1_555
O11 Tm0 2.291795 1_655
O11 Tm0 2.291795 1_555
O11 Tm1 2.343621 1_545
O11 Sr1 2.596508 1_555
O11 Sr1 2.596508 1_655
O12 Tm7 2.246876 1_655
O12 Tm7 2.246876 1_555
O12 Sr2 2.455411 1_556
O13 Tm6 2.280137 1_555
O13 Tm6 2.280137 1_455
O13 Tm2 2.325525 1_555
O13 Sr0 2.845266 1_455
O13 Sr0 2.845266 1_555
O14 Tm5 2.255663 1_555
O14 Tm5 2.255663 1_655
O14 Tm1 2.333040 1_555
O14 Sr3 2.967424 1_555
O14 Sr3 2.967424 1_655
O15 Tm4 2.263450 1_455
O15 Tm4 2.263450 1_555
O15 Tm0 2.507326 1_555
O15 Sr1 2.667639 1_555
