# generated using pymatgen
data_CaMg
_symmetry_space_group_name_H-M   'P 1'
_cell_length_a   7.28910466
_cell_length_b   7.28910466
_cell_length_c   34.10882600
_cell_angle_alpha   90.00000000
_cell_angle_beta   90.00000000
_cell_angle_gamma   120.00000601
_symmetry_Int_Tables_number   1
_chemical_formula_structural   CaMg
_chemical_formula_sum   'Ca24 Mg24'
_cell_volume   1569.44373009
_cell_formula_units_Z   24
loop_
 _symmetry_equiv_pos_site_id
 _symmetry_equiv_pos_as_xyz
  1  'x, y, z'
loop_
 _atom_site_type_symbol
 _atom_site_label
 _atom_site_symmetry_multiplicity
 _atom_site_fract_x
 _atom_site_fract_y
 _atom_site_fract_z
 _atom_site_occupancy
  Ca  Ca0_0  1  0.16666650  0.33333350  0.42108250  1
  Ca  Ca0_1  1  0.16666650  0.33333350  0.92108250  1
  Ca  Ca0_2  1  0.16666650  0.83333350  0.42108250  1
  Ca  Ca0_3  1  0.16666650  0.83333350  0.92108250  1
  Ca  Ca0_4  1  0.66666650  0.33333350  0.42108250  1
  Ca  Ca0_5  1  0.66666650  0.33333350  0.92108250  1
  Ca  Ca0_6  1  0.66666650  0.83333350  0.42108250  1
  Ca  Ca0_7  1  0.66666650  0.83333350  0.92108250  1
  Ca  Ca1_0  1  0.00000000  0.00000000  0.32652000  1
  Ca  Ca1_1  1  0.00000000  0.00000000  0.82652000  1
  Ca  Ca1_2  1  0.00000000  0.50000000  0.32652000  1
  Ca  Ca1_3  1  0.00000000  0.50000000  0.82652000  1
  Ca  Ca1_4  1  0.50000000  0.00000000  0.32652000  1
  Ca  Ca1_5  1  0.50000000  0.00000000  0.82652000  1
  Ca  Ca1_6  1  0.50000000  0.50000000  0.32652000  1
  Ca  Ca1_7  1  0.50000000  0.50000000  0.82652000  1
  Ca  Ca2_0  1  0.16666650  0.33333350  0.08588050  1
  Ca  Ca2_1  1  0.16666650  0.33333350  0.58588050  1
  Ca  Ca2_2  1  0.16666650  0.83333350  0.08588050  1
  Ca  Ca2_3  1  0.16666650  0.83333350  0.58588050  1
  Ca  Ca2_4  1  0.66666650  0.33333350  0.08588050  1
  Ca  Ca2_5  1  0.66666650  0.33333350  0.58588050  1
  Ca  Ca2_6  1  0.66666650  0.83333350  0.08588050  1
  Ca  Ca2_7  1  0.66666650  0.83333350  0.58588050  1
  Mg  Mg0_0  1  0.00000000  0.00000000  0.00334550  1
  Mg  Mg0_1  1  0.00000000  0.00000000  0.50334550  1
  Mg  Mg0_2  1  0.00000000  0.50000000  0.00334550  1
  Mg  Mg0_3  1  0.00000000  0.50000000  0.50334550  1
  Mg  Mg0_4  1  0.50000000  0.00000000  0.00334550  1
  Mg  Mg0_5  1  0.50000000  0.00000000  0.50334550  1
  Mg  Mg0_6  1  0.50000000  0.50000000  0.00334550  1
  Mg  Mg0_7  1  0.50000000  0.50000000  0.50334550  1
  Mg  Mg1_0  1  0.16666650  0.33333350  0.24389850  1
  Mg  Mg1_1  1  0.16666650  0.33333350  0.74389850  1
  Mg  Mg1_2  1  0.16666650  0.83333350  0.24389850  1
  Mg  Mg1_3  1  0.16666650  0.83333350  0.74389850  1
  Mg  Mg1_4  1  0.66666650  0.33333350  0.24389850  1
  Mg  Mg1_5  1  0.66666650  0.33333350  0.74389850  1
  Mg  Mg1_6  1  0.66666650  0.83333350  0.24389850  1
  Mg  Mg1_7  1  0.66666650  0.83333350  0.74389850  1
  Mg  Mg2_0  1  0.00000000  0.00000000  0.16927350  1
  Mg  Mg2_1  1  0.00000000  0.00000000  0.66927350  1
  Mg  Mg2_2  1  0.00000000  0.50000000  0.16927350  1
  Mg  Mg2_3  1  0.00000000  0.50000000  0.66927350  1
  Mg  Mg2_4  1  0.50000000  0.00000000  0.16927350  1
  Mg  Mg2_5  1  0.50000000  0.00000000  0.66927350  1
  Mg  Mg2_6  1  0.50000000  0.50000000  0.16927350  1
  Mg  Mg2_7  1  0.50000000  0.50000000  0.66927350  1
loop_
_geom_bond_atom_site_label_1
_geom_bond_atom_site_label_2
_geom_bond_distance
_geom_bond_site_symmetry_2
Ca0_0 Mg0_3 3.507224 1_555
Ca0_0 Mg0_1 3.507226 1_555
Ca0_0 Mg0_7 3.507226 1_555
Ca0_0 Ca0_6 3.644552 1_555
Ca0_0 Ca0_6 3.644552 1_445
Ca0_0 Ca0_2 3.644552 1_555
Ca0_0 Ca0_4 3.644552 1_455
Ca0_0 Ca0_2 3.644552 1_545
Ca0_0 Ca0_4 3.644552 1_555
Ca0_0 Ca1_2 3.851089 1_555
Ca0_0 Ca1_0 3.851091 1_555
Ca0_0 Ca1_6 3.851091 1_555
Ca0_1 Mg0_2 3.507224 1_556
Ca0_1 Mg0_0 3.507226 1_556
Ca0_1 Mg0_6 3.507226 1_556
Ca0_1 Ca0_7 3.644552 1_445
Ca0_1 Ca0_7 3.644552 1_555
Ca0_1 Ca0_3 3.644552 1_555
Ca0_1 Ca0_5 3.644552 1_455
Ca0_1 Ca0_5 3.644552 1_555
Ca0_1 Ca0_3 3.644552 1_545
Ca0_1 Ca1_3 3.851089 1_555
Ca0_1 Ca1_7 3.851091 1_555
Ca0_1 Ca1_1 3.851091 1_555
Ca0_2 Mg0_1 3.507224 1_565
Ca0_2 Mg0_3 3.507226 1_555
Ca0_2 Mg0_5 3.507226 1_565
Ca0_2 Ca0_4 3.644552 1_455
Ca0_2 Ca0_4 3.644552 1_565
Ca0_2 Ca0_6 3.644552 1_455
Ca0_2 Ca0_6 3.644552 1_555
Ca0_2 Ca1_0 3.851089 1_565
Ca0_2 Ca1_4 3.851091 1_565
Ca0_2 Ca1_2 3.851091 1_555
Ca0_3 Mg0_0 3.507224 1_566
Ca0_3 Mg0_2 3.507226 1_556
Ca0_3 Mg0_4 3.507226 1_566
Ca0_3 Ca0_5 3.644552 1_455
Ca0_3 Ca0_5 3.644552 1_565
Ca0_3 Ca0_7 3.644552 1_455
Ca0_3 Ca0_7 3.644552 1_555
Ca0_3 Ca1_1 3.851089 1_565
Ca0_3 Ca1_5 3.851091 1_565
Ca0_3 Ca1_3 3.851091 1_555
Ca0_4 Mg0_7 3.507224 1_555
Ca0_4 Mg0_3 3.507226 1_655
Ca0_4 Mg0_5 3.507226 1_555
Ca0_4 Ca0_6 3.644552 1_555
Ca0_4 Ca0_6 3.644552 1_545
Ca0_4 Ca1_6 3.851089 1_555
Ca0_4 Ca1_4 3.851091 1_555
Ca0_4 Ca1_2 3.851091 1_655
Ca0_5 Mg0_6 3.507224 1_556
Ca0_5 Mg0_2 3.507226 1_656
Ca0_5 Mg0_4 3.507226 1_556
Ca0_5 Ca0_7 3.644552 1_555
Ca0_5 Ca0_7 3.644552 1_545
Ca0_5 Ca1_7 3.851089 1_555
Ca0_5 Ca1_5 3.851091 1_555
Ca0_5 Ca1_3 3.851091 1_655
Ca0_6 Mg0_5 3.507224 1_565
Ca0_6 Mg0_7 3.507226 1_555
Ca0_6 Mg0_1 3.507226 1_665
Ca0_6 Ca1_4 3.851089 1_565
Ca0_6 Ca1_6 3.851091 1_555
Ca0_6 Ca1_0 3.851091 1_665
Ca0_7 Mg0_4 3.507224 1_566
Ca0_7 Mg0_6 3.507226 1_556
Ca0_7 Mg0_0 3.507226 1_666
Ca0_7 Ca1_5 3.851089 1_565
Ca0_7 Ca1_7 3.851091 1_555
Ca0_7 Ca1_1 3.851091 1_665
Ca1_0 Mg1_2 3.517015 1_545
Ca1_0 Mg1_6 3.517016 1_445
Ca1_0 Mg1_0 3.517016 1_555
Ca1_0 Ca1_6 3.644552 1_445
Ca1_0 Ca1_6 3.644552 1_555
Ca1_0 Ca1_2 3.644552 1_545
Ca1_0 Ca1_2 3.644552 1_555
Ca1_0 Ca1_4 3.644552 1_455
Ca1_0 Ca1_4 3.644552 1_555
Ca1_1 Mg1_3 3.517015 1_545
Ca1_1 Mg1_7 3.517016 1_445
Ca1_1 Mg1_1 3.517016 1_555
Ca1_1 Ca1_7 3.644552 1_555
Ca1_1 Ca1_7 3.644552 1_445
Ca1_1 Ca1_5 3.644552 1_555
Ca1_1 Ca1_3 3.644552 1_555
Ca1_1 Ca1_3 3.644552 1_545
Ca1_1 Ca1_5 3.644552 1_455
Ca1_2 Mg1_0 3.517015 1_555
Ca1_2 Mg1_4 3.517016 1_455
Ca1_2 Mg1_2 3.517016 1_555
Ca1_2 Ca1_4 3.644552 1_565
Ca1_2 Ca1_4 3.644552 1_455
Ca1_2 Ca1_6 3.644552 1_455
Ca1_2 Ca1_6 3.644552 1_555
Ca1_3 Mg1_1 3.517015 1_555
Ca1_3 Mg1_5 3.517016 1_455
Ca1_3 Mg1_3 3.517016 1_555
Ca1_3 Ca1_5 3.644552 1_565
Ca1_3 Ca1_5 3.644552 1_455
Ca1_3 Ca1_7 3.644552 1_455
Ca1_3 Ca1_7 3.644552 1_555
Ca1_4 Mg1_6 3.517015 1_545
Ca1_4 Mg1_2 3.517016 1_545
Ca1_4 Mg1_4 3.517016 1_555
Ca1_4 Ca1_6 3.644552 1_545
Ca1_4 Ca1_6 3.644552 1_555
Ca1_5 Mg1_7 3.517015 1_545
Ca1_5 Mg1_3 3.517016 1_545
Ca1_5 Mg1_5 3.517016 1_555
Ca1_5 Ca1_7 3.644552 1_555
Ca1_5 Ca1_7 3.644552 1_545
Ca1_6 Mg1_4 3.517015 1_555
Ca1_6 Mg1_6 3.517016 1_555
Ca1_6 Mg1_0 3.517016 1_555
Ca1_7 Mg1_5 3.517015 1_555
Ca1_7 Mg1_1 3.517016 1_555
Ca1_7 Mg1_7 3.517016 1_555
Ca2_0 Mg0_2 3.514651 1_555
Ca2_0 Mg0_0 3.514653 1_555
Ca2_0 Mg0_6 3.514653 1_555
Ca2_0 Mg2_2 3.538135 1_555
Ca2_0 Mg2_0 3.538137 1_555
Ca2_0 Mg2_6 3.538137 1_555
Ca2_0 Ca2_6 3.644552 1_445
Ca2_0 Ca2_6 3.644552 1_555
Ca2_0 Ca2_2 3.644552 1_555
Ca2_0 Ca2_4 3.644552 1_455
Ca2_0 Ca2_2 3.644552 1_545
Ca2_0 Ca2_4 3.644552 1_555
Ca2_1 Mg0_3 3.514651 1_555
Ca2_1 Mg0_7 3.514653 1_555
Ca2_1 Mg0_1 3.514653 1_555
Ca2_1 Mg2_3 3.538135 1_555
Ca2_1 Mg2_1 3.538137 1_555
Ca2_1 Mg2_7 3.538137 1_555
Ca2_1 Ca2_7 3.644552 1_445
Ca2_1 Ca2_7 3.644552 1_555
Ca2_1 Ca2_3 3.644552 1_555
Ca2_1 Ca2_5 3.644552 1_455
Ca2_1 Ca2_5 3.644552 1_555
Ca2_1 Ca2_3 3.644552 1_545
Ca2_2 Mg0_0 3.514651 1_565
Ca2_2 Mg0_2 3.514653 1_555
Ca2_2 Mg0_4 3.514653 1_565
Ca2_2 Mg2_0 3.538135 1_565
Ca2_2 Mg2_2 3.538137 1_555
Ca2_2 Mg2_4 3.538137 1_565
Ca2_2 Ca2_4 3.644552 1_455
Ca2_2 Ca2_4 3.644552 1_565
Ca2_2 Ca2_6 3.644552 1_455
Ca2_2 Ca2_6 3.644552 1_555
Ca2_3 Mg0_1 3.514651 1_565
Ca2_3 Mg0_3 3.514653 1_555
Ca2_3 Mg0_5 3.514653 1_565
Ca2_3 Mg2_1 3.538135 1_565
Ca2_3 Mg2_3 3.538137 1_555
Ca2_3 Mg2_5 3.538137 1_565
Ca2_3 Ca2_5 3.644552 1_455
Ca2_3 Ca2_5 3.644552 1_565
Ca2_3 Ca2_7 3.644552 1_455
Ca2_3 Ca2_7 3.644552 1_555
Ca2_4 Mg0_6 3.514651 1_555
Ca2_4 Mg0_2 3.514653 1_655
Ca2_4 Mg0_4 3.514653 1_555
Ca2_4 Mg2_6 3.538135 1_555
Ca2_4 Mg2_2 3.538137 1_655
Ca2_4 Mg2_4 3.538137 1_555
Ca2_4 Ca2_6 3.644552 1_555
Ca2_4 Ca2_6 3.644552 1_545
Ca2_5 Mg0_7 3.514651 1_555
Ca2_5 Mg0_3 3.514653 1_655
Ca2_5 Mg0_5 3.514653 1_555
Ca2_5 Mg2_7 3.538135 1_555
Ca2_5 Mg2_3 3.538137 1_655
Ca2_5 Mg2_5 3.538137 1_555
Ca2_5 Ca2_7 3.644552 1_555
Ca2_5 Ca2_7 3.644552 1_545
Ca2_6 Mg0_4 3.514651 1_565
Ca2_6 Mg0_0 3.514653 1_665
Ca2_6 Mg0_6 3.514653 1_555
Ca2_6 Mg2_4 3.538135 1_565
Ca2_6 Mg2_6 3.538137 1_555
Ca2_6 Mg2_0 3.538137 1_665
Ca2_7 Mg0_5 3.514651 1_565
Ca2_7 Mg0_7 3.514653 1_555
Ca2_7 Mg0_1 3.514653 1_665
Ca2_7 Mg2_5 3.538135 1_565
Ca2_7 Mg2_1 3.538137 1_665
Ca2_7 Mg2_7 3.538137 1_555
Mg1_0 Mg2_2 3.302498 1_555
Mg1_0 Mg2_6 3.302500 1_555
Mg1_0 Mg2_0 3.302500 1_555
Mg1_1 Mg2_3 3.302498 1_555
Mg1_1 Mg2_7 3.302500 1_555
Mg1_1 Mg2_1 3.302500 1_555
Mg1_2 Mg2_0 3.302498 1_565
Mg1_2 Mg2_2 3.302500 1_555
Mg1_2 Mg2_4 3.302500 1_565
Mg1_3 Mg2_1 3.302498 1_565
Mg1_3 Mg2_3 3.302500 1_555
Mg1_3 Mg2_5 3.302500 1_565
Mg1_4 Mg2_6 3.302498 1_555
Mg1_4 Mg2_2 3.302500 1_655
Mg1_4 Mg2_4 3.302500 1_555
Mg1_5 Mg2_7 3.302498 1_555
Mg1_5 Mg2_5 3.302500 1_555
Mg1_5 Mg2_3 3.302500 1_655
Mg1_6 Mg2_4 3.302498 1_565
Mg1_6 Mg2_0 3.302500 1_665
Mg1_6 Mg2_6 3.302500 1_555
Mg1_7 Mg2_5 3.302498 1_565
Mg1_7 Mg2_1 3.302500 1_665
Mg1_7 Mg2_7 3.302500 1_555
