# generated using pymatgen
data_BP3(PbO4)3
_symmetry_space_group_name_H-M   'P 1'
_cell_length_a   7.09329700
_cell_length_b   14.23591800
_cell_length_c   21.89281600
_cell_angle_alpha   90.00000000
_cell_angle_beta   90.00000000
_cell_angle_gamma   90.00000000
_symmetry_Int_Tables_number   1
_chemical_formula_structural   BP3(PbO4)3
_chemical_formula_sum   'B8 P24 Pb24 O96'
_cell_volume   2210.72768087
_cell_formula_units_Z   8
loop_
 _symmetry_equiv_pos_site_id
 _symmetry_equiv_pos_as_xyz
  1  'x, y, z'
loop_
 _atom_site_type_symbol
 _atom_site_label
 _atom_site_symmetry_multiplicity
 _atom_site_fract_x
 _atom_site_fract_y
 _atom_site_fract_z
 _atom_site_occupancy
  B  B0  1  0.78520600  0.49494900  0.16563200  1
  B  B1  1  0.28520600  0.50505100  0.33436800  1
  B  B2  1  0.21479400  0.00505100  0.66563200  1
  B  B3  1  0.71479400  0.99494900  0.83436800  1
  B  B4  1  0.21479400  0.50505100  0.83436800  1
  B  B5  1  0.71479400  0.49494900  0.66563200  1
  B  B6  1  0.78520600  0.99494900  0.33436800  1
  B  B7  1  0.28520600  0.00505100  0.16563200  1
  P  P0  1  0.96391500  0.37929000  0.08118500  1
  P  P1  1  0.46391500  0.62071000  0.41881500  1
  P  P2  1  0.03608500  0.12071000  0.58118500  1
  P  P3  1  0.53608500  0.87929000  0.91881500  1
  P  P4  1  0.03608500  0.62071000  0.91881500  1
  P  P5  1  0.53608500  0.37929000  0.58118500  1
  P  P6  1  0.96391500  0.87929000  0.41881500  1
  P  P7  1  0.46391500  0.12071000  0.08118500  1
  P  P8  1  0.61673500  0.13076900  0.40847200  1
  P  P9  1  0.11673500  0.86923100  0.09152800  1
  P  P10  1  0.38326500  0.36923100  0.90847200  1
  P  P11  1  0.88326500  0.63076900  0.59152800  1
  P  P12  1  0.38326500  0.86923100  0.59152800  1
  P  P13  1  0.88326500  0.13076900  0.90847200  1
  P  P14  1  0.61673500  0.63076900  0.09152800  1
  P  P15  1  0.11673500  0.36923100  0.40847200  1
  P  P16  1  0.01498400  0.58790200  0.25998600  1
  P  P17  1  0.51498400  0.41209800  0.24001400  1
  P  P18  1  0.98501600  0.91209800  0.75998600  1
  P  P19  1  0.48501600  0.08790200  0.74001400  1
  P  P20  1  0.98501600  0.41209800  0.74001400  1
  P  P21  1  0.48501600  0.58790200  0.75998600  1
  P  P22  1  0.01498400  0.08790200  0.24001400  1
  P  P23  1  0.51498400  0.91209800  0.25998600  1
  Pb  Pb0  1  0.65111500  0.37255800  0.42347000  1
  Pb  Pb1  1  0.15111500  0.62744200  0.07653000  1
  Pb  Pb2  1  0.34888500  0.12744200  0.92347000  1
  Pb  Pb3  1  0.84888500  0.87255800  0.57653000  1
  Pb  Pb4  1  0.34888500  0.62744200  0.57653000  1
  Pb  Pb5  1  0.84888500  0.37255800  0.92347000  1
  Pb  Pb6  1  0.65111500  0.87255800  0.07653000  1
  Pb  Pb7  1  0.15111500  0.12744200  0.42347000  1
  Pb  Pb8  1  0.42071900  0.36257200  0.05761600  1
  Pb  Pb9  1  0.92071900  0.63742800  0.44238400  1
  Pb  Pb10  1  0.57928100  0.13742800  0.55761600  1
  Pb  Pb11  1  0.07928100  0.86257200  0.94238400  1
  Pb  Pb12  1  0.57928100  0.63742800  0.94238400  1
  Pb  Pb13  1  0.07928100  0.36257200  0.55761600  1
  Pb  Pb14  1  0.42071900  0.86257200  0.44238400  1
  Pb  Pb15  1  0.92071900  0.13742800  0.05761600  1
  Pb  Pb16  1  0.00873500  0.31822500  0.24630500  1
  Pb  Pb17  1  0.50873500  0.68177500  0.25369500  1
  Pb  Pb18  1  0.99126500  0.18177500  0.74630500  1
  Pb  Pb19  1  0.49126500  0.81822500  0.75369500  1
  Pb  Pb20  1  0.99126500  0.68177500  0.75369500  1
  Pb  Pb21  1  0.49126500  0.31822500  0.74630500  1
  Pb  Pb22  1  0.00873500  0.81822500  0.25369500  1
  Pb  Pb23  1  0.50873500  0.18177500  0.24630500  1
  O  O0  1  0.11271600  0.45621100  0.06838600  1
  O  O1  1  0.61271600  0.54378900  0.43161400  1
  O  O2  1  0.88728400  0.04378900  0.56838600  1
  O  O3  1  0.38728400  0.95621100  0.93161400  1
  O  O4  1  0.88728400  0.54378900  0.93161400  1
  O  O5  1  0.38728400  0.45621100  0.56838600  1
  O  O6  1  0.11271600  0.95621100  0.43161400  1
  O  O7  1  0.61271600  0.04378900  0.06838600  1
  O  O8  1  0.81480900  0.36949700  0.03052600  1
  O  O9  1  0.31480900  0.63050300  0.46947400  1
  O  O10  1  0.18519100  0.13050300  0.53052600  1
  O  O11  1  0.68519100  0.86949700  0.96947400  1
  O  O12  1  0.18519100  0.63050300  0.96947400  1
  O  O13  1  0.68519100  0.36949700  0.53052600  1
  O  O14  1  0.81480900  0.86949700  0.46947400  1
  O  O15  1  0.31480900  0.13050300  0.03052600  1
  O  O16  1  0.06972400  0.28695800  0.09528600  1
  O  O17  1  0.56972400  0.71304200  0.40471400  1
  O  O18  1  0.93027600  0.21304200  0.59528600  1
  O  O19  1  0.43027600  0.78695800  0.90471400  1
  O  O20  1  0.93027600  0.71304200  0.90471400  1
  O  O21  1  0.43027600  0.28695800  0.59528600  1
  O  O22  1  0.06972400  0.78695800  0.40471400  1
  O  O23  1  0.56972400  0.21304200  0.09528600  1
  O  O24  1  0.84807100  0.40380500  0.14187500  1
  O  O25  1  0.34807100  0.59619500  0.35812500  1
  O  O26  1  0.15192900  0.09619500  0.64187500  1
  O  O27  1  0.65192900  0.90380500  0.85812500  1
  O  O28  1  0.15192900  0.59619500  0.85812500  1
  O  O29  1  0.65192900  0.40380500  0.64187500  1
  O  O30  1  0.84807100  0.90380500  0.35812500  1
  O  O31  1  0.34807100  0.09619500  0.14187500  1
  O  O32  1  0.52475200  0.19155900  0.35872400  1
  O  O33  1  0.02475200  0.80844100  0.14127600  1
  O  O34  1  0.47524800  0.30844100  0.85872400  1
  O  O35  1  0.97524800  0.69155900  0.64127600  1
  O  O36  1  0.47524800  0.80844100  0.64127600  1
  O  O37  1  0.97524800  0.19155900  0.85872400  1
  O  O38  1  0.52475200  0.69155900  0.14127600  1
  O  O39  1  0.02475200  0.30844100  0.35872400  1
  O  O40  1  0.78497900  0.06966300  0.38022200  1
  O  O41  1  0.28497900  0.93033700  0.11977800  1
  O  O42  1  0.21502100  0.43033700  0.88022200  1
  O  O43  1  0.71502100  0.56966300  0.61977800  1
  O  O44  1  0.21502100  0.93033700  0.61977800  1
  O  O45  1  0.71502100  0.06966300  0.88022200  1
  O  O46  1  0.78497900  0.56966300  0.11977800  1
  O  O47  1  0.28497900  0.43033700  0.38022200  1
  O  O48  1  0.71228100  0.19212000  0.45837800  1
  O  O49  1  0.21228100  0.80788000  0.04162200  1
  O  O50  1  0.28771900  0.30788000  0.95837800  1
  O  O51  1  0.78771900  0.69212000  0.54162200  1
  O  O52  1  0.28771900  0.80788000  0.54162200  1
  O  O53  1  0.78771900  0.19212000  0.95837800  1
  O  O54  1  0.71228100  0.69212000  0.04162200  1
  O  O55  1  0.21228100  0.30788000  0.45837800  1
  O  O56  1  0.47129500  0.06517200  0.43954800  1
  O  O57  1  0.97129500  0.93482800  0.06045200  1
  O  O58  1  0.52870500  0.43482800  0.93954800  1
  O  O59  1  0.02870500  0.56517200  0.56045200  1
  O  O60  1  0.52870500  0.93482800  0.56045200  1
  O  O61  1  0.02870500  0.06517200  0.93954800  1
  O  O62  1  0.47129500  0.56517200  0.06045200  1
  O  O63  1  0.97129500  0.43482800  0.43954800  1
  O  O64  1  0.17327400  0.64536000  0.23026300  1
  O  O65  1  0.67327400  0.35464000  0.26973700  1
  O  O66  1  0.82672600  0.85464000  0.73026300  1
  O  O67  1  0.32672600  0.14536000  0.76973700  1
  O  O68  1  0.82672600  0.35464000  0.76973700  1
  O  O69  1  0.32672600  0.64536000  0.73026300  1
  O  O70  1  0.17327400  0.14536000  0.26973700  1
  O  O71  1  0.67327400  0.85464000  0.23026300  1
  O  O72  1  0.09249200  0.51630200  0.30937300  1
  O  O73  1  0.59249200  0.48369800  0.19062700  1
  O  O74  1  0.90750800  0.98369800  0.80937300  1
  O  O75  1  0.40750800  0.01630200  0.69062700  1
  O  O76  1  0.90750800  0.48369800  0.69062700  1
  O  O77  1  0.40750800  0.51630200  0.80937300  1
  O  O78  1  0.09249200  0.01630200  0.19062700  1
  O  O79  1  0.59249200  0.98369800  0.30937300  1
  O  O80  1  0.86720800  0.65442400  0.28729300  1
  O  O81  1  0.36720800  0.34557600  0.21270700  1
  O  O82  1  0.13279200  0.84557600  0.78729300  1
  O  O83  1  0.63279200  0.15442400  0.71270700  1
  O  O84  1  0.13279200  0.34557600  0.71270700  1
  O  O85  1  0.63279200  0.65442400  0.78729300  1
  O  O86  1  0.86720800  0.15442400  0.21270700  1
  O  O87  1  0.36720800  0.84557600  0.28729300  1
  O  O88  1  0.92576800  0.51625200  0.21417500  1
  O  O89  1  0.42576800  0.48374800  0.28582500  1
  O  O90  1  0.07423200  0.98374800  0.71417500  1
  O  O91  1  0.57423200  0.01625200  0.78582500  1
  O  O92  1  0.07423200  0.48374800  0.78582500  1
  O  O93  1  0.57423200  0.51625200  0.71417500  1
  O  O94  1  0.92576800  0.01625200  0.28582500  1
  O  O95  1  0.42576800  0.98374800  0.21417500  1
loop_
_geom_bond_atom_site_label_1
_geom_bond_atom_site_label_2
_geom_bond_distance
_geom_bond_site_symmetry_2
B0 O46 1.462551 1_555
B0 O24 1.467280 1_555
B0 O73 1.481122 1_555
B0 O88 1.488455 1_555
B1 O47 1.462551 1_555
B1 O25 1.467280 1_555
B1 O72 1.481122 1_555
B1 O89 1.488455 1_555
B2 O44 1.462551 1_545
B2 O26 1.467280 1_555
B2 O75 1.481122 1_555
B2 O90 1.488455 1_545
B3 O45 1.462551 1_565
B3 O27 1.467280 1_555
B3 O74 1.481122 1_555
B3 O91 1.488455 1_565
B4 O42 1.462551 1_555
B4 O28 1.467280 1_555
B4 O77 1.481122 1_555
B4 O92 1.488455 1_555
B5 O43 1.462551 1_555
B5 O29 1.467280 1_555
B5 O76 1.481122 1_555
B5 O93 1.488455 1_555
B6 O40 1.462551 1_565
B6 O30 1.467280 1_555
B6 O79 1.481122 1_555
B6 O94 1.488455 1_565
B7 O41 1.462551 1_545
B7 O31 1.467280 1_555
B7 O78 1.481122 1_555
B7 O95 1.488455 1_545
O0 P0 1.546509 1_455
O0 Pb1 2.459272 1_555
O0 Pb8 2.570164 1_555
O1 P1 1.546509 1_555
O1 Pb0 2.459272 1_555
O1 Pb9 2.570164 1_555
O2 P2 1.546509 1_655
O2 Pb3 2.459272 1_545
O2 Pb10 2.570164 1_555
O3 P3 1.546509 1_555
O3 Pb2 2.459272 1_565
O3 Pb11 2.570164 1_555
O4 P4 1.546509 1_655
O4 Pb5 2.459272 1_555
O4 Pb12 2.570164 1_555
O5 P5 1.546509 1_555
O5 Pb4 2.459272 1_555
O5 Pb13 2.570164 1_555
O6 P6 1.546509 1_455
O6 Pb7 2.459272 1_565
O6 Pb14 2.570164 1_555
O7 P7 1.546509 1_555
O7 Pb6 2.459272 1_545
O7 Pb15 2.570164 1_555
O8 P0 1.538863 1_555
O8 Pb5 2.356591 1_554
O9 P1 1.538863 1_555
O9 Pb4 2.356591 1_555
O10 P2 1.538863 1_555
O10 Pb7 2.356591 1_555
O11 P3 1.538863 1_555
O11 Pb6 2.356591 1_556
O12 P4 1.538863 1_555
O12 Pb1 2.356591 1_556
O13 P5 1.538863 1_555
O13 Pb0 2.356591 1_555
O14 P6 1.538863 1_555
O14 Pb3 2.356591 1_555
O15 P7 1.538863 1_555
O15 Pb2 2.356591 1_554
O16 P0 1.544776 1_455
O16 Pb15 2.515671 1_455
O17 P1 1.544776 1_555
O17 Pb14 2.515671 1_555
O18 P2 1.544776 1_655
O18 Pb13 2.515671 1_655
O19 P3 1.544776 1_555
O19 Pb12 2.515671 1_555
O20 P4 1.544776 1_655
O20 Pb11 2.515671 1_655
O21 P5 1.544776 1_555
O21 Pb10 2.515671 1_555
O22 P6 1.544776 1_455
O22 Pb9 2.515671 1_455
O23 P7 1.544776 1_555
O23 Pb8 2.515671 1_555
O24 P0 1.600747 1_555
O24 Pb16 2.830206 1_655
O25 P1 1.600747 1_555
O25 Pb17 2.830206 1_555
O26 P2 1.600747 1_555
O26 Pb18 2.830206 1_455
O27 P3 1.600747 1_555
O27 Pb19 2.830206 1_555
O28 P4 1.600747 1_555
O28 Pb20 2.830206 1_455
O29 P5 1.600747 1_555
O29 Pb21 2.830206 1_555
O30 P6 1.600747 1_555
O30 Pb22 2.830206 1_655
O31 P7 1.600747 1_555
O31 Pb23 2.830206 1_555
O32 P8 1.536495 1_555
O32 Pb23 2.467723 1_555
O33 P9 1.536495 1_555
O33 Pb22 2.467723 1_555
O34 P10 1.536495 1_555
O34 Pb21 2.467723 1_555
O35 P11 1.536495 1_555
O35 Pb20 2.467723 1_555
O36 P12 1.536495 1_555
O36 Pb19 2.467723 1_555
O37 P13 1.536495 1_555
O37 Pb18 2.467723 1_555
O38 P14 1.536495 1_555
O38 Pb17 2.467723 1_555
O39 P15 1.536495 1_555
O39 Pb16 2.467723 1_555
O40 P8 1.601077 1_555
O41 P9 1.601077 1_555
O42 P10 1.601077 1_555
O43 P11 1.601077 1_555
O44 P12 1.601077 1_555
O45 P13 1.601077 1_555
O46 P14 1.601077 1_555
O47 P15 1.601077 1_555
O48 P8 1.554307 1_555
O48 Pb10 2.493273 1_555
O48 Pb0 2.714870 1_555
O49 P9 1.554307 1_555
O49 Pb11 2.493273 1_554
O49 Pb1 2.714870 1_555
O50 P10 1.554307 1_555
O50 Pb8 2.493273 1_556
O50 Pb2 2.714870 1_555
O51 P11 1.554307 1_555
O51 Pb9 2.493273 1_555
O51 Pb3 2.714870 1_555
O52 P12 1.554307 1_555
O52 Pb14 2.493273 1_555
O52 Pb4 2.714870 1_555
O53 P13 1.554307 1_555
O53 Pb15 2.493273 1_556
O53 Pb5 2.714870 1_555
O54 P14 1.554307 1_555
O54 Pb12 2.493273 1_554
O54 Pb6 2.714870 1_555
O55 P15 1.554307 1_555
O55 Pb13 2.493273 1_555
O55 Pb7 2.714870 1_555
O56 P8 1.548938 1_555
O56 Pb7 2.463284 1_555
O57 P9 1.548938 1_655
O57 Pb6 2.463284 1_555
O58 P10 1.548938 1_555
O58 Pb5 2.463284 1_555
O59 P11 1.548938 1_455
O59 Pb4 2.463284 1_555
O60 P12 1.548938 1_555
O60 Pb3 2.463284 1_555
O61 P13 1.548938 1_455
O61 Pb2 2.463284 1_555
O62 P14 1.548938 1_555
O62 Pb1 2.463284 1_555
O63 P15 1.548938 1_655
O63 Pb0 2.463284 1_555
O64 P16 1.534009 1_555
O64 Pb17 2.488782 1_555
O64 Pb22 2.771521 1_555
O65 P17 1.534009 1_555
O65 Pb16 2.488782 1_655
O65 Pb23 2.771521 1_555
O66 P18 1.534009 1_555
O66 Pb19 2.488782 1_555
O66 Pb20 2.771521 1_555
O67 P19 1.534009 1_555
O67 Pb18 2.488782 1_455
O67 Pb21 2.771521 1_555
O68 P20 1.534009 1_555
O68 Pb21 2.488782 1_555
O68 Pb18 2.771521 1_555
O69 P21 1.534009 1_555
O69 Pb20 2.488782 1_455
O69 Pb19 2.771521 1_555
O70 P22 1.534009 1_555
O70 Pb23 2.488782 1_555
O70 Pb16 2.771521 1_555
O71 P23 1.534009 1_555
O71 Pb22 2.488782 1_655
O71 Pb17 2.771521 1_555
O72 P16 1.584380 1_555
O73 P17 1.584380 1_555
O74 P18 1.584380 1_555
O75 P19 1.584380 1_555
O76 P20 1.584380 1_555
O77 P21 1.584380 1_555
O78 P22 1.584380 1_555
O79 P23 1.584380 1_555
O80 P16 1.533940 1_655
O80 Pb22 2.643180 1_655
O80 Pb17 2.675491 1_555
O81 P17 1.533940 1_555
O81 Pb23 2.643180 1_555
O81 Pb16 2.675491 1_555
O82 P18 1.533940 1_455
O82 Pb20 2.643180 1_455
O82 Pb19 2.675491 1_555
O83 P19 1.533940 1_555
O83 Pb21 2.643180 1_555
O83 Pb18 2.675491 1_555
O84 P20 1.533940 1_455
O84 Pb18 2.643180 1_455
O84 Pb21 2.675491 1_555
O85 P21 1.533940 1_555
O85 Pb19 2.643180 1_555
O85 Pb20 2.675491 1_555
O86 P22 1.533940 1_655
O86 Pb16 2.643180 1_655
O86 Pb23 2.675491 1_555
O87 P23 1.533940 1_555
O87 Pb17 2.643180 1_555
O87 Pb22 2.675491 1_555
O88 P16 1.564212 1_655
O89 P17 1.564212 1_555
O90 P18 1.564212 1_455
O91 P19 1.564212 1_555
O92 P20 1.564212 1_455
O93 P21 1.564212 1_555
O94 P22 1.564212 1_655
O95 P23 1.564212 1_555
