# generated using pymatgen
data_GdInCu4
_symmetry_space_group_name_H-M   'P 1'
_cell_length_a   5.09502281
_cell_length_b   5.09502281
_cell_length_c   5.09502281
_cell_angle_alpha   60.00000000
_cell_angle_beta   60.00000000
_cell_angle_gamma   60.00000000
_symmetry_Int_Tables_number   1
_chemical_formula_structural   GdInCu4
_chemical_formula_sum   'Gd1 In1 Cu4'
_cell_volume   93.52407045
_cell_formula_units_Z   1
loop_
 _symmetry_equiv_pos_site_id
 _symmetry_equiv_pos_as_xyz
  1  'x, y, z'
loop_
 _atom_site_type_symbol
 _atom_site_label
 _atom_site_symmetry_multiplicity
 _atom_site_fract_x
 _atom_site_fract_y
 _atom_site_fract_z
 _atom_site_occupancy
  Gd  Gd0  1  0.00000000  0.00000000  0.00000000  1
  In  In0  1  0.25000000  0.25000000  0.25000000  1
  Cu  Cu0  1  0.62451738  0.62451738  0.12644787  1
  Cu  Cu1  1  0.62451738  0.12644787  0.62451738  1
  Cu  Cu2  1  0.12644787  0.62451738  0.62451738  1
  Cu  Cu3  1  0.62451738  0.62451738  0.62451738  1
loop_
_geom_bond_atom_site_label_1
_geom_bond_atom_site_label_2
_geom_bond_distance
_geom_bond_site_symmetry_2
Gd0 In0 3.120052 1_545
Gd0 In0 3.120052 1_554
Gd0 In0 3.120052 1_455
Gd0 In0 3.120052 1_555
Cu0 Cu2 2.537676 1_555
Cu0 Cu3 2.537676 1_555
Cu0 Cu1 2.537676 1_555
Cu0 Cu3 2.557347 1_554
Cu0 Cu1 2.557347 1_564
Cu0 Cu2 2.557347 1_654
Cu0 In0 2.986179 1_565
Cu0 In0 2.986179 1_655
Cu0 In0 2.986179 1_555
Cu0 Gd0 2.988276 1_665
Cu0 Gd0 2.988276 1_565
Cu0 Gd0 2.988276 1_655
Cu1 Cu2 2.537676 1_555
Cu1 Cu3 2.537676 1_555
Cu1 Cu3 2.557347 1_545
Cu1 Cu2 2.557347 1_645
Cu1 In0 2.986179 1_655
Cu1 In0 2.986179 1_556
Cu1 In0 2.986179 1_555
Cu1 Gd0 2.988276 1_656
Cu1 Gd0 2.988276 1_556
Cu1 Gd0 2.988276 1_655
Cu2 Cu3 2.537676 1_555
Cu2 Cu3 2.557347 1_455
Cu2 In0 2.986179 1_565
Cu2 In0 2.986179 1_556
Cu2 In0 2.986179 1_555
Cu2 Gd0 2.988276 1_566
Cu2 Gd0 2.988276 1_556
Cu2 Gd0 2.988276 1_565
Cu3 In0 2.986179 1_556
Cu3 In0 2.986179 1_565
Cu3 In0 2.986179 1_655
Cu3 Gd0 2.988276 1_665
Cu3 Gd0 2.988276 1_566
Cu3 Gd0 2.988276 1_656
