# generated using pymatgen
data_TmAl7Au3
_symmetry_space_group_name_H-M   'P 1'
_cell_length_a   8.36348681
_cell_length_b   8.36348681
_cell_length_c   8.36348647
_cell_angle_alpha   57.30860190
_cell_angle_beta   57.30860190
_cell_angle_gamma   57.30860047
_symmetry_Int_Tables_number   1
_chemical_formula_structural   TmAl7Au3
_chemical_formula_sum   'Tm2 Al14 Au6'
_cell_volume   388.03221275
_cell_formula_units_Z   2
loop_
 _symmetry_equiv_pos_site_id
 _symmetry_equiv_pos_as_xyz
  1  'x, y, z'
loop_
 _atom_site_type_symbol
 _atom_site_label
 _atom_site_symmetry_multiplicity
 _atom_site_fract_x
 _atom_site_fract_y
 _atom_site_fract_z
 _atom_site_occupancy
  Tm  Tm0  1  0.00000000  -0.00000000  -0.00000000  1
  Tm  Tm1  1  0.50000000  0.50000000  0.50000000  1
  Al  Al0  1  0.93169076  0.14715317  0.33231452  1
  Al  Al1  1  0.33231452  0.93169076  0.14715317  1
  Al  Al2  1  0.14715317  0.33231452  0.93169076  1
  Al  Al3  1  0.56830924  0.16768548  0.35284683  1
  Al  Al4  1  0.35284683  0.56830924  0.16768548  1
  Al  Al5  1  0.16768548  0.35284683  0.56830924  1
  Al  Al6  1  0.06830924  0.85284683  0.66768548  1
  Al  Al7  1  0.66768548  0.06830924  0.85284683  1
  Al  Al8  1  0.75000000  0.75000000  0.75000000  1
  Al  Al9  1  0.25000000  0.25000000  0.25000000  1
  Al  Al10  1  0.83231452  0.64715317  0.43169076  1
  Al  Al11  1  0.64715317  0.43169076  0.83231452  1
  Al  Al12  1  0.43169076  0.83231452  0.64715317  1
  Al  Al13  1  0.85284683  0.66768548  0.06830924  1
  Au  Au0  1  0.25000000  0.57565105  0.92434895  1
  Au  Au1  1  0.92434895  0.25000000  0.57565105  1
  Au  Au2  1  0.57565105  0.92434895  0.25000000  1
  Au  Au3  1  0.75000000  0.42434895  0.07565105  1
  Au  Au4  1  0.07565105  0.75000000  0.42434895  1
  Au  Au5  1  0.42434895  0.07565105  0.75000000  1
loop_
_geom_bond_atom_site_label_1
_geom_bond_atom_site_label_2
_geom_bond_distance
_geom_bond_site_symmetry_2
Al0 Au1 2.566006 1_555
Al0 Au3 2.575647 1_555
Al0 Au4 2.644665 1_645
Al0 Tm0 3.284176 1_655
Al0 Tm1 3.346998 1_555
Al1 Au2 2.566006 1_555
Al1 Au4 2.575647 1_555
Al1 Au5 2.644665 1_564
Al1 Tm0 3.284176 1_565
Al1 Tm1 3.346998 1_555
Al2 Au0 2.566006 1_555
Al2 Au5 2.575647 1_555
Al2 Au3 2.644665 1_456
Al2 Tm0 3.284177 1_556
Al2 Tm1 3.346999 1_555
Al3 Au2 2.566006 1_545
Al3 Au3 2.575647 1_555
Al3 Au5 2.644665 1_555
Al3 Tm1 3.284176 1_555
Al3 Tm0 3.346998 1_655
Al4 Au0 2.566006 1_554
Al4 Au4 2.575647 1_555
Al4 Au3 2.644665 1_555
Al4 Tm1 3.284176 1_555
Al4 Tm0 3.346998 1_565
Al5 Au1 2.566006 1_455
Al5 Au5 2.575647 1_555
Al5 Au4 2.644665 1_555
Al5 Tm1 3.284177 1_555
Al5 Tm0 3.346999 1_556
Al6 Au4 2.566006 1_555
Al6 Au0 2.575647 1_555
Al6 Au1 2.644665 1_465
Al6 Tm0 3.284176 1_566
Al6 Tm1 3.346998 1_555
Al7 Au5 2.566006 1_555
Al7 Au1 2.575647 1_555
Al7 Au2 2.644665 1_546
Al7 Tm0 3.284176 1_656
Al7 Tm1 3.346998 1_555
Al8 Au5 2.612041 1_565
Al8 Au3 2.612041 1_556
Al8 Au4 2.612041 1_655
Al9 Au2 2.612041 1_545
Al9 Au1 2.612041 1_455
Al9 Au0 2.612041 1_554
Al10 Au4 2.566006 1_655
Al10 Au2 2.575647 1_555
Al10 Au1 2.644665 1_555
Al10 Tm1 3.284177 1_555
Al10 Tm0 3.346999 1_665
Al11 Au3 2.566006 1_556
Al11 Au1 2.575647 1_555
Al11 Au0 2.644665 1_555
Al11 Tm1 3.284176 1_555
Al11 Tm0 3.346998 1_656
Al12 Au5 2.566006 1_565
Al12 Au0 2.575647 1_555
Al12 Au2 2.644665 1_555
Al12 Tm1 3.284176 1_555
Al12 Tm0 3.346998 1_566
Al13 Au3 2.566006 1_555
Al13 Au2 2.575647 1_555
Al13 Au0 2.644665 1_654
Al13 Tm0 3.284177 1_665
Al13 Tm1 3.346999 1_555
Au0 Tm1 3.216895 1_555
Au0 Tm0 3.216895 1_566
Au1 Tm0 3.216895 1_656
Au1 Tm1 3.216895 1_555
Au2 Tm0 3.216895 1_665
Au2 Tm1 3.216895 1_555
Au3 Tm1 3.216895 1_555
Au3 Tm0 3.216895 1_655
Au4 Tm0 3.216895 1_565
Au4 Tm1 3.216895 1_555
Au5 Tm1 3.216895 1_555
Au5 Tm0 3.216895 1_556
