# generated using pymatgen
data_Sc2Mn12GaGe11
_symmetry_space_group_name_H-M   'P 1'
_cell_length_a   5.10300990
_cell_length_b   5.10293153
_cell_length_c   16.27929684
_cell_angle_alpha   90.00000000
_cell_angle_beta   90.00000000
_cell_angle_gamma   119.99965649
_symmetry_Int_Tables_number   1
_chemical_formula_structural   Sc2Mn12GaGe11
_chemical_formula_sum   'Sc2 Mn12 Ga1 Ge11'
_cell_volume   367.12497430
_cell_formula_units_Z   1
loop_
 _symmetry_equiv_pos_site_id
 _symmetry_equiv_pos_as_xyz
  1  'x, y, z'
loop_
 _atom_site_type_symbol
 _atom_site_label
 _atom_site_symmetry_multiplicity
 _atom_site_fract_x
 _atom_site_fract_y
 _atom_site_fract_z
 _atom_site_occupancy
  Sc  Sc0  1  0.66666641  0.33333296  0.75046349  1
  Sc  Sc1  1  0.66666641  0.33333296  0.24953651  1
  Mn  Mn0  1  0.16735803  0.33471399  0.62667055  1
  Mn  Mn1  1  0.16652471  0.33305683  0.12442161  1
  Mn  Mn2  1  0.66527952  0.83263912  0.62665940  1
  Mn  Mn3  1  0.66690937  0.83345484  0.12442127  1
  Mn  Mn4  1  0.16735863  0.83264338  0.62667013  1
  Mn  Mn5  1  0.16652446  0.83346776  0.12442167  1
  Mn  Mn6  1  0.16735803  0.33471399  0.37332945  1
  Mn  Mn7  1  0.16652471  0.33305683  0.87557839  1
  Mn  Mn8  1  0.66527952  0.83263912  0.37334060  1
  Mn  Mn9  1  0.66690937  0.83345484  0.87557873  1
  Mn  Mn10  1  0.16735863  0.83264338  0.37332987  1
  Mn  Mn11  1  0.16652446  0.83346776  0.87557833  1
  Ga  Ga0  1  0.00008429  0.00004319  0.50000000  1
  Ge  Ge0  1  -0.00001283  -0.00000485  0.24922475  1
  Ge  Ge1  1  -0.00001283  -0.00000485  0.75077525  1
  Ge  Ge2  1  0.33334398  0.66667057  0.75117440  1
  Ge  Ge3  1  0.33334398  0.66667057  0.24882560  1
  Ge  Ge4  1  0.66666903  0.33333410  0.58120090  1
  Ge  Ge5  1  0.66666606  0.33333273  0.08070197  1
  Ge  Ge6  1  0.66666903  0.33333410  0.41879910  1
  Ge  Ge7  1  0.66666606  0.33333273  0.91929803  1
  Ge  Ge8  1  -0.00001253  -0.00000436  -0.00000000  1
  Ge  Ge9  1  0.33334755  0.66667301  0.50000000  1
  Ge  Ge10  1  0.33334195  0.66666932  -0.00000000  1
loop_
_geom_bond_atom_site_label_1
_geom_bond_atom_site_label_2
_geom_bond_distance
_geom_bond_site_symmetry_2
Ga0 Mn6 2.537665 1_555
Ga0 Mn0 2.537665 1_555
Ga0 Mn10 2.537670 1_545
Ga0 Mn4 2.537670 1_545
Ga0 Mn2 2.537876 1_445
Ga0 Mn8 2.537876 1_445
Ga0 Ge9 2.946026 1_555
Ga0 Ge9 2.946050 1_545
Ga0 Ge9 2.946544 1_445
Ge0 Mn6 2.503966 1_555
Ge0 Mn10 2.503985 1_545
Ge0 Mn8 2.504097 1_445
Ge0 Mn1 2.508846 1_555
Ge0 Mn5 2.508855 1_545
Ge0 Mn3 2.508905 1_445
Ge0 Sc1 2.946165 1_455
Ge0 Sc1 2.946174 1_445
Ge0 Sc1 2.946294 1_555
Ge1 Mn0 2.503966 1_555
Ge1 Mn4 2.503985 1_545
Ge1 Mn2 2.504097 1_445
Ge1 Mn7 2.508846 1_555
Ge1 Mn11 2.508855 1_545
Ge1 Mn9 2.508905 1_445
Ge1 Sc0 2.946165 1_455
Ge1 Sc0 2.946174 1_445
Ge1 Sc0 2.946294 1_555
Ge2 Mn0 2.502035 1_555
Ge2 Mn4 2.502047 1_555
Ge2 Mn2 2.502141 1_555
Ge2 Mn9 2.504914 1_555
Ge2 Mn7 2.505022 1_555
Ge2 Mn11 2.505031 1_555
Ge2 Sc0 2.946190 1_555
Ge2 Sc0 2.946193 1_565
Ge2 Sc0 2.946305 1_455
Ge3 Mn6 2.502035 1_555
Ge3 Mn10 2.502047 1_555
Ge3 Mn8 2.502141 1_555
Ge3 Mn3 2.504914 1_555
Ge3 Mn1 2.505022 1_555
Ge3 Mn5 2.505031 1_555
Ge3 Sc1 2.946190 1_555
Ge3 Sc1 2.946193 1_565
Ge3 Sc1 2.946305 1_455
Ge4 Ge6 2.643787 1_555
Ge4 Mn2 2.656625 1_555
Ge4 Mn2 2.656627 1_545
Ge4 Mn4 2.656704 1_655
Ge4 Mn4 2.656709 1_545
Ge4 Mn0 2.656710 1_655
Ge4 Mn0 2.656719 1_555
Ge4 Sc0 2.755476 1_555
Ge5 Ge7 2.627543 1_554
Ge5 Mn3 2.648870 1_545
Ge5 Mn3 2.648874 1_555
Ge5 Mn5 2.648889 1_655
Ge5 Mn1 2.648895 1_655
Ge5 Mn5 2.648922 1_545
Ge5 Mn1 2.648928 1_555
Ge5 Sc1 2.748508 1_555
Ge6 Mn8 2.656625 1_555
Ge6 Mn8 2.656627 1_545
Ge6 Mn10 2.656704 1_655
Ge6 Mn10 2.656709 1_545
Ge6 Mn6 2.656710 1_655
Ge6 Mn6 2.656719 1_555
Ge6 Sc1 2.755476 1_555
Ge7 Mn9 2.648870 1_545
Ge7 Mn9 2.648874 1_555
Ge7 Mn11 2.648889 1_655
Ge7 Mn7 2.648895 1_655
Ge7 Mn11 2.648922 1_545
Ge7 Mn7 2.648928 1_555
Ge7 Sc0 2.748508 1_555
Ge8 Mn7 2.503817 1_554
Ge8 Mn1 2.503817 1_555
Ge8 Mn11 2.503830 1_544
Ge8 Mn5 2.503830 1_545
Ge8 Mn3 2.503870 1_445
Ge8 Mn9 2.503870 1_444
Ge9 Mn2 2.530495 1_555
Ge9 Mn8 2.530495 1_555
Ge9 Mn10 2.530696 1_555
Ge9 Mn4 2.530696 1_555
Ge9 Mn6 2.530699 1_555
Ge9 Mn0 2.530699 1_555
Ge10 Mn3 2.505142 1_555
Ge10 Mn9 2.505142 1_554
Ge10 Mn7 2.505250 1_554
Ge10 Mn1 2.505250 1_555
Ge10 Mn11 2.505262 1_554
Ge10 Mn5 2.505262 1_555
