# generated using pymatgen
data_Li2VFeP2(HO5)2
_symmetry_space_group_name_H-M   'P 1'
_cell_length_a   5.17451500
_cell_length_b   7.39295123
_cell_length_c   10.68446233
_cell_angle_alpha   104.53188197
_cell_angle_beta   96.91030901
_cell_angle_gamma   108.70699407
_symmetry_Int_Tables_number   1
_chemical_formula_structural   Li2VFeP2(HO5)2
_chemical_formula_sum   'Li4 V2 Fe2 P4 H4 O20'
_cell_volume   365.65813677
_cell_formula_units_Z   2
loop_
 _symmetry_equiv_pos_site_id
 _symmetry_equiv_pos_as_xyz
  1  'x, y, z'
loop_
 _atom_site_type_symbol
 _atom_site_label
 _atom_site_symmetry_multiplicity
 _atom_site_fract_x
 _atom_site_fract_y
 _atom_site_fract_z
 _atom_site_occupancy
  Li  Li0  1  0.54779300  0.62484400  0.80121800  1
  Li  Li1  1  0.95221000  0.87487400  0.69805900  1
  Li  Li2  1  0.04779000  0.12512600  0.30194100  1
  Li  Li3  1  0.45220700  0.37515600  0.19878200  1
  V  V0  1  0.00000000  0.00000000  0.00000000  1
  V  V1  1  0.50000000  0.00000000  0.50000000  1
  Fe  Fe0  1  0.00000000  0.50000000  0.00000000  1
  Fe  Fe1  1  0.50000000  0.50000000  0.50000000  1
  P  P0  1  0.49675400  0.05152900  0.81950200  1
  P  P1  1  0.00598900  0.45000300  0.68056500  1
  P  P2  1  0.99401100  0.54999700  0.31943500  1
  P  P3  1  0.50324600  0.94847100  0.18049800  1
  H  H0  1  0.32782600  0.31126900  0.96813400  1
  H  H1  1  0.16798700  0.19139500  0.52944800  1
  H  H2  1  0.83201300  0.80860500  0.47055200  1
  H  H3  1  0.67217400  0.68873100  0.03186600  1
  O  O0  1  0.81195400  0.69895100  0.97547200  1
  O  O1  1  0.62713800  0.27794200  0.89782100  1
  O  O2  1  0.13543700  0.48983200  0.82831300  1
  O  O3  1  0.24656800  0.94514600  0.87364500  1
  O  O4  1  0.71747100  0.94915300  0.83019500  1
  O  O5  1  0.78563800  0.55159700  0.67018500  1
  O  O6  1  0.25741900  0.55462200  0.62471000  1
  O  O7  1  0.36762300  0.01397800  0.67222400  1
  O  O8  1  0.87880000  0.22377800  0.60363800  1
  O  O9  1  0.31461600  0.20129300  0.47662300  1
  O  O10  1  0.68538400  0.79870700  0.52337700  1
  O  O11  1  0.12120000  0.77622200  0.39636200  1
  O  O12  1  0.63237700  0.98602200  0.32777600  1
  O  O13  1  0.74258100  0.44537800  0.37529000  1
  O  O14  1  0.21436200  0.44840300  0.32981500  1
  O  O15  1  0.28252900  0.05084700  0.16980500  1
  O  O16  1  0.75343200  0.05485400  0.12635500  1
  O  O17  1  0.86456300  0.51016800  0.17168700  1
  O  O18  1  0.37286200  0.72205800  0.10217900  1
  O  O19  1  0.18804600  0.30104900  0.02452800  1
loop_
_geom_bond_atom_site_label_1
_geom_bond_atom_site_label_2
_geom_bond_distance
_geom_bond_site_symmetry_2
Li0 O0 2.007555 1_555
Li0 O5 2.056611 1_555
Li0 O6 2.100046 1_555
Li0 O2 2.135518 1_555
Li0 O4 2.197037 1_555
Li1 O10 2.015088 1_555
Li1 O4 2.054651 1_555
Li1 O3 2.103602 1_655
Li1 O7 2.149797 1_665
Li1 O5 2.191625 1_555
Li2 O9 2.015088 1_555
Li2 O15 2.054651 1_555
Li2 O16 2.103602 1_455
Li2 O12 2.149797 1_445
Li2 O14 2.191625 1_555
Li3 O19 2.007555 1_555
Li3 O14 2.056611 1_555
Li3 O13 2.100046 1_555
Li3 O17 2.135518 1_555
Li3 O15 2.197037 1_555
Fe0 O17 2.033643 1_455
Fe0 O2 2.033643 1_554
Fe0 O18 2.042405 1_555
Fe0 O1 2.042405 1_454
Fe0 O19 2.056448 1_555
Fe0 O0 2.056448 1_454
Fe1 O13 1.992921 1_555
Fe1 O6 1.992921 1_555
Fe1 O9 2.041074 1_555
Fe1 O10 2.041074 1_555
Fe1 O5 2.068816 1_555
Fe1 O14 2.068816 1_555
H0 O19 0.992259 1_556
H1 O9 0.993854 1_555
H2 O10 0.993854 1_555
H3 O0 0.992259 1_554
O0 V0 2.055659 1_666
O1 P0 1.547272 1_555
O2 P1 1.553432 1_555
O3 P0 1.544212 1_565
O3 V0 2.021515 1_566
O4 P0 1.567409 1_565
O4 V0 2.058442 1_666
O5 P1 1.561156 1_655
O6 P1 1.555643 1_555
O7 P0 1.551932 1_555
O7 V1 2.029585 1_555
O8 P1 1.542655 1_655
O8 V1 2.069647 1_555
O9 V1 2.059553 1_555
O10 V1 2.059553 1_565
O11 P2 1.542655 1_455
O11 V1 2.069647 1_565
O12 P3 1.551932 1_555
O12 V1 2.029585 1_565
O13 P2 1.555643 1_555
O14 P2 1.561156 1_455
O15 P3 1.567409 1_545
O15 V0 2.058442 1_555
O16 P3 1.544212 1_545
O16 V0 2.021515 1_655
O17 P2 1.553432 1_555
O18 P3 1.547272 1_555
O19 V0 2.055659 1_555
