# generated using pymatgen
data_Zn(Fe2O3)4
_symmetry_space_group_name_H-M   'P 1'
_cell_length_a   6.07906748
_cell_length_b   6.08567017
_cell_length_c   54.61484804
_cell_angle_alpha   59.87695703
_cell_angle_beta   59.90172283
_cell_angle_gamma   59.96525210
_symmetry_Int_Tables_number   1
_chemical_formula_structural   Zn(Fe2O3)4
_chemical_formula_sum   'Zn6 Fe48 O72'
_cell_volume   1425.93204734
_cell_formula_units_Z   6
loop_
 _symmetry_equiv_pos_site_id
 _symmetry_equiv_pos_as_xyz
  1  'x, y, z'
loop_
 _atom_site_type_symbol
 _atom_site_label
 _atom_site_symmetry_multiplicity
 _atom_site_fract_x
 _atom_site_fract_y
 _atom_site_fract_z
 _atom_site_occupancy
  Zn  Zn0  1  0.99708335  0.99960159  0.00054398  1
  Zn  Zn1  1  0.24636218  0.24629302  0.02901725  1
  Zn  Zn2  1  0.00550592  0.00713534  0.10919703  1
  Zn  Zn3  1  0.00212997  0.99700388  0.22210099  1
  Zn  Zn4  1  0.99915004  0.00430866  0.77682161  1
  Zn  Zn5  1  0.00067487  0.00163101  0.88855385  1
  Fe  Fe0  1  0.12970865  0.62664055  0.06874279  1
  Fe  Fe1  1  0.62473527  0.62086544  0.01420789  1
  Fe  Fe2  1  0.25265004  0.24927721  0.13826272  1
  Fe  Fe3  1  0.62594788  0.12644524  0.06925748  1
  Fe  Fe4  1  0.12434737  0.62641393  0.18003782  1
  Fe  Fe5  1  0.62722858  0.62609762  0.06862005  1
  Fe  Fe6  1  0.62648896  0.62902394  0.12422875  1
  Fe  Fe7  1  0.24818589  0.25247211  0.25021060  1
  Fe  Fe8  1  0.62778588  0.12481224  0.17988581  1
  Fe  Fe9  1  0.99837068  0.99627342  0.33362395  1
  Fe  Fe10  1  0.11895687  0.62683929  0.29213604  1
  Fe  Fe11  1  0.62768596  0.62577471  0.18013822  1
  Fe  Fe12  1  0.62805045  0.62438013  0.23558806  1
  Fe  Fe13  1  0.24958536  0.24807342  0.36187076  1
  Fe  Fe14  1  0.99579148  0.00086412  0.44417460  1
  Fe  Fe15  1  0.62281643  0.12492115  0.29201418  1
  Fe  Fe16  1  0.12549163  0.62498821  0.40250842  1
  Fe  Fe17  1  0.62491537  0.62659496  0.29228098  1
  Fe  Fe18  1  0.62286141  0.62806625  0.34718842  1
  Fe  Fe19  1  0.25437922  0.25045853  0.47234200  1
  Fe  Fe20  1  0.62394236  0.12592398  0.40282279  1
  Fe  Fe21  1  0.12584906  0.62546696  0.51368223  1
  Fe  Fe22  1  0.62331008  0.62453242  0.40317336  1
  Fe  Fe23  1  0.62573939  0.62163780  0.45871671  1
  Fe  Fe24  1  0.62593205  0.12542137  0.51368430  1
  Fe  Fe25  1  0.25005557  0.25000652  0.58320393  1
  Fe  Fe26  1  0.99905659  0.00322458  0.66676966  1
  Fe  Fe27  1  0.12384430  0.62413356  0.62538130  1
  Fe  Fe28  1  0.62680070  0.62578747  0.51278625  1
  Fe  Fe29  1  0.62881656  0.62824770  0.56854793  1
  Fe  Fe30  1  0.00089213  0.00088766  0.55549237  1
  Fe  Fe31  1  0.62406388  0.12180410  0.62553345  1
  Fe  Fe32  1  0.25041289  0.24444061  0.69528008  1
  Fe  Fe33  1  0.62479382  0.62534938  0.62505488  1
  Fe  Fe34  1  0.12452371  0.62478167  0.73590812  1
  Fe  Fe35  1  0.61815213  0.62467532  0.68113946  1
  Fe  Fe36  1  0.25448269  0.25384718  0.80474196  1
  Fe  Fe37  1  0.62367027  0.12462772  0.73647819  1
  Fe  Fe38  1  0.12485399  0.62731574  0.84697043  1
  Fe  Fe39  1  0.62463861  0.62173413  0.73654474  1
  Fe  Fe40  1  0.63086756  0.62428716  0.79118158  1
  Fe  Fe41  1  0.24752018  0.24709067  0.91756299  1
  Fe  Fe42  1  0.62649435  0.12426025  0.84703234  1
  Fe  Fe43  1  0.62576596  0.62748591  0.84696961  1
  Fe  Fe44  1  0.11728919  0.62394977  0.95932366  1
  Fe  Fe45  1  0.62711127  0.62663705  0.90215368  1
  Fe  Fe46  1  0.62368915  0.11815323  0.95920917  1
  Fe  Fe47  1  0.62381606  0.62448453  0.95937561  1
  O  O0  1  0.38036926  0.37677506  0.04414015  1
  O  O1  1  0.37668198  0.84705351  0.04451901  1
  O  O2  1  0.38739029  0.38641102  0.09333323  1
  O  O3  1  0.84744325  0.37390368  0.04460015  1
  O  O4  1  0.38503599  0.38564256  0.15473184  1
  O  O5  1  0.40690935  0.86428710  0.09647354  1
  O  O6  1  0.86457501  0.86603556  0.04514455  1
  O  O7  1  0.38294877  0.83630384  0.15526940  1
  O  O8  1  0.86214811  0.40888624  0.09664476  1
  O  O9  1  0.38057913  0.37938686  0.20672059  1
  O  O10  1  0.83583104  0.38480516  0.15495433  1
  O  O11  1  0.86151457  0.86329699  0.09663524  1
  O  O12  1  0.37532536  0.39468661  0.26364786  1
  O  O13  1  0.40828107  0.86442452  0.20711865  1
  O  O14  1  0.86515629  0.86469778  0.15598176  1
  O  O15  1  0.86414994  0.40480588  0.20746817  1
  O  O16  1  0.38345630  0.85138192  0.26462457  1
  O  O17  1  0.37702136  0.39105189  0.31716635  1
  O  O18  1  0.85767348  0.39583496  0.26359123  1
  O  O19  1  0.86353795  0.86454210  0.20707121  1
  O  O20  1  0.38833543  0.37118424  0.37555695  1
  O  O21  1  0.38492332  0.86194242  0.31865245  1
  O  O22  1  0.87669288  0.39037370  0.31747356  1
  O  O23  1  0.86862776  0.85492591  0.26748909  1
  O  O24  1  0.38839150  0.86427292  0.37542906  1
  O  O25  1  0.39549978  0.37585327  0.42799039  1
  O  O26  1  0.85660572  0.37772484  0.37634038  1
  O  O27  1  0.88412131  0.86249563  0.31833606  1
  O  O28  1  0.37976891  0.38216126  0.48617295  1
  O  O29  1  0.39211560  0.87857574  0.42806626  1
  O  O30  1  0.86703019  0.38777392  0.42875446  1
  O  O31  1  0.85501716  0.87633805  0.37692980  1
  O  O32  1  0.38424255  0.86418556  0.48770348  1
  O  O33  1  0.38376691  0.38164861  0.54065342  1
  O  O34  1  0.86708875  0.38412212  0.48751898  1
  O  O35  1  0.86464224  0.88030814  0.42882722  1
  O  O36  1  0.38252619  0.38359761  0.59835337  1
  O  O37  1  0.39223609  0.85307821  0.54212848  1
  O  O38  1  0.86557596  0.86697645  0.48745614  1
  O  O39  1  0.85314442  0.39215457  0.54214460  1
  O  O40  1  0.37604168  0.85541266  0.59716772  1
  O  O41  1  0.37523630  0.37508526  0.65066405  1
  O  O42  1  0.85597906  0.37440722  0.59714613  1
  O  O43  1  0.86313194  0.86163457  0.54335032  1
  O  O44  1  0.38814619  0.36253976  0.70933180  1
  O  O45  1  0.38601675  0.88658307  0.65114378  1
  O  O46  1  0.87520255  0.87503326  0.59942990  1
  O  O47  1  0.39240281  0.86152325  0.70901309  1
  O  O48  1  0.88208721  0.39149466  0.65133092  1
  O  O49  1  0.39423388  0.38398316  0.75940285  1
  O  O50  1  0.85958390  0.37371728  0.71035035  1
  O  O51  1  0.87879063  0.87701629  0.65028168  1
  O  O52  1  0.38189170  0.38433779  0.82210171  1
  O  O53  1  0.40536942  0.86299592  0.76304611  1
  O  O54  1  0.86284600  0.87161979  0.71019014  1
  O  O55  1  0.84575921  0.40295307  0.76411171  1
  O  O56  1  0.38467915  0.83584298  0.82161852  1
  O  O57  1  0.37898550  0.37866115  0.87384427  1
  O  O58  1  0.83831231  0.38387354  0.82175921  1
  O  O59  1  0.84928372  0.87260441  0.76371018  1
  O  O60  1  0.38603652  0.38606981  0.93047398  1
  O  O61  1  0.40709450  0.86410901  0.87385856  1
  O  O62  1  0.86490052  0.86450072  0.82296211  1
  O  O63  1  0.86356934  0.40754179  0.87389635  1
  O  O64  1  0.38534311  0.85355999  0.93047910  1
  O  O65  1  0.38703630  0.38716330  0.98200180  1
  O  O66  1  0.85355705  0.38521107  0.93051019  1
  O  O67  1  0.86389870  0.86416454  0.87391322  1
  O  O68  1  0.40148210  0.87639961  0.98294183  1
  O  O69  1  0.86542829  0.86634282  0.93369715  1
  O  O70  1  0.87694703  0.40189702  0.98264436  1
  O  O71  1  0.87107023  0.87236443  0.98353717  1
loop_
_geom_bond_atom_site_label_1
_geom_bond_atom_site_label_2
_geom_bond_distance
_geom_bond_site_symmetry_2
Fe0 O1 2.011530 1_555
Fe0 O0 2.029119 1_555
Fe0 O6 2.056580 1_455
Fe0 O2 2.059509 1_555
Fe0 O8 2.090136 1_455
Fe0 O11 2.100821 1_455
Fe1 O0 2.102782 1_555
Fe1 O3 2.135406 1_555
Fe1 O71 2.143855 1_554
Fe1 O1 2.148193 1_555
Fe1 O70 2.169713 1_554
Fe1 O68 2.173107 1_554
Fe2 O2 2.000395 1_555
Fe2 O7 2.051460 1_545
Fe2 O10 2.068242 1_455
Fe2 O4 2.071037 1_555
Fe3 O3 2.017446 1_555
Fe3 O0 2.027573 1_555
Fe3 O2 2.052729 1_555
Fe3 O6 2.056092 1_545
Fe3 O5 2.070993 1_545
Fe3 O11 2.073513 1_545
Fe4 O7 2.018846 1_555
Fe4 O4 2.019882 1_555
Fe4 O14 2.046538 1_455
Fe4 O19 2.072046 1_455
Fe4 O15 2.072670 1_455
Fe4 O9 2.131563 1_555
Fe5 O1 2.011104 1_555
Fe5 O3 2.017745 1_555
Fe5 O6 2.057260 1_555
Fe5 O2 2.062591 1_555
Fe5 O8 2.097911 1_555
Fe5 O5 2.106043 1_555
Fe6 O8 2.014075 1_555
Fe6 O5 2.016772 1_555
Fe6 O11 2.016942 1_555
Fe6 O4 2.090620 1_555
Fe6 O10 2.095126 1_555
Fe6 O7 2.101591 1_555
Fe7 O9 1.936363 1_555
Fe7 O18 1.938421 1_455
Fe7 O12 1.939324 1_555
Fe7 O16 1.991286 1_545
Fe8 O10 2.017567 1_555
Fe8 O4 2.020949 1_555
Fe8 O14 2.047099 1_545
Fe8 O13 2.065025 1_545
Fe8 O19 2.066032 1_545
Fe8 O9 2.132098 1_555
Fe9 O27 1.916308 1_555
Fe9 O21 1.918223 1_655
Fe9 O31 1.929471 1_555
Fe9 O22 1.957661 1_565
Fe10 O27 2.025749 1_455
Fe10 O23 2.029542 1_455
Fe10 O22 2.057551 1_455
Fe10 O17 2.077857 1_555
Fe10 O12 2.101383 1_555
Fe10 O16 2.103768 1_555
Fe11 O10 2.016134 1_555
Fe11 O7 2.017828 1_555
Fe11 O14 2.050433 1_555
Fe11 O13 2.072982 1_555
Fe11 O15 2.074816 1_555
Fe11 O9 2.120152 1_555
Fe12 O15 2.033044 1_555
Fe12 O19 2.045636 1_555
Fe12 O13 2.046065 1_555
Fe12 O18 2.069938 1_555
Fe12 O12 2.073899 1_555
Fe12 O16 2.100433 1_555
Fe13 O24 1.906180 1_545
Fe13 O20 1.912723 1_555
Fe13 O26 1.949253 1_455
Fe13 O17 1.990909 1_555
Fe14 O30 1.921439 1_555
Fe14 O38 1.927141 1_545
Fe14 O35 1.936360 1_545
Fe14 O29 1.966938 1_645
Fe15 O23 2.114352 1_545
Fe15 O17 2.120042 1_555
Fe15 O27 2.141691 1_545
Fe15 O21 2.153823 1_545
Fe15 O12 2.161299 1_555
Fe15 O18 2.175067 1_555
Fe16 O35 2.117561 1_455
Fe16 O30 2.131219 1_455
Fe16 O20 2.134926 1_555
Fe16 O25 2.147495 1_555
Fe16 O31 2.153153 1_455
Fe16 O24 2.158576 1_555
Fe17 O23 2.029669 1_555
Fe17 O21 2.031121 1_555
Fe17 O22 2.055864 1_555
Fe17 O17 2.079812 1_555
Fe17 O18 2.103608 1_555
Fe17 O16 2.108804 1_555
Fe18 O24 2.108598 1_555
Fe18 O20 2.112244 1_555
Fe18 O21 2.126145 1_555
Fe18 O26 2.131281 1_555
Fe18 O27 2.131320 1_555
Fe18 O22 2.171951 1_555
Fe19 O28 1.894937 1_555
Fe19 O32 1.918350 1_545
Fe19 O34 1.922000 1_455
Fe19 O25 1.975214 1_555
Fe20 O35 2.038730 1_545
Fe20 O25 2.049568 1_555
Fe20 O29 2.060240 1_545
Fe20 O20 2.065166 1_555
Fe20 O31 2.075516 1_545
Fe20 O26 2.081791 1_555
Fe21 O28 2.109795 1_555
Fe21 O38 2.132428 1_455
Fe21 O32 2.138032 1_555
Fe21 O33 2.150234 1_555
Fe21 O43 2.164701 1_455
Fe21 O39 2.176461 1_455
Fe22 O30 2.035107 1_555
Fe22 O25 2.049843 1_555
Fe22 O29 2.057156 1_555
Fe22 O31 2.077974 1_555
Fe22 O24 2.080792 1_555
Fe22 O26 2.099365 1_555
Fe23 O28 2.085057 1_555
Fe23 O35 2.140920 1_555
Fe23 O34 2.150811 1_555
Fe23 O32 2.164585 1_555
Fe23 O30 2.166852 1_555
Fe23 O29 2.190515 1_555
Fe24 O28 2.120467 1_555
Fe24 O38 2.126637 1_545
Fe24 O33 2.144923 1_555
Fe24 O34 2.149658 1_555
Fe24 O43 2.167188 1_545
Fe24 O37 2.176636 1_545
Fe25 O33 1.895162 1_555
Fe25 O42 1.955875 1_455
Fe25 O40 1.959926 1_545
Fe25 O36 1.998209 1_555
Fe26 O45 1.920615 1_645
Fe26 O48 1.928588 1_555
Fe26 O54 1.933585 1_545
Fe26 O51 1.962637 1_545
Fe27 O48 2.037828 1_455
Fe27 O51 2.052017 1_455
Fe27 O41 2.058272 1_555
Fe27 O46 2.071490 1_455
Fe27 O40 2.078393 1_555
Fe27 O36 2.081089 1_555
Fe28 O32 2.011288 1_555
Fe28 O34 2.016372 1_555
Fe28 O38 2.062970 1_555
Fe28 O33 2.092618 1_555
Fe28 O39 2.109942 1_555
Fe28 O37 2.114995 1_555
Fe29 O43 2.009337 1_555
Fe29 O39 2.036979 1_555
Fe29 O37 2.037721 1_555
Fe29 O42 2.082995 1_555
Fe29 O40 2.085411 1_555
Fe29 O36 2.112487 1_555
Fe30 O43 1.921132 1_445
Fe30 O37 1.943388 1_545
Fe30 O39 1.944585 1_455
Fe30 O46 1.957254 1_445
Fe31 O45 2.033113 1_545
Fe31 O51 2.052541 1_545
Fe31 O41 2.062731 1_555
Fe31 O46 2.071077 1_545
Fe31 O42 2.083159 1_555
Fe31 O36 2.090055 1_555
Fe32 O44 1.899222 1_555
Fe32 O47 1.902474 1_545
Fe32 O50 1.938726 1_455
Fe32 O41 1.987546 1_555
Fe33 O48 2.122319 1_555
Fe33 O45 2.133950 1_555
Fe33 O40 2.148687 1_555
Fe33 O41 2.150364 1_555
Fe33 O46 2.151520 1_555
Fe33 O42 2.161014 1_555
Fe34 O49 2.073581 1_555
Fe34 O54 2.119198 1_455
Fe34 O59 2.145691 1_455
Fe34 O55 2.156792 1_455
Fe34 O44 2.157248 1_555
Fe34 O47 2.170386 1_555
Fe35 O47 2.098866 1_555
Fe35 O44 2.116334 1_555
Fe35 O48 2.158277 1_555
Fe35 O45 2.159125 1_555
Fe35 O50 2.165804 1_555
Fe35 O51 2.206537 1_555
Fe36 O49 2.018845 1_555
Fe36 O52 2.058483 1_555
Fe36 O58 2.065505 1_455
Fe36 O56 2.076022 1_545
Fe37 O49 2.008086 1_555
Fe37 O59 2.023844 1_545
Fe37 O44 2.060008 1_555
Fe37 O53 2.065583 1_545
Fe37 O50 2.084089 1_555
Fe37 O54 2.104789 1_545
Fe38 O52 2.011738 1_555
Fe38 O56 2.017868 1_555
Fe38 O62 2.048211 1_455
Fe38 O67 2.063501 1_455
Fe38 O63 2.069794 1_455
Fe38 O57 2.129652 1_555
Fe39 O55 2.018050 1_555
Fe39 O49 2.018835 1_555
Fe39 O47 2.061047 1_555
Fe39 O53 2.065477 1_555
Fe39 O50 2.079578 1_555
Fe39 O54 2.097194 1_555
Fe40 O55 2.001710 1_555
Fe40 O59 2.008112 1_555
Fe40 O53 2.056531 1_555
Fe40 O58 2.081492 1_555
Fe40 O56 2.093970 1_555
Fe40 O52 2.109200 1_555
Fe41 O57 1.946448 1_555
Fe41 O64 1.955397 1_545
Fe41 O66 1.955787 1_455
Fe41 O60 1.956698 1_555
Fe42 O52 2.020312 1_555
Fe42 O58 2.030878 1_555
Fe42 O62 2.051600 1_545
Fe42 O67 2.061408 1_545
Fe42 O61 2.063411 1_545
Fe42 O57 2.130462 1_555
Fe43 O56 2.021257 1_555
Fe43 O58 2.027345 1_555
Fe43 O62 2.049880 1_555
Fe43 O61 2.060507 1_555
Fe43 O63 2.064849 1_555
Fe43 O57 2.129009 1_555
Fe44 O70 1.991359 1_455
Fe44 O71 2.007685 1_455
Fe44 O65 2.044428 1_555
Fe44 O69 2.072472 1_455
Fe44 O64 2.141216 1_555
Fe44 O60 2.141836 1_555
Fe45 O63 2.036544 1_555
Fe45 O67 2.039310 1_555
Fe45 O61 2.040092 1_555
Fe45 O66 2.069248 1_555
Fe45 O60 2.069993 1_555
Fe45 O64 2.071829 1_555
Fe46 O68 1.997145 1_545
Fe46 O71 2.005431 1_545
Fe46 O65 2.047194 1_555
Fe46 O69 2.069889 1_545
Fe46 O60 2.134522 1_555
Fe46 O66 2.137900 1_555
Fe47 O70 1.991149 1_555
Fe47 O68 1.998783 1_555
Fe47 O65 2.047070 1_555
Fe47 O69 2.077690 1_555
Fe47 O64 2.144525 1_555
Fe47 O66 2.148534 1_555
O0 Zn1 1.989230 1_555
O1 Zn1 1.982113 1_565
O3 Zn1 1.978995 1_655
O5 Zn2 1.993767 1_565
O6 Zn0 1.985730 1_555
O8 Zn2 1.997758 1_655
O11 Zn2 1.993803 1_665
O13 Zn3 2.014637 1_555
O14 Zn2 2.082983 1_665
O15 Zn3 2.024618 1_645
O19 Zn3 2.017699 1_655
O23 Zn3 2.020997 1_655
O53 Zn4 2.015893 1_465
O55 Zn4 1.982741 1_555
O59 Zn4 1.986597 1_565
O61 Zn5 2.015984 1_565
O62 Zn4 2.054394 1_565
O63 Zn5 2.015172 1_655
O65 Zn1 2.093227 1_556
O67 Zn5 2.016209 1_665
O68 Zn0 2.009446 1_456
O69 Zn5 2.009873 1_665
O70 Zn0 2.001710 1_546
O71 Zn0 2.019509 1_556
