# generated using pymatgen
data_HfTeS
_symmetry_space_group_name_H-M   'P 1'
_cell_length_a   3.81538193
_cell_length_b   3.81538277
_cell_length_c   6.60611619
_cell_angle_alpha   90.00412405
_cell_angle_beta   90.00438346
_cell_angle_gamma   60.00273292
_symmetry_Int_Tables_number   1
_chemical_formula_structural   HfTeS
_chemical_formula_sum   'Hf1 Te1 S1'
_cell_volume   83.28464334
_cell_formula_units_Z   1
loop_
 _symmetry_equiv_pos_site_id
 _symmetry_equiv_pos_as_xyz
  1  'x, y, z'
loop_
 _atom_site_type_symbol
 _atom_site_label
 _atom_site_symmetry_multiplicity
 _atom_site_fract_x
 _atom_site_fract_y
 _atom_site_fract_z
 _atom_site_occupancy
  Hf  Hf0  1  -0.00002330  -0.00002634  0.02986153  1
  Te  Te0  1  0.33332494  0.33333253  0.74742521  1
  S  S0  1  0.66669836  0.66669481  0.22271426  1
loop_
_geom_bond_atom_site_label_1
_geom_bond_atom_site_label_2
_geom_bond_distance
_geom_bond_site_symmetry_2
Hf0 S0 2.544451 1_445
Hf0 S0 2.544854 1_545
Hf0 S0 2.544861 1_455
Hf0 Te0 2.886727 1_544
Hf0 Te0 2.886742 1_454
Hf0 Te0 2.887001 1_554
