# generated using pymatgen
data_Na2CoO3
_symmetry_space_group_name_H-M   'P 1'
_cell_length_a   5.26887632
_cell_length_b   5.68754440
_cell_length_c   9.05026455
_cell_angle_alpha   89.86868726
_cell_angle_beta   90.17071255
_cell_angle_gamma   70.73309091
_symmetry_Int_Tables_number   1
_chemical_formula_structural   Na2CoO3
_chemical_formula_sum   'Na8 Co4 O12'
_cell_volume   256.01635184
_cell_formula_units_Z   4
loop_
 _symmetry_equiv_pos_site_id
 _symmetry_equiv_pos_as_xyz
  1  'x, y, z'
loop_
 _atom_site_type_symbol
 _atom_site_label
 _atom_site_symmetry_multiplicity
 _atom_site_fract_x
 _atom_site_fract_y
 _atom_site_fract_z
 _atom_site_occupancy
  Na  Na0  1  0.99927700  0.50086500  0.50096900  1
  Na  Na1  1  0.50086700  0.49815200  0.99854300  1
  Na  Na2  1  0.99891600  0.00097300  0.99885700  1
  Na  Na3  1  0.50295800  0.99960500  0.50084900  1
  Na  Na4  1  0.00000100  0.49961500  0.15723900  1
  Na  Na5  1  0.50001100  0.50063600  0.65861100  1
  Na  Na6  1  0.99824000  0.49987300  0.84463900  1
  Na  Na7  1  0.50035300  0.49916300  0.34150800  1
  Co  Co0  1  0.49856900  0.00065800  0.17047600  1
  Co  Co1  1  0.00170300  0.99723300  0.32670000  1
  Co  Co2  1  0.00730000  0.00125800  0.66593600  1
  Co  Co3  1  0.50262000  0.00182000  0.83079500  1
  O  O0  1  0.18939300  0.79916000  0.49529400  1
  O  O1  1  0.68404800  0.80366200  0.00158300  1
  O  O2  1  0.81907500  0.19434600  0.49873900  1
  O  O3  1  0.31061700  0.19950800  0.00274100  1
  O  O4  1  0.24795900  0.19530700  0.30807100  1
  O  O5  1  0.73964400  0.19731300  0.81065100  1
  O  O6  1  0.25452700  0.20529300  0.69489800  1
  O  O7  1  0.74752300  0.19613400  0.19256500  1
  O  O8  1  0.73923500  0.79693000  0.69658200  1
  O  O9  1  0.25263500  0.80350100  0.19052000  1
  O  O10  1  0.75401600  0.80186800  0.30723400  1
  O  O11  1  0.25051400  0.80712700  0.80599800  1
loop_
_geom_bond_atom_site_label_1
_geom_bond_atom_site_label_2
_geom_bond_distance
_geom_bond_site_symmetry_2
Na0 O0 2.237367 1_655
Na0 O2 2.243551 1_555
Na0 O10 2.487520 1_555
Na0 O6 2.489081 1_655
Na0 O4 2.511885 1_655
Na0 O8 2.520397 1_555
Na1 O3 2.239397 1_556
Na1 O1 2.249081 1_556
Na1 O5 2.451022 1_555
Na1 O7 2.494454 1_556
Na1 O9 2.504750 1_556
Na1 O11 2.511416 1_555
Na2 O5 2.232739 1_555
Na2 O9 2.245828 1_646
Na2 O11 2.253318 1_645
Na2 O7 2.261062 1_556
Na2 O3 2.279724 1_656
Na2 O1 2.289327 1_546
Na3 O8 2.246559 1_555
Na3 O4 2.253492 1_565
Na3 O10 2.264092 1_555
Na3 O6 2.275677 1_565
Na3 O2 2.284479 1_565
Na3 O0 2.296635 1_555
Na4 O10 2.242458 1_455
Na4 O4 2.247689 1_555
Na4 O3 2.393329 1_555
Na4 O1 2.412729 1_455
Na4 O7 2.523183 1_455
Na4 O9 2.523500 1_555
Na5 O5 2.237190 1_555
Na5 O11 2.248305 1_555
Na5 O0 2.426147 1_555
Na5 O8 2.438953 1_555
Na5 O6 2.456883 1_555
Na5 O2 2.459203 1_555
Na6 O8 2.229223 1_555
Na6 O6 2.235024 1_655
Na6 O3 2.407054 1_656
Na6 O1 2.425068 1_556
Na6 O5 2.541561 1_555
Na6 O11 2.544755 1_655
Na7 O7 2.241278 1_555
Na7 O9 2.248230 1_555
Na7 O0 2.390058 1_555
Na7 O2 2.429747 1_555
Na7 O4 2.522571 1_555
Na7 O10 2.522920 1_555
Co0 O4 1.889779 1_555
Co0 O10 1.897661 1_545
Co0 O3 1.951483 1_555
Co0 O1 1.959832 1_545
Co0 O9 1.982113 1_545
Co0 O7 1.989587 1_555
Co1 O7 1.879149 1_465
Co1 O9 1.880326 1_555
Co1 O0 1.955278 1_555
Co1 O2 1.977881 1_465
Co1 O10 1.981234 1_455
Co1 O4 1.986479 1_565
Co2 O11 1.875690 1_545
Co2 O2 1.934933 1_455
Co2 O0 1.978871 1_545
Co2 O5 1.981779 1_455
Co2 O6 2.027090 1_555
Co2 O8 2.122830 1_445
Co3 O8 1.855905 1_545
Co3 O6 1.883135 1_555
Co3 O5 1.935439 1_555
Co3 O1 1.960951 1_546
Co3 O3 1.993986 1_556
Co3 O11 2.002749 1_545
