# generated using pymatgen
data_LiMg14BO16
_symmetry_space_group_name_H-M   'P 1'
_cell_length_a   8.60117298
_cell_length_b   8.30874678
_cell_length_c   4.26199877
_cell_angle_alpha   90.00000000
_cell_angle_beta   90.00000000
_cell_angle_gamma   90.00000000
_symmetry_Int_Tables_number   1
_chemical_formula_structural   LiMg14BO16
_chemical_formula_sum   'Li1 Mg14 B1 O16'
_cell_volume   304.58360700
_cell_formula_units_Z   1
loop_
 _symmetry_equiv_pos_site_id
 _symmetry_equiv_pos_as_xyz
  1  'x, y, z'
loop_
 _atom_site_type_symbol
 _atom_site_label
 _atom_site_symmetry_multiplicity
 _atom_site_fract_x
 _atom_site_fract_y
 _atom_site_fract_z
 _atom_site_occupancy
  Li  Li0  1  -0.00000000  0.00000000  0.00000000  1
  Mg  Mg0  1  0.50000000  0.00000000  0.00000000  1
  Mg  Mg1  1  0.50000000  0.50000000  0.00000000  1
  Mg  Mg2  1  -0.00000000  0.25663862  0.50000000  1
  Mg  Mg3  1  -0.00000000  0.74336138  0.50000000  1
  Mg  Mg4  1  0.50000000  0.24921392  0.50000000  1
  Mg  Mg5  1  0.50000000  0.75078608  0.50000000  1
  Mg  Mg6  1  0.24098572  -0.00000000  0.50000000  1
  Mg  Mg7  1  0.24749041  0.50000000  0.50000000  1
  Mg  Mg8  1  0.75901428  -0.00000000  0.50000000  1
  Mg  Mg9  1  0.75250959  0.50000000  0.50000000  1
  Mg  Mg10  1  0.25397257  0.25314267  0.00000000  1
  Mg  Mg11  1  0.25397257  0.74685733  0.00000000  1
  Mg  Mg12  1  0.74602743  0.25314267  0.00000000  1
  Mg  Mg13  1  0.74602743  0.74685733  -0.00000000  1
  B  B0  1  -0.00000000  0.50000000  0.00000000  1
  O  O0  1  0.24404625  -0.00000000  0.00000000  1
  O  O1  1  0.26145363  0.50000000  0.00000000  1
  O  O2  1  0.75595375  -0.00000000  -0.00000000  1
  O  O3  1  0.73854637  0.50000000  0.00000000  1
  O  O4  1  0.24465103  0.25034242  0.50000000  1
  O  O5  1  0.24465103  0.74965758  0.50000000  1
  O  O6  1  0.75534897  0.25034242  0.50000000  1
  O  O7  1  0.75534897  0.74965758  0.50000000  1
  O  O8  1  -0.00000000  0.00000000  0.50000000  1
  O  O9  1  -0.00000000  0.50000000  0.50000000  1
  O  O10  1  0.50000000  0.00000000  0.50000000  1
  O  O11  1  0.50000000  0.50000000  0.50000000  1
  O  O12  1  -0.00000000  0.32968519  -0.00000000  1
  O  O13  1  -0.00000000  0.67031481  0.00000000  1
  O  O14  1  0.50000000  0.24723635  0.00000000  1
  O  O15  1  0.50000000  0.75276365  -0.00000000  1
loop_
_geom_bond_atom_site_label_1
_geom_bond_atom_site_label_2
_geom_bond_distance
_geom_bond_site_symmetry_2
Li0 O0 2.099084 1_555
Li0 O2 2.099084 1_455
Li0 O8 2.130999 1_555
Li0 O8 2.130999 1_554
Mg0 O15 2.054224 1_545
Mg0 O14 2.054224 1_555
Mg0 O10 2.130999 1_555
Mg0 O10 2.130999 1_554
Mg0 O0 2.201502 1_555
Mg0 O2 2.201502 1_555
Mg1 O3 2.051779 1_555
Mg1 O1 2.051779 1_555
Mg1 O14 2.100149 1_555
Mg1 O15 2.100149 1_555
Mg1 O11 2.130999 1_554
Mg1 O11 2.130999 1_555
Mg2 O9 2.022028 1_555
Mg2 O4 2.104936 1_555
Mg2 O6 2.104936 1_455
Mg2 O8 2.132345 1_555
Mg2 O12 2.215743 1_556
Mg2 O12 2.215743 1_555
Mg3 O9 2.022028 1_555
Mg3 O5 2.104936 1_555
Mg3 O7 2.104936 1_455
Mg3 O8 2.132345 1_565
Mg3 O13 2.215743 1_555
Mg3 O13 2.215743 1_556
Mg4 O10 2.070655 1_555
Mg4 O11 2.083718 1_555
Mg4 O14 2.131063 1_555
Mg4 O14 2.131063 1_556
Mg4 O6 2.196321 1_555
Mg4 O4 2.196321 1_555
Mg5 O10 2.070655 1_565
Mg5 O11 2.083718 1_555
Mg5 O15 2.131063 1_556
Mg5 O15 2.131063 1_555
Mg5 O7 2.196321 1_555
Mg5 O5 2.196321 1_555
Mg6 O8 2.072760 1_555
Mg6 O5 2.080271 1_545
Mg6 O4 2.080271 1_555
Mg6 O0 2.131162 1_555
Mg6 O0 2.131162 1_556
Mg6 O10 2.227827 1_555
Mg7 O4 2.074485 1_555
Mg7 O5 2.074485 1_555
Mg7 O9 2.128708 1_555
Mg7 O1 2.134381 1_555
Mg7 O1 2.134381 1_556
Mg7 O11 2.171879 1_555
Mg8 O8 2.072760 1_655
Mg8 O7 2.080271 1_545
Mg8 O6 2.080271 1_555
Mg8 O2 2.131162 1_556
Mg8 O2 2.131162 1_555
Mg8 O10 2.227827 1_555
Mg9 O6 2.074485 1_555
Mg9 O7 2.074485 1_555
Mg9 O9 2.128708 1_655
Mg9 O3 2.134381 1_556
Mg9 O3 2.134381 1_555
Mg9 O11 2.171879 1_555
Mg10 O1 2.052084 1_555
Mg10 O0 2.105030 1_555
Mg10 O14 2.116693 1_555
Mg10 O4 2.132634 1_554
Mg10 O4 2.132634 1_555
Mg10 O12 2.275156 1_555
Mg11 O1 2.052084 1_555
Mg11 O0 2.105030 1_565
Mg11 O15 2.116693 1_555
Mg11 O5 2.132634 1_554
Mg11 O5 2.132634 1_555
Mg11 O13 2.275156 1_555
Mg12 O3 2.052084 1_555
Mg12 O2 2.105030 1_555
Mg12 O14 2.116693 1_555
Mg12 O6 2.132634 1_554
Mg12 O6 2.132634 1_555
Mg12 O12 2.275156 1_655
Mg13 O3 2.052084 1_555
Mg13 O2 2.105030 1_565
Mg13 O15 2.116693 1_555
Mg13 O7 2.132634 1_554
Mg13 O7 2.132634 1_555
Mg13 O13 2.275156 1_655
B0 O12 1.415103 1_555
B0 O13 1.415103 1_555
B0 O9 2.130999 1_555
B0 O9 2.130999 1_554
