# generated using pymatgen
data_U3Al2Ge3
_symmetry_space_group_name_H-M   'P 1'
_cell_length_a   7.79408577
_cell_length_b   7.79408577
_cell_length_c   7.79408577
_cell_angle_alpha   120.56105576
_cell_angle_beta   120.56105576
_cell_angle_gamma   89.03093924
_symmetry_Int_Tables_number   1
_chemical_formula_structural   U3Al2Ge3
_chemical_formula_sum   'U6 Al4 Ge6'
_cell_volume   331.90554814
_cell_formula_units_Z   2
loop_
 _symmetry_equiv_pos_site_id
 _symmetry_equiv_pos_as_xyz
  1  'x, y, z'
loop_
 _atom_site_type_symbol
 _atom_site_label
 _atom_site_symmetry_multiplicity
 _atom_site_fract_x
 _atom_site_fract_y
 _atom_site_fract_z
 _atom_site_occupancy
  U  U0  1  0.36379900  0.17678300  0.50000000  1
  U  U1  1  0.67678300  0.86379900  0.50000000  1
  U  U2  1  0.17678300  0.67678300  0.81298400  1
  U  U3  1  0.86379900  0.36379900  0.18701600  1
  U  U4  1  0.74653800  0.74653800  0.00000000  1
  U  U5  1  0.24653800  0.24653800  0.00000000  1
  Al  Al0  1  0.69428300  0.46802000  0.50000000  1
  Al  Al1  1  0.96802000  0.19428300  0.50000000  1
  Al  Al2  1  0.46802000  0.96802000  0.77373700  1
  Al  Al3  1  0.19428300  0.69428300  0.22626300  1
  Ge  Ge0  1  0.35945700  0.55526700  0.50000000  1
  Ge  Ge1  1  0.05526700  0.85945700  0.50000000  1
  Ge  Ge2  1  0.55526700  0.05526700  0.19581100  1
  Ge  Ge3  1  0.85945700  0.35945700  0.80418900  1
  Ge  Ge4  1  0.99526400  0.99526400  0.00000000  1
  Ge  Ge5  1  0.49526400  0.49526400  0.00000000  1
loop_
_geom_bond_atom_site_label_1
_geom_bond_atom_site_label_2
_geom_bond_distance
_geom_bond_site_symmetry_2
Al0 Ge3 2.625590 1_555
Al0 Ge2 2.625596 1_555
Al0 Ge0 2.685652 1_555
Al0 U1 3.085444 1_555
Al0 U2 3.095548 1_655
Al0 U3 3.095548 1_555
Al0 U4 3.142975 1_556
Al0 U5 3.142975 1_555
Al1 Ge3 2.625590 1_555
Al1 Ge2 2.625596 1_555
Al1 Ge1 2.685652 1_645
Al1 U0 3.085444 1_655
Al1 U3 3.095548 1_555
Al1 U2 3.095548 1_655
Al1 U4 3.142975 1_545
Al1 U5 3.142975 1_656
Al2 Ge1 2.625597 1_555
Al2 Ge0 2.625597 1_555
Al2 Ge2 2.685660 1_566
Al2 U3 3.085444 1_566
Al2 U0 3.095548 1_565
Al2 U1 3.095548 1_555
Al2 U5 3.142975 1_566
Al2 U4 3.142975 1_556
Al3 Ge1 2.625597 1_555
Al3 Ge0 2.625597 1_555
Al3 Ge3 2.685654 1_454
Al3 U2 3.085444 1_554
Al3 U0 3.095548 1_565
Al3 U1 3.095548 1_555
Al3 U4 3.142975 1_455
Al3 U5 3.142975 1_555
Ge0 U0 2.949559 1_555
Ge0 U5 2.966404 1_555
Ge0 U4 2.966404 1_556
Ge0 U2 3.164142 1_555
Ge0 U3 3.164142 1_455
Ge1 U1 2.949559 1_455
Ge1 U4 2.966404 1_455
Ge1 U5 2.966404 1_566
Ge1 U2 3.164142 1_555
Ge1 U3 3.164142 1_455
Ge2 U2 2.949558 1_544
Ge2 U5 2.966407 1_555
Ge2 U4 2.966407 1_545
Ge2 U1 3.164136 1_545
Ge2 U0 3.164136 1_555
Ge3 U3 2.949566 1_556
Ge3 U5 2.966405 1_656
Ge3 U4 2.966405 1_556
Ge3 U0 3.164143 1_555
Ge3 U1 3.164143 1_545
Ge4 U4 2.764669 1_555
Ge4 U5 2.792991 1_665
Ge4 U1 2.930323 1_554
Ge4 U3 2.930323 1_565
Ge4 U0 2.930323 1_665
Ge4 U2 2.930323 1_654
Ge5 U5 2.764669 1_555
Ge5 U4 2.792991 1_555
Ge5 U3 2.930323 1_555
Ge5 U1 2.930323 1_555
Ge5 U0 2.930323 1_554
Ge5 U2 2.930323 1_554
