# generated using pymatgen
data_Hf9Mo4Se
_symmetry_space_group_name_H-M   'P 1'
_cell_length_a   8.68940772
_cell_length_b   8.68940650
_cell_length_c   8.59171164
_cell_angle_alpha   89.99999192
_cell_angle_beta   90.00000337
_cell_angle_gamma   120.00002389
_symmetry_Int_Tables_number   1
_chemical_formula_structural   Hf9Mo4Se
_chemical_formula_sum   'Hf18 Mo8 Se2'
_cell_volume   561.81135079
_cell_formula_units_Z   2
loop_
 _symmetry_equiv_pos_site_id
 _symmetry_equiv_pos_as_xyz
  1  'x, y, z'
loop_
 _atom_site_type_symbol
 _atom_site_label
 _atom_site_symmetry_multiplicity
 _atom_site_fract_x
 _atom_site_fract_y
 _atom_site_fract_z
 _atom_site_occupancy
  Hf  Hf0  1  0.54324980  0.08649988  0.25000026  1
  Hf  Hf1  1  0.45676039  0.91352093  0.74999989  1
  Hf  Hf2  1  0.91349754  0.45674880  0.25000018  1
  Hf  Hf3  1  0.08647840  0.54323917  0.74999992  1
  Hf  Hf4  1  0.54325004  0.45674930  0.25000014  1
  Hf  Hf5  1  0.45676024  0.54323885  0.74999986  1
  Hf  Hf6  1  0.19447722  0.38895574  0.04527530  1
  Hf  Hf7  1  0.80550155  0.61100307  0.95476231  1
  Hf  Hf8  1  0.61104402  0.80552228  0.04527477  1
  Hf  Hf9  1  0.80550142  0.61100282  0.54523790  1
  Hf  Hf10  1  0.38899707  0.19449786  0.95476200  1
  Hf  Hf11  1  0.19447740  0.38895594  0.45472441  1
  Hf  Hf12  1  0.19447738  0.80552235  0.04527568  1
  Hf  Hf13  1  0.38899749  0.19449794  0.54523831  1
  Hf  Hf14  1  0.80550085  0.19449758  0.95476138  1
  Hf  Hf15  1  0.61104382  0.80552241  0.45472511  1
  Hf  Hf16  1  0.80550063  0.19449771  0.54523869  1
  Hf  Hf17  1  0.19447758  0.80552251  0.45472445  1
  Mo  Mo0  1  0.00000047  0.00000037  -0.00000163  1
  Mo  Mo1  1  0.00000054  0.00000031  0.50000157  1
  Mo  Mo2  1  0.88992598  0.77985089  0.25000017  1
  Mo  Mo3  1  0.11004346  0.22008853  0.74999998  1
  Mo  Mo4  1  0.22014953  0.11007386  0.25000015  1
  Mo  Mo5  1  0.77991090  0.88995646  0.74999991  1
  Mo  Mo6  1  0.88992473  0.11007421  0.25000019  1
  Mo  Mo7  1  0.11004450  0.88995587  0.74999991  1
  Se  Se0  1  0.33333843  0.66667101  0.24999962  1
  Se  Se1  1  0.66666761  0.33333536  0.75000057  1
loop_
_geom_bond_atom_site_label_1
_geom_bond_atom_site_label_2
_geom_bond_distance
_geom_bond_site_symmetry_2
Hf0 Mo4 2.915374 1_555
Hf0 Mo6 2.915379 1_555
Hf0 Se0 3.159315 1_545
Hf1 Mo5 2.915765 1_555
Hf1 Mo7 2.915770 1_555
Hf1 Se1 3.159206 1_565
Hf2 Mo2 2.915378 1_555
Hf2 Mo6 2.915381 1_555
Hf2 Se0 3.159406 1_655
Hf3 Mo3 2.915768 1_555
Hf3 Mo7 2.915773 1_555
Hf3 Se1 3.159179 1_455
Hf4 Mo4 2.915380 1_555
Hf4 Mo2 2.915386 1_555
Hf4 Se0 3.159350 1_555
Hf5 Mo3 2.915771 1_555
Hf5 Mo5 2.915776 1_555
Hf5 Se1 3.159181 1_555
Hf6 Se0 2.731561 1_555
Hf6 Mo3 2.837396 1_554
Hf6 Mo0 2.952721 1_555
Hf6 Mo6 3.091380 1_455
Hf6 Mo4 3.091388 1_555
Hf7 Se1 2.731494 1_555
Hf7 Mo2 2.837043 1_556
Hf7 Mo0 2.952988 1_666
Hf7 Mo7 3.091745 1_655
Hf7 Mo5 3.091752 1_555
Hf8 Se0 2.731508 1_555
Hf8 Mo5 2.837391 1_554
Hf8 Mo0 2.952729 1_665
Hf8 Mo6 3.091378 1_565
Hf8 Mo2 3.091388 1_555
Hf9 Se1 2.731497 1_555
Hf9 Mo2 2.837042 1_555
Hf9 Mo1 2.952990 1_665
Hf9 Mo7 3.091744 1_655
Hf9 Mo5 3.091751 1_555
Hf10 Se1 2.731508 1_555
Hf10 Mo4 2.837044 1_556
Hf10 Mo0 2.952984 1_556
Hf10 Mo7 3.091739 1_545
Hf10 Mo3 3.091752 1_555
Hf11 Se0 2.731562 1_555
Hf11 Mo3 2.837398 1_555
Hf11 Mo1 2.952724 1_555
Hf11 Mo6 3.091378 1_455
Hf11 Mo4 3.091386 1_555
Hf12 Se0 2.731542 1_555
Hf12 Mo7 2.837397 1_554
Hf12 Mo0 2.952720 1_565
Hf12 Mo4 3.091368 1_565
Hf12 Mo2 3.091369 1_455
Hf13 Se1 2.731511 1_555
Hf13 Mo4 2.837045 1_555
Hf13 Mo1 2.952987 1_555
Hf13 Mo7 3.091738 1_545
Hf13 Mo3 3.091753 1_555
Hf14 Se1 2.731508 1_555
Hf14 Mo6 2.837048 1_556
Hf14 Mo0 2.952987 1_656
Hf14 Mo5 3.091729 1_545
Hf14 Mo3 3.091736 1_655
Hf15 Se0 2.731510 1_555
Hf15 Mo5 2.837391 1_555
Hf15 Mo1 2.952731 1_665
Hf15 Mo6 3.091375 1_565
Hf15 Mo2 3.091388 1_555
Hf16 Se1 2.731512 1_555
Hf16 Mo6 2.837047 1_555
Hf16 Mo1 2.952991 1_655
Hf16 Mo5 3.091729 1_545
Hf16 Mo3 3.091737 1_655
Hf17 Se0 2.731547 1_555
Hf17 Mo7 2.837395 1_555
Hf17 Mo1 2.952719 1_565
Hf17 Mo4 3.091366 1_565
Hf17 Mo2 3.091369 1_455
Mo0 Mo3 2.712303 1_554
Mo0 Mo7 2.712306 1_544
Mo0 Mo5 2.712311 1_444
Mo0 Mo4 2.712607 1_555
Mo0 Mo2 2.712608 1_445
Mo0 Mo6 2.712610 1_455
Mo1 Mo3 2.712304 1_555
Mo1 Mo7 2.712305 1_545
Mo1 Mo5 2.712310 1_445
Mo1 Mo4 2.712604 1_555
Mo1 Mo2 2.712606 1_445
Mo1 Mo6 2.712607 1_455
Mo2 Mo4 2.869443 1_665
Mo2 Mo6 2.869450 1_565
Mo3 Mo5 2.868653 1_445
Mo3 Mo7 2.868661 1_545
Mo4 Mo6 2.869459 1_455
Mo5 Mo7 2.868668 1_655
