# generated using pymatgen
data_YSbO3
_symmetry_space_group_name_H-M   'P 1'
_cell_length_a   6.52334656
_cell_length_b   6.52334656
_cell_length_c   12.65341900
_cell_angle_alpha   90.00000000
_cell_angle_beta   90.00000000
_cell_angle_gamma   120.00000568
_symmetry_Int_Tables_number   1
_chemical_formula_structural   YSbO3
_chemical_formula_sum   'Y6 Sb6 O18'
_cell_volume   466.31501448
_cell_formula_units_Z   6
loop_
 _symmetry_equiv_pos_site_id
 _symmetry_equiv_pos_as_xyz
  1  'x, y, z'
loop_
 _atom_site_type_symbol
 _atom_site_label
 _atom_site_symmetry_multiplicity
 _atom_site_fract_x
 _atom_site_fract_y
 _atom_site_fract_z
 _atom_site_occupancy
  Y  Y0  1  0.66666700  0.33333300  0.23620000  1
  Y  Y1  1  0.33333300  0.66666700  0.73620000  1
  Y  Y2  1  0.66666700  0.33333300  0.73620000  1
  Y  Y3  1  0.33333300  0.66666700  0.23620000  1
  Y  Y4  1  0.00000000  0.00000000  0.76823900  1
  Y  Y5  1  0.00000000  0.00000000  0.26823900  1
  Sb  Sb0  1  0.66661800  0.00000000  0.50067500  1
  Sb  Sb1  1  0.66661800  0.66661800  0.00067500  1
  Sb  Sb2  1  0.00000000  0.33338200  0.00067500  1
  Sb  Sb3  1  0.00000000  0.66661800  0.50067500  1
  Sb  Sb4  1  0.33338200  0.33338200  0.50067500  1
  Sb  Sb5  1  0.33338200  0.00000000  0.00067500  1
  O  O0  1  0.66666700  0.33333300  0.02884600  1
  O  O1  1  0.33333300  0.66666700  0.52884600  1
  O  O2  1  0.66666700  0.33333300  0.52884600  1
  O  O3  1  0.33333300  0.66666700  0.02884600  1
  O  O4  1  0.00000000  0.00000000  0.96716100  1
  O  O5  1  0.00000000  0.00000000  0.46716100  1
  O  O6  1  0.36064500  0.00000000  0.82595100  1
  O  O7  1  0.36064500  0.36064500  0.32595100  1
  O  O8  1  0.00000000  0.63935500  0.32595100  1
  O  O9  1  0.00000000  0.36064500  0.82595100  1
  O  O10  1  0.63935500  0.63935500  0.82595100  1
  O  O11  1  0.63935500  0.00000000  0.32595100  1
  O  O12  1  0.30851100  0.00000000  0.17654300  1
  O  O13  1  0.30851100  0.30851100  0.67654300  1
  O  O14  1  0.00000000  0.69148900  0.67654300  1
  O  O15  1  0.00000000  0.30851100  0.17654300  1
  O  O16  1  0.69148900  0.69148900  0.17654300  1
  O  O17  1  0.69148900  0.00000000  0.67654300  1
loop_
_geom_bond_atom_site_label_1
_geom_bond_atom_site_label_2
_geom_bond_distance
_geom_bond_site_symmetry_2
O0 Sb2 2.203313 1_655
O0 Sb5 2.203316 1_555
O0 Sb1 2.203319 1_555
O0 Y0 2.623737 1_555
O1 Sb3 2.203313 1_555
O1 Sb0 2.203316 1_565
O1 Sb4 2.203319 1_555
O1 Y1 2.623737 1_555
O2 Sb0 2.203313 1_555
O2 Sb3 2.203316 1_655
O2 Sb4 2.203319 1_555
O2 Y2 2.623737 1_555
O3 Sb5 2.203313 1_565
O3 Sb2 2.203316 1_555
O3 Sb1 2.203319 1_555
O3 Y3 2.623737 1_555
O4 Sb1 2.215726 1_446
O4 Sb2 2.215726 1_556
O4 Sb5 2.215726 1_556
O4 Y4 2.517043 1_555
O5 Sb4 2.215726 1_555
O5 Sb0 2.215726 1_455
O5 Sb3 2.215726 1_545
O5 Y5 2.517043 1_555
O6 Sb5 2.217998 1_556
O6 Y1 2.379552 1_545
O6 Y2 2.379554 1_555
O6 Y4 2.463342 1_555
O7 Sb4 2.217998 1_555
O7 Y3 2.379557 1_555
O7 Y0 2.379557 1_555
O7 Y5 2.463342 1_555
O8 Sb3 2.217998 1_555
O8 Y3 2.379552 1_555
O8 Y0 2.379554 1_455
O8 Y5 2.463342 1_565
O9 Sb2 2.217998 1_556
O9 Y2 2.379552 1_455
O9 Y1 2.379554 1_555
O9 Y4 2.463342 1_555
O10 Sb1 2.217998 1_556
O10 Y1 2.379557 1_555
O10 Y2 2.379557 1_555
O10 Y4 2.463342 1_665
O11 Sb0 2.217998 1_555
O11 Y0 2.379552 1_555
O11 Y3 2.379554 1_545
O11 Y5 2.463342 1_655
O12 Sb5 2.231238 1_555
O12 Y5 2.323031 1_555
O12 Y3 2.382509 1_545
O12 Y0 2.382512 1_555
O13 Sb4 2.231238 1_555
O13 Y4 2.323031 1_555
O13 Y2 2.382515 1_555
O13 Y1 2.382515 1_555
O14 Sb3 2.231238 1_555
O14 Y4 2.323031 1_565
O14 Y1 2.382509 1_555
O14 Y2 2.382512 1_455
O15 Sb2 2.231238 1_555
O15 Y5 2.323031 1_555
O15 Y0 2.382509 1_455
O15 Y3 2.382512 1_555
O16 Sb1 2.231238 1_555
O16 Y5 2.323031 1_665
O16 Y3 2.382515 1_555
O16 Y0 2.382515 1_555
O17 Sb0 2.231238 1_555
O17 Y4 2.323031 1_655
O17 Y2 2.382509 1_555
O17 Y1 2.382512 1_545
