# generated using pymatgen
data_CaSn2S5
_symmetry_space_group_name_H-M   'P 1'
_cell_length_a   5.18050500
_cell_length_b   11.73524303
_cell_length_c   10.22778119
_cell_angle_alpha   92.92217272
_cell_angle_beta   90.00000000
_cell_angle_gamma   102.75157665
_symmetry_Int_Tables_number   1
_chemical_formula_structural   CaSn2S5
_chemical_formula_sum   'Ca3 Sn6 S15'
_cell_volume   605.62796324
_cell_formula_units_Z   3
loop_
 _symmetry_equiv_pos_site_id
 _symmetry_equiv_pos_as_xyz
  1  'x, y, z'
loop_
 _atom_site_type_symbol
 _atom_site_label
 _atom_site_symmetry_multiplicity
 _atom_site_fract_x
 _atom_site_fract_y
 _atom_site_fract_z
 _atom_site_occupancy
  Ca  Ca0  1  0.00000000  0.00000000  0.00000000  1
  Ca  Ca1  1  0.85730000  0.71460100  0.49847300  1
  Ca  Ca2  1  0.14270000  0.28539900  0.50152700  1
  Sn  Sn0  1  0.34830100  0.69660100  0.81423700  1
  Sn  Sn1  1  0.65169900  0.30339900  0.18576300  1
  Sn  Sn2  1  0.73009100  0.46018200  0.84526300  1
  Sn  Sn3  1  0.26990900  0.53981800  0.15473700  1
  Sn  Sn4  1  0.54659400  0.09318800  0.72752000  1
  Sn  Sn5  1  0.45340600  0.90681200  0.27248000  1
  S  S0  1  0.50000000  0.00000000  0.50000000  1
  S  S1  1  0.85510800  0.71021600  0.78080700  1
  S  S2  1  0.14489200  0.28978400  0.21919300  1
  S  S3  1  0.23534000  0.47068100  0.86566500  1
  S  S4  1  0.76466000  0.52931900  0.13433500  1
  S  S5  1  0.04919600  0.09839200  0.67839300  1
  S  S6  1  0.95080400  0.90160800  0.32160700  1
  S  S7  1  0.66706000  0.33412000  0.60590400  1
  S  S8  1  0.33294000  0.66588000  0.39409600  1
  S  S9  1  0.46281000  0.92562100  0.87561500  1
  S  S10  1  0.53719000  0.07437900  0.12438500  1
  S  S11  1  0.62425200  0.24850400  0.91986300  1
  S  S12  1  0.37574800  0.75149600  0.08013700  1
  S  S13  1  0.28840000  0.57680000  0.56642300  1
  S  S14  1  0.71160000  0.42320000  0.43357700  1
loop_
_geom_bond_atom_site_label_1
_geom_bond_atom_site_label_2
_geom_bond_distance
_geom_bond_site_symmetry_2
Ca0 S10 2.989880 1_455
Ca0 S9 2.989880 1_544
Ca0 S10 2.989885 1_555
Ca0 S9 2.989885 1_444
Ca1 S8 2.845661 1_555
Ca1 S8 2.845666 1_655
Ca1 S6 2.873771 1_555
Ca1 S1 2.890708 1_555
Ca1 S13 3.129644 1_555
Ca1 S13 3.129649 1_655
Ca1 S14 3.366525 1_555
Ca2 S7 2.845661 1_555
Ca2 S7 2.845666 1_455
Ca2 S5 2.873771 1_555
Ca2 S2 2.890708 1_555
Ca2 S14 3.129644 1_555
Ca2 S14 3.129649 1_455
Ca2 S13 3.366525 1_555
S0 Sn5 2.508633 1_545
S0 Sn4 2.508633 1_555
S1 Sn0 2.618426 1_555
S1 Sn0 2.618431 1_655
S1 Sn2 2.970178 1_555
S2 Sn1 2.618426 1_555
S2 Sn1 2.618431 1_455
S2 Sn3 2.970178 1_555
S3 Sn2 2.600914 1_455
S3 Sn2 2.600920 1_555
S3 Sn0 2.665597 1_555
S3 Sn3 3.020414 1_556
S4 Sn3 2.600914 1_655
S4 Sn3 2.600920 1_555
S4 Sn1 2.665597 1_555
S4 Sn2 3.020414 1_554
S5 Sn4 2.639801 1_455
S5 Sn4 2.639801 1_555
S6 Sn5 2.639801 1_655
S6 Sn5 2.639801 1_555
S7 Sn2 2.775950 1_555
S7 Sn4 3.083904 1_555
S8 Sn3 2.775950 1_555
S8 Sn5 3.083904 1_555
S9 Sn4 2.505284 1_565
S9 Sn0 2.663339 1_555
S10 Sn5 2.505284 1_545
S10 Sn1 2.663339 1_555
S11 Sn2 2.577885 1_555
S11 Sn4 2.581614 1_555
S11 Sn1 2.759022 1_556
S12 Sn3 2.577885 1_555
S12 Sn5 2.581614 1_555
S12 Sn0 2.759022 1_554
S13 S8 2.081806 1_555
S13 Sn0 2.817988 1_555
S14 S7 2.081806 1_555
S14 Sn1 2.817988 1_555
