# generated using pymatgen
data_ZrVW
_symmetry_space_group_name_H-M   'P 1'
_cell_length_a   5.28892309
_cell_length_b   5.28892309
_cell_length_c   5.28892309
_cell_angle_alpha   120.11619808
_cell_angle_beta   119.52743502
_cell_angle_gamma   90.30965305
_symmetry_Int_Tables_number   1
_chemical_formula_structural   ZrVW
_chemical_formula_sum   'Zr2 V2 W2'
_cell_volume   104.88991648
_cell_formula_units_Z   2
loop_
 _symmetry_equiv_pos_site_id
 _symmetry_equiv_pos_as_xyz
  1  'x, y, z'
loop_
 _atom_site_type_symbol
 _atom_site_label
 _atom_site_symmetry_multiplicity
 _atom_site_fract_x
 _atom_site_fract_y
 _atom_site_fract_z
 _atom_site_occupancy
  Zr  Zr0  1  0.12487735  0.87487735  0.25000000  1
  Zr  Zr1  1  0.87512265  0.12512265  0.75000000  1
  V  V0  1  0.00000000  0.50000000  0.50000000  1
  V  V1  1  0.50000000  0.50000000  0.00000000  1
  W  W0  1  0.50000000  0.00000000  0.00000000  1
  W  W1  1  0.50000000  0.50000000  0.50000000  1
loop_
_geom_bond_atom_site_label_1
_geom_bond_atom_site_label_2
_geom_bond_distance
_geom_bond_site_symmetry_2
Zr0 Zr1 3.231021 1_465
Zr0 Zr1 3.231021 1_454
Zr0 Zr1 3.252358 1_565
Zr0 Zr1 3.252358 1_464
V0 W1 2.644462 1_555
V0 W0 2.644462 1_455
V0 W0 2.644462 1_566
V0 W1 2.644462 1_455
V0 V1 2.663328 1_455
V0 V1 2.663328 1_556
V0 Zr1 3.097260 1_455
V0 Zr0 3.097260 1_555
V0 Zr0 3.100498 1_545
V0 Zr1 3.100498 1_465
V0 Zr0 3.100498 1_556
V0 Zr1 3.100498 1_454
V1 W1 2.644462 1_555
V1 W0 2.644462 1_555
V1 W0 2.644462 1_565
V1 W1 2.644462 1_554
V1 Zr1 3.097260 1_454
V1 Zr0 3.097260 1_655
V1 Zr0 3.100498 1_555
V1 Zr1 3.100498 1_554
V1 Zr0 3.100498 1_544
V1 Zr1 3.100498 1_565
W0 W1 2.639816 1_544
W0 W1 2.639816 1_555
W0 Zr1 3.093878 1_554
W0 Zr0 3.093878 1_545
W0 Zr0 3.114994 1_645
W0 Zr1 3.114994 1_555
W0 Zr1 3.114994 1_454
W0 Zr0 3.114994 1_544
W1 Zr1 3.093878 1_565
W1 Zr0 3.093878 1_545
W1 Zr0 3.114994 1_656
W1 Zr0 3.114994 1_555
W1 Zr1 3.114994 1_555
W1 Zr1 3.114994 1_454
