# generated using pymatgen
data_Ba6Nd2Y(MoO6)3
_symmetry_space_group_name_H-M   'P 1'
_cell_length_a   10.48681976
_cell_length_b   10.48681976
_cell_length_c   6.09081929
_cell_angle_alpha   73.28227308
_cell_angle_beta   73.28227308
_cell_angle_gamma   48.76219795
_symmetry_Int_Tables_number   1
_chemical_formula_structural   Ba6Nd2Y(MoO6)3
_chemical_formula_sum   'Ba6 Nd2 Y1 Mo3 O18'
_cell_volume   477.91740519
_cell_formula_units_Z   1
loop_
 _symmetry_equiv_pos_site_id
 _symmetry_equiv_pos_as_xyz
  1  'x, y, z'
loop_
 _atom_site_type_symbol
 _atom_site_label
 _atom_site_symmetry_multiplicity
 _atom_site_fract_x
 _atom_site_fract_y
 _atom_site_fract_z
 _atom_site_occupancy
  Ba  Ba0  1  0.91635800  0.41574300  0.33407400  1
  Ba  Ba1  1  0.25020500  0.74979500  0.00000000  1
  Ba  Ba2  1  0.58425700  0.08364200  0.66592600  1
  Ba  Ba3  1  0.74979500  0.25020500  0.00000000  1
  Ba  Ba4  1  0.08364200  0.58425700  0.66592600  1
  Ba  Ba5  1  0.41574300  0.91635800  0.33407400  1
  Nd  Nd0  1  0.16668100  0.16668100  0.83344400  1
  Nd  Nd1  1  0.83331900  0.83331900  0.16655600  1
  Y  Y0  1  0.50000000  0.50000000  0.50000000  1
  Mo  Mo0  1  0.00000000  0.00000000  0.50000000  1
  Mo  Mo1  1  0.33498200  0.33498200  0.16415500  1
  Mo  Mo2  1  0.66501800  0.66501800  0.83584500  1
  O  O0  1  0.89964300  0.43196800  0.83359100  1
  O  O1  1  0.23121900  0.76878100  0.50000000  1
  O  O2  1  0.56803200  0.10035700  0.16640900  1
  O  O3  1  0.76878100  0.23121900  0.50000000  1
  O  O4  1  0.10035700  0.56803200  0.16640900  1
  O  O5  1  0.43196800  0.89964300  0.83359100  1
  O  O6  1  0.75144200  0.75144200  0.54708200  1
  O  O7  1  0.42244000  0.42244000  0.86782800  1
  O  O8  1  0.08992900  0.08992900  0.21226200  1
  O  O9  1  0.91007100  0.91007100  0.78773800  1
  O  O10  1  0.57756000  0.57756000  0.13217200  1
  O  O11  1  0.24855800  0.24855800  0.45291800  1
  O  O12  1  0.06707700  0.06707700  0.69840700  1
  O  O13  1  0.72961300  0.72961300  0.03306200  1
  O  O14  1  0.40241200  0.40241200  0.36284800  1
  O  O15  1  0.93292300  0.93292300  0.30159300  1
  O  O16  1  0.59758800  0.59758800  0.63715200  1
  O  O17  1  0.27038700  0.27038700  0.96693800  1
loop_
_geom_bond_atom_site_label_1
_geom_bond_atom_site_label_2
_geom_bond_distance
_geom_bond_site_symmetry_2
Ba0 O8 2.831975 1_655
Ba0 O13 2.850651 1_555
Ba0 O16 2.879201 1_555
Ba0 O11 2.898696 1_655
Ba0 O3 3.014004 1_555
Ba0 O0 3.044334 1_555
Ba0 O4 3.050788 1_655
Ba0 O0 3.053165 1_554
Ba0 O6 3.221428 1_555
Ba0 O10 3.221737 1_555
Ba0 O12 3.243844 1_655
Ba0 O17 3.291108 1_654
Ba1 O15 2.867454 1_455
Ba1 O12 2.867454 1_564
Ba1 O10 2.876482 1_555
Ba1 O7 2.876482 1_554
Ba1 O5 3.008507 1_554
Ba1 O4 3.008507 1_555
Ba1 O1 3.049843 1_555
Ba1 O1 3.049843 1_554
Ba1 O14 3.230273 1_555
Ba1 O16 3.230273 1_554
Ba1 O8 3.273897 1_565
Ba1 O9 3.273897 1_454
Ba2 O9 2.831975 1_545
Ba2 O17 2.850651 1_555
Ba2 O14 2.879201 1_555
Ba2 O6 2.898696 1_545
Ba2 O3 3.014004 1_555
Ba2 O2 3.044334 1_555
Ba2 O5 3.050788 1_545
Ba2 O2 3.053165 1_556
Ba2 O11 3.221428 1_555
Ba2 O7 3.221737 1_555
Ba2 O15 3.243844 1_545
Ba2 O13 3.291108 1_546
Ba3 O15 2.867454 1_545
Ba3 O12 2.867454 1_654
Ba3 O10 2.876482 1_555
Ba3 O7 2.876482 1_554
Ba3 O0 3.008507 1_554
Ba3 O2 3.008507 1_555
Ba3 O3 3.049843 1_555
Ba3 O3 3.049843 1_554
Ba3 O14 3.230273 1_555
Ba3 O16 3.230273 1_554
Ba3 O8 3.273897 1_655
Ba3 O9 3.273897 1_544
Ba4 O9 2.831975 1_455
Ba4 O17 2.850651 1_555
Ba4 O14 2.879201 1_555
Ba4 O6 2.898696 1_455
Ba4 O1 3.014004 1_555
Ba4 O4 3.044334 1_555
Ba4 O0 3.050788 1_455
Ba4 O4 3.053165 1_556
Ba4 O11 3.221428 1_555
Ba4 O7 3.221737 1_555
Ba4 O15 3.243844 1_455
Ba4 O13 3.291108 1_456
Ba5 O8 2.831975 1_565
Ba5 O13 2.850651 1_555
Ba5 O16 2.879201 1_555
Ba5 O11 2.898696 1_565
Ba5 O1 3.014004 1_555
Ba5 O5 3.044334 1_555
Ba5 O2 3.050788 1_565
Ba5 O5 3.053165 1_554
Ba5 O6 3.221428 1_555
Ba5 O10 3.221737 1_555
Ba5 O12 3.243844 1_565
Ba5 O17 3.291108 1_564
Nd0 O12 2.299017 1_555
Nd0 O0 2.304494 1_455
Nd0 O5 2.304494 1_545
Nd0 O8 2.310110 1_556
Nd0 O11 2.351263 1_555
Nd0 O17 2.367151 1_555
Nd1 O15 2.299017 1_555
Nd1 O4 2.304494 1_655
Nd1 O2 2.304494 1_565
Nd1 O9 2.310110 1_554
Nd1 O6 2.351263 1_555
Nd1 O13 2.367151 1_555
Mo0 O3 2.001895 1_455
Mo0 O1 2.001895 1_545
Mo0 O12 2.020008 1_555
Mo0 O15 2.020008 1_445
Mo0 O9 2.030029 1_445
Mo0 O8 2.030029 1_555
Mo1 O17 1.975313 1_554
Mo1 O11 1.996241 1_555
Mo1 O2 2.024636 1_555
Mo1 O4 2.024636 1_555
Mo1 O14 2.026953 1_555
Mo1 O7 2.035734 1_554
Mo2 O13 1.975313 1_556
Mo2 O6 1.996241 1_555
Mo2 O5 2.024636 1_555
Mo2 O0 2.024636 1_555
Mo2 O16 2.026953 1_555
Mo2 O10 2.035734 1_556
O1 Y0 2.327106 1_555
O3 Y0 2.327106 1_555
O7 Y0 2.262265 1_555
O10 Y0 2.262265 1_555
O14 Y0 2.270886 1_555
O16 Y0 2.270886 1_555
