# generated using pymatgen
data_Li9Mn2Co5O16
_symmetry_space_group_name_H-M   'P 1'
_cell_length_a   2.98881800
_cell_length_b   9.89859805
_cell_length_c   10.01460302
_cell_angle_alpha   78.23110705
_cell_angle_beta   87.67150206
_cell_angle_gamma   87.38382810
_symmetry_Int_Tables_number   1
_chemical_formula_structural   Li9Mn2Co5O16
_chemical_formula_sum   'Li9 Mn2 Co5 O16'
_cell_volume   289.60379141
_cell_formula_units_Z   1
loop_
 _symmetry_equiv_pos_site_id
 _symmetry_equiv_pos_as_xyz
  1  'x, y, z'
loop_
 _atom_site_type_symbol
 _atom_site_label
 _atom_site_symmetry_multiplicity
 _atom_site_fract_x
 _atom_site_fract_y
 _atom_site_fract_z
 _atom_site_occupancy
  Li  Li0  1  0.00123000  0.25125800  0.12393300  1
  Li  Li1  1  0.49723500  0.74719800  0.12513500  1
  Li  Li2  1  0.49294700  0.24521800  0.37384400  1
  Li  Li3  1  0.99525200  0.75049500  0.37159400  1
  Li  Li4  1  0.01690100  0.25542500  0.63226500  1
  Li  Li5  1  0.51533500  0.74567400  0.63208000  1
  Li  Li6  1  0.50442600  0.26399600  0.86546100  1
  Li  Li7  1  0.99007300  0.74764400  0.87847100  1
  Li  Li8  1  0.98334400  0.49024000  0.74970200  1
  Mn  Mn0  1  0.98869700  0.00220300  0.00111300  1
  Mn  Mn1  1  0.51052200  0.50024200  0.50452700  1
  Co  Co0  1  0.49002500  0.50012700  0.99158300  1
  Co  Co1  1  0.51114800  0.99984700  0.25196000  1
  Co  Co2  1  0.01192200  0.50325200  0.24796200  1
  Co  Co3  1  0.00897100  0.99701100  0.49921800  1
  Co  Co4  1  0.48960800  0.00025100  0.74776400  1
  O  O0  1  0.52578200  0.11607500  0.07361900  1
  O  O1  1  0.02168900  0.61124900  0.06822300  1
  O  O2  1  0.04129900  0.11645800  0.31808500  1
  O  O3  1  0.54048100  0.61316000  0.31480800  1
  O  O4  1  0.49066700  0.11278900  0.56666200  1
  O  O5  1  0.99044300  0.60912500  0.55330500  1
  O  O6  1  0.97355900  0.11476700  0.81652500  1
  O  O7  1  0.49678400  0.61468100  0.83412600  1
  O  O8  1  0.47248900  0.39277100  0.17916200  1
  O  O9  1  0.97555200  0.88581500  0.18515200  1
  O  O10  1  0.02918100  0.39600900  0.43435000  1
  O  O11  1  0.52083300  0.88603100  0.43069300  1
  O  O12  1  0.49930200  0.38200100  0.67172400  1
  O  O13  1  0.00217100  0.88051500  0.68085200  1
  O  O14  1  0.95986000  0.38494500  0.94523200  1
  O  O15  1  0.45227200  0.88353000  0.93086900  1
loop_
_geom_bond_atom_site_label_1
_geom_bond_atom_site_label_2
_geom_bond_distance
_geom_bond_site_symmetry_2
Li0 O14 2.001540 1_454
Li0 O2 2.126334 1_555
Li0 O0 2.126444 1_555
Li0 O0 2.137895 1_455
Li0 O8 2.192812 1_455
Li0 O8 2.193505 1_555
Li1 O3 2.088394 1_555
Li1 O15 2.134913 1_554
Li1 O1 2.154189 1_655
Li1 O1 2.170075 1_555
Li1 O9 2.177170 1_455
Li1 O9 2.207494 1_555
Li2 O2 2.065704 1_555
Li2 O4 2.101028 1_555
Li2 O10 2.151329 1_555
Li2 O2 2.155833 1_655
Li2 O8 2.185885 1_555
Li2 O10 2.414538 1_655
Li3 O5 2.056911 1_555
Li3 O11 2.059822 1_555
Li3 O9 2.065283 1_555
Li3 O3 2.136773 1_555
Li3 O3 2.205637 1_655
Li3 O11 2.282476 1_655
Li4 O12 2.023503 1_455
Li4 O12 2.053770 1_555
Li4 O6 2.075910 1_455
Li4 O4 2.133174 1_555
Li4 O10 2.177142 1_555
Li4 O4 2.358797 1_455
Li5 O13 2.095393 1_555
Li5 O5 2.152782 1_555
Li5 O13 2.153668 1_655
Li5 O7 2.169272 1_555
Li5 O11 2.203274 1_555
Li5 O5 2.374781 1_455
Li6 O12 2.050686 1_555
Li6 O6 2.106797 1_555
Li6 O14 2.133479 1_555
Li6 O14 2.197106 1_455
Li6 O0 2.291457 1_556
Li6 O6 2.347792 1_455
Li7 O7 2.055455 1_655
Li7 O1 2.097430 1_656
Li7 O15 2.123536 1_655
Li7 O7 2.138214 1_555
Li7 O13 2.141168 1_655
Li7 O15 2.165713 1_555
Li8 O14 2.022025 1_555
Li8 O12 2.056325 1_655
Li8 O5 2.075683 1_555
Li8 O12 2.103653 1_555
Li8 O7 2.123286 1_555
Li8 O7 2.299977 1_655
Mn0 O0 1.954968 1_555
Mn0 O6 1.955185 1_554
Mn0 O9 1.964135 1_545
Mn0 O15 1.975807 1_644
Mn0 O0 2.228982 1_655
Mn0 O15 2.246318 1_544
Mn1 O12 1.836910 1_555
Mn1 O5 1.953614 1_455
Mn1 O5 1.967381 1_555
Mn1 O3 1.999051 1_555
Mn1 O10 2.005682 1_655
Mn1 O10 2.035091 1_555
Co0 O7 1.744366 1_555
Co0 O14 1.871918 1_555
Co0 O8 1.960522 1_556
Co0 O1 1.968469 1_556
Co0 O14 2.113487 1_455
Co0 O1 2.219708 1_656
Co1 O11 1.911179 1_555
Co1 O0 1.917141 1_565
Co1 O9 1.933366 1_555
Co1 O2 1.957349 1_565
Co1 O9 2.200985 1_455
Co1 O2 2.201288 1_665
Co2 O1 1.896662 1_555
Co2 O8 1.912714 1_555
Co2 O3 1.922935 1_455
Co2 O10 1.951480 1_555
Co2 O3 2.160402 1_555
Co2 O8 2.197433 1_455
Co3 O13 1.944832 1_555
Co3 O2 1.954248 1_565
Co3 O11 2.021637 1_555
Co3 O4 2.058650 1_465
Co3 O11 2.083625 1_455
Co3 O4 2.094696 1_565
Co4 O4 1.925099 1_555
Co4 O15 1.959789 1_545
Co4 O6 2.051964 1_455
Co4 O13 2.067723 1_645
Co4 O6 2.097701 1_555
Co4 O13 2.130060 1_545
