# generated using pymatgen
data_MgTi2
_symmetry_space_group_name_H-M   'P 1'
_cell_length_a   11.93445816
_cell_length_b   11.93445816
_cell_length_c   13.60129141
_cell_angle_alpha   77.08651266
_cell_angle_beta   77.08651266
_cell_angle_gamma   28.41326478
_symmetry_Int_Tables_number   1
_chemical_formula_structural   MgTi2
_chemical_formula_sum   'Mg16 Ti32'
_cell_volume   896.96888028
_cell_formula_units_Z   16
loop_
 _symmetry_equiv_pos_site_id
 _symmetry_equiv_pos_as_xyz
  1  'x, y, z'
loop_
 _atom_site_type_symbol
 _atom_site_label
 _atom_site_symmetry_multiplicity
 _atom_site_fract_x
 _atom_site_fract_y
 _atom_site_fract_z
 _atom_site_occupancy
  Mg  Mg0_0  1  0.26416000  0.26416000  0.09796000  1
  Mg  Mg0_1  1  0.26416000  0.26416000  0.59796000  1
  Mg  Mg0_2  1  0.26416000  0.76416000  0.09796000  1
  Mg  Mg0_3  1  0.26416000  0.76416000  0.59796000  1
  Mg  Mg0_4  1  0.76416000  0.26416000  0.09796000  1
  Mg  Mg0_5  1  0.76416000  0.26416000  0.59796000  1
  Mg  Mg0_6  1  0.76416000  0.76416000  0.09796000  1
  Mg  Mg0_7  1  0.76416000  0.76416000  0.59796000  1
  Mg  Mg1_0  1  0.23584000  0.23584000  0.40204000  1
  Mg  Mg1_1  1  0.23584000  0.23584000  0.90204000  1
  Mg  Mg1_2  1  0.23584000  0.73584000  0.40204000  1
  Mg  Mg1_3  1  0.23584000  0.73584000  0.90204000  1
  Mg  Mg1_4  1  0.73584000  0.23584000  0.40204000  1
  Mg  Mg1_5  1  0.73584000  0.23584000  0.90204000  1
  Mg  Mg1_6  1  0.73584000  0.73584000  0.40204000  1
  Mg  Mg1_7  1  0.73584000  0.73584000  0.90204000  1
  Ti  Ti0_0  1  0.39620650  0.39620650  0.07340800  1
  Ti  Ti0_1  1  0.39620650  0.39620650  0.57340800  1
  Ti  Ti0_2  1  0.39620650  0.89620650  0.07340800  1
  Ti  Ti0_3  1  0.39620650  0.89620650  0.57340800  1
  Ti  Ti0_4  1  0.89620650  0.39620650  0.07340800  1
  Ti  Ti0_5  1  0.89620650  0.39620650  0.57340800  1
  Ti  Ti0_6  1  0.89620650  0.89620650  0.07340800  1
  Ti  Ti0_7  1  0.89620650  0.89620650  0.57340800  1
  Ti  Ti1_0  1  0.07569350  0.07569350  0.23729100  1
  Ti  Ti1_1  1  0.07569350  0.07569350  0.73729100  1
  Ti  Ti1_2  1  0.07569350  0.57569350  0.23729100  1
  Ti  Ti1_3  1  0.07569350  0.57569350  0.73729100  1
  Ti  Ti1_4  1  0.57569350  0.07569350  0.23729100  1
  Ti  Ti1_5  1  0.57569350  0.07569350  0.73729100  1
  Ti  Ti1_6  1  0.57569350  0.57569350  0.23729100  1
  Ti  Ti1_7  1  0.57569350  0.57569350  0.73729100  1
  Ti  Ti2_0  1  0.42430650  0.42430650  0.26270900  1
  Ti  Ti2_1  1  0.42430650  0.42430650  0.76270900  1
  Ti  Ti2_2  1  0.42430650  0.92430650  0.26270900  1
  Ti  Ti2_3  1  0.42430650  0.92430650  0.76270900  1
  Ti  Ti2_4  1  0.92430650  0.42430650  0.26270900  1
  Ti  Ti2_5  1  0.92430650  0.42430650  0.76270900  1
  Ti  Ti2_6  1  0.92430650  0.92430650  0.26270900  1
  Ti  Ti2_7  1  0.92430650  0.92430650  0.76270900  1
  Ti  Ti3_0  1  0.10379350  0.10379350  0.42659200  1
  Ti  Ti3_1  1  0.10379350  0.10379350  0.92659200  1
  Ti  Ti3_2  1  0.10379350  0.60379350  0.42659200  1
  Ti  Ti3_3  1  0.10379350  0.60379350  0.92659200  1
  Ti  Ti3_4  1  0.60379350  0.10379350  0.42659200  1
  Ti  Ti3_5  1  0.60379350  0.10379350  0.92659200  1
  Ti  Ti3_6  1  0.60379350  0.60379350  0.42659200  1
  Ti  Ti3_7  1  0.60379350  0.60379350  0.92659200  1
loop_
_geom_bond_atom_site_label_1
_geom_bond_atom_site_label_2
_geom_bond_distance
_geom_bond_site_symmetry_2
Mg0_0 Mg1_1 2.887125 1_554
Mg0_0 Mg0_6 2.928950 1_545
Mg0_0 Mg0_6 2.928950 1_455
Mg0_0 Ti0_0 2.996105 1_555
Mg0_0 Ti1_4 3.001223 1_555
Mg0_0 Ti1_2 3.001223 1_555
Mg0_0 Ti2_2 3.056233 1_545
Mg0_0 Ti2_4 3.056233 1_455
Mg0_0 Ti3_5 3.106471 1_554
Mg0_0 Ti3_3 3.106471 1_554
Mg0_0 Ti0_4 3.182075 1_455
Mg0_0 Ti0_2 3.182075 1_545
Mg0_1 Mg1_0 2.887125 1_555
Mg0_1 Mg0_7 2.928950 1_455
Mg0_1 Mg0_7 2.928950 1_545
Mg0_1 Ti0_1 2.996105 1_555
Mg0_1 Ti1_5 3.001223 1_555
Mg0_1 Ti1_3 3.001223 1_555
Mg0_1 Ti2_3 3.056233 1_545
Mg0_1 Ti2_5 3.056233 1_455
Mg0_1 Ti3_2 3.106471 1_555
Mg0_1 Ti3_4 3.106471 1_555
Mg0_1 Ti0_5 3.182075 1_455
Mg0_1 Ti0_3 3.182075 1_545
Mg0_2 Mg1_3 2.887125 1_554
Mg0_2 Mg0_4 2.928950 1_555
Mg0_2 Mg0_4 2.928950 1_465
Mg0_2 Ti0_2 2.996105 1_555
Mg0_2 Ti1_0 3.001223 1_565
Mg0_2 Ti1_6 3.001223 1_555
Mg0_2 Ti2_0 3.056233 1_555
Mg0_2 Ti2_6 3.056233 1_455
Mg0_2 Ti3_1 3.106471 1_564
Mg0_2 Ti3_7 3.106471 1_554
Mg0_2 Ti0_6 3.182075 1_455
Mg0_2 Ti0_0 3.182075 1_555
Mg0_3 Mg1_2 2.887125 1_555
Mg0_3 Mg0_5 2.928950 1_555
Mg0_3 Mg0_5 2.928950 1_465
Mg0_3 Ti0_3 2.996105 1_555
Mg0_3 Ti1_7 3.001223 1_555
Mg0_3 Ti1_1 3.001223 1_565
Mg0_3 Ti2_7 3.056233 1_455
Mg0_3 Ti2_1 3.056233 1_555
Mg0_3 Ti3_0 3.106471 1_565
Mg0_3 Ti3_6 3.106471 1_555
Mg0_3 Ti0_1 3.182075 1_555
Mg0_3 Ti0_7 3.182075 1_455
Mg0_4 Mg1_5 2.887125 1_554
Mg0_4 Ti0_4 2.996105 1_555
Mg0_4 Ti1_6 3.001223 1_555
Mg0_4 Ti1_0 3.001223 1_655
Mg0_4 Ti2_6 3.056233 1_545
Mg0_4 Ti2_0 3.056233 1_555
Mg0_4 Ti3_1 3.106471 1_654
Mg0_4 Ti3_7 3.106471 1_554
Mg0_4 Ti0_6 3.182075 1_545
Mg0_4 Ti0_0 3.182075 1_555
Mg0_5 Mg1_4 2.887125 1_555
Mg0_5 Ti0_5 2.996105 1_555
Mg0_5 Ti1_7 3.001223 1_555
Mg0_5 Ti1_1 3.001223 1_655
Mg0_5 Ti2_7 3.056233 1_545
Mg0_5 Ti2_1 3.056233 1_555
Mg0_5 Ti3_0 3.106471 1_655
Mg0_5 Ti3_6 3.106471 1_555
Mg0_5 Ti0_1 3.182075 1_555
Mg0_5 Ti0_7 3.182075 1_545
Mg0_6 Mg1_7 2.887125 1_554
Mg0_6 Ti0_6 2.996105 1_555
Mg0_6 Ti1_4 3.001223 1_565
Mg0_6 Ti1_2 3.001223 1_655
Mg0_6 Ti2_2 3.056233 1_555
Mg0_6 Ti2_4 3.056233 1_555
Mg0_6 Ti3_3 3.106471 1_654
Mg0_6 Ti3_5 3.106471 1_564
Mg0_6 Ti0_4 3.182075 1_555
Mg0_6 Ti0_2 3.182075 1_555
Mg0_7 Mg1_6 2.887125 1_555
Mg0_7 Ti0_7 2.996105 1_555
Mg0_7 Ti1_3 3.001223 1_655
Mg0_7 Ti1_5 3.001223 1_565
Mg0_7 Ti2_3 3.056233 1_555
Mg0_7 Ti2_5 3.056233 1_555
Mg0_7 Ti3_2 3.106471 1_655
Mg0_7 Ti3_4 3.106471 1_565
Mg0_7 Ti0_5 3.182075 1_555
Mg0_7 Ti0_3 3.182075 1_555
Mg1_0 Mg1_6 2.928950 1_545
Mg1_0 Mg1_6 2.928950 1_455
Mg1_0 Ti3_0 2.996105 1_555
Mg1_0 Ti2_4 3.001223 1_455
Mg1_0 Ti2_2 3.001223 1_545
Mg1_0 Ti1_2 3.056233 1_555
Mg1_0 Ti1_4 3.056233 1_555
Mg1_0 Ti0_3 3.106471 1_545
Mg1_0 Ti0_5 3.106471 1_455
Mg1_0 Ti3_4 3.182075 1_555
Mg1_0 Ti3_2 3.182075 1_555
Mg1_1 Mg1_7 2.928950 1_455
Mg1_1 Mg1_7 2.928950 1_545
Mg1_1 Ti3_1 2.996105 1_555
Mg1_1 Ti2_5 3.001223 1_455
Mg1_1 Ti2_3 3.001223 1_545
Mg1_1 Ti1_3 3.056233 1_555
Mg1_1 Ti1_5 3.056233 1_555
Mg1_1 Ti0_4 3.106471 1_456
Mg1_1 Ti0_2 3.106471 1_546
Mg1_1 Ti3_3 3.182075 1_555
Mg1_1 Ti3_5 3.182075 1_555
Mg1_2 Mg1_4 2.928950 1_465
Mg1_2 Mg1_4 2.928950 1_555
Mg1_2 Ti3_2 2.996105 1_555
Mg1_2 Ti2_6 3.001223 1_455
Mg1_2 Ti2_0 3.001223 1_555
Mg1_2 Ti1_0 3.056233 1_565
Mg1_2 Ti1_6 3.056233 1_555
Mg1_2 Ti0_1 3.106471 1_555
Mg1_2 Ti0_7 3.106471 1_455
Mg1_2 Ti3_0 3.182075 1_565
Mg1_2 Ti3_6 3.182075 1_555
Mg1_3 Mg1_5 2.928950 1_555
Mg1_3 Mg1_5 2.928950 1_465
Mg1_3 Ti3_3 2.996105 1_555
Mg1_3 Ti2_7 3.001223 1_455
Mg1_3 Ti2_1 3.001223 1_555
Mg1_3 Ti1_7 3.056233 1_555
Mg1_3 Ti1_1 3.056233 1_565
Mg1_3 Ti0_6 3.106471 1_456
Mg1_3 Ti0_0 3.106471 1_556
Mg1_3 Ti3_1 3.182075 1_565
Mg1_3 Ti3_7 3.182075 1_555
Mg1_4 Ti3_4 2.996105 1_555
Mg1_4 Ti2_6 3.001223 1_545
Mg1_4 Ti2_0 3.001223 1_555
Mg1_4 Ti1_0 3.056233 1_655
Mg1_4 Ti1_6 3.056233 1_555
Mg1_4 Ti0_1 3.106471 1_555
Mg1_4 Ti0_7 3.106471 1_545
Mg1_4 Ti3_0 3.182075 1_655
Mg1_4 Ti3_6 3.182075 1_555
Mg1_5 Ti3_5 2.996105 1_555
Mg1_5 Ti2_7 3.001223 1_545
Mg1_5 Ti2_1 3.001223 1_555
Mg1_5 Ti1_7 3.056233 1_555
Mg1_5 Ti1_1 3.056233 1_655
Mg1_5 Ti0_6 3.106471 1_546
Mg1_5 Ti0_0 3.106471 1_556
Mg1_5 Ti3_1 3.182075 1_655
Mg1_5 Ti3_7 3.182075 1_555
Mg1_6 Ti3_6 2.996105 1_555
Mg1_6 Ti2_4 3.001223 1_555
Mg1_6 Ti2_2 3.001223 1_555
Mg1_6 Ti1_4 3.056233 1_565
Mg1_6 Ti1_2 3.056233 1_655
Mg1_6 Ti0_3 3.106471 1_555
Mg1_6 Ti0_5 3.106471 1_555
Mg1_6 Ti3_4 3.182075 1_565
Mg1_6 Ti3_2 3.182075 1_655
Mg1_7 Ti3_7 2.996105 1_555
Mg1_7 Ti2_5 3.001223 1_555
Mg1_7 Ti2_3 3.001223 1_555
Mg1_7 Ti1_3 3.056233 1_655
Mg1_7 Ti1_5 3.056233 1_565
Mg1_7 Ti0_2 3.106471 1_556
Mg1_7 Ti0_4 3.106471 1_556
Mg1_7 Ti3_5 3.182075 1_565
Mg1_7 Ti3_3 3.182075 1_655
Ti0_0 Ti2_0 2.797124 1_555
Ti0_0 Ti3_5 2.828237 1_554
Ti0_0 Ti3_3 2.828237 1_554
Ti0_0 Ti1_4 2.845789 1_555
Ti0_0 Ti1_2 2.845789 1_555
Ti0_0 Ti0_6 2.928950 1_455
Ti0_0 Ti0_6 2.928950 1_545
Ti0_1 Ti2_1 2.797124 1_555
Ti0_1 Ti3_4 2.828237 1_555
Ti0_1 Ti3_2 2.828237 1_555
Ti0_1 Ti1_3 2.845789 1_555
Ti0_1 Ti1_5 2.845789 1_555
Ti0_1 Ti0_7 2.928950 1_545
Ti0_1 Ti0_7 2.928950 1_455
Ti0_2 Ti2_2 2.797124 1_555
Ti0_2 Ti3_7 2.828237 1_554
Ti0_2 Ti3_1 2.828237 1_564
Ti0_2 Ti1_6 2.845789 1_555
Ti0_2 Ti1_0 2.845789 1_565
Ti0_2 Ti0_4 2.928950 1_465
Ti0_2 Ti0_4 2.928950 1_555
Ti0_3 Ti2_3 2.797124 1_555
Ti0_3 Ti3_6 2.828237 1_555
Ti0_3 Ti3_0 2.828237 1_565
Ti0_3 Ti1_1 2.845789 1_565
Ti0_3 Ti1_7 2.845789 1_555
Ti0_3 Ti0_5 2.928950 1_555
Ti0_3 Ti0_5 2.928950 1_465
Ti0_4 Ti2_4 2.797124 1_555
Ti0_4 Ti3_7 2.828237 1_554
Ti0_4 Ti3_1 2.828237 1_654
Ti0_4 Ti1_6 2.845789 1_555
Ti0_4 Ti1_0 2.845789 1_655
Ti0_5 Ti2_5 2.797124 1_555
Ti0_5 Ti3_6 2.828237 1_555
Ti0_5 Ti3_0 2.828237 1_655
Ti0_5 Ti1_1 2.845789 1_655
Ti0_5 Ti1_7 2.845789 1_555
Ti0_6 Ti2_6 2.797124 1_555
Ti0_6 Ti3_3 2.828237 1_654
Ti0_6 Ti3_5 2.828237 1_564
Ti0_6 Ti1_4 2.845789 1_565
Ti0_6 Ti1_2 2.845789 1_655
Ti0_7 Ti2_7 2.797124 1_555
Ti0_7 Ti3_4 2.828237 1_565
Ti0_7 Ti3_2 2.828237 1_655
Ti0_7 Ti1_3 2.845789 1_655
Ti0_7 Ti1_5 2.845789 1_565
Ti1_0 Ti3_0 2.797124 1_555
Ti1_0 Ti2_2 2.799023 1_545
Ti1_0 Ti2_4 2.799023 1_455
Ti1_0 Ti1_6 2.928950 1_455
Ti1_0 Ti1_6 2.928950 1_545
Ti1_1 Ti3_1 2.797124 1_555
Ti1_1 Ti2_3 2.799023 1_545
Ti1_1 Ti2_5 2.799023 1_455
Ti1_1 Ti1_7 2.928950 1_545
Ti1_1 Ti1_7 2.928950 1_455
Ti1_2 Ti3_2 2.797124 1_555
Ti1_2 Ti2_6 2.799023 1_455
Ti1_2 Ti2_0 2.799023 1_555
Ti1_2 Ti1_4 2.928950 1_555
Ti1_2 Ti1_4 2.928950 1_465
Ti1_3 Ti3_3 2.797124 1_555
Ti1_3 Ti2_1 2.799023 1_555
Ti1_3 Ti2_7 2.799023 1_455
Ti1_3 Ti1_5 2.928950 1_555
Ti1_3 Ti1_5 2.928950 1_465
Ti1_4 Ti3_4 2.797124 1_555
Ti1_4 Ti2_0 2.799023 1_555
Ti1_4 Ti2_6 2.799023 1_545
Ti1_5 Ti3_5 2.797124 1_555
Ti1_5 Ti2_1 2.799023 1_555
Ti1_5 Ti2_7 2.799023 1_545
Ti1_6 Ti3_6 2.797124 1_555
Ti1_6 Ti2_4 2.799023 1_555
Ti1_6 Ti2_2 2.799023 1_555
Ti1_7 Ti3_7 2.797124 1_555
Ti1_7 Ti2_5 2.799023 1_555
Ti1_7 Ti2_3 2.799023 1_555
Ti2_0 Ti3_4 2.845789 1_555
Ti2_0 Ti3_2 2.845789 1_555
Ti2_0 Ti2_6 2.928950 1_545
Ti2_0 Ti2_6 2.928950 1_455
Ti2_1 Ti3_3 2.845789 1_555
Ti2_1 Ti3_5 2.845789 1_555
Ti2_1 Ti2_7 2.928950 1_455
Ti2_1 Ti2_7 2.928950 1_545
Ti2_2 Ti3_6 2.845789 1_555
Ti2_2 Ti3_0 2.845789 1_565
Ti2_2 Ti2_4 2.928950 1_555
Ti2_2 Ti2_4 2.928950 1_465
Ti2_3 Ti3_7 2.845789 1_555
Ti2_3 Ti3_1 2.845789 1_565
Ti2_3 Ti2_5 2.928950 1_555
Ti2_3 Ti2_5 2.928950 1_465
Ti2_4 Ti3_6 2.845789 1_555
Ti2_4 Ti3_0 2.845789 1_655
Ti2_5 Ti3_7 2.845789 1_555
Ti2_5 Ti3_1 2.845789 1_655
Ti2_6 Ti3_4 2.845789 1_565
Ti2_6 Ti3_2 2.845789 1_655
Ti2_7 Ti3_5 2.845789 1_565
Ti2_7 Ti3_3 2.845789 1_655
Ti3_0 Ti3_6 2.928950 1_455
Ti3_0 Ti3_6 2.928950 1_545
Ti3_1 Ti3_7 2.928950 1_545
Ti3_1 Ti3_7 2.928950 1_455
Ti3_2 Ti3_4 2.928950 1_465
Ti3_2 Ti3_4 2.928950 1_555
Ti3_3 Ti3_5 2.928950 1_555
Ti3_3 Ti3_5 2.928950 1_465
