# generated using pymatgen
data_Rb2Sb2SO5F6
_symmetry_space_group_name_H-M   'P 1'
_cell_length_a   8.90412200
_cell_length_b   8.90412200
_cell_length_c   14.50636000
_cell_angle_alpha   90.00000000
_cell_angle_beta   90.00000000
_cell_angle_gamma   90.00000000
_symmetry_Int_Tables_number   1
_chemical_formula_structural   Rb2Sb2SO5F6
_chemical_formula_sum   'Rb8 Sb8 S4 O20 F24'
_cell_volume   1150.11337692
_cell_formula_units_Z   4
loop_
 _symmetry_equiv_pos_site_id
 _symmetry_equiv_pos_as_xyz
  1  'x, y, z'
loop_
 _atom_site_type_symbol
 _atom_site_label
 _atom_site_symmetry_multiplicity
 _atom_site_fract_x
 _atom_site_fract_y
 _atom_site_fract_z
 _atom_site_occupancy
  Rb  Rb0  1  0.68104600  0.15801200  0.12178000  1
  Rb  Rb1  1  0.31895400  0.84198800  0.62178000  1
  Rb  Rb2  1  0.65801200  0.81895400  0.87178000  1
  Rb  Rb3  1  0.34198800  0.18104600  0.37178000  1
  Rb  Rb4  1  0.84198800  0.31895400  0.37822000  1
  Rb  Rb5  1  0.15801200  0.68104600  0.87822000  1
  Rb  Rb6  1  0.81895400  0.65801200  0.12822000  1
  Rb  Rb7  1  0.18104600  0.34198800  0.62822000  1
  Sb  Sb0  1  0.63035600  0.17225900  0.62670200  1
  Sb  Sb1  1  0.36964400  0.82774100  0.12670200  1
  Sb  Sb2  1  0.67225900  0.86964400  0.37670200  1
  Sb  Sb3  1  0.32774100  0.13035600  0.87670200  1
  Sb  Sb4  1  0.82774100  0.36964400  0.87329800  1
  Sb  Sb5  1  0.17225900  0.63035600  0.37329800  1
  Sb  Sb6  1  0.86964400  0.67225900  0.62329800  1
  Sb  Sb7  1  0.13035600  0.32774100  0.12329800  1
  S  S0  1  0.95974100  0.04025900  0.75000000  1
  S  S1  1  0.04025900  0.95974100  0.25000000  1
  S  S2  1  0.54025900  0.54025900  0.50000000  1
  S  S3  1  0.45974100  0.45974100  0.00000000  1
  O  O0  1  0.12406000  0.07019400  0.75224500  1
  O  O1  1  0.87594000  0.92980600  0.25224500  1
  O  O2  1  0.57019400  0.37594000  0.50224500  1
  O  O3  1  0.42980600  0.62406000  0.00224500  1
  O  O4  1  0.92980600  0.87594000  0.74775500  1
  O  O5  1  0.07019400  0.12406000  0.24775500  1
  O  O6  1  0.37594000  0.57019400  0.49775500  1
  O  O7  1  0.62406000  0.42980600  0.99775500  1
  O  O8  1  0.89763400  0.11845600  0.66578400  1
  O  O9  1  0.10236600  0.88154400  0.16578400  1
  O  O10  1  0.61845600  0.60236600  0.41578400  1
  O  O11  1  0.38154400  0.39763400  0.91578400  1
  O  O12  1  0.88154400  0.10236600  0.83421600  1
  O  O13  1  0.11845600  0.89763400  0.33421600  1
  O  O14  1  0.60236600  0.61845600  0.58421600  1
  O  O15  1  0.39763400  0.38154400  0.08421600  1
  O  O16  1  0.57271400  0.42728600  0.25000000  1
  O  O17  1  0.42728600  0.57271400  0.75000000  1
  O  O18  1  0.92728600  0.92728600  0.00000000  1
  O  O19  1  0.07271400  0.07271400  0.50000000  1
  F  F0  1  0.71464500  0.08972600  0.51111800  1
  F  F1  1  0.28535500  0.91027400  0.01111800  1
  F  F2  1  0.58972600  0.78535500  0.26111800  1
  F  F3  1  0.41027400  0.21464500  0.76111800  1
  F  F4  1  0.91027400  0.28535500  0.98888200  1
  F  F5  1  0.08972600  0.71464500  0.48888200  1
  F  F6  1  0.78535500  0.58972600  0.73888200  1
  F  F7  1  0.21464500  0.41027400  0.23888200  1
  F  F8  1  0.61114800  0.96397700  0.67509500  1
  F  F9  1  0.38885200  0.03602300  0.17509500  1
  F  F10  1  0.46397700  0.88885200  0.42509500  1
  F  F11  1  0.53602300  0.11114800  0.92509500  1
  F  F12  1  0.03602300  0.38885200  0.82490500  1
  F  F13  1  0.96397700  0.61114800  0.32490500  1
  F  F14  1  0.88885200  0.46397700  0.57490500  1
  F  F15  1  0.11114800  0.53602300  0.07490500  1
  F  F16  1  0.42509100  0.13010300  0.57410700  1
  F  F17  1  0.57490900  0.86989700  0.07410700  1
  F  F18  1  0.63010300  0.07490900  0.32410700  1
  F  F19  1  0.36989700  0.92509100  0.82410700  1
  F  F20  1  0.86989700  0.57490900  0.92589300  1
  F  F21  1  0.13010300  0.42509100  0.42589300  1
  F  F22  1  0.07490900  0.63010300  0.67589300  1
  F  F23  1  0.92509100  0.36989700  0.17589300  1
loop_
_geom_bond_atom_site_label_1
_geom_bond_atom_site_label_2
_geom_bond_distance
_geom_bond_site_symmetry_2
O0 S0 1.487554 1_455
O0 Rb7 3.057978 1_555
O0 Rb1 3.274480 1_545
O1 S1 1.487554 1_655
O1 Rb6 3.057978 1_555
O1 Rb0 3.274480 1_565
O2 S2 1.487554 1_555
O2 Rb4 3.057978 1_555
O2 Rb3 3.274480 1_555
O3 S3 1.487554 1_555
O3 Rb5 3.057978 1_554
O3 Rb2 3.274480 1_554
O4 S0 1.487554 1_565
O4 Rb2 3.057978 1_555
O4 Rb5 3.274480 1_655
O5 S1 1.487554 1_545
O5 Rb3 3.057978 1_555
O5 Rb4 3.274480 1_455
O6 S2 1.487554 1_555
O6 Rb1 3.057978 1_555
O6 Rb7 3.274480 1_555
O7 S3 1.487554 1_556
O7 Rb0 3.057978 1_556
O7 Rb6 3.274480 1_556
O8 S0 1.510990 1_555
O8 Rb7 3.259859 1_655
O9 S1 1.510990 1_555
O9 Rb6 3.259859 1_455
O10 S2 1.510990 1_555
O10 Rb4 3.259859 1_555
O11 S3 1.510990 1_556
O11 Rb5 3.259859 1_555
O12 S0 1.510990 1_555
O12 Rb2 3.259859 1_545
O13 S1 1.510990 1_555
O13 Rb3 3.259859 1_565
O14 S2 1.510990 1_555
O14 Rb1 3.259859 1_555
O15 S3 1.510990 1_555
O15 Rb0 3.259859 1_555
O16 Rb0 3.184147 1_555
O16 Rb4 3.184147 1_555
O16 Rb3 3.485500 1_555
O16 Rb6 3.485500 1_555
O17 Rb1 3.184147 1_555
O17 Rb5 3.184147 1_555
O17 Rb7 3.485500 1_555
O17 Rb2 3.485500 1_555
O18 Rb2 3.184147 1_554
O18 Rb6 3.184147 1_555
O18 Rb5 3.485500 1_654
O18 Rb0 3.485500 1_565
O19 Rb7 3.184147 1_555
O19 Rb3 3.184147 1_555
O19 Rb4 3.485500 1_455
O19 Rb1 3.485500 1_545
F0 Sb0 1.978552 1_555
F0 Rb4 3.027925 1_555
F1 Sb1 1.978552 1_555
F1 Rb5 3.027925 1_554
F2 Sb2 1.978552 1_555
F2 Rb6 3.027925 1_555
F3 Sb3 1.978552 1_555
F3 Rb7 3.027925 1_555
F4 Sb4 1.978552 1_555
F4 Rb0 3.027925 1_556
F5 Sb5 1.978552 1_555
F5 Rb1 3.027925 1_555
F6 Sb6 1.978552 1_555
F6 Rb2 3.027925 1_555
F7 Sb7 1.978552 1_555
F7 Rb3 3.027925 1_555
F8 Sb0 1.990349 1_565
F8 Rb1 2.923526 1_555
F8 Rb2 3.159469 1_555
F9 Sb1 1.990349 1_545
F9 Rb0 2.923526 1_555
F9 Rb3 3.159469 1_555
F10 Sb2 1.990349 1_555
F10 Rb3 2.923526 1_565
F10 Rb1 3.159469 1_555
F11 Sb3 1.990349 1_555
F11 Rb2 2.923526 1_545
F11 Rb0 3.159469 1_556
F12 Sb4 1.990349 1_455
F12 Rb5 2.923526 1_555
F12 Rb7 3.159469 1_555
F13 Sb5 1.990349 1_655
F13 Rb4 2.923526 1_555
F13 Rb6 3.159469 1_555
F14 Sb6 1.990349 1_555
F14 Rb7 2.923526 1_655
F14 Rb4 3.159469 1_555
F15 Sb7 1.990349 1_555
F15 Rb6 2.923526 1_455
F15 Rb5 3.159469 1_554
F16 Sb0 2.015815 1_555
F16 Rb1 2.820057 1_545
F16 Rb7 2.982885 1_555
F16 Rb3 3.060668 1_555
F17 Sb1 2.015815 1_555
F17 Rb0 2.820057 1_565
F17 Rb6 2.982885 1_555
F17 Rb2 3.060668 1_554
F18 Sb2 2.015815 1_545
F18 Rb3 2.820057 1_555
F18 Rb4 2.982885 1_555
F18 Rb0 3.060668 1_555
F19 Sb3 2.015815 1_565
F19 Rb2 2.820057 1_555
F19 Rb5 2.982885 1_555
F19 Rb1 3.060668 1_555
F20 Sb4 2.015815 1_555
F20 Rb5 2.820057 1_655
F20 Rb2 2.982885 1_555
F20 Rb6 3.060668 1_556
F21 Sb5 2.015815 1_555
F21 Rb4 2.820057 1_455
F21 Rb3 2.982885 1_555
F21 Rb7 3.060668 1_555
F22 Sb6 2.015815 1_455
F22 Rb7 2.820057 1_555
F22 Rb1 2.982885 1_555
F22 Rb5 3.060668 1_555
F23 Sb7 2.015815 1_655
F23 Rb6 2.820057 1_555
F23 Rb0 2.982885 1_555
F23 Rb4 3.060668 1_555
