# generated using pymatgen
data_La20S29O
_symmetry_space_group_name_H-M   'P 1'
_cell_length_a   15.05371367
_cell_length_b   15.05371367
_cell_length_c   15.05371367
_cell_angle_alpha   62.17570403
_cell_angle_beta   62.17570403
_cell_angle_gamma   93.81163948
_symmetry_Int_Tables_number   1
_chemical_formula_structural   La20S29O
_chemical_formula_sum   'La40 S58 O2'
_cell_volume   2485.59227637
_cell_formula_units_Z   2
loop_
 _symmetry_equiv_pos_site_id
 _symmetry_equiv_pos_as_xyz
  1  'x, y, z'
loop_
 _atom_site_type_symbol
 _atom_site_label
 _atom_site_symmetry_multiplicity
 _atom_site_fract_x
 _atom_site_fract_y
 _atom_site_fract_z
 _atom_site_occupancy
  La  La0  1  0.17253612  0.57513838  0.84462044  1
  La  La1  1  0.67253612  0.51715656  0.40260226  1
  La  La2  1  0.57546729  0.17019844  0.34601749  1
  La  La3  1  0.07546729  0.42148478  0.59473115  1
  La  La4  1  0.82980156  0.42453271  0.15398251  1
  La  La5  1  0.32980156  0.48378407  0.59473115  1
  La  La6  1  0.42486162  0.82746388  0.65537956  1
  La  La7  1  0.92486162  0.58024118  0.40260226  1
  La  La8  1  0.41975882  0.07513838  0.09739774  1
  La  La9  1  0.91975882  0.01715656  0.65537956  1
  La  La10  1  0.51621593  0.67019844  0.90526885  1
  La  La11  1  0.01621593  0.92148478  0.15398251  1
  La  La12  1  0.57851522  0.92453271  0.90526885  1
  La  La13  1  0.07851522  0.98378407  0.34601749  1
  La  La14  1  0.48284344  0.32746388  0.09739774  1
  La  La15  1  0.98284344  0.08024118  0.84462044  1
  La  La16  1  0.26282301  0.01282301  0.47435397  1
  La  La17  1  0.76282301  0.23717699  0.75000000  1
  La  La18  1  0.01359051  0.26359051  0.97281898  1
  La  La19  1  0.51359051  0.48640949  0.25000000  1
  La  La20  1  0.73640949  0.98640949  0.52718102  1
  La  La21  1  0.23640949  0.76359051  0.25000000  1
  La  La22  1  0.98717699  0.73717699  0.02564603  1
  La  La23  1  0.48717699  0.51282301  0.75000000  1
  La  La24  1  0.40409526  0.81292328  0.38558453  1
  La  La25  1  0.90409526  0.28967979  0.40882803  1
  La  La26  1  0.81805324  0.42752523  0.87237560  1
  La  La27  1  0.31805324  0.19042884  0.60947200  1
  La  La28  1  0.57247477  0.18194676  0.62762440  1
  La  La29  1  0.07247477  0.70009917  0.60947200  1
  La  La30  1  0.18707672  0.59590474  0.11441547  1
  La  La31  1  0.68707672  0.80149219  0.40882803  1
  La  La32  1  0.19850781  0.31292328  0.09117197  1
  La  La33  1  0.69850781  0.78967979  0.11441547  1
  La  La34  1  0.29990083  0.92752523  0.89052800  1
  La  La35  1  0.79990083  0.69042884  0.62762440  1
  La  La36  1  0.80957116  0.68194676  0.89052800  1
  La  La37  1  0.30957116  0.20009917  0.87237560  1
  La  La38  1  0.71032021  0.09590474  0.09117197  1
  La  La39  1  0.21032021  0.30149219  0.38558453  1
  S  S0  1  0.20837970  0.74819412  0.88804639  1
  S  S1  1  0.70837970  0.59642609  0.53981441  1
  S  S2  1  0.73944035  0.20674050  0.39351812  1
  S  S3  1  0.23944035  0.63295847  0.46730015  1
  S  S4  1  0.79325950  0.26055965  0.10648188  1
  S  S5  1  0.29325950  0.39974138  0.46730015  1
  S  S6  1  0.25180588  0.79162030  0.61195361  1
  S  S7  1  0.75180588  0.36375949  0.53981441  1
  S  S8  1  0.63624051  0.24819412  0.96018559  1
  S  S9  1  0.13624051  0.09642609  0.61195361  1
  S  S10  1  0.60025862  0.70674050  0.03269985  1
  S  S11  1  0.10025862  0.13295847  0.10648188  1
  S  S12  1  0.36704153  0.76055965  0.03269985  1
  S  S13  1  0.86704153  0.89974138  0.39351812  1
  S  S14  1  0.40357391  0.29162030  0.96018559  1
  S  S15  1  0.90357391  0.86375949  0.88804639  1
  S  S16  1  0.03016069  0.88758081  0.58947790  1
  S  S17  1  0.53016069  0.11963859  0.85742012  1
  S  S18  1  0.89307755  0.03679584  0.08261381  1
  S  S19  1  0.39307755  0.47569135  0.14371830  1
  S  S20  1  0.96320416  0.10692245  0.41738619  1
  S  S21  1  0.46320416  0.88059035  0.14371830  1
  S  S22  1  0.11241919  0.96983931  0.91052210  1
  S  S23  1  0.61241919  0.52294129  0.85742012  1
  S  S24  1  0.47705871  0.38758081  0.64257988  1
  S  S25  1  0.97705871  0.61963859  0.91052210  1
  S  S26  1  0.11940965  0.53679584  0.35628170  1
  S  S27  1  0.61940965  0.97569135  0.41738619  1
  S  S28  1  0.52430865  0.60692245  0.35628170  1
  S  S29  1  0.02430865  0.38059035  0.08261381  1
  S  S30  1  0.88036141  0.46983931  0.64257988  1
  S  S31  1  0.38036141  0.02294129  0.58947790  1
  S  S32  1  0.43365640  0.66755749  0.58472104  1
  S  S33  1  0.93365640  0.51837744  0.23390110  1
  S  S34  1  0.67007159  0.43745240  0.08070139  1
  S  S35  1  0.17007159  0.25077298  0.76738081  1
  S  S36  1  0.56254760  0.32992841  0.41929861  1
  S  S37  1  0.06254760  0.48184622  0.76738081  1
  S  S38  1  0.33244251  0.56634360  0.91527896  1
  S  S39  1  0.83244251  0.74772147  0.23390110  1
  S  S40  1  0.25227853  0.16755749  0.26609890  1
  S  S41  1  0.75227853  0.01837744  0.91527896  1
  S  S42  1  0.51815378  0.93745240  0.73261919  1
  S  S43  1  0.01815378  0.75077298  0.41929861  1
  S  S44  1  0.74922702  0.82992841  0.73261919  1
  S  S45  1  0.24922702  0.98184622  0.08070139  1
  S  S46  1  0.48162256  0.06634360  0.26609890  1
  S  S47  1  0.98162256  0.24772147  0.58472104  1
  S  S48  1  0.59935619  0.74873073  0.65409596  1
  S  S49  1  0.09935619  0.75345215  0.14937454  1
  S  S50  1  0.75126927  0.59717330  0.14937454  1
  S  S51  1  0.25126927  0.40064381  0.84590404  1
  S  S52  1  0.40282670  0.24873073  0.35062546  1
  S  S53  1  0.90282670  0.25345215  0.84590404  1
  S  S54  1  0.74654785  0.09717330  0.65409596  1
  S  S55  1  0.24654785  0.90064381  0.35062546  1
  S  S56  1  0.62500000  0.87500000  0.25000000  1
  S  S57  1  0.12500000  0.37500000  0.25000000  1
  O  O0  1  0.87500000  0.62500000  0.75000000  1
  O  O1  1  0.37500000  0.12500000  0.75000000  1
loop_
_geom_bond_atom_site_label_1
_geom_bond_atom_site_label_2
_geom_bond_distance
_geom_bond_site_symmetry_2
La0 S25 2.872185 1_455
La0 S29 2.874900 1_556
La0 S51 2.948405 1_555
La0 S37 3.013006 1_555
La0 S0 3.039313 1_555
La0 S6 3.039329 1_555
La0 S38 3.040498 1_555
La0 S32 3.539634 1_555
La1 S24 2.872185 1_555
La1 S28 2.874900 1_555
La1 S50 2.948405 1_555
La1 S36 3.013007 1_555
La1 S1 3.039313 1_555
La1 S7 3.039329 1_555
La1 S39 3.040498 1_555
La1 S33 3.539634 1_555
La2 S27 2.854754 1_545
La2 S52 2.910902 1_555
La2 S31 2.910985 1_555
La2 S2 2.956573 1_555
La2 S46 2.989343 1_555
La2 S36 3.061805 1_555
La2 S4 3.064921 1_555
La2 S34 3.618568 1_555
La3 S26 2.854754 1_555
La3 S53 2.910902 1_455
La3 S30 2.910985 1_455
La3 S3 2.956573 1_555
La3 S47 2.989343 1_455
La3 S37 3.061805 1_555
La3 S5 3.064921 1_555
La3 S35 3.618568 1_555
La4 S29 2.854754 1_655
La4 S50 2.910902 1_555
La4 S25 2.910985 1_554
La4 S4 2.956573 1_555
La4 S33 2.989343 1_555
La4 S34 3.061805 1_555
La4 S2 3.064921 1_555
La4 S36 3.618568 1_555
La5 S28 2.854754 1_555
La5 S51 2.910902 1_555
La5 S24 2.910985 1_555
La5 S5 2.956573 1_555
La5 S32 2.989343 1_555
La5 S35 3.061805 1_555
La5 S3 3.064921 1_555
La5 S37 3.618569 1_555
La6 S31 2.872185 1_565
La6 S27 2.874900 1_555
La6 S48 2.948405 1_555
La6 S42 3.013006 1_555
La6 S6 3.039313 1_555
La6 S0 3.039329 1_555
La6 S32 3.040498 1_555
La6 S38 3.539634 1_555
La7 S30 2.872185 1_555
La7 S26 2.874900 1_655
La7 S49 2.948405 1_655
La7 S43 3.013007 1_655
La7 S7 3.039313 1_555
La7 S1 3.039329 1_555
La7 S33 3.040497 1_555
La7 S39 3.539634 1_555
La8 S17 2.872185 1_554
La8 S21 2.874900 1_545
La8 S55 2.948405 1_545
La8 S45 3.013007 1_545
La8 S8 3.039313 1_554
La8 S14 3.039329 1_554
La8 S46 3.040497 1_555
La8 S40 3.539634 1_555
La9 S16 2.872185 1_645
La9 S20 2.874900 1_555
La9 S54 2.948405 1_555
La9 S44 3.013007 1_545
La9 S9 3.039313 1_655
La9 S15 3.039329 1_545
La9 S47 3.040498 1_555
La9 S41 3.539634 1_555
La10 S19 2.854754 1_556
La10 S48 2.910902 1_555
La10 S23 2.910985 1_555
La10 S10 2.956573 1_556
La10 S38 2.989343 1_555
La10 S44 3.061805 1_555
La10 S12 3.064921 1_556
La10 S42 3.618569 1_555
La11 S18 2.854754 1_465
La11 S49 2.910902 1_555
La11 S22 2.910985 1_554
La11 S11 2.956573 1_565
La11 S39 2.989343 1_455
La11 S45 3.061805 1_555
La11 S13 3.064921 1_455
La11 S43 3.618568 1_555
La12 S21 2.854754 1_556
La12 S54 2.910902 1_565
La12 S17 2.910985 1_565
La12 S12 2.956573 1_556
La12 S41 2.989343 1_565
La12 S42 3.061805 1_555
La12 S10 3.064921 1_556
La12 S44 3.618568 1_555
La13 S20 2.854754 1_465
La13 S55 2.910902 1_555
La13 S16 2.910985 1_555
La13 S13 2.956573 1_455
La13 S40 2.989343 1_565
La13 S43 3.061805 1_555
La13 S11 3.064921 1_565
La13 S45 3.618568 1_555
La14 S23 2.872185 1_554
La14 S19 2.874900 1_555
La14 S52 2.948405 1_555
La14 S34 3.013007 1_555
La14 S14 3.039313 1_554
La14 S8 3.039329 1_554
La14 S40 3.040498 1_555
La14 S46 3.539634 1_555
La15 S22 2.872185 1_645
La15 S18 2.874900 1_556
La15 S53 2.948405 1_555
La15 S35 3.013007 1_655
La15 S15 3.039313 1_545
La15 S9 3.039329 1_655
La15 S41 3.040498 1_555
La15 S47 3.539634 1_555
La16 S6 2.928033 1_545
La16 S9 2.928033 1_555
La16 S46 2.995989 1_555
La16 S40 2.995989 1_555
La16 S16 3.038182 1_545
La16 S31 3.038182 1_555
La16 S55 3.112589 1_545
La16 S52 3.112589 1_555
La17 S7 2.928033 1_555
La17 S8 2.928033 1_555
La17 S41 2.995989 1_555
La17 S47 2.995989 1_555
La17 S17 3.038182 1_555
La17 S30 3.038182 1_555
La17 S53 3.112589 1_555
La17 S54 3.112589 1_555
La18 S4 2.952271 1_456
La18 S11 2.952271 1_556
La18 S18 2.964573 1_456
La18 S29 2.964573 1_556
La18 S35 2.994521 1_555
La18 S37 2.994521 1_555
La18 S53 3.109012 1_455
La18 S51 3.109012 1_555
La19 S10 2.952271 1_555
La19 S5 2.952271 1_555
La19 S28 2.964573 1_555
La19 S19 2.964573 1_555
La19 S36 2.994521 1_555
La19 S34 2.994521 1_555
La19 S52 3.109012 1_555
La19 S50 3.109012 1_555
La20 S13 2.952271 1_555
La20 S2 2.952271 1_565
La20 S20 2.964573 1_565
La20 S27 2.964573 1_555
La20 S44 2.994521 1_555
La20 S42 2.994521 1_555
La20 S54 3.109012 1_565
La20 S48 3.109012 1_555
La21 S12 2.952271 1_555
La21 S3 2.952271 1_555
La21 S26 2.964573 1_555
La21 S21 2.964573 1_555
La21 S43 2.994521 1_555
La21 S45 2.994521 1_555
La21 S49 3.109012 1_555
La21 S55 3.109012 1_555
La22 S0 2.928033 1_654
La22 S15 2.928033 1_554
La22 S33 2.995989 1_555
La22 S39 2.995989 1_555
La22 S22 3.038182 1_654
La22 S25 3.038182 1_554
La22 S49 3.112589 1_655
La22 S50 3.112589 1_555
La23 S1 2.928033 1_555
La23 S14 2.928033 1_555
La23 S32 2.995989 1_555
La23 S38 2.995989 1_555
La23 S23 3.038182 1_555
La23 S24 3.038182 1_555
La23 S51 3.112589 1_555
La23 S48 3.112589 1_555
La24 S56 2.750963 1_555
La24 S3 2.854160 1_555
La24 S21 2.911862 1_555
La24 S6 2.925763 1_555
La24 S55 2.928884 1_555
La24 S32 3.037115 1_555
La24 S46 3.192745 1_565
La25 S57 2.750963 1_655
La25 S2 2.854160 1_555
La25 S20 2.911862 1_555
La25 S7 2.925763 1_555
La25 S54 2.928884 1_555
La25 S33 3.037115 1_555
La25 S47 3.192745 1_555
La26 O0 2.457707 1_555
La26 S30 2.843710 1_555
La26 S34 2.963083 1_556
La26 S8 2.972386 1_555
La26 S4 3.042184 1_556
La26 S53 3.098193 1_555
La26 S37 3.110623 1_655
La27 O1 2.457706 1_555
La27 S31 2.843710 1_555
La27 S35 2.963083 1_555
La27 S9 2.972386 1_555
La27 S5 3.042184 1_555
La27 S52 3.098193 1_555
La27 S36 3.110623 1_555
La28 O1 2.457707 1_555
La28 S17 2.843710 1_555
La28 S36 2.963083 1_555
La28 S7 2.972386 1_555
La28 S2 3.042184 1_555
La28 S54 3.098193 1_555
La28 S42 3.110623 1_545
La29 O0 2.457706 1_455
La29 S16 2.843710 1_555
La29 S37 2.963083 1_555
La29 S6 2.972386 1_555
La29 S3 3.042184 1_555
La29 S55 3.098193 1_555
La29 S43 3.110623 1_555
La30 S57 2.750963 1_555
La30 S12 2.854160 1_555
La30 S26 2.911862 1_555
La30 S0 2.925763 1_554
La30 S49 2.928884 1_555
La30 S38 3.037115 1_554
La30 S33 3.192745 1_455
La31 S56 2.750963 1_555
La31 S13 2.854160 1_555
La31 S27 2.911862 1_555
La31 S1 2.925763 1_555
La31 S48 2.928884 1_555
La31 S39 3.037115 1_555
La31 S32 3.192745 1_555
La32 S57 2.750963 1_555
La32 S11 2.854160 1_555
La32 S29 2.911862 1_555
La32 S14 2.925763 1_554
La32 S51 2.928884 1_554
La32 S40 3.037115 1_555
La32 S38 3.192745 1_554
La33 S56 2.750963 1_555
La33 S10 2.854160 1_555
La33 S28 2.911862 1_555
La33 S15 2.925763 1_554
La33 S50 2.928884 1_555
La33 S41 3.037115 1_564
La33 S39 3.192745 1_555
La34 O1 2.457706 1_565
La34 S22 2.843710 1_555
La34 S42 2.963083 1_555
La34 S0 2.972386 1_555
La34 S12 3.042184 1_556
La34 S49 3.098193 1_556
La34 S45 3.110623 1_556
La35 O0 2.457707 1_555
La35 S23 2.843710 1_555
La35 S43 2.963083 1_655
La35 S1 2.972386 1_555
La35 S13 3.042184 1_555
La35 S48 3.098193 1_555
La35 S44 3.110623 1_555
La36 O0 2.457706 1_555
La36 S25 2.843710 1_555
La36 S44 2.963083 1_555
La36 S15 2.972386 1_555
La36 S10 3.042184 1_556
La36 S50 3.098193 1_556
La36 S34 3.110623 1_556
La37 O1 2.457707 1_555
La37 S24 2.843710 1_555
La37 S45 2.963083 1_546
La37 S14 2.972386 1_555
La37 S11 3.042184 1_556
La37 S51 3.098193 1_555
La37 S35 3.110623 1_555
La38 S56 2.750963 1_545
La38 S4 2.854160 1_555
La38 S18 2.911862 1_555
La38 S8 2.925763 1_554
La38 S53 2.928884 1_554
La38 S46 3.037115 1_555
La38 S41 3.192745 1_554
La39 S57 2.750963 1_555
La39 S5 2.854160 1_555
La39 S19 2.911862 1_555
La39 S9 2.925763 1_555
La39 S52 2.928884 1_555
La39 S47 3.037115 1_455
La39 S40 3.192745 1_555
