# generated using pymatgen
data_Ca5Si2HO9F
_symmetry_space_group_name_H-M   'P 1'
_cell_length_a   9.83001000
_cell_length_b   7.50564982
_cell_length_c   7.03946613
_cell_angle_alpha   110.78981657
_cell_angle_beta   90.00000000
_cell_angle_gamma   90.00000000
_symmetry_Int_Tables_number   1
_chemical_formula_structural   Ca5Si2HO9F
_chemical_formula_sum   'Ca10 Si4 H2 O18 F2'
_cell_volume   485.55890986
_cell_formula_units_Z   2
loop_
 _symmetry_equiv_pos_site_id
 _symmetry_equiv_pos_as_xyz
  1  'x, y, z'
loop_
 _atom_site_type_symbol
 _atom_site_label
 _atom_site_symmetry_multiplicity
 _atom_site_fract_x
 _atom_site_fract_y
 _atom_site_fract_z
 _atom_site_occupancy
  Ca  Ca0  1  0.19786000  0.00888500  0.51775700  1
  Ca  Ca1  1  0.55904500  0.85068400  0.40936400  1
  Ca  Ca2  1  0.84150000  0.10397400  0.62812000  1
  Ca  Ca3  1  0.42435500  0.35827600  0.40463600  1
  Ca  Ca4  1  0.57490000  0.44755300  0.88910500  1
  Ca  Ca5  1  0.69786000  0.99111500  0.98224300  1
  Ca  Ca6  1  0.05904500  0.14931600  0.09063600  1
  Ca  Ca7  1  0.34150000  0.89602600  0.87188000  1
  Ca  Ca8  1  0.92435500  0.64172400  0.09536400  1
  Ca  Ca9  1  0.07490000  0.55244700  0.61089500  1
  Si  Si0  1  0.77942100  0.61425400  0.62051600  1
  Si  Si1  1  0.73649000  0.41311500  0.23841700  1
  Si  Si2  1  0.27942100  0.38574600  0.87948400  1
  Si  Si3  1  0.23649000  0.58688500  0.26158300  1
  H  H0  1  0.60933400  0.27824000  0.16093900  1
  H  H1  1  0.10933400  0.72176000  0.33906100  1
  O  O0  1  0.37773300  0.49114200  0.10241600  1
  O  O1  1  0.26261600  0.95717800  0.19189900  1
  O  O2  1  0.74023500  0.83317200  0.63736200  1
  O  O3  1  0.14588300  0.52044600  0.01655200  1
  O  O4  1  0.53212900  0.10917600  0.79272900  1
  O  O5  1  0.88891900  0.95661300  0.18944500  1
  O  O6  1  0.69452600  0.59919000  0.17337200  1
  O  O7  1  0.10021700  0.83508800  0.87069000  1
  O  O8  1  0.33211600  0.72300200  0.46885000  1
  O  O9  1  0.87773300  0.50885800  0.39758400  1
  O  O10  1  0.76261600  0.04282200  0.30810100  1
  O  O11  1  0.24023500  0.16682800  0.86263800  1
  O  O12  1  0.64588300  0.47955400  0.48344800  1
  O  O13  1  0.03212900  0.89082400  0.70727100  1
  O  O14  1  0.38891900  0.04338700  0.31055500  1
  O  O15  1  0.19452600  0.40081000  0.32662800  1
  O  O16  1  0.60021700  0.16491200  0.62931000  1
  O  O17  1  0.83211600  0.27699800  0.03115000  1
  F  F0  1  0.03372000  0.23962800  0.57313100  1
  F  F1  1  0.53372000  0.76037200  0.92686900  1
loop_
_geom_bond_atom_site_label_1
_geom_bond_atom_site_label_2
_geom_bond_distance
_geom_bond_site_symmetry_2
Ca0 H1 2.249334 1_545
Ca0 O1 2.277208 1_545
Ca0 F0 2.296842 1_555
Ca0 O11 2.330209 1_555
Ca0 O8 2.437214 1_545
Ca0 O14 2.447445 1_555
Ca0 O13 2.461353 1_545
Ca1 O16 2.351862 1_565
Ca1 O6 2.422906 1_555
Ca1 O2 2.432143 1_555
Ca1 O14 2.467115 1_565
Ca1 O8 2.520858 1_555
Ca1 O10 2.705924 1_565
Ca1 O4 2.720340 1_565
Ca2 F0 2.244237 1_655
Ca2 O10 2.269999 1_555
Ca2 O2 2.284783 1_545
Ca2 O16 2.414964 1_555
Ca2 O13 2.648421 1_645
Ca2 O17 2.669968 1_556
Ca3 O14 2.243809 1_555
Ca3 O12 2.349453 1_555
Ca3 O15 2.373183 1_555
Ca3 H0 2.424586 1_555
Ca3 O0 2.690119 1_555
Ca3 O8 2.764409 1_555
Ca3 O16 3.037383 1_555
Ca4 O6 2.250720 1_556
Ca4 O16 2.269970 1_555
Ca4 F1 2.303070 1_555
Ca4 O0 2.401983 1_556
Ca4 O4 2.421602 1_555
Ca4 H0 2.667868 1_556
Ca5 H0 2.249334 1_566
Ca5 O10 2.277208 1_566
Ca5 F1 2.296842 1_555
Ca5 O2 2.330209 1_555
Ca5 O17 2.437214 1_566
Ca5 O5 2.447445 1_556
Ca5 O4 2.461353 1_565
Ca6 O7 2.351862 1_544
Ca6 O15 2.422906 1_555
Ca6 O11 2.432143 1_554
Ca6 O5 2.467115 1_445
Ca6 O17 2.520858 1_455
Ca6 O1 2.705924 1_545
Ca6 O13 2.720340 1_544
Ca7 F1 2.244237 1_555
Ca7 O1 2.269999 1_556
Ca7 O11 2.284783 1_565
Ca7 O7 2.414964 1_555
Ca7 O4 2.648421 1_565
Ca7 O8 2.669968 1_555
Ca8 O5 2.243809 1_555
Ca8 O3 2.349453 1_655
Ca8 O6 2.373183 1_555
Ca8 H1 2.424586 1_655
Ca8 O9 2.690119 1_555
Ca8 O17 2.764409 1_555
Ca8 O7 3.037383 1_654
Ca9 O15 2.250720 1_555
Ca9 O7 2.269970 1_555
Ca9 F0 2.303070 1_555
Ca9 O9 2.401983 1_455
Ca9 O13 2.421602 1_555
Ca9 H1 2.667868 1_555
H0 Si1 1.578824 1_555
H1 Si3 1.578824 1_555
O0 Si3 1.768601 1_555
O0 Si2 1.772351 1_554
O1 O14 1.508034 1_565
O2 Si0 1.650445 1_555
O3 Si2 1.727362 1_554
O3 Si3 1.845696 1_555
O6 Si1 1.668624 1_555
O8 Si3 1.731480 1_555
O9 Si1 1.768601 1_555
O9 Si0 1.772351 1_555
O10 O5 1.508034 1_545
O11 Si2 1.650445 1_555
O12 Si0 1.727362 1_555
O12 Si1 1.845696 1_555
O13 O7 1.512607 1_555
O15 Si3 1.668624 1_555
O16 O4 1.512607 1_555
O17 Si1 1.731480 1_555
