# generated using pymatgen
data_ZnMoO4
_symmetry_space_group_name_H-M   'P 1'
_cell_length_a   5.73665626
_cell_length_b   4.67421479
_cell_length_c   4.87721707
_cell_angle_alpha   89.89391950
_cell_angle_beta   90.00000000
_cell_angle_gamma   90.00000000
_symmetry_Int_Tables_number   1
_chemical_formula_structural   ZnMoO4
_chemical_formula_sum   'Zn2 Mo2 O8'
_cell_volume   130.77924739
_cell_formula_units_Z   2
loop_
 _symmetry_equiv_pos_site_id
 _symmetry_equiv_pos_as_xyz
  1  'x, y, z'
loop_
 _atom_site_type_symbol
 _atom_site_label
 _atom_site_symmetry_multiplicity
 _atom_site_fract_x
 _atom_site_fract_y
 _atom_site_fract_z
 _atom_site_occupancy
  Zn  Zn0  1  0.68589427  0.50000000  0.75000000  1
  Zn  Zn1  1  0.31410573  0.50000000  0.25000000  1
  Mo  Mo0  1  0.81099188  -0.00000000  0.25000000  1
  Mo  Mo1  1  0.18900812  -0.00000000  0.75000000  1
  O  O0  1  0.62326022  0.74464693  0.40416102  1
  O  O1  1  0.62326022  0.25535307  0.09583898  1
  O  O2  1  0.37673978  0.25535307  0.59583898  1
  O  O3  1  0.37673978  0.74464693  0.90416102  1
  O  O4  1  0.89444303  0.21741800  0.56061112  1
  O  O5  1  0.89444303  0.78258200  0.93938888  1
  O  O6  1  0.10555697  0.78258200  0.43938888  1
  O  O7  1  0.10555697  0.21741800  0.06061112  1
loop_
_geom_bond_atom_site_label_1
_geom_bond_atom_site_label_2
_geom_bond_distance
_geom_bond_site_symmetry_2
Mo0 O0 1.773822 1_545
Mo0 O1 1.773822 1_555
Mo0 O4 1.887496 1_555
Mo0 O5 1.887496 1_544
Mo0 O7 2.176694 1_655
Mo0 O6 2.176694 1_645
Mo1 O2 1.773822 1_555
Mo1 O3 1.773822 1_545
Mo1 O7 1.887496 1_556
Mo1 O6 1.887496 1_545
Mo1 O4 2.176694 1_455
Mo1 O5 2.176694 1_445
O0 Zn0 2.067533 1_555
O0 Zn1 2.240874 1_555
O1 Zn0 2.067533 1_554
O1 Zn1 2.240874 1_555
O2 Zn1 2.067533 1_555
O2 Zn0 2.240874 1_555
O3 Zn1 2.067533 1_556
O3 Zn0 2.240874 1_555
O4 Zn0 2.008400 1_555
O5 Zn0 2.008400 1_555
O6 Zn1 2.008400 1_555
O7 Zn1 2.008400 1_555
