# generated using pymatgen
data_NaCr2O4
_symmetry_space_group_name_H-M   'P 1'
_cell_length_a   5.09421400
_cell_length_b   5.94818100
_cell_length_c   11.38752100
_cell_angle_alpha   90.00000000
_cell_angle_beta   90.00000000
_cell_angle_gamma   90.00000000
_symmetry_Int_Tables_number   1
_chemical_formula_structural   NaCr2O4
_chemical_formula_sum   'Na4 Cr8 O16'
_cell_volume   345.05676893
_cell_formula_units_Z   4
loop_
 _symmetry_equiv_pos_site_id
 _symmetry_equiv_pos_as_xyz
  1  'x, y, z'
loop_
 _atom_site_type_symbol
 _atom_site_label
 _atom_site_symmetry_multiplicity
 _atom_site_fract_x
 _atom_site_fract_y
 _atom_site_fract_z
 _atom_site_occupancy
  Na  Na0  1  0.02976600  0.50000000  0.00000000  1
  Na  Na1  1  0.35563500  0.50000000  0.50000000  1
  Na  Na2  1  0.64436500  0.00000000  0.00000000  1
  Na  Na3  1  0.97023400  0.00000000  0.50000000  1
  Cr  Cr0  1  0.00319600  0.00000000  0.75610300  1
  Cr  Cr1  1  0.99680400  0.50000000  0.74389700  1
  Cr  Cr2  1  0.00319600  0.00000000  0.24389700  1
  Cr  Cr3  1  0.99680400  0.50000000  0.25610300  1
  Cr  Cr4  1  0.50000000  0.25000000  0.75000000  1
  Cr  Cr5  1  0.50000000  0.75000000  0.75000000  1
  Cr  Cr6  1  0.50000000  0.75000000  0.25000000  1
  Cr  Cr7  1  0.50000000  0.25000000  0.25000000  1
  O  O0  1  0.15940600  0.75205100  0.34162900  1
  O  O1  1  0.15940600  0.75205100  0.65837100  1
  O  O2  1  0.15940600  0.24794900  0.34162900  1
  O  O3  1  0.15940600  0.24794900  0.65837100  1
  O  O4  1  0.32813900  0.00000000  0.83963500  1
  O  O5  1  0.32813900  0.00000000  0.16036500  1
  O  O6  1  0.31579000  0.50000000  0.83364500  1
  O  O7  1  0.31579000  0.50000000  0.16635500  1
  O  O8  1  0.68421000  0.00000000  0.33364500  1
  O  O9  1  0.68421000  0.00000000  0.66635500  1
  O  O10  1  0.67186100  0.50000000  0.33963500  1
  O  O11  1  0.67186100  0.50000000  0.66036500  1
  O  O12  1  0.84059400  0.74794900  0.15837100  1
  O  O13  1  0.84059400  0.25205100  0.15837100  1
  O  O14  1  0.84059400  0.74794900  0.84162900  1
  O  O15  1  0.84059400  0.25205100  0.84162900  1
loop_
_geom_bond_atom_site_label_1
_geom_bond_atom_site_label_2
_geom_bond_distance
_geom_bond_site_symmetry_2
Na0 O6 2.389914 1_554
Na0 O7 2.389914 1_555
Na0 O13 2.521170 1_455
Na0 O12 2.521170 1_455
Na0 O15 2.521170 1_454
Na0 O14 2.521170 1_454
Na1 O10 2.435145 1_555
Na1 O11 2.435145 1_555
Na1 O2 2.549401 1_555
Na1 O0 2.549401 1_555
Na1 O3 2.549401 1_555
Na1 O1 2.549401 1_555
Na2 O4 2.435145 1_554
Na2 O5 2.435145 1_555
Na2 O13 2.549401 1_555
Na2 O12 2.549401 1_545
Na2 O15 2.549401 1_554
Na2 O14 2.549401 1_544
Na3 O8 2.389914 1_555
Na3 O9 2.389914 1_555
Na3 O2 2.521170 1_655
Na3 O0 2.521170 1_645
Na3 O1 2.521170 1_645
Na3 O3 2.521170 1_655
Cr0 O4 1.909172 1_555
Cr0 O9 1.919653 1_455
Cr0 O15 1.970381 1_455
Cr0 O14 1.970381 1_445
Cr0 O3 2.011720 1_555
Cr0 O1 2.011720 1_545
Cr1 O11 1.909172 1_555
Cr1 O6 1.919653 1_655
Cr1 O3 1.970381 1_655
Cr1 O1 1.970381 1_655
Cr1 O14 2.011720 1_555
Cr1 O15 2.011720 1_555
Cr2 O5 1.909172 1_555
Cr2 O8 1.919653 1_455
Cr2 O13 1.970381 1_455
Cr2 O12 1.970381 1_445
Cr2 O0 2.011720 1_545
Cr2 O2 2.011720 1_555
Cr3 O10 1.909172 1_555
Cr3 O7 1.919653 1_655
Cr3 O2 1.970381 1_655
Cr3 O0 1.970381 1_655
Cr3 O13 2.011720 1_555
Cr3 O12 2.011720 1_555
Cr4 O9 1.999795 1_555
Cr4 O6 1.999795 1_555
Cr4 O11 2.004911 1_555
Cr4 O4 2.004911 1_555
Cr4 O15 2.024677 1_555
Cr4 O3 2.024677 1_555
Cr5 O9 1.999795 1_565
Cr5 O6 1.999795 1_555
Cr5 O11 2.004911 1_555
Cr5 O4 2.004911 1_565
Cr5 O14 2.024677 1_555
Cr5 O1 2.024677 1_555
Cr6 O7 1.999795 1_555
Cr6 O8 1.999795 1_565
Cr6 O5 2.004911 1_565
Cr6 O10 2.004911 1_555
Cr6 O12 2.024677 1_555
Cr6 O0 2.024677 1_555
Cr7 O7 1.999795 1_555
Cr7 O8 1.999795 1_555
Cr7 O5 2.004911 1_555
Cr7 O10 2.004911 1_555
Cr7 O13 2.024677 1_555
Cr7 O2 2.024677 1_555
