# generated using pymatgen
data_C3S4
_symmetry_space_group_name_H-M   'P 1'
_cell_length_a   9.89664800
_cell_length_b   8.79170500
_cell_length_c   14.12483457
_cell_angle_alpha   76.60654166
_cell_angle_beta   90.00000000
_cell_angle_gamma   90.00000000
_symmetry_Int_Tables_number   1
_chemical_formula_structural   C3S4
_chemical_formula_sum   'C24 S32'
_cell_volume   1195.55401900
_cell_formula_units_Z   8
loop_
 _symmetry_equiv_pos_site_id
 _symmetry_equiv_pos_as_xyz
  1  'x, y, z'
loop_
 _atom_site_type_symbol
 _atom_site_label
 _atom_site_symmetry_multiplicity
 _atom_site_fract_x
 _atom_site_fract_y
 _atom_site_fract_z
 _atom_site_occupancy
  C  C0  1  0.57029200  0.99409600  0.09624800  1
  C  C1  1  0.07029200  0.00590400  0.40375200  1
  C  C2  1  0.42970800  0.00590400  0.90375200  1
  C  C3  1  0.92970800  0.99409600  0.59624800  1
  C  C4  1  0.64234900  0.93580000  0.02924000  1
  C  C5  1  0.14234900  0.06420000  0.47076000  1
  C  C6  1  0.35765100  0.06420000  0.97076000  1
  C  C7  1  0.85765100  0.93580000  0.52924000  1
  C  C8  1  0.77527200  0.87693300  0.05373600  1
  C  C9  1  0.27527200  0.12306700  0.44626400  1
  C  C10  1  0.22472800  0.12306700  0.94626400  1
  C  C11  1  0.72472800  0.87693300  0.55373600  1
  C  C12  1  0.35775000  0.56835600  0.99275400  1
  C  C13  1  0.85775000  0.43164400  0.50724600  1
  C  C14  1  0.64225000  0.43164400  0.00724600  1
  C  C15  1  0.14225000  0.56835600  0.49275400  1
  C  C16  1  0.42372300  0.55591900  0.08042000  1
  C  C17  1  0.92372300  0.44408100  0.41958000  1
  C  C18  1  0.57627700  0.44408100  0.91958000  1
  C  C19  1  0.07627700  0.55591900  0.58042000  1
  C  C20  1  0.35552800  0.60880800  0.15622400  1
  C  C21  1  0.85552800  0.39119200  0.34377600  1
  C  C22  1  0.64447200  0.39119200  0.84377600  1
  C  C23  1  0.14447200  0.60880800  0.65622400  1
  S  S0  1  0.40927300  0.07789000  0.08816000  1
  S  S1  1  0.90927300  0.92211000  0.41184000  1
  S  S2  1  0.59072700  0.92211000  0.91184000  1
  S  S3  1  0.09072700  0.07789000  0.58816000  1
  S  S4  1  0.64724700  0.98640100  0.20733200  1
  S  S5  1  0.14724700  0.01359900  0.29266800  1
  S  S6  1  0.35275300  0.01359900  0.79266800  1
  S  S7  1  0.85275300  0.98640100  0.70733200  1
  S  S8  1  0.82227900  0.88341600  0.17140700  1
  S  S9  1  0.32227900  0.11658400  0.32859300  1
  S  S10  1  0.17772100  0.11658400  0.82859300  1
  S  S11  1  0.67772100  0.88341600  0.67140700  1
  S  S12  1  0.88055400  0.80717900  0.98224200  1
  S  S13  1  0.38055400  0.19282100  0.51775800  1
  S  S14  1  0.11944600  0.19282100  0.01775800  1
  S  S15  1  0.61944600  0.80717900  0.48224200  1
  S  S16  1  0.41181100  0.51664300  0.88656300  1
  S  S17  1  0.91181100  0.48335700  0.61343700  1
  S  S18  1  0.58818900  0.48335700  0.11343700  1
  S  S19  1  0.08818900  0.51664300  0.38656300  1
  S  S20  1  0.19603900  0.64712500  0.98333700  1
  S  S21  1  0.69603900  0.35287500  0.51666300  1
  S  S22  1  0.80396100  0.35287500  0.01666300  1
  S  S23  1  0.30396100  0.64712500  0.48333700  1
  S  S24  1  0.19493000  0.68133500  0.12376000  1
  S  S25  1  0.69493000  0.31866500  0.37624000  1
  S  S26  1  0.80507000  0.31866500  0.87624000  1
  S  S27  1  0.30507000  0.68133500  0.62376000  1
  S  S28  1  0.41631900  0.60657600  0.26665600  1
  S  S29  1  0.91631900  0.39342400  0.23334400  1
  S  S30  1  0.58368100  0.39342400  0.73334400  1
  S  S31  1  0.08368100  0.60657600  0.76665600  1
loop_
_geom_bond_atom_site_label_1
_geom_bond_atom_site_label_2
_geom_bond_distance
_geom_bond_site_symmetry_2
C0 C4 1.375416 1_555
C0 S4 1.731279 1_555
C0 S0 1.748191 1_565
C1 C5 1.375416 1_555
C1 S5 1.731279 1_555
C1 S1 1.748191 1_445
C2 C6 1.375416 1_555
C2 S6 1.731279 1_555
C2 S2 1.748191 1_545
C3 C7 1.375416 1_555
C3 S7 1.731279 1_555
C3 S3 1.748191 1_665
C4 C8 1.426579 1_555
C4 S2 1.765719 1_554
C5 C9 1.426579 1_555
C5 S3 1.765719 1_555
C6 S0 1.765719 1_556
C7 S1 1.765719 1_555
C8 S12 1.663851 1_554
C8 S8 1.739563 1_555
C9 S13 1.663851 1_555
C9 S9 1.739563 1_555
C10 C6 1.426579 1_555
C10 S14 1.663851 1_556
C10 S10 1.739563 1_555
C11 C7 1.426579 1_555
C11 S15 1.663851 1_555
C11 S11 1.739563 1_555
C12 C16 1.381605 1_556
C12 S20 1.736624 1_555
C12 S16 1.748904 1_555
C13 C17 1.381605 1_555
C13 S21 1.736624 1_555
C13 S17 1.748904 1_555
C14 C18 1.381605 1_554
C14 S22 1.736624 1_555
C14 S18 1.748904 1_555
C15 C19 1.381605 1_555
C15 S23 1.736624 1_555
C15 S19 1.748904 1_555
C16 C20 1.431360 1_555
C16 S18 1.770852 1_555
C17 C21 1.431360 1_555
C17 S19 1.770852 1_655
C18 C22 1.431360 1_555
C18 S16 1.770852 1_555
C19 C23 1.431360 1_555
C19 S17 1.770852 1_455
C20 S28 1.667705 1_555
C20 S24 1.734222 1_555
C21 S29 1.667705 1_555
C21 S25 1.734222 1_555
C22 S30 1.667705 1_555
C22 S26 1.734222 1_555
C23 S31 1.667705 1_555
C23 S27 1.734222 1_555
S4 S8 2.071408 1_555
S5 S9 2.071408 1_555
S10 S6 2.071408 1_555
S11 S7 2.071408 1_555
S20 S24 2.073892 1_556
S21 S25 2.073892 1_555
S22 S26 2.073892 1_554
S23 S27 2.073892 1_555
