# generated using pymatgen
data_Mg3Mn
_symmetry_space_group_name_H-M   'P 1'
_cell_length_a   6.19028600
_cell_length_b   9.80093600
_cell_length_c   10.60290600
_cell_angle_alpha   90.00000000
_cell_angle_beta   90.00000000
_cell_angle_gamma   90.00000000
_symmetry_Int_Tables_number   1
_chemical_formula_structural   Mg3Mn
_chemical_formula_sum   'Mg24 Mn8'
_cell_volume   643.28463598
_cell_formula_units_Z   8
loop_
 _symmetry_equiv_pos_site_id
 _symmetry_equiv_pos_as_xyz
  1  'x, y, z'
loop_
 _atom_site_type_symbol
 _atom_site_label
 _atom_site_symmetry_multiplicity
 _atom_site_fract_x
 _atom_site_fract_y
 _atom_site_fract_z
 _atom_site_occupancy
  Mg  Mg0_0  1  0.25000000  0.00000000  0.33307700  1
  Mg  Mg0_1  1  0.25000000  0.00000000  0.83307700  1
  Mg  Mg0_2  1  0.25000000  0.50000000  0.33307700  1
  Mg  Mg0_3  1  0.25000000  0.50000000  0.83307700  1
  Mg  Mg0_4  1  0.75000000  0.00000000  0.33307700  1
  Mg  Mg0_5  1  0.75000000  0.00000000  0.83307700  1
  Mg  Mg0_6  1  0.75000000  0.50000000  0.33307700  1
  Mg  Mg0_7  1  0.75000000  0.50000000  0.83307700  1
  Mg  Mg1_0  1  0.25000000  0.25000000  0.16192600  1
  Mg  Mg1_1  1  0.25000000  0.25000000  0.66192600  1
  Mg  Mg1_2  1  0.25000000  0.75000000  0.16192600  1
  Mg  Mg1_3  1  0.25000000  0.75000000  0.66192600  1
  Mg  Mg1_4  1  0.75000000  0.25000000  0.16192600  1
  Mg  Mg1_5  1  0.75000000  0.25000000  0.66192600  1
  Mg  Mg1_6  1  0.75000000  0.75000000  0.16192600  1
  Mg  Mg1_7  1  0.75000000  0.75000000  0.66192600  1
  Mg  Mg2_0  1  0.00000000  0.25000000  0.42113850  1
  Mg  Mg2_1  1  0.00000000  0.25000000  0.92113850  1
  Mg  Mg2_2  1  0.00000000  0.75000000  0.42113850  1
  Mg  Mg2_3  1  0.00000000  0.75000000  0.92113850  1
  Mg  Mg2_4  1  0.50000000  0.25000000  0.42113850  1
  Mg  Mg2_5  1  0.50000000  0.25000000  0.92113850  1
  Mg  Mg2_6  1  0.50000000  0.75000000  0.42113850  1
  Mg  Mg2_7  1  0.50000000  0.75000000  0.92113850  1
  Mn  Mn0_0  1  0.00000000  0.00000000  0.08385800  1
  Mn  Mn0_1  1  0.00000000  0.00000000  0.58385800  1
  Mn  Mn0_2  1  0.00000000  0.50000000  0.08385800  1
  Mn  Mn0_3  1  0.00000000  0.50000000  0.58385800  1
  Mn  Mn0_4  1  0.50000000  0.00000000  0.08385800  1
  Mn  Mn0_5  1  0.50000000  0.00000000  0.58385800  1
  Mn  Mn0_6  1  0.50000000  0.50000000  0.08385800  1
  Mn  Mn0_7  1  0.50000000  0.50000000  0.58385800  1
loop_
_geom_bond_atom_site_label_1
_geom_bond_atom_site_label_2
_geom_bond_distance
_geom_bond_site_symmetry_2
Mg0_0 Mg2_0 3.044739 1_555
Mg0_0 Mg2_4 3.044739 1_555
Mg0_0 Mg2_6 3.044739 1_545
Mg0_0 Mg2_2 3.044739 1_545
Mg0_0 Mg1_2 3.049061 1_545
Mg0_0 Mg1_0 3.049061 1_555
Mg0_0 Mn0_0 3.062270 1_555
Mg0_0 Mn0_4 3.062270 1_555
Mg0_0 Mn0_5 3.076572 1_555
Mg0_0 Mn0_1 3.076572 1_555
Mg0_0 Mg0_4 3.095143 1_455
Mg0_0 Mg0_4 3.095143 1_555
Mg0_1 Mg2_5 3.044739 1_555
Mg0_1 Mg2_3 3.044739 1_545
Mg0_1 Mg2_1 3.044739 1_555
Mg0_1 Mg2_7 3.044739 1_545
Mg0_1 Mg1_1 3.049061 1_555
Mg0_1 Mg1_3 3.049061 1_545
Mg0_1 Mn0_1 3.062270 1_555
Mg0_1 Mn0_5 3.062270 1_555
Mg0_1 Mn0_4 3.076572 1_556
Mg0_1 Mn0_0 3.076572 1_556
Mg0_1 Mg0_5 3.095143 1_555
Mg0_1 Mg0_5 3.095143 1_455
Mg0_2 Mg2_6 3.044739 1_555
Mg0_2 Mg2_0 3.044739 1_555
Mg0_2 Mg2_4 3.044739 1_555
Mg0_2 Mg2_2 3.044739 1_555
Mg0_2 Mg1_2 3.049061 1_555
Mg0_2 Mg1_0 3.049061 1_555
Mg0_2 Mn0_2 3.062270 1_555
Mg0_2 Mn0_6 3.062270 1_555
Mg0_2 Mn0_3 3.076572 1_555
Mg0_2 Mn0_7 3.076572 1_555
Mg0_2 Mg0_6 3.095143 1_455
Mg0_2 Mg0_6 3.095143 1_555
Mg0_3 Mg2_5 3.044739 1_555
Mg0_3 Mg2_7 3.044739 1_555
Mg0_3 Mg2_3 3.044739 1_555
Mg0_3 Mg2_1 3.044739 1_555
Mg0_3 Mg1_1 3.049061 1_555
Mg0_3 Mg1_3 3.049061 1_555
Mg0_3 Mn0_3 3.062270 1_555
Mg0_3 Mn0_7 3.062270 1_555
Mg0_3 Mn0_6 3.076572 1_556
Mg0_3 Mn0_2 3.076572 1_556
Mg0_3 Mg0_7 3.095143 1_455
Mg0_3 Mg0_7 3.095143 1_555
Mg0_4 Mg2_0 3.044739 1_655
Mg0_4 Mg2_2 3.044739 1_645
Mg0_4 Mg2_4 3.044739 1_555
Mg0_4 Mg2_6 3.044739 1_545
Mg0_4 Mg1_4 3.049061 1_555
Mg0_4 Mg1_6 3.049061 1_545
Mg0_4 Mn0_0 3.062270 1_655
Mg0_4 Mn0_4 3.062270 1_555
Mg0_4 Mn0_5 3.076572 1_555
Mg0_4 Mn0_1 3.076572 1_655
Mg0_5 Mg2_1 3.044739 1_655
Mg0_5 Mg2_5 3.044739 1_555
Mg0_5 Mg2_3 3.044739 1_645
Mg0_5 Mg2_7 3.044739 1_545
Mg0_5 Mg1_7 3.049061 1_545
Mg0_5 Mg1_5 3.049061 1_555
Mg0_5 Mn0_1 3.062270 1_655
Mg0_5 Mn0_5 3.062270 1_555
Mg0_5 Mn0_4 3.076572 1_556
Mg0_5 Mn0_0 3.076572 1_656
Mg0_6 Mg2_6 3.044739 1_555
Mg0_6 Mg2_0 3.044739 1_655
Mg0_6 Mg2_4 3.044739 1_555
Mg0_6 Mg2_2 3.044739 1_655
Mg0_6 Mg1_6 3.049061 1_555
Mg0_6 Mg1_4 3.049061 1_555
Mg0_6 Mn0_6 3.062270 1_555
Mg0_6 Mn0_2 3.062270 1_655
Mg0_6 Mn0_3 3.076572 1_655
Mg0_6 Mn0_7 3.076572 1_555
Mg0_7 Mg2_1 3.044739 1_655
Mg0_7 Mg2_5 3.044739 1_555
Mg0_7 Mg2_3 3.044739 1_655
Mg0_7 Mg2_7 3.044739 1_555
Mg0_7 Mg1_7 3.049061 1_555
Mg0_7 Mg1_5 3.049061 1_555
Mg0_7 Mn0_3 3.062270 1_655
Mg0_7 Mn0_7 3.062270 1_555
Mg0_7 Mn0_6 3.076572 1_556
Mg0_7 Mn0_2 3.076572 1_656
Mg1_0 Mg2_1 2.985469 1_554
Mg1_0 Mg2_5 2.985469 1_554
Mg1_0 Mn0_2 3.013933 1_555
Mg1_0 Mn0_6 3.013933 1_555
Mg1_0 Mn0_0 3.013933 1_555
Mg1_0 Mn0_4 3.013933 1_555
Mg1_0 Mg1_4 3.095143 1_455
Mg1_0 Mg1_4 3.095143 1_555
Mg1_0 Mg2_0 3.154158 1_555
Mg1_0 Mg2_4 3.154158 1_555
Mg1_1 Mg2_0 2.985469 1_555
Mg1_1 Mg2_4 2.985469 1_555
Mg1_1 Mn0_5 3.013933 1_555
Mg1_1 Mn0_3 3.013933 1_555
Mg1_1 Mn0_7 3.013933 1_555
Mg1_1 Mn0_1 3.013933 1_555
Mg1_1 Mg1_5 3.095143 1_455
Mg1_1 Mg1_5 3.095143 1_555
Mg1_1 Mg2_5 3.154158 1_555
Mg1_1 Mg2_1 3.154158 1_555
Mg1_2 Mg2_3 2.985469 1_554
Mg1_2 Mg2_7 2.985469 1_554
Mg1_2 Mn0_0 3.013933 1_565
Mg1_2 Mn0_2 3.013933 1_555
Mg1_2 Mn0_4 3.013933 1_565
Mg1_2 Mn0_6 3.013933 1_555
Mg1_2 Mg1_6 3.095143 1_555
Mg1_2 Mg1_6 3.095143 1_455
Mg1_2 Mg2_2 3.154158 1_555
Mg1_2 Mg2_6 3.154158 1_555
Mg1_3 Mg2_2 2.985469 1_555
Mg1_3 Mg2_6 2.985469 1_555
Mg1_3 Mn0_3 3.013933 1_555
Mg1_3 Mn0_7 3.013933 1_555
Mg1_3 Mn0_1 3.013933 1_565
Mg1_3 Mn0_5 3.013933 1_565
Mg1_3 Mg1_7 3.095143 1_455
Mg1_3 Mg1_7 3.095143 1_555
Mg1_3 Mg2_3 3.154158 1_555
Mg1_3 Mg2_7 3.154158 1_555
Mg1_4 Mg2_1 2.985469 1_654
Mg1_4 Mg2_5 2.985469 1_554
Mg1_4 Mn0_0 3.013933 1_655
Mg1_4 Mn0_6 3.013933 1_555
Mg1_4 Mn0_2 3.013933 1_655
Mg1_4 Mn0_4 3.013933 1_555
Mg1_4 Mg2_0 3.154158 1_655
Mg1_4 Mg2_4 3.154158 1_555
Mg1_5 Mg2_0 2.985469 1_655
Mg1_5 Mg2_4 2.985469 1_555
Mg1_5 Mn0_1 3.013933 1_655
Mg1_5 Mn0_5 3.013933 1_555
Mg1_5 Mn0_3 3.013933 1_655
Mg1_5 Mn0_7 3.013933 1_555
Mg1_5 Mg2_5 3.154158 1_555
Mg1_5 Mg2_1 3.154158 1_655
Mg1_6 Mg2_7 2.985469 1_554
Mg1_6 Mg2_3 2.985469 1_654
Mg1_6 Mn0_0 3.013933 1_665
Mg1_6 Mn0_4 3.013933 1_565
Mg1_6 Mn0_6 3.013933 1_555
Mg1_6 Mn0_2 3.013933 1_655
Mg1_6 Mg2_2 3.154158 1_655
Mg1_6 Mg2_6 3.154158 1_555
Mg1_7 Mg2_2 2.985469 1_655
Mg1_7 Mg2_6 2.985469 1_555
Mg1_7 Mn0_1 3.013933 1_665
Mg1_7 Mn0_3 3.013933 1_655
Mg1_7 Mn0_7 3.013933 1_555
Mg1_7 Mn0_5 3.013933 1_565
Mg1_7 Mg2_3 3.154158 1_655
Mg1_7 Mg2_7 3.154158 1_555
Mg2_0 Mn0_1 2.996716 1_555
Mg2_0 Mn0_3 2.996716 1_555
Mg2_0 Mg2_4 3.095143 1_455
Mg2_0 Mg2_4 3.095143 1_555
Mg2_1 Mn0_0 2.996716 1_556
Mg2_1 Mn0_2 2.996716 1_556
Mg2_1 Mg2_5 3.095143 1_455
Mg2_1 Mg2_5 3.095143 1_555
Mg2_2 Mn0_1 2.996716 1_565
Mg2_2 Mn0_3 2.996716 1_555
Mg2_2 Mg2_6 3.095143 1_455
Mg2_2 Mg2_6 3.095143 1_555
Mg2_3 Mn0_2 2.996716 1_556
Mg2_3 Mn0_0 2.996716 1_566
Mg2_3 Mg2_7 3.095143 1_455
Mg2_3 Mg2_7 3.095143 1_555
Mg2_4 Mn0_7 2.996716 1_555
Mg2_4 Mn0_5 2.996716 1_555
Mg2_5 Mn0_4 2.996716 1_556
Mg2_5 Mn0_6 2.996716 1_556
Mg2_6 Mn0_7 2.996716 1_555
Mg2_6 Mn0_5 2.996716 1_565
Mg2_7 Mn0_4 2.996716 1_566
Mg2_7 Mn0_6 2.996716 1_556
Mn0_0 Mn0_4 3.095143 1_555
Mn0_0 Mn0_4 3.095143 1_455
Mn0_1 Mn0_5 3.095143 1_555
Mn0_1 Mn0_5 3.095143 1_455
Mn0_2 Mn0_6 3.095143 1_555
Mn0_2 Mn0_6 3.095143 1_455
Mn0_3 Mn0_7 3.095143 1_455
Mn0_3 Mn0_7 3.095143 1_555
