# generated using pymatgen
data_Sm4Cr3Fe31C4
_symmetry_space_group_name_H-M   'P 1'
_cell_length_a   6.47994913
_cell_length_b   6.48808263
_cell_length_c   12.93369253
_cell_angle_alpha   83.43636800
_cell_angle_beta   83.57641317
_cell_angle_gamma   83.46626391
_symmetry_Int_Tables_number   1
_chemical_formula_structural   Sm4Cr3Fe31C4
_chemical_formula_sum   'Sm4 Cr3 Fe31 C4'
_cell_volume   533.99178293
_cell_formula_units_Z   1
loop_
 _symmetry_equiv_pos_site_id
 _symmetry_equiv_pos_as_xyz
  1  'x, y, z'
loop_
 _atom_site_type_symbol
 _atom_site_label
 _atom_site_symmetry_multiplicity
 _atom_site_fract_x
 _atom_site_fract_y
 _atom_site_fract_z
 _atom_site_occupancy
  Sm  Sm0  1  0.66519200  0.65068100  0.32490700  1
  Sm  Sm1  1  0.66356200  0.64847500  0.82461700  1
  Sm  Sm2  1  0.33789000  0.35133400  0.17538300  1
  Sm  Sm3  1  0.34022700  0.35503600  0.67799400  1
  Cr  Cr0  1  0.91226300  0.91444500  0.95710700  1
  Cr  Cr1  1  0.08582600  0.08626100  0.04355800  1
  Cr  Cr2  1  0.09348300  0.09471900  0.54691600  1
  Fe  Fe0  1  0.99943300  0.00085200  0.24905700  1
  Fe  Fe1  1  0.99998400  0.99995700  0.74962100  1
  Fe  Fe2  1  0.99969000  0.49832900  0.50076800  1
  Fe  Fe3  1  0.00028900  0.49978100  0.99971100  1
  Fe  Fe4  1  0.49979300  0.00037700  0.99937200  1
  Fe  Fe5  1  0.49830500  0.00027000  0.50024200  1
  Fe  Fe6  1  0.85513800  0.34191800  0.17079700  1
  Fe  Fe7  1  0.85552700  0.34024900  0.67151300  1
  Fe  Fe8  1  0.34084200  0.34376500  0.42802800  1
  Fe  Fe9  1  0.33887600  0.34268500  0.92857400  1
  Fe  Fe10  1  0.34032800  0.85749300  0.17075000  1
  Fe  Fe11  1  0.33961000  0.85634600  0.67207100  1
  Fe  Fe12  1  0.14304000  0.65739500  0.32931400  1
  Fe  Fe13  1  0.14353800  0.66004500  0.82842500  1
  Fe  Fe14  1  0.66083700  0.65791500  0.07167000  1
  Fe  Fe15  1  0.66175900  0.65638700  0.57175900  1
  Fe  Fe16  1  0.66038000  0.14388700  0.32867200  1
  Fe  Fe17  1  0.66176500  0.14198500  0.82834500  1
  Fe  Fe18  1  0.28559200  0.71249700  0.49870200  1
  Fe  Fe19  1  0.28898600  0.71440800  0.99783600  1
  Fe  Fe20  1  0.71239500  0.00244300  0.14204500  1
  Fe  Fe21  1  0.71150700  0.00043600  0.64197600  1
  Fe  Fe22  1  0.00052000  0.28100200  0.35850500  1
  Fe  Fe23  1  0.99968200  0.28222200  0.85882500  1
  Fe  Fe24  1  0.28505400  0.99655700  0.35620800  1
  Fe  Fe25  1  0.28691400  0.99852400  0.85752700  1
  Fe  Fe26  1  0.00107900  0.71805000  0.14026600  1
  Fe  Fe27  1  0.00102900  0.71597200  0.64109600  1
  Fe  Fe28  1  0.71158700  0.28462000  0.00209300  1
  Fe  Fe29  1  0.71076300  0.28307300  0.50165100  1
  Fe  Fe30  1  0.90738200  0.90777800  0.45390700  1
  C  C0  1  0.49995800  0.50056700  0.99982400  1
  C  C1  1  0.50005200  0.50044900  0.50019500  1
  C  C2  1  0.50010800  0.00036600  0.25005300  1
  C  C3  1  0.49981500  0.00045100  0.75012100  1
loop_
_geom_bond_atom_site_label_1
_geom_bond_atom_site_label_2
_geom_bond_distance
_geom_bond_site_symmetry_2
Cr0 Cr1 2.146965 1_666
Cr0 Fe26 2.648540 1_656
Cr0 Fe23 2.661499 1_565
Cr0 Fe17 2.661801 1_565
Cr0 Fe14 2.670810 1_556
Cr0 Fe4 2.675270 1_565
Cr0 Fe20 2.678700 1_566
Cr0 Fe1 2.687470 1_555
Cr0 Fe28 2.690205 1_566
Cr0 Fe13 2.692083 1_655
Cr0 Fe3 2.692449 1_655
Cr0 Fe25 2.700246 1_655
Cr0 Fe19 2.707681 1_655
Cr0 Sm1 3.230815 1_555
Cr1 Fe26 2.652365 1_545
Cr1 Fe23 2.660673 1_454
Cr1 Fe0 2.661889 1_455
Cr1 Fe10 2.668479 1_545
Cr1 Fe9 2.679162 1_554
Cr1 Fe6 2.683930 1_455
Cr1 Fe3 2.685354 1_554
Cr1 Fe4 2.687459 1_554
Cr1 Fe20 2.687977 1_455
Cr1 Fe28 2.692160 1_455
Cr1 Fe25 2.693308 1_544
Cr1 Fe19 2.707886 1_544
Cr1 Sm2 3.235022 1_555
Cr2 Fe30 2.315914 1_445
Cr2 Fe2 2.635269 1_455
Cr2 Fe1 2.641851 1_445
Cr2 Fe7 2.642746 1_455
Cr2 Fe5 2.643039 1_555
Cr2 Fe11 2.645719 1_545
Cr2 Fe8 2.648478 1_555
Cr2 Fe22 2.692830 1_555
Cr2 Fe27 2.714525 1_545
Cr2 Fe29 2.730969 1_455
Cr2 Fe21 2.739354 1_455
Cr2 Fe24 2.743104 1_545
Cr2 Fe18 2.750573 1_545
Cr2 Sm3 3.187290 1_555
Fe0 Fe24 2.429040 1_645
Fe0 Fe22 2.429206 1_655
Fe0 Fe26 2.434957 1_645
Fe0 Fe20 2.437968 1_555
Fe0 Fe16 2.448836 1_555
Fe0 Fe10 2.453094 1_645
Fe0 Fe6 2.454466 1_555
Fe0 Fe12 2.474777 1_645
Fe0 Fe30 2.665093 1_545
Fe0 Sm0 3.309071 1_545
Fe0 Sm2 3.325794 1_655
Fe1 Fe23 2.436942 1_565
Fe1 Fe17 2.438181 1_565
Fe1 Fe27 2.439543 1_655
Fe1 Fe11 2.443485 1_655
Fe1 Fe25 2.445104 1_655
Fe1 Fe13 2.449332 1_655
Fe1 Fe7 2.450044 1_565
Fe1 Fe21 2.452087 1_565
Fe1 Sm1 3.323583 1_555
Fe1 Sm3 3.352250 1_665
Fe2 Fe27 2.424945 1_655
Fe2 Fe22 2.441918 1_655
Fe2 Fe8 2.454288 1_655
Fe2 Fe7 2.457663 1_555
Fe2 Fe29 2.458149 1_555
Fe2 Fe30 2.670905 1_555
Fe2 Sm0 3.309126 1_555
Fe2 Sm3 3.341486 1_655
Fe3 Fe9 2.439862 1_555
Fe3 Fe6 2.462824 1_456
Fe3 Sm1 3.308675 1_455
Fe3 Sm2 3.317856 1_556
Fe4 Fe9 2.465757 1_555
Fe4 Sm1 3.396957 1_545
Fe4 Sm2 3.402187 1_556
Fe5 Fe8 2.469838 1_555
Fe5 Sm0 3.394933 1_545
Fe5 Sm3 3.432044 1_555
Fe6 Sm0 3.050205 1_555
Fe6 Sm2 3.143052 1_655
Fe6 Sm2 3.339335 1_555
Fe7 Sm1 3.042327 1_555
Fe7 Sm3 3.163918 1_655
Fe7 Sm3 3.321482 1_555
Fe10 Fe4 2.464957 1_564
Fe10 Fe26 2.556298 1_555
Fe10 Fe12 2.589990 1_555
Fe11 Fe5 2.470054 1_565
Fe11 Fe13 2.555455 1_555
Fe11 Fe27 2.557027 1_555
Fe12 Fe2 2.465657 1_455
Fe12 Fe18 2.547111 1_555
Fe12 Fe24 2.552948 1_555
Fe12 Fe8 2.567538 1_555
Fe12 Fe30 2.655367 1_455
Fe12 Fe26 2.679638 1_555
Fe12 Fe22 2.680222 1_555
Fe12 Sm2 3.044967 1_555
Fe12 Sm0 3.108663 1_455
Fe12 Sm0 3.373013 1_555
Fe13 Fe3 2.466488 1_555
Fe13 Fe19 2.555011 1_555
Fe13 Fe25 2.561085 1_555
Fe13 Fe9 2.585286 1_555
Fe13 Fe27 2.660459 1_555
Fe13 Fe23 2.692644 1_455
Fe13 Sm3 3.012873 1_555
Fe13 Sm1 3.125665 1_455
Fe13 Sm1 3.356974 1_555
Fe14 Fe3 2.450277 1_654
Fe14 Fe4 2.473055 1_564
Fe14 Fe26 2.552029 1_655
Fe14 Fe6 2.570050 1_555
Fe15 Fe2 2.438059 1_555
Fe15 Fe5 2.482950 1_565
Fe15 Fe27 2.549644 1_655
Fe15 Fe7 2.572868 1_555
Fe16 Fe5 2.474651 1_555
Fe16 Fe22 2.552117 1_655
Fe16 Fe6 2.570124 1_555
Fe17 Fe4 2.464563 1_555
Fe17 Fe23 2.550794 1_555
Fe17 Fe7 2.558674 1_555
Fe18 Fe2 2.435171 1_455
Fe18 Fe5 2.446766 1_565
Fe18 Fe27 2.456140 1_555
Fe19 Fe4 2.429026 1_565
Fe19 Fe3 2.452416 1_555
Fe19 Fe26 2.470938 1_556
Fe20 Fe4 2.425257 1_554
Fe20 Fe26 2.473677 1_645
Fe20 Fe6 2.563765 1_555
Fe21 Fe5 2.415891 1_555
Fe21 Fe27 2.477539 1_645
Fe21 Fe7 2.572608 1_555
Fe22 Fe24 2.456042 1_545
Fe22 Fe29 2.485041 1_455
Fe22 Fe8 2.563074 1_555
Fe22 Fe6 2.673082 1_455
Fe22 Fe30 2.689488 1_445
Fe22 Sm2 3.068934 1_555
Fe22 Sm0 3.074107 1_455
Fe23 Fe3 2.429746 1_655
Fe23 Fe25 2.464337 1_645
Fe23 Fe28 2.478880 1_556
Fe23 Fe9 2.553335 1_655
Fe23 Fe7 2.664826 1_555
Fe23 Sm1 3.063288 1_555
Fe23 Sm3 3.064742 1_655
Fe24 Fe5 2.444240 1_565
Fe25 Fe4 2.417390 1_565
Fe26 Fe3 2.429510 1_554
Fe26 Fe6 2.688315 1_455
Fe26 Sm2 3.069797 1_555
Fe26 Sm0 3.073460 1_455
Fe27 Fe7 2.684592 1_455
Fe27 Fe30 2.691924 1_455
Fe27 Sm3 3.057886 1_555
Fe27 Sm1 3.070281 1_455
Fe28 Fe4 2.426405 1_554
Fe28 Fe3 2.453796 1_654
Fe28 Fe6 2.546123 1_555
Fe29 Fe5 2.418778 1_555
Fe29 Fe7 2.563353 1_555
Fe30 Fe5 2.666596 1_565
C0 Fe19 1.833734 1_555
C0 Fe28 1.845759 1_556
C0 Fe9 1.913738 1_555
C0 Fe14 1.915280 1_556
C0 Sm1 2.525221 1_555
C0 Sm2 2.528114 1_556
C1 Fe18 1.840983 1_555
C1 Fe29 1.848026 1_555
C1 Fe8 1.907893 1_555
C1 Fe15 1.910678 1_555
C1 Sm0 2.534633 1_555
C1 Sm3 2.538565 1_555
C2 Fe24 1.843799 1_545
C2 Fe20 1.847665 1_555
C2 Fe16 1.911145 1_555
C2 Fe10 1.912244 1_545
C2 Sm2 2.530322 1_555
C2 Sm0 2.531061 1_545
C3 Fe25 1.845077 1_545
C3 Fe21 1.846291 1_555
C3 Fe17 1.907198 1_555
C3 Fe11 1.908412 1_545
C3 Sm3 2.533003 1_555
C3 Sm1 2.538419 1_545
