# generated using pymatgen
data_NbFeSi
_symmetry_space_group_name_H-M   'P 1'
_cell_length_a   4.93948716
_cell_length_b   4.93948716
_cell_length_c   4.95402000
_cell_angle_alpha   90.00000000
_cell_angle_beta   90.00000000
_cell_angle_gamma   137.19419902
_symmetry_Int_Tables_number   1
_chemical_formula_structural   NbFeSi
_chemical_formula_sum   'Nb2 Fe2 Si2'
_cell_volume   82.13360788
_cell_formula_units_Z   2
loop_
 _symmetry_equiv_pos_site_id
 _symmetry_equiv_pos_as_xyz
  1  'x, y, z'
loop_
 _atom_site_type_symbol
 _atom_site_label
 _atom_site_symmetry_multiplicity
 _atom_site_fract_x
 _atom_site_fract_y
 _atom_site_fract_z
 _atom_site_occupancy
  Nb  Nb0  1  0.28953100  0.71046900  0.75000000  1
  Nb  Nb1  1  0.71046900  0.28953100  0.25000000  1
  Fe  Fe0  1  0.00000000  0.00000000  0.50000000  1
  Fe  Fe1  1  0.00000000  0.00000000  0.00000000  1
  Si  Si0  1  0.41686900  0.58313100  0.25000000  1
  Si  Si1  1  0.58313100  0.41686900  0.75000000  1
loop_
_geom_bond_atom_site_label_1
_geom_bond_atom_site_label_2
_geom_bond_distance
_geom_bond_site_symmetry_2
Nb0 Si1 2.617838 1_565
Nb0 Si1 2.617838 1_455
Nb0 Si1 2.700443 1_555
Nb0 Si0 2.739950 1_556
Nb0 Si0 2.739950 1_555
Nb1 Si0 2.617838 1_655
Nb1 Si0 2.617838 1_545
Nb1 Si0 2.700443 1_555
Nb1 Si1 2.739950 1_555
Nb1 Si1 2.739950 1_554
Fe0 Si1 2.316823 1_555
Fe0 Si0 2.316823 1_555
Fe0 Si1 2.316823 1_445
Fe0 Si0 2.316823 1_445
Fe0 Fe1 2.477010 1_556
Fe0 Fe1 2.477010 1_555
Fe0 Nb1 2.920697 1_555
Fe0 Nb0 2.920697 1_555
Fe0 Nb0 2.920697 1_445
Fe0 Nb1 2.920697 1_445
Fe0 Nb0 2.936930 1_545
Fe0 Nb1 2.936930 1_455
Fe1 Si1 2.316823 1_554
Fe1 Si0 2.316823 1_555
Fe1 Si1 2.316823 1_444
Fe1 Si0 2.316823 1_445
Fe1 Nb1 2.920697 1_555
Fe1 Nb0 2.920697 1_444
Fe1 Nb1 2.920697 1_445
Fe1 Nb0 2.920697 1_554
Fe1 Nb0 2.936930 1_544
Fe1 Nb1 2.936930 1_455
