# generated using pymatgen
data_LiHoSn
_symmetry_space_group_name_H-M   'P 1'
_cell_length_a   9.28256049
_cell_length_b   9.28255961
_cell_length_c   7.30017817
_cell_angle_alpha   90.00002419
_cell_angle_beta   89.99997368
_cell_angle_gamma   119.99976630
_symmetry_Int_Tables_number   1
_chemical_formula_structural   LiHoSn
_chemical_formula_sum   'Li8 Ho8 Sn8'
_cell_volume   544.75427742
_cell_formula_units_Z   8
loop_
 _symmetry_equiv_pos_site_id
 _symmetry_equiv_pos_as_xyz
  1  'x, y, z'
loop_
 _atom_site_type_symbol
 _atom_site_label
 _atom_site_symmetry_multiplicity
 _atom_site_fract_x
 _atom_site_fract_y
 _atom_site_fract_z
 _atom_site_occupancy
  Li  Li0  1  0.16720229  0.33439856  0.28990595  1
  Li  Li1  1  0.16719924  0.83280051  0.28992293  1
  Li  Li2  1  0.66560103  0.83279841  0.28990544  1
  Li  Li3  1  0.83279838  0.66560150  0.78990648  1
  Li  Li4  1  0.83280069  0.16719925  0.78992301  1
  Li  Li5  1  0.33439858  0.16720166  0.78990529  1
  Li  Li6  1  0.33333336  0.66666675  0.67149822  1
  Li  Li7  1  0.66666637  0.33333331  0.17149712  1
  Ho  Ho0  1  0.51191097  0.02382185  0.49351070  1
  Ho  Ho1  1  0.51191124  0.48808959  0.49350990  1
  Ho  Ho2  1  0.97617823  0.48808934  0.49351047  1
  Ho  Ho3  1  0.48808902  0.97617828  0.99351068  1
  Ho  Ho4  1  0.48808893  0.51191034  0.99350986  1
  Ho  Ho5  1  0.02382165  0.51191050  0.99351056  1
  Ho  Ho6  1  0.99999916  0.99999832  0.49878030  1
  Ho  Ho7  1  0.00000082  0.00000192  0.99878059  1
  Sn  Sn0  1  0.16672405  0.33344866  0.73010320  1
  Sn  Sn1  1  0.16672459  0.83327526  0.73010347  1
  Sn  Sn2  1  0.66655118  0.83327601  0.73010385  1
  Sn  Sn3  1  0.83327585  0.66655122  0.23010315  1
  Sn  Sn4  1  0.83327553  0.16672490  0.23010341  1
  Sn  Sn5  1  0.33344896  0.16672404  0.23010387  1
  Sn  Sn6  1  0.33333359  0.66666610  0.26013076  1
  Sn  Sn7  1  0.66666630  0.33333374  0.76013080  1
loop_
_geom_bond_atom_site_label_1
_geom_bond_atom_site_label_2
_geom_bond_distance
_geom_bond_site_symmetry_2
Li0 Sn6 2.679912 1_555
Li0 Sn5 2.719643 1_555
Li0 Sn4 2.719697 1_455
Li0 Sn0 3.213527 1_555
Li1 Sn6 2.679923 1_555
Li1 Sn5 2.719691 1_565
Li1 Sn3 2.719691 1_455
Li1 Sn1 3.213405 1_555
Li2 Sn6 2.679911 1_555
Li2 Sn3 2.719650 1_555
Li2 Sn4 2.719694 1_565
Li2 Sn2 3.213536 1_555
Li3 Sn7 2.679914 1_555
Li3 Sn2 2.719648 1_555
Li3 Sn1 2.719693 1_655
Li3 Sn3 3.213523 1_556
Li4 Sn7 2.679924 1_555
Li4 Sn2 2.719689 1_545
Li4 Sn0 2.719690 1_655
Li4 Sn4 3.213404 1_556
Li5 Sn7 2.679913 1_555
Li5 Sn0 2.719646 1_555
Li5 Sn1 2.719693 1_545
Li5 Sn5 3.213537 1_556
Li6 Sn1 2.712658 1_555
Li6 Sn2 2.712673 1_555
Li6 Sn0 2.712674 1_555
Li6 Sn6 3.003056 1_555
Li7 Sn4 2.712662 1_555
Li7 Sn5 2.712670 1_555
Li7 Sn3 2.712673 1_555
Li7 Sn7 3.003047 1_554
Ho0 Li1 3.149287 1_545
Ho0 Li2 3.149350 1_545
Ho0 Li6 3.151477 1_545
Ho0 Sn7 3.158998 1_555
Ho0 Sn5 3.224736 1_555
Ho0 Sn4 3.224746 1_555
Ho0 Sn2 3.272782 1_545
Ho0 Sn1 3.272791 1_545
Ho0 Sn6 3.338591 1_545
Ho0 Li5 3.370655 1_555
Ho0 Li4 3.370731 1_555
Ho0 Li7 3.423001 1_555
Ho1 Li0 3.149321 1_555
Ho1 Li2 3.149322 1_555
Ho1 Li6 3.151469 1_555
Ho1 Sn7 3.158989 1_555
Ho1 Sn3 3.224745 1_555
Ho1 Sn5 3.224748 1_555
Ho1 Sn2 3.272795 1_555
Ho1 Sn0 3.272797 1_555
Ho1 Sn6 3.338569 1_555
Ho1 Li5 3.370642 1_555
Ho1 Li3 3.370642 1_555
Ho1 Li7 3.422989 1_555
Ho2 Li1 3.149282 1_655
Ho2 Li0 3.149357 1_655
Ho2 Li6 3.151478 1_655
Ho2 Sn7 3.158999 1_555
Ho2 Sn3 3.224739 1_555
Ho2 Sn4 3.224744 1_555
Ho2 Sn0 3.272784 1_655
Ho2 Sn1 3.272789 1_655
Ho2 Sn6 3.338588 1_655
Ho2 Li3 3.370660 1_555
Ho2 Li4 3.370734 1_555
Ho2 Li7 3.423003 1_555
Ho3 Li4 3.149285 1_565
Ho3 Li5 3.149354 1_565
Ho3 Li7 3.151472 1_566
Ho3 Sn6 3.159000 1_556
Ho3 Sn2 3.224736 1_555
Ho3 Sn1 3.224746 1_555
Ho3 Sn5 3.272779 1_566
Ho3 Sn4 3.272793 1_566
Ho3 Sn7 3.338589 1_565
Ho3 Li2 3.370655 1_556
Ho3 Li1 3.370730 1_556
Ho3 Li6 3.422995 1_555
Ho4 Li5 3.149320 1_555
Ho4 Li3 3.149322 1_555
Ho4 Li7 3.151462 1_556
Ho4 Sn6 3.158989 1_556
Ho4 Sn0 3.224747 1_555
Ho4 Sn2 3.224749 1_555
Ho4 Sn5 3.272795 1_556
Ho4 Sn3 3.272796 1_556
Ho4 Sn7 3.338566 1_555
Ho4 Li0 3.370636 1_556
Ho4 Li2 3.370642 1_556
Ho4 Li6 3.422989 1_555
Ho5 Li4 3.149282 1_455
Ho5 Li3 3.149353 1_455
Ho5 Li7 3.151475 1_456
Ho5 Sn6 3.158999 1_556
Ho5 Sn0 3.224737 1_555
Ho5 Sn1 3.224747 1_555
Ho5 Sn3 3.272782 1_456
Ho5 Sn4 3.272787 1_456
Ho5 Sn7 3.338589 1_455
Ho5 Li0 3.370662 1_556
Ho5 Li1 3.370732 1_556
Ho5 Li6 3.422996 1_555
Ho6 Li1 3.090487 1_655
Ho6 Li2 3.090561 1_555
Ho6 Li0 3.090573 1_665
Ho6 Sn1 3.168146 1_655
Ho6 Sn2 3.168151 1_555
Ho6 Sn0 3.168165 1_665
Ho6 Sn3 3.321518 1_555
Ho6 Sn4 3.321531 1_565
Ho6 Sn5 3.321532 1_665
Ho6 Li3 3.426836 1_555
Ho6 Li5 3.426847 1_665
Ho6 Li4 3.426919 1_565
Ho7 Li4 3.090486 1_455
Ho7 Li5 3.090559 1_555
Ho7 Li3 3.090573 1_445
Ho7 Sn4 3.168142 1_456
Ho7 Sn5 3.168152 1_556
Ho7 Sn3 3.168167 1_446
Ho7 Sn0 3.321517 1_555
Ho7 Sn1 3.321531 1_545
Ho7 Sn2 3.321534 1_445
Ho7 Li0 3.426831 1_556
Ho7 Li2 3.426848 1_446
Ho7 Li1 3.426921 1_546
