# generated using pymatgen
data_Hf2InNi2
_symmetry_space_group_name_H-M   'P 1'
_cell_length_a   14.28152406
_cell_length_b   14.28152406
_cell_length_c   6.52300200
_cell_angle_alpha   90.00000000
_cell_angle_beta   90.00000000
_cell_angle_gamma   90.00000000
_symmetry_Int_Tables_number   1
_chemical_formula_structural   Hf2InNi2
_chemical_formula_sum   'Hf32 In16 Ni32'
_cell_volume   1330.44407390
_cell_formula_units_Z   16
loop_
 _symmetry_equiv_pos_site_id
 _symmetry_equiv_pos_as_xyz
  1  'x, y, z'
loop_
 _atom_site_type_symbol
 _atom_site_label
 _atom_site_symmetry_multiplicity
 _atom_site_fract_x
 _atom_site_fract_y
 _atom_site_fract_z
 _atom_site_occupancy
  Hf  Hf0_0  1  0.08210215  0.16789785  0.00000000  1
  Hf  Hf0_1  1  0.08210215  0.16789785  0.50000000  1
  Hf  Hf0_2  1  0.08210215  0.66789785  0.00000000  1
  Hf  Hf0_3  1  0.08210215  0.66789785  0.50000000  1
  Hf  Hf0_4  1  0.58210215  0.16789785  0.00000000  1
  Hf  Hf0_5  1  0.58210215  0.16789785  0.50000000  1
  Hf  Hf0_6  1  0.58210215  0.66789785  0.00000000  1
  Hf  Hf0_7  1  0.58210215  0.66789785  0.50000000  1
  Hf  Hf1_0  1  0.41789785  0.33210215  0.00000000  1
  Hf  Hf1_1  1  0.41789785  0.33210215  0.50000000  1
  Hf  Hf1_2  1  0.41789785  0.83210215  0.00000000  1
  Hf  Hf1_3  1  0.41789785  0.83210215  0.50000000  1
  Hf  Hf1_4  1  0.91789785  0.33210215  0.00000000  1
  Hf  Hf1_5  1  0.91789785  0.33210215  0.50000000  1
  Hf  Hf1_6  1  0.91789785  0.83210215  0.00000000  1
  Hf  Hf1_7  1  0.91789785  0.83210215  0.50000000  1
  Hf  Hf2_0  1  0.33210215  0.08210215  0.00000000  1
  Hf  Hf2_1  1  0.33210215  0.08210215  0.50000000  1
  Hf  Hf2_2  1  0.33210215  0.58210215  0.00000000  1
  Hf  Hf2_3  1  0.33210215  0.58210215  0.50000000  1
  Hf  Hf2_4  1  0.83210215  0.08210215  0.00000000  1
  Hf  Hf2_5  1  0.83210215  0.08210215  0.50000000  1
  Hf  Hf2_6  1  0.83210215  0.58210215  0.00000000  1
  Hf  Hf2_7  1  0.83210215  0.58210215  0.50000000  1
  Hf  Hf3_0  1  0.16789785  0.41789785  0.00000000  1
  Hf  Hf3_1  1  0.16789785  0.41789785  0.50000000  1
  Hf  Hf3_2  1  0.16789785  0.91789785  0.00000000  1
  Hf  Hf3_3  1  0.16789785  0.91789785  0.50000000  1
  Hf  Hf3_4  1  0.66789785  0.41789785  0.00000000  1
  Hf  Hf3_5  1  0.66789785  0.41789785  0.50000000  1
  Hf  Hf3_6  1  0.66789785  0.91789785  0.00000000  1
  Hf  Hf3_7  1  0.66789785  0.91789785  0.50000000  1
  In  In0_0  1  0.00000000  0.00000000  0.25000000  1
  In  In0_1  1  0.00000000  0.00000000  0.75000000  1
  In  In0_2  1  0.00000000  0.50000000  0.25000000  1
  In  In0_3  1  0.00000000  0.50000000  0.75000000  1
  In  In0_4  1  0.50000000  0.00000000  0.25000000  1
  In  In0_5  1  0.50000000  0.00000000  0.75000000  1
  In  In0_6  1  0.50000000  0.50000000  0.25000000  1
  In  In0_7  1  0.50000000  0.50000000  0.75000000  1
  In  In1_0  1  0.25000000  0.25000000  0.25000000  1
  In  In1_1  1  0.25000000  0.25000000  0.75000000  1
  In  In1_2  1  0.25000000  0.75000000  0.25000000  1
  In  In1_3  1  0.25000000  0.75000000  0.75000000  1
  In  In1_4  1  0.75000000  0.25000000  0.25000000  1
  In  In1_5  1  0.75000000  0.25000000  0.75000000  1
  In  In1_6  1  0.75000000  0.75000000  0.25000000  1
  In  In1_7  1  0.75000000  0.75000000  0.75000000  1
  Ni  Ni0_0  1  0.18689834  0.06310166  0.25000000  1
  Ni  Ni0_1  1  0.18689834  0.06310166  0.75000000  1
  Ni  Ni0_2  1  0.18689834  0.56310166  0.25000000  1
  Ni  Ni0_3  1  0.18689834  0.56310166  0.75000000  1
  Ni  Ni0_4  1  0.68689834  0.06310166  0.25000000  1
  Ni  Ni0_5  1  0.68689834  0.06310166  0.75000000  1
  Ni  Ni0_6  1  0.68689834  0.56310166  0.25000000  1
  Ni  Ni0_7  1  0.68689834  0.56310166  0.75000000  1
  Ni  Ni1_0  1  0.31310166  0.43689834  0.25000000  1
  Ni  Ni1_1  1  0.31310166  0.43689834  0.75000000  1
  Ni  Ni1_2  1  0.31310166  0.93689834  0.25000000  1
  Ni  Ni1_3  1  0.31310166  0.93689834  0.75000000  1
  Ni  Ni1_4  1  0.81310166  0.43689834  0.25000000  1
  Ni  Ni1_5  1  0.81310166  0.43689834  0.75000000  1
  Ni  Ni1_6  1  0.81310166  0.93689834  0.25000000  1
  Ni  Ni1_7  1  0.81310166  0.93689834  0.75000000  1
  Ni  Ni2_0  1  0.43689834  0.18689834  0.25000000  1
  Ni  Ni2_1  1  0.43689834  0.18689834  0.75000000  1
  Ni  Ni2_2  1  0.43689834  0.68689834  0.25000000  1
  Ni  Ni2_3  1  0.43689834  0.68689834  0.75000000  1
  Ni  Ni2_4  1  0.93689834  0.18689834  0.25000000  1
  Ni  Ni2_5  1  0.93689834  0.18689834  0.75000000  1
  Ni  Ni2_6  1  0.93689834  0.68689834  0.25000000  1
  Ni  Ni2_7  1  0.93689834  0.68689834  0.75000000  1
  Ni  Ni3_0  1  0.06310166  0.31310166  0.25000000  1
  Ni  Ni3_1  1  0.06310166  0.31310166  0.75000000  1
  Ni  Ni3_2  1  0.06310166  0.81310166  0.25000000  1
  Ni  Ni3_3  1  0.06310166  0.81310166  0.75000000  1
  Ni  Ni3_4  1  0.56310166  0.31310166  0.25000000  1
  Ni  Ni3_5  1  0.56310166  0.31310166  0.75000000  1
  Ni  Ni3_6  1  0.56310166  0.81310166  0.25000000  1
  Ni  Ni3_7  1  0.56310166  0.81310166  0.75000000  1
loop_
_geom_bond_atom_site_label_1
_geom_bond_atom_site_label_2
_geom_bond_distance
_geom_bond_site_symmetry_2
Hf0_0 Ni2_4 2.652045 1_455
Hf0_0 Ni2_5 2.652045 1_454
Hf0_0 Ni3_1 2.652045 1_554
Hf0_0 Ni3_0 2.652045 1_555
Hf0_0 Ni0_1 2.671940 1_554
Hf0_0 Ni0_0 2.671940 1_555
Hf0_0 In0_1 3.127911 1_554
Hf0_0 In0_0 3.127911 1_555
Hf0_0 In1_0 3.127911 1_555
Hf0_0 In1_1 3.127911 1_554
Hf0_1 Ni2_4 2.652045 1_455
Hf0_1 Ni2_5 2.652045 1_455
Hf0_1 Ni3_0 2.652045 1_555
Hf0_1 Ni3_1 2.652045 1_555
Hf0_1 Ni0_0 2.671940 1_555
Hf0_1 Ni0_1 2.671940 1_555
Hf0_1 In0_0 3.127911 1_555
Hf0_1 In0_1 3.127911 1_555
Hf0_1 In1_0 3.127911 1_555
Hf0_1 In1_1 3.127911 1_555
Hf0_2 Ni2_6 2.652045 1_455
Hf0_2 Ni2_7 2.652045 1_454
Hf0_2 Ni3_3 2.652045 1_554
Hf0_2 Ni3_2 2.652045 1_555
Hf0_2 Ni0_3 2.671940 1_554
Hf0_2 Ni0_2 2.671940 1_555
Hf0_2 In0_3 3.127911 1_554
Hf0_2 In0_2 3.127911 1_555
Hf0_2 In1_3 3.127911 1_554
Hf0_2 In1_2 3.127911 1_555
Hf0_3 Ni2_6 2.652045 1_455
Hf0_3 Ni2_7 2.652045 1_455
Hf0_3 Ni3_2 2.652045 1_555
Hf0_3 Ni3_3 2.652045 1_555
Hf0_3 Ni0_2 2.671940 1_555
Hf0_3 Ni0_3 2.671940 1_555
Hf0_3 In0_2 3.127911 1_555
Hf0_3 In0_3 3.127911 1_555
Hf0_3 In1_2 3.127911 1_555
Hf0_3 In1_3 3.127911 1_555
Hf0_4 Ni2_1 2.652045 1_554
Hf0_4 Ni2_0 2.652045 1_555
Hf0_4 Ni3_5 2.652045 1_554
Hf0_4 Ni3_4 2.652045 1_555
Hf0_4 Ni0_5 2.671940 1_554
Hf0_4 Ni0_4 2.671940 1_555
Hf0_4 In0_5 3.127911 1_554
Hf0_4 In0_4 3.127911 1_555
Hf0_4 In1_4 3.127911 1_555
Hf0_4 In1_5 3.127911 1_554
Hf0_5 Ni2_0 2.652045 1_555
Hf0_5 Ni2_1 2.652045 1_555
Hf0_5 Ni3_4 2.652045 1_555
Hf0_5 Ni3_5 2.652045 1_555
Hf0_5 Ni0_4 2.671940 1_555
Hf0_5 Ni0_5 2.671940 1_555
Hf0_5 In0_4 3.127911 1_555
Hf0_5 In0_5 3.127911 1_555
Hf0_5 In1_4 3.127911 1_555
Hf0_5 In1_5 3.127911 1_555
Hf0_6 Ni2_3 2.652045 1_554
Hf0_6 Ni2_2 2.652045 1_555
Hf0_6 Ni3_7 2.652045 1_554
Hf0_6 Ni3_6 2.652045 1_555
Hf0_6 Ni0_7 2.671940 1_554
Hf0_6 Ni0_6 2.671940 1_555
Hf0_6 In0_7 3.127911 1_554
Hf0_6 In0_6 3.127911 1_555
Hf0_6 In1_7 3.127911 1_554
Hf0_6 In1_6 3.127911 1_555
Hf0_7 Ni2_2 2.652045 1_555
Hf0_7 Ni2_3 2.652045 1_555
Hf0_7 Ni3_6 2.652045 1_555
Hf0_7 Ni3_7 2.652045 1_555
Hf0_7 Ni0_6 2.671940 1_555
Hf0_7 Ni0_7 2.671940 1_555
Hf0_7 In0_6 3.127911 1_555
Hf0_7 In0_7 3.127911 1_555
Hf0_7 In1_7 3.127911 1_555
Hf0_7 In1_6 3.127911 1_555
Hf1_0 Ni2_1 2.652045 1_554
Hf1_0 Ni3_5 2.652045 1_554
Hf1_0 Ni2_0 2.652045 1_555
Hf1_0 Ni3_4 2.652045 1_555
Hf1_0 Ni1_1 2.671940 1_554
Hf1_0 Ni1_0 2.671940 1_555
Hf1_0 In1_1 3.127911 1_554
Hf1_0 In1_0 3.127911 1_555
Hf1_0 In0_7 3.127911 1_554
Hf1_0 In0_6 3.127911 1_555
Hf1_1 Ni2_0 2.652045 1_555
Hf1_1 Ni2_1 2.652045 1_555
Hf1_1 Ni3_4 2.652045 1_555
Hf1_1 Ni3_5 2.652045 1_555
Hf1_1 Ni1_0 2.671940 1_555
Hf1_1 Ni1_1 2.671940 1_555
Hf1_1 In1_0 3.127911 1_555
Hf1_1 In1_1 3.127911 1_555
Hf1_1 In0_7 3.127911 1_555
Hf1_1 In0_6 3.127911 1_555
Hf1_2 Ni3_7 2.652045 1_554
Hf1_2 Ni2_3 2.652045 1_554
Hf1_2 Ni2_2 2.652045 1_555
Hf1_2 Ni3_6 2.652045 1_555
Hf1_2 Ni1_3 2.671940 1_554
Hf1_2 Ni1_2 2.671940 1_555
Hf1_2 In1_3 3.127911 1_554
Hf1_2 In1_2 3.127911 1_555
Hf1_2 In0_5 3.127911 1_564
Hf1_2 In0_4 3.127911 1_565
Hf1_3 Ni2_3 2.652045 1_555
Hf1_3 Ni2_2 2.652045 1_555
Hf1_3 Ni3_7 2.652045 1_555
Hf1_3 Ni3_6 2.652045 1_555
Hf1_3 Ni1_2 2.671940 1_555
Hf1_3 Ni1_3 2.671940 1_555
Hf1_3 In1_2 3.127911 1_555
Hf1_3 In1_3 3.127911 1_555
Hf1_3 In0_4 3.127911 1_565
Hf1_3 In0_5 3.127911 1_565
Hf1_4 Ni2_5 2.652045 1_554
Hf1_4 Ni2_4 2.652045 1_555
Hf1_4 Ni3_1 2.652045 1_654
Hf1_4 Ni3_0 2.652045 1_655
Hf1_4 Ni1_5 2.671940 1_554
Hf1_4 Ni1_4 2.671940 1_555
Hf1_4 In0_3 3.127911 1_654
Hf1_4 In1_4 3.127911 1_555
Hf1_4 In0_2 3.127911 1_655
Hf1_4 In1_5 3.127911 1_554
Hf1_5 Ni2_4 2.652045 1_555
Hf1_5 Ni2_5 2.652045 1_555
Hf1_5 Ni3_0 2.652045 1_655
Hf1_5 Ni3_1 2.652045 1_655
Hf1_5 Ni1_4 2.671940 1_555
Hf1_5 Ni1_5 2.671940 1_555
Hf1_5 In0_3 3.127911 1_655
Hf1_5 In1_4 3.127911 1_555
Hf1_5 In0_2 3.127911 1_655
Hf1_5 In1_5 3.127911 1_555
Hf1_6 Ni2_7 2.652045 1_554
Hf1_6 Ni2_6 2.652045 1_555
Hf1_6 Ni3_3 2.652045 1_654
Hf1_6 Ni3_2 2.652045 1_655
Hf1_6 Ni1_7 2.671940 1_554
Hf1_6 Ni1_6 2.671940 1_555
Hf1_6 In1_7 3.127911 1_554
Hf1_6 In0_1 3.127911 1_664
Hf1_6 In1_6 3.127911 1_555
Hf1_6 In0_0 3.127911 1_665
Hf1_7 Ni2_6 2.652045 1_555
Hf1_7 Ni2_7 2.652045 1_555
Hf1_7 Ni3_3 2.652045 1_655
Hf1_7 Ni3_2 2.652045 1_655
Hf1_7 Ni1_6 2.671940 1_555
Hf1_7 Ni1_7 2.671940 1_555
Hf1_7 In1_6 3.127911 1_555
Hf1_7 In0_0 3.127911 1_665
Hf1_7 In1_7 3.127911 1_555
Hf1_7 In0_1 3.127911 1_665
Hf2_0 Ni0_1 2.652045 1_554
Hf2_0 Ni1_3 2.652045 1_544
Hf2_0 Ni0_0 2.652045 1_555
Hf2_0 Ni1_2 2.652045 1_545
Hf2_0 Ni2_1 2.671940 1_554
Hf2_0 Ni2_0 2.671940 1_555
Hf2_0 In1_1 3.127911 1_554
Hf2_0 In1_0 3.127911 1_555
Hf2_0 In0_5 3.127911 1_554
Hf2_0 In0_4 3.127911 1_555
Hf2_1 Ni0_0 2.652045 1_555
Hf2_1 Ni1_3 2.652045 1_545
Hf2_1 Ni1_2 2.652045 1_545
Hf2_1 Ni0_1 2.652045 1_555
Hf2_1 Ni2_0 2.671940 1_555
Hf2_1 Ni2_1 2.671940 1_555
Hf2_1 In1_0 3.127911 1_555
Hf2_1 In1_1 3.127911 1_555
Hf2_1 In0_4 3.127911 1_555
Hf2_1 In0_5 3.127911 1_555
Hf2_2 Ni1_1 2.652045 1_554
Hf2_2 Ni0_3 2.652045 1_554
Hf2_2 Ni1_0 2.652045 1_555
Hf2_2 Ni0_2 2.652045 1_555
Hf2_2 Ni2_3 2.671940 1_554
Hf2_2 Ni2_2 2.671940 1_555
Hf2_2 In1_3 3.127911 1_554
Hf2_2 In1_2 3.127911 1_555
Hf2_2 In0_7 3.127911 1_554
Hf2_2 In0_6 3.127911 1_555
Hf2_3 Ni1_0 2.652045 1_555
Hf2_3 Ni0_2 2.652045 1_555
Hf2_3 Ni1_1 2.652045 1_555
Hf2_3 Ni0_3 2.652045 1_555
Hf2_3 Ni2_2 2.671940 1_555
Hf2_3 Ni2_3 2.671940 1_555
Hf2_3 In1_2 3.127911 1_555
Hf2_3 In1_3 3.127911 1_555
Hf2_3 In0_6 3.127911 1_555
Hf2_3 In0_7 3.127911 1_555
Hf2_4 Ni0_5 2.652045 1_554
Hf2_4 Ni1_6 2.652045 1_545
Hf2_4 Ni1_7 2.652045 1_544
Hf2_4 Ni0_4 2.652045 1_555
Hf2_4 Ni2_5 2.671940 1_554
Hf2_4 Ni2_4 2.671940 1_555
Hf2_4 In1_5 3.127911 1_554
Hf2_4 In1_4 3.127911 1_555
Hf2_4 In0_1 3.127911 1_654
Hf2_4 In0_0 3.127911 1_655
Hf2_5 Ni1_6 2.652045 1_545
Hf2_5 Ni0_4 2.652045 1_555
Hf2_5 Ni1_7 2.652045 1_545
Hf2_5 Ni0_5 2.652045 1_555
Hf2_5 Ni2_4 2.671940 1_555
Hf2_5 Ni2_5 2.671940 1_555
Hf2_5 In1_4 3.127911 1_555
Hf2_5 In1_5 3.127911 1_555
Hf2_5 In0_0 3.127911 1_655
Hf2_5 In0_1 3.127911 1_655
Hf2_6 Ni1_4 2.652045 1_555
Hf2_6 Ni0_7 2.652045 1_554
Hf2_6 Ni1_5 2.652045 1_554
Hf2_6 Ni0_6 2.652045 1_555
Hf2_6 Ni2_6 2.671940 1_555
Hf2_6 Ni2_7 2.671940 1_554
Hf2_6 In1_7 3.127911 1_554
Hf2_6 In1_6 3.127911 1_555
Hf2_6 In0_3 3.127911 1_654
Hf2_6 In0_2 3.127911 1_655
Hf2_7 Ni1_4 2.652045 1_555
Hf2_7 Ni1_5 2.652045 1_555
Hf2_7 Ni0_6 2.652045 1_555
Hf2_7 Ni0_7 2.652045 1_555
Hf2_7 Ni2_6 2.671940 1_555
Hf2_7 Ni2_7 2.671940 1_555
Hf2_7 In1_6 3.127911 1_555
Hf2_7 In1_7 3.127911 1_555
Hf2_7 In0_3 3.127911 1_655
Hf2_7 In0_2 3.127911 1_655
Hf3_0 Ni0_3 2.652045 1_554
Hf3_0 Ni0_2 2.652045 1_555
Hf3_0 Ni1_1 2.652045 1_554
Hf3_0 Ni1_0 2.652045 1_555
Hf3_0 Ni3_1 2.671940 1_554
Hf3_0 Ni3_0 2.671940 1_555
Hf3_0 In0_3 3.127911 1_554
Hf3_0 In0_2 3.127911 1_555
Hf3_0 In1_0 3.127911 1_555
Hf3_0 In1_1 3.127911 1_554
Hf3_1 Ni0_2 2.652045 1_555
Hf3_1 Ni0_3 2.652045 1_555
Hf3_1 Ni1_0 2.652045 1_555
Hf3_1 Ni1_1 2.652045 1_555
Hf3_1 Ni3_0 2.671940 1_555
Hf3_1 Ni3_1 2.671940 1_555
Hf3_1 In0_2 3.127911 1_555
Hf3_1 In0_3 3.127911 1_555
Hf3_1 In1_0 3.127911 1_555
Hf3_1 In1_1 3.127911 1_555
Hf3_2 Ni1_2 2.652045 1_555
Hf3_2 Ni0_1 2.652045 1_564
Hf3_2 Ni0_0 2.652045 1_565
Hf3_2 Ni1_3 2.652045 1_554
Hf3_2 Ni3_2 2.671940 1_555
Hf3_2 Ni3_3 2.671940 1_554
Hf3_2 In0_1 3.127911 1_564
Hf3_2 In0_0 3.127911 1_565
Hf3_2 In1_3 3.127911 1_554
Hf3_2 In1_2 3.127911 1_555
Hf3_3 Ni1_2 2.652045 1_555
Hf3_3 Ni0_0 2.652045 1_565
Hf3_3 Ni0_1 2.652045 1_565
Hf3_3 Ni1_3 2.652045 1_555
Hf3_3 Ni3_2 2.671940 1_555
Hf3_3 Ni3_3 2.671940 1_555
Hf3_3 In0_0 3.127911 1_565
Hf3_3 In0_1 3.127911 1_565
Hf3_3 In1_2 3.127911 1_555
Hf3_3 In1_3 3.127911 1_555
Hf3_4 Ni0_7 2.652045 1_554
Hf3_4 Ni0_6 2.652045 1_555
Hf3_4 Ni1_5 2.652045 1_554
Hf3_4 Ni1_4 2.652045 1_555
Hf3_4 Ni3_5 2.671940 1_554
Hf3_4 Ni3_4 2.671940 1_555
Hf3_4 In0_7 3.127911 1_554
Hf3_4 In0_6 3.127911 1_555
Hf3_4 In1_5 3.127911 1_554
Hf3_4 In1_4 3.127911 1_555
Hf3_5 Ni0_6 2.652045 1_555
Hf3_5 Ni0_7 2.652045 1_555
Hf3_5 Ni1_4 2.652045 1_555
Hf3_5 Ni1_5 2.652045 1_555
Hf3_5 Ni3_4 2.671940 1_555
Hf3_5 Ni3_5 2.671940 1_555
Hf3_5 In0_6 3.127911 1_555
Hf3_5 In0_7 3.127911 1_555
Hf3_5 In1_4 3.127911 1_555
Hf3_5 In1_5 3.127911 1_555
Hf3_6 Ni0_5 2.652045 1_564
Hf3_6 Ni0_4 2.652045 1_565
Hf3_6 Ni1_6 2.652045 1_555
Hf3_6 Ni1_7 2.652045 1_554
Hf3_6 Ni3_6 2.671940 1_555
Hf3_6 Ni3_7 2.671940 1_554
Hf3_6 In0_5 3.127911 1_564
Hf3_6 In0_4 3.127911 1_565
Hf3_6 In1_7 3.127911 1_554
Hf3_6 In1_6 3.127911 1_555
Hf3_7 Ni0_4 2.652045 1_565
Hf3_7 Ni0_5 2.652045 1_565
Hf3_7 Ni1_6 2.652045 1_555
Hf3_7 Ni1_7 2.652045 1_555
Hf3_7 Ni3_6 2.671940 1_555
Hf3_7 Ni3_7 2.671940 1_555
Hf3_7 In0_4 3.127911 1_565
Hf3_7 In0_5 3.127911 1_565
Hf3_7 In1_6 3.127911 1_555
Hf3_7 In1_7 3.127911 1_555
In0_0 Ni1_6 2.817221 1_445
In0_0 Ni3_2 2.817221 1_545
In0_0 Ni0_0 2.817221 1_555
In0_0 Ni2_4 2.817221 1_455
In0_0 In0_1 3.261501 1_554
In0_0 In0_1 3.261501 1_555
In0_1 Ni1_7 2.817221 1_445
In0_1 Ni3_3 2.817221 1_545
In0_1 Ni2_5 2.817221 1_455
In0_1 Ni0_1 2.817221 1_555
In0_2 Ni2_6 2.817221 1_455
In0_2 Ni1_4 2.817221 1_455
In0_2 Ni0_2 2.817221 1_555
In0_2 Ni3_0 2.817221 1_555
In0_2 In0_3 3.261501 1_554
In0_2 In0_3 3.261501 1_555
In0_3 Ni2_7 2.817221 1_455
In0_3 Ni1_5 2.817221 1_455
In0_3 Ni3_1 2.817221 1_555
In0_3 Ni0_3 2.817221 1_555
In0_4 Ni3_6 2.817221 1_545
In0_4 Ni0_4 2.817221 1_555
In0_4 Ni1_2 2.817221 1_545
In0_4 Ni2_0 2.817221 1_555
In0_4 In0_5 3.261501 1_554
In0_4 In0_5 3.261501 1_555
In0_5 Ni0_5 2.817221 1_555
In0_5 Ni3_7 2.817221 1_545
In0_5 Ni1_3 2.817221 1_545
In0_5 Ni2_1 2.817221 1_555
In0_6 Ni0_6 2.817221 1_555
In0_6 Ni2_2 2.817221 1_555
In0_6 Ni3_4 2.817221 1_555
In0_6 Ni1_0 2.817221 1_555
In0_6 In0_7 3.261501 1_554
In0_6 In0_7 3.261501 1_555
In0_7 Ni0_7 2.817221 1_555
In0_7 Ni2_3 2.817221 1_555
In0_7 Ni3_5 2.817221 1_555
In0_7 Ni1_1 2.817221 1_555
In1_0 Ni1_0 2.817221 1_555
In1_0 Ni2_0 2.817221 1_555
In1_0 Ni0_0 2.817221 1_555
In1_0 Ni3_0 2.817221 1_555
In1_0 In1_1 3.261501 1_554
In1_0 In1_1 3.261501 1_555
In1_1 Ni2_1 2.817221 1_555
In1_1 Ni1_1 2.817221 1_555
In1_1 Ni3_1 2.817221 1_555
In1_1 Ni0_1 2.817221 1_555
In1_2 Ni2_2 2.817221 1_555
In1_2 Ni0_2 2.817221 1_555
In1_2 Ni3_2 2.817221 1_555
In1_2 Ni1_2 2.817221 1_555
In1_2 In1_3 3.261501 1_554
In1_2 In1_3 3.261501 1_555
In1_3 Ni2_3 2.817221 1_555
In1_3 Ni0_3 2.817221 1_555
In1_3 Ni3_3 2.817221 1_555
In1_3 Ni1_3 2.817221 1_555
In1_4 Ni3_4 2.817221 1_555
In1_4 Ni1_4 2.817221 1_555
In1_4 Ni0_4 2.817221 1_555
In1_4 Ni2_4 2.817221 1_555
In1_4 In1_5 3.261501 1_554
In1_4 In1_5 3.261501 1_555
In1_5 Ni3_5 2.817221 1_555
In1_5 Ni0_5 2.817221 1_555
In1_5 Ni1_5 2.817221 1_555
In1_5 Ni2_5 2.817221 1_555
In1_6 Ni0_6 2.817221 1_555
In1_6 Ni3_6 2.817221 1_555
In1_6 Ni2_6 2.817221 1_555
In1_6 Ni1_6 2.817221 1_555
In1_6 In1_7 3.261501 1_554
In1_6 In1_7 3.261501 1_555
In1_7 Ni0_7 2.817221 1_555
In1_7 Ni3_7 2.817221 1_555
In1_7 Ni2_7 2.817221 1_555
In1_7 Ni1_7 2.817221 1_555
Ni0_0 Ni1_2 2.548944 1_545
Ni0_1 Ni1_3 2.548944 1_545
Ni0_2 Ni1_0 2.548944 1_555
Ni0_3 Ni1_1 2.548944 1_555
Ni0_4 Ni1_6 2.548944 1_545
Ni0_5 Ni1_7 2.548944 1_545
Ni0_6 Ni1_4 2.548944 1_555
Ni0_7 Ni1_5 2.548944 1_555
Ni2_0 Ni3_4 2.548944 1_555
Ni2_1 Ni3_5 2.548944 1_555
Ni2_2 Ni3_6 2.548944 1_555
Ni2_3 Ni3_7 2.548944 1_555
Ni2_4 Ni3_0 2.548944 1_655
Ni2_5 Ni3_1 2.548944 1_655
Ni2_6 Ni3_2 2.548944 1_655
Ni2_7 Ni3_3 2.548944 1_655
