# generated using pymatgen
data_Li2SnS3
_symmetry_space_group_name_H-M   'P 1'
_cell_length_a   6.41206894
_cell_length_b   6.41206894
_cell_length_c   12.39319775
_cell_angle_alpha   85.06481184
_cell_angle_beta   85.06481184
_cell_angle_gamma   120.00883196
_symmetry_Int_Tables_number   1
_chemical_formula_structural   Li2SnS3
_chemical_formula_sum   'Li8 Sn4 S12'
_cell_volume   434.65480917
_cell_formula_units_Z   4
loop_
 _symmetry_equiv_pos_site_id
 _symmetry_equiv_pos_as_xyz
  1  'x, y, z'
loop_
 _atom_site_type_symbol
 _atom_site_label
 _atom_site_symmetry_multiplicity
 _atom_site_fract_x
 _atom_site_fract_y
 _atom_site_fract_z
 _atom_site_occupancy
  Li  Li0  1  0.84028918  0.67031252  0.49989920  1
  Li  Li1  1  0.32968748  0.15971082  0.00010080  1
  Li  Li2  1  0.15971082  0.32968748  0.50010080  1
  Li  Li3  1  0.67031252  0.84028918  0.99989920  1
  Li  Li4  1  0.41698453  0.58301547  0.75000000  1
  Li  Li5  1  0.58301547  0.41698453  0.25000000  1
  Li  Li6  1  0.00000000  0.50000000  0.00000000  1
  Li  Li7  1  0.50000000  0.00000000  0.50000000  1
  Sn  Sn0  1  0.08327874  0.91672126  0.75000000  1
  Sn  Sn1  1  0.91672126  0.08327874  0.25000000  1
  Sn  Sn2  1  0.74983269  0.25016731  0.75000000  1
  Sn  Sn3  1  0.25016731  0.74983269  0.25000000  1
  S  S0  1  0.97017210  0.80417895  0.13010934  1
  S  S1  1  0.19582105  0.02982790  0.36989066  1
  S  S2  1  0.02982790  0.19582105  0.86989066  1
  S  S3  1  0.80417895  0.97017210  0.63010934  1
  S  S4  1  0.10814673  0.62272720  0.63010093  1
  S  S5  1  0.37727280  0.89185327  0.86989907  1
  S  S6  1  0.89185327  0.37727280  0.36989907  1
  S  S7  1  0.62272720  0.10814673  0.13010093  1
  S  S8  1  0.72511649  0.54265676  0.87173508  1
  S  S9  1  0.45734324  0.27488351  0.62826492  1
  S  S10  1  0.27488351  0.45734324  0.12826492  1
  S  S11  1  0.54265676  0.72511649  0.37173508  1
loop_
_geom_bond_atom_site_label_1
_geom_bond_atom_site_label_2
_geom_bond_distance
_geom_bond_site_symmetry_2
Li0 S4 2.561846 1_655
Li0 S1 2.565048 1_665
Li0 S3 2.696187 1_555
Li0 S6 2.699307 1_555
Li0 S11 2.717511 1_555
Li0 S9 2.719440 1_555
Li1 S5 2.561846 1_544
Li1 S0 2.565048 1_445
Li1 S2 2.696187 1_554
Li1 S7 2.699307 1_555
Li1 S10 2.717511 1_555
Li1 S8 2.719440 1_554
Li2 S6 2.561846 1_455
Li2 S3 2.565048 1_445
Li2 S1 2.696187 1_555
Li2 S4 2.699307 1_555
Li2 S9 2.717511 1_555
Li2 S11 2.719440 1_555
Li3 S7 2.561846 1_566
Li3 S2 2.565048 1_665
Li3 S0 2.696187 1_556
Li3 S5 2.699307 1_555
Li3 S8 2.717511 1_555
Li3 S10 2.719440 1_556
Li4 S3 2.664579 1_555
Li4 S2 2.664579 1_555
Li4 S4 2.672070 1_555
Li4 S5 2.672070 1_555
Li4 S8 2.684003 1_555
Li4 S9 2.684003 1_555
Li5 S0 2.664579 1_555
Li5 S1 2.664579 1_555
Li5 S7 2.672070 1_555
Li5 S6 2.672070 1_555
Li5 S10 2.684003 1_555
Li5 S11 2.684003 1_555
Li6 S8 2.568624 1_454
Li6 S10 2.568624 1_555
Li6 S2 2.702213 1_554
Li6 S0 2.702213 1_455
Li6 S5 2.704977 1_554
Li6 S7 2.704977 1_455
Li7 S11 2.568624 1_545
Li7 S9 2.568624 1_555
Li7 S1 2.702213 1_555
Li7 S3 2.702213 1_545
Li7 S6 2.704977 1_555
Li7 S4 2.704977 1_545
S0 Sn1 2.551716 1_565
S0 Sn3 2.558922 1_655
S1 Sn1 2.551716 1_455
S1 Sn3 2.558922 1_545
S2 Sn0 2.551716 1_545
S2 Sn2 2.558922 1_455
S3 Sn0 2.551716 1_655
S3 Sn2 2.558922 1_565
S4 Sn2 2.550539 1_455
S4 Sn0 2.555176 1_555
S5 Sn2 2.550539 1_565
S5 Sn0 2.555176 1_555
S6 Sn3 2.550539 1_655
S6 Sn1 2.555176 1_555
S7 Sn3 2.550539 1_545
S7 Sn1 2.555176 1_555
S8 Sn2 2.561565 1_555
S8 Sn0 2.564112 1_655
S9 Sn2 2.561565 1_555
S9 Sn0 2.564112 1_545
S10 Sn3 2.561565 1_555
S10 Sn1 2.564112 1_455
S11 Sn3 2.561565 1_555
S11 Sn1 2.564112 1_565
