# generated using pymatgen
data_PrSiNi
_symmetry_space_group_name_H-M   'P 1'
_cell_length_a   7.51676865
_cell_length_b   7.51676865
_cell_length_c   7.51676865
_cell_angle_alpha   148.02827817
_cell_angle_beta   148.02827817
_cell_angle_gamma   45.84362334
_symmetry_Int_Tables_number   1
_chemical_formula_structural   PrSiNi
_chemical_formula_sum   'Pr2 Si2 Ni2'
_cell_volume   118.67493694
_cell_formula_units_Z   2
loop_
 _symmetry_equiv_pos_site_id
 _symmetry_equiv_pos_as_xyz
  1  'x, y, z'
loop_
 _atom_site_type_symbol
 _atom_site_label
 _atom_site_symmetry_multiplicity
 _atom_site_fract_x
 _atom_site_fract_y
 _atom_site_fract_z
 _atom_site_occupancy
  Pr  Pr0  1  0.57946868  0.57946868  0.00000000  1
  Pr  Pr1  1  0.32946868  0.82946868  0.50000000  1
  Si  Si0  1  0.99902965  0.99902965  -0.00000000  1
  Si  Si1  1  0.74902965  0.24902965  0.50000000  1
  Ni  Ni0  1  0.16850267  0.16850267  -0.00000000  1
  Ni  Ni1  1  0.91850267  0.41850267  0.50000000  1
loop_
_geom_bond_atom_site_label_1
_geom_bond_atom_site_label_2
_geom_bond_distance
_geom_bond_site_symmetry_2
Pr0 Si1 3.130118 1_554
Pr0 Si1 3.130118 1_565
Pr0 Si0 3.132303 1_556
Pr0 Si0 3.132303 1_545
Pr0 Si0 3.132303 1_455
Pr0 Si0 3.132303 1_444
Pr1 Si0 3.130118 1_455
Pr1 Si0 3.130118 1_556
Pr1 Si1 3.132303 1_465
Pr1 Si1 3.132303 1_555
Pr1 Si1 3.132303 1_454
Pr1 Si1 3.132303 1_566
Ni0 Si0 2.346599 1_445
Ni0 Si1 2.351307 1_454
Ni0 Si1 2.351307 1_555
Ni0 Pr1 3.041870 1_544
Ni0 Pr1 3.041870 1_555
Ni0 Pr0 3.176569 1_556
Ni0 Pr0 3.176569 1_444
Ni0 Pr0 3.176569 1_455
Ni0 Pr0 3.176569 1_545
Ni1 Si1 2.346599 1_555
Ni1 Si0 2.351307 1_556
Ni1 Si0 2.351307 1_545
Ni1 Pr0 3.041870 1_555
Ni1 Pr0 3.041870 1_656
Ni1 Pr1 3.176569 1_645
Ni1 Pr1 3.176569 1_544
Ni1 Pr1 3.176569 1_555
Ni1 Pr1 3.176569 1_656
