# generated using pymatgen
data_ZnNiO2
_symmetry_space_group_name_H-M   'P 1'
_cell_length_a   3.00458000
_cell_length_b   8.00740015
_cell_length_c   8.02688028
_cell_angle_alpha   99.52145615
_cell_angle_beta   100.52668184
_cell_angle_gamma   100.46119471
_symmetry_Int_Tables_number   1
_chemical_formula_structural   ZnNiO2
_chemical_formula_sum   'Zn4 Ni4 O8'
_cell_volume   182.73043568
_cell_formula_units_Z   4
loop_
 _symmetry_equiv_pos_site_id
 _symmetry_equiv_pos_as_xyz
  1  'x, y, z'
loop_
 _atom_site_type_symbol
 _atom_site_label
 _atom_site_symmetry_multiplicity
 _atom_site_fract_x
 _atom_site_fract_y
 _atom_site_fract_z
 _atom_site_occupancy
  Zn  Zn0  1  0.54143500  0.24316400  0.86653500  1
  Zn  Zn1  1  0.45856500  0.75683600  0.13346500  1
  Zn  Zn2  1  0.15401000  0.10538700  0.20426800  1
  Zn  Zn3  1  0.84599000  0.89461300  0.79573200  1
  Ni  Ni0  1  0.13506800  0.56495200  0.76079000  1
  Ni  Ni1  1  0.33889700  0.18061000  0.52908600  1
  Ni  Ni2  1  0.66110300  0.81939000  0.47091400  1
  Ni  Ni3  1  0.86493200  0.43504800  0.23921000  1
  O  O0  1  0.44254100  0.59265100  0.28989100  1
  O  O1  1  0.19133100  0.76049000  0.63925900  1
  O  O2  1  0.80866900  0.23951000  0.36074100  1
  O  O3  1  0.55745900  0.40734900  0.71010900  1
  O  O4  1  0.86697100  0.74209500  0.95866900  1
  O  O5  1  0.86468400  0.08668500  0.67644600  1
  O  O6  1  0.13302900  0.25790500  0.04133100  1
  O  O7  1  0.13531600  0.91331500  0.32355400  1
loop_
_geom_bond_atom_site_label_1
_geom_bond_atom_site_label_2
_geom_bond_distance
_geom_bond_site_symmetry_2
Ni0 O3 1.883305 1_455
Ni0 O1 1.975156 1_555
Ni0 O3 1.992272 1_555
Ni0 O4 2.306681 1_455
Ni0 O4 2.493269 1_555
Ni1 O3 2.045619 1_555
Ni1 O2 2.069669 1_455
Ni1 O5 2.122130 1_555
Ni1 O5 2.125045 1_455
Ni1 O2 2.169483 1_555
Ni1 O7 2.380047 1_545
Ni2 O0 2.045619 1_555
Ni2 O1 2.069669 1_655
Ni2 O7 2.122130 1_555
Ni2 O7 2.125045 1_655
Ni2 O1 2.169483 1_555
Ni2 O5 2.380047 1_565
Ni3 O0 1.883305 1_655
Ni3 O2 1.975156 1_555
Ni3 O0 1.992272 1_555
Ni3 O6 2.306681 1_655
Ni3 O6 2.493269 1_555
O0 Zn1 1.962786 1_555
O1 Zn3 2.059647 1_455
O1 Zn3 2.117511 1_555
O2 Zn2 2.059647 1_655
O2 Zn2 2.117511 1_555
O3 Zn0 1.962786 1_555
O4 Zn3 1.931912 1_555
O4 Zn1 2.024789 1_656
O4 Zn1 2.028587 1_556
O5 Zn3 1.939294 1_545
O5 Zn0 2.278659 1_555
O5 Zn0 2.311129 1_655
O6 Zn2 1.931912 1_555
O6 Zn0 2.024789 1_454
O6 Zn0 2.028587 1_554
O7 Zn2 1.939294 1_565
O7 Zn1 2.278659 1_555
O7 Zn1 2.311129 1_455
