# generated using pymatgen
data_Ba(Ni5P3)2
_symmetry_space_group_name_H-M   'P 1'
_cell_length_a   8.72396893
_cell_length_b   8.72396893
_cell_length_c   8.77426400
_cell_angle_alpha   90.00000000
_cell_angle_beta   90.00000000
_cell_angle_gamma   136.74824925
_symmetry_Int_Tables_number   1
_chemical_formula_structural   Ba(Ni5P3)2
_chemical_formula_sum   'Ba2 Ni20 P12'
_cell_volume   457.57216488
_cell_formula_units_Z   2
loop_
 _symmetry_equiv_pos_site_id
 _symmetry_equiv_pos_as_xyz
  1  'x, y, z'
loop_
 _atom_site_type_symbol
 _atom_site_label
 _atom_site_symmetry_multiplicity
 _atom_site_fract_x
 _atom_site_fract_y
 _atom_site_fract_z
 _atom_site_occupancy
  Ba  Ba0  1  0.00000000  0.00000000  0.50000000  1
  Ba  Ba1  1  0.50000000  0.50000000  0.00000000  1
  Ni  Ni0  1  0.20913400  0.79086600  0.29356600  1
  Ni  Ni1  1  0.29086600  0.70913400  0.79356600  1
  Ni  Ni2  1  0.91175500  0.58824500  0.75000000  1
  Ni  Ni3  1  0.70913400  0.29086600  0.20643400  1
  Ni  Ni4  1  0.08824500  0.41175500  0.25000000  1
  Ni  Ni5  1  0.41175500  0.08824500  0.75000000  1
  Ni  Ni6  1  0.95467900  0.04532100  0.88148200  1
  Ni  Ni7  1  0.04532100  0.95467900  0.11851800  1
  Ni  Ni8  1  0.54532100  0.45467900  0.38148200  1
  Ni  Ni9  1  0.45467900  0.54532100  0.61851800  1
  Ni  Ni10  1  0.47619300  0.12641300  0.47108900  1
  Ni  Ni11  1  0.12641300  0.47619300  0.52891100  1
  Ni  Ni12  1  0.02380700  0.37358700  0.97108900  1
  Ni  Ni13  1  0.37358700  0.02380700  0.02891100  1
  Ni  Ni14  1  0.52380700  0.87358700  0.52891100  1
  Ni  Ni15  1  0.87358700  0.52380700  0.47108900  1
  Ni  Ni16  1  0.97619300  0.62641300  0.02891100  1
  Ni  Ni17  1  0.62641300  0.97619300  0.97108900  1
  Ni  Ni18  1  0.58824500  0.91175500  0.25000000  1
  Ni  Ni19  1  0.79086600  0.20913400  0.70643400  1
  P  P0  1  0.14048100  0.35951900  0.75000000  1
  P  P1  1  0.35951900  0.14048100  0.25000000  1
  P  P2  1  0.41008400  0.58991600  0.37271300  1
  P  P3  1  0.58991600  0.41008400  0.62728700  1
  P  P4  1  0.08991600  0.91008400  0.87271300  1
  P  P5  1  0.91008400  0.08991600  0.12728700  1
  P  P6  1  0.29138300  0.70861700  0.07471400  1
  P  P7  1  0.70861700  0.29138300  0.92528600  1
  P  P8  1  0.20861700  0.79138300  0.57471400  1
  P  P9  1  0.79138300  0.20861700  0.42528600  1
  P  P10  1  0.85951900  0.64048100  0.25000000  1
  P  P11  1  0.64048100  0.85951900  0.75000000  1
loop_
_geom_bond_atom_site_label_1
_geom_bond_atom_site_label_2
_geom_bond_distance
_geom_bond_site_symmetry_2
Ba0 P11 3.248317 1_445
Ba0 P10 3.248317 1_445
Ba0 P0 3.248317 1_555
Ba0 P1 3.248317 1_555
Ba0 Ni7 3.426992 1_545
Ba0 Ni6 3.426992 1_455
Ba0 Ni10 3.444549 1_555
Ba0 Ni14 3.444549 1_445
Ba0 Ni11 3.444549 1_555
Ba0 Ni15 3.444549 1_445
Ba0 P8 3.446641 1_545
Ba0 P9 3.446641 1_455
Ba0 Ni9 3.458192 1_555
Ba0 Ni9 3.458192 1_445
Ba0 Ni8 3.458192 1_445
Ba0 Ni8 3.458192 1_555
Ba0 P4 3.580744 1_545
Ba0 P5 3.580744 1_455
Ba1 P10 3.248317 1_555
Ba1 P11 3.248317 1_554
Ba1 P1 3.248317 1_555
Ba1 P0 3.248317 1_554
Ba1 Ni8 3.426992 1_555
Ba1 Ni9 3.426992 1_554
Ba1 Ni17 3.444549 1_554
Ba1 Ni16 3.444549 1_555
Ba1 Ni13 3.444549 1_555
Ba1 Ni12 3.444549 1_554
Ba1 P6 3.446641 1_555
Ba1 P7 3.446641 1_554
Ba1 Ni6 3.458192 1_564
Ba1 Ni7 3.458192 1_655
Ba1 Ni7 3.458192 1_545
Ba1 Ni6 3.458192 1_454
Ba1 P2 3.580744 1_555
Ba1 P3 3.580744 1_554
Ni0 P1 2.311070 1_565
Ni0 P10 2.311070 1_455
Ni0 P6 2.338191 1_555
Ni0 P8 2.466881 1_555
Ni1 P0 2.311070 1_555
Ni1 P11 2.311070 1_555
Ni1 P8 2.338191 1_555
Ni1 P6 2.466881 1_556
Ni2 P4 2.258621 1_655
Ni2 P3 2.258621 1_555
Ni2 P7 2.351070 1_555
Ni2 P8 2.351070 1_655
Ni3 P1 2.311070 1_555
Ni3 P10 2.311070 1_555
Ni3 P9 2.338191 1_555
Ni3 P7 2.466881 1_554
Ni4 P2 2.258621 1_555
Ni4 P5 2.258621 1_455
Ni4 P6 2.351070 1_555
Ni4 P9 2.351070 1_455
Ni5 P4 2.258621 1_545
Ni5 P3 2.258621 1_555
Ni5 P7 2.351070 1_555
Ni5 P8 2.351070 1_545
Ni6 P4 2.194863 1_645
Ni6 P11 2.235959 1_545
Ni6 P0 2.235959 1_655
Ni6 P5 2.274818 1_556
Ni7 P5 2.194863 1_465
Ni7 P10 2.235959 1_455
Ni7 P1 2.235959 1_565
Ni7 P4 2.274818 1_554
Ni8 P2 2.194863 1_555
Ni8 P10 2.235959 1_555
Ni8 P1 2.235959 1_555
Ni8 P3 2.274818 1_555
Ni9 P3 2.194863 1_555
Ni9 P11 2.235959 1_555
Ni9 P0 2.235959 1_555
Ni9 P2 2.274818 1_555
Ni10 P8 2.209026 1_545
Ni10 P1 2.235232 1_555
Ni10 P9 2.316070 1_555
Ni10 P3 2.326031 1_555
Ni11 P9 2.209026 1_455
Ni11 P0 2.235232 1_555
Ni11 P8 2.316070 1_555
Ni11 P2 2.326031 1_555
Ni12 P6 2.209026 1_556
Ni12 P0 2.235232 1_555
Ni12 P7 2.316070 1_455
Ni12 P5 2.326031 1_456
Ni13 P7 2.209026 1_554
Ni13 P1 2.235232 1_555
Ni13 P6 2.316070 1_545
Ni13 P4 2.326031 1_544
Ni14 P9 2.209026 1_565
Ni14 P11 2.235232 1_555
Ni14 P8 2.316070 1_555
Ni14 P2 2.326031 1_555
Ni15 P8 2.209026 1_655
Ni15 P10 2.235232 1_555
Ni15 P9 2.316070 1_555
Ni15 P3 2.326031 1_555
Ni16 P7 2.209026 1_554
Ni16 P10 2.235232 1_555
Ni16 P6 2.316070 1_655
Ni16 P4 2.326031 1_654
Ni17 P6 2.209026 1_556
Ni17 P11 2.235232 1_555
Ni17 P7 2.316070 1_565
Ni17 P5 2.326031 1_566
Ni18 P2 2.258621 1_555
Ni18 P5 2.258621 1_565
Ni18 P6 2.351070 1_555
Ni18 P9 2.351070 1_565
Ni19 P0 2.311070 1_655
Ni19 P11 2.311070 1_545
Ni19 P7 2.338191 1_555
Ni19 P9 2.466881 1_555
