# generated using pymatgen
data_Ca(ScS2)2
_symmetry_space_group_name_H-M   'P 1'
_cell_length_a   3.74214548
_cell_length_b   11.54536886
_cell_length_c   13.51062576
_cell_angle_alpha   90.00000000
_cell_angle_beta   90.00000000
_cell_angle_gamma   90.00000000
_symmetry_Int_Tables_number   1
_chemical_formula_structural   Ca(ScS2)2
_chemical_formula_sum   'Ca4 Sc8 S16'
_cell_volume   583.71915369
_cell_formula_units_Z   4
loop_
 _symmetry_equiv_pos_site_id
 _symmetry_equiv_pos_as_xyz
  1  'x, y, z'
loop_
 _atom_site_type_symbol
 _atom_site_label
 _atom_site_symmetry_multiplicity
 _atom_site_fract_x
 _atom_site_fract_y
 _atom_site_fract_z
 _atom_site_occupancy
  Ca  Ca0  1  0.75000000  0.26025326  0.83292593  1
  Ca  Ca1  1  0.25000000  0.73974674  0.16707407  1
  Ca  Ca2  1  0.75000000  0.76025326  0.66707407  1
  Ca  Ca3  1  0.25000000  0.23974674  0.33292593  1
  Sc  Sc0  1  0.25000000  0.58534692  0.90325685  1
  Sc  Sc1  1  0.75000000  0.41465308  0.09674315  1
  Sc  Sc2  1  0.25000000  0.08534692  0.59674315  1
  Sc  Sc3  1  0.75000000  0.91465308  0.40325685  1
  Sc  Sc4  1  0.75000000  0.94227360  0.88806913  1
  Sc  Sc5  1  0.25000000  0.05772640  0.11193087  1
  Sc  Sc6  1  0.75000000  0.44227360  0.61193087  1
  Sc  Sc7  1  0.25000000  0.55772640  0.38806913  1
  S  S0  1  0.25000000  0.59139803  0.57498782  1
  S  S1  1  0.75000000  0.40860197  0.42501218  1
  S  S2  1  0.25000000  0.09139803  0.92501218  1
  S  S3  1  0.75000000  0.90860197  0.07498782  1
  S  S4  1  0.25000000  0.46743372  0.21488600  1
  S  S5  1  0.75000000  0.53256628  0.78511400  1
  S  S6  1  0.25000000  0.96743372  0.28511400  1
  S  S7  1  0.75000000  0.03256628  0.71488600  1
  S  S8  1  0.25000000  0.87435470  0.53272014  1
  S  S9  1  0.75000000  0.12564530  0.46727986  1
  S  S10  1  0.25000000  0.37435470  0.96727986  1
  S  S11  1  0.75000000  0.62564530  0.03272014  1
  S  S12  1  0.75000000  0.70226031  0.33080205  1
  S  S13  1  0.25000000  0.29773969  0.66919795  1
  S  S14  1  0.75000000  0.20226031  0.16919795  1
  S  S15  1  0.25000000  0.79773969  0.83080205  1
loop_
_geom_bond_atom_site_label_1
_geom_bond_atom_site_label_2
_geom_bond_distance
_geom_bond_site_symmetry_2
Ca0 S10 2.920835 1_555
Ca0 S10 2.920835 1_655
Ca0 S13 2.929414 1_555
Ca0 S13 2.929414 1_655
Ca0 S2 2.974784 1_555
Ca0 S2 2.974784 1_655
Ca0 S7 3.074669 1_555
Ca0 S5 3.209630 1_555
Ca1 S11 2.920835 1_555
Ca1 S11 2.920835 1_455
Ca1 S12 2.929414 1_455
Ca1 S12 2.929414 1_555
Ca1 S3 2.974784 1_455
Ca1 S3 2.974784 1_555
Ca1 S6 3.074669 1_555
Ca1 S4 3.209630 1_555
Ca2 S8 2.920835 1_555
Ca2 S8 2.920835 1_655
Ca2 S15 2.929414 1_655
Ca2 S15 2.929414 1_555
Ca2 S0 2.974784 1_655
Ca2 S0 2.974784 1_555
Ca2 S5 3.074669 1_555
Ca2 S7 3.209630 1_565
Ca3 S9 2.920835 1_455
Ca3 S9 2.920835 1_555
Ca3 S14 2.929414 1_455
Ca3 S14 2.929414 1_555
Ca3 S1 2.974784 1_555
Ca3 S1 2.974784 1_455
Ca3 S4 3.074669 1_555
Ca3 S6 3.209630 1_545
S0 Sc7 2.555135 1_555
S0 Sc6 2.591192 1_555
S0 Sc6 2.591192 1_455
S1 Sc6 2.555135 1_555
S1 Sc7 2.591192 1_555
S1 Sc7 2.591192 1_655
S2 Sc5 2.555135 1_556
S2 Sc4 2.591192 1_445
S2 Sc4 2.591192 1_545
S3 Sc4 2.555135 1_554
S3 Sc5 2.591192 1_565
S3 Sc5 2.591192 1_665
S4 Sc1 2.533782 1_555
S4 Sc1 2.533782 1_455
S4 Sc7 2.561533 1_555
S5 Sc0 2.533782 1_655
S5 Sc0 2.533782 1_555
S5 Sc6 2.561533 1_555
S6 Sc3 2.533782 1_455
S6 Sc3 2.533782 1_555
S6 Sc5 2.561533 1_565
S7 Sc2 2.533782 1_655
S7 Sc2 2.533782 1_555
S7 Sc4 2.561533 1_545
S8 Sc2 2.585000 1_565
S8 Sc3 2.603236 1_455
S8 Sc3 2.603236 1_555
S9 Sc3 2.585000 1_545
S9 Sc2 2.603236 1_555
S9 Sc2 2.603236 1_655
S10 Sc0 2.585000 1_555
S10 Sc1 2.603236 1_456
S10 Sc1 2.603236 1_556
S11 Sc1 2.585000 1_555
S11 Sc0 2.603236 1_654
S11 Sc0 2.603236 1_554
S12 Sc7 2.623756 1_555
S12 Sc7 2.623756 1_655
S12 Sc3 2.640325 1_555
S13 Sc6 2.623756 1_555
S13 Sc6 2.623756 1_455
S13 Sc2 2.640325 1_555
S14 Sc5 2.623756 1_655
S14 Sc5 2.623756 1_555
S14 Sc1 2.640325 1_555
S15 Sc4 2.623756 1_455
S15 Sc4 2.623756 1_555
S15 Sc0 2.640325 1_555
