# generated using pymatgen
data_MgFe8(O7F)2
_symmetry_space_group_name_H-M   'P 1'
_cell_length_a   4.79151795
_cell_length_b   4.85489509
_cell_length_c   11.86323053
_cell_angle_alpha   90.03178342
_cell_angle_beta   89.85813425
_cell_angle_gamma   90.39055355
_symmetry_Int_Tables_number   1
_chemical_formula_structural   MgFe8(O7F)2
_chemical_formula_sum   'Mg1 Fe8 O14 F2'
_cell_volume   275.95893201
_cell_formula_units_Z   1
loop_
 _symmetry_equiv_pos_site_id
 _symmetry_equiv_pos_as_xyz
  1  'x, y, z'
loop_
 _atom_site_type_symbol
 _atom_site_label
 _atom_site_symmetry_multiplicity
 _atom_site_fract_x
 _atom_site_fract_y
 _atom_site_fract_z
 _atom_site_occupancy
  Mg  Mg0  1  0.99964100  0.51692200  0.49853200  1
  Fe  Fe0  1  0.00169700  0.99147100  0.00402300  1
  Fe  Fe1  1  0.99589000  0.99282100  0.24595500  1
  Fe  Fe2  1  0.04986000  0.02344700  0.49713100  1
  Fe  Fe3  1  0.99835800  0.98970900  0.74688700  1
  Fe  Fe4  1  0.50226800  0.49176500  0.11879400  1
  Fe  Fe5  1  0.49949400  0.47681200  0.63898500  1
  Fe  Fe6  1  0.46784400  0.52625000  0.87623100  1
  Fe  Fe7  1  0.49884700  0.47829900  0.35795300  1
  O  O0  1  0.18812900  0.80370900  0.11931000  1
  O  O1  1  0.16692100  0.78200300  0.61492000  1
  O  O2  1  0.17047900  0.81516300  0.87866300  1
  O  O3  1  0.16771000  0.78018800  0.38054400  1
  O  O4  1  0.31064900  0.31418300  0.99694900  1
  O  O5  1  0.31533300  0.29131500  0.23728800  1
  O  O6  1  0.34657000  0.30547800  0.49822700  1
  O  O7  1  0.30360500  0.30003700  0.75931500  1
  O  O8  1  0.68184300  0.68187700  0.99684100  1
  O  O9  1  0.68386400  0.68800300  0.24108600  1
  O  O10  1  0.67341900  0.70292800  0.75421800  1
  O  O11  1  0.80928300  0.17931100  0.11825300  1
  O  O12  1  0.85002000  0.22958500  0.38193900  1
  O  O13  1  0.84768900  0.22980200  0.61446700  1
  F  F0  1  0.66757800  0.73020300  0.49775400  1
  F  F1  1  0.80300600  0.19261600  0.87573700  1
loop_
_geom_bond_atom_site_label_1
_geom_bond_atom_site_label_2
_geom_bond_distance
_geom_bond_site_symmetry_2
Mg0 O6 1.959673 1_655
Mg0 O1 2.048058 1_655
Mg0 O3 2.055168 1_655
Mg0 O13 2.085215 1_555
Mg0 O12 2.088602 1_555
Fe0 O0 1.875632 1_555
Fe0 O11 1.876684 1_465
Fe0 O2 1.897485 1_554
Fe0 O8 2.141105 1_454
Fe0 O4 2.149660 1_564
Fe1 O11 1.983322 1_565
Fe1 O0 1.987915 1_655
Fe1 O3 2.076705 1_655
Fe1 O9 2.097320 1_555
Fe1 O12 2.101319 1_565
Fe1 O5 2.102989 1_665
Fe2 O3 1.905253 1_545
Fe2 O1 1.912040 1_545
Fe2 O12 1.951141 1_455
Fe2 O6 1.967156 1_555
Fe2 O13 1.970960 1_455
Fe3 O2 1.964564 1_655
Fe3 O1 2.030576 1_655
Fe3 O10 2.083278 1_555
Fe3 O13 2.089691 1_565
Fe3 O7 2.097994 1_665
Fe4 O8 1.915679 1_554
Fe4 O4 1.915745 1_554
Fe4 O5 1.925820 1_555
Fe4 O9 1.939832 1_555
Fe4 O11 2.120266 1_555
Fe4 O0 2.142491 1_555
Fe5 O7 1.907626 1_555
Fe5 O10 1.939043 1_555
Fe5 O6 2.003347 1_555
Fe5 O13 2.081030 1_555
Fe5 O1 2.202521 1_555
Fe6 O4 1.914148 1_555
Fe6 O8 1.914426 1_555
Fe6 O7 1.934201 1_555
Fe6 O10 1.945241 1_555
Fe6 O2 2.006334 1_555
Fe7 O5 1.907957 1_555
Fe7 O9 1.930738 1_555
Fe7 O6 1.998191 1_555
Fe7 O12 2.097796 1_555
Fe7 O3 2.183241 1_555
F0 Mg0 1.904299 1_555
F0 Fe7 2.211513 1_555
F0 Fe5 2.225139 1_555
F0 Fe2 2.312238 1_665
F1 Fe3 2.046198 1_545
F1 Fe0 2.048811 1_646
F1 Fe6 2.288686 1_555
