# generated using pymatgen
data_La5Pb3Cl
_symmetry_space_group_name_H-M   'P 1'
_cell_length_a   9.71740578
_cell_length_b   9.71750994
_cell_length_c   7.02642910
_cell_angle_alpha   89.99885568
_cell_angle_beta   89.99903939
_cell_angle_gamma   120.00118067
_symmetry_Int_Tables_number   1
_chemical_formula_structural   La5Pb3Cl
_chemical_formula_sum   'La10 Pb6 Cl2'
_cell_volume   574.59979217
_cell_formula_units_Z   2
loop_
 _symmetry_equiv_pos_site_id
 _symmetry_equiv_pos_as_xyz
  1  'x, y, z'
loop_
 _atom_site_type_symbol
 _atom_site_label
 _atom_site_symmetry_multiplicity
 _atom_site_fract_x
 _atom_site_fract_y
 _atom_site_fract_z
 _atom_site_occupancy
  La  La0  1  0.26226425  -0.00002520  0.25001696  1
  La  La1  1  0.73753783  0.00002331  0.74995446  1
  La  La2  1  -0.00013241  0.26216930  0.25008705  1
  La  La3  1  -0.00002355  0.73770524  0.74998103  1
  La  La4  1  0.73791257  0.73785287  0.24994702  1
  La  La5  1  0.26227849  0.26222624  0.74997714  1
  La  La6  1  0.33334318  0.66668315  0.00000638  1
  La  La7  1  0.66668465  0.33335258  0.00009181  1
  La  La8  1  0.66668771  0.33336118  0.49999735  1
  La  La9  1  0.33334924  0.66667348  0.49993575  1
  Pb  Pb0  1  0.61309944  0.00004371  0.25002689  1
  Pb  Pb1  1  0.38696659  0.00002248  0.74998052  1
  Pb  Pb2  1  0.00001115  0.61302761  0.25001501  1
  Pb  Pb3  1  0.99999373  0.38689702  0.74995436  1
  Pb  Pb4  1  0.38694209  0.38694516  0.25003684  1
  Pb  Pb5  1  0.61306766  0.61305210  0.74999302  1
  Cl  Cl0  1  0.00000901  -0.00000260  -0.00000182  1
  Cl  Cl1  1  0.00000837  -0.00000561  0.49999924  1
loop_
_geom_bond_atom_site_label_1
_geom_bond_atom_site_label_2
_geom_bond_distance
_geom_bond_site_symmetry_2
La0 Pb2 3.324222 1_545
La0 Pb4 3.324503 1_555
La0 Pb0 3.408873 1_555
La0 Pb1 3.716030 1_555
La0 Pb1 3.716475 1_554
La1 Pb3 3.324085 1_555
La1 Pb5 3.324917 1_545
La1 Pb1 3.406639 1_555
La1 Pb0 3.715063 1_555
La1 Pb0 3.715987 1_556
La2 Pb0 3.322648 1_455
La2 Pb4 3.325231 1_555
La2 Pb2 3.408772 1_555
La2 Pb3 3.715355 1_455
La2 Pb3 3.717072 1_454
La3 Pb5 3.323943 1_455
La3 Pb1 3.324635 1_565
La3 Pb3 3.409066 1_455
La3 Pb2 3.716106 1_555
La3 Pb2 3.716512 1_556
La4 Pb2 3.323799 1_655
La4 Pb0 3.324577 1_565
La4 Pb4 3.410175 1_555
La4 Pb5 3.716442 1_554
La4 Pb5 3.716969 1_555
La5 Pb1 3.323788 1_555
La5 Pb3 3.324392 1_455
La5 Pb5 3.408896 1_555
La5 Pb4 3.715850 1_555
La5 Pb4 3.716727 1_556
La6 Pb2 3.487190 1_555
La6 Pb1 3.487437 1_564
La6 Pb5 3.487512 1_554
La6 Pb4 3.487533 1_555
La6 Pb0 3.487698 1_565
La6 Pb3 3.487832 1_454
La7 Pb2 3.486916 1_655
La7 Pb0 3.486980 1_555
La7 Pb4 3.487219 1_555
La7 Pb5 3.487550 1_554
La7 Pb1 3.487743 1_554
La7 Pb3 3.487796 1_554
La8 Pb2 3.486973 1_655
La8 Pb5 3.487176 1_555
La8 Pb3 3.487223 1_555
La8 Pb1 3.487232 1_555
La8 Pb0 3.487241 1_555
La8 Pb4 3.487289 1_555
La9 Pb4 3.487001 1_555
La9 Pb2 3.487024 1_555
La9 Pb0 3.487224 1_565
La9 Pb5 3.487602 1_555
La9 Pb3 3.487607 1_455
La9 Pb1 3.487677 1_565
Cl0 La4 3.093831 1_445
Cl0 La5 3.095149 1_554
Cl0 La0 3.095382 1_555
Cl0 La3 3.095478 1_544
Cl0 La2 3.095498 1_555
Cl0 La1 3.097223 1_454
Cl1 La4 3.094335 1_445
Cl1 La2 3.094757 1_555
Cl1 La5 3.095098 1_555
Cl1 La0 3.095181 1_555
Cl1 La3 3.095257 1_545
Cl1 La1 3.096829 1_455
