# generated using pymatgen
data_Lu11Cd45
_symmetry_space_group_name_H-M   'P 1'
_cell_length_a   15.34888547
_cell_length_b   15.34888547
_cell_length_c   15.34888547
_cell_angle_alpha   60.00000000
_cell_angle_beta   60.00000000
_cell_angle_gamma   60.00000000
_symmetry_Int_Tables_number   1
_chemical_formula_structural   Lu11Cd45
_chemical_formula_sum   'Lu22 Cd90'
_cell_volume   2556.91057128
_cell_formula_units_Z   2
loop_
 _symmetry_equiv_pos_site_id
 _symmetry_equiv_pos_as_xyz
  1  'x, y, z'
loop_
 _atom_site_type_symbol
 _atom_site_label
 _atom_site_symmetry_multiplicity
 _atom_site_fract_x
 _atom_site_fract_y
 _atom_site_fract_z
 _atom_site_occupancy
  Lu  Lu0  1  0.00000000  0.00000000  0.00000000  1
  Lu  Lu1  1  0.01379400  0.33435600  0.63805600  1
  Lu  Lu2  1  0.01379400  0.01379400  0.63805600  1
  Lu  Lu3  1  0.33435600  0.01379400  0.63805600  1
  Lu  Lu4  1  0.01379400  0.63805600  0.33435600  1
  Lu  Lu5  1  0.33435600  0.63805600  0.01379400  1
  Lu  Lu6  1  0.01379400  0.63805600  0.01379400  1
  Lu  Lu7  1  0.63805600  0.01379400  0.01379400  1
  Lu  Lu8  1  0.63805600  0.33435600  0.01379400  1
  Lu  Lu9  1  0.63805600  0.01379400  0.33435600  1
  Lu  Lu10  1  0.33435600  0.01379400  0.01379400  1
  Lu  Lu11  1  0.01379400  0.01379400  0.33435600  1
  Lu  Lu12  1  0.01379400  0.33435600  0.01379400  1
  Lu  Lu13  1  0.25000000  0.25000000  0.25000000  1
  Lu  Lu14  1  0.40635500  0.40635500  0.78093600  1
  Lu  Lu15  1  0.40635500  0.78093600  0.40635500  1
  Lu  Lu16  1  0.78093600  0.40635500  0.40635500  1
  Lu  Lu17  1  0.40635500  0.40635500  0.40635500  1
  Lu  Lu18  1  0.66164100  0.66164100  0.01507700  1
  Lu  Lu19  1  0.66164100  0.01507700  0.66164100  1
  Lu  Lu20  1  0.01507700  0.66164100  0.66164100  1
  Lu  Lu21  1  0.66164100  0.66164100  0.66164100  1
  Cd  Cd0  1  0.08324000  0.08324000  0.75027900  1
  Cd  Cd1  1  0.08324000  0.75027900  0.08324000  1
  Cd  Cd2  1  0.75027900  0.08324000  0.08324000  1
  Cd  Cd3  1  0.08324000  0.08324000  0.08324000  1
  Cd  Cd4  1  0.91321800  0.91321800  0.26034600  1
  Cd  Cd5  1  0.91321800  0.26034600  0.91321800  1
  Cd  Cd6  1  0.26034600  0.91321800  0.91321800  1
  Cd  Cd7  1  0.91321800  0.91321800  0.91321800  1
  Cd  Cd8  1  0.15609500  0.15609500  0.84390500  1
  Cd  Cd9  1  0.84390500  0.15609500  0.84390500  1
  Cd  Cd10  1  0.15609500  0.84390500  0.84390500  1
  Cd  Cd11  1  0.84390500  0.84390500  0.15609500  1
  Cd  Cd12  1  0.15609500  0.84390500  0.15609500  1
  Cd  Cd13  1  0.84390500  0.15609500  0.15609500  1
  Cd  Cd14  1  0.39063100  0.20130900  0.01743000  1
  Cd  Cd15  1  0.39063100  0.39063100  0.01743000  1
  Cd  Cd16  1  0.20130900  0.39063100  0.01743000  1
  Cd  Cd17  1  0.39063100  0.01743000  0.20130900  1
  Cd  Cd18  1  0.20130900  0.01743000  0.39063100  1
  Cd  Cd19  1  0.39063100  0.01743000  0.39063100  1
  Cd  Cd20  1  0.01743000  0.39063100  0.39063100  1
  Cd  Cd21  1  0.01743000  0.20130900  0.39063100  1
  Cd  Cd22  1  0.01743000  0.39063100  0.20130900  1
  Cd  Cd23  1  0.20130900  0.39063100  0.39063100  1
  Cd  Cd24  1  0.39063100  0.39063100  0.20130900  1
  Cd  Cd25  1  0.39063100  0.20130900  0.39063100  1
  Cd  Cd26  1  0.16345400  0.16345400  0.50963800  1
  Cd  Cd27  1  0.16345400  0.50963800  0.16345400  1
  Cd  Cd28  1  0.50963800  0.16345400  0.16345400  1
  Cd  Cd29  1  0.16345400  0.16345400  0.16345400  1
  Cd  Cd30  1  0.26318000  0.61159000  0.86205000  1
  Cd  Cd31  1  0.26318000  0.26318000  0.86205000  1
  Cd  Cd32  1  0.61159000  0.26318000  0.86205000  1
  Cd  Cd33  1  0.26318000  0.86205000  0.61159000  1
  Cd  Cd34  1  0.61159000  0.86205000  0.26318000  1
  Cd  Cd35  1  0.26318000  0.86205000  0.26318000  1
  Cd  Cd36  1  0.86205000  0.26318000  0.26318000  1
  Cd  Cd37  1  0.86205000  0.61159000  0.26318000  1
  Cd  Cd38  1  0.86205000  0.26318000  0.61159000  1
  Cd  Cd39  1  0.61159000  0.26318000  0.26318000  1
  Cd  Cd40  1  0.26318000  0.26318000  0.61159000  1
  Cd  Cd41  1  0.26318000  0.61159000  0.26318000  1
  Cd  Cd42  1  0.50000000  0.50000000  0.50000000  1
  Cd  Cd43  1  0.64037000  0.45030100  0.26896000  1
  Cd  Cd44  1  0.64037000  0.64037000  0.26896000  1
  Cd  Cd45  1  0.45030100  0.64037000  0.26896000  1
  Cd  Cd46  1  0.64037000  0.26896000  0.45030100  1
  Cd  Cd47  1  0.45030100  0.26896000  0.64037000  1
  Cd  Cd48  1  0.64037000  0.26896000  0.64037000  1
  Cd  Cd49  1  0.26896000  0.64037000  0.64037000  1
  Cd  Cd50  1  0.26896000  0.45030100  0.64037000  1
  Cd  Cd51  1  0.26896000  0.64037000  0.45030100  1
  Cd  Cd52  1  0.45030100  0.64037000  0.64037000  1
  Cd  Cd53  1  0.64037000  0.64037000  0.45030100  1
  Cd  Cd54  1  0.64037000  0.45030100  0.64037000  1
  Cd  Cd55  1  0.51260100  0.83366200  0.14113500  1
  Cd  Cd56  1  0.51260100  0.51260100  0.14113500  1
  Cd  Cd57  1  0.83366200  0.51260100  0.14113500  1
  Cd  Cd58  1  0.51260100  0.14113500  0.83366200  1
  Cd  Cd59  1  0.83366200  0.14113500  0.51260100  1
  Cd  Cd60  1  0.51260100  0.14113500  0.51260100  1
  Cd  Cd61  1  0.14113500  0.51260100  0.51260100  1
  Cd  Cd62  1  0.14113500  0.83366200  0.51260100  1
  Cd  Cd63  1  0.14113500  0.51260100  0.83366200  1
  Cd  Cd64  1  0.83366200  0.51260100  0.51260100  1
  Cd  Cd65  1  0.51260100  0.51260100  0.83366200  1
  Cd  Cd66  1  0.51260100  0.83366200  0.51260100  1
  Cd  Cd67  1  0.75000000  0.75000000  0.75000000  1
  Cd  Cd68  1  0.83006400  0.83006400  0.50980800  1
  Cd  Cd69  1  0.83006400  0.50980800  0.83006400  1
  Cd  Cd70  1  0.50980800  0.83006400  0.83006400  1
  Cd  Cd71  1  0.83006400  0.83006400  0.83006400  1
  Cd  Cd72  1  0.91056700  0.91056700  0.58943300  1
  Cd  Cd73  1  0.58943300  0.91056700  0.58943300  1
  Cd  Cd74  1  0.91056700  0.58943300  0.58943300  1
  Cd  Cd75  1  0.58943300  0.58943300  0.91056700  1
  Cd  Cd76  1  0.91056700  0.58943300  0.91056700  1
  Cd  Cd77  1  0.58943300  0.91056700  0.91056700  1
  Cd  Cd78  1  0.76408600  0.06683900  0.40498800  1
  Cd  Cd79  1  0.76408600  0.76408600  0.40498800  1
  Cd  Cd80  1  0.06683900  0.76408600  0.40498800  1
  Cd  Cd81  1  0.76408600  0.40498800  0.06683900  1
  Cd  Cd82  1  0.06683900  0.40498800  0.76408600  1
  Cd  Cd83  1  0.76408600  0.40498800  0.76408600  1
  Cd  Cd84  1  0.40498800  0.76408600  0.76408600  1
  Cd  Cd85  1  0.40498800  0.06683900  0.76408600  1
  Cd  Cd86  1  0.40498800  0.76408600  0.06683900  1
  Cd  Cd87  1  0.06683900  0.76408600  0.76408600  1
  Cd  Cd88  1  0.76408600  0.76408600  0.06683900  1
  Cd  Cd89  1  0.76408600  0.06683900  0.76408600  1
loop_
_geom_bond_atom_site_label_1
_geom_bond_atom_site_label_2
_geom_bond_distance
_geom_bond_site_symmetry_2
Cd0 Cd9 3.005064 1_455
Cd0 Cd10 3.005064 1_545
Cd0 Cd8 3.005076 1_555
Cd0 Cd26 3.015788 1_555
Cd0 Lu0 3.129582 1_556
Cd0 Lu2 3.169800 1_555
Cd0 Lu3 3.169812 1_555
Cd0 Lu1 3.169812 1_555
Cd1 Cd10 3.005064 1_554
Cd1 Cd11 3.005064 1_455
Cd1 Cd12 3.005076 1_555
Cd1 Cd27 3.015788 1_555
Cd1 Lu0 3.129582 1_565
Cd1 Lu6 3.169800 1_555
Cd1 Lu4 3.169812 1_555
Cd1 Lu5 3.169812 1_555
Cd2 Cd9 3.005064 1_554
Cd2 Cd28 3.015788 1_555
Cd2 Lu0 3.129582 1_655
Cd2 Lu7 3.169800 1_555
Cd2 Lu9 3.169812 1_555
Cd2 Lu8 3.169812 1_555
Cd3 Cd8 3.005063 1_554
Cd3 Lu0 3.129569 1_555
Cd3 Lu10 3.169814 1_555
Cd3 Lu11 3.169814 1_555
Cd3 Lu12 3.169814 1_555
Cd4 Cd68 3.126336 1_555
Cd4 Cd80 3.237871 1_655
Cd4 Cd78 3.237871 1_565
Cd4 Cd79 3.237882 1_555
Cd4 Lu0 3.262737 1_665
Cd4 Lu11 3.456443 1_665
Cd4 Lu9 3.456443 1_565
Cd4 Lu4 3.456443 1_655
Cd5 Cd8 3.059516 1_655
Cd5 Cd9 3.059516 1_555
Cd5 Cd69 3.126336 1_555
Cd5 Cd82 3.237871 1_655
Cd5 Cd81 3.237871 1_556
Cd5 Cd83 3.237882 1_555
Cd5 Lu0 3.262737 1_656
Cd5 Lu12 3.456443 1_656
Cd5 Lu1 3.456443 1_655
Cd5 Lu8 3.456443 1_556
Cd6 Cd8 3.059516 1_565
Cd6 Cd70 3.126336 1_555
Cd6 Cd85 3.237871 1_565
Cd6 Cd86 3.237871 1_556
Cd6 Cd84 3.237882 1_555
Cd6 Lu0 3.262737 1_566
Cd6 Lu10 3.456443 1_566
Cd6 Lu3 3.456443 1_565
Cd6 Lu5 3.456443 1_556
Cd7 Cd9 3.059516 1_565
Cd7 Cd71 3.126336 1_555
Cd7 Cd89 3.237882 1_565
Cd7 Cd88 3.237882 1_556
Cd7 Cd87 3.237882 1_655
Cd7 Lu0 3.262737 1_666
Cd7 Lu7 3.456443 1_566
Cd7 Lu2 3.456443 1_665
Cd7 Lu6 3.456443 1_656
Cd8 Cd85 3.120326 1_555
Cd8 Cd82 3.120326 1_555
Cd8 Lu0 3.388292 1_556
Cd9 Lu0 3.388292 1_656
Cd10 Cd30 3.016239 1_555
Cd10 Cd33 3.016239 1_555
Cd10 Cd7 3.059516 1_455
Cd10 Cd6 3.059516 1_555
Cd10 Cd84 3.120325 1_555
Cd10 Cd87 3.120338 1_555
Cd10 Lu0 3.388292 1_566
Cd11 Cd2 3.005064 1_565
Cd11 Cd34 3.016239 1_555
Cd11 Cd37 3.016239 1_555
Cd11 Cd7 3.059516 1_554
Cd11 Cd4 3.059516 1_555
Cd11 Cd79 3.120325 1_555
Cd11 Cd88 3.120338 1_555
Cd11 Lu0 3.388292 1_665
Cd12 Cd3 3.005063 1_565
Cd12 Cd41 3.016239 1_555
Cd12 Cd35 3.016239 1_555
Cd12 Cd6 3.059516 1_554
Cd12 Cd4 3.059516 1_455
Cd12 Cd86 3.120326 1_555
Cd12 Cd80 3.120326 1_555
Cd12 Lu0 3.388292 1_565
Cd13 Cd3 3.005063 1_655
Cd13 Cd2 3.005076 1_555
Cd13 Cd39 3.016239 1_555
Cd13 Cd36 3.016239 1_555
Cd13 Cd5 3.059516 1_554
Cd13 Cd4 3.059516 1_545
Cd13 Cd81 3.120326 1_555
Cd13 Cd78 3.120326 1_555
Cd13 Lu0 3.388292 1_655
Cd14 Cd58 2.812355 1_554
Cd14 Cd17 2.822338 1_555
Cd14 Cd16 2.905882 1_555
Cd14 Cd15 2.905882 1_555
Cd14 Cd28 3.229247 1_555
Cd14 Cd29 3.229259 1_555
Cd14 Cd32 3.310476 1_554
Cd14 Cd31 3.310489 1_554
Cd14 Lu13 3.363009 1_555
Cd14 Lu14 3.405720 1_554
Cd14 Lu7 3.424573 1_555
Cd14 Lu10 3.424584 1_555
Cd15 Cd65 2.812339 1_554
Cd15 Cd24 2.822338 1_555
Cd15 Cd16 2.905882 1_555
Cd15 Cd27 3.229254 1_555
Cd15 Cd28 3.229254 1_555
Cd15 Cd32 3.310483 1_554
Cd15 Cd30 3.310483 1_554
Cd15 Lu13 3.363015 1_555
Cd15 Lu14 3.405720 1_554
Cd15 Lu8 3.424569 1_555
Cd15 Lu5 3.424569 1_555
Cd16 Cd63 2.812355 1_554
Cd16 Cd22 2.822338 1_555
Cd16 Cd27 3.229247 1_555
Cd16 Cd29 3.229259 1_555
Cd16 Cd30 3.310476 1_554
Cd16 Cd31 3.310489 1_554
Cd16 Lu13 3.363009 1_555
Cd16 Lu14 3.405720 1_554
Cd16 Lu6 3.424573 1_555
Cd16 Lu12 3.424584 1_555
Cd17 Cd55 2.812355 1_545
Cd17 Cd19 2.905882 1_555
Cd17 Cd18 2.905882 1_555
Cd17 Cd28 3.229247 1_555
Cd17 Cd29 3.229259 1_555
Cd17 Cd34 3.310476 1_545
Cd17 Cd35 3.310489 1_545
Cd17 Lu13 3.363009 1_555
Cd17 Lu15 3.405720 1_545
Cd17 Lu7 3.424573 1_555
Cd17 Lu10 3.424584 1_555
Cd18 Cd62 2.812355 1_545
Cd18 Cd21 2.822338 1_555
Cd18 Cd19 2.905882 1_555
Cd18 Cd26 3.229247 1_555
Cd18 Cd29 3.229259 1_555
Cd18 Cd33 3.310476 1_545
Cd18 Cd35 3.310489 1_545
Cd18 Lu13 3.363009 1_555
Cd18 Lu15 3.405720 1_545
Cd18 Lu2 3.424573 1_555
Cd18 Lu11 3.424584 1_555
Cd19 Cd66 2.812339 1_545
Cd19 Cd25 2.822338 1_555
Cd19 Cd26 3.229254 1_555
Cd19 Cd28 3.229254 1_555
Cd19 Cd33 3.310483 1_545
Cd19 Cd34 3.310483 1_545
Cd19 Lu13 3.363015 1_555
Cd19 Lu15 3.405720 1_545
Cd19 Lu9 3.424569 1_555
Cd19 Lu3 3.424569 1_555
Cd20 Cd64 2.812339 1_455
Cd20 Cd23 2.822338 1_555
Cd20 Cd21 2.905882 1_555
Cd20 Cd22 2.905882 1_555
Cd20 Cd27 3.229254 1_555
Cd20 Cd26 3.229254 1_555
Cd20 Cd37 3.310483 1_455
Cd20 Cd38 3.310483 1_455
Cd20 Lu13 3.363015 1_555
Cd20 Lu16 3.405720 1_455
Cd20 Lu4 3.424569 1_555
Cd20 Lu1 3.424569 1_555
Cd21 Cd59 2.812355 1_455
Cd21 Cd22 2.905882 1_555
Cd21 Cd26 3.229247 1_555
Cd21 Cd29 3.229259 1_555
Cd21 Cd38 3.310476 1_455
Cd21 Cd36 3.310489 1_455
Cd21 Lu13 3.363009 1_555
Cd21 Lu16 3.405720 1_455
Cd21 Lu2 3.424573 1_555
Cd21 Lu11 3.424584 1_555
Cd22 Cd57 2.812355 1_455
Cd22 Cd27 3.229247 1_555
Cd22 Cd29 3.229259 1_555
Cd22 Cd37 3.310476 1_455
Cd22 Cd36 3.310489 1_455
Cd22 Lu13 3.363009 1_555
Cd22 Lu16 3.405720 1_455
Cd22 Lu6 3.424573 1_555
Cd22 Lu12 3.424584 1_555
Cd23 Cd61 2.812329 1_555
Cd23 Cd25 2.905882 1_555
Cd23 Cd24 2.905882 1_555
Cd23 Cd26 3.229260 1_555
Cd23 Cd27 3.229260 1_555
Cd23 Cd40 3.310475 1_555
Cd23 Cd41 3.310475 1_555
Cd23 Lu13 3.363022 1_555
Cd23 Lu17 3.405720 1_555
Cd23 Lu4 3.424575 1_555
Cd23 Lu1 3.424575 1_555
Cd24 Cd56 2.812329 1_555
Cd24 Cd25 2.905882 1_555
Cd24 Cd27 3.229260 1_555
Cd24 Cd28 3.229260 1_555
Cd24 Cd39 3.310475 1_555
Cd24 Cd41 3.310475 1_555
Cd24 Lu13 3.363022 1_555
Cd24 Lu17 3.405720 1_555
Cd24 Lu8 3.424575 1_555
Cd24 Lu5 3.424575 1_555
Cd25 Cd60 2.812329 1_555
Cd25 Cd26 3.229260 1_555
Cd25 Cd28 3.229260 1_555
Cd25 Cd39 3.310475 1_555
Cd25 Cd40 3.310475 1_555
Cd25 Lu13 3.363022 1_555
Cd25 Lu17 3.405720 1_555
Cd25 Lu9 3.424575 1_555
Cd25 Lu3 3.424575 1_555
Cd26 Lu13 3.253865 1_555
Cd26 Lu3 3.264930 1_555
Cd26 Lu1 3.264930 1_555
Cd26 Lu2 3.264930 1_555
Cd27 Lu13 3.253865 1_555
Cd27 Lu5 3.264930 1_555
Cd27 Lu4 3.264930 1_555
Cd27 Lu6 3.264930 1_555
Cd28 Lu13 3.253865 1_555
Cd28 Lu8 3.264930 1_555
Cd28 Lu9 3.264930 1_555
Cd28 Lu7 3.264930 1_555
Cd29 Cd3 3.015801 1_555
Cd29 Lu13 3.253865 1_555
Cd29 Lu11 3.264930 1_555
Cd29 Lu12 3.264930 1_555
Cd29 Lu10 3.264930 1_555
Cd30 Cd49 3.164582 1_555
Cd30 Cd52 3.164588 1_555
Cd30 Cd65 3.214305 1_555
Cd30 Cd63 3.214319 1_555
Cd30 Lu14 3.250537 1_555
Cd30 Lu5 3.273779 1_556
Cd30 Lu6 3.273779 1_556
Cd30 Cd84 3.283207 1_555
Cd30 Cd87 3.283219 1_555
Cd31 Cd8 3.016239 1_555
Cd31 Cd47 3.164588 1_555
Cd31 Cd50 3.164588 1_555
Cd31 Cd58 3.214306 1_555
Cd31 Cd63 3.214306 1_555
Cd31 Lu14 3.250549 1_555
Cd31 Lu12 3.273779 1_556
Cd31 Lu10 3.273779 1_556
Cd31 Cd85 3.283219 1_555
Cd31 Cd82 3.283219 1_555
Cd32 Cd9 3.016239 1_555
Cd32 Cd48 3.164582 1_555
Cd32 Cd54 3.164588 1_555
Cd32 Cd65 3.214305 1_555
Cd32 Cd58 3.214319 1_555
Cd32 Lu14 3.250537 1_555
Cd32 Lu8 3.273779 1_556
Cd32 Lu7 3.273779 1_556
Cd32 Cd83 3.283207 1_555
Cd32 Cd89 3.283219 1_555
Cd33 Cd49 3.164582 1_555
Cd33 Cd52 3.164588 1_555
Cd33 Cd66 3.214305 1_555
Cd33 Cd62 3.214319 1_555
Cd33 Lu15 3.250537 1_555
Cd33 Lu3 3.273779 1_565
Cd33 Lu2 3.273779 1_565
Cd33 Cd84 3.283207 1_555
Cd33 Cd87 3.283219 1_555
Cd34 Cd44 3.164582 1_555
Cd34 Cd53 3.164588 1_555
Cd34 Cd66 3.214305 1_555
Cd34 Cd55 3.214319 1_555
Cd34 Lu15 3.250537 1_555
Cd34 Lu9 3.273779 1_565
Cd34 Lu7 3.273779 1_565
Cd34 Cd79 3.283207 1_555
Cd34 Cd88 3.283219 1_555
Cd35 Cd51 3.164588 1_555
Cd35 Cd45 3.164588 1_555
Cd35 Cd62 3.214306 1_555
Cd35 Cd55 3.214306 1_555
Cd35 Lu15 3.250549 1_555
Cd35 Lu10 3.273779 1_565
Cd35 Lu11 3.273779 1_565
Cd35 Cd80 3.283219 1_555
Cd35 Cd86 3.283219 1_555
Cd36 Cd46 3.164588 1_555
Cd36 Cd43 3.164588 1_555
Cd36 Cd57 3.214306 1_555
Cd36 Cd59 3.214306 1_555
Cd36 Lu16 3.250549 1_555
Cd36 Lu12 3.273779 1_655
Cd36 Lu11 3.273779 1_655
Cd36 Cd78 3.283219 1_555
Cd36 Cd81 3.283219 1_555
Cd37 Cd44 3.164582 1_555
Cd37 Cd53 3.164588 1_555
Cd37 Cd64 3.214305 1_555
Cd37 Cd57 3.214319 1_555
Cd37 Lu16 3.250537 1_555
Cd37 Lu4 3.273779 1_655
Cd37 Lu6 3.273779 1_655
Cd37 Cd79 3.283207 1_555
Cd37 Cd88 3.283219 1_555
Cd38 Cd9 3.016239 1_555
Cd38 Cd48 3.164582 1_555
Cd38 Cd54 3.164588 1_555
Cd38 Cd64 3.214305 1_555
Cd38 Cd59 3.214319 1_555
Cd38 Lu16 3.250537 1_555
Cd38 Lu1 3.273779 1_655
Cd38 Lu2 3.273779 1_655
Cd38 Cd83 3.283207 1_555
Cd38 Cd89 3.283219 1_555
Cd39 Cd43 3.164597 1_555
Cd39 Cd46 3.164597 1_555
Cd39 Cd56 3.214308 1_555
Cd39 Cd60 3.214308 1_555
Cd39 Lu17 3.250545 1_555
Cd39 Lu9 3.273779 1_555
Cd39 Lu8 3.273779 1_555
Cd39 Cd78 3.283210 1_555
Cd39 Cd81 3.283210 1_555
Cd40 Cd8 3.016239 1_555
Cd40 Cd50 3.164597 1_555
Cd40 Cd47 3.164597 1_555
Cd40 Cd61 3.214308 1_555
Cd40 Cd60 3.214308 1_555
Cd40 Lu17 3.250545 1_555
Cd40 Lu3 3.273779 1_555
Cd40 Lu1 3.273779 1_555
Cd40 Cd85 3.283210 1_555
Cd40 Cd82 3.283210 1_555
Cd41 Cd51 3.164597 1_555
Cd41 Cd45 3.164597 1_555
Cd41 Cd61 3.214308 1_555
Cd41 Cd56 3.214308 1_555
Cd41 Lu17 3.250545 1_555
Cd41 Lu4 3.273779 1_555
Cd41 Lu5 3.273779 1_555
Cd41 Cd80 3.283210 1_555
Cd41 Cd86 3.283210 1_555
Cd42 Cd45 3.349728 1_555
Cd42 Cd51 3.349728 1_555
Cd42 Cd46 3.349728 1_555
Cd42 Cd43 3.349728 1_555
Cd42 Cd50 3.349728 1_555
Cd42 Cd47 3.349728 1_555
Cd42 Cd48 3.349735 1_555
Cd42 Cd49 3.349735 1_555
Cd42 Cd44 3.349735 1_555
Cd42 Cd52 3.349741 1_555
Cd42 Cd53 3.349741 1_555
Cd42 Cd54 3.349741 1_555
Cd42 Lu17 3.520765 1_555
Cd42 Lu16 3.520778 1_555
Cd42 Lu14 3.520778 1_555
Cd42 Lu15 3.520778 1_555
Cd43 Cd46 2.783382 1_555
Cd43 Cd44 2.917347 1_555
Cd43 Cd45 2.917347 1_555
Cd43 Cd81 2.942785 1_555
Cd43 Cd57 2.950556 1_555
Cd43 Cd56 2.950581 1_555
Cd43 Lu16 3.351025 1_555
Cd43 Lu17 3.351025 1_555
Cd43 Lu18 3.600060 1_555
Cd44 Cd53 2.783382 1_555
Cd44 Cd45 2.917347 1_555
Cd44 Cd88 2.942772 1_555
Cd44 Cd55 2.950571 1_555
Cd44 Cd57 2.950571 1_555
Cd44 Lu15 3.351025 1_555
Cd44 Lu16 3.351025 1_555
Cd44 Lu18 3.600066 1_555
Cd45 Cd51 2.783382 1_555
Cd45 Cd86 2.942785 1_555
Cd45 Cd55 2.950556 1_555
Cd45 Cd56 2.950581 1_555
Cd45 Lu15 3.351025 1_555
Cd45 Lu17 3.351025 1_555
Cd45 Lu18 3.600060 1_555
Cd46 Cd47 2.917347 1_555
Cd46 Cd48 2.917347 1_555
Cd46 Cd78 2.942785 1_555
Cd46 Cd59 2.950556 1_555
Cd46 Cd60 2.950581 1_555
Cd46 Lu16 3.351025 1_555
Cd46 Lu17 3.351025 1_555
Cd46 Lu19 3.600060 1_555
Cd47 Cd50 2.783382 1_555
Cd47 Cd48 2.917347 1_555
Cd47 Cd85 2.942785 1_555
Cd47 Cd58 2.950556 1_555
Cd47 Cd60 2.950581 1_555
Cd47 Lu14 3.351025 1_555
Cd47 Lu17 3.351025 1_555
Cd47 Lu19 3.600060 1_555
Cd48 Cd54 2.783382 1_555
Cd48 Cd89 2.942772 1_555
Cd48 Cd58 2.950571 1_555
Cd48 Cd59 2.950571 1_555
Cd48 Lu16 3.351025 1_555
Cd48 Lu14 3.351025 1_555
Cd48 Lu19 3.600066 1_555
Cd49 Cd52 2.783382 1_555
Cd49 Cd50 2.917347 1_555
Cd49 Cd51 2.917347 1_555
Cd49 Cd87 2.942772 1_555
Cd49 Cd62 2.950571 1_555
Cd49 Cd63 2.950571 1_555
Cd49 Lu15 3.351025 1_555
Cd49 Lu14 3.351025 1_555
Cd49 Lu20 3.600066 1_555
Cd50 Cd51 2.917347 1_555
Cd50 Cd82 2.942785 1_555
Cd50 Cd63 2.950556 1_555
Cd50 Cd61 2.950581 1_555
Cd50 Lu14 3.351025 1_555
Cd50 Lu17 3.351025 1_555
Cd50 Lu20 3.600060 1_555
Cd51 Cd80 2.942785 1_555
Cd51 Cd62 2.950556 1_555
Cd51 Cd61 2.950581 1_555
Cd51 Lu15 3.351025 1_555
Cd51 Lu17 3.351025 1_555
Cd51 Lu20 3.600060 1_555
Cd52 Cd53 2.917347 1_555
Cd52 Cd54 2.917347 1_555
Cd52 Cd84 2.942759 1_555
Cd52 Cd66 2.950556 1_555
Cd52 Cd65 2.950556 1_555
Cd52 Lu14 3.351025 1_555
Cd52 Lu15 3.351025 1_555
Cd52 Lu21 3.600051 1_555
Cd53 Cd54 2.917347 1_555
Cd53 Cd79 2.942759 1_555
Cd53 Cd66 2.950556 1_555
Cd53 Cd64 2.950556 1_555
Cd53 Lu16 3.351025 1_555
Cd53 Lu15 3.351025 1_555
Cd53 Lu21 3.600051 1_555
Cd54 Cd83 2.942759 1_555
Cd54 Cd64 2.950556 1_555
Cd54 Cd65 2.950556 1_555
Cd54 Lu16 3.351025 1_555
Cd54 Lu14 3.351025 1_555
Cd54 Lu21 3.600051 1_555
Cd55 Cd77 2.889550 1_554
Cd55 Cd88 3.167714 1_555
Cd55 Cd86 3.167714 1_555
Cd55 Lu18 3.254315 1_555
Cd55 Lu15 3.357488 1_555
Cd55 Lu10 3.365805 1_565
Cd55 Lu7 3.365816 1_565
Cd56 Cd75 2.889550 1_554
Cd56 Cd81 3.167714 1_555
Cd56 Cd86 3.167714 1_555
Cd56 Lu18 3.254326 1_555
Cd56 Lu17 3.357484 1_555
Cd56 Lu8 3.365803 1_555
Cd56 Lu5 3.365803 1_555
Cd57 Cd76 2.889550 1_554
Cd57 Cd88 3.167714 1_555
Cd57 Cd81 3.167714 1_555
Cd57 Lu18 3.254315 1_555
Cd57 Lu16 3.357488 1_555
Cd57 Lu12 3.365805 1_655
Cd57 Lu6 3.365816 1_655
Cd58 Cd77 2.889550 1_545
Cd58 Cd89 3.167714 1_555
Cd58 Cd85 3.167714 1_555
Cd58 Lu19 3.254315 1_555
Cd58 Lu14 3.357488 1_555
Cd58 Lu10 3.365805 1_556
Cd58 Lu7 3.365816 1_556
Cd59 Cd72 2.889550 1_545
Cd59 Cd89 3.167714 1_555
Cd59 Cd78 3.167714 1_555
Cd59 Lu19 3.254315 1_555
Cd59 Lu16 3.357488 1_555
Cd59 Lu11 3.365805 1_655
Cd59 Lu2 3.365816 1_655
Cd60 Cd73 2.889550 1_545
Cd60 Cd78 3.167714 1_555
Cd60 Cd85 3.167714 1_555
Cd60 Lu19 3.254326 1_555
Cd60 Lu17 3.357484 1_555
Cd60 Lu9 3.365803 1_555
Cd60 Lu3 3.365803 1_555
Cd61 Cd74 2.889550 1_455
Cd61 Cd82 3.167714 1_555
Cd61 Cd80 3.167714 1_555
Cd61 Lu20 3.254326 1_555
Cd61 Lu17 3.357484 1_555
Cd61 Lu4 3.365803 1_555
Cd61 Lu1 3.365803 1_555
Cd62 Cd72 2.889550 1_455
Cd62 Cd87 3.167714 1_555
Cd62 Cd80 3.167714 1_555
Cd62 Lu20 3.254315 1_555
Cd62 Lu15 3.357488 1_555
Cd62 Lu11 3.365805 1_565
Cd62 Lu2 3.365816 1_565
Cd63 Cd76 2.889550 1_455
Cd63 Cd87 3.167714 1_555
Cd63 Cd82 3.167714 1_555
Cd63 Lu20 3.254315 1_555
Cd63 Lu14 3.357488 1_555
Cd63 Lu12 3.365805 1_556
Cd63 Lu6 3.365816 1_556
Cd64 Cd74 2.889563 1_555
Cd64 Cd79 3.167714 1_555
Cd64 Cd83 3.167714 1_555
Cd64 Lu21 3.254325 1_555
Cd64 Lu16 3.357462 1_555
Cd64 Lu4 3.365814 1_655
Cd64 Lu1 3.365814 1_655
Cd65 Cd75 2.889563 1_555
Cd65 Cd84 3.167714 1_555
Cd65 Cd83 3.167714 1_555
Cd65 Lu21 3.254325 1_555
Cd65 Lu14 3.357462 1_555
Cd65 Lu5 3.365814 1_556
Cd65 Lu8 3.365814 1_556
Cd66 Cd73 2.889563 1_555
Cd66 Cd84 3.167714 1_555
Cd66 Cd79 3.167714 1_555
Cd66 Lu21 3.254325 1_555
Cd66 Lu15 3.357462 1_555
Cd66 Lu9 3.365814 1_565
Cd66 Lu3 3.365814 1_565
Cd67 Cd71 3.010161 1_555
Cd67 Cd69 3.010161 1_555
Cd67 Cd70 3.010161 1_555
Cd67 Cd68 3.010161 1_555
Cd67 Lu18 3.322028 1_556
Cd67 Lu19 3.322028 1_565
Cd67 Lu20 3.322028 1_655
Cd67 Lu21 3.322028 1_555
Cd67 Cd72 3.485364 1_555
Cd67 Cd76 3.485364 1_555
Cd67 Cd77 3.485364 1_555
Cd67 Cd73 3.485364 1_555
Cd67 Cd74 3.485364 1_555
Cd67 Cd75 3.485364 1_555
Cd68 Cd80 2.987236 1_655
Cd68 Cd78 2.987236 1_565
Cd68 Cd79 2.987248 1_555
Cd68 Cd73 3.015673 1_555
Cd68 Cd74 3.015673 1_555
Cd68 Cd72 3.015673 1_555
Cd69 Cd82 2.987236 1_655
Cd69 Cd81 2.987236 1_556
Cd69 Cd83 2.987248 1_555
Cd69 Cd74 3.015673 1_555
Cd69 Cd75 3.015673 1_555
Cd69 Cd76 3.015673 1_555
Cd70 Cd86 2.987236 1_556
Cd70 Cd85 2.987236 1_565
Cd70 Cd84 2.987248 1_555
Cd70 Cd75 3.015673 1_555
Cd70 Cd73 3.015673 1_555
Cd70 Cd77 3.015673 1_555
Cd71 Cd89 2.987234 1_565
Cd71 Cd87 2.987234 1_655
Cd71 Cd88 2.987234 1_556
Cd71 Cd76 3.015673 1_555
Cd71 Cd77 3.015673 1_555
Cd71 Cd72 3.015673 1_555
Cd72 Lu19 3.132724 1_565
Cd72 Lu20 3.132724 1_655
Cd72 Lu2 3.233120 1_665
Cd72 Lu11 3.233120 1_665
Cd73 Lu19 3.132724 1_565
Cd73 Lu21 3.132724 1_555
Cd73 Lu9 3.233120 1_565
Cd73 Lu3 3.233120 1_565
Cd74 Lu20 3.132724 1_655
Cd74 Lu21 3.132724 1_555
Cd74 Lu4 3.233120 1_655
Cd74 Lu1 3.233120 1_655
Cd75 Lu18 3.132724 1_556
Cd75 Lu21 3.132724 1_555
Cd75 Lu8 3.233120 1_556
Cd75 Lu5 3.233120 1_556
Cd76 Lu18 3.132724 1_556
Cd76 Lu20 3.132724 1_655
Cd76 Lu6 3.233120 1_656
Cd76 Lu12 3.233120 1_656
Cd77 Lu19 3.132724 1_565
Cd77 Lu18 3.132724 1_556
Cd77 Lu7 3.233120 1_566
Cd77 Lu10 3.233120 1_566
Cd78 Lu9 3.183549 1_555
Cd78 Lu11 3.183563 1_655
Cd78 Lu19 3.247663 1_555
Cd79 Lu9 3.183560 1_565
Cd79 Lu4 3.183560 1_655
Cd79 Lu21 3.247661 1_555
Cd80 Lu4 3.183549 1_555
Cd80 Lu11 3.183563 1_565
Cd80 Lu20 3.247663 1_555
Cd81 Lu8 3.183549 1_555
Cd81 Lu12 3.183563 1_655
Cd81 Lu18 3.247663 1_555
Cd82 Lu1 3.183549 1_555
Cd82 Lu12 3.183563 1_556
Cd82 Lu20 3.247663 1_555
Cd83 Cd9 3.120325 1_555
Cd83 Lu1 3.183560 1_655
Cd83 Lu8 3.183560 1_556
Cd83 Lu21 3.247661 1_555
Cd84 Lu5 3.183560 1_556
Cd84 Lu3 3.183560 1_565
Cd84 Lu21 3.247661 1_555
Cd85 Lu3 3.183549 1_555
Cd85 Lu10 3.183563 1_556
Cd85 Lu19 3.247663 1_555
Cd86 Lu5 3.183549 1_555
Cd86 Lu10 3.183563 1_565
Cd86 Lu18 3.247663 1_555
Cd87 Lu6 3.183561 1_556
Cd87 Lu2 3.183561 1_565
Cd87 Lu20 3.247650 1_555
Cd88 Lu7 3.183561 1_565
Cd88 Lu6 3.183561 1_655
Cd88 Lu18 3.247650 1_555
Cd89 Cd9 3.120338 1_555
Cd89 Lu2 3.183561 1_655
Cd89 Lu7 3.183561 1_556
Cd89 Lu19 3.247650 1_555
