# generated using pymatgen
data_La2CeS4
_symmetry_space_group_name_H-M   'P 1'
_cell_length_a   7.54339203
_cell_length_b   7.54339203
_cell_length_c   7.54339203
_cell_angle_alpha   109.37292660
_cell_angle_beta   109.37292660
_cell_angle_gamma   109.66798807
_symmetry_Int_Tables_number   1
_chemical_formula_structural   La2CeS4
_chemical_formula_sum   'La4 Ce2 S8'
_cell_volume   330.42606795
_cell_formula_units_Z   2
loop_
 _symmetry_equiv_pos_site_id
 _symmetry_equiv_pos_as_xyz
  1  'x, y, z'
loop_
 _atom_site_type_symbol
 _atom_site_label
 _atom_site_symmetry_multiplicity
 _atom_site_fract_x
 _atom_site_fract_y
 _atom_site_fract_z
 _atom_site_occupancy
  La  La0  1  0.99984700  0.87500000  0.62484700  1
  La  La1  1  0.25015300  0.37500000  0.37515300  1
  La  La2  1  0.12500000  0.74984700  0.12484700  1
  La  La3  1  0.62500000  0.00015300  0.87515300  1
  Ce  Ce0  1  0.50000000  0.50000000  0.00000000  1
  Ce  Ce1  1  0.75000000  0.25000000  0.50000000  1
  S  S0  1  0.02634800  0.27680700  0.89861800  1
  S  S1  1  0.37819000  0.12773100  0.10138200  1
  S  S2  1  0.22365200  0.62226900  0.75045900  1
  S  S3  1  0.87181100  0.47319300  0.24954100  1
  S  S4  1  0.37773100  0.12818900  0.60138200  1
  S  S5  1  0.52680700  0.77634800  0.39861800  1
  S  S6  1  0.72319300  0.62181000  0.74954100  1
  S  S7  1  0.87226900  0.97365200  0.25045900  1
loop_
_geom_bond_atom_site_label_1
_geom_bond_atom_site_label_2
_geom_bond_distance
_geom_bond_site_symmetry_2
La0 S3 2.942321 1_555
La0 S0 2.942321 1_665
La0 S6 2.949383 1_555
La0 S4 2.949385 1_665
La0 S5 3.086916 1_555
La0 S7 3.086917 1_555
La0 S1 3.112272 1_666
La0 S2 3.112277 1_655
La1 S2 2.942319 1_555
La1 S1 2.942323 1_555
La1 S5 2.949379 1_555
La1 S7 2.949383 1_445
La1 S6 3.086917 1_555
La1 S4 3.086919 1_555
La1 S3 3.112270 1_455
La1 S0 3.112270 1_554
La2 S6 2.942319 1_454
La2 S5 2.942321 1_555
La2 S3 2.949379 1_455
La2 S1 2.949387 1_565
La2 S0 3.086916 1_554
La2 S2 3.086917 1_554
La2 S4 3.112270 1_565
La2 S7 3.112277 1_455
La3 S4 2.942317 1_555
La3 S7 2.942319 1_546
La3 S0 2.949379 1_655
La3 S2 2.949383 1_545
La3 S1 3.086912 1_556
La3 S3 3.086916 1_556
La3 S5 3.112270 1_545
La3 S6 3.112277 1_545
Ce0 S2 2.929565 1_554
Ce0 S5 2.929571 1_555
Ce0 S3 2.929571 1_555
Ce0 S4 2.929574 1_554
Ce0 S1 3.077184 1_555
Ce0 S6 3.077189 1_554
Ce0 S7 3.077189 1_555
Ce0 S0 3.077191 1_554
Ce1 S7 2.929565 1_545
Ce1 S6 2.929565 1_555
Ce1 S1 2.929570 1_555
Ce1 S0 2.929571 1_655
Ce1 S4 3.077184 1_555
Ce1 S2 3.077189 1_655
Ce1 S5 3.077191 1_545
Ce1 S3 3.077191 1_555
