# generated using pymatgen
data_Ca5(TiS2)8
_symmetry_space_group_name_H-M   'P 1'
_cell_length_a   7.10429736
_cell_length_b   7.10429736
_cell_length_c   13.32348522
_cell_angle_alpha   88.87339362
_cell_angle_beta   88.87339362
_cell_angle_gamma   60.43107102
_symmetry_Int_Tables_number   1
_chemical_formula_structural   Ca5(TiS2)8
_chemical_formula_sum   'Ca5 Ti8 S16'
_cell_volume   584.72063537
_cell_formula_units_Z   1
loop_
 _symmetry_equiv_pos_site_id
 _symmetry_equiv_pos_as_xyz
  1  'x, y, z'
loop_
 _atom_site_type_symbol
 _atom_site_label
 _atom_site_symmetry_multiplicity
 _atom_site_fract_x
 _atom_site_fract_y
 _atom_site_fract_z
 _atom_site_occupancy
  Ca  Ca0  1  0.00000000  0.00000000  0.00000000  1
  Ca  Ca1  1  0.00000000  0.00000000  0.50000000  1
  Ca  Ca2  1  0.50000000  0.50000000  0.50000000  1
  Ca  Ca3  1  0.00000000  0.50000000  0.00000000  1
  Ca  Ca4  1  0.50000000  0.00000000  0.00000000  1
  Ti  Ti0  1  0.01627800  0.01627800  0.75078200  1
  Ti  Ti1  1  0.98372200  0.98372200  0.24921800  1
  Ti  Ti2  1  0.50701000  0.50701000  0.75431300  1
  Ti  Ti3  1  0.49299000  0.49299000  0.24568700  1
  Ti  Ti4  1  0.00324900  0.47542700  0.74481600  1
  Ti  Ti5  1  0.99675100  0.52457300  0.25518400  1
  Ti  Ti6  1  0.47542700  0.00324900  0.74481600  1
  Ti  Ti7  1  0.52457300  0.99675100  0.25518400  1
  S  S0  1  0.16717500  0.16717500  0.14350700  1
  S  S1  1  0.17019600  0.17019600  0.63321400  1
  S  S2  1  0.67087800  0.67087800  0.14491000  1
  S  S3  1  0.66828800  0.66828800  0.64529800  1
  S  S4  1  0.16680700  0.66712500  0.13735100  1
  S  S5  1  0.17224300  0.67187300  0.64898800  1
  S  S6  1  0.66712500  0.16680700  0.13735100  1
  S  S7  1  0.67187300  0.17224300  0.64898800  1
  S  S8  1  0.33287500  0.83319300  0.86264900  1
  S  S9  1  0.32812700  0.82775700  0.35101200  1
  S  S10  1  0.83319300  0.33287500  0.86264900  1
  S  S11  1  0.82775700  0.32812700  0.35101200  1
  S  S12  1  0.32912200  0.32912200  0.85509000  1
  S  S13  1  0.33171200  0.33171200  0.35470200  1
  S  S14  1  0.83282500  0.83282500  0.85649300  1
  S  S15  1  0.82980400  0.82980400  0.36678600  1
loop_
_geom_bond_atom_site_label_1
_geom_bond_atom_site_label_2
_geom_bond_distance
_geom_bond_site_symmetry_2
Ca0 S8 2.737690 1_544
Ca0 S10 2.737690 1_454
Ca0 S4 2.737690 1_545
Ca0 S6 2.737690 1_455
Ca0 S0 2.836826 1_555
Ca0 S14 2.836826 1_444
Ca1 S1 2.772328 1_555
Ca1 S15 2.772328 1_445
Ca1 S9 2.823141 1_545
Ca1 S11 2.823141 1_455
Ca1 S5 2.823141 1_545
Ca1 S7 2.823141 1_455
Ca2 S11 2.821465 1_555
Ca2 S9 2.821465 1_555
Ca2 S7 2.821465 1_555
Ca2 S5 2.821465 1_555
Ca2 S3 2.863411 1_555
Ca2 S13 2.863411 1_555
Ca3 S4 2.778896 1_555
Ca3 S10 2.778896 1_454
Ca3 S12 2.789565 1_554
Ca3 S2 2.789565 1_455
Ca3 S14 2.792332 1_454
Ca3 S0 2.792332 1_555
Ca4 S6 2.778896 1_555
Ca4 S8 2.778896 1_544
Ca4 S12 2.789565 1_554
Ca4 S2 2.789565 1_545
Ca4 S14 2.792332 1_544
Ca4 S0 2.792332 1_555
S0 Ti1 2.629251 1_445
S0 Ti7 2.677756 1_545
S0 Ti5 2.677756 1_455
S1 Ti6 2.416400 1_555
S1 Ti4 2.416400 1_555
S1 Ti0 2.427019 1_555
S2 Ti7 2.509482 1_555
S2 Ti5 2.509482 1_555
S2 Ti3 2.537691 1_555
S3 Ti2 2.428983 1_555
S3 Ti6 2.476470 1_565
S3 Ti4 2.476470 1_655
S4 Ti5 2.453641 1_455
S4 Ti1 2.477992 1_455
S4 Ti3 2.493143 1_555
S5 Ti2 2.512911 1_555
S5 Ti0 2.539584 1_565
S5 Ti4 2.557845 1_555
S6 Ti7 2.453641 1_545
S6 Ti1 2.477992 1_545
S6 Ti3 2.493143 1_555
S7 Ti2 2.512911 1_555
S7 Ti0 2.539584 1_655
S7 Ti6 2.557845 1_555
S8 Ti6 2.453641 1_565
S8 Ti0 2.477992 1_565
S8 Ti2 2.493143 1_555
S9 Ti3 2.512911 1_555
S9 Ti1 2.539584 1_455
S9 Ti7 2.557845 1_555
S10 Ti4 2.453641 1_655
S10 Ti0 2.477992 1_655
S10 Ti2 2.493143 1_555
S11 Ti3 2.512911 1_555
S11 Ti1 2.539584 1_545
S11 Ti5 2.557845 1_555
S12 Ti6 2.509482 1_555
S12 Ti4 2.509482 1_555
S12 Ti2 2.537691 1_555
S13 Ti3 2.428983 1_555
S13 Ti5 2.476470 1_455
S13 Ti7 2.476470 1_545
S14 Ti0 2.629251 1_665
S14 Ti6 2.677756 1_565
S14 Ti4 2.677756 1_655
S15 Ti5 2.416400 1_555
S15 Ti7 2.416400 1_555
S15 Ti1 2.427019 1_555
