# generated using pymatgen
data_Li2Ni3SbO8
_symmetry_space_group_name_H-M   'P 1'
_cell_length_a   5.96833874
_cell_length_b   5.97289395
_cell_length_c   10.00413698
_cell_angle_alpha   104.30273561
_cell_angle_beta   89.84518207
_cell_angle_gamma   59.91455439
_symmetry_Int_Tables_number   1
_chemical_formula_structural   Li2Ni3SbO8
_chemical_formula_sum   'Li4 Ni6 Sb2 O16'
_cell_volume   295.59432531
_cell_formula_units_Z   2
loop_
 _symmetry_equiv_pos_site_id
 _symmetry_equiv_pos_as_xyz
  1  'x, y, z'
loop_
 _atom_site_type_symbol
 _atom_site_label
 _atom_site_symmetry_multiplicity
 _atom_site_fract_x
 _atom_site_fract_y
 _atom_site_fract_z
 _atom_site_occupancy
  Li  Li0  1  0.30851700  0.38336600  0.56724700  1
  Li  Li1  1  0.80877100  0.38338200  0.06724300  1
  Li  Li2  1  0.19186900  0.61653700  0.93277000  1
  Li  Li3  1  0.69158100  0.61660900  0.43277500  1
  Ni  Ni0  1  0.74982000  0.99995900  0.75004300  1
  Ni  Ni1  1  0.74986900  0.99999500  0.24993200  1
  Ni  Ni2  1  0.99995100  0.00016000  0.49994100  1
  Ni  Ni3  1  0.24963200  0.99996000  0.25019900  1
  Ni  Ni4  1  0.24972200  0.00011600  0.74992300  1
  Ni  Ni5  1  0.50034600  0.00016000  0.00003200  1
  Sb  Sb0  1  0.75015400  0.49992800  0.75005500  1
  Sb  Sb1  1  0.25006400  0.50012400  0.25007500  1
  O  O0  1  0.09359000  0.81130400  0.63752900  1
  O  O1  1  0.59398200  0.81131900  0.13755700  1
  O  O2  1  0.40595500  0.18859400  0.86242500  1
  O  O3  1  0.90545600  0.18859700  0.36242300  1
  O  O4  1  0.87240500  0.25456000  0.86788900  1
  O  O5  1  0.37220000  0.25455300  0.36792200  1
  O  O6  1  0.65226800  0.23856700  0.63330000  1
  O  O7  1  0.15258600  0.23836000  0.13320900  1
  O  O8  1  0.11042100  0.23941400  0.63390800  1
  O  O9  1  0.61058500  0.23960500  0.13399500  1
  O  O10  1  0.38939900  0.76128900  0.86593900  1
  O  O11  1  0.88927000  0.76108400  0.36583700  1
  O  O12  1  0.84839500  0.76070300  0.86679900  1
  O  O13  1  0.34801100  0.76092200  0.36688500  1
  O  O14  1  0.62749000  0.74544600  0.63206200  1
  O  O15  1  0.12769400  0.74538700  0.13208500  1
loop_
_geom_bond_atom_site_label_1
_geom_bond_atom_site_label_2
_geom_bond_distance
_geom_bond_site_symmetry_2
Li0 O5 1.912441 1_555
Li0 O8 1.969792 1_555
Li0 O6 1.975994 1_555
Li0 O0 2.119680 1_555
Li1 O4 1.912718 1_554
Li1 O9 1.969779 1_555
Li1 O7 1.975919 1_655
Li1 O1 2.119686 1_555
Li2 O15 1.912342 1_556
Li2 O10 1.971714 1_555
Li2 O12 1.974276 1_455
Li2 O2 2.119732 1_555
Li3 O14 1.912076 1_555
Li3 O11 1.971607 1_555
Li3 O13 1.974385 1_555
Li3 O3 2.120077 1_555
Ni0 O6 1.930883 1_565
Ni0 O12 1.933433 1_555
Ni0 O2 1.946476 1_565
Ni0 O0 1.946603 1_655
Ni0 O14 2.113762 1_555
Ni0 O4 2.114721 1_565
Ni1 O11 1.924958 1_555
Ni1 O9 1.927982 1_565
Ni1 O3 1.955965 1_565
Ni1 O1 1.957128 1_555
Ni1 O5 2.109192 1_565
Ni1 O15 2.109322 1_655
Ni2 O3 1.900103 1_555
Ni2 O0 1.902272 1_645
Ni2 O6 2.048781 1_555
Ni2 O13 2.048967 1_645
Ni2 O8 2.067889 1_655
Ni2 O11 2.068651 1_545
Ni3 O13 1.931999 1_555
Ni3 O7 1.932120 1_565
Ni3 O3 1.947209 1_465
Ni3 O1 1.949804 1_555
Ni3 O15 2.112887 1_555
Ni3 O5 2.114145 1_565
Ni4 O10 1.925598 1_545
Ni4 O8 1.927345 1_555
Ni4 O2 1.958466 1_555
Ni4 O0 1.958876 1_545
Ni4 O4 2.107587 1_455
Ni4 O14 2.109153 1_545
Ni5 O2 1.900866 1_554
Ni5 O1 1.901667 1_545
Ni5 O7 2.048186 1_555
Ni5 O12 2.049802 1_544
Ni5 O9 2.067739 1_555
Ni5 O10 2.068813 1_544
O4 Sb0 1.963679 1_555
O5 Sb1 1.964641 1_555
O6 Sb0 2.039538 1_555
O7 Sb1 2.040178 1_555
O8 Sb0 2.033090 1_455
O9 Sb1 2.033859 1_555
O10 Sb0 2.034533 1_555
O11 Sb1 2.034000 1_655
O12 Sb0 2.038235 1_555
O13 Sb1 2.037415 1_555
O14 Sb0 1.965562 1_555
O15 Sb1 1.964461 1_555
