# generated using pymatgen
data_B5H4
_symmetry_space_group_name_H-M   'P 1'
_cell_length_a   18.33683706
_cell_length_b   18.33683706
_cell_length_c   18.33683706
_cell_angle_alpha   136.78792800
_cell_angle_beta   136.78792800
_cell_angle_gamma   62.76450998
_symmetry_Int_Tables_number   1
_chemical_formula_structural   B5H4
_chemical_formula_sum   'B80 H64'
_cell_volume   2854.73211972
_cell_formula_units_Z   16
loop_
 _symmetry_equiv_pos_site_id
 _symmetry_equiv_pos_as_xyz
  1  'x, y, z'
loop_
 _atom_site_type_symbol
 _atom_site_label
 _atom_site_symmetry_multiplicity
 _atom_site_fract_x
 _atom_site_fract_y
 _atom_site_fract_z
 _atom_site_occupancy
  B  B0  1  0.98276900  0.78876500  0.88330600  1
  B  B1  1  0.48276900  0.59946300  0.19400300  1
  B  B2  1  0.03876500  0.73276900  0.38330600  1
  B  B3  1  0.53876500  0.15546000  0.30599700  1
  B  B4  1  0.76723100  0.46123500  0.61669400  1
  B  B5  1  0.26723100  0.65053700  0.30599700  1
  B  B6  1  0.71123500  0.51723100  0.11669400  1
  B  B7  1  0.21123500  0.09454000  0.19400300  1
  B  B8  1  0.40546000  0.28876500  0.80599700  1
  B  B9  1  0.90546000  0.09946300  0.11669400  1
  B  B10  1  0.84946300  0.23276900  0.69400300  1
  B  B11  1  0.34946300  0.65546000  0.61669400  1
  B  B12  1  0.34454000  0.96123500  0.69400300  1
  B  B13  1  0.84454000  0.15053700  0.38330600  1
  B  B14  1  0.90053700  0.01723100  0.80599700  1
  B  B15  1  0.40053700  0.59454000  0.88330600  1
  B  B16  1  0.83595500  0.77490800  0.77353600  1
  B  B17  1  0.33595500  0.56241900  0.06104700  1
  B  B18  1  0.02490800  0.58595500  0.27353600  1
  B  B19  1  0.52490800  0.25137200  0.43895300  1
  B  B20  1  0.91404500  0.47509200  0.72646400  1
  B  B21  1  0.41404500  0.68758100  0.43895300  1
  B  B22  1  0.72509200  0.66404500  0.22646400  1
  B  B23  1  0.22509200  0.99862800  0.06104700  1
  B  B24  1  0.50137200  0.27490800  0.93895300  1
  B  B25  1  0.00137200  0.06241900  0.22646400  1
  B  B26  1  0.81241900  0.08595500  0.56104700  1
  B  B27  1  0.31241900  0.75137200  0.72646400  1
  B  B28  1  0.24862800  0.97509200  0.56104700  1
  B  B29  1  0.74862800  0.18758100  0.27353600  1
  B  B30  1  0.93758100  0.16404500  0.93895300  1
  B  B31  1  0.43758100  0.49862800  0.77353600  1
  B  B32  1  0.91767000  0.69142600  0.81043900  1
  B  B33  1  0.41767000  0.60723100  0.22624400  1
  B  B34  1  0.94142600  0.66767000  0.31043900  1
  B  B35  1  0.44142600  0.13098700  0.27375600  1
  B  B36  1  0.83233000  0.55857400  0.68956100  1
  B  B37  1  0.33233000  0.64276900  0.27375600  1
  B  B38  1  0.80857400  0.58233000  0.18956100  1
  B  B39  1  0.30857400  0.11901300  0.22624400  1
  B  B40  1  0.38098700  0.19142600  0.77375600  1
  B  B41  1  0.88098700  0.10723100  0.18956100  1
  B  B42  1  0.85723100  0.16767000  0.72624400  1
  B  B43  1  0.35723100  0.63098700  0.68956100  1
  B  B44  1  0.36901300  0.05857400  0.72624400  1
  B  B45  1  0.86901300  0.14276900  0.31043900  1
  B  B46  1  0.89276900  0.08233000  0.77375600  1
  B  B47  1  0.39276900  0.61901300  0.81043900  1
  B  B48  1  0.04504300  0.69226400  0.90160300  1
  B  B49  1  0.54504300  0.64344000  0.35277800  1
  B  B50  1  0.94226400  0.79504300  0.40160300  1
  B  B51  1  0.44226400  0.04066100  0.14722200  1
  B  B52  1  0.70495700  0.55773600  0.59839700  1
  B  B53  1  0.20495700  0.60656000  0.14722200  1
  B  B54  1  0.80773600  0.45495700  0.09839700  1
  B  B55  1  0.30773600  0.20933900  0.35277800  1
  B  B56  1  0.29066100  0.19226400  0.64722200  1
  B  B57  1  0.79066100  0.14344000  0.09839700  1
  B  B58  1  0.89344000  0.29504300  0.85277800  1
  B  B59  1  0.39344000  0.54066100  0.59839700  1
  B  B60  1  0.45933900  0.05773600  0.85277800  1
  B  B61  1  0.95933900  0.10656000  0.40160300  1
  B  B62  1  0.85656000  0.95495700  0.64722200  1
  B  B63  1  0.35656000  0.70933900  0.90160300  1
  B  B64  1  0.77726600  0.66289100  0.69166300  1
  B  B65  1  0.27726600  0.58560300  0.11437500  1
  B  B66  1  0.91289100  0.52726600  0.19166300  1
  B  B67  1  0.41289100  0.22122800  0.38562500  1
  B  B68  1  0.97273400  0.58710900  0.80833700  1
  B  B69  1  0.47273400  0.66439700  0.38562500  1
  B  B70  1  0.83710900  0.72273400  0.30833700  1
  B  B71  1  0.33710900  0.02877200  0.11437500  1
  B  B72  1  0.47122800  0.16289100  0.88562500  1
  B  B73  1  0.97122800  0.08560300  0.30833700  1
  B  B74  1  0.83560300  0.02726600  0.61437500  1
  B  B75  1  0.33560300  0.72122800  0.80833700  1
  B  B76  1  0.27877200  0.08710900  0.61437500  1
  B  B77  1  0.77877200  0.16439700  0.19166300  1
  B  B78  1  0.91439700  0.22273400  0.88562500  1
  B  B79  1  0.41439700  0.52877200  0.69166300  1
  H  H0  1  0.03150600  0.85886100  0.93487100  1
  H  H1  1  0.53150600  0.59663500  0.17264500  1
  H  H2  1  0.10886100  0.78150600  0.43487100  1
  H  H3  1  0.60886100  0.17399000  0.32735500  1
  H  H4  1  0.71849400  0.39113900  0.56512900  1
  H  H5  1  0.21849400  0.65336500  0.32735500  1
  H  H6  1  0.64113900  0.46849400  0.06512900  1
  H  H7  1  0.14113900  0.07601000  0.17264500  1
  H  H8  1  0.42399000  0.35886100  0.82735500  1
  H  H9  1  0.92399000  0.09663500  0.06512900  1
  H  H10  1  0.84663500  0.28150600  0.67264500  1
  H  H11  1  0.34663500  0.67399000  0.56512900  1
  H  H12  1  0.32601000  0.89113900  0.67264500  1
  H  H13  1  0.82601000  0.15336500  0.43487100  1
  H  H14  1  0.90336500  0.96849400  0.82735500  1
  H  H15  1  0.40336500  0.57601000  0.93487100  1
  H  H16  1  0.80611700  0.75465600  0.67465200  1
  H  H17  1  0.30611700  0.63146500  0.05146100  1
  H  H18  1  0.00465600  0.55611700  0.17465200  1
  H  H19  1  0.50465600  0.33000400  0.44853900  1
  H  H20  1  0.94388300  0.49534400  0.82534800  1
  H  H21  1  0.44388300  0.61853500  0.44853900  1
  H  H22  1  0.74534400  0.69388300  0.32534800  1
  H  H23  1  0.24534400  0.91999600  0.05146100  1
  H  H24  1  0.58000400  0.25465600  0.94853900  1
  H  H25  1  0.08000400  0.13146500  0.32534800  1
  H  H26  1  0.88146500  0.05611700  0.55146100  1
  H  H27  1  0.38146500  0.83000400  0.82534800  1
  H  H28  1  0.16999600  0.99534400  0.55146100  1
  H  H29  1  0.66999600  0.11853500  0.17465200  1
  H  H30  1  0.86853500  0.19388300  0.94853900  1
  H  H31  1  0.36853500  0.41999600  0.67465200  1
  H  H32  1  0.00948400  0.96933400  0.15150700  1
  H  H33  1  0.50948400  0.35797800  0.04015000  1
  H  H34  1  0.21933400  0.75948400  0.65150700  1
  H  H35  1  0.71933400  0.06782700  0.45985000  1
  H  H36  1  0.74051600  0.28066600  0.34849300  1
  H  H37  1  0.24051600  0.89202200  0.45985000  1
  H  H38  1  0.53066600  0.49051600  0.84849300  1
  H  H39  1  0.03066600  0.18217300  0.04015000  1
  H  H40  1  0.31782700  0.46933400  0.95985000  1
  H  H41  1  0.81782700  0.85797800  0.84849300  1
  H  H42  1  0.60797800  0.25948400  0.54015000  1
  H  H43  1  0.10797800  0.56782700  0.34849300  1
  H  H44  1  0.43217300  0.78066600  0.54015000  1
  H  H45  1  0.93217300  0.39202200  0.65150700  1
  H  H46  1  0.14202200  0.99051600  0.95985000  1
  H  H47  1  0.64202200  0.68217300  0.15150700  1
  H  H48  1  0.14083100  0.70707600  0.98219600  1
  H  H49  1  0.64083100  0.65863500  0.43375600  1
  H  H50  1  0.95707600  0.89083100  0.48219600  1
  H  H51  1  0.45707600  0.97487900  0.06624400  1
  H  H52  1  0.60916900  0.54292400  0.51780400  1
  H  H53  1  0.10916900  0.59136500  0.06624400  1
  H  H54  1  0.79292400  0.35916900  0.01780400  1
  H  H55  1  0.29292400  0.27512100  0.43375600  1
  H  H56  1  0.22487900  0.20707600  0.56624400  1
  H  H57  1  0.72487900  0.15863500  0.01780400  1
  H  H58  1  0.90863500  0.39083100  0.93375600  1
  H  H59  1  0.40863500  0.47487900  0.51780400  1
  H  H60  1  0.52512100  0.04292400  0.93375600  1
  H  H61  1  0.02512100  0.09136500  0.48219600  1
  H  H62  1  0.84136500  0.85916900  0.56624400  1
  H  H63  1  0.34136500  0.77512100  0.98219600  1
loop_
_geom_bond_atom_site_label_1
_geom_bond_atom_site_label_2
_geom_bond_distance
_geom_bond_site_symmetry_2
B0 H0 1.180225 1_655
B0 B32 1.595308 1_555
B1 H1 1.180209 1_555
B1 B33 1.595324 1_555
B2 H2 1.180225 1_555
B2 B34 1.595308 1_455
B3 H3 1.180227 1_555
B3 B35 1.595306 1_555
B4 H4 1.180225 1_555
B5 H5 1.180209 1_555
B6 H6 1.180225 1_555
B7 H7 1.180227 1_555
B8 H8 1.180227 1_555
B9 H9 1.180209 1_555
B10 H10 1.180209 1_555
B10 B42 1.595324 1_555
B11 H11 1.180209 1_555
B11 B43 1.595324 1_555
B12 H12 1.180227 1_555
B12 B44 1.595306 1_565
B13 H13 1.180209 1_555
B13 B45 1.595324 1_555
B14 H14 1.180209 1_545
B14 B46 1.595324 1_555
B15 H15 1.180209 1_555
B15 B47 1.595324 1_555
B16 H41 1.212706 1_555
B16 H16 1.217946 1_555
B16 B64 1.674617 1_555
B16 B32 1.725958 1_555
B17 H40 1.212701 1_554
B17 H17 1.217946 1_555
B17 B65 1.674617 1_555
B17 B33 1.725958 1_555
B18 H43 1.212706 1_555
B18 H18 1.217946 1_555
B18 B66 1.674617 1_455
B18 B34 1.725958 1_455
B19 H42 1.212704 1_555
B19 H19 1.217946 1_555
B19 B67 1.674617 1_555
B19 B35 1.725958 1_555
B20 H45 1.212706 1_555
B20 H20 1.217946 1_555
B20 B68 1.674617 1_555
B20 B36 1.725958 1_555
B21 H44 1.212701 1_555
B21 H21 1.217946 1_555
B21 B69 1.674617 1_555
B21 B37 1.725958 1_555
B22 H47 1.212706 1_555
B22 H22 1.217946 1_555
B22 B70 1.674617 1_555
B22 B38 1.725958 1_555
B23 H46 1.212704 1_554
B23 H23 1.217946 1_555
B23 B71 1.674617 1_565
B23 B39 1.725958 1_565
B24 H33 1.212704 1_556
B24 H24 1.217946 1_555
B24 B72 1.674617 1_555
B24 B40 1.725958 1_555
B25 H32 1.212701 1_545
B25 H25 1.217946 1_555
B25 B73 1.674617 1_455
B25 B41 1.725958 1_455
B26 H35 1.212701 1_555
B26 H26 1.217946 1_555
B26 B74 1.674617 1_555
B26 B42 1.725958 1_555
B27 H34 1.212701 1_555
B27 H27 1.217946 1_555
B27 B75 1.674617 1_555
B27 B43 1.725958 1_555
B28 H37 1.212704 1_555
B28 H28 1.217946 1_555
B28 B76 1.674617 1_565
B28 B44 1.725958 1_565
B29 H36 1.212701 1_555
B29 H29 1.217946 1_555
B29 B77 1.674617 1_555
B29 B45 1.725958 1_555
B30 H39 1.212701 1_656
B30 H30 1.217946 1_555
B30 B78 1.674617 1_555
B30 B46 1.725958 1_555
B31 H38 1.212701 1_555
B31 H31 1.217946 1_555
B31 B79 1.674617 1_555
B31 B47 1.725958 1_555
B32 B48 1.598129 1_655
B32 B68 1.691569 1_555
B32 B64 1.744729 1_555
B32 B36 1.964389 1_555
B33 B49 1.598128 1_555
B33 B69 1.691569 1_555
B33 B65 1.744729 1_555
B33 B37 1.964389 1_555
B34 B50 1.598129 1_555
B34 B70 1.691569 1_555
B34 B66 1.744729 1_555
B34 B38 1.964389 1_555
B35 B51 1.598116 1_555
B35 B71 1.691569 1_555
B35 B67 1.744729 1_555
B35 B39 1.964389 1_555
B36 B4 1.595308 1_555
B36 B52 1.598129 1_555
B36 B64 1.691569 1_555
B36 B68 1.744729 1_555
B37 B5 1.595324 1_555
B37 B53 1.598128 1_555
B37 B65 1.691569 1_555
B37 B69 1.744729 1_555
B38 B6 1.595308 1_555
B38 B54 1.598129 1_555
B38 B66 1.691569 1_555
B38 B70 1.744729 1_555
B39 B7 1.595306 1_555
B39 B55 1.598116 1_555
B39 B67 1.691569 1_555
B39 B71 1.744729 1_555
B40 B8 1.595306 1_555
B40 B56 1.598116 1_555
B40 B76 1.691569 1_555
B40 B72 1.744729 1_555
B40 B44 1.964389 1_555
B41 B9 1.595324 1_555
B41 B57 1.598129 1_555
B41 B77 1.691569 1_555
B41 B73 1.744729 1_555
B41 B45 1.964389 1_555
B42 B58 1.598128 1_555
B42 B78 1.691569 1_555
B42 B74 1.744729 1_555
B42 B46 1.964389 1_555
B43 B59 1.598129 1_555
B43 B79 1.691569 1_555
B43 B75 1.744729 1_555
B43 B47 1.964389 1_555
B44 B60 1.598116 1_555
B44 B72 1.691569 1_555
B44 B76 1.744729 1_555
B45 B61 1.598129 1_555
B45 B73 1.691569 1_555
B45 B77 1.744729 1_555
B46 B62 1.598128 1_545
B46 B74 1.691569 1_555
B46 B78 1.744729 1_555
B47 B63 1.598129 1_555
B47 B75 1.691569 1_555
B47 B79 1.744729 1_555
B48 H48 1.187758 1_555
B48 B68 1.621359 1_455
B49 H49 1.187758 1_555
B49 B69 1.621374 1_555
B50 H50 1.187758 1_555
B50 B70 1.621359 1_555
B51 H51 1.187783 1_545
B51 B71 1.621348 1_555
B52 H52 1.187758 1_555
B52 B64 1.621359 1_555
B53 H53 1.187758 1_555
B53 B65 1.621374 1_555
B54 H54 1.187758 1_555
B54 B66 1.621359 1_555
B55 H55 1.187783 1_555
B55 B67 1.621348 1_555
B56 H56 1.187783 1_555
B56 B76 1.621348 1_555
B57 H57 1.187758 1_555
B57 B77 1.621359 1_555
B58 H58 1.187758 1_555
B58 B78 1.621374 1_555
B59 H59 1.187758 1_555
B59 B79 1.621359 1_555
B60 H60 1.187783 1_555
B60 B72 1.621348 1_555
B61 H61 1.187758 1_655
B61 B73 1.621359 1_555
B62 H62 1.187758 1_555
B62 B74 1.621374 1_565
B63 H63 1.187758 1_555
B63 B75 1.621359 1_555
