# generated using pymatgen
data_ZrNi5(BO5)2
_symmetry_space_group_name_H-M   'P 1'
_cell_length_a   3.14338400
_cell_length_b   9.35306800
_cell_length_c   12.49964800
_cell_angle_alpha   90.00000000
_cell_angle_beta   90.00000000
_cell_angle_gamma   90.00000000
_symmetry_Int_Tables_number   1
_chemical_formula_structural   ZrNi5(BO5)2
_chemical_formula_sum   'Zr2 Ni10 B4 O20'
_cell_volume   367.49320488
_cell_formula_units_Z   2
loop_
 _symmetry_equiv_pos_site_id
 _symmetry_equiv_pos_as_xyz
  1  'x, y, z'
loop_
 _atom_site_type_symbol
 _atom_site_label
 _atom_site_symmetry_multiplicity
 _atom_site_fract_x
 _atom_site_fract_y
 _atom_site_fract_z
 _atom_site_occupancy
  Zr  Zr0  1  0.00000000  0.01114400  0.61625100  1
  Zr  Zr1  1  0.00000000  0.98885600  0.11625100  1
  Ni  Ni0  1  0.50000000  0.26834600  0.21977600  1
  Ni  Ni1  1  0.50000000  0.26249100  0.78567800  1
  Ni  Ni2  1  0.50000000  0.73750900  0.28567800  1
  Ni  Ni3  1  0.50000000  0.73165400  0.71977600  1
  Ni  Ni4  1  0.50000000  0.26637000  0.49604800  1
  Ni  Ni5  1  0.50000000  0.73363000  0.99604800  1
  Ni  Ni6  1  0.00000000  0.73364700  0.49544000  1
  Ni  Ni7  1  0.00000000  0.26635300  0.99544000  1
  Ni  Ni8  1  0.00000000  0.48700300  0.38398300  1
  Ni  Ni9  1  0.00000000  0.51299700  0.88398300  1
  B  B0  1  0.00000000  0.52825700  0.14028200  1
  B  B1  1  0.00000000  0.97568300  0.86015100  1
  B  B2  1  0.00000000  0.02431700  0.36015100  1
  B  B3  1  0.00000000  0.47174300  0.64028200  1
  O  O0  1  0.00000000  0.37788600  0.14084900  1
  O  O1  1  0.00000000  0.12269300  0.85615200  1
  O  O2  1  0.00000000  0.87730700  0.35615200  1
  O  O3  1  0.00000000  0.62211400  0.64084900  1
  O  O4  1  0.00000000  0.39743200  0.54390500  1
  O  O5  1  0.00000000  0.09925900  0.45692400  1
  O  O6  1  0.00000000  0.90074100  0.95692400  1
  O  O7  1  0.00000000  0.60256800  0.04390500  1
  O  O8  1  0.50000000  0.35813200  0.35690200  1
  O  O9  1  0.50000000  0.14951800  0.64545400  1
  O  O10  1  0.50000000  0.85048200  0.14545400  1
  O  O11  1  0.50000000  0.64186800  0.85690200  1
  O  O12  1  0.00000000  0.60134100  0.23673200  1
  O  O13  1  0.00000000  0.89671500  0.76467900  1
  O  O14  1  0.00000000  0.10328500  0.26467900  1
  O  O15  1  0.00000000  0.39865900  0.73673200  1
  O  O16  1  0.50000000  0.63966900  0.42412700  1
  O  O17  1  0.50000000  0.86664900  0.57666800  1
  O  O18  1  0.50000000  0.13335100  0.07666800  1
  O  O19  1  0.50000000  0.36033100  0.92412700  1
loop_
_geom_bond_atom_site_label_1
_geom_bond_atom_site_label_2
_geom_bond_distance
_geom_bond_site_symmetry_2
Ni0 O8 1.908693 1_555
Ni0 O0 2.119714 1_555
Ni0 O0 2.119714 1_655
Ni0 O18 2.189522 1_555
Ni0 O14 2.273465 1_555
Ni0 O14 2.273465 1_655
Ni1 O19 1.957618 1_555
Ni1 O9 2.046615 1_555
Ni1 O15 2.113422 1_555
Ni1 O15 2.113422 1_655
Ni1 O1 2.226177 1_655
Ni1 O1 2.226177 1_555
Ni2 O16 1.957618 1_555
Ni2 O10 2.046615 1_555
Ni2 O12 2.113422 1_655
Ni2 O12 2.113422 1_555
Ni2 O2 2.226177 1_655
Ni2 O2 2.226177 1_555
Ni3 O11 1.908693 1_555
Ni3 O3 2.119714 1_555
Ni3 O3 2.119714 1_655
Ni3 O17 2.189522 1_555
Ni3 O13 2.273465 1_555
Ni3 O13 2.273465 1_655
Ni4 O8 1.939506 1_555
Ni4 O4 2.081038 1_555
Ni4 O4 2.081038 1_655
Ni4 O9 2.163822 1_555
Ni4 O5 2.269877 1_555
Ni4 O5 2.269877 1_655
Ni5 O11 1.939506 1_555
Ni5 O7 2.081038 1_556
Ni5 O7 2.081038 1_656
Ni5 O10 2.163822 1_556
Ni5 O6 2.269877 1_655
Ni5 O6 2.269877 1_555
Ni6 O16 2.009328 1_455
Ni6 O16 2.009328 1_555
Ni6 O3 2.095649 1_555
Ni6 O2 2.199247 1_555
Ni6 O17 2.246903 1_455
Ni6 O17 2.246903 1_555
Ni7 O19 2.009328 1_455
Ni7 O19 2.009328 1_555
Ni7 O0 2.095649 1_556
Ni7 O1 2.199247 1_555
Ni7 O18 2.246903 1_556
Ni7 O18 2.246903 1_456
Ni8 O8 2.009389 1_455
Ni8 O8 2.009389 1_555
Ni8 O12 2.128708 1_555
Ni8 O4 2.167423 1_555
Ni8 O16 2.181946 1_455
Ni8 O16 2.181946 1_555
Ni9 O11 2.009389 1_555
Ni9 O11 2.009389 1_455
Ni9 O15 2.128708 1_555
Ni9 O7 2.167423 1_556
Ni9 O19 2.181946 1_455
Ni9 O19 2.181946 1_555
B0 O12 1.385894 1_555
B0 O7 1.390800 1_555
B0 O0 1.406448 1_555
B1 O1 1.375903 1_565
B1 O6 1.398040 1_555
B1 O13 1.403440 1_555
B2 O2 1.375903 1_545
B2 O5 1.398040 1_555
B2 O14 1.403440 1_555
B3 O15 1.385894 1_555
B3 O4 1.390800 1_555
B3 O3 1.406448 1_555
O5 Zr0 2.155322 1_555
O6 Zr1 2.155322 1_556
O9 Zr0 2.068446 1_555
O9 Zr0 2.068446 1_655
O10 Zr1 2.068446 1_555
O10 Zr1 2.068446 1_655
O13 Zr0 2.141866 1_565
O14 Zr1 2.141866 1_545
O17 Zr0 2.131078 1_565
O17 Zr0 2.131078 1_665
O18 Zr1 2.131078 1_645
O18 Zr1 2.131078 1_545
