# generated using pymatgen
data_AsPbO4
_symmetry_space_group_name_H-M   'P 1'
_cell_length_a   4.98530117
_cell_length_b   6.07059049
_cell_length_c   6.00888600
_cell_angle_alpha   90.00000000
_cell_angle_beta   90.00000000
_cell_angle_gamma   93.68757354
_symmetry_Int_Tables_number   1
_chemical_formula_structural   AsPbO4
_chemical_formula_sum   'As2 Pb2 O8'
_cell_volume   181.47474836
_cell_formula_units_Z   2
loop_
 _symmetry_equiv_pos_site_id
 _symmetry_equiv_pos_as_xyz
  1  'x, y, z'
loop_
 _atom_site_type_symbol
 _atom_site_label
 _atom_site_symmetry_multiplicity
 _atom_site_fract_x
 _atom_site_fract_y
 _atom_site_fract_z
 _atom_site_occupancy
  As  As0  1  0.00000000  0.75000000  0.74369400  1
  As  As1  1  0.00000000  0.25000000  0.25630600  1
  Pb  Pb0  1  0.50000000  0.75000000  0.27056500  1
  Pb  Pb1  1  0.50000000  0.25000000  0.72943500  1
  O  O0  1  0.81949800  0.92484900  0.91044300  1
  O  O1  1  0.18050200  0.07515100  0.08955700  1
  O  O2  1  0.18050200  0.57515100  0.91044300  1
  O  O3  1  0.81949800  0.42484900  0.08955700  1
  O  O4  1  0.75864600  0.60476100  0.59029400  1
  O  O5  1  0.24135400  0.39523900  0.40970600  1
  O  O6  1  0.24135400  0.89523900  0.59029400  1
  O  O7  1  0.75864600  0.10476100  0.40970600  1
loop_
_geom_bond_atom_site_label_1
_geom_bond_atom_site_label_2
_geom_bond_distance
_geom_bond_site_symmetry_2
As0 O6 1.714147 1_555
As0 O4 1.714147 1_455
As0 O0 1.750202 1_455
As0 O2 1.750202 1_555
As1 O5 1.714147 1_555
As1 O7 1.714147 1_455
As1 O1 1.750202 1_555
As1 O3 1.750202 1_455
O0 Pb1 2.832052 1_565
O0 Pb0 2.851100 1_556
O1 Pb0 2.832052 1_545
O1 Pb1 2.851100 1_554
O2 Pb1 2.832052 1_555
O2 Pb0 2.851100 1_556
O3 Pb0 2.832052 1_555
O3 Pb1 2.851100 1_554
O4 Pb0 2.505454 1_555
O4 Pb1 2.577303 1_555
O5 Pb1 2.505454 1_555
O5 Pb0 2.577303 1_555
O6 Pb0 2.505454 1_555
O6 Pb1 2.577303 1_565
O7 Pb1 2.505454 1_555
O7 Pb0 2.577303 1_545
