# generated using pymatgen
data_CrGaP2
_symmetry_space_group_name_H-M   'P 1'
_cell_length_a   3.85984700
_cell_length_b   3.85984700
_cell_length_c   5.46983200
_cell_angle_alpha   90.00000000
_cell_angle_beta   90.00000000
_cell_angle_gamma   90.00000000
_symmetry_Int_Tables_number   1
_chemical_formula_structural   CrGaP2
_chemical_formula_sum   'Cr1 Ga1 P2'
_cell_volume   81.49184825
_cell_formula_units_Z   1
loop_
 _symmetry_equiv_pos_site_id
 _symmetry_equiv_pos_as_xyz
  1  'x, y, z'
loop_
 _atom_site_type_symbol
 _atom_site_label
 _atom_site_symmetry_multiplicity
 _atom_site_fract_x
 _atom_site_fract_y
 _atom_site_fract_z
 _atom_site_occupancy
  Cr  Cr0  1  0.00000000  0.00000000  0.00000000  1
  Ga  Ga0  1  0.50000000  0.50000000  0.50000000  1
  P  P0  1  0.00000000  0.50000000  0.75719400  1
  P  P1  1  0.50000000  0.00000000  0.24280600  1
loop_
_geom_bond_atom_site_label_1
_geom_bond_atom_site_label_2
_geom_bond_distance
_geom_bond_site_symmetry_2
Cr0 P1 2.342750 1_455
Cr0 P1 2.342750 1_555
Cr0 P0 2.342750 1_544
Cr0 P0 2.342750 1_554
Ga0 P0 2.388245 1_555
Ga0 P0 2.388245 1_655
Ga0 P1 2.388245 1_555
Ga0 P1 2.388245 1_565
