# generated using pymatgen
data_Sr2CaPr3(CuO3)4
_symmetry_space_group_name_H-M   'P 1'
_cell_length_a   10.21132854
_cell_length_b   10.21132854
_cell_length_c   5.41069700
_cell_angle_alpha   90.00000000
_cell_angle_beta   90.00000000
_cell_angle_gamma   149.22084382
_symmetry_Int_Tables_number   1
_chemical_formula_structural   Sr2CaPr3(CuO3)4
_chemical_formula_sum   'Sr2 Ca1 Pr3 Cu4 O12'
_cell_volume   288.70804488
_cell_formula_units_Z   1
loop_
 _symmetry_equiv_pos_site_id
 _symmetry_equiv_pos_as_xyz
  1  'x, y, z'
loop_
 _atom_site_type_symbol
 _atom_site_label
 _atom_site_symmetry_multiplicity
 _atom_site_fract_x
 _atom_site_fract_y
 _atom_site_fract_z
 _atom_site_occupancy
  Sr  Sr0  1  0.32140900  0.67859100  0.50000000  1
  Sr  Sr1  1  0.00105800  0.99894200  0.00000000  1
  Ca  Ca0  1  0.49735000  0.50265000  0.50000000  1
  Pr  Pr0  1  0.82352700  0.17647300  0.00000000  1
  Pr  Pr1  1  0.17818400  0.82181600  0.00000000  1
  Pr  Pr2  1  0.67684700  0.32315300  0.50000000  1
  Cu  Cu0  1  0.91131400  0.08868600  0.50000000  1
  Cu  Cu1  1  0.41167500  0.58832500  0.00000000  1
  Cu  Cu2  1  0.58506600  0.41493400  0.00000000  1
  Cu  Cu3  1  0.08880200  0.91119800  0.50000000  1
  O  O0  1  0.66603000  0.83442800  0.75027500  1
  O  O1  1  0.16557200  0.33397000  0.24972500  1
  O  O2  1  0.16557200  0.33397000  0.75027500  1
  O  O3  1  0.66603000  0.83442800  0.24972500  1
  O  O4  1  0.83056800  0.65556000  0.74721900  1
  O  O5  1  0.34444000  0.16943200  0.25278100  1
  O  O6  1  0.34444000  0.16943200  0.74721900  1
  O  O7  1  0.83056800  0.65556000  0.25278100  1
  O  O8  1  0.79491800  0.20508200  0.50000000  1
  O  O9  1  0.29442500  0.70557500  0.00000000  1
  O  O10  1  0.70558000  0.29442000  0.00000000  1
  O  O11  1  0.19662600  0.80337400  0.50000000  1
loop_
_geom_bond_atom_site_label_1
_geom_bond_atom_site_label_2
_geom_bond_distance
_geom_bond_site_symmetry_2
Ca0 O0 2.500273 1_555
Ca0 O2 2.500273 1_555
Ca0 O3 2.500273 1_555
Ca0 O1 2.500273 1_555
Ca0 O4 2.583773 1_555
Ca0 O7 2.583773 1_555
Ca0 O6 2.583773 1_555
Ca0 O5 2.583773 1_555
Cu0 O0 1.916788 1_545
Cu0 O2 1.916788 1_655
Cu0 O3 1.916788 1_545
Cu0 O1 1.916788 1_655
Cu0 O8 2.291881 1_555
Cu1 O1 1.916128 1_555
Cu1 O2 1.916128 1_554
Cu1 O3 1.916128 1_555
Cu1 O0 1.916128 1_554
Cu1 O9 2.308697 1_555
Cu2 O5 1.899575 1_555
Cu2 O6 1.899575 1_554
Cu2 O7 1.899575 1_555
Cu2 O4 1.899575 1_554
Cu2 O10 2.372966 1_555
Cu3 O4 1.931077 1_455
Cu3 O7 1.931077 1_455
Cu3 O6 1.931077 1_565
Cu3 O5 1.931077 1_565
Cu3 O11 2.123095 1_555
O0 Sr1 2.544876 1_656
O0 Pr0 2.638064 1_566
O0 Sr0 2.669727 1_555
O1 Sr1 2.544876 1_545
O1 Pr0 2.638064 1_455
O1 Sr0 2.669727 1_555
O2 Sr1 2.544876 1_546
O2 Pr0 2.638064 1_456
O2 Sr0 2.669727 1_555
O3 Sr1 2.544876 1_655
O3 Pr0 2.638064 1_565
O3 Sr0 2.669727 1_555
O4 Pr2 2.572827 1_555
O4 Sr1 2.589816 1_656
O4 Pr1 2.645357 1_656
O5 Pr2 2.572827 1_555
O5 Sr1 2.589816 1_545
O5 Pr1 2.645357 1_545
O6 Pr2 2.572827 1_555
O6 Sr1 2.589816 1_546
O6 Pr1 2.645357 1_546
O7 Pr2 2.572827 1_555
O7 Sr1 2.589816 1_655
O7 Pr1 2.645357 1_655
O8 Pr2 2.324862 1_555
O8 Sr0 2.759636 1_655
O8 Sr0 2.759636 1_545
O8 Pr0 2.763375 1_556
O8 Pr0 2.763375 1_555
O9 Pr1 2.288829 1_555
O9 Sr0 2.757030 1_555
O9 Sr0 2.757030 1_554
O9 Pr0 2.769813 1_565
O9 Pr0 2.769813 1_455
O10 Pr0 2.322421 1_555
O10 Pr1 2.763059 1_655
O10 Pr1 2.763059 1_545
O10 Pr2 2.763874 1_554
O10 Pr2 2.763874 1_555
O11 Sr0 2.457024 1_555
O11 Pr1 2.729611 1_556
O11 Pr1 2.729611 1_555
O11 Pr2 2.737733 1_455
O11 Pr2 2.737733 1_565
