# generated using pymatgen
data_Cr4(SeS)3
_symmetry_space_group_name_H-M   'P 1'
_cell_length_a   6.59350753
_cell_length_b   6.59350753
_cell_length_c   6.59350829
_cell_angle_alpha   55.55650912
_cell_angle_beta   55.55650912
_cell_angle_gamma   55.55650912
_symmetry_Int_Tables_number   1
_chemical_formula_structural   Cr4(SeS)3
_chemical_formula_sum   'Cr4 Se3 S3'
_cell_volume   181.78453840
_cell_formula_units_Z   1
loop_
 _symmetry_equiv_pos_site_id
 _symmetry_equiv_pos_as_xyz
  1  'x, y, z'
loop_
 _atom_site_type_symbol
 _atom_site_label
 _atom_site_symmetry_multiplicity
 _atom_site_fract_x
 _atom_site_fract_y
 _atom_site_fract_z
 _atom_site_occupancy
  Cr  Cr0  1  0.99401900  0.99401900  0.99401900  1
  Cr  Cr1  1  0.50894400  0.50894400  0.50894400  1
  Cr  Cr2  1  0.32458500  0.32458500  0.32458500  1
  Cr  Cr3  1  0.66373100  0.66373100  0.66373100  1
  Se  Se0  1  0.74943700  0.41170500  0.08729900  1
  Se  Se1  1  0.41170500  0.08729900  0.74943700  1
  Se  Se2  1  0.08729900  0.74943700  0.41170500  1
  S  S0  1  0.26396400  0.59105300  0.90526400  1
  S  S1  1  0.59105300  0.90526400  0.26396400  1
  S  S2  1  0.90526400  0.26396400  0.59105300  1
loop_
_geom_bond_atom_site_label_1
_geom_bond_atom_site_label_2
_geom_bond_distance
_geom_bond_site_symmetry_2
Cr0 S1 2.408531 1_556
Cr0 S0 2.408531 1_655
Cr0 S2 2.408531 1_565
Cr0 Se1 2.516685 1_665
Cr0 Se0 2.516685 1_566
Cr0 Se2 2.516685 1_656
Cr1 S1 2.359479 1_555
Cr1 S2 2.359479 1_555
Cr1 S0 2.359479 1_555
Cr1 Se1 2.556185 1_555
Cr1 Se2 2.556185 1_555
Cr1 Se0 2.556185 1_555
Cr2 S2 2.419000 1_455
Cr2 S1 2.419000 1_545
Cr2 S0 2.419001 1_554
Cr2 Se0 2.543776 1_555
Cr2 Se2 2.543776 1_555
Cr2 Se1 2.543776 1_555
Cr3 S0 2.351756 1_555
Cr3 S2 2.351756 1_555
Cr3 S1 2.351756 1_555
Cr3 Se2 2.520662 1_655
Cr3 Se1 2.520662 1_565
Cr3 Se0 2.520662 1_556
