# generated using pymatgen
data_U2(InSn)3
_symmetry_space_group_name_H-M   'P 1'
_cell_length_a   4.64245868
_cell_length_b   4.74863584
_cell_length_c   9.12677342
_cell_angle_alpha   90.00000000
_cell_angle_beta   90.00000000
_cell_angle_gamma   90.00000000
_symmetry_Int_Tables_number   1
_chemical_formula_structural   U2(InSn)3
_chemical_formula_sum   'U2 In3 Sn3'
_cell_volume   201.20287493
_cell_formula_units_Z   1
loop_
 _symmetry_equiv_pos_site_id
 _symmetry_equiv_pos_as_xyz
  1  'x, y, z'
loop_
 _atom_site_type_symbol
 _atom_site_label
 _atom_site_symmetry_multiplicity
 _atom_site_fract_x
 _atom_site_fract_y
 _atom_site_fract_z
 _atom_site_occupancy
  U  U0  1  -0.00000000  0.00000000  0.24591100  1
  U  U1  1  -0.00000000  0.00000000  0.75408900  1
  In  In0  1  0.50000000  0.50000000  0.25274028  1
  In  In1  1  0.50000000  0.50000000  0.74725972  1
  In  In2  1  -0.00000000  0.50000000  0.50000000  1
  Sn  Sn0  1  -0.00000000  0.50000000  0.00000000  1
  Sn  Sn1  1  0.50000000  0.00000000  0.50000000  1
  Sn  Sn2  1  0.50000000  0.00000000  0.00000000  1
loop_
_geom_bond_atom_site_label_1
_geom_bond_atom_site_label_2
_geom_bond_distance
_geom_bond_site_symmetry_2
In0 In2 3.237395 1_555
In0 In2 3.237395 1_655
In0 Sn0 3.272459 1_555
In0 Sn0 3.272459 1_655
In0 Sn1 3.275669 1_565
In0 Sn1 3.275669 1_555
In0 Sn2 3.310327 1_565
In0 Sn2 3.310327 1_555
In0 U0 3.321050 1_555
In0 U0 3.321050 1_655
In0 U0 3.321050 1_565
In0 U0 3.321050 1_665
In1 In2 3.237395 1_555
In1 In2 3.237395 1_655
In1 Sn0 3.272459 1_556
In1 Sn0 3.272459 1_656
In1 Sn1 3.275669 1_565
In1 Sn1 3.275669 1_555
In1 Sn2 3.310327 1_566
In1 Sn2 3.310327 1_556
In1 U1 3.321050 1_555
In1 U1 3.321050 1_565
In1 U1 3.321050 1_655
In1 U1 3.321050 1_665
In2 U1 3.318916 1_555
In2 U0 3.318916 1_565
In2 U0 3.318916 1_555
In2 U1 3.318916 1_565
In2 Sn1 3.320466 1_565
In2 Sn1 3.320466 1_555
In2 Sn1 3.320466 1_455
In2 Sn1 3.320466 1_465
Sn0 U0 3.267201 1_565
Sn0 U1 3.267201 1_564
Sn0 U1 3.267201 1_554
Sn0 U0 3.267201 1_555
Sn0 Sn2 3.320466 1_455
Sn0 Sn2 3.320466 1_565
Sn0 Sn2 3.320466 1_555
Sn0 Sn2 3.320466 1_465
Sn1 U1 3.281147 1_655
Sn1 U0 3.281147 1_655
Sn1 U0 3.281147 1_555
Sn1 U1 3.281147 1_555
Sn2 U0 3.228826 1_555
Sn2 U1 3.228826 1_554
Sn2 U0 3.228826 1_655
Sn2 U1 3.228826 1_654
