# generated using pymatgen
data_PH5CN2O3
_symmetry_space_group_name_H-M   'P 1'
_cell_length_a   4.91055853
_cell_length_b   5.88724473
_cell_length_c   8.63178368
_cell_angle_alpha   97.34223387
_cell_angle_beta   87.71598660
_cell_angle_gamma   99.86012286
_symmetry_Int_Tables_number   1
_chemical_formula_structural   PH5CN2O3
_chemical_formula_sum   'P2 H10 C2 N4 O6'
_cell_volume   243.79875939
_cell_formula_units_Z   2
loop_
 _symmetry_equiv_pos_site_id
 _symmetry_equiv_pos_as_xyz
  1  'x, y, z'
loop_
 _atom_site_type_symbol
 _atom_site_label
 _atom_site_symmetry_multiplicity
 _atom_site_fract_x
 _atom_site_fract_y
 _atom_site_fract_z
 _atom_site_occupancy
  P  P0  1  0.16088900  0.10797200  0.24752400  1
  P  P1  1  0.83911100  0.89202700  0.75247600  1
  H  H0  1  0.11550400  0.51028000  0.71226800  1
  H  H1  1  0.88449600  0.48972000  0.28773200  1
  H  H2  1  0.56903900  0.14840200  0.35697400  1
  H  H3  1  0.43096100  0.85159800  0.64302600  1
  H  H4  1  0.19736400  0.24316400  0.62550000  1
  H  H5  1  0.80263600  0.75683600  0.37450000  1
  H  H6  1  0.26531400  0.50836800  0.09577300  1
  H  H7  1  0.73468600  0.49163200  0.90422700  1
  H  H8  1  0.41289200  0.78140000  0.04094000  1
  H  H9  1  0.58710800  0.21860000  0.95906000  1
  C  C0  1  0.10183900  0.78611100  0.20695900  1
  C  C1  1  0.89816100  0.21388900  0.79304100  1
  N  N0  1  0.26708300  0.68639700  0.10632100  1
  N  N1  1  0.73291700  0.31360300  0.89367900  1
  N  N2  1  0.09348200  0.33166000  0.71094900  1
  N  N3  1  0.90651800  0.66834000  0.28905100  1
  O  O0  1  0.89207400  0.17883200  0.30946100  1
  O  O1  1  0.10792600  0.82116800  0.69053900  1
  O  O2  1  0.36816300  0.14658400  0.39018700  1
  O  O3  1  0.63183700  0.85341600  0.60981300  1
  O  O4  1  0.29745500  0.20836700  0.10625800  1
  O  O5  1  0.70254500  0.79163300  0.89374200  1
loop_
_geom_bond_atom_site_label_1
_geom_bond_atom_site_label_2
_geom_bond_distance
_geom_bond_site_symmetry_2
H0 N2 1.037176 1_555
H1 N3 1.037176 1_555
H2 O2 1.014861 1_555
H2 O0 1.608161 1_555
H3 O3 1.014861 1_555
H3 O1 1.608161 1_555
H4 N2 1.019066 1_555
H5 N3 1.019066 1_555
H6 N0 1.038958 1_555
H7 N1 1.038958 1_555
H8 N0 1.027276 1_555
H9 N1 1.027276 1_555
C0 N0 1.316923 1_555
C0 N3 1.321525 1_455
C0 P0 1.856762 1_565
C1 N1 1.316923 1_555
C1 N2 1.321525 1_655
C1 P1 1.856768 1_545
O0 P0 1.509200 1_655
O1 P1 1.509198 1_455
O2 P0 1.597874 1_555
O3 P1 1.597875 1_555
O4 P0 1.506395 1_555
O5 P1 1.506393 1_555
