# generated using pymatgen
data_Li9Mn7O16
_symmetry_space_group_name_H-M   'P 1'
_cell_length_a   5.04784400
_cell_length_b   6.05670982
_cell_length_c   9.94246184
_cell_angle_alpha   101.66444264
_cell_angle_beta   92.77532951
_cell_angle_gamma   93.01753726
_symmetry_Int_Tables_number   1
_chemical_formula_structural   Li9Mn7O16
_chemical_formula_sum   'Li9 Mn7 O16'
_cell_volume   296.74121373
_cell_formula_units_Z   1
loop_
 _symmetry_equiv_pos_site_id
 _symmetry_equiv_pos_as_xyz
  1  'x, y, z'
loop_
 _atom_site_type_symbol
 _atom_site_label
 _atom_site_symmetry_multiplicity
 _atom_site_fract_x
 _atom_site_fract_y
 _atom_site_fract_z
 _atom_site_occupancy
  Li  Li0  1  0.87097200  0.55802000  0.24793700  1
  Li  Li1  1  0.12902800  0.44198000  0.75206300  1
  Li  Li2  1  0.37820800  0.31587100  0.24669700  1
  Li  Li3  1  0.87017500  0.06408400  0.24670300  1
  Li  Li4  1  0.12982500  0.93591600  0.75329700  1
  Li  Li5  1  0.37866700  0.80452200  0.24450000  1
  Li  Li6  1  0.62179200  0.68412900  0.75330300  1
  Li  Li7  1  0.62133300  0.19547800  0.75550000  1
  Li  Li8  1  0.50000000  0.50000000  0.00000000  1
  Mn  Mn0  1  0.00066200  0.74173600  0.00066300  1
  Mn  Mn1  1  0.99933800  0.25826400  0.99933700  1
  Mn  Mn2  1  0.24992200  0.62519900  0.49938300  1
  Mn  Mn3  1  0.75007800  0.37480100  0.50061700  1
  Mn  Mn4  1  0.24984500  0.12489800  0.50007500  1
  Mn  Mn5  1  0.50000000  0.00000000  0.00000000  1
  Mn  Mn6  1  0.75015500  0.87510200  0.49992500  1
  O  O0  1  0.68387600  0.80296500  0.10533000  1
  O  O1  1  0.94611700  0.63845000  0.61656300  1
  O  O2  1  0.16156700  0.52854000  0.11547300  1
  O  O3  1  0.69270100  0.26390700  0.11325600  1
  O  O4  1  0.94780700  0.13798500  0.61721500  1
  O  O5  1  0.19307800  0.02135400  0.11130700  1
  O  O6  1  0.44728000  0.88720500  0.61633700  1
  O  O7  1  0.44707100  0.38867700  0.61900500  1
  O  O8  1  0.05388300  0.36155000  0.38343700  1
  O  O9  1  0.31612400  0.19703500  0.89467000  1
  O  O10  1  0.55272000  0.11279500  0.38366300  1
  O  O11  1  0.05219300  0.86201500  0.38278500  1
  O  O12  1  0.30729900  0.73609300  0.88674400  1
  O  O13  1  0.55292900  0.61132300  0.38099500  1
  O  O14  1  0.83843300  0.47146000  0.88452700  1
  O  O15  1  0.80692200  0.97864600  0.88869300  1
loop_
_geom_bond_atom_site_label_1
_geom_bond_atom_site_label_2
_geom_bond_distance
_geom_bond_site_symmetry_2
Li0 O2 2.009408 1_655
Li0 O13 2.125866 1_555
Li0 O3 2.127466 1_555
Li0 O8 2.174147 1_655
Li0 O11 2.174884 1_655
Li0 O0 2.443695 1_555
Li1 O14 2.009408 1_455
Li1 O7 2.125866 1_555
Li1 O12 2.127466 1_555
Li1 O1 2.174147 1_455
Li1 O4 2.174884 1_455
Li1 O9 2.443695 1_555
Li2 O3 2.113572 1_555
Li2 O13 2.125224 1_555
Li2 O5 2.144529 1_555
Li2 O8 2.171690 1_555
Li2 O10 2.195100 1_555
Li2 O2 2.290616 1_555
Li3 O0 2.043968 1_545
Li3 O10 2.146590 1_555
Li3 O5 2.156840 1_655
Li3 O8 2.160027 1_655
Li3 O3 2.162418 1_555
Li3 O11 2.200050 1_645
Li4 O9 2.043968 1_565
Li4 O6 2.146590 1_555
Li4 O15 2.156840 1_455
Li4 O1 2.160027 1_455
Li4 O12 2.162418 1_555
Li4 O4 2.200050 1_465
Li5 O2 2.108230 1_555
Li5 O0 2.119194 1_555
Li5 O13 2.149333 1_555
Li5 O11 2.194015 1_555
Li5 O10 2.199415 1_565
Li5 O5 2.251373 1_565
Li6 O12 2.113572 1_555
Li6 O7 2.125224 1_555
Li6 O15 2.144529 1_555
Li6 O1 2.171690 1_555
Li6 O6 2.195100 1_555
Li6 O14 2.290616 1_555
Li7 O14 2.108230 1_555
Li7 O9 2.119194 1_555
Li7 O7 2.149333 1_555
Li7 O4 2.194015 1_555
Li7 O6 2.199415 1_545
Li7 O15 2.251373 1_545
Li8 O0 2.067573 1_555
Li8 O9 2.067573 1_554
Li8 O2 2.099343 1_555
Li8 O14 2.099343 1_554
Li8 O12 2.224945 1_554
Li8 O3 2.224945 1_555
Mn0 O14 1.920048 1_454
Mn0 O12 1.959484 1_554
Mn0 O0 1.960889 1_455
Mn0 O5 1.997930 1_565
Mn0 O2 2.060761 1_555
Mn0 O15 2.223269 1_454
Mn1 O2 1.920048 1_656
Mn1 O3 1.959484 1_556
Mn1 O9 1.960889 1_655
Mn1 O15 1.997930 1_545
Mn1 O14 2.060761 1_555
Mn1 O5 2.223269 1_656
Mn2 O8 1.958801 1_555
Mn2 O6 1.959099 1_555
Mn2 O1 1.965650 1_455
Mn2 O13 1.969746 1_555
Mn2 O11 2.260187 1_555
Mn2 O7 2.276291 1_555
Mn3 O1 1.958801 1_555
Mn3 O10 1.959099 1_555
Mn3 O8 1.965650 1_655
Mn3 O7 1.969746 1_555
Mn3 O4 2.260187 1_555
Mn3 O13 2.276291 1_555
Mn4 O10 1.957366 1_555
Mn4 O4 1.958212 1_455
Mn4 O11 1.964625 1_545
Mn4 O7 1.973940 1_555
Mn4 O8 2.255675 1_555
Mn4 O6 2.261500 1_545
Mn5 O5 1.941908 1_555
Mn5 O15 1.941908 1_544
Mn5 O12 1.942038 1_544
Mn5 O3 1.942038 1_555
Mn5 O0 1.977430 1_545
Mn5 O9 1.977430 1_554
Mn6 O6 1.957366 1_555
Mn6 O11 1.958212 1_655
Mn6 O4 1.964625 1_565
Mn6 O13 1.973940 1_555
Mn6 O1 2.255675 1_555
Mn6 O10 2.261500 1_565
