# generated using pymatgen
data_Be2CoRh
_symmetry_space_group_name_H-M   'P 1'
_cell_length_a   9.44387501
_cell_length_b   9.44387501
_cell_length_c   9.44387501
_cell_angle_alpha   127.11523691
_cell_angle_beta   116.99677147
_cell_angle_gamma   86.71168837
_symmetry_Int_Tables_number   1
_chemical_formula_structural   Be2CoRh
_chemical_formula_sum   'Be2 Co1 Rh1'
_cell_volume   569.98395897
_cell_formula_units_Z   1
loop_
 _symmetry_equiv_pos_site_id
 _symmetry_equiv_pos_as_xyz
  1  'x, y, z'
loop_
 _atom_site_type_symbol
 _atom_site_label
 _atom_site_symmetry_multiplicity
 _atom_site_fract_x
 _atom_site_fract_y
 _atom_site_fract_z
 _atom_site_occupancy
  Be  Be0  1  0.00000000  0.25683300  0.25683300  1
  Be  Be1  1  0.00000000  0.74316700  0.74316700  1
  Co  Co0  1  0.00000000  0.00000000  0.00000000  1
  Rh  Rh0  1  0.00000000  0.50000000  0.50000000  1
loop_
_geom_bond_atom_site_label_1
_geom_bond_atom_site_label_2
_geom_bond_distance
_geom_bond_site_symmetry_2
Be0 Rh0 2.045197 1_555
Be0 Co0 2.160138 1_555
Be1 Rh0 2.045197 1_555
Be1 Co0 2.160138 1_566
