# generated using pymatgen
data_Nd4(FeB2)3
_symmetry_space_group_name_H-M   'P 1'
_cell_length_a   5.38337704
_cell_length_b   5.38337700
_cell_length_c   8.13977557
_cell_angle_alpha   70.68973713
_cell_angle_beta   70.68973832
_cell_angle_gamma   59.99999411
_symmetry_Int_Tables_number   1
_chemical_formula_structural   Nd4(FeB2)3
_chemical_formula_sum   'Nd4 Fe3 B6'
_cell_volume   188.81300125
_cell_formula_units_Z   1
loop_
 _symmetry_equiv_pos_site_id
 _symmetry_equiv_pos_as_xyz
  1  'x, y, z'
loop_
 _atom_site_type_symbol
 _atom_site_label
 _atom_site_symmetry_multiplicity
 _atom_site_fract_x
 _atom_site_fract_y
 _atom_site_fract_z
 _atom_site_occupancy
  Nd  Nd0  1  0.74279500  0.74279500  0.77161400  1
  Nd  Nd1  1  0.25720500  0.25720500  0.22838600  1
  Nd  Nd2  1  0.58934100  0.58934100  0.23197600  1
  Nd  Nd3  1  0.41065900  0.41065900  0.76802400  1
  Fe  Fe0  1  0.00000000  0.00000000  0.00000000  1
  Fe  Fe1  1  0.88390800  0.88390800  0.34827500  1
  Fe  Fe2  1  0.11609200  0.11609200  0.65172500  1
  B  B0  1  0.50000000  0.16647300  0.50000000  1
  B  B1  1  0.83352700  0.50000000  0.50000000  1
  B  B2  1  0.16647300  0.83352700  0.50000000  1
  B  B3  1  0.16647300  0.50000000  0.50000000  1
  B  B4  1  0.83352700  0.16647300  0.50000000  1
  B  B5  1  0.50000000  0.83352700  0.50000000  1
loop_
_geom_bond_atom_site_label_1
_geom_bond_atom_site_label_2
_geom_bond_distance
_geom_bond_site_symmetry_2
Nd0 Nd3 3.108205 1_555
Nd0 Nd3 3.108214 1_565
Nd0 Nd3 3.108214 1_655
Nd0 Nd2 3.463308 1_556
Nd1 Nd2 3.108205 1_555
Nd1 Nd2 3.108214 1_545
Nd1 Nd2 3.108214 1_455
Nd1 Nd3 3.463308 1_554
Fe0 Fe1 2.620077 1_445
Fe0 Fe2 2.620077 1_554
Fe0 Nd1 3.551377 1_545
Fe0 Nd0 3.551377 1_454
Fe0 Nd1 3.551377 1_455
Fe0 Nd0 3.551377 1_544
Fe0 Nd1 3.551381 1_555
Fe0 Nd0 3.551381 1_444
Fe0 Nd2 3.564522 1_545
Fe0 Nd3 3.564522 1_454
Fe0 Nd2 3.564522 1_455
Fe0 Nd3 3.564522 1_544
Fe0 Nd2 3.564526 1_445
Fe0 Nd3 3.564526 1_554
Fe1 Nd2 3.228890 1_565
Fe1 Nd2 3.228890 1_655
Fe1 Nd2 3.228890 1_555
Fe2 Nd3 3.228890 1_545
Fe2 Nd3 3.228890 1_455
Fe2 Nd3 3.228890 1_555
B0 B5 1.792374 1_545
B0 B3 1.795501 1_555
B0 B4 1.795502 1_555
B0 Fe2 2.126279 1_555
B0 Fe1 2.126281 1_545
B0 Nd2 2.699902 1_555
B0 Nd3 2.699906 1_555
B0 Nd1 2.719100 1_555
B0 Nd0 2.719101 1_545
B1 B3 1.792374 1_655
B1 B5 1.795501 1_555
B1 B4 1.795502 1_555
B1 Fe1 2.126279 1_555
B1 Fe2 2.126281 1_655
B1 Nd3 2.699902 1_555
B1 Nd2 2.699906 1_555
B1 Nd0 2.719100 1_555
B1 Nd1 2.719102 1_655
B2 B4 1.792374 1_465
B2 B3 1.795502 1_555
B2 B5 1.795502 1_555
B2 Fe1 2.126284 1_455
B2 Fe2 2.126284 1_565
B2 Nd3 2.699904 1_555
B2 Nd2 2.699904 1_555
B2 Nd1 2.719103 1_565
B2 Nd0 2.719103 1_455
B3 Fe2 2.126279 1_555
B3 Fe1 2.126281 1_455
B3 Nd2 2.699902 1_555
B3 Nd3 2.699906 1_555
B3 Nd1 2.719100 1_555
B3 Nd0 2.719102 1_455
B4 Fe2 2.126284 1_655
B4 Fe1 2.126284 1_545
B4 Nd2 2.699904 1_555
B4 Nd3 2.699904 1_555
B4 Nd0 2.719103 1_545
B4 Nd1 2.719103 1_655
B5 Fe1 2.126279 1_555
B5 Fe2 2.126281 1_565
B5 Nd3 2.699902 1_555
B5 Nd2 2.699906 1_555
B5 Nd0 2.719100 1_555
B5 Nd1 2.719101 1_565
