# generated using pymatgen
data_LaMg14Cu
_symmetry_space_group_name_H-M   'P 1'
_cell_length_a   6.50942956
_cell_length_b   6.50942901
_cell_length_c   10.22987844
_cell_angle_alpha   90.00000000
_cell_angle_beta   90.00000000
_cell_angle_gamma   120.00000279
_symmetry_Int_Tables_number   1
_chemical_formula_structural   LaMg14Cu
_chemical_formula_sum   'La1 Mg14 Cu1'
_cell_volume   375.39364787
_cell_formula_units_Z   1
loop_
 _symmetry_equiv_pos_site_id
 _symmetry_equiv_pos_as_xyz
  1  'x, y, z'
loop_
 _atom_site_type_symbol
 _atom_site_label
 _atom_site_symmetry_multiplicity
 _atom_site_fract_x
 _atom_site_fract_y
 _atom_site_fract_z
 _atom_site_occupancy
  La  La0  1  0.16666700  0.33333300  0.62500000  1
  Mg  Mg0  1  0.16121684  0.83060792  0.12500000  1
  Mg  Mg1  1  0.18190228  0.84095064  0.62500000  1
  Mg  Mg2  1  0.66939208  0.33878316  0.12500000  1
  Mg  Mg3  1  0.65904936  0.31809772  0.62500000  1
  Mg  Mg4  1  0.66939208  0.83060792  0.12500000  1
  Mg  Mg5  1  0.65904936  0.84095064  0.62500000  1
  Mg  Mg6  1  0.33101057  0.16898943  0.35751755  1
  Mg  Mg7  1  0.33101057  0.16898943  0.89248245  1
  Mg  Mg8  1  0.33101057  0.66202214  0.35751755  1
  Mg  Mg9  1  0.33101057  0.66202214  0.89248245  1
  Mg  Mg10  1  0.83797786  0.16898943  0.35751755  1
  Mg  Mg11  1  0.83797786  0.16898943  0.89248245  1
  Mg  Mg12  1  0.83333300  0.66666700  0.38237047  1
  Mg  Mg13  1  0.83333300  0.66666700  0.86762953  1
  Cu  Cu0  1  0.16666700  0.33333300  0.12500000  1
loop_
_geom_bond_atom_site_label_1
_geom_bond_atom_site_label_2
_geom_bond_distance
_geom_bond_site_symmetry_2
La0 Mg1 3.255847 1_555
La0 Mg5 3.255847 1_555
La0 Mg5 3.255848 1_445
La0 Mg1 3.255848 1_545
La0 Mg3 3.255848 1_455
La0 Mg3 3.255848 1_555
La0 Mg6 3.304650 1_555
La0 Mg7 3.304650 1_555
La0 Mg8 3.304657 1_555
La0 Mg9 3.304657 1_555
La0 Mg10 3.304657 1_455
La0 Mg11 3.304657 1_455
Mg0 Mg9 3.049041 1_554
Mg0 Mg8 3.049041 1_555
Mg0 Mg7 3.049048 1_564
Mg0 Mg6 3.049048 1_565
Mg0 Mg2 3.201498 1_455
Mg0 Mg4 3.201499 1_455
Mg0 Mg13 3.216915 1_454
Mg0 Mg12 3.216915 1_455
Mg0 Mg2 3.307931 1_565
Mg0 Mg4 3.307931 1_555
Mg1 Mg3 3.105955 1_565
Mg1 Mg5 3.105955 1_555
Mg1 Mg13 3.165739 1_455
Mg1 Mg12 3.165739 1_455
Mg1 Mg8 3.304022 1_555
Mg1 Mg9 3.304022 1_555
Mg1 Mg6 3.304028 1_565
Mg1 Mg7 3.304028 1_565
Mg1 Mg3 3.403474 1_455
Mg1 Mg5 3.403474 1_455
Mg2 Mg7 3.049048 1_554
Mg2 Mg6 3.049048 1_555
Mg2 Mg4 3.201498 1_555
Mg2 Mg4 3.307931 1_545
Mg3 Mg5 3.105955 1_545
Mg3 Mg7 3.304029 1_555
Mg3 Mg6 3.304029 1_555
Mg3 Mg5 3.403474 1_555
Mg4 Mg9 3.049048 1_554
Mg4 Mg8 3.049048 1_555
Mg5 Mg9 3.304028 1_555
Mg5 Mg8 3.304028 1_555
Mg6 Mg8 3.209361 1_555
Mg6 Mg8 3.300068 1_545
Mg7 Mg9 3.209361 1_555
Mg7 Mg9 3.300068 1_545
Mg10 Mg2 3.049041 1_555
Mg10 Mg4 3.049048 1_545
Mg10 Mg8 3.209361 1_655
Mg10 Mg6 3.209362 1_655
Mg10 Mg12 3.264734 1_545
Mg10 Mg12 3.264734 1_555
Mg10 Mg8 3.300068 1_545
Mg10 Mg6 3.300068 1_555
Mg10 Mg3 3.304022 1_555
Mg10 Mg5 3.304028 1_545
Mg11 Mg2 3.049041 1_556
Mg11 Mg4 3.049048 1_546
Mg11 Mg9 3.209361 1_655
Mg11 Mg7 3.209362 1_655
Mg11 Mg13 3.264734 1_545
Mg11 Mg13 3.264734 1_555
Mg11 Mg9 3.300068 1_545
Mg11 Mg7 3.300068 1_555
Mg11 Mg3 3.304022 1_555
Mg11 Mg5 3.304028 1_545
Mg12 Mg5 3.165732 1_555
Mg12 Mg3 3.165739 1_555
Mg12 Mg4 3.216909 1_555
Mg12 Mg2 3.216915 1_555
Mg12 Mg6 3.264734 1_665
Mg12 Mg6 3.264734 1_555
Mg12 Mg8 3.264735 1_555
Mg12 Mg8 3.264735 1_655
Mg13 Mg5 3.165732 1_555
Mg13 Mg3 3.165739 1_555
Mg13 Mg4 3.216909 1_556
Mg13 Mg2 3.216915 1_556
Mg13 Mg7 3.264734 1_665
Mg13 Mg7 3.264734 1_555
Mg13 Mg9 3.264735 1_555
Mg13 Mg9 3.264735 1_655
Cu0 Mg7 3.015157 1_554
Cu0 Mg6 3.015157 1_555
Cu0 Mg9 3.015163 1_554
Cu0 Mg8 3.015163 1_555
Cu0 Mg11 3.015163 1_454
Cu0 Mg10 3.015163 1_455
Cu0 Mg4 3.254860 1_445
Cu0 Mg0 3.254860 1_545
Cu0 Mg0 3.254860 1_555
Cu0 Mg4 3.254860 1_555
Cu0 Mg2 3.254860 1_455
Cu0 Mg2 3.254860 1_555
