# generated using pymatgen
data_TaTiAlO6
_symmetry_space_group_name_H-M   'P 1'
_cell_length_a   4.62678300
_cell_length_b   4.62678300
_cell_length_c   8.93430200
_cell_angle_alpha   90.00000000
_cell_angle_beta   90.00000000
_cell_angle_gamma   90.00000000
_symmetry_Int_Tables_number   1
_chemical_formula_structural   TaTiAlO6
_chemical_formula_sum   'Ta2 Ti2 Al2 O12'
_cell_volume   191.25768333
_cell_formula_units_Z   2
loop_
 _symmetry_equiv_pos_site_id
 _symmetry_equiv_pos_as_xyz
  1  'x, y, z'
loop_
 _atom_site_type_symbol
 _atom_site_label
 _atom_site_symmetry_multiplicity
 _atom_site_fract_x
 _atom_site_fract_y
 _atom_site_fract_z
 _atom_site_occupancy
  Ta  Ta0  1  0.50000000  0.50000000  0.83330600  1
  Ta  Ta1  1  0.00000000  0.00000000  0.33330600  1
  Ti  Ti0  1  0.50000000  0.50000000  0.49814000  1
  Ti  Ti1  1  0.00000000  0.00000000  0.99814000  1
  Al  Al0  1  0.50000000  0.50000000  0.16733200  1
  Al  Al1  1  0.00000000  0.00000000  0.66733200  1
  O  O0  1  0.20063700  0.79936300  0.16609000  1
  O  O1  1  0.19511600  0.80488400  0.50471400  1
  O  O2  1  0.19148600  0.80851400  0.82980700  1
  O  O3  1  0.79936300  0.20063700  0.16609000  1
  O  O4  1  0.80488400  0.19511600  0.50471400  1
  O  O5  1  0.80851400  0.19148600  0.82980700  1
  O  O6  1  0.30851400  0.30851400  0.32980700  1
  O  O7  1  0.29936300  0.29936300  0.66609000  1
  O  O8  1  0.30488400  0.30488400  0.00471400  1
  O  O9  1  0.69148600  0.69148600  0.32980700  1
  O  O10  1  0.70063700  0.70063700  0.66609000  1
  O  O11  1  0.69511600  0.69511600  0.00471400  1
loop_
_geom_bond_atom_site_label_1
_geom_bond_atom_site_label_2
_geom_bond_distance
_geom_bond_site_symmetry_2
Al0 O6 1.917553 1_555
Al0 O9 1.917553 1_555
Al0 O11 1.934116 1_555
Al0 O8 1.934116 1_555
Al0 O3 1.958841 1_555
Al0 O0 1.958841 1_555
Al1 O5 1.917553 1_455
Al1 O2 1.917553 1_545
Al1 O1 1.934116 1_545
Al1 O4 1.934116 1_455
Al1 O7 1.958841 1_555
Al1 O10 1.958841 1_445
O0 Ta1 1.988821 1_565
O0 Ti1 1.993751 1_564
O1 Ta1 1.993782 1_565
O1 Ti0 1.995799 1_555
O2 Ti1 1.957471 1_565
O2 Ta0 2.018929 1_555
O3 Ta1 1.988821 1_655
O3 Ti1 1.993751 1_654
O4 Ta1 1.993782 1_655
O4 Ti0 1.995799 1_555
O5 Ti1 1.957471 1_655
O5 Ta0 2.018929 1_555
O6 Ti0 1.957471 1_555
O6 Ta1 2.018929 1_555
O7 Ta0 1.988821 1_555
O7 Ti0 1.993751 1_555
O8 Ta0 1.993782 1_554
O8 Ti1 1.995799 1_554
O9 Ti0 1.957471 1_555
O9 Ta1 2.018929 1_665
O10 Ta0 1.988821 1_555
O10 Ti0 1.993751 1_555
O11 Ta0 1.993782 1_554
O11 Ti1 1.995799 1_664
