# generated using pymatgen
data_Dy3InS6
_symmetry_space_group_name_H-M   'P 1'
_cell_length_a   3.85588600
_cell_length_b   13.42820500
_cell_length_c   16.64337300
_cell_angle_alpha   90.00000000
_cell_angle_beta   90.00000000
_cell_angle_gamma   90.00000000
_symmetry_Int_Tables_number   1
_chemical_formula_structural   Dy3InS6
_chemical_formula_sum   'Dy12 In4 S24'
_cell_volume   861.75437028
_cell_formula_units_Z   4
loop_
 _symmetry_equiv_pos_site_id
 _symmetry_equiv_pos_as_xyz
  1  'x, y, z'
loop_
 _atom_site_type_symbol
 _atom_site_label
 _atom_site_symmetry_multiplicity
 _atom_site_fract_x
 _atom_site_fract_y
 _atom_site_fract_z
 _atom_site_occupancy
  Dy  Dy0  1  0.25407200  0.03656300  0.77666800  1
  Dy  Dy1  1  0.25407200  0.96343700  0.22333200  1
  Dy  Dy2  1  0.74592800  0.46343700  0.27666800  1
  Dy  Dy3  1  0.74592800  0.53656300  0.72333200  1
  Dy  Dy4  1  0.26327800  0.24642300  0.61019300  1
  Dy  Dy5  1  0.26327800  0.75357700  0.38980700  1
  Dy  Dy6  1  0.73672200  0.25357700  0.11019300  1
  Dy  Dy7  1  0.73672200  0.74642300  0.88980700  1
  Dy  Dy8  1  0.74726800  0.30903700  0.85650600  1
  Dy  Dy9  1  0.74726800  0.69096300  0.14349400  1
  Dy  Dy10  1  0.25273200  0.19096300  0.35650600  1
  Dy  Dy11  1  0.25273200  0.80903700  0.64349400  1
  In  In0  1  0.75458600  0.00000000  0.50000000  1
  In  In1  1  0.24541400  0.50000000  0.00000000  1
  In  In2  1  0.39203700  0.50000000  0.50000000  1
  In  In3  1  0.60796300  0.00000000  0.00000000  1
  S  S0  1  0.76874100  0.39658000  0.59339100  1
  S  S1  1  0.76874100  0.60342000  0.40660900  1
  S  S2  1  0.23125900  0.10342000  0.09339100  1
  S  S3  1  0.23125900  0.89658000  0.90660900  1
  S  S4  1  0.24596100  0.30673400  0.98060500  1
  S  S5  1  0.24596100  0.69326600  0.01939500  1
  S  S6  1  0.75403900  0.19326600  0.48060500  1
  S  S7  1  0.75403900  0.80673400  0.51939500  1
  S  S8  1  0.75236300  0.10808100  0.88435800  1
  S  S9  1  0.75236300  0.89191900  0.11564200  1
  S  S10  1  0.24763700  0.39191900  0.38435800  1
  S  S11  1  0.24763700  0.60808100  0.61564200  1
  S  S12  1  0.75893100  0.17888200  0.71692600  1
  S  S13  1  0.75893100  0.82111800  0.28307400  1
  S  S14  1  0.24106900  0.32111800  0.21692600  1
  S  S15  1  0.24106900  0.67888200  0.78307400  1
  S  S16  1  0.24861800  0.38525200  0.75634100  1
  S  S17  1  0.24861800  0.61474800  0.24365900  1
  S  S18  1  0.75138200  0.11474800  0.25634100  1
  S  S19  1  0.75138200  0.88525200  0.74365900  1
  S  S20  1  0.25414500  0.02081200  0.60586500  1
  S  S21  1  0.25414500  0.97918800  0.39413500  1
  S  S22  1  0.74585500  0.47918800  0.10586500  1
  S  S23  1  0.74585500  0.52081200  0.89413500  1
loop_
_geom_bond_atom_site_label_1
_geom_bond_atom_site_label_2
_geom_bond_distance
_geom_bond_site_symmetry_2
Dy0 S8 2.797555 1_555
Dy0 S8 2.806623 1_455
Dy0 S19 2.847323 1_545
Dy0 S20 2.850596 1_555
Dy0 S19 2.861335 1_445
Dy0 S3 2.866735 1_545
Dy0 S12 2.878538 1_455
Dy0 S12 2.903527 1_555
Dy1 S9 2.797555 1_555
Dy1 S9 2.806623 1_455
Dy1 S18 2.847323 1_565
Dy1 S21 2.850596 1_555
Dy1 S18 2.861335 1_465
Dy1 S2 2.866735 1_565
Dy1 S13 2.878538 1_455
Dy1 S13 2.903527 1_555
Dy2 S10 2.797555 1_555
Dy2 S10 2.806623 1_655
Dy2 S17 2.847323 1_555
Dy2 S22 2.850596 1_555
Dy2 S17 2.861335 1_655
Dy2 S1 2.866735 1_555
Dy2 S14 2.878538 1_655
Dy2 S14 2.903527 1_555
Dy3 S11 2.797555 1_555
Dy3 S11 2.806623 1_655
Dy3 S16 2.847323 1_555
Dy3 S23 2.850596 1_555
Dy3 S16 2.861335 1_655
Dy3 S0 2.866735 1_555
Dy3 S15 2.878538 1_655
Dy3 S15 2.903527 1_555
Dy4 S12 2.762384 1_555
Dy4 S12 2.785683 1_455
Dy4 S0 2.789266 1_455
Dy4 S0 2.818236 1_555
Dy4 S6 2.956703 1_555
Dy4 S6 3.002802 1_455
Dy4 S20 3.030612 1_555
Dy4 S16 3.065139 1_555
Dy5 S13 2.762384 1_555
Dy5 S13 2.785683 1_455
Dy5 S1 2.789266 1_455
Dy5 S1 2.818236 1_555
Dy5 S7 2.956703 1_555
Dy5 S7 3.002802 1_455
Dy5 S21 3.030612 1_555
Dy5 S17 3.065139 1_555
Dy6 S14 2.762384 1_555
Dy6 S14 2.785683 1_655
Dy6 S2 2.789266 1_655
Dy6 S2 2.818236 1_555
Dy6 S4 2.956703 1_554
Dy6 S4 3.002802 1_654
Dy6 S22 3.030612 1_555
Dy6 S18 3.065139 1_555
Dy7 S15 2.762384 1_555
Dy7 S15 2.785683 1_655
Dy7 S3 2.789266 1_655
Dy7 S3 2.818236 1_555
Dy7 S5 2.956703 1_556
Dy7 S5 3.002802 1_656
Dy7 S23 3.030612 1_555
Dy7 S19 3.065139 1_555
Dy8 S8 2.738074 1_555
Dy8 S16 2.742899 1_555
Dy8 S16 2.750207 1_655
Dy8 S4 2.822144 1_655
Dy8 S4 2.829021 1_555
Dy8 S12 2.907465 1_555
Dy8 S23 2.911908 1_555
Dy9 S9 2.738074 1_555
Dy9 S17 2.742899 1_555
Dy9 S17 2.750207 1_655
Dy9 S5 2.822144 1_655
Dy9 S5 2.829021 1_555
Dy9 S13 2.907465 1_555
Dy9 S22 2.911908 1_555
Dy10 S10 2.738074 1_555
Dy10 S18 2.742899 1_555
Dy10 S18 2.750207 1_455
Dy10 S6 2.822144 1_455
Dy10 S6 2.829021 1_555
Dy10 S14 2.907465 1_555
Dy10 S21 2.911908 1_545
Dy11 S11 2.738074 1_555
Dy11 S19 2.742899 1_555
Dy11 S19 2.750207 1_455
Dy11 S7 2.822144 1_455
Dy11 S7 2.829021 1_555
Dy11 S15 2.907465 1_555
Dy11 S20 2.911908 1_565
In0 S6 2.615214 1_555
In0 S7 2.615214 1_545
In0 S21 2.625449 1_645
In0 S20 2.625449 1_655
In0 S21 2.627945 1_545
In0 S20 2.627945 1_555
In1 S4 2.615214 1_554
In1 S5 2.615214 1_555
In1 S23 2.625449 1_454
In1 S22 2.625449 1_455
In1 S22 2.627945 1_555
In1 S23 2.627945 1_554
In2 S11 2.474015 1_555
In2 S10 2.474015 1_555
In2 S1 2.540556 1_555
In2 S0 2.540556 1_555
In3 S9 2.474015 1_545
In3 S8 2.474015 1_554
In3 S3 2.540556 1_544
In3 S2 2.540556 1_555
