# generated using pymatgen
data_Lu3Ga9Pd2
_symmetry_space_group_name_H-M   'P 1'
_cell_length_a   8.08969023
_cell_length_b   8.08969023
_cell_length_c   8.08969023
_cell_angle_alpha   149.39840270
_cell_angle_beta   108.43025308
_cell_angle_gamma   79.81204406
_symmetry_Int_Tables_number   1
_chemical_formula_structural   Lu3Ga9Pd2
_chemical_formula_sum   'Lu3 Ga9 Pd2'
_cell_volume   250.66226046
_cell_formula_units_Z   1
loop_
 _symmetry_equiv_pos_site_id
 _symmetry_equiv_pos_as_xyz
  1  'x, y, z'
loop_
 _atom_site_type_symbol
 _atom_site_label
 _atom_site_symmetry_multiplicity
 _atom_site_fract_x
 _atom_site_fract_y
 _atom_site_fract_z
 _atom_site_occupancy
  Lu  Lu0  1  0.50000000  0.50000000  0.00000000  1
  Lu  Lu1  1  0.20022600  0.20022600  0.00000000  1
  Lu  Lu2  1  0.79977400  0.79977400  0.00000000  1
  Ga  Ga0  1  0.64579200  0.36317900  0.28261300  1
  Ga  Ga1  1  0.35420800  0.63682100  0.71738700  1
  Ga  Ga2  1  0.08056600  0.36317900  0.71738700  1
  Ga  Ga3  1  0.91943400  0.63682100  0.28261300  1
  Ga  Ga4  1  0.52280500  0.15505700  0.36774700  1
  Ga  Ga5  1  0.47719500  0.84494300  0.63225300  1
  Ga  Ga6  1  0.78731000  0.15505700  0.63225300  1
  Ga  Ga7  1  0.21269000  0.84494300  0.36774700  1
  Ga  Ga8  1  0.00000000  0.50000000  0.50000000  1
  Pd  Pd0  1  0.18099800  0.00000000  0.18099800  1
  Pd  Pd1  1  0.81900200  0.00000000  0.81900200  1
loop_
_geom_bond_atom_site_label_1
_geom_bond_atom_site_label_2
_geom_bond_distance
_geom_bond_site_symmetry_2
Lu1 Pd0 3.017892 1_555
Lu1 Pd1 3.017892 1_454
Lu2 Pd0 3.017892 1_665
Lu2 Pd1 3.017892 1_564
Ga0 Ga5 2.575268 1_544
Ga0 Ga5 2.575272 1_555
Ga0 Ga8 2.667094 1_655
Ga0 Ga4 2.705694 1_555
Ga0 Pd1 2.749417 1_554
Ga0 Pd1 2.749417 1_565
Ga0 Lu2 3.066966 1_545
Ga0 Lu2 3.066966 1_556
Ga0 Lu0 3.167407 1_555
Ga0 Lu1 3.352483 1_555
Ga1 Ga4 2.575268 1_566
Ga1 Ga4 2.575272 1_555
Ga1 Ga8 2.667094 1_555
Ga1 Ga5 2.705694 1_555
Ga1 Pd0 2.749417 1_566
Ga1 Pd0 2.749417 1_555
Ga1 Lu1 3.066966 1_555
Ga1 Lu1 3.066966 1_566
Ga1 Lu0 3.167407 1_556
Ga1 Lu2 3.352483 1_556
Ga2 Ga7 2.575267 1_545
Ga2 Ga7 2.575267 1_556
Ga2 Ga8 2.667094 1_555
Ga2 Ga6 2.705698 1_455
Ga2 Pd0 2.749417 1_566
Ga2 Pd0 2.749417 1_555
Ga2 Lu2 3.066966 1_445
Ga2 Lu2 3.066966 1_456
Ga2 Lu0 3.167407 1_556
Ga2 Lu1 3.352483 1_556
Ga3 Ga6 2.575267 1_565
Ga3 Ga6 2.575267 1_554
Ga3 Ga8 2.667094 1_655
Ga3 Ga7 2.705698 1_655
Ga3 Pd1 2.749417 1_565
Ga3 Pd1 2.749417 1_554
Ga3 Lu1 3.066966 1_655
Ga3 Lu1 3.066966 1_666
Ga3 Lu0 3.167407 1_555
Ga3 Lu2 3.352483 1_555
Ga4 Ga6 2.502430 1_555
Ga4 Pd0 2.612481 1_555
Ga4 Lu2 3.057565 1_545
Ga4 Lu2 3.057568 1_556
Ga4 Lu0 3.134679 1_545
Ga4 Lu0 3.134682 1_556
Ga5 Ga7 2.502430 1_555
Ga5 Pd1 2.612481 1_565
Ga5 Lu1 3.057565 1_566
Ga5 Lu1 3.057568 1_555
Ga5 Lu0 3.134679 1_566
Ga5 Lu0 3.134682 1_555
Ga6 Pd1 2.612474 1_555
Ga6 Lu2 3.057572 1_556
Ga6 Lu2 3.057572 1_545
Ga6 Lu0 3.134678 1_545
Ga6 Lu0 3.134678 1_556
Ga7 Pd0 2.612474 1_565
Ga7 Lu1 3.057572 1_566
Ga7 Lu1 3.057572 1_555
Ga7 Lu0 3.134678 1_555
Ga7 Lu0 3.134678 1_566
Ga8 Pd0 2.736687 1_566
Ga8 Pd0 2.736687 1_555
Ga8 Pd1 2.736687 1_454
Ga8 Pd1 2.736687 1_465
Ga8 Lu1 3.276067 1_566
Ga8 Lu1 3.276067 1_555
Ga8 Lu2 3.276067 1_445
Ga8 Lu2 3.276067 1_456
