# generated using pymatgen
data_Cs2Mo4O13
_symmetry_space_group_name_H-M   'P 1'
_cell_length_a   8.43423482
_cell_length_b   8.69187258
_cell_length_c   10.44424151
_cell_angle_alpha   106.29937705
_cell_angle_beta   103.39175806
_cell_angle_gamma   109.63450549
_symmetry_Int_Tables_number   1
_chemical_formula_structural   Cs2Mo4O13
_chemical_formula_sum   'Cs4 Mo8 O26'
_cell_volume   645.60946375
_cell_formula_units_Z   2
loop_
 _symmetry_equiv_pos_site_id
 _symmetry_equiv_pos_as_xyz
  1  'x, y, z'
loop_
 _atom_site_type_symbol
 _atom_site_label
 _atom_site_symmetry_multiplicity
 _atom_site_fract_x
 _atom_site_fract_y
 _atom_site_fract_z
 _atom_site_occupancy
  Cs  Cs0  1  0.57719893  0.12748690  0.30675212  1
  Cs  Cs1  1  0.42280107  0.87251310  0.69324788  1
  Cs  Cs2  1  0.85203364  0.80942939  0.58693766  1
  Cs  Cs3  1  0.14796636  0.19057061  0.41306234  1
  Mo  Mo0  1  0.62087820  0.43656065  0.73187140  1
  Mo  Mo1  1  0.37912180  0.56343935  0.26812860  1
  Mo  Mo2  1  0.64876160  0.71396245  0.04975392  1
  Mo  Mo3  1  0.35123840  0.28603755  0.95024608  1
  Mo  Mo4  1  0.00409337  0.41629014  0.71261554  1
  Mo  Mo5  1  0.99590663  0.58370986  0.28738446  1
  Mo  Mo6  1  0.96337378  0.28436130  0.96685675  1
  Mo  Mo7  1  0.03662622  0.71563870  0.03314325  1
  O  O0  1  0.15206377  0.93371419  0.14331163  1
  O  O1  1  0.84793623  0.06628581  0.85668837  1
  O  O2  1  0.81195298  0.49005065  0.66284923  1
  O  O3  1  0.18804702  0.50994935  0.33715077  1
  O  O4  1  0.48223352  0.56927086  0.11464140  1
  O  O5  1  0.51776648  0.43072914  0.88535860  1
  O  O6  1  0.20048796  0.29832376  0.07024226  1
  O  O7  1  0.79951204  0.70167624  0.92975774  1
  O  O8  1  0.84953889  0.39552218  0.87208348  1
  O  O9  1  0.15046111  0.60447782  0.12791652  1
  O  O10  1  0.84990174  0.48789477  0.36041925  1
  O  O11  1  0.15009826  0.51210523  0.63958075  1
  O  O12  1  0.14072838  0.38085853  0.86237407  1
  O  O13  1  0.85927162  0.61914147  0.13762593  1
  O  O14  1  0.88635609  0.19945590  0.59052874  1
  O  O15  1  0.11364391  0.80054410  0.40947126  1
  O  O16  1  0.51333278  0.53993538  0.65525828  1
  O  O17  1  0.48666722  0.46006462  0.34474172  1
  O  O18  1  0.77554684  0.90058334  0.20283193  1
  O  O19  1  0.22445316  0.09941666  0.79716807  1
  O  O20  1  0.49544729  0.21561401  0.62648762  1
  O  O21  1  0.50455271  0.78438599  0.37351238  1
  O  O22  1  0.89054284  0.30682932  0.11134738  1
  O  O23  1  0.10945716  0.69317068  0.88865262  1
  O  O24  1  0.51365996  0.77775627  0.95179577  1
  O  O25  1  0.48634004  0.22224373  0.04820423  1
loop_
_geom_bond_atom_site_label_1
_geom_bond_atom_site_label_2
_geom_bond_distance
_geom_bond_site_symmetry_2
Cs0 O10 2.998793 1_555
Cs0 O25 3.044898 1_555
Cs0 O18 3.118192 1_545
Cs0 O21 3.145178 1_545
Cs0 O17 3.174372 1_555
Cs0 O0 3.178071 1_545
Cs0 O14 3.202812 1_555
Cs0 O20 3.492770 1_555
Cs1 O11 2.998793 1_555
Cs1 O24 3.044898 1_555
Cs1 O19 3.118192 1_565
Cs1 O20 3.145178 1_565
Cs1 O16 3.174372 1_555
Cs1 O1 3.178071 1_565
Cs1 O15 3.202812 1_555
Cs1 O21 3.492770 1_555
Cs2 O2 3.029512 1_555
Cs2 O19 3.068983 1_665
Cs2 O1 3.080471 1_565
Cs2 O10 3.105346 1_555
Cs2 O21 3.142953 1_555
Cs2 O15 3.199780 1_655
Cs2 O14 3.292690 1_565
Cs2 O17 3.302250 1_555
Cs2 O16 3.397373 1_555
Cs3 O3 3.029512 1_555
Cs3 O18 3.068983 1_445
Cs3 O0 3.080471 1_545
Cs3 O11 3.105346 1_555
Cs3 O20 3.142953 1_555
Cs3 O14 3.199780 1_455
Cs3 O15 3.292690 1_545
Cs3 O16 3.302250 1_555
Cs3 O17 3.397373 1_555
Mo0 O16 1.698661 1_555
Mo0 O20 1.711000 1_555
Mo0 O2 1.885664 1_555
Mo0 O5 1.997612 1_555
Mo0 O7 2.324362 1_555
Mo0 O8 2.332045 1_555
Mo1 O17 1.698661 1_555
Mo1 O21 1.711000 1_555
Mo1 O3 1.885664 1_555
Mo1 O4 1.997612 1_555
Mo1 O6 2.324362 1_555
Mo1 O9 2.332045 1_555
Mo2 O24 1.689859 1_554
Mo2 O18 1.708053 1_555
Mo2 O4 1.935432 1_555
Mo2 O7 1.988206 1_554
Mo2 O5 2.269376 1_554
Mo2 O13 2.308046 1_555
Mo3 O25 1.689859 1_556
Mo3 O19 1.708053 1_555
Mo3 O5 1.935432 1_555
Mo3 O6 1.988206 1_556
Mo3 O4 2.269376 1_556
Mo3 O12 2.308046 1_555
Mo4 O11 1.701280 1_555
Mo4 O14 1.723615 1_455
Mo4 O12 1.882364 1_555
Mo4 O2 1.949999 1_455
Mo4 O23 2.298715 1_555
Mo4 O8 2.349913 1_455
Mo5 O10 1.701280 1_555
Mo5 O15 1.723615 1_655
Mo5 O13 1.882364 1_555
Mo5 O3 1.949999 1_655
Mo5 O22 2.298715 1_555
Mo5 O9 2.349913 1_655
Mo6 O1 1.697456 1_555
Mo6 O22 1.742823 1_556
Mo6 O8 1.885510 1_555
Mo6 O6 1.985754 1_656
Mo6 O12 2.135084 1_655
Mo6 O9 2.500810 1_656
Mo7 O0 1.697456 1_555
Mo7 O23 1.742823 1_554
Mo7 O9 1.885510 1_555
Mo7 O7 1.985754 1_454
Mo7 O13 2.135084 1_455
Mo7 O8 2.500810 1_454
