# generated using pymatgen
data_SmCrSb3
_symmetry_space_group_name_H-M   'P 1'
_cell_length_a   6.08666400
_cell_length_b   6.23152200
_cell_length_c   13.03769100
_cell_angle_alpha   90.00000000
_cell_angle_beta   90.00000000
_cell_angle_gamma   90.00000000
_symmetry_Int_Tables_number   1
_chemical_formula_structural   SmCrSb3
_chemical_formula_sum   'Sm4 Cr4 Sb12'
_cell_volume   494.50893684
_cell_formula_units_Z   4
loop_
 _symmetry_equiv_pos_site_id
 _symmetry_equiv_pos_as_xyz
  1  'x, y, z'
loop_
 _atom_site_type_symbol
 _atom_site_label
 _atom_site_symmetry_multiplicity
 _atom_site_fract_x
 _atom_site_fract_y
 _atom_site_fract_z
 _atom_site_occupancy
  Sm  Sm0  1  0.25000000  0.50461900  0.30843000  1
  Sm  Sm1  1  0.75000000  0.49538100  0.69157000  1
  Sm  Sm2  1  0.25000000  0.00461900  0.69157000  1
  Sm  Sm3  1  0.75000000  0.99538100  0.30843000  1
  Cr  Cr0  1  0.00000000  0.75000000  0.90600000  1
  Cr  Cr1  1  0.00000000  0.25000000  0.09400000  1
  Cr  Cr2  1  0.50000000  0.25000000  0.09400000  1
  Cr  Cr3  1  0.50000000  0.75000000  0.90600000  1
  Sb  Sb0  1  0.00000000  0.75000000  0.50147300  1
  Sb  Sb1  1  0.00000000  0.25000000  0.49852700  1
  Sb  Sb2  1  0.50000000  0.25000000  0.49852700  1
  Sb  Sb3  1  0.50000000  0.75000000  0.50147300  1
  Sb  Sb4  1  0.25000000  0.60134300  0.06287100  1
  Sb  Sb5  1  0.75000000  0.39865700  0.93712900  1
  Sb  Sb6  1  0.25000000  0.10134300  0.93712900  1
  Sb  Sb7  1  0.75000000  0.89865700  0.06287100  1
  Sb  Sb8  1  0.25000000  0.99814700  0.22076800  1
  Sb  Sb9  1  0.75000000  0.00185300  0.77923200  1
  Sb  Sb10  1  0.25000000  0.49814700  0.77923200  1
  Sb  Sb11  1  0.75000000  0.50185300  0.22076800  1
loop_
_geom_bond_atom_site_label_1
_geom_bond_atom_site_label_2
_geom_bond_distance
_geom_bond_site_symmetry_2
Cr0 Sb6 2.696973 1_565
Cr0 Sb5 2.696973 1_455
Cr0 Sb4 2.712305 1_556
Cr0 Sb7 2.712305 1_456
Cr0 Sb10 2.740473 1_555
Cr0 Sb9 2.740473 1_465
Cr1 Sb4 2.696973 1_555
Cr1 Sb7 2.696973 1_445
Cr1 Sb6 2.712305 1_554
Cr1 Sb5 2.712305 1_454
Cr1 Sb8 2.740473 1_545
Cr1 Sb11 2.740473 1_455
Cr2 Sb4 2.696973 1_555
Cr2 Sb7 2.696973 1_545
Cr2 Sb5 2.712305 1_554
Cr2 Sb6 2.712305 1_554
Cr2 Sb8 2.740473 1_545
Cr2 Sb11 2.740473 1_555
Cr3 Sb6 2.696973 1_565
Cr3 Sb5 2.696973 1_555
Cr3 Sb7 2.712305 1_556
Cr3 Sb4 2.712305 1_556
Cr3 Sb10 2.740473 1_555
Cr3 Sb9 2.740473 1_565
Sb0 Sb3 3.043332 1_555
Sb0 Sb3 3.043332 1_455
Sb0 Sb1 3.115998 1_565
Sb0 Sb1 3.115998 1_555
Sb0 Sm1 3.312939 1_455
Sb0 Sm2 3.312939 1_565
Sb0 Sm3 3.314825 1_455
Sb0 Sm0 3.314825 1_555
Sb1 Sb2 3.043332 1_455
Sb1 Sb2 3.043332 1_555
Sb1 Sm3 3.312939 1_445
Sb1 Sm0 3.312939 1_555
Sb1 Sm2 3.314825 1_555
Sb1 Sm1 3.314825 1_455
Sb2 Sb3 3.115998 1_555
Sb2 Sb3 3.115998 1_545
Sb2 Sm3 3.312939 1_545
Sb2 Sm0 3.312939 1_555
Sb2 Sm2 3.314825 1_555
Sb2 Sm1 3.314825 1_555
Sb3 Sm1 3.312939 1_555
Sb3 Sm2 3.312939 1_565
Sb3 Sm3 3.314825 1_555
Sb3 Sm0 3.314825 1_555
Sb4 Sb8 3.217467 1_555
Sb4 Sm0 3.257766 1_555
Sb5 Sb9 3.217467 1_555
Sb5 Sm1 3.257766 1_555
Sb6 Sm2 3.257766 1_555
Sb7 Sm3 3.257766 1_555
Sb8 Sm3 3.250909 1_555
Sb8 Sm3 3.250909 1_455
Sb8 Sm0 3.280932 1_555
Sb8 Sm0 3.356659 1_565
Sb9 Sm2 3.250909 1_555
Sb9 Sm2 3.250909 1_655
Sb9 Sm1 3.280932 1_555
Sb9 Sm1 3.356659 1_545
Sb10 Sb6 3.217467 1_555
Sb10 Sm1 3.250909 1_555
Sb10 Sm1 3.250909 1_455
Sb10 Sm2 3.280932 1_555
Sb10 Sm2 3.356659 1_565
Sb11 Sb7 3.217467 1_555
Sb11 Sm0 3.250909 1_555
Sb11 Sm0 3.250909 1_655
Sb11 Sm3 3.280932 1_555
Sb11 Sm3 3.356659 1_545
