# generated using pymatgen
data_YSnPt2
_symmetry_space_group_name_H-M   'P 1'
_cell_length_a   4.52766581
_cell_length_b   4.52766581
_cell_length_c   9.10278163
_cell_angle_alpha   90.00000000
_cell_angle_beta   90.00000000
_cell_angle_gamma   119.99999024
_symmetry_Int_Tables_number   1
_chemical_formula_structural   YSnPt2
_chemical_formula_sum   'Y2 Sn2 Pt4'
_cell_volume   161.60452862
_cell_formula_units_Z   2
loop_
 _symmetry_equiv_pos_site_id
 _symmetry_equiv_pos_as_xyz
  1  'x, y, z'
loop_
 _atom_site_type_symbol
 _atom_site_label
 _atom_site_symmetry_multiplicity
 _atom_site_fract_x
 _atom_site_fract_y
 _atom_site_fract_z
 _atom_site_occupancy
  Y  Y0  1  0.33333300  0.66666700  0.25000000  1
  Y  Y1  1  0.66666700  0.33333300  0.75000000  1
  Sn  Sn0  1  0.00000000  -0.00000000  0.50000000  1
  Sn  Sn1  1  0.00000000  -0.00000000  -0.00000000  1
  Pt  Pt0  1  0.33333300  0.66666700  0.91178199  1
  Pt  Pt1  1  0.66666700  0.33333300  0.08821801  1
  Pt  Pt2  1  0.66666700  0.33333300  0.41178199  1
  Pt  Pt3  1  0.33333300  0.66666700  0.58821801  1
loop_
_geom_bond_atom_site_label_1
_geom_bond_atom_site_label_2
_geom_bond_distance
_geom_bond_site_symmetry_2
Sn0 Y1 3.465837 1_455
Sn0 Y0 3.465837 1_545
Sn0 Y1 3.465840 1_555
Sn0 Y0 3.465840 1_555
Sn0 Y1 3.465840 1_445
Sn0 Y0 3.465840 1_445
Sn1 Y1 3.465837 1_454
Sn1 Y0 3.465837 1_545
Sn1 Y1 3.465840 1_444
Sn1 Y0 3.465840 1_555
Sn1 Y1 3.465840 1_554
Sn1 Y0 3.465840 1_445
Pt0 Sn1 2.734610 1_566
Pt0 Sn1 2.734615 1_556
Pt0 Sn1 2.734615 1_666
Pt0 Pt3 2.945332 1_555
Pt0 Y1 3.000331 1_455
Pt0 Y1 3.000331 1_565
Pt0 Y1 3.000337 1_555
Pt0 Pt1 3.068007 1_456
Pt0 Pt1 3.068007 1_566
Pt0 Pt1 3.068013 1_556
Pt0 Y0 3.078725 1_556
Pt1 Sn1 2.734610 1_655
Pt1 Sn1 2.734615 1_555
Pt1 Sn1 2.734615 1_665
Pt1 Pt2 2.945332 1_555
Pt1 Y0 3.000331 1_545
Pt1 Y0 3.000331 1_655
Pt1 Y0 3.000337 1_555
Pt1 Y1 3.078725 1_554
Pt2 Sn0 2.734610 1_655
Pt2 Sn0 2.734615 1_665
Pt2 Sn0 2.734615 1_555
Pt2 Y0 3.000331 1_545
Pt2 Y0 3.000331 1_655
Pt2 Y0 3.000337 1_555
Pt2 Pt3 3.068007 1_655
Pt2 Pt3 3.068007 1_545
Pt2 Pt3 3.068013 1_555
Pt2 Y1 3.078725 1_555
Pt3 Sn0 2.734610 1_565
Pt3 Sn0 2.734615 1_665
Pt3 Sn0 2.734615 1_555
Pt3 Y1 3.000331 1_455
Pt3 Y1 3.000331 1_565
Pt3 Y1 3.000337 1_555
Pt3 Y0 3.078725 1_555
