# generated using pymatgen
data_Zn4IrN4
_symmetry_space_group_name_H-M   'P 1'
_cell_length_a   5.55099099
_cell_length_b   5.79195076
_cell_length_c   8.86762265
_cell_angle_alpha   61.84454434
_cell_angle_beta   85.84280315
_cell_angle_gamma   67.00474298
_symmetry_Int_Tables_number   1
_chemical_formula_structural   Zn4IrN4
_chemical_formula_sum   'Zn8 Ir2 N8'
_cell_volume   229.18541858
_cell_formula_units_Z   2
loop_
 _symmetry_equiv_pos_site_id
 _symmetry_equiv_pos_as_xyz
  1  'x, y, z'
loop_
 _atom_site_type_symbol
 _atom_site_label
 _atom_site_symmetry_multiplicity
 _atom_site_fract_x
 _atom_site_fract_y
 _atom_site_fract_z
 _atom_site_occupancy
  Zn  Zn0  1  0.81357000  0.62752400  0.25556000  1
  Zn  Zn1  1  0.18643000  0.37247600  0.74444000  1
  Zn  Zn2  1  0.73733500  0.25713800  0.00265000  1
  Zn  Zn3  1  0.26266500  0.74286200  0.99735000  1
  Zn  Zn4  1  0.62944800  0.58258800  0.60001600  1
  Zn  Zn5  1  0.37055200  0.41741200  0.39998400  1
  Zn  Zn6  1  0.15449200  0.95148900  0.63373000  1
  Zn  Zn7  1  0.84550800  0.04851100  0.36627000  1
  Ir  Ir0  1  0.75060200  0.86042100  0.81098900  1
  Ir  Ir1  1  0.24939800  0.13957900  0.18901100  1
  N  N0  1  0.89070000  0.74655700  0.61413700  1
  N  N1  1  0.10930000  0.25344300  0.38586300  1
  N  N2  1  0.84600400  0.86000600  0.00896500  1
  N  N3  1  0.15399600  0.13999400  0.99103500  1
  N  N4  1  0.50254400  0.68273900  0.80904400  1
  N  N5  1  0.49745600  0.31726100  0.19095600  1
  N  N6  1  0.48132400  0.74834600  0.34640000  1
  N  N7  1  0.51867600  0.25165400  0.65360000  1
loop_
_geom_bond_atom_site_label_1
_geom_bond_atom_site_label_2
_geom_bond_distance
_geom_bond_site_symmetry_2
Ir0 N2 1.868776 1_556
Ir0 N7 1.933048 1_565
Ir0 N4 2.020595 1_555
Ir0 N0 2.139107 1_555
Ir1 N3 1.868776 1_554
Ir1 N6 1.933048 1_545
Ir1 N5 2.020595 1_555
Ir1 N1 2.139107 1_555
N0 Zn1 1.964125 1_655
N0 Zn7 2.015477 1_565
N0 Zn4 2.057994 1_555
N0 Zn6 2.274362 1_655
N1 Zn0 1.964125 1_455
N1 Zn6 2.015477 1_545
N1 Zn5 2.057994 1_555
N1 Zn7 2.274362 1_455
N2 Zn0 1.995195 1_555
N2 Zn2 2.111173 1_565
N2 Zn3 2.150745 1_654
N3 Zn1 1.995195 1_555
N3 Zn3 2.111173 1_545
N3 Zn2 2.150745 1_456
N4 Zn6 2.091556 1_555
N4 Zn2 2.131424 1_556
N4 Zn3 2.132312 1_555
N4 Zn4 2.185089 1_555
N5 Zn7 2.091556 1_555
N5 Zn3 2.131424 1_554
N5 Zn2 2.132312 1_555
N5 Zn5 2.185089 1_555
N6 Zn0 1.961691 1_555
N6 Zn4 2.066239 1_555
N6 Zn5 2.072870 1_555
N7 Zn1 1.961691 1_555
N7 Zn5 2.066239 1_555
N7 Zn4 2.072870 1_555
