# generated using pymatgen
data_Ba3Al2(SiO4)3
_symmetry_space_group_name_H-M   'P 1'
_cell_length_a   10.97450428
_cell_length_b   10.97450428
_cell_length_c   10.97450428
_cell_angle_alpha   109.47122063
_cell_angle_beta   109.47122063
_cell_angle_gamma   109.47122063
_symmetry_Int_Tables_number   1
_chemical_formula_structural   Ba3Al2(SiO4)3
_chemical_formula_sum   'Ba12 Al8 Si12 O48'
_cell_volume   1017.49631682
_cell_formula_units_Z   4
loop_
 _symmetry_equiv_pos_site_id
 _symmetry_equiv_pos_as_xyz
  1  'x, y, z'
loop_
 _atom_site_type_symbol
 _atom_site_label
 _atom_site_symmetry_multiplicity
 _atom_site_fract_x
 _atom_site_fract_y
 _atom_site_fract_z
 _atom_site_occupancy
  Ba  Ba0  1  0.87500000  0.62500000  0.25000000  1
  Ba  Ba1  1  0.62500000  0.25000000  0.87500000  1
  Ba  Ba2  1  0.87500000  0.75000000  0.62500000  1
  Ba  Ba3  1  0.75000000  0.62500000  0.87500000  1
  Ba  Ba4  1  0.25000000  0.87500000  0.62500000  1
  Ba  Ba5  1  0.62500000  0.87500000  0.75000000  1
  Ba  Ba6  1  0.12500000  0.37500000  0.75000000  1
  Ba  Ba7  1  0.37500000  0.75000000  0.12500000  1
  Ba  Ba8  1  0.12500000  0.25000000  0.37500000  1
  Ba  Ba9  1  0.25000000  0.37500000  0.12500000  1
  Ba  Ba10  1  0.75000000  0.12500000  0.37500000  1
  Ba  Ba11  1  0.37500000  0.12500000  0.25000000  1
  Al  Al0  1  0.50000000  0.50000000  0.00000000  1
  Al  Al1  1  0.00000000  0.50000000  0.50000000  1
  Al  Al2  1  0.50000000  0.50000000  0.50000000  1
  Al  Al3  1  0.00000000  0.00000000  0.50000000  1
  Al  Al4  1  0.00000000  0.50000000  0.00000000  1
  Al  Al5  1  0.50000000  0.00000000  0.00000000  1
  Al  Al6  1  0.00000000  0.00000000  0.00000000  1
  Al  Al7  1  0.50000000  0.00000000  0.50000000  1
  Si  Si0  1  0.87500000  0.25000000  0.12500000  1
  Si  Si1  1  0.62500000  0.75000000  0.37500000  1
  Si  Si2  1  0.75000000  0.37500000  0.62500000  1
  Si  Si3  1  0.62500000  0.37500000  0.25000000  1
  Si  Si4  1  0.37500000  0.62500000  0.75000000  1
  Si  Si5  1  0.12500000  0.75000000  0.87500000  1
  Si  Si6  1  0.75000000  0.87500000  0.12500000  1
  Si  Si7  1  0.37500000  0.25000000  0.62500000  1
  Si  Si8  1  0.25000000  0.62500000  0.37500000  1
  Si  Si9  1  0.87500000  0.12500000  0.75000000  1
  Si  Si10  1  0.25000000  0.12500000  0.87500000  1
  Si  Si11  1  0.12500000  0.87500000  0.25000000  1
  O  O0  1  0.69538600  0.08193200  0.68447000  1
  O  O1  1  0.11345500  0.01091600  0.69538600  1
  O  O2  1  0.68447000  0.48908400  0.60253900  1
  O  O3  1  0.60253900  0.68447000  0.48908400  1
  O  O4  1  0.89746100  0.38654500  0.08193200  1
  O  O5  1  0.08193200  0.89746100  0.38654500  1
  O  O6  1  0.01091600  0.69538600  0.11345500  1
  O  O7  1  0.41806800  0.11345500  0.60253900  1
  O  O8  1  0.38654500  0.80461400  0.48908400  1
  O  O9  1  0.01091600  0.81553000  0.89746100  1
  O  O10  1  0.11345500  0.60253900  0.41806800  1
  O  O11  1  0.48908400  0.38654500  0.80461400  1
  O  O12  1  0.81553000  0.89746100  0.01091600  1
  O  O13  1  0.68447000  0.69538600  0.08193200  1
  O  O14  1  0.08193200  0.68447000  0.69538600  1
  O  O15  1  0.60253900  0.41806800  0.11345500  1
  O  O16  1  0.81553000  0.41806800  0.80461400  1
  O  O17  1  0.80461400  0.48908400  0.38654500  1
  O  O18  1  0.80461400  0.81553000  0.41806800  1
  O  O19  1  0.89746100  0.01091600  0.81553000  1
  O  O20  1  0.41806800  0.80461400  0.81553000  1
  O  O21  1  0.38654500  0.08193200  0.89746100  1
  O  O22  1  0.69538600  0.11345500  0.01091600  1
  O  O23  1  0.48908400  0.60253900  0.68447000  1
  O  O24  1  0.30461400  0.91806800  0.31553000  1
  O  O25  1  0.88654500  0.98908400  0.30461400  1
  O  O26  1  0.31553000  0.51091600  0.39746100  1
  O  O27  1  0.39746100  0.31553000  0.51091600  1
  O  O28  1  0.10253900  0.61345500  0.91806800  1
  O  O29  1  0.91806800  0.10253900  0.61345500  1
  O  O30  1  0.98908400  0.30461400  0.88654500  1
  O  O31  1  0.58193200  0.88654500  0.39746100  1
  O  O32  1  0.61345500  0.19538600  0.51091600  1
  O  O33  1  0.98908400  0.18447000  0.10253900  1
  O  O34  1  0.88654500  0.39746100  0.58193200  1
  O  O35  1  0.51091600  0.61345500  0.19538600  1
  O  O36  1  0.18447000  0.10253900  0.98908400  1
  O  O37  1  0.31553000  0.30461400  0.91806800  1
  O  O38  1  0.91806800  0.31553000  0.30461400  1
  O  O39  1  0.39746100  0.58193200  0.88654500  1
  O  O40  1  0.18447000  0.58193200  0.19538600  1
  O  O41  1  0.19538600  0.51091600  0.61345500  1
  O  O42  1  0.19538600  0.18447000  0.58193200  1
  O  O43  1  0.10253900  0.98908400  0.18447000  1
  O  O44  1  0.58193200  0.19538600  0.18447000  1
  O  O45  1  0.61345500  0.91806800  0.10253900  1
  O  O46  1  0.30461400  0.88654500  0.98908400  1
  O  O47  1  0.51091600  0.39746100  0.31553000  1
loop_
_geom_bond_atom_site_label_1
_geom_bond_atom_site_label_2
_geom_bond_distance
_geom_bond_site_symmetry_2
Ba0 O6 2.561409 1_655
Ba0 O17 2.561409 1_555
Ba0 O5 2.561412 1_655
Ba0 O15 2.561412 1_555
Ba0 O13 2.797564 1_555
Ba0 O18 2.797564 1_555
Ba0 O10 2.797565 1_655
Ba0 O4 2.797565 1_555
Ba1 O22 2.561409 1_556
Ba1 O11 2.561409 1_555
Ba1 O4 2.561412 1_556
Ba1 O7 2.561412 1_555
Ba1 O0 2.797564 1_555
Ba1 O16 2.797564 1_555
Ba1 O15 2.797565 1_556
Ba1 O21 2.797565 1_555
Ba2 O9 2.561409 1_655
Ba2 O3 2.561409 1_555
Ba2 O14 2.561418 1_655
Ba2 O18 2.561418 1_555
Ba2 O19 2.797570 1_565
Ba2 O1 2.797570 1_665
Ba2 O2 2.797570 1_555
Ba2 O17 2.797570 1_555
Ba3 O12 2.561409 1_556
Ba3 O2 2.561409 1_555
Ba3 O13 2.561418 1_556
Ba3 O16 2.561418 1_555
Ba3 O9 2.797570 1_655
Ba3 O6 2.797570 1_656
Ba3 O23 2.797570 1_555
Ba3 O11 2.797570 1_555
Ba4 O1 2.561409 1_565
Ba4 O8 2.561409 1_555
Ba4 O21 2.561412 1_565
Ba4 O10 2.561412 1_555
Ba4 O14 2.797564 1_555
Ba4 O20 2.797564 1_555
Ba4 O7 2.797565 1_565
Ba4 O5 2.797565 1_555
Ba5 O19 2.561409 1_565
Ba5 O23 2.561409 1_555
Ba5 O0 2.561418 1_565
Ba5 O20 2.561418 1_555
Ba5 O12 2.797570 1_556
Ba5 O22 2.797570 1_566
Ba5 O3 2.797570 1_555
Ba5 O8 2.797570 1_555
Ba6 O30 2.561409 1_455
Ba6 O41 2.561409 1_555
Ba6 O39 2.561412 1_555
Ba6 O29 2.561412 1_455
Ba6 O42 2.797564 1_555
Ba6 O37 2.797564 1_555
Ba6 O28 2.797565 1_555
Ba6 O34 2.797565 1_455
Ba7 O46 2.561409 1_554
Ba7 O35 2.561409 1_555
Ba7 O31 2.561412 1_555
Ba7 O28 2.561412 1_554
Ba7 O40 2.797564 1_555
Ba7 O24 2.797564 1_555
Ba7 O45 2.797565 1_555
Ba7 O39 2.797565 1_554
Ba8 O27 2.561409 1_555
Ba8 O33 2.561409 1_455
Ba8 O42 2.561418 1_555
Ba8 O38 2.561418 1_455
Ba8 O26 2.797570 1_555
Ba8 O41 2.797570 1_555
Ba8 O43 2.797570 1_545
Ba8 O25 2.797570 1_445
Ba9 O26 2.561409 1_555
Ba9 O36 2.561409 1_554
Ba9 O40 2.561418 1_555
Ba9 O37 2.561418 1_554
Ba9 O47 2.797570 1_555
Ba9 O35 2.797570 1_555
Ba9 O33 2.797570 1_455
Ba9 O30 2.797570 1_454
Ba10 O25 2.561409 1_545
Ba10 O32 2.561409 1_555
Ba10 O34 2.561412 1_555
Ba10 O45 2.561412 1_545
Ba10 O44 2.797564 1_555
Ba10 O38 2.797564 1_555
Ba10 O29 2.797565 1_555
Ba10 O31 2.797565 1_545
Ba11 O47 2.561409 1_555
Ba11 O43 2.561409 1_545
Ba11 O24 2.561418 1_545
Ba11 O44 2.561418 1_555
Ba11 O27 2.797570 1_555
Ba11 O32 2.797570 1_555
Ba11 O36 2.797570 1_554
Ba11 O46 2.797570 1_544
Al0 O37 2.027788 1_554
Al0 O13 2.027788 1_555
Al0 O35 2.027790 1_555
Al0 O11 2.027790 1_554
Al0 O15 2.027799 1_555
Al0 O39 2.027799 1_554
Al1 O38 2.027788 1_455
Al1 O14 2.027788 1_555
Al1 O41 2.027790 1_555
Al1 O17 2.027790 1_455
Al1 O10 2.027799 1_555
Al1 O34 2.027799 1_455
Al2 O47 2.027790 1_555
Al2 O26 2.027790 1_555
Al2 O27 2.027790 1_555
Al2 O23 2.027790 1_555
Al2 O2 2.027790 1_555
Al2 O3 2.027790 1_555
Al3 O42 2.027788 1_555
Al3 O18 2.027788 1_445
Al3 O1 2.027790 1_555
Al3 O25 2.027790 1_445
Al3 O29 2.027799 1_455
Al3 O5 2.027799 1_545
Al4 O40 2.027788 1_555
Al4 O16 2.027788 1_454
Al4 O6 2.027790 1_555
Al4 O30 2.027790 1_454
Al4 O28 2.027799 1_554
Al4 O4 2.027799 1_455
Al5 O44 2.027788 1_555
Al5 O20 2.027788 1_544
Al5 O22 2.027790 1_555
Al5 O46 2.027790 1_544
Al5 O45 2.027799 1_545
Al5 O21 2.027799 1_554
Al6 O33 2.027790 1_455
Al6 O43 2.027790 1_545
Al6 O36 2.027790 1_554
Al6 O9 2.027790 1_544
Al6 O19 2.027790 1_454
Al6 O12 2.027790 1_445
Al7 O24 2.027788 1_545
Al7 O0 2.027788 1_555
Al7 O32 2.027790 1_555
Al7 O8 2.027790 1_545
Al7 O7 2.027799 1_555
Al7 O31 2.027799 1_545
O0 Si9 1.683251 1_555
O1 Si10 1.683248 1_555
O2 Si2 1.683248 1_555
O3 Si1 1.683248 1_555
O4 Si0 1.683241 1_555
O5 Si11 1.683241 1_555
O6 Si11 1.683248 1_555
O7 Si7 1.683241 1_555
O8 Si8 1.683248 1_555
O9 Si5 1.683248 1_555
O10 Si8 1.683241 1_555
O11 Si7 1.683248 1_555
O12 Si6 1.683248 1_555
O13 Si6 1.683251 1_555
O14 Si5 1.683251 1_555
O15 Si3 1.683241 1_555
O16 Si2 1.683251 1_555
O17 Si3 1.683248 1_555
O18 Si1 1.683251 1_555
O19 Si9 1.683248 1_555
O20 Si4 1.683251 1_555
O21 Si10 1.683241 1_555
O22 Si0 1.683248 1_555
O23 Si4 1.683248 1_555
O24 Si11 1.683251 1_555
O25 Si6 1.683248 1_555
O26 Si8 1.683248 1_555
O27 Si7 1.683248 1_555
O28 Si5 1.683241 1_555
O29 Si9 1.683241 1_555
O30 Si9 1.683248 1_555
O31 Si1 1.683241 1_555
O32 Si2 1.683248 1_555
O33 Si0 1.683248 1_555
O34 Si2 1.683241 1_555
O35 Si1 1.683248 1_555
O36 Si10 1.683248 1_555
O37 Si10 1.683251 1_555
O38 Si0 1.683251 1_555
O39 Si4 1.683241 1_555
O40 Si8 1.683251 1_555
O41 Si4 1.683248 1_555
O42 Si7 1.683251 1_555
O43 Si11 1.683248 1_555
O44 Si3 1.683251 1_555
O45 Si6 1.683241 1_555
O46 Si5 1.683248 1_555
O47 Si3 1.683248 1_555
