# generated using pymatgen
data_KTe
_symmetry_space_group_name_H-M   'P 1'
_cell_length_a   9.54807020
_cell_length_b   9.54807013
_cell_length_c   6.57118305
_cell_angle_alpha   90.00000000
_cell_angle_beta   90.00000000
_cell_angle_gamma   119.99998987
_symmetry_Int_Tables_number   1
_chemical_formula_structural   KTe
_chemical_formula_sum   'K6 Te6'
_cell_volume   518.80654312
_cell_formula_units_Z   6
loop_
 _symmetry_equiv_pos_site_id
 _symmetry_equiv_pos_as_xyz
  1  'x, y, z'
loop_
 _atom_site_type_symbol
 _atom_site_label
 _atom_site_symmetry_multiplicity
 _atom_site_fract_x
 _atom_site_fract_y
 _atom_site_fract_z
 _atom_site_occupancy
  K  K0  1  0.65368053  -0.00000000  0.00000000  1
  K  K1  1  0.34631947  0.34631947  0.00000000  1
  K  K2  1  -0.00000000  0.65368053  0.00000000  1
  K  K3  1  0.31930217  -0.00000000  0.50000000  1
  K  K4  1  0.68069783  0.68069783  0.50000000  1
  K  K5  1  -0.00000000  0.31930217  0.50000000  1
  Te  Te0  1  -0.00000000  0.00000000  0.21308044  1
  Te  Te1  1  -0.00000000  0.00000000  0.78691956  1
  Te  Te2  1  0.33333300  0.66666700  0.28597058  1
  Te  Te3  1  0.33333300  0.66666700  0.71402942  1
  Te  Te4  1  0.66666700  0.33333300  0.71402942  1
  Te  Te5  1  0.66666700  0.33333300  0.28597058  1
loop_
_geom_bond_atom_site_label_1
_geom_bond_atom_site_label_2
_geom_bond_distance
_geom_bond_site_symmetry_2
K0 Te1 3.590917 1_654
K0 Te0 3.590917 1_655
K0 Te4 3.644378 1_554
K0 Te5 3.644378 1_555
K0 Te3 3.644382 1_544
K0 Te2 3.644382 1_545
K1 Te1 3.590917 1_554
K1 Te0 3.590917 1_555
K1 Te3 3.644386 1_554
K1 Te2 3.644386 1_555
K1 Te5 3.644386 1_555
K1 Te4 3.644386 1_554
K2 Te0 3.590917 1_565
K2 Te1 3.590917 1_564
K2 Te2 3.644378 1_555
K2 Te3 3.644378 1_554
K2 Te4 3.644382 1_454
K2 Te5 3.644382 1_455
K3 Te2 3.542860 1_545
K3 Te3 3.542860 1_545
K3 Te5 3.542865 1_555
K3 Te4 3.542865 1_555
K3 Te1 3.584610 1_555
K3 Te0 3.584610 1_555
K4 Te4 3.542868 1_555
K4 Te5 3.542868 1_555
K4 Te3 3.542868 1_555
K4 Te2 3.542868 1_555
K4 Te0 3.584610 1_665
K4 Te1 3.584610 1_665
K5 Te4 3.542860 1_455
K5 Te5 3.542860 1_455
K5 Te2 3.542865 1_555
K5 Te3 3.542865 1_555
K5 Te1 3.584610 1_555
K5 Te0 3.584610 1_555
Te0 Te1 2.800381 1_554
Te2 Te3 2.812853 1_555
Te4 Te5 2.812853 1_555
