# generated using pymatgen
data_CaSnAu
_symmetry_space_group_name_H-M   'P 1'
_cell_length_a   4.75934122
_cell_length_b   6.02155360
_cell_length_c   6.02155360
_cell_angle_alpha   75.39445373
_cell_angle_beta   66.72203730
_cell_angle_gamma   66.72203730
_symmetry_Int_Tables_number   1
_chemical_formula_structural   CaSnAu
_chemical_formula_sum   'Ca2 Sn2 Au2'
_cell_volume   144.67293089
_cell_formula_units_Z   2
loop_
 _symmetry_equiv_pos_site_id
 _symmetry_equiv_pos_as_xyz
  1  'x, y, z'
loop_
 _atom_site_type_symbol
 _atom_site_label
 _atom_site_symmetry_multiplicity
 _atom_site_fract_x
 _atom_site_fract_y
 _atom_site_fract_z
 _atom_site_occupancy
  Ca  Ca0  1  0.68323831  0.31676169  0.31676169  1
  Ca  Ca1  1  0.62466747  0.87533253  0.87533253  1
  Sn  Sn0  1  0.98620658  0.30754221  0.72004462  1
  Sn  Sn1  1  0.98620658  0.72004462  0.30754221  1
  Au  Au0  1  0.31755153  0.91342442  0.45147352  1
  Au  Au1  1  0.31755153  0.45147352  0.91342442  1
loop_
_geom_bond_atom_site_label_1
_geom_bond_atom_site_label_2
_geom_bond_distance
_geom_bond_site_symmetry_2
Ca0 Sn1 3.258165 1_455
Ca0 Sn0 3.258165 1_455
Ca0 Sn0 3.258166 1_555
Ca0 Sn1 3.258166 1_555
Ca0 Sn1 3.306864 1_545
Ca0 Sn0 3.306864 1_554
Ca0 Ca1 3.713725 1_554
Ca0 Ca1 3.713725 1_545
Ca1 Sn1 3.348933 1_555
Ca1 Sn0 3.348933 1_555
Ca1 Sn0 3.413063 1_465
Ca1 Sn1 3.413063 1_456
Ca1 Sn0 3.413063 1_565
Ca1 Sn1 3.413063 1_556
Sn0 Sn1 3.037760 1_555
Au0 Sn1 2.763073 1_555
Au0 Sn1 2.763077 1_455
Au0 Sn0 2.774201 1_465
Au0 Ca1 3.217645 1_554
Au0 Ca0 3.288964 1_565
Au0 Ca0 3.288967 1_465
Au0 Ca1 3.330413 1_555
Au0 Ca1 3.330416 1_455
Au0 Au1 3.401910 1_555
Au0 Ca0 3.465140 1_555
Au1 Sn0 2.763073 1_555
Au1 Sn0 2.763077 1_455
Au1 Sn1 2.774201 1_456
Au1 Ca1 3.217645 1_545
Au1 Ca0 3.288964 1_556
Au1 Ca0 3.288967 1_456
Au1 Ca1 3.330413 1_555
Au1 Ca1 3.330416 1_455
Au1 Ca0 3.465140 1_555
