# generated using pymatgen
data_SmY4Se5
_symmetry_space_group_name_H-M   'P 1'
_cell_length_a   16.97000078
_cell_length_b   16.97000078
_cell_length_c   16.97000157
_cell_angle_alpha   13.80386878
_cell_angle_beta   13.80386878
_cell_angle_gamma   13.80386721
_symmetry_Int_Tables_number   1
_chemical_formula_structural   SmY4Se5
_chemical_formula_sum   'Sm1 Y4 Se5'
_cell_volume   242.10794526
_cell_formula_units_Z   1
loop_
 _symmetry_equiv_pos_site_id
 _symmetry_equiv_pos_as_xyz
  1  'x, y, z'
loop_
 _atom_site_type_symbol
 _atom_site_label
 _atom_site_symmetry_multiplicity
 _atom_site_fract_x
 _atom_site_fract_y
 _atom_site_fract_z
 _atom_site_occupancy
  Sm  Sm0  1  0.00000000  0.00000000  -0.00000000  1
  Y  Y0  1  0.59944037  0.59944037  0.59944037  1
  Y  Y1  1  0.19957351  0.19957351  0.19957351  1
  Y  Y2  1  0.80042649  0.80042649  0.80042649  1
  Y  Y3  1  0.40055963  0.40055963  0.40055963  1
  Se  Se0  1  0.70159275  0.70159275  0.70159275  1
  Se  Se1  1  0.10055898  0.10055898  0.10055898  1
  Se  Se2  1  0.50000000  0.50000000  0.50000000  1
  Se  Se3  1  0.29840725  0.29840725  0.29840725  1
  Se  Se4  1  0.89944102  0.89944102  0.89944102  1
loop_
_geom_bond_atom_site_label_1
_geom_bond_atom_site_label_2
_geom_bond_distance
_geom_bond_site_symmetry_2
Se0 Y3 2.863030 1_655
Se0 Y3 2.863030 1_565
Se0 Y3 2.863031 1_556
Se0 Sm0 2.940350 1_566
Se0 Sm0 2.940350 1_656
Se0 Sm0 2.940351 1_665
Se1 Y2 2.889099 1_454
Se1 Y2 2.889099 1_544
Se1 Y2 2.889100 1_445
Se1 Y3 2.892956 1_455
Se1 Y3 2.892956 1_545
Se1 Y3 2.892956 1_554
Se2 Y2 2.880537 1_545
Se2 Y1 2.880537 1_565
Se2 Y2 2.880537 1_455
Se2 Y1 2.880537 1_655
Se2 Y1 2.880537 1_556
Se2 Y2 2.880537 1_554
Se3 Y0 2.863030 1_545
Se3 Y0 2.863030 1_455
Se3 Y0 2.863031 1_554
Se3 Sm0 2.940350 1_655
Se3 Sm0 2.940350 1_565
Se3 Sm0 2.940351 1_556
Se4 Y1 2.889099 1_566
Se4 Y1 2.889099 1_656
Se4 Y1 2.889100 1_665
Se4 Y0 2.892956 1_655
Se4 Y0 2.892956 1_565
Se4 Y0 2.892956 1_556
