# generated using pymatgen
data_NaMg6C
_symmetry_space_group_name_H-M   'P 1'
_cell_length_a   3.68858900
_cell_length_b   6.87724000
_cell_length_c   14.57913100
_cell_angle_alpha   90.00000000
_cell_angle_beta   90.00000000
_cell_angle_gamma   90.00000000
_symmetry_Int_Tables_number   1
_chemical_formula_structural   NaMg6C
_chemical_formula_sum   'Na2 Mg12 C2'
_cell_volume   369.83336206
_cell_formula_units_Z   2
loop_
 _symmetry_equiv_pos_site_id
 _symmetry_equiv_pos_as_xyz
  1  'x, y, z'
loop_
 _atom_site_type_symbol
 _atom_site_label
 _atom_site_symmetry_multiplicity
 _atom_site_fract_x
 _atom_site_fract_y
 _atom_site_fract_z
 _atom_site_occupancy
  Na  Na0  1  0.00000000  0.50000000  0.31496100  1
  Na  Na1  1  0.00000000  0.00000000  0.81496100  1
  Mg  Mg0  1  0.00000000  0.31178800  0.10704600  1
  Mg  Mg1  1  0.00000000  0.68821200  0.10704600  1
  Mg  Mg2  1  0.00000000  0.00000000  0.32107400  1
  Mg  Mg3  1  0.50000000  0.77687400  0.45410300  1
  Mg  Mg4  1  0.50000000  0.22312600  0.45410300  1
  Mg  Mg5  1  0.50000000  0.00000000  0.16112200  1
  Mg  Mg6  1  0.00000000  0.81178800  0.60704600  1
  Mg  Mg7  1  0.00000000  0.18821200  0.60704600  1
  Mg  Mg8  1  0.00000000  0.50000000  0.82107400  1
  Mg  Mg9  1  0.50000000  0.27687400  0.95410300  1
  Mg  Mg10  1  0.50000000  0.72312600  0.95410300  1
  Mg  Mg11  1  0.50000000  0.50000000  0.66112200  1
  C  C0  1  0.50000000  0.50000000  0.08054400  1
  C  C1  1  0.50000000  0.00000000  0.58054400  1
loop_
_geom_bond_atom_site_label_1
_geom_bond_atom_site_label_2
_geom_bond_distance
_geom_bond_site_symmetry_2
Mg0 Mg5 2.936109 1_555
Mg0 Mg5 2.936109 1_455
Mg0 Na0 3.296015 1_555
Mg1 Mg5 2.936109 1_565
Mg1 Mg5 2.936109 1_465
Mg1 Na0 3.296015 1_555
Mg2 Mg5 2.973124 1_555
Mg2 Mg5 2.973124 1_455
Mg2 Mg3 3.085051 1_545
Mg2 Mg4 3.085051 1_455
Mg2 Mg3 3.085051 1_445
Mg2 Mg4 3.085051 1_555
Mg2 Na0 3.439775 1_545
Mg2 Na0 3.439775 1_555
Mg3 Na0 3.337997 1_555
Mg3 Na0 3.337997 1_655
Mg4 Na0 3.337997 1_555
Mg4 Na0 3.337997 1_655
Mg6 Na1 3.296015 1_565
Mg7 Na1 3.296015 1_555
Mg8 Mg9 3.085051 1_455
Mg8 Mg9 3.085051 1_555
Mg8 Na1 3.439775 1_565
Mg8 Na1 3.439775 1_555
Mg9 Na1 3.337997 1_655
Mg9 Na1 3.337997 1_555
Mg10 Mg8 3.085051 1_555
Mg10 Mg8 3.085051 1_655
Mg10 Na1 3.337997 1_565
Mg10 Na1 3.337997 1_665
Mg11 Mg6 2.936109 1_655
Mg11 Mg7 2.936109 1_555
Mg11 Mg7 2.936109 1_655
Mg11 Mg6 2.936109 1_555
Mg11 Mg8 2.973124 1_555
Mg11 Mg8 2.973124 1_655
C0 Mg0 2.286072 1_555
C0 Mg0 2.286072 1_655
C0 Mg1 2.286072 1_555
C0 Mg1 2.286072 1_655
C0 Mg9 2.398497 1_554
C0 Mg10 2.398497 1_554
C1 Mg7 2.286072 1_655
C1 Mg7 2.286072 1_555
C1 Mg6 2.286072 1_545
C1 Mg6 2.286072 1_645
C1 Mg4 2.398497 1_555
C1 Mg3 2.398497 1_545
