# generated using pymatgen
data_Mn3SiW2
_symmetry_space_group_name_H-M   'P 1'
_cell_length_a   4.75728754
_cell_length_b   4.75729041
_cell_length_c   7.74681547
_cell_angle_alpha   89.99999353
_cell_angle_beta   90.00000967
_cell_angle_gamma   120.00004710
_symmetry_Int_Tables_number   1
_chemical_formula_structural   Mn3SiW2
_chemical_formula_sum   'Mn6 Si2 W4'
_cell_volume   151.83528283
_cell_formula_units_Z   2
loop_
 _symmetry_equiv_pos_site_id
 _symmetry_equiv_pos_as_xyz
  1  'x, y, z'
loop_
 _atom_site_type_symbol
 _atom_site_label
 _atom_site_symmetry_multiplicity
 _atom_site_fract_x
 _atom_site_fract_y
 _atom_site_fract_z
 _atom_site_occupancy
  Mn  Mn0  1  0.82906014  0.17093809  0.75000077  1
  Mn  Mn1  1  0.82906106  0.65812041  0.75000079  1
  Mn  Mn2  1  0.34187870  0.17093820  0.75000079  1
  Mn  Mn3  1  0.17093313  0.82906441  0.24999924  1
  Mn  Mn4  1  0.17093489  0.34186800  0.24999922  1
  Mn  Mn5  1  0.65813144  0.82906412  0.24999921  1
  Si  Si0  1  -0.00000048  0.00000463  -0.00001748  1
  Si  Si1  1  -0.00000050  0.00000461  0.50001749  1
  W  W0  1  0.33333370  0.66666565  0.93566379  1
  W  W1  1  0.66666659  0.33333305  0.06430369  1
  W  W2  1  0.66666667  0.33333329  0.43569569  1
  W  W3  1  0.33333367  0.66666553  0.56433680  1
loop_
_geom_bond_atom_site_label_1
_geom_bond_atom_site_label_2
_geom_bond_distance
_geom_bond_site_symmetry_2
Mn0 Mn2 2.317662 1_555
Mn0 Mn1 2.317666 1_555
Mn0 Si0 2.394604 1_656
Mn0 Si1 2.394614 1_655
Mn0 Mn1 2.439625 1_545
Mn0 Mn2 2.439625 1_655
Mn0 W1 2.778311 1_556
Mn0 W2 2.778325 1_555
Mn0 W0 2.779904 1_545
Mn0 W3 2.779908 1_545
Mn0 W0 2.779909 1_655
Mn0 W3 2.779912 1_655
Mn1 Mn2 2.317665 1_555
Mn1 Si0 2.394631 1_666
Mn1 Si1 2.394641 1_665
Mn1 Mn2 2.439620 1_665
Mn1 W1 2.778308 1_556
Mn1 W2 2.778322 1_555
Mn1 W0 2.779907 1_655
Mn1 W0 2.779907 1_555
Mn1 W3 2.779911 1_555
Mn1 W3 2.779912 1_655
Mn2 Si0 2.394619 1_556
Mn2 Si1 2.394628 1_555
Mn2 W1 2.778308 1_556
Mn2 W2 2.778324 1_555
Mn2 W0 2.779908 1_555
Mn2 W0 2.779908 1_545
Mn2 W3 2.779912 1_555
Mn2 W3 2.779913 1_545
Mn3 Mn4 2.317739 1_555
Mn3 Mn5 2.317743 1_555
Mn3 Si0 2.394825 1_565
Mn3 Si1 2.394835 1_565
Mn3 Mn5 2.439544 1_455
Mn3 Mn4 2.439551 1_565
Mn3 W0 2.778553 1_554
Mn3 W3 2.778567 1_555
Mn3 W1 2.780032 1_455
Mn3 W2 2.780035 1_455
Mn3 W1 2.780041 1_565
Mn3 W2 2.780045 1_565
Mn4 Mn5 2.317732 1_555
Mn4 Si0 2.394800 1_555
Mn4 Si1 2.394810 1_555
Mn4 Mn5 2.439553 1_445
Mn4 W0 2.778549 1_554
Mn4 W3 2.778564 1_555
Mn4 W1 2.780034 1_555
Mn4 W2 2.780037 1_555
Mn4 W1 2.780040 1_455
Mn4 W2 2.780044 1_455
Mn5 Si0 2.394811 1_665
Mn5 Si1 2.394820 1_665
Mn5 W0 2.778549 1_554
Mn5 W3 2.778564 1_555
Mn5 W1 2.780033 1_555
Mn5 W2 2.780036 1_555
Mn5 W1 2.780044 1_565
Mn5 W2 2.780049 1_565
Si0 W0 2.791428 1_554
Si0 W1 2.791434 1_455
Si0 W0 2.791446 1_444
Si0 W1 2.791454 1_555
Si0 W1 2.791474 1_445
Si0 W0 2.791478 1_544
Si1 W3 2.791428 1_555
Si1 W2 2.791435 1_455
Si1 W3 2.791447 1_445
Si1 W2 2.791456 1_555
Si1 W2 2.791474 1_445
Si1 W3 2.791479 1_545
