# generated using pymatgen
data_TaZn2BiO6
_symmetry_space_group_name_H-M   'P 1'
_cell_length_a   8.09106100
_cell_length_b   5.53203200
_cell_length_c   5.61488066
_cell_angle_alpha   87.23103342
_cell_angle_beta   90.00000000
_cell_angle_gamma   90.00000000
_symmetry_Int_Tables_number   1
_chemical_formula_structural   TaZn2BiO6
_chemical_formula_sum   'Ta2 Zn4 Bi2 O12'
_cell_volume   251.02867392
_cell_formula_units_Z   2
loop_
 _symmetry_equiv_pos_site_id
 _symmetry_equiv_pos_as_xyz
  1  'x, y, z'
loop_
 _atom_site_type_symbol
 _atom_site_label
 _atom_site_symmetry_multiplicity
 _atom_site_fract_x
 _atom_site_fract_y
 _atom_site_fract_z
 _atom_site_occupancy
  Ta  Ta0  1  0.00000000  0.50000000  0.00000000  1
  Ta  Ta1  1  0.50000000  0.50000000  0.00000000  1
  Zn  Zn0  1  0.25000000  0.98271500  0.97571300  1
  Zn  Zn1  1  0.25000000  0.48034600  0.51687400  1
  Zn  Zn2  1  0.75000000  0.51965400  0.48312600  1
  Zn  Zn3  1  0.75000000  0.01728500  0.02428700  1
  Bi  Bi0  1  0.00000000  0.00000000  0.50000000  1
  Bi  Bi1  1  0.50000000  0.00000000  0.50000000  1
  O  O0  1  0.57177800  0.81975200  0.87504400  1
  O  O1  1  0.42758400  0.63386500  0.30673500  1
  O  O2  1  0.42822200  0.18024800  0.12495600  1
  O  O3  1  0.92758400  0.36613500  0.69326500  1
  O  O4  1  0.75000000  0.40601200  0.12433200  1
  O  O5  1  0.57241600  0.36613500  0.69326500  1
  O  O6  1  0.07241600  0.63386500  0.30673500  1
  O  O7  1  0.92822200  0.81975200  0.87504400  1
  O  O8  1  0.25000000  0.12961000  0.63807200  1
  O  O9  1  0.07177800  0.18024800  0.12495600  1
  O  O10  1  0.75000000  0.87039000  0.36192800  1
  O  O11  1  0.25000000  0.59398800  0.87566800  1
loop_
_geom_bond_atom_site_label_1
_geom_bond_atom_site_label_2
_geom_bond_distance
_geom_bond_site_symmetry_2
Bi0 O8 2.293558 1_555
Bi0 O10 2.293558 1_445
Bi0 O7 2.358643 1_445
Bi0 O9 2.358643 1_555
Bi0 O6 2.415734 1_545
Bi0 O3 2.415734 1_455
Bi1 O8 2.293558 1_555
Bi1 O10 2.293558 1_545
Bi1 O0 2.358643 1_545
Bi1 O2 2.358643 1_555
Bi1 O5 2.415734 1_555
Bi1 O1 2.415734 1_545
O0 Ta1 1.959226 1_556
O0 Zn3 2.015983 1_566
O1 Ta1 1.995292 1_555
O1 Zn1 2.020183 1_555
O2 Ta1 1.959226 1_555
O2 Zn0 2.015983 1_544
O3 Ta0 1.995292 1_656
O3 Zn2 2.020183 1_555
O4 Zn2 2.139194 1_555
O4 Ta0 2.194130 1_655
O4 Ta1 2.194130 1_555
O4 Zn3 2.248711 1_555
O5 Ta1 1.995292 1_556
O5 Zn2 2.020183 1_555
O6 Ta0 1.995292 1_555
O6 Zn1 2.020183 1_555
O7 Ta0 1.959226 1_656
O7 Zn3 2.015983 1_566
O8 Zn1 2.024900 1_555
O8 Zn0 2.026235 1_545
O9 Ta0 1.959226 1_555
O9 Zn0 2.015983 1_544
O10 Zn2 2.024900 1_555
O10 Zn3 2.026235 1_565
O11 Zn1 2.139194 1_555
O11 Ta1 2.194130 1_556
O11 Ta0 2.194130 1_556
O11 Zn0 2.248711 1_555
