# generated using pymatgen
data_Sc2CuRh
_symmetry_space_group_name_H-M   'P 1'
_cell_length_a   4.56943337
_cell_length_b   4.56943337
_cell_length_c   4.56943337
_cell_angle_alpha   60.00000000
_cell_angle_beta   60.00000000
_cell_angle_gamma   60.00000000
_symmetry_Int_Tables_number   1
_chemical_formula_structural   Sc2CuRh
_chemical_formula_sum   'Sc2 Cu1 Rh1'
_cell_volume   67.46399393
_cell_formula_units_Z   1
loop_
 _symmetry_equiv_pos_site_id
 _symmetry_equiv_pos_as_xyz
  1  'x, y, z'
loop_
 _atom_site_type_symbol
 _atom_site_label
 _atom_site_symmetry_multiplicity
 _atom_site_fract_x
 _atom_site_fract_y
 _atom_site_fract_z
 _atom_site_occupancy
  Sc  Sc0  1  0.75000000  0.75000000  0.75000000  1
  Sc  Sc1  1  0.25000000  0.25000000  0.25000000  1
  Cu  Cu0  1  -0.00000000  0.00000000  -0.00000000  1
  Rh  Rh0  1  0.50000000  0.50000000  0.50000000  1
loop_
_geom_bond_atom_site_label_1
_geom_bond_atom_site_label_2
_geom_bond_distance
_geom_bond_site_symmetry_2
Cu0 Sc0 2.798195 1_544
Cu0 Sc1 2.798195 1_455
Cu0 Sc0 2.798195 1_445
Cu0 Sc0 2.798195 1_454
Cu0 Sc1 2.798195 1_555
Cu0 Sc0 2.798195 1_444
Cu0 Sc1 2.798195 1_554
Cu0 Sc1 2.798195 1_545
Rh0 Sc0 2.798195 1_455
Rh0 Sc1 2.798195 1_655
Rh0 Sc1 2.798195 1_555
Rh0 Sc1 2.798195 1_556
Rh0 Sc0 2.798195 1_545
Rh0 Sc0 2.798195 1_555
Rh0 Sc0 2.798195 1_554
Rh0 Sc1 2.798195 1_565
