# generated using pymatgen
data_AlZnH10O7F5
_symmetry_space_group_name_H-M   'P 1'
_cell_length_a   6.69551248
_cell_length_b   8.69484934
_cell_length_c   8.85562102
_cell_angle_alpha   105.22357924
_cell_angle_beta   94.85386553
_cell_angle_gamma   99.07207139
_symmetry_Int_Tables_number   1
_chemical_formula_structural   AlZnH10O7F5
_chemical_formula_sum   'Al2 Zn2 H20 O14 F10'
_cell_volume   486.91396670
_cell_formula_units_Z   2
loop_
 _symmetry_equiv_pos_site_id
 _symmetry_equiv_pos_as_xyz
  1  'x, y, z'
loop_
 _atom_site_type_symbol
 _atom_site_label
 _atom_site_symmetry_multiplicity
 _atom_site_fract_x
 _atom_site_fract_y
 _atom_site_fract_z
 _atom_site_occupancy
  Al  Al0  1  0.50000000  0.00000000  0.50000000  1
  Al  Al1  1  0.50000000  0.50000000  0.00000000  1
  Zn  Zn0  1  0.00000000  0.00000000  0.00000000  1
  Zn  Zn1  1  0.00000000  0.50000000  0.50000000  1
  H  H0  1  0.10150300  0.75301400  0.38168000  1
  H  H1  1  0.10459500  0.36621500  0.72395500  1
  H  H2  1  0.89849700  0.24698600  0.61832000  1
  H  H3  1  0.89540500  0.63378500  0.27604500  1
  H  H4  1  0.94572900  0.01005000  0.69150000  1
  H  H5  1  0.95432100  0.69344400  0.02189700  1
  H  H6  1  0.05427100  0.98995000  0.30850000  1
  H  H7  1  0.04567900  0.30655600  0.97810300  1
  H  H8  1  0.60269000  0.94033900  0.83579900  1
  H  H9  1  0.59450700  0.85478100  0.97353300  1
  H  H10  1  0.39731000  0.05966100  0.16420100  1
  H  H11  1  0.40549300  0.14521900  0.02646700  1
  H  H12  1  0.17751700  0.98382700  0.72647900  1
  H  H13  1  0.18247600  0.73436300  0.98418200  1
  H  H14  1  0.82248300  0.01617300  0.27352100  1
  H  H15  1  0.81752400  0.26563700  0.01581800  1
  H  H16  1  0.66561400  0.25053200  0.36695900  1
  H  H17  1  0.64410700  0.41594900  0.32186700  1
  H  H18  1  0.33438600  0.74946800  0.63304100  1
  H  H19  1  0.35589300  0.58405100  0.67813300  1
  O  O0  1  0.68241200  0.93129300  0.93165700  1
  O  O1  1  0.31758800  0.06870700  0.06834300  1
  O  O2  1  0.72891600  0.36922600  0.38489000  1
  O  O3  1  0.27108400  0.63077400  0.61511000  1
  O  O4  1  0.04227600  0.97671900  0.76280300  1
  O  O5  1  0.04291300  0.75409600  0.96592600  1
  O  O6  1  0.95772400  0.02328100  0.23719700  1
  O  O7  1  0.95708700  0.24590400  0.03407400  1
  O  O8  1  0.72676800  0.59305200  0.72991600  1
  O  O9  1  0.27323200  0.40694800  0.27008400  1
  O  O10  1  0.00489100  0.64403100  0.36156400  1
  O  O11  1  0.99510900  0.35596900  0.63843600  1
  O  O12  1  0.60222700  0.48745400  0.76100600  1
  O  O13  1  0.39777300  0.51254600  0.23899400  1
  F  F0  1  0.57474200  0.06977500  0.32220200  1
  F  F1  1  0.56528800  0.31199300  0.00019500  1
  F  F2  1  0.42525800  0.93022500  0.67779800  1
  F  F3  1  0.43471200  0.68800700  0.99980500  1
  F  F4  1  0.76923700  0.08511200  0.60012700  1
  F  F5  1  0.74756100  0.59567600  0.09287400  1
  F  F6  1  0.23076300  0.91488800  0.39987300  1
  F  F7  1  0.25243900  0.40432400  0.90712600  1
  F  F8  1  0.57261200  0.81093800  0.42060700  1
  F  F9  1  0.42738800  0.18906200  0.57939300  1
loop_
_geom_bond_atom_site_label_1
_geom_bond_atom_site_label_2
_geom_bond_distance
_geom_bond_site_symmetry_2
Al0 F9 1.770841 1_555
Al0 F8 1.770841 1_545
Al0 F4 1.883539 1_555
Al0 F6 1.883539 1_545
Al0 F0 1.907052 1_555
Al0 F2 1.907052 1_545
Al1 F3 1.757843 1_554
Al1 F1 1.757843 1_555
Al1 F5 1.758146 1_555
Al1 F7 1.758146 1_554
Al1 O13 2.259901 1_555
Al1 O12 2.259901 1_554
H0 O10 1.023057 1_555
H1 O11 0.984318 1_455
H2 O11 1.023057 1_555
H3 O10 0.984318 1_655
H4 O4 0.993316 1_645
H5 O5 0.981844 1_654
H6 O6 0.993316 1_465
H7 O7 0.981844 1_456
H8 O0 0.991631 1_555
H9 O0 0.984646 1_555
H10 O1 0.991631 1_555
H11 O1 0.984646 1_555
H12 O4 0.984541 1_555
H13 O5 0.984035 1_555
H14 O6 0.984541 1_555
H15 O7 0.984035 1_555
H16 O2 1.017124 1_555
H17 O2 0.968067 1_555
H18 O3 1.017124 1_555
H19 O3 0.968067 1_555
O0 Zn0 2.106311 1_666
O1 Zn0 2.106311 1_555
O2 Zn1 2.013394 1_655
O3 Zn1 2.013394 1_555
O4 Zn0 2.104447 1_566
O5 Zn0 2.148174 1_566
O6 Zn0 2.104447 1_655
O7 Zn0 2.148174 1_655
O10 Zn1 1.967858 1_555
O11 Zn1 1.967858 1_655
O12 O8 1.242706 1_555
O13 O9 1.242706 1_555
F0 H16 1.525737 1_555
F2 H18 1.525737 1_555
F4 H2 1.493028 1_555
F6 H0 1.493028 1_555
