# generated using pymatgen
data_KTbP2H4O9
_symmetry_space_group_name_H-M   'P 1'
_cell_length_a   10.83220100
_cell_length_b   7.71400900
_cell_length_c   10.34691724
_cell_angle_alpha   87.99268719
_cell_angle_beta   90.00000000
_cell_angle_gamma   90.00000000
_symmetry_Int_Tables_number   1
_chemical_formula_structural   KTbP2H4O9
_chemical_formula_sum   'K4 Tb4 P8 H16 O36'
_cell_volume   864.05471859
_cell_formula_units_Z   4
loop_
 _symmetry_equiv_pos_site_id
 _symmetry_equiv_pos_as_xyz
  1  'x, y, z'
loop_
 _atom_site_type_symbol
 _atom_site_label
 _atom_site_symmetry_multiplicity
 _atom_site_fract_x
 _atom_site_fract_y
 _atom_site_fract_z
 _atom_site_occupancy
  K  K0  1  0.29139200  0.74056800  0.13557300  1
  K  K1  1  0.79139200  0.25943200  0.36442700  1
  K  K2  1  0.70860800  0.25943200  0.86442700  1
  K  K3  1  0.20860800  0.74056800  0.63557300  1
  Tb  Tb0  1  0.37573700  0.24911500  0.16568100  1
  Tb  Tb1  1  0.87573700  0.75088500  0.33431900  1
  Tb  Tb2  1  0.62426300  0.75088500  0.83431900  1
  Tb  Tb3  1  0.12426300  0.24911500  0.66568100  1
  P  P0  1  0.10607100  0.40062700  0.33700100  1
  P  P1  1  0.60607100  0.59937300  0.16299900  1
  P  P2  1  0.89392900  0.59937300  0.66299900  1
  P  P3  1  0.39392900  0.40062700  0.83700100  1
  P  P4  1  0.14686300  0.03233800  0.36766000  1
  P  P5  1  0.64686300  0.96766200  0.13234000  1
  P  P6  1  0.85313700  0.96766200  0.63234000  1
  P  P7  1  0.35313700  0.03233800  0.86766000  1
  H  H0  1  0.17768500  0.55869200  0.89554100  1
  H  H1  1  0.67768500  0.44130800  0.60445900  1
  H  H2  1  0.82231500  0.44130800  0.10445900  1
  H  H3  1  0.32231500  0.55869200  0.39554100  1
  H  H4  1  0.08034700  0.70699900  0.88526900  1
  H  H5  1  0.58034700  0.29300100  0.61473100  1
  H  H6  1  0.91965300  0.29300100  0.11473100  1
  H  H7  1  0.41965300  0.70699900  0.38526900  1
  H  H8  1  0.44321100  0.33014300  0.44389000  1
  H  H9  1  0.94321100  0.66985700  0.05611000  1
  H  H10  1  0.55678900  0.66985700  0.55611000  1
  H  H11  1  0.05678900  0.33014300  0.94389000  1
  H  H12  1  0.52938700  0.18338500  0.40709600  1
  H  H13  1  0.02938700  0.81661500  0.09290400  1
  H  H14  1  0.47061300  0.81661500  0.59290400  1
  H  H15  1  0.97061300  0.18338500  0.90709600  1
  O  O0  1  0.14132600  0.42194100  0.47847900  1
  O  O1  1  0.64132600  0.57805900  0.02152100  1
  O  O2  1  0.85867400  0.57805900  0.52152100  1
  O  O3  1  0.35867400  0.42194100  0.97847900  1
  O  O4  1  0.99386900  0.50383900  0.29012500  1
  O  O5  1  0.49386900  0.49616100  0.20987500  1
  O  O6  1  0.00613100  0.49616100  0.70987500  1
  O  O7  1  0.50613100  0.50383900  0.79012500  1
  O  O8  1  0.22033100  0.42362200  0.24891600  1
  O  O9  1  0.72033100  0.57637800  0.25108400  1
  O  O10  1  0.77966900  0.57637800  0.75108400  1
  O  O11  1  0.27966900  0.42362200  0.74891600  1
  O  O12  1  0.05805400  0.19891800  0.32368800  1
  O  O13  1  0.55805400  0.80108200  0.17631200  1
  O  O14  1  0.94194600  0.80108200  0.67631200  1
  O  O15  1  0.44194600  0.19891800  0.82368800  1
  O  O16  1  0.17944300  0.05523400  0.50963600  1
  O  O17  1  0.67944300  0.94476600  0.99036400  1
  O  O18  1  0.82055700  0.94476600  0.49036400  1
  O  O19  1  0.32055700  0.05523400  0.00963600  1
  O  O20  1  0.06555500  0.87331600  0.34772400  1
  O  O21  1  0.56555500  0.12668400  0.15227600  1
  O  O22  1  0.93444500  0.12668400  0.65227600  1
  O  O23  1  0.43444500  0.87331600  0.84772400  1
  O  O24  1  0.25688600  0.03812500  0.27521100  1
  O  O25  1  0.75688600  0.96187500  0.22478900  1
  O  O26  1  0.74311400  0.96187500  0.72478900  1
  O  O27  1  0.24311400  0.03812500  0.77521100  1
  O  O28  1  0.13091600  0.64113800  0.94737800  1
  O  O29  1  0.63091600  0.35886200  0.55262200  1
  O  O30  1  0.86908400  0.35886200  0.05262200  1
  O  O31  1  0.36908400  0.64113800  0.44737800  1
  O  O32  1  0.44330900  0.21851800  0.40197700  1
  O  O33  1  0.94330900  0.78148200  0.09802300  1
  O  O34  1  0.55669100  0.78148200  0.59802300  1
  O  O35  1  0.05669100  0.21851800  0.90197700  1
loop_
_geom_bond_atom_site_label_1
_geom_bond_atom_site_label_2
_geom_bond_distance
_geom_bond_site_symmetry_2
K0 O19 2.732792 1_565
K0 O28 2.739777 1_554
K0 O24 2.779966 1_565
K0 O8 2.782920 1_555
K0 O13 2.958550 1_555
K0 O5 2.975655 1_555
K0 O3 3.081286 1_554
K1 O18 2.732792 1_545
K1 O29 2.739777 1_555
K1 O25 2.779966 1_545
K1 O9 2.782920 1_555
K1 O12 2.958550 1_655
K1 O4 2.975655 1_555
K1 O2 3.081286 1_555
K2 O17 2.732792 1_545
K2 O30 2.739777 1_556
K2 O26 2.779966 1_545
K2 O10 2.782920 1_555
K2 O15 2.958550 1_555
K2 O7 2.975655 1_555
K2 O1 3.081286 1_556
K3 O16 2.732792 1_565
K3 O31 2.739777 1_555
K3 O27 2.779966 1_565
K3 O11 2.782920 1_555
K3 O14 2.958550 1_455
K3 O6 2.975655 1_555
K3 O0 3.081286 1_555
H0 O28 0.986260 1_555
H1 O29 0.986260 1_555
H2 O30 0.986260 1_555
H3 O31 0.986260 1_555
H4 O28 0.973798 1_555
H4 K3 2.936900 1_555
H5 O29 0.973798 1_555
H5 K2 2.936900 1_555
H6 O30 0.973798 1_555
H6 K1 2.936900 1_555
H7 O31 0.973798 1_555
H7 K0 2.936900 1_555
H8 O32 0.977591 1_555
H9 O33 0.977591 1_555
H10 O34 0.977591 1_555
H11 O35 0.977591 1_555
H12 O32 0.971929 1_555
H12 K1 2.928423 1_555
H13 O33 0.971929 1_455
H13 K0 2.928423 1_555
H14 O34 0.971929 1_555
H14 K3 2.928423 1_555
H15 O35 0.971929 1_655
H15 K2 2.928423 1_555
O0 P0 1.527293 1_555
O0 Tb3 2.320013 1_555
O1 P1 1.527293 1_555
O1 Tb2 2.320013 1_554
O2 P2 1.527293 1_555
O2 Tb1 2.320013 1_555
O3 P3 1.527293 1_555
O3 Tb0 2.320013 1_556
O4 P0 1.522918 1_655
O4 Tb1 2.353582 1_555
O5 P1 1.522918 1_555
O5 Tb0 2.353582 1_555
O6 P2 1.522918 1_455
O6 Tb3 2.353582 1_555
O7 P3 1.522918 1_555
O7 Tb2 2.353582 1_555
O8 P0 1.543591 1_555
O8 Tb0 2.338555 1_555
O9 P1 1.543591 1_555
O9 Tb1 2.338555 1_555
O10 P2 1.543591 1_555
O10 Tb2 2.338555 1_555
O11 P3 1.543591 1_555
O11 Tb3 2.338555 1_555
O12 P0 1.650943 1_555
O12 P4 1.656112 1_555
O13 P1 1.650943 1_555
O13 P5 1.656112 1_555
O14 P2 1.650943 1_555
O14 P6 1.656112 1_555
O15 P3 1.650943 1_555
O15 P7 1.656112 1_555
O16 P4 1.527063 1_555
O16 Tb3 2.317356 1_555
O17 P5 1.527063 1_556
O17 Tb2 2.317356 1_555
O18 P6 1.527063 1_555
O18 Tb1 2.317356 1_555
O19 P7 1.527063 1_554
O19 Tb0 2.317356 1_555
O20 P4 1.529959 1_565
O20 Tb1 2.268944 1_455
O21 P5 1.529959 1_545
O21 Tb0 2.268944 1_555
O22 P6 1.529959 1_545
O22 Tb3 2.268944 1_655
O23 P7 1.529959 1_565
O23 Tb2 2.268944 1_555
O24 P4 1.527867 1_555
O24 Tb0 2.337008 1_555
O25 P5 1.527867 1_555
O25 Tb1 2.337008 1_555
O26 P6 1.527867 1_555
O26 Tb2 2.337008 1_555
O27 P7 1.527867 1_555
O27 Tb3 2.337008 1_555
O32 Tb0 2.555141 1_555
O33 Tb1 2.555141 1_555
O34 Tb2 2.555141 1_555
O35 Tb3 2.555141 1_555
