# generated using pymatgen
data_Rb2WO4
_symmetry_space_group_name_H-M   'P 1'
_cell_length_a   6.29037237
_cell_length_b   7.15941761
_cell_length_c   7.89070394
_cell_angle_alpha   113.19525945
_cell_angle_beta   90.00000000
_cell_angle_gamma   116.05969456
_symmetry_Int_Tables_number   1
_chemical_formula_structural   Rb2WO4
_chemical_formula_sum   'Rb4 W2 O8'
_cell_volume   286.91497270
_cell_formula_units_Z   2
loop_
 _symmetry_equiv_pos_site_id
 _symmetry_equiv_pos_as_xyz
  1  'x, y, z'
loop_
 _atom_site_type_symbol
 _atom_site_label
 _atom_site_symmetry_multiplicity
 _atom_site_fract_x
 _atom_site_fract_y
 _atom_site_fract_z
 _atom_site_occupancy
  Rb  Rb0  1  0.84500973  0.69001946  0.25321226  1
  Rb  Rb1  1  0.15499027  0.30997954  0.74678774  1
  Rb  Rb2  1  0.48935270  0.97870441  0.76382353  1
  Rb  Rb3  1  0.51064730  0.02129459  0.23617647  1
  W  W0  1  0.17540702  0.35081205  0.22479323  1
  W  W1  1  0.82459298  0.64918695  0.77520677  1
  O  O0  1  0.37465216  0.28462799  0.07946299  1
  O  O1  1  0.09002416  0.71537101  0.92053701  1
  O  O2  1  0.62534784  0.71537101  0.92053701  1
  O  O3  1  0.90997584  0.28462799  0.07946299  1
  O  O4  1  0.67196436  0.34392772  0.62441704  1
  O  O5  1  0.32803664  0.65607328  0.37558296  1
  O  O6  1  0.09193133  0.18386167  0.35676506  1
  O  O7  1  0.90806867  0.81613733  0.64323494  1
loop_
_geom_bond_atom_site_label_1
_geom_bond_atom_site_label_2
_geom_bond_distance
_geom_bond_site_symmetry_2
O0 W0 1.790015 1_555
O0 Rb0 2.894477 1_555
O0 Rb2 2.934659 1_544
O0 Rb3 3.011455 1_555
O0 Rb1 3.070619 1_554
O1 W1 1.790026 1_455
O1 Rb1 2.894476 1_555
O1 Rb3 2.934656 1_566
O1 Rb2 3.011455 1_555
O1 Rb0 3.070622 1_456
O2 W1 1.790015 1_555
O2 Rb1 2.894477 1_555
O2 Rb3 2.934659 1_566
O2 Rb2 3.011455 1_555
O2 Rb0 3.070619 1_556
O3 W0 1.790026 1_655
O3 Rb0 2.894476 1_555
O3 Rb2 2.934656 1_544
O3 Rb3 3.011455 1_555
O3 Rb1 3.070622 1_654
O4 W1 1.794952 1_555
O4 Rb3 2.848959 1_555
O4 Rb2 2.998899 1_545
O4 Rb1 3.325222 1_655
O4 Rb1 3.325222 1_555
O5 W0 1.794963 1_555
O5 Rb2 2.848956 1_555
O5 Rb3 2.998887 1_565
O5 Rb0 3.325220 1_455
O5 Rb0 3.325220 1_555
O6 W0 1.793834 1_555
O6 Rb1 2.817856 1_555
O6 Rb0 2.912051 1_445
O6 Rb3 3.319396 1_555
O6 Rb3 3.319402 1_455
O7 W1 1.793834 1_555
O7 Rb0 2.817856 1_555
O7 Rb1 2.912051 1_665
O7 Rb2 3.319396 1_555
O7 Rb2 3.319402 1_655
