# generated using pymatgen
data_SrAl3Ag
_symmetry_space_group_name_H-M   'P 1'
_cell_length_a   4.31146014
_cell_length_b   4.31145914
_cell_length_c   6.58664396
_cell_angle_alpha   70.93354534
_cell_angle_beta   70.93354555
_cell_angle_gamma   90.09816396
_symmetry_Int_Tables_number   1
_chemical_formula_structural   SrAl3Ag
_chemical_formula_sum   'Sr1 Al3 Ag1'
_cell_volume   108.56320240
_cell_formula_units_Z   1
loop_
 _symmetry_equiv_pos_site_id
 _symmetry_equiv_pos_as_xyz
  1  'x, y, z'
loop_
 _atom_site_type_symbol
 _atom_site_label
 _atom_site_symmetry_multiplicity
 _atom_site_fract_x
 _atom_site_fract_y
 _atom_site_fract_z
 _atom_site_occupancy
  Sr  Sr0  1  0.99911975  0.99911975  0.00164576  1
  Al  Al0  1  0.74938708  0.24906803  0.50163541  1
  Al  Al1  1  0.24906803  0.74938708  0.50163541  1
  Al  Al2  1  0.38755687  0.38755687  0.22482281  1
  Ag  Ag0  1  0.61486626  0.61486626  0.77026060  1
loop_
_geom_bond_atom_site_label_1
_geom_bond_atom_site_label_2
_geom_bond_distance
_geom_bond_site_symmetry_2
Al0 Al2 2.693859 1_655
Al0 Al2 2.695309 1_555
Al0 Sr0 3.628914 1_546
Al0 Sr0 3.629341 1_545
Al0 Sr0 3.629880 1_555
Al0 Sr0 3.630502 1_446
Al1 Al2 2.693859 1_565
Al1 Al2 2.695309 1_555
Al1 Sr0 3.628914 1_456
Al1 Sr0 3.629341 1_455
Al1 Sr0 3.629881 1_555
Al1 Sr0 3.630502 1_446
Al2 Sr0 3.313180 1_555
Al2 Sr0 3.313228 1_445
Al2 Sr0 3.318007 1_455
Al2 Sr0 3.318007 1_545
Ag0 Al2 2.654777 1_556
Ag0 Al0 2.665872 1_565
Ag0 Al1 2.665872 1_655
Ag0 Al0 2.666468 1_555
Ag0 Al1 2.666468 1_555
Ag0 Sr0 3.331930 1_556
Ag0 Sr0 3.332778 1_446
Ag0 Sr0 3.337129 1_546
Ag0 Sr0 3.337129 1_456
