# generated using pymatgen
data_Li7Co5O12
_symmetry_space_group_name_H-M   'P 1'
_cell_length_a   7.72665972
_cell_length_b   8.65389751
_cell_length_c   7.71047867
_cell_angle_alpha   72.92269590
_cell_angle_beta   111.09322550
_cell_angle_gamma   75.63572050
_symmetry_Int_Tables_number   1
_chemical_formula_structural   Li7Co5O12
_chemical_formula_sum   'Li14 Co10 O24'
_cell_volume   422.09141690
_cell_formula_units_Z   2
loop_
 _symmetry_equiv_pos_site_id
 _symmetry_equiv_pos_as_xyz
  1  'x, y, z'
loop_
 _atom_site_type_symbol
 _atom_site_label
 _atom_site_symmetry_multiplicity
 _atom_site_fract_x
 _atom_site_fract_y
 _atom_site_fract_z
 _atom_site_occupancy
  Li  Li0  1  0.58487200  0.25108200  0.83244700  1
  Li  Li1  1  0.08475700  0.74763700  0.83820400  1
  Li  Li2  1  0.96951700  0.10894900  0.59604600  1
  Li  Li3  1  0.46523300  0.61031700  0.59261100  1
  Li  Li4  1  0.20772700  0.38612200  0.08017800  1
  Li  Li5  1  0.70331300  0.88933700  0.07622200  1
  Li  Li6  1  0.11889200  0.62994100  0.24921900  1
  Li  Li7  1  0.61608500  0.12878200  0.24932900  1
  Li  Li8  1  0.28565100  0.12959400  0.91638400  1
  Li  Li9  1  0.78864800  0.62813000  0.91676600  1
  Li  Li10  1  0.37793900  0.87036000  0.74803500  1
  Li  Li11  1  0.88169400  0.36911100  0.75374900  1
  Li  Li12  1  0.54094500  0.37430800  0.41026100  1
  Li  Li13  1  0.04716100  0.87340600  0.41408500  1
  Co  Co0  1  0.00020000  0.99578000  0.99775400  1
  Co  Co1  1  0.49742600  0.49890200  0.99335500  1
  Co  Co2  1  0.16948300  0.50196700  0.67301500  1
  Co  Co3  1  0.66983700  0.00093000  0.67322500  1
  Co  Co4  1  0.25711400  0.25299100  0.50060700  1
  Co  Co5  1  0.75814400  0.74498100  0.50812600  1
  Co  Co6  1  0.90452700  0.24983400  0.15805500  1
  Co  Co7  1  0.40740700  0.75173400  0.15688600  1
  Co  Co8  1  0.33189500  0.00212500  0.33139400  1
  Co  Co9  1  0.83373400  0.49898700  0.33332300  1
  O  O0  1  0.01009000  0.43105900  0.21514600  1
  O  O1  1  0.51389200  0.92969800  0.21332700  1
  O  O2  1  0.15296800  0.06987700  0.45343500  1
  O  O3  1  0.65545800  0.56834600  0.45301100  1
  O  O4  1  0.78724800  0.16087500  0.72723000  1
  O  O5  1  0.28039000  0.66162600  0.72169700  1
  O  O6  1  0.38659200  0.33963700  0.94319900  1
  O  O7  1  0.90006900  0.82863100  0.96317300  1
  O  O8  1  0.17693900  0.94056800  0.89166700  1
  O  O9  1  0.67700200  0.44079200  0.89065200  1
  O  O10  1  0.33546000  0.43405500  0.54763000  1
  O  O11  1  0.82952100  0.93637600  0.54926600  1
  O  O12  1  0.33223900  0.56748400  0.11790500  1
  O  O13  1  0.83146100  0.06467000  0.12211000  1
  O  O14  1  0.49330200  0.05781500  0.77329800  1
  O  O15  1  0.99061200  0.55982200  0.77701800  1
  O  O16  1  0.43149400  0.18705800  0.37592400  1
  O  O17  1  0.95352200  0.67203300  0.40447100  1
  O  O18  1  0.09739900  0.17182600  0.04744400  1
  O  O19  1  0.59802200  0.67271300  0.04330000  1
  O  O20  1  0.07132700  0.32754800  0.62353800  1
  O  O21  1  0.56360700  0.82586400  0.61398300  1
  O  O22  1  0.71139300  0.32903600  0.26418700  1
  O  O23  1  0.21779400  0.82728600  0.26811400  1
loop_
_geom_bond_atom_site_label_1
_geom_bond_atom_site_label_2
_geom_bond_distance
_geom_bond_site_symmetry_2
Li0 O9 2.045992 1_555
Li0 O14 2.075761 1_555
Li0 O4 2.095728 1_555
Li0 O6 2.099323 1_555
Li0 O10 2.107433 1_555
Li0 O13 2.125270 1_556
Li1 O15 2.045334 1_455
Li1 O8 2.061010 1_555
Li1 O12 2.077489 1_556
Li1 O7 2.084763 1_455
Li1 O5 2.111340 1_555
Li1 O11 2.150015 1_455
Li2 O8 2.036801 1_645
Li2 O4 2.046146 1_555
Li2 O11 2.089879 1_545
Li2 O2 2.105963 1_655
Li2 O20 2.257493 1_655
Li2 O22 2.394241 1_555
Li3 O5 2.048342 1_555
Li3 O9 2.057420 1_555
Li3 O10 2.066812 1_555
Li3 O3 2.134084 1_555
Li3 O21 2.208666 1_555
Li3 O23 2.336127 1_555
Li4 O6 2.052230 1_554
Li4 O12 2.071081 1_555
Li4 O15 2.097714 1_454
Li4 O16 2.129344 1_555
Li4 O0 2.157094 1_555
Li4 O18 2.265832 1_555
Li5 O7 2.042909 1_554
Li5 O13 2.053392 1_565
Li5 O14 2.076615 1_564
Li5 O1 2.111522 1_555
Li5 O19 2.264540 1_555
Li5 O17 2.357658 1_555
Li6 O23 2.057992 1_555
Li6 O17 2.079524 1_455
Li6 O7 2.079849 1_454
Li6 O10 2.120919 1_555
Li6 O0 2.135992 1_555
Li6 O12 2.261718 1_555
Li7 O16 2.043444 1_555
Li7 O22 2.061001 1_555
Li7 O1 2.113497 1_545
Li7 O11 2.114540 1_545
Li7 O6 2.213081 1_554
Li7 O13 2.252965 1_555
Li8 O8 2.041423 1_545
Li8 O18 2.069208 1_556
Li8 O20 2.098732 1_555
Li8 O1 2.144424 1_546
Li8 O6 2.182458 1_555
Li8 O14 2.315033 1_555
Li9 O9 2.042945 1_555
Li9 O19 2.060003 1_556
Li9 O0 2.131537 1_656
Li9 O21 2.158114 1_555
Li9 O7 2.182641 1_555
Li9 O15 2.252190 1_555
Li10 O14 2.059648 1_565
Li10 O21 2.074035 1_555
Li10 O19 2.117445 1_556
Li10 O2 2.127869 1_565
Li10 O5 2.157107 1_555
Li10 O8 2.274340 1_555
Li11 O15 2.053925 1_555
Li11 O20 2.072126 1_655
Li11 O18 2.102753 1_656
Li11 O4 2.140852 1_555
Li11 O3 2.155058 1_555
Li11 O9 2.258302 1_555
Li12 O16 2.044966 1_555
Li12 O22 2.056047 1_555
Li12 O12 2.075872 1_555
Li12 O3 2.136243 1_555
Li12 O10 2.243832 1_555
Li12 O4 2.294180 1_555
Li13 O17 2.056381 1_455
Li13 O23 2.057938 1_555
Li13 O13 2.080297 1_465
Li13 O2 2.113140 1_565
Li13 O5 2.227943 1_555
Li13 O11 2.313388 1_455
Co0 O7 1.842640 1_455
Co0 O8 1.863349 1_555
Co0 O4 1.926761 1_465
Co0 O18 1.932679 1_566
Co0 O23 1.942713 1_556
Co0 O13 1.955644 1_466
Co1 O6 1.855494 1_555
Co1 O9 1.866477 1_555
Co1 O19 1.928663 1_556
Co1 O12 1.935120 1_556
Co1 O5 1.936561 1_555
Co1 O22 1.939385 1_556
Co2 O5 1.856021 1_555
Co2 O15 1.869243 1_455
Co2 O20 1.922752 1_555
Co2 O6 1.929760 1_555
Co2 O17 1.934581 1_455
Co2 O10 1.943418 1_555
Co3 O14 1.829144 1_555
Co3 O11 1.889003 1_545
Co3 O4 1.897870 1_555
Co3 O21 1.982721 1_545
Co3 O7 2.061416 1_545
Co3 O16 2.135829 1_555
Co4 O10 1.897219 1_555
Co4 O16 1.984504 1_555
Co4 O2 2.012834 1_555
Co4 O14 2.055988 1_555
Co4 O20 2.062625 1_555
Co4 O0 2.094517 1_555
Co5 O11 1.945263 1_555
Co5 O3 1.971614 1_555
Co5 O17 2.002035 1_555
Co5 O15 2.008157 1_555
Co5 O21 2.027826 1_555
Co5 O1 2.136615 1_555
Co6 O13 1.886866 1_555
Co6 O9 2.005234 1_554
Co6 O22 2.016741 1_555
Co6 O0 2.024935 1_655
Co6 O18 2.039061 1_655
Co6 O2 2.141038 1_655
Co7 O12 1.893500 1_555
Co7 O8 1.998930 1_554
Co7 O1 2.000708 1_555
Co7 O23 2.016896 1_555
Co7 O19 2.045559 1_555
Co7 O3 2.148972 1_555
Co8 O2 1.999698 1_555
Co8 O16 2.003748 1_555
Co8 O1 2.004569 1_545
Co8 O23 2.022481 1_545
Co8 O21 2.040784 1_545
Co8 O18 2.041837 1_555
Co9 O0 1.960483 1_655
Co9 O3 1.984805 1_555
Co9 O22 2.031843 1_555
Co9 O17 2.050593 1_555
Co9 O19 2.076857 1_555
Co9 O20 2.078589 1_655
