# generated using pymatgen
data_La3(GaRu)2
_symmetry_space_group_name_H-M   'P 1'
_cell_length_a   5.81700331
_cell_length_b   12.41661307
_cell_length_c   13.88087800
_cell_angle_alpha   90.00000000
_cell_angle_beta   90.00000000
_cell_angle_gamma   97.45247215
_symmetry_Int_Tables_number   1
_chemical_formula_structural   La3(GaRu)2
_chemical_formula_sum   'La18 Ga12 Ru12'
_cell_volume   994.11182222
_cell_formula_units_Z   6
loop_
 _symmetry_equiv_pos_site_id
 _symmetry_equiv_pos_as_xyz
  1  'x, y, z'
loop_
 _atom_site_type_symbol
 _atom_site_label
 _atom_site_symmetry_multiplicity
 _atom_site_fract_x
 _atom_site_fract_y
 _atom_site_fract_z
 _atom_site_occupancy
  La  La0  1  0.72988900  0.76564800  0.09305500  1
  La  La1  1  0.27011100  0.23435200  0.59305500  1
  La  La2  1  0.27011100  0.23435200  0.90694500  1
  La  La3  1  0.72988900  0.76564800  0.40694500  1
  La  La4  1  0.68005400  0.56278000  0.59304800  1
  La  La5  1  0.31994600  0.43722000  0.09304800  1
  La  La6  1  0.31994600  0.43722000  0.40695200  1
  La  La7  1  0.68005400  0.56278000  0.90695200  1
  La  La8  1  0.45825500  0.89567900  0.59450100  1
  La  La9  1  0.54174500  0.10432100  0.09450100  1
  La  La10  1  0.54174500  0.10432100  0.40549900  1
  La  La11  1  0.45825500  0.89567900  0.90549900  1
  La  La12  1  0.97518700  0.99649300  0.75000000  1
  La  La13  1  0.02481300  0.00350700  0.25000000  1
  La  La14  1  0.82634000  0.32806600  0.75000000  1
  La  La15  1  0.17366000  0.67193400  0.25000000  1
  La  La16  1  0.17000400  0.66216900  0.75000000  1
  La  La17  1  0.82999600  0.33783100  0.25000000  1
  Ga  Ga0  1  0.83035500  0.33078300  0.50151400  1
  Ga  Ga1  1  0.16964500  0.66921700  0.00151400  1
  Ga  Ga2  1  0.16964500  0.66921700  0.49848600  1
  Ga  Ga3  1  0.83035500  0.33078300  0.99848600  1
  Ga  Ga4  1  0.71278500  0.76001900  0.75000000  1
  Ga  Ga5  1  0.28721500  0.23998100  0.25000000  1
  Ga  Ga6  1  0.52235000  0.10070700  0.75000000  1
  Ga  Ga7  1  0.47765000  0.89929300  0.25000000  1
  Ga  Ga8  1  0.34110600  0.43109000  0.75000000  1
  Ga  Ga9  1  0.65889400  0.56891000  0.25000000  1
  Ga  Ga10  1  0.00000000  0.00000000  0.50000000  1
  Ga  Ga11  1  0.00000000  0.00000000  0.00000000  1
  Ru  Ru0  1  0.94230800  0.81531100  0.59150300  1
  Ru  Ru1  1  0.05769200  0.18468900  0.09150300  1
  Ru  Ru2  1  0.05769200  0.18468900  0.40849700  1
  Ru  Ru3  1  0.94230800  0.81531100  0.90849700  1
  Ru  Ru4  1  0.85939500  0.52012600  0.09070600  1
  Ru  Ru5  1  0.14060500  0.47987400  0.59070600  1
  Ru  Ru6  1  0.14060500  0.47987400  0.90929400  1
  Ru  Ru7  1  0.85939500  0.52012600  0.40929400  1
  Ru  Ru8  1  0.75834600  0.13589800  0.58766300  1
  Ru  Ru9  1  0.24165400  0.86410200  0.08766300  1
  Ru  Ru10  1  0.24165400  0.86410200  0.41233700  1
  Ru  Ru11  1  0.75834600  0.13589800  0.91233700  1
loop_
_geom_bond_atom_site_label_1
_geom_bond_atom_site_label_2
_geom_bond_distance
_geom_bond_site_symmetry_2
La0 Ru3 2.876172 1_554
La0 Ru9 3.068901 1_655
La0 Ru4 3.233883 1_555
La0 Ru9 3.235216 1_555
La1 Ru2 2.876172 1_555
La1 Ru8 3.068901 1_455
La1 Ru5 3.233883 1_555
La1 Ru8 3.235216 1_555
La2 Ru1 2.876172 1_556
La2 Ru11 3.068901 1_455
La2 Ru6 3.233883 1_555
La2 Ru11 3.235216 1_555
La3 Ru0 2.876172 1_555
La3 Ru10 3.068901 1_655
La3 Ru7 3.233883 1_555
La3 Ru10 3.235216 1_555
La4 Ru7 2.831615 1_555
La4 Ru5 2.992211 1_655
La4 Ru5 3.173277 1_555
La4 Ru0 3.304347 1_555
La5 Ru6 2.831615 1_554
La5 Ru4 2.992211 1_455
La5 Ru4 3.173277 1_555
La5 Ru1 3.304347 1_555
La6 Ru5 2.831615 1_555
La6 Ru7 2.992211 1_455
La6 Ru7 3.173277 1_555
La6 Ru2 3.304347 1_555
La7 Ru4 2.831615 1_556
La7 Ru6 2.992211 1_655
La7 Ru6 3.173277 1_555
La7 Ru3 3.304347 1_555
La8 Ru10 2.829646 1_555
La8 Ru0 3.037797 1_455
La8 Ru0 3.107218 1_555
La8 Ru8 3.256089 1_565
La9 Ru11 2.829646 1_554
La9 Ru1 3.037797 1_655
La9 Ru1 3.107218 1_555
La9 Ru9 3.256089 1_545
La10 Ru8 2.829646 1_555
La10 Ru2 3.037797 1_655
La10 Ru2 3.107218 1_555
La10 Ru10 3.256089 1_545
La11 Ru9 2.829646 1_556
La11 Ru3 3.037797 1_455
La11 Ru3 3.107218 1_555
La11 Ru11 3.256089 1_565
La12 Ru0 3.134694 1_555
La12 Ru3 3.134694 1_555
La12 Ru8 3.198638 1_565
La12 Ru11 3.198638 1_565
La13 Ru1 3.134694 1_555
La13 Ru2 3.134694 1_555
La13 Ru9 3.198638 1_545
La13 Ru10 3.198638 1_545
La14 Ru8 3.268440 1_555
La14 Ru11 3.268440 1_555
La14 Ru5 3.300023 1_655
La14 Ru6 3.300023 1_655
La15 Ru10 3.268440 1_555
La15 Ru9 3.268440 1_555
La15 Ru4 3.300023 1_455
La15 Ru7 3.300023 1_455
La16 Ru6 3.152990 1_555
La16 Ru5 3.152990 1_555
La16 Ru3 3.296015 1_455
La16 Ru0 3.296015 1_455
La17 Ru7 3.152990 1_555
La17 Ru4 3.152990 1_555
La17 Ru2 3.296015 1_655
La17 Ru1 3.296015 1_655
Ga0 Ru7 2.662959 1_555
Ga0 Ru8 2.682910 1_555
Ga0 Ru2 2.707164 1_655
Ga0 Ru5 2.711113 1_655
Ga0 La1 3.222803 1_655
Ga0 La6 3.256377 1_655
Ga0 La10 3.358116 1_555
Ga0 La4 3.366012 1_555
Ga0 La14 3.449418 1_555
Ga0 La17 3.492339 1_555
Ga0 La1 3.557627 1_555
Ga0 La6 3.647281 1_555
Ga1 Ru6 2.662959 1_554
Ga1 Ru9 2.682910 1_555
Ga1 Ru3 2.707164 1_454
Ga1 Ru4 2.711113 1_455
Ga1 La0 3.222803 1_455
Ga1 La7 3.256377 1_454
Ga1 La11 3.358116 1_554
Ga1 La5 3.366012 1_555
Ga1 La15 3.449418 1_555
Ga1 La16 3.492339 1_554
Ga1 La0 3.557627 1_555
Ga1 La7 3.647281 1_554
Ga2 Ru5 2.662959 1_555
Ga2 Ru10 2.682910 1_555
Ga2 Ru0 2.707164 1_455
Ga2 Ru7 2.711113 1_455
Ga2 La3 3.222803 1_455
Ga2 La4 3.256377 1_455
Ga2 La8 3.358116 1_555
Ga2 La6 3.366012 1_555
Ga2 La15 3.449418 1_555
Ga2 La16 3.492339 1_555
Ga2 La3 3.557627 1_555
Ga2 La4 3.647281 1_555
Ga3 Ru4 2.662959 1_556
Ga3 Ru11 2.682910 1_555
Ga3 Ru1 2.707164 1_656
Ga3 Ru6 2.711113 1_655
Ga3 La2 3.222803 1_655
Ga3 La5 3.256377 1_656
Ga3 La9 3.358116 1_556
Ga3 La7 3.366012 1_555
Ga3 La14 3.449418 1_555
Ga3 La17 3.492339 1_556
Ga3 La2 3.557627 1_555
Ga3 La5 3.647281 1_556
Ga4 Ru0 2.618489 1_555
Ga4 Ru3 2.618489 1_555
Ga4 La16 3.064000 1_655
Ga4 La12 3.128669 1_555
Ga4 La11 3.214876 1_555
Ga4 La8 3.214876 1_555
Ga4 La16 3.232638 1_555
Ga4 La7 3.264893 1_555
Ga4 La4 3.264893 1_555
Ga5 Ru1 2.618489 1_555
Ga5 Ru2 2.618489 1_555
Ga5 La17 3.064000 1_455
Ga5 La13 3.128669 1_555
Ga5 La9 3.214876 1_555
Ga5 La10 3.214876 1_555
Ga5 La17 3.232638 1_555
Ga5 La5 3.264893 1_555
Ga5 La6 3.264893 1_555
Ga6 Ru11 2.645297 1_555
Ga6 Ru8 2.645297 1_555
Ga6 La12 3.081780 1_545
Ga6 La14 3.130727 1_555
Ga6 La1 3.206897 1_555
Ga6 La2 3.206897 1_555
Ga6 La12 3.276666 1_445
Ga6 La8 3.321538 1_545
Ga6 La11 3.321538 1_545
Ga7 Ru10 2.645297 1_555
Ga7 Ru9 2.645297 1_555
Ga7 La13 3.081780 1_565
Ga7 La15 3.130727 1_555
Ga7 La0 3.206897 1_555
Ga7 La3 3.206897 1_555
Ga7 La13 3.276666 1_665
Ga7 La9 3.321538 1_565
Ga7 La10 3.321538 1_565
Ga8 Ru6 2.607606 1_555
Ga8 Ru5 2.607606 1_555
Ga8 La14 3.099860 1_455
Ga8 La16 3.156555 1_555
Ga8 La7 3.235933 1_555
Ga8 La4 3.235933 1_555
Ga8 La14 3.246557 1_555
Ga8 La2 3.259177 1_555
Ga8 La1 3.259177 1_555
Ga9 Ru7 2.607606 1_555
Ga9 Ru4 2.607606 1_555
Ga9 La15 3.099860 1_655
Ga9 La17 3.156555 1_555
Ga9 La5 3.235933 1_555
Ga9 La6 3.235933 1_555
Ga9 La15 3.246557 1_555
Ga9 La3 3.259177 1_555
Ga9 La0 3.259177 1_555
Ga10 Ru0 2.604816 1_445
Ga10 Ru2 2.604816 1_555
Ga10 Ru10 2.630456 1_545
Ga10 Ru8 2.630456 1_455
Ga10 La8 3.376396 1_545
Ga10 La10 3.376396 1_455
Ga10 La3 3.379124 1_445
Ga10 La1 3.379124 1_555
Ga10 La12 3.473258 1_445
Ga10 La13 3.473258 1_555
Ga10 La8 3.502934 1_445
Ga10 La10 3.502934 1_555
Ga11 Ru3 2.604816 1_444
Ga11 Ru1 2.604816 1_555
Ga11 Ru9 2.630456 1_545
Ga11 Ru11 2.630456 1_454
Ga11 La9 3.376396 1_455
Ga11 La11 3.376396 1_544
Ga11 La2 3.379124 1_554
Ga11 La0 3.379124 1_445
Ga11 La12 3.473258 1_444
Ga11 La13 3.473258 1_555
Ga11 La11 3.502934 1_444
Ga11 La9 3.502934 1_555
