# generated using pymatgen
data_TiAu4
_symmetry_space_group_name_H-M   'P 1'
_cell_length_a   3.96365828
_cell_length_b   5.03752547
_cell_length_c   5.03752561
_cell_angle_alpha   81.09632132
_cell_angle_beta   66.83297111
_cell_angle_gamma   66.83296265
_symmetry_Int_Tables_number   1
_chemical_formula_structural   TiAu4
_chemical_formula_sum   'Ti1 Au4'
_cell_volume   85.01659118
_cell_formula_units_Z   1
loop_
 _symmetry_equiv_pos_site_id
 _symmetry_equiv_pos_as_xyz
  1  'x, y, z'
loop_
 _atom_site_type_symbol
 _atom_site_label
 _atom_site_symmetry_multiplicity
 _atom_site_fract_x
 _atom_site_fract_y
 _atom_site_fract_z
 _atom_site_occupancy
  Ti  Ti0  1  -0.00000000  0.00000000  -0.00000000  1
  Au  Au0  1  0.60486904  0.60227154  0.18799437  1
  Au  Au1  1  0.39513096  0.39772846  0.81200563  1
  Au  Au2  1  0.79286041  0.81200563  0.60227154  1
  Au  Au3  1  0.20713959  0.18799437  0.39772846  1
loop_
_geom_bond_atom_site_label_1
_geom_bond_atom_site_label_2
_geom_bond_distance
_geom_bond_site_symmetry_2
Au0 Au1 2.803063 1_654
Au0 Au1 2.803085 1_554
Au0 Ti0 2.842295 1_665
Au0 Ti0 2.842306 1_565
Au0 Au3 2.881328 1_565
Au0 Au2 2.881328 1_554
Au0 Ti0 2.922032 1_655
Au0 Au2 2.924432 1_555
Au0 Au3 2.924438 1_655
Au0 Au3 2.924444 1_555
Au0 Au2 2.924450 1_455
Au0 Au1 3.041285 1_555
Au1 Ti0 2.842295 1_556
Au1 Ti0 2.842306 1_656
Au1 Au2 2.881328 1_545
Au1 Au3 2.881328 1_556
Au1 Ti0 2.922032 1_566
Au1 Au3 2.924432 1_555
Au1 Au2 2.924438 1_455
Au1 Au2 2.924444 1_555
Au1 Au3 2.924450 1_655
Au2 Au3 2.803068 1_565
Au2 Au3 2.803079 1_665
Au2 Ti0 2.842298 1_566
Au2 Ti0 2.842303 1_666
Au2 Ti0 2.922033 1_665
Au2 Au3 3.041285 1_655
Au3 Ti0 2.842298 1_655
Au3 Ti0 2.842303 1_555
Au3 Ti0 2.922033 1_556
