# generated using pymatgen
data_CsIn(SO5)2
_symmetry_space_group_name_H-M   'P 1'
_cell_length_a   7.09840518
_cell_length_b   8.79089435
_cell_length_c   8.79205771
_cell_angle_alpha   115.65234199
_cell_angle_beta   98.93649750
_cell_angle_gamma   98.94303058
_symmetry_Int_Tables_number   1
_chemical_formula_structural   CsIn(SO5)2
_chemical_formula_sum   'Cs2 In2 S4 O20'
_cell_volume   473.03309286
_cell_formula_units_Z   2
loop_
 _symmetry_equiv_pos_site_id
 _symmetry_equiv_pos_as_xyz
  1  'x, y, z'
loop_
 _atom_site_type_symbol
 _atom_site_label
 _atom_site_symmetry_multiplicity
 _atom_site_fract_x
 _atom_site_fract_y
 _atom_site_fract_z
 _atom_site_occupancy
  Cs  Cs0  1  0.75006900  0.61062600  0.38961700  1
  Cs  Cs1  1  0.24999100  0.38956800  0.61049500  1
  In  In0  1  0.74999000  0.19326700  0.80663200  1
  In  In1  1  0.24999000  0.80676400  0.19323300  1
  S  S0  1  0.81296500  0.61200300  0.89927800  1
  S  S1  1  0.18712700  0.38799000  0.10080500  1
  S  S2  1  0.68701400  0.10074700  0.38797700  1
  S  S3  1  0.31282800  0.89918000  0.61188700  1
  O  O0  1  0.68152100  0.72203600  0.88514300  1
  O  O1  1  0.31837400  0.27784300  0.11493100  1
  O  O2  1  0.81850900  0.11491200  0.27797400  1
  O  O3  1  0.18147900  0.88504400  0.72195200  1
  O  O4  1  0.94136700  0.58667000  0.77899500  1
  O  O5  1  0.05876500  0.41332700  0.22108100  1
  O  O6  1  0.55862100  0.22098900  0.41327900  1
  O  O7  1  0.44111800  0.77889000  0.58654300  1
  O  O8  1  0.93371900  0.68480200  0.08443800  1
  O  O9  1  0.06648100  0.31527100  0.91568800  1
  O  O10  1  0.56629800  0.91560200  0.31525800  1
  O  O11  1  0.43353300  0.08433800  0.68464600  1
  O  O12  1  0.67839000  0.43959000  0.85926700  1
  O  O13  1  0.32157400  0.56037000  0.14079800  1
  O  O14  1  0.82162100  0.14075000  0.56033100  1
  O  O15  1  0.17842300  0.85922400  0.43951200  1
  O  O16  1  0.34573300  0.80060100  0.96694600  1
  O  O17  1  0.65421300  0.19950700  0.03319300  1
  O  O18  1  0.15436100  0.03321000  0.19956100  1
  O  O19  1  0.84592600  0.96687700  0.80054100  1
loop_
_geom_bond_atom_site_label_1
_geom_bond_atom_site_label_2
_geom_bond_distance
_geom_bond_site_symmetry_2
Cs0 O7 3.156901 1_555
Cs0 O5 3.157639 1_655
Cs0 O15 3.302034 1_655
Cs0 O13 3.303119 1_555
Cs0 O10 3.414215 1_555
Cs0 O8 3.414849 1_555
Cs0 O19 3.478655 1_555
Cs0 O17 3.480223 1_555
Cs0 O3 3.543345 1_655
Cs0 O1 3.546483 1_555
Cs0 O4 3.588459 1_555
Cs0 O6 3.588882 1_555
Cs1 O4 3.156310 1_455
Cs1 O6 3.157055 1_555
Cs1 O14 3.302315 1_455
Cs1 O12 3.302995 1_555
Cs1 O11 3.414652 1_555
Cs1 O9 3.414994 1_555
Cs1 O18 3.479276 1_555
Cs1 O16 3.479942 1_555
Cs1 O0 3.544586 1_555
Cs1 O2 3.544711 1_455
Cs1 O7 3.587140 1_555
Cs1 O5 3.587710 1_555
In0 O12 2.170033 1_555
In0 O14 2.170369 1_555
In0 O19 2.183533 1_545
In0 O17 2.184208 1_556
In0 O11 2.192443 1_555
In0 O9 2.192726 1_655
In1 O15 2.170087 1_555
In1 O13 2.170894 1_555
In1 O16 2.182028 1_554
In1 O18 2.182335 1_565
In1 O8 2.191148 1_455
In1 O10 2.191507 1_555
O0 S0 1.473199 1_555
O1 S1 1.472961 1_555
O2 S2 1.473342 1_555
O3 S3 1.472956 1_555
O4 S0 1.468800 1_555
O5 S1 1.468536 1_555
O6 S2 1.468449 1_555
O7 S3 1.468190 1_555
O8 S0 1.512732 1_554
O9 S1 1.512264 1_556
O10 S2 1.512380 1_565
O11 S3 1.512400 1_545
O12 S0 1.522280 1_555
O13 S1 1.521699 1_555
O14 S2 1.522243 1_555
O15 S3 1.521887 1_555
