# generated using pymatgen
data_Li9Mn2Co5O16
_symmetry_space_group_name_H-M   'P 1'
_cell_length_a   2.93749600
_cell_length_b   9.79336761
_cell_length_c   10.19631702
_cell_angle_alpha   79.06974724
_cell_angle_beta   88.88836151
_cell_angle_gamma   87.52731051
_symmetry_Int_Tables_number   1
_chemical_formula_structural   Li9Mn2Co5O16
_chemical_formula_sum   'Li9 Mn2 Co5 O16'
_cell_volume   287.71910887
_cell_formula_units_Z   1
loop_
 _symmetry_equiv_pos_site_id
 _symmetry_equiv_pos_as_xyz
  1  'x, y, z'
loop_
 _atom_site_type_symbol
 _atom_site_label
 _atom_site_symmetry_multiplicity
 _atom_site_fract_x
 _atom_site_fract_y
 _atom_site_fract_z
 _atom_site_occupancy
  Li  Li0  1  0.99621400  0.75268700  0.86416100  1
  Li  Li1  1  0.50575100  0.49944600  0.50470500  1
  Li  Li2  1  0.00298200  0.25152500  0.12413600  1
  Li  Li3  1  0.48846100  0.99156200  0.74751000  1
  Li  Li4  1  0.50234600  0.50065000  0.99691100  1
  Li  Li5  1  0.00654100  0.25268300  0.62838200  1
  Li  Li6  1  0.50592800  0.00099100  0.25063700  1
  Li  Li7  1  0.99098800  0.74635900  0.37985200  1
  Li  Li8  1  0.51391400  0.75382900  0.63195000  1
  Mn  Mn0  1  0.99813900  0.00078400  0.99811100  1
  Mn  Mn1  1  0.99915300  0.99314400  0.50718700  1
  Co  Co0  1  0.99488800  0.49853800  0.25114700  1
  Co  Co1  1  0.50435600  0.25357000  0.87167800  1
  Co  Co2  1  0.49526100  0.74920300  0.12474200  1
  Co  Co3  1  0.00350000  0.51023000  0.74299100  1
  Co  Co4  1  0.49628900  0.24828000  0.37365700  1
  O  O0  1  0.45887400  0.87488700  0.94373200  1
  O  O1  1  0.99967200  0.60743000  0.58057500  1
  O  O2  1  0.49569500  0.38130100  0.19253600  1
  O  O3  1  0.00002300  0.12933500  0.82182000  1
  O  O4  1  0.98841500  0.62959800  0.07408000  1
  O  O5  1  0.47055500  0.37625200  0.69575400  1
  O  O6  1  0.97710500  0.13054500  0.32692300  1
  O  O7  1  0.51590200  0.89075800  0.44360300  1
  O  O8  1  0.53257500  0.61412100  0.80874100  1
  O  O9  1  0.01548500  0.36179300  0.42686700  1
  O  O10  1  0.53964600  0.12922900  0.05440400  1
  O  O11  1  0.00395700  0.88506000  0.67395800  1
  O  O12  1  0.00357800  0.38067700  0.91759000  1
  O  O13  1  0.47930700  0.11210000  0.55366600  1
  O  O14  1  0.01125000  0.87360300  0.17899000  1
  O  O15  1  0.50325300  0.61983100  0.30901000  1
loop_
_geom_bond_atom_site_label_1
_geom_bond_atom_site_label_2
_geom_bond_distance
_geom_bond_site_symmetry_2
Li0 O0 2.118692 1_655
Li0 O11 2.118883 1_655
Li0 O8 2.120342 1_555
Li0 O8 2.171404 1_655
Li0 O0 2.176569 1_555
Li0 O4 2.248772 1_556
Li1 O1 2.014144 1_455
Li1 O1 2.075593 1_555
Li1 O5 2.091090 1_555
Li1 O15 2.116417 1_555
Li1 O9 2.207879 1_655
Li1 O9 2.266913 1_555
Li2 O10 2.072098 1_455
Li2 O2 2.110607 1_455
Li2 O10 2.131130 1_555
Li2 O2 2.174980 1_555
Li2 O6 2.181165 1_455
Li2 O12 2.241642 1_554
Li3 O11 2.014849 1_655
Li3 O11 2.035199 1_555
Li3 O13 2.101257 1_565
Li3 O0 2.109741 1_555
Li3 O3 2.152133 1_565
Li3 O3 2.293373 1_665
Li4 O8 2.029118 1_555
Li4 O12 2.089825 1_655
Li4 O2 2.112229 1_556
Li4 O4 2.158518 1_456
Li4 O12 2.176258 1_555
Li4 O4 2.197396 1_556
Li5 O5 2.070789 1_555
Li5 O3 2.108740 1_555
Li5 O5 2.127011 1_455
Li5 O9 2.128859 1_555
Li5 O13 2.143889 1_555
Li5 O13 2.345646 1_455
Li6 O7 2.057065 1_545
Li6 O14 2.106473 1_645
Li6 O10 2.154199 1_555
Li6 O6 2.167497 1_555
Li6 O14 2.178270 1_545
Li6 O6 2.187514 1_455
Li7 O15 2.111381 1_655
Li7 O7 2.124398 1_555
Li7 O15 2.154686 1_555
Li7 O14 2.187409 1_655
Li7 O1 2.232393 1_555
Li7 O7 2.318525 1_655
Li8 O11 2.024086 1_555
Li8 O8 2.046090 1_555
Li8 O11 2.073562 1_655
Li8 O1 2.108407 1_555
Li8 O7 2.123683 1_555
Li8 O1 2.261476 1_455
Mn0 O0 1.935322 1_645
Mn0 O10 1.955338 1_556
Mn0 O3 1.989493 1_655
Mn0 O14 2.020334 1_646
Mn0 O0 2.190618 1_545
Mn0 O10 2.218991 1_656
Mn1 O11 1.824615 1_655
Mn1 O7 1.951131 1_655
Mn1 O7 1.961099 1_555
Mn1 O13 1.985304 1_565
Mn1 O13 1.987016 1_665
Mn1 O6 2.062133 1_565
Co0 O2 1.979880 1_655
Co0 O15 1.982284 1_555
Co0 O4 2.006939 1_555
Co0 O9 2.023503 1_655
Co0 O2 2.065219 1_555
Co0 O15 2.107639 1_655
Co1 O5 1.962229 1_555
Co1 O3 1.977807 1_655
Co1 O12 1.992209 1_555
Co1 O10 2.025109 1_556
Co1 O12 2.079505 1_655
Co1 O3 2.086344 1_555
Co2 O4 1.947159 1_555
Co2 O14 1.971606 1_555
Co2 O0 2.016837 1_554
Co2 O15 2.057256 1_555
Co2 O4 2.065272 1_455
Co2 O14 2.129556 1_655
Co3 O1 1.746635 1_455
Co3 O8 1.870697 1_455
Co3 O5 1.973467 1_555
Co3 O12 1.980535 1_555
Co3 O8 2.082205 1_555
Co3 O5 2.202407 1_455
Co4 O9 1.894321 1_555
Co4 O6 1.895551 1_555
Co4 O2 2.048222 1_555
Co4 O13 2.055198 1_555
Co4 O9 2.064786 1_655
Co4 O6 2.066579 1_455
