# generated using pymatgen
data_CaLa2Ti2Cr2O12
_symmetry_space_group_name_H-M   'P 1'
_cell_length_a   5.44832600
_cell_length_b   5.46771967
_cell_length_c   7.71416062
_cell_angle_alpha   89.68673643
_cell_angle_beta   89.96154860
_cell_angle_gamma   89.10392177
_symmetry_Int_Tables_number   1
_chemical_formula_structural   CaLa2Ti2Cr2O12
_chemical_formula_sum   'Ca1 La2 Ti2 Cr2 O12'
_cell_volume   229.77264448
_cell_formula_units_Z   1
loop_
 _symmetry_equiv_pos_site_id
 _symmetry_equiv_pos_as_xyz
  1  'x, y, z'
loop_
 _atom_site_type_symbol
 _atom_site_label
 _atom_site_symmetry_multiplicity
 _atom_site_fract_x
 _atom_site_fract_y
 _atom_site_fract_z
 _atom_site_occupancy
  Ca  Ca0  1  0.50309200  0.53260200  0.75079000  1
  La  La0  1  0.99292100  0.02764400  0.75125900  1
  La  La1  1  0.49517000  0.47864300  0.24883400  1
  Ti  Ti0  1  0.49540600  0.99786900  0.01081500  1
  Ti  Ti1  1  0.99897300  0.51211500  0.49259900  1
  Cr  Cr0  1  0.49414700  0.00401500  0.49707100  1
  Cr  Cr1  1  0.99925300  0.50323700  0.00242500  1
  O  O0  1  0.94687600  0.51129800  0.24770200  1
  O  O1  1  0.77354700  0.76755800  0.96016600  1
  O  O2  1  0.76750100  0.77388700  0.53980500  1
  O  O3  1  0.72209600  0.28048900  0.96506900  1
  O  O4  1  0.71869600  0.28076400  0.53407500  1
  O  O5  1  0.55072000  0.00173200  0.25120100  1
  O  O6  1  0.44012600  0.99292100  0.74763800  1
  O  O7  1  0.28539200  0.71556400  0.47985300  1
  O  O8  1  0.28520500  0.71392400  0.01946600  1
  O  O9  1  0.23222100  0.22654200  0.47419000  1
  O  O10  1  0.22725600  0.23096900  0.02506300  1
  O  O11  1  0.06137500  0.48919600  0.75218800  1
loop_
_geom_bond_atom_site_label_1
_geom_bond_atom_site_label_2
_geom_bond_distance
_geom_bond_site_symmetry_2
Ca0 O11 2.421994 1_555
Ca0 O3 2.445934 1_555
Ca0 O4 2.458195 1_555
Ca0 O6 2.534833 1_555
Ca0 O2 2.549038 1_555
Ca0 O1 2.552548 1_555
Ca0 O8 2.582679 1_556
Ca0 O7 2.592156 1_555
La0 O6 2.441095 1_645
La0 O1 2.464436 1_545
La0 O2 2.484950 1_545
La0 O11 2.556860 1_655
La0 O3 2.601300 1_555
La0 O4 2.620674 1_555
La0 O10 2.720464 1_656
La0 O9 2.732403 1_655
La0 O11 2.961790 1_645
La0 O6 3.020905 1_545
La0 O8 3.104705 1_646
La0 O7 3.127914 1_645
La1 O8 2.454812 1_555
La1 O0 2.470299 1_555
La1 O7 2.477208 1_555
La1 O5 2.620381 1_555
La1 O9 2.647043 1_555
La1 O10 2.652380 1_555
La1 O4 2.726140 1_555
La1 O3 2.733977 1_554
La1 O5 2.880934 1_565
La1 O0 2.989843 1_455
La1 O1 3.128344 1_554
La1 O2 3.156697 1_555
Cr0 O9 1.868616 1_555
Cr0 O5 1.921435 1_555
Cr0 O6 1.955755 1_545
Cr0 O2 1.961509 1_545
Cr0 O7 1.964002 1_545
Cr0 O4 1.982690 1_555
Cr1 O1 1.909707 1_554
Cr1 O0 1.913958 1_555
Cr1 O10 1.931174 1_655
Cr1 O8 1.956946 1_655
Cr1 O11 1.961301 1_654
Cr1 O3 1.977006 1_554
O0 Ti1 1.910607 1_555
O1 Ti0 1.994938 1_556
O2 Ti1 1.928809 1_555
O3 Ti0 2.022626 1_546
O4 Ti1 2.022298 1_555
O5 Ti0 1.879191 1_545
O6 Ti0 2.052995 1_556
O7 Ti1 1.932659 1_455
O8 Ti0 1.944420 1_555
O9 Ti1 2.003327 1_455
O10 Ti0 1.927174 1_545
O11 Ti1 2.034252 1_455
