# generated using pymatgen
data_Li6Mn3CoO10
_symmetry_space_group_name_H-M   'P 1'
_cell_length_a   2.99753100
_cell_length_b   6.46047622
_cell_length_c   9.91589143
_cell_angle_alpha   79.23330371
_cell_angle_beta   86.12973487
_cell_angle_gamma   76.71025981
_symmetry_Int_Tables_number   1
_chemical_formula_structural   Li6Mn3CoO10
_chemical_formula_sum   'Li6 Mn3 Co1 O10'
_cell_volume   183.53307500
_cell_formula_units_Z   1
loop_
 _symmetry_equiv_pos_site_id
 _symmetry_equiv_pos_as_xyz
  1  'x, y, z'
loop_
 _atom_site_type_symbol
 _atom_site_label
 _atom_site_symmetry_multiplicity
 _atom_site_fract_x
 _atom_site_fract_y
 _atom_site_fract_z
 _atom_site_occupancy
  Li  Li0  1  0.88647600  0.20536400  0.69252800  1
  Li  Li1  1  0.10616400  0.80221500  0.30094200  1
  Li  Li2  1  0.48545100  0.01267700  0.49835100  1
  Li  Li3  1  0.70796800  0.58296000  0.10259600  1
  Li  Li4  1  0.31557800  0.39358000  0.91172100  1
  Li  Li5  1  0.38170500  0.21183900  0.19315200  1
  Mn  Mn0  1  0.00288300  0.00660300  0.00746600  1
  Mn  Mn1  1  0.19756800  0.59904600  0.59590200  1
  Mn  Mn2  1  0.61546600  0.79434600  0.80365400  1
  Co  Co0  1  0.79074400  0.39197200  0.38904800  1
  O  O0  1  0.49060900  0.07663900  0.86800300  1
  O  O1  1  0.63565600  0.67704300  0.44970400  1
  O  O2  1  0.03020900  0.88515200  0.65414400  1
  O  O3  1  0.22563800  0.49495200  0.26325700  1
  O  O4  1  0.85370000  0.28139800  0.04470100  1
  O  O5  1  0.36034700  0.31593700  0.54553000  1
  O  O6  1  0.52171200  0.91384200  0.13060000  1
  O  O7  1  0.94151700  0.12655400  0.35898300  1
  O  O8  1  0.18012900  0.71560300  0.94671300  1
  O  O9  1  0.77047900  0.51227900  0.74300600  1
loop_
_geom_bond_atom_site_label_1
_geom_bond_atom_site_label_2
_geom_bond_distance
_geom_bond_site_symmetry_2
Li0 O9 2.081668 1_555
Li0 O5 2.109639 1_655
Li0 O2 2.114798 1_645
Li0 O5 2.127320 1_555
Li0 O0 2.182103 1_555
Li0 O0 2.488152 1_655
Li1 O3 2.034850 1_555
Li1 O6 2.144418 1_555
Li1 O1 2.148682 1_455
Li1 O1 2.151576 1_555
Li1 O7 2.214096 1_465
Li1 O6 2.409525 1_455
Li2 O7 2.036528 1_555
Li2 O5 2.044247 1_555
Li2 O7 2.117141 1_455
Li2 O2 2.164294 1_545
Li2 O2 2.231191 1_645
Li2 O1 2.247176 1_545
Li3 O4 2.075754 1_555
Li3 O6 2.147216 1_555
Li3 O3 2.163365 1_555
Li3 O8 2.199748 1_554
Li3 O3 2.204262 1_655
Li3 O8 2.212260 1_654
Li4 O4 2.009638 1_456
Li4 O4 2.063614 1_556
Li4 O0 2.112545 1_555
Li4 O8 2.115594 1_555
Li4 O9 2.222538 1_555
Li4 O9 2.317386 1_455
Li5 O3 2.021201 1_555
Li5 O4 2.033353 1_555
Li5 O6 2.075284 1_545
Li5 O7 2.109826 1_455
Li5 O4 2.148055 1_455
Li5 O7 2.330727 1_555
Mn0 O4 1.829106 1_455
Mn0 O6 1.953589 1_445
Mn0 O6 1.955267 1_545
Mn0 O0 2.012938 1_554
Mn0 O8 2.024920 1_544
Mn0 O0 2.051470 1_454
Mn1 O5 1.931580 1_555
Mn1 O9 1.962963 1_455
Mn1 O1 1.963224 1_555
Mn1 O2 1.983714 1_555
Mn1 O1 2.204318 1_455
Mn1 O9 2.231860 1_555
Mn2 O8 1.938981 1_555
Mn2 O2 1.961926 1_655
Mn2 O9 1.969956 1_555
Mn2 O0 1.990478 1_565
Mn2 O8 2.189661 1_655
Mn2 O2 2.274354 1_555
Co0 O7 1.746406 1_555
Co0 O3 1.888659 1_655
Co0 O1 1.988013 1_555
Co0 O5 2.012392 1_555
Co0 O3 2.079636 1_555
Co0 O5 2.291601 1_655
