# generated using pymatgen
data_Sr2YAlV2O7
_symmetry_space_group_name_H-M   'P 1'
_cell_length_a   11.74095306
_cell_length_b   11.74095306
_cell_length_c   11.74095306
_cell_angle_alpha   152.28089249
_cell_angle_beta   151.37521009
_cell_angle_gamma   40.26933935
_symmetry_Int_Tables_number   1
_chemical_formula_structural   Sr2YAlV2O7
_chemical_formula_sum   'Sr4 Y2 Al2 V4 O14'
_cell_volume   359.93958620
_cell_formula_units_Z   2
loop_
 _symmetry_equiv_pos_site_id
 _symmetry_equiv_pos_as_xyz
  1  'x, y, z'
loop_
 _atom_site_type_symbol
 _atom_site_label
 _atom_site_symmetry_multiplicity
 _atom_site_fract_x
 _atom_site_fract_y
 _atom_site_fract_z
 _atom_site_occupancy
  Sr  Sr0  1  0.81859800  0.83112900  0.96357300  1
  Sr  Sr1  1  0.18140200  0.14497500  0.01253200  1
  Sr  Sr2  1  0.63244400  0.64497500  0.96357300  1
  Sr  Sr3  1  0.36755600  0.33112900  0.01253200  1
  Y  Y0  1  0.50000000  0.48908300  0.98908300  1
  Y  Y1  1  0.00000000  0.98908300  0.98908300  1
  Al  Al0  1  0.17359000  0.75902800  0.43261800  1
  Al  Al1  1  0.82641000  0.25902800  0.58543800  1
  V  V0  1  0.92430600  0.40425400  0.47928400  1
  V  V1  1  0.07569400  0.55497800  0.47994700  1
  V  V2  1  0.57503100  0.05497800  0.47928400  1
  V  V3  1  0.42496900  0.90425400  0.47994700  1
  O  O0  1  0.92458200  0.56526500  0.98984700  1
  O  O1  1  0.07541800  0.06526500  0.64068300  1
  O  O2  1  0.72272300  0.70332100  0.55974000  1
  O  O3  1  0.27727700  0.83701800  0.98059800  1
  O  O4  1  0.35641900  0.33701800  0.55974000  1
  O  O5  1  0.64358100  0.20332100  0.98059800  1
  O  O6  1  0.13107000  0.10810400  0.38553200  1
  O  O7  1  0.86893000  0.25446200  0.97703400  1
  O  O8  1  0.77742800  0.75446200  0.38553200  1
  O  O9  1  0.22257200  0.60810400  0.97703400  1
  O  O10  1  0.37950700  0.78463800  0.52325300  1
  O  O11  1  0.62049300  0.14374600  0.40513100  1
  O  O12  1  0.23861600  0.64374600  0.52325300  1
  O  O13  1  0.76138400  0.28463800  0.40513100  1
loop_
_geom_bond_atom_site_label_1
_geom_bond_atom_site_label_2
_geom_bond_distance
_geom_bond_site_symmetry_2
Al0 O12 1.759021 1_555
Al0 O10 1.759029 1_555
Al0 O0 1.810326 1_454
Al0 O1 1.814380 1_565
Al1 O13 1.759020 1_555
Al1 O11 1.759029 1_555
Al1 O1 1.810326 1_655
Al1 O0 1.814380 1_555
O0 Sr2 2.547705 1_555
O0 Sr0 2.547705 1_555
O1 Sr3 2.547698 1_556
O1 Sr1 2.547716 1_556
O2 V0 2.047856 1_555
O2 V3 2.059686 1_555
O2 Y1 2.276061 1_655
O2 Sr0 2.571161 1_555
O2 Y0 2.738145 1_554
O2 Sr3 2.971521 1_555
O3 V1 2.047860 1_555
O3 V2 2.059683 1_566
O3 Y1 2.276065 1_555
O3 Sr1 2.571142 1_566
O3 Y0 2.738154 1_555
O3 Sr2 2.971512 1_555
O4 V2 2.047864 1_555
O4 V1 2.059678 1_555
O4 Y0 2.276068 1_555
O4 Sr2 2.571152 1_555
O4 Y1 2.738151 1_544
O4 Sr1 2.971499 1_555
O5 V3 2.047859 1_545
O5 V0 2.059682 1_556
O5 Y0 2.276061 1_555
O5 Sr3 2.571170 1_556
O5 Y1 2.738145 1_645
O5 Sr0 2.971517 1_545
O6 V0 2.056374 1_455
O6 V3 2.059889 1_545
O6 Y1 2.275415 1_544
O6 Sr0 2.520531 1_444
O6 Sr3 3.137185 1_556
O7 V1 2.056371 1_656
O7 V2 2.059893 1_555
O7 Y1 2.275415 1_645
O7 Sr1 2.520524 1_656
O7 Sr2 3.137176 1_555
O8 V2 2.056371 1_565
O8 V1 2.059893 1_655
O8 Y0 2.275415 1_554
O8 Sr2 2.520531 1_554
O8 Sr1 3.137172 1_666
O9 V3 2.056371 1_556
O9 V0 2.059894 1_455
O9 Y0 2.275415 1_555
O9 Sr3 2.520540 1_556
O9 Sr0 3.137176 1_455
O10 V3 2.323885 1_555
O10 Sr0 2.472117 1_555
O10 Sr3 2.731709 1_555
O10 Sr3 2.995349 1_566
O11 V2 2.323874 1_555
O11 Sr1 2.472117 1_555
O11 Sr2 2.731714 1_544
O11 Sr2 2.995348 1_555
O12 V1 2.323885 1_555
O12 Sr2 2.472117 1_555
O12 Sr1 2.731713 1_555
O12 Sr1 2.995357 1_566
O13 V0 2.323896 1_555
O13 Sr3 2.472112 1_555
O13 Sr0 2.731719 1_544
O13 Sr0 2.995347 1_555
