# generated using pymatgen
data_LiMnCoO4
_symmetry_space_group_name_H-M   'P 1'
_cell_length_a   5.70985500
_cell_length_b   5.79292633
_cell_length_c   5.84281585
_cell_angle_alpha   117.99059240
_cell_angle_beta   118.84428967
_cell_angle_gamma   90.99262536
_symmetry_Int_Tables_number   1
_chemical_formula_structural   LiMnCoO4
_chemical_formula_sum   'Li2 Mn2 Co2 O8'
_cell_volume   141.86604105
_cell_formula_units_Z   2
loop_
 _symmetry_equiv_pos_site_id
 _symmetry_equiv_pos_as_xyz
  1  'x, y, z'
loop_
 _atom_site_type_symbol
 _atom_site_label
 _atom_site_symmetry_multiplicity
 _atom_site_fract_x
 _atom_site_fract_y
 _atom_site_fract_z
 _atom_site_occupancy
  Li  Li0  1  0.00000000  0.50000000  0.00000000  1
  Li  Li1  1  0.00000000  0.00000000  0.50000000  1
  Mn  Mn0  1  0.50000000  0.50000000  0.50000000  1
  Mn  Mn1  1  0.50000000  0.00000000  0.00000000  1
  Co  Co0  1  0.00000000  0.00000000  0.00000000  1
  Co  Co1  1  0.50000000  0.00000000  0.50000000  1
  O  O0  1  0.75497100  0.21545800  0.98770400  1
  O  O1  1  0.29179200  0.77559000  0.54115700  1
  O  O2  1  0.24389700  0.21686700  0.44122800  1
  O  O3  1  0.75729900  0.78343200  0.01439500  1
  O  O4  1  0.24270100  0.21656800  0.98560500  1
  O  O5  1  0.75610300  0.78313300  0.55877200  1
  O  O6  1  0.70820800  0.22441000  0.45884300  1
  O  O7  1  0.24502900  0.78454200  0.01229600  1
loop_
_geom_bond_atom_site_label_1
_geom_bond_atom_site_label_2
_geom_bond_distance
_geom_bond_site_symmetry_2
Li0 O7 2.095600 1_555
Li0 O0 2.095600 1_454
Li0 O4 2.164483 1_554
Li0 O3 2.164483 1_455
Li0 O6 2.325695 1_454
Li0 O1 2.325695 1_555
Li1 O3 2.085530 1_445
Li1 O4 2.085530 1_555
Li1 O2 2.107442 1_555
Li1 O5 2.107442 1_445
Li1 O1 2.122632 1_545
Li1 O6 2.122632 1_455
Mn0 O2 1.962180 1_555
Mn0 O5 1.962180 1_555
Mn0 O6 2.000282 1_555
Mn0 O1 2.000282 1_555
Mn0 O3 2.216159 1_556
Mn0 O4 2.216159 1_554
Mn1 O4 1.945007 1_554
Mn1 O3 1.945007 1_545
Mn1 O0 1.950543 1_554
Mn1 O7 1.950543 1_545
Mn1 O6 1.972457 1_555
Mn1 O1 1.972457 1_544
Co0 O7 1.888944 1_545
Co0 O0 1.888944 1_454
Co0 O5 1.897131 1_444
Co0 O2 1.897131 1_555
Co0 O3 1.911197 1_445
Co0 O4 1.911197 1_554
Co1 O6 1.917515 1_555
Co1 O1 1.917515 1_545
Co1 O2 1.954133 1_555
Co1 O5 1.954133 1_545
Co1 O7 2.095992 1_545
Co1 O0 2.095992 1_555
