# generated using pymatgen
data_Ba2Mn3O7
_symmetry_space_group_name_H-M   'P 1'
_cell_length_a   3.79356300
_cell_length_b   3.82280000
_cell_length_c   13.43203500
_cell_angle_alpha   90.00000000
_cell_angle_beta   90.00000000
_cell_angle_gamma   90.00000000
_symmetry_Int_Tables_number   1
_chemical_formula_structural   Ba2Mn3O7
_chemical_formula_sum   'Ba2 Mn3 O7'
_cell_volume   194.79180994
_cell_formula_units_Z   1
loop_
 _symmetry_equiv_pos_site_id
 _symmetry_equiv_pos_as_xyz
  1  'x, y, z'
loop_
 _atom_site_type_symbol
 _atom_site_label
 _atom_site_symmetry_multiplicity
 _atom_site_fract_x
 _atom_site_fract_y
 _atom_site_fract_z
 _atom_site_occupancy
  Ba  Ba0  1  0.49835100  0.50000000  0.30739100  1
  Ba  Ba1  1  0.49835100  0.50000000  0.69260900  1
  Mn  Mn0  1  0.99877000  0.00000000  0.13555300  1
  Mn  Mn1  1  0.99877000  0.00000000  0.86444700  1
  Mn  Mn2  1  0.00143600  0.00000000  0.50000000  1
  O  O0  1  0.03408100  0.50000000  0.50000000  1
  O  O1  1  0.49903600  0.00000000  0.15561200  1
  O  O2  1  0.49903600  0.00000000  0.84438800  1
  O  O3  1  0.99961300  0.50000000  0.15349300  1
  O  O4  1  0.99961300  0.50000000  0.84650700  1
  O  O5  1  0.99482200  0.00000000  0.35927600  1
  O  O6  1  0.99482200  0.00000000  0.64072400  1
loop_
_geom_bond_atom_site_label_1
_geom_bond_atom_site_label_2
_geom_bond_distance
_geom_bond_site_symmetry_2
Ba0 O5 2.772422 1_555
Ba0 O5 2.772422 1_565
Ba0 O5 2.790680 1_465
Ba0 O5 2.790680 1_455
Ba0 O1 2.794594 1_555
Ba0 O1 2.794594 1_565
Ba0 O3 2.802286 1_455
Ba0 O3 2.808759 1_555
Ba0 O0 3.129729 1_555
Ba0 O0 3.289923 1_655
Ba1 O6 2.772422 1_565
Ba1 O6 2.772422 1_555
Ba1 O6 2.790680 1_465
Ba1 O6 2.790680 1_455
Ba1 O2 2.794594 1_555
Ba1 O2 2.794594 1_565
Ba1 O4 2.802286 1_455
Ba1 O4 2.808759 1_555
Ba1 O0 3.129729 1_555
Ba1 O0 3.289923 1_655
Mn0 O1 1.914823 1_555
Mn0 O1 1.916821 1_655
Mn0 O3 1.926532 1_555
Mn0 O3 1.926532 1_545
Mn1 O2 1.914823 1_555
Mn1 O2 1.916821 1_655
Mn1 O4 1.926532 1_555
Mn1 O4 1.926532 1_545
Mn2 O6 1.890376 1_455
Mn2 O5 1.890376 1_455
Mn2 O0 1.915408 1_545
Mn2 O0 1.915408 1_555
