# generated using pymatgen
data_Sr2CaFe2Bi2O9
_symmetry_space_group_name_H-M   'P 1'
_cell_length_a   5.33575400
_cell_length_b   5.59253900
_cell_length_c   16.52393659
_cell_angle_alpha   90.00000000
_cell_angle_beta   99.29137664
_cell_angle_gamma   90.00000000
_symmetry_Int_Tables_number   1
_chemical_formula_structural   Sr2CaFe2Bi2O9
_chemical_formula_sum   'Sr4 Ca2 Fe4 Bi4 O18'
_cell_volume   486.61187120
_cell_formula_units_Z   2
loop_
 _symmetry_equiv_pos_site_id
 _symmetry_equiv_pos_as_xyz
  1  'x, y, z'
loop_
 _atom_site_type_symbol
 _atom_site_label
 _atom_site_symmetry_multiplicity
 _atom_site_fract_x
 _atom_site_fract_y
 _atom_site_fract_z
 _atom_site_occupancy
  Sr  Sr0  1  0.36800100  0.24263400  0.73600200  1
  Sr  Sr1  1  0.63199900  0.75736600  0.26399800  1
  Sr  Sr2  1  0.13199900  0.24263400  0.26399800  1
  Sr  Sr3  1  0.86800100  0.75736600  0.73600200  1
  Ca  Ca0  1  0.75000000  0.78127300  0.50000000  1
  Ca  Ca1  1  0.25000000  0.21872700  0.50000000  1
  Fe  Fe0  1  0.80929500  0.25559600  0.61859000  1
  Fe  Fe1  1  0.19070500  0.74440400  0.38141000  1
  Fe  Fe2  1  0.69070500  0.25559600  0.38141000  1
  Fe  Fe3  1  0.30929500  0.74440400  0.61859000  1
  Bi  Bi0  1  0.95474500  0.27114000  0.90949100  1
  Bi  Bi1  1  0.04525500  0.72886000  0.09050900  1
  Bi  Bi2  1  0.54525500  0.27114000  0.09050900  1
  Bi  Bi3  1  0.45474500  0.72886000  0.90949100  1
  O  O0  1  0.06432300  0.00000000  0.62864500  1
  O  O1  1  0.93567700  0.00000000  0.37135500  1
  O  O2  1  0.43567700  0.00000000  0.37135500  1
  O  O3  1  0.56432300  0.00000000  0.62864500  1
  O  O4  1  0.89169100  0.22305600  0.78338100  1
  O  O5  1  0.10830900  0.77694400  0.21661900  1
  O  O6  1  0.60830900  0.22305600  0.21661900  1
  O  O7  1  0.39169100  0.77694400  0.78338100  1
  O  O8  1  0.06928800  0.50000000  0.63857500  1
  O  O9  1  0.93071200  0.50000000  0.36142500  1
  O  O10  1  0.43071200  0.50000000  0.36142500  1
  O  O11  1  0.56928800  0.50000000  0.63857500  1
  O  O12  1  0.75000000  0.25108200  0.50000000  1
  O  O13  1  0.25000000  0.74891800  0.50000000  1
  O  O14  1  0.95365200  0.65335100  0.90730500  1
  O  O15  1  0.04634800  0.34664900  0.09269500  1
  O  O16  1  0.54634800  0.65335100  0.09269500  1
  O  O17  1  0.45365200  0.34664900  0.90730500  1
loop_
_geom_bond_atom_site_label_1
_geom_bond_atom_site_label_2
_geom_bond_distance
_geom_bond_site_symmetry_2
Ca0 O12 2.627425 1_565
Ca0 O13 2.674006 1_555
Ca0 O13 2.674006 1_655
Ca0 O1 2.770668 1_565
Ca0 O3 2.770668 1_565
Ca0 O2 2.770670 1_565
Ca0 O0 2.770670 1_665
Ca0 O12 2.965114 1_555
Ca0 O9 3.059466 1_555
Ca0 O11 3.059466 1_555
Ca0 O10 3.059469 1_555
Ca0 O8 3.059469 1_655
Ca1 O13 2.627425 1_545
Ca1 O12 2.674006 1_555
Ca1 O12 2.674006 1_455
Ca1 O2 2.770668 1_555
Ca1 O0 2.770668 1_555
Ca1 O3 2.770670 1_555
Ca1 O1 2.770670 1_455
Ca1 O13 2.965114 1_555
Ca1 O8 3.059466 1_555
Ca1 O10 3.059466 1_555
Ca1 O9 3.059469 1_455
Ca1 O11 3.059469 1_555
Fe0 O12 1.934029 1_555
Fe0 O11 1.937484 1_555
Fe0 O8 1.937487 1_655
Fe0 O3 1.962025 1_555
Fe0 O0 1.962029 1_655
Fe0 O4 2.693425 1_555
Fe1 O13 1.934029 1_555
Fe1 O10 1.937484 1_555
Fe1 O9 1.937487 1_455
Fe1 O2 1.962025 1_565
Fe1 O1 1.962029 1_465
Fe1 O5 2.693425 1_555
Fe2 O12 1.934029 1_555
Fe2 O9 1.937484 1_555
Fe2 O10 1.937487 1_555
Fe2 O1 1.962025 1_555
Fe2 O2 1.962029 1_555
Fe2 O6 2.693425 1_555
Fe3 O13 1.934029 1_555
Fe3 O8 1.937484 1_555
Fe3 O11 1.937487 1_555
Fe3 O0 1.962025 1_565
Fe3 O3 1.962029 1_565
Fe3 O7 2.693425 1_555
Bi0 O4 2.074001 1_555
Bi0 O14 2.137827 1_555
Bi0 O17 2.701326 1_555
Bi0 O17 2.701326 1_655
Bi1 O5 2.074001 1_555
Bi1 O15 2.137827 1_555
Bi1 O16 2.701326 1_555
Bi1 O16 2.701326 1_455
Bi2 O6 2.074001 1_555
Bi2 O16 2.137827 1_555
Bi2 O15 2.701326 1_655
Bi2 O15 2.701326 1_555
Bi3 O7 2.074001 1_555
Bi3 O17 2.137827 1_555
Bi3 O14 2.701326 1_455
Bi3 O14 2.701326 1_555
O0 Sr0 2.585647 1_555
O0 Sr3 2.585650 1_445
O1 Sr1 2.585647 1_545
O1 Sr2 2.585650 1_655
O2 Sr2 2.585647 1_555
O2 Sr1 2.585650 1_545
O3 Sr3 2.585647 1_545
O3 Sr0 2.585650 1_555
O4 Sr3 2.716575 1_545
O4 Sr0 2.779654 1_655
O4 Sr0 2.779659 1_555
O4 Sr3 3.086418 1_555
O5 Sr2 2.716575 1_565
O5 Sr1 2.779654 1_455
O5 Sr1 2.779659 1_555
O5 Sr2 3.086418 1_555
O6 Sr1 2.716575 1_545
O6 Sr2 2.779654 1_555
O6 Sr2 2.779659 1_655
O6 Sr1 3.086418 1_555
O7 Sr0 2.716575 1_565
O7 Sr3 2.779654 1_555
O7 Sr3 2.779659 1_455
O7 Sr0 3.086418 1_555
O8 Sr0 2.524916 1_555
O8 Sr3 2.524919 1_455
O9 Sr1 2.524916 1_555
O9 Sr2 2.524919 1_655
O10 Sr2 2.524916 1_555
O10 Sr1 2.524919 1_555
O11 Sr3 2.524916 1_555
O11 Sr0 2.524919 1_555
O14 Sr3 2.853387 1_555
O15 Sr2 2.853387 1_555
O16 Sr1 2.853387 1_555
O17 Sr0 2.853387 1_555
