# generated using pymatgen
data_UCr(HO3)2
_symmetry_space_group_name_H-M   'P 1'
_cell_length_a   7.07200900
_cell_length_b   14.62336000
_cell_length_c   17.17572448
_cell_angle_alpha   54.16281384
_cell_angle_beta   90.00000000
_cell_angle_gamma   90.00000000
_symmetry_Int_Tables_number   1
_chemical_formula_structural   UCr(HO3)2
_chemical_formula_sum   'U8 Cr8 H16 O48'
_cell_volume   1439.98060328
_cell_formula_units_Z   8
loop_
 _symmetry_equiv_pos_site_id
 _symmetry_equiv_pos_as_xyz
  1  'x, y, z'
loop_
 _atom_site_type_symbol
 _atom_site_label
 _atom_site_symmetry_multiplicity
 _atom_site_fract_x
 _atom_site_fract_y
 _atom_site_fract_z
 _atom_site_occupancy
  U  U0  1  0.25259300  0.08430100  0.84099500  1
  U  U1  1  0.74740700  0.91569900  0.15900500  1
  U  U2  1  0.23148400  0.58280600  0.07540500  1
  U  U3  1  0.76851600  0.41719400  0.92459500  1
  U  U4  1  0.75259300  0.91569900  0.65900500  1
  U  U5  1  0.24740700  0.08430100  0.34099500  1
  U  U6  1  0.26851600  0.58280600  0.57540500  1
  U  U7  1  0.73148400  0.41719400  0.42459500  1
  Cr  Cr0  1  0.24703400  0.49589600  0.32851000  1
  Cr  Cr1  1  0.75296600  0.50410400  0.67149000  1
  Cr  Cr2  1  0.23807400  0.99680700  0.67467400  1
  Cr  Cr3  1  0.76192600  0.00319300  0.32532600  1
  Cr  Cr4  1  0.73807400  0.00319300  0.82532600  1
  Cr  Cr5  1  0.26192600  0.99680700  0.17467400  1
  Cr  Cr6  1  0.25296600  0.49589600  0.82851000  1
  Cr  Cr7  1  0.74703400  0.50410400  0.17149000  1
  H  H0  1  0.04408300  0.71951600  0.90921800  1
  H  H1  1  0.95591700  0.28048400  0.09078200  1
  H  H2  1  0.04268600  0.18027300  0.90578600  1
  H  H3  1  0.95731400  0.81972700  0.09421400  1
  H  H4  1  0.45731400  0.18027300  0.40578600  1
  H  H5  1  0.54268600  0.81972700  0.59421400  1
  H  H6  1  0.54408300  0.28048400  0.59078200  1
  H  H7  1  0.45591700  0.71951600  0.40921800  1
  H  H8  1  0.43513500  0.67740300  0.91519900  1
  H  H9  1  0.56486500  0.32259700  0.08480100  1
  H  H10  1  0.42385000  0.21800000  0.87708500  1
  H  H11  1  0.57615000  0.78200000  0.12291500  1
  H  H12  1  0.93513500  0.32259700  0.58480100  1
  H  H13  1  0.06486500  0.67740300  0.41519900  1
  H  H14  1  0.07615000  0.21800000  0.37708500  1
  H  H15  1  0.92385000  0.78200000  0.62291500  1
  O  O0  1  0.27567100  0.71369100  0.05982800  1
  O  O1  1  0.72432900  0.28630900  0.94017200  1
  O  O2  1  0.17512000  0.12320300  0.59155400  1
  O  O3  1  0.82488000  0.87679700  0.40844600  1
  O  O4  1  0.21133800  0.21537100  0.72530300  1
  O  O5  1  0.78866200  0.78462900  0.27469700  1
  O  O6  1  0.06874000  0.90600100  0.69053600  1
  O  O7  1  0.93126000  0.09399900  0.30946400  1
  O  O8  1  0.56874000  0.09399900  0.80946400  1
  O  O9  1  0.43126000  0.90600100  0.19053600  1
  O  O10  1  0.76576100  0.01406700  0.72182700  1
  O  O11  1  0.23423900  0.98593300  0.27817300  1
  O  O12  1  0.29262300  0.97093200  0.96473200  1
  O  O13  1  0.70737700  0.02906800  0.03526800  1
  O  O14  1  0.44449300  0.96699200  0.64432800  1
  O  O15  1  0.55550700  0.03300800  0.35567200  1
  O  O16  1  0.68406400  0.37893800  0.71458300  1
  O  O17  1  0.31593600  0.62106200  0.28541700  1
  O  O18  1  0.58534900  0.59688600  0.59694000  1
  O  O19  1  0.41465100  0.40311400  0.40306000  1
  O  O20  1  0.08534900  0.40311400  0.90306000  1
  O  O21  1  0.91465100  0.59688600  0.09694000  1
  O  O22  1  0.18683200  0.46902900  0.06554700  1
  O  O23  1  0.81316800  0.53097100  0.93445300  1
  O  O24  1  0.21534200  0.48540500  0.23588600  1
  O  O25  1  0.78465800  0.51459500  0.76411400  1
  O  O26  1  0.71133800  0.78462900  0.77469700  1
  O  O27  1  0.28866200  0.21537100  0.22530300  1
  O  O28  1  0.18406400  0.62106200  0.78541700  1
  O  O29  1  0.81593600  0.37893800  0.21458300  1
  O  O30  1  0.26576100  0.98593300  0.77817300  1
  O  O31  1  0.73423900  0.01406700  0.22182700  1
  O  O32  1  0.04033800  0.46975100  0.38775800  1
  O  O33  1  0.95966200  0.53024900  0.61224200  1
  O  O34  1  0.31316800  0.46902900  0.56554700  1
  O  O35  1  0.68683200  0.53097100  0.43445300  1
  O  O36  1  0.28465800  0.48540500  0.73588600  1
  O  O37  1  0.71534200  0.51459500  0.26411400  1
  O  O38  1  0.79262300  0.02906800  0.53526800  1
  O  O39  1  0.20737700  0.97093200  0.46473200  1
  O  O40  1  0.67512000  0.87679700  0.90844600  1
  O  O41  1  0.32488000  0.12320300  0.09155400  1
  O  O42  1  0.05550700  0.96699200  0.14432800  1
  O  O43  1  0.94449300  0.03300800  0.85567200  1
  O  O44  1  0.54033800  0.53024900  0.11224200  1
  O  O45  1  0.45966200  0.46975100  0.88775800  1
  O  O46  1  0.22432900  0.71369100  0.55982800  1
  O  O47  1  0.77567100  0.28630900  0.44017200  1
loop_
_geom_bond_atom_site_label_1
_geom_bond_atom_site_label_2
_geom_bond_distance
_geom_bond_site_symmetry_2
Cr0 O17 1.596584 1_555
Cr0 O19 1.688564 1_555
Cr0 O32 1.692006 1_555
Cr0 O24 1.700139 1_555
Cr1 O16 1.596584 1_555
Cr1 O18 1.688564 1_555
Cr1 O33 1.692006 1_555
Cr1 O25 1.700139 1_555
Cr2 O2 1.600879 1_565
Cr2 O6 1.687593 1_555
Cr2 O14 1.690817 1_555
Cr2 O30 1.700803 1_555
Cr3 O3 1.600879 1_545
Cr3 O7 1.687593 1_555
Cr3 O15 1.690817 1_555
Cr3 O31 1.700803 1_555
Cr4 O40 1.600879 1_545
Cr4 O8 1.687593 1_555
Cr4 O43 1.690817 1_555
Cr4 O10 1.700803 1_555
Cr5 O41 1.600879 1_565
Cr5 O9 1.687593 1_555
Cr5 O42 1.690817 1_555
Cr5 O11 1.700803 1_555
Cr6 O28 1.596584 1_555
Cr6 O20 1.688564 1_555
Cr6 O45 1.692006 1_555
Cr6 O36 1.700139 1_555
Cr7 O29 1.596584 1_555
Cr7 O21 1.688564 1_555
Cr7 O44 1.692006 1_555
Cr7 O37 1.700139 1_555
H0 U2 2.686743 1_556
H1 U3 2.686743 1_554
H2 U0 2.690809 1_555
H3 U1 2.690809 1_555
H4 U5 2.690809 1_555
H5 U4 2.690809 1_555
H6 U7 2.686743 1_555
H7 U6 2.686743 1_555
H8 U2 2.664998 1_556
H9 U3 2.664998 1_554
H10 U0 2.663219 1_555
H11 U1 2.663219 1_555
H12 U7 2.664998 1_555
H13 U6 2.664998 1_555
H14 U5 2.663219 1_555
H15 U4 2.663219 1_555
O0 U2 1.798032 1_555
O1 U3 1.798032 1_555
O4 U0 1.802098 1_555
O5 U1 1.802098 1_555
O6 U4 2.285224 1_455
O7 U5 2.285224 1_655
O8 U0 2.285224 1_555
O9 U1 2.285224 1_555
O10 U4 2.249363 1_545
O11 U5 2.249363 1_565
O12 U0 1.794328 1_565
O13 U1 1.794328 1_545
O14 U4 2.269866 1_555
O15 U5 2.269866 1_555
O18 U6 2.299755 1_555
O19 U7 2.299755 1_555
O20 U3 2.299755 1_455
O21 U2 2.299755 1_655
O22 U2 1.796246 1_555
O23 U3 1.796246 1_555
O24 U2 2.245474 1_555
O25 U3 2.245474 1_555
O26 U4 1.802098 1_555
O27 U5 1.802098 1_555
O30 U0 2.249363 1_565
O31 U1 2.249363 1_545
O32 U7 2.278684 1_455
O33 U6 2.278684 1_655
O34 U6 1.796246 1_555
O35 U7 1.796246 1_555
O36 U6 2.245474 1_555
O37 U7 2.245474 1_555
O38 U4 1.794328 1_545
O39 U5 1.794328 1_565
O42 U1 2.269866 1_455
O43 U0 2.269866 1_655
O44 U2 2.278684 1_555
O45 U3 2.278684 1_555
O46 U6 1.798032 1_555
O47 U7 1.798032 1_555
