# generated using pymatgen
data_Th3Cl
_symmetry_space_group_name_H-M   'P 1'
_cell_length_a   6.14611150
_cell_length_b   6.14611150
_cell_length_c   6.14611150
_cell_angle_alpha   134.09208418
_cell_angle_beta   134.09208418
_cell_angle_gamma   66.94421654
_symmetry_Int_Tables_number   1
_chemical_formula_structural   Th3Cl
_chemical_formula_sum   'Th3 Cl1'
_cell_volume   117.81960907
_cell_formula_units_Z   1
loop_
 _symmetry_equiv_pos_site_id
 _symmetry_equiv_pos_as_xyz
  1  'x, y, z'
loop_
 _atom_site_type_symbol
 _atom_site_label
 _atom_site_symmetry_multiplicity
 _atom_site_fract_x
 _atom_site_fract_y
 _atom_site_fract_z
 _atom_site_occupancy
  Th  Th0  1  0.75000000  0.25000000  0.50000000  1
  Th  Th1  1  0.25000000  0.75000000  0.50000000  1
  Th  Th2  1  0.50000000  0.50000000  0.00000000  1
  Cl  Cl0  1  0.00000000  0.00000000  0.00000000  1
loop_
_geom_bond_atom_site_label_1
_geom_bond_atom_site_label_2
_geom_bond_distance
_geom_bond_site_symmetry_2
Cl0 Th2 3.389771 1_455
Cl0 Th2 3.389771 1_444
Cl0 Th2 3.389771 1_545
Cl0 Th2 3.389771 1_556
Cl0 Th0 3.509460 1_444
Cl0 Th0 3.509460 1_455
Cl0 Th1 3.509460 1_544
Cl0 Th1 3.509460 1_555
Cl0 Th1 3.509460 1_545
Cl0 Th0 3.509460 1_454
Cl0 Th0 3.509460 1_555
Cl0 Th1 3.509460 1_444
