# generated using pymatgen
data_Cu2SnS3
_symmetry_space_group_name_H-M   'P 1'
_cell_length_a   12.84168869
_cell_length_b   12.23573891
_cell_length_c   6.72257907
_cell_angle_alpha   79.49377364
_cell_angle_beta   69.52747632
_cell_angle_gamma   30.97875004
_symmetry_Int_Tables_number   1
_chemical_formula_structural   Cu2SnS3
_chemical_formula_sum   'Cu8 Sn4 S12'
_cell_volume   494.00023058
_cell_formula_units_Z   4
loop_
 _symmetry_equiv_pos_site_id
 _symmetry_equiv_pos_as_xyz
  1  'x, y, z'
loop_
 _atom_site_type_symbol
 _atom_site_label
 _atom_site_symmetry_multiplicity
 _atom_site_fract_x
 _atom_site_fract_y
 _atom_site_fract_z
 _atom_site_occupancy
  Cu  Cu0  1  0.90544600  0.26107000  0.25459000  1
  Cu  Cu1  1  0.59005300  0.90994700  0.59005300  1
  Cu  Cu2  1  0.25459000  0.57889400  0.90544600  1
  Cu  Cu3  1  0.98893000  0.34455400  0.67110600  1
  Cu  Cu4  1  0.67110600  0.99541000  0.98893000  1
  Cu  Cu5  1  0.34005300  0.65994700  0.34005300  1
  Cu  Cu6  1  0.08255700  0.41744300  0.08255700  1
  Cu  Cu7  1  0.83255700  0.16744300  0.83255700  1
  Sn  Sn0  1  0.74157400  0.09940700  0.42589300  1
  Sn  Sn1  1  0.42589300  0.73312600  0.74157400  1
  Sn  Sn2  1  0.51687400  0.82410700  0.15059300  1
  Sn  Sn3  1  0.15059300  0.50842600  0.51687400  1
  S  S0  1  0.55129700  0.10543500  0.36284800  1
  S  S1  1  0.19344500  0.79724700  0.70768700  1
  S  S2  1  0.89896300  0.43438200  0.03565600  1
  S  S3  1  0.03565600  0.63099900  0.89896300  1
  S  S4  1  0.70768700  0.30162200  0.19344500  1
  S  S5  1  0.36284800  0.98042000  0.55129700  1
  S  S6  1  0.45275300  0.05655500  0.94837800  1
  S  S7  1  0.14456500  0.69870300  0.26958000  1
  S  S8  1  0.81561800  0.35103700  0.61900100  1
  S  S9  1  0.26958000  0.88715200  0.14456500  1
  S  S10  1  0.94837800  0.54231300  0.45275300  1
  S  S11  1  0.61900100  0.21434400  0.81561800  1
loop_
_geom_bond_atom_site_label_1
_geom_bond_atom_site_label_2
_geom_bond_distance
_geom_bond_site_symmetry_2
Cu0 S2 2.305395 1_555
Cu0 S4 2.315096 1_555
Cu0 S8 2.318007 1_555
Cu0 S9 2.339935 1_645
Cu1 S6 2.304508 1_565
Cu1 S10 2.304512 1_555
Cu1 S0 2.336696 1_565
Cu1 S5 2.336696 1_555
Cu2 S3 2.305395 1_555
Cu2 S1 2.315105 1_555
Cu2 S11 2.318007 1_555
Cu2 S7 2.339935 1_556
Cu3 S8 2.305395 1_555
Cu3 S10 2.315100 1_555
Cu3 S2 2.318007 1_556
Cu3 S5 2.339935 1_645
Cu4 S11 2.305395 1_565
Cu4 S6 2.315109 1_565
Cu4 S3 2.318007 1_655
Cu4 S0 2.339935 1_566
Cu5 S4 2.304512 1_555
Cu5 S1 2.304514 1_555
Cu5 S7 2.336696 1_555
Cu5 S9 2.336696 1_555
Cu6 S3 2.314990 1_554
Cu6 S2 2.314990 1_455
Cu6 S10 2.317253 1_455
Cu6 S6 2.317255 1_554
Cu7 S8 2.314990 1_555
Cu7 S11 2.314990 1_555
Cu7 S1 2.317255 1_645
Cu7 S4 2.317259 1_556
S0 Sn3 2.547872 1_555
S0 Sn0 2.561180 1_555
S1 Sn1 2.443876 1_555
S2 Sn2 2.445968 1_555
S3 Sn3 2.445968 1_555
S4 Sn0 2.443885 1_555
S5 Sn2 2.547872 1_555
S5 Sn1 2.561180 1_555
S6 Sn2 2.443879 1_546
S7 Sn0 2.547872 1_465
S7 Sn3 2.561180 1_555
S8 Sn1 2.445968 1_555
S9 Sn1 2.547872 1_554
S9 Sn2 2.561180 1_555
S10 Sn3 2.443888 1_655
S11 Sn0 2.445968 1_555
