# generated using pymatgen
data_ZrAlMo
_symmetry_space_group_name_H-M   'P 1'
_cell_length_a   5.31883871
_cell_length_b   5.31883871
_cell_length_c   8.88974300
_cell_angle_alpha   90.00000000
_cell_angle_beta   90.00000000
_cell_angle_gamma   120.25473950
_symmetry_Int_Tables_number   1
_chemical_formula_structural   ZrAlMo
_chemical_formula_sum   'Zr4 Al4 Mo4'
_cell_volume   217.23657397
_cell_formula_units_Z   4
loop_
 _symmetry_equiv_pos_site_id
 _symmetry_equiv_pos_as_xyz
  1  'x, y, z'
loop_
 _atom_site_type_symbol
 _atom_site_label
 _atom_site_symmetry_multiplicity
 _atom_site_fract_x
 _atom_site_fract_y
 _atom_site_fract_z
 _atom_site_occupancy
  Zr  Zr0  1  0.33476500  0.66523500  0.18611700  1
  Zr  Zr1  1  0.66984800  0.33015200  0.31474700  1
  Zr  Zr2  1  0.66984800  0.33015200  0.68525300  1
  Zr  Zr3  1  0.33476500  0.66523500  0.81388300  1
  Al  Al0  1  0.99568900  0.00431100  0.24901600  1
  Al  Al1  1  0.99568900  0.00431100  0.75098400  1
  Al  Al2  1  0.83126600  0.65856600  0.00000000  1
  Al  Al3  1  0.34143400  0.16873400  0.00000000  1
  Mo  Mo0  1  0.83234900  0.16765100  0.00000000  1
  Mo  Mo1  1  0.16870400  0.34278900  0.50000000  1
  Mo  Mo2  1  0.65721100  0.83129600  0.50000000  1
  Mo  Mo3  1  0.16858500  0.83141500  0.50000000  1
loop_
_geom_bond_atom_site_label_1
_geom_bond_atom_site_label_2
_geom_bond_distance
_geom_bond_site_symmetry_2
Zr0 Zr1 3.261881 1_565
Zr0 Zr1 3.261881 1_455
Zr0 Zr1 3.295643 1_555
Zr0 Zr3 3.309065 1_554
Zr1 Zr2 3.293703 1_555
Zr2 Zr3 3.261881 1_655
Zr2 Zr3 3.261881 1_545
Zr2 Zr3 3.295643 1_555
Al0 Mo0 2.677789 1_555
Al0 Mo2 2.719683 1_545
Al0 Mo1 2.719683 1_655
Al0 Al2 2.725143 1_545
Al0 Al3 2.725143 1_655
Al0 Mo3 2.742573 1_645
Al0 Zr1 3.061929 1_555
Al0 Zr0 3.087758 1_545
Al0 Zr0 3.087758 1_655
Al0 Zr1 3.152838 1_545
Al0 Zr1 3.152838 1_655
Al0 Zr0 3.177327 1_645
Al1 Mo0 2.677789 1_556
Al1 Mo2 2.719683 1_545
Al1 Mo1 2.719683 1_655
Al1 Al3 2.725143 1_656
Al1 Al2 2.725143 1_546
Al1 Mo3 2.742573 1_645
Al1 Zr2 3.061929 1_555
Al1 Zr3 3.087758 1_545
Al1 Zr3 3.087758 1_655
Al1 Zr2 3.152838 1_545
Al1 Zr2 3.152838 1_655
Al1 Zr3 3.177327 1_645
Al2 Al3 2.595299 1_555
Al2 Mo0 2.614005 1_555
Al2 Al3 2.703047 1_665
Al2 Mo0 2.704843 1_565
Al2 Zr0 3.131613 1_555
Al2 Zr3 3.131613 1_554
Al2 Zr0 3.132867 1_655
Al2 Zr3 3.132867 1_654
Al2 Zr2 3.178999 1_554
Al2 Zr1 3.178999 1_555
Al3 Mo0 2.614005 1_555
Al3 Mo0 2.704843 1_455
Al3 Zr0 3.131613 1_555
Al3 Zr3 3.131613 1_554
Al3 Zr0 3.132867 1_545
Al3 Zr3 3.132867 1_544
Al3 Zr2 3.178999 1_554
Al3 Zr1 3.178999 1_555
Mo0 Zr0 3.123474 1_655
Mo0 Zr0 3.123474 1_545
Mo0 Zr3 3.123474 1_544
Mo0 Zr3 3.123474 1_654
Mo0 Zr2 3.174239 1_554
Mo0 Zr1 3.174239 1_555
Mo1 Mo2 2.588279 1_555
Mo1 Mo3 2.599242 1_555
Mo1 Mo2 2.710067 1_445
Mo1 Mo3 2.719597 1_545
Mo1 Zr1 3.094690 1_455
Mo1 Zr2 3.094690 1_455
Mo1 Zr3 3.159276 1_555
Mo1 Zr0 3.159276 1_555
Mo1 Zr2 3.162608 1_555
Mo1 Zr1 3.162608 1_555
Mo2 Mo3 2.599242 1_555
Mo2 Mo3 2.719597 1_655
Mo2 Zr2 3.094690 1_565
Mo2 Zr1 3.094690 1_565
Mo2 Zr3 3.159276 1_555
Mo2 Zr0 3.159276 1_555
Mo2 Zr2 3.162608 1_555
Mo2 Zr1 3.162608 1_555
Mo3 Zr1 3.119355 1_455
Mo3 Zr2 3.119355 1_455
Mo3 Zr2 3.119355 1_565
Mo3 Zr1 3.119355 1_565
Mo3 Zr3 3.183670 1_555
Mo3 Zr0 3.183670 1_555
