# generated using pymatgen
data_Li5Ni3O5F3
_symmetry_space_group_name_H-M   'P 1'
_cell_length_a   5.59938400
_cell_length_b   5.75624413
_cell_length_c   5.98309470
_cell_angle_alpha   118.67083208
_cell_angle_beta   117.37320033
_cell_angle_gamma   90.35921055
_symmetry_Int_Tables_number   1
_chemical_formula_structural   Li5Ni3O5F3
_chemical_formula_sum   'Li5 Ni3 O5 F3'
_cell_volume   143.74383446
_cell_formula_units_Z   1
loop_
 _symmetry_equiv_pos_site_id
 _symmetry_equiv_pos_as_xyz
  1  'x, y, z'
loop_
 _atom_site_type_symbol
 _atom_site_label
 _atom_site_symmetry_multiplicity
 _atom_site_fract_x
 _atom_site_fract_y
 _atom_site_fract_z
 _atom_site_occupancy
  Li  Li0  1  0.50106900  0.00031600  0.50165100  1
  Li  Li1  1  0.99655200  0.00584600  0.00311400  1
  Li  Li2  1  0.99780000  0.48575000  0.01223300  1
  Li  Li3  1  0.99031800  0.01019900  0.47985300  1
  Li  Li4  1  0.50864000  0.49233200  0.00404800  1
  Ni  Ni0  1  0.50650300  0.00562800  0.00140500  1
  Ni  Ni1  1  0.51918400  0.48483900  0.53441800  1
  Ni  Ni2  1  0.00014900  0.50092900  0.49903300  1
  O  O0  1  0.74795900  0.25431200  0.99390400  1
  O  O1  1  0.26194000  0.25898900  0.53641300  1
  O  O2  1  0.75863200  0.28506400  0.50288700  1
  O  O3  1  0.24302700  0.71563100  0.49695000  1
  O  O4  1  0.73489200  0.74145800  0.45950700  1
  F  F0  1  0.27859100  0.22329300  0.06669700  1
  F  F1  1  0.72282600  0.77618600  0.93646200  1
  F  F2  1  0.23191700  0.75923100  0.97142600  1
loop_
_geom_bond_atom_site_label_1
_geom_bond_atom_site_label_2
_geom_bond_distance
_geom_bond_site_symmetry_2
Li0 O4 1.991362 1_545
Li0 O1 2.009257 1_555
Li0 O3 2.159297 1_545
Li0 O2 2.171516 1_555
Li0 O0 2.195821 1_555
Li1 O0 2.004052 1_554
Li1 O1 2.379890 1_655
Li1 O4 2.425197 1_544
Li2 O0 1.854526 1_554
Li2 O3 2.163339 1_655
Li2 O2 2.294480 1_554
Li3 O1 1.874294 1_655
Li3 O4 2.021102 1_545
Li3 O2 2.046025 1_555
Li3 O3 2.225134 1_645
Li4 O0 1.922130 1_554
Li4 O4 2.034741 1_555
Li4 O1 2.087379 1_554
Ni0 O0 1.993052 1_554
Ni0 O2 2.242368 1_555
Ni0 O3 2.261109 1_544
Ni1 O2 1.788682 1_555
Ni1 O1 1.942231 1_555
Ni1 O3 2.049144 1_555
Ni1 O4 2.225415 1_555
Ni2 O3 1.840204 1_555
Ni2 O2 1.846200 1_455
Ni2 O1 2.039927 1_555
Ni2 O4 2.048390 1_455
Ni2 O0 2.253171 1_454
F0 Li1 1.780809 1_455
F0 Ni0 1.832996 1_555
F0 Ni1 2.092314 1_555
F0 Li2 2.211704 1_455
F0 Li4 2.274668 1_555
F1 Li1 1.778340 1_566
F1 Ni0 1.822886 1_566
F1 Ni1 1.865966 1_555
F1 Li4 2.308026 1_556
F1 Li2 2.342819 1_556
F1 Li3 2.433605 1_566
F2 Li1 1.944986 1_466
F2 Ni0 1.970457 1_566
F2 Ni2 2.110387 1_555
F2 Li4 2.199724 1_556
F2 Li2 2.212131 1_456
F2 Li0 2.369397 1_566
