# generated using pymatgen
data_Te2Mo3S4
_symmetry_space_group_name_H-M   'P 1'
_cell_length_a   3.30454036
_cell_length_b   3.30454036
_cell_length_c   30.47783300
_cell_angle_alpha   90.00000000
_cell_angle_beta   90.00000000
_cell_angle_gamma   120.00000715
_symmetry_Int_Tables_number   1
_chemical_formula_structural   Te2Mo3S4
_chemical_formula_sum   'Te2 Mo3 S4'
_cell_volume   288.22842307
_cell_formula_units_Z   1
loop_
 _symmetry_equiv_pos_site_id
 _symmetry_equiv_pos_as_xyz
  1  'x, y, z'
loop_
 _atom_site_type_symbol
 _atom_site_label
 _atom_site_symmetry_multiplicity
 _atom_site_fract_x
 _atom_site_fract_y
 _atom_site_fract_z
 _atom_site_occupancy
  Te  Te0  1  0.00000000  0.00000000  0.06283800  1
  Te  Te1  1  0.00000000  0.00000000  0.93716200  1
  Mo  Mo0  1  0.00000000  0.00000000  0.76862500  1
  Mo  Mo1  1  0.00000000  0.00000000  0.23137500  1
  Mo  Mo2  1  0.33333300  0.66666700  0.00000000  1
  S  S0  1  0.33333300  0.66666700  0.71844900  1
  S  S1  1  0.33333300  0.66666700  0.18115500  1
  S  S2  1  0.33333300  0.66666700  0.81884500  1
  S  S3  1  0.33333300  0.66666700  0.28155100  1
loop_
_geom_bond_atom_site_label_1
_geom_bond_atom_site_label_2
_geom_bond_distance
_geom_bond_site_symmetry_2
Mo0 S0 2.445120 1_545
Mo0 S0 2.445122 1_445
Mo0 S0 2.445122 1_555
Mo0 S2 2.445959 1_545
Mo0 S2 2.445961 1_445
Mo0 S2 2.445961 1_555
Mo1 S3 2.445120 1_545
Mo1 S3 2.445122 1_555
Mo1 S3 2.445122 1_445
Mo1 S1 2.445959 1_545
Mo1 S1 2.445961 1_445
Mo1 S1 2.445961 1_555
Mo2 Te1 2.703303 1_564
Mo2 Te0 2.703303 1_565
Mo2 Te1 2.703305 1_664
Mo2 Te1 2.703305 1_554
Mo2 Te0 2.703305 1_555
Mo2 Te0 2.703305 1_665
