# generated using pymatgen
data_NbMoO4
_symmetry_space_group_name_H-M   'P 1'
_cell_length_a   4.76329425
_cell_length_b   4.76329425
_cell_length_c   3.14576661
_cell_angle_alpha   90.00000000
_cell_angle_beta   90.00000000
_cell_angle_gamma   90.73548478
_symmetry_Int_Tables_number   1
_chemical_formula_structural   NbMoO4
_chemical_formula_sum   'Nb1 Mo1 O4'
_cell_volume   71.36833048
_cell_formula_units_Z   1
loop_
 _symmetry_equiv_pos_site_id
 _symmetry_equiv_pos_as_xyz
  1  'x, y, z'
loop_
 _atom_site_type_symbol
 _atom_site_label
 _atom_site_symmetry_multiplicity
 _atom_site_fract_x
 _atom_site_fract_y
 _atom_site_fract_z
 _atom_site_occupancy
  Nb  Nb0  1  0.50000000  0.50000000  0.50000000  1
  Mo  Mo0  1  0.00000000  -0.00000000  -0.00000000  1
  O  O0  1  0.19840874  0.19840874  0.50000000  1
  O  O1  1  0.80159126  0.80159126  0.50000000  1
  O  O2  1  0.69763931  0.30236069  -0.00000000  1
  O  O3  1  0.30236069  0.69763931  -0.00000000  1
loop_
_geom_bond_atom_site_label_1
_geom_bond_atom_site_label_2
_geom_bond_distance
_geom_bond_site_symmetry_2
Nb0 O1 2.018533 1_555
Nb0 O0 2.018533 1_555
Nb0 O3 2.066213 1_555
Nb0 O3 2.066213 1_556
Nb0 O2 2.066213 1_555
Nb0 O2 2.066213 1_556
Mo0 O3 2.049828 1_545
Mo0 O2 2.049828 1_455
Mo0 O0 2.058490 1_555
Mo0 O1 2.058490 1_444
Mo0 O1 2.058490 1_445
Mo0 O0 2.058490 1_554
