# generated using pymatgen
data_Y12(MnC3)5
_symmetry_space_group_name_H-M   'P 1'
_cell_length_a   5.06337376
_cell_length_b   10.48630588
_cell_length_c   10.48631541
_cell_angle_alpha   119.99985582
_cell_angle_beta   89.99999940
_cell_angle_gamma   89.99999827
_symmetry_Int_Tables_number   1
_chemical_formula_structural   Y12(MnC3)5
_chemical_formula_sum   'Y12 Mn5 C15'
_cell_volume   482.18832139
_cell_formula_units_Z   1
loop_
 _symmetry_equiv_pos_site_id
 _symmetry_equiv_pos_as_xyz
  1  'x, y, z'
loop_
 _atom_site_type_symbol
 _atom_site_label
 _atom_site_symmetry_multiplicity
 _atom_site_fract_x
 _atom_site_fract_y
 _atom_site_fract_z
 _atom_site_occupancy
  Y  Y0  1  0.50000006  0.20587887  0.20589114  1
  Y  Y1  1  0.49999999  0.00000795  0.79411653  1
  Y  Y2  1  0.49999990  0.79409085  0.99998098  1
  Y  Y3  1  -0.00000005  0.73027962  0.18544773  1
  Y  Y4  1  0.00000005  0.45517180  0.26971300  1
  Y  Y5  1  0.00000009  0.54481315  0.81453231  1
  Y  Y6  1  0.00000010  0.81453903  0.54482137  1
  Y  Y7  1  -0.00000004  0.18547254  0.73028515  1
  Y  Y8  1  0.00000013  0.26971726  0.45518274  1
  Y  Y9  1  0.49999996  0.57145540  0.57148256  1
  Y  Y10  1  0.49999986  0.00001621  0.42856162  1
  Y  Y11  1  0.49999984  0.42855578  -0.00002621  1
  Mn  Mn0  1  -0.00000001  0.84629565  0.84631348  1
  Mn  Mn1  1  0.00000016  -0.00000959  0.15368943  1
  Mn  Mn2  1  0.00000003  0.15368625  -0.00000963  1
  Mn  Mn3  1  0.50000006  0.66666537  0.33332652  1
  Mn  Mn4  1  0.49999996  0.33334055  0.66667543  1
  C  C0  1  -0.00000007  0.67319109  0.67320002  1
  C  C1  1  -0.00000005  0.00000064  0.32680867  1
  C  C2  1  -0.00000005  0.32680812  -0.00000645  1
  C  C3  1  0.00000005  0.20493879  0.20494190  1
  C  C4  1  0.00000003  0.00000906  0.79505905  1
  C  C5  1  -0.00000006  0.79504629  0.99999580  1
  C  C6  1  0.00000000  0.54469156  0.54472552  1
  C  C7  1  -0.00000003  0.00002556  0.45530008  1
  C  C8  1  -0.00000000  0.45527344  -0.00003143  1
  C  C9  1  0.49999996  0.71860382  0.19725527  1
  C  C10  1  0.50000007  0.47867144  0.28139632  1
  C  C11  1  0.49999997  0.52136219  0.80275225  1
  C  C12  1  0.50000005  0.80273673  0.52133234  1
  C  C13  1  0.49999998  0.19727064  0.71862536  1
  C  C14  1  0.50000006  0.28139197  0.47866114  1
loop_
_geom_bond_atom_site_label_1
_geom_bond_atom_site_label_2
_geom_bond_distance
_geom_bond_site_symmetry_2
C0 C6 1.347358 1_555
C0 Mn0 1.815279 1_555
C0 Y5 2.450289 1_555
C0 Y6 2.450440 1_555
C0 Y9 2.747248 1_455
C0 Y9 2.747248 1_555
C1 C7 1.347271 1_555
C1 Mn1 1.815329 1_555
C1 Y8 2.450353 1_555
C1 Y3 2.450399 1_545
C1 Y10 2.747322 1_555
C1 Y10 2.747323 1_455
C2 C8 1.347258 1_555
C2 Mn2 1.815392 1_555
C2 Y7 2.450281 1_554
C2 Y4 2.450385 1_555
C2 Y11 2.747372 1_555
C2 Y11 2.747373 1_455
C3 Mn1 1.937175 1_555
C3 Mn2 1.937209 1_555
C3 Y4 2.358931 1_555
C3 Y8 2.358992 1_555
C3 Y0 2.531706 1_455
C3 Y0 2.531706 1_555
C4 Mn2 1.937001 1_556
C4 Mn0 1.937366 1_545
C4 Y7 2.358965 1_555
C4 Y6 2.358993 1_545
C4 Y1 2.531706 1_555
C4 Y1 2.531706 1_455
C5 Mn0 1.937014 1_555
C5 Mn1 1.937141 1_566
C5 Y3 2.358796 1_556
C5 Y5 2.358940 1_555
C5 Y2 2.531706 1_555
C5 Y2 2.531707 1_455
C6 Y9 2.547191 1_555
C6 Y9 2.547192 1_455
C6 Y8 2.547264 1_555
C6 Y4 2.547694 1_555
C7 Y10 2.547160 1_555
C7 Y10 2.547161 1_455
C7 Y7 2.547385 1_555
C7 Y6 2.547639 1_545
C8 Y11 2.547144 1_555
C8 Y11 2.547146 1_455
C8 Y5 2.547285 1_554
C8 Y3 2.547616 1_555
C9 Mn3 1.763456 1_555
C9 Y3 2.540653 1_655
C9 Y3 2.540653 1_555
C9 Y2 2.558038 1_554
C9 Y11 2.690448 1_555
C9 Y10 2.726508 1_565
C10 Mn3 1.763320 1_555
C10 Y4 2.540666 1_655
C10 Y4 2.540666 1_555
C10 Y0 2.558307 1_555
C10 Y9 2.690791 1_555
C10 Y11 2.726575 1_555
C11 Mn4 1.763564 1_555
C11 Y5 2.540628 1_555
C11 Y5 2.540629 1_655
C11 Y2 2.557679 1_555
C11 Y11 2.690157 1_556
C11 Y9 2.726038 1_555
C12 Mn3 1.763432 1_555
C12 Y6 2.540657 1_555
C12 Y6 2.540658 1_655
C12 Y1 2.558207 1_565
C12 Y10 2.690454 1_565
C12 Y9 2.726538 1_555
C13 Mn4 1.763528 1_555
C13 Y7 2.540634 1_655
C13 Y7 2.540634 1_555
C13 Y1 2.557950 1_555
C13 Y10 2.690515 1_555
C13 Y11 2.726004 1_556
C14 Mn4 1.763479 1_555
C14 Y8 2.540649 1_555
C14 Y8 2.540650 1_655
C14 Y0 2.558061 1_555
C14 Y9 2.690481 1_555
C14 Y10 2.726148 1_555
