# generated using pymatgen
data_Mg4Si7
_symmetry_space_group_name_H-M   'P 1'
_cell_length_a   16.36732388
_cell_length_b   3.77189779
_cell_length_c   6.73652493
_cell_angle_alpha   89.97470215
_cell_angle_beta   73.51580985
_cell_angle_gamma   90.16838659
_symmetry_Int_Tables_number   1
_chemical_formula_structural   Mg4Si7
_chemical_formula_sum   'Mg8 Si14'
_cell_volume   398.78948367
_cell_formula_units_Z   2
loop_
 _symmetry_equiv_pos_site_id
 _symmetry_equiv_pos_as_xyz
  1  'x, y, z'
loop_
 _atom_site_type_symbol
 _atom_site_label
 _atom_site_symmetry_multiplicity
 _atom_site_fract_x
 _atom_site_fract_y
 _atom_site_fract_z
 _atom_site_occupancy
  Mg  Mg0  1  0.92761500  0.07146400  0.87226700  1
  Mg  Mg1  1  0.51422700  0.06853000  0.76614200  1
  Mg  Mg2  1  0.36444300  0.56701200  0.99535700  1
  Mg  Mg3  1  0.66378400  0.56931700  0.48272400  1
  Mg  Mg4  1  0.84217600  0.07116300  0.36178200  1
  Mg  Mg5  1  0.19071600  0.56728800  0.28555500  1
  Mg  Mg6  1  0.42492300  0.56703400  0.50993000  1
  Mg  Mg7  1  0.58306000  0.56825100  0.04205400  1
  Si  Si0  1  0.94542800  0.57612200  0.50312800  1
  Si  Si1  1  0.00336200  0.56655600  0.09857100  1
  Si  Si2  1  0.09231600  0.06693500  0.12388700  1
  Si  Si3  1  0.05647300  0.06397300  0.50551200  1
  Si  Si4  1  0.55838200  0.06760000  0.35996100  1
  Si  Si5  1  0.44866100  0.06765300  0.18444300  1
  Si  Si6  1  0.24737300  0.56579500  0.67631300  1
  Si  Si7  1  0.79859500  0.57121800  0.09627100  1
  Si  Si8  1  0.69926900  0.06911200  0.75875700  1
  Si  Si9  1  0.09518500  0.56388900  0.69703200  1
  Si  Si10  1  0.24146200  0.06620200  0.92394700  1
  Si  Si11  1  0.80127100  0.57151800  0.72434300  1
  Si  Si12  1  0.70182500  0.06965200  0.13027600  1
  Si  Si13  1  0.30304500  0.06743900  0.39808200  1
loop_
_geom_bond_atom_site_label_1
_geom_bond_atom_site_label_2
_geom_bond_distance
_geom_bond_site_symmetry_2
Mg0 Si3 2.756150 1_655
Mg0 Si1 2.899996 1_656
Mg0 Si7 2.909022 1_546
Mg0 Si7 2.916719 1_556
Mg0 Si1 2.927805 1_646
Mg0 Si0 3.058669 1_545
Mg0 Si0 3.077864 1_555
Mg0 Si11 3.158080 1_545
Mg0 Si11 3.165048 1_555
Mg1 Si4 2.624340 1_555
Mg1 Si5 2.715883 1_556
Mg1 Si8 3.014898 1_555
Mg2 Si5 2.841083 1_566
Mg2 Si5 2.842504 1_556
Mg2 Si10 2.894713 1_555
Mg2 Si10 2.898161 1_565
Mg2 Mg5 2.958438 1_556
Mg2 Si13 3.218377 1_556
Mg2 Si13 3.225123 1_566
Mg3 Si8 2.821084 1_565
Mg3 Si8 2.823302 1_555
Mg3 Si4 2.831927 1_565
Mg3 Si4 2.834286 1_555
Mg3 Si7 2.895878 1_555
Mg3 Si12 2.955778 1_565
Mg3 Si12 2.957837 1_555
Mg3 Si11 3.129173 1_555
Mg4 Si7 2.825438 1_545
Mg4 Si7 2.827458 1_555
Mg4 Si0 2.859962 1_545
Mg4 Si0 2.878574 1_555
Mg4 Si11 3.004306 1_545
Mg4 Si11 3.009807 1_555
Mg4 Si8 3.012084 1_555
Mg4 Si12 3.121256 1_555
Mg5 Si9 2.769251 1_555
Mg5 Si13 2.878462 1_565
Mg5 Si13 2.884351 1_555
Mg5 Si2 2.884637 1_555
Mg5 Si2 2.888454 1_565
Mg5 Si3 2.951624 1_565
Mg5 Si3 2.958507 1_555
Mg5 Si10 3.000631 1_564
Mg5 Si10 3.010186 1_554
Mg5 Si6 3.028951 1_555
Mg6 Si6 2.802269 1_555
Mg6 Si5 2.833931 1_555
Mg6 Si5 2.834231 1_565
Mg6 Si4 2.842301 1_565
Mg6 Si4 2.848572 1_555
Mg6 Si13 2.988341 1_555
Mg6 Si13 2.997235 1_565
Mg7 Si4 2.795394 1_565
Mg7 Si4 2.795830 1_555
Mg7 Si5 2.846199 1_555
Mg7 Si5 2.852332 1_565
Mg7 Si12 2.888525 1_565
Mg7 Si12 2.888741 1_555
Mg7 Si8 2.957133 1_564
Mg7 Si8 2.961192 1_554
Si0 Si11 2.406753 1_555
Si0 Si3 2.585844 1_665
Si0 Si1 2.619444 1_655
Si0 Si3 2.659421 1_655
Si1 Si2 2.415799 1_565
Si1 Si2 2.420126 1_555
Si1 Si9 2.696062 1_554
Si2 Si3 2.469306 1_555
Si3 Si9 2.465903 1_555
Si3 Si9 2.468363 1_545
Si4 Si5 2.414142 1_555
Si6 Si9 2.454946 1_555
Si10 Si2 2.430504 1_556
Si10 Si6 2.499561 1_555
Si10 Si6 2.503415 1_545
Si11 Si8 2.482496 1_565
Si11 Si8 2.488666 1_555
Si11 Si7 2.493428 1_556
Si12 Si4 2.417547 1_555
Si12 Si7 2.430565 1_545
Si12 Si7 2.432350 1_555
Si12 Si8 2.514939 1_554
Si13 Si5 2.409357 1_555
Si13 Si6 2.630729 1_555
Si13 Si6 2.634591 1_545
