# generated using pymatgen
data_Cu2SnSe3
_symmetry_space_group_name_H-M   'P 1'
_cell_length_a   7.04373071
_cell_length_b   7.04373071
_cell_length_c   12.84727044
_cell_angle_alpha   79.36795887
_cell_angle_beta   100.63204113
_cell_angle_gamma   70.91525107
_symmetry_Int_Tables_number   1
_chemical_formula_structural   Cu2SnSe3
_chemical_formula_sum   'Cu8 Sn4 Se12'
_cell_volume   571.09310012
_cell_formula_units_Z   4
loop_
 _symmetry_equiv_pos_site_id
 _symmetry_equiv_pos_as_xyz
  1  'x, y, z'
loop_
 _atom_site_type_symbol
 _atom_site_label
 _atom_site_symmetry_multiplicity
 _atom_site_fract_x
 _atom_site_fract_y
 _atom_site_fract_z
 _atom_site_occupancy
  Cu  Cu0  1  0.26434700  0.24345000  0.49957800  1
  Cu  Cu1  1  0.90794400  0.57461000  0.83333300  1
  Cu  Cu2  1  0.57678300  0.93101400  0.16708900  1
  Cu  Cu3  1  0.34810200  0.65969500  0.66708900  1
  Cu  Cu4  1  0.99302800  0.01476900  0.99957800  1
  Cu  Cu5  1  0.65794400  0.32461000  0.33333300  1
  Cu  Cu6  1  0.41736200  0.08402800  0.83333300  1
  Cu  Cu7  1  0.16736200  0.83402800  0.33333300  1
  Sn  Sn0  1  0.09880800  0.40022600  0.17352800  1
  Sn  Sn1  1  0.73355900  0.76547500  0.49313900  1
  Sn  Sn2  1  0.82375300  0.17528100  0.67352800  1
  Sn  Sn3  1  0.50861400  0.49042000  0.99313900  1
  Se  Se0  1  0.10513000  0.64858400  0.98926200  1
  Se  Se1  1  0.79841100  0.96940000  0.32255900  1
  Se  Se2  1  0.43067500  0.29899700  0.66654800  1
  Se  Se3  1  0.63233100  0.09734100  0.00011800  1
  Se  Se4  1  0.30273300  0.46507800  0.34410800  1
  Se  Se5  1  0.98191700  0.77179700  0.67740500  1
  Se  Se6  1  0.05918500  0.20862600  0.84410800  1
  Se  Se7  1  0.69920200  0.55451200  0.17740500  1
  Se  Se8  1  0.34746000  0.88221200  0.50011800  1
  Se  Se9  1  0.88784500  0.36586900  0.48926200  1
  Se  Se10  1  0.54195900  0.72585200  0.82255900  1
  Se  Se11  1  0.21554600  0.01412600  0.16654800  1
loop_
_geom_bond_atom_site_label_1
_geom_bond_atom_site_label_2
_geom_bond_distance
_geom_bond_site_symmetry_2
Cu0 Se2 2.410238 1_555
Cu0 Se4 2.413357 1_555
Cu0 Se8 2.415566 1_545
Cu0 Se9 2.475245 1_455
Cu1 Se6 2.411973 1_655
Cu1 Se10 2.411983 1_555
Cu1 Se5 2.458726 1_555
Cu1 Se0 2.458736 1_655
Cu2 Se3 2.410250 1_565
Cu2 Se1 2.413357 1_555
Cu2 Se11 2.415557 1_565
Cu2 Se7 2.475245 1_555
Cu3 Se8 2.410248 1_555
Cu3 Se10 2.413357 1_555
Cu3 Se2 2.415569 1_555
Cu3 Se5 2.475239 1_455
Cu4 Se11 2.410239 1_656
Cu4 Se6 2.413357 1_655
Cu4 Se3 2.415560 1_556
Cu4 Se0 2.475239 1_645
Cu5 Se1 2.411976 1_545
Cu5 Se4 2.411987 1_555
Cu5 Se7 2.458727 1_555
Cu5 Se9 2.458735 1_555
Cu6 Se3 2.421284 1_556
Cu6 Se2 2.421284 1_555
Cu6 Se10 2.424904 1_545
Cu6 Se6 2.424915 1_555
Cu7 Se8 2.421285 1_555
Cu7 Se11 2.421285 1_565
Cu7 Se4 2.424902 1_555
Cu7 Se1 2.424911 1_455
Se0 Sn3 2.679099 1_555
Se0 Sn0 2.688520 1_556
Se1 Sn1 2.590641 1_555
Se2 Sn2 2.595206 1_555
Se3 Sn3 2.595215 1_554
Se4 Sn0 2.590641 1_555
Se5 Sn2 2.679099 1_565
Se5 Sn1 2.688520 1_555
Se6 Sn2 2.590641 1_455
Se7 Sn0 2.679092 1_655
Se7 Sn3 2.688520 1_554
Se8 Sn1 2.595209 1_555
Se9 Sn1 2.679092 1_555
Se9 Sn2 2.688520 1_555
Se10 Sn3 2.590641 1_555
Se11 Sn0 2.595219 1_555
