# generated using pymatgen
data_Ba4PtN4
_symmetry_space_group_name_H-M   'P 1'
_cell_length_a   6.60121369
_cell_length_b   6.50598462
_cell_length_c   9.97154297
_cell_angle_alpha   69.63377951
_cell_angle_beta   80.00756080
_cell_angle_gamma   76.89269647
_symmetry_Int_Tables_number   1
_chemical_formula_structural   Ba4PtN4
_chemical_formula_sum   'Ba8 Pt2 N8'
_cell_volume   388.91669861
_cell_formula_units_Z   2
loop_
 _symmetry_equiv_pos_site_id
 _symmetry_equiv_pos_as_xyz
  1  'x, y, z'
loop_
 _atom_site_type_symbol
 _atom_site_label
 _atom_site_symmetry_multiplicity
 _atom_site_fract_x
 _atom_site_fract_y
 _atom_site_fract_z
 _atom_site_occupancy
  Ba  Ba0  1  0.78372800  0.59630100  0.14875400  1
  Ba  Ba1  1  0.21627200  0.40369900  0.85124600  1
  Ba  Ba2  1  0.70345400  0.19017600  0.99454400  1
  Ba  Ba3  1  0.29654600  0.80982400  0.00545600  1
  Ba  Ba4  1  0.76050700  0.37845900  0.61929900  1
  Ba  Ba5  1  0.23949300  0.62154100  0.38070100  1
  Ba  Ba6  1  0.24435500  0.97699200  0.62251300  1
  Ba  Ba7  1  0.75564500  0.02300800  0.37748700  1
  Pt  Pt0  1  0.74737500  0.81318400  0.75548000  1
  Pt  Pt1  1  0.25262500  0.18681600  0.24452000  1
  N  N0  1  0.98129600  0.66475000  0.63731300  1
  N  N1  1  0.01870400  0.33525000  0.36268700  1
  N  N2  1  0.95147100  0.93035400  0.83555000  1
  N  N3  1  0.04852900  0.06964600  0.16445000  1
  N  N4  1  0.52435600  0.63271800  0.77389100  1
  N  N5  1  0.47564400  0.36728200  0.22610900  1
  N  N6  1  0.49870000  0.92003200  0.20802800  1
  N  N7  1  0.50130000  0.07996800  0.79197200  1
loop_
_geom_bond_atom_site_label_1
_geom_bond_atom_site_label_2
_geom_bond_distance
_geom_bond_site_symmetry_2
Ba0 N5 2.642181 1_555
Ba0 N6 2.647399 1_555
Ba0 N1 2.696836 1_655
Ba0 N2 3.297025 1_554
Ba0 N3 3.438821 1_655
Ba1 N4 2.642181 1_555
Ba1 N7 2.647399 1_555
Ba1 N0 2.696836 1_455
Ba1 N3 3.297025 1_556
Ba1 N2 3.438821 1_455
Ba2 N6 2.631019 1_546
Ba2 N2 2.785824 1_545
Ba2 N3 2.877262 1_656
Ba2 N7 2.958485 1_555
Ba2 N5 2.963419 1_556
Ba2 N4 3.078640 1_555
Ba3 N7 2.631019 1_564
Ba3 N3 2.785824 1_565
Ba3 N2 2.877262 1_454
Ba3 N6 2.958485 1_555
Ba3 N4 2.963419 1_554
Ba3 N5 3.078640 1_555
Ba4 N0 2.679699 1_555
Ba4 N4 2.704472 1_555
Ba4 N7 2.796610 1_555
Ba4 N1 2.881222 1_655
Ba4 N2 3.104695 1_545
Ba5 N1 2.679699 1_555
Ba5 N5 2.704472 1_555
Ba5 N6 2.796610 1_555
Ba5 N0 2.881222 1_455
Ba5 N3 3.104695 1_565
Ba6 N2 2.595160 1_455
Ba6 N4 2.729291 1_555
Ba6 N0 2.909698 1_455
Ba6 N7 2.911887 1_565
Ba6 N1 3.150473 1_565
Ba7 N3 2.595160 1_655
Ba7 N5 2.729291 1_555
Ba7 N1 2.909698 1_655
Ba7 N6 2.911887 1_545
Ba7 N0 3.150473 1_545
N0 Pt0 2.046874 1_555
N1 Pt1 2.046874 1_555
N2 Pt0 2.072804 1_555
N3 Pt1 2.072804 1_555
N4 Pt0 2.029715 1_555
N5 Pt1 2.029715 1_555
N6 Pt1 2.177019 1_565
N7 Pt0 2.177019 1_545
