# generated using pymatgen
data_MnFeNF6
_symmetry_space_group_name_H-M   'P 1'
_cell_length_a   7.63956900
_cell_length_b   10.35606300
_cell_length_c   12.60765300
_cell_angle_alpha   90.00000000
_cell_angle_beta   90.00000000
_cell_angle_gamma   90.00000000
_symmetry_Int_Tables_number   1
_chemical_formula_structural   MnFeNF6
_chemical_formula_sum   'Mn8 Fe8 N8 F48'
_cell_volume   997.46528266
_cell_formula_units_Z   8
loop_
 _symmetry_equiv_pos_site_id
 _symmetry_equiv_pos_as_xyz
  1  'x, y, z'
loop_
 _atom_site_type_symbol
 _atom_site_label
 _atom_site_symmetry_multiplicity
 _atom_site_fract_x
 _atom_site_fract_y
 _atom_site_fract_z
 _atom_site_occupancy
  Mn  Mn0  1  0.24841900  0.31412600  0.09631200  1
  Mn  Mn1  1  0.75158100  0.68587400  0.09631200  1
  Mn  Mn2  1  0.74841900  0.68587400  0.59631200  1
  Mn  Mn3  1  0.25158100  0.31412600  0.59631200  1
  Mn  Mn4  1  0.74928200  0.18561100  0.88089600  1
  Mn  Mn5  1  0.25071800  0.81438900  0.88089600  1
  Mn  Mn6  1  0.24928200  0.81438900  0.38089600  1
  Mn  Mn7  1  0.75071800  0.18561100  0.38089600  1
  Fe  Fe0  1  0.25123200  0.67691100  0.09850500  1
  Fe  Fe1  1  0.74876800  0.32308900  0.09850500  1
  Fe  Fe2  1  0.75123200  0.32308900  0.59850500  1
  Fe  Fe3  1  0.24876800  0.67691100  0.59850500  1
  Fe  Fe4  1  0.24989400  0.17662700  0.87882300  1
  Fe  Fe5  1  0.75010600  0.82337300  0.87882300  1
  Fe  Fe6  1  0.74989400  0.82337300  0.37882300  1
  Fe  Fe7  1  0.25010600  0.17662700  0.37882300  1
  N  N0  1  0.50000000  0.50000000  0.83870700  1
  N  N1  1  0.00000000  0.50000000  0.33870700  1
  N  N2  1  0.50000000  0.50000000  0.31005500  1
  N  N3  1  0.00000000  0.50000000  0.81005500  1
  N  N4  1  0.50000000  0.00000000  0.62989000  1
  N  N5  1  0.00000000  0.00000000  0.12989000  1
  N  N6  1  0.50000000  0.00000000  0.17143100  1
  N  N7  1  0.00000000  0.00000000  0.67143100  1
  F  F0  1  0.28134900  0.49713500  0.63792400  1
  F  F1  1  0.71865100  0.50286500  0.63792400  1
  F  F2  1  0.78134900  0.50286500  0.13792400  1
  F  F3  1  0.21865100  0.49713500  0.13792400  1
  F  F4  1  0.22312800  0.64342200  0.94550100  1
  F  F5  1  0.77687200  0.35657800  0.94550100  1
  F  F6  1  0.72312800  0.35657800  0.44550100  1
  F  F7  1  0.27687200  0.64342200  0.44550100  1
  F  F8  1  0.28061400  0.14325800  0.03152100  1
  F  F9  1  0.71938600  0.85674200  0.03152100  1
  F  F10  1  0.78061400  0.85674200  0.53152100  1
  F  F11  1  0.21938600  0.14325800  0.53152100  1
  F  F12  1  0.21612600  0.25179200  0.73850800  1
  F  F13  1  0.78387400  0.74820800  0.73850800  1
  F  F14  1  0.71612600  0.74820800  0.23850800  1
  F  F15  1  0.28387400  0.25179200  0.23850800  1
  F  F16  1  0.00043200  0.29079100  0.11363600  1
  F  F17  1  0.99956800  0.70920900  0.11363600  1
  F  F18  1  0.50043200  0.70920900  0.61363600  1
  F  F19  1  0.49956800  0.29079100  0.61363600  1
  F  F20  1  0.50145700  0.20785000  0.86250800  1
  F  F21  1  0.49854300  0.79215000  0.86250800  1
  F  F22  1  0.00145700  0.79215000  0.36250800  1
  F  F23  1  0.99854300  0.20785000  0.36250800  1
  F  F24  1  0.28005100  0.99693200  0.83817500  1
  F  F25  1  0.71994900  0.00306800  0.83817500  1
  F  F26  1  0.78005100  0.00306800  0.33817500  1
  F  F27  1  0.21994900  0.99693200  0.33817500  1
  F  F28  1  0.22122300  0.34977300  0.94872900  1
  F  F29  1  0.77877700  0.65022700  0.94872900  1
  F  F30  1  0.72122300  0.65022700  0.44872900  1
  F  F31  1  0.27877700  0.34977300  0.44872900  1
  F  F32  1  0.72031900  0.14981500  0.02842900  1
  F  F33  1  0.27968100  0.85018500  0.02842900  1
  F  F34  1  0.22031900  0.85018500  0.52842900  1
  F  F35  1  0.77968100  0.14981500  0.52842900  1
  F  F36  1  0.78594100  0.24843000  0.73884700  1
  F  F37  1  0.21405900  0.75157000  0.73884700  1
  F  F38  1  0.28594100  0.75157000  0.23884700  1
  F  F39  1  0.71405900  0.24843000  0.23884700  1
  F  F40  1  0.49624100  0.34802700  0.08680000  1
  F  F41  1  0.50375900  0.65197300  0.08680000  1
  F  F42  1  0.99624100  0.65197300  0.58680000  1
  F  F43  1  0.00375900  0.34802700  0.58680000  1
  F  F44  1  0.99729400  0.15241900  0.89154300  1
  F  F45  1  0.00270600  0.84758100  0.89154300  1
  F  F46  1  0.49729400  0.84758100  0.39154300  1
  F  F47  1  0.50270600  0.15241900  0.39154300  1
loop_
_geom_bond_atom_site_label_1
_geom_bond_atom_site_label_2
_geom_bond_distance
_geom_bond_site_symmetry_2
F0 Fe3 1.942971 1_555
F0 Mn3 1.979630 1_555
F1 Fe2 1.942971 1_555
F1 Mn2 1.979630 1_555
F2 Fe1 1.942971 1_555
F2 Mn1 1.979630 1_555
F3 Fe0 1.942971 1_555
F3 Mn0 1.979630 1_555
F4 Mn5 1.960279 1_555
F4 Fe0 1.971675 1_556
F5 Mn4 1.960279 1_555
F5 Fe1 1.971675 1_556
F6 Mn7 1.960279 1_555
F6 Fe2 1.971675 1_555
F7 Mn6 1.960279 1_555
F7 Fe3 1.971675 1_555
F8 Mn0 1.964423 1_555
F8 Fe4 1.969962 1_554
F9 Mn1 1.964423 1_555
F9 Fe5 1.969962 1_554
F10 Mn2 1.964423 1_555
F10 Fe6 1.969962 1_555
F11 Mn3 1.964423 1_555
F11 Fe7 1.969962 1_555
F12 Mn3 1.924594 1_555
F12 Fe4 1.949869 1_555
F13 Mn2 1.924594 1_555
F13 Fe5 1.949869 1_555
F14 Mn1 1.924594 1_555
F14 Fe6 1.949869 1_555
F15 Mn0 1.924594 1_555
F15 Fe7 1.949869 1_555
F16 Mn0 1.922313 1_555
F16 Fe1 1.960785 1_455
F17 Mn1 1.922313 1_555
F17 Fe0 1.960785 1_655
F18 Mn2 1.922313 1_555
F18 Fe3 1.960785 1_555
F19 Mn3 1.922313 1_555
F19 Fe2 1.960785 1_555
F20 Mn4 1.921271 1_555
F20 Fe4 1.959670 1_555
F21 Mn5 1.921271 1_555
F21 Fe5 1.959670 1_555
F22 Mn6 1.921271 1_555
F22 Fe6 1.959670 1_455
F23 Mn7 1.921271 1_555
F23 Fe7 1.959670 1_655
F24 Fe4 1.943908 1_565
F24 Mn5 1.978391 1_555
F25 Fe5 1.943908 1_545
F25 Mn4 1.978391 1_555
F26 Fe6 1.943908 1_545
F26 Mn7 1.978391 1_555
F27 Fe7 1.943908 1_565
F27 Mn6 1.978391 1_555
F28 Mn0 1.908287 1_556
F28 Fe4 2.009975 1_555
F29 Mn1 1.908287 1_556
F29 Fe5 2.009975 1_555
F30 Mn2 1.908287 1_555
F30 Fe6 2.009975 1_555
F31 Mn3 1.908287 1_555
F31 Fe7 2.009975 1_555
F32 Mn4 1.909489 1_554
F32 Fe1 2.011914 1_555
F33 Mn5 1.909489 1_554
F33 Fe0 2.011914 1_555
F34 Mn6 1.909489 1_555
F34 Fe3 2.011914 1_555
F35 Mn7 1.909489 1_555
F35 Fe2 2.011914 1_555
F36 Mn4 1.925876 1_555
F36 Fe2 1.949057 1_555
F37 Mn5 1.925876 1_555
F37 Fe3 1.949057 1_555
F38 Mn6 1.925876 1_555
F38 Fe0 1.949057 1_555
F39 Mn7 1.925876 1_555
F39 Fe1 1.949057 1_555
F40 Mn0 1.929261 1_555
F40 Fe1 1.951993 1_555
F41 Mn1 1.929261 1_555
F41 Fe0 1.951993 1_555
F42 Mn2 1.929261 1_555
F42 Fe3 1.951993 1_655
F43 Mn3 1.929261 1_555
F43 Fe2 1.951993 1_455
F44 Mn4 1.930306 1_555
F44 Fe4 1.952568 1_655
F45 Mn5 1.930306 1_555
F45 Fe5 1.952568 1_455
F46 Mn6 1.930306 1_555
F46 Fe6 1.952568 1_555
F47 Mn7 1.930306 1_555
F47 Fe7 1.952568 1_555
