# generated using pymatgen
data_Rb2CaNb2(TeO6)2
_symmetry_space_group_name_H-M   'P 1'
_cell_length_a   7.44657723
_cell_length_b   7.45546237
_cell_length_c   7.60411309
_cell_angle_alpha   90.00000000
_cell_angle_beta   60.72685252
_cell_angle_gamma   120.03947807
_symmetry_Int_Tables_number   1
_chemical_formula_structural   Rb2CaNb2(TeO6)2
_chemical_formula_sum   'Rb2 Ca1 Nb2 Te2 O12'
_cell_volume   301.57542202
_cell_formula_units_Z   1
loop_
 _symmetry_equiv_pos_site_id
 _symmetry_equiv_pos_as_xyz
  1  'x, y, z'
loop_
 _atom_site_type_symbol
 _atom_site_label
 _atom_site_symmetry_multiplicity
 _atom_site_fract_x
 _atom_site_fract_y
 _atom_site_fract_z
 _atom_site_occupancy
  Rb  Rb0  1  0.65236900  0.32618400  0.53005900  1
  Rb  Rb1  1  0.34763100  0.67381600  0.46994100  1
  Ca  Ca0  1  0.00000000  0.50000000  0.00000000  1
  Nb  Nb0  1  0.50000000  0.50000000  0.00000000  1
  Nb  Nb1  1  0.50000000  0.00000000  0.00000000  1
  Te  Te0  1  0.00000000  0.00000000  0.50000000  1
  Te  Te1  1  0.00000000  0.00000000  0.00000000  1
  O  O0  1  0.84608900  0.92304400  0.34242300  1
  O  O1  1  0.62679600  0.31339800  0.92061700  1
  O  O2  1  0.25380600  0.90196400  0.91734200  1
  O  O3  1  0.23662100  0.30341000  0.30749200  1
  O  O4  1  0.25380600  0.35184200  0.91734200  1
  O  O5  1  0.23662100  0.93321000  0.30749200  1
  O  O6  1  0.15391100  0.07695600  0.65757700  1
  O  O7  1  0.37320400  0.68660200  0.07938300  1
  O  O8  1  0.74619400  0.09803600  0.08265800  1
  O  O9  1  0.76337900  0.69659000  0.69250800  1
  O  O10  1  0.74619400  0.64815800  0.08265800  1
  O  O11  1  0.76337900  0.06679000  0.69250800  1
loop_
_geom_bond_atom_site_label_1
_geom_bond_atom_site_label_2
_geom_bond_distance
_geom_bond_site_symmetry_2
Ca0 O4 2.472980 1_554
Ca0 O8 2.472980 1_455
Ca0 O2 2.472980 1_554
Ca0 O10 2.472980 1_455
Ca0 O1 2.791568 1_454
Ca0 O7 2.791568 1_555
Nb0 O1 1.987231 1_554
Nb0 O7 1.987231 1_555
Nb0 O10 2.018814 1_555
Nb0 O4 2.018814 1_554
Nb0 O9 2.024659 1_554
Nb0 O3 2.024659 1_555
Nb1 O7 1.987231 1_545
Nb1 O1 1.987231 1_554
Nb1 O8 2.018814 1_555
Nb1 O2 2.018814 1_544
Nb1 O11 2.024657 1_554
Nb1 O5 2.024657 1_545
O0 Te0 1.939891 1_665
O0 Te1 2.201325 1_665
O0 Rb1 2.783042 1_555
O1 Rb0 2.879946 1_555
O2 Te1 2.173164 1_566
O2 Rb0 3.088471 1_565
O3 Te0 1.962522 1_555
O3 Rb1 2.923779 1_555
O4 Te1 2.173164 1_556
O4 Rb0 3.088475 1_555
O5 Te0 1.962527 1_565
O5 Rb1 2.923767 1_555
O6 Te0 1.939891 1_555
O6 Te1 2.201325 1_556
O6 Rb0 2.783042 1_555
O7 Rb1 2.879946 1_555
O8 Te1 2.173164 1_655
O8 Rb1 3.088471 1_545
O9 Te0 1.962522 1_665
O9 Rb0 2.923779 1_555
O10 Te1 2.173164 1_665
O10 Rb1 3.088475 1_555
O11 Te0 1.962527 1_655
O11 Rb0 2.923767 1_555
