# generated using pymatgen
data_BaFeO3
_symmetry_space_group_name_H-M   'P 1'
_cell_length_a   5.64446640
_cell_length_b   5.64446666
_cell_length_c   13.69047446
_cell_angle_alpha   89.99997685
_cell_angle_beta   90.00002746
_cell_angle_gamma   119.99965500
_symmetry_Int_Tables_number   1
_chemical_formula_structural   BaFeO3
_chemical_formula_sum   'Ba6 Fe6 O18'
_cell_volume   377.74301687
_cell_formula_units_Z   6
loop_
 _symmetry_equiv_pos_site_id
 _symmetry_equiv_pos_as_xyz
  1  'x, y, z'
loop_
 _atom_site_type_symbol
 _atom_site_label
 _atom_site_symmetry_multiplicity
 _atom_site_fract_x
 _atom_site_fract_y
 _atom_site_fract_z
 _atom_site_occupancy
  Ba  Ba0  1  -0.00000009  0.00000019  0.25001470  1
  Ba  Ba1  1  -0.00000007  0.00000003  0.74999684  1
  Ba  Ba2  1  0.33333320  0.66666681  0.40946670  1
  Ba  Ba3  1  0.66666619  0.33333331  0.59052197  1
  Ba  Ba4  1  0.66666673  0.33333321  0.90945346  1
  Ba  Ba5  1  0.33333323  0.66666680  0.09053397  1
  Fe  Fe0  1  -0.00000022  0.00000006  0.49994319  1
  Fe  Fe1  1  -0.00000038  0.00000033  0.00005642  1
  Fe  Fe2  1  0.33333288  0.66666710  0.65585296  1
  Fe  Fe3  1  0.66666689  0.33333316  0.34404293  1
  Fe  Fe4  1  0.66666690  0.33333323  0.15595894  1
  Fe  Fe5  1  0.33333304  0.66666695  0.84414478  1
  O  O0  1  0.52225300  0.47774748  0.25000614  1
  O  O1  1  0.52225384  0.04450549  0.25000621  1
  O  O2  1  0.95549467  0.47774594  0.25000622  1
  O  O3  1  0.47777893  0.52222141  0.75000743  1
  O  O4  1  0.47777752  0.95555832  0.75000720  1
  O  O5  1  0.04444173  0.52222237  0.75000716  1
  O  O6  1  0.82761335  0.17238667  0.41669394  1
  O  O7  1  0.82761264  0.65522603  0.41669386  1
  O  O8  1  0.34477395  0.17238734  0.41669385  1
  O  O9  1  0.17236667  0.82763327  0.58328579  1
  O  O10  1  0.17236740  0.34473479  0.58328593  1
  O  O11  1  0.65526522  0.82763254  0.58328591  1
  O  O12  1  0.17237072  0.82762929  0.91670435  1
  O  O13  1  0.17237127  0.34474208  0.91670433  1
  O  O14  1  0.65525758  0.82762854  0.91670457  1
  O  O15  1  0.82761256  0.17238769  0.08330541  1
  O  O16  1  0.82761195  0.65522439  0.08330543  1
  O  O17  1  0.34477568  0.17238820  0.08330539  1
loop_
_geom_bond_atom_site_label_1
_geom_bond_atom_site_label_2
_geom_bond_distance
_geom_bond_site_symmetry_2
Ba0 O2 2.830596 1_455
Ba0 O1 2.830597 1_455
Ba0 O1 2.830614 1_555
Ba0 O2 2.830617 1_445
Ba0 O0 2.830620 1_445
Ba0 O0 2.830622 1_555
Ba0 O6 2.836812 1_455
Ba0 O8 2.836818 1_555
Ba0 O7 2.836819 1_445
Ba0 O15 2.837147 1_455
Ba0 O16 2.837156 1_445
Ba0 O17 2.837157 1_555
Ba1 O4 2.830572 1_545
Ba1 O5 2.830573 1_545
Ba1 O5 2.830592 1_555
Ba1 O4 2.830592 1_445
Ba1 O3 2.830596 1_445
Ba1 O3 2.830598 1_555
Ba1 O12 2.837031 1_545
Ba1 O13 2.837038 1_555
Ba1 O14 2.837042 1_445
Ba1 O9 2.837048 1_545
Ba1 O11 2.837054 1_445
Ba1 O10 2.837054 1_555
Ba2 O7 2.824519 1_555
Ba2 O8 2.824520 1_555
Ba2 O7 2.824522 1_455
Ba2 O8 2.824522 1_565
Ba2 O6 2.824535 1_455
Ba2 O6 2.824536 1_565
Ba2 O9 2.852946 1_555
Ba2 O11 2.852949 1_555
Ba2 O10 2.852949 1_555
Ba2 O0 2.859578 1_555
Ba2 O2 2.859580 1_455
Ba2 O1 2.859581 1_565
Ba3 O10 2.824518 1_555
Ba3 O11 2.824519 1_555
Ba3 O11 2.824523 1_545
Ba3 O10 2.824524 1_655
Ba3 O9 2.824535 1_545
Ba3 O9 2.824537 1_655
Ba3 O6 2.852943 1_555
Ba3 O8 2.852943 1_555
Ba3 O7 2.852944 1_555
Ba3 O3 2.859637 1_555
Ba3 O4 2.859638 1_545
Ba3 O5 2.859640 1_655
Ba4 O13 2.824528 1_555
Ba4 O14 2.824529 1_555
Ba4 O13 2.824530 1_655
Ba4 O14 2.824530 1_545
Ba4 O12 2.824544 1_545
Ba4 O12 2.824544 1_655
Ba4 O15 2.853208 1_556
Ba4 O17 2.853213 1_556
Ba4 O16 2.853213 1_556
Ba4 O3 2.859225 1_555
Ba4 O4 2.859231 1_545
Ba4 O5 2.859232 1_655
Ba5 O17 2.824520 1_555
Ba5 O16 2.824521 1_555
Ba5 O16 2.824522 1_455
Ba5 O17 2.824523 1_565
Ba5 O15 2.824536 1_455
Ba5 O15 2.824537 1_565
Ba5 O12 2.853044 1_554
Ba5 O14 2.853045 1_554
Ba5 O13 2.853049 1_554
Ba5 O0 2.859698 1_555
Ba5 O2 2.859704 1_455
Ba5 O1 2.859704 1_565
Fe0 O6 2.034531 1_455
Fe0 O7 2.034543 1_445
Fe0 O8 2.034544 1_555
Fe0 O9 2.035088 1_545
Fe0 O11 2.035100 1_445
Fe0 O10 2.035101 1_555
Fe1 O15 2.034535 1_455
Fe1 O17 2.034548 1_555
Fe1 O16 2.034548 1_445
Fe1 O12 2.035196 1_544
Fe1 O14 2.035200 1_444
Fe1 O13 2.035201 1_554
Fe2 O9 1.861043 1_555
Fe2 O10 1.861049 1_555
Fe2 O11 1.861049 1_555
Fe2 O3 1.912015 1_555
Fe2 O5 1.912017 1_555
Fe2 O4 1.912017 1_555
Fe3 O6 1.861493 1_555
Fe3 O7 1.861499 1_555
Fe3 O8 1.861499 1_555
Fe3 O0 1.910700 1_555
Fe3 O1 1.910703 1_555
Fe3 O2 1.910704 1_555
Fe4 O15 1.861505 1_555
Fe4 O16 1.861511 1_555
Fe4 O17 1.861511 1_555
Fe4 O0 1.910797 1_555
Fe4 O1 1.910801 1_555
Fe4 O2 1.910801 1_555
Fe5 O12 1.860956 1_555
Fe5 O13 1.860963 1_555
Fe5 O14 1.860963 1_555
Fe5 O3 1.911857 1_555
Fe5 O5 1.911864 1_555
Fe5 O4 1.911864 1_555
