# generated using pymatgen
data_Mg2Zn
_symmetry_space_group_name_H-M   'P 1'
_cell_length_a   5.37600163
_cell_length_b   5.37600163
_cell_length_c   4.73873711
_cell_angle_alpha   90.00000000
_cell_angle_beta   90.00000000
_cell_angle_gamma   124.30459993
_symmetry_Int_Tables_number   1
_chemical_formula_structural   Mg2Zn
_chemical_formula_sum   'Mg4 Zn2'
_cell_volume   113.13300923
_cell_formula_units_Z   2
loop_
 _symmetry_equiv_pos_site_id
 _symmetry_equiv_pos_as_xyz
  1  'x, y, z'
loop_
 _atom_site_type_symbol
 _atom_site_label
 _atom_site_symmetry_multiplicity
 _atom_site_fract_x
 _atom_site_fract_y
 _atom_site_fract_z
 _atom_site_occupancy
  Mg  Mg0  1  0.04078684  0.35113130  0.75000000  1
  Mg  Mg1  1  0.35113130  0.04078684  0.75000000  1
  Mg  Mg2  1  0.64886870  0.95921316  0.25000000  1
  Mg  Mg3  1  0.95921316  0.64886870  0.25000000  1
  Zn  Zn0  1  0.67545919  0.67545919  0.75000000  1
  Zn  Zn1  1  0.32454081  0.32454081  0.25000000  1
loop_
_geom_bond_atom_site_label_1
_geom_bond_atom_site_label_2
_geom_bond_distance
_geom_bond_site_symmetry_2
Mg0 Zn0 2.824196 1_555
Mg0 Zn1 2.864817 1_555
Mg0 Zn1 2.864817 1_556
Mg0 Mg1 2.950395 1_555
Mg0 Zn0 3.001720 1_445
Mg0 Mg3 3.026464 1_456
Mg0 Mg3 3.026464 1_455
Mg0 Mg2 3.080349 1_445
Mg0 Mg2 3.080349 1_446
Mg0 Mg1 3.091487 1_455
Mg0 Mg1 3.091487 1_565
Mg0 Zn0 3.279839 1_455
Mg1 Zn0 2.824196 1_555
Mg1 Zn1 2.864817 1_555
Mg1 Zn1 2.864817 1_556
Mg1 Zn0 3.001720 1_445
Mg1 Mg2 3.026464 1_545
Mg1 Mg2 3.026464 1_546
Mg1 Mg3 3.080349 1_445
Mg1 Mg3 3.080349 1_446
Mg1 Zn0 3.279839 1_545
Mg2 Zn1 2.824196 1_555
Mg2 Zn0 2.864817 1_555
Mg2 Zn0 2.864817 1_554
Mg2 Mg3 2.950395 1_555
Mg2 Zn1 3.001720 1_665
Mg2 Mg3 3.091487 1_455
Mg2 Mg3 3.091487 1_565
Mg2 Zn1 3.279839 1_565
Mg3 Zn1 2.824196 1_555
Mg3 Zn0 2.864817 1_555
Mg3 Zn0 2.864817 1_554
Mg3 Zn1 3.001720 1_665
Mg3 Zn1 3.279839 1_655
Zn0 Zn1 2.953012 1_555
Zn0 Zn1 2.953012 1_556
