# generated using pymatgen
data_Li7Mn2(CoO4)3
_symmetry_space_group_name_H-M   'P 1'
_cell_length_a   3.02597500
_cell_length_b   7.80475206
_cell_length_c   10.10558808
_cell_angle_alpha   111.56395669
_cell_angle_beta   91.66401673
_cell_angle_gamma   97.29556108
_symmetry_Int_Tables_number   1
_chemical_formula_structural   Li7Mn2(CoO4)3
_chemical_formula_sum   'Li7 Mn2 Co3 O12'
_cell_volume   219.41926158
_cell_formula_units_Z   1
loop_
 _symmetry_equiv_pos_site_id
 _symmetry_equiv_pos_as_xyz
  1  'x, y, z'
loop_
 _atom_site_type_symbol
 _atom_site_label
 _atom_site_symmetry_multiplicity
 _atom_site_fract_x
 _atom_site_fract_y
 _atom_site_fract_z
 _atom_site_occupancy
  Li  Li0  1  0.00300500  0.00340200  0.74570800  1
  Li  Li1  1  0.66534900  0.33553500  0.42194200  1
  Li  Li2  1  0.33688500  0.66914900  0.08767200  1
  Li  Li3  1  0.66311500  0.33085100  0.91232800  1
  Li  Li4  1  0.33465100  0.66446500  0.57805800  1
  Li  Li5  1  0.99699500  0.99659800  0.25429200  1
  Li  Li6  1  0.50000000  0.00000000  0.50000000  1
  Mn  Mn0  1  0.83721200  0.66319200  0.83082200  1
  Mn  Mn1  1  0.16278800  0.33680800  0.16917800  1
  Co  Co0  1  0.50000000  0.00000000  0.00000000  1
  Co  Co1  1  0.15118800  0.31710300  0.65903100  1
  Co  Co2  1  0.84881200  0.68289700  0.34096900  1
  O  O0  1  0.45522100  0.83668400  0.79988900  1
  O  O1  1  0.09666500  0.18603600  0.47754900  1
  O  O2  1  0.77987900  0.50929800  0.14228300  1
  O  O3  1  0.06790500  0.16672700  0.97027400  1
  O  O4  1  0.77075200  0.49431000  0.63429000  1
  O  O5  1  0.44252000  0.82121700  0.29635900  1
  O  O6  1  0.55748000  0.17878300  0.70364100  1
  O  O7  1  0.22924800  0.50569000  0.36571000  1
  O  O8  1  0.93209500  0.83327300  0.02972600  1
  O  O9  1  0.22012100  0.49070200  0.85771700  1
  O  O10  1  0.90333500  0.81396400  0.52245100  1
  O  O11  1  0.54477900  0.16331600  0.20011100  1
loop_
_geom_bond_atom_site_label_1
_geom_bond_atom_site_label_2
_geom_bond_distance
_geom_bond_site_symmetry_2
Li0 O3 2.144203 1_555
Li0 O6 2.176000 1_455
Li0 O6 2.180672 1_555
Li0 O10 2.182280 1_445
Li0 O0 2.183826 1_445
Li0 O0 2.190388 1_545
Li1 O4 2.036512 1_555
Li1 O1 2.051042 1_655
Li1 O11 2.139669 1_555
Li1 O1 2.160237 1_555
Li1 O7 2.187291 1_555
Li1 O7 2.243587 1_655
Li2 O5 1.995720 1_555
Li2 O8 2.095777 1_455
Li2 O2 2.132106 1_555
Li2 O2 2.174398 1_455
Li2 O9 2.216530 1_554
Li2 O8 2.292235 1_555
Li3 O6 1.995720 1_555
Li3 O3 2.095777 1_655
Li3 O9 2.132106 1_555
Li3 O9 2.174398 1_655
Li3 O2 2.216530 1_556
Li3 O3 2.292235 1_555
Li4 O7 2.036512 1_555
Li4 O10 2.051042 1_455
Li4 O0 2.139669 1_555
Li4 O10 2.160237 1_555
Li4 O4 2.187291 1_555
Li4 O4 2.243587 1_455
Li5 O8 2.144203 1_555
Li5 O5 2.176000 1_655
Li5 O5 2.180672 1_555
Li5 O1 2.182280 1_665
Li5 O11 2.183826 1_665
Li5 O11 2.190388 1_565
Li6 O6 2.004757 1_555
Li6 O5 2.004757 1_545
Li6 O1 2.079757 1_555
Li6 O10 2.079757 1_545
Li6 O1 2.240452 1_655
Li6 O10 2.240452 1_445
Mn0 O4 1.925474 1_555
Mn0 O8 1.947599 1_556
Mn0 O9 1.968654 1_655
Mn0 O0 1.988708 1_555
Mn0 O9 2.243443 1_555
Mn0 O0 2.265032 1_655
Mn1 O7 1.925474 1_555
Mn1 O3 1.947599 1_554
Mn1 O2 1.968654 1_455
Mn1 O11 1.988708 1_555
Mn1 O2 2.243443 1_555
Mn1 O11 2.265032 1_455
Co0 O11 1.943703 1_555
Co0 O0 1.943703 1_544
Co0 O3 2.046888 1_554
Co0 O8 2.046888 1_545
Co0 O3 2.118027 1_654
Co0 O8 2.118027 1_445
Co1 O1 1.731368 1_555
Co1 O6 1.882233 1_555
Co1 O9 1.953164 1_555
Co1 O4 1.985557 1_455
Co1 O6 2.123310 1_455
Co1 O4 2.261204 1_555
Co2 O10 1.731368 1_555
Co2 O5 1.882233 1_555
Co2 O2 1.953164 1_555
Co2 O7 1.985557 1_655
Co2 O5 2.123310 1_655
Co2 O7 2.261204 1_555
