# generated using pymatgen
data_U3Ga2Ge3
_symmetry_space_group_name_H-M   'P 1'
_cell_length_a   7.80395409
_cell_length_b   7.80395409
_cell_length_c   7.65592978
_cell_angle_alpha   58.34057183
_cell_angle_beta   58.34057183
_cell_angle_gamma   88.29078847
_symmetry_Int_Tables_number   1
_chemical_formula_structural   U3Ga2Ge3
_chemical_formula_sum   'U6 Ga4 Ge6'
_cell_volume   317.79902972
_cell_formula_units_Z   2
loop_
 _symmetry_equiv_pos_site_id
 _symmetry_equiv_pos_as_xyz
  1  'x, y, z'
loop_
 _atom_site_type_symbol
 _atom_site_label
 _atom_site_symmetry_multiplicity
 _atom_site_fract_x
 _atom_site_fract_y
 _atom_site_fract_z
 _atom_site_occupancy
  U  U0  1  0.44870300  0.94870300  0.39848700  1
  U  U1  1  0.15281000  0.65281000  0.39848700  1
  U  U2  1  0.33382400  0.53629800  0.62987800  1
  U  U3  1  0.03629800  0.83382400  0.62987800  1
  U  U4  1  0.51036600  0.01036600  0.66897700  1
  U  U5  1  0.82065700  0.32065700  0.66897700  1
  Ga  Ga0  1  0.50827500  0.50827500  0.98345000  1
  Ga  Ga1  1  0.00827500  0.00827500  0.98345000  1
  Ga  Ga2  1  0.72264700  0.50172700  0.27562600  1
  Ga  Ga3  1  0.00172700  0.22264700  0.27562600  1
  Ge  Ge0  1  0.63891300  0.83218500  0.02890200  1
  Ge  Ge1  1  0.33218500  0.13891300  0.02890200  1
  Ge  Ge2  1  0.83052000  0.33052000  0.03432900  1
  Ge  Ge3  1  0.13515100  0.63515100  0.03432900  1
  Ge  Ge4  1  0.25982500  0.25982500  0.48035000  1
  Ge  Ge5  1  0.75982500  0.75982500  0.48035000  1
loop_
_geom_bond_atom_site_label_1
_geom_bond_atom_site_label_2
_geom_bond_distance
_geom_bond_site_symmetry_2
U0 U2 2.611508 1_555
U0 U3 2.611508 1_555
U0 U4 2.618695 1_565
U1 U3 2.611507 1_555
U1 U2 2.611507 1_555
U1 U5 2.618695 1_455
Ga0 Ge4 2.594092 1_556
Ga0 Ge5 2.626460 1_555
Ga0 Ge2 2.941623 1_556
Ga0 Ge3 2.941623 1_556
Ga0 Ge0 2.999936 1_556
Ga0 Ge1 2.999936 1_556
Ga0 U5 3.348059 1_555
Ga0 U4 3.348059 1_565
Ga1 Ge5 2.594092 1_446
Ga1 Ge4 2.626460 1_555
Ga1 Ge2 2.941623 1_456
Ga1 Ge3 2.941623 1_546
Ga1 Ge1 2.999936 1_556
Ga1 Ge0 2.999936 1_446
Ga1 U5 3.348059 1_455
Ga1 U4 3.348059 1_555
Ga2 Ge0 2.593688 1_555
Ga2 Ge2 2.607283 1_555
Ga2 Ge3 2.607283 1_655
Ga2 U2 2.952309 1_555
Ga2 U5 3.088222 1_555
Ga2 U4 3.088222 1_555
Ga3 Ge1 2.593688 1_555
Ga3 Ge2 2.607283 1_455
Ga3 Ge3 2.607283 1_555
Ga3 U3 2.952309 1_545
Ga3 U5 3.088222 1_455
Ga3 U4 3.088222 1_455
Ge0 U3 2.994365 1_654
Ge0 U0 3.041008 1_555
Ge0 U1 3.041008 1_555
Ge0 U4 3.054401 1_564
Ge0 U5 3.054401 1_564
Ge0 U2 3.137825 1_555
Ge1 U2 2.994365 1_554
Ge1 U0 3.041008 1_545
Ge1 U1 3.041008 1_545
Ge1 U4 3.054401 1_554
Ge1 U5 3.054401 1_554
Ge1 U3 3.137825 1_545
Ge2 U5 2.878894 1_554
Ge2 U0 2.935732 1_545
Ge2 U2 3.159674 1_654
Ge2 U3 3.159674 1_654
Ge2 U4 3.313364 1_555
Ge2 U1 3.319807 1_654
Ge3 U4 2.878894 1_564
Ge3 U1 2.935732 1_555
Ge3 U2 3.159674 1_554
Ge3 U3 3.159674 1_554
Ge3 U5 3.313364 1_455
Ge3 U0 3.319807 1_554
Ge4 U0 2.979044 1_545
Ge4 U1 2.979044 1_555
Ge4 U4 3.079603 1_555
Ge4 U5 3.079603 1_455
Ge4 U2 3.108096 1_555
Ge4 U3 3.108096 1_545
Ge5 U0 2.979044 1_555
Ge5 U1 2.979044 1_655
Ge5 U4 3.079603 1_565
Ge5 U5 3.079603 1_555
Ge5 U3 3.108096 1_655
Ge5 U2 3.108096 1_555
