# generated using pymatgen
data_Mg2Si
_symmetry_space_group_name_H-M   'P 1'
_cell_length_a   5.34420400
_cell_length_b   6.80581935
_cell_length_c   7.23495093
_cell_angle_alpha   73.48859278
_cell_angle_beta   74.31590021
_cell_angle_gamma   79.49407559
_symmetry_Int_Tables_number   1
_chemical_formula_structural   Mg2Si
_chemical_formula_sum   'Mg8 Si4'
_cell_volume   241.31029464
_cell_formula_units_Z   4
loop_
 _symmetry_equiv_pos_site_id
 _symmetry_equiv_pos_as_xyz
  1  'x, y, z'
loop_
 _atom_site_type_symbol
 _atom_site_label
 _atom_site_symmetry_multiplicity
 _atom_site_fract_x
 _atom_site_fract_y
 _atom_site_fract_z
 _atom_site_occupancy
  Mg  Mg0  1  0.30314000  0.07289100  0.77710000  1
  Mg  Mg1  1  0.45061000  0.12984200  0.28263400  1
  Mg  Mg2  1  0.97378100  0.26999400  0.13331700  1
  Mg  Mg3  1  0.45655000  0.70412900  0.53994500  1
  Mg  Mg4  1  0.41571800  0.55035400  0.98327700  1
  Mg  Mg5  1  0.09551500  0.48219000  0.42852000  1
  Mg  Mg6  1  0.90671300  0.95083100  0.54656700  1
  Mg  Mg7  1  0.79516400  0.82613500  0.05094600  1
  Si  Si0  1  0.62687300  0.33590800  0.47608100  1
  Si  Si1  1  0.97370400  0.56117500  0.79959000  1
  Si  Si2  1  0.76834100  0.25365800  0.80214300  1
  Si  Si3  1  0.23351200  0.86290400  0.18035800  1
loop_
_geom_bond_atom_site_label_1
_geom_bond_atom_site_label_2
_geom_bond_distance
_geom_bond_site_symmetry_2
Mg0 Si0 2.795858 1_555
Mg0 Si3 2.816011 1_546
Mg0 Si2 2.877401 1_455
Mg0 Si2 3.035270 1_555
Mg1 Si0 2.668950 1_555
Mg1 Si3 2.681625 1_545
Mg2 Si1 2.652828 1_554
Mg2 Si0 2.762511 1_555
Mg2 Si3 2.834722 1_645
Mg2 Si2 2.928643 1_554
Mg3 Si0 2.630821 1_555
Mg3 Si1 2.896527 1_455
Mg3 Si3 2.994275 1_555
Mg4 Si3 2.779224 1_556
Mg4 Si2 2.850848 1_555
Mg4 Si1 2.923296 1_555
Mg4 Si1 2.988288 1_455
Mg5 Si0 2.762388 1_455
Mg5 Si1 2.769117 1_455
Mg5 Si3 2.796026 1_555
Mg5 Si0 2.911355 1_555
Mg5 Si2 2.971502 1_455
Mg6 Si0 2.754707 1_565
Mg6 Si1 2.785803 1_555
Mg6 Si3 2.906274 1_655
Mg6 Si2 3.014083 1_565
Mg7 Si1 2.787062 1_554
Mg7 Si3 2.821343 1_655
Mg7 Si3 2.878986 1_555
Mg7 Si2 2.955868 1_564
Si0 Si2 2.551345 1_555
Si1 Si2 2.527808 1_555
