# generated using pymatgen
data_CuPb2(ClO2)2
_symmetry_space_group_name_H-M   'P 1'
_cell_length_a   5.59839900
_cell_length_b   5.59839900
_cell_length_c   5.77219200
_cell_angle_alpha   90.00000000
_cell_angle_beta   90.00000000
_cell_angle_gamma   90.00000000
_symmetry_Int_Tables_number   1
_chemical_formula_structural   CuPb2(ClO2)2
_chemical_formula_sum   'Cu1 Pb2 Cl2 O4'
_cell_volume   180.91245359
_cell_formula_units_Z   1
loop_
 _symmetry_equiv_pos_site_id
 _symmetry_equiv_pos_as_xyz
  1  'x, y, z'
loop_
 _atom_site_type_symbol
 _atom_site_label
 _atom_site_symmetry_multiplicity
 _atom_site_fract_x
 _atom_site_fract_y
 _atom_site_fract_z
 _atom_site_occupancy
  Cu  Cu0  1  0.00000000  0.00000000  0.29634500  1
  Pb  Pb0  1  0.00000000  0.50000000  0.06819200  1
  Pb  Pb1  1  0.50000000  0.00000000  0.06819200  1
  Cl  Cl0  1  0.00000000  0.00000000  0.75960800  1
  Cl  Cl1  1  0.50000000  0.50000000  0.82021900  1
  O  O0  1  0.23041500  0.76958500  0.25761100  1
  O  O1  1  0.76958500  0.23041500  0.25761100  1
  O  O2  1  0.76958500  0.76958500  0.25761100  1
  O  O3  1  0.23041500  0.23041500  0.25761100  1
loop_
_geom_bond_atom_site_label_1
_geom_bond_atom_site_label_2
_geom_bond_distance
_geom_bond_site_symmetry_2
Cu0 O3 1.837922 1_555
Cu0 O1 1.837922 1_455
Cu0 O0 1.837922 1_545
Cu0 O2 1.837922 1_445
Cl0 Cu0 2.674043 1_555
Cl1 Pb0 3.143927 1_556
Cl1 Pb1 3.143927 1_556
Cl1 Pb1 3.143927 1_566
Cl1 Pb0 3.143927 1_656
O0 Pb1 2.266549 1_565
O0 Pb0 2.266549 1_555
O1 Pb0 2.266549 1_655
O1 Pb1 2.266549 1_555
O2 Pb1 2.266549 1_565
O2 Pb0 2.266549 1_655
O3 Pb0 2.266549 1_555
O3 Pb1 2.266549 1_555
