# generated using pymatgen
data_YbAlB4
_symmetry_space_group_name_H-M   'P 1'
_cell_length_a   3.13733000
_cell_length_b   3.59932200
_cell_length_c   5.38614200
_cell_angle_alpha   90.00000000
_cell_angle_beta   90.00000000
_cell_angle_gamma   90.00000000
_symmetry_Int_Tables_number   1
_chemical_formula_structural   YbAlB4
_chemical_formula_sum   'Yb1 Al1 B4'
_cell_volume   60.82172066
_cell_formula_units_Z   1
loop_
 _symmetry_equiv_pos_site_id
 _symmetry_equiv_pos_as_xyz
  1  'x, y, z'
loop_
 _atom_site_type_symbol
 _atom_site_label
 _atom_site_symmetry_multiplicity
 _atom_site_fract_x
 _atom_site_fract_y
 _atom_site_fract_z
 _atom_site_occupancy
  Yb  Yb0  1  0.00000000  0.00000000  0.00000000  1
  Al  Al0  1  0.50000000  0.00000000  0.50000000  1
  B  B0  1  0.50000000  0.50000000  0.18256700  1
  B  B1  1  0.50000000  0.50000000  0.81743300  1
  B  B2  1  0.00000000  0.50000000  0.34137400  1
  B  B3  1  0.00000000  0.50000000  0.65862600  1
loop_
_geom_bond_atom_site_label_1
_geom_bond_atom_site_label_2
_geom_bond_distance
_geom_bond_site_symmetry_2
Al0 B1 2.482335 1_555
Al0 B0 2.482335 1_545
Al0 B1 2.482335 1_545
Al0 B0 2.482335 1_555
Al0 B3 2.535638 1_545
Al0 B3 2.535638 1_645
Al0 B2 2.535638 1_655
Al0 B3 2.535638 1_655
Al0 B3 2.535638 1_555
Al0 B2 2.535638 1_645
Al0 B2 2.535638 1_545
Al0 B2 2.535638 1_555
B0 B2 1.786714 1_655
B0 B2 1.786714 1_555
B0 B1 1.966664 1_554
B0 Yb0 2.581943 1_655
B0 Yb0 2.581943 1_565
B0 Yb0 2.581943 1_665
B0 Yb0 2.581943 1_555
B1 B3 1.786714 1_655
B1 B3 1.786714 1_555
B1 Yb0 2.581943 1_566
B1 Yb0 2.581943 1_666
B1 Yb0 2.581943 1_656
B1 Yb0 2.581943 1_556
B2 B3 1.708764 1_555
B2 Yb0 2.572850 1_555
B2 Yb0 2.572850 1_565
B3 Yb0 2.572850 1_556
B3 Yb0 2.572850 1_566
