# generated using pymatgen
data_Li3Fe2OF5
_symmetry_space_group_name_H-M   'P 1'
_cell_length_a   5.26142800
_cell_length_b   5.26607433
_cell_length_c   9.49145926
_cell_angle_alpha   100.76203643
_cell_angle_beta   100.64312308
_cell_angle_gamma   108.83266607
_symmetry_Int_Tables_number   1
_chemical_formula_structural   Li3Fe2OF5
_chemical_formula_sum   'Li6 Fe4 O2 F10'
_cell_volume   235.88521132
_cell_formula_units_Z   2
loop_
 _symmetry_equiv_pos_site_id
 _symmetry_equiv_pos_as_xyz
  1  'x, y, z'
loop_
 _atom_site_type_symbol
 _atom_site_label
 _atom_site_symmetry_multiplicity
 _atom_site_fract_x
 _atom_site_fract_y
 _atom_site_fract_z
 _atom_site_occupancy
  Li  Li0  1  0.79449000  0.53960000  0.08332000  1
  Li  Li1  1  0.87564000  0.12199200  0.24185000  1
  Li  Li2  1  0.54023200  0.78759400  0.58296300  1
  Li  Li3  1  0.46607100  0.21687200  0.43687800  1
  Li  Li4  1  0.11386100  0.86305900  0.72942500  1
  Li  Li5  1  0.21720300  0.46268600  0.92589900  1
  Fe  Fe0  1  0.29239200  0.04339100  0.08247800  1
  Fe  Fe1  1  0.03950000  0.29047700  0.58359500  1
  Fe  Fe2  1  0.36939700  0.62262800  0.23974200  1
  Fe  Fe3  1  0.70951900  0.96380900  0.92698700  1
  O  O0  1  0.04508000  0.29647400  0.08529800  1
  O  O1  1  0.54663000  0.79474700  0.08292200  1
  F  F0  1  0.12543900  0.88922100  0.25391500  1
  F  F1  1  0.80097900  0.52801700  0.58316000  1
  F  F2  1  0.62120300  0.35796100  0.24995900  1
  F  F3  1  0.67815100  0.96815500  0.42097500  1
  F  F4  1  0.36004100  0.65056600  0.74388900  1
  F  F5  1  0.24138000  0.45191000  0.42189000  1
  F  F6  1  0.27719400  0.05235900  0.58348000  1
  F  F7  1  0.44796200  0.21257900  0.91221200  1
  F  F8  1  0.87668300  0.08744500  0.74659100  1
  F  F9  1  0.97761800  0.71512500  0.91590200  1
loop_
_geom_bond_atom_site_label_1
_geom_bond_atom_site_label_2
_geom_bond_distance
_geom_bond_site_symmetry_2
Li0 O0 2.113662 1_655
Li0 O1 2.153447 1_555
Li1 O0 2.077811 1_655
Li1 O1 2.092957 1_545
Li5 O0 2.089045 1_556
Li5 O1 2.097368 1_556
Fe0 O0 2.142258 1_555
Fe0 O1 2.152805 1_545
Fe2 O0 2.062561 1_555
Fe2 O1 2.092235 1_555
Fe3 O1 2.045900 1_556
Fe3 O0 2.117552 1_666
F0 Li1 2.068816 1_465
F0 Fe0 2.153926 1_565
F0 Fe2 2.189341 1_555
F0 Li0 2.195222 1_455
F0 Li3 2.222557 1_565
F1 Li3 2.024871 1_555
F1 Li4 2.028825 1_655
F1 Fe1 2.037945 1_655
F1 Li2 2.227422 1_555
F2 Fe0 2.101084 1_555
F2 Li1 2.102023 1_555
F2 Li0 2.186880 1_555
F2 Fe2 2.214130 1_555
F2 Li3 2.236390 1_555
F3 Li3 1.978712 1_565
F3 Li2 2.075385 1_555
F3 Fe1 2.175375 1_665
F3 Fe2 2.190733 1_555
F3 Li1 2.291281 1_565
F4 Li4 1.968793 1_555
F4 Li2 2.063345 1_555
F4 Fe1 2.159835 1_555
F4 Fe3 2.216540 1_555
F4 Li5 2.272869 1_555
F5 Li3 1.974363 1_555
F5 Li2 2.059809 1_555
F5 Fe1 2.170962 1_555
F5 Fe2 2.206915 1_555
F5 Li1 2.271504 1_455
F6 Li4 2.013323 1_545
F6 Li3 2.019761 1_555
F6 Fe1 2.036872 1_555
F6 Li2 2.259443 1_545
F7 Li5 2.062142 1_555
F7 Fe0 2.151974 1_556
F7 Li0 2.182220 1_556
F7 Fe3 2.188824 1_545
F7 Li4 2.253845 1_545
F8 Li4 1.983743 1_645
F8 Li2 2.074371 1_545
F8 Fe3 2.175329 1_545
F8 Fe1 2.187780 1_655
F8 Li5 2.311532 1_655
F9 Fe0 2.096332 1_666
F9 Li5 2.109507 1_655
F9 Li0 2.201567 1_556
F9 Li4 2.208277 1_655
F9 Fe3 2.216264 1_555
