# generated using pymatgen
data_Mg7Si4
_symmetry_space_group_name_H-M   'P 1'
_cell_length_a   4.39076000
_cell_length_b   6.51292916
_cell_length_c   15.55875609
_cell_angle_alpha   96.85662069
_cell_angle_beta   97.87454420
_cell_angle_gamma   90.52763053
_symmetry_Int_Tables_number   1
_chemical_formula_structural   Mg7Si4
_chemical_formula_sum   'Mg14 Si8'
_cell_volume   437.43374236
_cell_formula_units_Z   2
loop_
 _symmetry_equiv_pos_site_id
 _symmetry_equiv_pos_as_xyz
  1  'x, y, z'
loop_
 _atom_site_type_symbol
 _atom_site_label
 _atom_site_symmetry_multiplicity
 _atom_site_fract_x
 _atom_site_fract_y
 _atom_site_fract_z
 _atom_site_occupancy
  Mg  Mg0  1  0.51930500  0.17844800  0.10725200  1
  Mg  Mg1  1  0.14509300  0.72456900  0.34697400  1
  Mg  Mg2  1  0.70978800  0.95802000  0.48782800  1
  Mg  Mg3  1  0.62003200  0.07020900  0.30085600  1
  Mg  Mg4  1  0.52952300  0.70192200  0.13741700  1
  Mg  Mg5  1  0.80591000  0.05079100  0.70458700  1
  Mg  Mg6  1  0.79911500  0.53291300  0.66894300  1
  Mg  Mg7  1  0.69686100  0.44400200  0.45762500  1
  Mg  Mg8  1  0.97836800  0.41022500  0.02200900  1
  Mg  Mg9  1  0.97253100  0.90457200  0.01262900  1
  Mg  Mg10  1  0.42809900  0.62540100  0.92642500  1
  Mg  Mg11  1  0.42284600  0.10480900  0.89114600  1
  Mg  Mg12  1  0.25507800  0.24413600  0.58470500  1
  Mg  Mg13  1  0.25087700  0.73849600  0.56921200  1
  Si  Si0  1  0.88512200  0.79155700  0.83784300  1
  Si  Si1  1  0.06292800  0.99273700  0.18853100  1
  Si  Si2  1  0.61442500  0.49529300  0.28331900  1
  Si  Si3  1  0.33873800  0.36378700  0.75764800  1
  Si  Si4  1  0.88672500  0.40081000  0.84226000  1
  Si  Si5  1  0.06499500  0.38023100  0.20255200  1
  Si  Si6  1  0.17323200  0.13061600  0.41450800  1
  Si  Si7  1  0.34036100  0.75643900  0.75209900  1
loop_
_geom_bond_atom_site_label_1
_geom_bond_atom_site_label_2
_geom_bond_distance
_geom_bond_site_symmetry_2
Mg0 Si1 2.844727 1_545
Mg0 Si5 2.858273 1_655
Mg0 Si5 2.880661 1_555
Mg0 Si1 2.889780 1_645
Mg1 Si6 2.721751 1_565
Mg1 Si2 2.755040 1_455
Mg1 Si2 2.778501 1_555
Mg1 Si5 2.961080 1_555
Mg1 Si1 3.170753 1_555
Mg2 Si6 2.757859 1_665
Mg2 Si6 2.780959 1_565
Mg3 Si6 2.796586 1_655
Mg3 Si1 2.798079 1_645
Mg3 Si1 2.808494 1_545
Mg3 Si2 2.814190 1_555
Mg3 Si6 2.815827 1_555
Mg4 Si2 2.758618 1_555
Mg4 Si1 2.928370 1_555
Mg4 Si1 2.958616 1_655
Mg5 Si0 2.814103 1_545
Mg5 Si4 2.919224 1_555
Mg5 Si7 3.013363 1_545
Mg5 Si3 3.030495 1_555
Mg5 Si3 3.048209 1_655
Mg5 Si7 3.110364 1_645
Mg6 Si7 2.843418 1_655
Mg6 Si7 2.858145 1_555
Mg6 Si3 2.871755 1_655
Mg6 Si3 2.879339 1_555
Mg6 Si4 2.904426 1_555
Mg6 Si0 2.923245 1_555
Mg7 Si2 2.747186 1_555
Mg7 Si6 3.010976 1_555
Mg7 Si6 3.021102 1_655
Mg8 Si4 2.763564 1_554
Mg8 Si5 2.813020 1_655
Mg9 Si1 2.701915 1_655
Mg9 Si0 2.704695 1_554
Mg10 Si4 2.851393 1_455
Mg10 Si0 2.858544 1_555
Mg10 Si4 2.868610 1_555
Mg10 Si0 2.873625 1_455
Mg10 Si7 2.916465 1_555
Mg10 Si3 2.930842 1_555
Mg11 Si3 2.816619 1_555
Mg11 Si7 2.925332 1_545
Mg11 Si0 3.017205 1_545
Mg11 Si4 3.024207 1_555
Mg11 Si0 3.065178 1_445
Mg11 Si4 3.127199 1_455
Mg12 Si6 2.637205 1_555
Mg12 Si3 2.684347 1_555
Mg13 Si7 2.806827 1_555
Si0 Si7 2.548269 1_655
Si0 Si4 2.554072 1_555
Si0 Si7 2.568272 1_555
Si1 Si5 2.506875 1_565
Si2 Si5 2.556994 1_655
Si2 Si5 2.621383 1_555
Si3 Si4 2.525687 1_455
Si3 Si7 2.569030 1_555
Si3 Si4 2.574105 1_555
