# generated using pymatgen
data_Mg(CuO2)2
_symmetry_space_group_name_H-M   'P 1'
_cell_length_a   5.86500225
_cell_length_b   5.86500225
_cell_length_c   5.86500225
_cell_angle_alpha   118.43467495
_cell_angle_beta   118.31981507
_cell_angle_gamma   92.83448037
_symmetry_Int_Tables_number   1
_chemical_formula_structural   Mg(CuO2)2
_chemical_formula_sum   'Mg2 Cu4 O8'
_cell_volume   145.96150379
_cell_formula_units_Z   2
loop_
 _symmetry_equiv_pos_site_id
 _symmetry_equiv_pos_as_xyz
  1  'x, y, z'
loop_
 _atom_site_type_symbol
 _atom_site_label
 _atom_site_symmetry_multiplicity
 _atom_site_fract_x
 _atom_site_fract_y
 _atom_site_fract_z
 _atom_site_occupancy
  Mg  Mg0  1  0.00000000  0.50000000  0.50000000  1
  Mg  Mg1  1  0.50000000  0.50000000  0.00000000  1
  Cu  Cu0  1  0.13555000  0.88555000  0.25000000  1
  Cu  Cu1  1  0.86445000  0.11445000  0.75000000  1
  Cu  Cu2  1  0.50000000  0.00000000  0.00000000  1
  Cu  Cu3  1  0.50000000  0.50000000  0.50000000  1
  O  O0  1  0.73772100  0.25795300  0.02023100  1
  O  O1  1  0.71849700  0.24278500  0.47571300  1
  O  O2  1  0.73772100  0.71749000  0.47976900  1
  O  O3  1  0.26707200  0.24278500  0.02428700  1
  O  O4  1  0.73292800  0.75721500  0.97571300  1
  O  O5  1  0.28150300  0.75721500  0.52428700  1
  O  O6  1  0.26227900  0.28251000  0.52023100  1
  O  O7  1  0.26227900  0.74204700  0.97976900  1
loop_
_geom_bond_atom_site_label_1
_geom_bond_atom_site_label_2
_geom_bond_distance
_geom_bond_site_symmetry_2
Mg0 O0 2.042663 1_455
Mg0 O7 2.042663 1_555
Mg0 O2 2.042663 1_455
Mg0 O6 2.042663 1_555
Mg0 O1 2.085142 1_455
Mg0 O5 2.085142 1_555
Mg1 O7 2.042658 1_554
Mg1 O0 2.042658 1_555
Mg1 O2 2.042663 1_555
Mg1 O6 2.042663 1_554
Mg1 O3 2.085137 1_555
Mg1 O4 2.085137 1_554
Cu0 O6 1.918844 1_565
Cu0 O7 1.918844 1_554
Cu0 O4 1.948710 1_454
Cu0 O5 1.948711 1_555
Cu1 O2 1.918844 1_545
Cu1 O0 1.918844 1_556
Cu1 O3 1.948710 1_656
Cu1 O1 1.948711 1_555
Cu2 O0 1.926212 1_555
Cu2 O7 1.926212 1_544
Cu2 O3 2.024360 1_555
Cu2 O4 2.024360 1_544
Cu2 O1 2.024361 1_555
Cu2 O5 2.024361 1_544
Cu3 O2 1.926207 1_555
Cu3 O6 1.926207 1_555
Cu3 O5 2.024356 1_555
Cu3 O1 2.024356 1_555
Cu3 O3 2.024360 1_555
Cu3 O4 2.024360 1_555
