# generated using pymatgen
data_Cr3Os
_symmetry_space_group_name_H-M   'P 1'
_cell_length_a   5.12114863
_cell_length_b   5.12114863
_cell_length_c   16.21861282
_cell_angle_alpha   90.00000000
_cell_angle_beta   90.00000000
_cell_angle_gamma   112.03637536
_symmetry_Int_Tables_number   1
_chemical_formula_structural   Cr3Os
_chemical_formula_sum   'Cr24 Os8'
_cell_volume   394.27825715
_cell_formula_units_Z   8
loop_
 _symmetry_equiv_pos_site_id
 _symmetry_equiv_pos_as_xyz
  1  'x, y, z'
loop_
 _atom_site_type_symbol
 _atom_site_label
 _atom_site_symmetry_multiplicity
 _atom_site_fract_x
 _atom_site_fract_y
 _atom_site_fract_z
 _atom_site_occupancy
  Cr  Cr0_0  1  0.25000000  0.25000000  0.36838459  1
  Cr  Cr0_1  1  0.25000000  0.25000000  0.86838459  1
  Cr  Cr0_2  1  0.25000000  0.75000000  0.36838459  1
  Cr  Cr0_3  1  0.25000000  0.75000000  0.86838459  1
  Cr  Cr0_4  1  0.75000000  0.25000000  0.36838459  1
  Cr  Cr0_5  1  0.75000000  0.25000000  0.86838459  1
  Cr  Cr0_6  1  0.75000000  0.75000000  0.36838459  1
  Cr  Cr0_7  1  0.75000000  0.75000000  0.86838459  1
  Cr  Cr1_0  1  0.00000000  0.00000000  0.25000000  1
  Cr  Cr1_1  1  0.00000000  0.00000000  0.75000000  1
  Cr  Cr1_2  1  0.00000000  0.50000000  0.25000000  1
  Cr  Cr1_3  1  0.00000000  0.50000000  0.75000000  1
  Cr  Cr1_4  1  0.50000000  0.00000000  0.25000000  1
  Cr  Cr1_5  1  0.50000000  0.00000000  0.75000000  1
  Cr  Cr1_6  1  0.50000000  0.50000000  0.25000000  1
  Cr  Cr1_7  1  0.50000000  0.50000000  0.75000000  1
  Cr  Cr2_0  1  0.25000000  0.25000000  0.13161541  1
  Cr  Cr2_1  1  0.25000000  0.25000000  0.63161541  1
  Cr  Cr2_2  1  0.25000000  0.75000000  0.13161541  1
  Cr  Cr2_3  1  0.25000000  0.75000000  0.63161541  1
  Cr  Cr2_4  1  0.75000000  0.25000000  0.13161541  1
  Cr  Cr2_5  1  0.75000000  0.25000000  0.63161541  1
  Cr  Cr2_6  1  0.75000000  0.75000000  0.13161541  1
  Cr  Cr2_7  1  0.75000000  0.75000000  0.63161541  1
  Os  Os0_0  1  0.00000000  0.00000000  0.00000000  1
  Os  Os0_1  1  0.00000000  0.00000000  0.50000000  1
  Os  Os0_2  1  0.00000000  0.50000000  0.00000000  1
  Os  Os0_3  1  0.00000000  0.50000000  0.50000000  1
  Os  Os0_4  1  0.50000000  0.00000000  0.00000000  1
  Os  Os0_5  1  0.50000000  0.00000000  0.50000000  1
  Os  Os0_6  1  0.50000000  0.50000000  0.00000000  1
  Os  Os0_7  1  0.50000000  0.50000000  0.50000000  1
loop_
_geom_bond_atom_site_label_1
_geom_bond_atom_site_label_2
_geom_bond_distance
_geom_bond_site_symmetry_2
Cr0_0 Cr1_6 2.394746 1_555
Cr0_0 Cr1_0 2.394746 1_555
Cr0_0 Cr0_2 2.560574 1_555
Cr0_0 Cr0_4 2.560574 1_455
Cr0_0 Cr0_4 2.560574 1_555
Cr0_0 Cr0_2 2.560574 1_545
Cr0_0 Os0_7 2.569996 1_555
Cr0_0 Os0_1 2.569996 1_555
Cr0_1 Cr1_1 2.394746 1_555
Cr0_1 Cr1_7 2.394746 1_555
Cr0_1 Cr0_3 2.560574 1_555
Cr0_1 Cr0_5 2.560574 1_555
Cr0_1 Cr0_5 2.560574 1_455
Cr0_1 Cr0_3 2.560574 1_545
Cr0_1 Os0_0 2.569996 1_556
Cr0_1 Os0_6 2.569996 1_556
Cr0_2 Cr1_2 2.394746 1_555
Cr0_2 Cr1_4 2.394746 1_565
Cr0_2 Cr0_6 2.560574 1_455
Cr0_2 Cr0_6 2.560574 1_555
Cr0_2 Os0_3 2.569996 1_555
Cr0_2 Os0_5 2.569996 1_565
Cr0_3 Cr1_3 2.394746 1_555
Cr0_3 Cr1_5 2.394746 1_565
Cr0_3 Cr0_7 2.560574 1_455
Cr0_3 Cr0_7 2.560574 1_555
Cr0_3 Os0_2 2.569996 1_556
Cr0_3 Os0_4 2.569996 1_566
Cr0_4 Cr1_4 2.394746 1_555
Cr0_4 Cr1_2 2.394746 1_655
Cr0_4 Cr0_6 2.560574 1_555
Cr0_4 Cr0_6 2.560574 1_545
Cr0_4 Os0_3 2.569996 1_655
Cr0_4 Os0_5 2.569996 1_555
Cr0_5 Cr1_3 2.394746 1_655
Cr0_5 Cr1_5 2.394746 1_555
Cr0_5 Cr0_7 2.560574 1_555
Cr0_5 Cr0_7 2.560574 1_545
Cr0_5 Os0_2 2.569996 1_656
Cr0_5 Os0_4 2.569996 1_556
Cr0_6 Cr1_6 2.394746 1_555
Cr0_6 Cr1_0 2.394746 1_665
Cr0_6 Os0_1 2.569996 1_665
Cr0_6 Os0_7 2.569996 1_555
Cr0_7 Cr1_1 2.394746 1_665
Cr0_7 Cr1_7 2.394746 1_555
Cr0_7 Os0_6 2.569996 1_556
Cr0_7 Os0_0 2.569996 1_666
Cr1_0 Cr2_6 2.394746 1_445
Cr1_0 Cr2_0 2.394746 1_555
Cr1_0 Cr1_4 2.560574 1_555
Cr1_0 Cr1_2 2.560574 1_555
Cr1_0 Cr1_2 2.560574 1_545
Cr1_0 Cr1_4 2.560574 1_455
Cr1_1 Cr2_1 2.394746 1_555
Cr1_1 Cr2_7 2.394746 1_445
Cr1_1 Cr1_5 2.560574 1_555
Cr1_1 Cr1_3 2.560574 1_555
Cr1_1 Cr1_5 2.560574 1_455
Cr1_1 Cr1_3 2.560574 1_545
Cr1_2 Cr2_2 2.394746 1_555
Cr1_2 Cr2_4 2.394746 1_455
Cr1_2 Cr1_6 2.560574 1_555
Cr1_2 Cr1_6 2.560574 1_455
Cr1_3 Cr2_3 2.394746 1_555
Cr1_3 Cr2_5 2.394746 1_455
Cr1_3 Cr1_7 2.560574 1_555
Cr1_3 Cr1_7 2.560574 1_455
Cr1_4 Cr2_4 2.394746 1_555
Cr1_4 Cr2_2 2.394746 1_545
Cr1_4 Cr1_6 2.560574 1_555
Cr1_4 Cr1_6 2.560574 1_545
Cr1_5 Cr2_5 2.394746 1_555
Cr1_5 Cr2_3 2.394746 1_545
Cr1_5 Cr1_7 2.560574 1_555
Cr1_5 Cr1_7 2.560574 1_545
Cr1_6 Cr2_0 2.394746 1_555
Cr1_6 Cr2_6 2.394746 1_555
Cr1_7 Cr2_1 2.394746 1_555
Cr1_7 Cr2_7 2.394746 1_555
Cr2_0 Cr2_2 2.560574 1_555
Cr2_0 Cr2_4 2.560574 1_455
Cr2_0 Cr2_4 2.560574 1_555
Cr2_0 Cr2_2 2.560574 1_545
Cr2_0 Os0_0 2.569996 1_555
Cr2_0 Os0_6 2.569996 1_555
Cr2_1 Cr2_3 2.560574 1_555
Cr2_1 Cr2_5 2.560574 1_555
Cr2_1 Cr2_5 2.560574 1_455
Cr2_1 Cr2_3 2.560574 1_545
Cr2_1 Os0_7 2.569996 1_555
Cr2_1 Os0_1 2.569996 1_555
Cr2_2 Cr2_6 2.560574 1_455
Cr2_2 Cr2_6 2.560574 1_555
Cr2_2 Os0_2 2.569996 1_555
Cr2_2 Os0_4 2.569996 1_565
Cr2_3 Cr2_7 2.560574 1_455
Cr2_3 Cr2_7 2.560574 1_555
Cr2_3 Os0_3 2.569996 1_555
Cr2_3 Os0_5 2.569996 1_565
Cr2_4 Cr2_6 2.560574 1_555
Cr2_4 Cr2_6 2.560574 1_545
Cr2_4 Os0_4 2.569996 1_555
Cr2_4 Os0_2 2.569996 1_655
Cr2_5 Cr2_7 2.560574 1_555
Cr2_5 Cr2_7 2.560574 1_545
Cr2_5 Os0_3 2.569996 1_655
Cr2_5 Os0_5 2.569996 1_555
Cr2_6 Os0_0 2.569996 1_665
Cr2_6 Os0_6 2.569996 1_555
Cr2_7 Os0_7 2.569996 1_555
Cr2_7 Os0_1 2.569996 1_665
Os0_0 Os0_4 2.560574 1_555
Os0_0 Os0_2 2.560574 1_545
Os0_0 Os0_4 2.560574 1_455
Os0_0 Os0_2 2.560574 1_555
Os0_1 Os0_5 2.560574 1_555
Os0_1 Os0_3 2.560574 1_545
Os0_1 Os0_5 2.560574 1_455
Os0_1 Os0_3 2.560574 1_555
Os0_2 Os0_6 2.560574 1_555
Os0_2 Os0_6 2.560574 1_455
Os0_3 Os0_7 2.560574 1_555
Os0_3 Os0_7 2.560574 1_455
Os0_4 Os0_6 2.560574 1_555
Os0_4 Os0_6 2.560574 1_545
Os0_5 Os0_7 2.560574 1_555
Os0_5 Os0_7 2.560574 1_545
