# generated using pymatgen
data_ZnCu2SnSe4
_symmetry_space_group_name_H-M   'P 1'
_cell_length_a   7.05391907
_cell_length_b   7.05391907
_cell_length_c   7.05391907
_cell_angle_alpha   131.82594608
_cell_angle_beta   131.82594608
_cell_angle_gamma   70.50406542
_symmetry_Int_Tables_number   1
_chemical_formula_structural   ZnCu2SnSe4
_chemical_formula_sum   'Zn1 Cu2 Sn1 Se4'
_cell_volume   190.96587245
_cell_formula_units_Z   1
loop_
 _symmetry_equiv_pos_site_id
 _symmetry_equiv_pos_as_xyz
  1  'x, y, z'
loop_
 _atom_site_type_symbol
 _atom_site_label
 _atom_site_symmetry_multiplicity
 _atom_site_fract_x
 _atom_site_fract_y
 _atom_site_fract_z
 _atom_site_occupancy
  Zn  Zn0  1  0.00000000  0.00000000  0.00000000  1
  Cu  Cu0  1  0.75000000  0.25000000  0.50000000  1
  Cu  Cu1  1  0.25000000  0.75000000  0.50000000  1
  Sn  Sn0  1  0.50000000  0.50000000  0.00000000  1
  Se  Se0  1  0.62385600  0.62385600  0.51811100  1
  Se  Se1  1  0.89425600  0.37614400  0.00000000  1
  Se  Se2  1  0.37614400  0.89425600  0.00000000  1
  Se  Se3  1  0.10574400  0.10574400  0.48188900  1
loop_
_geom_bond_atom_site_label_1
_geom_bond_atom_site_label_2
_geom_bond_distance
_geom_bond_site_symmetry_2
Cu0 Se3 2.428703 1_655
Cu0 Se1 2.428707 1_556
Cu0 Se2 2.428707 1_545
Cu0 Se0 2.428710 1_555
Cu1 Se3 2.428703 1_565
Cu1 Se2 2.428707 1_556
Cu1 Se1 2.428707 1_455
Cu1 Se0 2.428710 1_555
Se0 Zn0 2.505056 1_666
Se0 Sn0 2.622158 1_555
Se1 Zn0 2.505056 1_655
Se1 Sn0 2.622165 1_555
Se2 Zn0 2.505056 1_565
Se2 Sn0 2.622165 1_555
Se3 Zn0 2.505063 1_555
Se3 Sn0 2.622165 1_556
