# generated using pymatgen
data_Nd2Ge3Ir
_symmetry_space_group_name_H-M   'P 1'
_cell_length_a   4.17703200
_cell_length_b   4.35795235
_cell_length_c   7.36067343
_cell_angle_alpha   89.98976423
_cell_angle_beta   90.00000000
_cell_angle_gamma   90.00000000
_symmetry_Int_Tables_number   1
_chemical_formula_structural   Nd2Ge3Ir
_chemical_formula_sum   'Nd2 Ge3 Ir1'
_cell_volume   133.98859182
_cell_formula_units_Z   1
loop_
 _symmetry_equiv_pos_site_id
 _symmetry_equiv_pos_as_xyz
  1  'x, y, z'
loop_
 _atom_site_type_symbol
 _atom_site_label
 _atom_site_symmetry_multiplicity
 _atom_site_fract_x
 _atom_site_fract_y
 _atom_site_fract_z
 _atom_site_occupancy
  Nd  Nd0  1  0.00000000  0.00001000  0.01167700  1
  Nd  Nd1  1  0.00000000  0.50017900  0.49507800  1
  Ge  Ge0  1  0.50000000  0.49990200  0.83441700  1
  Ge  Ge1  1  0.50000000  0.49990000  0.17577000  1
  Ge  Ge2  1  0.50000000  0.00003200  0.65755200  1
  Ir  Ir0  1  0.50000000  0.99977800  0.32550500  1
loop_
_geom_bond_atom_site_label_1
_geom_bond_atom_site_label_2
_geom_bond_distance
_geom_bond_site_symmetry_2
Ge0 Ge1 2.512588 1_556
Ge0 Ge2 2.537968 1_555
Ge0 Ge2 2.538542 1_565
Ge0 Nd1 3.255875 1_555
Ge0 Nd1 3.255875 1_655
Ge0 Nd0 3.287727 1_656
Ge0 Nd0 3.287727 1_556
Ge0 Nd0 3.288660 1_566
Ge0 Nd0 3.288660 1_666
Ge1 Ir0 2.441560 1_555
Ge1 Ir0 2.442157 1_545
Ge1 Nd1 3.144187 1_555
Ge1 Nd1 3.144187 1_655
Ge1 Nd0 3.250777 1_655
Ge1 Nd0 3.250777 1_555
Ge1 Nd0 3.251131 1_565
Ge1 Nd0 3.251131 1_665
Ge2 Ir0 2.444090 1_545
Ge2 Nd1 3.246259 1_645
Ge2 Nd1 3.246259 1_545
Ge2 Nd1 3.246832 1_555
Ge2 Nd1 3.246832 1_655
Ge2 Nd0 3.340098 1_656
Ge2 Nd0 3.340098 1_556
Ir0 Nd0 3.114150 1_565
Ir0 Nd0 3.114150 1_665
Ir0 Nd1 3.264841 1_655
Ir0 Nd1 3.264841 1_555
Ir0 Nd1 3.267470 1_665
Ir0 Nd1 3.267470 1_565
