# generated using pymatgen
data_Ti(MnN)4
_symmetry_space_group_name_H-M   'P 1'
_cell_length_a   5.34025071
_cell_length_b   5.03310521
_cell_length_c   7.90060758
_cell_angle_alpha   68.84732243
_cell_angle_beta   85.81683426
_cell_angle_gamma   65.87836059
_symmetry_Int_Tables_number   1
_chemical_formula_structural   Ti(MnN)4
_chemical_formula_sum   'Ti2 Mn8 N8'
_cell_volume   180.05751581
_cell_formula_units_Z   2
loop_
 _symmetry_equiv_pos_site_id
 _symmetry_equiv_pos_as_xyz
  1  'x, y, z'
loop_
 _atom_site_type_symbol
 _atom_site_label
 _atom_site_symmetry_multiplicity
 _atom_site_fract_x
 _atom_site_fract_y
 _atom_site_fract_z
 _atom_site_occupancy
  Ti  Ti0  1  0.78070900  0.78190400  0.80324800  1
  Ti  Ti1  1  0.21929100  0.21809600  0.19675200  1
  Mn  Mn0  1  0.68831000  0.65225800  0.20565000  1
  Mn  Mn1  1  0.31169000  0.34774200  0.79435000  1
  Mn  Mn2  1  0.74150800  0.20556100  0.03292700  1
  Mn  Mn3  1  0.25849200  0.79443900  0.96707300  1
  Mn  Mn4  1  0.75579500  0.45666700  0.58175100  1
  Mn  Mn5  1  0.24420500  0.54333300  0.41824900  1
  Mn  Mn6  1  0.25836000  0.94419400  0.59331700  1
  Mn  Mn7  1  0.74164000  0.05580600  0.40668300  1
  N  N0  1  0.00527800  0.67300200  0.60051200  1
  N  N1  1  0.99472200  0.32699800  0.39948800  1
  N  N2  1  0.90813300  0.78367900  0.03214200  1
  N  N3  1  0.09186700  0.21632100  0.96785800  1
  N  N4  1  0.52654400  0.57397700  0.81016600  1
  N  N5  1  0.47345600  0.42602300  0.18983400  1
  N  N6  1  0.45805700  0.81322100  0.38676800  1
  N  N7  1  0.54194300  0.18677900  0.61323200  1
loop_
_geom_bond_atom_site_label_1
_geom_bond_atom_site_label_2
_geom_bond_distance
_geom_bond_site_symmetry_2
Mn0 N2 1.854785 1_555
Mn0 N5 1.954505 1_555
Mn0 N6 1.995399 1_555
Mn0 N1 2.017314 1_555
Mn1 N3 1.854785 1_555
Mn1 N4 1.954505 1_555
Mn1 N7 1.995399 1_555
Mn1 N0 2.017314 1_555
Mn2 N3 1.921009 1_654
Mn2 N2 1.940341 1_545
Mn2 N4 2.013264 1_554
Mn2 N5 2.062203 1_555
Mn3 N2 1.921009 1_456
Mn3 N3 1.940341 1_565
Mn3 N5 2.013264 1_556
Mn3 N4 2.062203 1_555
Mn4 N1 1.963946 1_555
Mn4 N6 2.037557 1_555
Mn4 N7 2.047911 1_555
Mn4 N0 2.076908 1_655
Mn4 N4 2.227086 1_555
Mn5 N0 1.963946 1_555
Mn5 N7 2.037557 1_555
Mn5 N6 2.047911 1_555
Mn5 N1 2.076908 1_455
Mn5 N5 2.227086 1_555
Mn6 N1 2.001855 1_465
Mn6 N6 2.045160 1_555
Mn6 N4 2.081143 1_555
Mn6 N0 2.265721 1_555
Mn6 N7 2.343846 1_565
Mn7 N0 2.001855 1_645
Mn7 N7 2.045160 1_555
Mn7 N5 2.081143 1_555
Mn7 N1 2.265721 1_555
Mn7 N6 2.343846 1_545
N0 Ti0 2.029855 1_455
N1 Ti1 2.029855 1_655
N2 Ti0 1.982322 1_554
N2 Ti1 2.516557 1_655
N3 Ti1 1.982322 1_556
N3 Ti0 2.516557 1_455
N4 Ti0 2.012303 1_555
N5 Ti1 2.012303 1_555
N6 Ti1 1.994932 1_565
N7 Ti0 1.994932 1_545
