# generated using pymatgen
data_NaAg(SO2)2
_symmetry_space_group_name_H-M   'P 1'
_cell_length_a   8.53232400
_cell_length_b   7.88962200
_cell_length_c   8.36833454
_cell_angle_alpha   85.83132334
_cell_angle_beta   90.00000000
_cell_angle_gamma   90.00000000
_symmetry_Int_Tables_number   1
_chemical_formula_structural   NaAg(SO2)2
_chemical_formula_sum   'Na4 Ag4 S8 O16'
_cell_volume   561.83923257
_cell_formula_units_Z   4
loop_
 _symmetry_equiv_pos_site_id
 _symmetry_equiv_pos_as_xyz
  1  'x, y, z'
loop_
 _atom_site_type_symbol
 _atom_site_label
 _atom_site_symmetry_multiplicity
 _atom_site_fract_x
 _atom_site_fract_y
 _atom_site_fract_z
 _atom_site_occupancy
  Na  Na0  1  0.42356500  0.03959500  0.15321900  1
  Na  Na1  1  0.57643500  0.03959500  0.65321900  1
  Na  Na2  1  0.48924600  0.54324500  0.14767300  1
  Na  Na3  1  0.51075400  0.54324500  0.64767300  1
  Ag  Ag0  1  0.04787900  0.97872600  0.46747700  1
  Ag  Ag1  1  0.95212100  0.97872600  0.96747700  1
  Ag  Ag2  1  0.93289900  0.47270000  0.21391500  1
  Ag  Ag3  1  0.06710100  0.47270000  0.71391500  1
  S  S0  1  0.06585400  0.29970700  0.47194800  1
  S  S1  1  0.93414600  0.29970700  0.97194800  1
  S  S2  1  0.93698000  0.78827100  0.25141000  1
  S  S3  1  0.06302000  0.78827100  0.75141000  1
  S  S4  1  0.30783900  0.32738700  0.40074000  1
  S  S5  1  0.69216100  0.32738700  0.90074000  1
  S  S6  1  0.71040700  0.82095000  0.35790100  1
  S  S7  1  0.28959300  0.82095000  0.85790100  1
  O  O0  1  0.30895300  0.29206300  0.23016400  1
  O  O1  1  0.69104700  0.29206300  0.73016400  1
  O  O2  1  0.34912500  0.50505000  0.42154500  1
  O  O3  1  0.65087500  0.50505000  0.92154500  1
  O  O4  1  0.39267500  0.20362600  0.50576900  1
  O  O5  1  0.60732500  0.20362600  0.00576900  1
  O  O6  1  0.59369200  0.80590900  0.23116000  1
  O  O7  1  0.40630800  0.80590900  0.73116000  1
  O  O8  1  0.70124300  0.68828600  0.48932100  1
  O  O9  1  0.29875700  0.68828600  0.98932100  1
  O  O10  1  0.71934400  0.99348200  0.41414400  1
  O  O11  1  0.28065600  0.99348200  0.91414400  1
  O  O12  1  0.26106600  0.91238400  0.36955600  1
  O  O13  1  0.73893400  0.91238400  0.86955600  1
  O  O14  1  0.70813100  0.41351900  0.29995800  1
  O  O15  1  0.29186900  0.41351900  0.79995800  1
loop_
_geom_bond_atom_site_label_1
_geom_bond_atom_site_label_2
_geom_bond_distance
_geom_bond_site_symmetry_2
Na0 O5 2.328839 1_555
Na0 O0 2.350522 1_555
Na0 O11 2.393246 1_544
Na0 O6 2.399348 1_545
Na0 O12 2.437824 1_545
Na1 O4 2.328839 1_555
Na1 O1 2.350522 1_555
Na1 O10 2.393246 1_545
Na1 O7 2.399348 1_545
Na1 O13 2.437824 1_545
Na2 O9 2.342360 1_554
Na2 O3 2.378320 1_554
Na2 O6 2.405678 1_555
Na2 O14 2.443327 1_555
Na2 O0 2.563459 1_555
Na2 O2 2.583088 1_555
Na3 O8 2.342360 1_555
Na3 O2 2.378320 1_555
Na3 O7 2.405678 1_555
Na3 O15 2.443327 1_555
Na3 O1 2.563459 1_555
Na3 O3 2.583088 1_555
Ag0 O12 2.077615 1_555
Ag0 S0 2.540048 1_565
Ag0 S2 2.611036 1_455
Ag0 S3 2.720492 1_555
Ag1 O13 2.077615 1_555
Ag1 S1 2.540048 1_565
Ag1 S3 2.611036 1_655
Ag1 S2 2.720492 1_556
Ag2 O14 2.089382 1_555
Ag2 S1 2.522852 1_554
Ag2 S2 2.532198 1_555
Ag2 S0 2.717323 1_655
Ag3 O15 2.089382 1_555
Ag3 S0 2.522852 1_555
Ag3 S3 2.532198 1_555
Ag3 S1 2.717323 1_455
S0 S4 2.155649 1_555
S1 S5 2.155649 1_555
S2 S6 2.152039 1_555
S3 S7 2.152039 1_555
O0 S4 1.474169 1_555
O1 S5 1.474169 1_555
O2 S4 1.467865 1_555
O3 S5 1.467865 1_555
O4 S4 1.457770 1_555
O5 S5 1.457770 1_554
O6 S6 1.465945 1_555
O7 S7 1.465945 1_555
O8 S6 1.464160 1_555
O9 S7 1.464160 1_555
O10 S6 1.474238 1_555
O11 S7 1.474238 1_555
