# generated using pymatgen
data_Rb4Li(Se2O7)2
_symmetry_space_group_name_H-M   'P 1'
_cell_length_a   7.78156580
_cell_length_b   8.46016297
_cell_length_c   8.06952273
_cell_angle_alpha   93.73619673
_cell_angle_beta   86.21764356
_cell_angle_gamma   60.13418854
_symmetry_Int_Tables_number   1
_chemical_formula_structural   Rb4Li(Se2O7)2
_chemical_formula_sum   'Rb4 Li1 Se4 O14'
_cell_volume   456.72929450
_cell_formula_units_Z   1
loop_
 _symmetry_equiv_pos_site_id
 _symmetry_equiv_pos_as_xyz
  1  'x, y, z'
loop_
 _atom_site_type_symbol
 _atom_site_label
 _atom_site_symmetry_multiplicity
 _atom_site_fract_x
 _atom_site_fract_y
 _atom_site_fract_z
 _atom_site_occupancy
  Rb  Rb0  1  0.15863400  0.59768500  0.29642000  1
  Rb  Rb1  1  0.50948000  0.80999600  0.15058700  1
  Rb  Rb2  1  0.74933500  0.49118800  0.67482400  1
  Rb  Rb3  1  0.64688500  0.11066200  0.87084900  1
  Li  Li0  1  0.30778400  0.29679400  0.60102600  1
  Se  Se0  1  0.67424300  0.11535900  0.36166000  1
  Se  Se1  1  0.92290100  0.29396700  0.17535700  1
  Se  Se2  1  0.28129000  0.93152000  0.63071800  1
  Se  Se3  1  0.11996000  0.66268000  0.83573500  1
  O  O0  1  0.57886300  0.25610700  0.54016100  1
  O  O1  1  0.75860700  0.36404600  0.03836100  1
  O  O2  1  0.36660700  0.75775200  0.47882700  1
  O  O3  1  0.32695200  0.52562600  0.92623500  1
  O  O4  1  0.51468700  0.19275200  0.22179100  1
  O  O5  1  0.87062100  0.46061500  0.32318600  1
  O  O6  1  0.44882900  0.88259300  0.76735400  1
  O  O7  1  0.09937600  0.53497600  0.67350400  1
  O  O8  1  0.75995100  0.89947600  0.38931400  1
  O  O9  1  0.15741400  0.16857600  0.09986200  1
  O  O10  1  0.23013000  0.12598000  0.54957200  1
  O  O11  1  0.91504800  0.74072000  0.97473900  1
  O  O12  1  0.89963800  0.11236200  0.28469200  1
  O  O13  1  0.06109600  0.96856900  0.72689100  1
loop_
_geom_bond_atom_site_label_1
_geom_bond_atom_site_label_2
_geom_bond_distance
_geom_bond_site_symmetry_2
Li0 O10 1.857550 1_555
Li0 O7 1.870615 1_555
Li0 O0 1.981789 1_555
O0 Se0 1.672957 1_555
O0 Rb3 2.980059 1_555
O0 Rb2 3.071162 1_555
O1 Se1 1.650781 1_555
O1 Rb3 2.968471 1_554
O1 Rb2 3.182753 1_554
O1 Rb1 3.294117 1_555
O2 Se2 1.670345 1_555
O2 Rb1 2.949693 1_555
O2 Rb0 2.976019 1_555
O3 Se3 1.696375 1_555
O3 Rb0 3.076012 1_556
O3 Rb3 3.109121 1_555
O4 Se0 1.647947 1_555
O4 Rb3 2.864998 1_554
O4 Rb0 3.135777 1_555
O4 Rb1 3.272437 1_545
O5 Se1 1.649793 1_555
O5 Rb2 2.883963 1_555
O5 Rb0 2.995252 1_655
O5 Rb1 3.369611 1_555
O6 Se2 1.672837 1_555
O6 Rb2 2.954026 1_555
O6 Rb3 3.117237 1_565
O6 Rb1 3.211693 1_556
O7 Se3 1.709507 1_555
O7 Rb2 2.925484 1_455
O7 Rb0 3.165781 1_555
O8 Se0 1.640109 1_565
O8 Rb0 2.874092 1_655
O8 Rb1 3.139705 1_555
O9 Se1 1.633325 1_455
O9 Rb1 2.984722 1_545
O10 Se2 1.678191 1_545
O11 Se3 1.689874 1_655
O11 Rb3 2.986804 1_565
O11 Rb1 3.126620 1_556
O11 Rb0 3.251084 1_656
O12 Se0 1.809031 1_555
O12 Se1 1.898506 1_555
O13 Se2 1.701302 1_555
O13 Rb3 2.940867 1_465
