# generated using pymatgen
data_BaSrYBiO6
_symmetry_space_group_name_H-M   'P 1'
_cell_length_a   8.62716227
_cell_length_b   8.63138310
_cell_length_c   8.62230810
_cell_angle_alpha   90.00000000
_cell_angle_beta   90.00000000
_cell_angle_gamma   90.00000000
_symmetry_Int_Tables_number   1
_chemical_formula_structural   BaSrYBiO6
_chemical_formula_sum   'Ba4 Sr4 Y4 Bi4 O24'
_cell_volume   642.05450452
_cell_formula_units_Z   4
loop_
 _symmetry_equiv_pos_site_id
 _symmetry_equiv_pos_as_xyz
  1  'x, y, z'
loop_
 _atom_site_type_symbol
 _atom_site_label
 _atom_site_symmetry_multiplicity
 _atom_site_fract_x
 _atom_site_fract_y
 _atom_site_fract_z
 _atom_site_occupancy
  Ba  Ba0  1  0.00000000  -0.00000000  -0.00000000  1
  Ba  Ba1  1  0.50000000  0.50000000  0.50000000  1
  Ba  Ba2  1  0.50000000  -0.00000000  0.50000000  1
  Ba  Ba3  1  0.00000000  -0.00000000  0.50000000  1
  Sr  Sr0  1  0.00000000  0.50000000  0.50000000  1
  Sr  Sr1  1  0.50000000  0.50000000  0.00000000  1
  Sr  Sr2  1  0.50000000  -0.00000000  0.00000000  1
  Sr  Sr3  1  0.00000000  0.50000000  -0.00000000  1
  Y  Y0  1  0.24958860  0.25250194  0.24817881  1
  Y  Y1  1  0.75041140  0.74749806  0.24817881  1
  Y  Y2  1  0.75041140  0.25250194  0.75182119  1
  Y  Y3  1  0.24958860  0.74749806  0.75182119  1
  Bi  Bi0  1  0.75043488  0.74667862  0.75223586  1
  Bi  Bi1  1  0.24956512  0.25332138  0.75223586  1
  Bi  Bi2  1  0.24956512  0.74667862  0.24776414  1
  Bi  Bi3  1  0.75043488  0.25332138  0.24776414  1
  O  O0  1  0.99391965  0.21877681  0.27417890  1
  O  O1  1  0.00608035  0.78122319  0.27417890  1
  O  O2  1  0.00608035  0.21877681  0.72582110  1
  O  O3  1  0.99391965  0.78122319  0.72582110  1
  O  O4  1  0.28403689  0.99208525  0.21072229  1
  O  O5  1  0.28403689  0.00791475  0.78927771  1
  O  O6  1  0.71596311  0.00791475  0.21072229  1
  O  O7  1  0.71596311  0.99208525  0.78927771  1
  O  O8  1  0.21235767  0.28921195  0.99424230  1
  O  O9  1  0.78764233  0.28921195  0.00575770  1
  O  O10  1  0.21235767  0.71078805  0.00575770  1
  O  O11  1  0.78764233  0.71078805  0.99424230  1
  O  O12  1  0.50689040  0.28982238  0.21377849  1
  O  O13  1  0.49310960  0.71017762  0.21377849  1
  O  O14  1  0.49310960  0.28982238  0.78622151  1
  O  O15  1  0.50689040  0.71017762  0.78622151  1
  O  O16  1  0.21455082  0.50585343  0.28844379  1
  O  O17  1  0.21455082  0.49414657  0.71155621  1
  O  O18  1  0.78544918  0.49414657  0.28844379  1
  O  O19  1  0.78544918  0.50585343  0.71155621  1
  O  O20  1  0.27975620  0.22437423  0.50727098  1
  O  O21  1  0.72024380  0.22437423  0.49272902  1
  O  O22  1  0.27975620  0.77562577  0.49272902  1
  O  O23  1  0.72024380  0.77562577  0.50727098  1
loop_
_geom_bond_atom_site_label_1
_geom_bond_atom_site_label_2
_geom_bond_distance
_geom_bond_site_symmetry_2
Ba0 O2 3.026113 1_554
Ba0 O0 3.026113 1_455
Ba0 O1 3.026113 1_545
Ba0 O3 3.026113 1_444
Ba0 O4 3.051304 1_545
Ba0 O5 3.051304 1_554
Ba0 O7 3.051304 1_444
Ba0 O6 3.051304 1_455
Ba0 O8 3.096831 1_554
Ba0 O9 3.096831 1_455
Ba0 O11 3.096831 1_444
Ba0 O10 3.096831 1_545
Ba1 O20 3.045328 1_555
Ba1 O23 3.045328 1_555
Ba1 O21 3.045328 1_555
Ba1 O22 3.045328 1_555
Ba1 O14 3.063504 1_555
Ba1 O15 3.063504 1_555
Ba1 O13 3.063504 1_555
Ba1 O12 3.063504 1_555
Ba1 O19 3.065026 1_555
Ba1 O16 3.065026 1_555
Ba1 O17 3.065026 1_555
Ba1 O18 3.065026 1_555
Ba2 O20 2.713832 1_555
Ba2 O22 2.713832 1_545
Ba2 O21 2.713832 1_555
Ba2 O23 2.713832 1_545
Ba2 O6 3.114038 1_555
Ba2 O4 3.114038 1_545
Ba2 O5 3.114038 1_555
Ba2 O7 3.114038 1_545
Ba3 O2 2.712895 1_555
Ba3 O0 2.712895 1_455
Ba3 O1 2.712895 1_545
Ba3 O3 2.712895 1_445
Ba3 O20 3.095089 1_555
Ba3 O23 3.095089 1_445
Ba3 O22 3.095089 1_545
Ba3 O21 3.095089 1_455
Bi0 O19 2.129573 1_555
Bi0 O11 2.133806 1_555
Bi0 O3 2.133828 1_555
Bi0 O23 2.142778 1_555
Bi0 O15 2.144700 1_555
Bi0 O7 2.162687 1_555
Bi1 O17 2.129573 1_555
Bi1 O8 2.133806 1_555
Bi1 O2 2.133828 1_555
Bi1 O20 2.142778 1_555
Bi1 O14 2.144700 1_555
Bi1 O5 2.162687 1_555
Bi2 O16 2.129573 1_555
Bi2 O10 2.133806 1_555
Bi2 O1 2.133828 1_555
Bi2 O22 2.142778 1_555
Bi2 O13 2.144700 1_555
Bi2 O4 2.162687 1_555
Bi3 O18 2.129573 1_555
Bi3 O9 2.133806 1_555
Bi3 O0 2.133828 1_555
Bi3 O21 2.142778 1_555
Bi3 O12 2.144700 1_555
Bi3 O6 2.162687 1_555
O0 Y0 2.236089 1_655
O0 Sr0 3.112226 1_655
O1 Y1 2.236089 1_455
O1 Sr0 3.112226 1_555
O2 Y2 2.236089 1_455
O2 Sr0 3.112226 1_555
O3 Y3 2.236089 1_655
O3 Sr0 3.112226 1_655
O4 Y0 2.290204 1_565
O4 Sr2 2.603298 1_565
O5 Y3 2.290204 1_545
O5 Sr2 2.603298 1_556
O6 Y1 2.290204 1_545
O6 Sr2 2.603298 1_555
O7 Y2 2.290204 1_565
O7 Sr2 2.603298 1_566
O8 Y0 2.235522 1_556
O8 Sr3 2.582448 1_556
O8 Sr1 3.077447 1_556
O9 Y2 2.235522 1_554
O9 Sr3 2.582448 1_655
O9 Sr1 3.077447 1_555
O10 Y3 2.235522 1_554
O10 Sr3 2.582448 1_555
O10 Sr1 3.077447 1_555
O11 Y1 2.235522 1_556
O11 Sr3 2.582448 1_656
O11 Sr1 3.077447 1_556
O12 Y0 2.262562 1_555
O12 Sr1 2.586929 1_555
O12 Sr2 3.107893 1_555
O13 Y1 2.262562 1_555
O13 Sr1 2.586929 1_555
O13 Sr2 3.107893 1_565
O14 Y2 2.262562 1_555
O14 Sr1 2.586929 1_556
O14 Sr2 3.107893 1_556
O15 Y3 2.262562 1_555
O15 Sr1 2.586929 1_556
O15 Sr2 3.107893 1_566
O16 Y0 2.234700 1_555
O16 Sr0 2.599226 1_555
O16 Sr3 3.100653 1_555
O17 Y3 2.234700 1_555
O17 Sr0 2.599226 1_555
O17 Sr3 3.100653 1_556
O18 Y1 2.234700 1_555
O18 Sr0 2.599226 1_655
O18 Sr3 3.100653 1_655
O19 Y2 2.234700 1_555
O19 Sr0 2.599226 1_655
O19 Sr3 3.100653 1_656
O20 Y0 2.262148 1_555
O21 Y2 2.262148 1_555
O22 Y3 2.262148 1_555
O23 Y1 2.262148 1_555
