# generated using pymatgen
data_LiMnP2O7
_symmetry_space_group_name_H-M   'P 1'
_cell_length_a   9.71437100
_cell_length_b   9.81238678
_cell_length_c   11.15482349
_cell_angle_alpha   101.56653405
_cell_angle_beta   90.41351051
_cell_angle_gamma   89.95686052
_symmetry_Int_Tables_number   1
_chemical_formula_structural   LiMnP2O7
_chemical_formula_sum   'Li8 Mn8 P16 O56'
_cell_volume   1041.67064147
_cell_formula_units_Z   8
loop_
 _symmetry_equiv_pos_site_id
 _symmetry_equiv_pos_as_xyz
  1  'x, y, z'
loop_
 _atom_site_type_symbol
 _atom_site_label
 _atom_site_symmetry_multiplicity
 _atom_site_fract_x
 _atom_site_fract_y
 _atom_site_fract_z
 _atom_site_occupancy
  Li  Li0  1  0.61928100  0.15117100  0.04423900  1
  Li  Li1  1  0.38856900  0.40494600  0.97387800  1
  Li  Li2  1  0.04072700  0.40479600  0.50370500  1
  Li  Li3  1  0.60454700  0.58369800  0.02538400  1
  Li  Li4  1  0.90767500  0.64634800  0.04816200  1
  Li  Li5  1  0.09276900  0.91568400  0.97781200  1
  Li  Li6  1  0.42168300  0.84817900  0.46919900  1
  Li  Li7  1  0.71616500  0.89354500  0.54579000  1
  Mn  Mn0  1  0.07269200  0.20132500  0.66779000  1
  Mn  Mn1  1  0.78900000  0.25813800  0.82805900  1
  Mn  Mn2  1  0.27491400  0.21048500  0.16147100  1
  Mn  Mn3  1  0.57806400  0.31560400  0.34297400  1
  Mn  Mn4  1  0.42563500  0.70238400  0.67828900  1
  Mn  Mn5  1  0.72110600  0.76825000  0.83133100  1
  Mn  Mn6  1  0.21696500  0.72130800  0.16498900  1
  Mn  Mn7  1  0.93100900  0.81162800  0.33676700  1
  P  P0  1  0.55217000  0.02527100  0.75505000  1
  P  P1  1  0.28192500  0.11547000  0.87666600  1
  P  P2  1  0.07212100  0.06547900  0.24644000  1
  P  P3  1  0.84909300  0.13685300  0.42992800  1
  P  P4  1  0.35634600  0.38257600  0.57282100  1
  P  P5  1  0.57506700  0.43464200  0.75995700  1
  P  P6  1  0.94381400  0.51924100  0.75089800  1
  P  P7  1  0.79441300  0.37827100  0.11692300  1
  P  P8  1  0.20586200  0.61784500  0.88718300  1
  P  P9  1  0.06648700  0.46508900  0.23981100  1
  P  P10  1  0.43546500  0.56190900  0.24251300  1
  P  P11  1  0.65756400  0.63606100  0.42467800  1
  P  P12  1  0.14354300  0.87738000  0.57310300  1
  P  P13  1  0.92293000  0.92696400  0.75748900  1
  P  P14  1  0.71156800  0.87959200  0.11602400  1
  P  P15  1  0.43858500  0.96250200  0.23614500  1
  O  O0  1  0.58664900  0.02277100  0.62529300  1
  O  O1  1  0.14705100  0.03299600  0.56901300  1
  O  O2  1  0.91206100  0.07767700  0.73896000  1
  O  O3  1  0.64712900  0.11530500  0.85381600  1
  O  O4  1  0.40407700  0.09355100  0.77741100  1
  O  O5  1  0.17543300  0.19769000  0.81635700  1
  O  O6  1  0.34579600  0.21423400  0.99340700  1
  O  O7  1  0.73589700  0.01758700  0.08551500  1
  O  O8  1  0.93012100  0.12919100  0.30116800  1
  O  O9  1  0.08139400  0.06854200  0.11193100  1
  O  O10  1  0.44701800  0.10547900  0.19260400  1
  O  O11  1  0.71066200  0.19928700  0.40762400  1
  O  O12  1  0.19016700  0.16321700  0.30729600  1
  O  O13  1  0.94120700  0.22488500  0.52959100  1
  O  O14  1  0.43716200  0.29695000  0.46646500  1
  O  O15  1  0.69287200  0.33617100  0.70342300  1
  O  O16  1  0.21060600  0.33208100  0.58625800  1
  O  O17  1  0.95497800  0.36729300  0.78496800  1
  O  O18  1  0.43462300  0.36893600  0.69814800  1
  O  O19  1  0.56466500  0.42902600  0.89446800  1
  O  O20  1  0.23471700  0.48357300  0.92390500  1
  O  O21  1  0.83435600  0.27008200  0.00141400  1
  O  O22  1  0.67339700  0.31544300  0.17901500  1
  O  O23  1  0.91753300  0.39148500  0.21405100  1
  O  O24  1  0.42824900  0.41547500  0.27505800  1
  O  O25  1  0.16704500  0.37500000  0.15076400  1
  O  O26  1  0.91972100  0.51519900  0.61925600  1
  O  O27  1  0.67082700  0.48882100  0.44198500  1
  O  O28  1  0.35881600  0.54112100  0.57010600  1
  O  O29  1  0.09374100  0.47911200  0.37216700  1
  O  O30  1  0.84618400  0.60532100  0.84735500  1
  O  O31  1  0.58689200  0.58422100  0.73484800  1
  O  O32  1  0.09061300  0.59326500  0.78110000  1
  O  O33  1  0.32243900  0.68876500  0.83128600  1
  O  O34  1  0.13686300  0.72297000  0.99888700  1
  O  O35  1  0.76914700  0.52075400  0.09012300  1
  O  O36  1  0.43503500  0.55873600  0.10668300  1
  O  O37  1  0.57715300  0.63197900  0.29504500  1
  O  O38  1  0.05333400  0.60957000  0.19524900  1
  O  O39  1  0.79482600  0.70659800  0.40778400  1
  O  O40  1  0.31861200  0.66229800  0.30013100  1
  O  O41  1  0.57059200  0.73365800  0.52128200  1
  O  O42  1  0.06625800  0.79032500  0.46379500  1
  O  O43  1  0.80206900  0.83423500  0.69167900  1
  O  O44  1  0.28775900  0.82210000  0.59043500  1
  O  O45  1  0.54269100  0.87262500  0.78717900  1
  O  O46  1  0.91888000  0.90269400  0.88729000  1
  O  O47  1  0.06145700  0.86219600  0.69538100  1
  O  O48  1  0.24071000  0.97867800  0.90139900  1
  O  O49  1  0.66723500  0.76577800  0.00054300  1
  O  O50  1  0.83202400  0.81291900  0.17702800  1
  O  O51  1  0.58784100  0.88786600  0.21117400  1
  O  O52  1  0.33860400  0.86917800  0.14557100  1
  O  O53  1  0.07940000  0.91418400  0.27223100  1
  O  O54  1  0.83500800  0.98650800  0.44593100  1
  O  O55  1  0.41294500  0.97255800  0.36829100  1
loop_
_geom_bond_atom_site_label_1
_geom_bond_atom_site_label_2
_geom_bond_distance
_geom_bond_site_symmetry_2
Li0 O7 1.856269 1_555
Li0 O22 2.037864 1_555
Li0 O3 2.101753 1_554
Li0 O10 2.465564 1_555
Li0 O21 2.489272 1_555
Li1 O20 1.816161 1_555
Li1 O36 1.941770 1_556
Li1 O19 1.968059 1_555
Li1 O6 1.971794 1_555
Li2 O29 1.841315 1_555
Li2 O26 1.917490 1_455
Li2 O16 2.078519 1_555
Li2 O13 2.084594 1_455
Li3 O35 1.902743 1_555
Li3 O19 1.920952 1_554
Li3 O36 1.924912 1_555
Li3 O49 1.960183 1_555
Li4 O35 1.947226 1_555
Li4 O50 2.085460 1_555
Li4 O38 2.242225 1_655
Li4 O30 2.270633 1_554
Li4 O34 2.451577 1_654
Li5 O48 1.845082 1_555
Li5 O9 1.898008 1_566
Li5 O46 1.952798 1_455
Li5 O34 1.997539 1_555
Li6 O55 1.820185 1_555
Li6 O44 1.936910 1_555
Li6 O41 1.984954 1_555
Li6 O40 2.545994 1_555
Li7 O0 1.881512 1_565
Li7 O54 1.957890 1_555
Li7 O43 2.010688 1_555
Li7 O41 2.088465 1_555
Li7 O39 2.280618 1_555
Mn0 O5 1.934844 1_555
Mn0 O1 1.934908 1_555
Mn0 O13 2.043394 1_455
Mn0 O16 2.180904 1_555
Mn0 O17 2.198509 1_455
Mn0 O2 2.223565 1_455
Mn1 O15 1.948921 1_555
Mn1 O21 1.960646 1_556
Mn1 O3 2.028879 1_555
Mn1 O17 2.048957 1_555
Mn1 O2 2.204702 1_555
Mn2 O25 1.947099 1_555
Mn2 O12 1.965028 1_555
Mn2 O6 2.009081 1_554
Mn2 O10 2.027302 1_555
Mn2 O9 2.336597 1_555
Mn2 O24 2.612532 1_555
Mn3 O11 1.948438 1_555
Mn3 O24 1.982931 1_555
Mn3 O14 1.983258 1_555
Mn3 O27 2.038602 1_555
Mn3 O22 2.055711 1_555
Mn3 O10 2.696574 1_555
Mn4 O28 1.898950 1_555
Mn4 O33 2.012923 1_555
Mn4 O31 2.114874 1_555
Mn4 O44 2.138826 1_555
Mn4 O45 2.174432 1_555
Mn4 O41 2.322978 1_555
Mn5 O49 1.967196 1_556
Mn5 O43 1.971662 1_555
Mn5 O30 2.042732 1_555
Mn5 O45 2.117241 1_555
Mn5 O31 2.307152 1_555
Mn5 O46 2.340397 1_555
Mn6 O52 1.918539 1_555
Mn6 O40 1.977499 1_555
Mn6 O38 2.000396 1_555
Mn6 O34 2.007503 1_554
Mn6 O53 2.431071 1_555
Mn6 O36 2.655965 1_555
Mn7 O39 1.945354 1_555
Mn7 O42 1.967036 1_655
Mn7 O53 1.979036 1_655
Mn7 O50 2.020920 1_555
Mn7 O54 2.114992 1_555
Mn7 O38 2.569726 1_655
O0 P0 1.483425 1_555
O1 P12 1.537173 1_545
O2 P13 1.537173 1_545
O3 P0 1.562516 1_555
O4 P0 1.586654 1_555
O4 P1 1.613464 1_555
O5 P1 1.542725 1_555
O6 P1 1.582122 1_555
O7 P14 1.480403 1_545
O8 P2 1.588769 1_655
O8 P3 1.631290 1_555
O9 P2 1.510076 1_555
O10 P15 1.576344 1_545
O11 P3 1.516796 1_555
O12 P2 1.557225 1_555
O13 P3 1.544187 1_555
O14 P4 1.530523 1_555
O15 P5 1.550922 1_555
O16 P4 1.518643 1_555
O17 P6 1.614182 1_555
O18 P5 1.600599 1_555
O18 P4 1.615574 1_555
O19 P5 1.516556 1_555
O20 P8 1.482046 1_555
O21 P7 1.547838 1_555
O22 P7 1.557527 1_555
O23 P7 1.595731 1_555
O23 P9 1.615651 1_655
O24 P10 1.552737 1_555
O25 P9 1.543673 1_555
O26 P6 1.477963 1_555
O27 P11 1.500820 1_555
O28 P4 1.562265 1_555
O29 P9 1.477077 1_555
O30 P6 1.555537 1_555
O31 P5 1.552880 1_555
O32 P6 1.603505 1_455
O32 P8 1.605843 1_555
O33 P8 1.530007 1_555
O34 P8 1.600476 1_555
O35 P7 1.506759 1_555
O36 P10 1.509201 1_555
O37 P10 1.593371 1_555
O37 P11 1.631967 1_555
O38 P9 1.598345 1_555
O39 P11 1.532932 1_555
O40 P10 1.557869 1_555
O41 P11 1.546041 1_555
O42 P12 1.533019 1_555
O43 P13 1.570542 1_555
O44 P12 1.526866 1_555
O45 P0 1.611318 1_565
O46 P13 1.514532 1_555
O47 P13 1.590721 1_455
O47 P12 1.617377 1_555
O48 P1 1.479519 1_565
O49 P14 1.583631 1_555
O50 P14 1.557630 1_555
O51 P14 1.600459 1_555
O51 P15 1.624393 1_555
O52 P15 1.555261 1_555
O53 P2 1.569242 1_565
O54 P3 1.527479 1_565
O55 P15 1.480398 1_555
