# generated using pymatgen
data_ZrSn
_symmetry_space_group_name_H-M   'P 1'
_cell_length_a   6.27337800
_cell_length_b   10.22916400
_cell_length_c   24.85211200
_cell_angle_alpha   90.00000000
_cell_angle_beta   90.00000000
_cell_angle_gamma   90.00000000
_symmetry_Int_Tables_number   1
_chemical_formula_structural   ZrSn
_chemical_formula_sum   'Zr32 Sn32'
_cell_volume   1594.79512806
_cell_formula_units_Z   32
loop_
 _symmetry_equiv_pos_site_id
 _symmetry_equiv_pos_as_xyz
  1  'x, y, z'
loop_
 _atom_site_type_symbol
 _atom_site_label
 _atom_site_symmetry_multiplicity
 _atom_site_fract_x
 _atom_site_fract_y
 _atom_site_fract_z
 _atom_site_occupancy
  Zr  Zr0_0  1  0.00000000  0.00000000  0.26858850  1
  Zr  Zr0_1  1  0.00000000  0.00000000  0.76858850  1
  Zr  Zr0_2  1  0.00000000  0.50000000  0.26858850  1
  Zr  Zr0_3  1  0.00000000  0.50000000  0.76858850  1
  Zr  Zr0_4  1  0.50000000  0.00000000  0.26858850  1
  Zr  Zr0_5  1  0.50000000  0.00000000  0.76858850  1
  Zr  Zr0_6  1  0.50000000  0.50000000  0.26858850  1
  Zr  Zr0_7  1  0.50000000  0.50000000  0.76858850  1
  Zr  Zr1_0  1  0.25000000  0.00000000  0.14684250  1
  Zr  Zr1_1  1  0.25000000  0.00000000  0.64684250  1
  Zr  Zr1_2  1  0.25000000  0.50000000  0.14684250  1
  Zr  Zr1_3  1  0.25000000  0.50000000  0.64684250  1
  Zr  Zr1_4  1  0.75000000  0.00000000  0.14684250  1
  Zr  Zr1_5  1  0.75000000  0.00000000  0.64684250  1
  Zr  Zr1_6  1  0.75000000  0.50000000  0.14684250  1
  Zr  Zr1_7  1  0.75000000  0.50000000  0.64684250  1
  Zr  Zr2_0  1  0.00000000  0.25000000  0.35315750  1
  Zr  Zr2_1  1  0.00000000  0.25000000  0.85315750  1
  Zr  Zr2_2  1  0.00000000  0.75000000  0.35315750  1
  Zr  Zr2_3  1  0.00000000  0.75000000  0.85315750  1
  Zr  Zr2_4  1  0.50000000  0.25000000  0.35315750  1
  Zr  Zr2_5  1  0.50000000  0.25000000  0.85315750  1
  Zr  Zr2_6  1  0.50000000  0.75000000  0.35315750  1
  Zr  Zr2_7  1  0.50000000  0.75000000  0.85315750  1
  Zr  Zr3_0  1  0.25000000  0.25000000  0.23141150  1
  Zr  Zr3_1  1  0.25000000  0.25000000  0.73141150  1
  Zr  Zr3_2  1  0.25000000  0.75000000  0.23141150  1
  Zr  Zr3_3  1  0.25000000  0.75000000  0.73141150  1
  Zr  Zr3_4  1  0.75000000  0.25000000  0.23141150  1
  Zr  Zr3_5  1  0.75000000  0.25000000  0.73141150  1
  Zr  Zr3_6  1  0.75000000  0.75000000  0.23141150  1
  Zr  Zr3_7  1  0.75000000  0.75000000  0.73141150  1
  Sn  Sn0_0  1  0.00000000  0.00000000  0.03334200  1
  Sn  Sn0_1  1  0.00000000  0.00000000  0.53334200  1
  Sn  Sn0_2  1  0.00000000  0.50000000  0.03334200  1
  Sn  Sn0_3  1  0.00000000  0.50000000  0.53334200  1
  Sn  Sn0_4  1  0.50000000  0.00000000  0.03334200  1
  Sn  Sn0_5  1  0.50000000  0.00000000  0.53334200  1
  Sn  Sn0_6  1  0.50000000  0.50000000  0.03334200  1
  Sn  Sn0_7  1  0.50000000  0.50000000  0.53334200  1
  Sn  Sn1_0  1  0.25000000  0.00000000  0.37953200  1
  Sn  Sn1_1  1  0.25000000  0.00000000  0.87953200  1
  Sn  Sn1_2  1  0.25000000  0.50000000  0.37953200  1
  Sn  Sn1_3  1  0.25000000  0.50000000  0.87953200  1
  Sn  Sn1_4  1  0.75000000  0.00000000  0.37953200  1
  Sn  Sn1_5  1  0.75000000  0.00000000  0.87953200  1
  Sn  Sn1_6  1  0.75000000  0.50000000  0.37953200  1
  Sn  Sn1_7  1  0.75000000  0.50000000  0.87953200  1
  Sn  Sn2_0  1  0.00000000  0.25000000  0.12046800  1
  Sn  Sn2_1  1  0.00000000  0.25000000  0.62046800  1
  Sn  Sn2_2  1  0.00000000  0.75000000  0.12046800  1
  Sn  Sn2_3  1  0.00000000  0.75000000  0.62046800  1
  Sn  Sn2_4  1  0.50000000  0.25000000  0.12046800  1
  Sn  Sn2_5  1  0.50000000  0.25000000  0.62046800  1
  Sn  Sn2_6  1  0.50000000  0.75000000  0.12046800  1
  Sn  Sn2_7  1  0.50000000  0.75000000  0.62046800  1
  Sn  Sn3_0  1  0.25000000  0.25000000  0.46665800  1
  Sn  Sn3_1  1  0.25000000  0.25000000  0.96665800  1
  Sn  Sn3_2  1  0.25000000  0.75000000  0.46665800  1
  Sn  Sn3_3  1  0.25000000  0.75000000  0.96665800  1
  Sn  Sn3_4  1  0.75000000  0.25000000  0.46665800  1
  Sn  Sn3_5  1  0.75000000  0.25000000  0.96665800  1
  Sn  Sn3_6  1  0.75000000  0.75000000  0.46665800  1
  Sn  Sn3_7  1  0.75000000  0.75000000  0.96665800  1
loop_
_geom_bond_atom_site_label_1
_geom_bond_atom_site_label_2
_geom_bond_distance
_geom_bond_site_symmetry_2
Zr0_0 Zr0_4 3.136689 1_555
Zr0_0 Zr0_4 3.136689 1_455
Zr0_0 Zr3_0 3.138962 1_555
Zr0_0 Zr3_2 3.138962 1_545
Zr0_0 Zr3_4 3.138962 1_455
Zr0_0 Zr3_6 3.138962 1_445
Zr0_0 Zr2_2 3.310129 1_545
Zr0_0 Zr2_0 3.310129 1_555
Zr0_0 Zr1_0 3.407966 1_555
Zr0_0 Zr1_4 3.407966 1_455
Zr0_1 Zr0_5 3.136689 1_555
Zr0_1 Zr0_5 3.136689 1_455
Zr0_1 Zr3_1 3.138962 1_555
Zr0_1 Zr3_3 3.138962 1_545
Zr0_1 Zr3_7 3.138962 1_445
Zr0_1 Zr3_5 3.138962 1_455
Zr0_1 Zr2_1 3.310129 1_555
Zr0_1 Zr2_3 3.310129 1_545
Zr0_1 Zr1_1 3.407966 1_555
Zr0_1 Zr1_5 3.407966 1_455
Zr0_2 Zr0_6 3.136689 1_555
Zr0_2 Zr0_6 3.136689 1_455
Zr0_2 Zr3_0 3.138962 1_555
Zr0_2 Zr3_2 3.138962 1_555
Zr0_2 Zr3_6 3.138962 1_455
Zr0_2 Zr3_4 3.138962 1_455
Zr0_2 Zr2_2 3.310129 1_555
Zr0_2 Zr2_0 3.310129 1_555
Zr0_2 Zr1_2 3.407966 1_555
Zr0_2 Zr1_6 3.407966 1_455
Zr0_3 Zr0_7 3.136689 1_555
Zr0_3 Zr0_7 3.136689 1_455
Zr0_3 Zr3_3 3.138962 1_555
Zr0_3 Zr3_1 3.138962 1_555
Zr0_3 Zr3_7 3.138962 1_455
Zr0_3 Zr3_5 3.138962 1_455
Zr0_3 Zr2_1 3.310129 1_555
Zr0_3 Zr2_3 3.310129 1_555
Zr0_3 Zr1_3 3.407966 1_555
Zr0_3 Zr1_7 3.407966 1_455
Zr0_4 Zr3_0 3.138962 1_555
Zr0_4 Zr3_4 3.138962 1_555
Zr0_4 Zr3_6 3.138962 1_545
Zr0_4 Zr3_2 3.138962 1_545
Zr0_4 Zr2_6 3.310129 1_545
Zr0_4 Zr2_4 3.310129 1_555
Zr0_4 Zr1_4 3.407966 1_555
Zr0_4 Zr1_0 3.407966 1_555
Zr0_5 Zr3_7 3.138962 1_545
Zr0_5 Zr3_1 3.138962 1_555
Zr0_5 Zr3_5 3.138962 1_555
Zr0_5 Zr3_3 3.138962 1_545
Zr0_5 Zr2_7 3.310129 1_545
Zr0_5 Zr2_5 3.310129 1_555
Zr0_5 Zr1_1 3.407966 1_555
Zr0_5 Zr1_5 3.407966 1_555
Zr0_6 Zr3_0 3.138962 1_555
Zr0_6 Zr3_4 3.138962 1_555
Zr0_6 Zr3_2 3.138962 1_555
Zr0_6 Zr3_6 3.138962 1_555
Zr0_6 Zr2_4 3.310129 1_555
Zr0_6 Zr2_6 3.310129 1_555
Zr0_6 Zr1_2 3.407966 1_555
Zr0_6 Zr1_6 3.407966 1_555
Zr0_7 Zr3_3 3.138962 1_555
Zr0_7 Zr3_1 3.138962 1_555
Zr0_7 Zr3_5 3.138962 1_555
Zr0_7 Zr3_7 3.138962 1_555
Zr0_7 Zr2_5 3.310129 1_555
Zr0_7 Zr2_7 3.310129 1_555
Zr0_7 Zr1_7 3.407966 1_555
Zr0_7 Zr1_3 3.407966 1_555
Zr1_0 Zr1_4 3.136689 1_555
Zr1_0 Zr1_4 3.136689 1_455
Zr1_0 Zr3_2 3.310129 1_545
Zr1_0 Zr3_0 3.310129 1_555
Zr1_1 Zr1_5 3.136689 1_555
Zr1_1 Zr1_5 3.136689 1_455
Zr1_1 Zr3_3 3.310129 1_545
Zr1_1 Zr3_1 3.310129 1_555
Zr1_2 Zr1_6 3.136689 1_555
Zr1_2 Zr1_6 3.136689 1_455
Zr1_2 Zr3_2 3.310129 1_555
Zr1_2 Zr3_0 3.310129 1_555
Zr1_3 Zr1_7 3.136689 1_555
Zr1_3 Zr1_7 3.136689 1_455
Zr1_3 Zr3_3 3.310129 1_555
Zr1_3 Zr3_1 3.310129 1_555
Zr1_4 Zr3_4 3.310129 1_555
Zr1_4 Zr3_6 3.310129 1_545
Zr1_5 Zr3_7 3.310129 1_545
Zr1_5 Zr3_5 3.310129 1_555
Zr1_6 Zr3_4 3.310129 1_555
Zr1_6 Zr3_6 3.310129 1_555
Zr1_7 Zr3_7 3.310129 1_555
Zr1_7 Zr3_5 3.310129 1_555
Zr2_0 Zr2_4 3.136689 1_555
Zr2_0 Zr2_4 3.136689 1_455
Zr2_0 Zr3_0 3.407966 1_555
Zr2_0 Zr3_4 3.407966 1_455
Zr2_1 Zr2_5 3.136689 1_555
Zr2_1 Zr2_5 3.136689 1_455
Zr2_1 Zr3_1 3.407966 1_555
Zr2_1 Zr3_5 3.407966 1_455
Zr2_2 Zr2_6 3.136689 1_555
Zr2_2 Zr2_6 3.136689 1_455
Zr2_2 Zr3_2 3.407966 1_555
Zr2_2 Zr3_6 3.407966 1_455
Zr2_3 Zr2_7 3.136689 1_555
Zr2_3 Zr2_7 3.136689 1_455
Zr2_3 Zr3_3 3.407966 1_555
Zr2_3 Zr3_7 3.407966 1_455
Zr2_4 Zr3_0 3.407966 1_555
Zr2_4 Zr3_4 3.407966 1_555
Zr2_5 Zr3_1 3.407966 1_555
Zr2_5 Zr3_5 3.407966 1_555
Zr2_6 Zr3_6 3.407966 1_555
Zr2_6 Zr3_2 3.407966 1_555
Zr2_7 Zr3_3 3.407966 1_555
Zr2_7 Zr3_7 3.407966 1_555
Zr3_0 Zr3_4 3.136689 1_555
Zr3_0 Zr3_4 3.136689 1_455
Zr3_1 Zr3_5 3.136689 1_555
Zr3_1 Zr3_5 3.136689 1_455
Zr3_2 Zr3_6 3.136689 1_555
Zr3_2 Zr3_6 3.136689 1_455
Zr3_3 Zr3_7 3.136689 1_555
Zr3_3 Zr3_7 3.136689 1_455
Sn0_0 Sn0_4 3.136689 1_555
Sn0_0 Sn0_4 3.136689 1_455
Sn0_0 Zr1_0 3.227415 1_555
Sn0_0 Zr1_4 3.227415 1_455
Sn0_0 Sn2_0 3.350837 1_555
Sn0_0 Sn2_2 3.350837 1_545
Sn0_0 Sn3_1 3.427226 1_554
Sn0_0 Sn3_3 3.427226 1_544
Sn0_0 Sn3_5 3.427226 1_454
Sn0_0 Sn3_7 3.427226 1_444
Sn0_1 Sn0_5 3.136689 1_555
Sn0_1 Sn0_5 3.136689 1_455
Sn0_1 Zr1_1 3.227415 1_555
Sn0_1 Zr1_5 3.227415 1_455
Sn0_1 Sn2_3 3.350837 1_545
Sn0_1 Sn2_1 3.350837 1_555
Sn0_1 Sn3_2 3.427226 1_545
Sn0_1 Sn3_0 3.427226 1_555
Sn0_1 Sn3_6 3.427226 1_445
Sn0_1 Sn3_4 3.427226 1_455
Sn0_2 Sn0_6 3.136689 1_555
Sn0_2 Sn0_6 3.136689 1_455
Sn0_2 Zr1_2 3.227415 1_555
Sn0_2 Zr1_6 3.227415 1_455
Sn0_2 Sn2_0 3.350837 1_555
Sn0_2 Sn2_2 3.350837 1_555
Sn0_2 Sn3_1 3.427226 1_554
Sn0_2 Sn3_3 3.427226 1_554
Sn0_2 Sn3_7 3.427226 1_454
Sn0_2 Sn3_5 3.427226 1_454
Sn0_3 Sn0_7 3.136689 1_555
Sn0_3 Sn0_7 3.136689 1_455
Sn0_3 Zr1_3 3.227415 1_555
Sn0_3 Zr1_7 3.227415 1_455
Sn0_3 Sn2_3 3.350837 1_555
Sn0_3 Sn2_1 3.350837 1_555
Sn0_3 Sn3_2 3.427226 1_555
Sn0_3 Sn3_0 3.427226 1_555
Sn0_3 Sn3_6 3.427226 1_455
Sn0_3 Sn3_4 3.427226 1_455
Sn0_4 Zr1_0 3.227415 1_555
Sn0_4 Zr1_4 3.227415 1_555
Sn0_4 Sn2_6 3.350837 1_545
Sn0_4 Sn2_4 3.350837 1_555
Sn0_4 Sn3_1 3.427226 1_554
Sn0_4 Sn3_3 3.427226 1_544
Sn0_4 Sn3_7 3.427226 1_544
Sn0_4 Sn3_5 3.427226 1_554
Sn0_5 Zr1_1 3.227415 1_555
Sn0_5 Zr1_5 3.227415 1_555
Sn0_5 Sn2_5 3.350837 1_555
Sn0_5 Sn2_7 3.350837 1_545
Sn0_5 Sn3_2 3.427226 1_545
Sn0_5 Sn3_4 3.427226 1_555
Sn0_5 Sn3_0 3.427226 1_555
Sn0_5 Sn3_6 3.427226 1_545
Sn0_6 Zr1_6 3.227415 1_555
Sn0_6 Zr1_2 3.227415 1_555
Sn0_6 Sn2_6 3.350837 1_555
Sn0_6 Sn2_4 3.350837 1_555
Sn0_6 Sn3_7 3.427226 1_554
Sn0_6 Sn3_1 3.427226 1_554
Sn0_6 Sn3_3 3.427226 1_554
Sn0_6 Sn3_5 3.427226 1_554
Sn0_7 Zr1_3 3.227415 1_555
Sn0_7 Zr1_7 3.227415 1_555
Sn0_7 Sn2_5 3.350837 1_555
Sn0_7 Sn2_7 3.350837 1_555
Sn0_7 Sn3_2 3.427226 1_555
Sn0_7 Sn3_6 3.427226 1_555
Sn0_7 Sn3_4 3.427226 1_555
Sn0_7 Sn3_0 3.427226 1_555
Sn1_0 Zr2_2 3.070679 1_545
Sn1_0 Zr2_0 3.070679 1_555
Sn1_0 Zr2_6 3.070679 1_545
Sn1_0 Zr2_4 3.070679 1_555
Sn1_0 Sn1_4 3.136689 1_555
Sn1_0 Sn1_4 3.136689 1_455
Sn1_0 Zr0_4 3.172026 1_555
Sn1_0 Zr0_0 3.172026 1_555
Sn1_0 Sn3_2 3.350837 1_545
Sn1_0 Sn3_0 3.350837 1_555
Sn1_1 Zr2_3 3.070679 1_545
Sn1_1 Zr2_7 3.070679 1_545
Sn1_1 Zr2_5 3.070679 1_555
Sn1_1 Zr2_1 3.070679 1_555
Sn1_1 Sn1_5 3.136689 1_555
Sn1_1 Sn1_5 3.136689 1_455
Sn1_1 Zr0_1 3.172026 1_555
Sn1_1 Zr0_5 3.172026 1_555
Sn1_1 Sn3_1 3.350837 1_555
Sn1_1 Sn3_3 3.350837 1_545
Sn1_2 Zr2_2 3.070679 1_555
Sn1_2 Zr2_6 3.070679 1_555
Sn1_2 Zr2_0 3.070679 1_555
Sn1_2 Zr2_4 3.070679 1_555
Sn1_2 Sn1_6 3.136689 1_555
Sn1_2 Sn1_6 3.136689 1_455
Sn1_2 Zr0_2 3.172026 1_555
Sn1_2 Zr0_6 3.172026 1_555
Sn1_2 Sn3_2 3.350837 1_555
Sn1_2 Sn3_0 3.350837 1_555
Sn1_3 Zr2_5 3.070679 1_555
Sn1_3 Zr2_3 3.070679 1_555
Sn1_3 Zr2_7 3.070679 1_555
Sn1_3 Zr2_1 3.070679 1_555
Sn1_3 Sn1_7 3.136689 1_555
Sn1_3 Sn1_7 3.136689 1_455
Sn1_3 Zr0_7 3.172026 1_555
Sn1_3 Zr0_3 3.172026 1_555
Sn1_3 Sn3_1 3.350837 1_555
Sn1_3 Sn3_3 3.350837 1_555
Sn1_4 Zr2_6 3.070679 1_545
Sn1_4 Zr2_4 3.070679 1_555
Sn1_4 Zr2_0 3.070679 1_655
Sn1_4 Zr2_2 3.070679 1_645
Sn1_4 Zr0_4 3.172026 1_555
Sn1_4 Zr0_0 3.172026 1_655
Sn1_4 Sn3_4 3.350837 1_555
Sn1_4 Sn3_6 3.350837 1_545
Sn1_5 Zr2_7 3.070679 1_545
Sn1_5 Zr2_5 3.070679 1_555
Sn1_5 Zr2_1 3.070679 1_655
Sn1_5 Zr2_3 3.070679 1_645
Sn1_5 Zr0_5 3.172026 1_555
Sn1_5 Zr0_1 3.172026 1_655
Sn1_5 Sn3_7 3.350837 1_545
Sn1_5 Sn3_5 3.350837 1_555
Sn1_6 Zr2_6 3.070679 1_555
Sn1_6 Zr2_4 3.070679 1_555
Sn1_6 Zr2_0 3.070679 1_655
Sn1_6 Zr2_2 3.070679 1_655
Sn1_6 Zr0_6 3.172026 1_555
Sn1_6 Zr0_2 3.172026 1_655
Sn1_6 Sn3_6 3.350837 1_555
Sn1_6 Sn3_4 3.350837 1_555
Sn1_7 Zr2_5 3.070679 1_555
Sn1_7 Zr2_7 3.070679 1_555
Sn1_7 Zr2_3 3.070679 1_655
Sn1_7 Zr2_1 3.070679 1_655
Sn1_7 Zr0_7 3.172026 1_555
Sn1_7 Zr0_3 3.172026 1_655
Sn1_7 Sn3_7 3.350837 1_555
Sn1_7 Sn3_5 3.350837 1_555
Sn2_0 Zr1_0 3.070679 1_555
Sn2_0 Zr1_2 3.070679 1_555
Sn2_0 Zr1_6 3.070679 1_455
Sn2_0 Zr1_4 3.070679 1_455
Sn2_0 Sn2_4 3.136689 1_555
Sn2_0 Sn2_4 3.136689 1_455
Sn2_0 Zr3_0 3.172026 1_555
Sn2_0 Zr3_4 3.172026 1_455
Sn2_1 Zr1_3 3.070679 1_555
Sn2_1 Zr1_1 3.070679 1_555
Sn2_1 Zr1_5 3.070679 1_455
Sn2_1 Zr1_7 3.070679 1_455
Sn2_1 Sn2_5 3.136689 1_555
Sn2_1 Sn2_5 3.136689 1_455
Sn2_1 Zr3_1 3.172026 1_555
Sn2_1 Zr3_5 3.172026 1_455
Sn2_2 Zr1_0 3.070679 1_565
Sn2_2 Zr1_2 3.070679 1_555
Sn2_2 Zr1_6 3.070679 1_455
Sn2_2 Zr1_4 3.070679 1_465
Sn2_2 Sn2_6 3.136689 1_555
Sn2_2 Sn2_6 3.136689 1_455
Sn2_2 Zr3_2 3.172026 1_555
Sn2_2 Zr3_6 3.172026 1_455
Sn2_3 Zr1_1 3.070679 1_565
Sn2_3 Zr1_3 3.070679 1_555
Sn2_3 Zr1_5 3.070679 1_465
Sn2_3 Zr1_7 3.070679 1_455
Sn2_3 Sn2_7 3.136689 1_555
Sn2_3 Sn2_7 3.136689 1_455
Sn2_3 Zr3_3 3.172026 1_555
Sn2_3 Zr3_7 3.172026 1_455
Sn2_4 Zr1_6 3.070679 1_555
Sn2_4 Zr1_0 3.070679 1_555
Sn2_4 Zr1_4 3.070679 1_555
Sn2_4 Zr1_2 3.070679 1_555
Sn2_4 Zr3_0 3.172026 1_555
Sn2_4 Zr3_4 3.172026 1_555
Sn2_5 Zr1_3 3.070679 1_555
Sn2_5 Zr1_1 3.070679 1_555
Sn2_5 Zr1_7 3.070679 1_555
Sn2_5 Zr1_5 3.070679 1_555
Sn2_5 Zr3_1 3.172026 1_555
Sn2_5 Zr3_5 3.172026 1_555
Sn2_6 Zr1_6 3.070679 1_555
Sn2_6 Zr1_0 3.070679 1_565
Sn2_6 Zr1_4 3.070679 1_565
Sn2_6 Zr1_2 3.070679 1_555
Sn2_6 Zr3_6 3.172026 1_555
Sn2_6 Zr3_2 3.172026 1_555
Sn2_7 Zr1_1 3.070679 1_565
Sn2_7 Zr1_5 3.070679 1_565
Sn2_7 Zr1_3 3.070679 1_555
Sn2_7 Zr1_7 3.070679 1_555
Sn2_7 Zr3_3 3.172026 1_555
Sn2_7 Zr3_7 3.172026 1_555
Sn3_0 Sn3_4 3.136689 1_555
Sn3_0 Sn3_4 3.136689 1_455
Sn3_0 Zr2_0 3.227415 1_555
Sn3_0 Zr2_4 3.227415 1_555
Sn3_1 Sn3_5 3.136689 1_555
Sn3_1 Sn3_5 3.136689 1_455
Sn3_1 Zr2_1 3.227415 1_555
Sn3_1 Zr2_5 3.227415 1_555
Sn3_2 Sn3_6 3.136689 1_555
Sn3_2 Sn3_6 3.136689 1_455
Sn3_2 Zr2_2 3.227415 1_555
Sn3_2 Zr2_6 3.227415 1_555
Sn3_3 Sn3_7 3.136689 1_555
Sn3_3 Sn3_7 3.136689 1_455
Sn3_3 Zr2_7 3.227415 1_555
Sn3_3 Zr2_3 3.227415 1_555
Sn3_4 Zr2_4 3.227415 1_555
Sn3_4 Zr2_0 3.227415 1_655
Sn3_5 Zr2_5 3.227415 1_555
Sn3_5 Zr2_1 3.227415 1_655
Sn3_6 Zr2_6 3.227415 1_555
Sn3_6 Zr2_2 3.227415 1_655
Sn3_7 Zr2_7 3.227415 1_555
Sn3_7 Zr2_3 3.227415 1_655
