# generated using pymatgen
data_Ba2Y2Co4O11
_symmetry_space_group_name_H-M   'P 1'
_cell_length_a   3.91431600
_cell_length_b   7.59728400
_cell_length_c   7.89986200
_cell_angle_alpha   90.00000000
_cell_angle_beta   90.00000000
_cell_angle_gamma   90.00000000
_symmetry_Int_Tables_number   1
_chemical_formula_structural   Ba2Y2Co4O11
_chemical_formula_sum   'Ba2 Y2 Co4 O11'
_cell_volume   234.92744164
_cell_formula_units_Z   1
loop_
 _symmetry_equiv_pos_site_id
 _symmetry_equiv_pos_as_xyz
  1  'x, y, z'
loop_
 _atom_site_type_symbol
 _atom_site_label
 _atom_site_symmetry_multiplicity
 _atom_site_fract_x
 _atom_site_fract_y
 _atom_site_fract_z
 _atom_site_occupancy
  Ba  Ba0  1  0.50000000  0.00000000  0.25552400  1
  Ba  Ba1  1  0.50000000  0.00000000  0.74447600  1
  Y  Y0  1  0.50000000  0.50000000  0.22977700  1
  Y  Y1  1  0.50000000  0.50000000  0.77022300  1
  Co  Co0  1  0.00000000  0.25256900  0.00000000  1
  Co  Co1  1  0.00000000  0.74743100  0.00000000  1
  Co  Co2  1  0.00000000  0.26186500  0.50000000  1
  Co  Co3  1  0.00000000  0.73813500  0.50000000  1
  O  O0  1  0.00000000  0.00000000  0.00000000  1
  O  O1  1  0.50000000  0.31404700  0.50000000  1
  O  O2  1  0.50000000  0.68595300  0.50000000  1
  O  O3  1  0.50000000  0.27700200  0.00000000  1
  O  O4  1  0.50000000  0.72299800  0.00000000  1
  O  O5  1  0.00000000  0.30206500  0.26829200  1
  O  O6  1  0.00000000  0.69793500  0.73170800  1
  O  O7  1  0.00000000  0.69793500  0.26829200  1
  O  O8  1  0.00000000  0.30206500  0.73170800  1
  O  O9  1  0.00000000  0.00000000  0.50000000  1
  O  O10  1  0.00000000  0.50000000  0.00000000  1
loop_
_geom_bond_atom_site_label_1
_geom_bond_atom_site_label_2
_geom_bond_distance
_geom_bond_site_symmetry_2
Ba0 O9 2.749635 1_655
Ba0 O9 2.749635 1_555
Ba0 O0 2.811624 1_555
Ba0 O0 2.811624 1_655
Ba0 O3 2.916081 1_555
Ba0 O4 2.916081 1_545
Ba0 O7 3.017795 1_645
Ba0 O5 3.017795 1_655
Ba0 O5 3.017795 1_555
Ba0 O7 3.017795 1_545
Ba0 O1 3.069619 1_555
Ba0 O2 3.069619 1_545
Ba1 O9 2.749635 1_655
Ba1 O9 2.749635 1_555
Ba1 O0 2.811624 1_656
Ba1 O0 2.811624 1_556
Ba1 O3 2.916081 1_556
Ba1 O4 2.916081 1_546
Ba1 O6 3.017795 1_545
Ba1 O6 3.017795 1_645
Ba1 O8 3.017795 1_555
Ba1 O8 3.017795 1_655
Ba1 O1 3.069619 1_555
Ba1 O2 3.069619 1_545
Co0 O10 1.879804 1_555
Co0 O0 1.918838 1_555
Co0 O3 1.965941 1_455
Co0 O3 1.965941 1_555
Co0 O5 2.152569 1_555
Co0 O8 2.152569 1_554
Co1 O10 1.879804 1_555
Co1 O0 1.918838 1_565
Co1 O4 1.965941 1_555
Co1 O4 1.965941 1_455
Co1 O7 2.152569 1_555
Co1 O6 2.152569 1_554
Co2 O8 1.855765 1_555
Co2 O5 1.855765 1_555
Co2 O9 1.989463 1_555
Co2 O1 1.996906 1_555
Co2 O1 1.996906 1_455
Co3 O6 1.855765 1_555
Co3 O7 1.855765 1_555
Co3 O9 1.989463 1_565
Co3 O2 1.996906 1_455
Co3 O2 1.996906 1_555
O1 Y1 2.559859 1_555
O1 Y0 2.559859 1_555
O2 Y1 2.559859 1_555
O2 Y0 2.559859 1_555
O3 Y0 2.482986 1_555
O3 Y1 2.482986 1_554
O4 Y0 2.482986 1_555
O4 Y1 2.482986 1_554
O5 Y0 2.486838 1_555
O5 Y0 2.486838 1_455
O6 Y1 2.486838 1_555
O6 Y1 2.486838 1_455
O7 Y0 2.486838 1_555
O7 Y0 2.486838 1_455
O8 Y1 2.486838 1_555
O8 Y1 2.486838 1_455
O10 Y0 2.669352 1_455
O10 Y0 2.669352 1_555
O10 Y1 2.669352 1_454
O10 Y1 2.669352 1_554
