# generated using pymatgen
data_Y2Mn3Si5
_symmetry_space_group_name_H-M   'P 1'
_cell_length_a   10.63322066
_cell_length_b   10.63322066
_cell_length_c   5.47870930
_cell_angle_alpha   90.00000000
_cell_angle_beta   90.00000000
_cell_angle_gamma   90.00000000
_symmetry_Int_Tables_number   1
_chemical_formula_structural   Y2Mn3Si5
_chemical_formula_sum   'Y8 Mn12 Si20'
_cell_volume   619.45235770
_cell_formula_units_Z   4
loop_
 _symmetry_equiv_pos_site_id
 _symmetry_equiv_pos_as_xyz
  1  'x, y, z'
loop_
 _atom_site_type_symbol
 _atom_site_label
 _atom_site_symmetry_multiplicity
 _atom_site_fract_x
 _atom_site_fract_y
 _atom_site_fract_z
 _atom_site_occupancy
  Y  Y0  1  0.57516926  0.73803733  0.50000000  1
  Y  Y1  1  0.42483074  0.26196267  0.50000000  1
  Y  Y2  1  0.07516926  0.76196267  0.00000000  1
  Y  Y3  1  0.92483074  0.23803733  0.00000000  1
  Y  Y4  1  0.26196267  0.57516926  0.50000000  1
  Y  Y5  1  0.73803733  0.42483074  0.50000000  1
  Y  Y6  1  0.23803733  0.07516926  0.00000000  1
  Y  Y7  1  0.76196267  0.92483074  0.00000000  1
  Mn  Mn0  1  0.88184077  0.85998175  0.50000000  1
  Mn  Mn1  1  0.11815923  0.14001825  0.50000000  1
  Mn  Mn2  1  0.38184077  0.64001825  0.00000000  1
  Mn  Mn3  1  0.61815923  0.35998175  0.00000000  1
  Mn  Mn4  1  0.14001825  0.88184077  0.50000000  1
  Mn  Mn5  1  0.85998175  0.11815923  0.50000000  1
  Mn  Mn6  1  0.35998175  0.38184077  0.00000000  1
  Mn  Mn7  1  0.64001825  0.61815923  0.00000000  1
  Mn  Mn8  1  0.50000000  -0.00000000  0.25000000  1
  Mn  Mn9  1  0.00000000  0.50000000  0.75000000  1
  Mn  Mn10  1  0.00000000  0.50000000  0.25000000  1
  Mn  Mn11  1  0.50000000  -0.00000000  0.75000000  1
  Si  Si0  1  0.67530993  0.17530993  0.25000000  1
  Si  Si1  1  0.32469007  0.82469007  0.25000000  1
  Si  Si2  1  0.17530993  0.32469007  0.75000000  1
  Si  Si3  1  0.82469007  0.67530993  0.75000000  1
  Si  Si4  1  0.82469007  0.67530993  0.25000000  1
  Si  Si5  1  0.17530993  0.32469007  0.25000000  1
  Si  Si6  1  0.67530993  0.17530993  0.75000000  1
  Si  Si7  1  0.32469007  0.82469007  0.75000000  1
  Si  Si8  1  0.50000000  0.50000000  0.25849534  1
  Si  Si9  1  0.00000000  -0.00000000  0.75849534  1
  Si  Si10  1  0.50000000  0.50000000  0.74150466  1
  Si  Si11  1  0.00000000  -0.00000000  0.24150466  1
  Si  Si12  1  0.68440902  0.97845386  0.50000000  1
  Si  Si13  1  0.31559098  0.02154614  0.50000000  1
  Si  Si14  1  0.18440902  0.52154614  0.00000000  1
  Si  Si15  1  0.81559098  0.47845386  0.00000000  1
  Si  Si16  1  0.02154614  0.68440902  0.50000000  1
  Si  Si17  1  0.97845386  0.31559098  0.50000000  1
  Si  Si18  1  0.47845386  0.18440902  0.00000000  1
  Si  Si19  1  0.52154614  0.81559098  0.00000000  1
loop_
_geom_bond_atom_site_label_1
_geom_bond_atom_site_label_2
_geom_bond_distance
_geom_bond_site_symmetry_2
Mn0 Si16 2.385811 1_655
Mn0 Si11 2.408509 1_665
Mn0 Si9 2.408509 1_665
Mn0 Si12 2.448296 1_555
Mn0 Si4 2.470072 1_555
Mn0 Si3 2.470072 1_555
Mn0 Y7 3.099094 1_556
Mn0 Y7 3.099094 1_555
Mn1 Si17 2.385811 1_455
Mn1 Si11 2.408509 1_555
Mn1 Si9 2.408509 1_555
Mn1 Si13 2.448296 1_555
Mn1 Si5 2.470072 1_555
Mn1 Si2 2.470072 1_555
Mn1 Y6 3.099094 1_556
Mn1 Y6 3.099094 1_555
Mn2 Si19 2.385811 1_555
Mn2 Si8 2.408509 1_555
Mn2 Si10 2.408509 1_554
Mn2 Si14 2.448296 1_555
Mn2 Si7 2.470072 1_554
Mn2 Si1 2.470072 1_555
Mn2 Y4 3.099094 1_555
Mn2 Y4 3.099094 1_554
Mn3 Si18 2.385811 1_555
Mn3 Si10 2.408509 1_554
Mn3 Si8 2.408509 1_555
Mn3 Si15 2.448296 1_555
Mn3 Si0 2.470072 1_555
Mn3 Si6 2.470072 1_554
Mn3 Y5 3.099094 1_555
Mn3 Y5 3.099094 1_554
Mn4 Si13 2.385811 1_565
Mn4 Si9 2.408509 1_565
Mn4 Si11 2.408509 1_565
Mn4 Si16 2.448296 1_555
Mn4 Si7 2.470072 1_555
Mn4 Si1 2.470072 1_555
Mn4 Y2 3.099094 1_555
Mn4 Y2 3.099094 1_556
Mn5 Si12 2.385811 1_545
Mn5 Si11 2.408509 1_655
Mn5 Si9 2.408509 1_655
Mn5 Si17 2.448296 1_555
Mn5 Si6 2.470072 1_555
Mn5 Si0 2.470072 1_555
Mn5 Y3 3.099094 1_556
Mn5 Y3 3.099094 1_555
Mn6 Si14 2.385811 1_555
Mn6 Si8 2.408509 1_555
Mn6 Si10 2.408509 1_554
Mn6 Si18 2.448296 1_555
Mn6 Si2 2.470072 1_554
Mn6 Si5 2.470072 1_555
Mn6 Y1 3.099094 1_555
Mn6 Y1 3.099094 1_554
Mn7 Si15 2.385811 1_555
Mn7 Si10 2.408509 1_554
Mn7 Si8 2.408509 1_555
Mn7 Si19 2.448296 1_555
Mn7 Si4 2.470072 1_555
Mn7 Si3 2.470072 1_554
Mn7 Y0 3.099094 1_555
Mn7 Y0 3.099094 1_554
Mn8 Si13 2.402808 1_555
Mn8 Si18 2.402808 1_555
Mn8 Si12 2.402808 1_545
Mn8 Si19 2.402808 1_545
Mn8 Si0 2.636248 1_555
Mn8 Si1 2.636248 1_545
Mn8 Y6 3.205297 1_555
Mn8 Y7 3.205297 1_545
Mn8 Y0 3.205297 1_545
Mn8 Y1 3.205297 1_555
Mn9 Si17 2.402808 1_455
Mn9 Si15 2.402808 1_456
Mn9 Si16 2.402808 1_555
Mn9 Si14 2.402808 1_556
Mn9 Si3 2.636248 1_455
Mn9 Si2 2.636248 1_555
Mn9 Y5 3.205297 1_455
Mn9 Y2 3.205297 1_556
Mn9 Y4 3.205297 1_555
Mn9 Y3 3.205297 1_456
Mn10 Si17 2.402808 1_455
Mn10 Si15 2.402808 1_455
Mn10 Si16 2.402808 1_555
Mn10 Si14 2.402808 1_555
Mn10 Si4 2.636248 1_455
Mn10 Si5 2.636248 1_555
Mn10 Y2 3.205297 1_555
Mn10 Y3 3.205297 1_455
Mn10 Y5 3.205297 1_455
Mn10 Y4 3.205297 1_555
Mn11 Si13 2.402808 1_555
Mn11 Si12 2.402808 1_545
Mn11 Si18 2.402808 1_556
Mn11 Si19 2.402808 1_546
Mn11 Si6 2.636248 1_555
Mn11 Si7 2.636248 1_545
Mn11 Y6 3.205297 1_556
Mn11 Y7 3.205297 1_546
Mn11 Y0 3.205297 1_545
Mn11 Y1 3.205297 1_555
Si0 Si18 2.503382 1_555
Si0 Si12 2.503382 1_545
Si0 Si6 2.739355 1_555
Si0 Si6 2.739355 1_554
Si0 Y3 3.059480 1_555
Si0 Y5 3.059480 1_555
Si0 Y1 3.133479 1_555
Si0 Y7 3.133479 1_545
Si1 Si19 2.503382 1_555
Si1 Si13 2.503382 1_565
Si1 Si7 2.739355 1_555
Si1 Si7 2.739355 1_554
Si1 Y4 3.059480 1_555
Si1 Y2 3.059480 1_555
Si1 Y6 3.133479 1_565
Si1 Y0 3.133479 1_555
Si2 Si5 2.739355 1_555
Si2 Si5 2.739355 1_556
Si2 Y6 3.059480 1_556
Si2 Y1 3.059480 1_555
Si2 Y4 3.133479 1_555
Si2 Y3 3.133479 1_456
Si3 Si4 2.739355 1_555
Si3 Si4 2.739355 1_556
Si3 Y7 3.059480 1_556
Si3 Y0 3.059480 1_555
Si3 Y2 3.133479 1_656
Si3 Y5 3.133479 1_555
Si4 Y7 3.059480 1_555
Si4 Y0 3.059480 1_555
Si4 Y2 3.133479 1_655
Si4 Y5 3.133479 1_555
Si5 Y1 3.059480 1_555
Si5 Y6 3.059480 1_555
Si5 Y4 3.133479 1_555
Si5 Y3 3.133479 1_455
Si6 Y5 3.059480 1_555
Si6 Y3 3.059480 1_556
Si6 Y1 3.133479 1_555
Si6 Y7 3.133479 1_546
Si7 Y2 3.059480 1_556
Si7 Y4 3.059480 1_555
Si7 Y0 3.133479 1_555
Si7 Y6 3.133479 1_566
Si8 Y4 2.965811 1_555
Si8 Y1 2.965811 1_555
Si8 Y0 2.965811 1_555
Si8 Y5 2.965811 1_555
Si9 Y6 2.965811 1_556
Si9 Y3 2.965811 1_456
Si9 Y7 2.965811 1_446
Si9 Y2 2.965811 1_546
Si10 Si8 2.646268 1_555
Si10 Y4 2.965811 1_555
Si10 Y1 2.965811 1_555
Si10 Y5 2.965811 1_555
Si10 Y0 2.965811 1_555
Si11 Si9 2.646268 1_554
Si11 Y6 2.965811 1_555
Si11 Y3 2.965811 1_455
Si11 Y7 2.965811 1_445
Si11 Y2 2.965811 1_545
Si12 Si6 2.503382 1_565
Si12 Y0 2.807924 1_555
Si12 Y7 2.917056 1_556
Si12 Y7 2.917056 1_555
Si13 Si7 2.503382 1_545
Si13 Y1 2.807924 1_555
Si13 Y6 2.917056 1_555
Si13 Y6 2.917056 1_556
Si14 Si2 2.503382 1_554
Si14 Si5 2.503382 1_555
Si14 Y2 2.807924 1_555
Si14 Y4 2.917056 1_555
Si14 Y4 2.917056 1_554
Si15 Si3 2.503382 1_554
Si15 Si4 2.503382 1_555
Si15 Y3 2.807924 1_555
Si15 Y5 2.917056 1_555
Si15 Y5 2.917056 1_554
Si16 Si3 2.503382 1_455
Si16 Si4 2.503382 1_455
Si16 Y4 2.807924 1_555
Si16 Y2 2.917056 1_555
Si16 Y2 2.917056 1_556
Si17 Si5 2.503382 1_655
Si17 Si2 2.503382 1_655
Si17 Y5 2.807924 1_555
Si17 Y3 2.917056 1_556
Si17 Y3 2.917056 1_555
Si18 Si6 2.503382 1_554
Si18 Y6 2.807924 1_555
Si18 Y1 2.917056 1_555
Si18 Y1 2.917056 1_554
Si19 Si7 2.503382 1_554
Si19 Y7 2.807924 1_555
Si19 Y0 2.917056 1_554
Si19 Y0 2.917056 1_555
