# generated using pymatgen
data_AlV2O4
_symmetry_space_group_name_H-M   'P 1'
_cell_length_a   5.90154654
_cell_length_b   10.35628502
_cell_length_c   5.90441955
_cell_angle_alpha   90.56646532
_cell_angle_beta   60.46086822
_cell_angle_gamma   73.84732719
_symmetry_Int_Tables_number   1
_chemical_formula_structural   AlV2O4
_chemical_formula_sum   'Al4 V8 O16'
_cell_volume   296.86201479
_cell_formula_units_Z   4
loop_
 _symmetry_equiv_pos_site_id
 _symmetry_equiv_pos_as_xyz
  1  'x, y, z'
loop_
 _atom_site_type_symbol
 _atom_site_label
 _atom_site_symmetry_multiplicity
 _atom_site_fract_x
 _atom_site_fract_y
 _atom_site_fract_z
 _atom_site_occupancy
  Al  Al0  1  0.62765000  0.30846500  0.93664700  1
  Al  Al1  1  0.62574300  0.80872700  0.43494000  1
  Al  Al2  1  0.37706500  0.18848500  0.56497800  1
  Al  Al3  1  0.37345100  0.68971300  0.06252300  1
  V  V0  1  0.50036300  0.49867900  0.49720400  1
  V  V1  1  0.99861300  0.49875300  0.99890400  1
  V  V2  1  0.99726500  0.75137900  0.74796900  1
  V  V3  1  0.00116400  0.99972900  0.00102500  1
  V  V4  1  0.99994200  0.49728500  0.49701100  1
  V  V5  1  0.50107400  0.99964200  0.00166600  1
  V  V6  1  0.00178700  0.99947300  0.50093600  1
  V  V7  1  0.99814100  0.25800800  0.25680800  1
  O  O0  1  0.25157000  0.12650100  0.37700900  1
  O  O1  1  0.24189700  0.63129500  0.87281700  1
  O  O2  1  0.74912900  0.37319500  0.12238600  1
  O  O3  1  0.75259100  0.87011600  0.62436700  1
  O  O4  1  0.74705800  0.37133200  0.62978300  1
  O  O5  1  0.74973500  0.87242000  0.12472000  1
  O  O6  1  0.25324300  0.37113700  0.62480500  1
  O  O7  1  0.25307700  0.87491200  0.12610900  1
  O  O8  1  0.75294700  0.12896100  0.37809200  1
  O  O9  1  0.74561800  0.62969400  0.87350300  1
  O  O10  1  0.74910000  0.12353700  0.87468300  1
  O  O11  1  0.74652400  0.62674700  0.37266700  1
  O  O12  1  0.25032300  0.12855300  0.88197100  1
  O  O13  1  0.24431800  0.62981300  0.37470900  1
  O  O14  1  0.25795500  0.37152600  0.11864300  1
  O  O15  1  0.25265700  0.87192400  0.62312400  1
loop_
_geom_bond_atom_site_label_1
_geom_bond_atom_site_label_2
_geom_bond_distance
_geom_bond_site_symmetry_2
Al0 O2 1.787224 1_556
Al0 O4 1.795251 1_555
Al0 O14 1.795257 1_556
Al0 O10 1.810874 1_555
Al1 O11 1.782010 1_555
Al1 O15 1.811724 1_555
Al1 O3 1.814351 1_555
Al1 O5 1.815603 1_555
Al2 O6 1.788875 1_555
Al2 O0 1.803681 1_555
Al2 O8 1.824970 1_555
Al2 O12 1.829940 1_555
Al3 O13 1.806598 1_555
Al3 O9 1.807096 1_554
Al3 O7 1.813537 1_555
Al3 O1 1.824504 1_554
O0 V5 2.110463 1_545
O0 V6 2.115063 1_545
O0 V7 2.127874 1_455
O1 V2 2.059811 1_455
O1 V1 2.136014 1_455
O1 V0 2.137755 1_555
O2 V7 2.099040 1_555
O2 V1 2.101349 1_554
O2 V0 2.102338 1_555
O3 V2 2.049049 1_555
O3 V5 2.130250 1_556
O3 V6 2.132434 1_655
O4 V7 2.046076 1_555
O4 V4 2.119681 1_555
O4 V0 2.132501 1_555
O5 V2 2.091773 1_554
O5 V5 2.100432 1_555
O5 V3 2.124242 1_655
O6 V0 2.108853 1_555
O6 V1 2.109069 1_455
O6 V4 2.134434 1_455
O7 V5 2.088251 1_555
O7 V6 2.098623 1_555
O7 V3 2.111601 1_555
O8 V6 2.110644 1_645
O8 V7 2.113279 1_555
O8 V3 2.127960 1_645
O9 V2 2.077843 1_555
O9 V4 2.139949 1_555
O9 V1 2.144701 1_555
O10 V5 2.081552 1_546
O10 V6 2.092230 1_645
O10 V3 2.113106 1_646
O11 V1 2.109068 1_554
O11 V0 2.109085 1_555
O11 V4 2.135366 1_555
O12 V5 2.102931 1_546
O12 V7 2.119884 1_456
O12 V3 2.127689 1_546
O13 V2 2.079258 1_455
O13 V4 2.139901 1_455
O13 V0 2.146162 1_555
O14 V7 2.046255 1_455
O14 V4 2.119097 1_455
O14 V1 2.131132 1_454
O15 V2 2.084022 1_455
O15 V6 2.107420 1_555
O15 V3 2.125210 1_556
