# generated using pymatgen
data_In2AgSe3Cl
_symmetry_space_group_name_H-M   'P 1'
_cell_length_a   8.06875927
_cell_length_b   8.06875927
_cell_length_c   8.06875898
_cell_angle_alpha   61.13748306
_cell_angle_beta   61.13748306
_cell_angle_gamma   61.13748260
_symmetry_Int_Tables_number   1
_chemical_formula_structural   In2AgSe3Cl
_chemical_formula_sum   'In4 Ag2 Se6 Cl2'
_cell_volume   380.96256828
_cell_formula_units_Z   2
loop_
 _symmetry_equiv_pos_site_id
 _symmetry_equiv_pos_as_xyz
  1  'x, y, z'
loop_
 _atom_site_type_symbol
 _atom_site_label
 _atom_site_symmetry_multiplicity
 _atom_site_fract_x
 _atom_site_fract_y
 _atom_site_fract_z
 _atom_site_occupancy
  In  In0  1  0.00000000  0.00000000  0.00000000  1
  In  In1  1  0.00000000  0.50000000  0.00000000  1
  In  In2  1  0.50000000  0.00000000  0.00000000  1
  In  In3  1  0.00000000  0.00000000  0.50000000  1
  Ag  Ag0  1  0.60187900  0.60187900  0.60187900  1
  Ag  Ag1  1  0.39812100  0.39812100  0.39812100  1
  Se  Se0  1  0.24143200  0.78391500  0.24143200  1
  Se  Se1  1  0.78391500  0.24143200  0.24143200  1
  Se  Se2  1  0.24143200  0.24143200  0.78391500  1
  Se  Se3  1  0.75856800  0.21608500  0.75856800  1
  Se  Se4  1  0.21608500  0.75856800  0.75856800  1
  Se  Se5  1  0.75856800  0.75856800  0.21608500  1
  Cl  Cl0  1  0.24916000  0.24916000  0.24916000  1
  Cl  Cl1  1  0.75084000  0.75084000  0.75084000  1
loop_
_geom_bond_atom_site_label_1
_geom_bond_atom_site_label_2
_geom_bond_distance
_geom_bond_site_symmetry_2
In0 Se1 2.781250 1_455
In0 Se0 2.781250 1_545
In0 Se4 2.781250 1_544
In0 Se3 2.781250 1_454
In0 Se2 2.781251 1_554
In0 Se5 2.781251 1_445
In1 Se5 2.737992 1_455
In1 Se2 2.737992 1_554
In1 Se4 2.737992 1_554
In1 Se1 2.737992 1_455
In2 Se5 2.737992 1_545
In2 Se2 2.737992 1_554
In2 Se3 2.737992 1_554
In2 Se0 2.737992 1_545
In3 Se4 2.737992 1_545
In3 Se3 2.737992 1_455
In3 Se1 2.737992 1_455
In3 Se0 2.737992 1_545
Ag0 Se5 2.613628 1_555
Ag0 Se3 2.613628 1_555
Ag0 Se4 2.613628 1_555
Ag0 Cl1 2.918553 1_555
Ag1 Se2 2.613628 1_555
Ag1 Se0 2.613628 1_555
Ag1 Se1 2.613628 1_555
Ag1 Cl0 2.918553 1_555
Cl0 In2 2.867987 1_555
Cl0 In1 2.867987 1_555
Cl0 In3 2.867987 1_555
Cl1 In1 2.867987 1_656
Cl1 In2 2.867987 1_566
Cl1 In3 2.867987 1_665
