# generated using pymatgen
data_NbSe4
_symmetry_space_group_name_H-M   'P 1'
_cell_length_a   5.95873061
_cell_length_b   5.95872958
_cell_length_c   6.46715309
_cell_angle_alpha   90.00000000
_cell_angle_beta   90.00000000
_cell_angle_gamma   90.00000000
_symmetry_Int_Tables_number   1
_chemical_formula_structural   NbSe4
_chemical_formula_sum   'Nb2 Se8'
_cell_volume   229.62574060
_cell_formula_units_Z   2
loop_
 _symmetry_equiv_pos_site_id
 _symmetry_equiv_pos_as_xyz
  1  'x, y, z'
loop_
 _atom_site_type_symbol
 _atom_site_label
 _atom_site_symmetry_multiplicity
 _atom_site_fract_x
 _atom_site_fract_y
 _atom_site_fract_z
 _atom_site_occupancy
  Nb  Nb0  1  -0.00000000  -0.00000000  0.74999900  1
  Nb  Nb1  1  -0.00000000  -0.00000000  0.25000100  1
  Se  Se0  1  0.33701917  0.13426383  0.50000000  1
  Se  Se1  1  0.66298083  0.86573617  0.50000000  1
  Se  Se2  1  0.33701917  0.86573617  0.00000000  1
  Se  Se3  1  0.66298083  0.13426383  0.00000000  1
  Se  Se4  1  0.13426383  0.66298083  0.50000000  1
  Se  Se5  1  0.86573617  0.33701917  0.50000000  1
  Se  Se6  1  0.86573617  0.66298083  0.00000000  1
  Se  Se7  1  0.13426383  0.33701917  0.00000000  1
loop_
_geom_bond_atom_site_label_1
_geom_bond_atom_site_label_2
_geom_bond_distance
_geom_bond_site_symmetry_2
Nb0 Se5 2.699434 1_455
Nb0 Se4 2.699434 1_545
Nb0 Se0 2.699434 1_555
Nb0 Se1 2.699434 1_445
Nb0 Se6 2.699441 1_446
Nb0 Se7 2.699441 1_556
Nb0 Se2 2.699442 1_546
Nb0 Se3 2.699442 1_456
Nb1 Se4 2.699434 1_545
Nb1 Se5 2.699434 1_455
Nb1 Se0 2.699434 1_555
Nb1 Se1 2.699434 1_445
Nb1 Se6 2.699441 1_445
Nb1 Se7 2.699441 1_555
Nb1 Se3 2.699442 1_455
Nb1 Se2 2.699442 1_545
Se0 Se1 2.516519 1_545
Se2 Se3 2.516519 1_565
Se4 Se5 2.516519 1_455
Se6 Se7 2.516519 1_655
