# generated using pymatgen
data_Nd2(SiPt)3
_symmetry_space_group_name_H-M   'P 1'
_cell_length_a   5.59732200
_cell_length_b   5.59732200
_cell_length_c   42.32021600
_cell_angle_alpha   90.00000000
_cell_angle_beta   90.00000000
_cell_angle_gamma   90.00000000
_symmetry_Int_Tables_number   1
_chemical_formula_structural   Nd2(SiPt)3
_chemical_formula_sum   'Nd16 Si24 Pt24'
_cell_volume   1325.89294164
_cell_formula_units_Z   8
loop_
 _symmetry_equiv_pos_site_id
 _symmetry_equiv_pos_as_xyz
  1  'x, y, z'
loop_
 _atom_site_type_symbol
 _atom_site_label
 _atom_site_symmetry_multiplicity
 _atom_site_fract_x
 _atom_site_fract_y
 _atom_site_fract_z
 _atom_site_occupancy
  Nd  Nd0_0  1  0.25000000  0.25000000  0.37686200  1
  Nd  Nd0_1  1  0.25000000  0.25000000  0.87686200  1
  Nd  Nd0_2  1  0.25000000  0.75000000  0.37686200  1
  Nd  Nd0_3  1  0.25000000  0.75000000  0.87686200  1
  Nd  Nd0_4  1  0.75000000  0.25000000  0.37686200  1
  Nd  Nd0_5  1  0.75000000  0.25000000  0.87686200  1
  Nd  Nd0_6  1  0.75000000  0.75000000  0.37686200  1
  Nd  Nd0_7  1  0.75000000  0.75000000  0.87686200  1
  Nd  Nd1_0  1  0.25000000  0.25000000  0.12313800  1
  Nd  Nd1_1  1  0.25000000  0.25000000  0.62313800  1
  Nd  Nd1_2  1  0.25000000  0.75000000  0.12313800  1
  Nd  Nd1_3  1  0.25000000  0.75000000  0.62313800  1
  Nd  Nd1_4  1  0.75000000  0.25000000  0.12313800  1
  Nd  Nd1_5  1  0.75000000  0.25000000  0.62313800  1
  Nd  Nd1_6  1  0.75000000  0.75000000  0.12313800  1
  Nd  Nd1_7  1  0.75000000  0.75000000  0.62313800  1
  Si  Si0_0  1  0.25000000  0.25000000  0.19445500  1
  Si  Si0_1  1  0.25000000  0.25000000  0.69445500  1
  Si  Si0_2  1  0.25000000  0.75000000  0.19445500  1
  Si  Si0_3  1  0.25000000  0.75000000  0.69445500  1
  Si  Si0_4  1  0.75000000  0.25000000  0.19445500  1
  Si  Si0_5  1  0.75000000  0.25000000  0.69445500  1
  Si  Si0_6  1  0.75000000  0.75000000  0.19445500  1
  Si  Si0_7  1  0.75000000  0.75000000  0.69445500  1
  Si  Si1_0  1  0.25000000  0.25000000  0.30554500  1
  Si  Si1_1  1  0.25000000  0.25000000  0.80554500  1
  Si  Si1_2  1  0.25000000  0.75000000  0.30554500  1
  Si  Si1_3  1  0.25000000  0.75000000  0.80554500  1
  Si  Si1_4  1  0.75000000  0.25000000  0.30554500  1
  Si  Si1_5  1  0.75000000  0.25000000  0.80554500  1
  Si  Si1_6  1  0.75000000  0.75000000  0.30554500  1
  Si  Si1_7  1  0.75000000  0.75000000  0.80554500  1
  Si  Si2_0  1  0.25000000  0.25000000  0.00000000  1
  Si  Si2_1  1  0.25000000  0.25000000  0.50000000  1
  Si  Si2_2  1  0.25000000  0.75000000  0.00000000  1
  Si  Si2_3  1  0.25000000  0.75000000  0.50000000  1
  Si  Si2_4  1  0.75000000  0.25000000  0.00000000  1
  Si  Si2_5  1  0.75000000  0.25000000  0.50000000  1
  Si  Si2_6  1  0.75000000  0.75000000  0.00000000  1
  Si  Si2_7  1  0.75000000  0.75000000  0.50000000  1
  Pt  Pt0_0  1  0.25000000  0.25000000  0.05596450  1
  Pt  Pt0_1  1  0.25000000  0.25000000  0.55596450  1
  Pt  Pt0_2  1  0.25000000  0.75000000  0.05596450  1
  Pt  Pt0_3  1  0.25000000  0.75000000  0.55596450  1
  Pt  Pt0_4  1  0.75000000  0.25000000  0.05596450  1
  Pt  Pt0_5  1  0.75000000  0.25000000  0.55596450  1
  Pt  Pt0_6  1  0.75000000  0.75000000  0.05596450  1
  Pt  Pt0_7  1  0.75000000  0.75000000  0.55596450  1
  Pt  Pt1_0  1  0.25000000  0.25000000  0.44403550  1
  Pt  Pt1_1  1  0.25000000  0.25000000  0.94403550  1
  Pt  Pt1_2  1  0.25000000  0.75000000  0.44403550  1
  Pt  Pt1_3  1  0.25000000  0.75000000  0.94403550  1
  Pt  Pt1_4  1  0.75000000  0.25000000  0.44403550  1
  Pt  Pt1_5  1  0.75000000  0.25000000  0.94403550  1
  Pt  Pt1_6  1  0.75000000  0.75000000  0.44403550  1
  Pt  Pt1_7  1  0.75000000  0.75000000  0.94403550  1
  Pt  Pt2_0  1  0.25000000  0.25000000  0.25000000  1
  Pt  Pt2_1  1  0.25000000  0.25000000  0.75000000  1
  Pt  Pt2_2  1  0.25000000  0.75000000  0.25000000  1
  Pt  Pt2_3  1  0.25000000  0.75000000  0.75000000  1
  Pt  Pt2_4  1  0.75000000  0.25000000  0.25000000  1
  Pt  Pt2_5  1  0.75000000  0.25000000  0.75000000  1
  Pt  Pt2_6  1  0.75000000  0.75000000  0.25000000  1
  Pt  Pt2_7  1  0.75000000  0.75000000  0.75000000  1
loop_
_geom_bond_atom_site_label_1
_geom_bond_atom_site_label_2
_geom_bond_distance
_geom_bond_site_symmetry_2
Nd0_0 Nd0_2 2.798661 1_545
Nd0_0 Nd0_4 2.798661 1_455
Nd0_0 Nd0_4 2.798661 1_555
Nd0_0 Nd0_2 2.798661 1_555
Nd0_0 Pt1_0 2.842797 1_555
Nd0_0 Si1_0 3.018151 1_555
Nd0_1 Nd0_5 2.798661 1_455
Nd0_1 Nd0_3 2.798661 1_545
Nd0_1 Nd0_5 2.798661 1_555
Nd0_1 Nd0_3 2.798661 1_555
Nd0_1 Pt1_1 2.842797 1_555
Nd0_1 Si1_1 3.018151 1_555
Nd0_2 Nd0_6 2.798661 1_455
Nd0_2 Nd0_6 2.798661 1_555
Nd0_2 Pt1_2 2.842797 1_555
Nd0_2 Si1_2 3.018151 1_555
Nd0_3 Nd0_7 2.798661 1_455
Nd0_3 Nd0_7 2.798661 1_555
Nd0_3 Pt1_3 2.842797 1_555
Nd0_3 Si1_3 3.018151 1_555
Nd0_4 Nd0_6 2.798661 1_545
Nd0_4 Nd0_6 2.798661 1_555
Nd0_4 Pt1_4 2.842797 1_555
Nd0_4 Si1_4 3.018151 1_555
Nd0_5 Nd0_7 2.798661 1_545
Nd0_5 Nd0_7 2.798661 1_555
Nd0_5 Pt1_5 2.842797 1_555
Nd0_5 Si1_5 3.018151 1_555
Nd0_6 Pt1_6 2.842797 1_555
Nd0_6 Si1_6 3.018151 1_555
Nd0_7 Pt1_7 2.842797 1_555
Nd0_7 Si1_7 3.018151 1_555
Nd1_0 Nd1_2 2.798661 1_545
Nd1_0 Nd1_4 2.798661 1_455
Nd1_0 Nd1_4 2.798661 1_555
Nd1_0 Nd1_2 2.798661 1_555
Nd1_0 Pt0_0 2.842797 1_555
Nd1_0 Si0_0 3.018151 1_555
Nd1_1 Nd1_3 2.798661 1_545
Nd1_1 Nd1_5 2.798661 1_455
Nd1_1 Nd1_5 2.798661 1_555
Nd1_1 Nd1_3 2.798661 1_555
Nd1_1 Pt0_1 2.842797 1_555
Nd1_1 Si0_1 3.018151 1_555
Nd1_2 Nd1_6 2.798661 1_455
Nd1_2 Nd1_6 2.798661 1_555
Nd1_2 Pt0_2 2.842797 1_555
Nd1_2 Si0_2 3.018151 1_555
Nd1_3 Nd1_7 2.798661 1_455
Nd1_3 Nd1_7 2.798661 1_555
Nd1_3 Pt0_3 2.842797 1_555
Nd1_3 Si0_3 3.018151 1_555
Nd1_4 Nd1_6 2.798661 1_545
Nd1_4 Nd1_6 2.798661 1_555
Nd1_4 Pt0_4 2.842797 1_555
Nd1_4 Si0_4 3.018151 1_555
Nd1_5 Nd1_7 2.798661 1_545
Nd1_5 Nd1_7 2.798661 1_555
Nd1_5 Pt0_5 2.842797 1_555
Nd1_5 Si0_5 3.018151 1_555
Nd1_6 Pt0_6 2.842797 1_555
Nd1_6 Si0_6 3.018151 1_555
Nd1_7 Pt0_7 2.842797 1_555
Nd1_7 Si0_7 3.018151 1_555
Pt0_0 Si2_0 2.368430 1_555
Pt0_1 Si2_1 2.368430 1_555
Pt0_2 Si2_2 2.368430 1_555
Pt0_3 Si2_3 2.368430 1_555
Pt0_4 Si2_4 2.368430 1_555
Pt0_5 Si2_5 2.368430 1_555
Pt0_6 Si2_6 2.368430 1_555
Pt0_7 Si2_7 2.368430 1_555
Pt1_0 Si2_1 2.368430 1_555
Pt1_1 Si2_0 2.368430 1_556
Pt1_2 Si2_3 2.368430 1_555
Pt1_3 Si2_2 2.368430 1_556
Pt1_4 Si2_5 2.368430 1_555
Pt1_5 Si2_4 2.368430 1_556
Pt1_6 Si2_7 2.368430 1_555
Pt1_7 Si2_6 2.368430 1_556
Pt2_0 Si0_0 2.350676 1_555
Pt2_0 Si1_0 2.350676 1_555
Pt2_1 Si0_1 2.350676 1_555
Pt2_1 Si1_1 2.350676 1_555
Pt2_2 Si0_2 2.350676 1_555
Pt2_2 Si1_2 2.350676 1_555
Pt2_3 Si0_3 2.350676 1_555
Pt2_3 Si1_3 2.350676 1_555
Pt2_4 Si0_4 2.350676 1_555
Pt2_4 Si1_4 2.350676 1_555
Pt2_5 Si0_5 2.350676 1_555
Pt2_5 Si1_5 2.350676 1_555
Pt2_6 Si0_6 2.350676 1_555
Pt2_6 Si1_6 2.350676 1_555
Pt2_7 Si0_7 2.350676 1_555
Pt2_7 Si1_7 2.350676 1_555
