# generated using pymatgen
data_TmAl7Fe5
_symmetry_space_group_name_H-M   'P 1'
_cell_length_a   6.60801149
_cell_length_b   6.60165856
_cell_length_c   6.59944128
_cell_angle_alpha   135.74883233
_cell_angle_beta   98.12906480
_cell_angle_gamma   98.18902349
_symmetry_Int_Tables_number   1
_chemical_formula_structural   TmAl7Fe5
_chemical_formula_sum   'Tm1 Al7 Fe5'
_cell_volume   186.08530440
_cell_formula_units_Z   1
loop_
 _symmetry_equiv_pos_site_id
 _symmetry_equiv_pos_as_xyz
  1  'x, y, z'
loop_
 _atom_site_type_symbol
 _atom_site_label
 _atom_site_symmetry_multiplicity
 _atom_site_fract_x
 _atom_site_fract_y
 _atom_site_fract_z
 _atom_site_occupancy
  Tm  Tm0  1  0.99508636  -0.00008161  0.99504036  1
  Al  Al0  1  0.34023613  0.00025208  0.34041353  1
  Al  Al1  1  0.66083236  -0.00011871  0.66073242  1
  Al  Al2  1  0.66369384  0.65685200  0.00663272  1
  Al  Al3  1  0.34976327  0.34304014  0.00667986  1
  Al  Al4  1  0.22642410  0.49996962  0.72647554  1
  Al  Al5  1  0.20597070  0.70952254  0.49645836  1
  Al  Al6  1  0.78706530  0.29063421  0.49653228  1
  Fe  Fe0  1  0.50159935  0.99960158  0.00095839  1
  Fe  Fe1  1  0.50156859  0.50064648  0.50200633  1
  Fe  Fe2  1  0.00136818  0.49941887  0.00099962  1
  Fe  Fe3  1  0.00133281  0.00037849  0.50201846  1
  Fe  Fe4  1  0.76505800  0.49988330  0.26505112  1
loop_
_geom_bond_atom_site_label_1
_geom_bond_atom_site_label_2
_geom_bond_distance
_geom_bond_site_symmetry_2
Al0 Fe1 2.610540 1_555
Al0 Fe0 2.611249 1_545
Al0 Fe2 2.612678 1_545
Al0 Fe3 2.612929 1_555
Al0 Al4 2.673539 1_555
Al0 Al4 2.673968 1_544
Al0 Al1 2.774730 1_555
Al0 Al5 2.852396 1_545
Al0 Al6 2.855224 1_555
Al0 Tm0 2.986324 1_454
Al1 Fe1 2.611777 1_545
Al1 Fe0 2.611908 1_546
Al1 Fe3 2.613249 1_655
Al1 Fe2 2.613373 1_656
Al1 Fe4 2.644253 1_556
Al1 Fe4 2.645161 1_545
Al1 Al6 2.886794 1_555
Al1 Al5 2.888622 1_545
Al1 Tm0 2.892586 1_555
Al2 Fe3 2.585243 1_665
Al2 Fe2 2.586365 1_655
Al2 Fe4 2.614826 1_555
Al2 Fe1 2.656735 1_554
Al2 Fe0 2.658773 1_555
Al2 Al3 2.715149 1_555
Al2 Al6 2.742341 1_554
Al2 Al6 2.743622 1_565
Al2 Al4 2.780930 1_554
Al2 Tm0 2.968728 1_564
Al3 Fe1 2.584049 1_555
Al3 Fe0 2.585482 1_545
Al3 Fe4 2.616961 1_555
Al3 Fe3 2.658035 1_554
Al3 Fe2 2.659961 1_555
Al3 Al5 2.742450 1_544
Al3 Al5 2.743064 1_555
Al3 Al4 2.777740 1_554
Al3 Tm0 2.969395 1_454
Al4 Fe2 2.502766 1_556
Al4 Fe3 2.502960 1_555
Al4 Fe0 2.503525 1_556
Al4 Fe1 2.503807 1_555
Al4 Al5 2.690715 1_555
Al4 Al6 2.692293 1_455
Al4 Tm0 3.191025 1_454
Al4 Tm0 3.192936 1_465
Al5 Fe2 2.482244 1_555
Al5 Fe3 2.483871 1_565
Al5 Fe0 2.555286 1_556
Al5 Fe1 2.556880 1_555
Al5 Fe4 2.702136 1_455
Al5 Tm0 3.076499 1_465
Al5 Tm0 3.076695 1_454
Al6 Fe0 2.483346 1_545
Al6 Fe1 2.485009 1_555
Al6 Fe2 2.554547 1_656
Al6 Fe3 2.556467 1_655
Al6 Fe4 2.698263 1_555
Al6 Tm0 3.075264 1_565
Al6 Tm0 3.076510 1_554
Fe0 Fe1 2.480738 1_554
Fe0 Fe1 2.491297 1_565
Fe0 Fe4 2.496799 1_565
Fe0 Tm0 3.266440 1_564
Fe0 Tm0 3.342061 1_464
Fe1 Fe4 2.497640 1_555
Fe1 Tm0 3.264862 1_565
Fe1 Tm0 3.340657 1_454
Fe2 Fe3 2.481011 1_554
Fe2 Fe3 2.491024 1_565
Fe2 Fe4 2.497661 1_455
Fe2 Tm0 3.263701 1_454
Fe2 Tm0 3.338456 1_464
Fe3 Fe4 2.497592 1_445
Fe3 Tm0 3.261929 1_455
Fe3 Tm0 3.338002 1_454
Fe4 Tm0 3.183314 1_565
Fe4 Tm0 3.185807 1_554
