# generated using pymatgen
data_Ba4Mg(RhO3)4
_symmetry_space_group_name_H-M   'P 1'
_cell_length_a   6.04781211
_cell_length_b   5.71653206
_cell_length_c   10.20694813
_cell_angle_alpha   90.00000157
_cell_angle_beta   97.90052657
_cell_angle_gamma   118.20395382
_symmetry_Int_Tables_number   1
_chemical_formula_structural   Ba4Mg(RhO3)4
_chemical_formula_sum   'Ba4 Mg1 Rh4 O12'
_cell_volume   307.17673480
_cell_formula_units_Z   1
loop_
 _symmetry_equiv_pos_site_id
 _symmetry_equiv_pos_as_xyz
  1  'x, y, z'
loop_
 _atom_site_type_symbol
 _atom_site_label
 _atom_site_symmetry_multiplicity
 _atom_site_fract_x
 _atom_site_fract_y
 _atom_site_fract_z
 _atom_site_occupancy
  Ba  Ba0  1  0.81354400  0.40677200  0.71303500  1
  Ba  Ba1  1  0.32914100  0.66457100  0.26036500  1
  Ba  Ba2  1  0.05887700  0.02943900  0.48115600  1
  Ba  Ba3  1  0.89500700  0.94750300  0.05177700  1
  Mg  Mg0  1  0.36660900  0.18330400  0.86396200  1
  Rh  Rh0  1  0.35029500  0.67514800  0.87961600  1
  Rh  Rh1  1  0.69615300  0.34807600  0.38875400  1
  Rh  Rh2  1  0.56511500  0.28255700  0.12117500  1
  Rh  Rh3  1  0.41530200  0.70765200  0.61144000  1
  O  O0  1  0.26198800  0.38480300  0.72687600  1
  O  O1  1  0.77727900  0.15627400  0.24788300  1
  O  O2  1  0.35265800  0.17632800  0.27672600  1
  O  O3  1  0.66280100  0.83140100  0.78531700  1
  O  O4  1  0.26198800  0.87718700  0.72687600  1
  O  O5  1  0.77727900  0.62100500  0.24788300  1
  O  O6  1  0.62014600  0.04419300  0.51181700  1
  O  O7  1  0.32678100  0.40273200  0.01194200  1
  O  O8  1  0.32678100  0.92405000  0.01194200  1
  O  O9  1  0.62014600  0.57595200  0.51181700  1
  O  O10  1  0.08945000  0.54472500  0.46962300  1
  O  O11  1  0.74515700  0.37257900  0.96251800  1
loop_
_geom_bond_atom_site_label_1
_geom_bond_atom_site_label_2
_geom_bond_distance
_geom_bond_site_symmetry_2
Ba0 O11 2.628087 1_555
Ba0 O9 2.632563 1_555
Ba0 O6 2.632566 1_555
Ba0 O0 2.758235 1_655
Ba0 O4 2.758241 1_655
Ba0 O10 3.078116 1_655
Ba0 O3 3.089398 1_545
Ba0 O3 3.089403 1_555
Ba1 O10 2.654274 1_555
Ba1 O1 2.855984 1_565
Ba1 O5 2.855988 1_555
Ba1 O2 2.864735 1_565
Ba1 O2 2.864752 1_555
Ba1 O7 2.939384 1_555
Ba1 O8 2.939384 1_555
Ba1 O6 3.089046 1_565
Ba1 O9 3.089051 1_555
Ba1 O5 3.211694 1_455
Ba1 O1 3.211696 1_455
Ba2 O6 2.754124 1_455
Ba2 O9 2.754129 1_445
Ba2 O2 2.797280 1_555
Ba2 O10 2.866367 1_555
Ba2 O10 2.866373 1_545
Ba2 O4 2.953026 1_545
Ba2 O0 2.953029 1_555
Ba2 O1 3.024518 1_455
Ba2 O5 3.024520 1_445
Ba2 O9 3.326358 1_555
Ba2 O6 3.326363 1_555
Ba3 O5 2.670728 1_555
Ba3 O1 2.670731 1_565
Ba3 O8 2.761325 1_655
Ba3 O7 2.761330 1_665
Ba3 O3 2.806897 1_554
Ba3 O11 3.067665 1_554
Ba3 O11 3.067676 1_564
Ba3 O2 3.078041 1_665
Mg0 O4 2.032357 1_545
Mg0 O0 2.032369 1_555
Mg0 O8 2.073262 1_546
Mg0 O7 2.073269 1_556
Mg0 O11 2.109365 1_555
O0 Rh3 2.082541 1_555
O0 Rh0 2.098524 1_555
O1 Rh1 2.052506 1_555
O1 Rh2 2.063865 1_555
O2 Rh1 2.001529 1_555
O2 Rh2 2.088976 1_555
O3 Rh3 2.039488 1_555
O3 Rh0 2.049553 1_555
O4 Rh3 2.082541 1_555
O4 Rh0 2.098528 1_555
O5 Rh1 2.052510 1_555
O5 Rh2 2.063869 1_555
O6 Rh1 2.052009 1_555
O6 Rh3 2.088881 1_545
O7 Rh0 2.028064 1_554
O7 Rh2 2.070469 1_555
O8 Rh0 2.028064 1_554
O8 Rh2 2.070462 1_565
O9 Rh1 2.052009 1_555
O9 Rh3 2.088892 1_555
O10 Rh3 2.080211 1_555
O10 Rh1 2.129684 1_455
O11 Rh2 2.006990 1_556
