# generated using pymatgen
data_Li4Co5SnO12
_symmetry_space_group_name_H-M   'P 1'
_cell_length_a   5.09060007
_cell_length_b   5.03540069
_cell_length_c   10.05525471
_cell_angle_alpha   95.00682674
_cell_angle_beta   99.96954515
_cell_angle_gamma   59.54810587
_symmetry_Int_Tables_number   1
_chemical_formula_structural   Li4Co5SnO12
_chemical_formula_sum   'Li4 Co5 Sn1 O12'
_cell_volume   218.83817979
_cell_formula_units_Z   1
loop_
 _symmetry_equiv_pos_site_id
 _symmetry_equiv_pos_as_xyz
  1  'x, y, z'
loop_
 _atom_site_type_symbol
 _atom_site_label
 _atom_site_symmetry_multiplicity
 _atom_site_fract_x
 _atom_site_fract_y
 _atom_site_fract_z
 _atom_site_occupancy
  Li  Li0  1  0.25261600  0.32722500  0.74615200  1
  Li  Li1  1  0.41785400  0.32507500  0.25395000  1
  Li  Li2  1  0.58455600  0.66838300  0.74666300  1
  Li  Li3  1  0.75069300  0.66719400  0.25402200  1
  Co  Co0  1  0.17025200  0.66597600  0.50044700  1
  Co  Co1  1  0.66649500  0.66696000  0.00003300  1
  Co  Co2  1  0.33332200  0.33324000  0.99995900  1
  Co  Co3  1  0.83407800  0.33403600  0.49932100  1
  Co  Co4  1  0.49818800  0.00635800  0.49953400  1
  Sn  Sn0  1  0.99976800  0.00032400  0.00008600  1
  O  O0  1  0.03481200  0.64411900  0.10730400  1
  O  O1  1  0.32106900  0.64416400  0.89264500  1
  O  O2  1  0.15717700  0.32407600  0.38971800  1
  O  O3  1  0.48142700  0.67020500  0.39840500  1
  O  O4  1  0.51114200  0.32439700  0.60995000  1
  O  O5  1  0.21111900  0.01499700  0.60055900  1
  O  O6  1  0.85233300  0.66240200  0.60286800  1
  O  O7  1  0.67832400  0.35658800  0.10737300  1
  O  O8  1  0.39220300  0.99962900  0.10670700  1
  O  O9  1  0.96496500  0.35624900  0.89271100  1
  O  O10  1  0.60823200  0.99941300  0.89326200  1
  O  O11  1  0.77937500  0.00899100  0.39833200  1
loop_
_geom_bond_atom_site_label_1
_geom_bond_atom_site_label_2
_geom_bond_distance
_geom_bond_site_symmetry_2
Li0 O4 2.051714 1_555
Li0 O5 2.118360 1_555
Li0 O10 2.158718 1_545
Li0 O1 2.194041 1_555
Li0 O9 2.197728 1_455
Li0 O6 2.235705 1_455
Li1 O2 2.063955 1_555
Li1 O11 2.130027 1_555
Li1 O8 2.149672 1_545
Li1 O0 2.190903 1_555
Li1 O7 2.210513 1_555
Li1 O3 2.280673 1_555
Li2 O6 2.140775 1_555
Li2 O10 2.163135 1_555
Li2 O9 2.170271 1_555
Li2 O1 2.201691 1_555
Li2 O5 2.221662 1_565
Li2 O4 2.256605 1_555
Li3 O3 2.156618 1_555
Li3 O8 2.174171 1_555
Li3 O7 2.179382 1_555
Li3 O0 2.195543 1_655
Li3 O11 2.198750 1_565
Li3 O2 2.222307 1_655
Co0 O4 1.955930 1_555
Co0 O2 1.990963 1_555
Co0 O11 2.028635 1_465
Co0 O5 2.033367 1_565
Co0 O3 2.040417 1_555
Co0 O6 2.071240 1_455
Co1 O8 1.933999 1_555
Co1 O10 1.934729 1_554
Co1 O9 1.945353 1_554
Co1 O7 1.946179 1_555
Co1 O0 1.948065 1_655
Co1 O1 1.948524 1_554
Co2 O10 1.937968 1_545
Co2 O8 1.938267 1_546
Co2 O0 1.945896 1_556
Co2 O1 1.947322 1_555
Co2 O9 1.947823 1_455
Co2 O7 1.948124 1_556
Co3 O6 1.910072 1_555
Co3 O3 1.925271 1_555
Co3 O5 1.945380 1_655
Co3 O11 1.965093 1_555
Co3 O2 2.111101 1_655
Co3 O4 2.160052 1_555
Co4 O4 1.890244 1_555
Co4 O11 1.900156 1_555
Co4 O5 1.900320 1_555
Co4 O2 1.903120 1_555
Co4 O3 1.929338 1_545
Co4 O6 1.957037 1_545
O0 Sn0 2.087549 1_465
O1 Sn0 2.087831 1_466
O7 Sn0 2.087473 1_555
O8 Sn0 2.095786 1_465
O9 Sn0 2.087785 1_556
O10 Sn0 2.096086 1_566
