# generated using pymatgen
data_Li9Co7O16
_symmetry_space_group_name_H-M   'P 1'
_cell_length_a   10.12783495
_cell_length_b   10.12783495
_cell_length_c   4.98847875
_cell_angle_alpha   80.39489495
_cell_angle_beta   80.39489495
_cell_angle_gamma   33.04427156
_symmetry_Int_Tables_number   1
_chemical_formula_structural   Li9Co7O16
_chemical_formula_sum   'Li9 Co7 O16'
_cell_volume   274.75598100
_cell_formula_units_Z   1
loop_
 _symmetry_equiv_pos_site_id
 _symmetry_equiv_pos_as_xyz
  1  'x, y, z'
loop_
 _atom_site_type_symbol
 _atom_site_label
 _atom_site_symmetry_multiplicity
 _atom_site_fract_x
 _atom_site_fract_y
 _atom_site_fract_z
 _atom_site_occupancy
  Li  Li0  1  0.86638000  0.37565000  0.75049200  1
  Li  Li1  1  0.13362000  0.62435000  0.24950800  1
  Li  Li2  1  0.37565000  0.86638000  0.75049200  1
  Li  Li3  1  0.62016400  0.62016400  0.24970600  1
  Li  Li4  1  0.87849500  0.87849500  0.74473600  1
  Li  Li5  1  0.12150500  0.12150500  0.25526400  1
  Li  Li6  1  0.62435000  0.13362000  0.24950800  1
  Li  Li7  1  0.37983600  0.37983600  0.75029400  1
  Li  Li8  1  0.50000000  0.50000000  0.00000000  1
  Co  Co0  1  0.00000000  0.00000000  0.00000000  1
  Co  Co1  1  0.25352900  0.74647100  0.50000000  1
  Co  Co2  1  0.25060700  0.25060700  0.50018500  1
  Co  Co3  1  0.74939300  0.74939300  0.49981500  1
  Co  Co4  1  0.00000000  0.50000000  0.00000000  1
  Co  Co5  1  0.50000000  0.00000000  0.00000000  1
  Co  Co6  1  0.74647100  0.25352900  0.50000000  1
  O  O0  1  0.82368700  0.28534200  0.13896600  1
  O  O1  1  0.05604200  0.55902300  0.61905100  1
  O  O2  1  0.28534200  0.82368700  0.13896600  1
  O  O3  1  0.55532600  0.55532600  0.60250300  1
  O  O4  1  0.80617100  0.80617100  0.14726200  1
  O  O5  1  0.05338700  0.05338700  0.63501400  1
  O  O6  1  0.55902300  0.05604200  0.61905100  1
  O  O7  1  0.30787200  0.30787200  0.14777200  1
  O  O8  1  0.94395800  0.44097700  0.38094900  1
  O  O9  1  0.17631300  0.71465800  0.86103400  1
  O  O10  1  0.44097700  0.94395800  0.38094900  1
  O  O11  1  0.69212800  0.69212800  0.85222800  1
  O  O12  1  0.94661300  0.94661300  0.36498600  1
  O  O13  1  0.19382900  0.19382900  0.85273800  1
  O  O14  1  0.71465800  0.17631300  0.86103400  1
  O  O15  1  0.44467400  0.44467400  0.39749700  1
loop_
_geom_bond_atom_site_label_1
_geom_bond_atom_site_label_2
_geom_bond_distance
_geom_bond_site_symmetry_2
Li0 O11 2.099120 1_555
Li0 O8 2.105832 1_555
Li0 O5 2.114576 1_655
Li0 O3 2.120793 1_555
Li0 O0 2.137949 1_556
Li0 O13 2.159191 1_655
Li1 O7 2.099120 1_555
Li1 O1 2.105832 1_555
Li1 O12 2.114576 1_455
Li1 O15 2.120793 1_555
Li1 O9 2.137949 1_554
Li1 O4 2.159191 1_455
Li2 O11 2.099120 1_555
Li2 O10 2.105832 1_555
Li2 O5 2.114576 1_565
Li2 O3 2.120793 1_555
Li2 O2 2.137949 1_556
Li2 O13 2.159191 1_565
Li3 O3 1.977711 1_555
Li3 O2 2.140048 1_555
Li3 O0 2.140048 1_555
Li3 O10 2.195171 1_555
Li3 O8 2.195171 1_555
Li3 O11 2.218105 1_554
Li4 O14 2.014858 1_565
Li4 O9 2.014858 1_655
Li4 O12 2.113340 1_555
Li4 O1 2.154553 1_655
Li4 O6 2.154553 1_565
Li4 O4 2.241191 1_556
Li5 O0 2.014858 1_455
Li5 O2 2.014858 1_545
Li5 O5 2.113340 1_555
Li5 O10 2.154553 1_545
Li5 O8 2.154553 1_455
Li5 O13 2.241191 1_554
Li6 O7 2.099120 1_555
Li6 O6 2.105832 1_555
Li6 O12 2.114576 1_545
Li6 O15 2.120793 1_555
Li6 O14 2.137949 1_554
Li6 O4 2.159191 1_545
Li7 O15 1.977711 1_555
Li7 O9 2.140048 1_555
Li7 O14 2.140048 1_555
Li7 O1 2.195171 1_555
Li7 O6 2.195171 1_555
Li7 O7 2.218105 1_556
Li8 O2 2.064200 1_555
Li8 O0 2.064200 1_555
Li8 O14 2.064200 1_554
Li8 O9 2.064200 1_554
Li8 O3 2.084386 1_554
Li8 O15 2.084386 1_555
Co0 O14 1.903873 1_454
Co0 O0 1.903873 1_455
Co0 O2 1.903873 1_545
Co0 O9 1.903873 1_544
Co0 O5 1.932049 1_554
Co0 O12 1.932049 1_445
Co1 O3 1.903360 1_555
Co1 O15 1.903360 1_555
Co1 O2 1.928155 1_555
Co1 O9 1.928155 1_555
Co1 O5 1.975948 1_565
Co1 O12 1.975948 1_455
Co2 O13 1.906242 1_555
Co2 O7 1.909641 1_555
Co2 O1 1.974970 1_555
Co2 O6 1.974970 1_555
Co2 O10 1.977754 1_545
Co2 O8 1.977754 1_455
Co3 O4 1.906242 1_555
Co3 O11 1.909641 1_555
Co3 O8 1.974970 1_555
Co3 O10 1.974970 1_555
Co3 O6 1.977754 1_565
Co3 O1 1.977754 1_655
Co4 O4 2.020480 1_455
Co4 O13 2.020480 1_554
Co4 O1 2.029930 1_554
Co4 O8 2.029930 1_455
Co4 O7 2.041734 1_555
Co4 O11 2.041734 1_454
Co5 O4 2.020480 1_545
Co5 O13 2.020480 1_554
Co5 O6 2.029930 1_554
Co5 O10 2.029930 1_545
Co5 O7 2.041734 1_555
Co5 O11 2.041734 1_544
Co6 O3 1.903360 1_555
Co6 O15 1.903360 1_555
Co6 O0 1.928155 1_555
Co6 O14 1.928155 1_555
Co6 O5 1.975948 1_655
Co6 O12 1.975948 1_545
