# generated using pymatgen
data_CsNpMoO7
_symmetry_space_group_name_H-M   'P 1'
_cell_length_a   8.19897600
_cell_length_b   9.44856900
_cell_length_c   10.54391200
_cell_angle_alpha   90.00000000
_cell_angle_beta   90.00000000
_cell_angle_gamma   90.00000000
_symmetry_Int_Tables_number   1
_chemical_formula_structural   CsNpMoO7
_chemical_formula_sum   'Cs4 Np4 Mo4 O28'
_cell_volume   816.82200063
_cell_formula_units_Z   4
loop_
 _symmetry_equiv_pos_site_id
 _symmetry_equiv_pos_as_xyz
  1  'x, y, z'
loop_
 _atom_site_type_symbol
 _atom_site_label
 _atom_site_symmetry_multiplicity
 _atom_site_fract_x
 _atom_site_fract_y
 _atom_site_fract_z
 _atom_site_occupancy
  Cs  Cs0  1  0.50000000  0.75000000  0.06687900  1
  Cs  Cs1  1  0.00000000  0.75000000  0.43312100  1
  Cs  Cs2  1  0.50000000  0.25000000  0.93312100  1
  Cs  Cs3  1  0.00000000  0.25000000  0.56687900  1
  Np  Np0  1  0.25000000  0.06898800  0.25000000  1
  Np  Np1  1  0.75000000  0.43101200  0.25000000  1
  Np  Np2  1  0.75000000  0.93101200  0.75000000  1
  Np  Np3  1  0.25000000  0.56898800  0.75000000  1
  Mo  Mo0  1  0.00000000  0.75000000  0.04590000  1
  Mo  Mo1  1  0.50000000  0.75000000  0.45410000  1
  Mo  Mo2  1  0.00000000  0.25000000  0.95410000  1
  Mo  Mo3  1  0.50000000  0.25000000  0.54590000  1
  O  O0  1  0.43881800  0.05347100  0.15987800  1
  O  O1  1  0.56118200  0.44652900  0.15987800  1
  O  O2  1  0.06118200  0.05347100  0.34012200  1
  O  O3  1  0.93881800  0.44652900  0.34012200  1
  O  O4  1  0.56118200  0.94652900  0.84012200  1
  O  O5  1  0.43881800  0.55347100  0.84012200  1
  O  O6  1  0.93881800  0.94652900  0.65987800  1
  O  O7  1  0.06118200  0.55347100  0.65987800  1
  O  O8  1  0.13668700  0.85133700  0.14547800  1
  O  O9  1  0.86331300  0.64866300  0.14547800  1
  O  O10  1  0.36331300  0.85133700  0.35452200  1
  O  O11  1  0.63668700  0.64866300  0.35452200  1
  O  O12  1  0.86331300  0.14866300  0.85452200  1
  O  O13  1  0.13668700  0.35133700  0.85452200  1
  O  O14  1  0.63668700  0.14866300  0.64547800  1
  O  O15  1  0.36331300  0.35133700  0.64547800  1
  O  O16  1  0.87891100  0.86548700  0.94968500  1
  O  O17  1  0.12108900  0.63451300  0.94968500  1
  O  O18  1  0.62108900  0.86548700  0.55031500  1
  O  O19  1  0.37891100  0.63451300  0.55031500  1
  O  O20  1  0.12108900  0.13451300  0.05031500  1
  O  O21  1  0.87891100  0.36548700  0.05031500  1
  O  O22  1  0.37891100  0.13451300  0.44968500  1
  O  O23  1  0.62108900  0.36548700  0.44968500  1
  O  O24  1  0.25000000  0.26743000  0.25000000  1
  O  O25  1  0.75000000  0.23257000  0.25000000  1
  O  O26  1  0.75000000  0.73257000  0.75000000  1
  O  O27  1  0.25000000  0.76743000  0.75000000  1
loop_
_geom_bond_atom_site_label_1
_geom_bond_atom_site_label_2
_geom_bond_distance
_geom_bond_site_symmetry_2
Cs0 O5 3.068584 1_554
Cs0 O4 3.068584 1_554
Cs0 O0 3.071636 1_565
Cs0 O1 3.071636 1_555
Cs0 O8 3.236791 1_555
Cs0 O9 3.236791 1_555
Cs0 O10 3.372109 1_555
Cs0 O11 3.372109 1_555
Cs0 O16 3.516970 1_554
Cs0 O17 3.516970 1_554
Cs1 O6 3.068584 1_455
Cs1 O7 3.068584 1_555
Cs1 O3 3.071636 1_455
Cs1 O2 3.071636 1_565
Cs1 O10 3.236791 1_555
Cs1 O11 3.236791 1_455
Cs1 O9 3.372109 1_455
Cs1 O8 3.372109 1_555
Cs1 O19 3.516970 1_555
Cs1 O18 3.516970 1_455
Cs2 O1 3.068584 1_556
Cs2 O0 3.068584 1_556
Cs2 O5 3.071636 1_555
Cs2 O4 3.071636 1_545
Cs2 O12 3.236791 1_555
Cs2 O13 3.236791 1_555
Cs2 O15 3.372109 1_555
Cs2 O14 3.372109 1_555
Cs2 O20 3.516970 1_556
Cs2 O21 3.516970 1_556
Cs3 O3 3.068584 1_455
Cs3 O2 3.068584 1_555
Cs3 O6 3.071636 1_445
Cs3 O7 3.071636 1_555
Cs3 O15 3.236791 1_555
Cs3 O14 3.236791 1_455
Cs3 O13 3.372109 1_555
Cs3 O12 3.372109 1_455
Cs3 O22 3.516970 1_555
Cs3 O23 3.516970 1_455
Np0 O0 1.822390 1_555
Np0 O2 1.822390 1_555
Np0 O24 1.874993 1_555
Np0 O22 2.435855 1_555
Np0 O20 2.435855 1_555
Np0 O8 2.511344 1_545
Np0 O10 2.511344 1_545
Np1 O3 1.822390 1_555
Np1 O1 1.822390 1_555
Np1 O25 1.874993 1_555
Np1 O23 2.435855 1_555
Np1 O21 2.435855 1_555
Np1 O11 2.511344 1_555
Np1 O9 2.511344 1_555
Np2 O4 1.822390 1_555
Np2 O6 1.822390 1_555
Np2 O26 1.874993 1_555
Np2 O18 2.435855 1_555
Np2 O16 2.435855 1_555
Np2 O12 2.511344 1_565
Np2 O14 2.511344 1_565
Np3 O7 1.822390 1_555
Np3 O5 1.822390 1_555
Np3 O27 1.874993 1_555
Np3 O19 2.435855 1_555
Np3 O17 2.435855 1_555
Np3 O13 2.511344 1_555
Np3 O15 2.511344 1_555
Mo0 O16 1.790399 1_454
Mo0 O17 1.790399 1_554
Mo0 O9 1.809729 1_455
Mo0 O8 1.809729 1_555
Mo1 O19 1.790399 1_555
Mo1 O18 1.790399 1_555
Mo1 O10 1.809729 1_555
Mo1 O11 1.809729 1_555
Mo2 O21 1.790399 1_456
Mo2 O20 1.790399 1_556
Mo2 O12 1.809729 1_455
Mo2 O13 1.809729 1_555
Mo3 O23 1.790399 1_555
Mo3 O22 1.790399 1_555
Mo3 O15 1.809729 1_555
Mo3 O14 1.809729 1_555
