# generated using pymatgen
data_CaYAl3O7
_symmetry_space_group_name_H-M   'P 1'
_cell_length_a   7.75901137
_cell_length_b   7.75901137
_cell_length_c   5.09811400
_cell_angle_alpha   90.00000000
_cell_angle_beta   90.00000000
_cell_angle_gamma   90.17023374
_symmetry_Int_Tables_number   1
_chemical_formula_structural   CaYAl3O7
_chemical_formula_sum   'Ca2 Y2 Al6 O14'
_cell_volume   306.91661669
_cell_formula_units_Z   2
loop_
 _symmetry_equiv_pos_site_id
 _symmetry_equiv_pos_as_xyz
  1  'x, y, z'
loop_
 _atom_site_type_symbol
 _atom_site_label
 _atom_site_symmetry_multiplicity
 _atom_site_fract_x
 _atom_site_fract_y
 _atom_site_fract_z
 _atom_site_occupancy
  Ca  Ca0  1  0.33892300  0.66107700  0.51543100  1
  Ca  Ca1  1  0.66107700  0.33892300  0.51543100  1
  Y  Y0  1  0.16152800  0.16152800  0.48500400  1
  Y  Y1  1  0.83847200  0.83847200  0.48500400  1
  Al  Al0  1  0.50000000  0.00000000  0.00085900  1
  Al  Al1  1  0.00000000  0.50000000  0.00085900  1
  Al  Al2  1  0.14261300  0.85738700  0.95619600  1
  Al  Al3  1  0.35433100  0.35433100  0.04399600  1
  Al  Al4  1  0.85738700  0.14261300  0.95619600  1
  Al  Al5  1  0.64566900  0.64566900  0.04399600  1
  O  O0  1  0.33729600  0.91336200  0.79920800  1
  O  O1  1  0.15631100  0.40207800  0.20481100  1
  O  O2  1  0.66270400  0.08663800  0.79920800  1
  O  O3  1  0.84368900  0.59792200  0.20481100  1
  O  O4  1  0.59792200  0.84368900  0.20481100  1
  O  O5  1  0.91336200  0.33729600  0.79920800  1
  O  O6  1  0.40207800  0.15631100  0.20481100  1
  O  O7  1  0.08663800  0.66270400  0.79920800  1
  O  O8  1  0.13073100  0.86926900  0.29872500  1
  O  O9  1  0.34718700  0.34718700  0.70265100  1
  O  O10  1  0.86926900  0.13073100  0.29872500  1
  O  O11  1  0.65281300  0.65281300  0.70265100  1
  O  O12  1  0.50000000  0.50000000  0.18334700  1
  O  O13  1  0.00000000  0.00000000  0.79487200  1
loop_
_geom_bond_atom_site_label_1
_geom_bond_atom_site_label_2
_geom_bond_distance
_geom_bond_site_symmetry_2
Ca0 O0 2.434145 1_555
Ca0 O7 2.434145 1_555
Ca0 O12 2.449394 1_555
Ca0 O8 2.540644 1_555
Ca0 O11 2.616791 1_555
Ca0 O9 2.616791 1_555
Ca0 O1 2.921774 1_555
Ca0 O4 2.921774 1_555
Ca1 O5 2.434145 1_555
Ca1 O2 2.434145 1_555
Ca1 O12 2.449394 1_555
Ca1 O10 2.540644 1_555
Ca1 O9 2.616791 1_555
Ca1 O11 2.616791 1_555
Ca1 O3 2.921774 1_555
Ca1 O6 2.921774 1_555
Al0 O2 1.759949 1_554
Al0 O0 1.759949 1_544
Al0 O4 1.770534 1_545
Al0 O6 1.770534 1_555
Al1 O7 1.759949 1_554
Al1 O5 1.759949 1_454
Al1 O3 1.770534 1_455
Al1 O1 1.770534 1_555
Al2 O8 1.751127 1_556
Al2 O0 1.762677 1_555
Al2 O7 1.762677 1_555
Al2 O13 1.769898 1_565
Al3 O9 1.741975 1_554
Al3 O12 1.747007 1_555
Al3 O6 1.781414 1_555
Al3 O1 1.781414 1_555
Al4 O10 1.751127 1_556
Al4 O5 1.762677 1_555
Al4 O2 1.762677 1_555
Al4 O13 1.769898 1_655
Al5 O11 1.741975 1_554
Al5 O12 1.747007 1_555
Al5 O4 1.781414 1_555
Al5 O3 1.781414 1_555
O0 Y0 2.854658 1_565
O1 Y0 2.350773 1_555
O2 Y1 2.854658 1_545
O3 Y1 2.350773 1_555
O4 Y1 2.350773 1_555
O5 Y0 2.854658 1_655
O6 Y0 2.350773 1_555
O7 Y1 2.854658 1_455
O8 Y1 2.469403 1_455
O8 Y0 2.469403 1_565
O9 Y0 2.317135 1_555
O10 Y1 2.469403 1_545
O10 Y0 2.469403 1_655
O11 Y1 2.317135 1_555
O13 Y1 2.372290 1_445
O13 Y0 2.372290 1_555
