# generated using pymatgen
data_Y2MnFeO6
_symmetry_space_group_name_H-M   'P 1'
_cell_length_a   5.79279100
_cell_length_b   5.34880600
_cell_length_c   9.26442870
_cell_angle_alpha   55.09456789
_cell_angle_beta   90.00000000
_cell_angle_gamma   90.00000000
_symmetry_Int_Tables_number   1
_chemical_formula_structural   Y2MnFeO6
_chemical_formula_sum   'Y4 Mn2 Fe2 O12'
_cell_volume   235.41216701
_cell_formula_units_Z   2
loop_
 _symmetry_equiv_pos_site_id
 _symmetry_equiv_pos_as_xyz
  1  'x, y, z'
loop_
 _atom_site_type_symbol
 _atom_site_label
 _atom_site_symmetry_multiplicity
 _atom_site_fract_x
 _atom_site_fract_y
 _atom_site_fract_z
 _atom_site_occupancy
  Y  Y0  1  0.92296800  0.73129900  0.74994900  1
  Y  Y1  1  0.42296800  0.26870100  0.75005100  1
  Y  Y2  1  0.07703200  0.26870100  0.25005100  1
  Y  Y3  1  0.57703200  0.73129900  0.24994900  1
  Mn  Mn0  1  0.50000000  0.00000000  0.50000000  1
  Mn  Mn1  1  0.00000000  0.00000000  0.00000000  1
  Fe  Fe0  1  0.50000000  0.50000000  0.00000000  1
  Fe  Fe1  1  0.00000000  0.50000000  0.50000000  1
  O  O0  1  0.31348000  0.36050900  0.44521600  1
  O  O1  1  0.81348000  0.63949100  0.05478400  1
  O  O2  1  0.67745500  0.25782200  0.94048200  1
  O  O3  1  0.17745500  0.74217800  0.55951800  1
  O  O4  1  0.68652000  0.63949100  0.55478400  1
  O  O5  1  0.18652000  0.36050900  0.94521600  1
  O  O6  1  0.32254500  0.74217800  0.05951800  1
  O  O7  1  0.82254500  0.25782200  0.44048200  1
  O  O8  1  0.46110900  0.13142900  0.25470100  1
  O  O9  1  0.96110900  0.86857100  0.24529900  1
  O  O10  1  0.53889100  0.86857100  0.74529900  1
  O  O11  1  0.03889100  0.13142900  0.75470100  1
loop_
_geom_bond_atom_site_label_1
_geom_bond_atom_site_label_2
_geom_bond_distance
_geom_bond_site_symmetry_2
Mn0 O8 1.970053 1_555
Mn0 O10 1.970053 1_545
Mn0 O4 2.005809 1_545
Mn0 O0 2.005809 1_555
Mn0 O3 2.196953 1_545
Mn0 O7 2.196953 1_555
Mn1 O9 1.970053 1_445
Mn1 O11 1.970053 1_554
Mn1 O5 2.005809 1_554
Mn1 O1 2.005809 1_445
Mn1 O2 2.196953 1_454
Mn1 O6 2.196953 1_545
Fe0 O6 1.963707 1_555
Fe0 O2 1.963707 1_554
Fe0 O10 2.044849 1_554
Fe0 O8 2.044849 1_555
Fe0 O1 2.131957 1_555
Fe0 O5 2.131957 1_554
Fe1 O3 1.963707 1_555
Fe1 O7 1.963707 1_455
Fe1 O9 2.044849 1_455
Fe1 O11 2.044849 1_555
Fe1 O0 2.131957 1_555
Fe1 O4 2.131957 1_455
O0 Y3 2.330399 1_555
O0 Y2 2.530325 1_555
O0 Y1 2.651778 1_555
O1 Y2 2.330399 1_655
O1 Y3 2.530325 1_555
O1 Y0 2.651778 1_554
O2 Y1 2.274128 1_555
O2 Y0 2.536957 1_555
O2 Y3 2.692399 1_546
O3 Y0 2.274128 1_455
O3 Y1 2.536957 1_555
O3 Y2 2.692399 1_565
O4 Y1 2.330399 1_555
O4 Y0 2.530325 1_555
O4 Y3 2.651778 1_555
O5 Y0 2.330399 1_455
O5 Y1 2.530325 1_555
O5 Y2 2.651778 1_556
O6 Y3 2.274128 1_555
O6 Y2 2.536957 1_555
O6 Y1 2.692399 1_564
O7 Y2 2.274128 1_655
O7 Y3 2.536957 1_555
O7 Y0 2.692399 1_545
O8 Y3 2.267430 1_545
O8 Y2 2.335561 1_555
O9 Y2 2.267430 1_665
O9 Y3 2.335561 1_555
O10 Y1 2.267430 1_565
O10 Y0 2.335561 1_555
O11 Y0 2.267430 1_445
O11 Y1 2.335561 1_555
