# generated using pymatgen
data_Lu3Mg2VS8
_symmetry_space_group_name_H-M   'P 1'
_cell_length_a   7.69517278
_cell_length_b   7.59919327
_cell_length_c   7.70927793
_cell_angle_alpha   59.66925525
_cell_angle_beta   59.92335695
_cell_angle_gamma   59.56077911
_symmetry_Int_Tables_number   1
_chemical_formula_structural   Lu3Mg2VS8
_chemical_formula_sum   'Lu3 Mg2 V1 S8'
_cell_volume   316.72529108
_cell_formula_units_Z   1
loop_
 _symmetry_equiv_pos_site_id
 _symmetry_equiv_pos_as_xyz
  1  'x, y, z'
loop_
 _atom_site_type_symbol
 _atom_site_label
 _atom_site_symmetry_multiplicity
 _atom_site_fract_x
 _atom_site_fract_y
 _atom_site_fract_z
 _atom_site_occupancy
  Lu  Lu0  1  0.50001000  0.50001700  0.49998500  1
  Lu  Lu1  1  0.49998600  0.50000000  0.00000200  1
  Lu  Lu2  1  0.00000800  0.49999000  0.50000400  1
  Mg  Mg0  1  0.87540200  0.87397900  0.87524800  1
  Mg  Mg1  1  0.12458900  0.12603600  0.12474600  1
  V  V0  1  0.50000900  0.99999400  0.50000800  1
  S  S0  1  0.73290600  0.76166900  0.73263100  1
  S  S1  1  0.26775700  0.23756800  0.72697100  1
  S  S2  1  0.25552100  0.73329300  0.25550600  1
  S  S3  1  0.72703200  0.23780400  0.26771000  1
  S  S4  1  0.74446300  0.26671700  0.74449000  1
  S  S5  1  0.27296500  0.76218300  0.73229200  1
  S  S6  1  0.26709300  0.23831900  0.26737500  1
  S  S7  1  0.73226300  0.76242600  0.27303300  1
loop_
_geom_bond_atom_site_label_1
_geom_bond_atom_site_label_2
_geom_bond_distance
_geom_bond_site_symmetry_2
Lu0 S4 2.652250 1_555
Lu0 S2 2.652314 1_555
Lu0 S5 2.677580 1_555
Lu0 S3 2.677682 1_555
Lu0 S7 2.680474 1_555
Lu0 S1 2.680687 1_555
Lu1 S4 2.644869 1_554
Lu1 S2 2.644877 1_555
Lu1 S6 2.680205 1_555
Lu1 S0 2.680278 1_554
Lu1 S5 2.686080 1_554
Lu1 S3 2.686198 1_555
Lu2 S2 2.646577 1_555
Lu2 S4 2.646599 1_455
Lu2 S6 2.675963 1_555
Lu2 S0 2.676002 1_455
Lu2 S1 2.685086 1_555
Lu2 S7 2.685087 1_455
Mg0 S4 2.423039 1_565
Mg0 S5 2.495686 1_655
Mg0 S0 2.498801 1_555
Mg0 S7 2.504197 1_556
Mg1 S2 2.423070 1_545
Mg1 S3 2.495660 1_455
Mg1 S6 2.498768 1_555
Mg1 S1 2.504141 1_554
S0 V0 2.521983 1_555
S1 V0 2.510328 1_545
S3 V0 2.513831 1_545
S5 V0 2.513950 1_555
S6 V0 2.522141 1_545
S7 V0 2.510361 1_555
