# generated using pymatgen
data_CuAuClO2
_symmetry_space_group_name_H-M   'P 1'
_cell_length_a   4.35848200
_cell_length_b   5.23976584
_cell_length_c   7.76650659
_cell_angle_alpha   101.59361800
_cell_angle_beta   99.54721384
_cell_angle_gamma   88.28546308
_symmetry_Int_Tables_number   1
_chemical_formula_structural   CuAuClO2
_chemical_formula_sum   'Cu2 Au2 Cl2 O4'
_cell_volume   171.34069525
_cell_formula_units_Z   2
loop_
 _symmetry_equiv_pos_site_id
 _symmetry_equiv_pos_as_xyz
  1  'x, y, z'
loop_
 _atom_site_type_symbol
 _atom_site_label
 _atom_site_symmetry_multiplicity
 _atom_site_fract_x
 _atom_site_fract_y
 _atom_site_fract_z
 _atom_site_occupancy
  Cu  Cu0  1  0.00651200  0.99965300  0.99973500  1
  Cu  Cu1  1  0.50904600  0.50205700  0.99985600  1
  Au  Au0  1  0.62670700  0.01102100  0.29004800  1
  Au  Au1  1  0.36554700  0.99128600  0.71161800  1
  Cl  Cl0  1  0.66799200  0.73816700  0.51006700  1
  Cl  Cl1  1  0.31578100  0.25947400  0.49431300  1
  O  O0  1  0.72324500  0.23651300  0.10982200  1
  O  O1  1  0.16384700  0.25224500  0.89138400  1
  O  O2  1  0.27750800  0.75548500  0.88177000  1
  O  O3  1  0.84381300  0.75410000  0.11138600  1
loop_
_geom_bond_atom_site_label_1
_geom_bond_atom_site_label_2
_geom_bond_distance
_geom_bond_site_symmetry_2
Cu0 O3 1.901904 1_456
Cu0 O1 1.903545 1_565
Cu0 O0 1.904614 1_466
Cu0 O2 1.915380 1_555
Cu1 O0 1.916338 1_556
Cu1 O2 1.930056 1_555
Cu1 O3 1.964581 1_556
Cu1 O1 1.985170 1_555
Au0 O3 2.059504 1_545
Au0 O0 2.102883 1_555
Au0 Cl1 2.413602 1_555
Au0 Cl0 2.420924 1_545
Au1 O1 2.039522 1_565
Au1 O2 2.067117 1_555
Au1 Cl1 2.384043 1_565
Au1 Cl0 2.385876 1_555
