# generated using pymatgen
data_Ho5(In2Pt)2
_symmetry_space_group_name_H-M   'P 1'
_cell_length_a   7.21859962
_cell_length_b   16.07593388
_cell_length_c   36.19090290
_cell_angle_alpha   90.00000000
_cell_angle_beta   90.00000000
_cell_angle_gamma   90.00000000
_symmetry_Int_Tables_number   1
_chemical_formula_structural   Ho5(In2Pt)2
_chemical_formula_sum   'Ho80 In64 Pt32'
_cell_volume   4199.79975353
_cell_formula_units_Z   16
loop_
 _symmetry_equiv_pos_site_id
 _symmetry_equiv_pos_as_xyz
  1  'x, y, z'
loop_
 _atom_site_type_symbol
 _atom_site_label
 _atom_site_symmetry_multiplicity
 _atom_site_fract_x
 _atom_site_fract_y
 _atom_site_fract_z
 _atom_site_occupancy
  Ho  Ho0_0  1  0.00000000  0.05763911  0.20773548  1
  Ho  Ho0_1  1  0.00000000  0.05763911  0.70773548  1
  Ho  Ho0_2  1  0.00000000  0.55763910  0.20773548  1
  Ho  Ho0_3  1  0.00000000  0.55763910  0.70773548  1
  Ho  Ho0_4  1  0.50000000  0.05763911  0.20773548  1
  Ho  Ho0_5  1  0.50000000  0.05763911  0.70773548  1
  Ho  Ho0_6  1  0.50000000  0.55763910  0.20773548  1
  Ho  Ho0_7  1  0.50000000  0.55763910  0.70773548  1
  Ho  Ho1_0  1  0.00000000  0.44236090  0.29226452  1
  Ho  Ho1_1  1  0.00000000  0.44236090  0.79226452  1
  Ho  Ho1_2  1  0.00000000  0.94236089  0.29226452  1
  Ho  Ho1_3  1  0.00000000  0.94236089  0.79226452  1
  Ho  Ho1_4  1  0.50000000  0.44236090  0.29226452  1
  Ho  Ho1_5  1  0.50000000  0.44236090  0.79226452  1
  Ho  Ho1_6  1  0.50000000  0.94236089  0.29226452  1
  Ho  Ho1_7  1  0.50000000  0.94236089  0.79226452  1
  Ho  Ho2_0  1  0.00000000  0.19236090  0.45773548  1
  Ho  Ho2_1  1  0.00000000  0.19236090  0.95773548  1
  Ho  Ho2_2  1  0.00000000  0.69236090  0.45773548  1
  Ho  Ho2_3  1  0.00000000  0.69236090  0.95773548  1
  Ho  Ho2_4  1  0.50000000  0.19236090  0.45773548  1
  Ho  Ho2_5  1  0.50000000  0.19236090  0.95773548  1
  Ho  Ho2_6  1  0.50000000  0.69236090  0.45773548  1
  Ho  Ho2_7  1  0.50000000  0.69236090  0.95773548  1
  Ho  Ho3_0  1  0.00000000  0.30763911  0.04226452  1
  Ho  Ho3_1  1  0.00000000  0.30763911  0.54226452  1
  Ho  Ho3_2  1  0.00000000  0.80763911  0.04226452  1
  Ho  Ho3_3  1  0.00000000  0.80763911  0.54226452  1
  Ho  Ho3_4  1  0.50000000  0.30763911  0.04226452  1
  Ho  Ho3_5  1  0.50000000  0.30763911  0.54226452  1
  Ho  Ho3_6  1  0.50000000  0.80763911  0.04226452  1
  Ho  Ho3_7  1  0.50000000  0.80763911  0.54226452  1
  Ho  Ho4_0  1  0.00000000  0.12158919  0.11020513  1
  Ho  Ho4_1  1  0.00000000  0.12158919  0.61020513  1
  Ho  Ho4_2  1  0.00000000  0.62158919  0.11020513  1
  Ho  Ho4_3  1  0.00000000  0.62158919  0.61020513  1
  Ho  Ho4_4  1  0.50000000  0.12158919  0.11020513  1
  Ho  Ho4_5  1  0.50000000  0.12158919  0.61020513  1
  Ho  Ho4_6  1  0.50000000  0.62158919  0.11020513  1
  Ho  Ho4_7  1  0.50000000  0.62158919  0.61020513  1
  Ho  Ho5_0  1  0.00000000  0.37841081  0.38979487  1
  Ho  Ho5_1  1  0.00000000  0.37841081  0.88979487  1
  Ho  Ho5_2  1  0.00000000  0.87841081  0.38979487  1
  Ho  Ho5_3  1  0.00000000  0.87841081  0.88979487  1
  Ho  Ho5_4  1  0.50000000  0.37841081  0.38979487  1
  Ho  Ho5_5  1  0.50000000  0.37841081  0.88979487  1
  Ho  Ho5_6  1  0.50000000  0.87841081  0.38979487  1
  Ho  Ho5_7  1  0.50000000  0.87841081  0.88979487  1
  Ho  Ho6_0  1  0.00000000  0.12841081  0.36020513  1
  Ho  Ho6_1  1  0.00000000  0.12841081  0.86020513  1
  Ho  Ho6_2  1  0.00000000  0.62841081  0.36020513  1
  Ho  Ho6_3  1  0.00000000  0.62841081  0.86020513  1
  Ho  Ho6_4  1  0.50000000  0.12841081  0.36020513  1
  Ho  Ho6_5  1  0.50000000  0.12841081  0.86020513  1
  Ho  Ho6_6  1  0.50000000  0.62841081  0.36020513  1
  Ho  Ho6_7  1  0.50000000  0.62841081  0.86020513  1
  Ho  Ho7_0  1  0.00000000  0.37158919  0.13979487  1
  Ho  Ho7_1  1  0.00000000  0.37158919  0.63979487  1
  Ho  Ho7_2  1  0.00000000  0.87158919  0.13979487  1
  Ho  Ho7_3  1  0.00000000  0.87158919  0.63979487  1
  Ho  Ho7_4  1  0.50000000  0.37158919  0.13979487  1
  Ho  Ho7_5  1  0.50000000  0.37158919  0.63979487  1
  Ho  Ho7_6  1  0.50000000  0.87158919  0.13979487  1
  Ho  Ho7_7  1  0.50000000  0.87158919  0.63979487  1
  Ho  Ho8_0  1  0.00000000  0.00000000  0.00000000  1
  Ho  Ho8_1  1  0.00000000  0.00000000  0.50000000  1
  Ho  Ho8_2  1  0.00000000  0.50000000  0.00000000  1
  Ho  Ho8_3  1  0.00000000  0.50000000  0.50000000  1
  Ho  Ho8_4  1  0.50000000  0.00000000  0.00000000  1
  Ho  Ho8_5  1  0.50000000  0.00000000  0.50000000  1
  Ho  Ho8_6  1  0.50000000  0.50000000  0.00000000  1
  Ho  Ho8_7  1  0.50000000  0.50000000  0.50000000  1
  Ho  Ho9_0  1  0.00000000  0.25000000  0.25000000  1
  Ho  Ho9_1  1  0.00000000  0.25000000  0.75000000  1
  Ho  Ho9_2  1  0.00000000  0.75000000  0.25000000  1
  Ho  Ho9_3  1  0.00000000  0.75000000  0.75000000  1
  Ho  Ho9_4  1  0.50000000  0.25000000  0.25000000  1
  Ho  Ho9_5  1  0.50000000  0.25000000  0.75000000  1
  Ho  Ho9_6  1  0.50000000  0.75000000  0.25000000  1
  Ho  Ho9_7  1  0.50000000  0.75000000  0.75000000  1
  In  In0_0  1  0.25000000  0.21199038  0.17567028  1
  In  In0_1  1  0.25000000  0.21199038  0.67567027  1
  In  In0_2  1  0.25000000  0.71199038  0.17567028  1
  In  In0_3  1  0.25000000  0.71199038  0.67567027  1
  In  In0_4  1  0.75000000  0.21199038  0.17567028  1
  In  In0_5  1  0.75000000  0.21199038  0.67567027  1
  In  In0_6  1  0.75000000  0.71199038  0.17567028  1
  In  In0_7  1  0.75000000  0.71199038  0.67567027  1
  In  In1_0  1  0.25000000  0.28800962  0.32432973  1
  In  In1_1  1  0.25000000  0.28800962  0.82432973  1
  In  In1_2  1  0.25000000  0.78800962  0.32432973  1
  In  In1_3  1  0.25000000  0.78800962  0.82432973  1
  In  In1_4  1  0.75000000  0.28800962  0.32432973  1
  In  In1_5  1  0.75000000  0.28800962  0.82432973  1
  In  In1_6  1  0.75000000  0.78800962  0.32432973  1
  In  In1_7  1  0.75000000  0.78800962  0.82432973  1
  In  In2_0  1  0.25000000  0.03800962  0.42567027  1
  In  In2_1  1  0.25000000  0.03800962  0.92567027  1
  In  In2_2  1  0.25000000  0.53800962  0.42567027  1
  In  In2_3  1  0.25000000  0.53800962  0.92567027  1
  In  In2_4  1  0.75000000  0.03800962  0.42567027  1
  In  In2_5  1  0.75000000  0.03800962  0.92567027  1
  In  In2_6  1  0.75000000  0.53800962  0.42567027  1
  In  In2_7  1  0.75000000  0.53800962  0.92567027  1
  In  In3_0  1  0.25000000  0.46199038  0.07432972  1
  In  In3_1  1  0.25000000  0.46199038  0.57432973  1
  In  In3_2  1  0.25000000  0.96199038  0.07432972  1
  In  In3_3  1  0.25000000  0.96199038  0.57432973  1
  In  In3_4  1  0.75000000  0.46199038  0.07432972  1
  In  In3_5  1  0.75000000  0.46199038  0.57432973  1
  In  In3_6  1  0.75000000  0.96199038  0.07432972  1
  In  In3_7  1  0.75000000  0.96199038  0.57432973  1
  In  In4_0  1  0.25000000  0.14496402  0.03382944  1
  In  In4_1  1  0.25000000  0.14496402  0.53382944  1
  In  In4_2  1  0.25000000  0.64496401  0.03382944  1
  In  In4_3  1  0.25000000  0.64496401  0.53382944  1
  In  In4_4  1  0.75000000  0.14496402  0.03382944  1
  In  In4_5  1  0.75000000  0.14496402  0.53382944  1
  In  In4_6  1  0.75000000  0.64496401  0.03382944  1
  In  In4_7  1  0.75000000  0.64496401  0.53382944  1
  In  In5_0  1  0.25000000  0.35503598  0.46617056  1
  In  In5_1  1  0.25000000  0.35503598  0.96617056  1
  In  In5_2  1  0.25000000  0.85503598  0.46617056  1
  In  In5_3  1  0.25000000  0.85503598  0.96617056  1
  In  In5_4  1  0.75000000  0.35503598  0.46617056  1
  In  In5_5  1  0.75000000  0.35503598  0.96617056  1
  In  In5_6  1  0.75000000  0.85503598  0.46617056  1
  In  In5_7  1  0.75000000  0.85503598  0.96617056  1
  In  In6_0  1  0.25000000  0.10503598  0.28382944  1
  In  In6_1  1  0.25000000  0.10503598  0.78382944  1
  In  In6_2  1  0.25000000  0.60503598  0.28382944  1
  In  In6_3  1  0.25000000  0.60503598  0.78382944  1
  In  In6_4  1  0.75000000  0.10503598  0.28382944  1
  In  In6_5  1  0.75000000  0.10503598  0.78382944  1
  In  In6_6  1  0.75000000  0.60503598  0.28382944  1
  In  In6_7  1  0.75000000  0.60503598  0.78382944  1
  In  In7_0  1  0.25000000  0.39496402  0.21617056  1
  In  In7_1  1  0.25000000  0.39496402  0.71617056  1
  In  In7_2  1  0.25000000  0.89496402  0.21617056  1
  In  In7_3  1  0.25000000  0.89496402  0.71617056  1
  In  In7_4  1  0.75000000  0.39496402  0.21617056  1
  In  In7_5  1  0.75000000  0.39496402  0.71617056  1
  In  In7_6  1  0.75000000  0.89496402  0.21617056  1
  In  In7_7  1  0.75000000  0.89496402  0.71617056  1
  Pt  Pt0_0  1  0.25000000  0.01330628  0.15192193  1
  Pt  Pt0_1  1  0.25000000  0.01330628  0.65192193  1
  Pt  Pt0_2  1  0.25000000  0.51330628  0.15192193  1
  Pt  Pt0_3  1  0.25000000  0.51330628  0.65192193  1
  Pt  Pt0_4  1  0.75000000  0.01330628  0.15192193  1
  Pt  Pt0_5  1  0.75000000  0.01330628  0.65192193  1
  Pt  Pt0_6  1  0.75000000  0.51330628  0.15192193  1
  Pt  Pt0_7  1  0.75000000  0.51330628  0.65192193  1
  Pt  Pt1_0  1  0.25000000  0.48669373  0.34807807  1
  Pt  Pt1_1  1  0.25000000  0.48669373  0.84807807  1
  Pt  Pt1_2  1  0.25000000  0.98669373  0.34807807  1
  Pt  Pt1_3  1  0.25000000  0.98669373  0.84807807  1
  Pt  Pt1_4  1  0.75000000  0.48669373  0.34807807  1
  Pt  Pt1_5  1  0.75000000  0.48669373  0.84807807  1
  Pt  Pt1_6  1  0.75000000  0.98669373  0.34807807  1
  Pt  Pt1_7  1  0.75000000  0.98669373  0.84807807  1
  Pt  Pt2_0  1  0.25000000  0.23669372  0.40192193  1
  Pt  Pt2_1  1  0.25000000  0.23669372  0.90192193  1
  Pt  Pt2_2  1  0.25000000  0.73669372  0.40192193  1
  Pt  Pt2_3  1  0.25000000  0.73669372  0.90192193  1
  Pt  Pt2_4  1  0.75000000  0.23669372  0.40192193  1
  Pt  Pt2_5  1  0.75000000  0.23669372  0.90192193  1
  Pt  Pt2_6  1  0.75000000  0.73669372  0.40192193  1
  Pt  Pt2_7  1  0.75000000  0.73669372  0.90192193  1
  Pt  Pt3_0  1  0.25000000  0.26330627  0.09807807  1
  Pt  Pt3_1  1  0.25000000  0.26330627  0.59807807  1
  Pt  Pt3_2  1  0.25000000  0.76330628  0.09807807  1
  Pt  Pt3_3  1  0.25000000  0.76330628  0.59807807  1
  Pt  Pt3_4  1  0.75000000  0.26330627  0.09807807  1
  Pt  Pt3_5  1  0.75000000  0.26330627  0.59807807  1
  Pt  Pt3_6  1  0.75000000  0.76330628  0.09807807  1
  Pt  Pt3_7  1  0.75000000  0.76330628  0.59807807  1
loop_
_geom_bond_atom_site_label_1
_geom_bond_atom_site_label_2
_geom_bond_distance
_geom_bond_site_symmetry_2
Ho0_0 Pt0_4 2.800868 1_455
Ho0_0 Pt0_0 2.800868 1_555
Ho0_0 In7_6 3.192019 1_445
Ho0_0 In7_2 3.192019 1_545
Ho0_0 In0_4 3.280320 1_455
Ho0_0 In0_0 3.280320 1_555
Ho0_0 In6_4 3.379548 1_455
Ho0_0 In6_0 3.379548 1_555
Ho0_0 Ho9_0 3.449996 1_555
Ho0_1 Pt0_5 2.800868 1_455
Ho0_1 Pt0_1 2.800868 1_555
Ho0_1 In7_7 3.192019 1_445
Ho0_1 In7_3 3.192019 1_545
Ho0_1 In0_5 3.280320 1_455
Ho0_1 In0_1 3.280320 1_555
Ho0_1 In6_5 3.379548 1_455
Ho0_1 In6_1 3.379548 1_555
Ho0_1 Ho9_1 3.449996 1_555
Ho0_2 Pt0_6 2.800868 1_455
Ho0_2 Pt0_2 2.800868 1_555
Ho0_2 In7_4 3.192019 1_455
Ho0_2 In7_0 3.192019 1_555
Ho0_2 In0_6 3.280320 1_455
Ho0_2 In0_2 3.280320 1_555
Ho0_2 In6_6 3.379548 1_455
Ho0_2 In6_2 3.379548 1_555
Ho0_2 Ho9_2 3.449996 1_555
Ho0_3 Pt0_7 2.800868 1_455
Ho0_3 Pt0_3 2.800868 1_555
Ho0_3 In7_5 3.192019 1_455
Ho0_3 In7_1 3.192019 1_555
Ho0_3 In0_7 3.280320 1_455
Ho0_3 In0_3 3.280320 1_555
Ho0_3 In6_7 3.379548 1_455
Ho0_3 In6_3 3.379548 1_555
Ho0_3 Ho9_3 3.449996 1_555
Ho0_4 Pt0_0 2.800868 1_555
Ho0_4 Pt0_4 2.800868 1_555
Ho0_4 In7_2 3.192019 1_545
Ho0_4 In7_6 3.192019 1_545
Ho0_4 In0_0 3.280320 1_555
Ho0_4 In0_4 3.280320 1_555
Ho0_4 In6_0 3.379548 1_555
Ho0_4 In6_4 3.379548 1_555
Ho0_4 Ho9_4 3.449996 1_555
Ho0_5 Pt0_1 2.800868 1_555
Ho0_5 Pt0_5 2.800868 1_555
Ho0_5 In7_3 3.192019 1_545
Ho0_5 In7_7 3.192019 1_545
Ho0_5 In0_1 3.280320 1_555
Ho0_5 In0_5 3.280320 1_555
Ho0_5 In6_1 3.379548 1_555
Ho0_5 In6_5 3.379548 1_555
Ho0_5 Ho9_5 3.449996 1_555
Ho0_6 Pt0_2 2.800868 1_555
Ho0_6 Pt0_6 2.800868 1_555
Ho0_6 In7_0 3.192019 1_555
Ho0_6 In7_4 3.192019 1_555
Ho0_6 In0_2 3.280320 1_555
Ho0_6 In0_6 3.280320 1_555
Ho0_6 In6_2 3.379548 1_555
Ho0_6 In6_6 3.379548 1_555
Ho0_6 Ho9_6 3.449996 1_555
Ho0_7 Pt0_3 2.800868 1_555
Ho0_7 Pt0_7 2.800868 1_555
Ho0_7 In7_1 3.192019 1_555
Ho0_7 In7_5 3.192019 1_555
Ho0_7 In0_3 3.280320 1_555
Ho0_7 In0_7 3.280320 1_555
Ho0_7 In6_3 3.379548 1_555
Ho0_7 In6_7 3.379548 1_555
Ho0_7 Ho9_7 3.449996 1_555
Ho1_0 Pt1_4 2.800868 1_455
Ho1_0 Pt1_0 2.800868 1_555
Ho1_0 In6_6 3.192019 1_455
Ho1_0 In6_2 3.192019 1_555
Ho1_0 In1_4 3.280320 1_455
Ho1_0 In1_0 3.280320 1_555
Ho1_0 In7_4 3.379548 1_455
Ho1_0 In7_0 3.379548 1_555
Ho1_0 Ho9_0 3.449996 1_555
Ho1_1 Pt1_5 2.800868 1_455
Ho1_1 Pt1_1 2.800868 1_555
Ho1_1 In6_7 3.192019 1_455
Ho1_1 In6_3 3.192019 1_555
Ho1_1 In1_5 3.280320 1_455
Ho1_1 In1_1 3.280320 1_555
Ho1_1 In7_5 3.379548 1_455
Ho1_1 In7_1 3.379548 1_555
Ho1_1 Ho9_1 3.449996 1_555
Ho1_2 Pt1_6 2.800868 1_455
Ho1_2 Pt1_2 2.800868 1_555
Ho1_2 In6_0 3.192019 1_565
Ho1_2 In6_4 3.192019 1_465
Ho1_2 In1_6 3.280320 1_455
Ho1_2 In1_2 3.280320 1_555
Ho1_2 In7_6 3.379548 1_455
Ho1_2 In7_2 3.379548 1_555
Ho1_2 Ho9_2 3.449996 1_555
Ho1_3 Pt1_7 2.800868 1_455
Ho1_3 Pt1_3 2.800868 1_555
Ho1_3 In6_5 3.192019 1_465
Ho1_3 In6_1 3.192019 1_565
Ho1_3 In1_7 3.280320 1_455
Ho1_3 In1_3 3.280320 1_555
Ho1_3 In7_7 3.379548 1_455
Ho1_3 In7_3 3.379548 1_555
Ho1_3 Ho9_3 3.449996 1_555
Ho1_4 Pt1_0 2.800868 1_555
Ho1_4 Pt1_4 2.800868 1_555
Ho1_4 In6_2 3.192019 1_555
Ho1_4 In6_6 3.192019 1_555
Ho1_4 In1_0 3.280320 1_555
Ho1_4 In1_4 3.280320 1_555
Ho1_4 In7_0 3.379548 1_555
Ho1_4 In7_4 3.379548 1_555
Ho1_4 Ho9_4 3.449996 1_555
Ho1_5 Pt1_1 2.800868 1_555
Ho1_5 Pt1_5 2.800868 1_555
Ho1_5 In6_3 3.192019 1_555
Ho1_5 In6_7 3.192019 1_555
Ho1_5 In1_1 3.280320 1_555
Ho1_5 In1_5 3.280320 1_555
Ho1_5 In7_1 3.379548 1_555
Ho1_5 In7_5 3.379548 1_555
Ho1_5 Ho9_5 3.449996 1_555
Ho1_6 Pt1_2 2.800868 1_555
Ho1_6 Pt1_6 2.800868 1_555
Ho1_6 In6_0 3.192019 1_565
Ho1_6 In6_4 3.192019 1_565
Ho1_6 In1_2 3.280320 1_555
Ho1_6 In1_6 3.280320 1_555
Ho1_6 In7_2 3.379548 1_555
Ho1_6 In7_6 3.379548 1_555
Ho1_6 Ho9_6 3.449996 1_555
Ho1_7 Pt1_3 2.800868 1_555
Ho1_7 Pt1_7 2.800868 1_555
Ho1_7 In6_1 3.192019 1_565
Ho1_7 In6_5 3.192019 1_565
Ho1_7 In1_3 3.280320 1_555
Ho1_7 In1_7 3.280320 1_555
Ho1_7 In7_3 3.379548 1_555
Ho1_7 In7_7 3.379548 1_555
Ho1_7 Ho9_7 3.449996 1_555
Ho2_0 Pt2_4 2.800868 1_455
Ho2_0 Pt2_0 2.800868 1_555
Ho2_0 In5_4 3.192019 1_455
Ho2_0 In5_0 3.192019 1_555
Ho2_0 In2_4 3.280320 1_455
Ho2_0 In2_0 3.280320 1_555
Ho2_0 In4_5 3.379548 1_455
Ho2_0 In4_1 3.379548 1_555
Ho2_0 Ho8_1 3.449996 1_555
Ho2_1 Pt2_5 2.800868 1_455
Ho2_1 Pt2_1 2.800868 1_555
Ho2_1 In5_5 3.192019 1_455
Ho2_1 In5_1 3.192019 1_555
Ho2_1 In2_5 3.280320 1_455
Ho2_1 In2_1 3.280320 1_555
Ho2_1 In4_4 3.379548 1_456
Ho2_1 In4_0 3.379548 1_556
Ho2_1 Ho8_0 3.449996 1_556
Ho2_2 Pt2_6 2.800868 1_455
Ho2_2 Pt2_2 2.800868 1_555
Ho2_2 In5_6 3.192019 1_455
Ho2_2 In5_2 3.192019 1_555
Ho2_2 In2_6 3.280320 1_455
Ho2_2 In2_2 3.280320 1_555
Ho2_2 In4_7 3.379548 1_455
Ho2_2 In4_3 3.379548 1_555
Ho2_2 Ho8_3 3.449996 1_555
Ho2_3 Pt2_7 2.800868 1_455
Ho2_3 Pt2_3 2.800868 1_555
Ho2_3 In5_7 3.192019 1_455
Ho2_3 In5_3 3.192019 1_555
Ho2_3 In2_7 3.280320 1_455
Ho2_3 In2_3 3.280320 1_555
Ho2_3 In4_6 3.379548 1_456
Ho2_3 In4_2 3.379548 1_556
Ho2_3 Ho8_2 3.449996 1_556
Ho2_4 Pt2_0 2.800868 1_555
Ho2_4 Pt2_4 2.800868 1_555
Ho2_4 In5_0 3.192019 1_555
Ho2_4 In5_4 3.192019 1_555
Ho2_4 In2_0 3.280320 1_555
Ho2_4 In2_4 3.280320 1_555
Ho2_4 In4_1 3.379548 1_555
Ho2_4 In4_5 3.379548 1_555
Ho2_4 Ho8_5 3.449996 1_555
Ho2_5 Pt2_1 2.800868 1_555
Ho2_5 Pt2_5 2.800868 1_555
Ho2_5 In5_1 3.192019 1_555
Ho2_5 In5_5 3.192019 1_555
Ho2_5 In2_1 3.280320 1_555
Ho2_5 In2_5 3.280320 1_555
Ho2_5 In4_0 3.379548 1_556
Ho2_5 In4_4 3.379548 1_556
Ho2_5 Ho8_4 3.449996 1_556
Ho2_6 Pt2_2 2.800868 1_555
Ho2_6 Pt2_6 2.800868 1_555
Ho2_6 In5_2 3.192019 1_555
Ho2_6 In5_6 3.192019 1_555
Ho2_6 In2_2 3.280320 1_555
Ho2_6 In2_6 3.280320 1_555
Ho2_6 In4_3 3.379548 1_555
Ho2_6 In4_7 3.379548 1_555
Ho2_6 Ho8_7 3.449996 1_555
Ho2_7 Pt2_3 2.800868 1_555
Ho2_7 Pt2_7 2.800868 1_555
Ho2_7 In5_3 3.192019 1_555
Ho2_7 In5_7 3.192019 1_555
Ho2_7 In2_3 3.280320 1_555
Ho2_7 In2_7 3.280320 1_555
Ho2_7 In4_2 3.379548 1_556
Ho2_7 In4_6 3.379548 1_556
Ho2_7 Ho8_6 3.449996 1_556
Ho3_0 Pt3_4 2.800868 1_455
Ho3_0 Pt3_0 2.800868 1_555
Ho3_0 In4_4 3.192019 1_455
Ho3_0 In4_0 3.192019 1_555
Ho3_0 In3_4 3.280320 1_455
Ho3_0 In3_0 3.280320 1_555
Ho3_0 In5_5 3.379548 1_454
Ho3_0 In5_1 3.379548 1_554
Ho3_0 Ho8_2 3.449996 1_555
Ho3_1 Pt3_5 2.800868 1_455
Ho3_1 Pt3_1 2.800868 1_555
Ho3_1 In4_5 3.192019 1_455
Ho3_1 In4_1 3.192019 1_555
Ho3_1 In3_5 3.280320 1_455
Ho3_1 In3_1 3.280320 1_555
Ho3_1 In5_4 3.379548 1_455
Ho3_1 In5_0 3.379548 1_555
Ho3_1 Ho8_3 3.449996 1_555
Ho3_2 Pt3_6 2.800868 1_455
Ho3_2 Pt3_2 2.800868 1_555
Ho3_2 In4_6 3.192019 1_455
Ho3_2 In4_2 3.192019 1_555
Ho3_2 In3_6 3.280320 1_455
Ho3_2 In3_2 3.280320 1_555
Ho3_2 In5_7 3.379548 1_454
Ho3_2 In5_3 3.379548 1_554
Ho3_2 Ho8_0 3.449996 1_565
Ho3_3 Pt3_7 2.800868 1_455
Ho3_3 Pt3_3 2.800868 1_555
Ho3_3 In4_7 3.192019 1_455
Ho3_3 In4_3 3.192019 1_555
Ho3_3 In3_7 3.280320 1_455
Ho3_3 In3_3 3.280320 1_555
Ho3_3 In5_6 3.379548 1_455
Ho3_3 In5_2 3.379548 1_555
Ho3_3 Ho8_1 3.449996 1_565
Ho3_4 Pt3_0 2.800868 1_555
Ho3_4 Pt3_4 2.800868 1_555
Ho3_4 In4_0 3.192019 1_555
Ho3_4 In4_4 3.192019 1_555
Ho3_4 In3_0 3.280320 1_555
Ho3_4 In3_4 3.280320 1_555
Ho3_4 In5_1 3.379548 1_554
Ho3_4 In5_5 3.379548 1_554
Ho3_4 Ho8_6 3.449996 1_555
Ho3_5 Pt3_1 2.800868 1_555
Ho3_5 Pt3_5 2.800868 1_555
Ho3_5 In4_1 3.192019 1_555
Ho3_5 In4_5 3.192019 1_555
Ho3_5 In3_1 3.280320 1_555
Ho3_5 In3_5 3.280320 1_555
Ho3_5 In5_0 3.379548 1_555
Ho3_5 In5_4 3.379548 1_555
Ho3_5 Ho8_7 3.449996 1_555
Ho3_6 Pt3_2 2.800868 1_555
Ho3_6 Pt3_6 2.800868 1_555
Ho3_6 In4_2 3.192019 1_555
Ho3_6 In4_6 3.192019 1_555
Ho3_6 In3_2 3.280320 1_555
Ho3_6 In3_6 3.280320 1_555
Ho3_6 In5_3 3.379548 1_554
Ho3_6 In5_7 3.379548 1_554
Ho3_6 Ho8_4 3.449996 1_565
Ho3_7 Pt3_3 2.800868 1_555
Ho3_7 Pt3_7 2.800868 1_555
Ho3_7 In4_3 3.192019 1_555
Ho3_7 In4_7 3.192019 1_555
Ho3_7 In3_3 3.280320 1_555
Ho3_7 In3_7 3.280320 1_555
Ho3_7 In5_2 3.379548 1_555
Ho3_7 In5_6 3.379548 1_555
Ho3_7 Ho8_5 3.449996 1_565
Ho4_0 Pt0_4 2.926836 1_455
Ho4_0 Pt0_0 2.926836 1_555
Ho4_0 Pt3_4 2.939343 1_455
Ho4_0 Pt3_0 2.939343 1_555
Ho4_0 In0_4 3.313926 1_455
Ho4_0 In0_0 3.313926 1_555
Ho4_0 In4_4 3.322385 1_455
Ho4_0 In4_0 3.322385 1_555
Ho4_0 In3_6 3.394897 1_445
Ho4_0 In3_2 3.394897 1_545
Ho4_1 Pt0_5 2.926836 1_455
Ho4_1 Pt0_1 2.926836 1_555
Ho4_1 Pt3_5 2.939343 1_455
Ho4_1 Pt3_1 2.939343 1_555
Ho4_1 In0_5 3.313926 1_455
Ho4_1 In0_1 3.313926 1_555
Ho4_1 In4_5 3.322385 1_455
Ho4_1 In4_1 3.322385 1_555
Ho4_1 In3_7 3.394897 1_445
Ho4_1 In3_3 3.394897 1_545
Ho4_2 Pt0_6 2.926836 1_455
Ho4_2 Pt0_2 2.926836 1_555
Ho4_2 Pt3_6 2.939343 1_455
Ho4_2 Pt3_2 2.939343 1_555
Ho4_2 In0_6 3.313926 1_455
Ho4_2 In0_2 3.313926 1_555
Ho4_2 In4_6 3.322385 1_455
Ho4_2 In4_2 3.322385 1_555
Ho4_2 In3_4 3.394897 1_455
Ho4_2 In3_0 3.394897 1_555
Ho4_3 Pt0_7 2.926836 1_455
Ho4_3 Pt0_3 2.926836 1_555
Ho4_3 Pt3_7 2.939343 1_455
Ho4_3 Pt3_3 2.939343 1_555
Ho4_3 In0_7 3.313926 1_455
Ho4_3 In0_3 3.313926 1_555
Ho4_3 In4_7 3.322385 1_455
Ho4_3 In4_3 3.322385 1_555
Ho4_3 In3_5 3.394897 1_455
Ho4_3 In3_1 3.394897 1_555
Ho4_4 Pt0_0 2.926836 1_555
Ho4_4 Pt0_4 2.926836 1_555
Ho4_4 Pt3_0 2.939343 1_555
Ho4_4 Pt3_4 2.939343 1_555
Ho4_4 In0_0 3.313926 1_555
Ho4_4 In0_4 3.313926 1_555
Ho4_4 In4_0 3.322385 1_555
Ho4_4 In4_4 3.322385 1_555
Ho4_4 In3_2 3.394897 1_545
Ho4_4 In3_6 3.394897 1_545
Ho4_5 Pt0_1 2.926836 1_555
Ho4_5 Pt0_5 2.926836 1_555
Ho4_5 Pt3_1 2.939343 1_555
Ho4_5 Pt3_5 2.939343 1_555
Ho4_5 In0_1 3.313926 1_555
Ho4_5 In0_5 3.313926 1_555
Ho4_5 In4_1 3.322385 1_555
Ho4_5 In4_5 3.322385 1_555
Ho4_5 In3_3 3.394897 1_545
Ho4_5 In3_7 3.394897 1_545
Ho4_6 Pt0_2 2.926836 1_555
Ho4_6 Pt0_6 2.926836 1_555
Ho4_6 Pt3_2 2.939343 1_555
Ho4_6 Pt3_6 2.939343 1_555
Ho4_6 In0_2 3.313926 1_555
Ho4_6 In0_6 3.313926 1_555
Ho4_6 In4_2 3.322385 1_555
Ho4_6 In4_6 3.322385 1_555
Ho4_6 In3_4 3.394897 1_555
Ho4_6 In3_0 3.394897 1_555
Ho4_7 Pt0_3 2.926836 1_555
Ho4_7 Pt0_7 2.926836 1_555
Ho4_7 Pt3_3 2.939343 1_555
Ho4_7 Pt3_7 2.939343 1_555
Ho4_7 In0_3 3.313926 1_555
Ho4_7 In0_7 3.313926 1_555
Ho4_7 In4_7 3.322385 1_555
Ho4_7 In4_3 3.322385 1_555
Ho4_7 In3_5 3.394897 1_555
Ho4_7 In3_1 3.394897 1_555
Ho5_0 Pt1_4 2.926836 1_455
Ho5_0 Pt1_0 2.926836 1_555
Ho5_0 Pt2_4 2.939343 1_455
Ho5_0 Pt2_0 2.939343 1_555
Ho5_0 In1_4 3.313926 1_455
Ho5_0 In1_0 3.313926 1_555
Ho5_0 In5_4 3.322385 1_455
Ho5_0 In5_0 3.322385 1_555
Ho5_0 In2_6 3.394897 1_455
Ho5_0 In2_2 3.394897 1_555
Ho5_1 Pt1_5 2.926836 1_455
Ho5_1 Pt1_1 2.926836 1_555
Ho5_1 Pt2_5 2.939343 1_455
Ho5_1 Pt2_1 2.939343 1_555
Ho5_1 In1_5 3.313926 1_455
Ho5_1 In1_1 3.313926 1_555
Ho5_1 In5_5 3.322385 1_455
Ho5_1 In5_1 3.322385 1_555
Ho5_1 In2_7 3.394897 1_455
Ho5_1 In2_3 3.394897 1_555
Ho5_2 Pt1_6 2.926836 1_455
Ho5_2 Pt1_2 2.926836 1_555
Ho5_2 Pt2_6 2.939343 1_455
Ho5_2 Pt2_2 2.939343 1_555
Ho5_2 In1_6 3.313926 1_455
Ho5_2 In1_2 3.313926 1_555
Ho5_2 In5_6 3.322385 1_455
Ho5_2 In5_2 3.322385 1_555
Ho5_2 In2_4 3.394897 1_465
Ho5_2 In2_0 3.394897 1_565
Ho5_3 Pt1_7 2.926836 1_455
Ho5_3 Pt1_3 2.926836 1_555
Ho5_3 Pt2_7 2.939343 1_455
Ho5_3 Pt2_3 2.939343 1_555
Ho5_3 In1_7 3.313926 1_455
Ho5_3 In1_3 3.313926 1_555
Ho5_3 In5_7 3.322385 1_455
Ho5_3 In5_3 3.322385 1_555
Ho5_3 In2_5 3.394897 1_465
Ho5_3 In2_1 3.394897 1_565
Ho5_4 Pt1_0 2.926836 1_555
Ho5_4 Pt1_4 2.926836 1_555
Ho5_4 Pt2_0 2.939343 1_555
Ho5_4 Pt2_4 2.939343 1_555
Ho5_4 In1_0 3.313926 1_555
Ho5_4 In1_4 3.313926 1_555
Ho5_4 In5_0 3.322385 1_555
Ho5_4 In5_4 3.322385 1_555
Ho5_4 In2_2 3.394897 1_555
Ho5_4 In2_6 3.394897 1_555
Ho5_5 Pt1_1 2.926836 1_555
Ho5_5 Pt1_5 2.926836 1_555
Ho5_5 Pt2_1 2.939343 1_555
Ho5_5 Pt2_5 2.939343 1_555
Ho5_5 In1_1 3.313926 1_555
Ho5_5 In1_5 3.313926 1_555
Ho5_5 In5_1 3.322385 1_555
Ho5_5 In5_5 3.322385 1_555
Ho5_5 In2_3 3.394897 1_555
Ho5_5 In2_7 3.394897 1_555
Ho5_6 Pt1_2 2.926836 1_555
Ho5_6 Pt1_6 2.926836 1_555
Ho5_6 Pt2_2 2.939343 1_555
Ho5_6 Pt2_6 2.939343 1_555
Ho5_6 In1_2 3.313926 1_555
Ho5_6 In1_6 3.313926 1_555
Ho5_6 In5_2 3.322385 1_555
Ho5_6 In5_6 3.322385 1_555
Ho5_6 In2_0 3.394897 1_565
Ho5_6 In2_4 3.394897 1_565
Ho5_7 Pt1_3 2.926836 1_555
Ho5_7 Pt1_7 2.926836 1_555
Ho5_7 Pt2_3 2.939343 1_555
Ho5_7 Pt2_7 2.939343 1_555
Ho5_7 In1_3 3.313926 1_555
Ho5_7 In1_7 3.313926 1_555
Ho5_7 In5_3 3.322385 1_555
Ho5_7 In5_7 3.322385 1_555
Ho5_7 In2_1 3.394897 1_565
Ho5_7 In2_5 3.394897 1_565
Ho6_0 Pt2_4 2.926836 1_455
Ho6_0 Pt2_0 2.926836 1_555
Ho6_0 Pt1_6 2.939343 1_445
Ho6_0 Pt1_2 2.939343 1_545
Ho6_0 In2_4 3.313926 1_455
Ho6_0 In2_0 3.313926 1_555
Ho6_0 In6_4 3.322385 1_455
Ho6_0 In6_0 3.322385 1_555
Ho6_0 In1_4 3.394897 1_455
Ho6_0 In1_0 3.394897 1_555
Ho6_1 Pt2_5 2.926836 1_455
Ho6_1 Pt2_1 2.926836 1_555
Ho6_1 Pt1_7 2.939343 1_445
Ho6_1 Pt1_3 2.939343 1_545
Ho6_1 In2_5 3.313926 1_455
Ho6_1 In2_1 3.313926 1_555
Ho6_1 In6_5 3.322385 1_455
Ho6_1 In6_1 3.322385 1_555
Ho6_1 In1_5 3.394897 1_455
Ho6_1 In1_1 3.394897 1_555
Ho6_2 Pt2_6 2.926836 1_455
Ho6_2 Pt2_2 2.926836 1_555
Ho6_2 Pt1_4 2.939343 1_455
Ho6_2 Pt1_0 2.939343 1_555
Ho6_2 In2_6 3.313926 1_455
Ho6_2 In2_2 3.313926 1_555
Ho6_2 In6_6 3.322385 1_455
Ho6_2 In6_2 3.322385 1_555
Ho6_2 In1_6 3.394897 1_455
Ho6_2 In1_2 3.394897 1_555
Ho6_3 Pt2_7 2.926836 1_455
Ho6_3 Pt2_3 2.926836 1_555
Ho6_3 Pt1_5 2.939343 1_455
Ho6_3 Pt1_1 2.939343 1_555
Ho6_3 In2_7 3.313926 1_455
Ho6_3 In2_3 3.313926 1_555
Ho6_3 In6_7 3.322385 1_455
Ho6_3 In6_3 3.322385 1_555
Ho6_3 In1_7 3.394897 1_455
Ho6_3 In1_3 3.394897 1_555
Ho6_4 Pt2_0 2.926836 1_555
Ho6_4 Pt2_4 2.926836 1_555
Ho6_4 Pt1_2 2.939343 1_545
Ho6_4 Pt1_6 2.939343 1_545
Ho6_4 In2_0 3.313926 1_555
Ho6_4 In2_4 3.313926 1_555
Ho6_4 In6_0 3.322385 1_555
Ho6_4 In6_4 3.322385 1_555
Ho6_4 In1_0 3.394897 1_555
Ho6_4 In1_4 3.394897 1_555
Ho6_5 Pt2_1 2.926836 1_555
Ho6_5 Pt2_5 2.926836 1_555
Ho6_5 Pt1_3 2.939343 1_545
Ho6_5 Pt1_7 2.939343 1_545
Ho6_5 In2_1 3.313926 1_555
Ho6_5 In2_5 3.313926 1_555
Ho6_5 In6_1 3.322385 1_555
Ho6_5 In6_5 3.322385 1_555
Ho6_5 In1_1 3.394897 1_555
Ho6_5 In1_5 3.394897 1_555
Ho6_6 Pt2_2 2.926836 1_555
Ho6_6 Pt2_6 2.926836 1_555
Ho6_6 Pt1_0 2.939343 1_555
Ho6_6 Pt1_4 2.939343 1_555
Ho6_6 In2_2 3.313926 1_555
Ho6_6 In2_6 3.313926 1_555
Ho6_6 In6_2 3.322385 1_555
Ho6_6 In6_6 3.322385 1_555
Ho6_6 In1_2 3.394897 1_555
Ho6_6 In1_6 3.394897 1_555
Ho6_7 Pt2_3 2.926836 1_555
Ho6_7 Pt2_7 2.926836 1_555
Ho6_7 Pt1_1 2.939343 1_555
Ho6_7 Pt1_5 2.939343 1_555
Ho6_7 In2_3 3.313926 1_555
Ho6_7 In2_7 3.313926 1_555
Ho6_7 In6_3 3.322385 1_555
Ho6_7 In6_7 3.322385 1_555
Ho6_7 In1_3 3.394897 1_555
Ho6_7 In1_7 3.394897 1_555
Ho7_0 Pt3_4 2.926836 1_455
Ho7_0 Pt3_0 2.926836 1_555
Ho7_0 Pt0_6 2.939343 1_455
Ho7_0 Pt0_2 2.939343 1_555
Ho7_0 In3_4 3.313926 1_455
Ho7_0 In3_0 3.313926 1_555
Ho7_0 In7_4 3.322385 1_455
Ho7_0 In7_0 3.322385 1_555
Ho7_0 In0_4 3.394897 1_455
Ho7_0 In0_0 3.394897 1_555
Ho7_1 Pt3_5 2.926836 1_455
Ho7_1 Pt3_1 2.926836 1_555
Ho7_1 Pt0_7 2.939343 1_455
Ho7_1 Pt0_3 2.939343 1_555
Ho7_1 In3_5 3.313926 1_455
Ho7_1 In3_1 3.313926 1_555
Ho7_1 In7_5 3.322385 1_455
Ho7_1 In7_1 3.322385 1_555
Ho7_1 In0_5 3.394897 1_455
Ho7_1 In0_1 3.394897 1_555
Ho7_2 Pt3_2 2.926836 1_555
Ho7_2 Pt3_6 2.926836 1_455
Ho7_2 Pt0_4 2.939343 1_465
Ho7_2 Pt0_0 2.939343 1_565
Ho7_2 In3_6 3.313926 1_455
Ho7_2 In3_2 3.313926 1_555
Ho7_2 In7_6 3.322385 1_455
Ho7_2 In7_2 3.322385 1_555
Ho7_2 In0_6 3.394897 1_455
Ho7_2 In0_2 3.394897 1_555
Ho7_3 Pt3_7 2.926836 1_455
Ho7_3 Pt3_3 2.926836 1_555
Ho7_3 Pt0_5 2.939343 1_465
Ho7_3 Pt0_1 2.939343 1_565
Ho7_3 In3_7 3.313926 1_455
Ho7_3 In3_3 3.313926 1_555
Ho7_3 In7_7 3.322385 1_455
Ho7_3 In7_3 3.322385 1_555
Ho7_3 In0_7 3.394897 1_455
Ho7_3 In0_3 3.394897 1_555
Ho7_4 Pt3_0 2.926836 1_555
Ho7_4 Pt3_4 2.926836 1_555
Ho7_4 Pt0_2 2.939343 1_555
Ho7_4 Pt0_6 2.939343 1_555
Ho7_4 In3_0 3.313926 1_555
Ho7_4 In3_4 3.313926 1_555
Ho7_4 In7_0 3.322385 1_555
Ho7_4 In7_4 3.322385 1_555
Ho7_4 In0_0 3.394897 1_555
Ho7_4 In0_4 3.394897 1_555
Ho7_5 Pt3_1 2.926836 1_555
Ho7_5 Pt3_5 2.926836 1_555
Ho7_5 Pt0_3 2.939343 1_555
Ho7_5 Pt0_7 2.939343 1_555
Ho7_5 In3_1 3.313926 1_555
Ho7_5 In3_5 3.313926 1_555
Ho7_5 In7_1 3.322385 1_555
Ho7_5 In7_5 3.322385 1_555
Ho7_5 In0_1 3.394897 1_555
Ho7_5 In0_5 3.394897 1_555
Ho7_6 Pt3_2 2.926836 1_555
Ho7_6 Pt3_6 2.926836 1_555
Ho7_6 Pt0_0 2.939343 1_565
Ho7_6 Pt0_4 2.939343 1_565
Ho7_6 In3_2 3.313926 1_555
Ho7_6 In3_6 3.313926 1_555
Ho7_6 In7_2 3.322385 1_555
Ho7_6 In7_6 3.322385 1_555
Ho7_6 In0_2 3.394897 1_555
Ho7_6 In0_6 3.394897 1_555
Ho7_7 Pt3_3 2.926836 1_555
Ho7_7 Pt3_7 2.926836 1_555
Ho7_7 Pt0_1 2.939343 1_565
Ho7_7 Pt0_5 2.939343 1_565
Ho7_7 In3_3 3.313926 1_555
Ho7_7 In3_7 3.313926 1_555
Ho7_7 In7_3 3.322385 1_555
Ho7_7 In7_7 3.322385 1_555
Ho7_7 In0_3 3.394897 1_555
Ho7_7 In0_7 3.394897 1_555
Ho8_0 In4_4 3.191650 1_455
Ho8_0 In5_7 3.191650 1_444
Ho8_0 In4_0 3.191650 1_555
Ho8_0 In5_3 3.191650 1_544
Ho8_0 In3_6 3.296446 1_445
Ho8_0 In3_2 3.296446 1_545
Ho8_0 In2_5 3.296446 1_454
Ho8_0 In2_1 3.296446 1_554
Ho8_0 Ho8_4 3.609300 1_455
Ho8_0 Ho8_4 3.609300 1_555
Ho8_1 In5_6 3.191650 1_445
Ho8_1 In4_5 3.191650 1_455
Ho8_1 In5_2 3.191650 1_545
Ho8_1 In4_1 3.191650 1_555
Ho8_1 In3_3 3.296446 1_545
Ho8_1 In3_7 3.296446 1_445
Ho8_1 In2_4 3.296446 1_455
Ho8_1 In2_0 3.296446 1_555
Ho8_1 Ho8_5 3.609300 1_555
Ho8_1 Ho8_5 3.609300 1_455
Ho8_2 In4_6 3.191650 1_455
Ho8_2 In4_2 3.191650 1_555
Ho8_2 In5_5 3.191650 1_454
Ho8_2 In5_1 3.191650 1_554
Ho8_2 In3_4 3.296446 1_455
Ho8_2 In3_0 3.296446 1_555
Ho8_2 In2_3 3.296446 1_554
Ho8_2 In2_7 3.296446 1_454
Ho8_2 Ho8_6 3.609300 1_455
Ho8_2 Ho8_6 3.609300 1_555
Ho8_3 In4_7 3.191650 1_455
Ho8_3 In4_3 3.191650 1_555
Ho8_3 In5_4 3.191650 1_455
Ho8_3 In5_0 3.191650 1_555
Ho8_3 In2_6 3.296446 1_455
Ho8_3 In3_5 3.296446 1_455
Ho8_3 In2_2 3.296446 1_555
Ho8_3 In3_1 3.296446 1_555
Ho8_3 Ho8_7 3.609300 1_455
Ho8_3 Ho8_7 3.609300 1_555
Ho8_4 In4_0 3.191650 1_555
Ho8_4 In5_3 3.191650 1_544
Ho8_4 In4_4 3.191650 1_555
Ho8_4 In5_7 3.191650 1_544
Ho8_4 In3_2 3.296446 1_545
Ho8_4 In2_1 3.296446 1_554
Ho8_4 In3_6 3.296446 1_545
Ho8_4 In2_5 3.296446 1_554
Ho8_5 In5_2 3.191650 1_545
Ho8_5 In4_1 3.191650 1_555
Ho8_5 In4_5 3.191650 1_555
Ho8_5 In5_6 3.191650 1_545
Ho8_5 In3_3 3.296446 1_545
Ho8_5 In2_0 3.296446 1_555
Ho8_5 In3_7 3.296446 1_545
Ho8_5 In2_4 3.296446 1_555
Ho8_6 In4_2 3.191650 1_555
Ho8_6 In4_6 3.191650 1_555
Ho8_6 In5_1 3.191650 1_554
Ho8_6 In5_5 3.191650 1_554
Ho8_6 In3_0 3.296446 1_555
Ho8_6 In2_3 3.296446 1_554
Ho8_6 In3_4 3.296446 1_555
Ho8_6 In2_7 3.296446 1_554
Ho8_7 In4_3 3.191650 1_555
Ho8_7 In4_7 3.191650 1_555
Ho8_7 In5_0 3.191650 1_555
Ho8_7 In5_4 3.191650 1_555
Ho8_7 In2_2 3.296446 1_555
Ho8_7 In3_1 3.296446 1_555
Ho8_7 In2_6 3.296446 1_555
Ho8_7 In3_5 3.296446 1_555
Ho9_0 In7_4 3.191650 1_455
Ho9_0 In7_0 3.191650 1_555
Ho9_0 In6_4 3.191650 1_455
Ho9_0 In6_0 3.191650 1_555
Ho9_0 In0_4 3.296446 1_455
Ho9_0 In0_0 3.296446 1_555
Ho9_0 In1_4 3.296446 1_455
Ho9_0 In1_0 3.296446 1_555
Ho9_0 Ho9_4 3.609300 1_455
Ho9_0 Ho9_4 3.609300 1_555
Ho9_1 In7_5 3.191650 1_455
Ho9_1 In7_1 3.191650 1_555
Ho9_1 In6_5 3.191650 1_455
Ho9_1 In6_1 3.191650 1_555
Ho9_1 In1_5 3.296446 1_455
Ho9_1 In0_5 3.296446 1_455
Ho9_1 In1_1 3.296446 1_555
Ho9_1 In0_1 3.296446 1_555
Ho9_1 Ho9_5 3.609300 1_455
Ho9_1 Ho9_5 3.609300 1_555
Ho9_2 In7_6 3.191650 1_455
Ho9_2 In6_6 3.191650 1_455
Ho9_2 In7_2 3.191650 1_555
Ho9_2 In6_2 3.191650 1_555
Ho9_2 In0_6 3.296446 1_455
Ho9_2 In0_2 3.296446 1_555
Ho9_2 In1_2 3.296446 1_555
Ho9_2 In1_6 3.296446 1_455
Ho9_2 Ho9_6 3.609300 1_455
Ho9_2 Ho9_6 3.609300 1_555
Ho9_3 In7_7 3.191650 1_455
Ho9_3 In7_3 3.191650 1_555
Ho9_3 In6_7 3.191650 1_455
Ho9_3 In6_3 3.191650 1_555
Ho9_3 In1_3 3.296446 1_555
Ho9_3 In1_7 3.296446 1_455
Ho9_3 In0_7 3.296446 1_455
Ho9_3 In0_3 3.296446 1_555
Ho9_3 Ho9_7 3.609300 1_555
Ho9_3 Ho9_7 3.609300 1_455
Ho9_4 In7_0 3.191650 1_555
Ho9_4 In6_0 3.191650 1_555
Ho9_4 In7_4 3.191650 1_555
Ho9_4 In6_4 3.191650 1_555
Ho9_4 In0_0 3.296446 1_555
Ho9_4 In0_4 3.296446 1_555
Ho9_4 In1_0 3.296446 1_555
Ho9_4 In1_4 3.296446 1_555
Ho9_5 In7_1 3.191650 1_555
Ho9_5 In7_5 3.191650 1_555
Ho9_5 In6_1 3.191650 1_555
Ho9_5 In6_5 3.191650 1_555
Ho9_5 In1_1 3.296446 1_555
Ho9_5 In0_1 3.296446 1_555
Ho9_5 In0_5 3.296446 1_555
Ho9_5 In1_5 3.296446 1_555
Ho9_6 In7_2 3.191650 1_555
Ho9_6 In7_6 3.191650 1_555
Ho9_6 In6_2 3.191650 1_555
Ho9_6 In6_6 3.191650 1_555
Ho9_6 In0_2 3.296446 1_555
Ho9_6 In0_6 3.296446 1_555
Ho9_6 In1_2 3.296446 1_555
Ho9_6 In1_6 3.296446 1_555
Ho9_7 In7_3 3.191650 1_555
Ho9_7 In7_7 3.191650 1_555
Ho9_7 In6_3 3.191650 1_555
Ho9_7 In6_7 3.191650 1_555
Ho9_7 In1_3 3.296446 1_555
Ho9_7 In0_3 3.296446 1_555
Ho9_7 In1_7 3.296446 1_555
Ho9_7 In0_7 3.296446 1_555
In0_0 Pt3_0 2.926798 1_555
In0_0 In7_0 3.286435 1_555
In0_0 Pt0_0 3.307649 1_555
In0_1 Pt3_1 2.926798 1_555
In0_1 In7_1 3.286435 1_555
In0_1 Pt0_1 3.307649 1_555
In0_2 Pt3_2 2.926798 1_555
In0_2 In7_2 3.286435 1_555
In0_2 Pt0_2 3.307649 1_555
In0_3 Pt3_3 2.926798 1_555
In0_3 In7_3 3.286435 1_555
In0_3 Pt0_3 3.307649 1_555
In0_4 Pt3_4 2.926798 1_555
In0_4 In7_4 3.286435 1_555
In0_4 Pt0_4 3.307649 1_555
In0_5 Pt3_5 2.926798 1_555
In0_5 In7_5 3.286435 1_555
In0_5 Pt0_5 3.307649 1_555
In0_6 Pt3_6 2.926798 1_555
In0_6 In7_6 3.286435 1_555
In0_6 Pt0_6 3.307649 1_555
In0_7 Pt3_7 2.926798 1_555
In0_7 In7_7 3.286435 1_555
In0_7 Pt0_7 3.307649 1_555
In1_0 Pt2_0 2.926798 1_555
In1_0 In6_0 3.286435 1_555
In1_0 Pt1_0 3.307649 1_555
In1_1 Pt2_1 2.926798 1_555
In1_1 In6_1 3.286435 1_555
In1_1 Pt1_1 3.307649 1_555
In1_2 Pt2_2 2.926798 1_555
In1_2 In6_2 3.286435 1_555
In1_2 Pt1_2 3.307649 1_555
In1_3 Pt2_3 2.926798 1_555
In1_3 In6_3 3.286435 1_555
In1_3 Pt1_3 3.307649 1_555
In1_4 Pt2_4 2.926798 1_555
In1_4 In6_4 3.286435 1_555
In1_4 Pt1_4 3.307649 1_555
In1_5 Pt2_5 2.926798 1_555
In1_5 In6_5 3.286435 1_555
In1_5 Pt1_5 3.307649 1_555
In1_6 Pt2_6 2.926798 1_555
In1_6 In6_6 3.286435 1_555
In1_6 Pt1_6 3.307649 1_555
In1_7 Pt2_7 2.926798 1_555
In1_7 In6_7 3.286435 1_555
In1_7 Pt1_7 3.307649 1_555
In2_0 Pt1_2 2.926798 1_545
In2_0 In5_2 3.286435 1_545
In2_0 Pt2_0 3.307649 1_555
In2_1 Pt1_3 2.926798 1_545
In2_1 In5_3 3.286435 1_545
In2_1 Pt2_1 3.307649 1_555
In2_2 Pt1_0 2.926798 1_555
In2_2 In5_0 3.286435 1_555
In2_2 Pt2_2 3.307649 1_555
In2_3 Pt1_1 2.926798 1_555
In2_3 In5_1 3.286435 1_555
In2_3 Pt2_3 3.307649 1_555
In2_4 Pt1_6 2.926798 1_545
In2_4 In5_6 3.286435 1_545
In2_4 Pt2_4 3.307649 1_555
In2_5 Pt1_7 2.926798 1_545
In2_5 In5_7 3.286435 1_545
In2_5 Pt2_5 3.307649 1_555
In2_6 Pt1_4 2.926798 1_555
In2_6 In5_4 3.286435 1_555
In2_6 Pt2_6 3.307649 1_555
In2_7 Pt1_5 2.926798 1_555
In2_7 In5_5 3.286435 1_555
In2_7 Pt2_7 3.307649 1_555
In3_0 Pt0_2 2.926798 1_555
In3_0 In4_2 3.286435 1_555
In3_0 Pt3_0 3.307649 1_555
In3_1 Pt0_3 2.926798 1_555
In3_1 In4_3 3.286435 1_555
In3_1 Pt3_1 3.307649 1_555
In3_2 Pt0_0 2.926798 1_565
In3_2 In4_0 3.286435 1_565
In3_2 Pt3_2 3.307649 1_555
In3_3 Pt0_1 2.926798 1_565
In3_3 In4_1 3.286435 1_565
In3_3 Pt3_3 3.307649 1_555
In3_4 Pt0_6 2.926798 1_555
In3_4 In4_6 3.286435 1_555
In3_4 Pt3_4 3.307649 1_555
In3_5 Pt0_7 2.926798 1_555
In3_5 In4_7 3.286435 1_555
In3_5 Pt3_5 3.307649 1_555
In3_6 Pt0_4 2.926798 1_565
In3_6 In4_4 3.286435 1_565
In3_6 Pt3_6 3.307649 1_555
In3_7 Pt0_5 2.926798 1_565
In3_7 In4_5 3.286435 1_565
In3_7 Pt3_7 3.307649 1_555
In4_0 Pt3_0 3.004329 1_555
In4_1 Pt3_1 3.004329 1_555
In4_2 Pt3_2 3.004329 1_555
In4_3 Pt3_3 3.004329 1_555
In4_4 Pt3_4 3.004329 1_555
In4_5 Pt3_5 3.004329 1_555
In4_6 Pt3_6 3.004329 1_555
In4_7 Pt3_7 3.004329 1_555
In5_0 Pt2_0 3.004329 1_555
In5_1 Pt2_1 3.004329 1_555
In5_2 Pt2_2 3.004329 1_555
In5_3 Pt2_3 3.004329 1_555
In5_4 Pt2_4 3.004329 1_555
In5_5 Pt2_5 3.004329 1_555
In5_6 Pt2_6 3.004329 1_555
In5_7 Pt2_7 3.004329 1_555
In6_0 Pt1_2 3.004329 1_545
In6_1 Pt1_3 3.004329 1_545
In6_2 Pt1_0 3.004329 1_555
In6_3 Pt1_1 3.004329 1_555
In6_4 Pt1_6 3.004329 1_545
In6_5 Pt1_7 3.004329 1_545
In6_6 Pt1_4 3.004329 1_555
In6_7 Pt1_5 3.004329 1_555
In7_0 Pt0_2 3.004329 1_555
In7_1 Pt0_3 3.004329 1_555
In7_2 Pt0_0 3.004329 1_565
In7_3 Pt0_1 3.004329 1_565
In7_4 Pt0_6 3.004329 1_555
In7_5 Pt0_7 3.004329 1_555
In7_6 Pt0_4 3.004329 1_565
In7_7 Pt0_5 3.004329 1_565
