# generated using pymatgen
data_KRb2GaI6
_symmetry_space_group_name_H-M   'P 1'
_cell_length_a   8.74517423
_cell_length_b   8.74517423
_cell_length_c   8.74517423
_cell_angle_alpha   60.00000000
_cell_angle_beta   60.00000000
_cell_angle_gamma   60.00000000
_symmetry_Int_Tables_number   1
_chemical_formula_structural   KRb2GaI6
_chemical_formula_sum   'K1 Rb2 Ga1 I6'
_cell_volume   472.92296208
_cell_formula_units_Z   1
loop_
 _symmetry_equiv_pos_site_id
 _symmetry_equiv_pos_as_xyz
  1  'x, y, z'
loop_
 _atom_site_type_symbol
 _atom_site_label
 _atom_site_symmetry_multiplicity
 _atom_site_fract_x
 _atom_site_fract_y
 _atom_site_fract_z
 _atom_site_occupancy
  K  K0  1  0.50000000  0.50000000  0.50000000  1
  Rb  Rb0  1  0.75000000  0.75000000  0.75000000  1
  Rb  Rb1  1  0.25000000  0.25000000  0.25000000  1
  Ga  Ga0  1  0.00000000  0.00000000  0.00000000  1
  I  I0  1  0.77259600  0.22740400  0.22740400  1
  I  I1  1  0.22740400  0.22740400  0.77259600  1
  I  I2  1  0.22740400  0.77259600  0.77259600  1
  I  I3  1  0.22740400  0.77259600  0.22740400  1
  I  I4  1  0.77259600  0.22740400  0.77259600  1
  I  I5  1  0.77259600  0.77259600  0.22740400  1
loop_
_geom_bond_atom_site_label_1
_geom_bond_atom_site_label_2
_geom_bond_distance
_geom_bond_site_symmetry_2
Ga0 I1 2.812429 1_554
Ga0 I0 2.812429 1_455
Ga0 I3 2.812429 1_545
Ga0 I5 2.812429 1_445
Ga0 I2 2.812429 1_544
Ga0 I4 2.812429 1_454
I0 K0 3.371343 1_555
I1 K0 3.371343 1_555
I2 K0 3.371343 1_555
I3 K0 3.371343 1_555
I4 K0 3.371343 1_555
I5 K0 3.371343 1_555
