# generated using pymatgen
data_Zn5P4H12C2(NO8)2
_symmetry_space_group_name_H-M   'P 1'
_cell_length_a   7.38646200
_cell_length_b   13.62613800
_cell_length_c   18.34027700
_cell_angle_alpha   90.00000000
_cell_angle_beta   90.00000000
_cell_angle_gamma   90.00000000
_symmetry_Int_Tables_number   1
_chemical_formula_structural   Zn5P4H12C2(NO8)2
_chemical_formula_sum   'Zn20 P16 H48 C8 N8 O64'
_cell_volume   1845.92963273
_cell_formula_units_Z   4
loop_
 _symmetry_equiv_pos_site_id
 _symmetry_equiv_pos_as_xyz
  1  'x, y, z'
loop_
 _atom_site_type_symbol
 _atom_site_label
 _atom_site_symmetry_multiplicity
 _atom_site_fract_x
 _atom_site_fract_y
 _atom_site_fract_z
 _atom_site_occupancy
  Zn  Zn0  1  0.51526900  0.11435700  0.29309300  1
  Zn  Zn1  1  0.98473100  0.88564300  0.79309300  1
  Zn  Zn2  1  0.01526900  0.38564300  0.70690700  1
  Zn  Zn3  1  0.48473100  0.61435700  0.20690700  1
  Zn  Zn4  1  0.50284200  0.87088500  0.27737500  1
  Zn  Zn5  1  0.99715800  0.12911500  0.77737500  1
  Zn  Zn6  1  0.00284200  0.62911500  0.72262500  1
  Zn  Zn7  1  0.49715800  0.37088500  0.22262500  1
  Zn  Zn8  1  0.85818000  0.49832600  0.41719400  1
  Zn  Zn9  1  0.64182000  0.50167400  0.91719400  1
  Zn  Zn10  1  0.35818000  0.00167400  0.58280600  1
  Zn  Zn11  1  0.14182000  0.99832600  0.08280600  1
  Zn  Zn12  1  0.05444000  0.85951500  0.30317700  1
  Zn  Zn13  1  0.44556000  0.14048500  0.80317700  1
  Zn  Zn14  1  0.55444000  0.64048500  0.69682300  1
  Zn  Zn15  1  0.94556000  0.35951500  0.19682300  1
  Zn  Zn16  1  0.05764200  0.11238200  0.31232000  1
  Zn  Zn17  1  0.44235800  0.88761800  0.81232000  1
  Zn  Zn18  1  0.55764200  0.38761800  0.68768000  1
  Zn  Zn19  1  0.94235800  0.61238200  0.18768000  1
  P  P0  1  0.31532900  0.98081200  0.40630600  1
  P  P1  1  0.18467100  0.01918800  0.90630600  1
  P  P2  1  0.81532900  0.51918800  0.59369400  1
  P  P3  1  0.68467100  0.48081200  0.09369400  1
  P  P4  1  0.74043400  0.69286200  0.32822000  1
  P  P5  1  0.75956600  0.30713800  0.82822000  1
  P  P6  1  0.24043400  0.80713800  0.67178000  1
  P  P7  1  0.25956600  0.19286200  0.17178000  1
  P  P8  1  0.75975900  0.28876300  0.34568500  1
  P  P9  1  0.74024100  0.71123700  0.84568500  1
  P  P10  1  0.25975900  0.21123700  0.65431500  1
  P  P11  1  0.24024100  0.78876300  0.15431500  1
  P  P12  1  0.80944500  0.99610100  0.20641900  1
  P  P13  1  0.69055500  0.00389900  0.70641900  1
  P  P14  1  0.30944500  0.50389900  0.79358100  1
  P  P15  1  0.19055500  0.49610100  0.29358100  1
  H  H0  1  0.26195700  0.21511900  0.46750900  1
  H  H1  1  0.23804300  0.78488100  0.96750900  1
  H  H2  1  0.76195700  0.28488100  0.53249100  1
  H  H3  1  0.73804300  0.71511900  0.03249100  1
  H  H4  1  0.38894200  0.26488600  0.40219300  1
  H  H5  1  0.11105800  0.73511400  0.90219300  1
  H  H6  1  0.88894200  0.23511400  0.59780700  1
  H  H7  1  0.61105800  0.76488600  0.09780700  1
  H  H8  1  0.16416900  0.28563100  0.40519700  1
  H  H9  1  0.33583100  0.71436900  0.90519700  1
  H  H10  1  0.66416900  0.21436900  0.59480300  1
  H  H11  1  0.83583100  0.78563100  0.09480300  1
  H  H12  1  0.16188600  0.65709500  0.41190300  1
  H  H13  1  0.33811400  0.34290500  0.91190300  1
  H  H14  1  0.66188600  0.84290500  0.58809700  1
  H  H15  1  0.83811400  0.15709500  0.08809700  1
  H  H16  1  0.37741000  0.65809200  0.38965000  1
  H  H17  1  0.12259000  0.34190800  0.88965000  1
  H  H18  1  0.87741000  0.84190800  0.61035000  1
  H  H19  1  0.62259000  0.15809200  0.11035000  1
  H  H20  1  0.28125500  0.76120000  0.41886600  1
  H  H21  1  0.21874500  0.23880000  0.91886600  1
  H  H22  1  0.78125500  0.73880000  0.58113400  1
  H  H23  1  0.71874500  0.26120000  0.08113400  1
  H  H24  1  0.23231700  0.36119000  0.53342500  1
  H  H25  1  0.26768300  0.63881000  0.03342500  1
  H  H26  1  0.73231700  0.13881000  0.46657500  1
  H  H27  1  0.76768300  0.86119000  0.96657500  1
  H  H28  1  0.27446500  0.43160300  0.45281300  1
  H  H29  1  0.22553500  0.56839700  0.95281300  1
  H  H30  1  0.77446500  0.06839700  0.54718700  1
  H  H31  1  0.72553500  0.93160300  0.04718700  1
  H  H32  1  0.45751300  0.36948300  0.49765000  1
  H  H33  1  0.04248700  0.63051700  0.99765000  1
  H  H34  1  0.95751300  0.13051700  0.50235000  1
  H  H35  1  0.54248700  0.86948300  0.00235000  1
  H  H36  1  0.43542600  0.71021700  0.52410100  1
  H  H37  1  0.06457400  0.28978300  0.02410100  1
  H  H38  1  0.93542600  0.78978300  0.47589900  1
  H  H39  1  0.56457400  0.21021700  0.97589900  1
  H  H40  1  0.39286100  0.58471000  0.50458400  1
  H  H41  1  0.10713900  0.41529000  0.00458400  1
  H  H42  1  0.89286100  0.91529000  0.49541600  1
  H  H43  1  0.60713900  0.08471000  0.99541600  1
  H  H44  1  0.21424800  0.66111400  0.53803000  1
  H  H45  1  0.28575200  0.33888600  0.03803000  1
  H  H46  1  0.71424800  0.83888600  0.46197000  1
  H  H47  1  0.78575200  0.16111400  0.96197000  1
  C  C0  1  0.31351700  0.36635500  0.48370700  1
  C  C1  1  0.18648300  0.63364500  0.98370700  1
  C  C2  1  0.81351700  0.13364500  0.51629300  1
  C  C3  1  0.68648300  0.86635500  0.01629300  1
  C  C4  1  0.33486500  0.65851300  0.50345300  1
  C  C5  1  0.16513500  0.34148700  0.00345300  1
  C  C6  1  0.83486500  0.84148700  0.49654700  1
  C  C7  1  0.66513500  0.15851300  0.99654700  1
  N  N0  1  0.27912600  0.27821100  0.43715900  1
  N  N1  1  0.22087400  0.72178900  0.93715900  1
  N  N2  1  0.77912600  0.22178900  0.56284100  1
  N  N3  1  0.72087400  0.77821100  0.06284100  1
  N  N4  1  0.28581000  0.68520500  0.42713500  1
  N  N5  1  0.21419000  0.31479500  0.92713500  1
  N  N6  1  0.78581000  0.81479500  0.57286500  1
  N  N7  1  0.71419000  0.18520500  0.07286500  1
  O  O0  1  0.59071000  0.22198600  0.35761300  1
  O  O1  1  0.90929000  0.77801400  0.85761300  1
  O  O2  1  0.09071000  0.27801400  0.64238700  1
  O  O3  1  0.40929000  0.72198600  0.14238700  1
  O  O4  1  0.46432300  0.98751400  0.34304700  1
  O  O5  1  0.03567700  0.01248600  0.84304700  1
  O  O6  1  0.96432300  0.51248600  0.65695300  1
  O  O7  1  0.53567700  0.48751400  0.15695300  1
  O  O8  1  0.69910700  0.09073100  0.21985200  1
  O  O9  1  0.80089300  0.90926900  0.71985200  1
  O  O10  1  0.19910700  0.40926900  0.78014800  1
  O  O11  1  0.30089300  0.59073100  0.28014800  1
  O  O12  1  0.69565400  0.90130100  0.20887300  1
  O  O13  1  0.80434600  0.09869900  0.70887300  1
  O  O14  1  0.19565400  0.59869900  0.79112700  1
  O  O15  1  0.30434600  0.40130100  0.29112700  1
  O  O16  1  0.57785000  0.76273500  0.33854600  1
  O  O17  1  0.92215000  0.23726500  0.83854600  1
  O  O18  1  0.07785000  0.73726500  0.66145400  1
  O  O19  1  0.42215000  0.26273500  0.16145400  1
  O  O20  1  0.72000400  0.61156500  0.38526900  1
  O  O21  1  0.77999600  0.38843500  0.88526900  1
  O  O22  1  0.22000400  0.88843500  0.61473100  1
  O  O23  1  0.27999600  0.11156500  0.11473100  1
  O  O24  1  0.91162200  0.52406400  0.52035000  1
  O  O25  1  0.58837800  0.47593600  0.02035000  1
  O  O26  1  0.41162200  0.97593600  0.47965000  1
  O  O27  1  0.08837800  0.02406400  0.97965000  1
  O  O28  1  0.76248300  0.36472800  0.40751300  1
  O  O29  1  0.73751700  0.63527200  0.90751300  1
  O  O30  1  0.26248300  0.13527200  0.59248700  1
  O  O31  1  0.23751700  0.86472800  0.09248700  1
  O  O32  1  0.09492900  0.50487100  0.36725900  1
  O  O33  1  0.40507100  0.49512900  0.86725900  1
  O  O34  1  0.59492900  0.99512900  0.63274100  1
  O  O35  1  0.90507100  0.00487100  0.13274100  1
  O  O36  1  0.92720200  0.74359200  0.33352300  1
  O  O37  1  0.57279800  0.25640800  0.83352300  1
  O  O38  1  0.42720200  0.75640800  0.66647700  1
  O  O39  1  0.07279800  0.24359200  0.16647700  1
  O  O40  1  0.26130000  0.83936700  0.23173200  1
  O  O41  1  0.23870000  0.16063300  0.73173200  1
  O  O42  1  0.76130000  0.66063300  0.76826800  1
  O  O43  1  0.73870000  0.33936700  0.26826800  1
  O  O44  1  0.20734700  0.88479600  0.39067100  1
  O  O45  1  0.29265300  0.11520400  0.89067100  1
  O  O46  1  0.70734700  0.61520400  0.60932900  1
  O  O47  1  0.79265300  0.38479600  0.10932900  1
  O  O48  1  0.95310100  0.98903800  0.27185800  1
  O  O49  1  0.54689900  0.01096200  0.77185800  1
  O  O50  1  0.45310100  0.51096200  0.72814200  1
  O  O51  1  0.04689900  0.48903800  0.22814200  1
  O  O52  1  0.19437900  0.07337500  0.40044600  1
  O  O53  1  0.30562100  0.92662500  0.90044600  1
  O  O54  1  0.69437900  0.42662500  0.59955400  1
  O  O55  1  0.80562100  0.57337500  0.09955400  1
  O  O56  1  0.27338200  0.14800000  0.25168800  1
  O  O57  1  0.22661800  0.85200000  0.75168800  1
  O  O58  1  0.77338200  0.35200000  0.74831200  1
  O  O59  1  0.72661800  0.64800000  0.24831200  1
  O  O60  1  0.93978300  0.23098700  0.34556900  1
  O  O61  1  0.56021700  0.76901300  0.84556900  1
  O  O62  1  0.43978300  0.26901300  0.65443100  1
  O  O63  1  0.06021700  0.73098700  0.15443100  1
loop_
_geom_bond_atom_site_label_1
_geom_bond_atom_site_label_2
_geom_bond_distance
_geom_bond_site_symmetry_2
H0 N0 1.031989 1_555
H1 N1 1.031989 1_555
H2 N2 1.031989 1_555
H3 N3 1.031989 1_555
H4 N0 1.049849 1_555
H5 N1 1.049849 1_555
H6 N2 1.049849 1_555
H7 N3 1.049849 1_555
H8 N0 1.036753 1_555
H9 N1 1.036753 1_555
H10 N2 1.036753 1_555
H11 N3 1.036753 1_555
H12 N4 1.030843 1_555
H13 N5 1.030843 1_555
H14 N6 1.030843 1_555
H15 N7 1.030843 1_555
H16 N4 1.032915 1_555
H17 N5 1.032915 1_555
H18 N6 1.032915 1_555
H19 N7 1.032915 1_555
H20 N4 1.047105 1_555
H21 N5 1.047105 1_555
H22 N6 1.047105 1_555
H23 N7 1.047105 1_555
C0 H28 1.093027 1_555
C0 H24 1.093684 1_555
C0 H32 1.094759 1_555
C0 N0 1.495289 1_555
C1 H29 1.093027 1_555
C1 H25 1.093684 1_556
C1 H33 1.094759 1_555
C1 N1 1.495289 1_555
C2 H30 1.093027 1_555
C2 H26 1.093684 1_555
C2 H34 1.094759 1_555
C2 N2 1.495289 1_555
C3 H31 1.093027 1_555
C3 H27 1.093684 1_554
C3 H35 1.094759 1_555
C3 N3 1.495289 1_555
C4 H36 1.091558 1_555
C4 H40 1.093287 1_555
C4 H44 1.094151 1_555
C4 N4 1.490878 1_555
C5 H37 1.091558 1_555
C5 H41 1.093287 1_555
C5 H45 1.094151 1_555
C5 N5 1.490878 1_554
C6 H38 1.091558 1_555
C6 H42 1.093287 1_555
C6 H46 1.094151 1_555
C6 N6 1.490878 1_555
C7 H39 1.091558 1_555
C7 H43 1.093287 1_555
C7 H47 1.094151 1_555
C7 N7 1.490878 1_556
O0 P8 1.560444 1_555
O0 Zn0 1.965089 1_555
O1 P9 1.560444 1_555
O1 Zn1 1.965089 1_555
O2 P10 1.560444 1_555
O2 Zn2 1.965089 1_555
O3 P11 1.560444 1_555
O3 Zn3 1.965089 1_555
O4 P0 1.601737 1_555
O4 Zn0 1.992053 1_565
O4 Zn4 2.014249 1_555
O5 P1 1.601737 1_555
O5 Zn1 1.992053 1_445
O5 Zn5 2.014249 1_455
O6 P2 1.601737 1_555
O6 Zn2 1.992053 1_655
O6 Zn6 2.014249 1_655
O7 P3 1.601737 1_555
O7 Zn3 1.992053 1_555
O7 Zn7 2.014249 1_555
O8 P12 1.545183 1_545
O8 Zn0 1.936986 1_555
O9 P13 1.545183 1_565
O9 Zn1 1.936986 1_555
O10 P14 1.545183 1_555
O10 Zn2 1.936986 1_555
O11 P15 1.545183 1_555
O11 Zn3 1.936986 1_555
O12 P12 1.541793 1_555
O12 Zn4 1.943841 1_555
O13 P13 1.541793 1_555
O13 Zn5 1.943841 1_555
O14 P14 1.541793 1_555
O14 Zn6 1.943841 1_555
O15 P15 1.541793 1_555
O15 Zn7 1.943841 1_555
O16 P4 1.544205 1_555
O16 Zn4 1.933210 1_555
O17 P5 1.544205 1_555
O17 Zn5 1.933210 1_555
O18 P6 1.544205 1_555
O18 Zn6 1.933210 1_555
O19 P7 1.544205 1_555
O19 Zn7 1.933210 1_555
O20 P4 1.531224 1_555
O20 Zn8 1.940463 1_555
O21 P5 1.531224 1_555
O21 Zn9 1.940463 1_555
O22 P6 1.531224 1_555
O22 Zn10 1.940463 1_565
O23 P7 1.531224 1_555
O23 Zn11 1.940463 1_545
O24 P2 1.523069 1_555
O24 Zn8 1.964216 1_555
O25 P3 1.523069 1_555
O25 Zn9 1.964216 1_554
O26 P0 1.523069 1_555
O26 Zn10 1.964216 1_565
O27 P1 1.523069 1_555
O27 Zn11 1.964216 1_546
O28 P8 1.535475 1_555
O28 Zn8 1.960899 1_555
O29 P9 1.535475 1_555
O29 Zn9 1.960899 1_555
O30 P10 1.535475 1_555
O30 Zn10 1.960899 1_555
O31 P11 1.535475 1_555
O31 Zn11 1.960899 1_555
O32 P15 1.529424 1_555
O32 Zn8 1.976048 1_455
O33 P14 1.529424 1_555
O33 Zn9 1.976048 1_555
O34 P13 1.529424 1_565
O34 Zn10 1.976048 1_565
O35 P12 1.529424 1_545
O35 Zn11 1.976048 1_645
O36 P4 1.546112 1_555
O36 Zn12 1.920451 1_655
O37 P5 1.546112 1_555
O37 Zn13 1.920451 1_555
O38 P6 1.546112 1_555
O38 Zn14 1.920451 1_555
O39 P7 1.546112 1_555
O39 Zn15 1.920451 1_455
O40 P11 1.586074 1_555
O40 Zn4 2.017014 1_555
O40 Zn12 2.031498 1_555
O41 P10 1.586074 1_555
O41 Zn5 2.017014 1_455
O41 Zn13 2.031498 1_555
O42 P9 1.586074 1_555
O42 Zn6 2.017014 1_655
O42 Zn14 2.031498 1_555
O43 P8 1.586074 1_555
O43 Zn7 2.017014 1_555
O43 Zn15 2.031498 1_555
O44 P0 1.558884 1_555
O44 Zn12 1.992299 1_555
O45 P1 1.558884 1_555
O45 Zn13 1.992299 1_555
O46 P2 1.558884 1_555
O46 Zn14 1.992299 1_555
O47 P3 1.558884 1_555
O47 Zn15 1.992299 1_555
O48 P12 1.604875 1_555
O48 Zn16 1.992918 1_665
O48 Zn12 2.001276 1_655
O49 P13 1.604875 1_555
O49 Zn17 1.992918 1_545
O49 Zn13 2.001276 1_555
O50 P14 1.604875 1_555
O50 Zn18 1.992918 1_555
O50 Zn14 2.001276 1_555
O51 P15 1.604875 1_555
O51 Zn19 1.992918 1_455
O51 Zn15 2.001276 1_455
O52 P0 1.549361 1_545
O52 Zn16 1.978609 1_555
O53 P1 1.549361 1_565
O53 Zn17 1.978609 1_555
O54 P2 1.549361 1_555
O54 Zn18 1.978609 1_555
O55 P3 1.549361 1_555
O55 Zn19 1.978609 1_555
O56 P7 1.591191 1_555
O56 Zn0 1.994760 1_555
O56 Zn16 2.002881 1_555
O57 P6 1.591191 1_555
O57 Zn1 1.994760 1_455
O57 Zn17 2.002881 1_555
O58 P5 1.591191 1_555
O58 Zn2 1.994760 1_655
O58 Zn18 2.002881 1_555
O59 P4 1.591191 1_555
O59 Zn3 1.994760 1_555
O59 Zn19 2.002881 1_555
O60 P8 1.545315 1_555
O60 Zn16 1.934321 1_655
O61 P9 1.545315 1_555
O61 Zn17 1.934321 1_555
O62 P10 1.545315 1_555
O62 Zn18 1.934321 1_555
O63 P11 1.545315 1_555
O63 Zn19 1.934321 1_455
