# generated using pymatgen
data_BaNdFe2O5
_symmetry_space_group_name_H-M   'P 1'
_cell_length_a   4.03928500
_cell_length_b   7.82288400
_cell_length_c   8.02743600
_cell_angle_alpha   90.00000000
_cell_angle_beta   90.00000000
_cell_angle_gamma   90.00000000
_symmetry_Int_Tables_number   1
_chemical_formula_structural   BaNdFe2O5
_chemical_formula_sum   'Ba2 Nd2 Fe4 O10'
_cell_volume   253.65781025
_cell_formula_units_Z   2
loop_
 _symmetry_equiv_pos_site_id
 _symmetry_equiv_pos_as_xyz
  1  'x, y, z'
loop_
 _atom_site_type_symbol
 _atom_site_label
 _atom_site_symmetry_multiplicity
 _atom_site_fract_x
 _atom_site_fract_y
 _atom_site_fract_z
 _atom_site_occupancy
  Ba  Ba0  1  0.00000000  0.00331200  0.00268400  1
  Ba  Ba1  1  0.00000000  0.99668800  0.50268400  1
  Nd  Nd0  1  0.00000000  0.49832800  0.00256900  1
  Nd  Nd1  1  0.00000000  0.50167200  0.50256900  1
  Fe  Fe0  1  0.50000000  0.25630400  0.25466300  1
  Fe  Fe1  1  0.50000000  0.27255500  0.75161500  1
  Fe  Fe2  1  0.50000000  0.72744500  0.25161500  1
  Fe  Fe3  1  0.50000000  0.74369600  0.75466300  1
  O  O0  1  0.00000000  0.69395700  0.75363500  1
  O  O1  1  0.50000000  0.30589000  0.00980300  1
  O  O2  1  0.00000000  0.69185700  0.25275400  1
  O  O3  1  0.00000000  0.30814300  0.75275400  1
  O  O4  1  0.50000000  0.01192700  0.25561400  1
  O  O5  1  0.00000000  0.30604300  0.25363500  1
  O  O6  1  0.50000000  0.68619200  0.99746400  1
  O  O7  1  0.50000000  0.69411000  0.50980300  1
  O  O8  1  0.50000000  0.98807300  0.75561400  1
  O  O9  1  0.50000000  0.31380800  0.49746400  1
loop_
_geom_bond_atom_site_label_1
_geom_bond_atom_site_label_2
_geom_bond_distance
_geom_bond_site_symmetry_2
Ba0 O8 2.833161 1_444
Ba0 O8 2.833161 1_544
Ba0 O4 2.864601 1_555
Ba0 O4 2.864601 1_455
Ba0 O5 3.109131 1_555
Ba0 O1 3.112084 1_555
Ba0 O1 3.112084 1_455
Ba0 O3 3.116379 1_554
Ba0 O0 3.139034 1_544
Ba0 O2 3.156922 1_545
Ba0 O6 3.199226 1_444
Ba0 O6 3.199226 1_544
Ba1 O4 2.833161 1_465
Ba1 O4 2.833161 1_565
Ba1 O8 2.864601 1_555
Ba1 O8 2.864601 1_455
Ba1 O0 3.109131 1_555
Ba1 O7 3.112084 1_455
Ba1 O7 3.112084 1_555
Ba1 O2 3.116379 1_555
Ba1 O5 3.139034 1_565
Ba1 O3 3.156922 1_565
Ba1 O9 3.199226 1_565
Ba1 O9 3.199226 1_465
Nd0 O3 2.497010 1_554
Nd0 O6 2.498094 1_554
Nd0 O6 2.498094 1_454
Nd0 O5 2.514874 1_555
Nd0 O2 2.515056 1_555
Nd0 O0 2.516999 1_554
Nd0 O1 2.519646 1_455
Nd0 O1 2.519646 1_555
Nd1 O2 2.497010 1_555
Nd1 O9 2.498094 1_555
Nd1 O9 2.498094 1_455
Nd1 O0 2.514874 1_555
Nd1 O3 2.515056 1_555
Nd1 O5 2.516999 1_555
Nd1 O7 2.519646 1_555
Nd1 O7 2.519646 1_455
Fe0 O4 1.911748 1_555
Fe0 O9 2.000309 1_555
Fe0 O1 2.003508 1_555
Fe0 O5 2.056800 1_555
Fe0 O5 2.056800 1_655
Fe1 O3 2.038761 1_555
Fe1 O3 2.038761 1_655
Fe1 O9 2.065547 1_555
Fe1 O1 2.088929 1_556
Fe1 O8 2.225701 1_545
Fe2 O2 2.038761 1_555
Fe2 O2 2.038761 1_655
Fe2 O6 2.065547 1_554
Fe2 O7 2.088929 1_555
Fe2 O4 2.225701 1_565
Fe3 O8 1.911748 1_555
Fe3 O6 2.000309 1_555
Fe3 O7 2.003508 1_555
Fe3 O0 2.056800 1_555
Fe3 O0 2.056800 1_655
