# generated using pymatgen
data_YbMgPd
_symmetry_space_group_name_H-M   'P 1'
_cell_length_a   4.18773800
_cell_length_b   7.38986800
_cell_length_c   8.56904900
_cell_angle_alpha   90.00000000
_cell_angle_beta   90.00000000
_cell_angle_gamma   90.00000000
_symmetry_Int_Tables_number   1
_chemical_formula_structural   YbMgPd
_chemical_formula_sum   'Yb4 Mg4 Pd4'
_cell_volume   265.18491156
_cell_formula_units_Z   4
loop_
 _symmetry_equiv_pos_site_id
 _symmetry_equiv_pos_as_xyz
  1  'x, y, z'
loop_
 _atom_site_type_symbol
 _atom_site_label
 _atom_site_symmetry_multiplicity
 _atom_site_fract_x
 _atom_site_fract_y
 _atom_site_fract_z
 _atom_site_occupancy
  Yb  Yb0  1  0.25000000  0.53297100  0.17481800  1
  Yb  Yb1  1  0.75000000  0.46702900  0.82518200  1
  Yb  Yb2  1  0.25000000  0.03297100  0.32518200  1
  Yb  Yb3  1  0.75000000  0.96702900  0.67481800  1
  Mg  Mg0  1  0.25000000  0.63721300  0.56097900  1
  Mg  Mg1  1  0.75000000  0.36278700  0.43902100  1
  Mg  Mg2  1  0.25000000  0.13721300  0.93902100  1
  Mg  Mg3  1  0.75000000  0.86278700  0.06097900  1
  Pd  Pd0  1  0.75000000  0.73479100  0.37079600  1
  Pd  Pd1  1  0.25000000  0.26520900  0.62920400  1
  Pd  Pd2  1  0.75000000  0.23479100  0.12920400  1
  Pd  Pd3  1  0.25000000  0.76520900  0.87079600  1
loop_
_geom_bond_atom_site_label_1
_geom_bond_atom_site_label_2
_geom_bond_distance
_geom_bond_site_symmetry_2
Mg0 Pd0 2.749570 1_455
Mg0 Pd0 2.749570 1_555
Mg0 Pd1 2.810537 1_555
Mg0 Pd3 2.818304 1_555
Mg1 Pd1 2.749570 1_555
Mg1 Pd1 2.749570 1_655
Mg1 Pd0 2.810537 1_555
Mg1 Pd2 2.818304 1_555
Mg2 Pd2 2.749570 1_456
Mg2 Pd2 2.749570 1_556
Mg2 Pd3 2.810537 1_545
Mg2 Pd1 2.818304 1_555
Mg3 Pd3 2.749570 1_654
Mg3 Pd3 2.749570 1_554
Mg3 Pd2 2.810537 1_565
Mg3 Pd0 2.818304 1_555
Pd0 Yb2 3.064723 1_565
Pd0 Yb2 3.064723 1_665
Pd0 Yb0 3.070640 1_655
Pd0 Yb0 3.070640 1_555
Pd0 Yb3 3.119668 1_555
Pd1 Yb3 3.064723 1_545
Pd1 Yb3 3.064723 1_445
Pd1 Yb1 3.070640 1_555
Pd1 Yb1 3.070640 1_455
Pd1 Yb2 3.119668 1_555
Pd2 Yb0 3.064723 1_555
Pd2 Yb0 3.064723 1_655
Pd2 Yb2 3.070640 1_555
Pd2 Yb2 3.070640 1_655
Pd2 Yb1 3.119668 1_554
Pd3 Yb1 3.064723 1_455
Pd3 Yb1 3.064723 1_555
Pd3 Yb3 3.070640 1_455
Pd3 Yb3 3.070640 1_555
Pd3 Yb0 3.119668 1_556
