# generated using pymatgen
data_Mg3(Al9V)2
_symmetry_space_group_name_H-M   'P 1'
_cell_length_a   10.22798434
_cell_length_b   10.22798467
_cell_length_c   10.22798187
_cell_angle_alpha   59.99997770
_cell_angle_beta   59.99997379
_cell_angle_gamma   59.99996965
_symmetry_Int_Tables_number   1
_chemical_formula_structural   Mg3(Al9V)2
_chemical_formula_sum   'Mg6 Al36 V4'
_cell_volume   756.57992861
_cell_formula_units_Z   2
loop_
 _symmetry_equiv_pos_site_id
 _symmetry_equiv_pos_as_xyz
  1  'x, y, z'
loop_
 _atom_site_type_symbol
 _atom_site_label
 _atom_site_symmetry_multiplicity
 _atom_site_fract_x
 _atom_site_fract_y
 _atom_site_fract_z
 _atom_site_occupancy
  Mg  Mg0  1  0.12499997  0.62499986  0.62500071  1
  Mg  Mg1  1  0.62499985  0.12499999  0.62500065  1
  Mg  Mg2  1  0.62499989  0.62499995  0.12500072  1
  Mg  Mg3  1  0.62499992  0.62499997  0.62500059  1
  Mg  Mg4  1  0.49999963  0.49999974  0.49999952  1
  Mg  Mg5  1  0.75000014  0.75000012  0.75000183  1
  Al  Al0  1  0.86072290  0.86072312  0.13927479  1
  Al  Al1  1  0.13927862  0.13927864  0.86071809  1
  Al  Al2  1  0.86072785  0.13927790  0.86071758  1
  Al  Al3  1  0.13927903  0.86071820  0.13927779  1
  Al  Al4  1  0.13927789  0.86072794  0.86071747  1
  Al  Al5  1  0.86071806  0.13927905  0.13927782  1
  Al  Al6  1  0.38926569  0.38926547  0.11073451  1
  Al  Al7  1  0.11073321  0.11073318  0.38926557  1
  Al  Al8  1  0.38926571  0.11073392  0.38926610  1
  Al  Al9  1  0.11073415  0.38926507  0.11073358  1
  Al  Al10  1  0.11073392  0.38926559  0.38926623  1
  Al  Al11  1  0.38926521  0.11073410  0.11073357  1
  Al  Al12  1  0.56765335  0.29917634  0.29917611  1
  Al  Al13  1  0.29917508  0.56765167  0.83399673  1
  Al  Al14  1  0.29917619  0.83399405  0.56765124  1
  Al  Al15  1  0.83399515  0.29917656  0.29917519  1
  Al  Al16  1  0.29917679  0.29917683  0.56765304  1
  Al  Al17  1  0.56765321  0.83399497  0.29917452  1
  Al  Al18  1  0.83399484  0.56765322  0.29917461  1
  Al  Al19  1  0.29917583  0.29917580  0.83399709  1
  Al  Al20  1  0.29917643  0.56765327  0.29917620  1
  Al  Al21  1  0.83399405  0.29917619  0.56765126  1
  Al  Al22  1  0.56765168  0.29917501  0.83399682  1
  Al  Al23  1  0.29917662  0.83399516  0.29917521  1
  Al  Al24  1  0.68236110  0.95081863  0.95082048  1
  Al  Al25  1  0.95081989  0.68236275  0.41599971  1
  Al  Al26  1  0.95082149  0.41599880  0.68236144  1
  Al  Al27  1  0.41599973  0.95081845  0.95082134  1
  Al  Al28  1  0.95081824  0.95081819  0.68236297  1
  Al  Al29  1  0.68236123  0.41599989  0.95082205  1
  Al  Al30  1  0.41600001  0.68236122  0.95082195  1
  Al  Al31  1  0.95081915  0.95081920  0.41599937  1
  Al  Al32  1  0.95081858  0.68236116  0.95082036  1
  Al  Al33  1  0.41599883  0.95082145  0.68236143  1
  Al  Al34  1  0.68236275  0.95081997  0.41599961  1
  Al  Al35  1  0.95081840  0.41599972  0.95082133  1
  V  V0  1  0.62499952  0.12499999  0.12500095  1
  V  V1  1  0.12500002  0.62499949  0.12500087  1
  V  V2  1  0.12500008  0.12500014  0.62500022  1
  V  V3  1  0.12500012  0.12500010  0.12500083  1
loop_
_geom_bond_atom_site_label_1
_geom_bond_atom_site_label_2
_geom_bond_distance
_geom_bond_site_symmetry_2
Mg0 Mg4 3.131664 1_555
Mg0 Mg5 3.131665 1_455
Mg1 Mg4 3.131665 1_555
Mg1 Mg5 3.131666 1_545
Mg2 Mg4 3.131656 1_555
Mg2 Mg5 3.131657 1_554
Mg3 Mg4 3.131682 1_555
Mg3 Mg5 3.131682 1_555
Al0 V0 2.565322 1_565
Al0 V1 2.565324 1_655
Al0 Al17 2.684135 1_555
Al0 Al18 2.684136 1_555
Al0 Al24 2.819841 1_554
Al0 Al32 2.819842 1_554
Al0 Al34 2.819883 1_555
Al0 Al25 2.819885 1_555
Al0 Al5 2.849057 1_565
Al0 Al3 2.849058 1_655
Al0 Al2 2.849065 1_564
Al0 Al4 2.849067 1_654
Al1 V2 2.565286 1_555
Al1 V3 2.565366 1_556
Al1 Al16 2.684105 1_555
Al1 Al19 2.684142 1_555
Al1 Al26 2.819827 1_455
Al1 Al33 2.819828 1_545
Al1 Al35 2.819884 1_455
Al1 Al27 2.819884 1_545
Al1 Al4 2.849019 1_545
Al1 Al2 2.849019 1_455
Al1 Al3 2.849107 1_546
Al1 Al5 2.849107 1_456
Al2 V2 2.565268 1_655
Al2 V0 2.565381 1_556
Al2 Al21 2.684125 1_555
Al2 Al22 2.684165 1_555
Al2 Al26 2.819835 1_555
Al2 Al28 2.819844 1_545
Al2 Al29 2.819898 1_555
Al2 Al24 2.819900 1_545
Al2 Al4 2.849004 1_645
Al2 Al5 2.849065 1_556
Al3 V1 2.565289 1_555
Al3 V3 2.565363 1_565
Al3 Al30 2.819825 1_554
Al3 Al31 2.819876 1_455
Al3 Al4 2.849066 1_554
Al3 Al5 2.849115 1_465
Al4 V2 2.565267 1_565
Al4 V1 2.565381 1_556
Al5 V0 2.565287 1_555
Al5 V3 2.565364 1_655
Al6 V0 2.565304 1_555
Al6 V1 2.565306 1_555
Al6 Al8 2.848815 1_555
Al6 Al9 2.848823 1_555
Al7 V3 2.565287 1_555
Al7 V2 2.565325 1_555
Al7 Al9 2.848819 1_555
Al7 Al8 2.848833 1_555
Al8 V0 2.565302 1_555
Al8 V2 2.565306 1_555
Al9 V3 2.565293 1_555
Al9 V1 2.565320 1_555
Al10 V1 2.565304 1_555
Al10 V2 2.565305 1_555
Al10 Al26 2.684378 1_455
Al10 Al25 2.684396 1_455
Al10 Al21 2.819971 1_455
Al10 Al18 2.819975 1_455
Al10 Al16 2.819977 1_555
Al10 Al20 2.819977 1_555
Al10 Al6 2.848817 1_555
Al10 Al8 2.848817 1_555
Al10 Al9 2.848828 1_555
Al10 Al7 2.848832 1_555
Al11 V3 2.565294 1_555
Al11 V0 2.565319 1_555
Al11 Al27 2.684367 1_544
Al11 Al24 2.684382 1_544
Al11 Al19 2.819941 1_554
Al11 Al22 2.819950 1_554
Al11 Al23 2.819959 1_545
Al11 Al17 2.819965 1_545
Al11 Al9 2.848810 1_555
Al11 Al7 2.848819 1_555
Al11 Al6 2.848822 1_555
Al11 Al8 2.848827 1_555
Al12 Al5 2.684100 1_555
Al12 Al15 2.724136 1_555
Al12 Al16 2.745975 1_555
Al12 Al20 2.745977 1_555
Al12 V0 2.788388 1_555
Al12 Al6 2.819971 1_555
Al12 Al8 2.819976 1_555
Al12 Al29 2.909170 1_554
Al12 Al34 2.909190 1_545
Al12 Mg2 3.097792 1_555
Al12 Mg1 3.097799 1_555
Al12 Mg4 3.208299 1_555
Al13 Al4 2.684166 1_555
Al13 Al14 2.724160 1_555
Al13 Al19 2.745961 1_555
Al13 Al22 2.745974 1_555
Al13 V1 2.788384 1_556
Al13 Al9 2.819951 1_556
Al13 Al6 2.819958 1_556
Al13 Al32 2.909191 1_455
Al13 Al30 2.909219 1_555
Al13 Mg0 3.097794 1_555
Al13 Mg3 3.097810 1_555
Al13 Mg4 3.208326 1_555
Al14 Al4 2.684124 1_555
Al14 Al23 2.745960 1_555
Al14 Al17 2.745976 1_555
Al14 V2 2.788406 1_565
Al14 Al7 2.819964 1_565
Al14 Al8 2.819972 1_565
Al14 Al28 2.909203 1_455
Al14 Al33 2.909223 1_555
Al14 Mg0 3.097781 1_555
Al14 Mg3 3.097803 1_555
Al14 Mg4 3.208300 1_555
Al15 Al5 2.684136 1_555
Al15 Al21 2.745961 1_555
Al15 Al18 2.745971 1_555
Al15 V3 2.788382 1_655
Al15 Al9 2.819959 1_655
Al15 Al7 2.819960 1_655
Al15 Al35 2.909168 1_554
Al15 Al31 2.909198 1_545
Al15 Mg2 3.097789 1_555
Al15 Mg1 3.097806 1_555
Al15 Mg4 3.208312 1_555
Al16 Al19 2.724152 1_555
Al16 Al20 2.745974 1_555
Al16 V2 2.788401 1_555
Al16 Al8 2.819977 1_555
Al16 Al26 2.909181 1_455
Al16 Al33 2.909182 1_545
Al16 Mg1 3.097790 1_555
Al16 Mg0 3.097791 1_555
Al16 Mg4 3.208292 1_555
Al17 Al18 2.724137 1_555
Al17 Al23 2.745970 1_555
Al17 V0 2.788386 1_565
Al17 Al8 2.819974 1_565
Al17 Al24 2.909170 1_554
Al17 Al34 2.909218 1_555
Al17 Mg2 3.097780 1_555
Al17 Mg3 3.097812 1_555
Al17 Mg4 3.208317 1_555
Al18 Al21 2.745976 1_555
Al18 V1 2.788387 1_655
Al18 Al9 2.819967 1_655
Al18 Al32 2.909171 1_554
Al18 Al25 2.909219 1_555
Al18 Mg2 3.097780 1_555
Al18 Mg3 3.097812 1_555
Al18 Mg4 3.208316 1_555
Al19 Al22 2.745961 1_555
Al19 V3 2.788380 1_556
Al19 Al9 2.819941 1_556
Al19 Al27 2.909198 1_545
Al19 Al35 2.909198 1_455
Al19 Mg1 3.097802 1_555
Al19 Mg0 3.097802 1_555
Al19 Mg4 3.208322 1_555
Al20 Al3 2.684102 1_555
Al20 Al23 2.724137 1_555
Al20 V1 2.788390 1_555
Al20 Al6 2.819973 1_555
Al20 Al30 2.909171 1_554
Al20 Al25 2.909191 1_455
Al20 Mg2 3.097791 1_555
Al20 Mg0 3.097799 1_555
Al20 Mg4 3.208298 1_555
Al21 Al22 2.724160 1_555
Al21 V2 2.788406 1_655
Al21 Al7 2.819965 1_655
Al21 Al28 2.909203 1_545
Al21 Al26 2.909223 1_555
Al21 Mg1 3.097782 1_555
Al21 Mg3 3.097803 1_555
Al21 Mg4 3.208301 1_555
Al22 V0 2.788384 1_556
Al22 Al6 2.819957 1_556
Al22 Al24 2.909190 1_545
Al22 Al29 2.909219 1_555
Al22 Mg1 3.097794 1_555
Al22 Mg3 3.097811 1_555
Al22 Mg4 3.208328 1_555
Al23 Al3 2.684137 1_555
Al23 V3 2.788383 1_565
Al23 Al7 2.819960 1_565
Al23 Al27 2.909168 1_554
Al23 Al31 2.909199 1_455
Al23 Mg2 3.097788 1_555
Al23 Mg0 3.097807 1_555
Al23 Mg4 3.208310 1_555
Al24 Al27 2.724336 1_555
Al24 Al28 2.745776 1_555
Al24 Al32 2.745778 1_555
Al24 V0 2.788411 1_566
Al24 Mg2 3.097811 1_556
Al24 Mg1 3.097820 1_565
Al24 Mg5 3.208279 1_555
Al25 Al26 2.724354 1_555
Al25 Al31 2.745763 1_555
Al25 Al34 2.745775 1_555
Al25 V1 2.788404 1_655
Al25 Al3 2.819838 1_655
Al25 Mg0 3.097814 1_655
Al25 Mg3 3.097828 1_555
Al25 Mg5 3.208305 1_555
Al26 Al35 2.745792 1_555
Al26 Al29 2.745808 1_555
Al26 V2 2.788395 1_655
Al26 Mg0 3.097811 1_655
Al26 Mg3 3.097834 1_555
Al26 Mg5 3.208312 1_555
Al27 Al30 2.745772 1_555
Al27 Al33 2.745792 1_555
Al27 V3 2.788404 1_566
Al27 Al3 2.819865 1_556
Al27 Mg2 3.097808 1_556
Al27 Mg1 3.097826 1_565
Al27 Mg5 3.208290 1_555
Al28 Al7 2.684395 1_665
Al28 Al31 2.724352 1_555
Al28 Al32 2.745775 1_555
Al28 V2 2.788423 1_665
Al28 Al4 2.819843 1_655
Al28 Mg0 3.097811 1_655
Al28 Mg1 3.097812 1_565
Al28 Mg5 3.208272 1_555
Al29 Al6 2.684386 1_556
Al29 Al30 2.724338 1_555
Al29 Al35 2.745771 1_555
Al29 V0 2.788408 1_556
Al29 Al5 2.819824 1_556
Al29 Mg2 3.097801 1_556
Al29 Mg3 3.097834 1_555
Al29 Mg5 3.208296 1_555
Al30 Al6 2.684387 1_556
Al30 Al33 2.745807 1_555
Al30 V1 2.788409 1_556
Al30 Al4 2.819899 1_555
Al30 Mg2 3.097800 1_556
Al30 Mg3 3.097832 1_555
Al30 Mg5 3.208295 1_555
Al31 Al7 2.684373 1_665
Al31 Al34 2.745763 1_555
Al31 V3 2.788402 1_665
Al31 Al5 2.819877 1_565
Al31 Mg1 3.097822 1_565
Al31 Mg0 3.097822 1_655
Al31 Mg5 3.208301 1_555
Al32 Al9 2.684384 1_656
Al32 Al35 2.724337 1_555
Al32 V1 2.788411 1_656
Al32 Al4 2.819901 1_655
Al32 Mg2 3.097810 1_556
Al32 Mg0 3.097818 1_655
Al32 Mg5 3.208278 1_555
Al33 Al8 2.684379 1_565
Al33 Al34 2.724354 1_555
Al33 V2 2.788395 1_565
Al33 Al4 2.819834 1_555
Al33 Mg1 3.097811 1_565
Al33 Mg3 3.097833 1_555
Al33 Mg5 3.208312 1_555
Al34 Al8 2.684395 1_565
Al34 V0 2.788403 1_565
Al34 Al5 2.819837 1_565
Al34 Mg1 3.097814 1_565
Al34 Mg3 3.097829 1_555
Al34 Mg5 3.208306 1_555
Al35 Al9 2.684368 1_656
Al35 V3 2.788404 1_656
Al35 Al5 2.819866 1_556
Al35 Mg2 3.097808 1_556
Al35 Mg0 3.097826 1_655
Al35 Mg5 3.208290 1_555
