# generated using pymatgen
data_RbNiN
_symmetry_space_group_name_H-M   'P 1'
_cell_length_a   11.00446300
_cell_length_b   3.47587700
_cell_length_c   6.30851700
_cell_angle_alpha   90.00000000
_cell_angle_beta   90.00000000
_cell_angle_gamma   90.00000000
_symmetry_Int_Tables_number   1
_chemical_formula_structural   RbNiN
_chemical_formula_sum   'Rb4 Ni4 N4'
_cell_volume   241.30178360
_cell_formula_units_Z   4
loop_
 _symmetry_equiv_pos_site_id
 _symmetry_equiv_pos_as_xyz
  1  'x, y, z'
loop_
 _atom_site_type_symbol
 _atom_site_label
 _atom_site_symmetry_multiplicity
 _atom_site_fract_x
 _atom_site_fract_y
 _atom_site_fract_z
 _atom_site_occupancy
  Rb  Rb0  1  0.65862500  0.25000000  0.06921500  1
  Rb  Rb1  1  0.15862500  0.25000000  0.43078500  1
  Rb  Rb2  1  0.34137500  0.75000000  0.93078500  1
  Rb  Rb3  1  0.84137500  0.75000000  0.56921500  1
  Ni  Ni0  1  0.55219300  0.25000000  0.58180700  1
  Ni  Ni1  1  0.05219300  0.25000000  0.91819300  1
  Ni  Ni2  1  0.44780700  0.75000000  0.41819300  1
  Ni  Ni3  1  0.94780700  0.75000000  0.08180700  1
  N  N0  1  0.92937900  0.25000000  0.15818600  1
  N  N1  1  0.42937900  0.25000000  0.34181400  1
  N  N2  1  0.07062100  0.75000000  0.84181400  1
  N  N3  1  0.57062100  0.75000000  0.65818600  1
loop_
_geom_bond_atom_site_label_1
_geom_bond_atom_site_label_2
_geom_bond_distance
_geom_bond_site_symmetry_2
N0 Ni3 1.814861 1_555
N0 Ni3 1.814861 1_545
N0 Ni1 2.029471 1_654
N0 Rb0 3.031908 1_555
N0 Rb1 3.053116 1_655
N0 Rb3 3.268312 1_545
N0 Rb3 3.268312 1_555
N1 Ni2 1.814861 1_555
N1 Ni2 1.814861 1_545
N1 Ni0 2.029471 1_555
N1 Rb1 3.031908 1_555
N1 Rb0 3.053116 1_555
N1 Rb2 3.268312 1_544
N1 Rb2 3.268312 1_554
N2 Ni1 1.814861 1_565
N2 Ni1 1.814861 1_555
N2 Ni3 2.029471 1_456
N2 Rb2 3.031908 1_555
N2 Rb3 3.053116 1_455
N2 Rb1 3.268312 1_565
N2 Rb1 3.268312 1_555
N3 Ni0 1.814861 1_555
N3 Ni0 1.814861 1_565
N3 Ni2 2.029471 1_555
N3 Rb3 3.031908 1_555
N3 Rb2 3.053116 1_555
N3 Rb0 3.268312 1_566
N3 Rb0 3.268312 1_556
