# generated using pymatgen
data_Tl4Si5O12
_symmetry_space_group_name_H-M   'P 1'
_cell_length_a   7.43590519
_cell_length_b   7.43590519
_cell_length_c   13.18866099
_cell_angle_alpha   87.10893579
_cell_angle_beta   87.10893579
_cell_angle_gamma   103.30134187
_symmetry_Int_Tables_number   1
_chemical_formula_structural   Tl4Si5O12
_chemical_formula_sum   'Tl8 Si10 O24'
_cell_volume   707.32490459
_cell_formula_units_Z   2
loop_
 _symmetry_equiv_pos_site_id
 _symmetry_equiv_pos_as_xyz
  1  'x, y, z'
loop_
 _atom_site_type_symbol
 _atom_site_label
 _atom_site_symmetry_multiplicity
 _atom_site_fract_x
 _atom_site_fract_y
 _atom_site_fract_z
 _atom_site_occupancy
  Tl  Tl0  1  0.07259111  0.13165957  0.62350797  1
  Tl  Tl1  1  0.86834043  0.92740889  0.87649203  1
  Tl  Tl2  1  0.92740889  0.86834043  0.37649203  1
  Tl  Tl3  1  0.13165957  0.07259111  0.12350797  1
  Tl  Tl4  1  0.03476314  0.63041097  0.63113373  1
  Tl  Tl5  1  0.36958903  0.96523686  0.86886627  1
  Tl  Tl6  1  0.96523686  0.36958903  0.36886627  1
  Tl  Tl7  1  0.63041097  0.03476314  0.13113373  1
  Si  Si0  1  0.63863209  0.24770471  0.58148039  1
  Si  Si1  1  0.75229529  0.36136791  0.91851961  1
  Si  Si2  1  0.36136791  0.75229529  0.41851961  1
  Si  Si3  1  0.24770471  0.63863209  0.08148039  1
  Si  Si4  1  0.38145759  0.16617441  0.39725318  1
  Si  Si5  1  0.83382559  0.61854241  0.10274682  1
  Si  Si6  1  0.61854241  0.83382559  0.60274682  1
  Si  Si7  1  0.16617441  0.38145759  0.89725318  1
  Si  Si8  1  0.50986903  0.49013097  0.75000000  1
  Si  Si9  1  0.49013097  0.50986903  0.25000000  1
  O  O0  1  0.53661849  0.36228247  0.65842657  1
  O  O1  1  0.63771753  0.46338151  0.84157343  1
  O  O2  1  0.46338151  0.63771753  0.34157343  1
  O  O3  1  0.36228247  0.53661849  0.15842657  1
  O  O4  1  0.56562126  0.70527601  0.70920559  1
  O  O5  1  0.29472399  0.43437874  0.79079441  1
  O  O6  1  0.43437874  0.29472399  0.29079441  1
  O  O7  1  0.70527601  0.56562126  0.20920559  1
  O  O8  1  0.85681455  0.33169833  0.56253624  1
  O  O9  1  0.66830167  0.14318545  0.93746376  1
  O  O10  1  0.14318545  0.66830167  0.43746376  1
  O  O11  1  0.33169833  0.85681455  0.06253624  1
  O  O12  1  0.53938697  0.24865612  0.47446901  1
  O  O13  1  0.75134388  0.46061303  0.02553099  1
  O  O14  1  0.46061303  0.75134388  0.52553099  1
  O  O15  1  0.24865612  0.53938697  0.97446901  1
  O  O16  1  0.59148615  0.03659237  0.63324829  1
  O  O17  1  0.96340763  0.40851385  0.86675171  1
  O  O18  1  0.40851385  0.96340763  0.36675171  1
  O  O19  1  0.03659237  0.59148615  0.13324829  1
  O  O20  1  0.17469288  0.15591815  0.44111339  1
  O  O21  1  0.84408185  0.82530712  0.05888661  1
  O  O22  1  0.82530712  0.84408185  0.55888661  1
  O  O23  1  0.15591815  0.17469288  0.94111339  1
loop_
_geom_bond_atom_site_label_1
_geom_bond_atom_site_label_2
_geom_bond_distance
_geom_bond_site_symmetry_2
O0 Si8 1.606408 1_555
O0 Si0 1.624225 1_555
O1 Si8 1.606408 1_555
O1 Si1 1.624225 1_555
O2 Si9 1.606408 1_555
O2 Si2 1.624225 1_555
O3 Si9 1.606408 1_555
O3 Si3 1.624225 1_555
O4 Si8 1.614368 1_555
O4 Si6 1.635761 1_555
O5 Si8 1.614368 1_555
O5 Si7 1.635761 1_555
O6 Si9 1.614368 1_555
O6 Si4 1.635761 1_555
O7 Si9 1.614368 1_555
O7 Si5 1.635761 1_555
O8 Si0 1.600546 1_555
O8 Tl4 2.544437 1_655
O8 Tl0 2.557595 1_655
O8 Tl6 2.620821 1_555
O9 Si1 1.600546 1_555
O9 Tl5 2.544437 1_545
O9 Tl1 2.557595 1_545
O9 Tl7 2.620821 1_556
O10 Si2 1.600546 1_555
O10 Tl6 2.544437 1_455
O10 Tl2 2.557595 1_455
O10 Tl4 2.620821 1_555
O11 Si3 1.600546 1_555
O11 Tl7 2.544437 1_565
O11 Tl3 2.557595 1_565
O11 Tl5 2.620821 1_554
O12 Si0 1.625728 1_555
O12 Si4 1.626212 1_555
O13 Si1 1.625728 1_554
O13 Si5 1.626212 1_555
O14 Si2 1.625728 1_555
O14 Si6 1.626212 1_555
O15 Si3 1.625728 1_556
O15 Si7 1.626212 1_555
O16 Si0 1.633359 1_555
O16 Si6 1.633470 1_545
O17 Si1 1.633359 1_555
O17 Si7 1.633470 1_655
O18 Si2 1.633359 1_555
O18 Si4 1.633470 1_565
O19 Si3 1.633359 1_555
O19 Si5 1.633470 1_455
O20 Si4 1.598801 1_555
O20 Tl0 2.470740 1_555
O20 Tl6 2.644573 1_455
O20 Tl2 2.685674 1_445
O21 Si5 1.598801 1_555
O21 Tl1 2.470740 1_554
O21 Tl7 2.644573 1_565
O21 Tl3 2.685674 1_665
O22 Si6 1.598801 1_555
O22 Tl2 2.470740 1_555
O22 Tl4 2.644573 1_655
O22 Tl0 2.685674 1_665
O23 Si7 1.598801 1_555
O23 Tl3 2.470740 1_556
O23 Tl5 2.644573 1_545
O23 Tl1 2.685674 1_445
