# generated using pymatgen
data_Tb2Tl
_symmetry_space_group_name_H-M   'P 1'
_cell_length_a   5.39678933
_cell_length_b   5.39679013
_cell_length_c   6.71023527
_cell_angle_alpha   90.00000000
_cell_angle_beta   90.00000000
_cell_angle_gamma   120.00000154
_symmetry_Int_Tables_number   1
_chemical_formula_structural   Tb2Tl
_chemical_formula_sum   'Tb4 Tl2'
_cell_volume   169.25416585
_cell_formula_units_Z   2
loop_
 _symmetry_equiv_pos_site_id
 _symmetry_equiv_pos_as_xyz
  1  'x, y, z'
loop_
 _atom_site_type_symbol
 _atom_site_label
 _atom_site_symmetry_multiplicity
 _atom_site_fract_x
 _atom_site_fract_y
 _atom_site_fract_z
 _atom_site_occupancy
  Tb  Tb0  1  -0.00000000  0.00000000  0.00000000  1
  Tb  Tb1  1  -0.00000000  0.00000000  0.50000000  1
  Tb  Tb2  1  0.33333300  0.66666700  0.75000000  1
  Tb  Tb3  1  0.66666700  0.33333300  0.25000000  1
  Tl  Tl0  1  0.33333300  0.66666700  0.25000000  1
  Tl  Tl1  1  0.66666700  0.33333300  0.75000000  1
loop_
_geom_bond_atom_site_label_1
_geom_bond_atom_site_label_2
_geom_bond_distance
_geom_bond_site_symmetry_2
Tb0 Tb1 3.355118 1_554
Tb0 Tb1 3.355118 1_555
Tb0 Tl0 3.538733 1_545
Tb0 Tl1 3.538733 1_454
Tb0 Tb2 3.538733 1_544
Tb0 Tb3 3.538733 1_455
Tb0 Tl0 3.538737 1_445
Tb0 Tb3 3.538737 1_555
Tb0 Tb2 3.538737 1_444
Tb0 Tl1 3.538737 1_554
Tb0 Tl0 3.538737 1_555
Tb0 Tb2 3.538737 1_554
Tb0 Tb3 3.538737 1_445
Tb0 Tl1 3.538737 1_444
Tb1 Tl1 3.538733 1_455
Tb1 Tl0 3.538733 1_545
Tb1 Tb3 3.538733 1_455
Tb1 Tb2 3.538733 1_545
Tb1 Tl1 3.538737 1_555
Tb1 Tl0 3.538737 1_445
Tb1 Tb2 3.538737 1_445
Tb1 Tb3 3.538737 1_555
Tb1 Tl1 3.538737 1_445
Tb1 Tb3 3.538737 1_445
Tb1 Tl0 3.538737 1_555
Tb1 Tb2 3.538737 1_555
Tb2 Tl1 3.115835 1_455
Tb2 Tl1 3.115835 1_565
Tb2 Tl1 3.115844 1_555
Tb2 Tl0 3.355118 1_555
Tb2 Tl0 3.355118 1_556
Tb3 Tl0 3.115835 1_655
Tb3 Tl0 3.115835 1_545
Tb3 Tl0 3.115844 1_555
Tb3 Tl1 3.355118 1_554
Tb3 Tl1 3.355118 1_555
