# generated using pymatgen
data_KCNO
_symmetry_space_group_name_H-M   'P 1'
_cell_length_a   5.63786136
_cell_length_b   5.63786136
_cell_length_c   5.63786136
_cell_angle_alpha   113.94316830
_cell_angle_beta   113.57853911
_cell_angle_gamma   101.19588709
_symmetry_Int_Tables_number   1
_chemical_formula_structural   KCNO
_chemical_formula_sum   'K2 C2 N2 O2'
_cell_volume   135.83457051
_cell_formula_units_Z   2
loop_
 _symmetry_equiv_pos_site_id
 _symmetry_equiv_pos_as_xyz
  1  'x, y, z'
loop_
 _atom_site_type_symbol
 _atom_site_label
 _atom_site_symmetry_multiplicity
 _atom_site_fract_x
 _atom_site_fract_y
 _atom_site_fract_z
 _atom_site_occupancy
  K  K0  1  0.25262200  0.00000000  0.25262200  1
  K  K1  1  0.75262200  0.50000000  0.25262200  1
  C  C0  1  0.49853300  0.74709400  0.74562700  1
  C  C1  1  0.99853300  0.25290600  0.75144000  1
  N  N0  1  0.35991300  0.61092500  0.47083700  1
  N  N1  1  0.85991300  0.38907500  0.74898800  1
  O  O0  1  0.63893300  0.88950800  0.02844100  1
  O  O1  1  0.13893300  0.11049200  0.74942500  1
loop_
_geom_bond_atom_site_label_1
_geom_bond_atom_site_label_2
_geom_bond_distance
_geom_bond_site_symmetry_2
K0 N0 2.966717 1_545
K0 N1 2.966720 1_555
K0 O1 2.969693 1_555
K0 O0 2.969693 1_545
K0 N1 2.983114 1_444
K0 N0 2.983114 1_555
K0 O1 2.996987 1_554
K0 O0 2.996987 1_445
K1 N1 2.966720 1_555
K1 N0 2.966721 1_655
K1 O1 2.969693 1_665
K1 O0 2.969693 1_545
K1 N0 2.983110 1_555
K1 N1 2.983114 1_554
K1 O0 2.996987 1_555
K1 O1 2.996987 1_554
C0 N0 1.197205 1_555
C0 O0 1.232050 1_556
C1 N1 1.197201 1_555
C1 O1 1.232050 1_655
