# generated using pymatgen
data_Sr3Hg
_symmetry_space_group_name_H-M   'P 1'
_cell_length_a   7.49693752
_cell_length_b   8.72947944
_cell_length_c   10.78242590
_cell_angle_alpha   90.00000000
_cell_angle_beta   90.00000000
_cell_angle_gamma   90.00000000
_symmetry_Int_Tables_number   1
_chemical_formula_structural   Sr3Hg
_chemical_formula_sum   'Sr12 Hg4'
_cell_volume   705.64898323
_cell_formula_units_Z   4
loop_
 _symmetry_equiv_pos_site_id
 _symmetry_equiv_pos_as_xyz
  1  'x, y, z'
loop_
 _atom_site_type_symbol
 _atom_site_label
 _atom_site_symmetry_multiplicity
 _atom_site_fract_x
 _atom_site_fract_y
 _atom_site_fract_z
 _atom_site_occupancy
  Sr  Sr0  1  0.33820200  0.67251324  0.06549365  1
  Sr  Sr1  1  0.16179800  0.17251324  0.43450635  1
  Sr  Sr2  1  0.66179800  0.32748676  0.56549365  1
  Sr  Sr3  1  0.83820200  0.82748676  0.93450635  1
  Sr  Sr4  1  0.66179800  0.32748676  0.93450635  1
  Sr  Sr5  1  0.83820200  0.82748676  0.56549365  1
  Sr  Sr6  1  0.33820200  0.67251324  0.43450635  1
  Sr  Sr7  1  0.16179800  0.17251324  0.06549365  1
  Sr  Sr8  1  0.85892106  0.53618579  0.25000000  1
  Sr  Sr9  1  0.64107894  0.03618579  0.25000000  1
  Sr  Sr10  1  0.14107894  0.46381421  0.75000000  1
  Sr  Sr11  1  0.35892106  0.96381421  0.75000000  1
  Hg  Hg0  1  0.04789767  0.87759647  0.25000000  1
  Hg  Hg1  1  0.45210233  0.37759647  0.25000000  1
  Hg  Hg2  1  0.95210233  0.12240353  0.75000000  1
  Hg  Hg3  1  0.54789767  0.62240353  0.75000000  1
loop_
_geom_bond_atom_site_label_1
_geom_bond_atom_site_label_2
_geom_bond_distance
_geom_bond_site_symmetry_2
Hg0 Sr8 3.299936 1_455
Hg0 Sr9 3.349392 1_465
Hg0 Sr7 3.363757 1_565
Hg0 Sr1 3.363757 1_565
Hg0 Sr6 3.449575 1_555
Hg0 Sr0 3.449575 1_555
Hg0 Sr5 3.772919 1_455
Hg0 Sr3 3.772919 1_454
Hg1 Sr9 3.299936 1_555
Hg1 Sr8 3.349392 1_555
Hg1 Sr0 3.363757 1_555
Hg1 Sr6 3.363757 1_555
Hg1 Sr7 3.449575 1_555
Hg1 Sr1 3.449575 1_555
Hg1 Sr2 3.772919 1_555
Hg1 Sr4 3.772919 1_554
Hg2 Sr10 3.299936 1_655
Hg2 Sr11 3.349392 1_645
Hg2 Sr5 3.363757 1_545
Hg2 Sr3 3.363757 1_545
Hg2 Sr4 3.449575 1_555
Hg2 Sr2 3.449575 1_555
Hg2 Sr1 3.772919 1_655
Hg2 Sr7 3.772919 1_656
Hg3 Sr11 3.299936 1_555
Hg3 Sr10 3.349392 1_555
Hg3 Sr4 3.363757 1_555
Hg3 Sr2 3.363757 1_555
Hg3 Sr5 3.449575 1_555
Hg3 Sr3 3.449575 1_555
Hg3 Sr6 3.772919 1_555
Hg3 Sr0 3.772919 1_556
