# generated using pymatgen
data_Ba2Sb2F11
_symmetry_space_group_name_H-M   'P 1'
_cell_length_a   8.06355657
_cell_length_b   8.06355657
_cell_length_c   14.82370600
_cell_angle_alpha   90.00000000
_cell_angle_beta   90.00000000
_cell_angle_gamma   120.00000468
_symmetry_Int_Tables_number   1
_chemical_formula_structural   Ba2Sb2F11
_chemical_formula_sum   'Ba6 Sb6 F33'
_cell_volume   834.71972918
_cell_formula_units_Z   3
loop_
 _symmetry_equiv_pos_site_id
 _symmetry_equiv_pos_as_xyz
  1  'x, y, z'
loop_
 _atom_site_type_symbol
 _atom_site_label
 _atom_site_symmetry_multiplicity
 _atom_site_fract_x
 _atom_site_fract_y
 _atom_site_fract_z
 _atom_site_occupancy
  Ba  Ba0  1  0.54458400  0.17336300  0.65664200  1
  Ba  Ba1  1  0.12194800  0.39734000  0.80425000  1
  Ba  Ba2  1  0.62877900  0.45541600  0.98997500  1
  Ba  Ba3  1  0.60266000  0.72460800  0.47091700  1
  Ba  Ba4  1  0.27539200  0.87805200  0.13758400  1
  Ba  Ba5  1  0.82663700  0.37122100  0.32330900  1
  Sb  Sb0  1  0.53384900  0.93900000  0.89509400  1
  Sb  Sb1  1  0.84670400  0.79896500  0.73275600  1
  Sb  Sb2  1  0.20103500  0.04774000  0.39942300  1
  Sb  Sb3  1  0.40515100  0.46615100  0.22842800  1
  Sb  Sb4  1  0.95226000  0.15329600  0.06608900  1
  Sb  Sb5  1  0.06100000  0.59484900  0.56176100  1
  F  F0  1  0.65658800  0.01620600  0.06258900  1
  F  F1  1  0.29803100  0.68991200  0.94379100  1
  F  F2  1  0.35961800  0.34341200  0.39592200  1
  F  F3  1  0.12010500  0.48832900  0.45267700  1
  F  F4  1  0.55362000  0.32228200  0.17885700  1
  F  F5  1  0.00385300  0.58395000  0.19408300  1
  F  F6  1  0.51167100  0.63177500  0.11934300  1
  F  F7  1  0.41605000  0.41990300  0.86075000  1
  F  F8  1  0.76866200  0.44638000  0.51219100  1
  F  F9  1  0.24739600  0.25450500  0.07320700  1
  F  F10  1  0.36822500  0.87989500  0.78601000  1
  F  F11  1  0.98379400  0.64038200  0.72925600  1
  F  F12  1  0.39849800  0.05276600  0.96416800  1
  F  F13  1  0.93150400  0.38870700  0.01913400  1
  F  F14  1  0.65426800  0.60150200  0.29750200  1
  F  F15  1  0.31008800  0.60811900  0.61045800  1
  F  F16  1  0.96495000  0.12319500  0.93011100  1
  F  F17  1  0.00710900  0.75260400  0.40654000  1
  F  F18  1  0.95980000  0.06747000  0.40927500  1
  F  F19  1  0.94723400  0.34573200  0.63083500  1
  F  F20  1  0.10767000  0.04020000  0.74260900  1
  F  F21  1  0.61129300  0.54279600  0.68580100  1
  F  F22  1  0.45720400  0.06849600  0.35246700  1
  F  F23  1  0.15824500  0.03505000  0.26344400  1
  F  F24  1  0.74549500  0.99289100  0.73987400  1
  F  F25  1  0.67771800  0.23133800  0.84552400  1
  F  F26  1  0.39188100  0.70196900  0.27712400  1
  F  F27  1  0.81638800  0.73885800  0.86943000  1
  F  F28  1  0.92247100  0.18361200  0.20276300  1
  F  F29  1  0.93253000  0.89233000  0.07594200  1
  F  F30  1  0.58009700  0.99614700  0.52741700  1
  F  F31  1  0.87680500  0.84175500  0.59677800  1
  F  F32  1  0.26114200  0.07752900  0.53609700  1
loop_
_geom_bond_atom_site_label_1
_geom_bond_atom_site_label_2
_geom_bond_distance
_geom_bond_site_symmetry_2
Ba0 F30 2.490527 1_545
Ba0 F32 2.692176 1_555
Ba0 F21 2.783502 1_555
Ba0 F10 2.816835 1_545
Ba0 F19 2.847298 1_555
Ba0 F24 2.936356 1_545
Ba0 F25 2.951063 1_555
Ba0 F8 2.952741 1_555
Ba0 F20 3.377288 1_555
Ba1 F7 2.434575 1_555
Ba1 F16 2.678014 1_455
Ba1 F19 2.860057 1_455
Ba1 F11 2.915622 1_455
Ba1 F1 2.917319 1_555
Ba1 F20 2.968162 1_555
Ba1 F25 3.194137 1_455
Ba1 F24 3.295673 1_445
Ba1 F15 3.296102 1_555
Ba1 F10 3.380870 1_555
Ba2 F7 2.490527 1_555
Ba2 F27 2.692177 1_555
Ba2 F13 2.783510 1_556
Ba2 F6 2.816831 1_556
Ba2 F12 2.847298 1_555
Ba2 F9 2.936356 1_556
Ba2 F4 2.951063 1_556
Ba2 F25 2.952741 1_555
Ba2 F29 3.377287 1_556
Ba3 F30 2.434575 1_555
Ba3 F31 2.678014 1_555
Ba3 F14 2.860057 1_555
Ba3 F2 2.915627 1_555
Ba3 F15 2.917319 1_555
Ba3 F18 2.968167 1_565
Ba3 F8 3.194137 1_555
Ba3 F17 3.295678 1_655
Ba3 F26 3.296115 1_555
Ba3 F3 3.380870 1_555
Ba4 F5 2.434570 1_555
Ba4 F23 2.678004 1_565
Ba4 F12 2.860070 1_564
Ba4 F0 2.915627 1_565
Ba4 F26 2.917308 1_555
Ba4 F29 2.968167 1_455
Ba4 F4 3.194134 1_565
Ba4 F9 3.295678 1_565
Ba4 F1 3.296115 1_554
Ba4 F6 3.380878 1_555
Ba5 F5 2.490538 1_655
Ba5 F28 2.692192 1_555
Ba5 F22 2.783502 1_555
Ba5 F3 2.816836 1_655
Ba5 F14 2.847298 1_555
Ba5 F17 2.936350 1_655
Ba5 F8 2.951063 1_555
Ba5 F4 2.952752 1_555
Ba5 F18 3.377282 1_555
F0 Sb4 2.067218 1_555
F0 Sb0 2.629778 1_544
F1 Sb0 2.086106 1_555
F2 Sb2 2.067219 1_555
F2 Sb3 2.629764 1_555
F3 Sb5 1.997261 1_555
F4 Sb3 2.169771 1_555
F6 Sb3 1.997269 1_555
F8 Sb5 2.169765 1_655
F9 Sb4 2.097289 1_455
F10 Sb0 1.997257 1_555
F11 Sb1 2.067226 1_555
F11 Sb5 2.629778 1_655
F12 Sb0 2.020489 1_545
F13 Sb4 2.105600 1_555
F14 Sb3 2.020489 1_555
F15 Sb5 2.086106 1_555
F16 Sb4 2.038936 1_556
F17 Sb2 2.097287 1_565
F18 Sb2 2.034689 1_655
F19 Sb5 2.020489 1_655
F20 Sb1 2.034695 1_445
F21 Sb1 2.105608 1_555
F22 Sb2 2.105620 1_555
F23 Sb2 2.038949 1_555
F24 Sb1 2.097282 1_555
F25 Sb0 2.169765 1_545
F26 Sb3 2.086101 1_555
F27 Sb1 2.069040 1_555
F28 Sb4 2.069037 1_555
F29 Sb4 2.034698 1_565
F31 Sb1 2.038935 1_555
F32 Sb2 2.069040 1_555
