# generated using pymatgen
data_PdS2O7
_symmetry_space_group_name_H-M   'P 1'
_cell_length_a   5.13737000
_cell_length_b   13.06720800
_cell_length_c   9.58750380
_cell_angle_alpha   90.00000000
_cell_angle_beta   120.99335948
_cell_angle_gamma   90.00000000
_symmetry_Int_Tables_number   1
_chemical_formula_structural   PdS2O7
_chemical_formula_sum   'Pd4 S8 O28'
_cell_volume   551.72801129
_cell_formula_units_Z   4
loop_
 _symmetry_equiv_pos_site_id
 _symmetry_equiv_pos_as_xyz
  1  'x, y, z'
loop_
 _atom_site_type_symbol
 _atom_site_label
 _atom_site_symmetry_multiplicity
 _atom_site_fract_x
 _atom_site_fract_y
 _atom_site_fract_z
 _atom_site_occupancy
  Pd  Pd0  1  0.36820800  0.34993700  0.16786300  1
  Pd  Pd1  1  0.36820800  0.15006300  0.66786300  1
  Pd  Pd2  1  0.63179200  0.65006300  0.83213700  1
  Pd  Pd3  1  0.63179200  0.84993700  0.33213700  1
  S  S0  1  0.77339100  0.31283000  0.58124200  1
  S  S1  1  0.77339100  0.18717000  0.08124200  1
  S  S2  1  0.22660900  0.68717000  0.41875800  1
  S  S3  1  0.22660900  0.81283000  0.91875800  1
  S  S4  1  0.86899100  0.52331100  0.19459400  1
  S  S5  1  0.86899100  0.97668900  0.69459400  1
  S  S6  1  0.13100900  0.47668900  0.80540600  1
  S  S7  1  0.13100900  0.02331100  0.30540600  1
  O  O0  1  0.73791600  0.25449300  0.70073100  1
  O  O1  1  0.73791600  0.24550700  0.20073100  1
  O  O2  1  0.26208400  0.74550700  0.29926900  1
  O  O3  1  0.26208400  0.75449300  0.79926900  1
  O  O4  1  0.04475100  0.28764300  0.57552400  1
  O  O5  1  0.04475100  0.21235700  0.07552400  1
  O  O6  1  0.95524900  0.71235700  0.42447600  1
  O  O7  1  0.95524900  0.78764300  0.92447600  1
  O  O8  1  0.68639700  0.48516600  0.26140900  1
  O  O9  1  0.68639700  0.01483400  0.76140900  1
  O  O10  1  0.31360300  0.51483400  0.73859100  1
  O  O11  1  0.31360300  0.98516600  0.23859100  1
  O  O12  1  0.72807100  0.61044900  0.08481000  1
  O  O13  1  0.72807100  0.88955100  0.58481000  1
  O  O14  1  0.27192900  0.38955100  0.91519000  1
  O  O15  1  0.27192900  0.11044900  0.41519000  1
  O  O16  1  0.97954600  0.44392400  0.13204200  1
  O  O17  1  0.97954600  0.05607600  0.63204200  1
  O  O18  1  0.02045400  0.55607600  0.86795800  1
  O  O19  1  0.02045400  0.94392400  0.36795800  1
  O  O20  1  0.18009500  0.56621800  0.35487200  1
  O  O21  1  0.18009500  0.93378200  0.85487200  1
  O  O22  1  0.81990500  0.43378200  0.64512800  1
  O  O23  1  0.81990500  0.06621800  0.14512800  1
  O  O24  1  0.49152900  0.32208700  0.42479700  1
  O  O25  1  0.49152900  0.17791300  0.92479700  1
  O  O26  1  0.50847100  0.67791300  0.57520300  1
  O  O27  1  0.50847100  0.82208700  0.07520300  1
loop_
_geom_bond_atom_site_label_1
_geom_bond_atom_site_label_2
_geom_bond_distance
_geom_bond_site_symmetry_2
O0 S0 1.463469 1_555
O0 Pd1 2.225421 1_555
O1 S1 1.463469 1_555
O1 Pd0 2.225421 1_555
O2 S2 1.463469 1_555
O2 Pd3 2.225421 1_555
O3 S3 1.463469 1_555
O3 Pd2 2.225421 1_555
O4 S0 1.460646 1_455
O4 Pd1 2.293911 1_555
O5 S1 1.460646 1_455
O5 Pd0 2.293911 1_555
O6 S2 1.460646 1_655
O6 Pd3 2.293911 1_555
O7 S3 1.460646 1_655
O7 Pd2 2.293911 1_555
O8 S4 1.468880 1_555
O8 Pd0 2.255907 1_555
O9 S5 1.468880 1_545
O9 Pd1 2.255907 1_555
O10 S6 1.468880 1_555
O10 Pd2 2.255907 1_555
O11 S7 1.468880 1_565
O11 Pd3 2.255907 1_555
O12 S4 1.464151 1_555
O12 Pd2 2.268724 1_554
O13 S5 1.464151 1_555
O13 Pd3 2.268724 1_555
O14 S6 1.464151 1_555
O14 Pd0 2.268724 1_556
O15 S7 1.464151 1_555
O15 Pd1 2.268724 1_555
O16 S4 1.452296 1_555
O16 Pd0 2.215149 1_655
O17 S5 1.452296 1_545
O17 Pd1 2.215149 1_655
O18 S6 1.452296 1_555
O18 Pd2 2.215149 1_455
O19 S7 1.452296 1_565
O19 Pd3 2.215149 1_455
O20 S4 1.643398 1_455
O20 S2 1.667191 1_555
O21 S5 1.643398 1_455
O21 S3 1.667191 1_555
O22 S6 1.643398 1_655
O22 S0 1.667191 1_555
O23 S7 1.643398 1_655
O23 S1 1.667191 1_555
O24 S0 1.457517 1_555
O24 Pd0 2.234874 1_555
O25 S1 1.457517 1_556
O25 Pd1 2.234874 1_555
O26 S2 1.457517 1_555
O26 Pd2 2.234874 1_555
O27 S3 1.457517 1_554
O27 Pd3 2.234874 1_555
