# generated using pymatgen
data_Sb4Te3N2
_symmetry_space_group_name_H-M   'P 1'
_cell_length_a   7.60792500
_cell_length_b   10.79019900
_cell_length_c   11.46180900
_cell_angle_alpha   90.00000000
_cell_angle_beta   90.00000000
_cell_angle_gamma   90.00000000
_symmetry_Int_Tables_number   1
_chemical_formula_structural   Sb4Te3N2
_chemical_formula_sum   'Sb16 Te12 N8'
_cell_volume   940.91164604
_cell_formula_units_Z   4
loop_
 _symmetry_equiv_pos_site_id
 _symmetry_equiv_pos_as_xyz
  1  'x, y, z'
loop_
 _atom_site_type_symbol
 _atom_site_label
 _atom_site_symmetry_multiplicity
 _atom_site_fract_x
 _atom_site_fract_y
 _atom_site_fract_z
 _atom_site_occupancy
  Sb  Sb0  1  0.59025700  0.25000000  0.82822300  1
  Sb  Sb1  1  0.09025700  0.25000000  0.67177700  1
  Sb  Sb2  1  0.40974300  0.75000000  0.17177700  1
  Sb  Sb3  1  0.90974300  0.75000000  0.32822300  1
  Sb  Sb4  1  0.76449200  0.25000000  0.47509100  1
  Sb  Sb5  1  0.26449200  0.25000000  0.02490900  1
  Sb  Sb6  1  0.23550800  0.75000000  0.52490900  1
  Sb  Sb7  1  0.73550800  0.75000000  0.97509100  1
  Sb  Sb8  1  0.65124500  0.44955600  0.10005600  1
  Sb  Sb9  1  0.15124500  0.05044400  0.39994400  1
  Sb  Sb10  1  0.34875500  0.94955600  0.89994400  1
  Sb  Sb11  1  0.84875500  0.55044400  0.60005600  1
  Sb  Sb12  1  0.34875500  0.55044400  0.89994400  1
  Sb  Sb13  1  0.84875500  0.94955600  0.60005600  1
  Sb  Sb14  1  0.65124500  0.05044400  0.10005600  1
  Sb  Sb15  1  0.15124500  0.44955600  0.39994400  1
  Te  Te0  1  0.94384000  0.25000000  0.26072700  1
  Te  Te1  1  0.44384000  0.25000000  0.23927300  1
  Te  Te2  1  0.05616000  0.75000000  0.73927300  1
  Te  Te3  1  0.55616000  0.75000000  0.76072700  1
  Te  Te4  1  0.61493700  0.55453300  0.35771400  1
  Te  Te5  1  0.11493700  0.94546700  0.14228600  1
  Te  Te6  1  0.38506300  0.05453300  0.64228600  1
  Te  Te7  1  0.88506300  0.44546700  0.85771400  1
  Te  Te8  1  0.38506300  0.44546700  0.64228600  1
  Te  Te9  1  0.88506300  0.05453300  0.85771400  1
  Te  Te10  1  0.61493700  0.94546700  0.35771400  1
  Te  Te11  1  0.11493700  0.55453300  0.14228600  1
  N  N0  1  0.53993100  0.62258000  0.04128600  1
  N  N1  1  0.03993100  0.87742000  0.45871400  1
  N  N2  1  0.46006900  0.12258000  0.95871400  1
  N  N3  1  0.96006900  0.37742000  0.54128600  1
  N  N4  1  0.46006900  0.37742000  0.95871400  1
  N  N5  1  0.96006900  0.12258000  0.54128600  1
  N  N6  1  0.53993100  0.87742000  0.04128600  1
  N  N7  1  0.03993100  0.62258000  0.45871400  1
loop_
_geom_bond_atom_site_label_1
_geom_bond_atom_site_label_2
_geom_bond_distance
_geom_bond_site_symmetry_2
Sb0 Te9 3.097274 1_555
Sb0 Te7 3.097274 1_555
Sb0 Te6 3.380438 1_555
Sb0 Te8 3.380438 1_555
Sb1 Te6 3.097274 1_555
Sb1 Te8 3.097274 1_555
Sb1 Te7 3.380438 1_455
Sb1 Te9 3.380438 1_455
Sb2 Te5 3.097274 1_555
Sb2 Te11 3.097274 1_555
Sb2 Te4 3.380438 1_555
Sb2 Te10 3.380438 1_555
Sb3 Te4 3.097274 1_555
Sb3 Te10 3.097274 1_555
Sb3 Te5 3.380438 1_655
Sb3 Te11 3.380438 1_655
Sb4 Te0 2.810447 1_555
Sb5 Te1 2.810447 1_555
Sb6 Te2 2.810447 1_555
Sb7 Te3 2.810447 1_555
Sb8 Te1 3.110066 1_555
Sb8 Te4 3.175045 1_555
Sb8 Te7 3.298760 1_554
Sb9 Te0 3.110066 1_455
Sb9 Te5 3.175045 1_545
Sb9 Te6 3.298760 1_555
Sb10 Te3 3.110066 1_555
Sb10 Te6 3.175045 1_565
Sb10 Te5 3.298760 1_556
Sb11 Te2 3.110066 1_655
Sb11 Te7 3.175045 1_555
Sb11 Te4 3.298760 1_555
Sb12 Te3 3.110066 1_555
Sb12 Te8 3.175045 1_555
Sb12 Te11 3.298760 1_556
Sb13 Te2 3.110066 1_655
Sb13 Te9 3.175045 1_565
Sb13 Te10 3.298760 1_555
Sb14 Te1 3.110066 1_555
Sb14 Te10 3.175045 1_545
Sb14 Te9 3.298760 1_554
Sb15 Te0 3.110066 1_455
Sb15 Te11 3.175045 1_555
Sb15 Te8 3.298760 1_555
N0 Sb8 2.157890 1_555
N0 Sb7 2.163311 1_554
N0 Sb2 2.260162 1_555
N0 Sb12 2.312097 1_554
N1 Sb9 2.157890 1_565
N1 Sb6 2.163311 1_555
N1 Sb3 2.260162 1_455
N1 Sb13 2.312097 1_455
N2 Sb10 2.157890 1_545
N2 Sb5 2.163311 1_556
N2 Sb0 2.260162 1_555
N2 Sb14 2.312097 1_556
N3 Sb11 2.157890 1_555
N3 Sb4 2.163311 1_555
N3 Sb1 2.260162 1_655
N3 Sb15 2.312097 1_655
N4 Sb12 2.157890 1_555
N4 Sb5 2.163311 1_556
N4 Sb0 2.260162 1_555
N4 Sb8 2.312097 1_556
N5 Sb13 2.157890 1_545
N5 Sb4 2.163311 1_555
N5 Sb1 2.260162 1_655
N5 Sb9 2.312097 1_655
N6 Sb14 2.157890 1_565
N6 Sb7 2.163311 1_554
N6 Sb2 2.260162 1_555
N6 Sb10 2.312097 1_554
N7 Sb15 2.157890 1_555
N7 Sb6 2.163311 1_555
N7 Sb3 2.260162 1_455
N7 Sb11 2.312097 1_455
