# generated using pymatgen
data_Tm2Mn12GaGe11
_symmetry_space_group_name_H-M   'P 1'
_cell_length_a   5.17341904
_cell_length_b   5.17610496
_cell_length_c   16.25223811
_cell_angle_alpha   89.99337612
_cell_angle_beta   90.01325666
_cell_angle_gamma   119.98283256
_symmetry_Int_Tables_number   1
_chemical_formula_structural   Tm2Mn12GaGe11
_chemical_formula_sum   'Tm2 Mn12 Ga1 Ge11'
_cell_volume   376.96378606
_cell_formula_units_Z   1
loop_
 _symmetry_equiv_pos_site_id
 _symmetry_equiv_pos_as_xyz
  1  'x, y, z'
loop_
 _atom_site_type_symbol
 _atom_site_label
 _atom_site_symmetry_multiplicity
 _atom_site_fract_x
 _atom_site_fract_y
 _atom_site_fract_z
 _atom_site_occupancy
  Tm  Tm0  1  0.99996800  0.00000000  0.00071100  1
  Tm  Tm1  1  0.00000900  0.00000000  0.49993800  1
  Mn  Mn0  1  0.99998200  0.49999300  0.12415000  1
  Mn  Mn1  1  0.00000300  0.49998900  0.62514500  1
  Mn  Mn2  1  0.49998200  0.00000000  0.12415200  1
  Mn  Mn3  1  0.50000900  0.00000000  0.62517900  1
  Mn  Mn4  1  0.49998900  0.50000700  0.12415000  1
  Mn  Mn5  1  0.50001500  0.50001100  0.62514500  1
  Mn  Mn6  1  0.99997500  0.49998700  0.37551000  1
  Mn  Mn7  1  0.00000400  0.49999000  0.87481800  1
  Mn  Mn8  1  0.49998400  0.00000000  0.37551900  1
  Mn  Mn9  1  0.49999800  0.00000000  0.87477000  1
  Mn  Mn10  1  0.49998800  0.50001300  0.37551000  1
  Mn  Mn11  1  0.50001400  0.50001000  0.87481800  1
  Ga  Ga0  1  0.99999600  0.00000000  0.17263800  1
  Ge  Ge0  1  0.33327600  0.66664700  0.50007100  1
  Ge  Ge1  1  0.33330300  0.66664000  0.00044100  1
  Ge  Ge2  1  0.66666300  0.33336000  0.00044100  1
  Ge  Ge3  1  0.66662900  0.33335300  0.50007100  1
  Ge  Ge4  1  0.33326800  0.66661200  0.24883600  1
  Ge  Ge5  1  0.33328800  0.66661500  0.75002900  1
  Ge  Ge6  1  0.66665600  0.33338800  0.24883600  1
  Ge  Ge7  1  0.66667300  0.33338500  0.75002900  1
  Ge  Ge8  1  0.99995900  0.00000000  0.67177400  1
  Ge  Ge9  1  0.99997700  0.00000000  0.32882300  1
  Ge  Ge10  1  0.99999400  0.00000000  0.82849700  1
loop_
_geom_bond_atom_site_label_1
_geom_bond_atom_site_label_2
_geom_bond_distance
_geom_bond_site_symmetry_2
Ga0 Ge9 2.538356 1_555
Ga0 Mn2 2.703970 1_555
Ga0 Mn2 2.704180 1_655
Ga0 Mn0 2.705282 1_555
Ga0 Mn4 2.705282 1_545
Ga0 Mn0 2.705456 1_545
Ga0 Mn4 2.705456 1_655
Ga0 Tm0 2.794199 1_555
Ge0 Mn6 2.515484 1_455
Ge0 Mn10 2.516085 1_555
Ge0 Mn8 2.516206 1_565
Ge0 Mn5 2.522394 1_555
Ge0 Mn1 2.522605 1_555
Ge0 Mn3 2.523481 1_565
Ge0 Tm1 2.987183 1_565
Ge0 Tm1 2.987690 1_665
Ge0 Tm1 2.988855 1_555
Ge1 Mn4 2.504403 1_555
Ge1 Mn0 2.504889 1_455
Ge1 Mn2 2.505242 1_565
Ge1 Mn7 2.529387 1_554
Ge1 Mn11 2.529982 1_554
Ge1 Mn9 2.530878 1_564
Ge1 Tm0 2.987387 1_565
Ge1 Tm0 2.987523 1_465
Ge1 Tm0 2.988826 1_455
Ge2 Mn0 2.504403 1_555
Ge2 Mn4 2.504889 1_555
Ge2 Mn2 2.505242 1_555
Ge2 Mn11 2.529387 1_554
Ge2 Mn7 2.529982 1_654
Ge2 Mn9 2.530878 1_554
Ge2 Tm0 2.987387 1_555
Ge2 Tm0 2.987523 1_455
Ge2 Tm0 2.988826 1_565
Ge3 Mn10 2.515484 1_555
Ge3 Mn6 2.516085 1_555
Ge3 Mn8 2.516206 1_555
Ge3 Mn1 2.522391 1_655
Ge3 Mn5 2.522603 1_555
Ge3 Mn3 2.523481 1_555
Ge3 Tm1 2.987183 1_555
Ge3 Tm1 2.987690 1_655
Ge3 Tm1 2.988855 1_665
Ge4 Mn0 2.517079 1_455
Ge4 Mn4 2.517667 1_555
Ge4 Mn2 2.518025 1_565
Ge4 Mn10 2.543245 1_555
Ge4 Mn6 2.543661 1_455
Ge4 Mn8 2.544243 1_565
Ge5 Mn11 2.518546 1_555
Ge5 Mn9 2.518763 1_565
Ge5 Mn7 2.518903 1_555
Ge5 Mn1 2.519667 1_555
Ge5 Mn3 2.520189 1_565
Ge5 Mn5 2.520271 1_555
Ge6 Mn4 2.517079 1_555
Ge6 Mn0 2.517667 1_555
Ge6 Mn2 2.518025 1_555
Ge6 Mn6 2.543245 1_555
Ge6 Mn10 2.543661 1_555
Ge6 Mn8 2.544243 1_555
Ge7 Mn7 2.518546 1_655
Ge7 Mn9 2.518763 1_555
Ge7 Mn11 2.518903 1_555
Ge7 Mn5 2.519665 1_555
Ge7 Mn3 2.520189 1_555
Ge7 Mn1 2.520269 1_655
Ge8 Mn3 2.694863 1_555
Ge8 Mn3 2.695695 1_655
Ge8 Mn5 2.696473 1_545
Ge8 Mn1 2.696475 1_655
Ge8 Mn1 2.696971 1_645
Ge8 Mn5 2.696974 1_655
Ge8 Tm1 2.792720 1_655
Ge9 Mn8 2.695607 1_655
Ge9 Mn8 2.695874 1_555
Ge9 Mn6 2.696964 1_545
Ge9 Mn10 2.696964 1_655
Ge9 Mn6 2.697013 1_555
Ge9 Mn10 2.697013 1_545
Ge9 Tm1 2.781002 1_655
Ge10 Ge8 2.547099 1_555
Ge10 Mn9 2.693666 1_655
Ge10 Mn9 2.693960 1_555
Ge10 Mn7 2.695312 1_645
Ge10 Mn11 2.695312 1_655
Ge10 Mn7 2.695330 1_655
Ge10 Mn11 2.695330 1_545
Ge10 Tm0 2.798863 1_556
