# generated using pymatgen
data_Na2TlCuBr6
_symmetry_space_group_name_H-M   'P 1'
_cell_length_a   7.66627353
_cell_length_b   7.66627353
_cell_length_c   7.66627353
_cell_angle_alpha   60.00000000
_cell_angle_beta   60.00000000
_cell_angle_gamma   60.00000000
_symmetry_Int_Tables_number   1
_chemical_formula_structural   Na2TlCuBr6
_chemical_formula_sum   'Na2 Tl1 Cu1 Br6'
_cell_volume   318.59425068
_cell_formula_units_Z   1
loop_
 _symmetry_equiv_pos_site_id
 _symmetry_equiv_pos_as_xyz
  1  'x, y, z'
loop_
 _atom_site_type_symbol
 _atom_site_label
 _atom_site_symmetry_multiplicity
 _atom_site_fract_x
 _atom_site_fract_y
 _atom_site_fract_z
 _atom_site_occupancy
  Na  Na0  1  0.75000000  0.75000000  0.75000000  1
  Na  Na1  1  0.25000000  0.25000000  0.25000000  1
  Tl  Tl0  1  0.00000000  0.00000000  0.00000000  1
  Cu  Cu0  1  0.50000000  0.50000000  0.50000000  1
  Br  Br0  1  0.73744600  0.26255400  0.26255400  1
  Br  Br1  1  0.26255400  0.26255400  0.73744600  1
  Br  Br2  1  0.26255400  0.73744600  0.73744600  1
  Br  Br3  1  0.26255400  0.73744600  0.26255400  1
  Br  Br4  1  0.73744600  0.26255400  0.73744600  1
  Br  Br5  1  0.73744600  0.73744600  0.26255400  1
loop_
_geom_bond_atom_site_label_1
_geom_bond_atom_site_label_2
_geom_bond_distance
_geom_bond_site_symmetry_2
Br0 Cu0 2.574330 1_555
Br0 Tl0 2.846544 1_655
Br1 Cu0 2.574330 1_555
Br1 Tl0 2.846544 1_556
Br2 Cu0 2.574330 1_555
Br2 Tl0 2.846544 1_566
Br3 Cu0 2.574330 1_555
Br3 Tl0 2.846544 1_565
Br4 Cu0 2.574330 1_555
Br4 Tl0 2.846544 1_656
Br5 Cu0 2.574330 1_555
Br5 Tl0 2.846544 1_665
