# generated using pymatgen
data_Mg14NbZnO16
_symmetry_space_group_name_H-M   'P 1'
_cell_length_a   8.62925261
_cell_length_b   8.63081734
_cell_length_c   4.28483655
_cell_angle_alpha   90.00000000
_cell_angle_beta   90.00000000
_cell_angle_gamma   90.00000000
_symmetry_Int_Tables_number   1
_chemical_formula_structural   Mg14NbZnO16
_chemical_formula_sum   'Mg14 Nb1 Zn1 O16'
_cell_volume   319.12392725
_cell_formula_units_Z   1
loop_
 _symmetry_equiv_pos_site_id
 _symmetry_equiv_pos_as_xyz
  1  'x, y, z'
loop_
 _atom_site_type_symbol
 _atom_site_label
 _atom_site_symmetry_multiplicity
 _atom_site_fract_x
 _atom_site_fract_y
 _atom_site_fract_z
 _atom_site_occupancy
  Mg  Mg0  1  0.50000000  0.00000000  -0.00000000  1
  Mg  Mg1  1  0.50000000  0.50000000  -0.00000000  1
  Mg  Mg2  1  -0.00000000  0.24444849  0.50000000  1
  Mg  Mg3  1  -0.00000000  0.75555151  0.50000000  1
  Mg  Mg4  1  0.50000000  0.24941462  0.50000000  1
  Mg  Mg5  1  0.50000000  0.75058538  0.50000000  1
  Mg  Mg6  1  0.25045519  0.00000000  0.50000000  1
  Mg  Mg7  1  0.25462111  0.50000000  0.50000000  1
  Mg  Mg8  1  0.74954481  0.00000000  0.50000000  1
  Mg  Mg9  1  0.74537889  0.50000000  0.50000000  1
  Mg  Mg10  1  0.25226962  0.24784518  -0.00000000  1
  Mg  Mg11  1  0.25226962  0.75215482  -0.00000000  1
  Mg  Mg12  1  0.74773038  0.24784518  0.00000000  1
  Mg  Mg13  1  0.74773038  0.75215482  0.00000000  1
  Nb  Nb0  1  -0.00000000  0.50000000  -0.00000000  1
  Zn  Zn0  1  -0.00000000  0.00000000  -0.00000000  1
  O  O0  1  0.25584221  0.00000000  -0.00000000  1
  O  O1  1  0.26224776  0.50000000  0.00000000  1
  O  O2  1  0.74415779  0.00000000  0.00000000  1
  O  O3  1  0.73775224  0.50000000  -0.00000000  1
  O  O4  1  0.24859755  0.25046404  0.50000000  1
  O  O5  1  0.24859755  0.74953596  0.50000000  1
  O  O6  1  0.75140245  0.25046404  0.50000000  1
  O  O7  1  0.75140245  0.74953596  0.50000000  1
  O  O8  1  -0.00000000  0.00000000  0.50000000  1
  O  O9  1  -0.00000000  0.50000000  0.50000000  1
  O  O10  1  0.50000000  0.00000000  0.50000000  1
  O  O11  1  0.50000000  0.50000000  0.50000000  1
  O  O12  1  -0.00000000  0.24177641  -0.00000000  1
  O  O13  1  -0.00000000  0.75822359  0.00000000  1
  O  O14  1  0.50000000  0.24910903  0.00000000  1
  O  O15  1  0.50000000  0.75089097  -0.00000000  1
loop_
_geom_bond_atom_site_label_1
_geom_bond_atom_site_label_2
_geom_bond_distance
_geom_bond_site_symmetry_2
Mg0 O0 2.106899 1_555
Mg0 O2 2.106899 1_555
Mg0 O10 2.142418 1_555
Mg0 O10 2.142418 1_554
Mg0 O15 2.150015 1_545
Mg0 O14 2.150015 1_555
Mg1 O3 2.051624 1_555
Mg1 O1 2.051624 1_555
Mg1 O11 2.142418 1_554
Mg1 O11 2.142418 1_555
Mg1 O14 2.165394 1_555
Mg1 O15 2.165394 1_555
Mg2 O8 2.109790 1_555
Mg2 O12 2.142542 1_556
Mg2 O12 2.142542 1_555
Mg2 O6 2.145839 1_455
Mg2 O4 2.145839 1_555
Mg2 O9 2.205618 1_555
Mg3 O8 2.109790 1_565
Mg3 O13 2.142542 1_555
Mg3 O13 2.142542 1_556
Mg3 O7 2.145839 1_455
Mg3 O5 2.145839 1_555
Mg3 O9 2.205618 1_555
Mg4 O14 2.142420 1_556
Mg4 O14 2.142420 1_555
Mg4 O10 2.152652 1_555
Mg4 O11 2.162757 1_555
Mg4 O4 2.169434 1_555
Mg4 O6 2.169434 1_555
Mg5 O15 2.142420 1_556
Mg5 O15 2.142420 1_555
Mg5 O10 2.152652 1_565
Mg5 O11 2.162757 1_555
Mg5 O5 2.169434 1_555
Mg5 O7 2.169434 1_555
Mg6 O0 2.142923 1_555
Mg6 O0 2.142923 1_556
Mg6 O10 2.153385 1_555
Mg6 O8 2.161241 1_555
Mg6 O4 2.161769 1_555
Mg6 O5 2.161769 1_545
Mg7 O11 2.117436 1_555
Mg7 O1 2.143429 1_556
Mg7 O1 2.143429 1_555
Mg7 O4 2.154326 1_555
Mg7 O5 2.154326 1_555
Mg7 O9 2.197190 1_555
Mg8 O2 2.142923 1_556
Mg8 O2 2.142923 1_555
Mg8 O10 2.153385 1_555
Mg8 O8 2.161241 1_655
Mg8 O6 2.161769 1_555
Mg8 O7 2.161769 1_545
Mg9 O11 2.117436 1_555
Mg9 O3 2.143429 1_556
Mg9 O3 2.143429 1_555
Mg9 O6 2.154326 1_555
Mg9 O7 2.154326 1_555
Mg9 O9 2.197190 1_655
Mg10 O14 2.137756 1_555
Mg10 O0 2.139329 1_555
Mg10 O4 2.142772 1_554
Mg10 O4 2.142772 1_555
Mg10 O12 2.177528 1_555
Mg10 O1 2.178005 1_555
Mg11 O15 2.137756 1_555
Mg11 O0 2.139329 1_565
Mg11 O5 2.142772 1_555
Mg11 O5 2.142772 1_554
Mg11 O13 2.177528 1_555
Mg11 O1 2.178005 1_555
Mg12 O14 2.137756 1_555
Mg12 O2 2.139329 1_555
Mg12 O6 2.142772 1_555
Mg12 O6 2.142772 1_554
Mg12 O12 2.177528 1_655
Mg12 O3 2.178005 1_555
Mg13 O15 2.137756 1_555
Mg13 O2 2.139329 1_565
Mg13 O7 2.142772 1_555
Mg13 O7 2.142772 1_554
Mg13 O13 2.177528 1_655
Mg13 O3 2.178005 1_555
Nb0 O9 2.142418 1_554
Nb0 O9 2.142418 1_555
Nb0 O13 2.228681 1_555
Nb0 O12 2.228681 1_555
Nb0 O1 2.263002 1_555
Nb0 O3 2.263002 1_455
O0 Zn0 2.207727 1_555
O2 Zn0 2.207727 1_655
O8 Zn0 2.142418 1_556
O8 Zn0 2.142418 1_555
O12 Zn0 2.086728 1_555
O13 Zn0 2.086728 1_565
