# generated using pymatgen
data_Al2O3
_symmetry_space_group_name_H-M   'P 1'
_cell_length_a   10.54834370
_cell_length_b   10.40663627
_cell_length_c   9.90032148
_cell_angle_alpha   86.24352859
_cell_angle_beta   91.09527143
_cell_angle_gamma   90.85099689
_symmetry_Int_Tables_number   1
_chemical_formula_structural   Al2O3
_chemical_formula_sum   'Al40 O60'
_cell_volume   1084.15196738
_cell_formula_units_Z   20
loop_
 _symmetry_equiv_pos_site_id
 _symmetry_equiv_pos_as_xyz
  1  'x, y, z'
loop_
 _atom_site_type_symbol
 _atom_site_label
 _atom_site_symmetry_multiplicity
 _atom_site_fract_x
 _atom_site_fract_y
 _atom_site_fract_z
 _atom_site_occupancy
  Al  Al0  1  0.51102000  0.22956200  0.77627400  1
  Al  Al1  1  0.77029500  0.10385200  0.38539300  1
  Al  Al2  1  0.21844300  0.26063200  0.65416900  1
  Al  Al3  1  0.16617100  0.42840000  0.36415300  1
  Al  Al4  1  0.76928700  0.30479900  0.15633300  1
  Al  Al5  1  0.37630600  0.89467100  0.47645200  1
  Al  Al6  1  0.11446600  0.95809000  0.67137900  1
  Al  Al7  1  0.98809100  0.25893300  0.47568800  1
  Al  Al8  1  0.48781500  0.33814100  0.04675700  1
  Al  Al9  1  0.69930400  0.44417000  0.86506000  1
  Al  Al10  1  0.44570100  0.43654500  0.57572400  1
  Al  Al11  1  0.23230100  0.75448600  0.90243900  1
  Al  Al12  1  0.58500400  0.98372800  0.62857100  1
  Al  Al13  1  0.90700300  0.84302500  0.45226600  1
  Al  Al14  1  0.55804300  0.03804900  0.95242900  1
  Al  Al15  1  0.71098000  0.71666000  0.86753100  1
  Al  Al16  1  0.23602700  0.21841600  0.15234700  1
  Al  Al17  1  0.65110400  0.93415400  0.19554900  1
  Al  Al18  1  0.23976900  0.08743400  0.39285800  1
  Al  Al19  1  0.33100100  0.94189800  0.13551900  1
  Al  Al20  1  0.84457300  0.13559900  0.98688000  1
  Al  Al21  1  0.45096800  0.60686600  0.87986200  1
  Al  Al22  1  0.88904100  0.81746500  0.06175900  1
  Al  Al23  1  0.11667100  0.74082200  0.22155300  1
  Al  Al24  1  0.10696600  0.02613100  0.97241300  1
  Al  Al25  1  0.50138000  0.16950100  0.37878800  1
  Al  Al26  1  0.07233100  0.51497200  0.78667200  1
  Al  Al27  1  0.61278700  0.67471100  0.15835600  1
  Al  Al28  1  0.99401400  0.21419800  0.77493100  1
  Al  Al29  1  0.84592700  0.92581900  0.75627300  1
  Al  Al30  1  0.92859100  0.53781000  0.05124900  1
  Al  Al31  1  0.57380200  0.45756600  0.32204700  1
  Al  Al32  1  0.36251300  0.60831100  0.36224400  1
  Al  Al33  1  0.30934100  0.67476800  0.66124200  1
  Al  Al34  1  0.79930400  0.58502100  0.62517200  1
  Al  Al35  1  0.61446500  0.72612500  0.45531200  1
  Al  Al36  1  0.21988300  0.47709300  0.07065600  1
  Al  Al37  1  0.73314800  0.29160000  0.56966000  1
  Al  Al38  1  0.97120200  0.04469000  0.25144900  1
  Al  Al39  1  0.84183300  0.46110000  0.35310100  1
  O  O0  1  0.98380700  0.95727600  0.08963000  1
  O  O1  1  0.12797000  0.10798100  0.25455800  1
  O  O2  1  0.50820300  0.20109200  0.95554500  1
  O  O3  1  0.16647100  0.24716400  0.47923300  1
  O  O4  1  0.59912400  0.33886300  0.18620900  1
  O  O5  1  0.90091800  0.26472100  0.62769500  1
  O  O6  1  0.57019200  0.69754600  0.97362900  1
  O  O7  1  0.22219300  0.96438100  0.53876700  1
  O  O8  1  0.53807200  0.45585200  0.92531200  1
  O  O9  1  0.87186700  0.07897200  0.81568200  1
  O  O10  1  0.12542300  0.12211100  0.71501100  1
  O  O11  1  0.00515000  0.43010400  0.41907200  1
  O  O12  1  0.94588500  0.10619800  0.42067300  1
  O  O13  1  0.25525700  0.07670300  0.04337500  1
  O  O14  1  0.73930000  0.79623800  0.12719900  1
  O  O15  1  0.71012200  0.02731100  0.02602500  1
  O  O16  1  0.22159600  0.81549500  0.08763500  1
  O  O17  1  0.78359100  0.56549400  0.96601400  1
  O  O18  1  0.98457100  0.68463900  0.12162500  1
  O  O19  1  0.37180200  0.76930600  0.79479100  1
  O  O20  1  0.32011500  0.94188300  0.31076900  1
  O  O21  1  0.92099400  0.53897300  0.72981200  1
  O  O22  1  0.46401800  0.56275900  0.22194100  1
  O  O23  1  0.77215500  0.30220800  0.96765200  1
  O  O24  1  0.95672400  0.90056100  0.62020500  1
  O  O25  1  0.32188600  0.34202800  0.04435800  1
  O  O26  1  0.13703900  0.90240700  0.84902700  1
  O  O27  1  0.07139400  0.49782600  0.97021200  1
  O  O28  1  0.52571500  0.57261900  0.46760400  1
  O  O29  1  0.16105600  0.65889100  0.74608800  1
  O  O30  1  0.57194900  0.78916600  0.28957200  1
  O  O31  1  0.30629800  0.46383100  0.46197700  1
  O  O32  1  0.78559800  0.72395800  0.50430600  1
  O  O33  1  0.15948200  0.36525000  0.20442200  1
  O  O34  1  0.81449400  0.94293700  0.32843900  1
  O  O35  1  0.85838400  0.15861500  0.17098100  1
  O  O36  1  0.11708200  0.35922400  0.74064600  1
  O  O37  1  0.78458000  0.28539700  0.37537100  1
  O  O38  1  0.53851600  0.32749500  0.45322500  1
  O  O39  1  0.03676200  0.81888900  0.34859400  1
  O  O40  1  0.61867500  0.08107300  0.29276400  1
  O  O41  1  0.69608100  0.10928900  0.55226700  1
  O  O42  1  0.20527400  0.59756000  0.26766000  1
  O  O43  1  0.76578100  0.46337000  0.51682100  1
  O  O44  1  0.38182900  0.28949100  0.67650500  1
  O  O45  1  0.44451400  0.05968200  0.51068800  1
  O  O46  1  0.64170900  0.32974900  0.71960100  1
  O  O47  1  0.48934000  0.94149200  0.08357600  1
  O  O48  1  0.70771600  0.55982400  0.27633900  1
  O  O49  1  0.68866700  0.87394900  0.73862400  1
  O  O50  1  0.67622400  0.59801100  0.74229300  1
  O  O51  1  0.86697500  0.80132300  0.88731900  1
  O  O52  1  0.31838700  0.72577300  0.48593400  1
  O  O53  1  0.40713600  0.54301100  0.70840300  1
  O  O54  1  0.35363100  0.19374800  0.29114700  1
  O  O55  1  0.88513600  0.42760500  0.18305700  1
  O  O56  1  0.52833500  0.05890300  0.77361900  1
  O  O57  1  0.02412700  0.18089500  0.95607800  1
  O  O58  1  0.30344900  0.60212000  0.97738900  1
  O  O59  1  0.53264700  0.84294800  0.54170400  1
loop_
_geom_bond_atom_site_label_1
_geom_bond_atom_site_label_2
_geom_bond_distance
_geom_bond_site_symmetry_2
Al0 O44 1.764866 1_555
Al0 O2 1.780891 1_555
Al0 O56 1.790003 1_555
Al0 O46 1.792339 1_555
Al1 O41 1.846211 1_555
Al1 O40 1.848304 1_555
Al1 O34 1.869895 1_545
Al1 O12 1.878356 1_555
Al1 O37 1.889300 1_555
Al1 O35 2.365460 1_555
Al2 O44 1.757310 1_555
Al2 O36 1.763956 1_555
Al2 O10 1.808434 1_555
Al2 O3 1.820156 1_555
Al3 O33 1.751623 1_555
Al3 O11 1.793969 1_555
Al3 O31 1.798500 1_555
Al3 O42 1.988681 1_555
Al3 O3 2.138636 1_555
Al4 O55 1.783859 1_555
Al4 O35 1.796374 1_555
Al4 O4 1.867589 1_555
Al4 O23 1.870791 1_554
Al4 O37 2.167858 1_555
Al5 O20 1.774606 1_555
Al5 O59 1.834883 1_555
Al5 O52 1.849355 1_555
Al5 O45 1.900419 1_565
Al5 O7 1.918749 1_555
Al6 O7 1.750095 1_555
Al6 O10 1.789507 1_565
Al6 O26 1.827652 1_555
Al6 O24 1.833480 1_455
Al7 O12 1.761928 1_555
Al7 O5 1.783359 1_555
Al7 O11 1.839333 1_655
Al7 O3 1.886918 1_655
Al7 O37 2.360251 1_555
Al8 O8 1.743365 1_554
Al8 O25 1.751015 1_555
Al8 O2 1.755308 1_554
Al8 O4 1.795512 1_555
Al9 O8 1.821406 1_555
Al9 O17 1.865894 1_555
Al9 O23 1.900521 1_555
Al9 O50 1.960852 1_555
Al9 O46 2.007627 1_555
Al10 O53 1.828390 1_555
Al10 O31 1.848860 1_555
Al10 O44 1.893778 1_555
Al10 O28 1.914118 1_555
Al10 O38 1.993983 1_555
Al11 O19 1.832105 1_555
Al11 O58 1.867598 1_555
Al11 O26 1.891551 1_555
Al11 O16 1.984980 1_556
Al11 O29 2.021291 1_555
Al12 O56 1.795944 1_565
Al12 O59 1.820411 1_555
Al12 O41 1.873476 1_565
Al12 O49 1.875215 1_555
Al12 O45 2.007681 1_565
Al13 O39 1.757189 1_655
Al13 O32 1.826256 1_555
Al13 O34 1.831277 1_555
Al13 O24 1.867021 1_555
Al14 O47 1.750460 1_546
Al14 O15 1.751214 1_556
Al14 O2 1.786116 1_555
Al14 O56 1.791549 1_555
Al15 O50 1.834695 1_555
Al15 O6 1.836263 1_555
Al15 O51 1.868021 1_555
Al15 O17 1.954045 1_555
Al15 O49 2.022288 1_555
Al16 O54 1.841522 1_555
Al16 O33 1.846200 1_555
Al16 O25 1.854793 1_555
Al16 O1 1.869966 1_555
Al16 O13 1.898872 1_555
Al17 O14 1.890585 1_555
Al17 O40 1.897872 1_565
Al17 O30 1.910102 1_555
Al17 O15 1.988227 1_565
Al17 O47 2.016636 1_555
Al17 O34 2.152701 1_555
Al18 O1 1.794046 1_555
Al18 O7 1.876629 1_545
Al18 O54 1.881852 1_555
Al18 O20 1.974550 1_545
Al18 O3 2.083711 1_555
Al19 O20 1.741005 1_555
Al19 O47 1.757105 1_555
Al19 O13 1.810067 1_565
Al19 O16 1.817309 1_555
Al20 O15 1.829708 1_556
Al20 O35 1.856528 1_556
Al20 O9 1.859427 1_555
Al20 O23 1.901710 1_555
Al20 O57 1.969554 1_655
Al21 O6 1.835431 1_555
Al21 O58 1.845270 1_555
Al21 O8 1.857649 1_555
Al21 O53 1.909328 1_555
Al21 O19 2.023071 1_555
Al22 O14 1.724363 1_555
Al22 O51 1.756830 1_554
Al22 O18 1.785659 1_555
Al22 O0 1.786382 1_555
Al23 O39 1.774035 1_555
Al23 O42 1.800136 1_555
Al23 O18 1.805867 1_455
Al23 O16 1.866073 1_555
Al24 O13 1.788666 1_556
Al24 O57 1.840088 1_555
Al24 O0 1.862503 1_446
Al24 O26 1.866457 1_545
Al25 O54 1.782349 1_555
Al25 O45 1.784710 1_555
Al25 O40 1.811023 1_555
Al25 O38 1.878428 1_555
Al26 O21 1.699027 1_455
Al26 O29 1.781680 1_555
Al26 O36 1.784720 1_555
Al26 O27 1.814375 1_555
Al27 O14 1.841187 1_555
Al27 O6 1.875600 1_554
Al27 O30 1.879164 1_555
Al27 O48 1.898516 1_555
Al27 O22 2.025727 1_555
Al28 O5 1.796054 1_555
Al28 O10 1.826767 1_655
Al28 O57 1.826853 1_655
Al28 O9 1.922196 1_555
Al28 O36 1.992423 1_655
Al29 O49 1.745941 1_555
Al29 O9 1.750646 1_565
Al29 O51 1.785597 1_555
Al29 O24 1.834515 1_555
Al30 O55 1.743396 1_555
Al30 O17 1.751108 1_554
Al30 O27 1.787294 1_654
Al30 O18 1.807175 1_555
Al31 O48 1.802571 1_555
Al31 O22 1.836653 1_555
Al31 O38 1.852182 1_555
Al31 O4 1.909743 1_555
Al31 O28 2.009870 1_555
Al32 O31 1.840813 1_555
Al32 O52 1.856146 1_555
Al32 O22 1.859784 1_555
Al32 O42 1.894522 1_555
Al32 O28 2.022175 1_555
Al33 O53 1.761224 1_555
Al33 O52 1.785297 1_555
Al33 O29 1.789936 1_555
Al33 O19 1.807774 1_555
Al34 O21 1.689069 1_555
Al34 O43 1.740285 1_555
Al34 O50 1.769649 1_555
Al34 O32 1.821045 1_555
Al35 O59 1.774837 1_555
Al35 O30 1.778640 1_555
Al35 O28 1.837830 1_555
Al35 O32 1.860303 1_555
Al36 O58 1.778242 1_554
Al36 O25 1.817883 1_555
Al36 O33 1.822833 1_555
Al36 O27 1.846931 1_554
Al36 O42 2.395223 1_555
Al37 O46 1.853348 1_555
Al37 O43 1.858374 1_555
Al37 O5 1.869482 1_555
Al37 O41 1.949426 1_555
Al37 O37 2.013863 1_555
Al37 O38 2.357802 1_555
Al38 O1 1.771343 1_655
Al38 O35 1.827119 1_555
Al38 O12 1.857580 1_555
Al38 O0 1.901184 1_545
Al38 O34 2.079694 1_545
Al39 O55 1.809780 1_555
Al39 O43 1.823914 1_555
Al39 O11 1.855881 1_655
Al39 O48 1.879959 1_555
Al39 O37 1.917324 1_555
