# generated using pymatgen
data_Eu3P4
_symmetry_space_group_name_H-M   'P 1'
_cell_length_a   5.65398123
_cell_length_b   7.54515873
_cell_length_c   8.90013437
_cell_angle_alpha   83.16702587
_cell_angle_beta   71.48122136
_cell_angle_gamma   67.99964428
_symmetry_Int_Tables_number   1
_chemical_formula_structural   Eu3P4
_chemical_formula_sum   'Eu6 P8'
_cell_volume   333.80513200
_cell_formula_units_Z   2
loop_
 _symmetry_equiv_pos_site_id
 _symmetry_equiv_pos_as_xyz
  1  'x, y, z'
loop_
 _atom_site_type_symbol
 _atom_site_label
 _atom_site_symmetry_multiplicity
 _atom_site_fract_x
 _atom_site_fract_y
 _atom_site_fract_z
 _atom_site_occupancy
  Eu  Eu0  1  0.00665008  0.50000281  0.50001300  1
  Eu  Eu1  1  0.25667784  -0.00001283  0.00000827  1
  Eu  Eu2  1  0.58267587  0.99711079  0.33406326  1
  Eu  Eu3  1  0.91377348  0.00285626  0.66593634  1
  Eu  Eu4  1  0.32976373  0.50286876  0.83405412  1
  Eu  Eu5  1  0.66673170  0.49711141  0.16597826  1
  P  P0  1  0.33486787  0.17709609  0.65753897  1
  P  P1  1  0.16946668  0.82300103  0.34239725  1
  P  P2  1  0.26209526  0.32299281  0.15750805  1
  P  P3  1  0.74238797  0.67694967  0.84248822  1
  P  P4  1  0.42102124  0.66713624  0.49870553  1
  P  P5  1  0.58685299  0.33294330  0.50136456  1
  P  P6  1  0.83813733  0.83291519  -0.00134189  1
  P  P7  1  0.66985697  0.16703247  0.00129006  1
loop_
_geom_bond_atom_site_label_1
_geom_bond_atom_site_label_2
_geom_bond_distance
_geom_bond_site_symmetry_2
Eu0 P0 2.966106 1_555
Eu0 P1 2.966761 1_555
Eu0 P4 3.045003 1_555
Eu0 P5 3.045292 1_555
Eu0 P5 3.072847 1_455
Eu0 P4 3.073530 1_455
Eu0 P3 3.144273 1_455
Eu0 P2 3.144665 1_555
Eu1 P3 2.966535 1_544
Eu1 P2 2.966750 1_555
Eu1 P6 3.044801 1_545
Eu1 P7 3.045070 1_555
Eu1 P7 3.072989 1_455
Eu1 P6 3.073406 1_445
Eu1 P1 3.143728 1_545
Eu1 P0 3.144689 1_554
Eu2 P0 3.006360 1_565
Eu2 P4 3.027754 1_555
Eu2 P7 3.049772 1_565
Eu2 P6 3.054929 1_555
Eu2 P2 3.057967 1_565
Eu2 P1 3.058704 1_555
Eu2 P5 3.098928 1_565
Eu2 P1 3.099376 1_655
Eu3 P1 3.006470 1_645
Eu3 P5 3.027793 1_555
Eu3 P6 3.049425 1_546
Eu3 P7 3.054485 1_556
Eu3 P3 3.058341 1_545
Eu3 P0 3.058645 1_555
Eu3 P4 3.098312 1_645
Eu3 P0 3.100180 1_655
Eu4 P2 3.005902 1_556
Eu4 P6 3.028066 1_456
Eu4 P5 3.049117 1_555
Eu4 P4 3.054696 1_555
Eu4 P0 3.057386 1_555
Eu4 P3 3.058906 1_455
Eu4 P7 3.098994 1_556
Eu4 P3 3.099052 1_555
Eu5 P3 3.006056 1_554
Eu5 P7 3.028285 1_555
Eu5 P4 3.049672 1_555
Eu5 P5 3.054730 1_555
Eu5 P2 3.057890 1_555
Eu5 P1 3.057953 1_555
Eu5 P6 3.098637 1_555
Eu5 P2 3.100293 1_655
P0 P5 2.225506 1_555
P1 P4 2.226134 1_555
P2 P7 2.225658 1_555
P3 P6 2.225828 1_556
P4 P5 2.338032 1_555
P6 P7 2.337500 1_565
