# generated using pymatgen
data_TaAlSi
_symmetry_space_group_name_H-M   'P 1'
_cell_length_a   4.89372510
_cell_length_b   4.89372510
_cell_length_c   6.77443200
_cell_angle_alpha   90.00000000
_cell_angle_beta   90.00000000
_cell_angle_gamma   119.99998788
_symmetry_Int_Tables_number   1
_chemical_formula_structural   TaAlSi
_chemical_formula_sum   'Ta3 Al3 Si3'
_cell_volume   140.50206669
_cell_formula_units_Z   3
loop_
 _symmetry_equiv_pos_site_id
 _symmetry_equiv_pos_as_xyz
  1  'x, y, z'
loop_
 _atom_site_type_symbol
 _atom_site_label
 _atom_site_symmetry_multiplicity
 _atom_site_fract_x
 _atom_site_fract_y
 _atom_site_fract_z
 _atom_site_occupancy
  Ta  Ta0  1  0.02961200  0.51480600  0.50000000  1
  Ta  Ta1  1  0.48519400  0.51480600  0.16666700  1
  Ta  Ta2  1  0.48519400  0.97038800  0.83333300  1
  Al  Al0  1  0.33729100  0.16864600  0.50000000  1
  Al  Al1  1  0.83135400  0.16864600  0.16666700  1
  Al  Al2  1  0.83135400  0.66270900  0.83333300  1
  Si  Si0  1  0.68324200  0.84162100  0.50000000  1
  Si  Si1  1  0.15837900  0.84162100  0.16666700  1
  Si  Si2  1  0.15837900  0.31675800  0.83333300  1
loop_
_geom_bond_atom_site_label_1
_geom_bond_atom_site_label_2
_geom_bond_distance
_geom_bond_site_symmetry_2
Al0 Si2 2.650615 1_555
Al0 Si1 2.650617 1_545
Al0 Ta1 2.695671 1_555
Al0 Ta2 2.695673 1_545
Al0 Si0 2.771919 1_445
Al0 Ta0 2.772628 1_555
Al0 Ta0 2.772633 1_545
Al0 Si0 2.852505 1_555
Al0 Si0 2.852509 1_545
Al0 Ta0 2.934119 1_655
Al1 Si0 2.650618 1_545
Al1 Si2 2.650623 1_654
Al1 Ta0 2.695671 1_655
Al1 Ta2 2.695677 1_544
Al1 Si1 2.771923 1_645
Al1 Ta1 2.772632 1_655
Al1 Ta1 2.772632 1_545
Al1 Si1 2.852505 1_655
Al1 Si1 2.852505 1_545
Al1 Ta1 2.934114 1_555
Al2 Si0 2.650615 1_555
Al2 Si1 2.650623 1_656
Al2 Ta0 2.695673 1_655
Al2 Ta1 2.695677 1_556
Al2 Si2 2.771919 1_665
Al2 Ta2 2.772628 1_555
Al2 Ta2 2.772633 1_655
Al2 Si2 2.852505 1_555
Al2 Si2 2.852509 1_655
Al2 Ta2 2.934119 1_545
Si0 Ta2 2.654499 1_555
Si0 Ta1 2.654499 1_555
Si0 Ta0 2.770143 1_555
Si0 Ta0 2.853420 1_655
Si0 Ta0 2.853420 1_665
Si1 Ta0 2.654499 1_555
Si1 Ta2 2.654505 1_554
Si1 Ta1 2.770143 1_555
Si1 Ta1 2.853420 1_455
Si1 Ta1 2.853420 1_565
Si2 Ta0 2.654499 1_555
Si2 Ta1 2.654505 1_556
Si2 Ta2 2.770143 1_555
Si2 Ta2 2.853420 1_545
Si2 Ta2 2.853420 1_445
