# generated using pymatgen
data_Li2FeSiO5
_symmetry_space_group_name_H-M   'P 1'
_cell_length_a   4.51040003
_cell_length_b   6.36383100
_cell_length_c   13.03491008
_cell_angle_alpha   90.00165906
_cell_angle_beta   90.01256874
_cell_angle_gamma   90.00018787
_symmetry_Int_Tables_number   1
_chemical_formula_structural   Li2FeSiO5
_chemical_formula_sum   'Li8 Fe4 Si4 O20'
_cell_volume   374.14653538
_cell_formula_units_Z   4
loop_
 _symmetry_equiv_pos_site_id
 _symmetry_equiv_pos_as_xyz
  1  'x, y, z'
loop_
 _atom_site_type_symbol
 _atom_site_label
 _atom_site_symmetry_multiplicity
 _atom_site_fract_x
 _atom_site_fract_y
 _atom_site_fract_z
 _atom_site_occupancy
  Li  Li0  1  0.99998100  0.00022300  0.00003600  1
  Li  Li1  1  0.00007300  0.99983700  0.49997000  1
  Li  Li2  1  0.00008900  0.00003800  0.24998500  1
  Li  Li3  1  0.00000000  0.99995500  0.74998500  1
  Li  Li4  1  0.00009400  0.49995300  0.24998600  1
  Li  Li5  1  0.00000800  0.50003900  0.74998600  1
  Li  Li6  1  0.99999600  0.49977100  0.00003600  1
  Li  Li7  1  0.00007100  0.50015600  0.49996700  1
  Fe  Fe0  1  0.60139700  0.25000200  0.62503000  1
  Fe  Fe1  1  0.39860700  0.75000500  0.87498600  1
  Fe  Fe2  1  0.60109600  0.25001400  0.12501900  1
  Fe  Fe3  1  0.39864500  0.74998800  0.37495500  1
  Si  Si0  1  0.52482100  0.24999900  0.37502200  1
  Si  Si1  1  0.52474000  0.25000500  0.87498100  1
  Si  Si2  1  0.47521300  0.75000500  0.12497600  1
  Si  Si3  1  0.47521600  0.75000000  0.62502900  1
  O  O0  1  0.21380500  0.24996900  0.12475700  1
  O  O1  1  0.21427200  0.24996100  0.62486000  1
  O  O2  1  0.78612600  0.75002800  0.37523800  1
  O  O3  1  0.78577000  0.75004500  0.87513200  1
  O  O4  1  0.29845000  0.04546100  0.37497200  1
  O  O5  1  0.29821900  0.04557400  0.87489800  1
  O  O6  1  0.73607100  0.24998000  0.27322900  1
  O  O7  1  0.73592100  0.24998800  0.77310200  1
  O  O8  1  0.73569200  0.25002700  0.47698800  1
  O  O9  1  0.73574900  0.25003400  0.97684300  1
  O  O10  1  0.29840700  0.45451900  0.37495200  1
  O  O11  1  0.29816900  0.45440700  0.87486900  1
  O  O12  1  0.70162700  0.54548500  0.12503600  1
  O  O13  1  0.70180300  0.54559700  0.62514000  1
  O  O14  1  0.26433800  0.74996900  0.02301100  1
  O  O15  1  0.26414200  0.74996300  0.52317700  1
  O  O16  1  0.26392200  0.75001200  0.22678000  1
  O  O17  1  0.26415500  0.75001300  0.72693800  1
  O  O18  1  0.70157700  0.95454500  0.12501700  1
  O  O19  1  0.70174200  0.95443700  0.62511000  1
loop_
_geom_bond_atom_site_label_1
_geom_bond_atom_site_label_2
_geom_bond_distance
_geom_bond_site_symmetry_2
Li0 O9 2.009718 1_554
Li0 O14 2.011859 1_645
Li0 O18 2.133310 1_545
Li0 O5 2.134118 1_654
Li0 O0 2.469469 1_655
Li0 O3 2.473490 1_544
Li1 O15 2.009627 1_555
Li1 O8 2.011614 1_465
Li1 O4 2.133355 1_565
Li1 O19 2.134445 1_455
Li1 O2 2.470038 1_455
Li1 O1 2.473127 1_565
Li2 O16 2.009823 1_545
Li2 O6 2.009971 1_455
Li2 O4 2.132563 1_555
Li2 O18 2.132864 1_445
Li2 O0 2.474730 1_555
Li2 O2 2.475703 1_445
Li3 O17 2.009951 1_555
Li3 O7 2.010343 1_465
Li3 O19 2.131236 1_455
Li3 O5 2.131591 1_565
Li3 O3 2.474852 1_455
Li3 O1 2.475130 1_565
Li4 O16 2.009986 1_555
Li4 O6 2.010146 1_455
Li4 O10 2.132240 1_555
Li4 O12 2.132604 1_455
Li4 O0 2.474890 1_555
Li4 O2 2.475912 1_455
Li5 O17 2.010101 1_555
Li5 O7 2.010461 1_455
Li5 O13 2.130846 1_455
Li5 O11 2.131153 1_555
Li5 O3 2.475194 1_455
Li5 O1 2.475362 1_555
Li6 O9 2.009366 1_554
Li6 O14 2.011516 1_655
Li6 O12 2.133419 1_555
Li6 O11 2.134222 1_654
Li6 O0 2.469736 1_655
Li6 O3 2.473974 1_554
Li7 O15 2.009281 1_555
Li7 O8 2.011276 1_455
Li7 O10 2.133407 1_555
Li7 O13 2.134619 1_455
Li7 O2 2.470331 1_455
Li7 O1 2.473512 1_555
Fe0 O1 1.746090 1_555
Fe0 O19 1.934614 1_545
Fe0 O13 1.934861 1_555
Fe0 O8 2.022674 1_555
Fe0 O7 2.023103 1_555
Fe1 O3 1.746261 1_555
Fe1 O5 1.934684 1_565
Fe1 O11 1.934914 1_555
Fe1 O14 2.022428 1_556
Fe1 O17 2.022707 1_555
Fe2 O0 1.746840 1_555
Fe2 O18 1.934163 1_545
Fe2 O12 1.934226 1_555
Fe2 O9 2.024825 1_554
Fe2 O6 2.025429 1_555
Fe3 O2 1.747697 1_555
Fe3 O4 1.933886 1_565
Fe3 O10 1.933904 1_555
Fe3 O16 2.024653 1_555
Fe3 O15 2.025194 1_555
O4 Si0 1.654316 1_555
O5 Si1 1.654198 1_555
O6 Si0 1.633704 1_555
O7 Si1 1.634433 1_555
O8 Si0 1.634201 1_555
O9 Si1 1.633462 1_555
O10 Si0 1.654351 1_555
O11 Si1 1.654198 1_555
O12 Si2 1.654351 1_555
O13 Si3 1.654248 1_555
O14 Si2 1.634201 1_555
O15 Si3 1.633527 1_555
O16 Si2 1.633928 1_555
O17 Si3 1.634436 1_555
O18 Si2 1.654306 1_555
O19 Si3 1.654242 1_555
