# generated using pymatgen
data_Na4ZnSe3
_symmetry_space_group_name_H-M   'P 1'
_cell_length_a   7.85234327
_cell_length_b   7.85234327
_cell_length_c   9.99901420
_cell_angle_alpha   69.87727792
_cell_angle_beta   69.87727792
_cell_angle_gamma   55.58874912
_symmetry_Int_Tables_number   1
_chemical_formula_structural   Na4ZnSe3
_chemical_formula_sum   'Na8 Zn2 Se6'
_cell_volume   468.60022163
_cell_formula_units_Z   2
loop_
 _symmetry_equiv_pos_site_id
 _symmetry_equiv_pos_as_xyz
  1  'x, y, z'
loop_
 _atom_site_type_symbol
 _atom_site_label
 _atom_site_symmetry_multiplicity
 _atom_site_fract_x
 _atom_site_fract_y
 _atom_site_fract_z
 _atom_site_occupancy
  Na  Na0  1  0.23490000  0.80677600  0.60008000  1
  Na  Na1  1  0.60353300  0.26868900  0.79043600  1
  Na  Na2  1  0.26868900  0.60353300  0.29043600  1
  Na  Na3  1  0.80677600  0.23490000  0.10008000  1
  Na  Na4  1  0.77066900  0.45681500  0.37766600  1
  Na  Na5  1  0.04766400  0.37588700  0.69487900  1
  Na  Na6  1  0.45681500  0.77066900  0.87766600  1
  Na  Na7  1  0.37588700  0.04766400  0.19487900  1
  Zn  Zn0  1  0.00243000  0.70245500  0.00198800  1
  Zn  Zn1  1  0.70245500  0.00243000  0.50198800  1
  Se  Se0  1  0.01226200  0.01674600  0.85509400  1
  Se  Se1  1  0.01674600  0.01226200  0.35509400  1
  Se  Se2  1  0.43199400  0.34963800  0.55149600  1
  Se  Se3  1  0.34963800  0.43199400  0.05149600  1
  Se  Se4  1  0.67172800  0.69522100  0.58449500  1
  Se  Se5  1  0.69522100  0.67172800  0.08449500  1
loop_
_geom_bond_atom_site_label_1
_geom_bond_atom_site_label_2
_geom_bond_distance
_geom_bond_site_symmetry_2
Na0 Se1 2.929537 1_565
Na0 Se0 2.973929 1_565
Na0 Se4 2.981178 1_555
Na0 Se2 3.149590 1_555
Na1 Se0 2.829087 1_655
Na1 Se2 2.850993 1_555
Na1 Se3 2.875029 1_556
Na2 Se1 2.829087 1_565
Na2 Se3 2.850993 1_555
Na2 Se2 2.875029 1_555
Na3 Se0 2.929537 1_654
Na3 Se1 2.973929 1_655
Na3 Se5 2.981178 1_555
Na3 Se3 3.149590 1_555
Na4 Se4 2.880903 1_555
Na4 Se5 2.907441 1_555
Na4 Se1 2.930606 1_655
Na4 Se2 3.023972 1_555
Na5 Se2 2.780076 1_555
Na5 Se0 2.840378 1_555
Na5 Se4 2.862038 1_455
Na6 Se5 2.880903 1_556
Na6 Se4 2.907441 1_555
Na6 Se0 2.930606 1_565
Na6 Se3 3.023972 1_556
Na7 Se3 2.780076 1_555
Na7 Se1 2.840378 1_555
Na7 Se5 2.862038 1_545
Se0 Zn0 2.428402 1_546
Se1 Zn1 2.428402 1_455
Se2 Zn1 2.418569 1_555
Se3 Zn0 2.418569 1_555
Se4 Zn1 2.389481 1_565
Se5 Zn0 2.389481 1_655
