# generated using pymatgen
data_Tm2CdGe2
_symmetry_space_group_name_H-M   'P 1'
_cell_length_a   7.21596434
_cell_length_b   7.21596434
_cell_length_c   4.10272097
_cell_angle_alpha   90.00000000
_cell_angle_beta   90.00000000
_cell_angle_gamma   90.00000000
_symmetry_Int_Tables_number   1
_chemical_formula_structural   Tm2CdGe2
_chemical_formula_sum   'Tm4 Cd2 Ge4'
_cell_volume   213.62926085
_cell_formula_units_Z   2
loop_
 _symmetry_equiv_pos_site_id
 _symmetry_equiv_pos_as_xyz
  1  'x, y, z'
loop_
 _atom_site_type_symbol
 _atom_site_label
 _atom_site_symmetry_multiplicity
 _atom_site_fract_x
 _atom_site_fract_y
 _atom_site_fract_z
 _atom_site_occupancy
  Tm  Tm0  1  0.67808595  0.17808595  0.50000000  1
  Tm  Tm1  1  0.32191405  0.82191405  0.50000000  1
  Tm  Tm2  1  0.17808595  0.32191405  0.50000000  1
  Tm  Tm3  1  0.82191405  0.67808595  0.50000000  1
  Cd  Cd0  1  0.50000000  0.50000000  0.00000000  1
  Cd  Cd1  1  -0.00000000  -0.00000000  0.00000000  1
  Ge  Ge0  1  0.12190925  0.62190925  -0.00000000  1
  Ge  Ge1  1  0.87809075  0.37809075  0.00000000  1
  Ge  Ge2  1  0.62190925  0.87809075  -0.00000000  1
  Ge  Ge3  1  0.37809075  0.12190925  0.00000000  1
loop_
_geom_bond_atom_site_label_1
_geom_bond_atom_site_label_2
_geom_bond_distance
_geom_bond_site_symmetry_2
Cd0 Ge0 2.866605 1_555
Cd0 Ge2 2.866605 1_555
Cd0 Ge3 2.866605 1_555
Cd0 Ge1 2.866605 1_555
Cd0 Tm2 3.354910 1_554
Cd0 Tm2 3.354910 1_555
Cd0 Tm0 3.354910 1_555
Cd0 Tm0 3.354910 1_554
Cd0 Tm3 3.354910 1_554
Cd0 Tm3 3.354910 1_555
Cd0 Tm1 3.354910 1_554
Cd0 Tm1 3.354910 1_555
Cd1 Ge1 2.866605 1_455
Cd1 Ge3 2.866605 1_555
Cd1 Ge0 2.866605 1_545
Cd1 Ge2 2.866605 1_445
Cd1 Tm3 3.354910 1_444
Cd1 Tm3 3.354910 1_445
Cd1 Tm1 3.354910 1_544
Cd1 Tm2 3.354910 1_554
Cd1 Tm0 3.354910 1_455
Cd1 Tm1 3.354910 1_545
Cd1 Tm2 3.354910 1_555
Cd1 Tm0 3.354910 1_454
Ge0 Ge1 2.488147 1_455
Ge0 Tm1 2.893768 1_554
Ge0 Tm1 2.893768 1_555
Ge0 Tm3 3.009745 1_454
Ge0 Tm3 3.009745 1_455
Ge0 Tm2 3.009745 1_554
Ge0 Tm2 3.009745 1_555
Ge1 Tm0 2.893768 1_555
Ge1 Tm0 2.893768 1_554
Ge1 Tm2 3.009745 1_654
Ge1 Tm3 3.009745 1_555
Ge1 Tm3 3.009745 1_554
Ge1 Tm2 3.009745 1_655
Ge2 Ge3 2.488147 1_565
Ge2 Tm3 2.893768 1_554
Ge2 Tm3 2.893768 1_555
Ge2 Tm1 3.009745 1_555
Ge2 Tm1 3.009745 1_554
Ge2 Tm0 3.009745 1_565
Ge2 Tm0 3.009745 1_564
Ge3 Tm2 2.893768 1_555
Ge3 Tm2 2.893768 1_554
Ge3 Tm1 3.009745 1_544
Ge3 Tm1 3.009745 1_545
Ge3 Tm0 3.009745 1_554
Ge3 Tm0 3.009745 1_555
