# generated using pymatgen
data_Dy2Ni17
_symmetry_space_group_name_H-M   'P 1'
_cell_length_a   8.20446937
_cell_length_b   8.20412769
_cell_length_c   7.93498851
_cell_angle_alpha   89.99999734
_cell_angle_beta   90.00008236
_cell_angle_gamma   119.99861758
_symmetry_Int_Tables_number   1
_chemical_formula_structural   Dy2Ni17
_chemical_formula_sum   'Dy4 Ni34'
_cell_volume   462.55767605
_cell_formula_units_Z   2
loop_
 _symmetry_equiv_pos_site_id
 _symmetry_equiv_pos_as_xyz
  1  'x, y, z'
loop_
 _atom_site_type_symbol
 _atom_site_label
 _atom_site_symmetry_multiplicity
 _atom_site_fract_x
 _atom_site_fract_y
 _atom_site_fract_z
 _atom_site_occupancy
  Dy  Dy0  1  0.00000049  0.00000075  0.25002811  1
  Dy  Dy1  1  -0.00000049  -0.00000075  0.74997189  1
  Dy  Dy2  1  0.33332027  0.66666063  0.75003166  1
  Dy  Dy3  1  0.66667973  0.33333937  0.24996834  1
  Ni  Ni0  1  0.33333226  0.66666663  0.39728210  1
  Ni  Ni1  1  0.66666774  0.33333337  0.60271790  1
  Ni  Ni2  1  0.66666515  0.33333157  0.89706572  1
  Ni  Ni3  1  0.33333485  0.66666843  0.10293428  1
  Ni  Ni4  1  0.50000000  0.50000000  0.50000000  1
  Ni  Ni5  1  0.50000000  0.00000000  0.50000000  1
  Ni  Ni6  1  -0.00000000  0.50000000  0.50000000  1
  Ni  Ni7  1  0.50000000  0.50000000  0.00000000  1
  Ni  Ni8  1  0.50000000  0.00000000  0.00000000  1
  Ni  Ni9  1  -0.00000000  0.50000000  0.00000000  1
  Ni  Ni10  1  0.32784097  0.37237485  0.24998752  1
  Ni  Ni11  1  0.62763167  0.95547305  0.24998746  1
  Ni  Ni12  1  0.04452279  0.67216799  0.24998717  1
  Ni  Ni13  1  0.62763267  0.67215962  0.24998746  1
  Ni  Ni14  1  0.04452279  0.37235380  0.24998717  1
  Ni  Ni15  1  0.32784097  0.95546612  0.24998752  1
  Ni  Ni16  1  0.67215903  0.62762515  0.75001248  1
  Ni  Ni17  1  0.37236833  0.04452695  0.75001254  1
  Ni  Ni18  1  0.95547721  0.32783201  0.75001283  1
  Ni  Ni19  1  0.37236733  0.32784038  0.75001254  1
  Ni  Ni20  1  0.95547721  0.62764620  0.75001283  1
  Ni  Ni21  1  0.67215903  0.04453388  0.75001248  1
  Ni  Ni22  1  0.16554209  0.83445871  0.52061390  1
  Ni  Ni23  1  0.16554209  0.33108338  0.52061390  1
  Ni  Ni24  1  0.66891168  0.83445634  0.52060956  1
  Ni  Ni25  1  0.83445791  0.16554129  0.47938610  1
  Ni  Ni26  1  0.83445791  0.66891662  0.47938610  1
  Ni  Ni27  1  0.33108832  0.16554366  0.47939044  1
  Ni  Ni28  1  0.83443881  0.16555998  0.02056430  1
  Ni  Ni29  1  0.83443881  0.66887883  0.02056430  1
  Ni  Ni30  1  0.33112662  0.16556331  0.02055906  1
  Ni  Ni31  1  0.16556119  0.83444002  0.97943570  1
  Ni  Ni32  1  0.16556119  0.33112117  0.97943570  1
  Ni  Ni33  1  0.66887338  0.83443669  0.97944094  1
loop_
_geom_bond_atom_site_label_1
_geom_bond_atom_site_label_2
_geom_bond_distance
_geom_bond_site_symmetry_2
Dy0 Ni14 2.889568 1_555
Dy0 Ni12 2.889584 1_545
Dy0 Ni10 2.889804 1_555
Dy0 Ni13 2.889806 1_445
Dy0 Ni15 2.889809 1_545
Dy0 Ni11 2.889811 1_445
Dy0 Ni25 2.974205 1_455
Dy0 Ni26 2.974210 1_445
Dy0 Ni27 2.974326 1_555
Dy0 Ni28 2.974928 1_455
Dy0 Ni29 2.974934 1_445
Dy0 Ni30 2.975064 1_555
Dy0 Ni23 3.184910 1_555
Dy0 Ni22 3.184915 1_545
Dy0 Ni24 3.184995 1_445
Dy0 Ni32 3.185146 1_554
Dy0 Ni31 3.185151 1_544
Dy0 Ni33 3.185222 1_444
Dy1 Ni20 2.889568 1_445
Dy1 Ni18 2.889584 1_455
Dy1 Ni16 2.889804 1_445
Dy1 Ni19 2.889806 1_555
Dy1 Ni21 2.889809 1_455
Dy1 Ni17 2.889811 1_555
Dy1 Ni22 2.974205 1_545
Dy1 Ni23 2.974210 1_555
Dy1 Ni24 2.974326 1_445
Dy1 Ni31 2.974928 1_545
Dy1 Ni32 2.974934 1_555
Dy1 Ni33 2.975064 1_445
Dy1 Ni26 3.184910 1_445
Dy1 Ni25 3.184915 1_455
Dy1 Ni27 3.184995 1_555
Dy1 Ni29 3.185146 1_446
Dy1 Ni28 3.185151 1_456
Dy1 Ni30 3.185222 1_556
Dy2 Ni0 2.799064 1_555
Dy2 Ni3 2.800278 1_556
Dy2 Ni17 2.952949 1_565
Dy2 Ni19 2.952961 1_555
Dy2 Ni20 2.953008 1_455
Dy2 Ni18 2.953008 1_455
Dy2 Ni21 2.953160 1_565
Dy2 Ni16 2.953164 1_555
Dy2 Ni31 2.999526 1_555
Dy2 Ni32 2.999532 1_555
Dy2 Ni33 2.999709 1_555
Dy2 Ni22 2.999803 1_555
Dy2 Ni23 2.999809 1_555
Dy2 Ni24 2.999992 1_555
Dy2 Ni9 3.089244 1_556
Dy2 Ni8 3.089269 1_566
Dy2 Ni7 3.089274 1_556
Dy2 Ni6 3.089562 1_555
Dy2 Ni5 3.089594 1_565
Dy2 Ni4 3.089600 1_555
Dy3 Ni1 2.799064 1_555
Dy3 Ni2 2.800278 1_554
Dy3 Ni11 2.952949 1_545
Dy3 Ni13 2.952961 1_555
Dy3 Ni14 2.953008 1_655
Dy3 Ni12 2.953008 1_655
Dy3 Ni15 2.953160 1_545
Dy3 Ni10 2.953164 1_555
Dy3 Ni28 2.999526 1_555
Dy3 Ni29 2.999532 1_555
Dy3 Ni30 2.999709 1_555
Dy3 Ni25 2.999803 1_555
Dy3 Ni26 2.999809 1_555
Dy3 Ni27 2.999992 1_555
Dy3 Ni9 3.089244 1_655
Dy3 Ni8 3.089269 1_555
Dy3 Ni7 3.089274 1_555
Dy3 Ni6 3.089562 1_655
Dy3 Ni5 3.089594 1_555
Dy3 Ni4 3.089600 1_555
Ni0 Ni3 2.335647 1_555
Ni0 Ni5 2.504688 1_565
Ni0 Ni4 2.504694 1_555
Ni0 Ni6 2.504776 1_555
Ni0 Ni22 2.577364 1_555
Ni0 Ni23 2.577371 1_555
Ni0 Ni24 2.577422 1_555
Ni0 Ni15 2.662448 1_555
Ni0 Ni10 2.662455 1_555
Ni0 Ni11 2.662599 1_555
Ni0 Ni13 2.662606 1_555
Ni0 Ni12 2.662647 1_555
Ni0 Ni14 2.662655 1_555
Ni1 Ni2 2.335647 1_555
Ni1 Ni5 2.504688 1_555
Ni1 Ni4 2.504694 1_555
Ni1 Ni6 2.504776 1_655
Ni1 Ni25 2.577364 1_555
Ni1 Ni26 2.577371 1_555
Ni1 Ni27 2.577422 1_555
Ni1 Ni21 2.662448 1_555
Ni1 Ni16 2.662455 1_555
Ni1 Ni17 2.662599 1_555
Ni1 Ni19 2.662606 1_555
Ni1 Ni18 2.662647 1_555
Ni1 Ni20 2.662655 1_555
Ni2 Ni8 2.505236 1_556
Ni2 Ni7 2.505250 1_556
Ni2 Ni9 2.505350 1_656
Ni2 Ni28 2.577622 1_556
Ni2 Ni29 2.577636 1_556
Ni2 Ni30 2.577657 1_556
Ni2 Ni21 2.661605 1_555
Ni2 Ni20 2.661832 1_555
Ni3 Ni8 2.505236 1_565
Ni3 Ni7 2.505250 1_555
Ni3 Ni9 2.505350 1_555
Ni3 Ni31 2.577622 1_554
Ni3 Ni32 2.577636 1_554
Ni3 Ni33 2.577657 1_554
Ni10 Ni14 2.324389 1_555
Ni10 Ni7 2.355291 1_555
Ni10 Ni4 2.355455 1_555
Ni10 Ni32 2.458755 1_554
Ni10 Ni23 2.459308 1_555
Ni10 Ni13 2.459604 1_555
Ni10 Ni27 2.497761 1_555
Ni10 Ni30 2.497909 1_555
Ni10 Ni3 2.661619 1_555
Ni11 Ni13 2.324344 1_555
Ni11 Ni8 2.355278 1_565
Ni11 Ni5 2.355448 1_565
Ni11 Ni33 2.458699 1_554
Ni11 Ni24 2.459252 1_555
Ni11 Ni15 2.459595 1_555
Ni11 Ni25 2.497739 1_565
Ni11 Ni28 2.497886 1_565
Ni11 Ni3 2.661739 1_555
Ni12 Ni15 2.324393 1_555
Ni12 Ni9 2.355305 1_555
Ni12 Ni6 2.355478 1_555
Ni12 Ni31 2.458734 1_554
Ni12 Ni22 2.459285 1_555
Ni12 Ni14 2.459714 1_555
Ni12 Ni26 2.497702 1_455
Ni12 Ni29 2.497840 1_455
Ni12 Ni3 2.661820 1_555
Ni13 Ni7 2.355283 1_555
Ni13 Ni4 2.355453 1_555
Ni13 Ni33 2.458696 1_554
Ni13 Ni24 2.459254 1_555
Ni13 Ni26 2.497737 1_555
Ni13 Ni29 2.497883 1_555
Ni13 Ni3 2.661750 1_555
Ni14 Ni9 2.355309 1_555
Ni14 Ni6 2.355482 1_555
Ni14 Ni32 2.458732 1_554
Ni14 Ni23 2.459282 1_555
Ni14 Ni25 2.497699 1_455
Ni14 Ni28 2.497837 1_455
Ni14 Ni3 2.661832 1_555
Ni15 Ni8 2.355291 1_565
Ni15 Ni5 2.355455 1_565
Ni15 Ni31 2.458755 1_554
Ni15 Ni22 2.459308 1_555
Ni15 Ni27 2.497755 1_565
Ni15 Ni30 2.497908 1_565
Ni15 Ni3 2.661605 1_555
Ni16 Ni20 2.324389 1_555
Ni16 Ni7 2.355291 1_556
Ni16 Ni4 2.355455 1_555
Ni16 Ni29 2.458755 1_556
Ni16 Ni26 2.459308 1_555
Ni16 Ni19 2.459604 1_555
Ni16 Ni24 2.497761 1_555
Ni16 Ni33 2.497909 1_555
Ni16 Ni2 2.661619 1_555
Ni17 Ni19 2.324344 1_555
Ni17 Ni8 2.355278 1_556
Ni17 Ni5 2.355448 1_555
Ni17 Ni30 2.458699 1_556
Ni17 Ni27 2.459252 1_555
Ni17 Ni21 2.459595 1_555
Ni17 Ni22 2.497739 1_545
Ni17 Ni31 2.497886 1_545
Ni17 Ni2 2.661739 1_555
Ni18 Ni21 2.324393 1_555
Ni18 Ni9 2.355305 1_656
Ni18 Ni6 2.355478 1_655
Ni18 Ni28 2.458734 1_556
Ni18 Ni25 2.459285 1_555
Ni18 Ni20 2.459714 1_555
Ni18 Ni23 2.497702 1_655
Ni18 Ni32 2.497840 1_655
Ni18 Ni2 2.661820 1_555
Ni19 Ni7 2.355283 1_556
Ni19 Ni4 2.355453 1_555
Ni19 Ni30 2.458696 1_556
Ni19 Ni27 2.459254 1_555
Ni19 Ni23 2.497737 1_555
Ni19 Ni32 2.497883 1_555
Ni19 Ni2 2.661750 1_555
Ni20 Ni9 2.355309 1_656
Ni20 Ni6 2.355482 1_655
Ni20 Ni29 2.458732 1_556
Ni20 Ni26 2.459282 1_555
Ni20 Ni22 2.497699 1_655
Ni20 Ni31 2.497837 1_655
Ni21 Ni8 2.355291 1_556
Ni21 Ni5 2.355455 1_555
Ni21 Ni28 2.458755 1_556
Ni21 Ni25 2.459308 1_555
Ni21 Ni24 2.497755 1_545
Ni21 Ni33 2.497908 1_545
Ni22 Ni27 2.375020 1_565
Ni22 Ni26 2.375115 1_455
Ni22 Ni6 2.382019 1_555
Ni22 Ni5 2.382113 1_565
Ni23 Ni27 2.375027 1_555
Ni23 Ni25 2.375115 1_455
Ni23 Ni6 2.382019 1_555
Ni23 Ni4 2.382113 1_555
Ni24 Ni25 2.375020 1_565
Ni24 Ni26 2.375027 1_555
Ni24 Ni5 2.381994 1_565
Ni24 Ni4 2.382001 1_555
Ni25 Ni6 2.382019 1_655
Ni25 Ni5 2.382113 1_555
Ni26 Ni6 2.382019 1_655
Ni26 Ni4 2.382113 1_555
Ni27 Ni5 2.381994 1_555
Ni27 Ni4 2.382001 1_555
Ni28 Ni33 2.375180 1_544
Ni28 Ni32 2.375277 1_654
Ni28 Ni9 2.381858 1_655
Ni28 Ni8 2.381949 1_555
Ni29 Ni33 2.375180 1_554
Ni29 Ni31 2.375277 1_654
Ni29 Ni9 2.381858 1_655
Ni29 Ni7 2.381949 1_555
Ni30 Ni32 2.375180 1_554
Ni30 Ni31 2.375180 1_544
Ni30 Ni8 2.381833 1_555
Ni30 Ni7 2.381833 1_555
Ni31 Ni9 2.381858 1_556
Ni31 Ni8 2.381949 1_566
Ni32 Ni9 2.381858 1_556
Ni32 Ni7 2.381949 1_556
Ni33 Ni8 2.381833 1_566
Ni33 Ni7 2.381833 1_556
