# generated using pymatgen
data_ZnMoAsO5
_symmetry_space_group_name_H-M   'P 1'
_cell_length_a   6.65026100
_cell_length_b   7.89962400
_cell_length_c   8.56671984
_cell_angle_alpha   89.89700195
_cell_angle_beta   90.00000000
_cell_angle_gamma   90.00000000
_symmetry_Int_Tables_number   1
_chemical_formula_structural   ZnMoAsO5
_chemical_formula_sum   'Zn4 Mo4 As4 O20'
_cell_volume   450.04814237
_cell_formula_units_Z   4
loop_
 _symmetry_equiv_pos_site_id
 _symmetry_equiv_pos_as_xyz
  1  'x, y, z'
loop_
 _atom_site_type_symbol
 _atom_site_label
 _atom_site_symmetry_multiplicity
 _atom_site_fract_x
 _atom_site_fract_y
 _atom_site_fract_z
 _atom_site_occupancy
  Zn  Zn0  1  0.24825600  0.96671300  0.81252700  1
  Zn  Zn1  1  0.74847000  0.51661200  0.30951600  1
  Zn  Zn2  1  0.24847000  0.48338800  0.69048400  1
  Zn  Zn3  1  0.74825700  0.03328700  0.18747300  1
  Mo  Mo0  1  0.49999200  0.00084600  0.50080500  1
  Mo  Mo1  1  0.49838500  0.50023100  0.99965300  1
  Mo  Mo2  1  0.99838500  0.49976900  0.00034700  1
  Mo  Mo3  1  0.99999200  0.99915400  0.49919500  1
  As  As0  1  0.74739500  0.36323000  0.66403900  1
  As  As1  1  0.25304500  0.13850800  0.16420900  1
  As  As2  1  0.75304500  0.86149200  0.83579100  1
  As  As3  1  0.24739500  0.63677000  0.33596100  1
  O  O0  1  0.74998600  0.16543300  0.57383600  1
  O  O1  1  0.24895900  0.33394600  0.06845800  1
  O  O2  1  0.74895900  0.66605400  0.93154200  1
  O  O3  1  0.24998600  0.83456700  0.42616400  1
  O  O4  1  0.74225900  0.52175500  0.52930500  1
  O  O5  1  0.26729900  0.97688300  0.03371700  1
  O  O6  1  0.76729900  0.02311700  0.96628300  1
  O  O7  1  0.24225900  0.47824500  0.47069500  1
  O  O8  1  0.96367200  0.37725400  0.77379400  1
  O  O9  1  0.03651300  0.12829600  0.27403700  1
  O  O10  1  0.53651300  0.87170400  0.72596300  1
  O  O11  1  0.46367200  0.62274600  0.22620600  1
  O  O12  1  0.53179400  0.37460200  0.77507100  1
  O  O13  1  0.46634200  0.13453200  0.27853400  1
  O  O14  1  0.96634200  0.86546800  0.72146600  1
  O  O15  1  0.03179400  0.62539800  0.22492900  1
  O  O16  1  0.24881600  0.09825100  0.62260900  1
  O  O17  1  0.74865300  0.39229600  0.11775700  1
  O  O18  1  0.24865300  0.60770400  0.88224300  1
  O  O19  1  0.74881600  0.90174900  0.37739100  1
loop_
_geom_bond_atom_site_label_1
_geom_bond_atom_site_label_2
_geom_bond_distance
_geom_bond_site_symmetry_2
Mo0 O19 2.114654 1_545
Mo0 O16 2.115174 1_555
Mo0 O13 2.187202 1_555
Mo0 O10 2.193898 1_545
Mo0 O0 2.201997 1_555
Mo0 O3 2.213941 1_545
Mo1 O18 2.118395 1_555
Mo1 O17 2.125470 1_556
Mo1 O12 2.177760 1_555
Mo1 O11 2.182543 1_556
Mo1 O1 2.195816 1_556
Mo1 O2 2.197836 1_555
Mo2 O17 2.118395 1_555
Mo2 O18 2.125470 1_654
Mo2 O15 2.177760 1_655
Mo2 O8 2.182543 1_554
Mo2 O2 2.195816 1_554
Mo2 O1 2.197836 1_655
Mo3 O16 2.114654 1_665
Mo3 O19 2.115174 1_555
Mo3 O14 2.187202 1_555
Mo3 O9 2.193898 1_665
Mo3 O3 2.201997 1_655
Mo3 O0 2.213941 1_565
As0 O4 1.701893 1_555
As0 O8 1.722034 1_555
As0 O12 1.723053 1_555
As0 O0 1.744490 1_555
As1 O5 1.701162 1_545
As1 O9 1.721931 1_555
As1 O13 1.723998 1_555
As1 O1 1.747174 1_555
As2 O6 1.701162 1_565
As2 O10 1.721931 1_555
As2 O14 1.723998 1_555
As2 O2 1.747174 1_555
As3 O7 1.701893 1_555
As3 O11 1.722034 1_555
As3 O15 1.723053 1_555
As3 O3 1.744490 1_555
O4 Zn1 1.883835 1_555
O5 Zn0 1.900943 1_554
O6 Zn3 1.900942 1_556
O7 Zn2 1.883835 1_555
O8 Zn2 2.190278 1_655
O9 Zn3 2.188614 1_455
O10 Zn0 2.188620 1_555
O11 Zn1 2.190278 1_555
O12 Zn2 2.193513 1_555
O13 Zn3 2.182973 1_555
O14 Zn0 2.182968 1_655
O15 Zn1 2.193513 1_455
O16 Zn0 1.928915 1_545
O17 Zn1 1.915421 1_555
O18 Zn2 1.915421 1_555
O19 Zn3 1.928915 1_565
