# generated using pymatgen
data_ScAlCu2
_symmetry_space_group_name_H-M   'P 1'
_cell_length_a   4.35704174
_cell_length_b   4.35704219
_cell_length_c   4.35704280
_cell_angle_alpha   59.99999539
_cell_angle_beta   59.99999198
_cell_angle_gamma   60.00000701
_symmetry_Int_Tables_number   1
_chemical_formula_structural   ScAlCu2
_chemical_formula_sum   'Sc1 Al1 Cu2'
_cell_volume   58.48712804
_cell_formula_units_Z   1
loop_
 _symmetry_equiv_pos_site_id
 _symmetry_equiv_pos_as_xyz
  1  'x, y, z'
loop_
 _atom_site_type_symbol
 _atom_site_label
 _atom_site_symmetry_multiplicity
 _atom_site_fract_x
 _atom_site_fract_y
 _atom_site_fract_z
 _atom_site_occupancy
  Sc  Sc0  1  0.50000000  0.50000000  0.50000000  1
  Al  Al0  1  -0.00000000  0.00000000  -0.00000000  1
  Cu  Cu0  1  0.25000000  0.25000000  0.25000000  1
  Cu  Cu1  1  0.75000000  0.75000000  0.75000000  1
loop_
_geom_bond_atom_site_label_1
_geom_bond_atom_site_label_2
_geom_bond_distance
_geom_bond_site_symmetry_2
Al0 Cu1 2.668132 1_544
Al0 Cu0 2.668132 1_455
Al0 Cu0 2.668133 1_554
Al0 Cu1 2.668133 1_444
Al0 Cu0 2.668133 1_555
Al0 Cu1 2.668133 1_445
Al0 Cu0 2.668133 1_545
Al0 Cu1 2.668133 1_454
Cu0 Sc0 2.668132 1_455
Cu0 Sc0 2.668133 1_555
Cu0 Sc0 2.668133 1_554
Cu0 Sc0 2.668133 1_545
Cu1 Sc0 2.668132 1_655
Cu1 Sc0 2.668133 1_555
Cu1 Sc0 2.668133 1_556
Cu1 Sc0 2.668133 1_565
