# generated using pymatgen
data_Ba3SmIrRuO9
_symmetry_space_group_name_H-M   'P 1'
_cell_length_a   5.95006067
_cell_length_b   5.95006067
_cell_length_c   14.72344482
_cell_angle_alpha   90.00000000
_cell_angle_beta   90.00000000
_cell_angle_gamma   119.99999280
_symmetry_Int_Tables_number   1
_chemical_formula_structural   Ba3SmIrRuO9
_chemical_formula_sum   'Ba6 Sm2 Ir2 Ru2 O18'
_cell_volume   451.42217068
_cell_formula_units_Z   2
loop_
 _symmetry_equiv_pos_site_id
 _symmetry_equiv_pos_as_xyz
  1  'x, y, z'
loop_
 _atom_site_type_symbol
 _atom_site_label
 _atom_site_symmetry_multiplicity
 _atom_site_fract_x
 _atom_site_fract_y
 _atom_site_fract_z
 _atom_site_occupancy
  Ba  Ba0  1  0.33333300  0.66666700  0.59372882  1
  Ba  Ba1  1  0.66666700  0.33333300  0.40000133  1
  Ba  Ba2  1  0.66666700  0.33333300  0.09320184  1
  Ba  Ba3  1  0.33333300  0.66666700  0.90003746  1
  Ba  Ba4  1  0.00000000  -0.00000000  0.25067205  1
  Ba  Ba5  1  0.00000000  -0.00000000  0.75080610  1
  Sm  Sm0  1  0.00000000  -0.00000000  0.49919339  1
  Sm  Sm1  1  0.00000000  -0.00000000  0.99913716  1
  Ir  Ir0  1  0.33333300  0.66666700  0.33452720  1
  Ir  Ir1  1  0.66666700  0.33333300  0.83459094  1
  Ru  Ru0  1  0.66666700  0.33333300  0.66503672  1
  Ru  Ru1  1  0.33333300  0.66666700  0.16489494  1
  O  O0  1  0.17901365  0.35802830  0.09192364  1
  O  O1  1  0.64197170  0.82098635  0.09192364  1
  O  O2  1  0.17901365  0.82098635  0.09192364  1
  O  O3  1  0.82232282  0.64464564  0.91257039  1
  O  O4  1  0.35535436  0.17767718  0.91257039  1
  O  O5  1  0.82232282  0.17767718  0.91257039  1
  O  O6  1  0.82108260  0.64216420  0.59218504  1
  O  O7  1  0.35783580  0.17891740  0.59218504  1
  O  O8  1  0.82108260  0.17891740  0.59218504  1
  O  O9  1  0.17767002  0.35534005  0.41256735  1
  O  O10  1  0.64465995  0.82232998  0.41256735  1
  O  O11  1  0.17767002  0.82232998  0.41256735  1
  O  O12  1  0.49008281  0.50991719  0.24767132  1
  O  O13  1  0.49008281  0.98016462  0.24767132  1
  O  O14  1  0.01983538  0.50991719  0.24767132  1
  O  O15  1  0.50985643  0.49014357  0.74781628  1
  O  O16  1  0.50985643  0.01971387  0.74781628  1
  O  O17  1  0.98028613  0.49014357  0.74781628  1
loop_
_geom_bond_atom_site_label_1
_geom_bond_atom_site_label_2
_geom_bond_distance
_geom_bond_site_symmetry_2
Ba0 O15 2.908013 1_555
Ba0 O16 2.908013 1_565
Ba0 O17 2.908013 1_455
Ba0 O7 2.977789 1_565
Ba0 O6 2.977789 1_455
Ba0 O8 2.977795 1_565
Ba0 O8 2.977795 1_455
Ba0 O6 2.977801 1_555
Ba0 O7 2.977801 1_555
Ba0 O11 3.112581 1_555
Ba0 O9 3.112584 1_555
Ba0 O10 3.112584 1_555
Ba1 O12 2.888266 1_555
Ba1 O13 2.888266 1_545
Ba1 O14 2.888266 1_655
Ba1 O10 2.982931 1_545
Ba1 O9 2.982931 1_655
Ba1 O11 2.982934 1_545
Ba1 O11 2.982934 1_655
Ba1 O9 2.982937 1_555
Ba1 O10 2.982937 1_555
Ba1 O8 3.246406 1_555
Ba1 O6 3.246406 1_555
Ba1 O7 3.246406 1_555
Ba2 O12 2.912794 1_555
Ba2 O13 2.912795 1_545
Ba2 O14 2.912795 1_655
Ba2 O0 2.977804 1_655
Ba2 O1 2.977804 1_545
Ba2 O2 2.977810 1_655
Ba2 O2 2.977810 1_545
Ba2 O0 2.977816 1_555
Ba2 O1 2.977816 1_555
Ba2 O5 3.105859 1_554
Ba2 O3 3.105861 1_554
Ba2 O4 3.105861 1_554
Ba3 O15 2.886627 1_555
Ba3 O16 2.886627 1_565
Ba3 O17 2.886627 1_455
Ba3 O4 2.982904 1_565
Ba3 O3 2.982904 1_455
Ba3 O5 2.982907 1_565
Ba3 O5 2.982907 1_455
Ba3 O4 2.982910 1_555
Ba3 O3 2.982910 1_555
Ba3 O2 3.242102 1_556
Ba3 O0 3.242102 1_556
Ba3 O1 3.242102 1_556
Ba4 O14 2.977110 1_555
Ba4 O13 2.977110 1_445
Ba4 O12 2.977114 1_555
Ba4 O12 2.977114 1_445
Ba4 O14 2.977116 1_545
Ba4 O13 2.977116 1_545
Ba4 O2 2.977694 1_545
Ba4 O0 2.977698 1_555
Ba4 O1 2.977698 1_445
Ba4 O11 3.005745 1_545
Ba4 O10 3.005745 1_445
Ba4 O9 3.005745 1_555
Ba5 O8 2.975608 1_455
Ba5 O6 2.975611 1_445
Ba5 O7 2.975611 1_555
Ba5 O16 2.977087 1_555
Ba5 O17 2.977087 1_445
Ba5 O15 2.977090 1_555
Ba5 O15 2.977090 1_445
Ba5 O17 2.977093 1_455
Ba5 O16 2.977093 1_455
Ba5 O5 3.004260 1_455
Ba5 O3 3.004260 1_445
Ba5 O4 3.004260 1_555
Ir0 O11 1.973274 1_555
Ir0 O9 1.973278 1_555
Ir0 O10 1.973278 1_555
Ir0 O14 2.060332 1_555
Ir0 O13 2.060332 1_555
Ir0 O12 2.060340 1_555
Ir1 O5 1.972693 1_555
Ir1 O4 1.972698 1_555
Ir1 O3 1.972698 1_555
Ir1 O17 2.060081 1_555
Ir1 O16 2.060081 1_555
Ir1 O15 2.060089 1_555
O0 Ru1 1.919281 1_555
O0 Sm1 2.295633 1_554
O1 Ru1 1.919281 1_555
O1 Sm1 2.295633 1_664
O2 Ru1 1.919280 1_555
O2 Sm1 2.295629 1_564
O3 Sm1 2.231022 1_665
O4 Sm1 2.231022 1_555
O5 Sm1 2.231022 1_655
O6 Ru0 1.919118 1_555
O6 Sm0 2.296636 1_665
O7 Ru0 1.919118 1_555
O7 Sm0 2.296636 1_555
O8 Ru0 1.919118 1_555
O8 Sm0 2.296631 1_655
O9 Sm0 2.231460 1_555
O10 Sm0 2.231460 1_665
O11 Sm0 2.231460 1_565
O12 Ru1 2.023607 1_555
O13 Ru1 2.023599 1_555
O14 Ru1 2.023599 1_555
O15 Ru0 2.024135 1_555
O16 Ru0 2.024127 1_555
O17 Ru0 2.024127 1_555
