# generated using pymatgen
data_YMg14Mo
_symmetry_space_group_name_H-M   'P 1'
_cell_length_a   6.41511257
_cell_length_b   6.41511204
_cell_length_c   10.08067385
_cell_angle_alpha   90.00000000
_cell_angle_beta   90.00000000
_cell_angle_gamma   120.00000270
_symmetry_Int_Tables_number   1
_chemical_formula_structural   YMg14Mo
_chemical_formula_sum   'Y1 Mg14 Mo1'
_cell_volume   359.27641686
_cell_formula_units_Z   1
loop_
 _symmetry_equiv_pos_site_id
 _symmetry_equiv_pos_as_xyz
  1  'x, y, z'
loop_
 _atom_site_type_symbol
 _atom_site_label
 _atom_site_symmetry_multiplicity
 _atom_site_fract_x
 _atom_site_fract_y
 _atom_site_fract_z
 _atom_site_occupancy
  Y  Y0  1  0.16666700  0.33333300  0.12500000  1
  Mg  Mg0  1  0.17647327  0.83823613  0.12500000  1
  Mg  Mg1  1  0.16304797  0.83152349  0.62500000  1
  Mg  Mg2  1  0.66176387  0.32352673  0.12500000  1
  Mg  Mg3  1  0.66847651  0.33695203  0.62500000  1
  Mg  Mg4  1  0.66176387  0.83823613  0.12500000  1
  Mg  Mg5  1  0.66847651  0.83152349  0.62500000  1
  Mg  Mg6  1  0.32956775  0.17043225  0.38957462  1
  Mg  Mg7  1  0.32956775  0.17043225  0.86042538  1
  Mg  Mg8  1  0.32956775  0.65913650  0.38957462  1
  Mg  Mg9  1  0.32956775  0.65913650  0.86042538  1
  Mg  Mg10  1  0.84086350  0.17043225  0.38957462  1
  Mg  Mg11  1  0.84086350  0.17043225  0.86042538  1
  Mg  Mg12  1  0.83333300  0.66666700  0.36777524  1
  Mg  Mg13  1  0.83333300  0.66666700  0.88222476  1
  Mo  Mo0  1  0.16666700  0.33333300  0.62500000  1
loop_
_geom_bond_atom_site_label_1
_geom_bond_atom_site_label_2
_geom_bond_distance
_geom_bond_site_symmetry_2
Mg0 Mg13 3.102209 1_454
Mg0 Mg12 3.102209 1_455
Mg0 Mg2 3.113194 1_565
Mg0 Mg4 3.113194 1_555
Mg0 Y0 3.208019 1_555
Mg0 Y0 3.208019 1_565
Mg0 Mg8 3.244441 1_555
Mg0 Mg9 3.244441 1_554
Mg0 Mg6 3.244448 1_565
Mg0 Mg7 3.244448 1_564
Mg0 Mg2 3.301918 1_455
Mg0 Mg4 3.301919 1_455
Mg1 Mg8 3.029483 1_555
Mg1 Mg9 3.029483 1_555
Mg1 Mg6 3.029490 1_565
Mg1 Mg7 3.029490 1_565
Mg1 Mg3 3.172731 1_455
Mg1 Mg5 3.172732 1_455
Mg1 Mg12 3.174754 1_455
Mg1 Mg13 3.174754 1_455
Mg1 Mo0 3.207619 1_565
Mg1 Mo0 3.207619 1_555
Mg1 Mg3 3.242381 1_565
Mg1 Mg5 3.242381 1_555
Mg2 Mg4 3.113194 1_545
Mg2 Y0 3.208019 1_655
Mg2 Y0 3.208019 1_555
Mg2 Mg7 3.244448 1_554
Mg2 Mg6 3.244448 1_555
Mg2 Mg4 3.301918 1_555
Mg3 Mg6 3.029490 1_555
Mg3 Mg7 3.029490 1_555
Mg3 Mg5 3.172731 1_555
Mg3 Mo0 3.207619 1_555
Mg3 Mo0 3.207619 1_655
Mg3 Mg5 3.242381 1_545
Mg4 Y0 3.208019 1_555
Mg4 Y0 3.208019 1_665
Mg4 Mg9 3.244448 1_554
Mg4 Mg8 3.244448 1_555
Mg5 Mg8 3.029490 1_555
Mg5 Mg9 3.029490 1_555
Mg5 Mo0 3.207619 1_665
Mg5 Mo0 3.207619 1_555
Mg6 Mo0 2.984718 1_555
Mg6 Mg8 3.135093 1_555
Mg6 Y0 3.223292 1_555
Mg6 Mg8 3.280020 1_545
Mg7 Mo0 2.984718 1_555
Mg7 Mg9 3.135093 1_555
Mg7 Y0 3.223292 1_556
Mg7 Mg9 3.280020 1_545
Mg8 Mo0 2.984725 1_555
Mg8 Y0 3.223298 1_555
Mg9 Mo0 2.984725 1_555
Mg9 Y0 3.223298 1_556
Mg10 Mo0 2.984725 1_655
Mg10 Mg3 3.029483 1_555
Mg10 Mg5 3.029490 1_545
Mg10 Mg8 3.135093 1_655
Mg10 Mg6 3.135093 1_655
Mg10 Mg12 3.215347 1_545
Mg10 Mg12 3.215347 1_555
Mg10 Y0 3.223299 1_655
Mg10 Mg2 3.244441 1_555
Mg10 Mg4 3.244447 1_545
Mg10 Mg8 3.280020 1_545
Mg10 Mg6 3.280020 1_555
Mg11 Mo0 2.984725 1_655
Mg11 Mg3 3.029483 1_555
Mg11 Mg5 3.029490 1_545
Mg11 Mg9 3.135093 1_655
Mg11 Mg7 3.135093 1_655
Mg11 Mg13 3.215347 1_545
Mg11 Mg13 3.215347 1_555
Mg11 Y0 3.223299 1_656
Mg11 Mg2 3.244441 1_556
Mg11 Mg4 3.244447 1_546
Mg11 Mg9 3.280020 1_545
Mg11 Mg7 3.280020 1_555
Mg12 Mg4 3.102202 1_555
Mg12 Mg2 3.102209 1_555
Mg12 Mg5 3.174748 1_555
Mg12 Mg3 3.174754 1_555
Mg12 Mg6 3.215347 1_665
Mg12 Mg6 3.215347 1_555
Mg12 Mg8 3.215347 1_655
Mg12 Mg8 3.215347 1_555
Mg13 Mg4 3.102202 1_556
Mg13 Mg2 3.102209 1_556
Mg13 Mg5 3.174748 1_555
Mg13 Mg3 3.174754 1_555
Mg13 Mg7 3.215347 1_665
Mg13 Mg7 3.215347 1_555
Mg13 Mg9 3.215347 1_655
Mg13 Mg9 3.215347 1_555
