# generated using pymatgen
data_K2SrVB5O12
_symmetry_space_group_name_H-M   'P 1'
_cell_length_a   8.57450300
_cell_length_b   6.72399300
_cell_length_c   10.09677071
_cell_angle_alpha   80.19018292
_cell_angle_beta   90.00000000
_cell_angle_gamma   90.00000000
_symmetry_Int_Tables_number   1
_chemical_formula_structural   K2SrVB5O12
_chemical_formula_sum   'K4 Sr2 V2 B10 O24'
_cell_volume   573.61682635
_cell_formula_units_Z   2
loop_
 _symmetry_equiv_pos_site_id
 _symmetry_equiv_pos_as_xyz
  1  'x, y, z'
loop_
 _atom_site_type_symbol
 _atom_site_label
 _atom_site_symmetry_multiplicity
 _atom_site_fract_x
 _atom_site_fract_y
 _atom_site_fract_z
 _atom_site_occupancy
  K  K0  1  0.65693800  0.60123600  0.59650500  1
  K  K1  1  0.15693800  0.39876400  0.40349500  1
  K  K2  1  0.57159700  0.33287900  0.25896900  1
  K  K3  1  0.07159700  0.66712100  0.74103100  1
  Sr  Sr0  1  0.18964800  0.92814000  0.02811000  1
  Sr  Sr1  1  0.68964800  0.07186000  0.97189000  1
  V  V0  1  0.40071100  0.84088300  0.30757400  1
  V  V1  1  0.90071100  0.15911700  0.69242600  1
  B  B0  1  0.43413600  0.84008500  0.80055700  1
  B  B1  1  0.93413600  0.15991500  0.19944300  1
  B  B2  1  0.64152800  0.62178200  0.92976400  1
  B  B3  1  0.14152800  0.37821800  0.07023600  1
  B  B4  1  0.37846800  0.48029400  0.90604400  1
  B  B5  1  0.87846800  0.51970600  0.09395600  1
  B  B6  1  0.88296200  0.78039300  0.25625100  1
  B  B7  1  0.38296200  0.21960700  0.74374900  1
  B  B8  1  0.39641500  0.02307600  0.56392200  1
  B  B9  1  0.89641500  0.97692400  0.43607800  1
  O  O0  1  0.48295000  0.95569200  0.15708600  1
  O  O1  1  0.98295000  0.04430800  0.84291400  1
  O  O2  1  0.40136100  0.04455600  0.83761900  1
  O  O3  1  0.90136100  0.95544400  0.16238100  1
  O  O4  1  0.87656500  0.79159600  0.39345800  1
  O  O5  1  0.37656500  0.20840400  0.60654200  1
  O  O6  1  0.39797700  0.02819900  0.42748800  1
  O  O7  1  0.89797700  0.97180100  0.57251200  1
  O  O8  1  0.21723400  0.76985300  0.26984100  1
  O  O9  1  0.71723400  0.23014700  0.73015900  1
  O  O10  1  0.41007100  0.84787300  0.65448400  1
  O  O11  1  0.91007100  0.15212700  0.34551600  1
  O  O12  1  0.33293600  0.69481800  0.88313100  1
  O  O13  1  0.83293600  0.30518200  0.11686900  1
  O  O14  1  0.49736800  0.63046900  0.37573700  1
  O  O15  1  0.99736800  0.36953100  0.62426300  1
  O  O16  1  0.59981900  0.79031200  0.83605500  1
  O  O17  1  0.09981900  0.20968800  0.16394500  1
  O  O18  1  0.54508400  0.45604300  0.95718700  1
  O  O19  1  0.04508400  0.54395700  0.04281300  1
  O  O20  1  0.86616300  0.59503900  0.22263800  1
  O  O21  1  0.36616300  0.40496100  0.77736200  1
  O  O22  1  0.78149000  0.64093600  0.99067900  1
  O  O23  1  0.28149000  0.35906400  0.00932100  1
loop_
_geom_bond_atom_site_label_1
_geom_bond_atom_site_label_2
_geom_bond_distance
_geom_bond_site_symmetry_2
K0 O14 2.594231 1_555
K0 O9 2.677126 1_555
K0 O10 2.811482 1_555
K0 O4 2.914372 1_555
K0 O16 2.958721 1_555
K0 O7 3.214510 1_555
K0 O21 3.235950 1_555
K0 O15 3.298141 1_555
K1 O15 2.594231 1_455
K1 O8 2.677126 1_555
K1 O11 2.811482 1_455
K1 O5 2.914372 1_555
K1 O17 2.958721 1_555
K1 O6 3.214510 1_555
K1 O20 3.235950 1_455
K1 O14 3.298141 1_555
K2 O14 2.569622 1_555
K2 O13 2.684336 1_555
K2 O6 2.849660 1_555
K2 O0 2.992876 1_545
K2 O18 3.026881 1_554
K2 O20 3.066105 1_555
K2 O11 3.209653 1_555
K3 O15 2.569622 1_455
K3 O12 2.684336 1_555
K3 O7 2.849660 1_455
K3 O1 2.992876 1_465
K3 O19 3.026881 1_556
K3 O21 3.066105 1_555
K3 O10 3.209653 1_555
B0 O12 1.457623 1_555
B0 O10 1.481294 1_555
B0 O16 1.489241 1_555
B0 O2 1.511478 1_565
B1 O13 1.457623 1_555
B1 O11 1.481294 1_555
B1 O17 1.489241 1_655
B1 O3 1.511478 1_545
B2 O22 1.364592 1_555
B2 O18 1.377436 1_555
B2 O16 1.393519 1_555
B3 O23 1.364592 1_555
B3 O19 1.377436 1_555
B3 O17 1.393519 1_555
B4 O23 1.467527 1_556
B4 O12 1.474081 1_555
B4 O21 1.476511 1_555
B4 O18 1.518415 1_555
B5 O22 1.467527 1_554
B5 O13 1.474081 1_555
B5 O20 1.476511 1_555
B5 O19 1.518415 1_655
B6 O20 1.354021 1_555
B6 O3 1.388693 1_555
B6 O4 1.401225 1_555
B7 O21 1.354021 1_555
B7 O2 1.388693 1_555
B7 O5 1.401225 1_555
B8 O10 1.367691 1_545
B8 O6 1.372159 1_555
B8 O5 1.396336 1_555
B9 O11 1.367691 1_565
B9 O7 1.372159 1_555
B9 O4 1.396336 1_555
O0 V0 1.732686 1_555
O0 Sr1 2.598086 1_564
O0 Sr0 2.852574 1_555
O1 V1 1.732686 1_555
O1 Sr0 2.598086 1_646
O1 Sr1 2.852574 1_555
O2 Sr0 2.663533 1_546
O2 Sr1 2.840216 1_555
O3 Sr1 2.663533 1_564
O3 Sr0 2.840216 1_655
O6 V0 1.890094 1_545
O7 V1 1.890094 1_565
O8 V0 1.705958 1_555
O8 Sr0 2.502114 1_555
O9 V1 1.705958 1_555
O9 Sr1 2.502114 1_555
O12 Sr0 2.626051 1_556
O13 Sr1 2.626051 1_554
O14 V0 1.682398 1_555
O15 V1 1.682398 1_555
O16 Sr1 2.634946 1_565
O17 Sr0 2.634946 1_545
O18 Sr1 2.846231 1_555
O19 Sr0 2.846231 1_555
O22 Sr1 2.977334 1_565
O23 Sr0 2.977334 1_545
