# generated using pymatgen
data_Nb2Zn(PbO3)3
_symmetry_space_group_name_H-M   'P 1'
_cell_length_a   4.19144503
_cell_length_b   12.52428498
_cell_length_c   5.81841395
_cell_angle_alpha   44.66089864
_cell_angle_beta   89.15565056
_cell_angle_gamma   89.22813836
_symmetry_Int_Tables_number   1
_chemical_formula_structural   Nb2Zn(PbO3)3
_chemical_formula_sum   'Nb2 Zn1 Pb3 O9'
_cell_volume   214.66914581
_cell_formula_units_Z   1
loop_
 _symmetry_equiv_pos_site_id
 _symmetry_equiv_pos_as_xyz
  1  'x, y, z'
loop_
 _atom_site_type_symbol
 _atom_site_label
 _atom_site_symmetry_multiplicity
 _atom_site_fract_x
 _atom_site_fract_y
 _atom_site_fract_z
 _atom_site_occupancy
  Nb  Nb0  1  0.45669500  0.64996000  0.51469900  1
  Nb  Nb1  1  0.45539400  0.33628500  0.49317900  1
  Zn  Zn0  1  0.46634100  0.98860100  0.48004200  1
  Pb  Pb0  1  0.88453100  0.98542000  0.96378900  1
  Pb  Pb1  1  0.94270900  0.26953200  0.08287500  1
  Pb  Pb2  1  0.93101600  0.70875600  0.91177700  1
  O  O0  1  0.98872600  0.99683400  0.52610800  1
  O  O1  1  0.00996200  0.33853400  0.49641400  1
  O  O2  1  0.01036800  0.66023700  0.50659800  1
  O  O3  1  0.51670700  0.18408000  0.97900100  1
  O  O4  1  0.53133700  0.81994000  0.02623200  1
  O  O5  1  0.52187600  0.49971600  0.00306200  1
  O  O6  1  0.52927800  0.17655100  0.50642800  1
  O  O7  1  0.51911500  0.50113300  0.49558400  1
  O  O8  1  0.52454700  0.81395400  0.51421300  1
loop_
_geom_bond_atom_site_label_1
_geom_bond_atom_site_label_2
_geom_bond_distance
_geom_bond_site_symmetry_2
Nb0 O2 1.872430 1_555
Nb0 O7 1.958583 1_555
Nb0 O4 2.022897 1_555
Nb0 O5 2.022961 1_556
Nb0 O8 2.075302 1_555
Nb0 O2 2.323916 1_655
Nb1 O1 1.866856 1_555
Nb1 O6 1.966898 1_555
Nb1 O3 2.008234 1_555
Nb1 O5 2.021860 1_555
Nb1 O7 2.095276 1_555
Nb1 O1 2.325507 1_655
O0 Zn0 2.026821 1_655
O0 Zn0 2.222451 1_555
O0 Pb1 2.412420 1_565
O0 Pb0 2.479398 1_555
O0 Pb2 2.569355 1_555
O3 Zn0 2.092800 1_546
O3 Pb1 2.387956 1_556
O4 Zn0 2.257452 1_554
O4 Pb0 2.369503 1_554
O4 Pb2 2.532271 1_554
O6 Pb0 2.446994 1_545
O6 Zn0 2.483185 1_545
O6 Pb1 2.505640 1_555
O8 Zn0 2.062003 1_555
O8 Pb2 2.389446 1_555
O8 Pb0 2.702988 1_554
