# generated using pymatgen
data_KSr(BH4)3
_symmetry_space_group_name_H-M   'P 1'
_cell_length_a   8.13887100
_cell_length_b   8.76193700
_cell_length_c   11.61249500
_cell_angle_alpha   90.00000000
_cell_angle_beta   90.00000000
_cell_angle_gamma   90.00000000
_symmetry_Int_Tables_number   1
_chemical_formula_structural   KSr(BH4)3
_chemical_formula_sum   'K4 Sr4 B12 H48'
_cell_volume   828.11343633
_cell_formula_units_Z   4
loop_
 _symmetry_equiv_pos_site_id
 _symmetry_equiv_pos_as_xyz
  1  'x, y, z'
loop_
 _atom_site_type_symbol
 _atom_site_label
 _atom_site_symmetry_multiplicity
 _atom_site_fract_x
 _atom_site_fract_y
 _atom_site_fract_z
 _atom_site_occupancy
  K  K0  1  0.53080600  0.94379100  0.75489700  1
  K  K1  1  0.46919400  0.05620900  0.25489700  1
  K  K2  1  0.96919400  0.44379100  0.25489700  1
  K  K3  1  0.03080600  0.55620900  0.75489700  1
  Sr  Sr0  1  0.95709800  0.97199900  0.49661000  1
  Sr  Sr1  1  0.04290200  0.02800100  0.99661000  1
  Sr  Sr2  1  0.54290200  0.47199900  0.99661000  1
  Sr  Sr3  1  0.45709800  0.52800100  0.49661000  1
  B  B0  1  0.42068500  0.48427100  0.76868800  1
  B  B1  1  0.57931500  0.51572900  0.26868800  1
  B  B2  1  0.07931500  0.98427100  0.26868800  1
  B  B3  1  0.92068500  0.01572900  0.76868800  1
  B  B4  1  0.17006700  0.35527200  0.47065700  1
  B  B5  1  0.82993300  0.64472800  0.97065700  1
  B  B6  1  0.32993300  0.85527200  0.97065700  1
  B  B7  1  0.67006700  0.14472800  0.47065700  1
  B  B8  1  0.80788500  0.68277000  0.53843000  1
  B  B9  1  0.19211500  0.31723000  0.03843000  1
  B  B10  1  0.69211500  0.18277000  0.03843000  1
  B  B11  1  0.30788500  0.81723000  0.53843000  1
  H  H0  1  0.32495700  0.48927700  0.84981200  1
  H  H1  1  0.67504300  0.51072300  0.34981200  1
  H  H2  1  0.17504300  0.98927700  0.34981200  1
  H  H3  1  0.82495700  0.01072300  0.84981200  1
  H  H4  1  0.51070600  0.59564400  0.77042600  1
  H  H5  1  0.48929400  0.40435600  0.27042600  1
  H  H6  1  0.98929400  0.09564400  0.27042600  1
  H  H7  1  0.01070600  0.90435600  0.77042600  1
  H  H8  1  0.50285300  0.36611000  0.77348100  1
  H  H9  1  0.49714700  0.63389000  0.27348100  1
  H  H10  1  0.99714700  0.86611000  0.27348100  1
  H  H11  1  0.00285300  0.13389000  0.77348100  1
  H  H12  1  0.33352500  0.48245500  0.68358700  1
  H  H13  1  0.66647500  0.51754500  0.18358700  1
  H  H14  1  0.16647500  0.98245500  0.18358700  1
  H  H15  1  0.83352500  0.01754500  0.68358700  1
  H  H16  1  0.04353000  0.28120900  0.46201000  1
  H  H17  1  0.95647000  0.71879100  0.96201000  1
  H  H18  1  0.45647000  0.78120900  0.96201000  1
  H  H19  1  0.54353000  0.21879100  0.46201000  1
  H  H20  1  0.25492300  0.34331800  0.38302200  1
  H  H21  1  0.74507700  0.65668200  0.88302200  1
  H  H22  1  0.24507700  0.84331800  0.88302200  1
  H  H23  1  0.75492300  0.15668200  0.38302200  1
  H  H24  1  0.13342800  0.49090300  0.48307500  1
  H  H25  1  0.86657200  0.50909700  0.98307500  1
  H  H26  1  0.36657200  0.99090300  0.98307500  1
  H  H27  1  0.63342800  0.00909700  0.48307500  1
  H  H28  1  0.25074100  0.31315800  0.55406000  1
  H  H29  1  0.74925900  0.68684200  0.05406000  1
  H  H30  1  0.24925900  0.81315800  0.05406000  1
  H  H31  1  0.75074100  0.18684200  0.55406000  1
  H  H32  1  0.69357100  0.76689900  0.51147000  1
  H  H33  1  0.30642900  0.23310100  0.01147000  1
  H  H34  1  0.80642900  0.26689900  0.01147000  1
  H  H35  1  0.19357100  0.73310100  0.51147000  1
  H  H36  1  0.87519100  0.73950000  0.62300900  1
  H  H37  1  0.12480900  0.26050000  0.12300900  1
  H  H38  1  0.62480900  0.23950000  0.12300900  1
  H  H39  1  0.37519100  0.76050000  0.62300900  1
  H  H40  1  0.76078900  0.55442100  0.56347400  1
  H  H41  1  0.23921100  0.44557900  0.06347400  1
  H  H42  1  0.73921100  0.05442100  0.06347400  1
  H  H43  1  0.26078900  0.94557900  0.56347400  1
  H  H44  1  0.90703100  0.67613200  0.45878300  1
  H  H45  1  0.09296900  0.32386800  0.95878300  1
  H  H46  1  0.59296900  0.17613200  0.95878300  1
  H  H47  1  0.40703100  0.82386800  0.45878300  1
loop_
_geom_bond_atom_site_label_1
_geom_bond_atom_site_label_2
_geom_bond_distance
_geom_bond_site_symmetry_2
B0 H12 1.216588 1_555
B0 H4 1.220443 1_555
B0 H0 1.223279 1_555
B0 H8 1.233781 1_555
B1 H13 1.216588 1_555
B1 H5 1.220443 1_555
B1 H1 1.223279 1_555
B1 H9 1.233781 1_555
B2 H14 1.216588 1_555
B2 H6 1.220443 1_465
B2 H2 1.223279 1_555
B2 H10 1.233781 1_455
B3 H15 1.216588 1_555
B3 H7 1.220443 1_645
B3 H3 1.223279 1_555
B3 H11 1.233781 1_655
B4 H16 1.221404 1_555
B4 H28 1.226908 1_555
B4 H24 1.233689 1_555
B4 H20 1.234333 1_555
B5 H17 1.221404 1_555
B5 H29 1.226908 1_556
B5 H25 1.233689 1_555
B5 H21 1.234333 1_555
B6 H18 1.221404 1_555
B6 H30 1.226908 1_556
B6 H26 1.233689 1_555
B6 H22 1.234333 1_555
B7 H19 1.221404 1_555
B7 H31 1.226908 1_555
B7 H27 1.233689 1_555
B7 H23 1.234333 1_555
B8 H40 1.223191 1_555
B8 H32 1.227599 1_555
B8 H44 1.228808 1_555
B8 H36 1.229560 1_555
B9 H41 1.223191 1_555
B9 H33 1.227599 1_555
B9 H45 1.228808 1_554
B9 H37 1.229560 1_555
B10 H42 1.223191 1_555
B10 H34 1.227599 1_555
B10 H46 1.228808 1_554
B10 H38 1.229560 1_555
B11 H43 1.223191 1_555
B11 H35 1.227599 1_555
B11 H47 1.228808 1_555
B11 H39 1.229560 1_555
H0 Sr2 2.464822 1_555
H0 K3 2.700052 1_555
H1 Sr3 2.464822 1_555
H1 K2 2.700052 1_555
H2 Sr0 2.464822 1_455
H2 K1 2.700052 1_565
H3 Sr1 2.464822 1_655
H3 K0 2.700052 1_545
H4 Sr2 2.853274 1_555
H5 Sr3 2.853274 1_555
H6 Sr0 2.853274 1_545
H7 Sr1 2.853274 1_565
H8 Sr2 2.771419 1_555
H9 Sr3 2.771419 1_555
H10 Sr0 2.771419 1_555
H11 Sr1 2.771419 1_555
H12 Sr3 2.425941 1_555
H12 K3 2.678358 1_555
H13 Sr2 2.425941 1_554
H13 K2 2.678358 1_555
H14 Sr1 2.425941 1_564
H14 K1 2.678358 1_565
H15 Sr0 2.425941 1_545
H15 K0 2.678358 1_545
H16 Sr0 2.827805 1_445
H16 K2 2.860041 1_455
H17 Sr1 2.827805 1_665
H17 K3 2.860041 1_655
H18 Sr2 2.827805 1_555
H18 K0 2.860041 1_555
H19 Sr3 2.827805 1_555
H19 K1 2.860041 1_555
H20 Sr3 2.658189 1_555
H20 K2 2.897706 1_455
H21 Sr2 2.658189 1_555
H21 K3 2.897706 1_655
H22 Sr1 2.658189 1_565
H22 K0 2.897706 1_555
H23 Sr0 2.658189 1_545
H23 K1 2.897706 1_555
H24 Sr3 2.658936 1_555
H25 Sr2 2.658936 1_555
H26 Sr1 2.658936 1_565
H27 Sr0 2.658936 1_545
H28 Sr3 2.609487 1_555
H29 Sr2 2.609487 1_554
H30 Sr1 2.609487 1_564
H31 Sr0 2.609487 1_545
H32 Sr0 2.803475 1_555
H32 Sr3 2.848768 1_555
H33 Sr1 2.803475 1_554
H33 Sr2 2.848768 1_554
H34 Sr2 2.803475 1_554
H34 Sr1 2.848768 1_654
H35 Sr3 2.803475 1_555
H35 Sr0 2.848768 1_455
H36 K3 2.555176 1_655
H36 Sr0 2.597846 1_555
H37 K2 2.555176 1_455
H37 Sr1 2.597846 1_554
H38 K1 2.555176 1_555
H38 Sr2 2.597846 1_554
H39 K0 2.555176 1_555
H39 Sr3 2.597846 1_555
H40 Sr3 2.601112 1_555
H41 Sr2 2.601112 1_554
H42 Sr1 2.601112 1_654
H43 Sr0 2.601112 1_455
H44 Sr0 2.660709 1_555
H45 Sr1 2.660709 1_555
H46 Sr2 2.660709 1_555
H47 Sr3 2.660709 1_555
