# generated using pymatgen
data_LiAl2BrO6
_symmetry_space_group_name_H-M   'P 1'
_cell_length_a   5.65319900
_cell_length_b   5.65319930
_cell_length_c   10.42659900
_cell_angle_alpha   90.00000000
_cell_angle_beta   90.00000000
_cell_angle_gamma   120.00000412
_symmetry_Int_Tables_number   1
_chemical_formula_structural   LiAl2BrO6
_chemical_formula_sum   'Li2 Al4 Br2 O12'
_cell_volume   288.57709322
_cell_formula_units_Z   2
loop_
 _symmetry_equiv_pos_site_id
 _symmetry_equiv_pos_as_xyz
  1  'x, y, z'
loop_
 _atom_site_type_symbol
 _atom_site_label
 _atom_site_symmetry_multiplicity
 _atom_site_fract_x
 _atom_site_fract_y
 _atom_site_fract_z
 _atom_site_occupancy
  Li  Li0  1  0.00000000  0.00000000  0.00000000  1
  Li  Li1  1  0.00000000  0.00000000  0.50000000  1
  Al  Al0  1  0.66666700  0.33333300  0.00000000  1
  Al  Al1  1  0.33333300  0.66666700  0.00000000  1
  Al  Al2  1  0.33333300  0.66666700  0.50000000  1
  Al  Al3  1  0.66666700  0.33333300  0.50000000  1
  Br  Br0  1  0.00000000  0.00000000  0.75000000  1
  Br  Br1  1  0.00000000  0.00000000  0.25000000  1
  O  O0  1  0.41596100  0.00000000  0.43070700  1
  O  O1  1  0.00000000  0.41596100  0.43070700  1
  O  O2  1  0.58403900  0.58403900  0.43070700  1
  O  O3  1  0.58403900  0.00000000  0.56929300  1
  O  O4  1  0.00000000  0.58403900  0.56929300  1
  O  O5  1  0.41596100  0.41596100  0.56929300  1
  O  O6  1  0.58403900  0.00000000  0.93070700  1
  O  O7  1  0.00000000  0.58403900  0.93070700  1
  O  O8  1  0.41596100  0.41596100  0.93070700  1
  O  O9  1  0.41596100  0.00000000  0.06929300  1
  O  O10  1  0.00000000  0.41596100  0.06929300  1
  O  O11  1  0.58403900  0.58403900  0.06929300  1
loop_
_geom_bond_atom_site_label_1
_geom_bond_atom_site_label_2
_geom_bond_distance
_geom_bond_site_symmetry_2
Li0 O8 2.459998 1_554
Li0 O11 2.459998 1_445
Li0 O9 2.459999 1_555
Li0 O6 2.459999 1_454
Li0 O10 2.459999 1_555
Li0 O7 2.459999 1_544
Li1 O5 2.459998 1_555
Li1 O2 2.459998 1_445
Li1 O0 2.459999 1_555
Li1 O3 2.459999 1_455
Li1 O1 2.459999 1_555
Li1 O4 2.459999 1_545
Al0 O10 1.846866 1_655
Al0 O6 1.846866 1_554
Al0 O7 1.846868 1_654
Al0 O9 1.846868 1_555
Al0 O8 1.846872 1_554
Al0 O11 1.846872 1_555
Al1 O7 1.846866 1_554
Al1 O9 1.846866 1_565
Al1 O10 1.846868 1_555
Al1 O6 1.846868 1_564
Al1 O11 1.846872 1_555
Al1 O8 1.846872 1_554
Al2 O4 1.846866 1_555
Al2 O0 1.846866 1_565
Al2 O1 1.846868 1_555
Al2 O3 1.846868 1_565
Al2 O2 1.846872 1_555
Al2 O5 1.846872 1_555
Al3 O1 1.846866 1_655
Al3 O3 1.846866 1_555
Al3 O4 1.846868 1_655
Al3 O0 1.846868 1_555
Al3 O5 1.846872 1_555
Al3 O2 1.846872 1_555
Br0 Li1 2.606650 1_555
Br0 Li0 2.606650 1_556
Br1 Li0 2.606650 1_555
Br1 Li1 2.606650 1_555
O0 O3 1.729395 1_555
O1 O4 1.729395 1_555
O2 O5 1.729395 1_555
O6 O9 1.729395 1_556
O10 O7 1.729395 1_554
O11 O8 1.729395 1_554
