# generated using pymatgen
data_LaPm3
_symmetry_space_group_name_H-M   'P 1'
_cell_length_a   6.36223179
_cell_length_b   6.36223179
_cell_length_c   6.36223179
_cell_angle_alpha   131.45348800
_cell_angle_beta   131.45348800
_cell_angle_gamma   71.09356493
_symmetry_Int_Tables_number   1
_chemical_formula_structural   LaPm3
_chemical_formula_sum   'La1 Pm3'
_cell_volume   141.64225274
_cell_formula_units_Z   1
loop_
 _symmetry_equiv_pos_site_id
 _symmetry_equiv_pos_as_xyz
  1  'x, y, z'
loop_
 _atom_site_type_symbol
 _atom_site_label
 _atom_site_symmetry_multiplicity
 _atom_site_fract_x
 _atom_site_fract_y
 _atom_site_fract_z
 _atom_site_occupancy
  La  La0  1  0.00000000  0.00000000  0.00000000  1
  Pm  Pm0  1  0.75000000  0.25000000  0.50000000  1
  Pm  Pm1  1  0.25000000  0.75000000  0.50000000  1
  Pm  Pm2  1  0.50000000  0.50000000  0.00000000  1
loop_
_geom_bond_atom_site_label_1
_geom_bond_atom_site_label_2
_geom_bond_distance
_geom_bond_site_symmetry_2
La0 Pm1 3.679643 1_545
La0 Pm0 3.679643 1_455
La0 Pm1 3.679643 1_444
La0 Pm1 3.679643 1_544
La0 Pm0 3.679643 1_454
La0 Pm1 3.679643 1_555
La0 Pm0 3.679643 1_444
La0 Pm0 3.679643 1_555
La0 Pm2 3.698795 1_556
La0 Pm2 3.698795 1_545
La0 Pm2 3.698795 1_455
La0 Pm2 3.698795 1_444
Pm0 Pm2 3.679643 1_556
Pm0 Pm2 3.679643 1_656
Pm0 Pm2 3.679643 1_555
Pm0 Pm2 3.679643 1_545
Pm0 Pm1 3.698795 1_555
Pm0 Pm1 3.698795 1_656
Pm0 Pm1 3.698795 1_645
Pm0 Pm1 3.698795 1_544
Pm1 Pm2 3.679643 1_556
Pm1 Pm2 3.679643 1_555
Pm1 Pm2 3.679643 1_566
Pm1 Pm2 3.679643 1_455
