# generated using pymatgen
data_Ge7(H2O11)2
_symmetry_space_group_name_H-M   'P 1'
_cell_length_a   7.90520730
_cell_length_b   7.90520730
_cell_length_c   7.90520730
_cell_angle_alpha   89.69927057
_cell_angle_beta   89.69927057
_cell_angle_gamma   89.69927057
_symmetry_Int_Tables_number   1
_chemical_formula_structural   Ge7(H2O11)2
_chemical_formula_sum   'Ge7 H4 O22'
_cell_volume   493.99426293
_cell_formula_units_Z   1
loop_
 _symmetry_equiv_pos_site_id
 _symmetry_equiv_pos_as_xyz
  1  'x, y, z'
loop_
 _atom_site_type_symbol
 _atom_site_label
 _atom_site_symmetry_multiplicity
 _atom_site_fract_x
 _atom_site_fract_y
 _atom_site_fract_z
 _atom_site_occupancy
  Ge  Ge0  1  0.14597900  0.83851700  0.14597900  1
  Ge  Ge1  1  0.83851700  0.14597900  0.14597900  1
  Ge  Ge2  1  0.14597900  0.14597900  0.83851700  1
  Ge  Ge3  1  0.85392000  0.85392000  0.85392000  1
  Ge  Ge4  1  0.49295600  0.99654400  0.99654400  1
  Ge  Ge5  1  0.99654400  0.99654400  0.49295600  1
  Ge  Ge6  1  0.99654400  0.49295600  0.99654400  1
  H  H0  1  0.17874500  0.17874500  0.17874500  1
  H  H1  1  0.79910700  0.79910700  0.17687900  1
  H  H2  1  0.17687900  0.79910700  0.79910700  1
  H  H3  1  0.79910700  0.17687900  0.79910700  1
  O  O0  1  0.10749000  0.10749000  0.10749000  1
  O  O1  1  0.88250800  0.88250800  0.10859100  1
  O  O2  1  0.10859100  0.88250800  0.88250800  1
  O  O3  1  0.88250800  0.10859100  0.88250800  1
  O  O4  1  0.37082400  0.86266900  0.12605100  1
  O  O5  1  0.12605100  0.86266900  0.37082400  1
  O  O6  1  0.12713900  0.61445400  0.12713900  1
  O  O7  1  0.61445400  0.12713900  0.12713900  1
  O  O8  1  0.86266900  0.12605100  0.37082400  1
  O  O9  1  0.86266900  0.37082400  0.12605100  1
  O  O10  1  0.37082400  0.12605100  0.86266900  1
  O  O11  1  0.12713900  0.12713900  0.61445400  1
  O  O12  1  0.12605100  0.37082400  0.86266900  1
  O  O13  1  0.62260200  0.86555000  0.86555000  1
  O  O14  1  0.86555000  0.86555000  0.62260200  1
  O  O15  1  0.86555000  0.62260200  0.86555000  1
  O  O16  1  0.59476000  0.02337800  0.59476000  1
  O  O17  1  0.02337800  0.59476000  0.59476000  1
  O  O18  1  0.59476000  0.59476000  0.02337800  1
  O  O19  1  0.67829400  0.67829400  0.25061800  1
  O  O20  1  0.25061800  0.67829400  0.67829400  1
  O  O21  1  0.67829400  0.25061800  0.67829400  1
loop_
_geom_bond_atom_site_label_1
_geom_bond_atom_site_label_2
_geom_bond_distance
_geom_bond_site_symmetry_2
Ge0 O6 1.785360 1_555
Ge0 O5 1.794685 1_555
Ge0 O4 1.794685 1_555
Ge0 O2 2.131689 1_554
Ge0 O1 2.131689 1_455
Ge0 O0 2.166481 1_565
Ge1 O7 1.785360 1_555
Ge1 O8 1.794685 1_555
Ge1 O9 1.794685 1_555
Ge1 O1 2.131689 1_545
Ge1 O3 2.131689 1_554
Ge1 O0 2.166481 1_655
Ge2 O11 1.785360 1_555
Ge2 O12 1.794685 1_555
Ge2 O10 1.794685 1_555
Ge2 O2 2.131689 1_545
Ge2 O3 2.131689 1_455
Ge2 O0 2.166481 1_556
Ge3 O13 1.832295 1_555
Ge3 O15 1.832295 1_555
Ge3 O14 1.832295 1_555
Ge3 O3 2.040911 1_565
Ge3 O1 2.040911 1_556
Ge3 O2 2.040911 1_655
Ge4 O7 1.756736 1_566
Ge4 O10 1.757632 1_565
Ge4 O4 1.757632 1_556
Ge4 O13 1.784381 1_555
Ge5 O11 1.756736 1_665
Ge5 O5 1.757632 1_655
Ge5 O8 1.757632 1_565
Ge5 O14 1.784381 1_555
Ge6 O6 1.756736 1_656
Ge6 O12 1.757632 1_655
Ge6 O9 1.757632 1_556
Ge6 O15 1.784381 1_555
H0 O0 0.980747 1_555
H1 O1 1.076042 1_555
H1 O19 1.470351 1_555
H2 O2 1.076042 1_555
H2 O20 1.470351 1_555
H3 O3 1.076042 1_555
H3 O21 1.470351 1_555
O16 O21 2.031894 1_555
O17 O20 2.031894 1_555
O18 O19 2.031894 1_555
