# generated using pymatgen
data_Ba3ZnSb2O9
_symmetry_space_group_name_H-M   'P 1'
_cell_length_a   5.94574147
_cell_length_b   5.94574147
_cell_length_c   14.67531200
_cell_angle_alpha   90.00000000
_cell_angle_beta   90.00000000
_cell_angle_gamma   119.99999406
_symmetry_Int_Tables_number   1
_chemical_formula_structural   Ba3ZnSb2O9
_chemical_formula_sum   'Ba6 Zn2 Sb4 O18'
_cell_volume   449.29340449
_cell_formula_units_Z   2
loop_
 _symmetry_equiv_pos_site_id
 _symmetry_equiv_pos_as_xyz
  1  'x, y, z'
loop_
 _atom_site_type_symbol
 _atom_site_label
 _atom_site_symmetry_multiplicity
 _atom_site_fract_x
 _atom_site_fract_y
 _atom_site_fract_z
 _atom_site_occupancy
  Ba  Ba0  1  0.33333300  0.66666700  0.08916900  1
  Ba  Ba1  1  0.66666700  0.33333300  0.91083100  1
  Ba  Ba2  1  0.66666700  0.33333300  0.58916900  1
  Ba  Ba3  1  0.33333300  0.66666700  0.41083100  1
  Ba  Ba4  1  0.00000000  0.00000000  0.25000000  1
  Ba  Ba5  1  0.00000000  0.00000000  0.75000000  1
  Zn  Zn0  1  0.00000000  0.00000000  0.00000000  1
  Zn  Zn1  1  0.00000000  0.00000000  0.50000000  1
  Sb  Sb0  1  0.33333300  0.66666700  0.65158600  1
  Sb  Sb1  1  0.66666700  0.33333300  0.34841400  1
  Sb  Sb2  1  0.66666700  0.33333300  0.15158600  1
  Sb  Sb3  1  0.33333300  0.66666700  0.84841400  1
  O  O0  1  0.51844800  0.03689600  0.25000000  1
  O  O1  1  0.48155200  0.96310400  0.75000000  1
  O  O2  1  0.96310400  0.48155200  0.25000000  1
  O  O3  1  0.03689600  0.51844800  0.75000000  1
  O  O4  1  0.51844800  0.48155200  0.25000000  1
  O  O5  1  0.48155200  0.51844800  0.75000000  1
  O  O6  1  0.16911200  0.33822400  0.58438700  1
  O  O7  1  0.83088800  0.66177600  0.41561300  1
  O  O8  1  0.66177600  0.83088800  0.58438700  1
  O  O9  1  0.83088800  0.66177600  0.08438700  1
  O  O10  1  0.33822400  0.16911200  0.41561300  1
  O  O11  1  0.16911200  0.33822400  0.91561300  1
  O  O12  1  0.16911200  0.83088800  0.58438700  1
  O  O13  1  0.33822400  0.16911200  0.08438700  1
  O  O14  1  0.83088800  0.16911200  0.41561300  1
  O  O15  1  0.66177600  0.83088800  0.91561300  1
  O  O16  1  0.83088800  0.16911200  0.08438700  1
  O  O17  1  0.16911200  0.83088800  0.91561300  1
loop_
_geom_bond_atom_site_label_1
_geom_bond_atom_site_label_2
_geom_bond_distance
_geom_bond_site_symmetry_2
Ba0 O13 2.973803 1_565
Ba0 O9 2.973803 1_455
Ba0 O16 2.973806 1_565
Ba0 O16 2.973806 1_455
Ba0 O9 2.973809 1_555
Ba0 O13 2.973809 1_555
Ba0 O0 3.033975 1_565
Ba0 O2 3.033975 1_455
Ba0 O4 3.033978 1_555
Ba0 O17 3.057337 1_554
Ba0 O15 3.057340 1_554
Ba0 O11 3.057340 1_554
Ba1 O11 2.973803 1_655
Ba1 O15 2.973803 1_545
Ba1 O17 2.973806 1_655
Ba1 O17 2.973806 1_545
Ba1 O15 2.973809 1_555
Ba1 O11 2.973809 1_555
Ba1 O1 3.033975 1_545
Ba1 O3 3.033975 1_655
Ba1 O5 3.033978 1_555
Ba1 O16 3.057337 1_556
Ba1 O13 3.057340 1_556
Ba1 O9 3.057340 1_556
Ba2 O6 2.973803 1_655
Ba2 O8 2.973803 1_545
Ba2 O12 2.973806 1_655
Ba2 O12 2.973806 1_545
Ba2 O8 2.973809 1_555
Ba2 O6 2.973809 1_555
Ba2 O1 3.033975 1_545
Ba2 O3 3.033975 1_655
Ba2 O5 3.033978 1_555
Ba2 O14 3.057337 1_555
Ba2 O10 3.057340 1_555
Ba2 O7 3.057340 1_555
Ba3 O10 2.973803 1_565
Ba3 O7 2.973803 1_455
Ba3 O14 2.973806 1_455
Ba3 O14 2.973806 1_565
Ba3 O7 2.973809 1_555
Ba3 O10 2.973809 1_555
Ba3 O0 3.033975 1_565
Ba3 O2 3.033975 1_455
Ba3 O4 3.033978 1_555
Ba3 O12 3.057337 1_555
Ba3 O8 3.057340 1_555
Ba3 O6 3.057340 1_555
Ba4 O2 2.978935 1_455
Ba4 O0 2.978935 1_455
Ba4 O2 2.978935 1_445
Ba4 O0 2.978935 1_555
Ba4 O4 2.978935 1_555
Ba4 O4 2.978935 1_445
Ba4 O14 2.989987 1_455
Ba4 O16 2.989987 1_455
Ba4 O10 2.989987 1_555
Ba4 O9 2.989987 1_445
Ba4 O13 2.989987 1_555
Ba4 O7 2.989987 1_445
Ba5 O3 2.978935 1_545
Ba5 O1 2.978935 1_545
Ba5 O1 2.978935 1_445
Ba5 O3 2.978935 1_555
Ba5 O5 2.978935 1_555
Ba5 O5 2.978935 1_445
Ba5 O17 2.989987 1_545
Ba5 O12 2.989987 1_545
Ba5 O11 2.989987 1_555
Ba5 O15 2.989987 1_445
Ba5 O6 2.989987 1_555
Ba5 O8 2.989987 1_445
O0 Sb1 2.101376 1_555
O0 Sb2 2.101376 1_555
O1 Sb0 2.101376 1_555
O1 Sb3 2.101376 1_555
O2 Sb1 2.101376 1_555
O2 Sb2 2.101376 1_555
O3 Sb0 2.101376 1_555
O3 Sb3 2.101376 1_555
O4 Sb2 2.101380 1_555
O4 Sb1 2.101380 1_555
O5 Sb0 2.101380 1_555
O5 Sb3 2.101380 1_555
O6 Sb0 1.957729 1_555
O6 Zn1 2.136988 1_555
O7 Sb1 1.957729 1_555
O7 Zn1 2.136988 1_665
O8 Sb0 1.957729 1_555
O8 Zn1 2.136988 1_665
O9 Sb2 1.957729 1_555
O9 Zn0 2.136988 1_665
O10 Sb1 1.957729 1_555
O10 Zn1 2.136988 1_555
O11 Sb3 1.957729 1_555
O11 Zn0 2.136988 1_556
O12 Sb0 1.957725 1_555
O12 Zn1 2.136988 1_565
O13 Sb2 1.957729 1_555
O13 Zn0 2.136988 1_555
O14 Sb1 1.957725 1_555
O14 Zn1 2.136988 1_655
O15 Sb3 1.957729 1_555
O15 Zn0 2.136988 1_666
O16 Sb2 1.957725 1_555
O16 Zn0 2.136988 1_655
O17 Sb3 1.957725 1_555
O17 Zn0 2.136988 1_566
