# generated using pymatgen
data_U2CuSi2O17
_symmetry_space_group_name_H-M   'P 1'
_cell_length_a   6.79740300
_cell_length_b   7.04881175
_cell_length_c   7.85886743
_cell_angle_alpha   73.03481718
_cell_angle_beta   71.55379303
_cell_angle_gamma   86.39993119
_symmetry_Int_Tables_number   1
_chemical_formula_structural   U2CuSi2O17
_chemical_formula_sum   'U2 Cu1 Si2 O17'
_cell_volume   341.47459680
_cell_formula_units_Z   1
loop_
 _symmetry_equiv_pos_site_id
 _symmetry_equiv_pos_as_xyz
  1  'x, y, z'
loop_
 _atom_site_type_symbol
 _atom_site_label
 _atom_site_symmetry_multiplicity
 _atom_site_fract_x
 _atom_site_fract_y
 _atom_site_fract_z
 _atom_site_occupancy
  U  U0  1  0.63741300  0.24138500  0.00023500  1
  U  U1  1  0.36258700  0.75861500  0.99976500  1
  Cu  Cu0  1  0.00000000  0.50000000  0.50000000  1
  Si  Si0  1  0.85084200  0.74926400  0.93938100  1
  Si  Si1  1  0.14915800  0.25073600  0.06061900  1
  O  O0  1  0.69197200  0.33535100  0.74792300  1
  O  O1  1  0.30802800  0.66464900  0.25207700  1
  O  O2  1  0.43079500  0.86318200  0.73604900  1
  O  O3  1  0.56920500  0.13681800  0.26395100  1
  O  O4  1  0.68246900  0.56795700  0.99767200  1
  O  O5  1  0.31753100  0.43204300  0.00232800  1
  O  O6  1  0.69800900  0.93511500  0.94738200  1
  O  O7  1  0.30199100  0.06488500  0.05261800  1
  O  O8  1  0.01726500  0.74756700  0.71650100  1
  O  O9  1  0.98273500  0.25243300  0.28349900  1
  O  O10  1  0.03023000  0.74214000  0.03330200  1
  O  O11  1  0.96977000  0.25786000  0.96669800  1
  O  O12  1  0.17809800  0.40323800  0.62174400  1
  O  O13  1  0.82190200  0.59676200  0.37825600  1
  O  O14  1  0.07032700  0.26796200  0.41153300  1
  O  O15  1  0.92967300  0.73203800  0.58846700  1
  O  O16  1  0.50000000  0.00000000  0.50000000  1
loop_
_geom_bond_atom_site_label_1
_geom_bond_atom_site_label_2
_geom_bond_distance
_geom_bond_site_symmetry_2
Cu0 O12 1.759158 1_555
Cu0 O13 1.759158 1_455
Cu0 O15 1.934466 1_455
Cu0 O14 1.934466 1_555
Cu0 O1 2.435372 1_555
Cu0 O0 2.435372 1_455
O0 U0 1.818547 1_556
O1 U1 1.818547 1_554
O2 U1 1.896548 1_555
O3 U0 1.896548 1_555
O4 Si0 1.631948 1_555
O4 U0 2.334679 1_556
O4 U1 2.481438 1_555
O5 Si1 1.631948 1_555
O5 U1 2.334679 1_554
O5 U0 2.481438 1_555
O6 Si0 1.623329 1_555
O6 U0 2.303505 1_566
O6 U1 2.525678 1_555
O7 Si1 1.623329 1_555
O7 U1 2.303505 1_544
O7 U0 2.525678 1_555
O8 Si0 1.761960 1_455
O9 Si1 1.761960 1_655
O10 Si0 1.604509 1_454
O10 U1 2.196601 1_554
O11 Si1 1.604509 1_656
O11 U0 2.196601 1_556
O14 O9 1.352962 1_455
O15 O8 1.352962 1_655
O16 O2 1.747386 1_545
O16 O3 1.747386 1_555
