# generated using pymatgen
data_MgS8(O5F2)4
_symmetry_space_group_name_H-M   'P 1'
_cell_length_a   8.02713012
_cell_length_b   8.02713012
_cell_length_c   9.85522202
_cell_angle_alpha   90.00000000
_cell_angle_beta   90.00000000
_cell_angle_gamma   90.00000000
_symmetry_Int_Tables_number   1
_chemical_formula_structural   MgS8(O5F2)4
_chemical_formula_sum   'Mg1 S8 O20 F8'
_cell_volume   635.01943685
_cell_formula_units_Z   1
loop_
 _symmetry_equiv_pos_site_id
 _symmetry_equiv_pos_as_xyz
  1  'x, y, z'
loop_
 _atom_site_type_symbol
 _atom_site_label
 _atom_site_symmetry_multiplicity
 _atom_site_fract_x
 _atom_site_fract_y
 _atom_site_fract_z
 _atom_site_occupancy
  Mg  Mg0  1  0.50000000  0.50000000  0.00000000  1
  S  S0  1  0.58162039  0.16176338  0.63328197  1
  S  S1  1  0.41837961  0.83823662  0.63328197  1
  S  S2  1  0.32980866  0.90489488  0.13411407  1
  S  S3  1  0.83823662  0.58162039  0.36671803  1
  S  S4  1  0.16176338  0.41837961  0.36671803  1
  S  S5  1  0.90489488  0.67019134  0.86588593  1
  S  S6  1  0.09510512  0.32980866  0.86588593  1
  S  S7  1  0.67019134  0.09510512  0.13411407  1
  O  O0  1  0.51623911  0.79491626  0.51883292  1
  O  O1  1  0.37353601  0.72801129  0.73931941  1
  O  O2  1  0.20248485  0.90138975  0.23598706  1
  O  O3  1  0.72801129  0.62646399  0.26068059  1
  O  O4  1  0.27198871  0.37353601  0.26068059  1
  O  O5  1  0.90138975  0.79751515  0.76401294  1
  O  O6  1  0.09861025  0.20248485  0.76401294  1
  O  O7  1  0.79751515  0.09861025  0.23598706  1
  O  O8  1  0.50000000  -0.00000000  0.20238719  1
  O  O9  1  0.00000000  0.50000000  0.79761281  1
  O  O10  1  0.00000000  0.50000000  0.28806952  1
  O  O11  1  0.50000000  -0.00000000  0.71193048  1
  O  O12  1  0.69685536  0.03661882  -0.00130749  1
  O  O13  1  0.48376089  0.20508374  0.51883292  1
  O  O14  1  0.96338118  0.69685536  0.00130749  1
  O  O15  1  0.20508374  0.51623911  0.48116708  1
  O  O16  1  0.79491626  0.48376089  0.48116708  1
  O  O17  1  0.30314464  0.96338118  -0.00130749  1
  O  O18  1  0.03661882  0.30314464  0.00130749  1
  O  O19  1  0.62646399  0.27198871  0.73931941  1
  F  F0  1  0.61260562  0.33265372  0.10434666  1
  F  F1  1  0.33265372  0.38739438  0.89565334  1
  F  F2  1  0.66734628  0.61260562  0.89565334  1
  F  F3  1  0.07668234  0.25454100  0.41961242  1
  F  F4  1  0.92331766  0.74545900  0.41961242  1
  F  F5  1  0.38739438  0.66734628  0.10434666  1
  F  F6  1  0.25454100  0.92331766  0.58038758  1
  F  F7  1  0.74545900  0.07668234  0.58038758  1
loop_
_geom_bond_atom_site_label_1
_geom_bond_atom_site_label_2
_geom_bond_distance
_geom_bond_site_symmetry_2
O0 S1 1.417810 1_555
O1 S1 1.415806 1_555
O2 S2 1.432950 1_555
O3 S3 1.415806 1_555
O4 S4 1.415806 1_555
O5 S5 1.432950 1_555
O6 S6 1.432950 1_555
O7 S7 1.432950 1_555
O8 S2 1.703495 1_545
O8 S7 1.703495 1_555
O9 S6 1.703495 1_555
O9 S5 1.703495 1_455
O10 S4 1.648067 1_555
O10 S3 1.648067 1_455
O11 S1 1.648067 1_545
O11 S0 1.648067 1_555
O12 S7 1.430875 1_555
O13 S0 1.417810 1_555
O14 S5 1.430875 1_554
O15 S4 1.417810 1_555
O16 S3 1.417810 1_555
O17 S2 1.430875 1_555
O18 S6 1.430875 1_554
O19 S0 1.415806 1_555
F0 Mg0 1.918083 1_555
F0 S7 1.983872 1_555
F1 Mg0 1.918083 1_556
F1 S6 1.983872 1_555
F2 Mg0 1.918083 1_556
F2 S5 1.983872 1_555
F3 S4 1.570923 1_555
F4 S3 1.570923 1_555
F5 Mg0 1.918083 1_555
F5 S2 1.983872 1_555
F6 S1 1.570923 1_555
F7 S0 1.570923 1_555
