# generated using pymatgen
data_Sm(Ni2Sn)2
_symmetry_space_group_name_H-M   'P 1'
_cell_length_a   6.71814651
_cell_length_b   6.71814651
_cell_length_c   6.71814651
_cell_angle_alpha   107.69357689
_cell_angle_beta   110.36728819
_cell_angle_gamma   110.36728819
_symmetry_Int_Tables_number   1
_chemical_formula_structural   Sm(Ni2Sn)2
_chemical_formula_sum   'Sm2 Ni8 Sn4'
_cell_volume   233.24592835
_cell_formula_units_Z   2
loop_
 _symmetry_equiv_pos_site_id
 _symmetry_equiv_pos_as_xyz
  1  'x, y, z'
loop_
 _atom_site_type_symbol
 _atom_site_label
 _atom_site_symmetry_multiplicity
 _atom_site_fract_x
 _atom_site_fract_y
 _atom_site_fract_z
 _atom_site_occupancy
  Sm  Sm0  1  0.50000000  0.00000000  0.50000000  1
  Sm  Sm1  1  0.50000000  0.50000000  0.00000000  1
  Ni  Ni0  1  0.71911100  0.44296500  0.44414200  1
  Ni  Ni1  1  0.28088900  0.72503000  0.72385400  1
  Ni  Ni2  1  0.99882300  0.94296500  0.22385400  1
  Ni  Ni3  1  0.00117700  0.22503000  0.94414200  1
  Ni  Ni4  1  0.00117700  0.27614600  0.55703500  1
  Ni  Ni5  1  0.99882300  0.55585800  0.27497000  1
  Ni  Ni6  1  0.28088900  0.05585800  0.05703500  1
  Ni  Ni7  1  0.71911100  0.77614600  0.77497000  1
  Sn  Sn0  1  0.31603900  0.40801900  0.40801900  1
  Sn  Sn1  1  0.68396100  0.09198100  0.09198100  1
  Sn  Sn2  1  0.00000000  0.90801900  0.59198100  1
  Sn  Sn3  1  0.00000000  0.59198100  0.90801900  1
loop_
_geom_bond_atom_site_label_1
_geom_bond_atom_site_label_2
_geom_bond_distance
_geom_bond_site_symmetry_2
Sm0 Sn1 3.504163 1_555
Sm0 Sn0 3.504163 1_555
Sm0 Sn3 3.504167 1_655
Sm0 Sn2 3.504167 1_545
Sm0 Sn2 3.504167 1_645
Sm0 Sn3 3.504167 1_544
Sm0 Sn1 3.504168 1_556
Sm0 Sn0 3.504168 1_545
Sm1 Sn1 3.504163 1_555
Sm1 Sn0 3.504163 1_555
Sm1 Sn3 3.504167 1_554
Sm1 Sn2 3.504167 1_655
Sm1 Sn3 3.504167 1_654
Sm1 Sn2 3.504167 1_544
Sm1 Sn1 3.504168 1_565
Sm1 Sn0 3.504168 1_554
Ni0 Ni5 2.533100 1_555
Ni0 Ni4 2.533106 1_655
Ni0 Sn0 2.551889 1_555
Ni0 Ni7 2.631729 1_555
Ni0 Sn3 2.640120 1_655
Ni0 Sn2 2.648398 1_655
Ni0 Sn1 2.654361 1_555
Ni0 Ni6 2.724721 1_555
Ni0 Sm0 3.029485 1_555
Ni0 Sm1 3.040895 1_555
Ni1 Ni4 2.533100 1_555
Ni1 Ni5 2.533101 1_455
Ni1 Sn1 2.551895 1_566
Ni1 Ni6 2.631729 1_566
Ni1 Sn2 2.640125 1_555
Ni1 Sn3 2.648397 1_555
Ni1 Sn0 2.654365 1_555
Ni1 Ni7 2.724717 1_555
Ni1 Sm0 3.029489 1_565
Ni1 Sm1 3.040890 1_556
Ni2 Ni7 2.533100 1_554
Ni2 Ni6 2.533106 1_665
Ni2 Sn2 2.551896 1_655
Ni2 Ni4 2.631725 1_665
Ni2 Sn1 2.640125 1_565
Ni2 Sn0 2.648400 1_665
Ni2 Sn3 2.654364 1_654
Ni2 Ni5 2.724724 1_555
Ni2 Sm1 3.029485 1_555
Ni2 Sm0 3.040895 1_665
Ni3 Ni6 2.533100 1_556
Ni3 Ni7 2.533101 1_445
Ni3 Sn3 2.551902 1_555
Ni3 Ni5 2.631733 1_456
Ni3 Sn0 2.640120 1_556
Ni3 Sn1 2.648403 1_456
Ni3 Sn2 2.654361 1_545
Ni3 Ni4 2.724724 1_555
Ni3 Sm1 3.029486 1_556
Ni3 Sm0 3.040896 1_455
Ni4 Sn2 2.551896 1_545
Ni4 Sn0 2.640125 1_555
Ni4 Sn1 2.648400 1_455
Ni4 Sn3 2.654364 1_555
Ni4 Sm1 3.029485 1_556
Ni4 Sm0 3.040895 1_455
Ni5 Sn3 2.551902 1_654
Ni5 Sn1 2.640120 1_555
Ni5 Sn0 2.648403 1_655
Ni5 Sn2 2.654361 1_655
Ni5 Sm1 3.029486 1_555
Ni5 Sm0 3.040896 1_665
Ni6 Sn1 2.551889 1_555
Ni6 Sn3 2.640120 1_544
Ni6 Sn2 2.648398 1_544
Ni6 Sn0 2.654361 1_555
Ni6 Sm0 3.029485 1_555
Ni6 Sm1 3.040895 1_555
Ni7 Sn0 2.551895 1_555
Ni7 Sn2 2.640125 1_655
Ni7 Sn3 2.648397 1_655
Ni7 Sn1 2.654365 1_566
Ni7 Sm0 3.029489 1_565
Ni7 Sm1 3.040890 1_556
