# generated using pymatgen
data_Rb4Li(Se2O7)2
_symmetry_space_group_name_H-M   'P 1'
_cell_length_a   8.22692768
_cell_length_b   8.40831992
_cell_length_c   7.77349859
_cell_angle_alpha   87.16584800
_cell_angle_beta   87.18579050
_cell_angle_gamma   57.92022596
_symmetry_Int_Tables_number   1
_chemical_formula_structural   Rb4Li(Se2O7)2
_chemical_formula_sum   'Rb4 Li1 Se4 O14'
_cell_volume   454.89981440
_cell_formula_units_Z   1
loop_
 _symmetry_equiv_pos_site_id
 _symmetry_equiv_pos_as_xyz
  1  'x, y, z'
loop_
 _atom_site_type_symbol
 _atom_site_label
 _atom_site_symmetry_multiplicity
 _atom_site_fract_x
 _atom_site_fract_y
 _atom_site_fract_z
 _atom_site_occupancy
  Rb  Rb0  1  0.21848800  0.51617700  0.36316300  1
  Rb  Rb1  1  0.50545900  0.80696400  0.15179000  1
  Rb  Rb2  1  0.78150000  0.48383500  0.63686800  1
  Rb  Rb3  1  0.49452400  0.19302500  0.84817500  1
  Li  Li0  1  0.00003900  0.99990900  0.99994300  1
  Se  Se0  1  0.70921000  0.07571300  0.36423300  1
  Se  Se1  1  0.91073400  0.30935000  0.15310900  1
  Se  Se2  1  0.29055700  0.92443900  0.63587000  1
  Se  Se3  1  0.08932600  0.69062000  0.84676000  1
  O  O0  1  0.63013600  0.24938700  0.50200700  1
  O  O1  1  0.73154900  0.40108800  0.01462100  1
  O  O2  1  0.36983700  0.75070200  0.49802900  1
  O  O3  1  0.26846800  0.59878900  0.98550600  1
  O  O4  1  0.54266800  0.13017200  0.22060500  1
  O  O5  1  0.90653200  0.47799100  0.26327400  1
  O  O6  1  0.45738000  0.86984500  0.77932100  1
  O  O7  1  0.09341500  0.52164600  0.73687900  1
  O  O8  1  0.79668100  0.86462000  0.45448400  1
  O  O9  1  0.11748500  0.16201300  0.04789000  1
  O  O10  1  0.20351100  0.13538700  0.54534800  1
  O  O11  1  0.88248700  0.83796300  0.95219700  1
  O  O12  1  0.90897700  0.06307200  0.25187200  1
  O  O13  1  0.09103600  0.93729100  0.74805400  1
loop_
_geom_bond_atom_site_label_1
_geom_bond_atom_site_label_2
_geom_bond_distance
_geom_bond_site_symmetry_2
Li0 O13 2.052068 1_555
Li0 O12 2.052969 1_466
Li0 O11 2.100297 1_455
Li0 O9 2.101148 1_566
O0 Se0 1.667297 1_555
O0 Rb3 2.975088 1_555
O0 Rb2 3.078281 1_555
O0 Rb0 3.117066 1_555
O1 Se1 1.671202 1_555
O1 Rb2 3.042851 1_554
O1 Rb1 3.109006 1_555
O2 Se2 1.667836 1_555
O2 Rb1 2.975344 1_555
O2 Rb0 3.078767 1_555
O2 Rb2 3.117222 1_555
O3 Se3 1.672269 1_555
O3 Rb0 3.041907 1_556
O3 Rb3 3.108720 1_555
O4 Se0 1.663348 1_555
O4 Rb3 2.925174 1_554
O4 Rb1 2.967980 1_545
O4 Rb0 3.121878 1_555
O5 Se1 1.676412 1_555
O5 Rb0 2.896249 1_655
O5 Rb2 3.026808 1_555
O5 Rb1 3.104631 1_555
O6 Se2 1.663810 1_555
O6 Rb1 2.925440 1_556
O6 Rb3 2.967499 1_565
O6 Rb2 3.121465 1_555
O7 Se3 1.678028 1_555
O7 Rb2 2.894353 1_455
O7 Rb0 3.028168 1_555
O7 Rb3 3.103466 1_555
O8 Se0 1.652319 1_565
O8 Rb0 3.208475 1_655
O8 Rb2 3.497913 1_555
O9 Se1 1.679950 1_455
O9 Rb1 3.105763 1_545
O10 Se2 1.652548 1_545
O10 Rb2 3.209803 1_455
O10 Rb0 3.496555 1_555
O11 Se3 1.681196 1_655
O11 Rb3 3.106008 1_565
O12 Se0 1.777036 1_555
O12 Se1 2.179738 1_555
O13 Se2 1.773938 1_555
O13 Se3 2.182506 1_555
