# generated using pymatgen
data_U2Sb4Pd
_symmetry_space_group_name_H-M   'P 1'
_cell_length_a   4.41346114
_cell_length_b   4.41346114
_cell_length_c   9.39155157
_cell_angle_alpha   90.00000000
_cell_angle_beta   90.00000000
_cell_angle_gamma   90.00000000
_symmetry_Int_Tables_number   1
_chemical_formula_structural   U2Sb4Pd
_chemical_formula_sum   'U2 Sb4 Pd1'
_cell_volume   182.93464488
_cell_formula_units_Z   1
loop_
 _symmetry_equiv_pos_site_id
 _symmetry_equiv_pos_as_xyz
  1  'x, y, z'
loop_
 _atom_site_type_symbol
 _atom_site_label
 _atom_site_symmetry_multiplicity
 _atom_site_fract_x
 _atom_site_fract_y
 _atom_site_fract_z
 _atom_site_occupancy
  U  U0  1  0.50000000  0.00000000  0.76300457  1
  U  U1  1  0.00000000  0.50000000  0.23699543  1
  Sb  Sb0  1  0.50000000  0.00000000  0.15554512  1
  Sb  Sb1  1  -0.00000000  0.50000000  0.84445488  1
  Sb  Sb2  1  0.50000000  0.50000000  0.50000000  1
  Sb  Sb3  1  0.00000000  0.00000000  0.50000000  1
  Pd  Pd0  1  0.50000000  0.50000000  0.00000000  1
loop_
_geom_bond_atom_site_label_1
_geom_bond_atom_site_label_2
_geom_bond_distance
_geom_bond_site_symmetry_2
Sb0 U1 3.213170 1_545
Sb0 U1 3.213170 1_645
Sb0 U1 3.213170 1_555
Sb0 U1 3.213170 1_655
Sb1 U0 3.213170 1_465
Sb1 U0 3.213170 1_565
Sb1 U0 3.213170 1_555
Sb1 U0 3.213170 1_455
Sb2 Sb3 3.120788 1_565
Sb2 Sb3 3.120788 1_655
Sb2 Sb3 3.120788 1_555
Sb2 Sb3 3.120788 1_665
Sb2 U0 3.312199 1_565
Sb2 U0 3.312199 1_555
Sb2 U1 3.312199 1_655
Sb2 U1 3.312199 1_555
Sb3 U0 3.312199 1_555
Sb3 U0 3.312199 1_455
Sb3 U1 3.312199 1_545
Sb3 U1 3.312199 1_555
Pd0 Sb1 2.646436 1_654
Pd0 Sb1 2.646436 1_554
Pd0 Sb0 2.646436 1_555
Pd0 Sb0 2.646436 1_565
Pd0 U1 3.134269 1_555
Pd0 U0 3.134269 1_564
Pd0 U0 3.134269 1_554
Pd0 U1 3.134269 1_655
