# generated using pymatgen
data_SbTe(N3F2)3
_symmetry_space_group_name_H-M   'P 1'
_cell_length_a   8.86479400
_cell_length_b   9.60030200
_cell_length_c   14.07254150
_cell_angle_alpha   80.13204739
_cell_angle_beta   90.00000000
_cell_angle_gamma   90.00000000
_symmetry_Int_Tables_number   1
_chemical_formula_structural   SbTe(N3F2)3
_chemical_formula_sum   'Sb4 Te4 N36 F24'
_cell_volume   1179.92074572
_cell_formula_units_Z   4
loop_
 _symmetry_equiv_pos_site_id
 _symmetry_equiv_pos_as_xyz
  1  'x, y, z'
loop_
 _atom_site_type_symbol
 _atom_site_label
 _atom_site_symmetry_multiplicity
 _atom_site_fract_x
 _atom_site_fract_y
 _atom_site_fract_z
 _atom_site_occupancy
  Sb  Sb0  1  0.24653500  0.16703100  0.92204800  1
  Sb  Sb1  1  0.74653500  0.83296900  0.57795200  1
  Sb  Sb2  1  0.75346500  0.83296900  0.07795200  1
  Sb  Sb3  1  0.25346500  0.16703100  0.42204800  1
  Te  Te0  1  0.23023500  0.88127400  0.20907900  1
  Te  Te1  1  0.73023500  0.11872600  0.29092100  1
  Te  Te2  1  0.76976500  0.11872600  0.79092100  1
  Te  Te3  1  0.26976500  0.88127400  0.70907900  1
  N  N0  1  0.06316000  0.83327300  0.30887300  1
  N  N1  1  0.56316000  0.16672700  0.19112700  1
  N  N2  1  0.93684000  0.16672700  0.69112700  1
  N  N3  1  0.43684000  0.83327300  0.80887300  1
  N  N4  1  0.02486300  0.70777100  0.33141900  1
  N  N5  1  0.52486300  0.29222900  0.16858100  1
  N  N6  1  0.97513700  0.29222900  0.66858100  1
  N  N7  1  0.47513700  0.70777100  0.83141900  1
  N  N8  1  0.97889300  0.59651900  0.35770500  1
  N  N9  1  0.47889300  0.40348100  0.14229500  1
  N  N10  1  0.02110700  0.40348100  0.64229500  1
  N  N11  1  0.52110700  0.59651900  0.85770500  1
  N  N12  1  0.40966300  0.83998700  0.30052200  1
  N  N13  1  0.90966300  0.16001300  0.19947800  1
  N  N14  1  0.59033700  0.16001300  0.69947800  1
  N  N15  1  0.09033700  0.83998700  0.80052200  1
  N  N16  1  0.46454000  0.71937500  0.31375000  1
  N  N17  1  0.96454000  0.28062500  0.18625000  1
  N  N18  1  0.53546000  0.28062500  0.68625000  1
  N  N19  1  0.03546000  0.71937500  0.81375000  1
  N  N20  1  0.52602400  0.61331700  0.33142700  1
  N  N21  1  0.02602400  0.38668300  0.16857300  1
  N  N22  1  0.47397600  0.38668300  0.66857300  1
  N  N23  1  0.97397600  0.61331700  0.83142700  1
  N  N24  1  0.23669400  0.68213800  0.17881600  1
  N  N25  1  0.73669400  0.31786200  0.32118400  1
  N  N26  1  0.76330600  0.31786200  0.82118400  1
  N  N27  1  0.26330600  0.68213800  0.67881600  1
  N  N28  1  0.22899500  0.66527400  0.09367300  1
  N  N29  1  0.72899500  0.33472600  0.40632700  1
  N  N30  1  0.77100500  0.33472600  0.90632700  1
  N  N31  1  0.27100500  0.66527400  0.59367300  1
  N  N32  1  0.22311000  0.63498300  0.01870600  1
  N  N33  1  0.72311000  0.36501700  0.48129400  1
  N  N34  1  0.77689000  0.36501700  0.98129400  1
  N  N35  1  0.27689000  0.63498300  0.51870600  1
  F  F0  1  0.21989000  0.35650800  0.85809600  1
  F  F1  1  0.71989000  0.64349200  0.64190400  1
  F  F2  1  0.78011000  0.64349200  0.14190400  1
  F  F3  1  0.28011000  0.35650800  0.35809600  1
  F  F4  1  0.26916500  0.97446900  0.98574400  1
  F  F5  1  0.76916500  0.02553100  0.51425600  1
  F  F6  1  0.73083500  0.02553100  0.01425600  1
  F  F7  1  0.23083500  0.97446900  0.48574400  1
  F  F8  1  0.26330900  0.10257800  0.79738000  1
  F  F9  1  0.76330900  0.89742200  0.70262000  1
  F  F10  1  0.73669100  0.89742200  0.20262000  1
  F  F11  1  0.23669100  0.10257800  0.29738000  1
  F  F12  1  0.03086200  0.13903500  0.91458900  1
  F  F13  1  0.53086200  0.86096500  0.58541100  1
  F  F14  1  0.96913800  0.86096500  0.08541100  1
  F  F15  1  0.46913800  0.13903500  0.41458900  1
  F  F16  1  0.46103600  0.19206200  0.91973200  1
  F  F17  1  0.96103600  0.80793800  0.58026800  1
  F  F18  1  0.53896400  0.80793800  0.08026800  1
  F  F19  1  0.03896400  0.19206200  0.41973200  1
  F  F20  1  0.22917000  0.21954300  0.04669500  1
  F  F21  1  0.72917000  0.78045700  0.45330500  1
  F  F22  1  0.77083000  0.78045700  0.95330500  1
  F  F23  1  0.27083000  0.21954300  0.54669500  1
loop_
_geom_bond_atom_site_label_1
_geom_bond_atom_site_label_2
_geom_bond_distance
_geom_bond_site_symmetry_2
N0 N4 1.239587 1_555
N0 Te0 2.038717 1_555
N1 N5 1.239587 1_555
N1 Te1 2.038717 1_555
N2 N6 1.239587 1_555
N2 Te2 2.038717 1_555
N3 N7 1.239587 1_555
N3 Te3 2.038717 1_555
N4 N8 1.143775 1_455
N5 N9 1.143775 1_555
N10 N6 1.143775 1_455
N11 N7 1.143775 1_555
N12 N16 1.240237 1_555
N12 Te0 2.041620 1_555
N13 N17 1.240237 1_555
N13 Te1 2.041620 1_555
N14 N18 1.240237 1_555
N14 Te2 2.041620 1_555
N15 N19 1.240237 1_555
N15 Te3 2.041620 1_555
N16 N20 1.144049 1_555
N17 N21 1.144049 1_655
N18 N22 1.144049 1_555
N19 N23 1.144049 1_455
N24 N28 1.238140 1_555
N24 Te0 2.029424 1_555
N25 N29 1.238140 1_555
N25 Te1 2.029424 1_555
N26 N30 1.238140 1_555
N26 Te2 2.029424 1_555
N27 N31 1.238140 1_555
N27 Te3 2.029424 1_555
N28 N32 1.142548 1_555
N29 N33 1.142548 1_555
N30 N34 1.142548 1_555
N31 N35 1.142548 1_555
F0 Sb0 1.900923 1_555
F1 Sb1 1.900923 1_555
F2 Sb2 1.900923 1_555
F3 Sb3 1.900923 1_555
F4 Sb0 1.921786 1_565
F5 Sb1 1.921786 1_545
F6 Sb2 1.921786 1_545
F7 Sb3 1.921786 1_565
F8 Sb0 1.963409 1_555
F8 Te3 2.639344 1_545
F9 Sb1 1.963409 1_555
F9 Te2 2.639344 1_565
F10 Sb2 1.963409 1_555
F10 Te1 2.639344 1_565
F11 Sb3 1.963409 1_555
F11 Te0 2.639344 1_545
F12 Sb0 1.936046 1_555
F13 Sb1 1.936046 1_555
F14 Sb2 1.936046 1_555
F15 Sb3 1.936046 1_555
F16 Sb0 1.916208 1_555
F17 Sb1 1.916208 1_555
F18 Sb2 1.916208 1_555
F19 Sb3 1.916208 1_555
F20 Sb0 1.912540 1_554
F21 Sb1 1.912540 1_555
F22 Sb2 1.912540 1_556
F23 Sb3 1.912540 1_555
