# generated using pymatgen
data_Y4MnS7
_symmetry_space_group_name_H-M   'P 1'
_cell_length_a   6.56044994
_cell_length_b   6.56044994
_cell_length_c   11.46136235
_cell_angle_alpha   75.50725838
_cell_angle_beta   75.50725838
_cell_angle_gamma   33.71736551
_symmetry_Int_Tables_number   1
_chemical_formula_structural   Y4MnS7
_chemical_formula_sum   'Y4 Mn1 S7'
_cell_volume   264.29651317
_cell_formula_units_Z   1
loop_
 _symmetry_equiv_pos_site_id
 _symmetry_equiv_pos_as_xyz
  1  'x, y, z'
loop_
 _atom_site_type_symbol
 _atom_site_label
 _atom_site_symmetry_multiplicity
 _atom_site_fract_x
 _atom_site_fract_y
 _atom_site_fract_z
 _atom_site_occupancy
  Y  Y0  1  0.69243479  0.69243479  0.20530772  1
  Y  Y1  1  0.30684838  0.30684838  0.80089096  1
  Y  Y2  1  0.99950434  0.99950434  0.00604736  1
  Y  Y3  1  0.11363370  0.11363370  0.56729378  1
  Mn  Mn0  1  0.88511008  0.88511008  0.42215752  1
  S  S0  1  0.74367150  0.74367150  0.63951693  1
  S  S1  1  0.26817929  0.26817929  0.35301121  1
  S  S2  1  0.33877633  0.33877633  0.05151137  1
  S  S3  1  0.65958675  0.65958675  0.94779604  1
  S  S4  1  0.03483696  0.03483696  0.22494745  1
  S  S5  1  0.96249577  0.96249577  0.78503750  1
  S  S6  1  0.49491813  0.49491813  0.49648115  1
loop_
_geom_bond_atom_site_label_1
_geom_bond_atom_site_label_2
_geom_bond_distance
_geom_bond_site_symmetry_2
Mn0 S4 2.534023 1_665
Mn0 S6 2.619375 1_565
Mn0 S6 2.619375 1_655
Mn0 S1 2.648109 1_655
Mn0 S1 2.648109 1_565
Mn0 S0 2.654541 1_555
S0 Y3 2.770985 1_655
S0 Y3 2.770985 1_565
S0 Y1 2.904745 1_565
S0 Y1 2.904745 1_655
S1 Y3 2.702811 1_555
S1 Y0 2.869234 1_455
S1 Y0 2.869234 1_545
S2 Y2 2.723016 1_455
S2 Y2 2.723016 1_545
S2 Y0 2.899972 1_545
S2 Y0 2.899972 1_455
S2 Y1 3.002333 1_554
S3 Y2 2.721122 1_546
S3 Y2 2.721122 1_456
S3 Y1 2.871577 1_565
S3 Y1 2.871577 1_655
S3 Y0 3.085090 1_556
S4 Y2 2.659614 1_445
S4 Y0 2.711806 1_455
S4 Y0 2.711806 1_545
S5 Y2 2.692224 1_556
S5 Y1 2.699471 1_565
S5 Y1 2.699471 1_655
S5 Y3 2.711633 1_665
S6 Y3 2.670882 1_565
S6 Y3 2.670882 1_655
