# generated using pymatgen
data_Ba2VFeO6
_symmetry_space_group_name_H-M   'P 1'
_cell_length_a   5.73003313
_cell_length_b   5.73003313
_cell_length_c   18.78027800
_cell_angle_alpha   90.00000000
_cell_angle_beta   90.00000000
_cell_angle_gamma   119.99998992
_symmetry_Int_Tables_number   1
_chemical_formula_structural   Ba2VFeO6
_chemical_formula_sum   'Ba8 V4 Fe4 O24'
_cell_volume   534.00700987
_cell_formula_units_Z   4
loop_
 _symmetry_equiv_pos_site_id
 _symmetry_equiv_pos_as_xyz
  1  'x, y, z'
loop_
 _atom_site_type_symbol
 _atom_site_label
 _atom_site_symmetry_multiplicity
 _atom_site_fract_x
 _atom_site_fract_y
 _atom_site_fract_z
 _atom_site_occupancy
  Ba  Ba0  1  0.00000000  0.00000000  0.50000000  1
  Ba  Ba1  1  0.00000000  0.00000000  0.00000000  1
  Ba  Ba2  1  0.33333300  0.66666700  0.75000000  1
  Ba  Ba3  1  0.66666700  0.33333300  0.25000000  1
  Ba  Ba4  1  0.33333300  0.66666700  0.36530800  1
  Ba  Ba5  1  0.66666700  0.33333300  0.63469200  1
  Ba  Ba6  1  0.66666700  0.33333300  0.86530800  1
  Ba  Ba7  1  0.33333300  0.66666700  0.13469200  1
  V  V0  1  0.33333300  0.66666700  0.93758000  1
  V  V1  1  0.66666700  0.33333300  0.06242000  1
  V  V2  1  0.66666700  0.33333300  0.43758000  1
  V  V3  1  0.33333300  0.66666700  0.56242000  1
  Fe  Fe0  1  0.00000000  0.00000000  0.31885300  1
  Fe  Fe1  1  0.00000000  0.00000000  0.68114700  1
  Fe  Fe2  1  0.00000000  0.00000000  0.81885300  1
  Fe  Fe3  1  0.00000000  0.00000000  0.18114700  1
  O  O0  1  0.50000000  0.50000000  0.50000000  1
  O  O1  1  0.50000000  0.00000000  0.50000000  1
  O  O2  1  0.00000000  0.50000000  0.50000000  1
  O  O3  1  0.50000000  0.50000000  0.00000000  1
  O  O4  1  0.50000000  0.00000000  0.00000000  1
  O  O5  1  0.00000000  0.50000000  0.00000000  1
  O  O6  1  0.15475300  0.84524700  0.25000000  1
  O  O7  1  0.15475300  0.30950500  0.25000000  1
  O  O8  1  0.69049500  0.84524700  0.25000000  1
  O  O9  1  0.84524700  0.15475300  0.75000000  1
  O  O10  1  0.84524700  0.69049500  0.75000000  1
  O  O11  1  0.30950500  0.15475300  0.75000000  1
  O  O12  1  0.17596700  0.82403300  0.88266500  1
  O  O13  1  0.17596700  0.35193500  0.88266500  1
  O  O14  1  0.64806500  0.82403300  0.88266500  1
  O  O15  1  0.82403300  0.17596700  0.11733500  1
  O  O16  1  0.82403300  0.64806500  0.11733500  1
  O  O17  1  0.35193500  0.17596700  0.11733500  1
  O  O18  1  0.82403300  0.17596700  0.38266500  1
  O  O19  1  0.82403300  0.64806500  0.38266500  1
  O  O20  1  0.35193500  0.17596700  0.38266500  1
  O  O21  1  0.17596700  0.82403300  0.61733500  1
  O  O22  1  0.17596700  0.35193500  0.61733500  1
  O  O23  1  0.64806500  0.82403300  0.61733500  1
loop_
_geom_bond_atom_site_label_1
_geom_bond_atom_site_label_2
_geom_bond_distance
_geom_bond_site_symmetry_2
Ba0 O21 2.811720 1_545
Ba0 O18 2.811720 1_455
Ba0 O22 2.811723 1_555
Ba0 O23 2.811723 1_445
Ba0 O20 2.811723 1_555
Ba0 O19 2.811723 1_445
Ba0 O1 2.865017 1_455
Ba0 O2 2.865017 1_555
Ba0 O1 2.865017 1_555
Ba0 O2 2.865017 1_545
Ba0 O0 2.865017 1_445
Ba0 O0 2.865017 1_555
Ba1 O15 2.811720 1_455
Ba1 O12 2.811720 1_544
Ba1 O16 2.811723 1_445
Ba1 O17 2.811723 1_555
Ba1 O13 2.811723 1_554
Ba1 O14 2.811723 1_444
Ba1 O5 2.865017 1_555
Ba1 O5 2.865017 1_545
Ba1 O4 2.865017 1_455
Ba1 O4 2.865017 1_555
Ba1 O3 2.865017 1_555
Ba1 O3 2.865017 1_445
Ba2 O11 2.867456 1_565
Ba2 O10 2.867456 1_455
Ba2 O11 2.867456 1_555
Ba2 O10 2.867456 1_555
Ba2 O9 2.867456 1_565
Ba2 O9 2.867456 1_455
Ba2 O12 2.940537 1_555
Ba2 O21 2.940537 1_555
Ba2 O14 2.940537 1_555
Ba2 O13 2.940537 1_555
Ba2 O23 2.940537 1_555
Ba2 O22 2.940537 1_555
Ba3 O7 2.867456 1_655
Ba3 O8 2.867456 1_545
Ba3 O8 2.867456 1_555
Ba3 O7 2.867456 1_555
Ba3 O6 2.867456 1_655
Ba3 O6 2.867456 1_545
Ba3 O18 2.940537 1_555
Ba3 O15 2.940537 1_555
Ba3 O20 2.940537 1_555
Ba3 O19 2.940537 1_555
Ba3 O16 2.940537 1_555
Ba3 O17 2.940537 1_555
Ba4 O6 2.798339 1_555
Ba4 O8 2.798345 1_555
Ba4 O7 2.798345 1_555
Ba4 O20 2.884972 1_565
Ba4 O19 2.884972 1_455
Ba4 O18 2.884978 1_565
Ba4 O18 2.884978 1_455
Ba4 O19 2.884983 1_555
Ba4 O20 2.884983 1_555
Ba4 O2 3.022373 1_555
Ba4 O1 3.022373 1_565
Ba4 O0 3.022376 1_555
Ba5 O9 2.798339 1_555
Ba5 O10 2.798345 1_555
Ba5 O11 2.798345 1_555
Ba5 O22 2.884972 1_655
Ba5 O23 2.884972 1_545
Ba5 O21 2.884978 1_655
Ba5 O21 2.884978 1_545
Ba5 O23 2.884983 1_555
Ba5 O22 2.884983 1_555
Ba5 O1 3.022373 1_555
Ba5 O2 3.022373 1_655
Ba5 O0 3.022376 1_555
Ba6 O9 2.798339 1_555
Ba6 O10 2.798345 1_555
Ba6 O11 2.798345 1_555
Ba6 O13 2.884972 1_655
Ba6 O14 2.884972 1_545
Ba6 O12 2.884978 1_655
Ba6 O12 2.884978 1_545
Ba6 O14 2.884983 1_555
Ba6 O13 2.884983 1_555
Ba6 O4 3.022373 1_556
Ba6 O5 3.022373 1_656
Ba6 O3 3.022376 1_556
Ba7 O6 2.798339 1_555
Ba7 O8 2.798345 1_555
Ba7 O7 2.798345 1_555
Ba7 O17 2.884972 1_565
Ba7 O16 2.884972 1_455
Ba7 O15 2.884978 1_565
Ba7 O15 2.884978 1_455
Ba7 O16 2.884983 1_555
Ba7 O17 2.884983 1_555
Ba7 O5 3.022373 1_555
Ba7 O4 3.022373 1_565
Ba7 O3 3.022376 1_555
Fe0 O7 2.007725 1_555
Fe0 O8 2.007725 1_445
Fe0 O6 2.007729 1_545
Fe0 O18 2.118057 1_455
Fe0 O19 2.118061 1_445
Fe0 O20 2.118061 1_555
Fe1 O10 2.007725 1_445
Fe1 O11 2.007725 1_555
Fe1 O9 2.007729 1_455
Fe1 O21 2.118057 1_545
Fe1 O22 2.118061 1_555
Fe1 O23 2.118061 1_445
Fe2 O11 2.007725 1_555
Fe2 O10 2.007725 1_445
Fe2 O9 2.007729 1_455
Fe2 O12 2.118057 1_545
Fe2 O14 2.118061 1_445
Fe2 O13 2.118061 1_555
Fe3 O7 2.007725 1_555
Fe3 O8 2.007725 1_445
Fe3 O6 2.007729 1_545
Fe3 O15 2.118057 1_455
Fe3 O17 2.118061 1_555
Fe3 O16 2.118061 1_445
O0 V2 2.027393 1_555
O0 V3 2.027393 1_555
O1 V2 2.027389 1_555
O1 V3 2.027389 1_545
O2 V2 2.027389 1_455
O2 V3 2.027389 1_555
O3 V0 2.027393 1_554
O3 V1 2.027393 1_555
O4 V0 2.027389 1_544
O4 V1 2.027389 1_555
O5 V0 2.027389 1_554
O5 V1 2.027389 1_455
O12 V0 1.871597 1_555
O13 V0 1.871597 1_555
O14 V0 1.871597 1_555
O15 V1 1.871597 1_555
O16 V1 1.871597 1_555
O17 V1 1.871597 1_555
O18 V2 1.871597 1_555
O19 V2 1.871597 1_555
O20 V2 1.871597 1_555
O21 V3 1.871597 1_555
O22 V3 1.871597 1_555
O23 V3 1.871597 1_555
