# generated using pymatgen
data_CoNiO3
_symmetry_space_group_name_H-M   'P 1'
_cell_length_a   4.80554901
_cell_length_b   4.80584566
_cell_length_c   5.17495528
_cell_angle_alpha   62.33176629
_cell_angle_beta   117.67114532
_cell_angle_gamma   120.00704791
_symmetry_Int_Tables_number   1
_chemical_formula_structural   CoNiO3
_chemical_formula_sum   'Co2 Ni2 O6'
_cell_volume   87.35959764
_cell_formula_units_Z   2
loop_
 _symmetry_equiv_pos_site_id
 _symmetry_equiv_pos_as_xyz
  1  'x, y, z'
loop_
 _atom_site_type_symbol
 _atom_site_label
 _atom_site_symmetry_multiplicity
 _atom_site_fract_x
 _atom_site_fract_y
 _atom_site_fract_z
 _atom_site_occupancy
  Co  Co0  1  0.84540507  0.15462968  0.53612482  1
  Co  Co1  1  0.15459397  0.84537045  0.46387652  1
  Ni  Ni0  1  0.35227558  0.64770816  0.05666583  1
  Ni  Ni1  1  0.64772420  0.35229515  0.94332658  1
  O  O0  1  0.76274424  0.94810414  0.25838754  1
  O  O1  1  0.94810232  0.44376868  0.74162373  1
  O  O2  1  0.55621919  0.76273651  0.74159238  1
  O  O3  1  0.44375300  0.23724955  0.25840979  1
  O  O4  1  0.05191153  0.55625903  0.25837810  1
  O  O5  1  0.23726889  0.05188064  0.74161469  1
loop_
_geom_bond_atom_site_label_1
_geom_bond_atom_site_label_2
_geom_bond_distance
_geom_bond_site_symmetry_2
Co0 O5 1.871709 1_655
Co0 O2 1.871817 1_545
Co0 O1 1.871988 1_555
Co0 O4 1.899665 1_655
Co0 O3 1.899678 1_555
Co0 O0 1.899706 1_545
Co1 O0 1.871612 1_455
Co1 O3 1.871725 1_565
Co1 O4 1.871897 1_555
Co1 O1 1.899587 1_455
Co1 O2 1.899604 1_555
Co1 O5 1.899626 1_565
Ni0 O3 1.924278 1_555
Ni0 O0 1.924466 1_555
Ni0 O4 1.924861 1_555
Ni0 O2 2.007442 1_554
Ni0 O1 2.007453 1_454
Ni0 O5 2.008045 1_564
Ni1 O2 1.924272 1_555
Ni1 O5 1.924462 1_555
Ni1 O1 1.924836 1_555
Ni1 O4 2.007550 1_656
Ni1 O3 2.007556 1_556
Ni1 O0 2.008146 1_546
