# generated using pymatgen
data_NdSbPd
_symmetry_space_group_name_H-M   'P 1'
_cell_length_a   4.58500814
_cell_length_b   4.58537700
_cell_length_c   8.05182627
_cell_angle_alpha   90.00000000
_cell_angle_beta   90.00000000
_cell_angle_gamma   119.99734636
_symmetry_Int_Tables_number   1
_chemical_formula_structural   NdSbPd
_chemical_formula_sum   'Nd2 Sb2 Pd2'
_cell_volume   146.60601843
_cell_formula_units_Z   2
loop_
 _symmetry_equiv_pos_site_id
 _symmetry_equiv_pos_as_xyz
  1  'x, y, z'
loop_
 _atom_site_type_symbol
 _atom_site_label
 _atom_site_symmetry_multiplicity
 _atom_site_fract_x
 _atom_site_fract_y
 _atom_site_fract_z
 _atom_site_occupancy
  Nd  Nd0  1  -0.00000000  -0.00000000  0.50000000  1
  Nd  Nd1  1  -0.00000000  -0.00000000  -0.00000000  1
  Sb  Sb0  1  0.33329429  0.66658958  0.75000000  1
  Sb  Sb1  1  0.66670571  0.33341042  0.25000000  1
  Pd  Pd0  1  0.33334244  0.66668687  0.25000000  1
  Pd  Pd1  1  0.66665756  0.33331313  0.75000000  1
loop_
_geom_bond_atom_site_label_1
_geom_bond_atom_site_label_2
_geom_bond_distance
_geom_bond_site_symmetry_2
Nd0 Sb1 3.325554 1_445
Nd0 Sb0 3.325554 1_555
Nd0 Pd0 3.325593 1_545
Nd0 Pd1 3.325593 1_455
Nd0 Pd1 3.325599 1_555
Nd0 Pd0 3.325599 1_445
Nd0 Sb0 3.325749 1_545
Nd0 Sb1 3.325749 1_455
Nd0 Sb1 3.325752 1_555
Nd0 Sb0 3.325752 1_445
Nd0 Pd1 3.325861 1_445
Nd0 Pd0 3.325861 1_555
Nd1 Sb1 3.325554 1_445
Nd1 Sb0 3.325554 1_554
Nd1 Pd0 3.325593 1_545
Nd1 Pd1 3.325593 1_454
Nd1 Pd1 3.325599 1_554
Nd1 Pd0 3.325599 1_445
Nd1 Sb0 3.325749 1_544
Nd1 Sb1 3.325749 1_455
Nd1 Sb0 3.325752 1_444
Nd1 Sb1 3.325752 1_555
Nd1 Pd1 3.325861 1_444
Nd1 Pd0 3.325861 1_555
Pd0 Sb1 2.647108 1_455
Pd0 Sb1 2.647120 1_555
Pd0 Sb1 2.647665 1_565
Pd1 Sb0 2.647108 1_655
Pd1 Sb0 2.647120 1_555
Pd1 Sb0 2.647665 1_545
