# generated using pymatgen
data_La5Cu6S7O4
_symmetry_space_group_name_H-M   'P 1'
_cell_length_a   12.11412267
_cell_length_b   12.11412267
_cell_length_c   12.11412267
_cell_angle_alpha   153.29847070
_cell_angle_beta   99.25405909
_cell_angle_gamma   86.89465962
_symmetry_Int_Tables_number   1
_chemical_formula_structural   La5Cu6S7O4
_chemical_formula_sum   'La10 Cu12 S14 O8'
_cell_volume   772.21355209
_cell_formula_units_Z   2
loop_
 _symmetry_equiv_pos_site_id
 _symmetry_equiv_pos_as_xyz
  1  'x, y, z'
loop_
 _atom_site_type_symbol
 _atom_site_label
 _atom_site_symmetry_multiplicity
 _atom_site_fract_x
 _atom_site_fract_y
 _atom_site_fract_z
 _atom_site_occupancy
  La  La0  1  0.06085700  0.67142400  0.39740400  1
  La  La1  1  0.93914300  0.33654700  0.61056700  1
  La  La2  1  0.22597900  0.33654700  0.89740400  1
  La  La3  1  0.77402100  0.67142400  0.11056700  1
  La  La4  1  0.57144000  0.32150800  0.25006800  1
  La  La5  1  0.42856000  0.67862800  0.75006800  1
  La  La6  1  0.61023700  0.17872900  0.43224400  1
  La  La7  1  0.38976300  0.82200700  0.56849300  1
  La  La8  1  0.75351400  0.82200700  0.93224400  1
  La  La9  1  0.24648600  0.17872900  0.06849300  1
  Cu  Cu0  1  0.34637800  0.77408700  0.09770300  1
  Cu  Cu1  1  0.65362200  0.75132500  0.42770900  1
  Cu  Cu2  1  0.82361600  0.75132500  0.59770300  1
  Cu  Cu3  1  0.17638400  0.77408700  0.92770900  1
  Cu  Cu4  1  0.65363700  0.22600200  0.90235500  1
  Cu  Cu5  1  0.34636300  0.24871800  0.57236500  1
  Cu  Cu6  1  0.17635300  0.24871800  0.40235500  1
  Cu  Cu7  1  0.82364700  0.22600200  0.07236500  1
  Cu  Cu8  1  0.50000000  0.75597800  0.25597800  1
  Cu  Cu9  1  0.00000000  0.75597800  0.75597800  1
  Cu  Cu10  1  0.50000000  0.24416700  0.74416700  1
  Cu  Cu11  1  0.00000000  0.24416700  0.24416700  1
  S  S0  1  0.34466700  0.09475600  0.25009000  1
  S  S1  1  0.65533300  0.90542300  0.75009000  1
  S  S2  1  0.80737000  0.55755200  0.25018200  1
  S  S3  1  0.19263000  0.44281100  0.75018200  1
  S  S4  1  0.83863300  0.41234800  0.42669600  1
  S  S5  1  0.16136700  0.58806300  0.57371400  1
  S  S6  1  0.51434900  0.58806300  0.92669600  1
  S  S7  1  0.48565100  0.41234800  0.07371400  1
  S  S8  1  0.98747700  0.07791200  0.91038900  1
  S  S9  1  0.01252300  0.92291100  0.09043400  1
  S  S10  1  0.33247700  0.92291100  0.41038900  1
  S  S11  1  0.66752300  0.07791200  0.59043400  1
  S  S12  1  0.00455700  0.53948100  0.03492400  1
  S  S13  1  0.99544300  0.03036700  0.53492400  1
  O  O0  1  0.59274000  0.00005500  0.09279600  1
  O  O1  1  0.40726000  0.50005500  0.40731500  1
  O  O2  1  0.59274100  0.50005500  0.59279600  1
  O  O3  1  0.40725900  0.00005500  0.90731500  1
  O  O4  1  0.21993900  0.00076200  0.72028600  1
  O  O5  1  0.78006100  0.50034700  0.78082300  1
  O  O6  1  0.21952300  0.50034700  0.22028600  1
  O  O7  1  0.78047700  0.00076200  0.28082300  1
loop_
_geom_bond_atom_site_label_1
_geom_bond_atom_site_label_2
_geom_bond_distance
_geom_bond_site_symmetry_2
La0 O4 2.336005 1_565
La0 O6 2.354369 1_555
La0 S2 2.969025 1_455
La0 S12 2.986045 1_555
La0 S13 3.069070 1_465
La0 S5 3.154080 1_555
La0 S8 3.206819 1_465
La0 S8 3.241510 1_454
La1 O5 2.336005 1_555
La1 O7 2.354373 1_555
La1 S3 2.969026 1_655
La1 S13 2.986045 1_555
La1 S12 3.069070 1_656
La1 S4 3.154091 1_555
La1 S9 3.206814 1_656
La1 S9 3.241515 1_645
La2 O6 2.336005 1_556
La2 O4 2.354381 1_555
La2 S3 2.969014 1_555
La2 S13 2.986036 1_455
La2 S12 3.069059 1_556
La2 S7 3.154088 1_556
La2 S10 3.206815 1_556
La2 S10 3.241516 1_545
La3 O7 2.336005 1_565
La3 O5 2.354377 1_554
La3 S2 2.969025 1_555
La3 S12 2.986034 1_655
La3 S13 3.069062 1_565
La3 S6 3.154091 1_554
La3 S11 3.206820 1_565
La3 S11 3.241511 1_554
La4 O1 2.377709 1_555
La4 O2 2.377719 1_555
La4 O0 2.377803 1_555
La4 O3 2.377803 1_554
La4 S1 3.162557 1_544
La4 S1 3.162774 1_555
La4 S4 3.196493 1_555
La4 S7 3.196507 1_555
La5 O0 2.377711 1_566
La5 O3 2.377711 1_565
La5 O1 2.377795 1_555
La5 O2 2.377805 1_555
La5 S0 3.162563 1_555
La5 S0 3.162776 1_566
La5 S6 3.196496 1_555
La5 S5 3.196496 1_555
La6 O2 2.344382 1_555
La6 O0 2.346469 1_555
La6 O5 2.433588 1_555
La6 O7 2.436179 1_555
La6 S11 3.050848 1_555
La6 S0 3.211658 1_555
La6 S6 3.218876 1_555
La6 S6 3.220460 1_544
La7 O3 2.344382 1_565
La7 O1 2.346472 1_555
La7 O4 2.433587 1_565
La7 O6 2.436177 1_555
La7 S10 3.050860 1_555
La7 S1 3.211658 1_555
La7 S7 3.218884 1_566
La7 S7 3.220469 1_555
La8 O0 2.344382 1_566
La8 O2 2.346463 1_555
La8 O7 2.433586 1_566
La8 O5 2.436169 1_555
La8 S9 3.050871 1_656
La8 S1 3.211658 1_555
La8 S4 3.218885 1_566
La8 S4 3.220469 1_555
La9 O1 2.344382 1_555
La9 O3 2.346460 1_554
La9 O6 2.433600 1_555
La9 O4 2.436177 1_554
La9 S8 3.050873 1_454
La9 S0 3.211658 1_555
La9 S5 3.218875 1_555
La9 S5 3.220460 1_544
Cu0 S3 2.323578 1_554
Cu0 S10 2.365914 1_555
Cu0 S0 2.385231 1_565
Cu0 S6 2.455243 1_554
Cu1 S2 2.323576 1_555
Cu1 S11 2.365914 1_565
Cu1 S1 2.385243 1_555
Cu1 S7 2.455241 1_555
Cu2 S2 2.323576 1_555
Cu2 S8 2.365906 1_565
Cu2 S1 2.385243 1_555
Cu2 S4 2.455232 1_555
Cu3 S3 2.323587 1_555
Cu3 S9 2.365903 1_556
Cu3 S0 2.385240 1_566
Cu3 S5 2.455243 1_555
Cu4 S2 2.324492 1_556
Cu4 S11 2.363206 1_555
Cu4 S1 2.385206 1_545
Cu4 S7 2.456544 1_556
Cu5 S3 2.324490 1_555
Cu5 S10 2.363206 1_545
Cu5 S0 2.385198 1_555
Cu5 S6 2.456543 1_555
Cu6 S3 2.324499 1_555
Cu6 S9 2.363198 1_545
Cu6 S0 2.385207 1_555
Cu6 S5 2.456543 1_555
Cu7 S2 2.324492 1_555
Cu7 S8 2.363195 1_554
Cu7 S1 2.385206 1_544
Cu7 S4 2.456535 1_555
Cu8 S11 2.392596 1_565
Cu8 S10 2.392596 1_555
Cu8 S7 2.401410 1_555
Cu8 S6 2.401421 1_554
Cu9 S9 2.392594 1_556
Cu9 S8 2.392597 1_465
Cu9 S4 2.401418 1_455
Cu9 S5 2.401421 1_555
Cu10 S11 2.390430 1_555
Cu10 S10 2.390430 1_545
Cu10 S7 2.402297 1_556
Cu10 S6 2.402305 1_555
Cu11 S8 2.390428 1_454
Cu11 S9 2.390431 1_545
Cu11 S4 2.402305 1_455
Cu11 S5 2.402305 1_555
