# generated using pymatgen
data_HfCrAgS4
_symmetry_space_group_name_H-M   'P 1'
_cell_length_a   7.11506031
_cell_length_b   13.29237442
_cell_length_c   6.13180345
_cell_angle_alpha   90.20139114
_cell_angle_beta   90.08015542
_cell_angle_gamma   89.83328826
_symmetry_Int_Tables_number   1
_chemical_formula_structural   HfCrAgS4
_chemical_formula_sum   'Hf4 Cr4 Ag4 S16'
_cell_volume   579.91512723
_cell_formula_units_Z   4
loop_
 _symmetry_equiv_pos_site_id
 _symmetry_equiv_pos_as_xyz
  1  'x, y, z'
loop_
 _atom_site_type_symbol
 _atom_site_label
 _atom_site_symmetry_multiplicity
 _atom_site_fract_x
 _atom_site_fract_y
 _atom_site_fract_z
 _atom_site_occupancy
  Hf  Hf0  1  0.51552300  0.74623500  0.00101400  1
  Hf  Hf1  1  0.25066300  0.24963000  0.49952600  1
  Hf  Hf2  1  0.74965100  0.24957900  0.49937500  1
  Hf  Hf3  1  0.23449600  0.75209600  0.50124800  1
  Cr  Cr0  1  0.99998300  0.24636300  0.00029400  1
  Cr  Cr1  1  0.99795500  0.75387300  0.99852700  1
  Cr  Cr2  1  0.49998000  0.25324500  0.99994000  1
  Cr  Cr3  1  0.75178500  0.75045200  0.49782700  1
  Ag  Ag0  1  0.00154900  0.00331400  0.34947800  1
  Ag  Ag1  1  0.50003500  0.49614400  0.66198000  1
  Ag  Ag2  1  0.99572700  0.50034600  0.02410600  1
  Ag  Ag3  1  0.50392100  0.99533700  0.97991600  1
  S  S0  1  0.25052600  0.35579200  0.84721300  1
  S  S1  1  0.76390900  0.64369100  0.81735300  1
  S  S2  1  0.75023400  0.14412500  0.15130600  1
  S  S3  1  0.24227000  0.85899900  0.15648400  1
  S  S4  1  0.25054700  0.14424000  0.15150400  1
  S  S5  1  0.76198300  0.85718600  0.17780800  1
  S  S6  1  0.74837400  0.35580700  0.84733300  1
  S  S7  1  0.24226600  0.64225300  0.84015500  1
  S  S8  1  0.00084200  0.14105300  0.67478900  1
  S  S9  1  0.98385900  0.85655500  0.67327800  1
  S  S10  1  0.49939800  0.35877400  0.32485800  1
  S  S11  1  0.50859800  0.64247300  0.34452100  1
  S  S12  1  0.99942900  0.35597100  0.32198200  1
  S  S13  1  0.98805700  0.64812400  0.31844400  1
  S  S14  1  0.50079100  0.14303300  0.67905900  1
  S  S15  1  0.50764800  0.85531000  0.66068500  1
loop_
_geom_bond_atom_site_label_1
_geom_bond_atom_site_label_2
_geom_bond_distance
_geom_bond_site_symmetry_2
Hf0 S1 2.496041 1_554
Hf0 S11 2.522384 1_555
Hf0 S5 2.534515 1_555
Hf0 S15 2.545699 1_554
Hf0 S7 2.581481 1_554
Hf0 S3 2.629382 1_555
Hf1 S12 2.523733 1_455
Hf1 S14 2.525398 1_555
Hf1 S10 2.532807 1_555
Hf1 S8 2.535458 1_555
Hf1 S4 2.548613 1_555
Hf1 S0 2.552525 1_555
Hf2 S12 2.524358 1_555
Hf2 S14 2.527040 1_555
Hf2 S10 2.532355 1_555
Hf2 S8 2.534300 1_655
Hf2 S2 2.549320 1_555
Hf2 S6 2.554404 1_555
Hf3 S9 2.490257 1_455
Hf3 S13 2.497739 1_455
Hf3 S7 2.544397 1_555
Hf3 S3 2.552115 1_555
Hf3 S15 2.572155 1_555
Hf3 S11 2.613272 1_555
Cr0 S4 2.422975 1_655
Cr0 S2 2.426815 1_555
Cr0 S8 2.433850 1_654
Cr0 S12 2.448136 1_555
Cr0 S6 2.488105 1_554
Cr0 S0 2.490783 1_654
Cr1 S13 2.418536 1_556
Cr1 S9 2.422445 1_555
Cr1 S5 2.427839 1_556
Cr1 S3 2.431546 1_656
Cr1 S7 2.479037 1_655
Cr1 S1 2.479877 1_555
Cr2 S0 2.423940 1_555
Cr2 S6 2.425965 1_555
Cr2 S10 2.432572 1_556
Cr2 S14 2.448935 1_555
Cr2 S2 2.474985 1_556
Cr2 S4 2.478274 1_556
Cr3 S13 2.422267 1_555
Cr3 S9 2.423009 1_555
Cr3 S1 2.424543 1_555
Cr3 S5 2.426783 1_555
Cr3 S11 2.436817 1_555
Cr3 S15 2.436855 1_555
Ag0 S8 2.702858 1_555
Ag0 S5 2.790380 1_445
Ag0 S9 2.791567 1_445
Ag0 S3 2.825661 1_545
Ag0 S4 2.857042 1_555
Ag0 S2 2.857921 1_455
Ag1 S10 2.753336 1_555
Ag1 S11 2.757507 1_555
Ag1 S6 2.807794 1_555
Ag1 S0 2.821697 1_555
Ag1 S1 2.877914 1_555
Ag1 S7 2.880832 1_555
Ag2 S12 2.654047 1_555
Ag2 S13 2.663390 1_555
Ag2 S7 2.819057 1_654
Ag2 S1 2.819775 1_554
Ag2 S6 2.821922 1_554
Ag2 S0 2.850574 1_654
Ag3 S15 2.696481 1_555
Ag3 S14 2.698728 1_565
Ag3 S3 2.821581 1_556
Ag3 S2 2.843889 1_566
Ag3 S5 2.864576 1_556
Ag3 S4 2.871310 1_566
